# Generated by pormake.
# Topology ptr, (4,4)-cn, num edge types: 1
# Building blocks:
#     Node 0, Type 0, BuildingBlock: KUFVIS_clean_sbu_0, # of connection points: 4
#     Node 1, Type 0, BuildingBlock: KUFVIS_clean_sbu_0, # of connection points: 4
#     Node 2, Type 0, BuildingBlock: KUFVIS_clean_sbu_0, # of connection points: 4
#     Node 3, Type 0, BuildingBlock: KUFVIS_clean_sbu_0, # of connection points: 4
#     Node 4, Type 0, BuildingBlock: KUFVIS_clean_sbu_0, # of connection points: 4
#     Node 5, Type 0, BuildingBlock: KUFVIS_clean_sbu_0, # of connection points: 4
#     Node 6, Type 0, BuildingBlock: KUFVIS_clean_sbu_0, # of connection points: 4
#     Node 7, Type 0, BuildingBlock: KUFVIS_clean_sbu_0, # of connection points: 4
#     Node 8, Type 0, BuildingBlock: KUFVIS_clean_sbu_0, # of connection points: 4
#     Node 9, Type 0, BuildingBlock: KUFVIS_clean_sbu_0, # of connection points: 4
#     Node 10, Type 0, BuildingBlock: KUFVIS_clean_sbu_0, # of connection points: 4
#     Node 11, Type 0, BuildingBlock: KUFVIS_clean_sbu_0, # of connection points: 4
#     Node 12, Type 0, BuildingBlock: KUFVIS_clean_sbu_0, # of connection points: 4
#     Node 13, Type 0, BuildingBlock: KUFVIS_clean_sbu_0, # of connection points: 4
#     Node 14, Type 0, BuildingBlock: KUFVIS_clean_sbu_0, # of connection points: 4
#     Node 15, Type 0, BuildingBlock: KUFVIS_clean_sbu_0, # of connection points: 4
#     Node 16, Type 0, BuildingBlock: KUFVIS_clean_sbu_0, # of connection points: 4
#     Node 17, Type 0, BuildingBlock: KUFVIS_clean_sbu_0, # of connection points: 4
#     Node 18, Type 1, BuildingBlock: NAWXER_clean_linker_0, # of connection points: 4
#     Node 19, Type 1, BuildingBlock: NAWXER_clean_linker_0, # of connection points: 4
#     Node 20, Type 1, BuildingBlock: NAWXER_clean_linker_0, # of connection points: 4
#     Node 21, Type 1, BuildingBlock: NAWXER_clean_linker_0, # of connection points: 4
#     Node 22, Type 1, BuildingBlock: NAWXER_clean_linker_0, # of connection points: 4
#     Node 23, Type 1, BuildingBlock: NAWXER_clean_linker_0, # of connection points: 4
#     Node 24, Type 1, BuildingBlock: NAWXER_clean_linker_0, # of connection points: 4
#     Node 25, Type 1, BuildingBlock: NAWXER_clean_linker_0, # of connection points: 4
#     Node 26, Type 1, BuildingBlock: NAWXER_clean_linker_0, # of connection points: 4
#     Node 27, Type 1, BuildingBlock: NAWXER_clean_linker_0, # of connection points: 4
#     Node 28, Type 1, BuildingBlock: NAWXER_clean_linker_0, # of connection points: 4
#     Node 29, Type 1, BuildingBlock: NAWXER_clean_linker_0, # of connection points: 4
#     Node 30, Type 1, BuildingBlock: NAWXER_clean_linker_0, # of connection points: 4
#     Node 31, Type 1, BuildingBlock: NAWXER_clean_linker_0, # of connection points: 4
#     Node 32, Type 1, BuildingBlock: NAWXER_clean_linker_0, # of connection points: 4
#     Node 33, Type 1, BuildingBlock: NAWXER_clean_linker_0, # of connection points: 4
#     Node 34, Type 1, BuildingBlock: NAWXER_clean_linker_0, # of connection points: 4
#     Node 35, Type 1, BuildingBlock: NAWXER_clean_linker_0, # of connection points: 4
#     Edge 36, Type (0, 1), BuildingBlock: ZUJKAS_clean_linker_0, # of connection points: 2
#     Edge 37, Type (0, 1), BuildingBlock: ZUJKAS_clean_linker_0, # of connection points: 2
#     Edge 38, Type (0, 1), BuildingBlock: ZUJKAS_clean_linker_0, # of connection points: 2
#     Edge 39, Type (0, 1), BuildingBlock: ZUJKAS_clean_linker_0, # of connection points: 2
#     Edge 40, Type (0, 1), BuildingBlock: ZUJKAS_clean_linker_0, # of connection points: 2
#     Edge 41, Type (0, 1), BuildingBlock: ZUJKAS_clean_linker_0, # of connection points: 2
#     Edge 42, Type (0, 1), BuildingBlock: ZUJKAS_clean_linker_0, # of connection points: 2
#     Edge 43, Type (0, 1), BuildingBlock: ZUJKAS_clean_linker_0, # of connection points: 2
#     Edge 44, Type (0, 1), BuildingBlock: ZUJKAS_clean_linker_0, # of connection points: 2
#     Edge 45, Type (0, 1), BuildingBlock: ZUJKAS_clean_linker_0, # of connection points: 2
#     Edge 46, Type (0, 1), BuildingBlock: ZUJKAS_clean_linker_0, # of connection points: 2
#     Edge 47, Type (0, 1), BuildingBlock: ZUJKAS_clean_linker_0, # of connection points: 2
#     Edge 48, Type (0, 1), BuildingBlock: ZUJKAS_clean_linker_0, # of connection points: 2
#     Edge 49, Type (0, 1), BuildingBlock: ZUJKAS_clean_linker_0, # of connection points: 2
#     Edge 50, Type (0, 1), BuildingBlock: ZUJKAS_clean_linker_0, # of connection points: 2
#     Edge 51, Type (0, 1), BuildingBlock: ZUJKAS_clean_linker_0, # of connection points: 2
#     Edge 52, Type (0, 1), BuildingBlock: ZUJKAS_clean_linker_0, # of connection points: 2
#     Edge 53, Type (0, 1), BuildingBlock: ZUJKAS_clean_linker_0, # of connection points: 2
#     Edge 54, Type (0, 1), BuildingBlock: ZUJKAS_clean_linker_0, # of connection points: 2
#     Edge 55, Type (0, 1), BuildingBlock: ZUJKAS_clean_linker_0, # of connection points: 2
#     Edge 56, Type (0, 1), BuildingBlock: ZUJKAS_clean_linker_0, # of connection points: 2
#     Edge 57, Type (0, 1), BuildingBlock: ZUJKAS_clean_linker_0, # of connection points: 2
#     Edge 58, Type (0, 1), BuildingBlock: ZUJKAS_clean_linker_0, # of connection points: 2
#     Edge 59, Type (0, 1), BuildingBlock: ZUJKAS_clean_linker_0, # of connection points: 2
#     Edge 60, Type (0, 1), BuildingBlock: ZUJKAS_clean_linker_0, # of connection points: 2
#     Edge 61, Type (0, 1), BuildingBlock: ZUJKAS_clean_linker_0, # of connection points: 2
#     Edge 62, Type (0, 1), BuildingBlock: ZUJKAS_clean_linker_0, # of connection points: 2
#     Edge 63, Type (0, 1), BuildingBlock: ZUJKAS_clean_linker_0, # of connection points: 2
#     Edge 64, Type (0, 1), BuildingBlock: ZUJKAS_clean_linker_0, # of connection points: 2
#     Edge 65, Type (0, 1), BuildingBlock: ZUJKAS_clean_linker_0, # of connection points: 2
#     Edge 66, Type (0, 1), BuildingBlock: ZUJKAS_clean_linker_0, # of connection points: 2
#     Edge 67, Type (0, 1), BuildingBlock: ZUJKAS_clean_linker_0, # of connection points: 2
#     Edge 68, Type (0, 1), BuildingBlock: ZUJKAS_clean_linker_0, # of connection points: 2
#     Edge 69, Type (0, 1), BuildingBlock: ZUJKAS_clean_linker_0, # of connection points: 2
#     Edge 70, Type (0, 1), BuildingBlock: ZUJKAS_clean_linker_0, # of connection points: 2
#     Edge 71, Type (0, 1), BuildingBlock: ZUJKAS_clean_linker_0, # of connection points: 2
#     Edge 72, Type (0, 1), BuildingBlock: ZUJKAS_clean_linker_0, # of connection points: 2
#     Edge 73, Type (0, 1), BuildingBlock: ZUJKAS_clean_linker_0, # of connection points: 2
#     Edge 74, Type (0, 1), BuildingBlock: ZUJKAS_clean_linker_0, # of connection points: 2
#     Edge 75, Type (0, 1), BuildingBlock: ZUJKAS_clean_linker_0, # of connection points: 2
#     Edge 76, Type (0, 1), BuildingBlock: ZUJKAS_clean_linker_0, # of connection points: 2
#     Edge 77, Type (0, 1), BuildingBlock: ZUJKAS_clean_linker_0, # of connection points: 2
#     Edge 78, Type (0, 1), BuildingBlock: ZUJKAS_clean_linker_0, # of connection points: 2
#     Edge 79, Type (0, 1), BuildingBlock: ZUJKAS_clean_linker_0, # of connection points: 2
#     Edge 80, Type (0, 1), BuildingBlock: ZUJKAS_clean_linker_0, # of connection points: 2
#     Edge 81, Type (0, 1), BuildingBlock: ZUJKAS_clean_linker_0, # of connection points: 2
#     Edge 82, Type (0, 1), BuildingBlock: ZUJKAS_clean_linker_0, # of connection points: 2
#     Edge 83, Type (0, 1), BuildingBlock: ZUJKAS_clean_linker_0, # of connection points: 2
#     Edge 84, Type (0, 1), BuildingBlock: ZUJKAS_clean_linker_0, # of connection points: 2
#     Edge 85, Type (0, 1), BuildingBlock: ZUJKAS_clean_linker_0, # of connection points: 2
#     Edge 86, Type (0, 1), BuildingBlock: ZUJKAS_clean_linker_0, # of connection points: 2
#     Edge 87, Type (0, 1), BuildingBlock: ZUJKAS_clean_linker_0, # of connection points: 2
#     Edge 88, Type (0, 1), BuildingBlock: ZUJKAS_clean_linker_0, # of connection points: 2
#     Edge 89, Type (0, 1), BuildingBlock: ZUJKAS_clean_linker_0, # of connection points: 2
#     Edge 90, Type (0, 1), BuildingBlock: ZUJKAS_clean_linker_0, # of connection points: 2
#     Edge 91, Type (0, 1), BuildingBlock: ZUJKAS_clean_linker_0, # of connection points: 2
#     Edge 92, Type (0, 1), BuildingBlock: ZUJKAS_clean_linker_0, # of connection points: 2
#     Edge 93, Type (0, 1), BuildingBlock: ZUJKAS_clean_linker_0, # of connection points: 2
#     Edge 94, Type (0, 1), BuildingBlock: ZUJKAS_clean_linker_0, # of connection points: 2
#     Edge 95, Type (0, 1), BuildingBlock: ZUJKAS_clean_linker_0, # of connection points: 2
#     Edge 96, Type (0, 1), BuildingBlock: ZUJKAS_clean_linker_0, # of connection points: 2
#     Edge 97, Type (0, 1), BuildingBlock: ZUJKAS_clean_linker_0, # of connection points: 2
#     Edge 98, Type (0, 1), BuildingBlock: ZUJKAS_clean_linker_0, # of connection points: 2
#     Edge 99, Type (0, 1), BuildingBlock: ZUJKAS_clean_linker_0, # of connection points: 2
#     Edge 100, Type (0, 1), BuildingBlock: ZUJKAS_clean_linker_0, # of connection points: 2
#     Edge 101, Type (0, 1), BuildingBlock: ZUJKAS_clean_linker_0, # of connection points: 2
#     Edge 102, Type (0, 1), BuildingBlock: ZUJKAS_clean_linker_0, # of connection points: 2
#     Edge 103, Type (0, 1), BuildingBlock: ZUJKAS_clean_linker_0, # of connection points: 2
#     Edge 104, Type (0, 1), BuildingBlock: ZUJKAS_clean_linker_0, # of connection points: 2
#     Edge 105, Type (0, 1), BuildingBlock: ZUJKAS_clean_linker_0, # of connection points: 2
#     Edge 106, Type (0, 1), BuildingBlock: ZUJKAS_clean_linker_0, # of connection points: 2
#     Edge 107, Type (0, 1), BuildingBlock: ZUJKAS_clean_linker_0, # of connection points: 2
# Relax obj value: 0.037
# Max RMSD: 0.166
# Mean RMSD: 0.064
data_MOF--net-ptr--node1-KUFVIS_clean_sbu_0--node2-NAWXER_clean_linker_0--edge1-ZUJKAS_clean_linker_0
_symmetry_space_group_name_H-M    P1
_symmetry_Int_Tables_number       1
_symmetry_cell_setting            triclinic
loop_
_symmetry_equiv_pos_as_xyz
'x, y, z'
_cell_length_a     108.27358
_cell_length_b     107.78551
_cell_length_c     80.121607
_cell_angle_alpha  89.857716
_cell_angle_beta   90.443497
_cell_angle_gamma 119.49486
loop_
_atom_site_label
_atom_site_type_symbol
_atom_site_fract_x
_atom_site_fract_y
_atom_site_fract_z
_atom_type_partial_charge
Mn0 Mn 0.99962 0.34587 0.00371 0.0
Mn1 Mn 0.03063 0.37686 0.00301 0.0
C2 C 0.00234 0.36372 0.98565 0.0
C3 C 0.98577 0.32253 0.99435 0.0
C4 C 0.00846 0.3693 0.02997 0.0
O5 O 0.01314 0.34105 0.01609 0.0
O6 O 0.03365 0.36163 0.01299 0.0
C7 C 0.04583 0.36883 0.97854 0.0
N8 N 0.04088 0.37768 0.98335 0.0
C9 C 0.05051 0.39224 0.9589 0.0
C10 C 0.05579 0.38333 0.95374 0.0
C11 C 0.05341 0.37156 0.96358 0.0
C12 C 0.04305 0.389 0.97393 0.0
H13 H 0.04398 0.35976 0.98606 0.0
C14 C 0.02654 0.34868 0.01795 0.0
O15 O 0.98316 0.32667 0.00846 0.0
O16 O 0.99661 0.33183 0.986 0.0
N17 N 0.02941 0.39257 0.99361 0.0
C18 C 0.02316 0.3998 1.00005 0.0
C19 C 0.02443 0.41181 0.99162 0.0
C20 C 0.03219 0.41632 0.97675 0.0
C21 C 0.0386 0.40876 0.97042 0.0
C22 C 0.03711 0.39698 0.97946 0.0
H23 H 0.01724 0.39643 0.01151 0.0
O24 O 0.98977 0.35367 0.98965 0.0
O25 O 0.01298 0.36287 0.99206 0.0
O26 O 0.9992 0.35733 0.02386 0.0
O27 O 0.02061 0.37713 0.0234 0.0
C28 C 0.04625 0.41236 0.95538 0.0
C29 C 0.05216 0.40407 0.9496 0.0
H30 H 0.0616 0.38537 0.94218 0.0
H31 H 0.0574 0.3646 0.95964 0.0
H32 H 0.01944 0.41758 0.99657 0.0
H33 H 0.03315 0.42559 0.97029 0.0
H34 H 0.0475 0.42137 0.94807 0.0
H35 H 0.05787 0.40683 0.93791 0.0
Mn36 Mn 0.6504 0.64956 0.01351 0.0
Mn37 Mn 0.6521 0.61915 0.01109 0.0
C38 C 0.63654 0.63073 0.03091 0.0
C39 C 0.6591 0.67254 0.02398 0.0
C40 C 0.63522 0.62661 0.98669 0.0
O41 O 0.66835 0.65565 1.00019 0.0
O42 O 0.6688 0.63504 1.00011 0.0
C43 C 0.67724 0.62813 0.03299 0.0
N44 N 0.66347 0.61867 0.02916 0.0
C45 C 0.66187 0.6035 0.05208 0.0
C46 C 0.67606 0.61303 0.05621 0.0
C47 C 0.68376 0.62543 0.04666 0.0
C48 C 0.65593 0.60679 0.03836 0.0
H49 H 0.6832 0.63766 0.02566 0.0
C50 C 0.67409 0.64821 0.99629 0.0
O51 O 0.65191 0.66858 0.0101 0.0
O52 O 0.66141 0.66323 0.03158 0.0
N53 N 0.63685 0.60266 0.02114 0.0
C54 C 0.62316 0.59477 0.01577 0.0
C55 C 0.61405 0.58195 0.02391 0.0
C56 C 0.61915 0.57731 0.03735 0.0
C57 C 0.63325 0.58562 0.04268 0.0
C58 C 0.64189 0.59819 0.03395 0.0
H59 H 0.61925 0.59819 0.0053 0.0
O60 O 0.63339 0.6407 0.02802 0.0
O61 O 0.64803 0.63225 0.0239 0.0
O62 O 0.63821 0.63856 0.99327 0.0
O63 O 0.63996 0.61862 0.9923 0.0
C64 C 0.63907 0.58195 0.05635 0.0
C65 C 0.65334 0.59093 0.06111 0.0
H66 H 0.68113 0.61098 0.06674 0.0
H67 H 0.69471 0.63286 0.04981 0.0
H68 H 0.60315 0.5756 0.01976 0.0
H69 H 0.61212 0.56737 0.04354 0.0
H70 H 0.63261 0.57231 0.06339 0.0
H71 H 0.65765 0.58808 0.07176 0.0
Mn72 Mn 0.34683 0.99963 0.01213 0.0
Mn73 Mn 0.37551 0.0324 0.00976 0.0
C74 C 0.36654 0.00521 0.02869 0.0
C75 C 0.32446 0.98464 0.02338 0.0
C76 C 0.36836 0.0092 0.98391 0.0
O77 O 0.33942 0.01116 0.99956 0.0
O78 O 0.35851 0.03304 0.00148 0.0
C79 C 0.36739 0.04695 0.03512 0.0
N80 N 0.37684 0.04316 0.02925 0.0
C81 C 0.39346 0.05601 0.0513 0.0
C82 C 0.38394 0.06011 0.05756 0.0
C83 C 0.37082 0.0555 0.04948 0.0
C84 C 0.38938 0.04735 0.03707 0.0
H85 H 0.35735 0.04349 0.02887 0.0
C86 C 0.3456 0.02461 0.99725 0.0
O87 O 0.32822 0.98177 0.00919 0.0
O88 O 0.33359 0.99628 0.03083 0.0
N89 N 0.39287 0.03363 0.01728 0.0
C90 C 0.4007 0.02849 0.00981 0.0
C91 C 0.41425 0.03236 0.01609 0.0
C92 C 0.41966 0.04158 0.02986 0.0
C93 C 0.41133 0.04658 0.0375 0.0
C94 C 0.39797 0.04248 0.03057 0.0
H95 H 0.39674 0.02165 0.99898 0.0
O96 O 0.35705 0.99204 0.02595 0.0
O97 O 0.36394 0.01476 0.02215 0.0
O98 O 0.35761 0.99927 0.9913 0.0
O99 O 0.37524 0.02198 0.98941 0.0
C100 C 0.41581 0.05557 0.05161 0.0
C101 C 0.40681 0.06015 0.05861 0.0
H102 H 0.38657 0.06677 0.06859 0.0
H103 H 0.36341 0.05859 0.05426 0.0
H104 H 0.42061 0.02842 0.01018 0.0
H105 H 0.43027 0.04482 0.03436 0.0
H106 H 0.42611 0.05896 0.05724 0.0
H107 H 0.4103 0.06692 0.06958 0.0
Mn108 Mn 0.00429 0.65693 0.00289 0.0
Mn109 Mn 0.03669 0.65971 0.00507 0.0
C110 C 0.00934 0.64254 0.98623 0.0
C111 C 0.9895 0.66501 0.99201 0.0
C112 C 0.01365 0.64385 0.03069 0.0
O113 O 0.01602 0.67552 0.01558 0.0
O114 O 0.03753 0.6772 0.01422 0.0
C115 C 0.05128 0.68313 0.98076 0.0
N116 N 0.04739 0.66966 0.98591 0.0
C117 C 0.06025 0.66646 0.96354 0.0
C118 C 0.06446 0.68033 0.95803 0.0
C119 C 0.05988 0.68867 0.96662 0.0
C120 C 0.0515 0.66145 0.97756 0.0
H121 H 0.04788 0.68961 0.98741 0.0
C122 C 0.02937 0.68215 0.01828 0.0
O123 O 0.98672 0.65824 0.00612 0.0
O124 O 0.00094 0.66724 0.9844 0.0
N125 N 0.03778 0.64372 0.99662 0.0
C126 C 0.03251 0.63046 0.00335 0.0
C127 C 0.03599 0.62072 0.99615 0.0
C128 C 0.0451 0.62483 0.98236 0.0
C129 C 0.05051 0.63858 0.97576 0.0
C130 C 0.04656 0.64777 0.98336 0.0
H131 H 0.02574 0.62734 0.01416 0.0
O132 O 0.99632 0.63932 0.98903 0.0
O133 O 0.01911 0.65446 0.9927 0.0
O134 O 0.00398 0.64552 0.02354 0.0
O135 O 0.02627 0.64907 0.0251 0.0
C136 C 0.05972 0.64358 0.96199 0.0
C137 C 0.06443 0.65743 0.95575 0.0
H138 H 0.07119 0.68467 0.9472 0.0
H139 H 0.06306 0.69937 0.96242 0.0
H140 H 0.0318 0.61014 0.00133 0.0
H141 H 0.04787 0.61733 0.97697 0.0
H142 H 0.06319 0.63683 0.95603 0.0
H143 H 0.07133 0.66106 0.94499 0.0
Mn144 Mn 0.3519 0.35297 0.0094 0.0
Mn145 Mn 0.38139 0.35017 0.00481 0.0
C146 C 0.37151 0.36622 0.02623 0.0
C147 C 0.32957 0.34502 0.02112 0.0
C148 C 0.37407 0.36809 0.98199 0.0
O149 O 0.34466 0.33481 0.99575 0.0
O150 O 0.36492 0.33395 0.99359 0.0
C151 C 0.37221 0.32422 0.0253 0.0
N152 N 0.38181 0.33809 0.02203 0.0
C153 C 0.39727 0.33856 0.04403 0.0
C154 C 0.38758 0.32426 0.0476 0.0
C155 C 0.37496 0.31709 0.03825 0.0
C156 C 0.39386 0.34516 0.03114 0.0
H157 H 0.36254 0.31864 0.01807 0.0
C158 C 0.35165 0.32891 0.99067 0.0
O159 O 0.33318 0.35225 0.00731 0.0
O160 O 0.33884 0.34222 0.0279 0.0
N161 N 0.39829 0.36489 0.015 0.0
C162 C 0.4064 0.37871 0.01014 0.0
C163 C 0.41939 0.38739 0.01826 0.0
C164 C 0.42404 0.38169 0.03104 0.0
C165 C 0.41556 0.3674 0.03574 0.0
C166 C 0.40268 0.3593 0.02726 0.0
H167 H 0.40299 0.38309 1.00015 0.0
O168 O 0.36191 0.36997 0.02415 0.0
O169 O 0.36921 0.35455 0.01874 0.0
O170 O 0.36234 0.36512 0.98894 0.0
O171 O 0.38195 0.36304 0.98694 0.0
C172 C 0.41942 0.36085 0.04843 0.0
C173 C 0.4102 0.34649 0.05272 0.0
H174 H 0.38972 0.3187 0.05749 0.0
H175 H 0.36741 0.30607 0.04094 0.0
H176 H 0.42588 0.39841 0.01458 0.0
H177 H 0.43414 0.38839 0.03715 0.0
H178 H 0.42941 0.36677 0.05506 0.0
H179 H 0.4132 0.34164 0.06265 0.0
Mn180 Mn 0.65357 0.99971 0.00615 0.0
Mn181 Mn 0.62431 0.9674 0.0086 0.0
C182 C 0.63394 0.99477 0.98986 0.0
C183 C 0.6759 0.01412 0.99469 0.0
C184 C 0.63258 0.99059 0.03478 0.0
O185 O 0.66049 0.98767 0.01838 0.0
O186 O 0.64107 0.96599 0.01619 0.0
C187 C 0.63113 0.95231 0.98258 0.0
N188 N 0.6222 0.95662 0.98886 0.0
C189 C 0.60515 0.94463 0.9669 0.0
C190 C 0.61413 0.94 0.96022 0.0
C191 C 0.6272 0.94391 0.96806 0.0
C192 C 0.60969 0.95306 0.98132 0.0
H193 H 0.64116 0.95527 0.98862 0.0
C194 C 0.65406 0.97418 0.02036 0.0
O195 O 0.67248 0.01716 0.00901 0.0
O196 O 0.66644 0.00264 0.98725 0.0
N197 N 0.60723 0.96708 0.00163 0.0
C198 C 0.60006 0.97284 0.00935 0.0
C199 C 0.58671 0.96987 0.00318 0.0
C200 C 0.58084 0.96091 0.98926 0.0
C201 C 0.58849 0.95523 0.9814 0.0
C202 C 0.60167 0.95845 0.98821 0.0
H203 H 0.6044 0.97953 0.02024 0.0
O204 O 0.6437 0.00785 0.99264 0.0
O205 O 0.63621 0.98497 0.99628 0.0
O206 O 0.64324 0.0004 0.02716 0.0
O207 O 0.62536 0.97783 0.02928 0.0
C208 C 0.58355 0.94648 0.96711 0.0
C209 C 0.59193 0.94129 0.95978 0.0
H210 H 0.61112 0.93349 0.94905 0.0
H211 H 0.63421 0.94042 0.96295 0.0
H212 H 0.58089 0.97434 0.00927 0.0
H213 H 0.57042 0.95845 0.98478 0.0
H214 H 0.57336 0.94375 0.96157 0.0
H215 H 0.5881 0.93472 0.94866 0.0
Mn216 Mn 0.66426 0.68116 0.34182 0.0
Mn217 Mn 0.69581 0.71142 0.34555 0.0
C218 C 0.66938 0.70021 0.32444 0.0
C219 C 0.65051 0.65827 0.33104 0.0
C220 C 0.67119 0.70366 0.36895 0.0
O221 O 0.67597 0.67485 0.3557 0.0
O222 O 0.6968 0.69529 0.35624 0.0
C223 C 0.71259 0.70304 0.32401 0.0
N224 N 0.70796 0.71236 0.32785 0.0
C225 C 0.72161 0.72812 0.30565 0.0
C226 C 0.72659 0.71873 0.3015 0.0
C227 C 0.72202 0.70611 0.31069 0.0
C228 C 0.71219 0.72446 0.319 0.0
H229 H 0.70911 0.69334 0.33106 0.0
C230 C 0.68902 0.68209 0.35982 0.0
O231 O 0.64704 0.6622 0.34472 0.0
O232 O 0.66207 0.66759 0.32378 0.0
N233 N 0.69678 0.72807 0.33577 0.0
C234 C 0.6906 0.73574 0.34101 0.0
C235 C 0.69415 0.74874 0.33322 0.0
C236 C 0.70409 0.75378 0.32024 0.0
C237 C 0.71021 0.74565 0.31497 0.0
C238 C 0.70643 0.73288 0.32336 0.0
H239 H 0.68312 0.73202 0.35115 0.0
O240 O 0.65636 0.6903 0.32679 0.0
O241 O 0.67915 0.69852 0.33202 0.0
O242 O 0.66248 0.69197 0.36182 0.0
O243 O 0.68394 0.71156 0.36406 0.0
C244 C 0.71988 0.74969 0.30168 0.0
C245 C 0.72551 0.74089 0.29695 0.0
H246 H 0.73387 0.72107 0.29124 0.0
H247 H 0.72577 0.69878 0.30753 0.0
H248 H 0.68932 0.75493 0.33728 0.0
H249 H 0.70691 0.76388 0.31436 0.0
H250 H 0.72294 0.75948 0.2949 0.0
H251 H 0.7328 0.74402 0.28658 0.0
Mn252 Mn 0.31876 0.98549 0.34959 0.0
Mn253 Mn 0.31683 0.95323 0.34886 0.0
C254 C 0.30443 0.96812 0.36836 0.0
C255 C 0.32947 0.00912 0.3585 0.0
C256 C 0.30117 0.96195 0.3242 0.0
O257 O 0.3359 0.98923 0.33576 0.0
O258 O 0.33391 0.96746 0.33667 0.0
C259 C 0.34221 0.96053 0.36969 0.0
N260 N 0.32805 0.95216 0.36672 0.0
C261 C 0.32559 0.93734 0.39037 0.0
C262 C 0.34016 0.94576 0.39364 0.0
C263 C 0.34849 0.95744 0.38329 0.0
C264 C 0.31991 0.94099 0.37669 0.0
H265 H 0.34865 0.96949 0.36172 0.0
C266 C 0.34025 0.98053 0.33208 0.0
O267 O 0.32191 0.00496 0.3449 0.0
O268 O 0.3311 0.99961 0.36669 0.0
N269 N 0.30097 0.93825 0.36013 0.0
C270 C 0.287 0.93154 0.35563 0.0
C271 C 0.27717 0.91977 0.3649 0.0
C272 C 0.28184 0.91486 0.37849 0.0
C273 C 0.2963 0.92182 0.38275 0.0
C274 C 0.30559 0.93352 0.37308 0.0
H275 H 0.28338 0.93517 0.34508 0.0
O276 O 0.30227 0.97866 0.36488 0.0
O277 O 0.31512 0.96814 0.361 0.0
O278 O 0.30554 0.97443 0.3301 0.0
O279 O 0.30475 0.95321 0.33028 0.0
C280 C 0.30186 0.9177 0.39629 0.0
C281 C 0.31647 0.92552 0.40018 0.0
H282 H 0.34506 0.94338 0.40409 0.0
H283 H 0.35974 0.96401 0.38577 0.0
H284 H 0.26603 0.91445 0.36153 0.0
H285 H 0.27422 0.90577 0.3856 0.0
H286 H 0.29498 0.9086 0.4039 0.0
H287 H 0.32057 0.92237 0.41076 0.0
Mn288 Mn 0.01488 0.32955 0.34506 0.0
Mn289 Mn 0.04638 0.36001 0.34595 0.0
C290 C 0.03236 0.33189 0.36366 0.0
C291 C 0.99143 0.31652 0.35407 0.0
C292 C 0.038 0.33733 0.31906 0.0
O293 O 0.01089 0.34357 0.33217 0.0
O294 O 0.03167 0.3638 0.33612 0.0
C295 C 0.03963 0.37617 0.3706 0.0
N296 N 0.04793 0.37063 0.36566 0.0
C297 C 0.06301 0.38021 0.38985 0.0
C298 C 0.05468 0.38609 0.39516 0.0
C299 C 0.04292 0.38402 0.38552 0.0
C300 C 0.05921 0.37248 0.3749 0.0
H301 H 0.03058 0.37458 0.36322 0.0
C302 C 0.01885 0.35704 0.33069 0.0
O303 O 0.9954 0.31351 0.34012 0.0
O304 O 0.00097 0.3273 0.36247 0.0
N305 N 0.06165 0.35801 0.3552 0.0
C306 C 0.06829 0.35121 0.34863 0.0
C307 C 0.08027 0.3522 0.35677 0.0
C308 C 0.08536 0.36024 0.3715 0.0
C309 C 0.07836 0.36714 0.37804 0.0
C310 C 0.06658 0.36592 0.36926 0.0
H311 H 0.06453 0.34513 0.33723 0.0
O312 O 0.02205 0.31936 0.35971 0.0
O313 O 0.03199 0.34265 0.35685 0.0
O314 O 0.0261 0.32824 0.32525 0.0
O315 O 0.04596 0.34962 0.32547 0.0
C316 C 0.08253 0.37508 0.39297 0.0
C317 C 0.07482 0.38155 0.39892 0.0
H318 H 0.05716 0.39213 0.40667 0.0
H319 H 0.0364 0.38847 0.38957 0.0
H320 H 0.08562 0.34683 0.35167 0.0
H321 H 0.09468 0.36106 0.37765 0.0
H322 H 0.09154 0.37612 0.40009 0.0
H323 H 0.07802 0.38747 0.41054 0.0
Mn324 Mn 0.6669 0.98249 0.34018 0.0
Mn325 Mn 0.69805 0.98251 0.34322 0.0
C326 C 0.67139 0.96817 0.32273 0.0
C327 C 0.65319 0.99185 0.32929 0.0
C328 C 0.67387 0.96696 0.36755 0.0
O329 O 0.67929 0.0005 0.35357 0.0
O330 O 0.69991 1.00012 0.35354 0.0
C331 C 0.71501 0.00678 0.32071 0.0
N332 N 0.70987 0.99285 0.3249 0.0
C333 C 0.72174 0.98918 0.30175 0.0
C334 C 0.72724 0.00352 0.29725 0.0
C335 C 0.72383 0.01234 0.30675 0.0
C336 C 0.71303 0.98425 0.3158 0.0
H337 H 0.71238 0.01358 0.32797 0.0
C338 C 0.69243 0.00593 0.35728 0.0
O339 O 0.64988 0.98477 0.3432 0.0
O340 O 0.66468 0.99384 0.32199 0.0
N341 N 0.69792 0.96618 0.33371 0.0
C342 C 0.69134 0.95249 0.33938 0.0
C343 C 0.69355 0.94226 0.33117 0.0
C344 C 0.70259 0.94623 0.31733 0.0
C345 C 0.7093 0.96039 0.31178 0.0
C346 C 0.70682 0.97016 0.32058 0.0
H347 H 0.68445 0.94939 0.35007 0.0
O348 O 0.65846 0.96535 0.32539 0.0
O349 O 0.68134 0.9794 0.33019 0.0
O350 O 0.66518 0.97009 0.36044 0.0
O351 O 0.68647 0.97132 0.36232 0.0
C352 C 0.71823 0.96517 0.29776 0.0
C353 C 0.7244 0.97954 0.29271 0.0
H354 H 0.73401 0.00784 0.28645 0.0
H355 H 0.72798 0.0234 0.30331 0.0
H356 H 0.68833 0.93135 0.33552 0.0
H357 H 0.70429 0.93832 0.31107 0.0
H358 H 0.72027 0.95784 0.29065 0.0
H359 H 0.7311 0.98305 0.28178 0.0
Mn360 Mn 0.01734 0.68559 0.3471 0.0
Mn361 Mn 0.0497 0.6882 0.34624 0.0
C362 C 0.03479 0.70061 0.36561 0.0
C363 C 0.99403 0.67423 0.35677 0.0
C364 C 0.03976 0.70248 0.32085 0.0
O365 O 0.01398 0.6683 0.33338 0.0
O366 O 0.03548 0.66993 0.33576 0.0
C367 C 0.04436 0.66466 0.3694 0.0
N368 N 0.05203 0.67867 0.36513 0.0
C369 C 0.06737 0.68378 0.38906 0.0
C370 C 0.05969 0.66938 0.39366 0.0
C371 C 0.04812 0.65979 0.38381 0.0
C372 C 0.06314 0.688 0.37457 0.0
H373 H 0.03545 0.65727 0.36187 0.0
C374 C 0.0225 0.66352 0.33084 0.0
O375 O 0.99749 0.6816 0.34305 0.0
O376 O 0.00401 0.67314 0.36453 0.0
N377 N 0.06453 0.70529 0.35603 0.0
C378 C 0.07051 0.7189 0.35018 0.0
C379 C 0.08219 0.72983 0.35865 0.0
C380 C 0.08766 0.72663 0.37296 0.0
C381 C 0.08136 0.71254 0.37872 0.0
C382 C 0.06985 0.70207 0.36964 0.0
H383 H 0.06643 0.72142 0.33912 0.0
O384 O 0.024 0.70236 0.36234 0.0
O385 O 0.03492 0.68996 0.35818 0.0
O386 O 0.02774 0.69876 0.32744 0.0
O387 O 0.04843 0.69866 0.3266 0.0
C388 C 0.08595 0.7085 0.3932 0.0
C389 C 0.07892 0.69414 0.39841 0.0
H390 H 0.06252 0.66559 0.40479 0.0
H391 H 0.0421 0.64868 0.38732 0.0
H392 H 0.087 0.74068 0.35414 0.0
H393 H 0.09671 0.73508 0.37941 0.0
H394 H 0.09477 0.71638 0.40054 0.0
H395 H 0.08244 0.69119 0.40968 0.0
Mn396 Mn 0.31967 0.33608 0.34165 0.0
Mn397 Mn 0.29034 0.30403 0.34638 0.0
C398 C 0.29991 0.32999 0.32504 0.0
C399 C 0.34191 0.35009 0.32985 0.0
C400 C 0.29853 0.32894 0.36998 0.0
O401 O 0.3269 0.32497 0.35527 0.0
O402 O 0.30711 0.30351 0.35565 0.0
C403 C 0.29776 0.28708 0.32371 0.0
N404 N 0.28862 0.29167 0.32841 0.0
C405 C 0.27139 0.27679 0.30786 0.0
C406 C 0.28058 0.27184 0.30284 0.0
C407 C 0.29386 0.27709 0.31073 0.0
C408 C 0.27594 0.28691 0.32069 0.0
H409 H 0.30791 0.29098 0.32987 0.0
C410 C 0.32027 0.31176 0.35897 0.0
O411 O 0.33839 0.35378 0.34367 0.0
O412 O 0.33257 0.33818 0.32306 0.0
N413 N 0.27322 0.30276 0.33788 0.0
C414 C 0.26591 0.30914 0.34368 0.0
C415 C 0.25251 0.30529 0.33688 0.0
C416 C 0.24664 0.29472 0.32447 0.0
C417 C 0.25435 0.28828 0.31874 0.0
C418 C 0.26772 0.29267 0.32583 0.0
H419 H 0.27025 0.31704 0.35348 0.0
O420 O 0.30957 0.34323 0.327 0.0
O421 O 0.30227 0.32062 0.33251 0.0
O422 O 0.30954 0.33797 0.36215 0.0
O423 O 0.29093 0.31598 0.36535 0.0
C424 C 0.24928 0.27764 0.3063 0.0
C425 C 0.25787 0.27205 0.3007 0.0
H426 H 0.27756 0.26404 0.29292 0.0
H427 H 0.30103 0.27335 0.3069 0.0
H428 H 0.24663 0.31032 0.34135 0.0
H429 H 0.23622 0.29166 0.31941 0.0
H430 H 0.23886 0.2738 0.30081 0.0
H431 H 0.25397 0.26408 0.29089 0.0
Mn432 Mn 0.3321 0.01787 0.67508 0.0
Mn433 Mn 0.3631 0.04891 0.67668 0.0
C434 C 0.33568 0.03626 0.65737 0.0
C435 C 0.3184 0.99472 0.66498 0.0
C436 C 0.33944 0.04107 0.70152 0.0
O437 O 0.34492 0.01244 0.68807 0.0
O438 O 0.36509 0.03354 0.68792 0.0
C439 C 0.37957 0.04037 0.65481 0.0
N440 N 0.37472 0.04954 0.65851 0.0
C441 C 0.38717 0.06459 0.63527 0.0
C442 C 0.39238 0.05536 0.63126 0.0
C443 C 0.38851 0.04317 0.64104 0.0
C444 C 0.37826 0.06122 0.6491 0.0
H445 H 0.37664 0.03101 0.66231 0.0
C446 C 0.35797 0.02034 0.69183 0.0
O447 O 0.31542 0.99865 0.67899 0.0
O448 O 0.32951 0.00414 0.65709 0.0
N449 N 0.36316 0.06493 0.6663 0.0
C450 C 0.35684 0.07247 0.67151 0.0
C451 C 0.35968 0.08505 0.66312 0.0
C452 C 0.36906 0.08979 0.64958 0.0
C453 C 0.37537 0.08181 0.64439 0.0
C454 C 0.37231 0.06949 0.65338 0.0
H455 H 0.34977 0.06898 0.68206 0.0
O456 O 0.32296 0.02616 0.6607 0.0
O457 O 0.34607 0.0352 0.66426 0.0
O458 O 0.33088 0.02888 0.6953 0.0
O459 O 0.35173 0.04933 0.69556 0.0
C460 C 0.38452 0.08557 0.6306 0.0
C461 C 0.39035 0.07692 0.62598 0.0
H462 H 0.39928 0.05748 0.62065 0.0
H463 H 0.39244 0.03597 0.638 0.0
H464 H 0.35472 0.09112 0.66714 0.0
H465 H 0.3713 0.09954 0.6432 0.0
H466 H 0.38702 0.09501 0.62336 0.0
H467 H 0.39723 0.07981 0.61523 0.0
Mn468 Mn 0.98264 0.31675 0.67928 0.0
Mn469 Mn 0.98099 0.28464 0.6776 0.0
C470 C 0.96772 0.29873 0.69703 0.0
C471 C 0.99263 0.33998 0.68943 0.0
C472 C 0.9665 0.29428 0.65233 0.0
O473 O 0.00045 0.32106 0.66645 0.0
O474 O 0.9988 0.29941 0.66704 0.0
C475 C 0.00505 0.29073 0.70026 0.0
N476 N 0.99108 0.28262 0.69613 0.0
C477 C 0.98701 0.26697 0.71943 0.0
C478 C 0.00138 0.2751 0.72389 0.0
C479 C 0.01043 0.28705 0.71428 0.0
C480 C 0.98227 0.27112 0.70529 0.0
H481 H 0.01203 0.29993 0.69292 0.0
C482 C 0.00521 0.31264 0.66305 0.0
O483 O 0.98583 0.33634 0.67529 0.0
O484 O 0.99405 0.33024 0.69738 0.0
N485 N 0.96442 0.26929 0.6874 0.0
C486 C 0.95069 0.26311 0.682 0.0
C487 C 0.9402 0.25124 0.69055 0.0
C488 C 0.94394 0.24578 0.70443 0.0
C489 C 0.95816 0.25224 0.70965 0.0
C490 C 0.96817 0.26398 0.70058 0.0
H491 H 0.94775 0.26724 0.67132 0.0
O492 O 0.96549 0.30924 0.69364 0.0
O493 O 0.97871 0.29909 0.69003 0.0
O494 O 0.97032 0.30641 0.65891 0.0
O495 O 0.97003 0.28545 0.65825 0.0
C496 C 0.96274 0.24769 0.72372 0.0
C497 C 0.97715 0.25507 0.72863 0.0
H498 H 0.00556 0.27234 0.73473 0.0
H499 H 0.02152 0.29341 0.71769 0.0
H500 H 0.92924 0.24633 0.68647 0.0
H501 H 0.93581 0.23668 0.71105 0.0
H502 H 0.95523 0.23869 0.73103 0.0
H503 H 0.98051 0.25161 0.73962 0.0
Mn504 Mn 0.68312 0.66475 0.67578 0.0
Mn505 Mn 0.71183 0.697 0.66928 0.0
C506 C 0.70329 0.6721 0.69217 0.0
C507 C 0.66107 0.65062 0.68819 0.0
C508 C 0.7044 0.67125 0.64752 0.0
O509 O 0.67513 0.67484 0.66143 0.0
O510 O 0.69474 0.69623 0.65901 0.0
C511 C 0.70317 0.71411 0.68995 0.0
N512 N 0.71283 0.70995 0.68615 0.0
C513 C 0.72957 0.72633 0.70612 0.0
C514 C 0.71983 0.73083 0.71023 0.0
C515 C 0.70654 0.72462 0.70219 0.0
C516 C 0.72551 0.71562 0.69406 0.0
H517 H 0.69302 0.70948 0.68364 0.0
C518 C 0.68156 0.68768 0.65624 0.0
O519 O 0.66463 0.64663 0.67463 0.0
O520 O 0.67025 0.66287 0.69441 0.0
N521 N 0.72931 0.69965 0.67843 0.0
C522 C 0.73733 0.69383 0.6733 0.0
C523 C 0.75095 0.69885 0.68012 0.0
C524 C 0.7563 0.71 0.69183 0.0
C525 C 0.74787 0.71585 0.69689 0.0
C526 C 0.73433 0.71031 0.68979 0.0
H527 H 0.7334 0.68551 0.66398 0.0
O528 O 0.69388 0.6587 0.69094 0.0
O529 O 0.70045 0.68092 0.68415 0.0
O530 O 0.69331 0.66246 0.65544 0.0
O531 O 0.71188 0.68437 0.65156 0.0
C532 C 0.7524 0.72702 0.70859 0.0
C533 C 0.74318 0.73211 0.71339 0.0
H534 H 0.72245 0.73905 0.71954 0.0
H535 H 0.69895 0.72803 0.70531 0.0
H536 H 0.75739 0.69428 0.67617 0.0
H537 H 0.7669 0.71397 0.69687 0.0
H538 H 0.76291 0.7317 0.7141 0.0
H539 H 0.7467 0.74053 0.72262 0.0
Mn540 Mn 0.33544 0.3184 0.67371 0.0
Mn541 Mn 0.36728 0.32027 0.67888 0.0
C542 C 0.34135 0.30439 0.65737 0.0
C543 C 0.32146 0.32703 0.6617 0.0
C544 C 0.34255 0.30418 0.7024 0.0
O545 O 0.3467 0.33664 0.68718 0.0
O546 O 0.36802 0.33779 0.68782 0.0
C547 C 0.38404 0.34408 0.65572 0.0
N548 N 0.37944 0.33043 0.66074 0.0
C549 C 0.39343 0.32716 0.63985 0.0
C550 C 0.39836 0.34121 0.63447 0.0
C551 C 0.39359 0.34968 0.64239 0.0
C552 C 0.38381 0.32213 0.65307 0.0
H553 H 0.38045 0.35064 0.66185 0.0
C554 C 0.35986 0.34294 0.69102 0.0
O555 O 0.3179 0.31991 0.67559 0.0
O556 O 0.33324 0.32928 0.65492 0.0
N557 N 0.36834 0.30415 0.67082 0.0
C558 C 0.36217 0.29069 0.67716 0.0
C559 C 0.36602 0.28094 0.6709 0.0
C560 C 0.37623 0.28516 0.65829 0.0
C561 C 0.3822 0.29896 0.65168 0.0
C562 C 0.37809 0.30828 0.65859 0.0
H563 H 0.3545 0.28746 0.68707 0.0
O564 O 0.32819 0.30114 0.65918 0.0
O565 O 0.35071 0.31596 0.66485 0.0
O566 O 0.33359 0.30641 0.69441 0.0
O567 O 0.35545 0.30928 0.69793 0.0
C568 C 0.39213 0.30389 0.63862 0.0
C569 C 0.39763 0.31794 0.63259 0.0
H570 H 0.40578 0.34559 0.62425 0.0
H571 H 0.39732 0.36052 0.63829 0.0
H572 H 0.3613 0.27027 0.67596 0.0
H573 H 0.37944 0.2777 0.65386 0.0
H574 H 0.39554 0.29695 0.63303 0.0
H575 H 0.40512 0.32155 0.6224 0.0
Mn576 Mn 0.68282 0.01821 0.67585 0.0
Mn577 Mn 0.71299 0.01639 0.6733 0.0
C578 C 0.70187 0.0323 0.69305 0.0
C579 C 0.6602 0.00977 0.68689 0.0
C580 C 0.70449 0.0319 0.648 0.0
O581 O 0.67669 0.9998 0.66288 0.0
O582 O 0.69686 0.99858 0.66423 0.0
C583 C 0.70616 0.99317 0.69755 0.0
N584 N 0.71486 0.00679 0.69242 0.0
C585 C 0.73085 0.01119 0.71551 0.0
C586 C 0.7221 0.99717 0.72099 0.0
C587 C 0.70969 0.98814 0.71199 0.0
C588 C 0.7268 0.0156 0.70102 0.0
H589 H 0.69659 0.98621 0.69068 0.0
C590 C 0.68377 0.99341 0.66014 0.0
O591 O 0.66379 0.01662 0.67281 0.0
O592 O 0.66961 0.0075 0.69425 0.0
N593 N 0.72946 0.03289 0.68172 0.0
C594 C 0.73645 0.04625 0.67511 0.0
C595 C 0.74904 0.05665 0.68272 0.0
C596 C 0.75434 0.05318 0.69697 0.0
C597 C 0.747 0.03934 0.7035 0.0
C598 C 0.7346 0.02938 0.69527 0.0
H599 H 0.73247 0.04897 0.66411 0.0
O600 O 0.69201 0.03559 0.69029 0.0
O601 O 0.70015 0.02074 0.68589 0.0
O602 O 0.69333 0.03009 0.6554 0.0
O603 O 0.71219 0.02675 0.6533 0.0
C604 C 0.75141 0.03508 0.71796 0.0
C605 C 0.74331 0.02103 0.72399 0.0
H606 H 0.72476 0.99327 0.73215 0.0
H607 H 0.70285 0.97733 0.71618 0.0
H608 H 0.75464 0.06731 0.67762 0.0
H609 H 0.76405 0.06124 0.70279 0.0
H610 H 0.76091 0.04257 0.72465 0.0
H611 H 0.74671 0.01793 0.73524 0.0
Mn612 Mn 0.98548 0.67247 0.67251 0.0
Mn613 Mn 0.95427 0.64174 0.67161 0.0
C614 C 0.96802 0.66981 0.65375 0.0
C615 C 0.00895 0.68575 0.66394 0.0
C616 C 0.96242 0.66435 0.69849 0.0
O617 O 0.9896 0.65866 0.68562 0.0
O618 O 0.96919 0.63814 0.68114 0.0
C619 C 0.96106 0.62583 0.64665 0.0
N620 N 0.9527 0.63124 0.65178 0.0
C621 C 0.93746 0.6216 0.62773 0.0
C622 C 0.94585 0.61586 0.62222 0.0
C623 C 0.95773 0.61802 0.6317 0.0
C624 C 0.94131 0.62931 0.6427 0.0
H625 H 0.97019 0.62748 0.65391 0.0
C626 C 0.98192 0.64514 0.6868 0.0
O627 O 0.00468 0.6887 0.67771 0.0
O628 O 0.99966 0.67489 0.65541 0.0
N629 N 0.93887 0.64362 0.6626 0.0
C630 C 0.93219 0.65032 0.66934 0.0
C631 C 0.9201 0.64924 0.66138 0.0
C632 C 0.91494 0.6412 0.64666 0.0
C633 C 0.922 0.63443 0.63993 0.0
C634 C 0.9339 0.63575 0.64853 0.0
H635 H 0.936 0.65639 0.68075 0.0
O636 O 0.97821 0.68242 0.65763 0.0
O637 O 0.96853 0.65916 0.66069 0.0
O638 O 0.97406 0.67366 0.69203 0.0
O639 O 0.95468 0.65193 0.69229 0.0
C640 C 0.91776 0.6265 0.62498 0.0
C641 C 0.92553 0.62016 0.61884 0.0
H642 H 0.94333 0.60985 0.61068 0.0
H643 H 0.96429 0.61367 0.62749 0.0
H644 H 0.91472 0.65451 0.66663 0.0
H645 H 0.90554 0.64029 0.64066 0.0
H646 H 0.90864 0.62536 0.61801 0.0
H647 H 0.92228 0.61425 0.60722 0.0
C648 C 0.20779 0.32926 0.12557 0.0
C649 C 0.20565 0.31921 0.11311 0.0
C650 C 0.19655 0.32761 0.13553 0.0
C651 C 0.18295 0.31576 0.13345 0.0
C652 C 0.19196 0.30747 0.11085 0.0
C653 C 0.18071 0.30582 0.12086 0.0
C654 C 0.17095 0.31407 0.14382 0.0
C655 C 0.20107 0.31019 0.18037 0.0
C656 C 0.20594 0.32035 0.19329 0.0
C657 C 0.19021 0.30878 0.1696 0.0
C658 C 0.18421 0.31766 0.17146 0.0
C659 C 0.20011 0.3294 0.19485 0.0
C660 C 0.18934 0.32803 0.18409 0.0
C661 C 0.17183 0.31558 0.16137 0.0
C662 C 0.11285 0.30294 0.18091 0.0
C663 C 0.1167 0.31367 0.19305 0.0
C664 C 0.12317 0.30267 0.1707 0.0
C665 C 0.1375 0.31319 0.17239 0.0
C666 C 0.13109 0.32398 0.19487 0.0
C667 C 0.14136 0.32371 0.18471 0.0
C668 C 0.14874 0.31322 0.16187 0.0
C669 C 0.1206 0.32112 0.12777 0.0
C670 C 0.11397 0.31093 0.11509 0.0
C671 C 0.13164 0.32146 0.13717 0.0
C672 C 0.13605 0.31138 0.1344 0.0
C673 C 0.11866 0.3011 0.11194 0.0
C674 C 0.12962 0.30133 0.12153 0.0
C675 C 0.14784 0.31179 0.1443 0.0
H676 H 0.2182 0.33837 0.12774 0.0
H677 H 0.1985 0.33567 0.14481 0.0
H678 H 0.1899 0.29965 0.1012 0.0
H679 H 0.17026 0.29671 0.11885 0.0
H680 H 0.20525 0.30295 0.17902 0.0
H681 H 0.1862 0.30046 0.16022 0.0
H682 H 0.20377 0.33744 0.20456 0.0
H683 H 0.18486 0.33499 0.18578 0.0
H684 H 0.10185 0.29483 0.1792 0.0
H685 H 0.11996 0.29423 0.16156 0.0
H686 H 0.13448 0.3322 0.20433 0.0
H687 H 0.15235 0.33184 0.1864 0.0
H688 H 0.11746 0.32906 0.13016 0.0
H689 H 0.13684 0.32973 0.14651 0.0
H690 H 0.11376 0.29319 0.10217 0.0
H691 H 0.13302 0.29361 0.11899 0.0
N692 N 0.15893 0.31215 0.13597 0.0
N693 N 0.16072 0.31512 0.16964 0.0
C694 C 0.68561 0.88412 0.13031 0.0
C695 C 0.69611 0.89116 0.1182 0.0
C696 C 0.68509 0.87282 0.13939 0.0
C697 C 0.69528 0.86855 0.13688 0.0
C698 C 0.70608 0.88666 0.11534 0.0
C699 C 0.70566 0.87543 0.12461 0.0
C700 C 0.69464 0.85643 0.14632 0.0
C701 C 0.70179 0.89006 0.18466 0.0
C702 C 0.69059 0.88567 0.19607 0.0
C703 C 0.70255 0.88014 0.17407 0.0
C704 C 0.69206 0.8657 0.17466 0.0
C705 C 0.68026 0.87117 0.19675 0.0
C706 C 0.68103 0.8613 0.18621 0.0
C707 C 0.69262 0.8549 0.16379 0.0
C708 C 0.69729 0.80313 0.18051 0.0
C709 C 0.68614 0.79672 0.19202 0.0
C710 C 0.69866 0.81436 0.17044 0.0
C711 C 0.68895 0.81939 0.17182 0.0
C712 C 0.67631 0.80161 0.19312 0.0
C713 C 0.67778 0.81291 0.18321 0.0
C714 C 0.69087 0.832 0.16238 0.0
C715 C 0.67773 0.79705 0.1249 0.0
C716 C 0.68791 0.79945 0.11268 0.0
C717 C 0.67938 0.80806 0.13542 0.0
C718 C 0.69134 0.82168 0.13413 0.0
C719 C 0.69983 0.81312 0.11128 0.0
C720 C 0.70147 0.82417 0.12184 0.0
C721 C 0.69282 0.83345 0.14494 0.0
H722 H 0.67756 0.88711 0.13246 0.0
H723 H 0.67658 0.8673 0.14823 0.0
H724 H 0.71424 0.89187 0.10602 0.0
H725 H 0.71349 0.87217 0.12227 0.0
H726 H 0.70991 0.90116 0.18384 0.0
H727 H 0.71135 0.88374 0.16552 0.0
H728 H 0.67167 0.86739 0.20562 0.0
H729 H 0.67291 0.8502 0.18702 0.0
H730 H 0.70501 0.79956 0.17942 0.0
H731 H 0.7075 0.81937 0.16193 0.0
H732 H 0.66775 0.79701 0.20205 0.0
H733 H 0.67023 0.8167 0.18455 0.0
H734 H 0.66848 0.78662 0.1264 0.0
H735 H 0.67118 0.80595 0.14446 0.0
H736 H 0.70777 0.81534 0.10186 0.0
H737 H 0.71067 0.83465 0.12046 0.0
N738 N 0.69474 0.84566 0.13758 0.0
N739 N 0.69077 0.84273 0.17107 0.0
C740 C 0.11583 0.80333 0.13152 0.0
C741 C 0.10908 0.80634 0.11834 0.0
C742 C 0.12644 0.81434 0.14094 0.0
C743 C 0.13032 0.8286 0.13762 0.0
C744 C 0.11316 0.82062 0.1148 0.0
C745 C 0.12371 0.83166 0.12435 0.0
C746 C 0.14183 0.84034 0.14731 0.0
C747 C 0.10714 0.81446 0.18442 0.0
C748 C 0.11147 0.80861 0.19741 0.0
C749 C 0.11717 0.82477 0.17376 0.0
C750 C 0.13168 0.82923 0.17573 0.0
C751 C 0.12601 0.81318 0.19936 0.0
C752 C 0.13597 0.8234 0.18871 0.0
C753 C 0.14265 0.84032 0.16493 0.0
C754 C 0.19374 0.89678 0.18187 0.0
C755 C 0.19885 0.89212 0.19531 0.0
C756 C 0.18304 0.88688 0.17134 0.0
C757 C 0.17742 0.87219 0.17399 0.0
C758 C 0.19337 0.87741 0.19767 0.0
C759 C 0.18273 0.86758 0.1872 0.0
C760 C 0.1653 0.86143 0.16405 0.0
C761 C 0.20145 0.88207 0.12816 0.0
C762 C 0.19928 0.88926 0.11477 0.0
C763 C 0.19024 0.87317 0.13853 0.0
C764 C 0.17661 0.87137 0.1359 0.0
C765 C 0.1856 0.88738 0.11208 0.0
C766 C 0.17435 0.87843 0.12247 0.0
C767 C 0.16456 0.86143 0.14644 0.0
H768 H 0.11318 0.79245 0.13427 0.0
H769 H 0.13177 0.8117 0.15064 0.0
H770 H 0.10816 0.82325 0.10468 0.0
H771 H 0.12668 0.84259 0.12141 0.0
H772 H 0.09604 0.81129 0.18272 0.0
H773 H 0.1136 0.82936 0.16412 0.0
H774 H 0.1297 0.80874 0.20905 0.0
H775 H 0.14709 0.82666 0.19052 0.0
H776 H 0.19767 0.90804 0.17983 0.0
H777 H 0.1789 0.89071 0.16147 0.0
H778 H 0.19726 0.87346 0.20769 0.0
H779 H 0.17858 0.8563 0.18949 0.0
H780 H 0.21186 0.88335 0.13067 0.0
H781 H 0.1922 0.86753 0.14849 0.0
H782 H 0.18353 0.89262 0.10176 0.0
H783 H 0.16388 0.87703 0.12004 0.0
N784 N 0.15278 0.85094 0.13876 0.0
N785 N 0.15436 0.85085 0.17252 0.0
C786 C 0.30999 0.11608 0.84208 0.0
C787 C 0.30123 0.10983 0.82803 0.0
C788 C 0.30778 0.12514 0.85255 0.0
C789 C 0.29667 0.12802 0.84929 0.0
C790 C 0.29 0.11258 0.82492 0.0
C791 C 0.28782 0.12167 0.83539 0.0
C792 C 0.29509 0.13864 0.85934 0.0
C793 C 0.28651 0.10206 0.89296 0.0
C794 C 0.29635 0.10573 0.90615 0.0
C795 C 0.28575 0.11266 0.88363 0.0
C796 C 0.29495 0.12714 0.88719 0.0
C797 C 0.30521 0.12023 0.91 0.0
C798 C 0.30445 0.1308 0.90067 0.0
C799 C 0.29485 0.13858 0.87697 0.0
C800 C 0.28809 0.19034 0.89176 0.0
C801 C 0.29723 0.19553 0.90566 0.0
C802 C 0.2869 0.17874 0.88264 0.0
C803 C 0.29523 0.17247 0.88691 0.0
C804 C 0.30495 0.18877 0.91045 0.0
C805 C 0.30397 0.17738 0.90116 0.0
C806 C 0.29501 0.16085 0.87677 0.0
C807 C 0.30973 0.19832 0.84172 0.0
C808 C 0.30144 0.19565 0.82719 0.0
C809 C 0.30771 0.18711 0.85223 0.0
C810 C 0.29707 0.17307 0.84868 0.0
C811 C 0.29091 0.1816 0.82356 0.0
C812 C 0.28876 0.17043 0.83421 0.0
C813 C 0.29535 0.16094 0.8591 0.0
H814 H 0.31869 0.11412 0.84485 0.0
H815 H 0.31501 0.1302 0.86292 0.0
H816 H 0.28321 0.10811 0.81407 0.0
H817 H 0.27932 0.12391 0.8325 0.0
H818 H 0.27937 0.09099 0.88986 0.0
H819 H 0.27803 0.10954 0.8736 0.0
H820 H 0.31302 0.12345 0.91995 0.0
H821 H 0.31161 0.14189 0.90371 0.0
H822 H 0.28187 0.19526 0.88797 0.0
H823 H 0.27962 0.17482 0.87213 0.0
H824 H 0.31211 0.1926 0.92109 0.0
H825 H 0.31039 0.17265 0.90486 0.0
H826 H 0.3181 0.20901 0.84463 0.0
H827 H 0.31467 0.1894 0.86294 0.0
H828 H 0.28436 0.17925 0.81246 0.0
H829 H 0.28063 0.15968 0.83107 0.0
N830 N 0.29523 0.14976 0.85114 0.0
N831 N 0.29488 0.14971 0.88496 0.0
C832 C 0.8906 0.19289 0.89079 0.0
C833 C 0.88581 0.19896 0.90287 0.0
C834 C 0.88093 0.18151 0.88092 0.0
C835 C 0.86627 0.17611 0.88273 0.0
C836 C 0.87112 0.19339 0.9048 0.0
C837 C 0.86147 0.18208 0.89486 0.0
C838 C 0.8558 0.16373 0.87284 0.0
C839 C 0.87557 0.19705 0.83167 0.0
C840 C 0.88635 0.19577 0.82342 0.0
C841 C 0.86633 0.18645 0.84255 0.0
C842 C 0.86744 0.17419 0.84518 0.0
C843 C 0.8876 0.18354 0.82653 0.0
C844 C 0.87807 0.17275 0.83707 0.0
C845 C 0.85682 0.1625 0.85545 0.0
C846 C 0.79913 0.11642 0.8359 0.0
C847 C 0.80263 0.11007 0.8228 0.0
C848 C 0.80959 0.12593 0.84686 0.0
C849 C 0.82375 0.12909 0.84518 0.0
C850 C 0.81679 0.11313 0.82127 0.0
C851 C 0.82724 0.12258 0.83231 0.0
C852 C 0.83517 0.14031 0.85552 0.0
C853 C 0.80689 0.1061 0.89157 0.0
C854 C 0.8002 0.11056 0.90321 0.0
C855 C 0.81797 0.11606 0.88171 0.0
C856 C 0.82247 0.13066 0.88319 0.0
C857 C 0.8049 0.12521 0.90479 0.0
C858 C 0.81597 0.13514 0.89497 0.0
C859 C 0.83423 0.14144 0.873 0.0
H860 H 0.90184 0.19695 0.88892 0.0
H861 H 0.88495 0.17679 0.87211 0.0
H862 H 0.86704 0.19763 0.91417 0.0
H863 H 0.85021 0.17797 0.89668 0.0
H864 H 0.87392 0.20603 0.8294 0.0
H865 H 0.85801 0.1876 0.84854 0.0
H866 H 0.8959 0.18221 0.82081 0.0
H867 H 0.87904 0.16331 0.83896 0.0
H868 H 0.78832 0.11423 0.83753 0.0
H869 H 0.80665 0.13114 0.85631 0.0
H870 H 0.81992 0.10862 0.81118 0.0
H871 H 0.83813 0.12504 0.83059 0.0
H872 H 0.80369 0.09492 0.89023 0.0
H873 H 0.82308 0.11236 0.87303 0.0
H874 H 0.79987 0.12902 0.91344 0.0
H875 H 0.8193 0.14635 0.89639 0.0
N876 N 0.84454 0.15315 0.88092 0.0
N877 N 0.84649 0.15087 0.84746 0.0
C878 C 0.80592 0.70176 0.88955 0.0
C879 C 0.79979 0.69106 0.90176 0.0
C880 C 0.81764 0.70349 0.88046 0.0
C881 C 0.82332 0.6944 0.88324 0.0
C882 C 0.80579 0.68229 0.90484 0.0
C883 C 0.81743 0.68396 0.8957 0.0
C884 C 0.83561 0.69585 0.87366 0.0
C885 C 0.8009 0.68354 0.83499 0.0
C886 C 0.80405 0.69359 0.82218 0.0
C887 C 0.81141 0.68501 0.84634 0.0
C888 C 0.82524 0.69666 0.84525 0.0
C889 C 0.81786 0.70532 0.82126 0.0
C890 C 0.82836 0.70678 0.83262 0.0
C891 C 0.83678 0.69763 0.85616 0.0
C892 C 0.88294 0.68589 0.83798 0.0
C893 C 0.89056 0.69672 0.82627 0.0
C894 C 0.87306 0.68664 0.84842 0.0
C895 C 0.87061 0.69825 0.84741 0.0
C896 C 0.88826 0.70849 0.82557 0.0
C897 C 0.87828 0.70916 0.83592 0.0
C898 C 0.85918 0.6984 0.8572 0.0
C899 C 0.89322 0.70337 0.89313 0.0
C900 C 0.8888 0.69231 0.90491 0.0
C901 C 0.88326 0.70492 0.88345 0.0
C902 C 0.86869 0.69532 0.88517 0.0
C903 C 0.87418 0.68303 0.907 0.0
C904 C 0.86425 0.68455 0.89727 0.0
C905 C 0.85795 0.69644 0.87467 0.0
H906 H 0.80155 0.70869 0.88686 0.0
H907 H 0.82225 0.71193 0.87129 0.0
H908 H 0.80157 0.67416 0.91442 0.0
H909 H 0.82174 0.67696 0.89826 0.0
H910 H 0.79045 0.67426 0.83588 0.0
H911 H 0.80884 0.67681 0.85565 0.0
H912 H 0.8206 0.71335 0.81169 0.0
H913 H 0.83897 0.71578 0.83145 0.0
H914 H 0.88419 0.67653 0.83866 0.0
H915 H 0.86699 0.67791 0.8569 0.0
H916 H 0.89406 0.71711 0.81687 0.0
H917 H 0.87647 0.71816 0.83488 0.0
H918 H 0.90439 0.71068 0.89115 0.0
H919 H 0.88698 0.7136 0.87458 0.0
H920 H 0.87039 0.67459 0.91619 0.0
H921 H 0.85306 0.67713 0.89901 0.0
N922 N 0.8462 0.69522 0.88219 0.0
N923 N 0.84859 0.69897 0.84866 0.0
C924 C 0.77249 0.62784 0.45884 0.0
C925 C 0.77614 0.63813 0.44622 0.0
C926 C 0.78307 0.62679 0.46784 0.0
C927 C 0.79748 0.63618 0.46457 0.0
C928 C 0.79055 0.64701 0.44245 0.0
C929 C 0.80109 0.64603 0.45151 0.0
C930 C 0.80894 0.63597 0.47455 0.0
C931 C 0.78481 0.64799 0.51069 0.0
C932 C 0.77864 0.63844 0.52405 0.0
C933 C 0.7945 0.64694 0.50019 0.0
C934 C 0.79806 0.63618 0.50263 0.0
C935 C 0.78225 0.62768 0.52648 0.0
C936 C 0.79193 0.62663 0.51594 0.0
C937 C 0.80896 0.6355 0.49219 0.0
C938 C 0.86891 0.65259 0.50949 0.0
C939 C 0.86676 0.64386 0.52348 0.0
C940 C 0.85758 0.65012 0.49896 0.0
C941 C 0.84392 0.63869 0.50199 0.0
C942 C 0.85307 0.6324 0.52643 0.0
C943 C 0.84177 0.62988 0.51583 0.0
C944 C 0.83159 0.63671 0.49186 0.0
C945 C 0.8609 0.63112 0.45724 0.0
C946 C 0.86641 0.64136 0.44444 0.0
C947 C 0.84944 0.62952 0.4668 0.0
C948 C 0.84336 0.63824 0.46387 0.0
C949 C 0.85998 0.64972 0.4412 0.0
C950 C 0.84856 0.64813 0.45076 0.0
C951 C 0.83156 0.63713 0.47421 0.0
H952 H 0.7615 0.62082 0.46205 0.0
H953 H 0.77998 0.61878 0.4775 0.0
H954 H 0.79373 0.6548 0.43252 0.0
H955 H 0.81211 0.65324 0.44856 0.0
H956 H 0.7822 0.65634 0.50838 0.0
H957 H 0.79938 0.65471 0.49032 0.0
H958 H 0.77789 0.6203 0.53681 0.0
H959 H 0.79471 0.61839 0.51823 0.0
H960 H 0.87931 0.66145 0.50678 0.0
H961 H 0.85945 0.65738 0.4887 0.0
H962 H 0.85096 0.62563 0.53726 0.0
H963 H 0.83128 0.62116 0.51858 0.0
H964 H 0.86561 0.62453 0.46011 0.0
H965 H 0.84539 0.62154 0.47654 0.0
H966 H 0.86377 0.6575 0.43123 0.0
H967 H 0.84394 0.65486 0.44811 0.0
N968 N 0.82026 0.63683 0.4663 0.0
N969 N 0.82024 0.63579 0.50011 0.0
C970 C 0.35205 0.22014 0.46328 0.0
C971 C 0.36308 0.22755 0.45189 0.0
C972 C 0.35087 0.20829 0.4717 0.0
C973 C 0.36096 0.20387 0.46932 0.0
C974 C 0.37284 0.2228 0.44893 0.0
C975 C 0.3718 0.21105 0.45763 0.0
C976 C 0.35994 0.19154 0.47866 0.0
C977 C 0.36703 0.22508 0.51682 0.0
C978 C 0.35577 0.22095 0.52809 0.0
C979 C 0.36767 0.21502 0.50641 0.0
C980 C 0.35695 0.20067 0.50689 0.0
C981 C 0.34518 0.20653 0.52869 0.0
C982 C 0.3458 0.19651 0.51825 0.0
C983 C 0.35738 0.18979 0.49603 0.0
C984 C 0.36132 0.13776 0.51311 0.0
C985 C 0.34975 0.13111 0.52402 0.0
C986 C 0.36304 0.14915 0.50312 0.0
C987 C 0.35322 0.15406 0.50391 0.0
C988 C 0.3398 0.13588 0.52451 0.0
C989 C 0.34159 0.14732 0.51464 0.0
C990 C 0.35548 0.16684 0.49457 0.0
C991 C 0.34482 0.13251 0.45705 0.0
C992 C 0.35615 0.13498 0.44653 0.0
C993 C 0.34545 0.14345 0.46693 0.0
C994 C 0.35745 0.15709 0.46659 0.0
C995 C 0.36801 0.14877 0.44589 0.0
C996 C 0.36861 0.15975 0.45578 0.0
C997 C 0.35816 0.1686 0.47727 0.0
H998 H 0.34415 0.22336 0.46541 0.0
H999 H 0.34202 0.20256 0.48006 0.0
H1000 H 0.38133 0.22828 0.44006 0.0
H1001 H 0.37955 0.20767 0.45539 0.0
H1002 H 0.37534 0.2361 0.51601 0.0
H1003 H 0.37657 0.21845 0.49803 0.0
H1004 H 0.33653 0.20291 0.53747 0.0
H1005 H 0.3375 0.18547 0.51899 0.0
H1006 H 0.36914 0.13427 0.51248 0.0
H1007 H 0.37224 0.15436 0.49515 0.0
H1008 H 0.3309 0.13111 0.53298 0.0
H1009 H 0.33395 0.15103 0.51553 0.0
H1010 H 0.33536 0.12215 0.45752 0.0
H1011 H 0.33651 0.14126 0.47479 0.0
H1012 H 0.37694 0.15102 0.43799 0.0
H1013 H 0.3779 0.17024 0.45522 0.0
N1014 N 0.36036 0.18092 0.46996 0.0
N1015 N 0.35516 0.17746 0.50325 0.0
C1016 C 0.78668 0.13418 0.45833 0.0
C1017 C 0.77784 0.13594 0.44673 0.0
C1018 C 0.79689 0.14577 0.46743 0.0
C1019 C 0.7985 0.15939 0.46515 0.0
C1020 C 0.77965 0.14968 0.44429 0.0
C1021 C 0.78998 0.16132 0.45333 0.0
C1022 C 0.80929 0.17162 0.47485 0.0
C1023 C 0.77499 0.14304 0.51085 0.0
C1024 C 0.77987 0.13871 0.52478 0.0
C1025 C 0.78463 0.15376 0.50027 0.0
C1026 C 0.79934 0.16 0.50316 0.0
C1027 C 0.79452 0.14512 0.5278 0.0
C1028 C 0.80413 0.1556 0.51711 0.0
C1029 C 0.80993 0.1716 0.49247 0.0
C1030 C 0.85892 0.22944 0.51017 0.0
C1031 C 0.86454 0.22505 0.52336 0.0
C1032 C 0.8484 0.21934 0.49962 0.0
C1033 C 0.8435 0.20472 0.50198 0.0
C1034 C 0.85971 0.21043 0.52548 0.0
C1035 C 0.84927 0.2004 0.51498 0.0
C1036 C 0.83177 0.19366 0.49184 0.0
C1037 C 0.86793 0.21762 0.45673 0.0
C1038 C 0.86489 0.22369 0.44286 0.0
C1039 C 0.85703 0.20789 0.46691 0.0
C1040 C 0.84286 0.20429 0.46372 0.0
C1041 C 0.8507 0.21982 0.43939 0.0
C1042 C 0.83979 0.2102 0.44972 0.0
C1043 C 0.83117 0.19367 0.4742 0.0
H1044 H 0.78589 0.12386 0.46023 0.0
H1045 H 0.80361 0.14412 0.47621 0.0
H1046 H 0.77298 0.15144 0.43556 0.0
H1047 H 0.79114 0.17179 0.45132 0.0
H1048 H 0.76372 0.13838 0.50837 0.0
H1049 H 0.78055 0.15728 0.49002 0.0
H1050 H 0.79858 0.1419 0.53838 0.0
H1051 H 0.81538 0.16026 0.51974 0.0
H1052 H 0.86236 0.24063 0.50831 0.0
H1053 H 0.8439 0.22293 0.48989 0.0
H1054 H 0.864 0.2067 0.5353 0.0
H1055 H 0.84567 0.1892 0.51705 0.0
H1056 H 0.87873 0.22014 0.45948 0.0
H1057 H 0.85969 0.20301 0.47712 0.0
H1058 H 0.84805 0.22433 0.42878 0.0
H1059 H 0.82894 0.20742 0.44683 0.0
N1060 N 0.81986 0.18268 0.4664 0.0
N1061 N 0.82117 0.18262 0.50018 0.0
C1062 C 0.97841 0.533 0.16764 0.0
C1063 C 0.98739 0.53748 0.15371 0.0
C1064 C 0.97773 0.52223 0.17808 0.0
C1065 C 0.98635 0.5161 0.17503 0.0
C1066 C 0.9958 0.53117 0.15055 0.0
C1067 C 0.9953 0.52062 0.1611 0.0
C1068 C 0.98573 0.50444 0.18555 0.0
C1069 C 0.99898 0.5419 0.21944 0.0
C1070 C 0.98958 0.53959 0.23261 0.0
C1071 C 0.99777 0.53047 0.21002 0.0
C1072 C 0.98693 0.51651 0.2133 0.0
C1073 C 0.97904 0.52556 0.23626 0.0
C1074 C 0.97775 0.51413 0.22669 0.0
C1075 C 0.98547 0.50434 0.20322 0.0
C1076 C 0.99655 0.45624 0.21972 0.0
C1077 C 0.98693 0.44945 0.23277 0.0
C1078 C 0.99595 0.46682 0.21027 0.0
C1079 C 0.98552 0.47066 0.21341 0.0
C1080 C 0.97675 0.45358 0.23623 0.0
C1081 C 0.97608 0.46412 0.22665 0.0
C1082 C 0.98479 0.48182 0.20332 0.0
C1083 C 0.97541 0.44575 0.16748 0.0
C1084 C 0.98538 0.44963 0.15456 0.0
C1085 C 0.9753 0.45618 0.17777 0.0
C1086 C 0.98525 0.47065 0.17543 0.0
C1087 C 0.99532 0.46413 0.15233 0.0
C1088 C 0.99519 0.4745 0.16257 0.0
C1089 C 0.98513 0.48199 0.18569 0.0
H1090 H 0.9717 0.5376 0.17022 0.0
H1091 H 0.97035 0.51862 0.18837 0.0
H1092 H 0.00289 0.5345 0.13997 0.0
H1093 H 0.00199 0.51603 0.15837 0.0
H1094 H 0.00741 0.55255 0.21659 0.0
H1095 H 0.00535 0.53256 0.20017 0.0
H1096 H 0.97166 0.52345 0.24633 0.0
H1097 H 0.96944 0.50343 0.22961 0.0
H1098 H 0.00475 0.45355 0.21702 0.0
H1099 H 0.00372 0.47208 0.20056 0.0
H1100 H 0.9692 0.44855 0.2462 0.0
H1101 H 0.96807 0.46705 0.22944 0.0
H1102 H 0.9675 0.4347 0.16939 0.0
H1103 H 0.96731 0.45296 0.18736 0.0
H1104 H 0.00329 0.46748 0.1427 0.0
H1105 H 0.00296 0.48559 0.16051 0.0
N1106 N 0.98563 0.49329 0.17758 0.0
N1107 N 0.98486 0.49296 0.21139 0.0
C1108 C 0.47084 0.44759 0.16946 0.0
C1109 C 0.46443 0.45231 0.15757 0.0
C1110 C 0.48113 0.45724 0.18054 0.0
C1111 C 0.48518 0.47177 0.17993 0.0
C1112 C 0.46831 0.46683 0.15734 0.0
C1113 C 0.47867 0.47646 0.16828 0.0
C1114 C 0.49691 0.48234 0.19047 0.0
C1115 C 0.46093 0.45707 0.22523 0.0
C1116 C 0.46373 0.44953 0.23766 0.0
C1117 C 0.47189 0.46722 0.21549 0.0
C1118 C 0.48587 0.46992 0.21777 0.0
C1119 C 0.47776 0.45232 0.24002 0.0
C1120 C 0.48874 0.4625 0.23023 0.0
C1121 C 0.49761 0.4811 0.20796 0.0
C1122 C 0.54602 0.53865 0.22685 0.0
C1123 C 0.55256 0.53485 0.23953 0.0
C1124 C 0.53543 0.52822 0.21681 0.0
C1125 C 0.53135 0.51377 0.219 0.0
C1126 C 0.54824 0.52036 0.24199 0.0
C1127 C 0.53771 0.50992 0.23182 0.0
C1128 C 0.51994 0.50262 0.20856 0.0
C1129 C 0.55506 0.52875 0.17222 0.0
C1130 C 0.55143 0.53623 0.16058 0.0
C1131 C 0.54468 0.51838 0.18244 0.0
C1132 C 0.5305 0.5153 0.18114 0.0
C1133 C 0.53726 0.5332 0.15944 0.0
C1134 C 0.52688 0.52276 0.16952 0.0
C1135 C 0.51922 0.50378 0.19106 0.0
H1136 H 0.46829 0.43654 0.16985 0.0
H1137 H 0.48622 0.45342 0.18922 0.0
H1138 H 0.46341 0.47082 0.14861 0.0
H1139 H 0.48165 0.48763 0.1676 0.0
H1140 H 0.45023 0.4551 0.223 0.0
H1141 H 0.46944 0.47312 0.20633 0.0
H1142 H 0.4803 0.44684 0.24964 0.0
H1143 H 0.49948 0.46457 0.23238 0.0
H1144 H 0.54887 0.54969 0.22493 0.0
H1145 H 0.53028 0.53146 0.20751 0.0
H1146 H 0.5531 0.51713 0.25167 0.0
H1147 H 0.5346 0.49882 0.23389 0.0
H1148 H 0.56591 0.53088 0.17336 0.0
H1149 H 0.54766 0.51256 0.19111 0.0
H1150 H 0.53411 0.53863 0.1504 0.0
H1151 H 0.51599 0.52046 0.16822 0.0
N1152 N 0.5077 0.49365 0.18273 0.0
N1153 N 0.50914 0.49126 0.21633 0.0
C1154 C 0.46807 0.02113 0.22139 0.0
C1155 C 0.46124 0.01029 0.23331 0.0
C1156 C 0.4795 0.02214 0.21231 0.0
C1157 C 0.4842 0.01222 0.21479 0.0
C1158 C 0.46626 0.00064 0.23611 0.0
C1159 C 0.47765 0.00164 0.22699 0.0
C1160 C 0.49611 0.01295 0.20507 0.0
C1161 C 0.46099 0.00299 0.16793 0.0
C1162 C 0.46443 0.01339 0.15549 0.0
C1163 C 0.47154 0.00336 0.17845 0.0
C1164 C 0.48571 0.01425 0.17688 0.0
C1165 C 0.47866 0.02417 0.15385 0.0
C1166 C 0.48918 0.02455 0.16438 0.0
C1167 C 0.49709 0.01453 0.18753 0.0
C1168 C 0.54469 0.00397 0.17004 0.0
C1169 C 0.55183 0.01466 0.15803 0.0
C1170 C 0.53432 0.00419 0.18012 0.0
C1171 C 0.53094 0.01515 0.17847 0.0
C1172 C 0.54847 0.02568 0.15653 0.0
C1173 C 0.53806 0.02585 0.16656 0.0
C1174 C 0.51936 0.01501 0.18831 0.0
C1175 C 0.55419 0.02229 0.22435 0.0
C1176 C 0.55032 0.01158 0.2365 0.0
C1177 C 0.54385 0.02299 0.21446 0.0
C1178 C 0.52944 0.01286 0.21633 0.0
C1179 C 0.53584 0.0017 0.23865 0.0
C1180 C 0.52552 0.00238 0.22871 0.0
C1181 C 0.51835 0.01333 0.20584 0.0
H1182 H 0.46446 0.0287 0.21889 0.0
H1183 H 0.48464 0.03067 0.20331 0.0
H1184 H 0.46143 0.99235 0.24544 0.0
H1185 H 0.48122 0.994 0.2293 0.0
H1186 H 0.45014 0.99457 0.16957 0.0
H1187 H 0.46863 0.99504 0.18768 0.0
H1188 H 0.48173 0.03218 0.14418 0.0
H1189 H 0.50006 0.03291 0.16276 0.0
H1190 H 0.54677 0.99516 0.17131 0.0
H1191 H 0.52869 0.99559 0.18891 0.0
H1192 H 0.55386 0.03417 0.14755 0.0
H1193 H 0.53555 0.03436 0.16502 0.0
H1194 H 0.56523 0.03003 0.2223 0.0
H1195 H 0.54715 0.03146 0.20536 0.0
H1196 H 0.53246 0.99349 0.2481 0.0
H1197 H 0.51446 0.99458 0.23056 0.0
N1198 N 0.50672 0.0123 0.21351 0.0
N1199 N 0.50874 0.01561 0.17987 0.0
C1200 C 0.54259 0.00149 0.79301 0.0
C1201 C 0.5397 0.99127 0.7805 0.0
C1202 C 0.53175 0.00054 0.80321 0.0
C1203 C 0.51781 0.98924 0.80128 0.0
C1204 C 0.52568 0.98009 0.77841 0.0
C1205 C 0.51483 0.97915 0.78864 0.0
C1206 C 0.50622 0.98828 0.81192 0.0
C1207 C 0.53497 0.98124 0.84688 0.0
C1208 C 0.54108 0.99137 0.85976 0.0
C1209 C 0.52422 0.98089 0.83678 0.0
C1210 C 0.51948 0.99076 0.83924 0.0
C1211 C 0.53639 0.0013 0.86209 0.0
C1212 C 0.52566 0.00095 0.85198 0.0
C1213 C 0.50744 0.98991 0.82946 0.0
C1214 C 0.44934 0.97931 0.8497 0.0
C1215 C 0.45337 0.9902 0.86164 0.0
C1216 C 0.45951 0.97876 0.83952 0.0
C1217 C 0.47389 0.98919 0.84095 0.0
C1218 C 0.46781 0.00046 0.86323 0.0
C1219 C 0.47795 0.99992 0.85304 0.0
C1220 C 0.48488 0.98879 0.83038 0.0
C1221 C 0.45711 0.99691 0.79547 0.0
C1222 C 0.44881 0.9853 0.78487 0.0
C1223 C 0.46837 0.99742 0.80461 0.0
C1224 C 0.47159 0.98635 0.80333 0.0
C1225 C 0.45217 0.97428 0.78352 0.0
C1226 C 0.46355 0.97487 0.79257 0.0
C1227 C 0.48357 0.98693 0.81289 0.0
H1228 H 0.55327 0.01019 0.79504 0.0
H1229 H 0.53428 0.00871 0.81255 0.0
H1230 H 0.52305 0.97216 0.76873 0.0
H1231 H 0.50412 0.97046 0.78675 0.0
H1232 H 0.53839 0.97348 0.84472 0.0
H1233 H 0.51938 0.97267 0.82732 0.0
H1234 H 0.54068 0.00908 0.87208 0.0
H1235 H 0.52207 0.00857 0.85423 0.0
H1236 H 0.43831 0.97125 0.84813 0.0
H1237 H 0.45613 0.97013 0.83063 0.0
H1238 H 0.47134 0.00883 0.87252 0.0
H1239 H 0.489 0.00798 0.85454 0.0
H1240 H 0.4551 0.00577 0.7965 0.0
H1241 H 0.47468 0.00654 0.81255 0.0
H1242 H 0.44595 0.96512 0.7756 0.0
H1243 H 0.46594 0.96626 0.79137 0.0
N1244 N 0.49426 0.98671 0.80432 0.0
N1245 N 0.49678 0.99023 0.83796 0.0
C1246 C 0.00064 0.54398 0.79605 0.0
C1247 C 0.01121 0.55129 0.78409 0.0
C1248 C 1.00024 0.53265 0.80496 0.0
C1249 C 0.01056 0.52858 0.80234 0.0
C1250 C 0.02133 0.54699 0.78116 0.0
C1251 C 0.02099 0.53571 0.7902 0.0
C1252 C 0.01024 0.51662 0.81181 0.0
C1253 C 0.01863 0.55043 0.85039 0.0
C1254 C 0.00748 0.54641 0.86181 0.0
C1255 C 0.01888 0.54038 0.83961 0.0
C1256 C 0.00798 0.52612 0.84002 0.0
C1257 C 0.99653 0.53211 0.86205 0.0
C1258 C 0.99686 0.52206 0.85137 0.0
C1259 C 0.00843 0.51522 0.82928 0.0
C1260 C 0.01824 0.4665 0.84606 0.0
C1261 C 0.00782 0.45979 0.85837 0.0
C1262 C 0.01834 0.47717 0.83602 0.0
C1263 C 0.00793 0.48122 0.838 0.0
C1264 C 0.99743 0.46389 0.86029 0.0
C1265 C 0.99753 0.47453 0.85025 0.0
C1266 C 0.00831 0.49306 0.82823 0.0
C1267 C 0.99985 0.45818 0.79217 0.0
C1268 C 0.01011 0.46186 0.77968 0.0
C1269 C 0.99966 0.46871 0.80211 0.0
C1270 C 0.00994 0.48311 0.80004 0.0
C1271 C 0.02007 0.47631 0.7772 0.0
C1272 C 0.01998 0.48683 0.78729 0.0
C1273 C 0.00998 0.49435 0.81071 0.0
H1274 H 0.99249 0.54682 0.79827 0.0
H1275 H 0.99174 0.52697 0.81377 0.0
H1276 H 0.02958 0.55243 0.77199 0.0
H1277 H 0.02896 0.53264 0.78783 0.0
H1278 H 0.02737 0.56126 0.85006 0.0
H1279 H 0.02774 0.54368 0.83119 0.0
H1280 H 0.98767 0.52866 0.87048 0.0
H1281 H 0.98837 0.5111 0.85191 0.0
H1282 H 0.02636 0.46355 0.84424 0.0
H1283 H 0.02669 0.48243 0.82693 0.0
H1284 H 0.98943 0.45914 0.86986 0.0
H1285 H 0.98951 0.47761 0.85214 0.0
H1286 H 0.99184 0.44717 0.79411 0.0
H1287 H 0.99141 0.46557 0.81136 0.0
H1288 H 0.02809 0.47944 0.76765 0.0
H1289 H 0.02789 0.49788 0.78529 0.0
N1290 N 0.01101 0.50616 0.8032 0.0
N1291 N 0.00748 0.50349 0.83677 0.0
C1292 C 0.52746 0.56278 0.78931 0.0
C1293 C 0.53354 0.55764 0.77766 0.0
C1294 C 0.51583 0.55333 0.79887 0.0
C1295 C 0.5101 0.53854 0.79707 0.0
C1296 C 0.52758 0.54281 0.77571 0.0
C1297 C 0.51594 0.53338 0.78523 0.0
C1298 C 0.49793 0.5283 0.80725 0.0
C1299 C 0.53407 0.55084 0.844 0.0
C1300 C 0.53152 0.55817 0.85682 0.0
C1301 C 0.52312 0.54173 0.83327 0.0
C1302 C 0.50942 0.53991 0.835 0.0
C1303 C 0.51784 0.55647 0.85837 0.0
C1304 C 0.50688 0.54735 0.84763 0.0
C1305 C 0.49744 0.52926 0.8248 0.0
C1306 C 0.44948 0.47188 0.84354 0.0
C1307 C 0.44412 0.4757 0.85733 0.0
C1308 C 0.45928 0.48233 0.8329 0.0
C1309 C 0.46364 0.49681 0.83554 0.0
C1310 C 0.44856 0.49018 0.86007 0.0
C1311 C 0.45822 0.50062 0.84928 0.0
C1312 C 0.47479 0.50809 0.82505 0.0
C1313 C 0.43856 0.48087 0.79078 0.0
C1314 C 0.44189 0.47343 0.77885 0.0
C1315 C 0.44933 0.49208 0.7999 0.0
C1316 C 0.4636 0.49592 0.79743 0.0
C1317 C 0.45623 0.47764 0.77606 0.0
C1318 C 0.46696 0.4888 0.78519 0.0
C1319 C 0.47515 0.50729 0.80745 0.0
H1320 H 0.53159 0.57412 0.79091 0.0
H1321 H 0.51128 0.55758 0.80762 0.0
H1322 H 0.53208 0.53844 0.76704 0.0
H1323 H 0.51168 0.52202 0.78358 0.0
H1324 H 0.54451 0.55198 0.84241 0.0
H1325 H 0.52527 0.53581 0.82394 0.0
H1326 H 0.51546 0.56178 0.86827 0.0
H1327 H 0.49635 0.54594 0.84934 0.0
H1328 H 0.4465 0.46084 0.84134 0.0
H1329 H 0.46373 0.47908 0.8229 0.0
H1330 H 0.4446 0.49343 0.8706 0.0
H1331 H 0.46156 0.51171 0.85175 0.0
H1332 H 0.42763 0.47805 0.79303 0.0
H1333 H 0.44649 0.49767 0.80897 0.0
H1334 H 0.45918 0.47203 0.76714 0.0
H1335 H 0.4779 0.49162 0.783 0.0
N1336 N 0.48677 0.51734 0.79929 0.0
N1337 N 0.48588 0.51915 0.83297 0.0
C1338 C 0.64146 0.78024 0.50513 0.0
C1339 C 0.63105 0.77287 0.4928 0.0
C1340 C 0.64027 0.78974 0.51592 0.0
C1341 C 0.62864 0.79207 0.51467 0.0
C1342 C 0.61931 0.77513 0.49174 0.0
C1343 C 0.6182 0.78474 0.50247 0.0
C1344 C 0.62795 0.80295 0.52519 0.0
C1345 C 0.62175 0.7667 0.55782 0.0
C1346 C 0.63287 0.77041 0.56937 0.0
C1347 C 0.62024 0.77728 0.54943 0.0
C1348 C 0.62989 0.79177 0.55236 0.0
C1349 C 0.64212 0.78491 0.57278 0.0
C1350 C 0.6406 0.79547 0.56442 0.0
C1351 C 0.62913 0.80316 0.54277 0.0
C1352 C 0.62546 0.85612 0.56054 0.0
C1353 C 0.6359 0.86157 0.57318 0.0
C1354 C 0.62328 0.8443 0.55109 0.0
C1355 C 0.63166 0.83784 0.55388 0.0
C1356 C 0.64381 0.85465 0.57642 0.0
C1357 C 0.6417 0.84293 0.56689 0.0
C1358 C 0.63012 0.8258 0.54344 0.0
C1359 C 0.64494 0.86285 0.50786 0.0
C1360 C 0.63547 0.86084 0.49469 0.0
C1361 C 0.6427 0.8515 0.51824 0.0
C1362 C 0.63083 0.83794 0.51582 0.0
C1363 C 0.62353 0.84727 0.49237 0.0
C1364 C 0.6213 0.83592 0.50277 0.0
C1365 C 0.62905 0.8256 0.52582 0.0
H1366 H 0.65081 0.77906 0.5061 0.0
H1367 H 0.64865 0.79558 0.52496 0.0
H1368 H 0.611 0.76953 0.48256 0.0
H1369 H 0.6092 0.78649 0.50123 0.0
H1370 H 0.61445 0.75563 0.55491 0.0
H1371 H 0.61166 0.77414 0.54049 0.0
H1372 H 0.65062 0.78812 0.58186 0.0
H1373 H 0.64807 0.80656 0.56704 0.0
H1374 H 0.61918 0.86116 0.55768 0.0
H1375 H 0.61513 0.84031 0.54149 0.0
H1376 H 0.65169 0.85831 0.58633 0.0
H1377 H 0.64816 0.83802 0.56949 0.0
H1378 H 0.65419 0.87317 0.51005 0.0
H1379 H 0.65044 0.85326 0.52791 0.0
H1380 H 0.61615 0.84531 0.48219 0.0
H1381 H 0.6122 0.8255 0.5005 0.0
N1382 N 0.62788 0.81413 0.51742 0.0
N1383 N 0.63022 0.8146 0.5512 0.0
C1384 C 0.13744 0.78087 0.50783 0.0
C1385 C 0.13094 0.78529 0.49573 0.0
C1386 C 0.1482 0.79087 0.51818 0.0
C1387 C 0.15259 0.80545 0.51665 0.0
C1388 C 0.13534 0.79988 0.49431 0.0
C1389 C 0.1461 0.80985 0.50459 0.0
C1390 C 0.16451 0.81632 0.52674 0.0
C1391 C 0.12944 0.7914 0.5627 0.0
C1392 C 0.13254 0.78363 0.57453 0.0
C1393 C 0.14015 0.80171 0.55283 0.0
C1394 C 0.15418 0.80442 0.55447 0.0
C1395 C 0.14665 0.78654 0.57634 0.0
C1396 C 0.15739 0.79691 0.56646 0.0
C1397 C 0.16559 0.81554 0.54424 0.0
C1398 C 0.21321 0.874 0.56156 0.0
C1399 C 0.21988 0.87056 0.57444 0.0
C1400 C 0.20272 0.86329 0.55168 0.0
C1401 C 0.19893 0.84894 0.55418 0.0
C1402 C 0.21585 0.85618 0.57723 0.0
C1403 C 0.20546 0.84548 0.56719 0.0
C1404 C 0.18758 0.83745 0.54403 0.0
C1405 C 0.22172 0.86482 0.50716 0.0
C1406 C 0.21713 0.87047 0.49422 0.0
C1407 C 0.21187 0.85441 0.51783 0.0
C1408 C 0.1973 0.84971 0.51598 0.0
C1409 C 0.20257 0.86572 0.49238 0.0
C1410 C 0.19277 0.85545 0.50312 0.0
C1411 C 0.18652 0.83817 0.52648 0.0
H1412 H 0.13426 0.7697 0.50924 0.0
H1413 H 0.15326 0.78723 0.52713 0.0
H1414 H 0.13072 0.80366 0.48494 0.0
H1415 H 0.14942 0.82105 0.50307 0.0
H1416 H 0.11877 0.7897 0.56126 0.0
H1417 H 0.13749 0.80771 0.54405 0.0
H1418 H 0.14939 0.7807 0.58527 0.0
H1419 H 0.16818 0.79895 0.56805 0.0
H1420 H 0.21589 0.88496 0.55938 0.0
H1421 H 0.19743 0.86624 0.54223 0.0
H1422 H 0.22083 0.85324 0.58707 0.0
H1423 H 0.20258 0.83448 0.56953 0.0
H1424 H 0.23287 0.86815 0.50871 0.0
H1425 H 0.21562 0.84985 0.5273 0.0
H1426 H 0.19875 0.86997 0.48262 0.0
H1427 H 0.1816 0.85195 0.50136 0.0
N1428 N 0.17499 0.82761 0.5186 0.0
N1429 N 0.17712 0.82608 0.55219 0.0
C1430 C 0.22589 0.36494 0.50814 0.0
C1431 C 0.22234 0.35469 0.49547 0.0
C1432 C 0.21527 0.36521 0.51771 0.0
C1433 C 0.20092 0.35519 0.51483 0.0
C1434 C 0.20796 0.34485 0.49248 0.0
C1435 C 0.19738 0.34515 0.502 0.0
C1436 C 0.18943 0.35528 0.52467 0.0
C1437 C 0.21353 0.34282 0.55995 0.0
C1438 C 0.22077 0.35275 0.57274 0.0
C1439 C 0.20341 0.3439 0.55011 0.0
C1440 C 0.20044 0.35504 0.55266 0.0
C1441 C 0.21763 0.3638 0.57545 0.0
C1442 C 0.20746 0.36486 0.56557 0.0
C1443 C 0.18958 0.35602 0.54228 0.0
C1444 C 0.12972 0.33995 0.55801 0.0
C1445 C 0.13148 0.34996 0.57035 0.0
C1446 C 0.14125 0.34163 0.54865 0.0
C1447 C 0.15478 0.35345 0.55125 0.0
C1448 C 0.14506 0.36174 0.57304 0.0
C1449 C 0.15663 0.3634 0.56365 0.0
C1450 C 0.16706 0.35504 0.54157 0.0
C1451 C 0.13803 0.36 0.50458 0.0
C1452 C 0.13241 0.3492 0.49239 0.0
C1453 C 0.14916 0.36161 0.51502 0.0
C1454 C 0.15483 0.35243 0.51343 0.0
C1455 C 0.13818 0.34009 0.49082 0.0
C1456 C 0.14932 0.34175 0.50116 0.0
C1457 C 0.16684 0.35407 0.52397 0.0
H1458 H 0.23687 0.37266 0.51074 0.0
H1459 H 0.21826 0.37329 0.52728 0.0
H1460 H 0.20485 0.33701 0.4826 0.0
H1461 H 0.18638 0.33741 0.49942 0.0
H1462 H 0.21576 0.33426 0.55743 0.0
H1463 H 0.19786 0.33596 0.54052 0.0
H1464 H 0.22289 0.3715 0.58534 0.0
H1465 H 0.20517 0.37341 0.56791 0.0
H1466 H 0.11939 0.33081 0.55553 0.0
H1467 H 0.13961 0.33359 0.53946 0.0
H1468 H 0.1468 0.36953 0.5826 0.0
H1469 H 0.16702 0.3725 0.56601 0.0
H1470 H 0.13379 0.36717 0.50609 0.0
H1471 H 0.15342 0.37011 0.52418 0.0
H1472 H 0.13426 0.33183 0.48136 0.0
H1473 H 0.15361 0.33462 0.49961 0.0
N1474 N 0.17802 0.35421 0.51625 0.0
N1475 N 0.17845 0.35603 0.55007 0.0
H1476 H 0.98408 0.35625 0.04866 0.0
H1477 H 0.97781 0.36628 0.07239 0.0
H1478 H 0.01813 0.40491 0.06884 0.0
H1479 H 0.02462 0.39498 0.04544 0.0
H1480 H 0.01078 0.39572 0.10142 0.0
H1481 H 0.9665 0.39716 0.06739 0.0
H1482 H 0.96539 0.38 0.0688 0.0
H1483 H 0.97937 0.39395 0.05695 0.0
C1484 C 0.99166 0.36684 0.05298 0.0
C1485 C 0.00483 0.37483 0.04502 0.0
C1486 C 0.98802 0.37258 0.06651 0.0
C1487 C 0.99742 0.38642 0.07221 0.0
C1488 C 0.01071 0.39421 0.06462 0.0
H1489 H 0.98906 0.45139 0.1208 0.0
H1490 H 0.99072 0.43434 0.10232 0.0
C1491 C 0.01438 0.3885 0.05119 0.0
C1492 C 0.99344 0.39312 0.08572 0.0
H1493 H 0.97137 0.40638 0.09467 0.0
C1494 C 0.00206 0.39792 0.10007 0.0
C1495 C 0.98213 0.39606 0.08381 0.0
C1496 C 0.97286 0.39165 0.06837 0.0
C1497 C 0.99997 0.40597 0.11233 0.0
C1498 C 0.98878 0.40908 0.1103 0.0
C1499 C 0.97988 0.40389 0.09622 0.0
C1500 C 0.98705 0.41892 0.12171 0.0
C1501 C 0.0102 0.4117 0.12689 0.0
C1502 C 0.98419 0.41581 0.13874 0.0
C1503 C 0.9834 0.42565 0.14943 0.0
C1504 C 0.98539 0.43874 0.14323 0.0
C1505 C 0.98778 0.44156 0.12606 0.0
C1506 C 0.9886 0.43177 0.11544 0.0
H1507 H 0.01982 0.41072 0.12485 0.0
H1508 H 0.01356 0.42309 0.12917 0.0
H1509 H 0.00487 0.40562 0.1383 0.0
H1510 H 0.98272 0.40584 0.14379 0.0
H1511 H 0.98157 0.42317 0.16259 0.0
H1512 H 0.64695 0.6228 0.05733 0.0
H1513 H 0.63338 0.60572 0.07931 0.0
H1514 H 0.59443 0.59953 0.05665 0.0
H1515 H 0.608 0.61565 0.03397 0.0
H1516 H 0.61752 0.60704 0.10196 0.0
H1517 H 0.58371 0.55939 0.06394 0.0
H1518 H 0.59665 0.57576 0.05442 0.0
H1519 H 0.57938 0.57311 0.05946 0.0
C1520 C 0.63547 0.61728 0.05673 0.0
C1521 C 0.62845 0.61985 0.04354 0.0
C1522 C 0.62772 0.60773 0.06941 0.0
C1523 C 0.61281 0.60097 0.06943 0.0
C1524 C 0.60585 0.60409 0.05659 0.0
H1525 H 0.5559 0.56274 0.15238 0.0
H1526 H 0.57203 0.57891 0.13117 0.0
C1527 C 0.6136 0.61337 0.04371 0.0
C1528 C 0.60466 0.59139 0.08343 0.0
H1529 H 0.57648 0.55875 0.09263 0.0
C1530 C 0.60865 0.59643 0.09987 0.0
C1531 C 0.59298 0.57752 0.08081 0.0
C1532 C 0.58805 0.57113 0.06368 0.0
C1533 C 0.60122 0.58809 0.11366 0.0
C1534 C 0.58946 0.57442 0.11094 0.0
C1535 C 0.58555 0.56927 0.09461 0.0
C1536 C 0.58079 0.56534 0.12482 0.0
C1537 C 0.60597 0.59393 0.13104 0.0
C1538 C 0.58045 0.55241 0.12823 0.0
C1539 C 0.57128 0.54317 0.14033 0.0
C1540 C 0.56216 0.54665 0.14902 0.0
C1541 C 0.56276 0.55976 0.14579 0.0
C1542 C 0.57201 0.56904 0.1338 0.0
H1543 H 0.61678 0.60339 0.13116 0.0
H1544 H 0.59848 0.59714 0.13621 0.0
H1545 H 0.60589 0.58564 0.13937 0.0
H1546 H 0.58709 0.54935 0.12131 0.0
H1547 H 0.57093 0.53307 0.14242 0.0
H1548 H 0.37312 0.02163 0.05661 0.0
H1549 H 0.39036 0.0245 0.07853 0.0
H1550 H 0.40182 0.99751 0.05074 0.0
H1551 H 0.38483 0.9949 0.02869 0.0
H1552 H 0.38922 0.99961 0.09621 0.0
H1553 H 0.44077 0.03169 0.06358 0.0
H1554 H 0.42708 0.03651 0.06221 0.0
H1555 H 0.4248 0.02078 0.05177 0.0
C1556 C 0.37968 0.01672 0.05498 0.0
C1557 C 0.37807 0.00847 0.04075 0.0
C1558 C 0.38939 0.01824 0.06754 0.0
C1559 C 0.39752 0.0114 0.06612 0.0
C1560 C 0.39588 0.00312 0.0519 0.0
H1561 H 0.44253 0.98988 0.14059 0.0
H1562 H 0.42533 0.98925 0.12014 0.0
C1563 C 0.38618 0.00162 0.03936 0.0
C1564 C 0.4069 0.01196 0.08004 0.0
H1565 H 0.4416 0.02439 0.0908 0.0
C1566 C 0.40067 0.00503 0.09506 0.0
C1567 C 0.42182 0.01905 0.07851 0.0
C1568 C 0.42911 0.02742 0.06314 0.0
C1569 C 0.40902 0.00492 0.10854 0.0
C1570 C 0.42393 0.01186 0.10687 0.0
C1571 C 0.43014 0.01893 0.09195 0.0
C1572 C 0.43342 0.01203 0.1204 0.0
C1573 C 0.40185 0.99756 0.12452 0.0
C1574 C 0.44369 0.02505 0.12728 0.0
C1575 C 0.45352 0.02545 0.13897 0.0
C1576 C 0.45335 0.01284 0.14393 0.0
C1577 C 0.44284 0.99977 0.13724 0.0
C1578 C 0.43299 0.99938 0.12555 0.0
H1579 H 0.39079 0.99562 0.12515 0.0
H1580 H 0.4015 0.98711 0.12524 0.0
H1581 H 0.40788 0.00397 0.13554 0.0
H1582 H 0.44421 0.03494 0.12343 0.0
H1583 H 0.46132 0.03567 0.14405 0.0
H1584 H 0.3625 0.9828 0.97236 0.0
H1585 H 0.37493 0.97777 0.95017 0.0
H1586 H 0.39959 0.02269 0.93955 0.0
H1587 H 0.38743 0.02785 0.96164 0.0
H1588 H 0.37954 0.98508 0.91488 0.0
H1589 H 0.42929 0.01067 0.95232 0.0
H1590 H 0.41217 0.00559 0.96116 0.0
H1591 H 0.42138 0.02174 0.94925 0.0
C1592 C 0.3704 0.99159 0.96512 0.0
C1593 C 0.37409 0.00575 0.96894 0.0
C1594 C 0.37751 0.98869 0.95247 0.0
C1595 C 0.38837 0.99989 0.94349 0.0
C1596 C 0.39144 0.01392 0.94658 0.0
H1597 H 0.45192 0.01382 0.87114 0.0
H1598 H 0.43523 0.01508 0.89048 0.0
C1599 C 0.38443 0.01683 0.9592 0.0
C1600 C 0.39714 0.99717 0.93152 0.0
H1601 H 0.43132 0.00533 0.92406 0.0
C1602 C 0.39084 0.98937 0.91691 0.0
C1603 C 0.41186 0.00272 0.9343 0.0
C1604 C 0.41908 0.01053 0.95017 0.0
C1605 C 0.39902 0.98748 0.90466 0.0
C1606 C 0.4138 0.99341 0.90725 0.0
C1607 C 0.42 0.0009 0.92205 0.0
C1608 C 0.4232 0.99233 0.89467 0.0
C1609 C 0.3919 0.97958 0.88882 0.0
C1610 C 0.42196 0.97911 0.8906 0.0
C1611 C 0.43157 0.97836 0.87962 0.0
C1612 C 0.44264 0.99084 0.8726 0.0
C1613 C 0.44367 0.00403 0.87652 0.0
C1614 C 0.43408 0.00476 0.88748 0.0
H1615 H 0.38109 0.9782 0.88727 0.0
H1616 H 0.39833 0.98529 0.87776 0.0
H1617 H 0.39095 0.96885 0.88916 0.0
H1618 H 0.4138 0.96941 0.89626 0.0
H1619 H 0.43059 0.96805 0.87706 0.0
H1620 H 0.99022 0.38045 0.98384 0.0
H1621 H 0.9918 0.39619 0.96078 0.0
H1622 H 0.01892 0.38438 0.93403 0.0
H1623 H 0.017 0.36835 0.95691 0.0
H1624 H 0.01529 0.4193 0.94817 0.0
H1625 H 0.98873 0.37783 0.89936 0.0
H1626 H 0.98816 0.37357 0.92124 0.0
H1627 H 0.00365 0.37772 0.90917 0.0
C1628 C 0.99653 0.38129 0.97301 0.0
C1629 C 0.00389 0.37366 0.97226 0.0
C1630 C 0.99742 0.39024 0.95989 0.0
C1631 C 0.00541 0.39138 0.94566 0.0
C1632 C 0.01255 0.38351 0.94478 0.0
H1633 H 0.03092 0.46032 0.87329 0.0
H1634 H 0.03106 0.4434 0.89359 0.0
C1635 C 0.01164 0.37456 0.95792 0.0
C1636 C 0.00642 0.40103 0.93192 0.0
H1637 H 0.99909 0.4019 0.89054 0.0
C1638 C 0.01183 0.41552 0.93555 0.0
C1639 C 0.00166 0.396 0.91553 0.0
C1640 C 0.9951 0.38041 0.91107 0.0
C1641 C 0.01266 0.42516 0.92325 0.0
C1642 C 0.00813 0.42019 0.90679 0.0
C1643 C 0.00269 0.40569 0.90314 0.0
C1644 C 0.00826 0.42976 0.89345 0.0
C1645 C 0.01797 0.44051 0.92809 0.0
C1646 C 0.99545 0.42736 0.88617 0.0
C1647 C 0.99534 0.43689 0.87443 0.0
C1648 C 0.00807 0.449 0.86972 0.0
C1649 C 0.02095 0.45107 0.87657 0.0
C1650 C 0.02104 0.4415 0.8883 0.0
H1651 H 0.01792 0.44185 0.94183 0.0
H1652 H 0.02905 0.44711 0.92374 0.0
H1653 H 0.01141 0.44463 0.92217 0.0
H1654 H 0.98548 0.41829 0.8899 0.0
H1655 H 0.98528 0.43487 0.86916 0.0
H1656 H 0.62676 0.60208 0.96889 0.0
H1657 H 0.60953 0.59265 0.94613 0.0
H1658 H 0.60361 0.62932 0.94895 0.0
H1659 H 0.62104 0.63903 0.97172 0.0
H1660 H 0.58111 0.58595 0.94818 0.0
H1661 H 0.60959 0.62622 0.89874 0.0
H1662 H 0.61851 0.62453 0.91703 0.0
H1663 H 0.60793 0.6331 0.91851 0.0
C1664 C 0.62195 0.60827 0.96462 0.0
C1665 C 0.62534 0.62135 0.97219 0.0
C1666 C 0.61207 0.60283 0.95159 0.0
C1667 C 0.6054 0.61034 0.94576 0.0
C1668 C 0.60883 0.62347 0.95308 0.0
H1669 H 0.53819 0.58424 0.87001 0.0
H1670 H 0.55587 0.59758 0.89178 0.0
C1671 C 0.61876 0.62897 0.96615 0.0
C1672 C 0.59431 0.60392 0.93262 0.0
H1673 H 0.58635 0.60789 0.8923 0.0
C1674 C 0.58224 0.59076 0.93597 0.0
C1675 C 0.59577 0.6103 0.91677 0.0
C1676 C 0.60868 0.62427 0.91242 0.0
C1677 C 0.57168 0.58369 0.92383 0.0
C1678 C 0.57333 0.58985 0.90783 0.0
C1679 C 0.58518 0.6032 0.90458 0.0
C1680 C 0.56313 0.58221 0.89415 0.0
C1681 C 0.55882 0.56968 0.92821 0.0
C1682 C 0.5616 0.56933 0.88809 0.0
C1683 C 0.55153 0.56169 0.87575 0.0
C1684 C 0.54281 0.56682 0.86917 0.0
C1685 C 0.54463 0.57993 0.87498 0.0
C1686 C 0.55476 0.5876 0.88732 0.0
H1687 H 0.55737 0.56828 0.94194 0.0
H1688 H 0.54905 0.56885 0.92254 0.0
H1689 H 0.56017 0.56081 0.92328 0.0
H1690 H 0.56809 0.56509 0.89308 0.0
H1691 H 0.55031 0.55157 0.8717 0.0
H1692 H 0.99901 0.61409 0.98739 0.0
H1693 H 1.00018 0.59888 0.96551 0.0
H1694 H 0.02557 0.6361 0.93551 0.0
H1695 H 0.02475 0.65132 0.95769 0.0
H1696 H 0.98934 0.59616 0.93462 0.0
H1697 H 0.04707 0.61479 0.92932 0.0
H1698 H 0.03918 0.61727 0.94782 0.0
H1699 H 0.04232 0.62857 0.92996 0.0
C1700 C 0.00518 0.619 0.97631 0.0
C1701 C 0.01214 0.63385 0.97436 0.0
C1702 C 0.00579 0.61033 0.96379 0.0
C1703 C 0.01312 0.61633 0.94892 0.0
C1704 C 0.02021 0.63123 0.94703 0.0
H1705 H 0.01581 0.57464 0.85635 0.0
H1706 H 0.0167 0.59206 0.8766 0.0
C1707 C 0.01975 0.63992 0.95969 0.0
C1708 C 0.01221 0.60684 0.93495 0.0
H1709 H 0.03201 0.59825 0.90938 0.0
C1710 C 0.99869 0.59664 0.92912 0.0
C1711 C 0.02438 0.60749 0.92765 0.0
C1712 C 0.03909 0.61755 0.93401 0.0
C1713 C 0.99704 0.587 0.9164 0.0
C1714 C 0.00921 0.58758 0.90932 0.0
C1715 C 0.02272 0.59795 0.9148 0.0
C1716 C 0.00816 0.57698 0.8969 0.0
C1717 C 0.98231 0.57624 0.9106 0.0
C1718 C 0.0032 0.56281 0.90173 0.0
C1719 C 0.00288 0.55289 0.89031 0.0
C1720 C 0.00748 0.55694 0.8738 0.0
C1721 C 0.01235 0.57118 0.869 0.0
C1722 C 0.01278 0.58113 0.8805 0.0
H1723 H 0.97424 0.5791 0.9147 0.0
H1724 H 0.98187 0.57528 0.89678 0.0
H1725 H 0.97947 0.56565 0.91589 0.0
H1726 H 0.99984 0.5595 0.91444 0.0
H1727 H 0.99935 0.54213 0.89457 0.0
H1728 H 0.40024 0.38041 0.96761 0.0
H1729 H 0.40937 0.39812 0.94551 0.0
H1730 H 0.36891 0.39666 0.94173 0.0
H1731 H 0.35974 0.37915 0.96437 0.0
H1732 H 0.40152 0.39694 0.91374 0.0
H1733 H 0.39546 0.43893 0.94659 0.0
H1734 H 0.39337 0.42317 0.95704 0.0
H1735 H 0.37928 0.4223 0.94417 0.0
C1736 C 0.39322 0.38381 0.96214 0.0
C1737 C 0.37925 0.37837 0.9679 0.0
C1738 C 0.39848 0.39397 0.94945 0.0
C1739 C 0.38992 0.39891 0.9421 0.0
C1740 C 0.37584 0.39327 0.94748 0.0
H1741 H 0.42066 0.45001 0.85039 0.0
H1742 H 0.40592 0.43119 0.87018 0.0
C1743 C 0.37058 0.38318 0.96036 0.0
C1744 C 0.39591 0.40991 0.92878 0.0
H1745 H 0.40405 0.44397 0.919 0.0
C1746 C 0.40201 0.4072 0.91484 0.0
C1747 C 0.39667 0.42335 0.93033 0.0
C1748 C 0.39097 0.42721 0.94539 0.0
C1749 C 0.40913 0.41763 0.90262 0.0
C1750 C 0.40979 0.43104 0.90406 0.0
C1751 C 0.40344 0.43365 0.91783 0.0
C1752 C 0.41785 0.4428 0.89205 0.0
C1753 C 0.41642 0.41437 0.88869 0.0
C1754 C 0.42903 0.45584 0.89781 0.0
C1755 C 0.4373 0.46667 0.88656 0.0
C1756 C 0.43458 0.46465 0.86931 0.0
C1757 C 0.42311 0.45176 0.8636 0.0
C1758 C 0.41473 0.44099 0.87488 0.0
H1759 H 0.41807 0.40523 0.89182 0.0
H1760 H 0.40973 0.41152 0.87726 0.0
H1761 H 0.42689 0.42375 0.88586 0.0
H1762 H 0.43163 0.4575 0.91099 0.0
H1763 H 0.44612 0.47644 0.89132 0.0
H1764 H 0.61628 0.00584 0.98904 0.0
H1765 H 0.60007 0.00384 0.96632 0.0
H1766 H 0.61103 0.97598 0.93955 0.0
H1767 H 0.6276 0.97838 0.96205 0.0
H1768 H 0.6133 0.99956 0.92083 0.0
H1769 H 0.56093 0.97114 0.95257 0.0
H1770 H 0.57598 0.9839 0.96455 0.0
H1771 H 0.57532 0.96782 0.95739 0.0
C1772 C 0.61496 0.99906 0.97845 0.0
C1773 C 0.62274 0.99185 0.97748 0.0
C1774 C 0.60568 0.99787 0.96553 0.0
C1775 C 0.60413 0.98953 0.95141 0.0
C1776 C 0.61193 0.98231 0.95045 0.0
H1777 H 0.5408 0.96802 0.87355 0.0
H1778 H 0.55714 0.96754 0.89439 0.0
C1779 C 0.62124 0.98354 0.96335 0.0
C1780 C 0.59527 0.98929 0.93708 0.0
H1781 H 0.56129 0.97969 0.92566 0.0
C1782 C 0.60192 0.99517 0.92184 0.0
C1783 C 0.58043 0.9835 0.93842 0.0
C1784 C 0.57263 0.97618 0.95408 0.0
C1785 C 0.59412 0.99557 0.90796 0.0
C1786 C 0.57933 0.99008 0.90947 0.0
C1787 C 0.57267 0.98402 0.92462 0.0
C1788 C 0.57045 0.99045 0.89555 0.0
C1789 C 0.60172 0.00169 0.89176 0.0
C1790 C 0.57261 0.00351 0.88919 0.0
C1791 C 0.56333 0.00382 0.87717 0.0
C1792 C 0.55169 0.99107 0.87139 0.0
C1793 C 0.54977 0.97801 0.87754 0.0
C1794 C 0.55904 0.97772 0.88953 0.0
H1795 H 0.61215 0.00205 0.8914 0.0
H1796 H 0.59521 0.99536 0.88094 0.0
H1797 H 0.60365 0.01275 0.89038 0.0
H1798 H 0.58121 0.01347 0.89387 0.0
H1799 H 0.56516 0.01404 0.87258 0.0
H1800 H 0.6381 0.01698 0.0456 0.0
H1801 H 0.62665 0.02221 0.06862 0.0
H1802 H 0.60405 0.97763 0.08164 0.0
H1803 H 0.61515 0.97226 0.05848 0.0
H1804 H 0.58647 0.98817 0.07765 0.0
H1805 H 0.63115 0.02415 0.11895 0.0
H1806 H 0.63335 0.03001 0.09764 0.0
H1807 H 0.63302 0.01359 0.10275 0.0
C1808 C 0.63093 0.00834 0.05359 0.0
C1809 C 0.62748 0.99419 0.05014 0.0
C1810 C 0.62443 0.01136 0.0668 0.0
C1811 C 0.61457 0.00033 0.07695 0.0
C1812 C 0.61163 0.98631 0.07398 0.0
H1813 H 0.57178 0.00671 0.16539 0.0
H1814 H 0.58739 0.00363 0.14591 0.0
C1815 C 0.61799 0.98326 0.06072 0.0
C1816 C 0.60619 0.00306 0.08952 0.0
H1817 H 0.60871 0.02252 0.12426 0.0
C1818 C 0.59135 0.99563 0.08789 0.0
C1819 C 0.61255 0.01271 0.10295 0.0
C1820 C 0.62839 0.02048 0.10581 0.0
C1821 C 0.58269 0.99766 0.09919 0.0
C1822 C 0.58905 0.00768 0.11227 0.0
C1823 C 0.60388 0.01498 0.11409 0.0
C1824 C 0.58037 0.01054 0.12423 0.0
C1825 C 0.56678 0.98887 0.09716 0.0
C1826 C 0.5715 0.01575 0.11855 0.0
C1827 C 0.56245 0.01734 0.12957 0.0
C1828 C 0.56219 0.0139 0.14657 0.0
C1829 C 0.57152 0.00921 0.15233 0.0
C1830 C 0.58054 0.00757 0.14126 0.0
H1831 H 0.56366 0.97916 0.08952 0.0
H1832 H 0.5615 0.98556 0.10947 0.0
H1833 H 0.56278 0.99533 0.09073 0.0
H1834 H 0.57138 0.01832 0.10549 0.0
H1835 H 0.55535 0.02086 0.12465 0.0
H1836 H 0.98751 0.62243 0.04006 0.0
H1837 H 0.98214 0.60565 0.06309 0.0
H1838 H 0.0261 0.62812 0.07853 0.0
H1839 H 0.03162 0.64455 0.05516 0.0
H1840 H 0.01743 0.60111 0.07637 0.0
H1841 H 0.97733 0.60727 0.11222 0.0
H1842 H 0.97222 0.60308 0.09074 0.0
H1843 H 0.98781 0.61964 0.09611 0.0
C1844 C 0.99597 0.62395 0.04855 0.0
C1845 C 0.00999 0.63479 0.04577 0.0
C1846 C 0.99287 0.61439 0.06179 0.0
C1847 C 0.00367 0.61571 0.07273 0.0
C1848 C 0.01758 0.62688 0.07029 0.0
H1849 H 0.9912 0.56377 0.16191 0.0
H1850 H 0.99485 0.58306 0.14268 0.0
C1851 C 0.02072 0.63626 0.05692 0.0
C1852 C 0.00083 0.60472 0.08566 0.0
H1853 H 0.9791 0.58633 0.11807 0.0
C1854 C 0.00913 0.59801 0.08558 0.0
C1855 C 0.99012 0.60074 0.09783 0.0
C1856 C 0.98147 0.60817 0.09937 0.0
C1857 C 0.00687 0.58728 0.09706 0.0
C1858 C 0.99564 0.58273 0.10861 0.0
C1859 C 0.98755 0.58966 0.10902 0.0
C1860 C 0.99221 0.57076 0.12029 0.0
C1861 C 0.01671 0.58109 0.09681 0.0
C1862 C 0.98903 0.55734 0.11408 0.0
C1863 C 0.98713 0.54643 0.12499 0.0
C1864 C 0.98807 0.54864 0.14233 0.0
C1865 C 0.99042 0.56181 0.14858 0.0
C1866 C 0.99252 0.57281 0.13763 0.0
H1867 H 0.02706 0.58856 0.09106 0.0
H1868 H 0.01872 0.57846 0.1096 0.0
H1869 H 0.0118 0.57116 0.08925 0.0
H1870 H 0.98831 0.55538 0.10077 0.0
H1871 H 0.98507 0.53629 0.11987 0.0
H1872 H 0.38942 0.39458 0.02856 0.0
H1873 H 0.40546 0.40751 0.05178 0.0
H1874 H 0.3934 0.3676 0.07658 0.0
H1875 H 0.37776 0.35468 0.05301 0.0
H1876 H 0.3974 0.40785 0.08297 0.0
H1877 H 0.43552 0.38729 0.08417 0.0
H1878 H 0.42504 0.3861 0.06606 0.0
H1879 H 0.41711 0.3739 0.08313 0.0
C1880 C 0.39054 0.3886 0.03878 0.0
C1881 C 0.38272 0.37367 0.03886 0.0
C1882 C 0.39963 0.39597 0.05207 0.0
C1883 C 0.40082 0.38855 0.06589 0.0
C1884 C 0.39305 0.37357 0.06589 0.0
H1885 H 0.4438 0.42429 0.16182 0.0
H1886 H 0.42745 0.40791 0.14065 0.0
C1887 C 0.3841 0.36619 0.05245 0.0
C1888 C 0.40922 0.39665 0.08076 0.0
H1889 H 0.43715 0.40249 0.10608 0.0
C1890 C 0.40608 0.40663 0.088 0.0
C1891 C 0.42047 0.39501 0.08749 0.0
C1892 C 0.42486 0.38506 0.07981 0.0
C1893 C 0.41405 0.41519 0.10148 0.0
C1894 C 0.42542 0.41371 0.10791 0.0
C1895 C 0.42833 0.40347 0.10111 0.0
C1896 C 0.43512 0.4235 0.12081 0.0
C1897 C 0.41041 0.4259 0.10867 0.0
C1898 C 0.4449 0.43757 0.11653 0.0
C1899 C 0.45437 0.44687 0.12845 0.0
C1900 C 0.45419 0.44231 0.14498 0.0
C1901 C 0.44434 0.42813 0.1492 0.0
C1902 C 0.43493 0.41879 0.13717 0.0
H1903 H 0.39982 0.42397 0.1044 0.0
H1904 H 0.41057 0.4256 0.12252 0.0
H1905 H 0.41848 0.43677 0.1047 0.0
H1906 H 0.44531 0.44132 0.10387 0.0
H1907 H 0.462 0.45757 0.12461 0.0
H1908 H 0.64374 0.69402 0.3788 0.0
H1909 H 0.63544 0.70424 0.40026 0.0
H1910 H 0.67876 0.73493 0.41266 0.0
H1911 H 0.68716 0.72507 0.391 0.0
H1912 H 0.63962 0.70801 0.43397 0.0
H1913 H 0.66193 0.76031 0.40224 0.0
H1914 H 0.66081 0.74479 0.3923 0.0
H1915 H 0.67508 0.7552 0.40665 0.0
C1916 C 0.65152 0.70289 0.38616 0.0
C1917 C 0.66612 0.70883 0.38303 0.0
C1918 C 0.64674 0.70871 0.39842 0.0
C1919 C 0.65647 0.72055 0.40779 0.0
C1920 C 0.67105 0.72605 0.40525 0.0
H1921 H 0.64196 0.75496 0.49844 0.0
H1922 H 0.64707 0.7415 0.47782 0.0
C1923 C 0.67583 0.72034 0.39292 0.0
C1924 C 0.6514 0.72738 0.41994 0.0
H1925 H 0.6538 0.75924 0.42999 0.0
C1926 C 0.64264 0.71919 0.43307 0.0
C1927 C 0.6551 0.74189 0.41854 0.0
C1928 C 0.66362 0.75103 0.40408 0.0
C1929 C 0.6378 0.72523 0.4451 0.0
C1930 C 0.64212 0.73993 0.44417 0.0
C1931 C 0.65059 0.748 0.43081 0.0
C1932 C 0.63814 0.74728 0.45693 0.0
C1933 C 0.62795 0.71575 0.45852 0.0
C1934 C 0.63166 0.75524 0.45204 0.0
C1935 C 0.62905 0.76326 0.46373 0.0
C1936 C 0.63285 0.76347 0.48061 0.0
C1937 C 0.63904 0.7552 0.48553 0.0
C1938 C 0.64177 0.74729 0.47379 0.0
H1939 H 0.62218 0.70441 0.45449 0.0
H1940 H 0.63426 0.71646 0.46982 0.0
H1941 H 0.62006 0.71904 0.46195 0.0
H1942 H 0.62886 0.75548 0.43908 0.0
H1943 H 0.6245 0.76967 0.45939 0.0
H1944 H 0.27594 0.95409 0.37251 0.0
H1945 H 0.26255 0.93856 0.39583 0.0
H1946 H 0.30165 0.94539 0.41859 0.0
H1947 H 0.31506 0.96112 0.39537 0.0
H1948 H 0.27868 0.91559 0.41559 0.0
H1949 H 0.26182 0.95134 0.44516 0.0
H1950 H 0.25882 0.94888 0.42301 0.0
H1951 H 0.27666 0.95777 0.43105 0.0
C1952 C 0.28162 0.95222 0.3825 0.0
C1953 C 0.29643 0.95832 0.38196 0.0
C1954 C 0.27401 0.94345 0.39581 0.0
C1955 C 0.28113 0.9409 0.40893 0.0
C1956 C 0.29597 0.94722 0.40855 0.0
H1957 H 0.24245 0.8944 0.50122 0.0
H1958 H 0.25906 0.91192 0.48125 0.0
C1959 C 0.30359 0.95604 0.39526 0.0
C1960 C 0.27301 0.93131 0.42278 0.0
H1961 H 0.25077 0.92736 0.45485 0.0
C1962 C 0.27269 0.9182 0.42425 0.0
C1963 C 0.2653 0.93484 0.43415 0.0
C1964 C 0.26571 0.94902 0.43343 0.0
C1965 C 0.26443 0.90825 0.43643 0.0
C1966 C 0.25631 0.91156 0.4474 0.0
C1967 C 0.257 0.92488 0.44634 0.0
C1968 C 0.24649 0.901 0.45948 0.0
C1969 C 0.26428 0.8942 0.43739 0.0
C1970 C 0.23397 0.88917 0.45376 0.0
C1971 C 0.22449 0.87925 0.46507 0.0
C1972 C 0.22739 0.88096 0.48231 0.0
C1973 C 0.24001 0.89278 0.488 0.0
C1974 C 0.24945 0.9028 0.47665 0.0
H1975 H 0.27311 0.89438 0.43023 0.0
H1976 H 0.26504 0.89143 0.45057 0.0
H1977 H 0.25411 0.88568 0.43214 0.0
H1978 H 0.23151 0.88768 0.44054 0.0
H1979 H 0.21492 0.87017 0.46032 0.0
H1980 H 0.04869 0.31931 0.36675 0.0
H1981 H 0.06453 0.32168 0.39015 0.0
H1982 H 0.05294 0.34982 0.41522 0.0
H1983 H 0.03691 0.34718 0.39202 0.0
H1984 H 0.08762 0.34589 0.40149 0.0
H1985 H 0.04799 0.32174 0.45188 0.0
H1986 H 0.04306 0.31985 0.43007 0.0
H1987 H 0.04714 0.33594 0.44113 0.0
C1988 C 0.04955 0.32595 0.37732 0.0
C1989 C 0.04201 0.33344 0.37748 0.0
C1990 C 0.05855 0.3273 0.39064 0.0
C1991 C 0.05984 0.33584 0.40449 0.0
C1992 C 0.05196 0.34299 0.40481 0.0
H1993 H 0.12996 0.37021 0.476 0.0
H1994 H 0.11189 0.36729 0.45535 0.0
C1995 C 0.04299 0.34167 0.39148 0.0
C1996 C 0.06989 0.33777 0.41822 0.0
H1997 H 0.0723 0.33387 0.46026 0.0
C1998 C 0.08427 0.34334 0.41433 0.0
C1999 C 0.06546 0.33415 0.43495 0.0
C2000 C 0.05005 0.32746 0.43978 0.0
C2001 C 0.0944 0.34565 0.42672 0.0
C2002 C 0.09003 0.34235 0.44349 0.0
C2003 C 0.07562 0.33656 0.4474 0.0
C2004 C 0.10023 0.34428 0.45699 0.0
C2005 C 0.10967 0.35135 0.42174 0.0
C2006 C 0.09936 0.33234 0.46509 0.0
C2007 C 0.10961 0.33397 0.47691 0.0
C2008 C 0.12087 0.3476 0.48092 0.0
C2009 C 0.12138 0.35959 0.47324 0.0
C2010 C 0.11115 0.35794 0.46136 0.0
H2011 H 0.11077 0.35062 0.40805 0.0
H2012 H 0.11593 0.36273 0.42542 0.0
H2013 H 0.1143 0.34546 0.42821 0.0
H2014 H 0.09096 0.32172 0.46194 0.0
H2015 H 0.10882 0.32455 0.4828 0.0
H2016 H 0.06136 0.35457 0.30058 0.0
H2017 H 0.07166 0.34781 0.27787 0.0
H2018 H 0.03778 0.30432 0.28127 0.0
H2019 H 0.02718 0.311 0.30403 0.0
H2020 H 0.08099 0.32798 0.28089 0.0
H2021 H 0.04014 0.31246 0.23073 0.0
H2022 H 0.04073 0.32292 0.24861 0.0
H2023 H 0.03397 0.30408 0.25069 0.0
C2024 C 0.05594 0.34358 0.29642 0.0
C2025 C 0.04342 0.33333 0.30421 0.0
C2026 C 0.06187 0.33974 0.28342 0.0
C2027 C 0.05546 0.32559 0.27781 0.0
C2028 C 0.04278 0.31535 0.28522 0.0
H2029 H 0.09401 0.29133 0.20846 0.0
H2030 H 0.07769 0.29265 0.22856 0.0
C2031 C 0.03678 0.31919 0.29827 0.0
C2032 C 0.0627 0.3216 0.265 0.0
H2033 H 0.06025 0.31013 0.22472 0.0
C2034 C 0.0764 0.32399 0.26865 0.0
C2035 C 0.05666 0.31632 0.24907 0.0
C2036 C 0.04211 0.31387 0.2444 0.0
C2037 C 0.08436 0.32156 0.2567 0.0
C2038 C 0.07851 0.31671 0.24065 0.0
C2039 C 0.06465 0.31385 0.23709 0.0
C2040 C 0.08718 0.31557 0.2272 0.0
C2041 C 0.09912 0.32448 0.26115 0.0
C2042 C 0.09765 0.32799 0.21958 0.0
C2043 C 0.1069 0.32729 0.20809 0.0
C2044 C 0.10591 0.31413 0.20403 0.0
C2045 C 0.09501 0.30161 0.21122 0.0
C2046 C 0.08571 0.30234 0.22273 0.0
H2047 H 0.10124 0.326 0.27479 0.0
H2048 H 0.10071 0.31556 0.25689 0.0
H2049 H 0.10701 0.33429 0.25468 0.0
H2050 H 0.09887 0.33829 0.22285 0.0
H2051 H 0.11499 0.3371 0.20255 0.0
H2052 H 0.68825 0.70777 0.29912 0.0
H2053 H 0.69231 0.72478 0.27666 0.0
H2054 H 0.65909 0.73158 0.29631 0.0
H2055 H 0.65597 0.71552 0.31956 0.0
H2056 H 0.67589 0.72359 0.25266 0.0
H2057 H 0.6885 0.77156 0.28974 0.0
H2058 H 0.68468 0.75508 0.29964 0.0
H2059 H 0.67047 0.75808 0.29314 0.0
C2060 C 0.68229 0.71341 0.29899 0.0
C2061 C 0.6724 0.71103 0.31152 0.0
C2062 C 0.6844 0.72292 0.28601 0.0
C2063 C 0.67628 0.72982 0.28499 0.0
C2064 C 0.6659 0.72688 0.29714 0.0
H2065 H 0.66261 0.77157 0.20004 0.0
H2066 H 0.66062 0.75456 0.2217 0.0
C2067 C 0.66405 0.71765 0.31035 0.0
C2068 C 0.67815 0.73942 0.2707 0.0
H2069 H 0.68351 0.7725 0.26042 0.0
C2070 C 0.67768 0.73432 0.25442 0.0
C2071 C 0.68037 0.75343 0.27288 0.0
C2072 C 0.68115 0.75986 0.28982 0.0
C2073 C 0.67929 0.74278 0.24036 0.0
C2074 C 0.68139 0.75666 0.24265 0.0
C2075 C 0.68194 0.76182 0.2588 0.0
C2076 C 0.68288 0.76601 0.22842 0.0
C2077 C 0.67877 0.73692 0.22315 0.0
C2078 C 0.69608 0.77794 0.22502 0.0
C2079 C 0.69726 0.78761 0.21265 0.0
C2080 C 0.6852 0.78559 0.20367 0.0
C2081 C 0.67205 0.77341 0.20684 0.0
C2082 C 0.67091 0.76368 0.21911 0.0
H2083 H 0.67887 0.72666 0.22354 0.0
H2084 H 0.66895 0.73514 0.21664 0.0
H2085 H 0.68794 0.74472 0.21569 0.0
H2086 H 0.7054 0.77992 0.23221 0.0
H2087 H 0.70748 0.79698 0.2106 0.0
H2088 H 0.29241 0.97765 0.30543 0.0
H2089 H 0.27612 0.96954 0.28147 0.0
H2090 H 0.27132 0.92753 0.28617 0.0
H2091 H 0.28766 0.9355 0.30986 0.0
H2092 H 0.2759 0.93765 0.25348 0.0
H2093 H 0.23295 0.94353 0.28373 0.0
H2094 H 0.2502 0.95917 0.28345 0.0
H2095 H 0.24745 0.94394 0.29545 0.0
C2096 C 0.28788 0.96668 0.30139 0.0
C2097 C 0.29134 0.95723 0.30964 0.0
C2098 C 0.27853 0.96206 0.28772 0.0
C2099 C 0.27241 0.9479 0.28217 0.0
C2100 C 0.27594 0.93851 0.29026 0.0
H2101 H 0.19898 0.89006 0.22921 0.0
H2102 H 0.21745 0.90573 0.24876 0.0
C2103 C 0.28528 0.9431 0.30385 0.0
C2104 C 0.26227 0.94267 0.26795 0.0
H2105 H 0.22868 0.93448 0.25635 0.0
C2106 C 0.26563 0.9371 0.25398 0.0
C2107 C 0.24888 0.94193 0.26873 0.0
C2108 C 0.24454 0.94735 0.28367 0.0
C2109 C 0.25577 0.93033 0.24103 0.0
C2110 C 0.24227 0.92934 0.24196 0.0
C2111 C 0.23909 0.93536 0.25564 0.0
C2112 C 0.23077 0.92064 0.22992 0.0
C2113 C 0.25961 0.92363 0.22692 0.0
C2114 C 0.23199 0.92399 0.21285 0.0
C2115 C 0.22148 0.91492 0.20155 0.0
C2116 C 0.20959 0.9024 0.2072 0.0
C2117 C 0.20817 0.89945 0.2244 0.0
C2118 C 0.21864 0.90847 0.23563 0.0
H2119 H 0.26941 0.9231 0.22966 0.0
H2120 H 0.25083 0.91267 0.22433 0.0
H2121 H 0.26142 0.93006 0.21544 0.0
H2122 H 0.24117 0.93347 0.20823 0.0
H2123 H 0.22287 0.91749 0.18838 0.0
H2124 H 0.68837 0.97979 0.29595 0.0
H2125 H 0.69281 0.9672 0.27335 0.0
H2126 H 0.6641 0.92694 0.29625 0.0
H2127 H 0.65998 0.9396 0.31908 0.0
H2128 H 0.689 0.92838 0.28666 0.0
H2129 H 0.66639 0.94541 0.2349 0.0
H2130 H 0.68006 0.9599 0.24664 0.0
H2131 H 0.66363 0.9478 0.25657 0.0
C2132 C 0.68317 0.96826 0.29619 0.0
C2133 C 0.67424 0.9606 0.30943 0.0
C2134 C 0.68553 0.96108 0.28318 0.0
C2135 C 0.6787 0.94613 0.28305 0.0
C2136 C 0.66951 0.93848 0.29614 0.0
H2137 H 0.66701 0.8873 0.20439 0.0
H2138 H 0.66513 0.90285 0.22513 0.0
C2139 C 0.66716 0.94567 0.30914 0.0
C2140 C 0.68129 0.93841 0.26947 0.0
H2141 H 0.67812 0.9326 0.22738 0.0
C2142 C 0.68672 0.92937 0.27369 0.0
C2143 C 0.67808 0.93956 0.25258 0.0
C2144 C 0.67159 0.94858 0.24736 0.0
C2145 C 0.68904 0.92144 0.26151 0.0
C2146 C 0.68601 0.92274 0.24459 0.0
C2147 C 0.68059 0.93178 0.24034 0.0
C2148 C 0.68751 0.91406 0.2313 0.0
C2149 C 0.69429 0.91141 0.26691 0.0
C2150 C 0.70079 0.91544 0.22763 0.0
C2151 C 0.70189 0.90648 0.21586 0.0
C2152 C 0.68972 0.89601 0.20754 0.0
C2153 C 0.67654 0.89507 0.21081 0.0
C2154 C 0.67545 0.90401 0.22256 0.0
H2155 H 0.69314 0.90938 0.28056 0.0
H2156 H 0.68844 0.90105 0.26025 0.0
H2157 H 0.7057 0.91618 0.26382 0.0
H2158 H 0.71026 0.9233 0.23406 0.0
H2159 H 0.71218 0.90744 0.21367 0.0
H2160 H 0.02528 0.71413 0.30481 0.0
H2161 H 0.03349 0.73091 0.2814 0.0
H2162 H 0.07273 0.72977 0.28058 0.0
H2163 H 0.06465 0.71297 0.30367 0.0
H2164 H 0.05697 0.75767 0.28038 0.0
H2165 H 0.06095 0.72357 0.23171 0.0
H2166 H 0.05126 0.7164 0.25081 0.0
H2167 H 0.07023 0.7238 0.25045 0.0
C2168 C 0.03559 0.71732 0.29953 0.0
C2169 C 0.04426 0.71211 0.30614 0.0
C2170 C 0.04027 0.72692 0.28615 0.0
C2171 C 0.05362 0.7314 0.27905 0.0
C2172 C 0.06224 0.72619 0.28557 0.0
H2173 H 0.11386 0.80709 0.23122 0.0
H2174 H 0.09775 0.78833 0.25 0.0
C2175 C 0.05761 0.71663 0.29889 0.0
C2176 C 0.05904 0.74218 0.26551 0.0
H2177 H 0.07465 0.74894 0.22721 0.0
C2178 C 0.06062 0.7557 0.26863 0.0
C2179 C 0.06357 0.73955 0.25005 0.0
C2180 C 0.06128 0.72499 0.24547 0.0
C2181 C 0.06739 0.76688 0.25714 0.0
C2182 C 0.07293 0.76454 0.24228 0.0
C2183 C 0.07057 0.7508 0.2387 0.0
C2184 C 0.08211 0.77638 0.23091 0.0
C2185 C 0.0687 0.78115 0.26115 0.0
C2186 C 0.07882 0.77581 0.21384 0.0
C2187 C 0.08815 0.78647 0.20298 0.0
C2188 C 0.10101 0.7978 0.20899 0.0
C2189 C 0.10412 0.79843 0.22615 0.0
C2190 C 0.09482 0.78781 0.23696 0.0
H2191 H 0.06007 0.77997 0.26957 0.0
H2192 H 0.07895 0.78789 0.26766 0.0
H2193 H 0.06839 0.78677 0.24965 0.0
H2194 H 0.06913 0.76701 0.20888 0.0
H2195 H 0.08551 0.7856 0.18982 0.0
H2196 H 0.28301 0.34172 0.32123 0.0
H2197 H 0.26712 0.33851 0.29764 0.0
H2198 H 0.27689 0.3078 0.27591 0.0
H2199 H 0.29284 0.31109 0.29948 0.0
H2200 H 0.2763 0.34394 0.26376 0.0
H2201 H 0.2331 0.28795 0.27268 0.0
H2202 H 0.24424 0.29878 0.2896 0.0
H2203 H 0.25112 0.29147 0.27452 0.0
C2204 C 0.28148 0.33406 0.31158 0.0
C2205 C 0.28875 0.32631 0.31236 0.0
C2206 C 0.27248 0.33227 0.29811 0.0
C2207 C 0.27072 0.32282 0.28511 0.0
C2208 C 0.27786 0.31493 0.28597 0.0
H2209 H 0.23062 0.31971 0.18786 0.0
H2210 H 0.24757 0.32045 0.20902 0.0
C2211 C 0.28688 0.31672 0.29947 0.0
C2212 C 0.26216 0.32201 0.27021 0.0
H2213 H 0.23145 0.30009 0.24923 0.0
C2214 C 0.26655 0.33432 0.26049 0.0
C2215 C 0.24948 0.30946 0.26596 0.0
C2216 C 0.24408 0.29612 0.27623 0.0
C2217 C 0.25842 0.33445 0.24682 0.0
C2218 C 0.24562 0.32197 0.24286 0.0
C2219 C 0.24137 0.30959 0.25231 0.0
C2220 C 0.23582 0.32189 0.22993 0.0
C2221 C 0.26323 0.34799 0.23701 0.0
C2222 C 0.22368 0.32237 0.23481 0.0
C2223 C 0.21407 0.32197 0.22286 0.0
C2224 C 0.21639 0.32098 0.2058 0.0
C2225 C 0.22856 0.32042 0.20093 0.0
C2226 C 0.23825 0.32092 0.21294 0.0
H2227 H 0.27319 0.35698 0.24209 0.0
H2228 H 0.26499 0.34618 0.22382 0.0
H2229 H 0.25482 0.35106 0.23707 0.0
H2230 H 0.22162 0.32302 0.24791 0.0
H2231 H 0.20467 0.32218 0.22701 0.0
H2232 H 0.27711 0.31252 0.39144 0.0
H2233 H 0.26843 0.32041 0.41483 0.0
H2234 H 0.30056 0.36394 0.40586 0.0
H2235 H 0.30938 0.35619 0.38226 0.0
H2236 H 0.28368 0.33691 0.44434 0.0
H2237 H 0.26189 0.36388 0.40394 0.0
H2238 H 0.26642 0.35106 0.39574 0.0
H2239 H 0.28018 0.36865 0.40116 0.0
C2240 C 0.28243 0.32379 0.39443 0.0
C2241 C 0.29391 0.33373 0.38485 0.0
C2242 C 0.27746 0.32826 0.40785 0.0
C2243 C 0.28377 0.34275 0.41194 0.0
C2244 C 0.29546 0.35271 0.40275 0.0
H2245 H 0.24588 0.37715 0.48171 0.0
H2246 H 0.26324 0.37608 0.46315 0.0
C2247 C 0.3005 0.34824 0.38931 0.0
C2248 C 0.2777 0.34729 0.42553 0.0
H2249 H 0.25728 0.36277 0.43261 0.0
C2250 C 0.27806 0.34273 0.44185 0.0
C2251 C 0.27046 0.35496 0.42222 0.0
C2252 C 0.26958 0.35989 0.40483 0.0
C2253 C 0.27099 0.34524 0.45489 0.0
C2254 C 0.2631 0.35222 0.4514 0.0
C2255 C 0.26331 0.35739 0.43524 0.0
C2256 C 0.2535 0.35309 0.46386 0.0
C2257 C 0.27189 0.34024 0.47222 0.0
C2258 C 0.2423 0.34054 0.47041 0.0
C2259 C 0.23243 0.34111 0.48102 0.0
C2260 C 0.23349 0.35426 0.4852 0.0
C2261 C 0.24487 0.36687 0.47887 0.0
C2262 C 0.25475 0.36627 0.46821 0.0
H2263 H 0.28178 0.33966 0.47397 0.0
H2264 H 0.27152 0.34741 0.4819 0.0
H2265 H 0.26278 0.32938 0.47415 0.0
H2266 H 0.24093 0.33023 0.46695 0.0
H2267 H 0.22387 0.33123 0.48581 0.0
H2268 H 0.64721 0.95294 0.38122 0.0
H2269 H 0.63924 0.93615 0.4046 0.0
H2270 H 0.68146 0.94216 0.41028 0.0
H2271 H 0.68958 0.95896 0.38712 0.0
H2272 H 0.6405 0.91058 0.40634 0.0
H2273 H 0.67109 0.94726 0.45802 0.0
H2274 H 0.66823 0.9535 0.43819 0.0
H2275 H 0.68175 0.94852 0.44037 0.0
C2276 C 0.65486 0.95083 0.38755 0.0
C2277 C 0.66906 0.95736 0.38227 0.0
C2278 C 0.65026 0.94121 0.4009 0.0
C2279 C 0.65981 0.93807 0.40931 0.0
C2280 C 0.67399 0.94465 0.40418 0.0
H2281 H 0.66094 0.88003 0.48122 0.0
H2282 H 0.66569 0.89892 0.46114 0.0
C2283 C 0.67858 0.95421 0.39084 0.0
C2284 C 0.65486 0.92731 0.42282 0.0
H2285 H 0.6612 0.92234 0.46342 0.0
C2286 C 0.64485 0.91316 0.4189 0.0
C2287 C 0.66059 0.93073 0.43916 0.0
C2288 C 0.67091 0.94585 0.44427 0.0
C2289 C 0.64089 0.9022 0.43069 0.0
C2290 C 0.64692 0.90557 0.44691 0.0
C2291 C 0.65662 0.91979 0.45096 0.0
C2292 C 0.6439 0.89439 0.45957 0.0
C2293 C 0.63077 0.88705 0.42546 0.0
C2294 C 0.6301 0.88571 0.46556 0.0
C2295 C 0.62735 0.8749 0.47709 0.0
C2296 C 0.63838 0.87265 0.48294 0.0
C2297 C 0.65223 0.88158 0.47715 0.0
C2298 C 0.65496 0.89234 0.46561 0.0
H2299 H 0.62957 0.88593 0.41167 0.0
H2300 H 0.63444 0.8797 0.43017 0.0
H2301 H 0.62016 0.88367 0.43081 0.0
H2302 H 0.62146 0.88731 0.46131 0.0
H2303 H 0.6166 0.86835 0.4815 0.0
H2304 H 0.0407 0.68977 0.39314 0.0
H2305 H 0.05646 0.70306 0.41649 0.0
H2306 H 0.06535 0.74264 0.39299 0.0
H2307 H 0.04977 0.72931 0.36947 0.0
H2308 H 0.08954 0.74252 0.40412 0.0
H2309 H 0.04892 0.72408 0.45385 0.0
H2310 H 0.04931 0.70996 0.44245 0.0
H2311 H 0.04436 0.72163 0.43193 0.0
C2312 C 0.04616 0.70132 0.39295 0.0
C2313 C 0.04448 0.70861 0.37937 0.0
C2314 C 0.05498 0.70888 0.40637 0.0
C2315 C 0.06199 0.72383 0.40653 0.0
C2316 C 0.06006 0.7311 0.39308 0.0
H2317 H 0.10612 0.78401 0.48573 0.0
H2318 H 0.0893 0.76832 0.46455 0.0
C2319 C 0.0512 0.72353 0.37969 0.0
C2320 C 0.07166 0.73196 0.42049 0.0
H2321 H 0.07298 0.73777 0.46252 0.0
C2322 C 0.08594 0.74142 0.41689 0.0
C2323 C 0.06687 0.73067 0.43712 0.0
C2324 C 0.0515 0.72114 0.44161 0.0
C2325 C 0.09562 0.74956 0.42947 0.0
C2326 C 0.09089 0.7481 0.44613 0.0
C2327 C 0.07658 0.73872 0.44975 0.0
C2328 C 0.10054 0.75678 0.4598 0.0
C2329 C 0.11075 0.7599 0.42477 0.0
C2330 C 0.11224 0.75523 0.46441 0.0
C2331 C 0.1219 0.76421 0.47646 0.0
C2332 C 0.12001 0.77488 0.48411 0.0
C2333 C 0.10798 0.77603 0.47988 0.0
C2334 C 0.09832 0.76703 0.46787 0.0
H2335 H 0.11193 0.76187 0.41111 0.0
H2336 H 0.11458 0.77025 0.4313 0.0
H2337 H 0.11766 0.75546 0.4286 0.0
H2338 H 0.11403 0.74724 0.45846 0.0
H2339 H 0.1311 0.7631 0.47937 0.0
H2340 H 0.35527 0.06527 0.71985 0.0
H2341 H 0.34734 0.07486 0.74224 0.0
H2342 H 0.3051 0.03887 0.73805 0.0
H2343 H 0.31298 0.02898 0.71572 0.0
H2344 H 0.32668 0.0826 0.7394 0.0
H2345 H 0.31247 0.04122 0.78837 0.0
H2346 H 0.32308 0.04246 0.7705 0.0
H2347 H 0.30418 0.03469 0.76838 0.0
C2348 C 0.34432 0.05926 0.72377 0.0
C2349 C 0.33477 0.04632 0.71594 0.0
C2350 C 0.33981 0.06479 0.73659 0.0
C2351 C 0.32567 0.05752 0.74193 0.0
C2352 C 0.31613 0.04451 0.73435 0.0
H2353 H 0.28237 0.08475 0.81268 0.0
H2354 H 0.28756 0.07143 0.79168 0.0
C2355 C 0.32065 0.03891 0.72153 0.0
C2356 C 0.32087 0.06411 0.75471 0.0
H2357 H 0.30731 0.05975 0.79402 0.0
C2358 C 0.32245 0.0776 0.75134 0.0
C2359 C 0.31526 0.05751 0.77023 0.0
C2360 C 0.31373 0.04322 0.77471 0.0
C2361 C 0.31868 0.08473 0.76311 0.0
C2362 C 0.31335 0.07828 0.77874 0.0
C2363 C 0.31144 0.06465 0.78201 0.0
C2364 C 0.31022 0.08583 0.792 0.0
C2365 C 0.3204 0.09912 0.75873 0.0
C2366 C 0.32127 0.09815 0.7993 0.0
C2367 C 0.31836 0.10576 0.81122 0.0
C2368 C 0.30431 0.10118 0.81611 0.0
C2369 C 0.29327 0.08862 0.80904 0.0
C2370 C 0.29622 0.08097 0.79713 0.0
H2371 H 0.32142 0.10107 0.74506 0.0
H2372 H 0.31125 0.1001 0.76327 0.0
H2373 H 0.33015 0.10757 0.76485 0.0
H2374 H 0.33216 0.10199 0.79559 0.0
H2375 H 0.32708 0.11546 0.81628 0.0
H2376 H 0.9392 0.28468 0.70138 0.0
H2377 H 0.92589 0.26845 0.72415 0.0
H2378 H 0.96515 0.27439 0.74569 0.0
H2379 H 0.9784 0.29144 0.72366 0.0
H2380 H 0.92232 0.24424 0.73179 0.0
H2381 H 0.94811 0.27859 0.78655 0.0
H2382 H 0.95152 0.2855 0.76559 0.0
H2383 H 0.96095 0.27701 0.77415 0.0
C2384 C 0.94492 0.28255 0.7111 0.0
C2385 C 0.95973 0.28878 0.71051 0.0
C2386 C 0.93735 0.27328 0.72408 0.0
C2387 C 0.94447 0.27019 0.73678 0.0
C2388 C 0.95935 0.27679 0.73635 0.0
H2389 H 0.89884 0.1923 0.7952 0.0
H2390 H 0.91368 0.21027 0.77507 0.0
C2391 C 0.96692 0.28626 0.72354 0.0
C2392 C 0.93626 0.25957 0.74993 0.0
H2393 H 0.93428 0.25357 0.79195 0.0
C2394 C 0.92488 0.24635 0.74496 0.0
C2395 C 0.93938 0.26234 0.76718 0.0
C2396 C 0.95055 0.27669 0.77367 0.0
C2397 C 0.9166 0.23585 0.75664 0.0
C2398 C 0.92023 0.23831 0.77381 0.0
C2399 C 0.93157 0.25155 0.7788 0.0
C2400 C 0.91215 0.22751 0.78686 0.0
C2401 C 0.90377 0.22248 0.75037 0.0
C2402 C 0.90712 0.23133 0.80094 0.0
C2403 C 0.8992 0.2212 0.81304 0.0
C2404 C 0.89582 0.20686 0.81121 0.0
C2405 C 0.90122 0.20317 0.79727 0.0
C2406 C 0.90949 0.21342 0.78545 0.0
H2407 H 0.89984 0.22437 0.7383 0.0
H2408 H 0.90673 0.21412 0.74821 0.0
H2409 H 0.89495 0.21842 0.75947 0.0
H2410 H 0.90916 0.24216 0.80251 0.0
H2411 H 0.8957 0.22467 0.82378 0.0
H2412 H 0.71047 0.69156 0.71717 0.0
H2413 H 0.72736 0.69614 0.74007 0.0
H2414 H 0.73845 0.66641 0.71823 0.0
H2415 H 0.72133 0.66163 0.69557 0.0
H2416 H 0.73242 0.66127 0.75122 0.0
H2417 H 0.77014 0.71906 0.74244 0.0
H2418 H 0.75164 0.71395 0.74232 0.0
H2419 H 0.75866 0.70774 0.72609 0.0
C2420 C 0.71685 0.68636 0.71705 0.0
C2421 C 0.71495 0.67656 0.70441 0.0
C2422 C 0.72648 0.68895 0.73014 0.0
C2423 C 0.73437 0.68178 0.73077 0.0
C2424 C 0.73255 0.67211 0.71799 0.0
H2425 H 0.80773 0.6979 0.78855 0.0
H2426 H 0.79001 0.69462 0.76743 0.0
C2427 C 0.72284 0.66944 0.70502 0.0
C2428 C 0.74389 0.68363 0.7452 0.0
H2429 H 0.77359 0.70819 0.76596 0.0
C2430 C 0.74141 0.67154 0.75446 0.0
C2431 C 0.75561 0.69702 0.74947 0.0
C2432 C 0.7593 0.71023 0.73955 0.0
C2433 C 0.75045 0.67245 0.76766 0.0
C2434 C 0.76217 0.68585 0.77183 0.0
C2435 C 0.76452 0.69795 0.76278 0.0
C2436 C 0.77267 0.68749 0.78485 0.0
C2437 C 0.74768 0.65903 0.77669 0.0
C2438 C 0.76881 0.68468 0.8017 0.0
C2439 C 0.77897 0.68664 0.81386 0.0
C2440 C 0.79318 0.69154 0.80939 0.0
C2441 C 0.79696 0.69435 0.79248 0.0
C2442 C 0.78682 0.69238 0.78037 0.0
H2443 H 0.73997 0.64928 0.76984 0.0
H2444 H 0.75769 0.6587 0.77851 0.0
H2445 H 0.74325 0.65887 0.78918 0.0
H2446 H 0.75799 0.68115 0.80545 0.0
H2447 H 0.77575 0.68454 0.82679 0.0
H2448 H 0.7259 0.68716 0.62595 0.0
H2449 H 0.73511 0.67882 0.60364 0.0
H2450 H 0.70367 0.63535 0.61425 0.0
H2451 H 0.69433 0.6436 0.63688 0.0
H2452 H 0.73169 0.64001 0.61169 0.0
H2453 H 0.71804 0.66304 0.55752 0.0
H2454 H 0.72714 0.67582 0.57379 0.0
H2455 H 0.70986 0.66083 0.57768 0.0
C2456 C 0.72079 0.67582 0.62351 0.0
C2457 C 0.70932 0.66606 0.63325 0.0
C2458 C 0.72604 0.67108 0.61064 0.0
C2459 C 0.71994 0.65649 0.60711 0.0
C2460 C 0.70845 0.64668 0.61669 0.0
H2461 H 0.75408 0.61739 0.53797 0.0
H2462 H 0.73847 0.62022 0.55774 0.0
C2463 C 0.70312 0.65142 0.62959 0.0
C2464 C 0.72622 0.65163 0.59403 0.0
H2465 H 0.73607 0.6566 0.5531 0.0
C2466 C 0.73244 0.6434 0.5988 0.0
C2467 C 0.72717 0.65607 0.57724 0.0
C2468 C 0.72008 0.66431 0.57119 0.0
C2469 C 0.74028 0.64017 0.58743 0.0
C2470 C 0.74172 0.64514 0.5708 0.0
C2471 C 0.73502 0.65288 0.56588 0.0
C2472 C 0.7509 0.64323 0.55861 0.0
C2473 C 0.74754 0.63209 0.59349 0.0
C2474 C 0.76289 0.65523 0.5523 0.0
C2475 C 0.77181 0.65366 0.54104 0.0
C2476 C 0.76889 0.64004 0.53576 0.0
C2477 C 0.75675 0.62802 0.54196 0.0
C2478 C 0.74782 0.62961 0.55325 0.0
H2479 H 0.74764 0.63145 0.60733 0.0
H2480 H 0.74182 0.62107 0.58847 0.0
H2481 H 0.75864 0.6372 0.58898 0.0
H2482 H 0.76546 0.66584 0.55629 0.0
H2483 H 0.78116 0.66314 0.53672 0.0
H2484 H 0.35354 0.04369 0.63104 0.0
H2485 H 0.35619 0.05999 0.60828 0.0
H2486 H 0.32256 0.06551 0.62914 0.0
H2487 H 0.32093 0.05028 0.65272 0.0
H2488 H 0.33919 0.05799 0.58487 0.0
H2489 H 0.35042 0.10574 0.62176 0.0
H2490 H 0.34741 0.08955 0.63175 0.0
H2491 H 0.33266 0.09171 0.62534 0.0
C2492 C 0.34719 0.04892 0.63109 0.0
C2493 C 0.33768 0.0465 0.64408 0.0
C2494 C 0.34849 0.058 0.61793 0.0
C2495 C 0.33986 0.06437 0.61719 0.0
C2496 C 0.32976 0.06126 0.62975 0.0
H2497 H 0.32603 0.10586 0.53138 0.0
H2498 H 0.32358 0.08872 0.55312 0.0
C2499 C 0.32876 0.05249 0.64315 0.0
C2500 C 0.34108 0.07371 0.60287 0.0
H2501 H 0.3456 0.10646 0.59249 0.0
C2502 C 0.34068 0.06862 0.5866 0.0
C2503 C 0.34288 0.08757 0.60502 0.0
C2504 C 0.34349 0.09397 0.62193 0.0
C2505 C 0.34211 0.07699 0.57253 0.0
C2506 C 0.34393 0.09076 0.57478 0.0
C2507 C 0.34425 0.09586 0.59091 0.0
C2508 C 0.34567 0.10019 0.56056 0.0
C2509 C 0.34182 0.0712 0.55533 0.0
C2510 C 0.35893 0.11216 0.55755 0.0
C2511 C 0.36037 0.12191 0.54516 0.0
C2512 C 0.34852 0.11991 0.53574 0.0
C2513 C 0.33531 0.10769 0.53853 0.0
C2514 C 0.33391 0.09788 0.55084 0.0
H2515 H 0.34191 0.06094 0.55576 0.0
H2516 H 0.33208 0.06945 0.54862 0.0
H2517 H 0.35108 0.07903 0.54804 0.0
H2518 H 0.36808 0.11412 0.56506 0.0
H2519 H 0.37063 0.13131 0.54344 0.0
H2520 H 0.95762 0.31019 0.63417 0.0
H2521 H 0.94163 0.30252 0.60993 0.0
H2522 H 0.93813 0.26094 0.61245 0.0
H2523 H 0.9542 0.2685 0.63639 0.0
H2524 H 0.94209 0.27173 0.58021 0.0
H2525 H 0.89871 0.27561 0.61232 0.0
H2526 H 0.91572 0.29156 0.61212 0.0
H2527 H 0.91354 0.27624 0.62351 0.0
C2528 C 0.95348 0.29942 0.62955 0.0
C2529 C 0.95717 0.28995 0.63732 0.0
C2530 C 0.94429 0.29505 0.61574 0.0
C2531 C 0.93856 0.28111 0.60954 0.0
C2532 C 0.94243 0.27175 0.61705 0.0
H2533 H 0.86518 0.22282 0.55719 0.0
H2534 H 0.88372 0.23866 0.57655 0.0
C2535 C 0.95162 0.2761 0.63078 0.0
C2536 C 0.92831 0.276 0.59541 0.0
H2537 H 0.89435 0.26712 0.58472 0.0
C2538 C 0.93171 0.27088 0.58107 0.0
C2539 C 0.91475 0.27485 0.59666 0.0
C2540 C 0.91035 0.27974 0.612 0.0
C2541 C 0.92174 0.26413 0.5682 0.0
C2542 C 0.90809 0.26272 0.5696 0.0
C2543 C 0.90487 0.26833 0.58365 0.0
C2544 C 0.89649 0.25393 0.5577 0.0
C2545 C 0.92565 0.25789 0.55367 0.0
C2546 C 0.89735 0.25742 0.54068 0.0
C2547 C 0.88679 0.24826 0.52949 0.0
C2548 C 0.87521 0.23549 0.53518 0.0
C2549 C 0.87412 0.23241 0.55235 0.0
C2550 C 0.88464 0.24151 0.56346 0.0
H2551 H 0.93566 0.25766 0.556 0.0
H2552 H 0.91706 0.24686 0.551 0.0
H2553 H 0.92711 0.26444 0.54238 0.0
H2554 H 0.9063 0.26708 0.53602 0.0
H2555 H 0.88791 0.25093 0.51635 0.0
H2556 H 0.32986 0.27578 0.65423 0.0
H2557 H 0.33381 0.26277 0.63168 0.0
H2558 H 0.36428 0.30264 0.60951 0.0
H2559 H 0.35992 0.31564 0.63174 0.0
H2560 H 0.34226 0.28254 0.58746 0.0
H2561 H 0.36627 0.25509 0.62317 0.0
H2562 H 0.35595 0.26155 0.63376 0.0
H2563 H 0.37312 0.27392 0.62564 0.0
C2564 C 0.33758 0.28172 0.64468 0.0
C2565 C 0.345 0.29666 0.64499 0.0
C2566 C 0.33987 0.27431 0.63187 0.0
C2567 C 0.3496 0.28174 0.61915 0.0
C2568 C 0.35692 0.2967 0.61937 0.0
H2569 H 0.37783 0.2426 0.54516 0.0
H2570 H 0.37668 0.25873 0.56568 0.0
C2571 C 0.35455 0.30411 0.63214 0.0
C2572 C 0.35123 0.27389 0.60493 0.0
H2573 H 0.36235 0.25027 0.5947 0.0
C2574 C 0.34667 0.2755 0.58902 0.0
C2575 C 0.35709 0.26479 0.60695 0.0
C2576 C 0.36336 0.26363 0.62331 0.0
C2577 C 0.34764 0.26809 0.57512 0.0
C2578 C 0.35315 0.25871 0.57729 0.0
C2579 C 0.35794 0.25732 0.59313 0.0
C2580 C 0.35397 0.25005 0.56344 0.0
C2581 C 0.34295 0.27053 0.55824 0.0
C2582 C 0.3416 0.2399 0.55526 0.0
C2583 C 0.34224 0.23075 0.5434 0.0
C2584 C 0.35525 0.23147 0.53963 0.0
C2585 C 0.36767 0.24187 0.54759 0.0
C2586 C 0.36702 0.25104 0.5594 0.0
H2587 H 0.34289 0.2808 0.55779 0.0
H2588 H 0.34997 0.27049 0.54823 0.0
H2589 H 0.332 0.26184 0.55562 0.0
H2590 H 0.33138 0.23875 0.5584 0.0
H2591 H 0.3325 0.22297 0.53736 0.0
H2592 H 0.69887 0.05319 0.63909 0.0
H2593 H 0.70947 0.07022 0.61623 0.0
H2594 H 0.73156 0.04829 0.60003 0.0
H2595 H 0.72146 0.03162 0.62321 0.0
H2596 H 0.7492 0.07538 0.60252 0.0
H2597 H 0.70232 0.06891 0.56711 0.0
H2598 H 0.70162 0.07289 0.58868 0.0
H2599 H 0.70107 0.05647 0.583 0.0
C2600 C 0.70578 0.05185 0.63046 0.0
C2601 C 0.70936 0.04108 0.63298 0.0
C2602 C 0.71178 0.06155 0.61732 0.0
C2603 C 0.72119 0.06046 0.60623 0.0
C2604 C 0.72433 0.04937 0.60839 0.0
H2605 H 0.75781 0.11233 0.5169 0.0
H2606 H 0.74296 0.09314 0.53634 0.0
C2607 C 0.71854 0.03983 0.62166 0.0
C2608 C 0.72885 0.07158 0.59338 0.0
H2609 H 0.72444 0.08988 0.56111 0.0
C2610 C 0.74374 0.07844 0.59338 0.0
C2611 C 0.72178 0.07551 0.58131 0.0
C2612 C 0.70581 0.06795 0.57988 0.0
C2613 C 0.75175 0.08921 0.58189 0.0
C2614 C 0.74472 0.09366 0.57039 0.0
C2615 C 0.72983 0.08662 0.5701 0.0
C2616 C 0.75275 0.10558 0.5586 0.0
C2617 C 0.76768 0.09553 0.58203 0.0
C2618 C 0.76282 0.11906 0.56466 0.0
C2619 C 0.77138 0.12991 0.55363 0.0
C2620 C 0.76984 0.1276 0.53631 0.0
C2621 C 0.7592 0.11438 0.53021 0.0
C2622 C 0.75074 0.10343 0.54128 0.0
H2623 H 0.77089 0.08814 0.58778 0.0
H2624 H 0.77205 0.09813 0.56921 0.0
H2625 H 0.77255 0.10548 0.58953 0.0
H2626 H 0.76427 0.12111 0.57796 0.0
H2627 H 0.77934 0.1401 0.55864 0.0
H2628 H 0.96409 0.65461 0.6255 0.0
H2629 H 0.94808 0.65151 0.60211 0.0
H2630 H 0.93525 0.67886 0.6268 0.0
H2631 H 0.95114 0.68174 0.65037 0.0
H2632 H 0.91266 0.6538 0.61557 0.0
H2633 H 0.9521 0.67934 0.56525 0.0
H2634 H 0.95385 0.66575 0.57625 0.0
H2635 H 0.95696 0.68163 0.5871 0.0
C2636 C 0.95777 0.65988 0.6259 0.0
C2637 C 0.9584 0.66803 0.63983 0.0
C2638 C 0.94881 0.65829 0.61247 0.0
C2639 C 0.94059 0.66508 0.61265 0.0
C2640 C 0.94153 0.67355 0.62642 0.0
H2641 H 0.88739 0.67008 0.5344 0.0
H2642 H 0.90584 0.67532 0.55539 0.0
C2643 C 0.95054 0.67517 0.63984 0.0
C2644 C 0.93044 0.66268 0.5989 0.0
H2645 H 0.92782 0.66573 0.55673 0.0
C2646 C 0.91597 0.65637 0.60273 0.0
C2647 C 0.93483 0.66632 0.58216 0.0
C2648 C 0.95029 0.67376 0.57742 0.0
C2649 C 0.90572 0.65319 0.59023 0.0
C2650 C 0.91008 0.65644 0.57346 0.0
C2651 C 0.92456 0.6631 0.56962 0.0
C2652 C 0.89966 0.65324 0.55985 0.0
C2653 C 0.8903 0.64643 0.59502 0.0
C2654 C 0.89032 0.63909 0.55522 0.0
C2655 C 0.87986 0.63604 0.5431 0.0
C2656 C 0.87854 0.6471 0.53544 0.0
C2657 C 0.88821 0.6613 0.53986 0.0
C2658 C 0.89871 0.66433 0.55191 0.0
H2659 H 0.88894 0.64685 0.6087 0.0
H2660 H 0.88513 0.65183 0.58857 0.0
H2661 H 0.88473 0.63509 0.59107 0.0
H2662 H 0.89102 0.63041 0.56113 0.0
H2663 H 0.87275 0.62501 0.53979 0.0
H2664 H 0.97086 0.69109 0.71078 0.0
H2665 H 0.96045 0.69744 0.73392 0.0
H2666 H 0.93178 0.65288 0.74333 0.0
H2667 H 0.94181 0.64645 0.71994 0.0
H2668 H 0.91794 0.66738 0.74153 0.0
H2669 H 0.96426 0.696 0.78382 0.0
H2670 H 0.96748 0.70325 0.76311 0.0
H2671 H 0.96431 0.6854 0.76645 0.0
C2672 C 0.96249 0.68263 0.71793 0.0
C2673 C 0.95715 0.66826 0.71348 0.0
C2674 C 0.9566 0.68629 0.73124 0.0
C2675 C 0.94546 0.67564 0.74052 0.0
C2676 C 0.94039 0.66128 0.73636 0.0
H2677 H 0.90852 0.6859 0.83181 0.0
H2678 H 0.92218 0.68118 0.81109 0.0
C2679 C 0.94614 0.65762 0.72298 0.0
C2680 C 0.93829 0.67939 0.75368 0.0
H2681 H 0.94381 0.69813 0.7899 0.0
C2682 C 0.9236 0.67404 0.75215 0.0
C2683 C 0.94565 0.68797 0.76762 0.0
C2684 C 0.96127 0.69337 0.77047 0.0
C2685 C 0.91608 0.67712 0.76406 0.0
C2686 C 0.92352 0.68616 0.77765 0.0
C2687 C 0.93818 0.69137 0.77934 0.0
C2688 C 0.91614 0.69003 0.79039 0.0
C2689 C 0.90018 0.67039 0.76213 0.0
C2690 C 0.90854 0.69694 0.7857 0.0
C2691 C 0.90053 0.69943 0.79743 0.0
C2692 C 0.90013 0.69525 0.81417 0.0
C2693 C 0.90834 0.68898 0.81897 0.0
C2694 C 0.91626 0.68639 0.80718 0.0
H2695 H 0.89576 0.66079 0.75401 0.0
H2696 H 0.89484 0.66727 0.77442 0.0
H2697 H 0.89759 0.67817 0.75626 0.0
H2698 H 0.90855 0.70013 0.77287 0.0
H2699 H 0.89427 0.70417 0.7932 0.0
H2700 H 0.35673 0.29269 0.71888 0.0
H2701 H 0.34811 0.27535 0.74141 0.0
H2702 H 0.30899 0.27674 0.74236 0.0
H2703 H 0.31733 0.29378 0.71924 0.0
H2704 H 0.34048 0.27608 0.77258 0.0
H2705 H 0.29416 0.23467 0.73735 0.0
H2706 H 0.30782 0.25054 0.72755 0.0
H2707 H 0.29419 0.25125 0.7395 0.0
C2708 C 0.34629 0.28936 0.72384 0.0
C2709 C 0.33766 0.29454 0.71707 0.0
C2710 C 0.34138 0.27943 0.73678 0.0
C2711 C 0.32779 0.27451 0.74338 0.0
C2712 C 0.31935 0.28008 0.73716 0.0
H2713 H 0.30467 0.22189 0.83438 0.0
H2714 H 0.30999 0.24143 0.81486 0.0
C2715 C 0.32419 0.2899 0.72402 0.0
C2716 C 0.32255 0.26341 0.75659 0.0
H2717 H 0.29676 0.22939 0.7653 0.0
C2718 C 0.33088 0.26589 0.77103 0.0
C2719 C 0.31011 0.25004 0.75446 0.0
C2720 C 0.30111 0.24637 0.73882 0.0
C2721 C 0.32732 0.2553 0.78322 0.0
C2722 C 0.3148 0.24199 0.78118 0.0
C2723 C 0.3063 0.23962 0.76691 0.0
C2724 C 0.31083 0.23003 0.79307 0.0
C2725 C 0.33737 0.25829 0.79775 0.0
C2726 C 0.30896 0.21693 0.78724 0.0
C2727 C 0.30566 0.20571 0.79829 0.0
C2728 C 0.30425 0.20738 0.81543 0.0
C2729 C 0.30588 0.2204 0.82125 0.0
C2730 C 0.30899 0.23158 0.81013 0.0
H2731 H 0.34811 0.26735 0.79514 0.0
H2732 H 0.33322 0.26113 0.80886 0.0
H2733 H 0.33839 0.24878 0.80085 0.0
H2734 H 0.31031 0.21547 0.77414 0.0
H2735 H 0.30456 0.19583 0.79349 0.0
H2736 H 0.70641 0.02053 0.72063 0.0
H2737 H 0.72341 0.03286 0.74338 0.0
H2738 H 0.7372 0.07307 0.71853 0.0
H2739 H 0.72023 0.06069 0.69569 0.0
H2740 H 0.75969 0.06814 0.73033 0.0
H2741 H 0.71973 0.05869 0.77907 0.0
H2742 H 0.71721 0.04312 0.76797 0.0
H2743 H 0.71548 0.05676 0.75705 0.0
C2744 C 0.71321 0.03199 0.72 0.0
C2745 C 0.71242 0.03969 0.70629 0.0
C2746 C 0.72277 0.03901 0.73304 0.0
C2747 C 0.7315 0.05387 0.73264 0.0
C2748 C 0.73057 0.06159 0.71902 0.0
H2749 H 0.78169 0.11408 0.80893 0.0
H2750 H 0.76441 0.0997 0.78749 0.0
C2751 C 0.72093 0.05456 0.70603 0.0
C2752 C 0.74167 0.06137 0.74638 0.0
H2753 H 0.74376 0.06972 0.78777 0.0
C2754 C 0.75623 0.06844 0.7429 0.0
C2755 C 0.73708 0.06184 0.76272 0.0
C2756 C 0.72153 0.05481 0.76699 0.0
C2757 C 0.76637 0.07596 0.75535 0.0
C2758 C 0.76178 0.07633 0.77173 0.0
C2759 C 0.74722 0.06929 0.77522 0.0
C2760 C 0.77193 0.08456 0.78522 0.0
C2761 C 0.78188 0.08374 0.75083 0.0
C2762 C 0.78172 0.08063 0.79125 0.0
C2763 C 0.79156 0.08876 0.80364 0.0
C2764 C 0.79175 0.10095 0.81024 0.0
C2765 C 0.78172 0.10466 0.80434 0.0
C2766 C 0.77189 0.09651 0.792 0.0
H2767 H 0.78346 0.08467 0.7371 0.0
H2768 H 0.7873 0.09459 0.75638 0.0
H2769 H 0.78704 0.07782 0.75591 0.0
H2770 H 0.78177 0.0713 0.78634 0.0
H2771 H 0.79899 0.08548 0.80808 0.0
H2772 H 0.01554 0.32344 0.03519 0.0
H2773 H 0.02864 0.31437 0.05146 0.0
H2774 H 0.06817 0.35059 0.03658 0.0
H2775 H 0.05527 0.35985 0.0205 0.0
H2776 H 0.04991 0.30748 0.04275 0.0
H2777 H 0.06975 0.35236 0.08779 0.0
H2778 H 0.05554 0.34852 0.07317 0.0
H2779 H 0.0737 0.35799 0.06646 0.0
C2780 C 0.02702 0.32944 0.03529 0.0
C2781 C 0.03434 0.34249 0.02673 0.0
C2782 C 0.03448 0.32423 0.04457 0.0
C2783 C 0.04934 0.33196 0.04545 0.0
C2784 C 0.05668 0.34463 0.03634 0.0
H2785 H 0.11132 0.30983 0.08112 0.0
H2786 H 0.09408 0.31298 0.06433 0.0
C2787 C 0.04927 0.34989 0.02713 0.0
C2788 C 0.05723 0.32712 0.05633 0.0
H2789 H 0.08034 0.33762 0.08925 0.0
C2790 C 0.0565 0.31399 0.05301 0.0
C2791 C 0.06559 0.33553 0.06987 0.0
C2792 C 0.06611 0.34932 0.07467 0.0
C2793 C 0.0643 0.30926 0.06258 0.0
C2794 C 0.0732 0.31802 0.07561 0.0
C2795 C 0.07358 0.33095 0.07919 0.0
C2796 C 0.0825 0.31428 0.08556 0.0
C2797 C 0.06286 0.29491 0.05875 0.0
C2798 C 0.08175 0.31401 0.10304 0.0
C2799 C 0.09169 0.3124 0.11263 0.0
C2800 C 0.10254 0.311 0.10489 0.0
C2801 C 0.10296 0.31071 0.08738 0.0
C2802 C 0.09308 0.31245 0.07779 0.0
H2803 H 0.05268 0.28784 0.05221 0.0
H2804 H 0.07163 0.29639 0.05045 0.0
H2805 H 0.06344 0.28951 0.07031 0.0
H2806 H 0.07369 0.31543 0.10929 0.0
H2807 H 0.09106 0.31253 0.12611 0.0
H2808 H 0.67408 0.68331 0.05287 0.0
H2809 H 0.68027 0.70601 0.06628 0.0
H2810 H 0.66102 0.71661 0.02543 0.0
H2811 H 0.65485 0.69392 0.0118 0.0
H2812 H 0.68799 0.73972 0.03712 0.0
H2813 H 0.64941 0.71268 0.08816 0.0
H2814 H 0.66182 0.70642 0.08497 0.0
H2815 H 0.64903 0.70376 0.06896 0.0
C2816 C 0.67125 0.69051 0.04665 0.0
C2817 C 0.66386 0.68677 0.03134 0.0
C2818 C 0.67476 0.70345 0.05436 0.0
C2819 C 0.67091 0.71286 0.04695 0.0
C2820 C 0.66403 0.70944 0.03136 0.0
H2821 H 0.6635 0.77976 0.0972 0.0
H2822 H 0.65988 0.75942 0.08024 0.0
C2823 C 0.66049 0.69648 0.02362 0.0
C2824 C 0.67354 0.72597 0.05582 0.0
H2825 H 0.66462 0.73755 0.09092 0.0
C2826 C 0.68288 0.73929 0.04887 0.0
C2827 C 0.6667 0.72532 0.07103 0.0
C2828 C 0.65608 0.7113 0.07869 0.0
C2829 C 0.68576 0.75202 0.05691 0.0
C2830 C 0.6792 0.75135 0.07233 0.0
C2831 C 0.66971 0.73802 0.07914 0.0
C2832 C 0.68178 0.7643 0.0816 0.0
C2833 C 0.6956 0.76607 0.04872 0.0
C2834 C 0.69532 0.77382 0.08796 0.0
C2835 C 0.69742 0.78544 0.09774 0.0
C2836 C 0.68597 0.78766 0.10145 0.0
C2837 C 0.67249 0.77823 0.09479 0.0
C2838 C 0.67041 0.76665 0.08502 0.0
H2839 H 0.69702 0.76475 0.03524 0.0
H2840 H 0.69154 0.77368 0.05004 0.0
H2841 H 0.70616 0.77081 0.0549 0.0
H2842 H 0.70418 0.77203 0.08574 0.0
H2843 H 0.70789 0.79241 0.10285 0.0
H2844 H 0.31402 0.98857 0.05255 0.0
H2845 H 0.29196 0.97198 0.06642 0.0
H2846 H 0.28157 0.942 0.02605 0.0
H2847 H 0.30364 0.95867 0.01191 0.0
H2848 H 0.25831 0.94506 0.03717 0.0
H2849 H 0.28621 0.9355 0.08977 0.0
H2850 H 0.29184 0.95399 0.08623 0.0
H2851 H 0.29501 0.94396 0.07059 0.0
C2852 C 0.30703 0.97848 0.04655 0.0
C2853 C 0.31064 0.97489 0.03118 0.0
C2854 C 0.29445 0.96898 0.05455 0.0
C2855 C 0.28526 0.95566 0.04742 0.0
C2856 C 0.28857 0.9522 0.03181 0.0
H2857 H 0.21971 0.88406 0.10215 0.0
H2858 H 0.23996 0.89973 0.08482 0.0
C2859 C 0.30118 0.96173 0.02377 0.0
C2860 C 0.27236 0.94526 0.05647 0.0
H2861 H 0.26143 0.92637 0.09277 0.0
C2862 C 0.25897 0.94091 0.0493 0.0
C2863 C 0.27325 0.93971 0.07217 0.0
C2864 C 0.28734 0.9434 0.08011 0.0
C2865 C 0.24643 0.9314 0.05762 0.0
C2866 C 0.24733 0.92627 0.07361 0.0
C2867 C 0.26074 0.9304 0.08058 0.0
C2868 C 0.23456 0.91654 0.08335 0.0
C2869 C 0.23234 0.92678 0.04912 0.0
C2870 C 0.22479 0.92079 0.08833 0.0
C2871 C 0.2132 0.91186 0.0983 0.0
C2872 C 0.21125 0.89856 0.10362 0.0
C2873 C 0.22101 0.89431 0.09848 0.0
C2874 C 0.23254 0.90322 0.08849 0.0
H2875 H 0.23352 0.9285 0.03541 0.0
H2876 H 0.2248 0.91535 0.05153 0.0
H2877 H 0.22767 0.93314 0.0541 0.0
H2878 H 0.2263 0.93116 0.08485 0.0
H2879 H 0.206 0.91554 0.10222 0.0
H2880 H 0.31895 0.01085 0.98279 0.0
H2881 H 0.30732 0.02168 0.96668 0.0
H2882 H 0.34292 0.06341 0.97623 0.0
H2883 H 0.35461 0.05285 0.99221 0.0
H2884 H 0.30036 0.04391 0.97597 0.0
H2885 H 0.33911 0.05995 0.92439 0.0
H2886 H 0.33692 0.04669 0.93969 0.0
H2887 H 0.34714 0.06534 0.9447 0.0
C2888 C 0.32426 0.02234 0.98157 0.0
C2889 C 0.33781 0.03094 0.98866 0.0
C2890 C 0.31759 0.02849 0.97236 0.0
C2891 C 0.32439 0.04331 0.97004 0.0
C2892 C 0.33762 0.05193 0.97762 0.0
H2893 H 0.30042 0.10449 0.93979 0.0
H2894 H 0.3052 0.08747 0.95468 0.0
C2895 C 0.34427 0.04584 0.9868 0.0
C2896 C 0.31798 0.04993 0.95942 0.0
H2897 H 0.32458 0.07087 0.92496 0.0
C2898 C 0.30552 0.04966 0.9647 0.0
C2899 C 0.32462 0.05722 0.94459 0.0
C2900 C 0.33762 0.05724 0.93788 0.0
C2901 C 0.29992 0.05711 0.95592 0.0
C2902 C 0.30709 0.06515 0.94166 0.0
C2903 C 0.31915 0.06482 0.93597 0.0
C2904 C 0.3028 0.0746 0.93291 0.0
C2905 C 0.28644 0.05638 0.96205 0.0
C2906 C 0.30002 0.07314 0.91567 0.0
C2907 C 0.2975 0.08299 0.90707 0.0
C2908 C 0.29779 0.09456 0.91553 0.0
C2909 C 0.30025 0.09579 0.93287 0.0
C2910 C 0.30278 0.08595 0.94145 0.0
H2911 H 0.28001 0.04654 0.96944 0.0
H2912 H 0.28919 0.06566 0.97028 0.0
H2913 H 0.27988 0.05667 0.9515 0.0
H2914 H 0.30012 0.06455 0.90879 0.0
H2915 H 0.29583 0.08183 0.89369 0.0
H2916 H 0.99038 0.31037 0.96709 0.0
H2917 H 0.97351 0.28821 0.95321 0.0
H2918 H 0.9426 0.28044 0.99129 0.0
H2919 H 0.95956 0.30254 0.00549 0.0
H2920 H 0.94319 0.25574 0.98128 0.0
H2921 H 0.93994 0.28607 0.92695 0.0
H2922 H 0.95765 0.28976 0.93177 0.0
H2923 H 0.94819 0.29452 0.94646 0.0
C2924 C 0.98005 0.30387 0.97264 0.0
C2925 C 0.97623 0.30827 0.98728 0.0
C2926 C 0.97041 0.29125 0.96464 0.0
C2927 C 0.95671 0.28288 0.97102 0.0
C2928 C 0.9531 0.28683 0.98612 0.0
H2929 H 0.8843 0.22249 0.91264 0.0
H2930 H 0.901 0.24216 0.93027 0.0
C2931 C 0.9628 0.29944 0.99421 0.0
C2932 C 0.94598 0.27042 0.96148 0.0
H2933 H 0.92851 0.26094 0.92404 0.0
C2934 C 0.93993 0.25685 0.96878 0.0
C2935 C 0.94158 0.27196 0.9453 0.0
C2936 C 0.94706 0.28637 0.93719 0.0
C2937 C 0.92979 0.2447 0.96016 0.0
C2938 C 0.9258 0.24619 0.94372 0.0
C2939 C 0.93168 0.25981 0.93657 0.0
C2940 C 0.91541 0.23384 0.93372 0.0
C2941 C 0.92326 0.23045 0.96883 0.0
C2942 C 0.91801 0.22267 0.92971 0.0
C2943 C 0.90839 0.21131 0.91977 0.0
C2944 C 0.89605 0.21099 0.9135 0.0
C2945 C 0.89356 0.22227 0.91747 0.0
C2946 C 0.90314 0.23358 0.92746 0.0
H2947 H 0.92442 0.23167 0.98261 0.0
H2948 H 0.91181 0.22392 0.96566 0.0
H2949 H 0.9287 0.22456 0.96471 0.0
H2950 H 0.92756 0.22281 0.9341 0.0
H2951 H 0.91058 0.20275 0.91709 0.0
H2952 H 0.69004 0.67625 0.98662 0.0
H2953 H 0.7124 0.68711 0.97119 0.0
H2954 H 0.7109 0.64642 0.96914 0.0
H2955 H 0.68884 0.63554 0.98467 0.0
H2956 H 0.73717 0.6687 0.97917 0.0
H2957 H 0.71758 0.68229 0.92127 0.0
H2958 H 0.71475 0.68899 0.94056 0.0
H2959 H 0.70569 0.67014 0.93672 0.0
C2960 C 0.69445 0.66961 0.98285 0.0
C2961 C 0.68758 0.655 0.98687 0.0
C2962 C 0.70719 0.67583 0.97396 0.0
C2963 C 0.7132 0.66753 0.96887 0.0
C2964 C 0.70642 0.65301 0.97294 0.0
H2965 H 0.77676 0.6658 0.9106 0.0
H2966 H 0.75659 0.66214 0.9275 0.0
C2967 C 0.69377 0.64681 0.98182 0.0
C2968 C 0.7267 0.6738 0.95954 0.0
H2969 H 0.74141 0.68746 0.92163 0.0
C2970 C 0.73815 0.67296 0.96666 0.0
C2971 C 0.72794 0.67938 0.94325 0.0
C2972 C 0.71584 0.6802 0.93488 0.0
C2973 C 0.75064 0.67709 0.95771 0.0
C2974 C 0.75166 0.68211 0.94121 0.0
C2975 C 0.74051 0.68359 0.93431 0.0
C2976 C 0.7637 0.6846 0.93052 0.0
C2977 C 0.76255 0.67571 0.96575 0.0
C2978 C 0.77423 0.69846 0.92645 0.0
C2979 C 0.78591 0.70062 0.91693 0.0
C2980 C 0.78715 0.68892 0.91127 0.0
C2981 C 0.77632 0.67505 0.91505 0.0
C2982 C 0.76473 0.67292 0.92461 0.0
H2983 H 0.76134 0.67446 0.97951 0.0
H2984 H 0.76261 0.66619 0.9606 0.0
H2985 H 0.77296 0.68518 0.96293 0.0
H2986 H 0.77355 0.70758 0.93093 0.0
H2987 H 0.79411 0.71143 0.91436 0.0
H2988 H 0.99404 0.68137 0.96428 0.0
H2989 H 0.97757 0.68765 0.95076 0.0
H2990 H 0.94648 0.66478 0.98872 0.0
H2991 H 0.96305 0.65872 0.00256 0.0
H2992 H 0.95205 0.66946 0.93744 0.0
H2993 H 0.94557 0.70189 0.98656 0.0
H2994 H 0.95958 0.6974 0.98721 0.0
H2995 H 0.94194 0.68463 0.99372 0.0
C2996 C 0.98376 0.67782 0.96989 0.0
C2997 C 0.97984 0.66955 0.98451 0.0
C2998 C 0.97436 0.68141 0.96213 0.0
C2999 C 0.96085 0.67683 0.96882 0.0
C3000 C 0.95696 0.66871 0.98354 0.0
H3001 H 0.88781 0.66716 0.91306 0.0
H3002 H 0.90525 0.66375 0.92891 0.0
C3003 C 0.96641 0.66518 0.99138 0.0
C3004 C 0.95057 0.67976 0.95974 0.0
H3005 H 0.92918 0.69458 0.96372 0.0
C3006 C 0.94711 0.67502 0.94317 0.0
C3007 C 0.94425 0.68716 0.96715 0.0
C3008 C 0.94811 0.6932 0.98458 0.0
C3009 C 0.93736 0.67727 0.93389 0.0
C3010 C 0.93061 0.68416 0.94151 0.0
C3011 C 0.93425 0.68915 0.95797 0.0
C3012 C 0.91975 0.68626 0.93255 0.0
C3013 C 0.93452 0.67242 0.91592 0.0
C3014 C 0.92188 0.70004 0.92983 0.0
C3015 C 0.9118 0.70203 0.92097 0.0
C3016 C 0.89938 0.69026 0.91474 0.0
C3017 C 0.89718 0.67646 0.91779 0.0
C3018 C 0.90723 0.67449 0.92668 0.0
H3019 H 0.94327 0.67108 0.9107 0.0
H3020 H 0.92464 0.66195 0.91517 0.0
H3021 H 0.93311 0.68012 0.90802 0.0
H3022 H 0.93142 0.70927 0.93437 0.0
H3023 H 0.91372 0.71279 0.91909 0.0
H3024 H 0.32305 0.30987 0.98977 0.0
H3025 H 0.31115 0.28642 0.9762 0.0
H3026 H 0.35125 0.29397 0.9566 0.0
H3027 H 0.36324 0.3171 0.97047 0.0
H3028 H 0.30846 0.27746 0.94417 0.0
H3029 H 0.33803 0.25673 0.98046 0.0
H3030 H 0.33852 0.27323 0.9857 0.0
H3031 H 0.3498 0.27277 0.96958 0.0
C3032 C 0.32932 0.30654 0.98251 0.0
C3033 C 0.34412 0.31527 0.98139 0.0
C3034 C 0.3225 0.29314 0.97478 0.0
C3035 C 0.33037 0.28829 0.96574 0.0
C3036 C 0.34503 0.29729 0.96395 0.0
H3037 H 0.30351 0.22131 0.89259 0.0
H3038 H 0.30973 0.24329 0.90779 0.0
C3039 C 0.35186 0.31056 0.97182 0.0
C3040 C 0.32338 0.27379 0.95828 0.0
H3041 H 0.32592 0.24354 0.95599 0.0
C3042 C 0.31216 0.26996 0.94687 0.0
C3043 C 0.32797 0.26387 0.9621 0.0
C3044 C 0.33913 0.26679 0.97527 0.0
C3045 C 0.30581 0.25669 0.93868 0.0
C3046 C 0.31109 0.24719 0.94164 0.0
C3047 C 0.32195 0.25084 0.95353 0.0
C3048 C 0.30593 0.2336 0.9323 0.0
C3049 C 0.29343 0.253 0.92708 0.0
C3050 C 0.30193 0.22082 0.94095 0.0
C3051 C 0.2987 0.20834 0.93228 0.0
C3052 C 0.29926 0.20835 0.91477 0.0
C3053 C 0.30279 0.22098 0.90608 0.0
C3054 C 0.30626 0.23353 0.91477 0.0
H3055 H 0.28765 0.25871 0.93065 0.0
H3056 H 0.29742 0.25632 0.91421 0.0
H3057 H 0.28583 0.24137 0.92703 0.0
H3058 H 0.30163 0.22059 0.95447 0.0
H3059 H 0.29596 0.19872 0.93926 0.0
H3060 H 0.68503 0.01047 0.96448 0.0
H3061 H 0.70713 0.02662 0.95038 0.0
H3062 H 0.72004 0.05529 0.99246 0.0
H3063 H 0.6979 0.0391 0.00677 0.0
H3064 H 0.71576 0.05562 0.94249 0.0
H3065 H 0.75521 0.0506 0.98263 0.0
H3066 H 0.73654 0.03755 0.98268 0.0
H3067 H 0.74278 0.05427 0.99325 0.0
C3068 C 0.69262 0.02013 0.97084 0.0
C3069 C 0.68972 0.02352 0.98675 0.0
C3070 C 0.70524 0.02935 0.96275 0.0
C3071 C 0.71525 0.04207 0.97044 0.0
C3072 C 0.71253 0.0454 0.98643 0.0
H3073 H 0.79496 0.1127 0.9362 0.0
H3074 H 0.77439 0.09611 0.95253 0.0
C3075 C 0.69986 0.03618 0.99455 0.0
C3076 C 0.72812 0.05218 0.9612 0.0
H3077 H 0.76425 0.06776 0.96104 0.0
C3078 C 0.72637 0.05826 0.94651 0.0
C3079 C 0.74191 0.05565 0.96657 0.0
C3080 C 0.74431 0.04912 0.98208 0.0
C3081 C 0.73807 0.06783 0.93705 0.0
C3082 C 0.75188 0.07113 0.94224 0.0
C3083 C 0.75364 0.06515 0.95705 0.0
C3084 C 0.7646 0.08084 0.93249 0.0
C3085 C 0.73554 0.07454 0.92178 0.0
C3086 C 0.76606 0.07761 0.91591 0.0
C3087 C 0.77772 0.08714 0.90648 0.0
C3088 C 0.78821 0.10004 0.9135 0.0
C3089 C 0.78694 0.103 0.9303 0.0
C3090 C 0.77525 0.09348 0.9397 0.0
H3091 H 0.72502 0.07398 0.92213 0.0
H3092 H 0.74389 0.08588 0.92056 0.0
H3093 H 0.73581 0.06873 0.91049 0.0
H3094 H 0.7581 0.06777 0.91021 0.0
H3095 H 0.77832 0.08455 0.89356 0.0
H3096 H 0.64598 0.94589 0.02171 0.0
H3097 H 0.65678 0.93458 0.03805 0.0
H3098 H 0.68995 0.97579 0.05435 0.0
H3099 H 0.67928 0.98734 0.03784 0.0
H3100 H 0.69919 0.95531 0.04616 0.0
H3101 H 0.65368 0.93389 0.08966 0.0
H3102 H 0.64859 0.92968 0.06814 0.0
H3103 H 0.65717 0.94795 0.07497 0.0
C3104 C 0.65564 0.95261 0.02864 0.0
C3105 C 0.66164 0.96753 0.02867 0.0
C3106 C 0.66179 0.94611 0.03798 0.0
C3107 C 0.67398 0.95435 0.04764 0.0
C3108 C 0.68047 0.96926 0.04703 0.0
H3109 H 0.69372 0.91372 0.12948 0.0
H3110 H 0.69088 0.93121 0.11279 0.0
C3111 C 0.67435 0.97582 0.0376 0.0
C3112 C 0.67934 0.94725 0.05907 0.0
H3113 H 0.66924 0.9243 0.09198 0.0
C3114 C 0.69274 0.94863 0.05629 0.0
C3115 C 0.67099 0.93877 0.07245 0.0
C3116 C 0.65687 0.93756 0.07663 0.0
C3117 C 0.69777 0.94124 0.0662 0.0
C3118 C 0.68905 0.93212 0.07899 0.0
C3119 C 0.67589 0.93121 0.08211 0.0
C3120 C 0.69296 0.92297 0.08899 0.0
C3121 C 0.71235 0.9433 0.06289 0.0
C3122 C 0.69531 0.91267 0.08118 0.0
C3123 C 0.69701 0.90272 0.09071 0.0
C3124 C 0.69616 0.90276 0.1082 0.0
C3125 C 0.69428 0.91337 0.11601 0.0
C3126 C 0.69272 0.92338 0.1065 0.0
H3127 H 0.71923 0.95369 0.05671 0.0
H3128 H 0.71761 0.94279 0.07463 0.0
H3129 H 0.7114 0.93473 0.05443 0.0
H3130 H 0.69518 0.91189 0.0677 0.0
H3131 H 0.69827 0.89455 0.08437 0.0
H3132 H 0.01619 0.694 0.0362 0.0
H3133 H 0.0276 0.716 0.05275 0.0
H3134 H 0.06867 0.72378 0.03646 0.0
H3135 H 0.05748 0.70184 0.02019 0.0
H3136 H 0.06675 0.72478 0.07046 0.0
H3137 H 0.04736 0.75823 0.03951 0.0
H3138 H 0.0338 0.74074 0.04561 0.0
H3139 H 0.04622 0.74262 0.02974 0.0
C3140 C 0.02764 0.70051 0.03595 0.0
C3141 C 0.03592 0.69609 0.02697 0.0
C3142 C 0.03413 0.71311 0.04536 0.0
C3143 C 0.04898 0.72156 0.04575 0.0
C3144 C 0.0572 0.7174 0.03635 0.0
H3145 H 0.10683 0.80503 0.08429 0.0
H3146 H 0.09078 0.78448 0.06716 0.0
C3147 C 0.05077 0.70483 0.02707 0.0
C3148 C 0.05616 0.73414 0.05688 0.0
H3149 H 0.06094 0.76743 0.06431 0.0
C3150 C 0.06545 0.73409 0.06915 0.0
C3151 C 0.05449 0.7463 0.05505 0.0
C3152 C 0.04503 0.7471 0.04169 0.0
C3153 C 0.07327 0.74591 0.07952 0.0
C3154 C 0.07151 0.75801 0.07785 0.0
C3155 C 0.06215 0.75807 0.06565 0.0
C3156 C 0.07987 0.77093 0.08817 0.0
C3157 C 0.08371 0.74548 0.09181 0.0
C3158 C 0.07872 0.77025 0.10562 0.0
C3159 C 0.08792 0.78193 0.11542 0.0
C3160 C 0.09831 0.79455 0.10793 0.0
C3161 C 0.09889 0.79547 0.09042 0.0
C3162 C 0.08975 0.78374 0.08062 0.0
H3163 H 0.08622 0.73692 0.08876 0.0
H3164 H 0.09376 0.75583 0.0921 0.0
H3165 H 0.07907 0.74338 0.10449 0.0
H3166 H 0.07097 0.76054 0.11167 0.0
H3167 H 0.08706 0.78101 0.12888 0.0
H3168 H 0.31967 0.33009 0.05008 0.0
H3169 H 0.29764 0.32419 0.06451 0.0
H3170 H 0.28643 0.34444 0.02536 0.0
H3171 H 0.30841 0.35027 0.01071 0.0
H3172 H 0.29001 0.34361 0.07627 0.0
H3173 H 0.24992 0.30609 0.03115 0.0
H3174 H 0.26839 0.31084 0.03038 0.0
H3175 H 0.26274 0.32281 0.02226 0.0
C3176 C 0.31245 0.33316 0.04442 0.0
C3177 C 0.31579 0.34065 0.02924 0.0
C3178 C 0.29987 0.32978 0.0527 0.0
C3179 C 0.29033 0.33374 0.04594 0.0
C3180 C 0.29352 0.34104 0.03065 0.0
H3181 H 0.22664 0.34389 0.09947 0.0
H3182 H 0.24697 0.34708 0.08313 0.0
C3183 C 0.30612 0.34444 0.02234 0.0
C3184 C 0.27751 0.33099 0.05542 0.0
H3185 H 0.24129 0.3141 0.05355 0.0
C3186 C 0.27936 0.33712 0.07132 0.0
C3187 C 0.26362 0.32239 0.04902 0.0
C3188 C 0.26098 0.31503 0.03233 0.0
C3189 C 0.26771 0.33509 0.08089 0.0
C3190 C 0.25384 0.32688 0.07428 0.0
C3191 C 0.25195 0.32051 0.05851 0.0
C3192 C 0.24119 0.3248 0.08362 0.0
C3193 C 0.27033 0.34162 0.09809 0.0
C3194 C 0.231 0.31115 0.08893 0.0
C3195 C 0.21937 0.30929 0.09834 0.0
C3196 C 0.21769 0.32105 0.10253 0.0
C3197 C 0.22776 0.33465 0.09678 0.0
C3198 C 0.23937 0.33649 0.08741 0.0
H3199 H 0.28109 0.34456 0.10288 0.0
H3200 H 0.26946 0.35146 0.09757 0.0
H3201 H 0.26233 0.33418 0.10707 0.0
H3202 H 0.23221 0.30199 0.0861 0.0
H3203 H 0.21189 0.29869 0.10267 0.0
H3204 H 0.67729 0.65376 0.36842 0.0
H3205 H 0.68913 0.64219 0.38248 0.0
H3206 H 0.72775 0.68262 0.38574 0.0
H3207 H 0.71621 0.69422 0.37163 0.0
H3208 H 0.73119 0.66013 0.37275 0.0
H3209 H 0.70098 0.6453 0.4323 0.0
H3210 H 0.6909 0.63978 0.41316 0.0
H3211 H 0.70093 0.65838 0.41822 0.0
C3212 C 0.68828 0.66021 0.37222 0.0
C3213 C 0.69578 0.67494 0.36888 0.0
C3214 C 0.695 0.65357 0.38031 0.0
C3215 C 0.70927 0.66159 0.38524 0.0
C3216 C 0.71672 0.67626 0.38202 0.0
H3217 H 0.77726 0.66311 0.43731 0.0
H3218 H 0.75965 0.66636 0.42167 0.0
C3219 C 0.71007 0.68287 0.37396 0.0
C3220 C 0.71681 0.65485 0.39337 0.0
H3221 H 0.71996 0.64059 0.43021 0.0
C3222 C 0.72861 0.65567 0.38522 0.0
C3223 C 0.71336 0.64898 0.4096 0.0
C3224 C 0.70091 0.64809 0.41896 0.0
C3225 C 0.73743 0.65133 0.39315 0.0
C3226 C 0.7344 0.64615 0.40966 0.0
C3227 C 0.72219 0.64459 0.41752 0.0
C3228 C 0.74469 0.64384 0.41947 0.0
C3229 C 0.7502 0.65275 0.38404 0.0
C3230 C 0.74194 0.63007 0.4236 0.0
C3231 C 0.75209 0.62814 0.4324 0.0
C3232 C 0.76508 0.63997 0.43726 0.0
C3233 C 0.76754 0.65375 0.43342 0.0
C3234 C 0.75746 0.65564 0.42458 0.0
H3235 H 0.74929 0.65379 0.37035 0.0
H3236 H 0.75984 0.66242 0.38857 0.0
H3237 H 0.75165 0.6434 0.38652 0.0
H3238 H 0.73208 0.62085 0.41976 0.0
H3239 H 0.74989 0.61739 0.43509 0.0
H3240 H 0.32615 0.03066 0.34514 0.0
H3241 H 0.33333 0.05398 0.35754 0.0
H3242 H 0.35234 0.04389 0.3991 0.0
H3243 H 0.34532 0.0206 0.38676 0.0
H3244 H 0.32402 0.05744 0.38857 0.0
H3245 H 0.38282 0.08463 0.38691 0.0
H3246 H 0.3717 0.06924 0.37417 0.0
H3247 H 0.37475 0.06708 0.3958 0.0
C3248 C 0.33208 0.03349 0.35678 0.0
C3249 C 0.33514 0.02377 0.36499 0.0
C3250 C 0.33616 0.04682 0.36384 0.0
C3251 C 0.34349 0.05072 0.37914 0.0
C3252 C 0.34694 0.04121 0.38712 0.0
H3253 H 0.34591 0.10717 0.45567 0.0
H3254 H 0.34331 0.0874 0.43833 0.0
C3255 C 0.34284 0.02786 0.38009 0.0
C3256 C 0.3463 0.0641 0.38755 0.0
H3257 H 0.37257 0.09497 0.40462 0.0
C3258 C 0.33465 0.06572 0.39192 0.0
C3259 C 0.36018 0.07491 0.39181 0.0
C3260 C 0.3731 0.07398 0.38681 0.0
C3261 C 0.33646 0.07764 0.40093 0.0
C3262 C 0.35027 0.08814 0.4058 0.0
C3263 C 0.36199 0.0868 0.40097 0.0
C3264 C 0.3526 0.10032 0.4164 0.0
C3265 C 0.32358 0.07887 0.40533 0.0
C3266 C 0.35896 0.11417 0.40986 0.0
C3267 C 0.36033 0.12551 0.41969 0.0
C3268 C 0.35544 0.12317 0.43626 0.0
C3269 C 0.3495 0.10931 0.44286 0.0
C3270 C 0.34807 0.098 0.43302 0.0
H3271 H 0.31415 0.07157 0.39773 0.0
H3272 H 0.32101 0.07611 0.41868 0.0
H3273 H 0.3257 0.08997 0.40349 0.0
H3274 H 0.36252 0.11613 0.39704 0.0
H3275 H 0.36486 0.13601 0.41417 0.0
H3276 H 0.98173 0.31857 0.38462 0.0
H3277 H 0.9586 0.30277 0.39678 0.0
H3278 H 0.94506 0.27874 0.35088 0.0
H3279 H 0.96843 0.29431 0.33875 0.0
H3280 H 0.93195 0.29636 0.38852 0.0
H3281 H 0.93718 0.24769 0.38424 0.0
H3282 H 0.95186 0.26528 0.38044 0.0
H3283 H 0.93849 0.2563 0.36462 0.0
C3284 C 0.97383 0.30996 0.37706 0.0
C3285 C 0.97696 0.30762 0.36076 0.0
C3286 C 0.96059 0.30094 0.38404 0.0
C3287 C 0.95017 0.28939 0.37487 0.0
C3288 C 0.95305 0.28735 0.35834 0.0
H3289 H 0.86593 0.22388 0.40872 0.0
H3290 H 0.88574 0.24006 0.3909 0.0
C3291 C 0.96638 0.29632 0.35139 0.0
C3292 C 0.93646 0.27945 0.3829 0.0
H3293 H 0.91576 0.24483 0.39514 0.0
C3294 C 0.92839 0.28508 0.38988 0.0
C3295 C 0.93181 0.26472 0.38472 0.0
C3296 C 0.94033 0.25813 0.37826 0.0
C3297 C 0.91594 0.27643 0.39881 0.0
C3298 C 0.91145 0.26181 0.40082 0.0
C3299 C 0.91924 0.25606 0.39347 0.0
C3300 C 0.89921 0.25248 0.41143 0.0
C3301 C 0.9077 0.28299 0.4062 0.0
C3302 C 0.90029 0.25412 0.42883 0.0
C3303 C 0.88908 0.24488 0.43901 0.0
C3304 C 0.87654 0.23385 0.43196 0.0
C3305 C 0.87541 0.23236 0.41448 0.0
C3306 C 0.88671 0.24154 0.40431 0.0
H3307 H 0.91092 0.29366 0.40083 0.0
H3308 H 0.89614 0.27596 0.40411 0.0
H3309 H 0.90963 0.28421 0.41988 0.0
H3310 H 0.90992 0.26243 0.43454 0.0
H3311 H 0.89022 0.24634 0.45241 0.0
H3312 H 0.0302 0.38593 0.33055 0.0
H3313 H 0.02236 0.40003 0.31449 0.0
H3314 H 0.98741 0.36155 0.29439 0.0
H3315 H 0.99506 0.34724 0.31072 0.0
H3316 H 0.02081 0.40055 0.28062 0.0
H3317 H 0.9681 0.38426 0.30821 0.0
H3318 H 0.98098 0.3806 0.31818 0.0
H3319 H 0.97043 0.36978 0.30101 0.0
C3320 C 0.02076 0.3804 0.32285 0.0
C3321 C 0.0133 0.36542 0.32188 0.0
C3322 C 0.01628 0.3885 0.31368 0.0
C3323 C 0.00425 0.38186 0.30332 0.0
C3324 C 0.99657 0.3669 0.30254 0.0
H3325 H 0.99045 0.42745 0.22164 0.0
H3326 H 0.99361 0.41018 0.23837 0.0
C3327 C 0.00101 0.35874 0.31183 0.0
C3328 C 0.00044 0.39073 0.2926 0.0
H3329 H 0.97441 0.39912 0.28428 0.0
C3330 C 0.01065 0.40022 0.28141 0.0
C3331 C 0.98723 0.39037 0.29376 0.0
C3332 C 0.97608 0.38081 0.30603 0.0
C3333 C 0.00809 0.40942 0.2714 0.0
C3334 C 0.99479 0.40889 0.27232 0.0
C3335 C 0.98454 0.3994 0.2835 0.0
C3336 C 0.99159 0.41848 0.26214 0.0
C3337 C 0.0198 0.4199 0.26029 0.0
C3338 C 0.98884 0.42851 0.26993 0.0
C3339 C 0.98695 0.43835 0.26039 0.0
C3340 C 0.9878 0.43833 0.24288 0.0
C3341 C 0.99002 0.42791 0.23511 0.0
C3342 C 0.99182 0.41804 0.24465 0.0
H3343 H 0.03033 0.4214 0.26415 0.0
H3344 H 0.01771 0.41582 0.24728 0.0
H3345 H 0.0203 0.43043 0.2604 0.0
H3346 H 0.98858 0.42901 0.28342 0.0
H3347 H 0.98533 0.44628 0.26674 0.0
H3348 H 0.62677 0.63594 0.34439 0.0
H3349 H 0.61097 0.61291 0.33127 0.0
H3350 H 0.63755 0.62567 0.28767 0.0
H3351 H 0.65355 0.6485 0.30084 0.0
H3352 H 0.59577 0.60849 0.30315 0.0
H3353 H 0.63174 0.5862 0.29507 0.0
H3354 H 0.63614 0.60132 0.3084 0.0
H3355 H 0.63888 0.60368 0.28622 0.0
C3356 C 0.62935 0.63375 0.3321 0.0
C3357 C 0.64142 0.64402 0.32366 0.0
C3358 C 0.62032 0.62059 0.32463 0.0
C3359 C 0.62319 0.61746 0.3086 0.0
C3360 C 0.63531 0.62767 0.30022 0.0
H3361 H 0.57489 0.56031 0.22994 0.0
H3362 H 0.59212 0.57948 0.24793 0.0
C3363 C 0.6444 0.64077 0.30772 0.0
C3364 C 0.61296 0.60404 0.30007 0.0
H3365 H 0.61032 0.5755 0.2785 0.0
C3366 C 0.5989 0.60117 0.29799 0.0
C3367 C 0.61706 0.59447 0.29336 0.0
C3368 C 0.63174 0.59649 0.29602 0.0
C3369 C 0.58899 0.58929 0.28886 0.0
C3370 C 0.59325 0.58008 0.28165 0.0
C3371 C 0.60716 0.58268 0.28403 0.0
C3372 C 0.58347 0.56805 0.27093 0.0
C3373 C 0.57411 0.58682 0.28651 0.0
C3374 C 0.57308 0.55527 0.27801 0.0
C3375 C 0.56323 0.5443 0.26778 0.0
C3376 C 0.56359 0.54602 0.25035 0.0
C3377 C 0.57426 0.55875 0.24334 0.0
C3378 C 0.58414 0.56966 0.25355 0.0
H3379 H 0.57264 0.59535 0.29232 0.0
H3380 H 0.57156 0.58627 0.27298 0.0
H3381 H 0.56643 0.57644 0.29212 0.0
H3382 H 0.57243 0.55391 0.29143 0.0
H3383 H 0.55507 0.53466 0.27354 0.0
H3384 H 0.35115 0.9646 0.31902 0.0
H3385 H 0.37203 0.9726 0.30157 0.0
H3386 H 0.37963 0.01574 0.30404 0.0
H3387 H 0.35861 0.00787 0.3216 0.0
H3388 H 0.37679 0.98875 0.26933 0.0
H3389 H 0.41808 0.0166 0.3185 0.0
H3390 H 0.40028 0.00293 0.32357 0.0
H3391 H 0.40352 0.02018 0.31701 0.0
C3392 C 0.35723 0.97582 0.31596 0.0
C3393 C 0.35316 0.98559 0.32175 0.0
C3394 C 0.36916 0.98035 0.30594 0.0
C3395 C 0.37736 0.99474 0.30162 0.0
C3396 C 0.37345 0.00459 0.30738 0.0
H3397 H 0.45749 0.03162 0.2467 0.0
H3398 H 0.43693 0.02914 0.26208 0.0
C3399 C 0.36143 1.00005 0.31736 0.0
C3400 C 0.38983 0.99921 0.29081 0.0
H3401 H 0.42597 0.01513 0.2917 0.0
C3402 C 0.38756 0.99464 0.27414 0.0
C3403 C 0.40382 0.00698 0.29715 0.0
C3404 C 0.4067 0.01196 0.31505 0.0
C3405 C 0.39895 0.99737 0.26368 0.0
C3406 C 0.41293 0.00453 0.27024 0.0
C3407 C 0.41523 0.00958 0.28674 0.0
C3408 C 0.4252 0.00613 0.26048 0.0
C3409 C 0.39588 0.9925 0.24574 0.0
C3410 C 0.42548 0.99401 0.25465 0.0
C3411 C 0.43712 0.99538 0.24576 0.0
C3412 C 0.44882 0.00891 0.24267 0.0
C3413 C 0.44857 0.02105 0.24865 0.0
C3414 C 0.43688 0.01966 0.25753 0.0
H3415 H 0.38566 0.9915 0.24137 0.0
H3416 H 0.40447 1.0 0.23738 0.0
H3417 H 0.39505 0.98186 0.24464 0.0
H3418 H 0.41672 0.98344 0.2571 0.0
H3419 H 0.4369 0.98582 0.24121 0.0
H3420 H 0.65832 0.00822 0.3014 0.0
H3421 H 0.64184 0.0139 0.28673 0.0
H3422 H 0.61012 0.9912 0.32413 0.0
H3423 H 0.62665 0.98575 0.33907 0.0
H3424 H 0.6169 0.99485 0.27299 0.0
H3425 H 0.60768 0.0273 0.3195 0.0
H3426 H 0.62211 0.0235 0.32138 0.0
H3427 H 0.60449 0.01047 0.32766 0.0
C3428 C 0.64792 0.00464 0.30666 0.0
C3429 C 0.64378 0.99654 0.3214 0.0
C3430 C 0.63851 0.00789 0.29825 0.0
C3431 C 0.6248 0.00311 0.30441 0.0
C3432 C 0.62075 0.99528 0.31933 0.0
H3433 H 0.55106 0.98752 0.24595 0.0
H3434 H 0.56921 0.98593 0.26259 0.0
C3435 C 0.63019 0.99211 0.32782 0.0
C3436 C 0.6144 0.00532 0.29452 0.0
H3437 H 0.59138 0.01836 0.29649 0.0
C3438 C 0.61141 1.00009 0.27809 0.0
C3439 C 0.60734 0.0123 0.30111 0.0
C3440 C 0.61066 0.01884 0.31832 0.0
C3441 C 0.60134 0.00136 0.26821 0.0
C3442 C 0.59381 0.00775 0.27506 0.0
C3443 C 0.59704 0.01331 0.29133 0.0
C3444 C 0.58254 0.00873 0.2655 0.0
C3445 C 0.59897 0.99598 0.25045 0.0
C3446 C 0.58376 0.02206 0.26209 0.0
C3447 C 0.57328 0.02301 0.25277 0.0
C3448 C 0.56133 0.01062 0.24676 0.0
C3449 C 0.56004 0.99727 0.25048 0.0
C3450 C 0.5705 0.99634 0.25983 0.0
H3451 H 0.60819 0.99519 0.24572 0.0
H3452 H 0.58953 0.98516 0.24994 0.0
H3453 H 0.59705 0.00304 0.242 0.0
H3454 H 0.59291 0.03175 0.26647 0.0
H3455 H 0.57449 0.03344 0.25038 0.0
H3456 H 0.03543 0.64734 0.32803 0.0
H3457 H 0.02794 0.62599 0.31119 0.0
H3458 H 0.99069 0.62768 0.29515 0.0
H3459 H 0.99798 0.64902 0.31228 0.0
H3460 H 0.98497 0.60028 0.30282 0.0
H3461 H 0.03112 0.62646 0.26065 0.0
H3462 H 0.03622 0.62773 0.2822 0.0
H3463 H 0.02654 0.63636 0.27507 0.0
C3464 C 0.02563 0.64321 0.32095 0.0
C3465 C 0.0174 0.65003 0.32137 0.0
C3466 C 0.0214 0.63101 0.31127 0.0
C3467 C 0.00894 0.62544 0.30161 0.0
C3468 C 0.00042 0.63188 0.30241 0.0
H3469 H 0.99345 0.56512 0.22112 0.0
H3470 H 0.99669 0.58564 0.23754 0.0
C3471 C 0.0046 0.64408 0.31221 0.0
C3472 C 0.00498 0.61298 0.29058 0.0
H3473 H 0.01749 0.60112 0.259 0.0
C3474 C 0.99201 0.60047 0.29314 0.0
C3475 C 0.01407 0.61334 0.27775 0.0
C3476 C 0.02769 0.62674 0.27361 0.0
C3477 C 0.9881 0.58815 0.28357 0.0
C3478 C 0.99755 0.58829 0.27136 0.0
C3479 C 0.01031 0.60095 0.26848 0.0
C3480 C 0.99458 0.57546 0.26149 0.0
C3481 C 0.97382 0.57518 0.28653 0.0
C3482 C 0.99232 0.5629 0.26947 0.0
C3483 C 0.9904 0.55113 0.2601 0.0
C3484 C 0.99092 0.55179 0.24257 0.0
C3485 C 0.99312 0.56435 0.23461 0.0
C3486 C 0.99492 0.57605 0.24398 0.0
H3487 H 0.96628 0.57811 0.29224 0.0
H3488 H 0.96911 0.56933 0.27471 0.0
H3489 H 0.97513 0.5679 0.29526 0.0
H3490 H 0.9924 0.5623 0.28296 0.0
H3491 H 0.98892 0.54167 0.26658 0.0
H3492 H 0.35193 0.34476 0.30119 0.0
H3493 H 0.3739 0.36068 0.28667 0.0
H3494 H 0.3848 0.39228 0.32529 0.0
H3495 H 0.36291 0.37633 0.34004 0.0
H3496 H 0.38081 0.38721 0.27447 0.0
H3497 H 0.42176 0.39111 0.31951 0.0
H3498 H 0.40341 0.3773 0.32066 0.0
H3499 H 0.4088 0.39488 0.32843 0.0
C3500 C 0.35908 0.35502 0.30672 0.0
C3501 C 0.35568 0.3593 0.32176 0.0
C3502 C 0.37163 0.3641 0.2984 0.0
C3503 C 0.38105 0.37759 0.30499 0.0
C3504 C 0.37782 0.3818 0.32016 0.0
H3505 H 0.44202 0.45192 0.25155 0.0
H3506 H 0.42222 0.43413 0.2679 0.0
C3507 C 0.36526 0.37271 0.32851 0.0
C3508 C 0.39367 0.38763 0.29534 0.0
H3509 H 0.42979 0.40786 0.2971 0.0
C3510 C 0.39152 0.39165 0.27938 0.0
C3511 C 0.40764 0.3933 0.30171 0.0
C3512 C 0.4106 0.38885 0.31845 0.0
C3513 C 0.40295 0.40145 0.26975 0.0
C3514 C 0.41686 0.40754 0.27637 0.0
C3515 C 0.41908 0.40327 0.29216 0.0
C3516 C 0.4292 0.41848 0.2671 0.0
C3517 C 0.40004 0.40515 0.25252 0.0
C3518 C 0.43987 0.41569 0.26163 0.0
C3519 C 0.4512 0.42582 0.25222 0.0
C3520 C 0.45205 0.43894 0.2482 0.0
C3521 C 0.44151 0.44181 0.25412 0.0
C3522 C 0.43022 0.43168 0.2635 0.0
H3523 H 0.38945 0.39704 0.24772 0.0
H3524 H 0.40027 0.41555 0.253 0.0
H3525 H 0.40825 0.40611 0.24357 0.0
H3526 H 0.43927 0.40555 0.26434 0.0
H3527 H 0.45909 0.42326 0.24776 0.0
H3528 H 0.34571 0.3255 0.37598 0.0
H3529 H 0.3571 0.31444 0.39211 0.0
H3530 H 0.32368 0.27279 0.37739 0.0
H3531 H 0.31216 0.28362 0.36162 0.0
H3532 H 0.32811 0.27577 0.41126 0.0
H3533 H 0.3789 0.294 0.37757 0.0
H3534 H 0.37501 0.30769 0.38394 0.0
H3535 H 0.36405 0.2949 0.36847 0.0
C3536 C 0.3409 0.31399 0.37604 0.0
C3537 C 0.32796 0.30544 0.36765 0.0
C3538 C 0.34746 0.30771 0.38518 0.0
C3539 C 0.34126 0.29281 0.38585 0.0
C3540 C 0.32861 0.28431 0.37705 0.0
H3541 H 0.36484 0.23188 0.41826 0.0
H3542 H 0.36181 0.24997 0.40301 0.0
C3543 C 0.32202 0.29054 0.36807 0.0
C3544 C 0.34716 0.2858 0.39664 0.0
H3545 H 0.37517 0.27984 0.40161 0.0
C3546 C 0.33845 0.27674 0.40924 0.0
C3547 C 0.36061 0.28706 0.39387 0.0
C3548 C 0.37019 0.29634 0.38016 0.0
C3549 C 0.34259 0.26854 0.41886 0.0
C3550 C 0.35605 0.26976 0.41613 0.0
C3551 C 0.36493 0.27906 0.40376 0.0
C3552 C 0.36048 0.26062 0.42524 0.0
C3553 C 0.33222 0.25816 0.43132 0.0
C3554 C 0.36135 0.26102 0.44273 0.0
C3555 C 0.36286 0.25061 0.45142 0.0
C3556 C 0.36383 0.23982 0.44273 0.0
C3557 C 0.36413 0.24011 0.42521 0.0
C3558 C 0.36241 0.25042 0.41652 0.0
H3559 H 0.32125 0.25615 0.42905 0.0
H3560 H 0.3321 0.2478 0.43088 0.0
H3561 H 0.33545 0.26262 0.44408 0.0
H3562 H 0.36019 0.26899 0.44967 0.0
H3563 H 0.36282 0.2507 0.46494 0.0
H3564 H 0.71786 0.01765 0.37366 0.0
H3565 H 0.73013 0.0405 0.38801 0.0
H3566 H 0.69603 0.04871 0.37531 0.0
H3567 H 0.68339 0.02554 0.36123 0.0
H3568 H 0.74002 0.06667 0.37541 0.0
H3569 H 0.70062 0.05731 0.42478 0.0
H3570 H 0.69959 0.04312 0.4119 0.0
H3571 H 0.69382 0.05502 0.40383 0.0
C3572 C 0.71288 0.02424 0.37396 0.0
C3573 C 0.69961 0.01973 0.36631 0.0
C3574 C 0.71994 0.03733 0.38219 0.0
C3575 C 0.71395 0.04627 0.3829 0.0
C3576 C 0.70072 0.04186 0.37524 0.0
H3577 H 0.76984 0.13508 0.4139 0.0
H3578 H 0.75304 0.11426 0.39779 0.0
C3579 C 0.69354 0.02864 0.36713 0.0
C3580 C 0.72194 0.06034 0.39128 0.0
H3581 H 0.72091 0.08019 0.42385 0.0
C3582 C 0.73582 0.06966 0.38596 0.0
C3583 C 0.71646 0.06418 0.40511 0.0
C3584 C 0.70186 0.05435 0.41187 0.0
C3585 C 0.74453 0.08252 0.39432 0.0
C3586 C 0.73905 0.08641 0.40811 0.0
C3587 C 0.72505 0.07725 0.4132 0.0
C3588 C 0.74804 0.09936 0.41817 0.0
C3589 C 0.75972 0.09147 0.38877 0.0
C3590 C 0.75026 0.09804 0.4352 0.0
C3591 C 0.7596 0.10997 0.44456 0.0
C3592 C 0.76701 0.12349 0.43705 0.0
C3593 C 0.76432 0.12487 0.42012 0.0
C3594 C 0.75484 0.11293 0.41082 0.0
H3595 H 0.76318 0.08528 0.38089 0.0
H3596 H 0.76073 0.10057 0.38125 0.0
H3597 H 0.76703 0.09577 0.39966 0.0
H3598 H 0.74503 0.08769 0.44119 0.0
H3599 H 0.76111 0.10854 0.45765 0.0
H3600 H 0.9838 0.65737 0.38432 0.0
H3601 H 0.96105 0.64947 0.39801 0.0
H3602 H 0.94926 0.67004 0.35981 0.0
H3603 H 0.97193 0.67777 0.34585 0.0
H3604 H 0.95221 0.66695 0.41101 0.0
H3605 H 0.91342 0.63152 0.36353 0.0
H3606 H 0.93209 0.63707 0.36255 0.0
H3607 H 0.92576 0.64885 0.35563 0.0
C3608 C 0.97628 0.66001 0.37866 0.0
C3609 C 0.97967 0.6682 0.36399 0.0
C3610 C 0.96328 0.6555 0.38652 0.0
C3611 C 0.95338 0.65904 0.37987 0.0
C3612 C 0.95659 0.66692 0.36499 0.0
H3613 H 0.88897 0.66665 0.43455 0.0
H3614 H 0.90971 0.67036 0.41875 0.0
C3615 C 0.96959 0.67139 0.35707 0.0
C3616 C 0.94028 0.65549 0.38925 0.0
H3617 H 0.90411 0.63871 0.38618 0.0
C3618 C 0.94169 0.66069 0.40561 0.0
C3619 C 0.92655 0.6472 0.38227 0.0
C3620 C 0.92431 0.64071 0.36509 0.0
C3621 C 0.9298 0.65809 0.41505 0.0
C3622 C 0.91611 0.65031 0.40783 0.0
C3623 C 0.91464 0.6448 0.39162 0.0
C3624 C 0.90323 0.64795 0.41689 0.0
C3625 C 0.932 0.66361 0.43274 0.0
C3626 C 0.89249 0.63408 0.42069 0.0
C3627 C 0.88051 0.6319 0.42958 0.0
C3628 C 0.879 0.64356 0.43474 0.0
C3629 C 0.88971 0.65742 0.43066 0.0
C3630 C 0.90166 0.65958 0.42178 0.0
H3631 H 0.94247 0.66582 0.43784 0.0
H3632 H 0.93166 0.67373 0.43295 0.0
H3633 H 0.92354 0.65587 0.44106 0.0
H3634 H 0.89347 0.62495 0.41693 0.0
H3635 H 0.87238 0.62109 0.43231 0.0
H3636 H 0.38393 0.03452 0.70694 0.0
H3637 H 0.39689 0.02448 0.72122 0.0
H3638 H 0.36249 0.98202 0.71166 0.0
H3639 H 0.34917 0.99201 0.69754 0.0
H3640 H 0.37278 0.9851 0.74359 0.0
H3641 H 0.4172 0.00603 0.69903 0.0
H3642 H 0.41439 0.02 0.70687 0.0
H3643 H 0.40076 0.00586 0.69454 0.0
C3644 C 0.37907 0.02303 0.7078 0.0
C3645 C 0.36554 0.01407 0.70094 0.0
C3646 C 0.38656 0.01731 0.7159 0.0
C3647 C 0.38081 0.00251 0.71712 0.0
C3648 C 0.36717 0.99348 0.71068 0.0
H3649 H 0.44074 0.97589 0.7527 0.0
H3650 H 0.42225 0.97678 0.73597 0.0
C3651 C 0.35958 0.99921 0.70264 0.0
C3652 C 0.38909 0.99664 0.72546 0.0
H3653 H 0.42194 0.99967 0.72622 0.0
C3654 C 0.38345 0.98808 0.73966 0.0
C3655 C 0.40287 0.00023 0.7201 0.0
C3656 C 0.40909 0.0084 0.70418 0.0
C3657 C 0.39158 0.98373 0.74921 0.0
C3658 C 0.40581 0.98841 0.74466 0.0
C3659 C 0.41111 0.99625 0.72989 0.0
C3660 C 0.41572 0.98615 0.75546 0.0
C3661 C 0.38483 0.97427 0.76413 0.0
C3662 C 0.41814 0.99099 0.77204 0.0
C3663 C 0.42853 0.99026 0.78174 0.0
C3664 C 0.43695 0.98494 0.77497 0.0
C3665 C 0.43434 0.97987 0.75843 0.0
C3666 C 0.42383 0.98046 0.74879 0.0
H3667 H 0.37318 0.96757 0.76235 0.0
H3668 H 0.3894 0.96719 0.76654 0.0
H3669 H 0.38664 0.98102 0.77532 0.0
H3670 H 0.4123 0.99577 0.77736 0.0
H3671 H 0.43009 0.99408 0.79449 0.0
H3672 H 0.00231 0.34867 0.72116 0.0
H3673 H 0.00728 0.37104 0.73451 0.0
H3674 H 0.99909 0.38589 0.68791 0.0
H3675 H 0.99364 0.36333 0.67459 0.0
H3676 H 0.0262 0.39887 0.72931 0.0
H3677 H 0.97143 0.38922 0.71845 0.0
H3678 H 0.97634 0.37572 0.71481 0.0
H3679 H 0.98055 0.38958 0.6997 0.0
C3680 C 0.00168 0.35675 0.71371 0.0
C3681 C 0.99742 0.35418 0.69687 0.0
C3682 C 0.00453 0.36953 0.72136 0.0
C3683 C 0.00323 0.38 0.71232 0.0
C3684 C 0.99976 0.37779 0.69526 0.0
H3685 H 0.01243 0.46143 0.74574 0.0
H3686 H 0.01189 0.44232 0.72857 0.0
C3687 C 0.99675 0.36494 0.68763 0.0
C3688 C 0.00504 0.39297 0.72096 0.0
H3689 H 0.9877 0.4112 0.73089 0.0
C3690 C 0.0178 0.40158 0.72961 0.0
C3691 C 0.99402 0.39645 0.72144 0.0
C3692 C 0.97976 0.3872 0.71325 0.0
C3693 C 0.01979 0.41354 0.73874 0.0
C3694 C 0.00878 0.41696 0.7392 0.0
C3695 C 0.99614 0.40855 0.73036 0.0
C3696 C 0.00985 0.42879 0.74954 0.0
C3697 C 0.03362 0.42245 0.74791 0.0
C3698 C 0.00883 0.42741 0.76695 0.0
C3699 C 0.00902 0.43821 0.77674 0.0
C3700 C 0.01032 0.45061 0.76927 0.0
C3701 C 0.01154 0.45204 0.75182 0.0
C3702 C 0.01119 0.44115 0.74202 0.0
H3703 H 0.04193 0.41987 0.74404 0.0
H3704 H 0.03753 0.43397 0.74572 0.0
H3705 H 0.03188 0.42048 0.76152 0.0
H3706 H 0.00766 0.41786 0.77293 0.0
H3707 H 0.00817 0.43687 0.79016 0.0
H3708 H 0.63914 0.62518 0.67725 0.0
H3709 H 0.6167 0.60987 0.69141 0.0
H3710 H 0.62969 0.63985 0.73219 0.0
H3711 H 0.65197 0.65533 0.71797 0.0
H3712 H 0.61254 0.59685 0.72155 0.0
H3713 H 0.5903 0.63343 0.72246 0.0
H3714 H 0.60524 0.63664 0.70968 0.0
H3715 H 0.60774 0.64115 0.73152 0.0
C3716 C 0.63715 0.62857 0.68916 0.0
C3717 C 0.6473 0.6415 0.69645 0.0
C3718 C 0.62433 0.61981 0.69724 0.0
C3719 C 0.6214 0.62381 0.71274 0.0
C3720 C 0.63155 0.6367 0.72006 0.0
H3721 H 0.55659 0.5827 0.78792 0.0
H3722 H 0.57755 0.5987 0.7717 0.0
C3723 C 0.64433 0.6455 0.71195 0.0
C3724 C 0.60803 0.61421 0.72163 0.0
H3725 H 0.57888 0.61279 0.73975 0.0
C3726 C 0.60512 0.6003 0.72539 0.0
C3727 C 0.59836 0.61872 0.72666 0.0
C3728 C 0.60047 0.63325 0.72224 0.0
C3729 C 0.59298 0.5909 0.73438 0.0
C3730 C 0.58344 0.59548 0.73961 0.0
C3731 C 0.58627 0.60934 0.73577 0.0
C3732 C 0.57048 0.58603 0.74916 0.0
C3733 C 0.59061 0.57623 0.73857 0.0
C3734 C 0.55946 0.57375 0.74174 0.0
C3735 C 0.5474 0.56465 0.7509 0.0
C3736 C 0.54613 0.56764 0.7677 0.0
C3737 C 0.55712 0.58013 0.77498 0.0
C3738 C 0.56915 0.58925 0.76577 0.0
H3739 H 0.60031 0.57537 0.73664 0.0
H3740 H 0.58719 0.57347 0.75173 0.0
H3741 H 0.58207 0.56825 0.73042 0.0
H3742 H 0.56019 0.57121 0.72884 0.0
H3743 H 0.53904 0.55531 0.74478 0.0
H3744 H 0.69247 0.71303 0.63979 0.0
H3745 H 0.67979 0.72268 0.62414 0.0
H3746 H 0.64003 0.68496 0.63465 0.0
H3747 H 0.65269 0.67505 0.65053 0.0
H3748 H 0.66011 0.70876 0.59549 0.0
H3749 H 0.63588 0.72044 0.65017 0.0
H3750 H 0.65128 0.7182 0.65246 0.0
H3751 H 0.63425 0.70303 0.64827 0.0
C3752 C 0.68103 0.70671 0.63885 0.0
C3753 C 0.67361 0.69324 0.6465 0.0
C3754 C 0.67381 0.71226 0.62984 0.0
C3755 C 0.659 0.70457 0.62833 0.0
C3756 C 0.65147 0.69109 0.63581 0.0
H3757 H 0.61297 0.74477 0.58261 0.0
H3758 H 0.61713 0.72654 0.59579 0.0
C3759 C 0.65873 0.68544 0.64481 0.0
C3760 C 0.65173 0.71095 0.61888 0.0
H3761 H 0.63401 0.72951 0.62417 0.0
C3762 C 0.65418 0.71309 0.60168 0.0
C3763 C 0.64394 0.71649 0.62701 0.0
C3764 C 0.64115 0.71452 0.64551 0.0
C3765 C 0.64958 0.72117 0.5925 0.0
C3766 C 0.64263 0.72753 0.60084 0.0
C3767 C 0.63942 0.72469 0.61784 0.0
C3768 C 0.63988 0.73824 0.59251 0.0
C3769 C 0.65251 0.72311 0.57403 0.0
C3770 C 0.65131 0.75091 0.58652 0.0
C3771 C 0.64899 0.76128 0.57901 0.0
C3772 C 0.63518 0.75927 0.57743 0.0
C3773 C 0.62372 0.74657 0.5835 0.0
C3774 C 0.62607 0.73618 0.59108 0.0
H3775 H 0.65358 0.71418 0.56871 0.0
H3776 H 0.64394 0.72387 0.56718 0.0
H3777 H 0.66264 0.73311 0.57193 0.0
H3778 H 0.66208 0.75284 0.58778 0.0
H3779 H 0.65803 0.77085 0.57431 0.0
H3780 H 0.31982 0.98541 0.63385 0.0
H3781 H 0.30328 0.96268 0.62086 0.0
H3782 H 0.27971 0.94882 0.66672 0.0
H3783 H 0.296 0.97179 0.67967 0.0
H3784 H 0.29561 0.93531 0.62771 0.0
H3785 H 0.24904 0.94351 0.63395 0.0
H3786 H 0.26694 0.9575 0.63802 0.0
H3787 H 0.25757 0.94392 0.6534 0.0
C3788 C 0.31116 0.97751 0.64121 0.0
C3789 C 0.30912 0.98045 0.65773 0.0
C3790 C 0.30172 0.96451 0.63377 0.0
C3791 C 0.29009 0.95415 0.6427 0.0
C3792 C 0.28839 0.9568 0.65945 0.0
H3793 H 0.22197 0.87114 0.60849 0.0
H3794 H 0.2394 0.8906 0.6261 0.0
C3795 C 0.29776 0.96989 0.66687 0.0
C3796 C 0.27962 0.9408 0.63422 0.0
H3797 H 0.24477 0.92158 0.62244 0.0
C3798 C 0.28449 0.93229 0.62662 0.0
C3799 C 0.2651 0.9369 0.63273 0.0
C3800 C 0.25934 0.94599 0.63981 0.0
C3801 C 0.27525 0.92006 0.61747 0.0
C3802 C 0.26082 0.91626 0.61592 0.0
C3803 C 0.25586 0.92454 0.62379 0.0
C3804 C 0.25085 0.90419 0.60537 0.0
C3805 C 0.28094 0.9113 0.60937 0.0
C3806 C 0.25158 0.90548 0.58794 0.0
C3807 C 0.24161 0.89448 0.57788 0.0
C3808 C 0.23081 0.88196 0.58511 0.0
C3809 C 0.23026 0.88061 0.60259 0.0
C3810 C 0.24015 0.8917 0.61265 0.0
H3811 H 0.29176 0.91429 0.61395 0.0
H3812 H 0.27376 0.89977 0.61175 0.0
H3813 H 0.28139 0.91295 0.59565 0.0
H3814 H 0.25971 0.91512 0.58213 0.0
H3815 H 0.24234 0.89575 0.56445 0.0
H3816 H 0.02283 0.34008 0.65228 0.0
H3817 H 0.04472 0.3488 0.63616 0.0
H3818 H 0.04016 0.30676 0.6369 0.0
H3819 H 0.01839 0.29792 0.65287 0.0
H3820 H 0.07037 0.34736 0.64441 0.0
H3821 H 0.04361 0.31768 0.58667 0.0
H3822 H 0.03426 0.32094 0.60313 0.0
H3823 H 0.03857 0.30689 0.60517 0.0
C3824 C 0.02648 0.33268 0.64903 0.0
C3825 C 0.01874 0.31825 0.65379 0.0
C3826 C 0.039 0.3377 0.63984 0.0
C3827 C 0.0439 0.32836 0.63514 0.0
C3828 C 0.0364 0.31407 0.64016 0.0
H3829 H 0.11086 0.32521 0.58399 0.0
H3830 H 0.09006 0.32151 0.59965 0.0
C3831 C 0.02396 0.30906 0.64936 0.0
C3832 C 0.05687 0.33338 0.62501 0.0
H3833 H 0.06867 0.32717 0.5883 0.0
C3834 C 0.07003 0.34313 0.63204 0.0
C3835 C 0.05634 0.32785 0.60887 0.0
C3836 C 0.04243 0.31786 0.60041 0.0
C3837 C 0.08278 0.34694 0.62367 0.0
C3838 C 0.08225 0.34098 0.60778 0.0
C3839 C 0.06904 0.33164 0.60053 0.0
C3840 C 0.09523 0.34361 0.5988 0.0
C3841 C 0.0967 0.3568 0.63217 0.0
C3842 C 0.10504 0.35729 0.59313 0.0
C3843 C 0.11695 0.35943 0.58409 0.0
C3844 C 0.11917 0.34791 0.58048 0.0
C3845 C 0.10936 0.33427 0.58634 0.0
C3846 C 0.0975 0.33215 0.59536 0.0
H3847 H 0.09534 0.35818 0.64564 0.0
H3848 H 0.10426 0.3527 0.6309 0.0
H3849 H 0.10148 0.36743 0.62613 0.0
H3850 H 0.10335 0.36624 0.5954 0.0
H3851 H 0.12423 0.37004 0.57958 0.0
H3852 H 0.32637 0.34221 0.63281 0.0
H3853 H 0.31052 0.34904 0.61862 0.0
H3854 H 0.2798 0.32937 0.65781 0.0
H3855 H 0.29566 0.32269 0.6722 0.0
H3856 H 0.28394 0.33084 0.60663 0.0
H3857 H 0.28154 0.36783 0.65274 0.0
H3858 H 0.29494 0.36249 0.65358 0.0
H3859 H 0.27745 0.35088 0.66148 0.0
C3860 C 0.31631 0.33949 0.63852 0.0
C3861 C 0.31227 0.33191 0.65364 0.0
C3862 C 0.30727 0.3434 0.63039 0.0
C3863 C 0.29406 0.33988 0.63726 0.0
C3864 C 0.29007 0.33247 0.65246 0.0
H3865 H 0.21906 0.32851 0.58583 0.0
H3866 H 0.23728 0.32616 0.60142 0.0
C3867 C 0.29912 0.32858 0.66062 0.0
C3868 C 0.28404 0.34304 0.62793 0.0
H3869 H 0.26403 0.35947 0.63097 0.0
C3870 C 0.27968 0.3372 0.6119 0.0
C3871 C 0.27861 0.35147 0.63474 0.0
C3872 C 0.28347 0.35865 0.65152 0.0
C3873 C 0.26973 0.3392 0.6027 0.0
C3874 C 0.2638 0.34707 0.60983 0.0
C3875 C 0.26847 0.3533 0.62563 0.0
C3876 C 0.25255 0.34869 0.60111 0.0
C3877 C 0.26568 0.33293 0.58538 0.0
C3878 C 0.25493 0.36221 0.59625 0.0
C3879 C 0.24452 0.3636 0.58731 0.0
C3880 C 0.23154 0.35148 0.58313 0.0
C3881 C 0.22906 0.33802 0.58852 0.0
C3882 C 0.23944 0.33665 0.59745 0.0
H3883 H 0.27378 0.33059 0.58011 0.0
H3884 H 0.25547 0.32277 0.58594 0.0
H3885 H 0.26429 0.34025 0.57679 0.0
H3886 H 0.26497 0.37164 0.59903 0.0
H3887 H 0.24679 0.3741 0.58326 0.0
H3888 H 0.6958 0.97753 0.65035 0.0
H3889 H 0.68446 0.95447 0.63647 0.0
H3890 H 0.6443 0.95375 0.63726 0.0
H3891 H 0.65564 0.97713 0.65098 0.0
H3892 H 0.66256 0.92892 0.64766 0.0
H3893 H 0.64776 0.94537 0.58827 0.0
H3894 H 0.66009 0.95813 0.60309 0.0
H3895 H 0.64137 0.94925 0.60708 0.0
C3896 C 0.68455 0.97257 0.64756 0.0
C3897 C 0.67666 0.97928 0.65175 0.0
C3898 C 0.67808 0.95933 0.63963 0.0
C3899 C 0.66358 0.95246 0.63566 0.0
C3900 C 0.65557 0.959 0.63993 0.0
H3901 H 0.61678 0.8694 0.58458 0.0
H3902 H 0.62191 0.89093 0.60031 0.0
C3903 C 0.66207 0.97233 0.64785 0.0
C3904 C 0.65702 0.93836 0.62728 0.0
H3905 H 0.64199 0.92131 0.59057 0.0
C3906 C 0.65795 0.92723 0.63524 0.0
C3907 C 0.65095 0.93615 0.61109 0.0
C3908 C 0.65004 0.94786 0.60177 0.0
C3909 C 0.65337 0.91409 0.62727 0.0
C3910 C 0.64781 0.91208 0.61088 0.0
C3911 C 0.64629 0.92295 0.60315 0.0
C3912 C 0.64459 0.89917 0.60114 0.0
C3913 C 0.65474 0.90253 0.63631 0.0
C3914 C 0.65568 0.89686 0.59619 0.0
C3915 C 0.65284 0.88472 0.58707 0.0
C3916 C 0.63881 0.87457 0.58275 0.0
C3917 C 0.62771 0.87703 0.58757 0.0
C3918 C 0.6306 0.88928 0.59663 0.0
H3919 H 0.65597 0.90442 0.65 0.0
H3920 H 0.64534 0.89192 0.63387 0.0
H3921 H 0.66426 0.90228 0.6317 0.0
H3922 H 0.66658 0.90452 0.59933 0.0
H3923 H 0.66168 0.88338 0.58325 0.0
H3924 H 0.02963 0.71109 0.67678 0.0
H3925 H 0.05251 0.72753 0.66415 0.0
H3926 H 0.04382 0.69772 0.624 0.0
H3927 H 0.02098 0.68123 0.6365 0.0
H3928 H 0.07312 0.71199 0.63772 0.0
H3929 H 0.05279 0.74867 0.61981 0.0
H3930 H 0.05113 0.74347 0.64139 0.0
H3931 H 0.04115 0.73038 0.62573 0.0
C3932 C 0.03268 0.70795 0.66539 0.0
C3933 C 0.02345 0.69493 0.65755 0.0
C3934 C 0.04572 0.71736 0.65819 0.0
C3935 C 0.04974 0.71387 0.64307 0.0
C3936 C 0.04087 0.70059 0.63566 0.0
H3937 H 0.10546 0.7643 0.56497 0.0
H3938 H 0.08613 0.74734 0.58254 0.0
C3939 C 0.02782 0.69121 0.6428 0.0
C3940 C 0.06266 0.72439 0.6343 0.0
H3941 H 0.07621 0.75542 0.61222 0.0
C3942 C 0.07389 0.72155 0.63225 0.0
C3943 C 0.06348 0.73675 0.62704 0.0
C3944 C 0.05149 0.74003 0.62844 0.0
C3945 C 0.08596 0.73078 0.62302 0.0
C3946 C 0.08674 0.7431 0.61574 0.0
C3947 C 0.07555 0.74597 0.6179 0.0
C3948 C 0.09877 0.75287 0.60515 0.0
C3949 C 0.09761 0.72712 0.6207 0.0
C3950 C 0.11228 0.76156 0.61209 0.0
C3951 C 0.12334 0.77139 0.60211 0.0
C3952 C 0.12105 0.77269 0.58503 0.0
C3953 C 0.10754 0.76375 0.57812 0.0
C3954 C 0.0965 0.75399 0.5881 0.0
H3955 H 0.09438 0.71611 0.62489 0.0
H3956 H 0.10073 0.72821 0.60737 0.0
H3957 H 0.10708 0.73466 0.62804 0.0
H3958 H 0.11417 0.76097 0.62529 0.0
H3959 H 0.13356 0.77824 0.60788 0.0
H3960 H 0.00508 0.65523 0.70779 0.0
H3961 H 0.01287 0.64112 0.72429 0.0
H3962 H 0.97967 0.60256 0.70203 0.0
H3963 H 0.97169 0.61645 0.68579 0.0
H3964 H 0.97977 0.60165 0.73616 0.0
H3965 H 0.03379 0.61959 0.71149 0.0
H3966 H 0.03058 0.6336 0.71834 0.0
H3967 H 0.02098 0.62286 0.70067 0.0
C3968 C 0.99958 0.64377 0.70624 0.0
C3969 C 0.98769 0.63697 0.69557 0.0
C3970 C 0.00408 0.63572 0.71562 0.0
C3971 C 0.99689 0.6208 0.71429 0.0
C3972 C 0.98535 0.61406 0.70325 0.0
H3973 H 0.01462 0.55586 0.75045 0.0
H3974 H 0.01242 0.57397 0.7342 0.0
C3975 C 0.98079 0.62204 0.69399 0.0
C3976 C 0.00057 0.61199 0.72524 0.0
H3977 H 0.02667 0.60401 0.73476 0.0
C3978 C 0.99004 0.60218 0.73588 0.0
C3979 C 0.01395 0.61267 0.72476 0.0
C3980 C 0.02546 0.62265 0.71311 0.0
C3981 C 0.99242 0.59291 0.74593 0.0
C3982 C 0.00585 0.59369 0.74563 0.0
C3983 C 0.01644 0.60355 0.73506 0.0
C3984 C 0.00876 0.58385 0.75566 0.0
C3985 C 0.98037 0.58204 0.75638 0.0
C3986 C 0.00785 0.5837 0.77312 0.0
C3987 C 0.00902 0.57335 0.7824 0.0
C3988 C 0.01129 0.56306 0.77439 0.0
C3989 C 0.01293 0.56369 0.75697 0.0
C3990 C 0.01166 0.574 0.74768 0.0
H3991 H 0.96994 0.58058 0.75214 0.0
H3992 H 0.97997 0.57155 0.75597 0.0
H3993 H 0.98202 0.58571 0.76955 0.0
H3994 H 0.0059 0.59141 0.77953 0.0
H3995 H 0.00797 0.57327 0.79584 0.0
H3996 H 0.34638 0.35693 0.70347 0.0
H3997 H 0.35718 0.37949 0.71898 0.0
H3998 H 0.39838 0.383 0.71376 0.0
H3999 H 0.38782 0.36058 0.6985 0.0
H4000 H 0.39178 0.38672 0.74658 0.0
H4001 H 0.38252 0.42049 0.7011 0.0
H4002 H 0.36731 0.40389 0.70693 0.0
H4003 H 0.38133 0.40376 0.69527 0.0
C4004 C 0.35776 0.36255 0.70553 0.0
C4005 C 0.36621 0.35688 0.69977 0.0
C4006 C 0.3639 0.37547 0.71434 0.0
C4007 C 0.37858 0.38294 0.71742 0.0
C4008 C 0.38702 0.37738 0.71153 0.0
H4009 H 0.44127 0.46647 0.7459 0.0
H4010 H 0.42402 0.44454 0.73188 0.0
C4011 C 0.38093 0.36453 0.70279 0.0
C4012 C 0.38531 0.39629 0.72729 0.0
H4013 H 0.39459 0.4315 0.72605 0.0
C4014 C 0.39227 0.39649 0.74221 0.0
C4015 C 0.38598 0.409 0.72145 0.0
C4016 C 0.37899 0.40941 0.70526 0.0
C4017 C 0.40028 0.40915 0.75122 0.0
C4018 C 0.4011 0.42192 0.7453 0.0
C4019 C 0.39383 0.42166 0.7306 0.0
C4020 C 0.41052 0.43581 0.75343 0.0
C4021 C 0.40833 0.40887 0.76655 0.0
C4022 C 0.40841 0.43834 0.77005 0.0
C4023 C 0.41836 0.4508 0.77818 0.0
C4024 C 0.43053 0.46098 0.76977 0.0
C4025 C 0.43217 0.45872 0.75284 0.0
C4026 C 0.42225 0.44625 0.74475 0.0
H4027 H 0.4089 0.39887 0.76741 0.0
H4028 H 0.41931 0.41804 0.76659 0.0
H4029 H 0.40291 0.40965 0.77787 0.0
H4030 H 0.3993 0.4305 0.77689 0.0
H4031 H 0.41679 0.45218 0.79124 0.0
H4032 H 0.65009 0.9952 0.71602 0.0
H4033 H 0.62842 0.99028 0.7306 0.0
H4034 H 0.61765 0.01037 0.69082 0.0
H4035 H 0.63926 0.01518 0.67601 0.0
H4036 H 0.62223 0.01071 0.74181 0.0
H4037 H 0.58026 0.97344 0.69828 0.0
H4038 H 0.59847 0.97733 0.69699 0.0
H4039 H 0.59336 0.98968 0.68873 0.0
C4040 C 0.64302 0.99839 0.71023 0.0
C4041 C 0.6464 0.00558 0.69485 0.0
C4042 C 0.63064 0.99558 0.7186 0.0
C4043 C 0.62135 0.99985 0.71174 0.0
C4044 C 0.62452 0.00674 0.6962 0.0
H4045 H 0.56138 0.01522 0.76645 0.0
H4046 H 0.58097 0.01703 0.74967 0.0
C4047 C 0.63691 0.00954 0.68779 0.0
C4048 C 0.60894 0.99799 0.72146 0.0
H4049 H 0.57282 0.98282 0.72051 0.0
C4050 C 0.61142 0.00456 0.73718 0.0
C4051 C 0.59485 0.98986 0.71547 0.0
C4052 C 0.59151 0.98205 0.69901 0.0
C4053 C 0.60021 0.00341 0.74696 0.0
C4054 C 0.58616 0.99566 0.74074 0.0
C4055 C 0.58363 0.98887 0.72516 0.0
C4056 C 0.57396 0.99446 0.75034 0.0
C4057 C 0.6035 0.01034 0.76397 0.0
C4058 C 0.56331 0.98111 0.7559 0.0
C4059 C 0.5521 0.98004 0.76554 0.0
C4060 C 0.55131 0.9923 0.76972 0.0
C4061 C 0.56183 0.00561 0.76376 0.0
C4062 C 0.57302 0.00666 0.75413 0.0
H4063 H 0.61416 0.01272 0.76856 0.0
H4064 H 0.60335 0.02055 0.76322 0.0
H4065 H 0.59545 0.00342 0.77322 0.0
H4066 H 0.56384 0.97156 0.75308 0.0
H4067 H 0.54425 0.96964 0.77004 0.0
loop_
_geom_bond_atom_site_label_1
_geom_bond_atom_site_label_2
_geom_bond_distance
_geom_bond_site_symmetry_2
_ccdc_geom_bond_type
Mn0 O5 2.095 1_655 S
Mn0 O15 2.162 . S
Mn0 O16 2.297 1_554 S
Mn0 O24 2.385 1_554 S
Mn0 O25 2.209 1_654 S
Mn0 O26 2.094 . S
Mn1 O6 2.121 . S
Mn1 N8 2.257 1_554 S
Mn1 N17 2.282 . S
Mn1 O25 2.215 1_554 S
Mn1 O27 2.117 . S
C2 O24 1.234 1_455 S
C2 O25 1.283 . S
C3 O15 1.281 1_556 S
C3 O16 1.236 . S
C4 O26 1.257 . S
C4 O27 1.223 1_655 S
O5 Mn0 2.095 1_455 S
O5 C14 1.250 . S
O6 Mn1 2.121 . S
O6 C14 1.258 . S
C7 N8 1.326 . S
C7 C11 1.460 . S
C7 H13 0.929 . S
N8 Mn1 2.257 1_556 S
N8 C7 1.326 . S
N8 C12 1.362 . S
C9 C10 1.258 . S
C9 C12 1.431 . S
C9 C29 1.449 . S
C10 C9 1.258 . S
C10 C11 1.477 . S
C10 H30 0.931 . S
C11 C7 1.460 . S
C11 C10 1.477 . S
C11 H31 0.930 . S
C12 N8 1.362 . S
C12 C9 1.431 . S
C12 C22 1.476 . S
H13 C7 0.929 . S
C14 O5 1.250 . S
C14 O6 1.258 . S
O15 Mn0 2.162 . S
O15 C3 1.281 1_554 S
O16 Mn0 2.297 1_556 S
O16 C3 1.236 . S
N17 Mn1 2.282 . S
N17 C18 1.328 . S
N17 C22 1.318 1_554 S
C18 N17 1.328 . S
C18 C19 1.434 1_554 S
C18 H23 0.929 . S
C19 C18 1.434 1_556 S
C19 C20 1.325 . S
C19 H32 0.922 1_556 S
C20 C19 1.325 . S
C20 C21 1.373 . S
C20 H33 0.929 . S
C21 C20 1.373 . S
C21 C22 1.396 . S
C21 C28 1.403 . S
C22 C12 1.476 . S
C22 N17 1.318 1_556 S
C22 C21 1.396 . S
H23 C18 0.929 . S
O24 Mn0 2.385 1_556 S
O24 C2 1.234 1_655 S
O25 Mn0 2.209 1_456 S
O25 Mn1 2.215 1_556 S
O25 C2 1.283 . S
O26 Mn0 2.094 . S
O26 C4 1.257 . S
O27 Mn1 2.117 . S
O27 C4 1.223 1_455 S
C28 C21 1.403 . S
C28 C29 1.399 . S
C28 H34 0.929 . S
C29 C9 1.449 . S
C29 C28 1.399 . S
C29 H35 0.930 . S
H30 C10 0.931 . S
H31 C11 0.930 . S
H32 C19 0.922 1_554 S
H33 C20 0.929 . S
H34 C28 0.929 . S
H35 C29 0.930 . S
Mn36 O41 2.095 1_554 S
Mn36 O51 2.162 . S
Mn36 O52 2.297 . S
Mn36 O60 2.385 . S
Mn36 O61 2.209 . S
Mn36 O62 2.094 1_554 S
Mn37 O42 2.121 . S
Mn37 N44 2.257 1_556 S
Mn37 N53 2.282 1_556 S
Mn37 O61 2.215 1_556 S
Mn37 O63 2.117 . S
C38 O60 1.234 . S
C38 O61 1.283 . S
C39 O51 1.281 . S
C39 O52 1.236 . S
C40 O62 1.240 . S
C40 O63 1.264 . S
O41 Mn36 2.095 1_556 S
O41 C50 1.250 . S
O42 Mn37 2.121 . S
O42 C50 1.258 . S
C43 N44 1.326 . S
C43 C47 1.460 . S
C43 H49 0.929 . S
N44 Mn37 2.257 1_554 S
N44 C43 1.326 . S
N44 C48 1.362 . S
C45 C46 1.258 . S
C45 C48 1.431 . S
C45 C65 1.449 . S
C46 C45 1.258 . S
C46 C47 1.477 . S
C46 H66 0.931 . S
C47 C43 1.460 . S
C47 C46 1.477 . S
C47 H67 0.930 . S
C48 N44 1.362 . S
C48 C45 1.431 . S
C48 C58 1.476 . S
H49 C43 0.929 . S
C50 O41 1.250 . S
C50 O42 1.258 . S
O51 Mn36 2.162 . S
O51 C39 1.281 . S
O52 Mn36 2.297 . S
O52 C39 1.236 . S
N53 Mn37 2.282 1_554 S
N53 C54 1.328 . S
N53 C58 1.318 . S
C54 N53 1.328 . S
C54 C55 1.457 . S
C54 H59 0.931 . S
C55 C54 1.457 . S
C55 C56 1.291 . S
C55 H68 0.931 . S
C56 C55 1.291 . S
C56 C57 1.373 . S
C56 H69 0.929 . S
C57 C56 1.373 . S
C57 C58 1.396 . S
C57 C64 1.403 . S
C58 C48 1.476 . S
C58 N53 1.318 . S
C58 C57 1.396 . S
H59 C54 0.931 . S
O60 Mn36 2.385 . S
O60 C38 1.234 . S
O61 Mn36 2.209 . S
O61 Mn37 2.215 1_554 S
O61 C38 1.283 . S
O62 Mn36 2.094 1_556 S
O62 C40 1.240 . S
O63 Mn37 2.117 . S
O63 C40 1.264 . S
C64 C57 1.403 . S
C64 C65 1.399 . S
C64 H70 0.929 . S
C65 C45 1.449 . S
C65 C64 1.399 . S
C65 H71 0.930 . S
H66 C46 0.931 . S
H67 C47 0.930 . S
H68 C55 0.931 . S
H69 C56 0.929 . S
H70 C64 0.929 . S
H71 C65 0.930 . S
Mn72 O77 2.095 1_564 S
Mn72 O87 2.162 . S
Mn72 O88 2.297 . S
Mn72 O96 2.385 . S
Mn72 O97 2.209 1_565 S
Mn72 O98 2.094 1_554 S
Mn73 O78 2.121 1_554 S
Mn73 N80 2.257 . S
Mn73 N89 2.282 . S
Mn73 O97 2.215 . S
Mn73 O99 2.117 1_554 S
C74 O96 1.234 1_545 S
C74 O97 1.283 . S
C75 O87 1.281 . S
C75 O88 1.236 . S
C76 O98 1.240 . S
C76 O99 1.264 1_565 S
O77 Mn72 2.095 1_546 S
O77 C86 1.250 . S
O78 Mn73 2.121 1_556 S
O78 C86 1.258 . S
C79 N80 1.326 . S
C79 C83 1.460 . S
C79 H85 0.929 . S
N80 Mn73 2.257 . S
N80 C79 1.326 . S
N80 C84 1.362 . S
C81 C82 1.258 . S
C81 C84 1.431 . S
C81 C101 1.449 . S
C82 C81 1.258 . S
C82 C83 1.477 . S
C82 H102 0.931 . S
C83 C79 1.460 . S
C83 C82 1.477 . S
C83 H103 0.930 . S
C84 N80 1.362 . S
C84 C81 1.431 . S
C84 C94 1.476 . S
H85 C79 0.929 . S
C86 O77 1.250 . S
C86 O78 1.258 . S
O87 Mn72 2.162 . S
O87 C75 1.281 . S
O88 Mn72 2.297 . S
O88 C75 1.236 . S
N89 Mn73 2.282 . S
N89 C90 1.328 . S
N89 C94 1.318 . S
C90 N89 1.328 . S
C90 C91 1.457 . S
C90 H95 0.929 . S
C91 C90 1.457 . S
C91 C92 1.291 . S
C91 H104 0.931 . S
C92 C91 1.291 . S
C92 C93 1.373 . S
C92 H105 0.929 . S
C93 C92 1.373 . S
C93 C94 1.396 . S
C93 C100 1.403 . S
C94 C84 1.476 . S
C94 N89 1.318 . S
C94 C93 1.396 . S
H95 C90 0.929 . S
O96 Mn72 2.385 . S
O96 C74 1.234 1_565 S
O97 Mn72 2.209 1_545 S
O97 Mn73 2.215 . S
O97 C74 1.283 . S
O98 Mn72 2.094 1_556 S
O98 C76 1.240 . S
O99 Mn73 2.117 1_556 S
O99 C76 1.264 1_545 S
C100 C93 1.403 . S
C100 C101 1.399 . S
C100 H106 0.929 . S
C101 C81 1.449 . S
C101 C100 1.399 . S
C101 H107 0.930 . S
H102 C82 0.931 . S
H103 C83 0.930 . S
H104 C91 0.931 . S
H105 C92 0.929 . S
H106 C100 0.929 . S
H107 C101 0.930 . S
Mn108 O113 2.095 1_655 S
Mn108 O123 2.162 . S
Mn108 O124 2.297 1_554 S
Mn108 O132 2.385 1_554 S
Mn108 O133 2.209 1_654 S
Mn108 O134 2.094 . S
Mn109 O114 2.121 . S
Mn109 N116 2.257 1_554 S
Mn109 N125 2.282 . S
Mn109 O133 2.215 1_554 S
Mn109 O135 2.117 . S
C110 O132 1.234 1_455 S
C110 O133 1.283 . S
C111 O123 1.281 1_556 S
C111 O124 1.236 . S
C112 O134 1.240 . S
C112 O135 1.264 1_655 S
O113 Mn108 2.095 1_455 S
O113 C122 1.250 . S
O114 Mn109 2.121 . S
O114 C122 1.258 . S
C115 N116 1.326 . S
C115 C119 1.460 . S
C115 H121 0.929 . S
N116 Mn109 2.257 1_556 S
N116 C115 1.326 . S
N116 C120 1.362 . S
C117 C118 1.258 . S
C117 C120 1.431 . S
C117 C137 1.449 . S
C118 C117 1.258 . S
C118 C119 1.477 . S
C118 H138 0.931 . S
C119 C115 1.460 . S
C119 C118 1.477 . S
C119 H139 0.930 . S
C120 N116 1.362 . S
C120 C117 1.431 . S
C120 C130 1.476 . S
H121 C115 0.929 . S
C122 O113 1.250 . S
C122 O114 1.258 . S
O123 Mn108 2.162 . S
O123 C111 1.281 1_554 S
O124 Mn108 2.297 1_556 S
O124 C111 1.236 . S
N125 Mn109 2.282 . S
N125 C126 1.328 . S
N125 C130 1.318 1_554 S
C126 N125 1.328 . S
C126 C127 1.438 1_554 S
C126 H131 0.929 . S
C127 C126 1.438 1_556 S
C127 C128 1.318 . S
C127 H140 0.924 1_556 S
C128 C127 1.318 . S
C128 C129 1.373 . S
C128 H141 0.929 . S
C129 C128 1.373 . S
C129 C130 1.396 . S
C129 C136 1.403 . S
C130 C120 1.476 . S
C130 N125 1.318 1_556 S
C130 C129 1.396 . S
H131 C126 0.929 . S
O132 Mn108 2.385 1_556 S
O132 C110 1.234 1_655 S
O133 Mn108 2.209 1_456 S
O133 Mn109 2.215 1_556 S
O133 C110 1.283 . S
O134 Mn108 2.094 . S
O134 C112 1.240 . S
O135 Mn109 2.117 . S
O135 C112 1.264 1_455 S
C136 C129 1.403 . S
C136 C137 1.399 . S
C136 H142 0.929 . S
C137 C117 1.449 . S
C137 C136 1.399 . S
C137 H143 0.930 . S
H138 C118 0.931 . S
H139 C119 0.930 . S
H140 C127 0.924 1_554 S
H141 C128 0.929 . S
H142 C136 0.929 . S
H143 C137 0.930 . S
Mn144 O149 2.095 1_554 S
Mn144 O159 2.162 . S
Mn144 O160 2.297 . S
Mn144 O168 2.385 . S
Mn144 O169 2.209 . S
Mn144 O170 2.094 1_554 S
Mn145 O150 2.126 . S
Mn145 N152 2.242 1_556 S
Mn145 N161 2.272 1_556 S
Mn145 O169 2.193 1_556 S
Mn145 O171 2.132 . S
C146 O168 1.234 . S
C146 O169 1.283 . S
C147 O159 1.281 . S
C147 O160 1.236 . S
C148 O170 1.240 . S
C148 O171 1.264 . S
O149 Mn144 2.095 1_556 S
O149 C158 1.250 . S
O150 Mn145 2.126 . S
O150 C158 1.258 . S
C151 N152 1.326 . S
C151 C155 1.460 . S
C151 H157 0.929 . S
N152 Mn145 2.242 1_554 S
N152 C151 1.326 . S
N152 C156 1.362 . S
C153 C154 1.258 . S
C153 C156 1.431 . S
C153 C173 1.449 . S
C154 C153 1.258 . S
C154 C155 1.477 . S
C154 H174 0.931 . S
C155 C151 1.460 . S
C155 C154 1.477 . S
C155 H175 0.930 . S
C156 N152 1.362 . S
C156 C153 1.431 . S
C156 C166 1.476 . S
H157 C151 0.929 . S
C158 O149 1.250 . S
C158 O150 1.258 . S
O159 Mn144 2.162 . S
O159 C147 1.281 . S
O160 Mn144 2.297 . S
O160 C147 1.236 . S
N161 Mn145 2.272 1_554 S
N161 C162 1.328 . S
N161 C166 1.318 . S
C162 N161 1.328 . S
C162 C163 1.457 . S
C162 H167 0.929 . S
C163 C162 1.457 . S
C163 C164 1.291 . S
C163 H176 0.931 . S
C164 C163 1.291 . S
C164 C165 1.373 . S
C164 H177 0.929 . S
C165 C164 1.373 . S
C165 C166 1.396 . S
C165 C172 1.403 . S
C166 C156 1.476 . S
C166 N161 1.318 . S
C166 C165 1.396 . S
H167 C162 0.929 . S
O168 Mn144 2.385 . S
O168 C146 1.234 . S
O169 Mn144 2.209 . S
O169 Mn145 2.193 1_554 S
O169 C146 1.283 . S
O170 Mn144 2.094 1_556 S
O170 C148 1.240 . S
O171 Mn145 2.132 . S
O171 C148 1.264 . S
C172 C165 1.403 . S
C172 C173 1.399 . S
C172 H178 0.929 . S
C173 C153 1.449 . S
C173 C172 1.399 . S
C173 H179 0.930 . S
H174 C154 0.931 . S
H175 C155 0.930 . S
H176 C163 0.931 . S
H177 C164 0.929 . S
H178 C172 0.929 . S
H179 C173 0.930 . S
Mn180 O185 2.095 1_545 S
Mn180 O195 2.162 . S
Mn180 O196 2.297 1_554 S
Mn180 O204 2.385 1_554 S
Mn180 O205 2.209 1_544 S
Mn180 O206 2.094 . S
Mn181 O186 2.121 . S
Mn181 N188 2.257 1_554 S
Mn181 N197 2.282 . S
Mn181 O205 2.215 1_554 S
Mn181 O207 2.117 . S
C182 O204 1.194 1_565 S
C182 O205 1.321 . S
C183 O195 1.281 1_556 S
C183 O196 1.236 . S
C184 O206 1.240 . S
C184 O207 1.264 1_545 S
O185 Mn180 2.095 1_565 S
O185 C194 1.250 . S
O186 Mn181 2.121 . S
O186 C194 1.258 . S
C187 N188 1.326 . S
C187 C191 1.460 . S
C187 H193 0.931 1_556 S
N188 Mn181 2.257 1_556 S
N188 C187 1.326 . S
N188 C192 1.362 . S
C189 C190 1.258 . S
C189 C192 1.431 . S
C189 C209 1.449 . S
C190 C189 1.258 . S
C190 C191 1.477 . S
C190 H210 0.931 . S
C191 C187 1.460 . S
C191 C190 1.477 . S
C191 H211 0.930 . S
C192 N188 1.362 . S
C192 C189 1.431 . S
C192 C202 1.476 . S
H193 C187 0.931 1_554 S
C194 O185 1.250 . S
C194 O186 1.258 . S
O195 Mn180 2.162 . S
O195 C183 1.281 1_554 S
O196 Mn180 2.297 1_556 S
O196 C183 1.236 . S
N197 Mn181 2.282 . S
N197 C198 1.328 . S
N197 C202 1.318 1_554 S
C198 N197 1.328 . S
C198 C199 1.457 1_554 S
C198 H203 0.929 . S
C199 C198 1.457 1_556 S
C199 C200 1.290 . S
C199 H212 0.931 1_556 S
C200 C199 1.290 . S
C200 C201 1.373 . S
C200 H213 0.929 . S
C201 C200 1.373 . S
C201 C202 1.396 . S
C201 C208 1.403 . S
C202 C192 1.476 . S
C202 N197 1.318 1_556 S
C202 C201 1.396 . S
H203 C198 0.929 . S
O204 Mn180 2.385 1_556 S
O204 C182 1.194 1_545 S
O205 Mn180 2.209 1_566 S
O205 Mn181 2.215 1_556 S
O205 C182 1.321 . S
O206 Mn180 2.094 . S
O206 C184 1.240 . S
O207 Mn181 2.117 . S
O207 C184 1.264 1_565 S
C208 C201 1.403 . S
C208 C209 1.399 . S
C208 H214 0.929 . S
C209 C189 1.449 . S
C209 C208 1.399 . S
C209 H215 0.930 . S
H210 C190 0.931 . S
H211 C191 0.930 . S
H212 C199 0.931 1_554 S
H213 C200 0.929 . S
H214 C208 0.929 . S
H215 C209 0.930 . S
Mn216 O221 2.095 . S
Mn216 O231 2.162 . S
Mn216 O232 2.297 . S
Mn216 O240 2.385 . S
Mn216 O241 2.209 . S
Mn216 O242 2.094 . S
Mn217 O222 2.121 . S
Mn217 N224 2.257 . S
Mn217 N233 2.282 . S
Mn217 O241 2.215 . S
Mn217 O243 2.117 . S
C218 O240 1.234 . S
C218 O241 1.283 . S
C219 O231 1.281 . S
C219 O232 1.236 . S
C220 O242 1.240 . S
C220 O243 1.264 . S
O221 Mn216 2.095 . S
O221 C230 1.250 . S
O222 Mn217 2.121 . S
O222 C230 1.258 . S
C223 N224 1.326 . S
C223 C227 1.460 . S
C223 H229 0.929 . S
N224 Mn217 2.257 . S
N224 C223 1.326 . S
N224 C228 1.362 . S
C225 C226 1.258 . S
C225 C228 1.431 . S
C225 C245 1.449 . S
C226 C225 1.258 . S
C226 C227 1.477 . S
C226 H246 0.931 . S
C227 C223 1.460 . S
C227 C226 1.477 . S
C227 H247 0.930 . S
C228 N224 1.362 . S
C228 C225 1.431 . S
C228 C238 1.476 . S
H229 C223 0.929 . S
C230 O221 1.250 . S
C230 O222 1.258 . S
O231 Mn216 2.162 . S
O231 C219 1.281 . S
O232 Mn216 2.297 . S
O232 C219 1.236 . S
N233 Mn217 2.282 . S
N233 C234 1.328 . S
N233 C238 1.318 . S
C234 N233 1.328 . S
C234 C235 1.457 . S
C234 H239 0.929 . S
C235 C234 1.457 . S
C235 C236 1.291 . S
C235 H248 0.931 . S
C236 C235 1.291 . S
C236 C237 1.373 . S
C236 H249 0.929 . S
C237 C236 1.373 . S
C237 C238 1.396 . S
C237 C244 1.403 . S
C238 C228 1.476 . S
C238 N233 1.318 . S
C238 C237 1.396 . S
H239 C234 0.929 . S
O240 Mn216 2.385 . S
O240 C218 1.234 . S
O241 Mn216 2.209 . S
O241 Mn217 2.215 . S
O241 C218 1.283 . S
O242 Mn216 2.094 . S
O242 C220 1.240 . S
O243 Mn217 2.117 . S
O243 C220 1.264 . S
C244 C237 1.403 . S
C244 C245 1.399 . S
C244 H250 0.929 . S
C245 C225 1.449 . S
C245 C244 1.399 . S
C245 H251 0.930 . S
H246 C226 0.931 . S
H247 C227 0.930 . S
H248 C235 0.931 . S
H249 C236 0.929 . S
H250 C244 0.929 . S
H251 C245 0.930 . S
Mn252 O257 2.095 . S
Mn252 O267 2.162 1_565 S
Mn252 O268 2.297 1_565 S
Mn252 O276 2.385 . S
Mn252 O277 2.209 . S
Mn252 O278 2.094 . S
Mn253 O258 2.121 . S
Mn253 N260 2.257 . S
Mn253 N269 2.282 . S
Mn253 O277 2.215 . S
Mn253 O279 2.117 . S
C254 O276 1.234 . S
C254 O277 1.283 . S
C255 O267 1.281 . S
C255 O268 1.236 . S
C256 O278 1.240 . S
C256 O279 1.264 . S
O257 Mn252 2.095 . S
O257 C266 1.250 . S
O258 Mn253 2.121 . S
O258 C266 1.258 . S
C259 N260 1.326 . S
C259 C263 1.460 . S
C259 H265 0.929 . S
N260 Mn253 2.257 . S
N260 C259 1.326 . S
N260 C264 1.362 . S
C261 C262 1.258 . S
C261 C264 1.431 . S
C261 C281 1.449 . S
C262 C261 1.258 . S
C262 C263 1.477 . S
C262 H282 0.931 . S
C263 C259 1.460 . S
C263 C262 1.477 . S
C263 H283 0.930 . S
C264 N260 1.362 . S
C264 C261 1.431 . S
C264 C274 1.476 . S
H265 C259 0.929 . S
C266 O257 1.250 . S
C266 O258 1.258 . S
O267 Mn252 2.162 1_545 S
O267 C255 1.281 . S
O268 Mn252 2.297 1_545 S
O268 C255 1.236 . S
N269 Mn253 2.282 . S
N269 C270 1.328 . S
N269 C274 1.318 . S
C270 N269 1.328 . S
C270 C271 1.457 . S
C270 H275 0.929 . S
C271 C270 1.457 . S
C271 C272 1.291 . S
C271 H284 0.931 . S
C272 C271 1.291 . S
C272 C273 1.373 . S
C272 H285 0.929 . S
C273 C272 1.373 . S
C273 C274 1.396 . S
C273 C280 1.403 . S
C274 C264 1.476 . S
C274 N269 1.318 . S
C274 C273 1.396 . S
H275 C270 0.929 . S
O276 Mn252 2.385 . S
O276 C254 1.234 . S
O277 Mn252 2.209 . S
O277 Mn253 2.215 . S
O277 C254 1.283 . S
O278 Mn252 2.094 . S
O278 C256 1.240 . S
O279 Mn253 2.117 . S
O279 C256 1.264 . S
C280 C273 1.403 . S
C280 C281 1.399 . S
C280 H286 0.929 . S
C281 C261 1.449 . S
C281 C280 1.399 . S
C281 H287 0.930 . S
H282 C262 0.931 . S
H283 C263 0.930 . S
H284 C271 0.931 . S
H285 C272 0.929 . S
H286 C280 0.929 . S
H287 C281 0.930 . S
Mn288 O293 2.095 . S
Mn288 O303 2.162 1_455 S
Mn288 O304 2.297 1_455 S
Mn288 O312 2.385 . S
Mn288 O313 2.209 . S
Mn288 O314 2.094 . S
Mn289 O294 2.121 . S
Mn289 N296 2.257 . S
Mn289 N305 2.282 . S
Mn289 O313 2.215 . S
Mn289 O315 2.117 . S
C290 O312 1.234 . S
C290 O313 1.283 . S
C291 O303 1.281 . S
C291 O304 1.236 . S
C292 O314 1.240 . S
C292 O315 1.264 . S
O293 Mn288 2.095 . S
O293 C302 1.250 . S
O294 Mn289 2.121 . S
O294 C302 1.258 . S
C295 N296 1.326 . S
C295 C299 1.460 . S
C295 H301 0.929 . S
N296 Mn289 2.257 . S
N296 C295 1.326 . S
N296 C300 1.362 . S
C297 C298 1.258 . S
C297 C300 1.431 . S
C297 C317 1.449 . S
C298 C297 1.258 . S
C298 C299 1.477 . S
C298 H318 0.931 . S
C299 C295 1.460 . S
C299 C298 1.477 . S
C299 H319 0.930 . S
C300 N296 1.362 . S
C300 C297 1.431 . S
C300 C310 1.476 . S
H301 C295 0.929 . S
C302 O293 1.250 . S
C302 O294 1.258 . S
O303 Mn288 2.162 1_655 S
O303 C291 1.281 . S
O304 Mn288 2.297 1_655 S
O304 C291 1.236 . S
N305 Mn289 2.282 . S
N305 C306 1.328 . S
N305 C310 1.318 . S
C306 N305 1.328 . S
C306 C307 1.457 . S
C306 H311 0.929 . S
C307 C306 1.457 . S
C307 C308 1.291 . S
C307 H320 0.931 . S
C308 C307 1.291 . S
C308 C309 1.373 . S
C308 H321 0.929 . S
C309 C308 1.373 . S
C309 C310 1.396 . S
C309 C316 1.403 . S
C310 C300 1.476 . S
C310 N305 1.318 . S
C310 C309 1.396 . S
H311 C306 0.929 . S
O312 Mn288 2.385 . S
O312 C290 1.234 . S
O313 Mn288 2.209 . S
O313 Mn289 2.215 . S
O313 C290 1.283 . S
O314 Mn288 2.094 . S
O314 C292 1.240 . S
O315 Mn289 2.117 . S
O315 C292 1.264 . S
C316 C309 1.403 . S
C316 C317 1.399 . S
C316 H322 0.929 . S
C317 C297 1.449 . S
C317 C316 1.399 . S
C317 H323 0.930 . S
H318 C298 0.931 . S
H319 C299 0.930 . S
H320 C307 0.931 . S
H321 C308 0.929 . S
H322 C316 0.929 . S
H323 C317 0.930 . S
Mn324 O329 2.095 . S
Mn324 O339 2.162 . S
Mn324 O340 2.297 . S
Mn324 O348 2.385 . S
Mn324 O349 2.209 . S
Mn324 O350 2.094 . S
Mn325 O330 2.121 1_565 S
Mn325 N332 2.257 . S
Mn325 N341 2.282 . S
Mn325 O349 2.215 . S
Mn325 O351 2.117 . S
C326 O348 1.234 . S
C326 O349 1.283 . S
C327 O339 1.281 . S
C327 O340 1.236 . S
C328 O350 1.240 . S
C328 O351 1.264 . S
O329 Mn324 2.095 . S
O329 C338 1.250 1_565 S
O330 Mn325 2.121 1_545 S
O330 C338 1.258 . S
C331 N332 1.326 1_545 S
C331 C335 1.460 . S
C331 H337 0.929 . S
N332 Mn325 2.257 . S
N332 C331 1.326 1_565 S
N332 C336 1.362 . S
C333 C334 1.258 . S
C333 C336 1.431 . S
C333 C353 1.449 . S
C334 C333 1.258 . S
C334 C335 1.477 1_565 S
C334 H354 0.927 . S
C335 C331 1.460 . S
C335 C334 1.477 1_545 S
C335 H355 0.930 . S
C336 N332 1.362 . S
C336 C333 1.431 . S
C336 C346 1.476 . S
H337 C331 0.929 . S
C338 O329 1.250 1_545 S
C338 O330 1.258 . S
O339 Mn324 2.162 . S
O339 C327 1.281 . S
O340 Mn324 2.297 . S
O340 C327 1.236 . S
N341 Mn325 2.282 . S
N341 C342 1.328 . S
N341 C346 1.318 . S
C342 N341 1.328 . S
C342 C343 1.457 . S
C342 H347 0.929 . S
C343 C342 1.457 . S
C343 C344 1.291 . S
C343 H356 0.931 . S
C344 C343 1.291 . S
C344 C345 1.373 . S
C344 H357 0.929 . S
C345 C344 1.373 . S
C345 C346 1.396 . S
C345 C352 1.403 . S
C346 C336 1.476 . S
C346 N341 1.318 . S
C346 C345 1.396 . S
H347 C342 0.929 . S
O348 Mn324 2.385 . S
O348 C326 1.234 . S
O349 Mn324 2.209 . S
O349 Mn325 2.215 . S
O349 C326 1.283 . S
O350 Mn324 2.094 . S
O350 C328 1.240 . S
O351 Mn325 2.117 . S
O351 C328 1.264 . S
C352 C345 1.403 . S
C352 C353 1.399 . S
C352 H358 0.929 . S
C353 C333 1.449 . S
C353 C352 1.399 . S
C353 H359 0.930 . S
H354 C334 0.927 . S
H355 C335 0.930 . S
H356 C343 0.931 . S
H357 C344 0.929 . S
H358 C352 0.929 . S
H359 C353 0.930 . S
Mn360 O365 2.095 . S
Mn360 O375 2.162 1_455 S
Mn360 O376 2.299 . S
Mn360 O384 2.385 . S
Mn360 O385 2.209 . S
Mn360 O386 2.094 . S
Mn361 O366 2.121 . S
Mn361 N368 2.257 . S
Mn361 N377 2.282 . S
Mn361 O385 2.215 . S
Mn361 O387 2.117 . S
C362 O384 1.234 . S
C362 O385 1.283 . S
C363 O375 1.281 . S
C363 O376 1.230 1_655 S
C364 O386 1.240 . S
C364 O387 1.264 . S
O365 Mn360 2.095 . S
O365 C374 1.250 . S
O366 Mn361 2.121 . S
O366 C374 1.258 . S
C367 N368 1.326 . S
C367 C371 1.460 . S
C367 H373 0.929 . S
N368 Mn361 2.257 . S
N368 C367 1.326 . S
N368 C372 1.362 . S
C369 C370 1.258 . S
C369 C372 1.431 . S
C369 C389 1.449 . S
C370 C369 1.258 . S
C370 C371 1.477 . S
C370 H390 0.931 . S
C371 C367 1.460 . S
C371 C370 1.477 . S
C371 H391 0.930 . S
C372 N368 1.362 . S
C372 C369 1.431 . S
C372 C382 1.476 . S
H373 C367 0.929 . S
C374 O365 1.250 . S
C374 O366 1.258 . S
O375 Mn360 2.162 1_655 S
O375 C363 1.281 . S
O376 Mn360 2.299 . S
O376 C363 1.230 1_455 S
N377 Mn361 2.282 . S
N377 C378 1.328 . S
N377 C382 1.318 . S
C378 N377 1.328 . S
C378 C379 1.457 . S
C378 H383 0.929 . S
C379 C378 1.457 . S
C379 C380 1.291 . S
C379 H392 0.931 . S
C380 C379 1.291 . S
C380 C381 1.373 . S
C380 H393 0.929 . S
C381 C380 1.373 . S
C381 C382 1.396 . S
C381 C388 1.403 . S
C382 C372 1.476 . S
C382 N377 1.318 . S
C382 C381 1.396 . S
H383 C378 0.929 . S
O384 Mn360 2.385 . S
O384 C362 1.234 . S
O385 Mn360 2.209 . S
O385 Mn361 2.215 . S
O385 C362 1.283 . S
O386 Mn360 2.094 . S
O386 C364 1.240 . S
O387 Mn361 2.117 . S
O387 C364 1.264 . S
C388 C381 1.403 . S
C388 C389 1.399 . S
C388 H394 0.929 . S
C389 C369 1.449 . S
C389 C388 1.399 . S
C389 H395 0.930 . S
H390 C370 0.931 . S
H391 C371 0.930 . S
H392 C379 0.931 . S
H393 C380 0.929 . S
H394 C388 0.929 . S
H395 C389 0.930 . S
Mn396 O401 2.095 . S
Mn396 O411 2.162 . S
Mn396 O412 2.297 . S
Mn396 O420 2.385 . S
Mn396 O421 2.209 . S
Mn396 O422 2.094 . S
Mn397 O402 2.121 . S
Mn397 N404 2.257 . S
Mn397 N413 2.282 . S
Mn397 O421 2.215 . S
Mn397 O423 2.117 . S
C398 O420 1.234 . S
C398 O421 1.283 . S
C399 O411 1.281 . S
C399 O412 1.236 . S
C400 O422 1.240 . S
C400 O423 1.264 . S
O401 Mn396 2.095 . S
O401 C410 1.250 . S
O402 Mn397 2.121 . S
O402 C410 1.258 . S
C403 N404 1.326 . S
C403 C407 1.460 . S
C403 H409 0.929 . S
N404 Mn397 2.257 . S
N404 C403 1.326 . S
N404 C408 1.362 . S
C405 C406 1.258 . S
C405 C408 1.431 . S
C405 C425 1.449 . S
C406 C405 1.258 . S
C406 C407 1.477 . S
C406 H426 0.931 . S
C407 C403 1.460 . S
C407 C406 1.477 . S
C407 H427 0.930 . S
C408 N404 1.362 . S
C408 C405 1.431 . S
C408 C418 1.476 . S
H409 C403 0.929 . S
C410 O401 1.250 . S
C410 O402 1.258 . S
O411 Mn396 2.162 . S
O411 C399 1.281 . S
O412 Mn396 2.297 . S
O412 C399 1.236 . S
N413 Mn397 2.282 . S
N413 C414 1.328 . S
N413 C418 1.318 . S
C414 N413 1.328 . S
C414 C415 1.457 . S
C414 H419 0.929 . S
C415 C414 1.457 . S
C415 C416 1.291 . S
C415 H428 0.931 . S
C416 C415 1.291 . S
C416 C417 1.373 . S
C416 H429 0.929 . S
C417 C416 1.373 . S
C417 C418 1.396 . S
C417 C424 1.403 . S
C418 C408 1.476 . S
C418 N413 1.318 . S
C418 C417 1.396 . S
H419 C414 0.929 . S
O420 Mn396 2.385 . S
O420 C398 1.234 . S
O421 Mn396 2.209 . S
O421 Mn397 2.215 . S
O421 C398 1.283 . S
O422 Mn396 2.094 . S
O422 C400 1.240 . S
O423 Mn397 2.117 . S
O423 C400 1.264 . S
C424 C417 1.403 . S
C424 C425 1.399 . S
C424 H430 0.929 . S
C425 C405 1.449 . S
C425 C424 1.399 . S
C425 H431 0.930 . S
H426 C406 0.931 . S
H427 C407 0.930 . S
H428 C415 0.931 . S
H429 C416 0.929 . S
H430 C424 0.929 . S
H431 C425 0.930 . S
Mn432 O437 2.095 . S
Mn432 O447 2.162 1_545 S
Mn432 O448 2.292 . S
Mn432 O456 2.385 . S
Mn432 O457 2.209 . S
Mn432 O458 2.094 . S
Mn433 O438 2.121 . S
Mn433 N440 2.257 . S
Mn433 N449 2.282 . S
Mn433 O457 2.215 . S
Mn433 O459 2.117 . S
C434 O456 1.234 . S
C434 O457 1.283 . S
C435 O447 1.281 . S
C435 O448 1.237 1_565 S
C436 O458 1.240 . S
C436 O459 1.264 . S
O437 Mn432 2.095 . S
O437 C446 1.250 . S
O438 Mn433 2.121 . S
O438 C446 1.258 . S
C439 N440 1.326 . S
C439 C443 1.460 . S
C439 H445 0.929 . S
N440 Mn433 2.257 . S
N440 C439 1.326 . S
N440 C444 1.362 . S
C441 C442 1.258 . S
C441 C444 1.431 . S
C441 C461 1.449 . S
C442 C441 1.258 . S
C442 C443 1.477 . S
C442 H462 0.931 . S
C443 C439 1.460 . S
C443 C442 1.477 . S
C443 H463 0.930 . S
C444 N440 1.362 . S
C444 C441 1.431 . S
C444 C454 1.476 . S
H445 C439 0.929 . S
C446 O437 1.250 . S
C446 O438 1.258 . S
O447 Mn432 2.162 1_565 S
O447 C435 1.281 . S
O448 Mn432 2.292 . S
O448 C435 1.237 1_545 S
N449 Mn433 2.282 . S
N449 C450 1.328 . S
N449 C454 1.318 . S
C450 N449 1.328 . S
C450 C451 1.457 . S
C450 H455 0.929 . S
C451 C450 1.457 . S
C451 C452 1.291 . S
C451 H464 0.931 . S
C452 C451 1.291 . S
C452 C453 1.373 . S
C452 H465 0.929 . S
C453 C452 1.373 . S
C453 C454 1.396 . S
C453 C460 1.403 . S
C454 C444 1.476 . S
C454 N449 1.318 . S
C454 C453 1.396 . S
H455 C450 0.929 . S
O456 Mn432 2.385 . S
O456 C434 1.234 . S
O457 Mn432 2.209 . S
O457 Mn433 2.215 . S
O457 C434 1.283 . S
O458 Mn432 2.094 . S
O458 C436 1.240 . S
O459 Mn433 2.117 . S
O459 C436 1.264 . S
C460 C453 1.403 . S
C460 C461 1.399 . S
C460 H466 0.929 . S
C461 C441 1.449 . S
C461 C460 1.399 . S
C461 H467 0.930 . S
H462 C442 0.931 . S
H463 C443 0.930 . S
H464 C451 0.931 . S
H465 C452 0.929 . S
H466 C460 0.929 . S
H467 C461 0.930 . S
Mn468 O473 2.095 . S
Mn468 O483 2.162 . S
Mn468 O484 2.297 . S
Mn468 O492 2.385 . S
Mn468 O493 2.209 . S
Mn468 O494 2.094 . S
Mn469 O474 2.086 1_655 S
Mn469 N476 2.257 . S
Mn469 N485 2.282 . S
Mn469 O493 2.215 . S
Mn469 O495 2.117 . S
C470 O492 1.234 . S
C470 O493 1.283 . S
C471 O483 1.281 . S
C471 O484 1.236 . S
C472 O494 1.240 . S
C472 O495 1.264 . S
O473 Mn468 2.095 . S
O473 C482 1.250 1_655 S
O474 Mn469 2.086 1_455 S
O474 C482 1.242 . S
C475 N476 1.326 1_455 S
C475 C479 1.460 . S
C475 H481 0.929 . S
N476 Mn469 2.257 . S
N476 C475 1.326 1_655 S
N476 C480 1.362 . S
C477 C478 1.258 . S
C477 C480 1.431 . S
C477 C497 1.449 . S
C478 C477 1.258 . S
C478 C479 1.477 1_655 S
C478 H498 0.941 . S
C479 C475 1.460 . S
C479 C478 1.477 1_455 S
C479 H499 0.930 . S
C480 N476 1.362 . S
C480 C477 1.431 . S
C480 C490 1.476 . S
H481 C475 0.929 . S
C482 O473 1.250 1_455 S
C482 O474 1.242 . S
O483 Mn468 2.162 . S
O483 C471 1.281 . S
O484 Mn468 2.297 . S
O484 C471 1.236 . S
N485 Mn469 2.282 . S
N485 C486 1.328 . S
N485 C490 1.318 . S
C486 N485 1.328 . S
C486 C487 1.457 . S
C486 H491 0.929 . S
C487 C486 1.457 . S
C487 C488 1.291 . S
C487 H500 0.931 . S
C488 C487 1.291 . S
C488 C489 1.373 . S
C488 H501 0.929 . S
C489 C488 1.373 . S
C489 C490 1.396 . S
C489 C496 1.403 . S
C490 C480 1.476 . S
C490 N485 1.318 . S
C490 C489 1.396 . S
H491 C486 0.929 . S
O492 Mn468 2.385 . S
O492 C470 1.234 . S
O493 Mn468 2.209 . S
O493 Mn469 2.215 . S
O493 C470 1.283 . S
O494 Mn468 2.094 . S
O494 C472 1.240 . S
O495 Mn469 2.117 . S
O495 C472 1.264 . S
C496 C489 1.403 . S
C496 C497 1.399 . S
C496 H502 0.929 . S
C497 C477 1.449 . S
C497 C496 1.399 . S
C497 H503 0.930 . S
H498 C478 0.941 . S
H499 C479 0.930 . S
H500 C487 0.931 . S
H501 C488 0.929 . S
H502 C496 0.929 . S
H503 C497 0.930 . S
Mn504 O509 2.095 . S
Mn504 O519 2.162 . S
Mn504 O520 2.297 . S
Mn504 O528 2.385 . S
Mn504 O529 2.209 . S
Mn504 O530 2.094 . S
Mn505 O510 2.121 . S
Mn505 N512 2.257 . S
Mn505 N521 2.282 . S
Mn505 O529 2.215 . S
Mn505 O531 2.117 . S
C506 O528 1.234 . S
C506 O529 1.283 . S
C507 O519 1.281 . S
C507 O520 1.236 . S
C508 O530 1.240 . S
C508 O531 1.264 . S
O509 Mn504 2.095 . S
O509 C518 1.250 . S
O510 Mn505 2.121 . S
O510 C518 1.258 . S
C511 N512 1.326 . S
C511 C515 1.460 . S
C511 H517 0.929 . S
N512 Mn505 2.257 . S
N512 C511 1.326 . S
N512 C516 1.362 . S
C513 C514 1.258 . S
C513 C516 1.431 . S
C513 C533 1.449 . S
C514 C513 1.258 . S
C514 C515 1.477 . S
C514 H534 0.931 . S
C515 C511 1.460 . S
C515 C514 1.477 . S
C515 H535 0.930 . S
C516 N512 1.362 . S
C516 C513 1.431 . S
C516 C526 1.476 . S
H517 C511 0.929 . S
C518 O509 1.250 . S
C518 O510 1.258 . S
O519 Mn504 2.162 . S
O519 C507 1.281 . S
O520 Mn504 2.297 . S
O520 C507 1.236 . S
N521 Mn505 2.282 . S
N521 C522 1.328 . S
N521 C526 1.318 . S
C522 N521 1.328 . S
C522 C523 1.457 . S
C522 H527 0.929 . S
C523 C522 1.457 . S
C523 C524 1.291 . S
C523 H536 0.931 . S
C524 C523 1.291 . S
C524 C525 1.373 . S
C524 H537 0.929 . S
C525 C524 1.373 . S
C525 C526 1.396 . S
C525 C532 1.403 . S
C526 C516 1.476 . S
C526 N521 1.318 . S
C526 C525 1.396 . S
H527 C522 0.929 . S
O528 Mn504 2.385 . S
O528 C506 1.234 . S
O529 Mn504 2.209 . S
O529 Mn505 2.215 . S
O529 C506 1.283 . S
O530 Mn504 2.094 . S
O530 C508 1.240 . S
O531 Mn505 2.117 . S
O531 C508 1.264 . S
C532 C525 1.403 . S
C532 C533 1.399 . S
C532 H538 0.929 . S
C533 C513 1.449 . S
C533 C532 1.399 . S
C533 H539 0.930 . S
H534 C514 0.931 . S
H535 C515 0.930 . S
H536 C523 0.931 . S
H537 C524 0.929 . S
H538 C532 0.929 . S
H539 C533 0.930 . S
Mn540 O545 2.095 . S
Mn540 O555 2.162 . S
Mn540 O556 2.297 . S
Mn540 O564 2.385 . S
Mn540 O565 2.209 . S
Mn540 O566 2.094 . S
Mn541 O546 2.121 . S
Mn541 N548 2.257 . S
Mn541 N557 2.282 . S
Mn541 O565 2.215 . S
Mn541 O567 2.117 . S
C542 O564 1.234 . S
C542 O565 1.283 . S
C543 O555 1.281 . S
C543 O556 1.236 . S
C544 O566 1.240 . S
C544 O567 1.264 . S
O545 Mn540 2.095 . S
O545 C554 1.250 . S
O546 Mn541 2.121 . S
O546 C554 1.258 . S
C547 N548 1.326 . S
C547 C551 1.460 . S
C547 H553 0.929 . S
N548 Mn541 2.257 . S
N548 C547 1.326 . S
N548 C552 1.362 . S
C549 C550 1.258 . S
C549 C552 1.431 . S
C549 C569 1.449 . S
C550 C549 1.258 . S
C550 C551 1.477 . S
C550 H570 0.931 . S
C551 C547 1.460 . S
C551 C550 1.477 . S
C551 H571 0.930 . S
C552 N548 1.362 . S
C552 C549 1.431 . S
C552 C562 1.476 . S
H553 C547 0.929 . S
C554 O545 1.250 . S
C554 O546 1.258 . S
O555 Mn540 2.162 . S
O555 C543 1.281 . S
O556 Mn540 2.297 . S
O556 C543 1.236 . S
N557 Mn541 2.282 . S
N557 C558 1.328 . S
N557 C562 1.318 . S
C558 N557 1.328 . S
C558 C559 1.457 . S
C558 H563 0.929 . S
C559 C558 1.457 . S
C559 C560 1.291 . S
C559 H572 0.931 . S
C560 C559 1.291 . S
C560 C561 1.373 . S
C560 H573 0.929 . S
C561 C560 1.373 . S
C561 C562 1.396 . S
C561 C568 1.403 . S
C562 C552 1.476 . S
C562 N557 1.318 . S
C562 C561 1.396 . S
H563 C558 0.929 . S
O564 Mn540 2.385 . S
O564 C542 1.234 . S
O565 Mn540 2.209 . S
O565 Mn541 2.215 . S
O565 C542 1.283 . S
O566 Mn540 2.094 . S
O566 C544 1.240 . S
O567 Mn541 2.117 . S
O567 C544 1.264 . S
C568 C561 1.403 . S
C568 C569 1.399 . S
C568 H574 0.929 . S
C569 C549 1.449 . S
C569 C568 1.399 . S
C569 H575 0.930 . S
H570 C550 0.931 . S
H571 C551 0.930 . S
H572 C559 0.931 . S
H573 C560 0.929 . S
H574 C568 0.929 . S
H575 C569 0.930 . S
Mn576 O581 2.095 . S
Mn576 O591 2.162 . S
Mn576 O592 2.297 . S
Mn576 O600 2.385 . S
Mn576 O601 2.209 . S
Mn576 O602 2.094 . S
Mn577 O582 2.121 1_545 S
Mn577 N584 2.257 . S
Mn577 N593 2.282 . S
Mn577 O601 2.215 . S
Mn577 O603 2.117 . S
C578 O600 1.234 . S
C578 O601 1.283 . S
C579 O591 1.281 . S
C579 O592 1.236 . S
C580 O602 1.240 . S
C580 O603 1.264 . S
O581 Mn576 2.095 . S
O581 C590 1.250 1_545 S
O582 Mn577 2.121 1_565 S
O582 C590 1.258 . S
C583 N584 1.326 1_565 S
C583 C587 1.460 . S
C583 H589 0.929 . S
N584 Mn577 2.257 . S
N584 C583 1.326 1_545 S
N584 C588 1.362 . S
C585 C586 1.258 . S
C585 C588 1.431 . S
C585 C605 1.449 . S
C586 C585 1.258 . S
C586 C587 1.477 1_545 S
C586 H606 0.931 1_545 S
C587 C583 1.460 . S
C587 C586 1.477 1_565 S
C587 H607 0.930 . S
C588 N584 1.362 . S
C588 C585 1.431 . S
C588 C598 1.476 . S
H589 C583 0.929 . S
C590 O581 1.250 1_565 S
C590 O582 1.258 . S
O591 Mn576 2.162 . S
O591 C579 1.281 . S
O592 Mn576 2.297 . S
O592 C579 1.236 . S
N593 Mn577 2.282 . S
N593 C594 1.328 . S
N593 C598 1.318 . S
C594 N593 1.328 . S
C594 C595 1.457 . S
C594 H599 0.929 . S
C595 C594 1.457 . S
C595 C596 1.291 . S
C595 H608 0.931 . S
C596 C595 1.291 . S
C596 C597 1.373 . S
C596 H609 0.929 . S
C597 C596 1.373 . S
C597 C598 1.396 . S
C597 C604 1.403 . S
C598 C588 1.476 . S
C598 N593 1.318 . S
C598 C597 1.396 . S
H599 C594 0.929 . S
O600 Mn576 2.385 . S
O600 C578 1.234 . S
O601 Mn576 2.209 . S
O601 Mn577 2.215 . S
O601 C578 1.283 . S
O602 Mn576 2.094 . S
O602 C580 1.240 . S
O603 Mn577 2.117 . S
O603 C580 1.264 . S
C604 C597 1.403 . S
C604 C605 1.399 . S
C604 H610 0.929 . S
C605 C585 1.449 . S
C605 C604 1.399 . S
C605 H611 0.930 . S
H606 C586 0.931 1_565 S
H607 C587 0.930 . S
H608 C595 0.931 . S
H609 C596 0.929 . S
H610 C604 0.929 . S
H611 C605 0.930 . S
Mn612 O617 2.095 . S
Mn612 O627 2.162 1_655 S
Mn612 O628 2.297 1_655 S
Mn612 O636 2.385 . S
Mn612 O637 2.209 . S
Mn612 O638 2.094 . S
Mn613 O618 2.121 . S
Mn613 N620 2.257 . S
Mn613 N629 2.282 . S
Mn613 O637 2.215 . S
Mn613 O639 2.117 . S
C614 O636 1.234 . S
C614 O637 1.283 . S
C615 O627 1.281 . S
C615 O628 1.236 . S
C616 O638 1.240 . S
C616 O639 1.264 . S
O617 Mn612 2.095 . S
O617 C626 1.250 . S
O618 Mn613 2.121 . S
O618 C626 1.258 . S
C619 N620 1.326 . S
C619 C623 1.460 . S
C619 H625 0.929 . S
N620 Mn613 2.257 . S
N620 C619 1.326 . S
N620 C624 1.362 . S
C621 C622 1.258 . S
C621 C624 1.431 . S
C621 C641 1.449 . S
C622 C621 1.258 . S
C622 C623 1.477 . S
C622 H642 0.931 . S
C623 C619 1.460 . S
C623 C622 1.477 . S
C623 H643 0.930 . S
C624 N620 1.362 . S
C624 C621 1.431 . S
C624 C634 1.476 . S
H625 C619 0.929 . S
C626 O617 1.250 . S
C626 O618 1.258 . S
O627 Mn612 2.162 1_455 S
O627 C615 1.281 . S
O628 Mn612 2.297 1_455 S
O628 C615 1.236 . S
N629 Mn613 2.282 . S
N629 C630 1.328 . S
N629 C634 1.318 . S
C630 N629 1.328 . S
C630 C631 1.457 . S
C630 H635 0.929 . S
C631 C630 1.457 . S
C631 C632 1.291 . S
C631 H644 0.931 . S
C632 C631 1.291 . S
C632 C633 1.373 . S
C632 H645 0.929 . S
C633 C632 1.373 . S
C633 C634 1.396 . S
C633 C640 1.403 . S
C634 C624 1.476 . S
C634 N629 1.318 . S
C634 C633 1.396 . S
H635 C630 0.929 . S
O636 Mn612 2.385 . S
O636 C614 1.234 . S
O637 Mn612 2.209 . S
O637 Mn613 2.215 . S
O637 C614 1.283 . S
O638 Mn612 2.094 . S
O638 C616 1.240 . S
O639 Mn613 2.117 . S
O639 C616 1.264 . S
C640 C633 1.403 . S
C640 C641 1.399 . S
C640 H646 0.929 . S
C641 C621 1.449 . S
C641 C640 1.399 . S
C641 H647 0.930 . S
H642 C622 0.931 . S
H643 C623 0.930 . S
H644 C631 0.931 . S
H645 C632 0.929 . S
H646 C640 0.929 . S
H647 C641 0.930 . S
C648 C649 1.384 . S
C648 C650 1.384 . S
C648 H676 0.931 . S
C649 C648 1.384 . S
C649 C652 1.382 . S
C650 C648 1.384 . S
C650 C651 1.381 . S
C650 H677 0.930 . S
C651 C650 1.381 . S
C651 C653 1.381 . S
C651 C654 1.487 . S
C652 C649 1.382 . S
C652 C653 1.387 . S
C652 H678 0.930 . S
C653 C651 1.381 . S
C653 C652 1.387 . S
C653 H679 0.931 . S
C654 C651 1.487 . S
C654 C661 1.399 . S
C654 N692 1.343 . S
C655 C656 1.384 . S
C655 C657 1.384 . S
C655 H680 0.931 . S
C656 C655 1.384 . S
C656 C659 1.382 . S
C657 C655 1.384 . S
C657 C658 1.381 . S
C657 H681 0.930 . S
C658 C657 1.381 . S
C658 C660 1.381 . S
C658 C661 1.487 . S
C659 C656 1.382 . S
C659 C660 1.387 . S
C659 H682 0.930 . S
C660 C658 1.381 . S
C660 C659 1.387 . S
C660 H683 0.931 . S
C661 C654 1.399 . S
C661 C658 1.487 . S
C661 N693 1.343 . S
C662 C663 1.384 . S
C662 C664 1.384 . S
C662 H684 0.931 . S
C663 C662 1.384 . S
C663 C666 1.382 . S
C664 C662 1.384 . S
C664 C665 1.381 . S
C664 H685 0.930 . S
C665 C664 1.381 . S
C665 C667 1.381 . S
C665 C668 1.487 . S
C666 C663 1.382 . S
C666 C667 1.387 . S
C666 H686 0.930 . S
C667 C665 1.381 . S
C667 C666 1.387 . S
C667 H687 0.931 . S
C668 C665 1.487 . S
C668 C675 1.399 . S
C668 N693 1.343 . S
C669 C670 1.384 . S
C669 C671 1.384 . S
C669 H688 0.931 . S
C670 C669 1.384 . S
C670 C673 1.382 . S
C671 C669 1.384 . S
C671 C672 1.381 . S
C671 H689 0.930 . S
C672 C671 1.381 . S
C672 C674 1.381 . S
C672 C675 1.487 . S
C673 C670 1.382 . S
C673 C674 1.387 . S
C673 H690 0.930 . S
C674 C672 1.381 . S
C674 C673 1.387 . S
C674 H691 0.931 . S
C675 C668 1.399 . S
C675 C672 1.487 . S
C675 N692 1.343 . S
H676 C648 0.931 . S
H677 C650 0.930 . S
H678 C652 0.930 . S
H679 C653 0.931 . S
H680 C655 0.931 . S
H681 C657 0.930 . S
H682 C659 0.930 . S
H683 C660 0.931 . S
H684 C662 0.931 . S
H685 C664 0.930 . S
H686 C666 0.930 . S
H687 C667 0.931 . S
H688 C669 0.931 . S
H689 C671 0.930 . S
H690 C673 0.930 . S
H691 C674 0.931 . S
N692 C654 1.343 . S
N692 C675 1.343 . S
N693 C661 1.343 . S
N693 C668 1.343 . S
C694 C695 1.384 . S
C694 C696 1.384 . S
C694 H722 0.931 . S
C695 C694 1.384 . S
C695 C698 1.382 . S
C696 C694 1.384 . S
C696 C697 1.381 . S
C696 H723 0.930 . S
C697 C696 1.381 . S
C697 C699 1.381 . S
C697 C700 1.487 . S
C698 C695 1.382 . S
C698 C699 1.387 . S
C698 H724 0.930 . S
C699 C697 1.381 . S
C699 C698 1.387 . S
C699 H725 0.931 . S
C700 C697 1.487 . S
C700 C707 1.399 . S
C700 N738 1.343 . S
C701 C702 1.384 . S
C701 C703 1.384 . S
C701 H726 0.931 . S
C702 C701 1.384 . S
C702 C705 1.382 . S
C703 C701 1.384 . S
C703 C704 1.381 . S
C703 H727 0.930 . S
C704 C703 1.381 . S
C704 C706 1.381 . S
C704 C707 1.487 . S
C705 C702 1.382 . S
C705 C706 1.387 . S
C705 H728 0.930 . S
C706 C704 1.381 . S
C706 C705 1.387 . S
C706 H729 0.931 . S
C707 C700 1.399 . S
C707 C704 1.487 . S
C707 N739 1.343 . S
C708 C709 1.384 . S
C708 C710 1.384 . S
C708 H730 0.931 . S
C709 C708 1.384 . S
C709 C712 1.382 . S
C710 C708 1.384 . S
C710 C711 1.381 . S
C710 H731 0.930 . S
C711 C710 1.381 . S
C711 C713 1.381 . S
C711 C714 1.487 . S
C712 C709 1.382 . S
C712 C713 1.387 . S
C712 H732 0.930 . S
C713 C711 1.381 . S
C713 C712 1.387 . S
C713 H733 0.931 . S
C714 C711 1.487 . S
C714 C721 1.399 . S
C714 N739 1.343 . S
C715 C716 1.384 . S
C715 C717 1.384 . S
C715 H734 0.931 . S
C716 C715 1.384 . S
C716 C719 1.382 . S
C717 C715 1.384 . S
C717 C718 1.381 . S
C717 H735 0.930 . S
C718 C717 1.381 . S
C718 C720 1.381 . S
C718 C721 1.487 . S
C719 C716 1.382 . S
C719 C720 1.387 . S
C719 H736 0.930 . S
C720 C718 1.381 . S
C720 C719 1.387 . S
C720 H737 0.931 . S
C721 C714 1.399 . S
C721 C718 1.487 . S
C721 N738 1.343 . S
H722 C694 0.931 . S
H723 C696 0.930 . S
H724 C698 0.930 . S
H725 C699 0.931 . S
H726 C701 0.931 . S
H727 C703 0.930 . S
H728 C705 0.930 . S
H729 C706 0.931 . S
H730 C708 0.931 . S
H731 C710 0.930 . S
H732 C712 0.930 . S
H733 C713 0.931 . S
H734 C715 0.931 . S
H735 C717 0.930 . S
H736 C719 0.930 . S
H737 C720 0.931 . S
N738 C700 1.343 . S
N738 C721 1.343 . S
N739 C707 1.343 . S
N739 C714 1.343 . S
C740 C741 1.384 . S
C740 C742 1.384 . S
C740 H768 0.931 . S
C741 C740 1.384 . S
C741 C744 1.382 . S
C742 C740 1.384 . S
C742 C743 1.381 . S
C742 H769 0.930 . S
C743 C742 1.381 . S
C743 C745 1.381 . S
C743 C746 1.487 . S
C744 C741 1.382 . S
C744 C745 1.387 . S
C744 H770 0.930 . S
C745 C743 1.381 . S
C745 C744 1.387 . S
C745 H771 0.931 . S
C746 C743 1.487 . S
C746 C753 1.399 . S
C746 N784 1.343 . S
C747 C748 1.384 . S
C747 C749 1.384 . S
C747 H772 0.931 . S
C748 C747 1.384 . S
C748 C751 1.382 . S
C749 C747 1.384 . S
C749 C750 1.381 . S
C749 H773 0.930 . S
C750 C749 1.381 . S
C750 C752 1.381 . S
C750 C753 1.487 . S
C751 C748 1.382 . S
C751 C752 1.387 . S
C751 H774 0.930 . S
C752 C750 1.381 . S
C752 C751 1.387 . S
C752 H775 0.931 . S
C753 C746 1.399 . S
C753 C750 1.487 . S
C753 N785 1.343 . S
C754 C755 1.384 . S
C754 C756 1.384 . S
C754 H776 0.931 . S
C755 C754 1.384 . S
C755 C758 1.382 . S
C756 C754 1.384 . S
C756 C757 1.381 . S
C756 H777 0.930 . S
C757 C756 1.381 . S
C757 C759 1.381 . S
C757 C760 1.487 . S
C758 C755 1.382 . S
C758 C759 1.387 . S
C758 H778 0.930 . S
C759 C757 1.381 . S
C759 C758 1.387 . S
C759 H779 0.931 . S
C760 C757 1.487 . S
C760 C767 1.399 . S
C760 N785 1.343 . S
C761 C762 1.384 . S
C761 C763 1.384 . S
C761 H780 0.931 . S
C762 C761 1.384 . S
C762 C765 1.382 . S
C763 C761 1.384 . S
C763 C764 1.381 . S
C763 H781 0.930 . S
C764 C763 1.381 . S
C764 C766 1.381 . S
C764 C767 1.487 . S
C765 C762 1.382 . S
C765 C766 1.387 . S
C765 H782 0.930 . S
C766 C764 1.381 . S
C766 C765 1.387 . S
C766 H783 0.931 . S
C767 C760 1.399 . S
C767 C764 1.487 . S
C767 N784 1.343 . S
H768 C740 0.931 . S
H769 C742 0.930 . S
H770 C744 0.930 . S
H771 C745 0.931 . S
H772 C747 0.931 . S
H773 C749 0.930 . S
H774 C751 0.930 . S
H775 C752 0.931 . S
H776 C754 0.931 . S
H777 C756 0.930 . S
H778 C758 0.930 . S
H779 C759 0.931 . S
H780 C761 0.931 . S
H781 C763 0.930 . S
H782 C765 0.930 . S
H783 C766 0.931 . S
N784 C746 1.343 . S
N784 C767 1.343 . S
N785 C753 1.343 . S
N785 C760 1.343 . S
C786 C787 1.384 . S
C786 C788 1.384 . S
C786 H814 0.931 . S
C787 C786 1.384 . S
C787 C790 1.382 . S
C788 C786 1.384 . S
C788 C789 1.381 . S
C788 H815 0.930 . S
C789 C788 1.381 . S
C789 C791 1.381 . S
C789 C792 1.487 . S
C790 C787 1.382 . S
C790 C791 1.387 . S
C790 H816 0.930 . S
C791 C789 1.381 . S
C791 C790 1.387 . S
C791 H817 0.931 . S
C792 C789 1.487 . S
C792 C799 1.399 . S
C792 N830 1.343 . S
C793 C794 1.384 . S
C793 C795 1.384 . S
C793 H818 0.931 . S
C794 C793 1.384 . S
C794 C797 1.382 . S
C795 C793 1.384 . S
C795 C796 1.381 . S
C795 H819 0.930 . S
C796 C795 1.381 . S
C796 C798 1.381 . S
C796 C799 1.487 . S
C797 C794 1.382 . S
C797 C798 1.387 . S
C797 H820 0.930 . S
C798 C796 1.381 . S
C798 C797 1.387 . S
C798 H821 0.931 . S
C799 C792 1.399 . S
C799 C796 1.487 . S
C799 N831 1.343 . S
C800 C801 1.384 . S
C800 C802 1.384 . S
C800 H822 0.931 . S
C801 C800 1.384 . S
C801 C804 1.382 . S
C802 C800 1.384 . S
C802 C803 1.381 . S
C802 H823 0.930 . S
C803 C802 1.381 . S
C803 C805 1.381 . S
C803 C806 1.487 . S
C804 C801 1.382 . S
C804 C805 1.387 . S
C804 H824 0.930 . S
C805 C803 1.381 . S
C805 C804 1.387 . S
C805 H825 0.931 . S
C806 C803 1.487 . S
C806 C813 1.399 . S
C806 N831 1.343 . S
C807 C808 1.384 . S
C807 C809 1.384 . S
C807 H826 0.931 . S
C808 C807 1.384 . S
C808 C811 1.382 . S
C809 C807 1.384 . S
C809 C810 1.381 . S
C809 H827 0.930 . S
C810 C809 1.381 . S
C810 C812 1.381 . S
C810 C813 1.487 . S
C811 C808 1.382 . S
C811 C812 1.387 . S
C811 H828 0.930 . S
C812 C810 1.381 . S
C812 C811 1.387 . S
C812 H829 0.931 . S
C813 C806 1.399 . S
C813 C810 1.487 . S
C813 N830 1.343 . S
H814 C786 0.931 . S
H815 C788 0.930 . S
H816 C790 0.930 . S
H817 C791 0.931 . S
H818 C793 0.931 . S
H819 C795 0.930 . S
H820 C797 0.930 . S
H821 C798 0.931 . S
H822 C800 0.931 . S
H823 C802 0.930 . S
H824 C804 0.930 . S
H825 C805 0.931 . S
H826 C807 0.931 . S
H827 C809 0.930 . S
H828 C811 0.930 . S
H829 C812 0.931 . S
N830 C792 1.343 . S
N830 C813 1.343 . S
N831 C799 1.343 . S
N831 C806 1.343 . S
C832 C833 1.384 . S
C832 C834 1.384 . S
C832 H860 0.931 . S
C833 C832 1.384 . S
C833 C836 1.382 . S
C834 C832 1.384 . S
C834 C835 1.381 . S
C834 H861 0.930 . S
C835 C834 1.381 . S
C835 C837 1.381 . S
C835 C838 1.487 . S
C836 C833 1.382 . S
C836 C837 1.387 . S
C836 H862 0.930 . S
C837 C835 1.381 . S
C837 C836 1.387 . S
C837 H863 0.931 . S
C838 C835 1.487 . S
C838 C845 1.399 . S
C838 N876 1.343 . S
C839 C840 1.384 . S
C839 C841 1.384 . S
C839 H864 0.931 . S
C840 C839 1.384 . S
C840 C843 1.382 . S
C841 C839 1.384 . S
C841 C842 1.381 . S
C841 H865 0.930 . S
C842 C841 1.381 . S
C842 C844 1.381 . S
C842 C845 1.487 . S
C843 C840 1.382 . S
C843 C844 1.387 . S
C843 H866 0.930 . S
C844 C842 1.381 . S
C844 C843 1.387 . S
C844 H867 0.931 . S
C845 C838 1.399 . S
C845 C842 1.487 . S
C845 N877 1.343 . S
C846 C847 1.384 . S
C846 C848 1.384 . S
C846 H868 0.931 . S
C847 C846 1.384 . S
C847 C850 1.382 . S
C848 C846 1.384 . S
C848 C849 1.381 . S
C848 H869 0.930 . S
C849 C848 1.381 . S
C849 C851 1.381 . S
C849 C852 1.487 . S
C850 C847 1.382 . S
C850 C851 1.387 . S
C850 H870 0.930 . S
C851 C849 1.381 . S
C851 C850 1.387 . S
C851 H871 0.931 . S
C852 C849 1.487 . S
C852 C859 1.399 . S
C852 N877 1.343 . S
C853 C854 1.384 . S
C853 C855 1.384 . S
C853 H872 0.931 . S
C854 C853 1.384 . S
C854 C857 1.382 . S
C855 C853 1.384 . S
C855 C856 1.381 . S
C855 H873 0.930 . S
C856 C855 1.381 . S
C856 C858 1.381 . S
C856 C859 1.487 . S
C857 C854 1.382 . S
C857 C858 1.387 . S
C857 H874 0.930 . S
C858 C856 1.381 . S
C858 C857 1.387 . S
C858 H875 0.931 . S
C859 C852 1.399 . S
C859 C856 1.487 . S
C859 N876 1.343 . S
H860 C832 0.931 . S
H861 C834 0.930 . S
H862 C836 0.930 . S
H863 C837 0.931 . S
H864 C839 0.931 . S
H865 C841 0.930 . S
H866 C843 0.930 . S
H867 C844 0.931 . S
H868 C846 0.931 . S
H869 C848 0.930 . S
H870 C850 0.930 . S
H871 C851 0.931 . S
H872 C853 0.931 . S
H873 C855 0.930 . S
H874 C857 0.930 . S
H875 C858 0.931 . S
N876 C838 1.343 . S
N876 C859 1.343 . S
N877 C845 1.343 . S
N877 C852 1.343 . S
C878 C879 1.384 . S
C878 C880 1.384 . S
C878 H906 0.931 . S
C879 C878 1.384 . S
C879 C882 1.382 . S
C880 C878 1.384 . S
C880 C881 1.381 . S
C880 H907 0.930 . S
C881 C880 1.381 . S
C881 C883 1.381 . S
C881 C884 1.487 . S
C882 C879 1.382 . S
C882 C883 1.387 . S
C882 H908 0.930 . S
C883 C881 1.381 . S
C883 C882 1.387 . S
C883 H909 0.931 . S
C884 C881 1.487 . S
C884 C891 1.399 . S
C884 N922 1.343 . S
C885 C886 1.384 . S
C885 C887 1.384 . S
C885 H910 0.931 . S
C886 C885 1.384 . S
C886 C889 1.382 . S
C887 C885 1.384 . S
C887 C888 1.381 . S
C887 H911 0.930 . S
C888 C887 1.381 . S
C888 C890 1.381 . S
C888 C891 1.487 . S
C889 C886 1.382 . S
C889 C890 1.387 . S
C889 H912 0.930 . S
C890 C888 1.381 . S
C890 C889 1.387 . S
C890 H913 0.931 . S
C891 C884 1.399 . S
C891 C888 1.487 . S
C891 N923 1.343 . S
C892 C893 1.384 . S
C892 C894 1.384 . S
C892 H914 0.931 . S
C893 C892 1.384 . S
C893 C896 1.382 . S
C894 C892 1.384 . S
C894 C895 1.381 . S
C894 H915 0.930 . S
C895 C894 1.381 . S
C895 C897 1.381 . S
C895 C898 1.487 . S
C896 C893 1.382 . S
C896 C897 1.387 . S
C896 H916 0.930 . S
C897 C895 1.381 . S
C897 C896 1.387 . S
C897 H917 0.931 . S
C898 C895 1.487 . S
C898 C905 1.399 . S
C898 N923 1.343 . S
C899 C900 1.384 . S
C899 C901 1.384 . S
C899 H918 0.931 . S
C900 C899 1.384 . S
C900 C903 1.382 . S
C901 C899 1.384 . S
C901 C902 1.381 . S
C901 H919 0.930 . S
C902 C901 1.381 . S
C902 C904 1.381 . S
C902 C905 1.487 . S
C903 C900 1.382 . S
C903 C904 1.387 . S
C903 H920 0.930 . S
C904 C902 1.381 . S
C904 C903 1.387 . S
C904 H921 0.931 . S
C905 C898 1.399 . S
C905 C902 1.487 . S
C905 N922 1.343 . S
H906 C878 0.931 . S
H907 C880 0.930 . S
H908 C882 0.930 . S
H909 C883 0.931 . S
H910 C885 0.931 . S
H911 C887 0.930 . S
H912 C889 0.930 . S
H913 C890 0.931 . S
H914 C892 0.931 . S
H915 C894 0.930 . S
H916 C896 0.930 . S
H917 C897 0.931 . S
H918 C899 0.931 . S
H919 C901 0.930 . S
H920 C903 0.930 . S
H921 C904 0.931 . S
N922 C884 1.343 . S
N922 C905 1.343 . S
N923 C891 1.343 . S
N923 C898 1.343 . S
C924 C925 1.384 . S
C924 C926 1.384 . S
C924 H952 0.931 . S
C925 C924 1.384 . S
C925 C928 1.382 . S
C926 C924 1.384 . S
C926 C927 1.381 . S
C926 H953 0.930 . S
C927 C926 1.381 . S
C927 C929 1.381 . S
C927 C930 1.487 . S
C928 C925 1.382 . S
C928 C929 1.387 . S
C928 H954 0.930 . S
C929 C927 1.381 . S
C929 C928 1.387 . S
C929 H955 0.931 . S
C930 C927 1.487 . S
C930 C937 1.399 . S
C930 N968 1.343 . S
C931 C932 1.384 . S
C931 C933 1.384 . S
C931 H956 0.931 . S
C932 C931 1.384 . S
C932 C935 1.382 . S
C933 C931 1.384 . S
C933 C934 1.381 . S
C933 H957 0.930 . S
C934 C933 1.381 . S
C934 C936 1.381 . S
C934 C937 1.487 . S
C935 C932 1.382 . S
C935 C936 1.387 . S
C935 H958 0.930 . S
C936 C934 1.381 . S
C936 C935 1.387 . S
C936 H959 0.931 . S
C937 C930 1.399 . S
C937 C934 1.487 . S
C937 N969 1.343 . S
C938 C939 1.384 . S
C938 C940 1.384 . S
C938 H960 0.931 . S
C939 C938 1.384 . S
C939 C942 1.382 . S
C940 C938 1.384 . S
C940 C941 1.381 . S
C940 H961 0.930 . S
C941 C940 1.381 . S
C941 C943 1.381 . S
C941 C944 1.487 . S
C942 C939 1.382 . S
C942 C943 1.387 . S
C942 H962 0.930 . S
C943 C941 1.381 . S
C943 C942 1.387 . S
C943 H963 0.931 . S
C944 C941 1.487 . S
C944 C951 1.399 . S
C944 N969 1.343 . S
C945 C946 1.384 . S
C945 C947 1.384 . S
C945 H964 0.931 . S
C946 C945 1.384 . S
C946 C949 1.382 . S
C947 C945 1.384 . S
C947 C948 1.381 . S
C947 H965 0.930 . S
C948 C947 1.381 . S
C948 C950 1.381 . S
C948 C951 1.487 . S
C949 C946 1.382 . S
C949 C950 1.387 . S
C949 H966 0.930 . S
C950 C948 1.381 . S
C950 C949 1.387 . S
C950 H967 0.931 . S
C951 C944 1.399 . S
C951 C948 1.487 . S
C951 N968 1.343 . S
H952 C924 0.931 . S
H953 C926 0.930 . S
H954 C928 0.930 . S
H955 C929 0.931 . S
H956 C931 0.931 . S
H957 C933 0.930 . S
H958 C935 0.930 . S
H959 C936 0.931 . S
H960 C938 0.931 . S
H961 C940 0.930 . S
H962 C942 0.930 . S
H963 C943 0.931 . S
H964 C945 0.931 . S
H965 C947 0.930 . S
H966 C949 0.930 . S
H967 C950 0.931 . S
N968 C930 1.343 . S
N968 C951 1.343 . S
N969 C937 1.343 . S
N969 C944 1.343 . S
C970 C971 1.384 . S
C970 C972 1.384 . S
C970 H998 0.931 . S
C971 C970 1.384 . S
C971 C974 1.382 . S
C972 C970 1.384 . S
C972 C973 1.381 . S
C972 H999 0.930 . S
C973 C972 1.381 . S
C973 C975 1.381 . S
C973 C976 1.487 . S
C974 C971 1.382 . S
C974 C975 1.387 . S
C974 H1000 0.930 . S
C975 C973 1.381 . S
C975 C974 1.387 . S
C975 H1001 0.931 . S
C976 C973 1.487 . S
C976 C983 1.399 . S
C976 N1014 1.343 . S
C977 C978 1.384 . S
C977 C979 1.384 . S
C977 H1002 0.931 . S
C978 C977 1.384 . S
C978 C981 1.382 . S
C979 C977 1.384 . S
C979 C980 1.381 . S
C979 H1003 0.930 . S
C980 C979 1.381 . S
C980 C982 1.381 . S
C980 C983 1.487 . S
C981 C978 1.382 . S
C981 C982 1.387 . S
C981 H1004 0.930 . S
C982 C980 1.381 . S
C982 C981 1.387 . S
C982 H1005 0.931 . S
C983 C976 1.399 . S
C983 C980 1.487 . S
C983 N1015 1.343 . S
C984 C985 1.384 . S
C984 C986 1.384 . S
C984 H1006 0.931 . S
C985 C984 1.384 . S
C985 C988 1.382 . S
C986 C984 1.384 . S
C986 C987 1.381 . S
C986 H1007 0.930 . S
C987 C986 1.381 . S
C987 C989 1.381 . S
C987 C990 1.487 . S
C988 C985 1.382 . S
C988 C989 1.387 . S
C988 H1008 0.930 . S
C989 C987 1.381 . S
C989 C988 1.387 . S
C989 H1009 0.931 . S
C990 C987 1.487 . S
C990 C997 1.399 . S
C990 N1015 1.343 . S
C991 C992 1.384 . S
C991 C993 1.384 . S
C991 H1010 0.931 . S
C992 C991 1.384 . S
C992 C995 1.382 . S
C993 C991 1.384 . S
C993 C994 1.381 . S
C993 H1011 0.930 . S
C994 C993 1.381 . S
C994 C996 1.381 . S
C994 C997 1.487 . S
C995 C992 1.382 . S
C995 C996 1.387 . S
C995 H1012 0.930 . S
C996 C994 1.381 . S
C996 C995 1.387 . S
C996 H1013 0.931 . S
C997 C990 1.399 . S
C997 C994 1.487 . S
C997 N1014 1.343 . S
H998 C970 0.931 . S
H999 C972 0.930 . S
H1000 C974 0.930 . S
H1001 C975 0.931 . S
H1002 C977 0.931 . S
H1003 C979 0.930 . S
H1004 C981 0.930 . S
H1005 C982 0.931 . S
H1006 C984 0.931 . S
H1007 C986 0.930 . S
H1008 C988 0.930 . S
H1009 C989 0.931 . S
H1010 C991 0.931 . S
H1011 C993 0.930 . S
H1012 C995 0.930 . S
H1013 C996 0.931 . S
N1014 C976 1.343 . S
N1014 C997 1.343 . S
N1015 C983 1.343 . S
N1015 C990 1.343 . S
C1016 C1017 1.384 . S
C1016 C1018 1.384 . S
C1016 H1044 0.931 . S
C1017 C1016 1.384 . S
C1017 C1020 1.382 . S
C1018 C1016 1.384 . S
C1018 C1019 1.381 . S
C1018 H1045 0.930 . S
C1019 C1018 1.381 . S
C1019 C1021 1.381 . S
C1019 C1022 1.487 . S
C1020 C1017 1.382 . S
C1020 C1021 1.387 . S
C1020 H1046 0.930 . S
C1021 C1019 1.381 . S
C1021 C1020 1.387 . S
C1021 H1047 0.931 . S
C1022 C1019 1.487 . S
C1022 C1029 1.399 . S
C1022 N1060 1.343 . S
C1023 C1024 1.384 . S
C1023 C1025 1.384 . S
C1023 H1048 0.931 . S
C1024 C1023 1.384 . S
C1024 C1027 1.382 . S
C1025 C1023 1.384 . S
C1025 C1026 1.381 . S
C1025 H1049 0.930 . S
C1026 C1025 1.381 . S
C1026 C1028 1.381 . S
C1026 C1029 1.487 . S
C1027 C1024 1.382 . S
C1027 C1028 1.387 . S
C1027 H1050 0.930 . S
C1028 C1026 1.381 . S
C1028 C1027 1.387 . S
C1028 H1051 0.931 . S
C1029 C1022 1.399 . S
C1029 C1026 1.487 . S
C1029 N1061 1.343 . S
C1030 C1031 1.384 . S
C1030 C1032 1.384 . S
C1030 H1052 0.931 . S
C1031 C1030 1.384 . S
C1031 C1034 1.382 . S
C1032 C1030 1.384 . S
C1032 C1033 1.381 . S
C1032 H1053 0.930 . S
C1033 C1032 1.381 . S
C1033 C1035 1.381 . S
C1033 C1036 1.487 . S
C1034 C1031 1.382 . S
C1034 C1035 1.387 . S
C1034 H1054 0.930 . S
C1035 C1033 1.381 . S
C1035 C1034 1.387 . S
C1035 H1055 0.931 . S
C1036 C1033 1.487 . S
C1036 C1043 1.399 . S
C1036 N1061 1.343 . S
C1037 C1038 1.384 . S
C1037 C1039 1.384 . S
C1037 H1056 0.931 . S
C1038 C1037 1.384 . S
C1038 C1041 1.382 . S
C1039 C1037 1.384 . S
C1039 C1040 1.381 . S
C1039 H1057 0.930 . S
C1040 C1039 1.381 . S
C1040 C1042 1.381 . S
C1040 C1043 1.487 . S
C1041 C1038 1.382 . S
C1041 C1042 1.387 . S
C1041 H1058 0.930 . S
C1042 C1040 1.381 . S
C1042 C1041 1.387 . S
C1042 H1059 0.931 . S
C1043 C1036 1.399 . S
C1043 C1040 1.487 . S
C1043 N1060 1.343 . S
H1044 C1016 0.931 . S
H1045 C1018 0.930 . S
H1046 C1020 0.930 . S
H1047 C1021 0.931 . S
H1048 C1023 0.931 . S
H1049 C1025 0.930 . S
H1050 C1027 0.930 . S
H1051 C1028 0.931 . S
H1052 C1030 0.931 . S
H1053 C1032 0.930 . S
H1054 C1034 0.930 . S
H1055 C1035 0.931 . S
H1056 C1037 0.931 . S
H1057 C1039 0.930 . S
H1058 C1041 0.930 . S
H1059 C1042 0.931 . S
N1060 C1022 1.343 . S
N1060 C1043 1.343 . S
N1061 C1029 1.343 . S
N1061 C1036 1.343 . S
C1062 C1063 1.384 . S
C1062 C1064 1.384 . S
C1062 H1090 0.931 . S
C1063 C1062 1.384 . S
C1063 C1066 1.382 1_655 S
C1064 C1062 1.384 . S
C1064 C1065 1.388 1_655 S
C1064 H1091 0.930 . S
C1065 C1064 1.388 1_455 S
C1065 C1067 1.378 . S
C1065 C1068 1.474 . S
C1066 C1063 1.382 1_455 S
C1066 C1067 1.387 . S
C1066 H1092 0.930 . S
C1067 C1065 1.378 . S
C1067 C1066 1.387 . S
C1067 H1093 0.931 . S
C1068 C1065 1.474 . S
C1068 C1075 1.398 1_455 S
C1068 N1106 1.319 . S
C1069 C1070 1.384 . S
C1069 C1071 1.384 . S
C1069 H1094 0.931 . S
C1070 C1069 1.384 . S
C1070 C1073 1.382 1_455 S
C1071 C1069 1.384 . S
C1071 C1072 1.384 . S
C1071 H1095 0.930 . S
C1072 C1071 1.384 . S
C1072 C1074 1.374 1_455 S
C1072 C1075 1.492 1_455 S
C1073 C1070 1.382 1_655 S
C1073 C1074 1.387 . S
C1073 H1096 0.930 . S
C1074 C1072 1.374 1_655 S
C1074 C1073 1.387 . S
C1074 H1097 0.931 . S
C1075 C1068 1.398 1_655 S
C1075 C1072 1.492 1_655 S
C1075 N1107 1.367 . S
C1076 C1077 1.384 . S
C1076 C1078 1.384 . S
C1076 H1098 0.931 . S
C1077 C1076 1.384 . S
C1077 C1080 1.382 1_455 S
C1078 C1076 1.384 . S
C1078 C1079 1.388 . S
C1078 H1099 0.930 . S
C1079 C1078 1.388 . S
C1079 C1081 1.378 1_455 S
C1079 C1082 1.483 1_455 S
C1080 C1077 1.382 1_655 S
C1080 C1081 1.387 . S
C1080 H1100 0.930 . S
C1081 C1079 1.378 1_655 S
C1081 C1080 1.387 . S
C1081 H1101 0.931 . S
C1082 C1079 1.483 1_655 S
C1082 C1089 1.398 1_655 S
C1082 N1107 1.319 . S
C1083 C1084 1.384 . S
C1083 C1085 1.384 . S
C1083 H1102 0.931 . S
C1084 C1083 1.384 . S
C1084 C1087 1.382 1_655 S
C1085 C1083 1.384 . S
C1085 C1086 1.380 . S
C1085 H1103 0.930 . S
C1086 C1085 1.380 . S
C1086 C1088 1.386 1_655 S
C1086 C1089 1.492 1_655 S
C1087 C1084 1.382 1_455 S
C1087 C1088 1.387 . S
C1087 H1104 0.930 . S
C1088 C1086 1.386 1_455 S
C1088 C1087 1.387 . S
C1088 H1105 0.931 . S
C1089 C1082 1.398 1_455 S
C1089 C1086 1.492 1_455 S
C1089 N1106 1.367 . S
H1090 C1062 0.931 . S
H1091 C1064 0.930 . S
H1092 C1066 0.930 . S
H1093 C1067 0.931 . S
H1094 C1069 0.931 . S
H1095 C1071 0.930 . S
H1096 C1073 0.930 . S
H1097 C1074 0.931 . S
H1098 C1076 0.931 . S
H1099 C1078 0.930 . S
H1100 C1080 0.930 . S
H1101 C1081 0.931 . S
H1102 C1083 0.931 . S
H1103 C1085 0.930 . S
H1104 C1087 0.930 . S
H1105 C1088 0.931 . S
N1106 C1068 1.319 . S
N1106 C1089 1.367 . S
N1107 C1075 1.367 . S
N1107 C1082 1.319 . S
C1108 C1109 1.384 . S
C1108 C1110 1.384 . S
C1108 H1136 0.931 . S
C1109 C1108 1.384 . S
C1109 C1112 1.382 . S
C1110 C1108 1.384 . S
C1110 C1111 1.381 . S
C1110 H1137 0.930 . S
C1111 C1110 1.381 . S
C1111 C1113 1.381 . S
C1111 C1114 1.487 . S
C1112 C1109 1.382 . S
C1112 C1113 1.387 . S
C1112 H1138 0.930 . S
C1113 C1111 1.381 . S
C1113 C1112 1.387 . S
C1113 H1139 0.931 . S
C1114 C1111 1.487 . S
C1114 C1121 1.399 . S
C1114 N1152 1.343 . S
C1115 C1116 1.384 . S
C1115 C1117 1.384 . S
C1115 H1140 0.931 . S
C1116 C1115 1.384 . S
C1116 C1119 1.382 . S
C1117 C1115 1.384 . S
C1117 C1118 1.381 . S
C1117 H1141 0.930 . S
C1118 C1117 1.381 . S
C1118 C1120 1.381 . S
C1118 C1121 1.487 . S
C1119 C1116 1.382 . S
C1119 C1120 1.387 . S
C1119 H1142 0.930 . S
C1120 C1118 1.381 . S
C1120 C1119 1.387 . S
C1120 H1143 0.931 . S
C1121 C1114 1.399 . S
C1121 C1118 1.487 . S
C1121 N1153 1.343 . S
C1122 C1123 1.384 . S
C1122 C1124 1.384 . S
C1122 H1144 0.931 . S
C1123 C1122 1.384 . S
C1123 C1126 1.382 . S
C1124 C1122 1.384 . S
C1124 C1125 1.381 . S
C1124 H1145 0.930 . S
C1125 C1124 1.381 . S
C1125 C1127 1.381 . S
C1125 C1128 1.487 . S
C1126 C1123 1.382 . S
C1126 C1127 1.387 . S
C1126 H1146 0.930 . S
C1127 C1125 1.381 . S
C1127 C1126 1.387 . S
C1127 H1147 0.931 . S
C1128 C1125 1.487 . S
C1128 C1135 1.399 . S
C1128 N1153 1.343 . S
C1129 C1130 1.384 . S
C1129 C1131 1.384 . S
C1129 H1148 0.931 . S
C1130 C1129 1.384 . S
C1130 C1133 1.382 . S
C1131 C1129 1.384 . S
C1131 C1132 1.381 . S
C1131 H1149 0.930 . S
C1132 C1131 1.381 . S
C1132 C1134 1.381 . S
C1132 C1135 1.487 . S
C1133 C1130 1.382 . S
C1133 C1134 1.387 . S
C1133 H1150 0.930 . S
C1134 C1132 1.381 . S
C1134 C1133 1.387 . S
C1134 H1151 0.931 . S
C1135 C1128 1.399 . S
C1135 C1132 1.487 . S
C1135 N1152 1.343 . S
H1136 C1108 0.931 . S
H1137 C1110 0.930 . S
H1138 C1112 0.930 . S
H1139 C1113 0.931 . S
H1140 C1115 0.931 . S
H1141 C1117 0.930 . S
H1142 C1119 0.930 . S
H1143 C1120 0.931 . S
H1144 C1122 0.931 . S
H1145 C1124 0.930 . S
H1146 C1126 0.930 . S
H1147 C1127 0.931 . S
H1148 C1129 0.931 . S
H1149 C1131 0.930 . S
H1150 C1133 0.930 . S
H1151 C1134 0.931 . S
N1152 C1114 1.343 . S
N1152 C1135 1.343 . S
N1153 C1121 1.343 . S
N1153 C1128 1.343 . S
C1154 C1155 1.384 1_545 S
C1154 C1156 1.384 . S
C1154 H1182 0.931 . S
C1155 C1154 1.384 1_565 S
C1155 C1158 1.382 . S
C1156 C1154 1.384 . S
C1156 C1157 1.381 1_545 S
C1156 H1183 0.930 . S
C1157 C1156 1.381 1_565 S
C1157 C1159 1.381 . S
C1157 C1160 1.487 . S
C1158 C1155 1.382 . S
C1158 C1159 1.387 . S
C1158 H1184 0.930 . S
C1159 C1157 1.381 . S
C1159 C1158 1.387 . S
C1159 H1185 0.931 . S
C1160 C1157 1.487 . S
C1160 C1167 1.399 1_565 S
C1160 N1198 1.343 . S
C1161 C1162 1.384 1_565 S
C1161 C1163 1.384 . S
C1161 H1186 0.931 . S
C1162 C1161 1.384 1_545 S
C1162 C1165 1.382 . S
C1163 C1161 1.384 . S
C1163 C1164 1.381 1_565 S
C1163 H1187 0.930 . S
C1164 C1163 1.381 1_545 S
C1164 C1166 1.381 . S
C1164 C1167 1.487 . S
C1165 C1162 1.382 . S
C1165 C1166 1.387 . S
C1165 H1188 0.930 . S
C1166 C1164 1.381 . S
C1166 C1165 1.387 . S
C1166 H1189 0.931 . S
C1167 C1160 1.399 1_545 S
C1167 C1164 1.487 . S
C1167 N1199 1.343 . S
C1168 C1169 1.384 1_565 S
C1168 C1170 1.384 . S
C1168 H1190 0.931 . S
C1169 C1168 1.384 1_545 S
C1169 C1172 1.382 . S
C1170 C1168 1.384 . S
C1170 C1171 1.381 1_565 S
C1170 H1191 0.930 . S
C1171 C1170 1.381 1_545 S
C1171 C1173 1.381 . S
C1171 C1174 1.455 . S
C1172 C1169 1.382 . S
C1172 C1173 1.387 . S
C1172 H1192 0.930 . S
C1173 C1171 1.381 . S
C1173 C1172 1.387 . S
C1173 H1193 0.931 . S
C1174 C1171 1.455 . S
C1174 C1181 1.390 1_545 S
C1174 N1199 1.393 . S
C1175 C1176 1.384 1_545 S
C1175 C1177 1.384 . S
C1175 H1194 0.931 . S
C1176 C1175 1.384 1_565 S
C1176 C1179 1.382 . S
C1177 C1175 1.384 . S
C1177 C1178 1.381 1_545 S
C1177 H1195 0.930 . S
C1178 C1177 1.381 1_565 S
C1178 C1180 1.381 . S
C1178 C1181 1.487 . S
C1179 C1176 1.382 . S
C1179 C1180 1.387 . S
C1179 H1196 0.930 . S
C1180 C1178 1.381 . S
C1180 C1179 1.387 . S
C1180 H1197 0.931 . S
C1181 C1174 1.390 1_565 S
C1181 C1178 1.487 . S
C1181 N1198 1.343 . S
H1182 C1154 0.931 . S
H1183 C1156 0.930 . S
H1184 C1158 0.930 . S
H1185 C1159 0.931 . S
H1186 C1161 0.931 . S
H1187 C1163 0.930 . S
H1188 C1165 0.930 . S
H1189 C1166 0.931 . S
H1190 C1168 0.931 . S
H1191 C1170 0.930 . S
H1192 C1172 0.930 . S
H1193 C1173 0.931 . S
H1194 C1175 0.931 . S
H1195 C1177 0.930 . S
H1196 C1179 0.930 . S
H1197 C1180 0.931 . S
N1198 C1160 1.343 . S
N1198 C1181 1.343 . S
N1199 C1167 1.343 . S
N1199 C1174 1.393 . S
C1200 C1201 1.384 . S
C1200 C1202 1.384 . S
C1200 H1228 0.931 . S
C1201 C1200 1.384 . S
C1201 C1204 1.382 1_545 S
C1202 C1200 1.384 . S
C1202 C1203 1.386 . S
C1202 H1229 0.930 . S
C1203 C1202 1.386 . S
C1203 C1205 1.370 1_545 S
C1203 C1206 1.494 1_545 S
C1204 C1201 1.382 1_565 S
C1204 C1205 1.387 . S
C1204 H1230 0.930 . S
C1205 C1203 1.370 1_565 S
C1205 C1204 1.387 . S
C1205 H1231 0.931 . S
C1206 C1203 1.494 1_565 S
C1206 C1213 1.399 1_565 S
C1206 N1244 1.366 . S
C1207 C1208 1.384 . S
C1207 C1209 1.384 . S
C1207 H1232 0.931 . S
C1208 C1207 1.384 . S
C1208 C1211 1.382 1_565 S
C1209 C1207 1.384 . S
C1209 C1210 1.374 . S
C1209 H1233 0.930 . S
C1210 C1209 1.374 . S
C1210 C1212 1.385 1_565 S
C1210 C1213 1.482 1_565 S
C1211 C1208 1.382 1_545 S
C1211 C1212 1.387 . S
C1211 H1234 0.930 . S
C1212 C1210 1.385 1_545 S
C1212 C1211 1.387 . S
C1212 H1235 0.931 . S
C1213 C1206 1.399 1_545 S
C1213 C1210 1.482 1_545 S
C1213 N1245 1.320 . S
C1214 C1215 1.384 . S
C1214 C1216 1.384 . S
C1214 H1236 0.931 . S
C1215 C1214 1.384 . S
C1215 C1218 1.382 1_565 S
C1216 C1214 1.384 . S
C1216 C1217 1.381 . S
C1216 H1237 0.930 . S
C1217 C1216 1.381 . S
C1217 C1219 1.382 1_565 S
C1217 C1220 1.494 1_565 S
C1218 C1215 1.382 1_545 S
C1218 C1219 1.387 . S
C1218 H1238 0.930 . S
C1219 C1217 1.382 1_545 S
C1219 C1218 1.387 . S
C1219 H1239 0.931 . S
C1220 C1217 1.494 1_545 S
C1220 C1227 1.399 1_545 S
C1220 N1245 1.366 . S
C1221 C1222 1.384 . S
C1221 C1223 1.384 . S
C1221 H1240 0.931 . S
C1222 C1221 1.384 . S
C1222 C1225 1.382 1_545 S
C1223 C1221 1.384 . S
C1223 C1224 1.394 . S
C1223 H1241 0.930 . S
C1224 C1223 1.394 . S
C1224 C1226 1.375 1_545 S
C1224 C1227 1.482 1_545 S
C1225 C1222 1.382 1_565 S
C1225 C1226 1.387 . S
C1225 H1242 0.930 . S
C1226 C1224 1.375 1_565 S
C1226 C1225 1.387 . S
C1226 H1243 0.931 . S
C1227 C1220 1.399 1_565 S
C1227 C1224 1.482 1_565 S
C1227 N1244 1.320 . S
H1228 C1200 0.931 . S
H1229 C1202 0.930 . S
H1230 C1204 0.930 . S
H1231 C1205 0.931 . S
H1232 C1207 0.931 . S
H1233 C1209 0.930 . S
H1234 C1211 0.930 . S
H1235 C1212 0.931 . S
H1236 C1214 0.931 . S
H1237 C1216 0.930 . S
H1238 C1218 0.930 . S
H1239 C1219 0.931 . S
H1240 C1221 0.931 . S
H1241 C1223 0.930 . S
H1242 C1225 0.930 . S
H1243 C1226 0.931 . S
N1244 C1206 1.366 . S
N1244 C1227 1.320 . S
N1245 C1213 1.320 . S
N1245 C1220 1.366 . S
C1246 C1247 1.384 . S
C1246 C1248 1.384 . S
C1246 H1274 0.931 . S
C1247 C1246 1.384 . S
C1247 C1250 1.382 1_655 S
C1248 C1246 1.384 . S
C1248 C1249 1.404 . S
C1248 H1275 0.930 . S
C1249 C1248 1.404 . S
C1249 C1251 1.369 1_655 S
C1249 C1252 1.479 1_655 S
C1250 C1247 1.382 1_455 S
C1250 C1251 1.387 . S
C1250 H1276 0.930 . S
C1251 C1249 1.369 1_455 S
C1251 C1250 1.387 . S
C1251 H1277 0.931 . S
C1252 C1249 1.479 1_455 S
C1252 C1259 1.399 1_455 S
C1252 N1290 1.323 . S
C1253 C1254 1.384 . S
C1253 C1255 1.384 . S
C1253 H1278 0.931 . S
C1254 C1253 1.384 . S
C1254 C1257 1.382 1_455 S
C1255 C1253 1.384 . S
C1255 C1256 1.385 . S
C1255 H1279 0.930 . S
C1256 C1255 1.385 . S
C1256 C1258 1.373 1_455 S
C1256 C1259 1.497 1_455 S
C1257 C1254 1.382 1_655 S
C1257 C1258 1.387 . S
C1257 H1280 0.930 . S
C1258 C1256 1.373 1_655 S
C1258 C1257 1.387 . S
C1258 H1281 0.931 . S
C1259 C1252 1.399 1_655 S
C1259 C1256 1.497 1_655 S
C1259 N1291 1.364 . S
C1260 C1261 1.384 . S
C1260 C1262 1.384 . S
C1260 H1282 0.931 . S
C1261 C1260 1.384 . S
C1261 C1264 1.382 1_455 S
C1262 C1260 1.384 . S
C1262 C1263 1.384 . S
C1262 H1283 0.930 . S
C1263 C1262 1.384 . S
C1263 C1265 1.380 1_455 S
C1263 C1266 1.479 1_455 S
C1264 C1261 1.382 1_655 S
C1264 C1265 1.387 . S
C1264 H1284 0.930 . S
C1265 C1263 1.380 1_655 S
C1265 C1264 1.387 . S
C1265 H1285 0.931 . S
C1266 C1263 1.479 1_655 S
C1266 C1273 1.399 . S
C1266 N1291 1.323 . S
C1267 C1268 1.384 . S
C1267 C1269 1.384 . S
C1267 H1286 0.931 . S
C1268 C1267 1.384 . S
C1268 C1271 1.382 1_655 S
C1269 C1267 1.384 . S
C1269 C1270 1.390 . S
C1269 H1287 0.930 . S
C1270 C1269 1.390 . S
C1270 C1272 1.361 1_655 S
C1270 C1273 1.506 . S
C1271 C1268 1.382 1_455 S
C1271 C1272 1.387 . S
C1271 H1288 0.930 . S
C1272 C1270 1.361 1_455 S
C1272 C1271 1.387 . S
C1272 H1289 0.931 . S
C1273 C1266 1.399 . S
C1273 C1270 1.506 . S
C1273 N1290 1.355 1_655 S
H1274 C1246 0.931 . S
H1275 C1248 0.930 . S
H1276 C1250 0.930 . S
H1277 C1251 0.931 . S
H1278 C1253 0.931 . S
H1279 C1255 0.930 . S
H1280 C1257 0.930 . S
H1281 C1258 0.931 . S
H1282 C1260 0.931 . S
H1283 C1262 0.930 . S
H1284 C1264 0.930 . S
H1285 C1265 0.931 . S
H1286 C1267 0.931 . S
H1287 C1269 0.930 . S
H1288 C1271 0.930 . S
H1289 C1272 0.931 . S
N1290 C1252 1.323 . S
N1290 C1273 1.355 1_455 S
N1291 C1259 1.364 . S
N1291 C1266 1.323 . S
C1292 C1293 1.384 . S
C1292 C1294 1.384 . S
C1292 H1320 0.931 . S
C1293 C1292 1.384 . S
C1293 C1296 1.382 . S
C1294 C1292 1.384 . S
C1294 C1295 1.381 . S
C1294 H1321 0.930 . S
C1295 C1294 1.381 . S
C1295 C1297 1.381 . S
C1295 C1298 1.487 . S
C1296 C1293 1.382 . S
C1296 C1297 1.387 . S
C1296 H1322 0.930 . S
C1297 C1295 1.381 . S
C1297 C1296 1.387 . S
C1297 H1323 0.931 . S
C1298 C1295 1.487 . S
C1298 C1305 1.399 . S
C1298 N1336 1.343 . S
C1299 C1300 1.384 . S
C1299 C1301 1.384 . S
C1299 H1324 0.931 . S
C1300 C1299 1.384 . S
C1300 C1303 1.382 . S
C1301 C1299 1.384 . S
C1301 C1302 1.381 . S
C1301 H1325 0.930 . S
C1302 C1301 1.381 . S
C1302 C1304 1.381 . S
C1302 C1305 1.487 . S
C1303 C1300 1.382 . S
C1303 C1304 1.387 . S
C1303 H1326 0.930 . S
C1304 C1302 1.381 . S
C1304 C1303 1.387 . S
C1304 H1327 0.931 . S
C1305 C1298 1.399 . S
C1305 C1302 1.487 . S
C1305 N1337 1.343 . S
C1306 C1307 1.384 . S
C1306 C1308 1.384 . S
C1306 H1328 0.931 . S
C1307 C1306 1.384 . S
C1307 C1310 1.382 . S
C1308 C1306 1.384 . S
C1308 C1309 1.381 . S
C1308 H1329 0.930 . S
C1309 C1308 1.381 . S
C1309 C1311 1.381 . S
C1309 C1312 1.487 . S
C1310 C1307 1.382 . S
C1310 C1311 1.387 . S
C1310 H1330 0.930 . S
C1311 C1309 1.381 . S
C1311 C1310 1.387 . S
C1311 H1331 0.931 . S
C1312 C1309 1.487 . S
C1312 C1319 1.399 . S
C1312 N1337 1.343 . S
C1313 C1314 1.384 . S
C1313 C1315 1.384 . S
C1313 H1332 0.931 . S
C1314 C1313 1.384 . S
C1314 C1317 1.382 . S
C1315 C1313 1.384 . S
C1315 C1316 1.381 . S
C1315 H1333 0.930 . S
C1316 C1315 1.381 . S
C1316 C1318 1.381 . S
C1316 C1319 1.487 . S
C1317 C1314 1.382 . S
C1317 C1318 1.387 . S
C1317 H1334 0.930 . S
C1318 C1316 1.381 . S
C1318 C1317 1.387 . S
C1318 H1335 0.931 . S
C1319 C1312 1.399 . S
C1319 C1316 1.487 . S
C1319 N1336 1.343 . S
H1320 C1292 0.931 . S
H1321 C1294 0.930 . S
H1322 C1296 0.930 . S
H1323 C1297 0.931 . S
H1324 C1299 0.931 . S
H1325 C1301 0.930 . S
H1326 C1303 0.930 . S
H1327 C1304 0.931 . S
H1328 C1306 0.931 . S
H1329 C1308 0.930 . S
H1330 C1310 0.930 . S
H1331 C1311 0.931 . S
H1332 C1313 0.931 . S
H1333 C1315 0.930 . S
H1334 C1317 0.930 . S
H1335 C1318 0.931 . S
N1336 C1298 1.343 . S
N1336 C1319 1.343 . S
N1337 C1305 1.343 . S
N1337 C1312 1.343 . S
C1338 C1339 1.384 . S
C1338 C1340 1.384 . S
C1338 H1366 0.931 . S
C1339 C1338 1.384 . S
C1339 C1342 1.382 . S
C1340 C1338 1.384 . S
C1340 C1341 1.381 . S
C1340 H1367 0.930 . S
C1341 C1340 1.381 . S
C1341 C1343 1.381 . S
C1341 C1344 1.487 . S
C1342 C1339 1.382 . S
C1342 C1343 1.387 . S
C1342 H1368 0.930 . S
C1343 C1341 1.381 . S
C1343 C1342 1.387 . S
C1343 H1369 0.931 . S
C1344 C1341 1.487 . S
C1344 C1351 1.399 . S
C1344 N1382 1.343 . S
C1345 C1346 1.384 . S
C1345 C1347 1.384 . S
C1345 H1370 0.931 . S
C1346 C1345 1.384 . S
C1346 C1349 1.382 . S
C1347 C1345 1.384 . S
C1347 C1348 1.381 . S
C1347 H1371 0.930 . S
C1348 C1347 1.381 . S
C1348 C1350 1.381 . S
C1348 C1351 1.487 . S
C1349 C1346 1.382 . S
C1349 C1350 1.387 . S
C1349 H1372 0.930 . S
C1350 C1348 1.381 . S
C1350 C1349 1.387 . S
C1350 H1373 0.931 . S
C1351 C1344 1.399 . S
C1351 C1348 1.487 . S
C1351 N1383 1.343 . S
C1352 C1353 1.384 . S
C1352 C1354 1.384 . S
C1352 H1374 0.931 . S
C1353 C1352 1.384 . S
C1353 C1356 1.382 . S
C1354 C1352 1.384 . S
C1354 C1355 1.381 . S
C1354 H1375 0.930 . S
C1355 C1354 1.381 . S
C1355 C1357 1.381 . S
C1355 C1358 1.487 . S
C1356 C1353 1.382 . S
C1356 C1357 1.387 . S
C1356 H1376 0.930 . S
C1357 C1355 1.381 . S
C1357 C1356 1.387 . S
C1357 H1377 0.931 . S
C1358 C1355 1.487 . S
C1358 C1365 1.399 . S
C1358 N1383 1.343 . S
C1359 C1360 1.384 . S
C1359 C1361 1.384 . S
C1359 H1378 0.931 . S
C1360 C1359 1.384 . S
C1360 C1363 1.382 . S
C1361 C1359 1.384 . S
C1361 C1362 1.381 . S
C1361 H1379 0.930 . S
C1362 C1361 1.381 . S
C1362 C1364 1.381 . S
C1362 C1365 1.487 . S
C1363 C1360 1.382 . S
C1363 C1364 1.387 . S
C1363 H1380 0.930 . S
C1364 C1362 1.381 . S
C1364 C1363 1.387 . S
C1364 H1381 0.931 . S
C1365 C1358 1.399 . S
C1365 C1362 1.487 . S
C1365 N1382 1.343 . S
H1366 C1338 0.931 . S
H1367 C1340 0.930 . S
H1368 C1342 0.930 . S
H1369 C1343 0.931 . S
H1370 C1345 0.931 . S
H1371 C1347 0.930 . S
H1372 C1349 0.930 . S
H1373 C1350 0.931 . S
H1374 C1352 0.931 . S
H1375 C1354 0.930 . S
H1376 C1356 0.930 . S
H1377 C1357 0.931 . S
H1378 C1359 0.931 . S
H1379 C1361 0.930 . S
H1380 C1363 0.930 . S
H1381 C1364 0.931 . S
N1382 C1344 1.343 . S
N1382 C1365 1.343 . S
N1383 C1351 1.343 . S
N1383 C1358 1.343 . S
C1384 C1385 1.384 . S
C1384 C1386 1.384 . S
C1384 H1412 0.931 . S
C1385 C1384 1.384 . S
C1385 C1388 1.382 . S
C1386 C1384 1.384 . S
C1386 C1387 1.381 . S
C1386 H1413 0.930 . S
C1387 C1386 1.381 . S
C1387 C1389 1.381 . S
C1387 C1390 1.487 . S
C1388 C1385 1.382 . S
C1388 C1389 1.387 . S
C1388 H1414 0.930 . S
C1389 C1387 1.381 . S
C1389 C1388 1.387 . S
C1389 H1415 0.931 . S
C1390 C1387 1.487 . S
C1390 C1397 1.399 . S
C1390 N1428 1.343 . S
C1391 C1392 1.384 . S
C1391 C1393 1.384 . S
C1391 H1416 0.931 . S
C1392 C1391 1.384 . S
C1392 C1395 1.382 . S
C1393 C1391 1.384 . S
C1393 C1394 1.381 . S
C1393 H1417 0.930 . S
C1394 C1393 1.381 . S
C1394 C1396 1.381 . S
C1394 C1397 1.487 . S
C1395 C1392 1.382 . S
C1395 C1396 1.387 . S
C1395 H1418 0.930 . S
C1396 C1394 1.381 . S
C1396 C1395 1.387 . S
C1396 H1419 0.931 . S
C1397 C1390 1.399 . S
C1397 C1394 1.487 . S
C1397 N1429 1.343 . S
C1398 C1399 1.384 . S
C1398 C1400 1.384 . S
C1398 H1420 0.931 . S
C1399 C1398 1.384 . S
C1399 C1402 1.382 . S
C1400 C1398 1.384 . S
C1400 C1401 1.381 . S
C1400 H1421 0.930 . S
C1401 C1400 1.381 . S
C1401 C1403 1.381 . S
C1401 C1404 1.487 . S
C1402 C1399 1.382 . S
C1402 C1403 1.387 . S
C1402 H1422 0.930 . S
C1403 C1401 1.381 . S
C1403 C1402 1.387 . S
C1403 H1423 0.931 . S
C1404 C1401 1.487 . S
C1404 C1411 1.399 . S
C1404 N1429 1.343 . S
C1405 C1406 1.384 . S
C1405 C1407 1.384 . S
C1405 H1424 0.931 . S
C1406 C1405 1.384 . S
C1406 C1409 1.382 . S
C1407 C1405 1.384 . S
C1407 C1408 1.381 . S
C1407 H1425 0.930 . S
C1408 C1407 1.381 . S
C1408 C1410 1.381 . S
C1408 C1411 1.487 . S
C1409 C1406 1.382 . S
C1409 C1410 1.387 . S
C1409 H1426 0.930 . S
C1410 C1408 1.381 . S
C1410 C1409 1.387 . S
C1410 H1427 0.931 . S
C1411 C1404 1.399 . S
C1411 C1408 1.487 . S
C1411 N1428 1.343 . S
H1412 C1384 0.931 . S
H1413 C1386 0.930 . S
H1414 C1388 0.930 . S
H1415 C1389 0.931 . S
H1416 C1391 0.931 . S
H1417 C1393 0.930 . S
H1418 C1395 0.930 . S
H1419 C1396 0.931 . S
H1420 C1398 0.931 . S
H1421 C1400 0.930 . S
H1422 C1402 0.930 . S
H1423 C1403 0.931 . S
H1424 C1405 0.931 . S
H1425 C1407 0.930 . S
H1426 C1409 0.930 . S
H1427 C1410 0.931 . S
N1428 C1390 1.343 . S
N1428 C1411 1.343 . S
N1429 C1397 1.343 . S
N1429 C1404 1.343 . S
C1430 C1431 1.384 . S
C1430 C1432 1.384 . S
C1430 H1458 0.931 . S
C1431 C1430 1.384 . S
C1431 C1434 1.382 . S
C1432 C1430 1.384 . S
C1432 C1433 1.381 . S
C1432 H1459 0.930 . S
C1433 C1432 1.381 . S
C1433 C1435 1.381 . S
C1433 C1436 1.487 . S
C1434 C1431 1.382 . S
C1434 C1435 1.387 . S
C1434 H1460 0.930 . S
C1435 C1433 1.381 . S
C1435 C1434 1.387 . S
C1435 H1461 0.931 . S
C1436 C1433 1.487 . S
C1436 C1443 1.399 . S
C1436 N1474 1.343 . S
C1437 C1438 1.384 . S
C1437 C1439 1.384 . S
C1437 H1462 0.931 . S
C1438 C1437 1.384 . S
C1438 C1441 1.382 . S
C1439 C1437 1.384 . S
C1439 C1440 1.381 . S
C1439 H1463 0.930 . S
C1440 C1439 1.381 . S
C1440 C1442 1.381 . S
C1440 C1443 1.487 . S
C1441 C1438 1.382 . S
C1441 C1442 1.387 . S
C1441 H1464 0.930 . S
C1442 C1440 1.381 . S
C1442 C1441 1.387 . S
C1442 H1465 0.931 . S
C1443 C1436 1.399 . S
C1443 C1440 1.487 . S
C1443 N1475 1.343 . S
C1444 C1445 1.384 . S
C1444 C1446 1.384 . S
C1444 H1466 0.931 . S
C1445 C1444 1.384 . S
C1445 C1448 1.382 . S
C1446 C1444 1.384 . S
C1446 C1447 1.381 . S
C1446 H1467 0.930 . S
C1447 C1446 1.381 . S
C1447 C1449 1.381 . S
C1447 C1450 1.487 . S
C1448 C1445 1.382 . S
C1448 C1449 1.387 . S
C1448 H1468 0.930 . S
C1449 C1447 1.381 . S
C1449 C1448 1.387 . S
C1449 H1469 0.931 . S
C1450 C1447 1.487 . S
C1450 C1457 1.399 . S
C1450 N1475 1.343 . S
C1451 C1452 1.384 . S
C1451 C1453 1.384 . S
C1451 H1470 0.931 . S
C1452 C1451 1.384 . S
C1452 C1455 1.382 . S
C1453 C1451 1.384 . S
C1453 C1454 1.381 . S
C1453 H1471 0.930 . S
C1454 C1453 1.381 . S
C1454 C1456 1.381 . S
C1454 C1457 1.487 . S
C1455 C1452 1.382 . S
C1455 C1456 1.387 . S
C1455 H1472 0.930 . S
C1456 C1454 1.381 . S
C1456 C1455 1.387 . S
C1456 H1473 0.931 . S
C1457 C1450 1.399 . S
C1457 C1454 1.487 . S
C1457 N1474 1.343 . S
H1458 C1430 0.931 . S
H1459 C1432 0.930 . S
H1460 C1434 0.930 . S
H1461 C1435 0.931 . S
H1462 C1437 0.931 . S
H1463 C1439 0.930 . S
H1464 C1441 0.930 . S
H1465 C1442 0.931 . S
H1466 C1444 0.931 . S
H1467 C1446 0.930 . S
H1468 C1448 0.930 . S
H1469 C1449 0.931 . S
H1470 C1451 0.931 . S
H1471 C1453 0.930 . S
H1472 C1455 0.930 . S
H1473 C1456 0.931 . S
N1474 C1436 1.343 . S
N1474 C1457 1.343 . S
N1475 C1443 1.343 . S
N1475 C1450 1.343 . S
H1476 C1484 0.929 . S
H1477 C1486 0.930 . S
H1478 C1488 0.930 . S
H1479 C1491 0.929 . S
H1480 C1494 0.930 . S
H1481 C1496 0.960 . S
H1482 C1496 0.960 . S
H1483 C1496 0.960 . S
C1484 H1476 0.929 . S
C1484 C1485 1.377 . S
C1484 C1486 1.384 . S
C1485 C1484 1.377 . S
C1485 C1491 1.390 1_655 S
C1486 H1477 0.930 . S
C1486 C1484 1.384 . S
C1486 C1487 1.372 . S
C1487 C1486 1.372 . S
C1487 C1488 1.400 1_655 S
C1487 C1492 1.490 . S
C1488 H1478 0.930 . S
C1488 C1487 1.400 1_455 S
C1488 C1491 1.386 . S
H1489 C1505 0.930 . S
H1490 C1506 0.931 . S
C1491 H1479 0.929 . S
C1491 C1485 1.390 1_455 S
C1491 C1488 1.386 . S
C1492 C1487 1.490 . S
C1492 C1494 1.395 1_655 S
C1492 C1495 1.403 . S
H1493 C1499 0.930 . S
C1494 H1480 0.930 . S
C1494 C1492 1.395 1_455 S
C1494 C1497 1.403 . S
C1495 C1492 1.403 . S
C1495 C1496 1.524 . S
C1495 C1499 1.400 . S
C1496 H1481 0.960 . S
C1496 H1482 0.960 . S
C1496 H1483 0.960 . S
C1496 C1495 1.524 . S
C1497 C1494 1.403 . S
C1497 C1498 1.392 1_455 S
C1497 C1501 1.495 . S
C1498 C1497 1.392 1_655 S
C1498 C1499 1.385 . S
C1498 C1500 1.458 . S
C1499 H1493 0.930 . S
C1499 C1495 1.400 . S
C1499 C1498 1.385 . S
C1500 C1498 1.458 . S
C1500 C1502 1.402 . S
C1500 C1506 1.389 1_655 S
C1501 C1497 1.495 . S
C1501 H1507 0.959 . S
C1501 H1508 0.961 . S
C1501 H1509 0.960 . S
C1502 C1500 1.402 . S
C1502 C1503 1.394 . S
C1502 H1510 0.930 . S
C1503 C1502 1.394 . S
C1503 C1504 1.383 . S
C1503 H1511 0.929 . S
C1504 C1503 1.383 . S
C1504 C1505 1.377 1_655 S
C1505 H1489 0.930 . S
C1505 C1504 1.377 1_455 S
C1505 C1506 1.379 . S
C1506 H1490 0.931 . S
C1506 C1500 1.389 1_455 S
C1506 C1505 1.379 . S
H1507 C1501 0.959 . S
H1508 C1501 0.961 . S
H1509 C1501 0.960 . S
H1510 C1502 0.930 . S
H1511 C1503 0.929 . S
H1512 C1520 0.929 . S
H1513 C1522 0.930 . S
H1514 C1524 0.930 . S
H1515 C1527 0.929 . S
H1516 C1530 0.930 . S
H1517 C1532 0.960 . S
H1518 C1532 0.960 . S
H1519 C1532 0.960 . S
C1520 H1512 0.929 . S
C1520 C1521 1.377 . S
C1520 C1522 1.384 . S
C1521 C1520 1.377 . S
C1521 C1527 1.390 . S
C1522 H1513 0.930 . S
C1522 C1520 1.384 . S
C1522 C1523 1.372 . S
C1523 C1522 1.372 . S
C1523 C1524 1.400 . S
C1523 C1528 1.490 . S
C1524 H1514 0.930 . S
C1524 C1523 1.400 . S
C1524 C1527 1.386 . S
H1525 C1541 0.930 . S
H1526 C1542 0.931 . S
C1527 H1515 0.929 . S
C1527 C1521 1.390 . S
C1527 C1524 1.386 . S
C1528 C1523 1.490 . S
C1528 C1530 1.395 . S
C1528 C1531 1.403 . S
H1529 C1535 0.930 . S
C1530 H1516 0.930 . S
C1530 C1528 1.395 . S
C1530 C1533 1.403 . S
C1531 C1528 1.403 . S
C1531 C1532 1.524 . S
C1531 C1535 1.400 . S
C1532 H1517 0.960 . S
C1532 H1518 0.960 . S
C1532 H1519 0.960 . S
C1532 C1531 1.524 . S
C1533 C1530 1.403 . S
C1533 C1534 1.392 . S
C1533 C1537 1.495 . S
C1534 C1533 1.392 . S
C1534 C1535 1.385 . S
C1534 C1536 1.478 . S
C1535 H1529 0.930 . S
C1535 C1531 1.400 . S
C1535 C1534 1.385 . S
C1536 C1534 1.478 . S
C1536 C1538 1.381 . S
C1536 C1542 1.383 . S
C1537 C1533 1.495 . S
C1537 H1543 0.959 . S
C1537 H1544 0.961 . S
C1537 H1545 0.960 . S
C1538 C1536 1.381 . S
C1538 C1539 1.394 . S
C1538 H1546 0.930 . S
C1539 C1538 1.394 . S
C1539 C1540 1.383 . S
C1539 H1547 0.929 . S
C1540 C1539 1.383 . S
C1540 C1541 1.377 . S
C1541 H1525 0.930 . S
C1541 C1540 1.377 . S
C1541 C1542 1.379 . S
C1542 H1526 0.931 . S
C1542 C1536 1.383 . S
C1542 C1541 1.379 . S
H1543 C1537 0.959 . S
H1544 C1537 0.961 . S
H1545 C1537 0.960 . S
H1546 C1538 0.930 . S
H1547 C1539 0.929 . S
H1548 C1556 0.929 . S
H1549 C1558 0.930 . S
H1550 C1560 0.930 . S
H1551 C1563 0.929 . S
H1552 C1566 0.907 . S
H1553 C1568 0.960 . S
H1554 C1568 0.960 . S
H1555 C1568 0.960 . S
C1556 H1548 0.929 . S
C1556 C1557 1.377 . S
C1556 C1558 1.384 . S
C1557 C1556 1.377 . S
C1557 C1563 1.390 1_545 S
C1558 H1549 0.930 . S
C1558 C1556 1.384 . S
C1558 C1559 1.372 . S
C1559 C1558 1.372 . S
C1559 C1560 1.400 1_545 S
C1559 C1564 1.490 . S
C1560 H1550 0.930 . S
C1560 C1559 1.400 1_565 S
C1560 C1563 1.386 . S
H1561 C1577 0.930 . S
H1562 C1578 0.931 . S
C1563 H1551 0.929 . S
C1563 C1557 1.390 1_565 S
C1563 C1560 1.386 . S
C1564 C1559 1.490 . S
C1564 C1566 1.395 . S
C1564 C1567 1.403 . S
H1565 C1571 0.930 . S
C1566 H1552 0.907 . S
C1566 C1564 1.395 . S
C1566 C1569 1.403 . S
C1567 C1564 1.403 . S
C1567 C1568 1.524 . S
C1567 C1571 1.400 . S
C1568 H1553 0.960 . S
C1568 H1554 0.960 . S
C1568 H1555 0.960 . S
C1568 C1567 1.524 . S
C1569 C1566 1.403 . S
C1569 C1570 1.392 . S
C1569 C1573 1.495 1_545 S
C1570 C1569 1.392 . S
C1570 C1571 1.385 . S
C1570 C1572 1.478 . S
C1571 H1565 0.930 . S
C1571 C1567 1.400 . S
C1571 C1570 1.385 . S
C1572 C1570 1.478 . S
C1572 C1574 1.381 . S
C1572 C1578 1.383 1_545 S
C1573 C1569 1.495 1_565 S
C1573 H1579 0.959 . S
C1573 H1580 0.961 . S
C1573 H1581 0.960 1_565 S
C1574 C1572 1.381 . S
C1574 C1575 1.394 . S
C1574 H1582 0.930 . S
C1575 C1574 1.394 . S
C1575 C1576 1.383 . S
C1575 H1583 0.929 . S
C1576 C1575 1.383 . S
C1576 C1577 1.377 1_545 S
C1577 H1561 0.930 . S
C1577 C1576 1.377 1_565 S
C1577 C1578 1.379 . S
C1578 H1562 0.931 . S
C1578 C1572 1.383 1_565 S
C1578 C1577 1.379 . S
H1579 C1573 0.959 . S
H1580 C1573 0.961 . S
H1581 C1573 0.960 1_545 S
H1582 C1574 0.930 . S
H1583 C1575 0.929 . S
H1584 C1592 0.929 . S
H1585 C1594 0.930 . S
H1586 C1596 0.930 . S
H1587 C1599 0.929 . S
H1588 C1602 0.930 . S
H1589 C1604 0.960 . S
H1590 C1604 0.960 1_565 S
H1591 C1604 0.960 . S
C1592 H1584 0.929 . S
C1592 C1593 1.377 . S
C1592 C1594 1.384 . S
C1593 C1592 1.377 . S
C1593 C1599 1.390 1_565 S
C1594 H1585 0.930 . S
C1594 C1592 1.384 . S
C1594 C1595 1.372 . S
C1595 C1594 1.372 . S
C1595 C1596 1.400 1_565 S
C1595 C1600 1.490 . S
C1596 H1586 0.930 . S
C1596 C1595 1.400 1_545 S
C1596 C1599 1.386 . S
H1597 C1613 0.930 . S
H1598 C1614 0.931 . S
C1599 H1587 0.929 . S
C1599 C1593 1.390 1_545 S
C1599 C1596 1.386 . S
C1600 C1595 1.490 . S
C1600 C1602 1.395 . S
C1600 C1603 1.400 . S
H1601 C1607 0.932 1_545 S
C1602 H1588 0.930 . S
C1602 C1600 1.395 . S
C1602 C1605 1.403 . S
C1603 C1600 1.400 . S
C1603 C1604 1.522 1_565 S
C1603 C1607 1.401 . S
C1604 H1589 0.960 . S
C1604 H1590 0.960 1_545 S
C1604 H1591 0.960 . S
C1604 C1603 1.522 1_545 S
C1605 C1602 1.403 . S
C1605 C1606 1.392 . S
C1605 C1609 1.495 . S
C1606 C1605 1.392 . S
C1606 C1607 1.387 . S
C1606 C1608 1.478 . S
C1607 H1601 0.932 1_565 S
C1607 C1603 1.401 . S
C1607 C1606 1.387 . S
C1608 C1606 1.478 . S
C1608 C1610 1.381 . S
C1608 C1614 1.383 1_565 S
C1609 C1605 1.495 . S
C1609 H1615 0.959 . S
C1609 H1616 0.961 . S
C1609 H1617 0.960 . S
C1610 C1608 1.381 . S
C1610 C1611 1.394 . S
C1610 H1618 0.930 . S
C1611 C1610 1.394 . S
C1611 C1612 1.383 . S
C1611 H1619 0.929 . S
C1612 C1611 1.383 . S
C1612 C1613 1.377 1_565 S
C1613 H1597 0.930 . S
C1613 C1612 1.377 1_545 S
C1613 C1614 1.379 . S
C1614 H1598 0.931 . S
C1614 C1608 1.383 1_545 S
C1614 C1613 1.379 . S
H1615 C1609 0.959 . S
H1616 C1609 0.961 . S
H1617 C1609 0.960 . S
H1618 C1610 0.930 . S
H1619 C1611 0.929 . S
H1620 C1628 0.929 . S
H1621 C1630 0.930 . S
H1622 C1632 0.930 . S
H1623 C1635 0.929 . S
H1624 C1638 0.930 . S
H1625 C1640 0.978 . S
H1626 C1640 1.012 . S
H1627 C1640 0.873 1_455 S
C1628 H1620 0.929 . S
C1628 C1629 1.377 1_655 S
C1628 C1630 1.384 . S
C1629 C1628 1.377 1_455 S
C1629 C1635 1.390 . S
C1630 H1621 0.930 . S
C1630 C1628 1.384 . S
C1630 C1631 1.372 1_655 S
C1631 C1630 1.372 1_455 S
C1631 C1632 1.400 . S
C1631 C1636 1.490 . S
C1632 H1622 0.930 . S
C1632 C1631 1.400 . S
C1632 C1635 1.386 . S
H1633 C1649 0.930 . S
H1634 C1650 0.931 . S
C1635 H1623 0.929 . S
C1635 C1629 1.390 . S
C1635 C1632 1.386 . S
C1636 C1631 1.490 . S
C1636 C1638 1.395 . S
C1636 C1639 1.403 . S
H1637 C1643 0.938 . S
C1638 H1624 0.930 . S
C1638 C1636 1.395 . S
C1638 C1641 1.403 . S
C1639 C1636 1.403 . S
C1639 C1640 1.551 1_455 S
C1639 C1643 1.400 . S
C1640 H1625 0.978 . S
C1640 H1626 1.012 . S
C1640 H1627 0.873 1_655 S
C1640 C1639 1.551 1_655 S
C1641 C1638 1.403 . S
C1641 C1642 1.392 . S
C1641 C1645 1.495 . S
C1642 C1641 1.392 . S
C1642 C1643 1.385 . S
C1642 C1644 1.478 . S
C1643 H1637 0.938 . S
C1643 C1639 1.400 . S
C1643 C1642 1.385 . S
C1644 C1642 1.478 . S
C1644 C1646 1.381 1_455 S
C1644 C1650 1.383 . S
C1645 C1641 1.495 . S
C1645 H1651 0.959 . S
C1645 H1652 0.961 . S
C1645 H1653 0.960 . S
C1646 C1644 1.381 1_655 S
C1646 C1647 1.394 . S
C1646 H1654 0.930 . S
C1647 C1646 1.394 . S
C1647 C1648 1.383 1_655 S
C1647 H1655 0.929 . S
C1648 C1647 1.383 1_455 S
C1648 C1649 1.377 . S
C1649 H1633 0.930 . S
C1649 C1648 1.377 . S
C1649 C1650 1.379 . S
C1650 H1634 0.931 . S
C1650 C1644 1.383 . S
C1650 C1649 1.379 . S
H1651 C1645 0.959 . S
H1652 C1645 0.961 . S
H1653 C1645 0.960 . S
H1654 C1646 0.930 . S
H1655 C1647 0.929 . S
H1656 C1664 0.929 . S
H1657 C1666 0.930 . S
H1658 C1668 0.930 . S
H1659 C1671 0.929 . S
H1660 C1674 0.930 . S
H1661 C1676 0.960 . S
H1662 C1676 0.960 . S
H1663 C1676 0.960 . S
C1664 H1656 0.929 . S
C1664 C1665 1.377 . S
C1664 C1666 1.384 . S
C1665 C1664 1.377 . S
C1665 C1671 1.390 . S
C1666 H1657 0.930 . S
C1666 C1664 1.384 . S
C1666 C1667 1.372 . S
C1667 C1666 1.372 . S
C1667 C1668 1.400 . S
C1667 C1672 1.490 . S
C1668 H1658 0.930 . S
C1668 C1667 1.400 . S
C1668 C1671 1.386 . S
H1669 C1685 0.930 . S
H1670 C1686 0.931 . S
C1671 H1659 0.929 . S
C1671 C1665 1.390 . S
C1671 C1668 1.386 . S
C1672 C1667 1.490 . S
C1672 C1674 1.395 . S
C1672 C1675 1.403 . S
H1673 C1679 0.930 . S
C1674 H1660 0.930 . S
C1674 C1672 1.395 . S
C1674 C1677 1.403 . S
C1675 C1672 1.403 . S
C1675 C1676 1.524 . S
C1675 C1679 1.400 . S
C1676 H1661 0.960 . S
C1676 H1662 0.960 . S
C1676 H1663 0.960 . S
C1676 C1675 1.524 . S
C1677 C1674 1.403 . S
C1677 C1678 1.392 . S
C1677 C1681 1.495 . S
C1678 C1677 1.392 . S
C1678 C1679 1.385 . S
C1678 C1680 1.478 . S
C1679 H1673 0.930 . S
C1679 C1675 1.400 . S
C1679 C1678 1.385 . S
C1680 C1678 1.478 . S
C1680 C1682 1.381 . S
C1680 C1686 1.383 . S
C1681 C1677 1.495 . S
C1681 H1687 0.959 . S
C1681 H1688 0.961 . S
C1681 H1689 0.960 . S
C1682 C1680 1.381 . S
C1682 C1683 1.394 . S
C1682 H1690 0.930 . S
C1683 C1682 1.394 . S
C1683 C1684 1.383 . S
C1683 H1691 0.929 . S
C1684 C1683 1.383 . S
C1684 C1685 1.377 . S
C1685 H1669 0.930 . S
C1685 C1684 1.377 . S
C1685 C1686 1.379 . S
C1686 H1670 0.931 . S
C1686 C1680 1.383 . S
C1686 C1685 1.379 . S
H1687 C1681 0.959 . S
H1688 C1681 0.961 . S
H1689 C1681 0.960 . S
H1690 C1682 0.930 . S
H1691 C1683 0.929 . S
H1692 C1700 0.929 . S
H1693 C1702 0.930 . S
H1694 C1704 0.930 . S
H1695 C1707 0.929 . S
H1696 C1710 0.930 . S
H1697 C1712 0.960 . S
H1698 C1712 0.960 . S
H1699 C1712 0.960 . S
C1700 H1692 0.929 . S
C1700 C1701 1.377 1_655 S
C1700 C1702 1.384 . S
C1701 C1700 1.377 1_455 S
C1701 C1707 1.390 . S
C1702 H1693 0.930 . S
C1702 C1700 1.384 . S
C1702 C1703 1.372 1_655 S
C1703 C1702 1.372 1_455 S
C1703 C1704 1.400 . S
C1703 C1708 1.490 . S
C1704 H1694 0.930 . S
C1704 C1703 1.400 . S
C1704 C1707 1.386 . S
H1705 C1721 0.930 . S
H1706 C1722 0.931 . S
C1707 H1695 0.929 . S
C1707 C1701 1.390 . S
C1707 C1704 1.386 . S
C1708 C1703 1.490 . S
C1708 C1710 1.395 1_455 S
C1708 C1711 1.403 . S
H1709 C1715 0.930 . S
C1710 H1696 0.930 . S
C1710 C1708 1.395 1_655 S
C1710 C1713 1.403 . S
C1711 C1708 1.403 . S
C1711 C1712 1.524 . S
C1711 C1715 1.400 . S
C1712 H1697 0.960 . S
C1712 H1698 0.960 . S
C1712 H1699 0.960 . S
C1712 C1711 1.524 . S
C1713 C1710 1.403 . S
C1713 C1714 1.392 1_655 S
C1713 C1717 1.495 . S
C1714 C1713 1.392 1_455 S
C1714 C1715 1.385 . S
C1714 C1716 1.452 . S
C1715 H1709 0.930 . S
C1715 C1711 1.400 . S
C1715 C1714 1.385 . S
C1716 C1714 1.452 . S
C1716 C1718 1.379 1_455 S
C1716 C1722 1.421 . S
C1717 C1713 1.495 . S
C1717 H1723 0.959 . S
C1717 H1724 0.961 . S
C1717 H1725 0.960 . S
C1718 C1716 1.379 1_655 S
C1718 C1719 1.394 . S
C1718 H1726 0.930 . S
C1719 C1718 1.394 . S
C1719 C1720 1.383 1_655 S
C1719 H1727 0.929 . S
C1720 C1719 1.383 1_455 S
C1720 C1721 1.377 . S
C1721 H1705 0.930 . S
C1721 C1720 1.377 . S
C1721 C1722 1.379 . S
C1722 H1706 0.931 . S
C1722 C1716 1.421 . S
C1722 C1721 1.379 . S
H1723 C1717 0.959 . S
H1724 C1717 0.961 . S
H1725 C1717 0.960 . S
H1726 C1718 0.930 . S
H1727 C1719 0.929 . S
H1728 C1736 0.929 . S
H1729 C1738 0.930 . S
H1730 C1740 0.930 . S
H1731 C1743 0.929 . S
H1732 C1746 0.930 . S
H1733 C1748 0.960 . S
H1734 C1748 0.960 . S
H1735 C1748 0.960 . S
C1736 H1728 0.929 . S
C1736 C1737 1.377 . S
C1736 C1738 1.384 . S
C1737 C1736 1.377 . S
C1737 C1743 1.390 . S
C1738 H1729 0.930 . S
C1738 C1736 1.384 . S
C1738 C1739 1.372 . S
C1739 C1738 1.372 . S
C1739 C1740 1.400 . S
C1739 C1744 1.490 . S
C1740 H1730 0.930 . S
C1740 C1739 1.400 . S
C1740 C1743 1.386 . S
H1741 C1757 0.930 . S
H1742 C1758 0.931 . S
C1743 H1731 0.929 . S
C1743 C1737 1.390 . S
C1743 C1740 1.386 . S
C1744 C1739 1.490 . S
C1744 C1746 1.395 . S
C1744 C1747 1.403 . S
H1745 C1751 0.930 . S
C1746 H1732 0.930 . S
C1746 C1744 1.395 . S
C1746 C1749 1.403 . S
C1747 C1744 1.403 . S
C1747 C1748 1.524 . S
C1747 C1751 1.400 . S
C1748 H1733 0.960 . S
C1748 H1734 0.960 . S
C1748 H1735 0.960 . S
C1748 C1747 1.524 . S
C1749 C1746 1.403 . S
C1749 C1750 1.392 . S
C1749 C1753 1.495 . S
C1750 C1749 1.392 . S
C1750 C1751 1.385 . S
C1750 C1752 1.478 . S
C1751 H1745 0.930 . S
C1751 C1747 1.400 . S
C1751 C1750 1.385 . S
C1752 C1750 1.478 . S
C1752 C1754 1.381 . S
C1752 C1758 1.383 . S
C1753 C1749 1.495 . S
C1753 H1759 0.959 . S
C1753 H1760 0.961 . S
C1753 H1761 0.960 . S
C1754 C1752 1.381 . S
C1754 C1755 1.394 . S
C1754 H1762 0.930 . S
C1755 C1754 1.394 . S
C1755 C1756 1.383 . S
C1755 H1763 0.929 . S
C1756 C1755 1.383 . S
C1756 C1757 1.377 . S
C1757 H1741 0.930 . S
C1757 C1756 1.377 . S
C1757 C1758 1.379 . S
C1758 H1742 0.931 . S
C1758 C1752 1.383 . S
C1758 C1757 1.379 . S
H1759 C1753 0.959 . S
H1760 C1753 0.961 . S
H1761 C1753 0.960 . S
H1762 C1754 0.930 . S
H1763 C1755 0.929 . S
H1764 C1772 0.929 . S
H1765 C1774 0.930 . S
H1766 C1776 0.930 . S
H1767 C1779 0.929 . S
H1768 C1782 0.920 . S
H1769 C1784 0.960 . S
H1770 C1784 0.960 1_545 S
H1771 C1784 0.960 . S
C1772 H1764 0.929 . S
C1772 C1773 1.377 1_545 S
C1772 C1774 1.384 . S
C1773 C1772 1.377 1_565 S
C1773 C1779 1.390 . S
C1774 H1765 0.930 . S
C1774 C1772 1.384 . S
C1774 C1775 1.372 1_545 S
C1775 C1774 1.372 1_565 S
C1775 C1776 1.400 . S
C1775 C1780 1.490 . S
C1776 H1766 0.930 . S
C1776 C1775 1.400 . S
C1776 C1779 1.386 . S
H1777 C1793 0.930 . S
H1778 C1794 0.931 . S
C1779 H1767 0.929 . S
C1779 C1773 1.390 . S
C1779 C1776 1.386 . S
C1780 C1775 1.490 . S
C1780 C1782 1.395 1_565 S
C1780 C1783 1.403 . S
H1781 C1787 0.930 . S
C1782 H1768 0.920 . S
C1782 C1780 1.395 1_545 S
C1782 C1785 1.397 . S
C1783 C1780 1.403 . S
C1783 C1784 1.524 . S
C1783 C1787 1.400 . S
C1784 H1769 0.960 . S
C1784 H1770 0.960 1_565 S
C1784 H1771 0.960 . S
C1784 C1783 1.524 . S
C1785 C1782 1.397 . S
C1785 C1786 1.410 1_545 S
C1785 C1789 1.495 . S
C1786 C1785 1.410 1_565 S
C1786 C1787 1.385 . S
C1786 C1788 1.478 . S
C1787 H1781 0.930 . S
C1787 C1783 1.400 . S
C1787 C1786 1.385 . S
C1788 C1786 1.478 . S
C1788 C1790 1.381 1_565 S
C1788 C1794 1.383 . S
C1789 C1785 1.495 . S
C1789 H1795 0.959 . S
C1789 H1796 0.961 1_545 S
C1789 H1797 0.960 . S
C1790 C1788 1.381 1_545 S
C1790 C1791 1.394 . S
C1790 H1798 0.930 . S
C1791 C1790 1.394 . S
C1791 C1792 1.383 1_545 S
C1791 H1799 0.929 . S
C1792 C1791 1.383 1_565 S
C1792 C1793 1.377 . S
C1793 H1777 0.930 . S
C1793 C1792 1.377 . S
C1793 C1794 1.379 . S
C1794 H1778 0.931 . S
C1794 C1788 1.383 . S
C1794 C1793 1.379 . S
H1795 C1789 0.959 . S
H1796 C1789 0.961 1_565 S
H1797 C1789 0.960 . S
H1798 C1790 0.930 . S
H1799 C1791 0.929 . S
H1800 C1808 0.929 . S
H1801 C1810 0.930 . S
H1802 C1812 0.930 . S
H1803 C1815 0.929 . S
H1804 C1818 0.930 . S
H1805 C1820 0.960 . S
H1806 C1820 0.960 . S
H1807 C1820 0.960 . S
C1808 H1800 0.929 . S
C1808 C1809 1.377 . S
C1808 C1810 1.384 . S
C1809 C1808 1.377 . S
C1809 C1815 1.390 . S
C1810 H1801 0.930 . S
C1810 C1808 1.384 . S
C1810 C1811 1.372 . S
C1811 C1810 1.372 . S
C1811 C1812 1.400 . S
C1811 C1816 1.490 . S
C1812 H1802 0.930 . S
C1812 C1811 1.400 . S
C1812 C1815 1.386 . S
H1813 C1829 0.930 . S
H1814 C1830 0.931 . S
C1815 H1803 0.929 . S
C1815 C1809 1.390 . S
C1815 C1812 1.386 . S
C1816 C1811 1.490 . S
C1816 C1818 1.395 1_545 S
C1816 C1819 1.403 . S
H1817 C1823 0.930 . S
C1818 H1804 0.930 . S
C1818 C1816 1.395 1_565 S
C1818 C1821 1.403 . S
C1819 C1816 1.403 . S
C1819 C1820 1.524 . S
C1819 C1823 1.400 . S
C1820 H1805 0.960 . S
C1820 H1806 0.960 . S
C1820 H1807 0.960 . S
C1820 C1819 1.524 . S
C1821 C1818 1.403 . S
C1821 C1822 1.392 1_565 S
C1821 C1825 1.495 . S
C1822 C1821 1.392 1_545 S
C1822 C1823 1.385 . S
C1822 C1824 1.478 . S
C1823 H1817 0.930 . S
C1823 C1819 1.400 . S
C1823 C1822 1.385 . S
C1824 C1822 1.478 . S
C1824 C1826 1.381 . S
C1824 C1830 1.383 1_545 S
C1825 C1821 1.495 . S
C1825 H1831 0.959 . S
C1825 H1832 0.961 . S
C1825 H1833 0.960 . S
C1826 C1824 1.381 . S
C1826 C1827 1.394 . S
C1826 H1834 0.930 . S
C1827 C1826 1.394 . S
C1827 C1828 1.383 . S
C1827 H1835 0.929 . S
C1828 C1827 1.383 . S
C1828 C1829 1.377 1_545 S
C1829 H1813 0.930 . S
C1829 C1828 1.377 1_565 S
C1829 C1830 1.379 . S
C1830 H1814 0.931 . S
C1830 C1824 1.383 1_565 S
C1830 C1829 1.379 . S
H1831 C1825 0.959 . S
H1832 C1825 0.961 . S
H1833 C1825 0.960 . S
H1834 C1826 0.930 . S
H1835 C1827 0.929 . S
H1836 C1844 0.929 . S
H1837 C1846 0.930 . S
H1838 C1848 0.929 1_455 S
H1839 C1851 0.933 1_455 S
H1840 C1854 0.930 . S
H1841 C1856 0.960 . S
H1842 C1856 0.960 . S
H1843 C1856 0.960 . S
C1844 H1836 0.929 . S
C1844 C1845 1.377 . S
C1844 C1846 1.384 . S
C1845 C1844 1.377 . S
C1845 C1851 1.392 . S
C1846 H1837 0.930 . S
C1846 C1844 1.384 . S
C1846 C1847 1.372 . S
C1847 C1846 1.372 . S
C1847 C1848 1.397 . S
C1847 C1852 1.490 . S
C1848 H1838 0.929 1_655 S
C1848 C1847 1.397 . S
C1848 C1851 1.385 . S
H1849 C1865 0.930 . S
H1850 C1866 0.931 . S
C1851 H1839 0.933 1_655 S
C1851 C1845 1.392 . S
C1851 C1848 1.385 . S
C1852 C1847 1.490 . S
C1852 C1854 1.395 1_655 S
C1852 C1855 1.403 . S
H1853 C1859 0.930 . S
C1854 H1840 0.930 . S
C1854 C1852 1.395 1_455 S
C1854 C1857 1.403 . S
C1855 C1852 1.403 . S
C1855 C1856 1.524 . S
C1855 C1859 1.400 . S
C1856 H1841 0.960 . S
C1856 H1842 0.960 . S
C1856 H1843 0.960 . S
C1856 C1855 1.524 . S
C1857 C1854 1.403 . S
C1857 C1858 1.392 1_455 S
C1857 C1861 1.495 . S
C1858 C1857 1.392 1_655 S
C1858 C1859 1.385 . S
C1858 C1860 1.500 . S
C1859 H1853 0.930 . S
C1859 C1855 1.400 . S
C1859 C1858 1.385 . S
C1860 C1858 1.500 . S
C1860 C1862 1.374 . S
C1860 C1866 1.373 1_655 S
C1861 C1857 1.495 . S
C1861 H1867 0.959 . S
C1861 H1868 0.961 . S
C1861 H1869 0.960 . S
C1862 C1860 1.374 . S
C1862 C1863 1.394 . S
C1862 H1870 0.930 . S
C1863 C1862 1.394 . S
C1863 C1864 1.383 . S
C1863 H1871 0.929 . S
C1864 C1863 1.383 . S
C1864 C1865 1.377 1_655 S
C1865 H1849 0.930 . S
C1865 C1864 1.377 1_455 S
C1865 C1866 1.379 . S
C1866 H1850 0.931 . S
C1866 C1860 1.373 1_455 S
C1866 C1865 1.379 . S
H1867 C1861 0.959 . S
H1868 C1861 0.961 . S
H1869 C1861 0.960 . S
H1870 C1862 0.930 . S
H1871 C1863 0.929 . S
H1872 C1880 0.929 . S
H1873 C1882 0.930 . S
H1874 C1884 0.930 . S
H1875 C1887 0.929 . S
H1876 C1890 0.930 . S
H1877 C1892 0.960 . S
H1878 C1892 0.960 . S
H1879 C1892 0.960 . S
C1880 H1872 0.929 . S
C1880 C1881 1.377 . S
C1880 C1882 1.384 . S
C1881 C1880 1.377 . S
C1881 C1887 1.390 . S
C1882 H1873 0.930 . S
C1882 C1880 1.384 . S
C1882 C1883 1.372 . S
C1883 C1882 1.372 . S
C1883 C1884 1.400 . S
C1883 C1888 1.490 . S
C1884 H1874 0.930 . S
C1884 C1883 1.400 . S
C1884 C1887 1.386 . S
H1885 C1901 0.930 . S
H1886 C1902 0.931 . S
C1887 H1875 0.929 . S
C1887 C1881 1.390 . S
C1887 C1884 1.386 . S
C1888 C1883 1.490 . S
C1888 C1890 1.395 . S
C1888 C1891 1.403 . S
H1889 C1895 0.930 . S
C1890 H1876 0.930 . S
C1890 C1888 1.395 . S
C1890 C1893 1.403 . S
C1891 C1888 1.403 . S
C1891 C1892 1.524 . S
C1891 C1895 1.400 . S
C1892 H1877 0.960 . S
C1892 H1878 0.960 . S
C1892 H1879 0.960 . S
C1892 C1891 1.524 . S
C1893 C1890 1.403 . S
C1893 C1894 1.392 . S
C1893 C1897 1.495 . S
C1894 C1893 1.392 . S
C1894 C1895 1.385 . S
C1894 C1896 1.478 . S
C1895 H1889 0.930 . S
C1895 C1891 1.400 . S
C1895 C1894 1.385 . S
C1896 C1894 1.478 . S
C1896 C1898 1.381 . S
C1896 C1902 1.383 . S
C1897 C1893 1.495 . S
C1897 H1903 0.959 . S
C1897 H1904 0.961 . S
C1897 H1905 0.960 . S
C1898 C1896 1.381 . S
C1898 C1899 1.394 . S
C1898 H1906 0.930 . S
C1899 C1898 1.394 . S
C1899 C1900 1.383 . S
C1899 H1907 0.929 . S
C1900 C1899 1.383 . S
C1900 C1901 1.377 . S
C1901 H1885 0.930 . S
C1901 C1900 1.377 . S
C1901 C1902 1.379 . S
C1902 H1886 0.931 . S
C1902 C1896 1.383 . S
C1902 C1901 1.379 . S
H1903 C1897 0.959 . S
H1904 C1897 0.961 . S
H1905 C1897 0.960 . S
H1906 C1898 0.930 . S
H1907 C1899 0.929 . S
H1908 C1916 0.929 . S
H1909 C1918 0.930 . S
H1910 C1920 0.930 . S
H1911 C1923 0.929 . S
H1912 C1926 0.930 . S
H1913 C1928 0.960 . S
H1914 C1928 0.960 . S
H1915 C1928 0.960 . S
C1916 H1908 0.929 . S
C1916 C1917 1.377 . S
C1916 C1918 1.384 . S
C1917 C1916 1.377 . S
C1917 C1923 1.390 . S
C1918 H1909 0.930 . S
C1918 C1916 1.384 . S
C1918 C1919 1.372 . S
C1919 C1918 1.372 . S
C1919 C1920 1.400 . S
C1919 C1924 1.490 . S
C1920 H1910 0.930 . S
C1920 C1919 1.400 . S
C1920 C1923 1.386 . S
H1921 C1937 0.930 . S
H1922 C1938 0.931 . S
C1923 H1911 0.929 . S
C1923 C1917 1.390 . S
C1923 C1920 1.386 . S
C1924 C1919 1.490 . S
C1924 C1926 1.395 . S
C1924 C1927 1.403 . S
H1925 C1931 0.930 . S
C1926 H1912 0.930 . S
C1926 C1924 1.395 . S
C1926 C1929 1.403 . S
C1927 C1924 1.403 . S
C1927 C1928 1.524 . S
C1927 C1931 1.400 . S
C1928 H1913 0.960 . S
C1928 H1914 0.960 . S
C1928 H1915 0.960 . S
C1928 C1927 1.524 . S
C1929 C1926 1.403 . S
C1929 C1930 1.392 . S
C1929 C1933 1.495 . S
C1930 C1929 1.392 . S
C1930 C1931 1.385 . S
C1930 C1932 1.478 . S
C1931 H1925 0.930 . S
C1931 C1927 1.400 . S
C1931 C1930 1.385 . S
C1932 C1930 1.478 . S
C1932 C1934 1.381 . S
C1932 C1938 1.383 . S
C1933 C1929 1.495 . S
C1933 H1939 0.959 . S
C1933 H1940 0.961 . S
C1933 H1941 0.960 . S
C1934 C1932 1.381 . S
C1934 C1935 1.394 . S
C1934 H1942 0.930 . S
C1935 C1934 1.394 . S
C1935 C1936 1.383 . S
C1935 H1943 0.929 . S
C1936 C1935 1.383 . S
C1936 C1937 1.377 . S
C1937 H1921 0.930 . S
C1937 C1936 1.377 . S
C1937 C1938 1.379 . S
C1938 H1922 0.931 . S
C1938 C1932 1.383 . S
C1938 C1937 1.379 . S
H1939 C1933 0.959 . S
H1940 C1933 0.961 . S
H1941 C1933 0.960 . S
H1942 C1934 0.930 . S
H1943 C1935 0.929 . S
H1944 C1952 0.929 . S
H1945 C1954 0.930 . S
H1946 C1956 0.930 . S
H1947 C1959 0.929 . S
H1948 C1962 0.930 . S
H1949 C1964 0.960 . S
H1950 C1964 0.960 . S
H1951 C1964 0.960 . S
C1952 H1944 0.929 . S
C1952 C1953 1.377 . S
C1952 C1954 1.384 . S
C1953 C1952 1.377 . S
C1953 C1959 1.390 . S
C1954 H1945 0.930 . S
C1954 C1952 1.384 . S
C1954 C1955 1.372 . S
C1955 C1954 1.372 . S
C1955 C1956 1.400 . S
C1955 C1960 1.490 . S
C1956 H1946 0.930 . S
C1956 C1955 1.400 . S
C1956 C1959 1.386 . S
H1957 C1973 0.930 . S
H1958 C1974 0.931 . S
C1959 H1947 0.929 . S
C1959 C1953 1.390 . S
C1959 C1956 1.386 . S
C1960 C1955 1.490 . S
C1960 C1962 1.395 . S
C1960 C1963 1.403 . S
H1961 C1967 0.930 . S
C1962 H1948 0.930 . S
C1962 C1960 1.395 . S
C1962 C1965 1.403 . S
C1963 C1960 1.403 . S
C1963 C1964 1.524 . S
C1963 C1967 1.400 . S
C1964 H1949 0.960 . S
C1964 H1950 0.960 . S
C1964 H1951 0.960 . S
C1964 C1963 1.524 . S
C1965 C1962 1.403 . S
C1965 C1966 1.392 . S
C1965 C1969 1.495 . S
C1966 C1965 1.392 . S
C1966 C1967 1.385 . S
C1966 C1968 1.478 . S
C1967 H1961 0.930 . S
C1967 C1963 1.400 . S
C1967 C1966 1.385 . S
C1968 C1966 1.478 . S
C1968 C1970 1.381 . S
C1968 C1974 1.383 . S
C1969 C1965 1.495 . S
C1969 H1975 0.959 . S
C1969 H1976 0.961 . S
C1969 H1977 0.960 . S
C1970 C1968 1.381 . S
C1970 C1971 1.394 . S
C1970 H1978 0.930 . S
C1971 C1970 1.394 . S
C1971 C1972 1.383 . S
C1971 H1979 0.929 . S
C1972 C1971 1.383 . S
C1972 C1973 1.377 . S
C1973 H1957 0.930 . S
C1973 C1972 1.377 . S
C1973 C1974 1.379 . S
C1974 H1958 0.931 . S
C1974 C1968 1.383 . S
C1974 C1973 1.379 . S
H1975 C1969 0.959 . S
H1976 C1969 0.961 . S
H1977 C1969 0.960 . S
H1978 C1970 0.930 . S
H1979 C1971 0.929 . S
H1980 C1988 0.929 . S
H1981 C1990 0.930 . S
H1982 C1992 0.930 . S
H1983 C1995 0.929 . S
H1984 C1998 0.930 . S
H1985 C2000 0.960 . S
H1986 C2000 0.960 . S
H1987 C2000 0.960 . S
C1988 H1980 0.929 . S
C1988 C1989 1.377 . S
C1988 C1990 1.384 . S
C1989 C1988 1.377 . S
C1989 C1995 1.390 . S
C1990 H1981 0.930 . S
C1990 C1988 1.384 . S
C1990 C1991 1.372 . S
C1991 C1990 1.372 . S
C1991 C1992 1.400 . S
C1991 C1996 1.490 . S
C1992 H1982 0.930 . S
C1992 C1991 1.400 . S
C1992 C1995 1.386 . S
H1993 C2009 0.930 . S
H1994 C2010 0.931 . S
C1995 H1983 0.929 . S
C1995 C1989 1.390 . S
C1995 C1992 1.386 . S
C1996 C1991 1.490 . S
C1996 C1998 1.395 . S
C1996 C1999 1.403 . S
H1997 C2003 0.930 . S
C1998 H1984 0.930 . S
C1998 C1996 1.395 . S
C1998 C2001 1.403 . S
C1999 C1996 1.403 . S
C1999 C2000 1.524 . S
C1999 C2003 1.400 . S
C2000 H1985 0.960 . S
C2000 H1986 0.960 . S
C2000 H1987 0.960 . S
C2000 C1999 1.524 . S
C2001 C1998 1.403 . S
C2001 C2002 1.392 . S
C2001 C2005 1.495 . S
C2002 C2001 1.392 . S
C2002 C2003 1.385 . S
C2002 C2004 1.478 . S
C2003 H1997 0.930 . S
C2003 C1999 1.400 . S
C2003 C2002 1.385 . S
C2004 C2002 1.478 . S
C2004 C2006 1.381 . S
C2004 C2010 1.383 . S
C2005 C2001 1.495 . S
C2005 H2011 0.959 . S
C2005 H2012 0.961 . S
C2005 H2013 0.960 . S
C2006 C2004 1.381 . S
C2006 C2007 1.394 . S
C2006 H2014 0.930 . S
C2007 C2006 1.394 . S
C2007 C2008 1.383 . S
C2007 H2015 0.929 . S
C2008 C2007 1.383 . S
C2008 C2009 1.377 . S
C2009 H1993 0.930 . S
C2009 C2008 1.377 . S
C2009 C2010 1.379 . S
C2010 H1994 0.931 . S
C2010 C2004 1.383 . S
C2010 C2009 1.379 . S
H2011 C2005 0.959 . S
H2012 C2005 0.961 . S
H2013 C2005 0.960 . S
H2014 C2006 0.930 . S
H2015 C2007 0.929 . S
H2016 C2024 0.929 . S
H2017 C2026 0.930 . S
H2018 C2028 0.930 . S
H2019 C2031 0.929 . S
H2020 C2034 0.930 . S
H2021 C2036 0.960 . S
H2022 C2036 0.960 . S
H2023 C2036 0.960 . S
C2024 H2016 0.929 . S
C2024 C2025 1.377 . S
C2024 C2026 1.384 . S
C2025 C2024 1.377 . S
C2025 C2031 1.390 . S
C2026 H2017 0.930 . S
C2026 C2024 1.384 . S
C2026 C2027 1.372 . S
C2027 C2026 1.372 . S
C2027 C2028 1.400 . S
C2027 C2032 1.490 . S
C2028 H2018 0.930 . S
C2028 C2027 1.400 . S
C2028 C2031 1.386 . S
H2029 C2045 0.930 . S
H2030 C2046 0.931 . S
C2031 H2019 0.929 . S
C2031 C2025 1.390 . S
C2031 C2028 1.386 . S
C2032 C2027 1.490 . S
C2032 C2034 1.395 . S
C2032 C2035 1.403 . S
H2033 C2039 0.930 . S
C2034 H2020 0.930 . S
C2034 C2032 1.395 . S
C2034 C2037 1.403 . S
C2035 C2032 1.403 . S
C2035 C2036 1.524 . S
C2035 C2039 1.400 . S
C2036 H2021 0.960 . S
C2036 H2022 0.960 . S
C2036 H2023 0.960 . S
C2036 C2035 1.524 . S
C2037 C2034 1.403 . S
C2037 C2038 1.392 . S
C2037 C2041 1.495 . S
C2038 C2037 1.392 . S
C2038 C2039 1.385 . S
C2038 C2040 1.478 . S
C2039 H2033 0.930 . S
C2039 C2035 1.400 . S
C2039 C2038 1.385 . S
C2040 C2038 1.478 . S
C2040 C2042 1.381 . S
C2040 C2046 1.383 . S
C2041 C2037 1.495 . S
C2041 H2047 0.959 . S
C2041 H2048 0.961 . S
C2041 H2049 0.960 . S
C2042 C2040 1.381 . S
C2042 C2043 1.394 . S
C2042 H2050 0.930 . S
C2043 C2042 1.394 . S
C2043 C2044 1.383 . S
C2043 H2051 0.929 . S
C2044 C2043 1.383 . S
C2044 C2045 1.377 . S
C2045 H2029 0.930 . S
C2045 C2044 1.377 . S
C2045 C2046 1.379 . S
C2046 H2030 0.931 . S
C2046 C2040 1.383 . S
C2046 C2045 1.379 . S
H2047 C2041 0.959 . S
H2048 C2041 0.961 . S
H2049 C2041 0.960 . S
H2050 C2042 0.930 . S
H2051 C2043 0.929 . S
H2052 C2060 0.929 . S
H2053 C2062 0.930 . S
H2054 C2064 0.930 . S
H2055 C2067 0.929 . S
H2056 C2070 0.930 . S
H2057 C2072 0.960 . S
H2058 C2072 0.960 . S
H2059 C2072 0.960 . S
C2060 H2052 0.929 . S
C2060 C2061 1.377 . S
C2060 C2062 1.384 . S
C2061 C2060 1.377 . S
C2061 C2067 1.390 . S
C2062 H2053 0.930 . S
C2062 C2060 1.384 . S
C2062 C2063 1.372 . S
C2063 C2062 1.372 . S
C2063 C2064 1.400 . S
C2063 C2068 1.490 . S
C2064 H2054 0.930 . S
C2064 C2063 1.400 . S
C2064 C2067 1.386 . S
H2065 C2081 0.930 . S
H2066 C2082 0.931 . S
C2067 H2055 0.929 . S
C2067 C2061 1.390 . S
C2067 C2064 1.386 . S
C2068 C2063 1.490 . S
C2068 C2070 1.395 . S
C2068 C2071 1.403 . S
H2069 C2075 0.930 . S
C2070 H2056 0.930 . S
C2070 C2068 1.395 . S
C2070 C2073 1.403 . S
C2071 C2068 1.403 . S
C2071 C2072 1.524 . S
C2071 C2075 1.400 . S
C2072 H2057 0.960 . S
C2072 H2058 0.960 . S
C2072 H2059 0.960 . S
C2072 C2071 1.524 . S
C2073 C2070 1.403 . S
C2073 C2074 1.392 . S
C2073 C2077 1.495 . S
C2074 C2073 1.392 . S
C2074 C2075 1.385 . S
C2074 C2076 1.478 . S
C2075 H2069 0.930 . S
C2075 C2071 1.400 . S
C2075 C2074 1.385 . S
C2076 C2074 1.478 . S
C2076 C2078 1.381 . S
C2076 C2082 1.383 . S
C2077 C2073 1.495 . S
C2077 H2083 0.959 . S
C2077 H2084 0.961 . S
C2077 H2085 0.960 . S
C2078 C2076 1.381 . S
C2078 C2079 1.394 . S
C2078 H2086 0.930 . S
C2079 C2078 1.394 . S
C2079 C2080 1.383 . S
C2079 H2087 0.929 . S
C2080 C2079 1.383 . S
C2080 C2081 1.377 . S
C2081 H2065 0.930 . S
C2081 C2080 1.377 . S
C2081 C2082 1.379 . S
C2082 H2066 0.931 . S
C2082 C2076 1.383 . S
C2082 C2081 1.379 . S
H2083 C2077 0.959 . S
H2084 C2077 0.961 . S
H2085 C2077 0.960 . S
H2086 C2078 0.930 . S
H2087 C2079 0.929 . S
H2088 C2096 0.929 . S
H2089 C2098 0.930 . S
H2090 C2100 0.930 . S
H2091 C2103 0.929 . S
H2092 C2106 0.930 . S
H2093 C2108 0.960 . S
H2094 C2108 0.960 . S
H2095 C2108 0.960 . S
C2096 H2088 0.929 . S
C2096 C2097 1.377 . S
C2096 C2098 1.384 . S
C2097 C2096 1.377 . S
C2097 C2103 1.390 . S
C2098 H2089 0.930 . S
C2098 C2096 1.384 . S
C2098 C2099 1.372 . S
C2099 C2098 1.372 . S
C2099 C2100 1.400 . S
C2099 C2104 1.490 . S
C2100 H2090 0.930 . S
C2100 C2099 1.400 . S
C2100 C2103 1.386 . S
H2101 C2117 0.930 . S
H2102 C2118 0.931 . S
C2103 H2091 0.929 . S
C2103 C2097 1.390 . S
C2103 C2100 1.386 . S
C2104 C2099 1.490 . S
C2104 C2106 1.395 . S
C2104 C2107 1.403 . S
H2105 C2111 0.930 . S
C2106 H2092 0.930 . S
C2106 C2104 1.395 . S
C2106 C2109 1.403 . S
C2107 C2104 1.403 . S
C2107 C2108 1.524 . S
C2107 C2111 1.400 . S
C2108 H2093 0.960 . S
C2108 H2094 0.960 . S
C2108 H2095 0.960 . S
C2108 C2107 1.524 . S
C2109 C2106 1.403 . S
C2109 C2110 1.392 . S
C2109 C2113 1.495 . S
C2110 C2109 1.392 . S
C2110 C2111 1.385 . S
C2110 C2112 1.478 . S
C2111 H2105 0.930 . S
C2111 C2107 1.400 . S
C2111 C2110 1.385 . S
C2112 C2110 1.478 . S
C2112 C2114 1.381 . S
C2112 C2118 1.383 . S
C2113 C2109 1.495 . S
C2113 H2119 0.959 . S
C2113 H2120 0.961 . S
C2113 H2121 0.960 . S
C2114 C2112 1.381 . S
C2114 C2115 1.394 . S
C2114 H2122 0.930 . S
C2115 C2114 1.394 . S
C2115 C2116 1.383 . S
C2115 H2123 0.929 . S
C2116 C2115 1.383 . S
C2116 C2117 1.377 . S
C2117 H2101 0.930 . S
C2117 C2116 1.377 . S
C2117 C2118 1.379 . S
C2118 H2102 0.931 . S
C2118 C2112 1.383 . S
C2118 C2117 1.379 . S
H2119 C2113 0.959 . S
H2120 C2113 0.961 . S
H2121 C2113 0.960 . S
H2122 C2114 0.930 . S
H2123 C2115 0.929 . S
H2124 C2132 0.929 . S
H2125 C2134 0.930 . S
H2126 C2136 0.930 . S
H2127 C2139 0.929 . S
H2128 C2142 0.930 . S
H2129 C2144 0.960 . S
H2130 C2144 0.960 . S
H2131 C2144 0.960 . S
C2132 H2124 0.929 . S
C2132 C2133 1.377 . S
C2132 C2134 1.384 . S
C2133 C2132 1.377 . S
C2133 C2139 1.390 . S
C2134 H2125 0.930 . S
C2134 C2132 1.384 . S
C2134 C2135 1.372 . S
C2135 C2134 1.372 . S
C2135 C2136 1.400 . S
C2135 C2140 1.490 . S
C2136 H2126 0.930 . S
C2136 C2135 1.400 . S
C2136 C2139 1.386 . S
H2137 C2153 0.930 . S
H2138 C2154 0.931 . S
C2139 H2127 0.929 . S
C2139 C2133 1.390 . S
C2139 C2136 1.386 . S
C2140 C2135 1.490 . S
C2140 C2142 1.395 . S
C2140 C2143 1.403 . S
H2141 C2147 0.930 . S
C2142 H2128 0.930 . S
C2142 C2140 1.395 . S
C2142 C2145 1.403 . S
C2143 C2140 1.403 . S
C2143 C2144 1.524 . S
C2143 C2147 1.400 . S
C2144 H2129 0.960 . S
C2144 H2130 0.960 . S
C2144 H2131 0.960 . S
C2144 C2143 1.524 . S
C2145 C2142 1.403 . S
C2145 C2146 1.392 . S
C2145 C2149 1.495 . S
C2146 C2145 1.392 . S
C2146 C2147 1.385 . S
C2146 C2148 1.478 . S
C2147 H2141 0.930 . S
C2147 C2143 1.400 . S
C2147 C2146 1.385 . S
C2148 C2146 1.478 . S
C2148 C2150 1.381 . S
C2148 C2154 1.383 . S
C2149 C2145 1.495 . S
C2149 H2155 0.959 . S
C2149 H2156 0.961 . S
C2149 H2157 0.960 . S
C2150 C2148 1.381 . S
C2150 C2151 1.394 . S
C2150 H2158 0.930 . S
C2151 C2150 1.394 . S
C2151 C2152 1.383 . S
C2151 H2159 0.929 . S
C2152 C2151 1.383 . S
C2152 C2153 1.377 . S
C2153 H2137 0.930 . S
C2153 C2152 1.377 . S
C2153 C2154 1.379 . S
C2154 H2138 0.931 . S
C2154 C2148 1.383 . S
C2154 C2153 1.379 . S
H2155 C2149 0.959 . S
H2156 C2149 0.961 . S
H2157 C2149 0.960 . S
H2158 C2150 0.930 . S
H2159 C2151 0.929 . S
H2160 C2168 0.929 . S
H2161 C2170 0.930 . S
H2162 C2172 0.930 . S
H2163 C2175 0.929 . S
H2164 C2178 0.930 . S
H2165 C2180 0.960 . S
H2166 C2180 0.960 . S
H2167 C2180 0.960 . S
C2168 H2160 0.929 . S
C2168 C2169 1.377 . S
C2168 C2170 1.384 . S
C2169 C2168 1.377 . S
C2169 C2175 1.390 . S
C2170 H2161 0.930 . S
C2170 C2168 1.384 . S
C2170 C2171 1.372 . S
C2171 C2170 1.372 . S
C2171 C2172 1.400 . S
C2171 C2176 1.490 . S
C2172 H2162 0.930 . S
C2172 C2171 1.400 . S
C2172 C2175 1.386 . S
H2173 C2189 0.930 . S
H2174 C2190 0.931 . S
C2175 H2163 0.929 . S
C2175 C2169 1.390 . S
C2175 C2172 1.386 . S
C2176 C2171 1.490 . S
C2176 C2178 1.395 . S
C2176 C2179 1.403 . S
H2177 C2183 0.930 . S
C2178 H2164 0.930 . S
C2178 C2176 1.395 . S
C2178 C2181 1.403 . S
C2179 C2176 1.403 . S
C2179 C2180 1.524 . S
C2179 C2183 1.400 . S
C2180 H2165 0.960 . S
C2180 H2166 0.960 . S
C2180 H2167 0.960 . S
C2180 C2179 1.524 . S
C2181 C2178 1.403 . S
C2181 C2182 1.392 . S
C2181 C2185 1.495 . S
C2182 C2181 1.392 . S
C2182 C2183 1.385 . S
C2182 C2184 1.478 . S
C2183 H2177 0.930 . S
C2183 C2179 1.400 . S
C2183 C2182 1.385 . S
C2184 C2182 1.478 . S
C2184 C2186 1.381 . S
C2184 C2190 1.383 . S
C2185 C2181 1.495 . S
C2185 H2191 0.959 . S
C2185 H2192 0.961 . S
C2185 H2193 0.960 . S
C2186 C2184 1.381 . S
C2186 C2187 1.394 . S
C2186 H2194 0.930 . S
C2187 C2186 1.394 . S
C2187 C2188 1.383 . S
C2187 H2195 0.929 . S
C2188 C2187 1.383 . S
C2188 C2189 1.377 . S
C2189 H2173 0.930 . S
C2189 C2188 1.377 . S
C2189 C2190 1.379 . S
C2190 H2174 0.931 . S
C2190 C2184 1.383 . S
C2190 C2189 1.379 . S
H2191 C2185 0.959 . S
H2192 C2185 0.961 . S
H2193 C2185 0.960 . S
H2194 C2186 0.930 . S
H2195 C2187 0.929 . S
H2196 C2204 0.929 . S
H2197 C2206 0.930 . S
H2198 C2208 0.930 . S
H2199 C2211 0.929 . S
H2200 C2214 0.930 . S
H2201 C2216 0.960 . S
H2202 C2216 0.960 . S
H2203 C2216 0.960 . S
C2204 H2196 0.929 . S
C2204 C2205 1.377 . S
C2204 C2206 1.384 . S
C2205 C2204 1.377 . S
C2205 C2211 1.390 . S
C2206 H2197 0.930 . S
C2206 C2204 1.384 . S
C2206 C2207 1.372 . S
C2207 C2206 1.372 . S
C2207 C2208 1.400 . S
C2207 C2212 1.490 . S
C2208 H2198 0.930 . S
C2208 C2207 1.400 . S
C2208 C2211 1.386 . S
H2209 C2225 0.930 . S
H2210 C2226 0.931 . S
C2211 H2199 0.929 . S
C2211 C2205 1.390 . S
C2211 C2208 1.386 . S
C2212 C2207 1.490 . S
C2212 C2214 1.395 . S
C2212 C2215 1.403 . S
H2213 C2219 0.930 . S
C2214 H2200 0.930 . S
C2214 C2212 1.395 . S
C2214 C2217 1.403 . S
C2215 C2212 1.403 . S
C2215 C2216 1.524 . S
C2215 C2219 1.400 . S
C2216 H2201 0.960 . S
C2216 H2202 0.960 . S
C2216 H2203 0.960 . S
C2216 C2215 1.524 . S
C2217 C2214 1.403 . S
C2217 C2218 1.392 . S
C2217 C2221 1.495 . S
C2218 C2217 1.392 . S
C2218 C2219 1.385 . S
C2218 C2220 1.478 . S
C2219 H2213 0.930 . S
C2219 C2215 1.400 . S
C2219 C2218 1.385 . S
C2220 C2218 1.478 . S
C2220 C2222 1.381 . S
C2220 C2226 1.383 . S
C2221 C2217 1.495 . S
C2221 H2227 0.959 . S
C2221 H2228 0.961 . S
C2221 H2229 0.960 . S
C2222 C2220 1.381 . S
C2222 C2223 1.394 . S
C2222 H2230 0.930 . S
C2223 C2222 1.394 . S
C2223 C2224 1.383 . S
C2223 H2231 0.929 . S
C2224 C2223 1.383 . S
C2224 C2225 1.377 . S
C2225 H2209 0.930 . S
C2225 C2224 1.377 . S
C2225 C2226 1.379 . S
C2226 H2210 0.931 . S
C2226 C2220 1.383 . S
C2226 C2225 1.379 . S
H2227 C2221 0.959 . S
H2228 C2221 0.961 . S
H2229 C2221 0.960 . S
H2230 C2222 0.930 . S
H2231 C2223 0.929 . S
H2232 C2240 0.929 . S
H2233 C2242 0.930 . S
H2234 C2244 0.930 . S
H2235 C2247 0.929 . S
H2236 C2250 0.930 . S
H2237 C2252 0.960 . S
H2238 C2252 0.960 . S
H2239 C2252 0.960 . S
C2240 H2232 0.929 . S
C2240 C2241 1.377 . S
C2240 C2242 1.384 . S
C2241 C2240 1.377 . S
C2241 C2247 1.390 . S
C2242 H2233 0.930 . S
C2242 C2240 1.384 . S
C2242 C2243 1.372 . S
C2243 C2242 1.372 . S
C2243 C2244 1.400 . S
C2243 C2248 1.490 . S
C2244 H2234 0.930 . S
C2244 C2243 1.400 . S
C2244 C2247 1.386 . S
H2245 C2261 0.930 . S
H2246 C2262 0.931 . S
C2247 H2235 0.929 . S
C2247 C2241 1.390 . S
C2247 C2244 1.386 . S
C2248 C2243 1.490 . S
C2248 C2250 1.395 . S
C2248 C2251 1.403 . S
H2249 C2255 0.930 . S
C2250 H2236 0.930 . S
C2250 C2248 1.395 . S
C2250 C2253 1.403 . S
C2251 C2248 1.403 . S
C2251 C2252 1.524 . S
C2251 C2255 1.400 . S
C2252 H2237 0.960 . S
C2252 H2238 0.960 . S
C2252 H2239 0.960 . S
C2252 C2251 1.524 . S
C2253 C2250 1.403 . S
C2253 C2254 1.392 . S
C2253 C2257 1.495 . S
C2254 C2253 1.392 . S
C2254 C2255 1.385 . S
C2254 C2256 1.478 . S
C2255 H2249 0.930 . S
C2255 C2251 1.400 . S
C2255 C2254 1.385 . S
C2256 C2254 1.478 . S
C2256 C2258 1.381 . S
C2256 C2262 1.383 . S
C2257 C2253 1.495 . S
C2257 H2263 0.959 . S
C2257 H2264 0.961 . S
C2257 H2265 0.960 . S
C2258 C2256 1.381 . S
C2258 C2259 1.394 . S
C2258 H2266 0.930 . S
C2259 C2258 1.394 . S
C2259 C2260 1.383 . S
C2259 H2267 0.929 . S
C2260 C2259 1.383 . S
C2260 C2261 1.377 . S
C2261 H2245 0.930 . S
C2261 C2260 1.377 . S
C2261 C2262 1.379 . S
C2262 H2246 0.931 . S
C2262 C2256 1.383 . S
C2262 C2261 1.379 . S
H2263 C2257 0.959 . S
H2264 C2257 0.961 . S
H2265 C2257 0.960 . S
H2266 C2258 0.930 . S
H2267 C2259 0.929 . S
H2268 C2276 0.929 . S
H2269 C2278 0.930 . S
H2270 C2280 0.930 . S
H2271 C2283 0.929 . S
H2272 C2286 0.930 . S
H2273 C2288 0.960 . S
H2274 C2288 0.960 . S
H2275 C2288 0.960 . S
C2276 H2268 0.929 . S
C2276 C2277 1.377 . S
C2276 C2278 1.384 . S
C2277 C2276 1.377 . S
C2277 C2283 1.390 . S
C2278 H2269 0.930 . S
C2278 C2276 1.384 . S
C2278 C2279 1.372 . S
C2279 C2278 1.372 . S
C2279 C2280 1.400 . S
C2279 C2284 1.490 . S
C2280 H2270 0.930 . S
C2280 C2279 1.400 . S
C2280 C2283 1.386 . S
H2281 C2297 0.930 . S
H2282 C2298 0.931 . S
C2283 H2271 0.929 . S
C2283 C2277 1.390 . S
C2283 C2280 1.386 . S
C2284 C2279 1.490 . S
C2284 C2286 1.395 . S
C2284 C2287 1.403 . S
H2285 C2291 0.930 . S
C2286 H2272 0.930 . S
C2286 C2284 1.395 . S
C2286 C2289 1.403 . S
C2287 C2284 1.403 . S
C2287 C2288 1.524 . S
C2287 C2291 1.400 . S
C2288 H2273 0.960 . S
C2288 H2274 0.960 . S
C2288 H2275 0.960 . S
C2288 C2287 1.524 . S
C2289 C2286 1.403 . S
C2289 C2290 1.392 . S
C2289 C2293 1.495 . S
C2290 C2289 1.392 . S
C2290 C2291 1.385 . S
C2290 C2292 1.478 . S
C2291 H2285 0.930 . S
C2291 C2287 1.400 . S
C2291 C2290 1.385 . S
C2292 C2290 1.478 . S
C2292 C2294 1.381 . S
C2292 C2298 1.383 . S
C2293 C2289 1.495 . S
C2293 H2299 0.959 . S
C2293 H2300 0.961 . S
C2293 H2301 0.960 . S
C2294 C2292 1.381 . S
C2294 C2295 1.394 . S
C2294 H2302 0.930 . S
C2295 C2294 1.394 . S
C2295 C2296 1.383 . S
C2295 H2303 0.929 . S
C2296 C2295 1.383 . S
C2296 C2297 1.377 . S
C2297 H2281 0.930 . S
C2297 C2296 1.377 . S
C2297 C2298 1.379 . S
C2298 H2282 0.931 . S
C2298 C2292 1.383 . S
C2298 C2297 1.379 . S
H2299 C2293 0.959 . S
H2300 C2293 0.961 . S
H2301 C2293 0.960 . S
H2302 C2294 0.930 . S
H2303 C2295 0.929 . S
H2304 C2312 0.929 . S
H2305 C2314 0.930 . S
H2306 C2316 0.930 . S
H2307 C2319 0.929 . S
H2308 C2322 0.930 . S
H2309 C2324 0.960 . S
H2310 C2324 0.960 . S
H2311 C2324 0.960 . S
C2312 H2304 0.929 . S
C2312 C2313 1.377 . S
C2312 C2314 1.384 . S
C2313 C2312 1.377 . S
C2313 C2319 1.390 . S
C2314 H2305 0.930 . S
C2314 C2312 1.384 . S
C2314 C2315 1.372 . S
C2315 C2314 1.372 . S
C2315 C2316 1.400 . S
C2315 C2320 1.490 . S
C2316 H2306 0.930 . S
C2316 C2315 1.400 . S
C2316 C2319 1.386 . S
H2317 C2333 0.930 . S
H2318 C2334 0.931 . S
C2319 H2307 0.929 . S
C2319 C2313 1.390 . S
C2319 C2316 1.386 . S
C2320 C2315 1.490 . S
C2320 C2322 1.395 . S
C2320 C2323 1.403 . S
H2321 C2327 0.930 . S
C2322 H2308 0.930 . S
C2322 C2320 1.395 . S
C2322 C2325 1.403 . S
C2323 C2320 1.403 . S
C2323 C2324 1.524 . S
C2323 C2327 1.400 . S
C2324 H2309 0.960 . S
C2324 H2310 0.960 . S
C2324 H2311 0.960 . S
C2324 C2323 1.524 . S
C2325 C2322 1.403 . S
C2325 C2326 1.392 . S
C2325 C2329 1.495 . S
C2326 C2325 1.392 . S
C2326 C2327 1.385 . S
C2326 C2328 1.478 . S
C2327 H2321 0.930 . S
C2327 C2323 1.400 . S
C2327 C2326 1.385 . S
C2328 C2326 1.478 . S
C2328 C2330 1.381 . S
C2328 C2334 1.383 . S
C2329 C2325 1.495 . S
C2329 H2335 0.959 . S
C2329 H2336 0.961 . S
C2329 H2337 0.960 . S
C2330 C2328 1.381 . S
C2330 C2331 1.394 . S
C2330 H2338 0.930 . S
C2331 C2330 1.394 . S
C2331 C2332 1.383 . S
C2331 H2339 0.929 . S
C2332 C2331 1.383 . S
C2332 C2333 1.377 . S
C2333 H2317 0.930 . S
C2333 C2332 1.377 . S
C2333 C2334 1.379 . S
C2334 H2318 0.931 . S
C2334 C2328 1.383 . S
C2334 C2333 1.379 . S
H2335 C2329 0.959 . S
H2336 C2329 0.961 . S
H2337 C2329 0.960 . S
H2338 C2330 0.930 . S
H2339 C2331 0.929 . S
H2340 C2348 0.929 . S
H2341 C2350 0.930 . S
H2342 C2352 0.930 . S
H2343 C2355 0.929 . S
H2344 C2358 0.930 . S
H2345 C2360 0.960 . S
H2346 C2360 0.960 . S
H2347 C2360 0.960 . S
C2348 H2340 0.929 . S
C2348 C2349 1.377 . S
C2348 C2350 1.384 . S
C2349 C2348 1.377 . S
C2349 C2355 1.390 . S
C2350 H2341 0.930 . S
C2350 C2348 1.384 . S
C2350 C2351 1.372 . S
C2351 C2350 1.372 . S
C2351 C2352 1.400 . S
C2351 C2356 1.490 . S
C2352 H2342 0.930 . S
C2352 C2351 1.400 . S
C2352 C2355 1.386 . S
H2353 C2369 0.930 . S
H2354 C2370 0.931 . S
C2355 H2343 0.929 . S
C2355 C2349 1.390 . S
C2355 C2352 1.386 . S
C2356 C2351 1.490 . S
C2356 C2358 1.395 . S
C2356 C2359 1.403 . S
H2357 C2363 0.930 . S
C2358 H2344 0.930 . S
C2358 C2356 1.395 . S
C2358 C2361 1.403 . S
C2359 C2356 1.403 . S
C2359 C2360 1.524 . S
C2359 C2363 1.400 . S
C2360 H2345 0.960 . S
C2360 H2346 0.960 . S
C2360 H2347 0.960 . S
C2360 C2359 1.524 . S
C2361 C2358 1.403 . S
C2361 C2362 1.392 . S
C2361 C2365 1.495 . S
C2362 C2361 1.392 . S
C2362 C2363 1.385 . S
C2362 C2364 1.478 . S
C2363 H2357 0.930 . S
C2363 C2359 1.400 . S
C2363 C2362 1.385 . S
C2364 C2362 1.478 . S
C2364 C2366 1.381 . S
C2364 C2370 1.383 . S
C2365 C2361 1.495 . S
C2365 H2371 0.959 . S
C2365 H2372 0.961 . S
C2365 H2373 0.960 . S
C2366 C2364 1.381 . S
C2366 C2367 1.394 . S
C2366 H2374 0.930 . S
C2367 C2366 1.394 . S
C2367 C2368 1.383 . S
C2367 H2375 0.929 . S
C2368 C2367 1.383 . S
C2368 C2369 1.377 . S
C2369 H2353 0.930 . S
C2369 C2368 1.377 . S
C2369 C2370 1.379 . S
C2370 H2354 0.931 . S
C2370 C2364 1.383 . S
C2370 C2369 1.379 . S
H2371 C2365 0.959 . S
H2372 C2365 0.961 . S
H2373 C2365 0.960 . S
H2374 C2366 0.930 . S
H2375 C2367 0.929 . S
H2376 C2384 0.929 . S
H2377 C2386 0.930 . S
H2378 C2388 0.930 . S
H2379 C2391 0.929 . S
H2380 C2394 0.930 . S
H2381 C2396 0.960 . S
H2382 C2396 0.960 . S
H2383 C2396 0.960 . S
C2384 H2376 0.929 . S
C2384 C2385 1.377 . S
C2384 C2386 1.384 . S
C2385 C2384 1.377 . S
C2385 C2391 1.390 . S
C2386 H2377 0.930 . S
C2386 C2384 1.384 . S
C2386 C2387 1.372 . S
C2387 C2386 1.372 . S
C2387 C2388 1.400 . S
C2387 C2392 1.490 . S
C2388 H2378 0.930 . S
C2388 C2387 1.400 . S
C2388 C2391 1.386 . S
H2389 C2405 0.930 . S
H2390 C2406 0.931 . S
C2391 H2379 0.929 . S
C2391 C2385 1.390 . S
C2391 C2388 1.386 . S
C2392 C2387 1.490 . S
C2392 C2394 1.395 . S
C2392 C2395 1.403 . S
H2393 C2399 0.930 . S
C2394 H2380 0.930 . S
C2394 C2392 1.395 . S
C2394 C2397 1.403 . S
C2395 C2392 1.403 . S
C2395 C2396 1.524 . S
C2395 C2399 1.400 . S
C2396 H2381 0.960 . S
C2396 H2382 0.960 . S
C2396 H2383 0.960 . S
C2396 C2395 1.524 . S
C2397 C2394 1.403 . S
C2397 C2398 1.392 . S
C2397 C2401 1.495 . S
C2398 C2397 1.392 . S
C2398 C2399 1.385 . S
C2398 C2400 1.478 . S
C2399 H2393 0.930 . S
C2399 C2395 1.400 . S
C2399 C2398 1.385 . S
C2400 C2398 1.478 . S
C2400 C2402 1.381 . S
C2400 C2406 1.383 . S
C2401 C2397 1.495 . S
C2401 H2407 0.959 . S
C2401 H2408 0.961 . S
C2401 H2409 0.960 . S
C2402 C2400 1.381 . S
C2402 C2403 1.394 . S
C2402 H2410 0.930 . S
C2403 C2402 1.394 . S
C2403 C2404 1.383 . S
C2403 H2411 0.929 . S
C2404 C2403 1.383 . S
C2404 C2405 1.377 . S
C2405 H2389 0.930 . S
C2405 C2404 1.377 . S
C2405 C2406 1.379 . S
C2406 H2390 0.931 . S
C2406 C2400 1.383 . S
C2406 C2405 1.379 . S
H2407 C2401 0.959 . S
H2408 C2401 0.961 . S
H2409 C2401 0.960 . S
H2410 C2402 0.930 . S
H2411 C2403 0.929 . S
H2412 C2420 0.929 . S
H2413 C2422 0.930 . S
H2414 C2424 0.930 . S
H2415 C2427 0.929 . S
H2416 C2430 0.930 . S
H2417 C2432 0.960 . S
H2418 C2432 0.960 . S
H2419 C2432 0.960 . S
C2420 H2412 0.929 . S
C2420 C2421 1.377 . S
C2420 C2422 1.384 . S
C2421 C2420 1.377 . S
C2421 C2427 1.390 . S
C2422 H2413 0.930 . S
C2422 C2420 1.384 . S
C2422 C2423 1.372 . S
C2423 C2422 1.372 . S
C2423 C2424 1.400 . S
C2423 C2428 1.490 . S
C2424 H2414 0.930 . S
C2424 C2423 1.400 . S
C2424 C2427 1.386 . S
H2425 C2441 0.930 . S
H2426 C2442 0.931 . S
C2427 H2415 0.929 . S
C2427 C2421 1.390 . S
C2427 C2424 1.386 . S
C2428 C2423 1.490 . S
C2428 C2430 1.395 . S
C2428 C2431 1.403 . S
H2429 C2435 0.930 . S
C2430 H2416 0.930 . S
C2430 C2428 1.395 . S
C2430 C2433 1.403 . S
C2431 C2428 1.403 . S
C2431 C2432 1.524 . S
C2431 C2435 1.400 . S
C2432 H2417 0.960 . S
C2432 H2418 0.960 . S
C2432 H2419 0.960 . S
C2432 C2431 1.524 . S
C2433 C2430 1.403 . S
C2433 C2434 1.392 . S
C2433 C2437 1.495 . S
C2434 C2433 1.392 . S
C2434 C2435 1.385 . S
C2434 C2436 1.478 . S
C2435 H2429 0.930 . S
C2435 C2431 1.400 . S
C2435 C2434 1.385 . S
C2436 C2434 1.478 . S
C2436 C2438 1.381 . S
C2436 C2442 1.383 . S
C2437 C2433 1.495 . S
C2437 H2443 0.959 . S
C2437 H2444 0.961 . S
C2437 H2445 0.960 . S
C2438 C2436 1.381 . S
C2438 C2439 1.394 . S
C2438 H2446 0.930 . S
C2439 C2438 1.394 . S
C2439 C2440 1.383 . S
C2439 H2447 0.929 . S
C2440 C2439 1.383 . S
C2440 C2441 1.377 . S
C2441 H2425 0.930 . S
C2441 C2440 1.377 . S
C2441 C2442 1.379 . S
C2442 H2426 0.931 . S
C2442 C2436 1.383 . S
C2442 C2441 1.379 . S
H2443 C2437 0.959 . S
H2444 C2437 0.961 . S
H2445 C2437 0.960 . S
H2446 C2438 0.930 . S
H2447 C2439 0.929 . S
H2448 C2456 0.929 . S
H2449 C2458 0.930 . S
H2450 C2460 0.930 . S
H2451 C2463 0.929 . S
H2452 C2466 0.930 . S
H2453 C2468 0.960 . S
H2454 C2468 0.960 . S
H2455 C2468 0.960 . S
C2456 H2448 0.929 . S
C2456 C2457 1.377 . S
C2456 C2458 1.384 . S
C2457 C2456 1.377 . S
C2457 C2463 1.390 . S
C2458 H2449 0.930 . S
C2458 C2456 1.384 . S
C2458 C2459 1.372 . S
C2459 C2458 1.372 . S
C2459 C2460 1.400 . S
C2459 C2464 1.490 . S
C2460 H2450 0.930 . S
C2460 C2459 1.400 . S
C2460 C2463 1.386 . S
H2461 C2477 0.930 . S
H2462 C2478 0.931 . S
C2463 H2451 0.929 . S
C2463 C2457 1.390 . S
C2463 C2460 1.386 . S
C2464 C2459 1.490 . S
C2464 C2466 1.395 . S
C2464 C2467 1.403 . S
H2465 C2471 0.930 . S
C2466 H2452 0.930 . S
C2466 C2464 1.395 . S
C2466 C2469 1.403 . S
C2467 C2464 1.403 . S
C2467 C2468 1.524 . S
C2467 C2471 1.400 . S
C2468 H2453 0.960 . S
C2468 H2454 0.960 . S
C2468 H2455 0.960 . S
C2468 C2467 1.524 . S
C2469 C2466 1.403 . S
C2469 C2470 1.392 . S
C2469 C2473 1.495 . S
C2470 C2469 1.392 . S
C2470 C2471 1.385 . S
C2470 C2472 1.478 . S
C2471 H2465 0.930 . S
C2471 C2467 1.400 . S
C2471 C2470 1.385 . S
C2472 C2470 1.478 . S
C2472 C2474 1.381 . S
C2472 C2478 1.383 . S
C2473 C2469 1.495 . S
C2473 H2479 0.959 . S
C2473 H2480 0.961 . S
C2473 H2481 0.960 . S
C2474 C2472 1.381 . S
C2474 C2475 1.394 . S
C2474 H2482 0.930 . S
C2475 C2474 1.394 . S
C2475 C2476 1.383 . S
C2475 H2483 0.929 . S
C2476 C2475 1.383 . S
C2476 C2477 1.377 . S
C2477 H2461 0.930 . S
C2477 C2476 1.377 . S
C2477 C2478 1.379 . S
C2478 H2462 0.931 . S
C2478 C2472 1.383 . S
C2478 C2477 1.379 . S
H2479 C2473 0.959 . S
H2480 C2473 0.961 . S
H2481 C2473 0.960 . S
H2482 C2474 0.930 . S
H2483 C2475 0.929 . S
H2484 C2492 0.929 . S
H2485 C2494 0.930 . S
H2486 C2496 0.930 . S
H2487 C2499 0.929 . S
H2488 C2502 0.930 . S
H2489 C2504 0.960 . S
H2490 C2504 0.960 . S
H2491 C2504 0.960 . S
C2492 H2484 0.929 . S
C2492 C2493 1.377 . S
C2492 C2494 1.384 . S
C2493 C2492 1.377 . S
C2493 C2499 1.390 . S
C2494 H2485 0.930 . S
C2494 C2492 1.384 . S
C2494 C2495 1.372 . S
C2495 C2494 1.372 . S
C2495 C2496 1.400 . S
C2495 C2500 1.490 . S
C2496 H2486 0.930 . S
C2496 C2495 1.400 . S
C2496 C2499 1.386 . S
H2497 C2513 0.930 . S
H2498 C2514 0.931 . S
C2499 H2487 0.929 . S
C2499 C2493 1.390 . S
C2499 C2496 1.386 . S
C2500 C2495 1.490 . S
C2500 C2502 1.395 . S
C2500 C2503 1.403 . S
H2501 C2507 0.930 . S
C2502 H2488 0.930 . S
C2502 C2500 1.395 . S
C2502 C2505 1.403 . S
C2503 C2500 1.403 . S
C2503 C2504 1.524 . S
C2503 C2507 1.400 . S
C2504 H2489 0.960 . S
C2504 H2490 0.960 . S
C2504 H2491 0.960 . S
C2504 C2503 1.524 . S
C2505 C2502 1.403 . S
C2505 C2506 1.392 . S
C2505 C2509 1.495 . S
C2506 C2505 1.392 . S
C2506 C2507 1.385 . S
C2506 C2508 1.478 . S
C2507 H2501 0.930 . S
C2507 C2503 1.400 . S
C2507 C2506 1.385 . S
C2508 C2506 1.478 . S
C2508 C2510 1.381 . S
C2508 C2514 1.383 . S
C2509 C2505 1.495 . S
C2509 H2515 0.959 . S
C2509 H2516 0.961 . S
C2509 H2517 0.960 . S
C2510 C2508 1.381 . S
C2510 C2511 1.394 . S
C2510 H2518 0.930 . S
C2511 C2510 1.394 . S
C2511 C2512 1.383 . S
C2511 H2519 0.929 . S
C2512 C2511 1.383 . S
C2512 C2513 1.377 . S
C2513 H2497 0.930 . S
C2513 C2512 1.377 . S
C2513 C2514 1.379 . S
C2514 H2498 0.931 . S
C2514 C2508 1.383 . S
C2514 C2513 1.379 . S
H2515 C2509 0.959 . S
H2516 C2509 0.961 . S
H2517 C2509 0.960 . S
H2518 C2510 0.930 . S
H2519 C2511 0.929 . S
H2520 C2528 0.929 . S
H2521 C2530 0.930 . S
H2522 C2532 0.930 . S
H2523 C2535 0.929 . S
H2524 C2538 0.930 . S
H2525 C2540 0.960 . S
H2526 C2540 0.960 . S
H2527 C2540 0.960 . S
C2528 H2520 0.929 . S
C2528 C2529 1.377 . S
C2528 C2530 1.384 . S
C2529 C2528 1.377 . S
C2529 C2535 1.390 . S
C2530 H2521 0.930 . S
C2530 C2528 1.384 . S
C2530 C2531 1.372 . S
C2531 C2530 1.372 . S
C2531 C2532 1.400 . S
C2531 C2536 1.490 . S
C2532 H2522 0.930 . S
C2532 C2531 1.400 . S
C2532 C2535 1.386 . S
H2533 C2549 0.930 . S
H2534 C2550 0.931 . S
C2535 H2523 0.929 . S
C2535 C2529 1.390 . S
C2535 C2532 1.386 . S
C2536 C2531 1.490 . S
C2536 C2538 1.395 . S
C2536 C2539 1.403 . S
H2537 C2543 0.930 . S
C2538 H2524 0.930 . S
C2538 C2536 1.395 . S
C2538 C2541 1.403 . S
C2539 C2536 1.403 . S
C2539 C2540 1.524 . S
C2539 C2543 1.400 . S
C2540 H2525 0.960 . S
C2540 H2526 0.960 . S
C2540 H2527 0.960 . S
C2540 C2539 1.524 . S
C2541 C2538 1.403 . S
C2541 C2542 1.392 . S
C2541 C2545 1.495 . S
C2542 C2541 1.392 . S
C2542 C2543 1.385 . S
C2542 C2544 1.478 . S
C2543 H2537 0.930 . S
C2543 C2539 1.400 . S
C2543 C2542 1.385 . S
C2544 C2542 1.478 . S
C2544 C2546 1.381 . S
C2544 C2550 1.383 . S
C2545 C2541 1.495 . S
C2545 H2551 0.959 . S
C2545 H2552 0.961 . S
C2545 H2553 0.960 . S
C2546 C2544 1.381 . S
C2546 C2547 1.394 . S
C2546 H2554 0.930 . S
C2547 C2546 1.394 . S
C2547 C2548 1.383 . S
C2547 H2555 0.929 . S
C2548 C2547 1.383 . S
C2548 C2549 1.377 . S
C2549 H2533 0.930 . S
C2549 C2548 1.377 . S
C2549 C2550 1.379 . S
C2550 H2534 0.931 . S
C2550 C2544 1.383 . S
C2550 C2549 1.379 . S
H2551 C2545 0.959 . S
H2552 C2545 0.961 . S
H2553 C2545 0.960 . S
H2554 C2546 0.930 . S
H2555 C2547 0.929 . S
H2556 C2564 0.929 . S
H2557 C2566 0.930 . S
H2558 C2568 0.930 . S
H2559 C2571 0.929 . S
H2560 C2574 0.930 . S
H2561 C2576 0.960 . S
H2562 C2576 0.960 . S
H2563 C2576 0.960 . S
C2564 H2556 0.929 . S
C2564 C2565 1.377 . S
C2564 C2566 1.384 . S
C2565 C2564 1.377 . S
C2565 C2571 1.390 . S
C2566 H2557 0.930 . S
C2566 C2564 1.384 . S
C2566 C2567 1.372 . S
C2567 C2566 1.372 . S
C2567 C2568 1.400 . S
C2567 C2572 1.490 . S
C2568 H2558 0.930 . S
C2568 C2567 1.400 . S
C2568 C2571 1.386 . S
H2569 C2585 0.930 . S
H2570 C2586 0.931 . S
C2571 H2559 0.929 . S
C2571 C2565 1.390 . S
C2571 C2568 1.386 . S
C2572 C2567 1.490 . S
C2572 C2574 1.395 . S
C2572 C2575 1.403 . S
H2573 C2579 0.930 . S
C2574 H2560 0.930 . S
C2574 C2572 1.395 . S
C2574 C2577 1.403 . S
C2575 C2572 1.403 . S
C2575 C2576 1.524 . S
C2575 C2579 1.400 . S
C2576 H2561 0.960 . S
C2576 H2562 0.960 . S
C2576 H2563 0.960 . S
C2576 C2575 1.524 . S
C2577 C2574 1.403 . S
C2577 C2578 1.392 . S
C2577 C2581 1.495 . S
C2578 C2577 1.392 . S
C2578 C2579 1.385 . S
C2578 C2580 1.478 . S
C2579 H2573 0.930 . S
C2579 C2575 1.400 . S
C2579 C2578 1.385 . S
C2580 C2578 1.478 . S
C2580 C2582 1.381 . S
C2580 C2586 1.383 . S
C2581 C2577 1.495 . S
C2581 H2587 0.959 . S
C2581 H2588 0.961 . S
C2581 H2589 0.960 . S
C2582 C2580 1.381 . S
C2582 C2583 1.394 . S
C2582 H2590 0.930 . S
C2583 C2582 1.394 . S
C2583 C2584 1.383 . S
C2583 H2591 0.929 . S
C2584 C2583 1.383 . S
C2584 C2585 1.377 . S
C2585 H2569 0.930 . S
C2585 C2584 1.377 . S
C2585 C2586 1.379 . S
C2586 H2570 0.931 . S
C2586 C2580 1.383 . S
C2586 C2585 1.379 . S
H2587 C2581 0.959 . S
H2588 C2581 0.961 . S
H2589 C2581 0.960 . S
H2590 C2582 0.930 . S
H2591 C2583 0.929 . S
H2592 C2600 0.929 . S
H2593 C2602 0.930 . S
H2594 C2604 0.930 . S
H2595 C2607 0.929 . S
H2596 C2610 0.930 . S
H2597 C2612 0.960 . S
H2598 C2612 0.960 . S
H2599 C2612 0.960 . S
C2600 H2592 0.929 . S
C2600 C2601 1.377 . S
C2600 C2602 1.384 . S
C2601 C2600 1.377 . S
C2601 C2607 1.390 . S
C2602 H2593 0.930 . S
C2602 C2600 1.384 . S
C2602 C2603 1.372 . S
C2603 C2602 1.372 . S
C2603 C2604 1.400 . S
C2603 C2608 1.490 . S
C2604 H2594 0.930 . S
C2604 C2603 1.400 . S
C2604 C2607 1.386 . S
H2605 C2621 0.930 . S
H2606 C2622 0.931 . S
C2607 H2595 0.929 . S
C2607 C2601 1.390 . S
C2607 C2604 1.386 . S
C2608 C2603 1.490 . S
C2608 C2610 1.395 . S
C2608 C2611 1.403 . S
H2609 C2615 0.930 . S
C2610 H2596 0.930 . S
C2610 C2608 1.395 . S
C2610 C2613 1.403 . S
C2611 C2608 1.403 . S
C2611 C2612 1.524 . S
C2611 C2615 1.400 . S
C2612 H2597 0.960 . S
C2612 H2598 0.960 . S
C2612 H2599 0.960 . S
C2612 C2611 1.524 . S
C2613 C2610 1.403 . S
C2613 C2614 1.392 . S
C2613 C2617 1.495 . S
C2614 C2613 1.392 . S
C2614 C2615 1.385 . S
C2614 C2616 1.478 . S
C2615 H2609 0.930 . S
C2615 C2611 1.400 . S
C2615 C2614 1.385 . S
C2616 C2614 1.478 . S
C2616 C2618 1.381 . S
C2616 C2622 1.383 . S
C2617 C2613 1.495 . S
C2617 H2623 0.959 . S
C2617 H2624 0.961 . S
C2617 H2625 0.960 . S
C2618 C2616 1.381 . S
C2618 C2619 1.394 . S
C2618 H2626 0.930 . S
C2619 C2618 1.394 . S
C2619 C2620 1.383 . S
C2619 H2627 0.929 . S
C2620 C2619 1.383 . S
C2620 C2621 1.377 . S
C2621 H2605 0.930 . S
C2621 C2620 1.377 . S
C2621 C2622 1.379 . S
C2622 H2606 0.931 . S
C2622 C2616 1.383 . S
C2622 C2621 1.379 . S
H2623 C2617 0.959 . S
H2624 C2617 0.961 . S
H2625 C2617 0.960 . S
H2626 C2618 0.930 . S
H2627 C2619 0.929 . S
H2628 C2636 0.929 . S
H2629 C2638 0.930 . S
H2630 C2640 0.930 . S
H2631 C2643 0.929 . S
H2632 C2646 0.930 . S
H2633 C2648 0.960 . S
H2634 C2648 0.960 . S
H2635 C2648 0.960 . S
C2636 H2628 0.929 . S
C2636 C2637 1.377 . S
C2636 C2638 1.384 . S
C2637 C2636 1.377 . S
C2637 C2643 1.390 . S
C2638 H2629 0.930 . S
C2638 C2636 1.384 . S
C2638 C2639 1.372 . S
C2639 C2638 1.372 . S
C2639 C2640 1.400 . S
C2639 C2644 1.490 . S
C2640 H2630 0.930 . S
C2640 C2639 1.400 . S
C2640 C2643 1.386 . S
H2641 C2657 0.930 . S
H2642 C2658 0.931 . S
C2643 H2631 0.929 . S
C2643 C2637 1.390 . S
C2643 C2640 1.386 . S
C2644 C2639 1.490 . S
C2644 C2646 1.395 . S
C2644 C2647 1.403 . S
H2645 C2651 0.930 . S
C2646 H2632 0.930 . S
C2646 C2644 1.395 . S
C2646 C2649 1.403 . S
C2647 C2644 1.403 . S
C2647 C2648 1.524 . S
C2647 C2651 1.400 . S
C2648 H2633 0.960 . S
C2648 H2634 0.960 . S
C2648 H2635 0.960 . S
C2648 C2647 1.524 . S
C2649 C2646 1.403 . S
C2649 C2650 1.392 . S
C2649 C2653 1.495 . S
C2650 C2649 1.392 . S
C2650 C2651 1.385 . S
C2650 C2652 1.478 . S
C2651 H2645 0.930 . S
C2651 C2647 1.400 . S
C2651 C2650 1.385 . S
C2652 C2650 1.478 . S
C2652 C2654 1.381 . S
C2652 C2658 1.383 . S
C2653 C2649 1.495 . S
C2653 H2659 0.959 . S
C2653 H2660 0.961 . S
C2653 H2661 0.960 . S
C2654 C2652 1.381 . S
C2654 C2655 1.394 . S
C2654 H2662 0.930 . S
C2655 C2654 1.394 . S
C2655 C2656 1.383 . S
C2655 H2663 0.929 . S
C2656 C2655 1.383 . S
C2656 C2657 1.377 . S
C2657 H2641 0.930 . S
C2657 C2656 1.377 . S
C2657 C2658 1.379 . S
C2658 H2642 0.931 . S
C2658 C2652 1.383 . S
C2658 C2657 1.379 . S
H2659 C2653 0.959 . S
H2660 C2653 0.961 . S
H2661 C2653 0.960 . S
H2662 C2654 0.930 . S
H2663 C2655 0.929 . S
H2664 C2672 0.929 . S
H2665 C2674 0.930 . S
H2666 C2676 0.930 . S
H2667 C2679 0.929 . S
H2668 C2682 0.930 . S
H2669 C2684 0.960 . S
H2670 C2684 0.960 . S
H2671 C2684 0.960 . S
C2672 H2664 0.929 . S
C2672 C2673 1.377 . S
C2672 C2674 1.384 . S
C2673 C2672 1.377 . S
C2673 C2679 1.390 . S
C2674 H2665 0.930 . S
C2674 C2672 1.384 . S
C2674 C2675 1.372 . S
C2675 C2674 1.372 . S
C2675 C2676 1.400 . S
C2675 C2680 1.490 . S
C2676 H2666 0.930 . S
C2676 C2675 1.400 . S
C2676 C2679 1.386 . S
H2677 C2693 0.930 . S
H2678 C2694 0.931 . S
C2679 H2667 0.929 . S
C2679 C2673 1.390 . S
C2679 C2676 1.386 . S
C2680 C2675 1.490 . S
C2680 C2682 1.395 . S
C2680 C2683 1.403 . S
H2681 C2687 0.930 . S
C2682 H2668 0.930 . S
C2682 C2680 1.395 . S
C2682 C2685 1.403 . S
C2683 C2680 1.403 . S
C2683 C2684 1.524 . S
C2683 C2687 1.400 . S
C2684 H2669 0.960 . S
C2684 H2670 0.960 . S
C2684 H2671 0.960 . S
C2684 C2683 1.524 . S
C2685 C2682 1.403 . S
C2685 C2686 1.392 . S
C2685 C2689 1.495 . S
C2686 C2685 1.392 . S
C2686 C2687 1.385 . S
C2686 C2688 1.478 . S
C2687 H2681 0.930 . S
C2687 C2683 1.400 . S
C2687 C2686 1.385 . S
C2688 C2686 1.478 . S
C2688 C2690 1.381 . S
C2688 C2694 1.383 . S
C2689 C2685 1.495 . S
C2689 H2695 0.959 . S
C2689 H2696 0.961 . S
C2689 H2697 0.960 . S
C2690 C2688 1.381 . S
C2690 C2691 1.394 . S
C2690 H2698 0.930 . S
C2691 C2690 1.394 . S
C2691 C2692 1.383 . S
C2691 H2699 0.929 . S
C2692 C2691 1.383 . S
C2692 C2693 1.377 . S
C2693 H2677 0.930 . S
C2693 C2692 1.377 . S
C2693 C2694 1.379 . S
C2694 H2678 0.931 . S
C2694 C2688 1.383 . S
C2694 C2693 1.379 . S
H2695 C2689 0.959 . S
H2696 C2689 0.961 . S
H2697 C2689 0.960 . S
H2698 C2690 0.930 . S
H2699 C2691 0.929 . S
H2700 C2708 0.929 . S
H2701 C2710 0.930 . S
H2702 C2712 0.930 . S
H2703 C2715 0.929 . S
H2704 C2718 0.930 . S
H2705 C2720 0.960 . S
H2706 C2720 0.960 . S
H2707 C2720 0.960 . S
C2708 H2700 0.929 . S
C2708 C2709 1.377 . S
C2708 C2710 1.384 . S
C2709 C2708 1.377 . S
C2709 C2715 1.390 . S
C2710 H2701 0.930 . S
C2710 C2708 1.384 . S
C2710 C2711 1.372 . S
C2711 C2710 1.372 . S
C2711 C2712 1.400 . S
C2711 C2716 1.490 . S
C2712 H2702 0.930 . S
C2712 C2711 1.400 . S
C2712 C2715 1.386 . S
H2713 C2729 0.930 . S
H2714 C2730 0.931 . S
C2715 H2703 0.929 . S
C2715 C2709 1.390 . S
C2715 C2712 1.386 . S
C2716 C2711 1.490 . S
C2716 C2718 1.395 . S
C2716 C2719 1.403 . S
H2717 C2723 0.930 . S
C2718 H2704 0.930 . S
C2718 C2716 1.395 . S
C2718 C2721 1.403 . S
C2719 C2716 1.403 . S
C2719 C2720 1.524 . S
C2719 C2723 1.400 . S
C2720 H2705 0.960 . S
C2720 H2706 0.960 . S
C2720 H2707 0.960 . S
C2720 C2719 1.524 . S
C2721 C2718 1.403 . S
C2721 C2722 1.392 . S
C2721 C2725 1.495 . S
C2722 C2721 1.392 . S
C2722 C2723 1.385 . S
C2722 C2724 1.478 . S
C2723 H2717 0.930 . S
C2723 C2719 1.400 . S
C2723 C2722 1.385 . S
C2724 C2722 1.478 . S
C2724 C2726 1.381 . S
C2724 C2730 1.383 . S
C2725 C2721 1.495 . S
C2725 H2731 0.959 . S
C2725 H2732 0.961 . S
C2725 H2733 0.960 . S
C2726 C2724 1.381 . S
C2726 C2727 1.394 . S
C2726 H2734 0.930 . S
C2727 C2726 1.394 . S
C2727 C2728 1.383 . S
C2727 H2735 0.929 . S
C2728 C2727 1.383 . S
C2728 C2729 1.377 . S
C2729 H2713 0.930 . S
C2729 C2728 1.377 . S
C2729 C2730 1.379 . S
C2730 H2714 0.931 . S
C2730 C2724 1.383 . S
C2730 C2729 1.379 . S
H2731 C2725 0.959 . S
H2732 C2725 0.961 . S
H2733 C2725 0.960 . S
H2734 C2726 0.930 . S
H2735 C2727 0.929 . S
H2736 C2744 0.929 . S
H2737 C2746 0.930 . S
H2738 C2748 0.930 . S
H2739 C2751 0.929 . S
H2740 C2754 0.930 . S
H2741 C2756 0.960 . S
H2742 C2756 0.960 . S
H2743 C2756 0.960 . S
C2744 H2736 0.929 . S
C2744 C2745 1.377 . S
C2744 C2746 1.384 . S
C2745 C2744 1.377 . S
C2745 C2751 1.390 . S
C2746 H2737 0.930 . S
C2746 C2744 1.384 . S
C2746 C2747 1.372 . S
C2747 C2746 1.372 . S
C2747 C2748 1.400 . S
C2747 C2752 1.490 . S
C2748 H2738 0.930 . S
C2748 C2747 1.400 . S
C2748 C2751 1.386 . S
H2749 C2765 0.930 . S
H2750 C2766 0.931 . S
C2751 H2739 0.929 . S
C2751 C2745 1.390 . S
C2751 C2748 1.386 . S
C2752 C2747 1.490 . S
C2752 C2754 1.395 . S
C2752 C2755 1.403 . S
H2753 C2759 0.930 . S
C2754 H2740 0.930 . S
C2754 C2752 1.395 . S
C2754 C2757 1.403 . S
C2755 C2752 1.403 . S
C2755 C2756 1.524 . S
C2755 C2759 1.400 . S
C2756 H2741 0.960 . S
C2756 H2742 0.960 . S
C2756 H2743 0.960 . S
C2756 C2755 1.524 . S
C2757 C2754 1.403 . S
C2757 C2758 1.392 . S
C2757 C2761 1.495 . S
C2758 C2757 1.392 . S
C2758 C2759 1.385 . S
C2758 C2760 1.478 . S
C2759 H2753 0.930 . S
C2759 C2755 1.400 . S
C2759 C2758 1.385 . S
C2760 C2758 1.478 . S
C2760 C2762 1.381 . S
C2760 C2766 1.383 . S
C2761 C2757 1.495 . S
C2761 H2767 0.959 . S
C2761 H2768 0.961 . S
C2761 H2769 0.960 . S
C2762 C2760 1.381 . S
C2762 C2763 1.394 . S
C2762 H2770 0.930 . S
C2763 C2762 1.394 . S
C2763 C2764 1.383 . S
C2763 H2771 0.929 . S
C2764 C2763 1.383 . S
C2764 C2765 1.377 . S
C2765 H2749 0.930 . S
C2765 C2764 1.377 . S
C2765 C2766 1.379 . S
C2766 H2750 0.931 . S
C2766 C2760 1.383 . S
C2766 C2765 1.379 . S
H2767 C2761 0.959 . S
H2768 C2761 0.961 . S
H2769 C2761 0.960 . S
H2770 C2762 0.930 . S
H2771 C2763 0.929 . S
H2772 C2780 0.929 . S
H2773 C2782 0.930 . S
H2774 C2784 0.930 . S
H2775 C2787 0.929 . S
H2776 C2790 0.930 . S
H2777 C2792 0.960 . S
H2778 C2792 0.960 . S
H2779 C2792 0.960 . S
C2780 H2772 0.929 . S
C2780 C2781 1.377 . S
C2780 C2782 1.384 . S
C2781 C2780 1.377 . S
C2781 C2787 1.390 . S
C2782 H2773 0.930 . S
C2782 C2780 1.384 . S
C2782 C2783 1.372 . S
C2783 C2782 1.372 . S
C2783 C2784 1.400 . S
C2783 C2788 1.490 . S
C2784 H2774 0.930 . S
C2784 C2783 1.400 . S
C2784 C2787 1.386 . S
H2785 C2801 0.930 . S
H2786 C2802 0.931 . S
C2787 H2775 0.929 . S
C2787 C2781 1.390 . S
C2787 C2784 1.386 . S
C2788 C2783 1.490 . S
C2788 C2790 1.395 . S
C2788 C2791 1.403 . S
H2789 C2795 0.930 . S
C2790 H2776 0.930 . S
C2790 C2788 1.395 . S
C2790 C2793 1.403 . S
C2791 C2788 1.403 . S
C2791 C2792 1.524 . S
C2791 C2795 1.400 . S
C2792 H2777 0.960 . S
C2792 H2778 0.960 . S
C2792 H2779 0.960 . S
C2792 C2791 1.524 . S
C2793 C2790 1.403 . S
C2793 C2794 1.392 . S
C2793 C2797 1.495 . S
C2794 C2793 1.392 . S
C2794 C2795 1.385 . S
C2794 C2796 1.478 . S
C2795 H2789 0.930 . S
C2795 C2791 1.400 . S
C2795 C2794 1.385 . S
C2796 C2794 1.478 . S
C2796 C2798 1.381 . S
C2796 C2802 1.383 . S
C2797 C2793 1.495 . S
C2797 H2803 0.959 . S
C2797 H2804 0.961 . S
C2797 H2805 0.960 . S
C2798 C2796 1.381 . S
C2798 C2799 1.394 . S
C2798 H2806 0.930 . S
C2799 C2798 1.394 . S
C2799 C2800 1.383 . S
C2799 H2807 0.929 . S
C2800 C2799 1.383 . S
C2800 C2801 1.377 . S
C2801 H2785 0.930 . S
C2801 C2800 1.377 . S
C2801 C2802 1.379 . S
C2802 H2786 0.931 . S
C2802 C2796 1.383 . S
C2802 C2801 1.379 . S
H2803 C2797 0.959 . S
H2804 C2797 0.961 . S
H2805 C2797 0.960 . S
H2806 C2798 0.930 . S
H2807 C2799 0.929 . S
H2808 C2816 0.929 . S
H2809 C2818 0.930 . S
H2810 C2820 0.930 . S
H2811 C2823 0.929 . S
H2812 C2826 0.930 . S
H2813 C2828 0.960 . S
H2814 C2828 0.960 . S
H2815 C2828 0.960 . S
C2816 H2808 0.929 . S
C2816 C2817 1.377 . S
C2816 C2818 1.384 . S
C2817 C2816 1.377 . S
C2817 C2823 1.390 . S
C2818 H2809 0.930 . S
C2818 C2816 1.384 . S
C2818 C2819 1.372 . S
C2819 C2818 1.372 . S
C2819 C2820 1.400 . S
C2819 C2824 1.490 . S
C2820 H2810 0.930 . S
C2820 C2819 1.400 . S
C2820 C2823 1.386 . S
H2821 C2837 0.930 . S
H2822 C2838 0.931 . S
C2823 H2811 0.929 . S
C2823 C2817 1.390 . S
C2823 C2820 1.386 . S
C2824 C2819 1.490 . S
C2824 C2826 1.395 . S
C2824 C2827 1.403 . S
H2825 C2831 0.930 . S
C2826 H2812 0.930 . S
C2826 C2824 1.395 . S
C2826 C2829 1.403 . S
C2827 C2824 1.403 . S
C2827 C2828 1.524 . S
C2827 C2831 1.400 . S
C2828 H2813 0.960 . S
C2828 H2814 0.960 . S
C2828 H2815 0.960 . S
C2828 C2827 1.524 . S
C2829 C2826 1.403 . S
C2829 C2830 1.392 . S
C2829 C2833 1.495 . S
C2830 C2829 1.392 . S
C2830 C2831 1.385 . S
C2830 C2832 1.478 . S
C2831 H2825 0.930 . S
C2831 C2827 1.400 . S
C2831 C2830 1.385 . S
C2832 C2830 1.478 . S
C2832 C2834 1.381 . S
C2832 C2838 1.383 . S
C2833 C2829 1.495 . S
C2833 H2839 0.959 . S
C2833 H2840 0.961 . S
C2833 H2841 0.960 . S
C2834 C2832 1.381 . S
C2834 C2835 1.394 . S
C2834 H2842 0.930 . S
C2835 C2834 1.394 . S
C2835 C2836 1.383 . S
C2835 H2843 0.929 . S
C2836 C2835 1.383 . S
C2836 C2837 1.377 . S
C2837 H2821 0.930 . S
C2837 C2836 1.377 . S
C2837 C2838 1.379 . S
C2838 H2822 0.931 . S
C2838 C2832 1.383 . S
C2838 C2837 1.379 . S
H2839 C2833 0.959 . S
H2840 C2833 0.961 . S
H2841 C2833 0.960 . S
H2842 C2834 0.930 . S
H2843 C2835 0.929 . S
H2844 C2852 0.929 . S
H2845 C2854 0.930 . S
H2846 C2856 0.930 . S
H2847 C2859 0.929 . S
H2848 C2862 0.930 . S
H2849 C2864 0.960 . S
H2850 C2864 0.960 . S
H2851 C2864 0.960 . S
C2852 H2844 0.929 . S
C2852 C2853 1.377 . S
C2852 C2854 1.384 . S
C2853 C2852 1.377 . S
C2853 C2859 1.390 . S
C2854 H2845 0.930 . S
C2854 C2852 1.384 . S
C2854 C2855 1.372 . S
C2855 C2854 1.372 . S
C2855 C2856 1.400 . S
C2855 C2860 1.490 . S
C2856 H2846 0.930 . S
C2856 C2855 1.400 . S
C2856 C2859 1.386 . S
H2857 C2873 0.930 . S
H2858 C2874 0.931 . S
C2859 H2847 0.929 . S
C2859 C2853 1.390 . S
C2859 C2856 1.386 . S
C2860 C2855 1.490 . S
C2860 C2862 1.395 . S
C2860 C2863 1.403 . S
H2861 C2867 0.930 . S
C2862 H2848 0.930 . S
C2862 C2860 1.395 . S
C2862 C2865 1.403 . S
C2863 C2860 1.403 . S
C2863 C2864 1.524 . S
C2863 C2867 1.400 . S
C2864 H2849 0.960 . S
C2864 H2850 0.960 . S
C2864 H2851 0.960 . S
C2864 C2863 1.524 . S
C2865 C2862 1.403 . S
C2865 C2866 1.392 . S
C2865 C2869 1.495 . S
C2866 C2865 1.392 . S
C2866 C2867 1.385 . S
C2866 C2868 1.478 . S
C2867 H2861 0.930 . S
C2867 C2863 1.400 . S
C2867 C2866 1.385 . S
C2868 C2866 1.478 . S
C2868 C2870 1.381 . S
C2868 C2874 1.383 . S
C2869 C2865 1.495 . S
C2869 H2875 0.959 . S
C2869 H2876 0.961 . S
C2869 H2877 0.960 . S
C2870 C2868 1.381 . S
C2870 C2871 1.394 . S
C2870 H2878 0.930 . S
C2871 C2870 1.394 . S
C2871 C2872 1.383 . S
C2871 H2879 0.929 . S
C2872 C2871 1.383 . S
C2872 C2873 1.377 . S
C2873 H2857 0.930 . S
C2873 C2872 1.377 . S
C2873 C2874 1.379 . S
C2874 H2858 0.931 . S
C2874 C2868 1.383 . S
C2874 C2873 1.379 . S
H2875 C2869 0.959 . S
H2876 C2869 0.961 . S
H2877 C2869 0.960 . S
H2878 C2870 0.930 . S
H2879 C2871 0.929 . S
H2880 C2888 0.929 . S
H2881 C2890 0.930 . S
H2882 C2892 0.930 . S
H2883 C2895 0.929 1_554 S
H2884 C2898 0.930 . S
H2885 C2900 0.960 . S
H2886 C2900 0.960 . S
H2887 C2900 0.960 . S
C2888 H2880 0.929 . S
C2888 C2889 1.377 . S
C2888 C2890 1.384 . S
C2889 C2888 1.377 . S
C2889 C2895 1.390 . S
C2890 H2881 0.930 . S
C2890 C2888 1.384 . S
C2890 C2891 1.372 . S
C2891 C2890 1.372 . S
C2891 C2892 1.400 . S
C2891 C2896 1.490 . S
C2892 H2882 0.930 . S
C2892 C2891 1.400 . S
C2892 C2895 1.386 . S
H2893 C2909 0.930 . S
H2894 C2910 0.931 . S
C2895 H2883 0.929 1_556 S
C2895 C2889 1.390 . S
C2895 C2892 1.386 . S
C2896 C2891 1.490 . S
C2896 C2898 1.395 . S
C2896 C2899 1.403 . S
H2897 C2903 0.930 . S
C2898 H2884 0.930 . S
C2898 C2896 1.395 . S
C2898 C2901 1.403 . S
C2899 C2896 1.403 . S
C2899 C2900 1.524 . S
C2899 C2903 1.400 . S
C2900 H2885 0.960 . S
C2900 H2886 0.960 . S
C2900 H2887 0.960 . S
C2900 C2899 1.524 . S
C2901 C2898 1.403 . S
C2901 C2902 1.392 . S
C2901 C2905 1.495 . S
C2902 C2901 1.392 . S
C2902 C2903 1.385 . S
C2902 C2904 1.478 . S
C2903 H2897 0.930 . S
C2903 C2899 1.400 . S
C2903 C2902 1.385 . S
C2904 C2902 1.478 . S
C2904 C2906 1.381 . S
C2904 C2910 1.383 . S
C2905 C2901 1.495 . S
C2905 H2911 0.959 . S
C2905 H2912 0.961 . S
C2905 H2913 0.960 . S
C2906 C2904 1.381 . S
C2906 C2907 1.394 . S
C2906 H2914 0.930 . S
C2907 C2906 1.394 . S
C2907 C2908 1.383 . S
C2907 H2915 0.929 . S
C2908 C2907 1.383 . S
C2908 C2909 1.377 . S
C2909 H2893 0.930 . S
C2909 C2908 1.377 . S
C2909 C2910 1.379 . S
C2910 H2894 0.931 . S
C2910 C2904 1.383 . S
C2910 C2909 1.379 . S
H2911 C2905 0.959 . S
H2912 C2905 0.961 . S
H2913 C2905 0.960 . S
H2914 C2906 0.930 . S
H2915 C2907 0.929 . S
H2916 C2924 0.929 . S
H2917 C2926 0.930 . S
H2918 C2928 0.930 . S
H2919 C2931 0.929 . S
H2920 C2934 0.930 . S
H2921 C2936 0.960 . S
H2922 C2936 0.960 . S
H2923 C2936 0.960 . S
C2924 H2916 0.929 . S
C2924 C2925 1.377 . S
C2924 C2926 1.384 . S
C2925 C2924 1.377 . S
C2925 C2931 1.390 . S
C2926 H2917 0.930 . S
C2926 C2924 1.384 . S
C2926 C2927 1.372 . S
C2927 C2926 1.372 . S
C2927 C2928 1.400 . S
C2927 C2932 1.490 . S
C2928 H2918 0.930 . S
C2928 C2927 1.400 . S
C2928 C2931 1.386 . S
H2929 C2945 0.930 . S
H2930 C2946 0.931 . S
C2931 H2919 0.929 . S
C2931 C2925 1.390 . S
C2931 C2928 1.386 . S
C2932 C2927 1.490 . S
C2932 C2934 1.395 . S
C2932 C2935 1.403 . S
H2933 C2939 0.930 . S
C2934 H2920 0.930 . S
C2934 C2932 1.395 . S
C2934 C2937 1.403 . S
C2935 C2932 1.403 . S
C2935 C2936 1.524 . S
C2935 C2939 1.400 . S
C2936 H2921 0.960 . S
C2936 H2922 0.960 . S
C2936 H2923 0.960 . S
C2936 C2935 1.524 . S
C2937 C2934 1.403 . S
C2937 C2938 1.392 . S
C2937 C2941 1.495 . S
C2938 C2937 1.392 . S
C2938 C2939 1.385 . S
C2938 C2940 1.478 . S
C2939 H2933 0.930 . S
C2939 C2935 1.400 . S
C2939 C2938 1.385 . S
C2940 C2938 1.478 . S
C2940 C2942 1.381 . S
C2940 C2946 1.383 . S
C2941 C2937 1.495 . S
C2941 H2947 0.959 . S
C2941 H2948 0.961 . S
C2941 H2949 0.960 . S
C2942 C2940 1.381 . S
C2942 C2943 1.394 . S
C2942 H2950 0.930 . S
C2943 C2942 1.394 . S
C2943 C2944 1.383 . S
C2943 H2951 0.929 . S
C2944 C2943 1.383 . S
C2944 C2945 1.377 . S
C2945 H2929 0.930 . S
C2945 C2944 1.377 . S
C2945 C2946 1.379 . S
C2946 H2930 0.931 . S
C2946 C2940 1.383 . S
C2946 C2945 1.379 . S
H2947 C2941 0.959 . S
H2948 C2941 0.961 . S
H2949 C2941 0.960 . S
H2950 C2942 0.930 . S
H2951 C2943 0.929 . S
H2952 C2960 0.929 1_554 S
H2953 C2962 0.930 . S
H2954 C2964 0.930 . S
H2955 C2967 0.929 . S
H2956 C2970 0.930 . S
H2957 C2972 0.960 . S
H2958 C2972 0.960 . S
H2959 C2972 0.960 . S
C2960 H2952 0.929 1_556 S
C2960 C2961 1.377 . S
C2960 C2962 1.384 . S
C2961 C2960 1.377 . S
C2961 C2967 1.390 . S
C2962 H2953 0.930 . S
C2962 C2960 1.384 . S
C2962 C2963 1.372 . S
C2963 C2962 1.372 . S
C2963 C2964 1.400 . S
C2963 C2968 1.490 . S
C2964 H2954 0.930 . S
C2964 C2963 1.400 . S
C2964 C2967 1.386 . S
H2965 C2981 0.930 . S
H2966 C2982 0.931 . S
C2967 H2955 0.929 . S
C2967 C2961 1.390 . S
C2967 C2964 1.386 . S
C2968 C2963 1.490 . S
C2968 C2970 1.395 . S
C2968 C2971 1.403 . S
H2969 C2975 0.930 . S
C2970 H2956 0.930 . S
C2970 C2968 1.395 . S
C2970 C2973 1.403 . S
C2971 C2968 1.403 . S
C2971 C2972 1.524 . S
C2971 C2975 1.400 . S
C2972 H2957 0.960 . S
C2972 H2958 0.960 . S
C2972 H2959 0.960 . S
C2972 C2971 1.524 . S
C2973 C2970 1.403 . S
C2973 C2974 1.392 . S
C2973 C2977 1.495 . S
C2974 C2973 1.392 . S
C2974 C2975 1.385 . S
C2974 C2976 1.478 . S
C2975 H2969 0.930 . S
C2975 C2971 1.400 . S
C2975 C2974 1.385 . S
C2976 C2974 1.478 . S
C2976 C2978 1.381 . S
C2976 C2982 1.383 . S
C2977 C2973 1.495 . S
C2977 H2983 0.959 . S
C2977 H2984 0.961 . S
C2977 H2985 0.960 . S
C2978 C2976 1.381 . S
C2978 C2979 1.394 . S
C2978 H2986 0.930 . S
C2979 C2978 1.394 . S
C2979 C2980 1.383 . S
C2979 H2987 0.929 . S
C2980 C2979 1.383 . S
C2980 C2981 1.377 . S
C2981 H2965 0.930 . S
C2981 C2980 1.377 . S
C2981 C2982 1.379 . S
C2982 H2966 0.931 . S
C2982 C2976 1.383 . S
C2982 C2981 1.379 . S
H2983 C2977 0.959 . S
H2984 C2977 0.961 . S
H2985 C2977 0.960 . S
H2986 C2978 0.930 . S
H2987 C2979 0.929 . S
H2988 C2996 0.929 . S
H2989 C2998 0.930 . S
H2990 C3000 0.930 . S
H2991 C3003 0.929 . S
H2992 C3006 0.930 . S
H2993 C3008 0.960 . S
H2994 C3008 0.960 . S
H2995 C3008 0.960 . S
C2996 H2988 0.929 . S
C2996 C2997 1.377 . S
C2996 C2998 1.384 . S
C2997 C2996 1.377 . S
C2997 C3003 1.390 . S
C2998 H2989 0.930 . S
C2998 C2996 1.384 . S
C2998 C2999 1.372 . S
C2999 C2998 1.372 . S
C2999 C3000 1.400 . S
C2999 C3004 1.490 . S
C3000 H2990 0.930 . S
C3000 C2999 1.400 . S
C3000 C3003 1.386 . S
H3001 C3017 0.930 . S
H3002 C3018 0.931 . S
C3003 H2991 0.929 . S
C3003 C2997 1.390 . S
C3003 C3000 1.386 . S
C3004 C2999 1.490 . S
C3004 C3006 1.395 . S
C3004 C3007 1.403 . S
H3005 C3011 0.930 . S
C3006 H2992 0.930 . S
C3006 C3004 1.395 . S
C3006 C3009 1.403 . S
C3007 C3004 1.403 . S
C3007 C3008 1.524 . S
C3007 C3011 1.400 . S
C3008 H2993 0.960 . S
C3008 H2994 0.960 . S
C3008 H2995 0.960 . S
C3008 C3007 1.524 . S
C3009 C3006 1.403 . S
C3009 C3010 1.392 . S
C3009 C3013 1.495 . S
C3010 C3009 1.392 . S
C3010 C3011 1.385 . S
C3010 C3012 1.478 . S
C3011 H3005 0.930 . S
C3011 C3007 1.400 . S
C3011 C3010 1.385 . S
C3012 C3010 1.478 . S
C3012 C3014 1.381 . S
C3012 C3018 1.383 . S
C3013 C3009 1.495 . S
C3013 H3019 0.959 . S
C3013 H3020 0.961 . S
C3013 H3021 0.960 . S
C3014 C3012 1.381 . S
C3014 C3015 1.394 . S
C3014 H3022 0.930 . S
C3015 C3014 1.394 . S
C3015 C3016 1.383 . S
C3015 H3023 0.929 . S
C3016 C3015 1.383 . S
C3016 C3017 1.377 . S
C3017 H3001 0.930 . S
C3017 C3016 1.377 . S
C3017 C3018 1.379 . S
C3018 H3002 0.931 . S
C3018 C3012 1.383 . S
C3018 C3017 1.379 . S
H3019 C3013 0.959 . S
H3020 C3013 0.961 . S
H3021 C3013 0.960 . S
H3022 C3014 0.930 . S
H3023 C3015 0.929 . S
H3024 C3032 0.929 1_554 S
H3025 C3034 0.930 . S
H3026 C3036 0.930 . S
H3027 C3039 0.929 . S
H3028 C3042 0.930 . S
H3029 C3044 0.960 . S
H3030 C3044 0.960 . S
H3031 C3044 0.960 . S
C3032 H3024 0.929 1_556 S
C3032 C3033 1.377 . S
C3032 C3034 1.384 . S
C3033 C3032 1.377 . S
C3033 C3039 1.390 . S
C3034 H3025 0.930 . S
C3034 C3032 1.384 . S
C3034 C3035 1.372 . S
C3035 C3034 1.372 . S
C3035 C3036 1.400 . S
C3035 C3040 1.490 . S
C3036 H3026 0.930 . S
C3036 C3035 1.400 . S
C3036 C3039 1.386 . S
H3037 C3053 0.930 . S
H3038 C3054 0.931 . S
C3039 H3027 0.929 . S
C3039 C3033 1.390 . S
C3039 C3036 1.386 . S
C3040 C3035 1.490 . S
C3040 C3042 1.395 . S
C3040 C3043 1.403 . S
H3041 C3047 0.930 . S
C3042 H3028 0.930 . S
C3042 C3040 1.395 . S
C3042 C3045 1.403 . S
C3043 C3040 1.403 . S
C3043 C3044 1.524 . S
C3043 C3047 1.400 . S
C3044 H3029 0.960 . S
C3044 H3030 0.960 . S
C3044 H3031 0.960 . S
C3044 C3043 1.524 . S
C3045 C3042 1.403 . S
C3045 C3046 1.392 . S
C3045 C3049 1.495 . S
C3046 C3045 1.392 . S
C3046 C3047 1.385 . S
C3046 C3048 1.478 . S
C3047 H3041 0.930 . S
C3047 C3043 1.400 . S
C3047 C3046 1.385 . S
C3048 C3046 1.478 . S
C3048 C3050 1.381 . S
C3048 C3054 1.383 . S
C3049 C3045 1.495 . S
C3049 H3055 0.959 . S
C3049 H3056 0.961 . S
C3049 H3057 0.960 . S
C3050 C3048 1.381 . S
C3050 C3051 1.394 . S
C3050 H3058 0.930 . S
C3051 C3050 1.394 . S
C3051 C3052 1.383 . S
C3051 H3059 0.929 . S
C3052 C3051 1.383 . S
C3052 C3053 1.377 . S
C3053 H3037 0.930 . S
C3053 C3052 1.377 . S
C3053 C3054 1.379 . S
C3054 H3038 0.931 . S
C3054 C3048 1.383 . S
C3054 C3053 1.379 . S
H3055 C3049 0.959 . S
H3056 C3049 0.961 . S
H3057 C3049 0.960 . S
H3058 C3050 0.930 . S
H3059 C3051 0.929 . S
H3060 C3068 0.929 . S
H3061 C3070 0.930 . S
H3062 C3072 0.930 . S
H3063 C3075 0.929 1_554 S
H3064 C3078 0.930 . S
H3065 C3080 0.960 . S
H3066 C3080 0.960 . S
H3067 C3080 0.960 . S
C3068 H3060 0.929 . S
C3068 C3069 1.377 . S
C3068 C3070 1.384 . S
C3069 C3068 1.377 . S
C3069 C3075 1.390 . S
C3070 H3061 0.930 . S
C3070 C3068 1.384 . S
C3070 C3071 1.372 . S
C3071 C3070 1.372 . S
C3071 C3072 1.400 . S
C3071 C3076 1.490 . S
C3072 H3062 0.930 . S
C3072 C3071 1.400 . S
C3072 C3075 1.386 . S
H3073 C3089 0.930 . S
H3074 C3090 0.931 . S
C3075 H3063 0.929 1_556 S
C3075 C3069 1.390 . S
C3075 C3072 1.386 . S
C3076 C3071 1.490 . S
C3076 C3078 1.395 . S
C3076 C3079 1.403 . S
H3077 C3083 0.930 . S
C3078 H3064 0.930 . S
C3078 C3076 1.395 . S
C3078 C3081 1.403 . S
C3079 C3076 1.403 . S
C3079 C3080 1.524 . S
C3079 C3083 1.400 . S
C3080 H3065 0.960 . S
C3080 H3066 0.960 . S
C3080 H3067 0.960 . S
C3080 C3079 1.524 . S
C3081 C3078 1.403 . S
C3081 C3082 1.392 . S
C3081 C3085 1.495 . S
C3082 C3081 1.392 . S
C3082 C3083 1.385 . S
C3082 C3084 1.478 . S
C3083 H3077 0.930 . S
C3083 C3079 1.400 . S
C3083 C3082 1.385 . S
C3084 C3082 1.478 . S
C3084 C3086 1.381 . S
C3084 C3090 1.383 . S
C3085 C3081 1.495 . S
C3085 H3091 0.959 . S
C3085 H3092 0.961 . S
C3085 H3093 0.960 . S
C3086 C3084 1.381 . S
C3086 C3087 1.394 . S
C3086 H3094 0.930 . S
C3087 C3086 1.394 . S
C3087 C3088 1.383 . S
C3087 H3095 0.929 . S
C3088 C3087 1.383 . S
C3088 C3089 1.377 . S
C3089 H3073 0.930 . S
C3089 C3088 1.377 . S
C3089 C3090 1.379 . S
C3090 H3074 0.931 . S
C3090 C3084 1.383 . S
C3090 C3089 1.379 . S
H3091 C3085 0.959 . S
H3092 C3085 0.961 . S
H3093 C3085 0.960 . S
H3094 C3086 0.930 . S
H3095 C3087 0.929 . S
H3096 C3104 0.929 . S
H3097 C3106 0.930 . S
H3098 C3108 0.930 . S
H3099 C3111 0.929 . S
H3100 C3114 0.930 . S
H3101 C3116 0.960 . S
H3102 C3116 0.960 . S
H3103 C3116 0.960 . S
C3104 H3096 0.929 . S
C3104 C3105 1.377 . S
C3104 C3106 1.384 . S
C3105 C3104 1.377 . S
C3105 C3111 1.390 . S
C3106 H3097 0.930 . S
C3106 C3104 1.384 . S
C3106 C3107 1.372 . S
C3107 C3106 1.372 . S
C3107 C3108 1.400 . S
C3107 C3112 1.490 . S
C3108 H3098 0.930 . S
C3108 C3107 1.400 . S
C3108 C3111 1.386 . S
H3109 C3125 0.930 . S
H3110 C3126 0.931 . S
C3111 H3099 0.929 . S
C3111 C3105 1.390 . S
C3111 C3108 1.386 . S
C3112 C3107 1.490 . S
C3112 C3114 1.395 . S
C3112 C3115 1.403 . S
H3113 C3119 0.930 . S
C3114 H3100 0.930 . S
C3114 C3112 1.395 . S
C3114 C3117 1.403 . S
C3115 C3112 1.403 . S
C3115 C3116 1.524 . S
C3115 C3119 1.400 . S
C3116 H3101 0.960 . S
C3116 H3102 0.960 . S
C3116 H3103 0.960 . S
C3116 C3115 1.524 . S
C3117 C3114 1.403 . S
C3117 C3118 1.392 . S
C3117 C3121 1.495 . S
C3118 C3117 1.392 . S
C3118 C3119 1.385 . S
C3118 C3120 1.478 . S
C3119 H3113 0.930 . S
C3119 C3115 1.400 . S
C3119 C3118 1.385 . S
C3120 C3118 1.478 . S
C3120 C3122 1.381 . S
C3120 C3126 1.383 . S
C3121 C3117 1.495 . S
C3121 H3127 0.959 . S
C3121 H3128 0.961 . S
C3121 H3129 0.960 . S
C3122 C3120 1.381 . S
C3122 C3123 1.394 . S
C3122 H3130 0.930 . S
C3123 C3122 1.394 . S
C3123 C3124 1.383 . S
C3123 H3131 0.929 . S
C3124 C3123 1.383 . S
C3124 C3125 1.377 . S
C3125 H3109 0.930 . S
C3125 C3124 1.377 . S
C3125 C3126 1.379 . S
C3126 H3110 0.931 . S
C3126 C3120 1.383 . S
C3126 C3125 1.379 . S
H3127 C3121 0.959 . S
H3128 C3121 0.961 . S
H3129 C3121 0.960 . S
H3130 C3122 0.930 . S
H3131 C3123 0.929 . S
H3132 C3140 0.929 . S
H3133 C3142 0.930 . S
H3134 C3144 0.930 . S
H3135 C3147 0.929 . S
H3136 C3150 0.930 . S
H3137 C3152 0.960 . S
H3138 C3152 0.960 . S
H3139 C3152 0.960 . S
C3140 H3132 0.929 . S
C3140 C3141 1.377 . S
C3140 C3142 1.384 . S
C3141 C3140 1.377 . S
C3141 C3147 1.390 . S
C3142 H3133 0.930 . S
C3142 C3140 1.384 . S
C3142 C3143 1.372 . S
C3143 C3142 1.372 . S
C3143 C3144 1.400 . S
C3143 C3148 1.490 . S
C3144 H3134 0.930 . S
C3144 C3143 1.400 . S
C3144 C3147 1.386 . S
H3145 C3161 0.930 . S
H3146 C3162 0.931 . S
C3147 H3135 0.929 . S
C3147 C3141 1.390 . S
C3147 C3144 1.386 . S
C3148 C3143 1.490 . S
C3148 C3150 1.395 . S
C3148 C3151 1.403 . S
H3149 C3155 0.930 . S
C3150 H3136 0.930 . S
C3150 C3148 1.395 . S
C3150 C3153 1.403 . S
C3151 C3148 1.403 . S
C3151 C3152 1.524 . S
C3151 C3155 1.400 . S
C3152 H3137 0.960 . S
C3152 H3138 0.960 . S
C3152 H3139 0.960 . S
C3152 C3151 1.524 . S
C3153 C3150 1.403 . S
C3153 C3154 1.392 . S
C3153 C3157 1.495 . S
C3154 C3153 1.392 . S
C3154 C3155 1.385 . S
C3154 C3156 1.478 . S
C3155 H3149 0.930 . S
C3155 C3151 1.400 . S
C3155 C3154 1.385 . S
C3156 C3154 1.478 . S
C3156 C3158 1.381 . S
C3156 C3162 1.383 . S
C3157 C3153 1.495 . S
C3157 H3163 0.959 . S
C3157 H3164 0.961 . S
C3157 H3165 0.960 . S
C3158 C3156 1.381 . S
C3158 C3159 1.394 . S
C3158 H3166 0.930 . S
C3159 C3158 1.394 . S
C3159 C3160 1.383 . S
C3159 H3167 0.929 . S
C3160 C3159 1.383 . S
C3160 C3161 1.377 . S
C3161 H3145 0.930 . S
C3161 C3160 1.377 . S
C3161 C3162 1.379 . S
C3162 H3146 0.931 . S
C3162 C3156 1.383 . S
C3162 C3161 1.379 . S
H3163 C3157 0.959 . S
H3164 C3157 0.961 . S
H3165 C3157 0.960 . S
H3166 C3158 0.930 . S
H3167 C3159 0.929 . S
H3168 C3176 0.929 . S
H3169 C3178 0.930 . S
H3170 C3180 0.930 . S
H3171 C3183 0.929 . S
H3172 C3186 0.930 . S
H3173 C3188 0.960 . S
H3174 C3188 0.960 . S
H3175 C3188 0.960 . S
C3176 H3168 0.929 . S
C3176 C3177 1.377 . S
C3176 C3178 1.384 . S
C3177 C3176 1.377 . S
C3177 C3183 1.390 . S
C3178 H3169 0.930 . S
C3178 C3176 1.384 . S
C3178 C3179 1.372 . S
C3179 C3178 1.372 . S
C3179 C3180 1.400 . S
C3179 C3184 1.490 . S
C3180 H3170 0.930 . S
C3180 C3179 1.400 . S
C3180 C3183 1.386 . S
H3181 C3197 0.930 . S
H3182 C3198 0.931 . S
C3183 H3171 0.929 . S
C3183 C3177 1.390 . S
C3183 C3180 1.386 . S
C3184 C3179 1.490 . S
C3184 C3186 1.395 . S
C3184 C3187 1.403 . S
H3185 C3191 0.930 . S
C3186 H3172 0.930 . S
C3186 C3184 1.395 . S
C3186 C3189 1.403 . S
C3187 C3184 1.403 . S
C3187 C3188 1.524 . S
C3187 C3191 1.400 . S
C3188 H3173 0.960 . S
C3188 H3174 0.960 . S
C3188 H3175 0.960 . S
C3188 C3187 1.524 . S
C3189 C3186 1.403 . S
C3189 C3190 1.392 . S
C3189 C3193 1.495 . S
C3190 C3189 1.392 . S
C3190 C3191 1.385 . S
C3190 C3192 1.478 . S
C3191 H3185 0.930 . S
C3191 C3187 1.400 . S
C3191 C3190 1.385 . S
C3192 C3190 1.478 . S
C3192 C3194 1.381 . S
C3192 C3198 1.383 . S
C3193 C3189 1.495 . S
C3193 H3199 0.959 . S
C3193 H3200 0.961 . S
C3193 H3201 0.960 . S
C3194 C3192 1.381 . S
C3194 C3195 1.394 . S
C3194 H3202 0.930 . S
C3195 C3194 1.394 . S
C3195 C3196 1.383 . S
C3195 H3203 0.929 . S
C3196 C3195 1.383 . S
C3196 C3197 1.377 . S
C3197 H3181 0.930 . S
C3197 C3196 1.377 . S
C3197 C3198 1.379 . S
C3198 H3182 0.931 . S
C3198 C3192 1.383 . S
C3198 C3197 1.379 . S
H3199 C3193 0.959 . S
H3200 C3193 0.961 . S
H3201 C3193 0.960 . S
H3202 C3194 0.930 . S
H3203 C3195 0.929 . S
H3204 C3212 0.929 . S
H3205 C3214 0.930 . S
H3206 C3216 0.930 . S
H3207 C3219 0.929 . S
H3208 C3222 0.930 . S
H3209 C3224 0.960 . S
H3210 C3224 0.960 . S
H3211 C3224 0.960 . S
C3212 H3204 0.929 . S
C3212 C3213 1.377 . S
C3212 C3214 1.384 . S
C3213 C3212 1.377 . S
C3213 C3219 1.390 . S
C3214 H3205 0.930 . S
C3214 C3212 1.384 . S
C3214 C3215 1.372 . S
C3215 C3214 1.372 . S
C3215 C3216 1.400 . S
C3215 C3220 1.490 . S
C3216 H3206 0.930 . S
C3216 C3215 1.400 . S
C3216 C3219 1.386 . S
H3217 C3233 0.930 . S
H3218 C3234 0.931 . S
C3219 H3207 0.929 . S
C3219 C3213 1.390 . S
C3219 C3216 1.386 . S
C3220 C3215 1.490 . S
C3220 C3222 1.395 . S
C3220 C3223 1.403 . S
H3221 C3227 0.930 . S
C3222 H3208 0.930 . S
C3222 C3220 1.395 . S
C3222 C3225 1.403 . S
C3223 C3220 1.403 . S
C3223 C3224 1.524 . S
C3223 C3227 1.400 . S
C3224 H3209 0.960 . S
C3224 H3210 0.960 . S
C3224 H3211 0.960 . S
C3224 C3223 1.524 . S
C3225 C3222 1.403 . S
C3225 C3226 1.392 . S
C3225 C3229 1.495 . S
C3226 C3225 1.392 . S
C3226 C3227 1.385 . S
C3226 C3228 1.478 . S
C3227 H3221 0.930 . S
C3227 C3223 1.400 . S
C3227 C3226 1.385 . S
C3228 C3226 1.478 . S
C3228 C3230 1.381 . S
C3228 C3234 1.383 . S
C3229 C3225 1.495 . S
C3229 H3235 0.959 . S
C3229 H3236 0.961 . S
C3229 H3237 0.960 . S
C3230 C3228 1.381 . S
C3230 C3231 1.394 . S
C3230 H3238 0.930 . S
C3231 C3230 1.394 . S
C3231 C3232 1.383 . S
C3231 H3239 0.929 . S
C3232 C3231 1.383 . S
C3232 C3233 1.377 . S
C3233 H3217 0.930 . S
C3233 C3232 1.377 . S
C3233 C3234 1.379 . S
C3234 H3218 0.931 . S
C3234 C3228 1.383 . S
C3234 C3233 1.379 . S
H3235 C3229 0.959 . S
H3236 C3229 0.961 . S
H3237 C3229 0.960 . S
H3238 C3230 0.930 . S
H3239 C3231 0.929 . S
H3240 C3248 0.929 . S
H3241 C3250 0.930 . S
H3242 C3252 0.930 . S
H3243 C3255 0.929 . S
H3244 C3258 0.930 . S
H3245 C3260 0.960 . S
H3246 C3260 0.960 . S
H3247 C3260 0.960 . S
C3248 H3240 0.929 . S
C3248 C3249 1.377 . S
C3248 C3250 1.384 . S
C3249 C3248 1.377 . S
C3249 C3255 1.390 . S
C3250 H3241 0.930 . S
C3250 C3248 1.384 . S
C3250 C3251 1.372 . S
C3251 C3250 1.372 . S
C3251 C3252 1.400 . S
C3251 C3256 1.490 . S
C3252 H3242 0.930 . S
C3252 C3251 1.400 . S
C3252 C3255 1.386 . S
H3253 C3269 0.930 . S
H3254 C3270 0.931 . S
C3255 H3243 0.929 . S
C3255 C3249 1.390 . S
C3255 C3252 1.386 . S
C3256 C3251 1.490 . S
C3256 C3258 1.395 . S
C3256 C3259 1.403 . S
H3257 C3263 0.930 . S
C3258 H3244 0.930 . S
C3258 C3256 1.395 . S
C3258 C3261 1.403 . S
C3259 C3256 1.403 . S
C3259 C3260 1.524 . S
C3259 C3263 1.400 . S
C3260 H3245 0.960 . S
C3260 H3246 0.960 . S
C3260 H3247 0.960 . S
C3260 C3259 1.524 . S
C3261 C3258 1.403 . S
C3261 C3262 1.392 . S
C3261 C3265 1.495 . S
C3262 C3261 1.392 . S
C3262 C3263 1.385 . S
C3262 C3264 1.478 . S
C3263 H3257 0.930 . S
C3263 C3259 1.400 . S
C3263 C3262 1.385 . S
C3264 C3262 1.478 . S
C3264 C3266 1.381 . S
C3264 C3270 1.383 . S
C3265 C3261 1.495 . S
C3265 H3271 0.959 . S
C3265 H3272 0.961 . S
C3265 H3273 0.960 . S
C3266 C3264 1.381 . S
C3266 C3267 1.394 . S
C3266 H3274 0.930 . S
C3267 C3266 1.394 . S
C3267 C3268 1.383 . S
C3267 H3275 0.929 . S
C3268 C3267 1.383 . S
C3268 C3269 1.377 . S
C3269 H3253 0.930 . S
C3269 C3268 1.377 . S
C3269 C3270 1.379 . S
C3270 H3254 0.931 . S
C3270 C3264 1.383 . S
C3270 C3269 1.379 . S
H3271 C3265 0.959 . S
H3272 C3265 0.961 . S
H3273 C3265 0.960 . S
H3274 C3266 0.930 . S
H3275 C3267 0.929 . S
H3276 C3284 0.929 . S
H3277 C3286 0.930 . S
H3278 C3288 0.930 . S
H3279 C3291 0.929 . S
H3280 C3294 0.930 . S
H3281 C3296 0.960 . S
H3282 C3296 0.960 . S
H3283 C3296 0.960 . S
C3284 H3276 0.929 . S
C3284 C3285 1.377 . S
C3284 C3286 1.384 . S
C3285 C3284 1.377 . S
C3285 C3291 1.390 . S
C3286 H3277 0.930 . S
C3286 C3284 1.384 . S
C3286 C3287 1.372 . S
C3287 C3286 1.372 . S
C3287 C3288 1.400 . S
C3287 C3292 1.490 . S
C3288 H3278 0.930 . S
C3288 C3287 1.400 . S
C3288 C3291 1.386 . S
H3289 C3305 0.930 . S
H3290 C3306 0.931 . S
C3291 H3279 0.929 . S
C3291 C3285 1.390 . S
C3291 C3288 1.386 . S
C3292 C3287 1.490 . S
C3292 C3294 1.395 . S
C3292 C3295 1.403 . S
H3293 C3299 0.930 . S
C3294 H3280 0.930 . S
C3294 C3292 1.395 . S
C3294 C3297 1.403 . S
C3295 C3292 1.403 . S
C3295 C3296 1.524 . S
C3295 C3299 1.400 . S
C3296 H3281 0.960 . S
C3296 H3282 0.960 . S
C3296 H3283 0.960 . S
C3296 C3295 1.524 . S
C3297 C3294 1.403 . S
C3297 C3298 1.392 . S
C3297 C3301 1.495 . S
C3298 C3297 1.392 . S
C3298 C3299 1.385 . S
C3298 C3300 1.478 . S
C3299 H3293 0.930 . S
C3299 C3295 1.400 . S
C3299 C3298 1.385 . S
C3300 C3298 1.478 . S
C3300 C3302 1.381 . S
C3300 C3306 1.383 . S
C3301 C3297 1.495 . S
C3301 H3307 0.959 . S
C3301 H3308 0.961 . S
C3301 H3309 0.960 . S
C3302 C3300 1.381 . S
C3302 C3303 1.394 . S
C3302 H3310 0.930 . S
C3303 C3302 1.394 . S
C3303 C3304 1.383 . S
C3303 H3311 0.929 . S
C3304 C3303 1.383 . S
C3304 C3305 1.377 . S
C3305 H3289 0.930 . S
C3305 C3304 1.377 . S
C3305 C3306 1.379 . S
C3306 H3290 0.931 . S
C3306 C3300 1.383 . S
C3306 C3305 1.379 . S
H3307 C3301 0.959 . S
H3308 C3301 0.961 . S
H3309 C3301 0.960 . S
H3310 C3302 0.930 . S
H3311 C3303 0.929 . S
H3312 C3320 0.929 . S
H3313 C3322 0.930 . S
H3314 C3324 0.935 . S
H3315 C3327 0.929 . S
H3316 C3330 0.930 . S
H3317 C3332 0.960 . S
H3318 C3332 0.960 . S
H3319 C3332 0.960 . S
C3320 H3312 0.929 . S
C3320 C3321 1.377 . S
C3320 C3322 1.384 . S
C3321 C3320 1.377 . S
C3321 C3327 1.390 . S
C3322 H3313 0.930 . S
C3322 C3320 1.384 . S
C3322 C3323 1.372 . S
C3323 C3322 1.372 . S
C3323 C3324 1.400 . S
C3323 C3328 1.490 . S
C3324 H3314 0.935 . S
C3324 C3323 1.400 . S
C3324 C3327 1.386 . S
H3325 C3341 0.930 1_655 S
H3326 C3342 0.931 . S
C3327 H3315 0.929 . S
C3327 C3321 1.390 . S
C3327 C3324 1.386 . S
C3328 C3323 1.490 . S
C3328 C3330 1.395 . S
C3328 C3331 1.403 1_455 S
H3329 C3335 0.930 . S
C3330 H3316 0.930 . S
C3330 C3328 1.395 . S
C3330 C3333 1.403 . S
C3331 C3328 1.403 1_655 S
C3331 C3332 1.524 . S
C3331 C3335 1.400 . S
C3332 H3317 0.960 . S
C3332 H3318 0.960 . S
C3332 H3319 0.960 . S
C3332 C3331 1.524 . S
C3333 C3330 1.403 . S
C3333 C3334 1.392 . S
C3333 C3337 1.495 . S
C3334 C3333 1.392 . S
C3334 C3335 1.385 1_455 S
C3334 C3336 1.478 . S
C3335 H3329 0.930 . S
C3335 C3331 1.400 . S
C3335 C3334 1.385 1_655 S
C3336 C3334 1.478 . S
C3336 C3338 1.381 . S
C3336 C3342 1.383 . S
C3337 C3333 1.495 . S
C3337 H3343 0.959 . S
C3337 H3344 0.961 . S
C3337 H3345 0.960 . S
C3338 C3336 1.381 . S
C3338 C3339 1.394 . S
C3338 H3346 0.930 . S
C3339 C3338 1.394 . S
C3339 C3340 1.383 . S
C3339 H3347 0.929 . S
C3340 C3339 1.383 . S
C3340 C3341 1.377 . S
C3341 H3325 0.930 1_455 S
C3341 C3340 1.377 . S
C3341 C3342 1.379 . S
C3342 H3326 0.931 . S
C3342 C3336 1.383 . S
C3342 C3341 1.379 . S
H3343 C3337 0.959 . S
H3344 C3337 0.961 . S
H3345 C3337 0.960 . S
H3346 C3338 0.930 . S
H3347 C3339 0.929 . S
H3348 C3356 0.929 . S
H3349 C3358 0.930 . S
H3350 C3360 0.930 . S
H3351 C3363 0.929 . S
H3352 C3366 0.930 . S
H3353 C3368 0.960 . S
H3354 C3368 0.960 . S
H3355 C3368 0.960 . S
C3356 H3348 0.929 . S
C3356 C3357 1.377 . S
C3356 C3358 1.384 . S
C3357 C3356 1.377 . S
C3357 C3363 1.390 . S
C3358 H3349 0.930 . S
C3358 C3356 1.384 . S
C3358 C3359 1.372 . S
C3359 C3358 1.372 . S
C3359 C3360 1.400 . S
C3359 C3364 1.490 . S
C3360 H3350 0.930 . S
C3360 C3359 1.400 . S
C3360 C3363 1.386 . S
H3361 C3377 0.930 . S
H3362 C3378 0.931 . S
C3363 H3351 0.929 . S
C3363 C3357 1.390 . S
C3363 C3360 1.386 . S
C3364 C3359 1.490 . S
C3364 C3366 1.395 . S
C3364 C3367 1.403 . S
H3365 C3371 0.930 . S
C3366 H3352 0.930 . S
C3366 C3364 1.395 . S
C3366 C3369 1.403 . S
C3367 C3364 1.403 . S
C3367 C3368 1.524 . S
C3367 C3371 1.400 . S
C3368 H3353 0.960 . S
C3368 H3354 0.960 . S
C3368 H3355 0.960 . S
C3368 C3367 1.524 . S
C3369 C3366 1.403 . S
C3369 C3370 1.392 . S
C3369 C3373 1.495 . S
C3370 C3369 1.392 . S
C3370 C3371 1.385 . S
C3370 C3372 1.478 . S
C3371 H3365 0.930 . S
C3371 C3367 1.400 . S
C3371 C3370 1.385 . S
C3372 C3370 1.478 . S
C3372 C3374 1.381 . S
C3372 C3378 1.383 . S
C3373 C3369 1.495 . S
C3373 H3379 0.959 . S
C3373 H3380 0.961 . S
C3373 H3381 0.960 . S
C3374 C3372 1.381 . S
C3374 C3375 1.394 . S
C3374 H3382 0.930 . S
C3375 C3374 1.394 . S
C3375 C3376 1.383 . S
C3375 H3383 0.929 . S
C3376 C3375 1.383 . S
C3376 C3377 1.377 . S
C3377 H3361 0.930 . S
C3377 C3376 1.377 . S
C3377 C3378 1.379 . S
C3378 H3362 0.931 . S
C3378 C3372 1.383 . S
C3378 C3377 1.379 . S
H3379 C3373 0.959 . S
H3380 C3373 0.961 . S
H3381 C3373 0.960 . S
H3382 C3374 0.930 . S
H3383 C3375 0.929 . S
H3384 C3392 0.929 . S
H3385 C3394 0.930 . S
H3386 C3396 0.930 . S
H3387 C3399 0.929 . S
H3388 C3402 0.930 . S
H3389 C3404 0.960 . S
H3390 C3404 0.960 . S
H3391 C3404 0.960 1_545 S
C3392 H3384 0.929 . S
C3392 C3393 1.377 . S
C3392 C3394 1.384 . S
C3393 C3392 1.377 . S
C3393 C3399 1.390 1_565 S
C3394 H3385 0.930 . S
C3394 C3392 1.384 . S
C3394 C3395 1.372 . S
C3395 C3394 1.372 . S
C3395 C3396 1.400 1_565 S
C3395 C3400 1.490 . S
C3396 H3386 0.930 . S
C3396 C3395 1.400 1_545 S
C3396 C3399 1.386 . S
H3397 C3413 0.930 . S
H3398 C3414 0.931 . S
C3399 H3387 0.929 . S
C3399 C3393 1.390 1_545 S
C3399 C3396 1.386 . S
C3400 C3395 1.490 . S
C3400 C3402 1.395 . S
C3400 C3403 1.403 . S
H3401 C3407 0.930 . S
C3402 H3388 0.930 . S
C3402 C3400 1.395 . S
C3402 C3405 1.403 . S
C3403 C3400 1.403 . S
C3403 C3404 1.524 . S
C3403 C3407 1.400 . S
C3404 H3389 0.960 . S
C3404 H3390 0.960 . S
C3404 H3391 0.960 1_565 S
C3404 C3403 1.524 . S
C3405 C3402 1.403 . S
C3405 C3406 1.392 . S
C3405 C3409 1.495 . S
C3406 C3405 1.392 . S
C3406 C3407 1.385 . S
C3406 C3408 1.478 . S
C3407 H3401 0.930 . S
C3407 C3403 1.400 . S
C3407 C3406 1.385 . S
C3408 C3406 1.478 . S
C3408 C3410 1.381 . S
C3408 C3414 1.383 1_565 S
C3409 C3405 1.495 . S
C3409 H3415 0.959 . S
C3409 H3416 0.961 . S
C3409 H3417 0.960 . S
C3410 C3408 1.381 . S
C3410 C3411 1.394 . S
C3410 H3418 0.930 . S
C3411 C3410 1.394 . S
C3411 C3412 1.383 . S
C3411 H3419 0.929 . S
C3412 C3411 1.383 . S
C3412 C3413 1.377 1_565 S
C3413 H3397 0.930 . S
C3413 C3412 1.377 1_545 S
C3413 C3414 1.379 . S
C3414 H3398 0.931 . S
C3414 C3408 1.383 1_545 S
C3414 C3413 1.379 . S
H3415 C3409 0.959 . S
H3416 C3409 0.961 . S
H3417 C3409 0.960 . S
H3418 C3410 0.930 . S
H3419 C3411 0.929 . S
H3420 C3428 0.929 . S
H3421 C3430 0.930 . S
H3422 C3432 0.930 . S
H3423 C3435 0.929 . S
H3424 C3438 0.930 . S
H3425 C3440 0.960 . S
H3426 C3440 0.960 . S
H3427 C3440 0.960 . S
C3428 H3420 0.929 . S
C3428 C3429 1.377 1_545 S
C3428 C3430 1.384 . S
C3429 C3428 1.377 1_565 S
C3429 C3435 1.390 . S
C3430 H3421 0.930 . S
C3430 C3428 1.384 . S
C3430 C3431 1.372 1_545 S
C3431 C3430 1.372 1_565 S
C3431 C3432 1.400 . S
C3431 C3436 1.490 . S
C3432 H3422 0.930 . S
C3432 C3431 1.400 . S
C3432 C3435 1.386 . S
H3433 C3449 0.930 . S
H3434 C3450 0.931 . S
C3435 H3423 0.929 . S
C3435 C3429 1.390 . S
C3435 C3432 1.386 . S
C3436 C3431 1.490 . S
C3436 C3438 1.395 . S
C3436 C3439 1.403 . S
H3437 C3443 0.930 . S
C3438 H3424 0.930 . S
C3438 C3436 1.395 . S
C3438 C3441 1.403 . S
C3439 C3436 1.403 . S
C3439 C3440 1.524 . S
C3439 C3443 1.400 . S
C3440 H3425 0.960 . S
C3440 H3426 0.960 . S
C3440 H3427 0.960 . S
C3440 C3439 1.524 . S
C3441 C3438 1.403 . S
C3441 C3442 1.392 . S
C3441 C3445 1.496 . S
C3442 C3441 1.392 . S
C3442 C3443 1.385 . S
C3442 C3444 1.478 . S
C3443 H3437 0.930 . S
C3443 C3439 1.400 . S
C3443 C3442 1.385 . S
C3444 C3442 1.478 . S
C3444 C3446 1.381 1_565 S
C3444 C3450 1.383 . S
C3445 C3441 1.496 . S
C3445 H3451 0.998 1_565 S
C3445 H3452 0.965 . S
C3445 H3453 0.952 1_565 S
C3446 C3444 1.381 1_545 S
C3446 C3447 1.394 . S
C3446 H3454 0.930 . S
C3447 C3446 1.394 . S
C3447 C3448 1.383 1_545 S
C3447 H3455 0.929 . S
C3448 C3447 1.383 1_565 S
C3448 C3449 1.377 . S
C3449 H3433 0.930 . S
C3449 C3448 1.377 . S
C3449 C3450 1.379 . S
C3450 H3434 0.931 . S
C3450 C3444 1.383 . S
C3450 C3449 1.379 . S
H3451 C3445 0.998 1_545 S
H3452 C3445 0.965 . S
H3453 C3445 0.952 1_545 S
H3454 C3446 0.930 . S
H3455 C3447 0.929 . S
H3456 C3464 0.929 . S
H3457 C3466 0.930 . S
H3458 C3468 0.930 . S
H3459 C3471 0.929 . S
H3460 C3474 0.907 1_655 S
H3461 C3476 0.960 . S
H3462 C3476 0.960 . S
H3463 C3476 0.960 . S
C3464 H3456 0.929 . S
C3464 C3465 1.377 . S
C3464 C3466 1.384 . S
C3465 C3464 1.377 . S
C3465 C3471 1.390 . S
C3466 H3457 0.930 . S
C3466 C3464 1.384 . S
C3466 C3467 1.372 . S
C3467 C3466 1.372 . S
C3467 C3468 1.400 . S
C3467 C3472 1.490 . S
C3468 H3458 0.930 . S
C3468 C3467 1.400 . S
C3468 C3471 1.386 . S
H3469 C3485 0.930 . S
H3470 C3486 0.931 . S
C3471 H3459 0.929 . S
C3471 C3465 1.390 . S
C3471 C3468 1.386 . S
C3472 C3467 1.490 . S
C3472 C3474 1.403 . S
C3472 C3475 1.403 . S
H3473 C3479 0.930 . S
C3474 H3460 0.907 1_455 S
C3474 C3472 1.403 . S
C3474 C3477 1.420 1_455 S
C3475 C3472 1.403 . S
C3475 C3476 1.524 . S
C3475 C3479 1.400 . S
C3476 H3461 0.960 . S
C3476 H3462 0.960 . S
C3476 H3463 0.960 . S
C3476 C3475 1.524 . S
C3477 C3474 1.420 1_655 S
C3477 C3478 1.392 1_655 S
C3477 C3481 1.495 . S
C3478 C3477 1.392 1_455 S
C3478 C3479 1.385 . S
C3478 C3480 1.478 . S
C3479 H3473 0.930 . S
C3479 C3475 1.400 . S
C3479 C3478 1.385 . S
C3480 C3478 1.478 . S
C3480 C3482 1.381 . S
C3480 C3486 1.383 1_455 S
C3481 C3477 1.495 . S
C3481 H3487 0.959 . S
C3481 H3488 0.961 . S
C3481 H3489 0.960 . S
C3482 C3480 1.381 . S
C3482 C3483 1.394 . S
C3482 H3490 0.930 . S
C3483 C3482 1.394 . S
C3483 C3484 1.383 . S
C3483 H3491 0.929 . S
C3484 C3483 1.383 . S
C3484 C3485 1.377 1_455 S
C3485 H3469 0.930 . S
C3485 C3484 1.377 1_655 S
C3485 C3486 1.379 . S
C3486 H3470 0.931 . S
C3486 C3480 1.383 1_655 S
C3486 C3485 1.379 . S
H3487 C3481 0.959 . S
H3488 C3481 0.961 . S
H3489 C3481 0.960 . S
H3490 C3482 0.930 . S
H3491 C3483 0.929 . S
H3492 C3500 0.929 . S
H3493 C3502 0.930 . S
H3494 C3504 0.930 . S
H3495 C3507 0.929 . S
H3496 C3510 0.930 . S
H3497 C3512 0.960 . S
H3498 C3512 0.960 . S
H3499 C3512 0.960 . S
C3500 H3492 0.929 . S
C3500 C3501 1.377 . S
C3500 C3502 1.384 . S
C3501 C3500 1.377 . S
C3501 C3507 1.390 . S
C3502 H3493 0.930 . S
C3502 C3500 1.384 . S
C3502 C3503 1.372 . S
C3503 C3502 1.372 . S
C3503 C3504 1.400 . S
C3503 C3508 1.490 . S
C3504 H3494 0.930 . S
C3504 C3503 1.400 . S
C3504 C3507 1.386 . S
H3505 C3521 0.930 . S
H3506 C3522 0.931 . S
C3507 H3495 0.929 . S
C3507 C3501 1.390 . S
C3507 C3504 1.386 . S
C3508 C3503 1.490 . S
C3508 C3510 1.395 . S
C3508 C3511 1.403 . S
H3509 C3515 0.930 . S
C3510 H3496 0.930 . S
C3510 C3508 1.395 . S
C3510 C3513 1.403 . S
C3511 C3508 1.403 . S
C3511 C3512 1.524 . S
C3511 C3515 1.400 . S
C3512 H3497 0.960 . S
C3512 H3498 0.960 . S
C3512 H3499 0.960 . S
C3512 C3511 1.524 . S
C3513 C3510 1.403 . S
C3513 C3514 1.392 . S
C3513 C3517 1.495 . S
C3514 C3513 1.392 . S
C3514 C3515 1.385 . S
C3514 C3516 1.478 . S
C3515 H3509 0.930 . S
C3515 C3511 1.400 . S
C3515 C3514 1.385 . S
C3516 C3514 1.478 . S
C3516 C3518 1.381 . S
C3516 C3522 1.383 . S
C3517 C3513 1.495 . S
C3517 H3523 0.959 . S
C3517 H3524 0.961 . S
C3517 H3525 0.960 . S
C3518 C3516 1.381 . S
C3518 C3519 1.394 . S
C3518 H3526 0.930 . S
C3519 C3518 1.394 . S
C3519 C3520 1.383 . S
C3519 H3527 0.929 . S
C3520 C3519 1.383 . S
C3520 C3521 1.377 . S
C3521 H3505 0.930 . S
C3521 C3520 1.377 . S
C3521 C3522 1.379 . S
C3522 H3506 0.931 . S
C3522 C3516 1.383 . S
C3522 C3521 1.379 . S
H3523 C3517 0.959 . S
H3524 C3517 0.961 . S
H3525 C3517 0.960 . S
H3526 C3518 0.930 . S
H3527 C3519 0.929 . S
H3528 C3536 0.929 . S
H3529 C3538 0.930 . S
H3530 C3540 0.930 . S
H3531 C3543 0.929 . S
H3532 C3546 0.930 . S
H3533 C3548 0.960 . S
H3534 C3548 0.960 . S
H3535 C3548 0.960 . S
C3536 H3528 0.929 . S
C3536 C3537 1.377 . S
C3536 C3538 1.384 . S
C3537 C3536 1.377 . S
C3537 C3543 1.390 . S
C3538 H3529 0.930 . S
C3538 C3536 1.384 . S
C3538 C3539 1.372 . S
C3539 C3538 1.372 . S
C3539 C3540 1.400 . S
C3539 C3544 1.490 . S
C3540 H3530 0.930 . S
C3540 C3539 1.400 . S
C3540 C3543 1.386 . S
H3541 C3557 0.930 . S
H3542 C3558 0.931 . S
C3543 H3531 0.929 . S
C3543 C3537 1.390 . S
C3543 C3540 1.386 . S
C3544 C3539 1.490 . S
C3544 C3546 1.395 . S
C3544 C3547 1.403 . S
H3545 C3551 0.930 . S
C3546 H3532 0.930 . S
C3546 C3544 1.395 . S
C3546 C3549 1.403 . S
C3547 C3544 1.403 . S
C3547 C3548 1.524 . S
C3547 C3551 1.400 . S
C3548 H3533 0.960 . S
C3548 H3534 0.960 . S
C3548 H3535 0.960 . S
C3548 C3547 1.524 . S
C3549 C3546 1.403 . S
C3549 C3550 1.392 . S
C3549 C3553 1.495 . S
C3550 C3549 1.392 . S
C3550 C3551 1.385 . S
C3550 C3552 1.478 . S
C3551 H3545 0.930 . S
C3551 C3547 1.400 . S
C3551 C3550 1.385 . S
C3552 C3550 1.478 . S
C3552 C3554 1.381 . S
C3552 C3558 1.383 . S
C3553 C3549 1.495 . S
C3553 H3559 0.959 . S
C3553 H3560 0.961 . S
C3553 H3561 0.960 . S
C3554 C3552 1.381 . S
C3554 C3555 1.394 . S
C3554 H3562 0.930 . S
C3555 C3554 1.394 . S
C3555 C3556 1.383 . S
C3555 H3563 0.929 . S
C3556 C3555 1.383 . S
C3556 C3557 1.377 . S
C3557 H3541 0.930 . S
C3557 C3556 1.377 . S
C3557 C3558 1.379 . S
C3558 H3542 0.931 . S
C3558 C3552 1.383 . S
C3558 C3557 1.379 . S
H3559 C3553 0.959 . S
H3560 C3553 0.961 . S
H3561 C3553 0.960 . S
H3562 C3554 0.930 . S
H3563 C3555 0.929 . S
H3564 C3572 0.929 . S
H3565 C3574 0.930 . S
H3566 C3576 0.930 . S
H3567 C3579 0.929 . S
H3568 C3582 0.930 . S
H3569 C3584 0.960 . S
H3570 C3584 0.960 . S
H3571 C3584 0.960 . S
C3572 H3564 0.929 . S
C3572 C3573 1.377 . S
C3572 C3574 1.384 . S
C3573 C3572 1.377 . S
C3573 C3579 1.390 . S
C3574 H3565 0.930 . S
C3574 C3572 1.384 . S
C3574 C3575 1.372 . S
C3575 C3574 1.372 . S
C3575 C3576 1.400 . S
C3575 C3580 1.490 . S
C3576 H3566 0.930 . S
C3576 C3575 1.400 . S
C3576 C3579 1.386 . S
H3577 C3593 0.930 . S
H3578 C3594 0.931 . S
C3579 H3567 0.929 . S
C3579 C3573 1.390 . S
C3579 C3576 1.386 . S
C3580 C3575 1.490 . S
C3580 C3582 1.395 . S
C3580 C3583 1.403 . S
H3581 C3587 0.930 . S
C3582 H3568 0.930 . S
C3582 C3580 1.395 . S
C3582 C3585 1.403 . S
C3583 C3580 1.403 . S
C3583 C3584 1.524 . S
C3583 C3587 1.400 . S
C3584 H3569 0.960 . S
C3584 H3570 0.960 . S
C3584 H3571 0.960 . S
C3584 C3583 1.524 . S
C3585 C3582 1.403 . S
C3585 C3586 1.392 . S
C3585 C3589 1.495 . S
C3586 C3585 1.392 . S
C3586 C3587 1.385 . S
C3586 C3588 1.478 . S
C3587 H3581 0.930 . S
C3587 C3583 1.400 . S
C3587 C3586 1.385 . S
C3588 C3586 1.478 . S
C3588 C3590 1.381 . S
C3588 C3594 1.383 . S
C3589 C3585 1.495 . S
C3589 H3595 0.959 . S
C3589 H3596 0.961 . S
C3589 H3597 0.960 . S
C3590 C3588 1.381 . S
C3590 C3591 1.394 . S
C3590 H3598 0.930 . S
C3591 C3590 1.394 . S
C3591 C3592 1.383 . S
C3591 H3599 0.929 . S
C3592 C3591 1.383 . S
C3592 C3593 1.377 . S
C3593 H3577 0.930 . S
C3593 C3592 1.377 . S
C3593 C3594 1.379 . S
C3594 H3578 0.931 . S
C3594 C3588 1.383 . S
C3594 C3593 1.379 . S
H3595 C3589 0.959 . S
H3596 C3589 0.961 . S
H3597 C3589 0.960 . S
H3598 C3590 0.930 . S
H3599 C3591 0.929 . S
H3600 C3608 0.929 . S
H3601 C3610 0.930 . S
H3602 C3612 0.930 . S
H3603 C3615 0.929 . S
H3604 C3618 0.930 . S
H3605 C3620 0.960 . S
H3606 C3620 0.960 . S
H3607 C3620 0.960 . S
C3608 H3600 0.929 . S
C3608 C3609 1.377 . S
C3608 C3610 1.384 . S
C3609 C3608 1.377 . S
C3609 C3615 1.390 . S
C3610 H3601 0.930 . S
C3610 C3608 1.384 . S
C3610 C3611 1.372 . S
C3611 C3610 1.372 . S
C3611 C3612 1.400 . S
C3611 C3616 1.490 . S
C3612 H3602 0.930 . S
C3612 C3611 1.400 . S
C3612 C3615 1.386 . S
H3613 C3629 0.930 . S
H3614 C3630 0.931 . S
C3615 H3603 0.929 . S
C3615 C3609 1.390 . S
C3615 C3612 1.386 . S
C3616 C3611 1.490 . S
C3616 C3618 1.395 . S
C3616 C3619 1.403 . S
H3617 C3623 0.930 . S
C3618 H3604 0.930 . S
C3618 C3616 1.395 . S
C3618 C3621 1.403 . S
C3619 C3616 1.403 . S
C3619 C3620 1.524 . S
C3619 C3623 1.400 . S
C3620 H3605 0.960 . S
C3620 H3606 0.960 . S
C3620 H3607 0.960 . S
C3620 C3619 1.524 . S
C3621 C3618 1.403 . S
C3621 C3622 1.392 . S
C3621 C3625 1.495 . S
C3622 C3621 1.392 . S
C3622 C3623 1.385 . S
C3622 C3624 1.478 . S
C3623 H3617 0.930 . S
C3623 C3619 1.400 . S
C3623 C3622 1.385 . S
C3624 C3622 1.478 . S
C3624 C3626 1.381 . S
C3624 C3630 1.383 . S
C3625 C3621 1.495 . S
C3625 H3631 0.959 . S
C3625 H3632 0.961 . S
C3625 H3633 0.960 . S
C3626 C3624 1.381 . S
C3626 C3627 1.394 . S
C3626 H3634 0.930 . S
C3627 C3626 1.394 . S
C3627 C3628 1.383 . S
C3627 H3635 0.929 . S
C3628 C3627 1.383 . S
C3628 C3629 1.377 . S
C3629 H3613 0.930 . S
C3629 C3628 1.377 . S
C3629 C3630 1.379 . S
C3630 H3614 0.931 . S
C3630 C3624 1.383 . S
C3630 C3629 1.379 . S
H3631 C3625 0.959 . S
H3632 C3625 0.961 . S
H3633 C3625 0.960 . S
H3634 C3626 0.930 . S
H3635 C3627 0.929 . S
H3636 C3644 0.929 . S
H3637 C3646 0.930 . S
H3638 C3648 0.930 . S
H3639 C3651 0.929 . S
H3640 C3654 0.930 . S
H3641 C3656 0.960 . S
H3642 C3656 0.960 . S
H3643 C3656 0.960 . S
C3644 H3636 0.929 . S
C3644 C3645 1.377 . S
C3644 C3646 1.384 . S
C3645 C3644 1.377 . S
C3645 C3651 1.390 . S
C3646 H3637 0.930 . S
C3646 C3644 1.384 . S
C3646 C3647 1.372 . S
C3647 C3646 1.372 . S
C3647 C3648 1.400 . S
C3647 C3652 1.490 . S
C3648 H3638 0.930 . S
C3648 C3647 1.400 . S
C3648 C3651 1.386 . S
H3649 C3665 0.930 . S
H3650 C3666 0.931 . S
C3651 H3639 0.929 . S
C3651 C3645 1.390 . S
C3651 C3648 1.386 . S
C3652 C3647 1.490 . S
C3652 C3654 1.395 1_545 S
C3652 C3655 1.403 . S
H3653 C3659 0.930 . S
C3654 H3640 0.930 . S
C3654 C3652 1.395 1_565 S
C3654 C3657 1.403 . S
C3655 C3652 1.403 . S
C3655 C3656 1.524 . S
C3655 C3659 1.400 . S
C3656 H3641 0.960 . S
C3656 H3642 0.960 . S
C3656 H3643 0.960 . S
C3656 C3655 1.524 . S
C3657 C3654 1.403 . S
C3657 C3658 1.392 1_565 S
C3657 C3661 1.495 . S
C3658 C3657 1.392 1_545 S
C3658 C3659 1.385 . S
C3658 C3660 1.478 . S
C3659 H3653 0.930 . S
C3659 C3655 1.400 . S
C3659 C3658 1.385 . S
C3660 C3658 1.478 . S
C3660 C3662 1.381 . S
C3660 C3666 1.383 1_545 S
C3661 C3657 1.495 . S
C3661 H3667 0.959 . S
C3661 H3668 0.961 . S
C3661 H3669 0.960 . S
C3662 C3660 1.381 . S
C3662 C3663 1.394 . S
C3662 H3670 0.930 . S
C3663 C3662 1.394 . S
C3663 C3664 1.383 . S
C3663 H3671 0.929 . S
C3664 C3663 1.383 . S
C3664 C3665 1.377 1_545 S
C3665 H3649 0.930 . S
C3665 C3664 1.377 1_565 S
C3665 C3666 1.379 . S
C3666 H3650 0.931 . S
C3666 C3660 1.383 1_565 S
C3666 C3665 1.379 . S
H3667 C3661 0.959 . S
H3668 C3661 0.961 . S
H3669 C3661 0.960 . S
H3670 C3662 0.930 . S
H3671 C3663 0.929 . S
H3672 C3680 0.929 . S
H3673 C3682 0.930 . S
H3674 C3684 0.930 . S
H3675 C3687 0.929 . S
H3676 C3690 0.930 . S
H3677 C3692 0.960 . S
H3678 C3692 0.960 . S
H3679 C3692 0.960 . S
C3680 H3672 0.929 . S
C3680 C3681 1.377 . S
C3680 C3682 1.384 . S
C3681 C3680 1.377 . S
C3681 C3687 1.390 . S
C3682 H3673 0.930 . S
C3682 C3680 1.384 . S
C3682 C3683 1.372 . S
C3683 C3682 1.372 . S
C3683 C3684 1.400 . S
C3683 C3688 1.490 . S
C3684 H3674 0.930 . S
C3684 C3683 1.400 . S
C3684 C3687 1.386 . S
H3685 C3701 0.913 . S
H3686 C3702 0.931 . S
C3687 H3675 0.929 . S
C3687 C3681 1.390 . S
C3687 C3684 1.386 . S
C3688 C3683 1.490 . S
C3688 C3690 1.395 1_655 S
C3688 C3691 1.403 . S
H3689 C3695 0.930 . S
C3690 H3676 0.930 . S
C3690 C3688 1.395 1_455 S
C3690 C3693 1.403 . S
C3691 C3688 1.403 . S
C3691 C3692 1.524 . S
C3691 C3695 1.400 . S
C3692 H3677 0.960 . S
C3692 H3678 0.960 . S
C3692 H3679 0.960 . S
C3692 C3691 1.524 . S
C3693 C3690 1.403 . S
C3693 C3694 1.392 1_455 S
C3693 C3697 1.495 . S
C3694 C3693 1.392 1_655 S
C3694 C3695 1.385 . S
C3694 C3696 1.478 . S
C3695 H3689 0.930 . S
C3695 C3691 1.400 . S
C3695 C3694 1.385 . S
C3696 C3694 1.478 . S
C3696 C3698 1.381 . S
C3696 C3702 1.383 . S
C3697 C3693 1.495 . S
C3697 H3703 0.959 . S
C3697 H3704 0.961 . S
C3697 H3705 0.960 . S
C3698 C3696 1.381 . S
C3698 C3699 1.394 . S
C3698 H3706 0.930 . S
C3699 C3698 1.394 . S
C3699 C3700 1.383 . S
C3699 H3707 0.929 . S
C3700 C3699 1.383 . S
C3700 C3701 1.377 . S
C3701 H3685 0.913 . S
C3701 C3700 1.377 . S
C3701 C3702 1.379 . S
C3702 H3686 0.931 . S
C3702 C3696 1.383 . S
C3702 C3701 1.379 . S
H3703 C3697 0.959 . S
H3704 C3697 0.961 . S
H3705 C3697 0.960 . S
H3706 C3698 0.930 . S
H3707 C3699 0.929 . S
H3708 C3716 0.929 . S
H3709 C3718 0.930 . S
H3710 C3720 0.930 . S
H3711 C3723 0.929 . S
H3712 C3726 0.930 . S
H3713 C3728 0.960 . S
H3714 C3728 0.960 . S
H3715 C3728 0.960 . S
C3716 H3708 0.929 . S
C3716 C3717 1.377 . S
C3716 C3718 1.384 . S
C3717 C3716 1.377 . S
C3717 C3723 1.390 . S
C3718 H3709 0.930 . S
C3718 C3716 1.384 . S
C3718 C3719 1.372 . S
C3719 C3718 1.372 . S
C3719 C3720 1.400 . S
C3719 C3724 1.490 . S
C3720 H3710 0.930 . S
C3720 C3719 1.400 . S
C3720 C3723 1.386 . S
H3721 C3737 0.930 . S
H3722 C3738 0.931 . S
C3723 H3711 0.929 . S
C3723 C3717 1.390 . S
C3723 C3720 1.386 . S
C3724 C3719 1.490 . S
C3724 C3726 1.395 . S
C3724 C3727 1.403 . S
H3725 C3731 0.930 . S
C3726 H3712 0.930 . S
C3726 C3724 1.395 . S
C3726 C3729 1.403 . S
C3727 C3724 1.403 . S
C3727 C3728 1.524 . S
C3727 C3731 1.400 . S
C3728 H3713 0.960 . S
C3728 H3714 0.960 . S
C3728 H3715 0.960 . S
C3728 C3727 1.524 . S
C3729 C3726 1.403 . S
C3729 C3730 1.392 . S
C3729 C3733 1.495 . S
C3730 C3729 1.392 . S
C3730 C3731 1.385 . S
C3730 C3732 1.478 . S
C3731 H3725 0.930 . S
C3731 C3727 1.400 . S
C3731 C3730 1.385 . S
C3732 C3730 1.478 . S
C3732 C3734 1.381 . S
C3732 C3738 1.383 . S
C3733 C3729 1.495 . S
C3733 H3739 0.959 . S
C3733 H3740 0.961 . S
C3733 H3741 0.960 . S
C3734 C3732 1.381 . S
C3734 C3735 1.394 . S
C3734 H3742 0.930 . S
C3735 C3734 1.394 . S
C3735 C3736 1.383 . S
C3735 H3743 0.929 . S
C3736 C3735 1.383 . S
C3736 C3737 1.377 . S
C3737 H3721 0.930 . S
C3737 C3736 1.377 . S
C3737 C3738 1.379 . S
C3738 H3722 0.931 . S
C3738 C3732 1.383 . S
C3738 C3737 1.379 . S
H3739 C3733 0.959 . S
H3740 C3733 0.961 . S
H3741 C3733 0.960 . S
H3742 C3734 0.930 . S
H3743 C3735 0.929 . S
H3744 C3752 0.929 . S
H3745 C3754 0.930 . S
H3746 C3756 0.930 . S
H3747 C3759 0.929 . S
H3748 C3762 0.930 . S
H3749 C3764 0.960 . S
H3750 C3764 0.960 . S
H3751 C3764 0.960 . S
C3752 H3744 0.929 . S
C3752 C3753 1.377 . S
C3752 C3754 1.384 . S
C3753 C3752 1.377 . S
C3753 C3759 1.390 . S
C3754 H3745 0.930 . S
C3754 C3752 1.384 . S
C3754 C3755 1.372 . S
C3755 C3754 1.372 . S
C3755 C3756 1.400 . S
C3755 C3760 1.490 . S
C3756 H3746 0.930 . S
C3756 C3755 1.400 . S
C3756 C3759 1.386 . S
H3757 C3773 0.930 . S
H3758 C3774 0.931 . S
C3759 H3747 0.929 . S
C3759 C3753 1.390 . S
C3759 C3756 1.386 . S
C3760 C3755 1.490 . S
C3760 C3762 1.395 . S
C3760 C3763 1.403 . S
H3761 C3767 0.930 . S
C3762 H3748 0.930 . S
C3762 C3760 1.395 . S
C3762 C3765 1.403 . S
C3763 C3760 1.403 . S
C3763 C3764 1.524 . S
C3763 C3767 1.400 . S
C3764 H3749 0.960 . S
C3764 H3750 0.960 . S
C3764 H3751 0.960 . S
C3764 C3763 1.524 . S
C3765 C3762 1.403 . S
C3765 C3766 1.392 . S
C3765 C3769 1.495 . S
C3766 C3765 1.392 . S
C3766 C3767 1.385 . S
C3766 C3768 1.478 . S
C3767 H3761 0.930 . S
C3767 C3763 1.400 . S
C3767 C3766 1.385 . S
C3768 C3766 1.478 . S
C3768 C3770 1.381 . S
C3768 C3774 1.383 . S
C3769 C3765 1.495 . S
C3769 H3775 0.959 . S
C3769 H3776 0.961 . S
C3769 H3777 0.960 . S
C3770 C3768 1.381 . S
C3770 C3771 1.394 . S
C3770 H3778 0.930 . S
C3771 C3770 1.394 . S
C3771 C3772 1.383 . S
C3771 H3779 0.929 . S
C3772 C3771 1.383 . S
C3772 C3773 1.377 . S
C3773 H3757 0.930 . S
C3773 C3772 1.377 . S
C3773 C3774 1.379 . S
C3774 H3758 0.931 . S
C3774 C3768 1.383 . S
C3774 C3773 1.379 . S
H3775 C3769 0.959 . S
H3776 C3769 0.961 . S
H3777 C3769 0.960 . S
H3778 C3770 0.930 . S
H3779 C3771 0.929 . S
H3780 C3788 0.929 . S
H3781 C3790 0.930 . S
H3782 C3792 0.930 . S
H3783 C3795 0.929 . S
H3784 C3798 0.930 . S
H3785 C3800 0.960 . S
H3786 C3800 0.960 . S
H3787 C3800 0.960 . S
C3788 H3780 0.929 . S
C3788 C3789 1.377 . S
C3788 C3790 1.384 . S
C3789 C3788 1.377 . S
C3789 C3795 1.390 . S
C3790 H3781 0.930 . S
C3790 C3788 1.384 . S
C3790 C3791 1.372 . S
C3791 C3790 1.372 . S
C3791 C3792 1.400 . S
C3791 C3796 1.490 . S
C3792 H3782 0.930 . S
C3792 C3791 1.400 . S
C3792 C3795 1.386 . S
H3793 C3809 0.930 . S
H3794 C3810 0.931 . S
C3795 H3783 0.929 . S
C3795 C3789 1.390 . S
C3795 C3792 1.386 . S
C3796 C3791 1.490 . S
C3796 C3798 1.395 . S
C3796 C3799 1.403 . S
H3797 C3803 0.930 . S
C3798 H3784 0.930 . S
C3798 C3796 1.395 . S
C3798 C3801 1.403 . S
C3799 C3796 1.403 . S
C3799 C3800 1.524 . S
C3799 C3803 1.400 . S
C3800 H3785 0.960 . S
C3800 H3786 0.960 . S
C3800 H3787 0.960 . S
C3800 C3799 1.524 . S
C3801 C3798 1.403 . S
C3801 C3802 1.392 . S
C3801 C3805 1.495 . S
C3802 C3801 1.392 . S
C3802 C3803 1.385 . S
C3802 C3804 1.478 . S
C3803 H3797 0.930 . S
C3803 C3799 1.400 . S
C3803 C3802 1.385 . S
C3804 C3802 1.478 . S
C3804 C3806 1.381 . S
C3804 C3810 1.383 . S
C3805 C3801 1.495 . S
C3805 H3811 0.959 . S
C3805 H3812 0.961 . S
C3805 H3813 0.960 . S
C3806 C3804 1.381 . S
C3806 C3807 1.394 . S
C3806 H3814 0.930 . S
C3807 C3806 1.394 . S
C3807 C3808 1.383 . S
C3807 H3815 0.929 . S
C3808 C3807 1.383 . S
C3808 C3809 1.377 . S
C3809 H3793 0.930 . S
C3809 C3808 1.377 . S
C3809 C3810 1.379 . S
C3810 H3794 0.931 . S
C3810 C3804 1.383 . S
C3810 C3809 1.379 . S
H3811 C3805 0.959 . S
H3812 C3805 0.961 . S
H3813 C3805 0.960 . S
H3814 C3806 0.930 . S
H3815 C3807 0.929 . S
H3816 C3824 0.929 . S
H3817 C3826 0.930 . S
H3818 C3828 0.930 . S
H3819 C3831 0.929 . S
H3820 C3834 0.930 . S
H3821 C3836 0.960 . S
H3822 C3836 0.960 . S
H3823 C3836 0.960 . S
C3824 H3816 0.929 . S
C3824 C3825 1.377 . S
C3824 C3826 1.384 . S
C3825 C3824 1.377 . S
C3825 C3831 1.390 . S
C3826 H3817 0.930 . S
C3826 C3824 1.384 . S
C3826 C3827 1.372 . S
C3827 C3826 1.372 . S
C3827 C3828 1.400 . S
C3827 C3832 1.490 . S
C3828 H3818 0.930 . S
C3828 C3827 1.400 . S
C3828 C3831 1.386 . S
H3829 C3845 0.930 . S
H3830 C3846 0.931 . S
C3831 H3819 0.929 . S
C3831 C3825 1.390 . S
C3831 C3828 1.386 . S
C3832 C3827 1.490 . S
C3832 C3834 1.395 . S
C3832 C3835 1.403 . S
H3833 C3839 0.930 . S
C3834 H3820 0.930 . S
C3834 C3832 1.395 . S
C3834 C3837 1.403 . S
C3835 C3832 1.403 . S
C3835 C3836 1.524 . S
C3835 C3839 1.400 . S
C3836 H3821 0.960 . S
C3836 H3822 0.960 . S
C3836 H3823 0.960 . S
C3836 C3835 1.524 . S
C3837 C3834 1.403 . S
C3837 C3838 1.392 . S
C3837 C3841 1.495 . S
C3838 C3837 1.392 . S
C3838 C3839 1.385 . S
C3838 C3840 1.478 . S
C3839 H3833 0.930 . S
C3839 C3835 1.400 . S
C3839 C3838 1.385 . S
C3840 C3838 1.478 . S
C3840 C3842 1.381 . S
C3840 C3846 1.383 . S
C3841 C3837 1.495 . S
C3841 H3847 0.959 . S
C3841 H3848 0.961 . S
C3841 H3849 0.960 . S
C3842 C3840 1.381 . S
C3842 C3843 1.394 . S
C3842 H3850 0.930 . S
C3843 C3842 1.394 . S
C3843 C3844 1.383 . S
C3843 H3851 0.929 . S
C3844 C3843 1.383 . S
C3844 C3845 1.377 . S
C3845 H3829 0.930 . S
C3845 C3844 1.377 . S
C3845 C3846 1.379 . S
C3846 H3830 0.931 . S
C3846 C3840 1.383 . S
C3846 C3845 1.379 . S
H3847 C3841 0.959 . S
H3848 C3841 0.961 . S
H3849 C3841 0.960 . S
H3850 C3842 0.930 . S
H3851 C3843 0.929 . S
H3852 C3860 0.929 . S
H3853 C3862 0.930 . S
H3854 C3864 0.930 . S
H3855 C3867 0.929 . S
H3856 C3870 0.930 . S
H3857 C3872 0.960 . S
H3858 C3872 0.960 . S
H3859 C3872 0.960 . S
C3860 H3852 0.929 . S
C3860 C3861 1.377 . S
C3860 C3862 1.384 . S
C3861 C3860 1.377 . S
C3861 C3867 1.390 . S
C3862 H3853 0.930 . S
C3862 C3860 1.384 . S
C3862 C3863 1.372 . S
C3863 C3862 1.372 . S
C3863 C3864 1.400 . S
C3863 C3868 1.490 . S
C3864 H3854 0.930 . S
C3864 C3863 1.400 . S
C3864 C3867 1.386 . S
H3865 C3881 0.930 . S
H3866 C3882 0.931 . S
C3867 H3855 0.929 . S
C3867 C3861 1.390 . S
C3867 C3864 1.386 . S
C3868 C3863 1.490 . S
C3868 C3870 1.395 . S
C3868 C3871 1.403 . S
H3869 C3875 0.930 . S
C3870 H3856 0.930 . S
C3870 C3868 1.395 . S
C3870 C3873 1.403 . S
C3871 C3868 1.403 . S
C3871 C3872 1.524 . S
C3871 C3875 1.400 . S
C3872 H3857 0.960 . S
C3872 H3858 0.960 . S
C3872 H3859 0.960 . S
C3872 C3871 1.524 . S
C3873 C3870 1.403 . S
C3873 C3874 1.392 . S
C3873 C3877 1.495 . S
C3874 C3873 1.392 . S
C3874 C3875 1.385 . S
C3874 C3876 1.478 . S
C3875 H3869 0.930 . S
C3875 C3871 1.400 . S
C3875 C3874 1.385 . S
C3876 C3874 1.478 . S
C3876 C3878 1.381 . S
C3876 C3882 1.383 . S
C3877 C3873 1.495 . S
C3877 H3883 0.959 . S
C3877 H3884 0.961 . S
C3877 H3885 0.960 . S
C3878 C3876 1.381 . S
C3878 C3879 1.394 . S
C3878 H3886 0.930 . S
C3879 C3878 1.394 . S
C3879 C3880 1.383 . S
C3879 H3887 0.929 . S
C3880 C3879 1.383 . S
C3880 C3881 1.377 . S
C3881 H3865 0.930 . S
C3881 C3880 1.377 . S
C3881 C3882 1.379 . S
C3882 H3866 0.931 . S
C3882 C3876 1.383 . S
C3882 C3881 1.379 . S
H3883 C3877 0.959 . S
H3884 C3877 0.961 . S
H3885 C3877 0.960 . S
H3886 C3878 0.930 . S
H3887 C3879 0.929 . S
H3888 C3896 0.929 . S
H3889 C3898 0.930 . S
H3890 C3900 0.930 . S
H3891 C3903 0.929 . S
H3892 C3906 0.930 . S
H3893 C3908 0.960 . S
H3894 C3908 0.960 . S
H3895 C3908 0.960 . S
C3896 H3888 0.929 . S
C3896 C3897 1.377 . S
C3896 C3898 1.384 . S
C3897 C3896 1.377 . S
C3897 C3903 1.390 . S
C3898 H3889 0.930 . S
C3898 C3896 1.384 . S
C3898 C3899 1.372 . S
C3899 C3898 1.372 . S
C3899 C3900 1.400 . S
C3899 C3904 1.490 . S
C3900 H3890 0.930 . S
C3900 C3899 1.400 . S
C3900 C3903 1.386 . S
H3901 C3917 0.930 . S
H3902 C3918 0.931 . S
C3903 H3891 0.929 . S
C3903 C3897 1.390 . S
C3903 C3900 1.386 . S
C3904 C3899 1.490 . S
C3904 C3906 1.395 . S
C3904 C3907 1.403 . S
H3905 C3911 0.930 . S
C3906 H3892 0.930 . S
C3906 C3904 1.395 . S
C3906 C3909 1.403 . S
C3907 C3904 1.403 . S
C3907 C3908 1.524 . S
C3907 C3911 1.400 . S
C3908 H3893 0.960 . S
C3908 H3894 0.960 . S
C3908 H3895 0.960 . S
C3908 C3907 1.524 . S
C3909 C3906 1.403 . S
C3909 C3910 1.392 . S
C3909 C3913 1.495 . S
C3910 C3909 1.392 . S
C3910 C3911 1.385 . S
C3910 C3912 1.478 . S
C3911 H3905 0.930 . S
C3911 C3907 1.400 . S
C3911 C3910 1.385 . S
C3912 C3910 1.478 . S
C3912 C3914 1.381 . S
C3912 C3918 1.383 . S
C3913 C3909 1.495 . S
C3913 H3919 0.959 . S
C3913 H3920 0.961 . S
C3913 H3921 0.960 . S
C3914 C3912 1.381 . S
C3914 C3915 1.394 . S
C3914 H3922 0.930 . S
C3915 C3914 1.394 . S
C3915 C3916 1.383 . S
C3915 H3923 0.929 . S
C3916 C3915 1.383 . S
C3916 C3917 1.377 . S
C3917 H3901 0.930 . S
C3917 C3916 1.377 . S
C3917 C3918 1.379 . S
C3918 H3902 0.931 . S
C3918 C3912 1.383 . S
C3918 C3917 1.379 . S
H3919 C3913 0.959 . S
H3920 C3913 0.961 . S
H3921 C3913 0.960 . S
H3922 C3914 0.930 . S
H3923 C3915 0.929 . S
H3924 C3932 0.929 . S
H3925 C3934 0.930 . S
H3926 C3936 0.930 . S
H3927 C3939 0.929 . S
H3928 C3942 0.930 . S
H3929 C3944 0.960 . S
H3930 C3944 0.960 . S
H3931 C3944 0.960 . S
C3932 H3924 0.929 . S
C3932 C3933 1.377 . S
C3932 C3934 1.384 . S
C3933 C3932 1.377 . S
C3933 C3939 1.390 . S
C3934 H3925 0.930 . S
C3934 C3932 1.384 . S
C3934 C3935 1.372 . S
C3935 C3934 1.372 . S
C3935 C3936 1.400 . S
C3935 C3940 1.490 . S
C3936 H3926 0.930 . S
C3936 C3935 1.400 . S
C3936 C3939 1.386 . S
H3937 C3953 0.930 . S
H3938 C3954 0.931 . S
C3939 H3927 0.929 . S
C3939 C3933 1.390 . S
C3939 C3936 1.386 . S
C3940 C3935 1.490 . S
C3940 C3942 1.395 . S
C3940 C3943 1.403 . S
H3941 C3947 0.930 . S
C3942 H3928 0.930 . S
C3942 C3940 1.395 . S
C3942 C3945 1.403 . S
C3943 C3940 1.403 . S
C3943 C3944 1.524 . S
C3943 C3947 1.400 . S
C3944 H3929 0.960 . S
C3944 H3930 0.960 . S
C3944 H3931 0.960 . S
C3944 C3943 1.524 . S
C3945 C3942 1.403 . S
C3945 C3946 1.392 . S
C3945 C3949 1.495 . S
C3946 C3945 1.392 . S
C3946 C3947 1.385 . S
C3946 C3948 1.478 . S
C3947 H3941 0.930 . S
C3947 C3943 1.400 . S
C3947 C3946 1.385 . S
C3948 C3946 1.478 . S
C3948 C3950 1.381 . S
C3948 C3954 1.383 . S
C3949 C3945 1.495 . S
C3949 H3955 0.959 . S
C3949 H3956 0.961 . S
C3949 H3957 0.960 . S
C3950 C3948 1.381 . S
C3950 C3951 1.394 . S
C3950 H3958 0.930 . S
C3951 C3950 1.394 . S
C3951 C3952 1.383 . S
C3951 H3959 0.929 . S
C3952 C3951 1.383 . S
C3952 C3953 1.377 . S
C3953 H3937 0.930 . S
C3953 C3952 1.377 . S
C3953 C3954 1.379 . S
C3954 H3938 0.931 . S
C3954 C3948 1.383 . S
C3954 C3953 1.379 . S
H3955 C3949 0.959 . S
H3956 C3949 0.961 . S
H3957 C3949 0.960 . S
H3958 C3950 0.930 . S
H3959 C3951 0.929 . S
H3960 C3968 0.929 . S
H3961 C3970 0.930 . S
H3962 C3972 0.930 . S
H3963 C3975 0.929 . S
H3964 C3978 0.930 . S
H3965 C3980 0.960 . S
H3966 C3980 0.960 . S
H3967 C3980 0.960 . S
C3968 H3960 0.929 . S
C3968 C3969 1.377 . S
C3968 C3970 1.384 . S
C3969 C3968 1.377 . S
C3969 C3975 1.390 . S
C3970 H3961 0.930 . S
C3970 C3968 1.384 . S
C3970 C3971 1.372 . S
C3971 C3970 1.372 . S
C3971 C3972 1.400 . S
C3971 C3976 1.490 . S
C3972 H3962 0.930 . S
C3972 C3971 1.400 . S
C3972 C3975 1.386 . S
H3973 C3989 0.930 . S
H3974 C3990 0.931 . S
C3975 H3963 0.929 . S
C3975 C3969 1.390 . S
C3975 C3972 1.386 . S
C3976 C3971 1.490 . S
C3976 C3978 1.395 . S
C3976 C3979 1.403 1_655 S
H3977 C3983 0.930 . S
C3978 H3964 0.930 . S
C3978 C3976 1.395 . S
C3978 C3981 1.403 . S
C3979 C3976 1.403 1_455 S
C3979 C3980 1.524 . S
C3979 C3983 1.400 . S
C3980 H3965 0.960 . S
C3980 H3966 0.960 . S
C3980 H3967 0.960 . S
C3980 C3979 1.524 . S
C3981 C3978 1.403 . S
C3981 C3982 1.392 . S
C3981 C3985 1.495 . S
C3982 C3981 1.392 . S
C3982 C3983 1.385 1_655 S
C3982 C3984 1.478 . S
C3983 H3977 0.930 . S
C3983 C3979 1.400 . S
C3983 C3982 1.385 1_455 S
C3984 C3982 1.478 . S
C3984 C3986 1.381 . S
C3984 C3990 1.383 . S
C3985 C3981 1.495 . S
C3985 H3991 0.959 . S
C3985 H3992 0.961 . S
C3985 H3993 0.960 . S
C3986 C3984 1.381 . S
C3986 C3987 1.394 . S
C3986 H3994 0.930 . S
C3987 C3986 1.394 . S
C3987 C3988 1.383 . S
C3987 H3995 0.929 1_655 S
C3988 C3987 1.383 . S
C3988 C3989 1.377 . S
C3989 H3973 0.930 . S
C3989 C3988 1.377 . S
C3989 C3990 1.379 . S
C3990 H3974 0.931 . S
C3990 C3984 1.383 . S
C3990 C3989 1.379 . S
H3991 C3985 0.959 . S
H3992 C3985 0.961 . S
H3993 C3985 0.960 . S
H3994 C3986 0.930 . S
H3995 C3987 0.929 1_455 S
H3996 C4004 0.929 . S
H3997 C4006 0.930 . S
H3998 C4008 0.930 . S
H3999 C4011 0.929 . S
H4000 C4014 0.930 . S
H4001 C4016 0.960 . S
H4002 C4016 0.960 . S
H4003 C4016 0.960 . S
C4004 H3996 0.929 . S
C4004 C4005 1.377 . S
C4004 C4006 1.384 . S
C4005 C4004 1.377 . S
C4005 C4011 1.390 . S
C4006 H3997 0.930 . S
C4006 C4004 1.384 . S
C4006 C4007 1.372 . S
C4007 C4006 1.372 . S
C4007 C4008 1.400 . S
C4007 C4012 1.490 . S
C4008 H3998 0.930 . S
C4008 C4007 1.400 . S
C4008 C4011 1.386 . S
H4009 C4025 0.930 . S
H4010 C4026 0.931 . S
C4011 H3999 0.929 . S
C4011 C4005 1.390 . S
C4011 C4008 1.386 . S
C4012 C4007 1.490 . S
C4012 C4014 1.395 . S
C4012 C4015 1.403 . S
H4013 C4019 0.930 . S
C4014 H4000 0.930 . S
C4014 C4012 1.395 . S
C4014 C4017 1.403 . S
C4015 C4012 1.403 . S
C4015 C4016 1.524 . S
C4015 C4019 1.400 . S
C4016 H4001 0.960 . S
C4016 H4002 0.960 . S
C4016 H4003 0.960 . S
C4016 C4015 1.524 . S
C4017 C4014 1.403 . S
C4017 C4018 1.392 . S
C4017 C4021 1.495 . S
C4018 C4017 1.392 . S
C4018 C4019 1.385 . S
C4018 C4020 1.478 . S
C4019 H4013 0.930 . S
C4019 C4015 1.400 . S
C4019 C4018 1.385 . S
C4020 C4018 1.478 . S
C4020 C4022 1.381 . S
C4020 C4026 1.383 . S
C4021 C4017 1.495 . S
C4021 H4027 0.959 . S
C4021 H4028 0.961 . S
C4021 H4029 0.960 . S
C4022 C4020 1.381 . S
C4022 C4023 1.394 . S
C4022 H4030 0.930 . S
C4023 C4022 1.394 . S
C4023 C4024 1.383 . S
C4023 H4031 0.929 . S
C4024 C4023 1.383 . S
C4024 C4025 1.377 . S
C4025 H4009 0.930 . S
C4025 C4024 1.377 . S
C4025 C4026 1.379 . S
C4026 H4010 0.931 . S
C4026 C4020 1.383 . S
C4026 C4025 1.379 . S
H4027 C4021 0.959 . S
H4028 C4021 0.961 . S
H4029 C4021 0.960 . S
H4030 C4022 0.930 . S
H4031 C4023 0.929 . S
H4032 C4040 0.929 . S
H4033 C4042 0.930 . S
H4034 C4044 0.930 . S
H4035 C4047 0.929 . S
H4036 C4050 0.930 . S
H4037 C4052 0.960 . S
H4038 C4052 0.960 1_565 S
H4039 C4052 0.960 . S
C4040 H4032 0.929 . S
C4040 C4041 1.377 1_565 S
C4040 C4042 1.384 . S
C4041 C4040 1.377 1_545 S
C4041 C4047 1.390 . S
C4042 H4033 0.930 . S
C4042 C4040 1.384 . S
C4042 C4043 1.372 1_565 S
C4043 C4042 1.372 1_545 S
C4043 C4044 1.400 . S
C4043 C4048 1.490 . S
C4044 H4034 0.930 . S
C4044 C4043 1.400 . S
C4044 C4047 1.386 . S
H4045 C4061 0.930 . S
H4046 C4062 0.931 . S
C4047 H4035 0.929 . S
C4047 C4041 1.390 . S
C4047 C4044 1.386 . S
C4048 C4043 1.490 . S
C4048 C4050 1.395 . S
C4048 C4051 1.403 . S
H4049 C4055 0.930 . S
C4050 H4036 0.930 . S
C4050 C4048 1.395 . S
C4050 C4053 1.403 . S
C4051 C4048 1.403 . S
C4051 C4052 1.524 . S
C4051 C4055 1.400 . S
C4052 H4037 0.960 . S
C4052 H4038 0.960 1_545 S
C4052 H4039 0.960 . S
C4052 C4051 1.524 . S
C4053 C4050 1.403 . S
C4053 C4054 1.392 . S
C4053 C4057 1.495 . S
C4054 C4053 1.392 . S
C4054 C4055 1.385 . S
C4054 C4056 1.478 . S
C4055 H4049 0.930 . S
C4055 C4051 1.400 . S
C4055 C4054 1.385 . S
C4056 C4054 1.478 . S
C4056 C4058 1.381 1_545 S
C4056 C4062 1.383 . S
C4057 C4053 1.495 . S
C4057 H4063 0.959 . S
C4057 H4064 0.961 . S
C4057 H4065 0.960 1_545 S
C4058 C4056 1.381 1_565 S
C4058 C4059 1.394 . S
C4058 H4066 0.930 . S
C4059 C4058 1.394 . S
C4059 C4060 1.383 1_565 S
C4059 H4067 0.929 . S
C4060 C4059 1.383 1_545 S
C4060 C4061 1.377 . S
C4061 H4045 0.930 . S
C4061 C4060 1.377 . S
C4061 C4062 1.379 . S
C4062 H4046 0.931 . S
C4062 C4056 1.383 . S
C4062 C4061 1.379 . S
H4063 C4057 0.959 . S
H4064 C4057 0.961 . S
H4065 C4057 0.960 1_565 S
H4066 C4058 0.930 . S
H4067 C4059 0.929 . S
C1485 C4 1.422 . S
C1504 C1084 1.406 . S
C1521 C38 1.698 . S
C1540 C1130 1.701 . S
C1576 C1162 1.418 . S
C1557 C74 1.391 . S
C1593 C76 1.369 . S
C1612 C1215 1.395 . S
C1629 C2 1.485 . S
C1648 C1261 1.530 . S
C1665 C40 1.526 . S
C1684 C1300 1.517 . S
C1701 C110 1.440 . S
C1720 C1254 1.467 . S
C1756 C1307 1.515 . S
C1737 C148 1.528 . S
C1792 C1208 1.493 . S
C1773 C182 1.447 . S
C1809 C184 1.430 . S
C1828 C1169 1.454 . S
C1864 C1063 1.394 . S
C1845 C112 1.382 . S
C1881 C146 1.628 . S
C1900 C1109 1.609 . S
C1917 C220 1.652 . S
C1936 C1339 1.661 . S
C1953 C254 1.790 . S
C1972 C1406 1.774 . S
C2008 C1452 1.616 . S
C1989 C290 1.635 . S
C2025 C292 1.514 . S
C2044 C663 1.501 . S
C2061 C218 1.696 . S
C2080 C709 1.703 . S
C2097 C256 1.564 . S
C2116 C755 1.531 . S
C2133 C326 1.655 . S
C2152 C702 1.653 . S
C2169 C364 1.600 . S
C2188 C748 1.594 . S
C2224 C656 1.675 . S
C2205 C398 1.697 . S
C2260 C1431 1.678 . S
C2241 C400 1.682 . S
C2296 C1360 1.508 . S
C2277 C328 1.510 . S
C2332 C1385 1.710 . S
C2313 C362 1.726 . S
C2349 C436 1.541 . S
C2368 C787 1.530 . S
C2385 C470 1.757 . S
C2404 C840 1.742 . S
C2421 C506 1.647 . S
C2440 C886 1.634 . S
C2457 C508 1.626 . S
C2476 C932 1.629 . S
C2512 C985 1.687 . S
C2493 C434 1.682 . S
C2548 C1031 1.574 . S
C2529 C472 1.597 . S
C2584 C978 1.763 . S
C2565 C542 1.775 . S
C2620 C1024 1.585 . S
C2601 C580 1.623 . S
C2637 C614 1.674 . S
C2656 C939 1.662 . S
C2692 C893 1.550 . S
C2673 C616 1.560 . S
C2709 C544 1.530 . S
C2728 C808 1.522 . S
C2764 C847 1.681 . S
C2745 C578 1.674 . S
C2800 C670 1.646 . S
C2781 C14 1.611 . S
C2817 C39 1.534 . S
C2836 C716 1.530 . S
C2872 C762 1.558 . S
C2853 C75 1.564 . S
C2908 C794 1.463 . S
C2889 C86 1.435 . S
C2944 C833 1.610 . S
C2925 C3 1.621 . S
C2980 C879 1.506 . S
C2961 C50 1.507 . S
C2997 C111 1.607 . S
C3016 C900 1.589 . S
C3033 C158 1.443 . S
C3052 C801 1.454 . S
C3069 C183 1.701 . S
C3088 C854 1.654 . S
C3105 C194 1.600 . S
C3124 C695 1.637 . S
C3160 C741 1.496 . S
C3141 C122 1.499 . S
C3177 C147 1.438 . S
C3196 C649 1.412 . S
C3232 C925 1.565 . S
C3213 C230 1.562 . S
C3249 C255 1.695 . S
C3268 C992 1.673 . S
C3285 C291 1.609 . S
C3304 C1038 1.598 . S
C3340 C1077 1.272 . S
C3321 C302 1.219 . S
C3357 C219 1.577 . S
C3376 C1123 1.557 . S
C3393 C266 1.317 . S
C3412 C1155 1.375 . S
C3429 C327 1.289 . S
C3448 C1176 1.268 . S
C3465 C374 1.268 . S
C3484 C1070 1.333 . S
C3520 C1116 1.631 . S
C3501 C399 1.652 . S
C3537 C410 1.559 . S
C3556 C971 1.564 . S
C3573 C338 1.571 . S
C3592 C1017 1.585 . S
C3628 C946 1.572 . S
C3609 C363 1.604 . S
C3664 C1222 1.369 . S
C3645 C446 1.307 . S
C3681 C471 1.363 . S
C3700 C1268 1.359 . S
C3717 C507 1.507 . S
C3736 C1293 1.477 . S
C3772 C1346 1.409 . S
C3753 C518 1.410 . S
C3808 C1399 1.677 . S
C3789 C435 1.687 . S
C3825 C482 1.643 . S
C3844 C1445 1.683 . S
C3861 C543 1.520 . S
C3880 C1438 1.494 . S
C3897 C590 1.587 . S
C3916 C1353 1.595 . S
C3952 C1392 1.729 . S
C3933 C615 1.742 . S
C3988 C1247 1.378 . S
C3969 C626 1.320 . S
C4024 C1314 1.490 . S
C4005 C554 1.500 . S
C4041 C579 1.303 . S
C4060 C1201 1.294 . S
