# Generated by pormake.
# Topology anh, (6,3)-cn, num edge types: 1
# Building blocks:
#     Node 0, Type 0, BuildingBlock: BETDAH_clean_sbu_0, # of connection points: 6
#     Node 1, Type 0, BuildingBlock: BETDAH_clean_sbu_0, # of connection points: 6
#     Node 2, Type 0, BuildingBlock: BETDAH_clean_sbu_0, # of connection points: 6
#     Node 3, Type 1, BuildingBlock: ESEHIV_clean_linker_0, # of connection points: 3
#     Node 4, Type 1, BuildingBlock: ESEHIV_clean_linker_0, # of connection points: 3
#     Node 5, Type 1, BuildingBlock: ESEHIV_clean_linker_0, # of connection points: 3
#     Node 6, Type 1, BuildingBlock: ESEHIV_clean_linker_0, # of connection points: 3
#     Node 7, Type 1, BuildingBlock: ESEHIV_clean_linker_0, # of connection points: 3
#     Node 8, Type 1, BuildingBlock: ESEHIV_clean_linker_0, # of connection points: 3
#     Edge 9, Type (0, 1), BuildingBlock: EZIPEK_clean_linker_0, # of connection points: 2
#     Edge 10, Type (0, 1), BuildingBlock: EZIPEK_clean_linker_0, # of connection points: 2
#     Edge 11, Type (0, 1), BuildingBlock: EZIPEK_clean_linker_0, # of connection points: 2
#     Edge 12, Type (0, 1), BuildingBlock: EZIPEK_clean_linker_0, # of connection points: 2
#     Edge 13, Type (0, 1), BuildingBlock: EZIPEK_clean_linker_0, # of connection points: 2
#     Edge 14, Type (0, 1), BuildingBlock: EZIPEK_clean_linker_0, # of connection points: 2
#     Edge 15, Type (0, 1), BuildingBlock: EZIPEK_clean_linker_0, # of connection points: 2
#     Edge 16, Type (0, 1), BuildingBlock: EZIPEK_clean_linker_0, # of connection points: 2
#     Edge 17, Type (0, 1), BuildingBlock: EZIPEK_clean_linker_0, # of connection points: 2
#     Edge 18, Type (0, 1), BuildingBlock: EZIPEK_clean_linker_0, # of connection points: 2
#     Edge 19, Type (0, 1), BuildingBlock: EZIPEK_clean_linker_0, # of connection points: 2
#     Edge 20, Type (0, 1), BuildingBlock: EZIPEK_clean_linker_0, # of connection points: 2
#     Edge 21, Type (0, 1), BuildingBlock: EZIPEK_clean_linker_0, # of connection points: 2
#     Edge 22, Type (0, 1), BuildingBlock: EZIPEK_clean_linker_0, # of connection points: 2
#     Edge 23, Type (0, 1), BuildingBlock: EZIPEK_clean_linker_0, # of connection points: 2
#     Edge 24, Type (0, 1), BuildingBlock: EZIPEK_clean_linker_0, # of connection points: 2
#     Edge 25, Type (0, 1), BuildingBlock: EZIPEK_clean_linker_0, # of connection points: 2
#     Edge 26, Type (0, 1), BuildingBlock: EZIPEK_clean_linker_0, # of connection points: 2
# Relax obj value: 0.286
# Max RMSD: 0.262
# Mean RMSD: 0.182
data_MOF--net-anh--node1-BETDAH_clean_sbu_0--node2-ESEHIV_clean_linker_0--edge1-EZIPEK_clean_linker_0
_symmetry_space_group_name_H-M    P1
_symmetry_Int_Tables_number       1
_symmetry_cell_setting            triclinic
loop_
_symmetry_equiv_pos_as_xyz
'x, y, z'
_cell_length_a     22.518246
_cell_length_b     27.206401
_cell_length_c     37.522665
_cell_angle_alpha  91.837025
_cell_angle_beta   89.550028
_cell_angle_gamma 133.53485
loop_
_atom_site_label
_atom_site_type_symbol
_atom_site_fract_x
_atom_site_fract_y
_atom_site_fract_z
_atom_type_partial_charge
Ho0 Ho 0.17955 0.55152 0.15168 0.0
Ho1 Ho 0.07391 0.57664 0.16177 0.0
C2 C 0.27329 0.71084 0.16201 0.0
C3 C 0.26719 0.5305 0.12603 0.0
C4 C 0.24633 0.46682 0.11828 0.0
C5 C 0.16382 0.4054 0.11397 0.0
C6 C 0.14352 0.34545 0.1041 0.0
C7 C 0.20563 0.34637 0.09829 0.0
C8 C 0.28799 0.40708 0.10369 0.0
C9 C 0.3083 0.46716 0.11358 0.0
C10 C 0.13197 0.5388 0.22027 0.0
C11 C 0.98439 0.41845 0.1587 0.0
C12 C 0.99057 0.60489 0.18278 0.0
C13 C 0.90152 0.56387 0.18218 0.0
C14 C 0.84949 0.51208 0.20661 0.0
C15 C 0.76447 0.46572 0.20184 0.0
C16 C 0.73074 0.47054 0.17257 0.0
C17 C 0.78201 0.5251 0.1499 0.0
C18 C 0.86678 0.57165 0.15475 0.0
C19 C 0.08001 0.54642 0.09261 0.0
O20 O 0.28217 0.66723 0.15994 0.0
O21 O 0.19819 0.68726 0.16129 0.0
O22 O 0.22775 0.53921 0.10622 0.0
O23 O 0.27037 0.54627 0.15971 0.0
O24 O 0.1396 0.5005 0.20436 0.0
O25 O 0.15405 0.58414 0.19939 0.0
O26 O 0.97992 0.46202 0.17123 0.0
O27 O 1.05344 0.44294 0.14371 0.0
O28 O 1.0257 0.62164 0.15173 0.0
O29 O 1.01574 0.58509 0.20413 0.0
O30 O 1.01373 0.52314 0.10819 0.0
O31 O 0.13933 0.58502 0.11454 0.0
H32 H 0.11502 0.40393 0.1172 0.0
H33 H 0.07977 0.29891 0.10007 0.0
H34 H 0.33649 0.40812 0.09956 0.0
H35 H 0.37216 0.51392 0.11683 0.0
H36 H 0.87423 0.50521 0.22837 0.0
H37 H 0.72536 0.42399 0.21966 0.0
H38 H 0.7565 0.52962 0.12732 0.0
H39 H 0.90519 0.61156 0.13589 0.0
Ho40 Ho 0.69964 0.06533 0.47157 0.0
Ho41 Ho 0.59534 0.09151 0.46553 0.0
C42 C 0.49988 0.93262 0.46054 0.0
C43 C 0.76812 0.02562 0.49481 0.0
C44 C 0.74318 0.96163 0.50402 0.0
C45 C 0.7819 0.96194 0.53318 0.0
C46 C 0.75891 0.90202 0.54324 0.0
C47 C 0.69705 0.8409 0.52416 0.0
C48 C 0.65783 0.84026 0.49497 0.0
C49 C 0.6804 0.90034 0.48507 0.0
C50 C 0.68181 0.08398 0.40355 0.0
C51 C 0.79776 0.22342 0.46705 0.0
C52 C 0.52848 0.13714 0.45203 0.0
C53 C 0.54622 0.19637 0.46749 0.0
C54 C 0.59391 0.22837 0.49897 0.0
C55 C 0.60925 0.28347 0.51461 0.0
C56 C 0.57732 0.30741 0.4989 0.0
C57 C 0.53115 0.27644 0.46697 0.0
C58 C 0.51558 0.22102 0.45134 0.0
C59 C 0.61847 0.07763 0.53407 0.0
O60 O 0.57229 0.95565 0.4703 0.0
O61 O 0.49526 0.9775 0.45353 0.0
O62 O 0.76495 0.0346 0.46111 0.0
O63 O 0.74075 0.04542 0.51568 0.0
O64 O 0.74878 0.10437 0.41711 0.0
O65 O 0.62494 0.0501 0.42603 0.0
O66 O 0.72366 0.19978 0.46059 0.0
O67 O 0.80401 0.18035 0.47602 0.0
O68 O 0.4983 0.08898 0.47413 0.0
O69 O 0.58646 0.15058 0.43286 0.0
O70 O 0.55051 0.05533 0.52107 0.0
O71 O 0.67253 0.10961 0.51046 0.0
H72 H 0.82995 1.00866 0.54824 0.0
H73 H 0.78978 0.90331 0.56579 0.0
H74 H 0.60999 0.79342 0.47998 0.0
H75 H 0.64905 0.89896 0.46273 0.0
H76 H 0.61823 0.21 0.51171 0.0
H77 H 0.64493 0.30683 0.53923 0.0
H78 H 0.5061 0.29446 0.45459 0.0
H79 H 0.479 0.197 0.42697 0.0
Ho80 Ho 0.66152 0.62373 0.86156 0.0
Ho81 Ho 0.54442 0.48105 0.85137 0.0
C82 C 0.45441 0.54479 0.86042 0.0
C83 C 0.74407 0.75269 0.85665 0.0
C84 C 0.72824 0.79268 0.841 0.0
C85 C 0.66854 0.76487 0.81395 0.0
C86 C 0.65542 0.80363 0.79909 0.0
C87 C 0.70113 0.87106 0.81115 0.0
C88 C 0.76 0.89853 0.83859 0.0
C89 C 0.77352 0.85987 0.85323 0.0
C90 C 0.61579 0.55702 0.92234 0.0
C91 C 0.7519 0.5602 0.85951 0.0
C92 C 0.46799 0.35351 0.85271 0.0
C93 C 0.4897 0.31546 0.83922 0.0
C94 C 0.45162 0.2521 0.85274 0.0
C95 C 0.47121 0.21572 0.83962 0.0
C96 C 0.52933 0.24198 0.81267 0.0
C97 C 0.56803 0.30569 0.79948 0.0
C98 C 0.5485 0.34198 0.81262 0.0
C99 C 0.58313 0.54106 0.78832 0.0
O100 O 0.53583 0.60216 0.85719 0.0
O101 O 0.44316 0.48852 0.86165 0.0
O102 O 0.70158 0.71749 0.88434 0.0
O103 O 0.75048 0.71872 0.8345 0.0
O104 O 0.69123 0.61149 0.91609 0.0
O105 O 0.56935 0.54279 0.89716 0.0
O106 O 0.67042 0.50272 0.85501 0.0
O107 O 0.76449 0.61707 0.86229 0.0
O108 O 0.4545 0.37852 0.82859 0.0
O109 O 0.5122 0.39675 0.87944 0.0
O110 O 0.50961 0.49053 0.79859 0.0
O111 O 0.63406 0.56052 0.81322 0.0
H112 H 0.63174 0.71305 0.8043 0.0
H113 H 0.6094 0.78093 0.77814 0.0
H114 H 0.79595 0.95019 0.84851 0.0
H115 H 0.81968 0.88262 0.87412 0.0
H116 H 0.40634 0.23054 0.87333 0.0
H117 H 0.44058 0.1668 0.8503 0.0
H118 H 0.61304 0.32716 0.77878 0.0
H119 H 0.57921 0.39078 0.80185 0.0
H120 H 0.53569 0.9641 0.24612 0.0
H121 H 0.75578 0.17487 0.24415 0.0
H122 H 0.62527 0.06389 0.14529 0.0
C123 C 0.58036 1.00884 0.23071 0.0
C124 C 0.5705 1.00421 0.19339 0.0
C125 C 0.64619 0.06964 0.24888 0.0
C126 C 0.70505 0.12836 0.22964 0.0
C127 C 0.69973 0.1287 0.1923 0.0
C128 C 0.6312 0.06543 0.17399 0.0
H129 H 0.6343 0.64668 0.63336 0.0
H130 H 0.62312 0.48206 0.62666 0.0
H131 H 0.63276 0.56999 0.53098 0.0
C132 C 0.63307 0.61182 0.61765 0.0
C133 C 0.63731 0.6155 0.58037 0.0
C134 C 0.62823 0.56396 0.63471 0.0
C135 C 0.62715 0.51944 0.61388 0.0
C136 C 0.62646 0.5203 0.57655 0.0
C137 C 0.63222 0.56871 0.55985 0.0
H138 H 1.00742 0.55368 0.93458 0.0
H139 H 0.19326 0.54846 0.93473 0.0
H140 H 0.10355 0.55299 0.83342 0.0
C141 C 1.04702 0.55315 0.91833 0.0
C142 C 1.04207 0.55482 0.88097 0.0
C143 C 0.10015 0.55095 0.93648 0.0
C144 C 0.15486 0.54981 0.91845 0.0
C145 C 0.16223 0.54972 0.88103 0.0
C146 C 0.10264 0.55249 0.86222 0.0
H147 H 1.04053 0.45913 0.38085 0.0
H148 H 0.2507 0.67226 0.37701 0.0
H149 H 0.14719 0.58104 0.47909 0.0
C150 C 0.08635 0.50763 0.39504 0.0
C151 C 0.08513 0.51097 0.43248 0.0
C152 C 0.14534 0.56531 0.37533 0.0
C153 C 0.20561 0.62844 0.39292 0.0
C154 C 0.20826 0.63669 0.43028 0.0
C155 C 0.14685 0.5767 0.45031 0.0
H156 H 0.60739 0.12972 0.69456 0.0
H157 H 0.66411 1.00757 0.69155 0.0
H158 H 0.62428 0.06089 0.7924 0.0
C159 C 0.61904 0.10263 0.70844 0.0
C160 C 0.61398 0.09976 0.74586 0.0
C161 C 0.63704 0.06958 0.68866 0.0
C162 C 0.65089 0.03356 0.70674 0.0
C163 C 0.64678 0.03015 0.74424 0.0
C164 C 0.62831 0.06359 0.76362 0.0
H165 H 0.33583 0.29983 0.00455 0.0
H166 H 0.56007 0.40863 0.06236 0.0
H167 H 0.33746 0.23832 0.10977 0.0
C168 C 0.36637 0.30296 0.02782 0.0
C169 C 0.32161 0.25991 0.0569 0.0
C170 C 0.45178 0.35681 0.03002 0.0
C171 C 0.49429 0.3656 0.06012 0.0
C172 C 0.45233 0.32197 0.08832 0.0
C173 C 0.36709 0.26873 0.08656 0.0
C174 C 0.18256 0.27265 0.04742 0.0
C175 C 0.18626 0.2851 0.08477 0.0
C176 C 0.19963 0.20524 0.09446 0.0
C177 C 0.23082 0.21835 0.05978 0.0
N178 N 0.18213 0.20756 0.00097 0.0
N179 N 0.17712 0.24944 0.14431 0.0
C180 C 0.19646 0.23144 0.0353 0.0
C181 C 0.18575 0.24544 0.10864 0.0
N182 N 0.17218 0.30367 0.02404 0.0
N183 N 0.18544 0.1561 0.11314 0.0
H184 H 0.16492 0.27764 0.15486 0.0
H185 H 0.18431 0.22634 0.16305 0.0
H186 H 0.19662 0.12759 0.10176 0.0
H187 H 0.15833 0.14152 0.13806 0.0
H188 H 0.17743 0.30135 -0.00344 0.0
H189 H 0.16077 0.33338 0.03251 0.0
H190 H 0.1533 0.21268 0.982 0.0
H191 H 0.19533 0.17885 -0.00709 0.0
C192 C 0.94812 0.32087 0.44702 0.0
C193 C 0.8757 0.29964 0.46283 0.0
C194 C 0.94562 0.42158 0.46381 0.0
C195 C 1.01919 0.44243 0.45031 0.0
N196 N 0.09517 0.41158 0.43881 0.0
N197 N 0.81799 0.33648 0.49492 0.0
C198 C 1.02169 0.39178 0.44546 0.0
C199 C 0.87822 0.35209 0.47373 0.0
N200 N 0.94586 0.27408 0.43057 0.0
N201 N 0.93854 0.46751 0.46612 0.0
H202 H 0.77143 0.28823 0.50467 0.0
H203 H 0.81953 0.37287 0.50616 0.0
H204 H 0.98669 0.51838 0.46026 0.0
H205 H 0.88359 0.45411 0.47158 0.0
H206 H 0.99391 0.28731 0.41554 0.0
H207 H 0.89306 0.22277 0.42793 0.0
H208 H 0.1032 0.37815 0.43841 0.0
H209 H 0.14963 0.46258 0.4376 0.0
C210 C 0.61226 0.89527 0.7994 0.0
C211 C 0.68774 0.91292 0.79488 0.0
C212 C 0.73982 0.01284 0.76193 0.0
C213 C 0.66136 0.9908 0.7629 0.0
N214 N 0.5185 0.90374 0.77754 0.0
N215 N 0.81846 0.98234 0.7661 0.0
C216 C 0.59637 0.93003 0.78035 0.0
C217 C 0.75026 0.97016 0.7746 0.0
N218 N 0.55656 0.84668 0.82284 0.0
N219 N 0.80526 0.07569 0.74987 0.0
H220 H 0.82795 0.95188 0.77425 0.0
H221 H 0.86185 0.01871 0.74821 0.0
H222 H 0.80047 0.10878 0.74093 0.0
H223 H 0.86545 0.09756 0.75194 0.0
H224 H 0.50441 0.83658 0.83015 0.0
H225 H 0.56631 0.82088 0.83762 0.0
H226 H 0.46726 0.85594 0.7863 0.0
H227 H 0.50398 0.92688 0.76353 0.0
C228 C 0.5911 0.42712 0.16732 0.0
C229 C 0.643 0.41547 0.16263 0.0
C230 C 0.54054 0.31702 0.12316 0.0
C231 C 0.49949 0.33899 0.12122 0.0
N232 N 0.47627 0.40822 0.14378 0.0
N233 N 0.66714 0.34784 0.13759 0.0
C234 C 0.52065 0.39098 0.1448 0.0
C235 C 0.61659 0.35861 0.14188 0.0
N236 N 0.6109 0.47384 0.19263 0.0
N237 N 0.50764 0.25757 0.10609 0.0
H238 H 0.72263 0.37607 0.1515 0.0
H239 H 0.65593 0.31326 0.11874 0.0
H240 H 0.45204 0.22716 0.09191 0.0
H241 H 0.53077 0.23538 0.10881 0.0
H242 H 0.57331 0.48209 0.19918 0.0
H243 H 0.66268 0.50057 0.20923 0.0
H244 H 0.49338 0.45056 0.15718 0.0
H245 H 0.42253 0.38047 0.12845 0.0
C246 C 0.41133 0.80442 0.47519 0.0
C247 C 0.42295 0.8552 0.45564 0.0
C248 C 0.28131 0.76139 0.43122 0.0
C249 C 0.27562 0.71032 0.44537 0.0
N250 N 0.34553 0.68652 0.477 0.0
N251 N 0.37182 0.87151 0.40528 0.0
C252 C 0.34351 0.73286 0.4664 0.0
C253 C 0.35833 0.83079 0.43119 0.0
N254 N 0.46255 0.82323 0.50313 0.0
N255 N 0.21284 0.74341 0.4169 0.0
H256 H 0.42956 0.91845 0.40008 0.0
H257 H 0.32853 0.85419 0.38536 0.0
H258 H 0.15557 0.69367 0.41696 0.0
H259 H 0.21168 0.77904 0.40875 0.0
H260 H 0.45205 0.78842 0.52009 0.0
H261 H 0.51008 0.87317 0.51207 0.0
H262 H 0.39736 0.70026 0.48856 0.0
H263 H 0.29761 0.63456 0.47167 0.0
C264 C 0.62564 0.22406 0.80581 0.0
C265 C 0.54899 0.2026 0.7977 0.0
C266 C 0.5101 0.10654 0.76146 0.0
C267 C 0.59047 0.13301 0.76586 0.0
N268 N 0.72854 0.22241 0.78879 0.0
N269 N 0.42186 0.12803 0.76387 0.0
C270 C 0.64918 0.19308 0.7873 0.0
C271 C 0.49202 0.14485 0.77456 0.0
N272 N 0.67518 0.27293 0.83198 0.0
N273 N 0.45024 0.04373 0.74553 0.0
H274 H 0.40626 0.15454 0.7728 0.0
H275 H 0.38248 0.09143 0.74392 0.0
H276 H 0.46087 0.01393 0.73603 0.0
H277 H 0.38862 0.01846 0.74477 0.0
H278 H 0.72717 0.28524 0.84206 0.0
H279 H 0.66033 0.29697 0.8459 0.0
H280 H 0.77612 0.27019 0.80056 0.0
H281 H 0.74822 0.20145 0.77574 0.0
C282 C 0.6016 0.72644 0.55185 0.0
C283 C 0.67623 0.77844 0.53452 0.0
C284 C 0.72519 0.72359 0.5472 0.0
C285 C 0.64899 0.66973 0.56289 0.0
N286 N 0.50833 0.61187 0.5732 0.0
N287 N 0.79983 0.81794 0.50779 0.0
C288 C 0.58509 0.66865 0.56304 0.0
C289 C 0.7351 0.77419 0.52967 0.0
N290 N 0.54824 0.73361 0.55903 0.0
N291 N 0.78945 0.72834 0.55054 0.0
H292 H 0.80843 0.85522 0.49416 0.0
H293 H 0.84022 0.81298 0.5004 0.0
H294 H 0.78542 0.69294 0.56366 0.0
H295 H 0.84885 0.77054 0.54308 0.0
H296 H 0.49741 0.70108 0.57509 0.0
H297 H 0.55796 0.77508 0.55119 0.0
H298 H 0.45731 0.60544 0.5705 0.0
H299 H 0.4941 0.5685 0.58134 0.0
C300 C 0.9049 0.60879 0.88376 0.0
C301 C 0.829 0.56025 0.86235 0.0
C302 C 0.89414 0.5084 0.84978 0.0
C303 C 0.97248 0.56003 0.86899 0.0
N304 N 1.04883 0.6689 0.89848 0.0
N305 N 0.7693 0.46885 0.81916 0.0
C306 C 0.97517 0.61211 0.8841 0.0
C307 C 0.82974 0.51173 0.84413 0.0
N308 N 0.9096 0.65151 0.90649 0.0
N309 N 0.87873 0.45301 0.83711 0.0
H310 H 0.72564 0.47054 0.81326 0.0
H311 H 0.76761 0.4373 0.80178 0.0
H312 H 0.92199 0.44963 0.83949 0.0
H313 H 0.82222 0.40933 0.82661 0.0
H314 H 0.9548 0.68176 0.9263 0.0
H315 H 0.86312 0.65112 0.90826 0.0
H316 H 1.06213 0.71282 0.90603 0.0
H317 H 0.09976 0.67476 0.89896 0.0
C318 C 0.34776 0.83017 0.18984 0.0
C319 C 0.34915 0.7883 0.16655 0.0
C320 C 0.4973 0.89145 0.15665 0.0
C321 C 0.49327 0.9337 0.17769 0.0
N322 N 0.40478 0.94334 0.20528 0.0
N323 N 0.42382 0.78744 0.12037 0.0
C324 C 0.415 0.90283 0.19103 0.0
C325 C 0.42363 0.82149 0.14781 0.0
N326 N 0.28529 0.8009 0.21324 0.0
N327 N 0.57186 0.91692 0.1461 0.0
H328 H 0.37132 0.73851 0.11169 0.0
H329 H 0.47353 0.81049 0.10368 0.0
H330 H 0.62607 0.9672 0.1514 0.0
H331 H 0.58029 0.88687 0.13442 0.0
H332 H 0.28521 0.82865 0.233 0.0
H333 H 0.23906 0.7487 0.21619 0.0
H334 H 0.34781 0.92483 0.21251 0.0
H335 H 0.45181 0.9962 0.20607 0.0
C336 C 0.52309 0.34777 0.53525 0.0
C337 C 0.58933 0.36303 0.51704 0.0
C338 C 0.68142 0.48163 0.53875 0.0
C339 C 0.61387 0.46711 0.55493 0.0
N340 N 0.46792 0.39064 0.5627 0.0
N341 N 0.72802 0.44554 0.49631 0.0
C342 C 0.53387 0.40139 0.55139 0.0
C343 C 0.66762 0.4304 0.51727 0.0
N344 N 0.45089 0.28175 0.53843 0.0
N345 N 0.75887 0.5437 0.5448 0.0
H346 H 0.71994 0.40916 0.48031 0.0
H347 H 0.78377 0.49476 0.49249 0.0
H348 H 0.77095 0.58271 0.55992 0.0
H349 H 0.81159 0.55508 0.53706 0.0
H350 H 0.40387 0.26711 0.55486 0.0
H351 H 0.44035 0.24078 0.52707 0.0
H352 H 0.40744 0.34569 0.5574 0.0
H353 H 0.47332 0.42879 0.57459 0.0
C354 C 0.38224 0.59946 0.85228 0.0
C355 C 0.37658 0.54453 0.8632 0.0
C356 C 0.22503 0.48893 0.87808 0.0
C357 C 0.2325 0.54505 0.86863 0.0
N358 N 0.33697 0.66113 0.85315 0.0
N359 N 0.27355 0.43069 0.88398 0.0
C360 C 0.31663 0.60155 0.85749 0.0
C361 C 0.29227 0.48828 0.87534 0.0
N362 N 0.45025 0.65026 0.83399 0.0
N363 N 0.15136 0.43445 0.89184 0.0
H364 H 0.31758 0.42879 0.88745 0.0
H365 H 0.21424 0.38365 0.88632 0.0
H366 H 0.10089 0.42919 0.89118 0.0
H367 H 0.14052 0.39631 0.90544 0.0
H368 H 0.45705 0.68723 0.82118 0.0
H369 H 0.49558 0.65067 0.82778 0.0
H370 H 0.39699 0.70751 0.85065 0.0
H371 H 0.2936 0.66453 0.85508 0.0
C372 C 0.82941 0.30867 0.1527 0.0
C373 C 0.91101 0.34079 0.16215 0.0
C374 C 0.85181 0.2259 0.17811 0.0
C375 C 0.76996 0.19715 0.17495 0.0
N376 N 0.68268 0.21574 0.16134 0.0
N377 N 0.99651 0.32629 0.18736 0.0
C378 C 0.75946 0.23978 0.1625 0.0
C379 C 0.92122 0.29805 0.17534 0.0
N380 N 0.81829 0.34258 0.13245 0.0
N381 N 0.86337 0.18356 0.18354 0.0
H382 H 1.0487 0.3777 0.1864 0.0
H383 H 1.00608 0.29965 0.20124 0.0
H384 H 0.81452 0.13121 0.18538 0.0
H385 H 0.92041 0.19901 0.18238 0.0
H386 H 0.76239 0.31848 0.12011 0.0
H387 H 0.86671 0.39176 0.12417 0.0
H388 H 0.67178 0.24652 0.15667 0.0
H389 H 0.6305 0.16599 0.16734 0.0
C390 C 0.13662 0.61055 0.03494 0.0
C391 C 0.08781 0.548 0.05267 0.0
C392 C 1.04462 0.48697 -0.00595 0.0
C393 C 0.09804 0.5498 0.97665 0.0
N394 N 0.20479 0.67172 0.98075 0.0
N395 N 1.00319 0.42713 0.04931 0.0
C396 C 0.14718 0.61164 -0.00276 0.0
C397 C 1.04385 0.48632 0.03221 0.0
N398 N 0.16879 0.66854 0.05366 0.0
N399 N 0.99301 0.42774 0.974 0.0
H400 H 0.9999 0.42435 0.07699 0.0
H401 H 0.97785 0.38171 0.03637 0.0
H402 H 0.99383 0.42613 0.94619 0.0
H403 H 0.94576 0.38057 0.98462 0.0
H404 H 0.19729 0.71408 0.04171 0.0
H405 H 0.16 0.66997 0.08083 0.0
H406 H 0.24914 0.71801 -0.00548 0.0
H407 H 0.2127 0.67469 0.95321 0.0
C408 C 0.66093 0.02925 0.3436 0.0
C409 C 0.6678 0.07766 0.36425 0.0
C410 C 0.6495 0.11412 0.30984 0.0
C411 C 0.65292 0.07183 0.28874 0.0
N412 N 0.67783 0.9985 0.2857 0.0
N413 N 0.68709 0.17652 0.36594 0.0
C414 C 0.66274 0.0317 0.30568 0.0
C415 C 0.66717 0.12299 0.34709 0.0
N416 N 0.65171 0.98039 0.36017 0.0
N417 N 0.62683 0.14419 0.2946 0.0
H418 H 0.70355 0.18609 0.39288 0.0
H419 H 0.69555 0.21504 0.35409 0.0
H420 H 0.61105 0.13746 0.26763 0.0
H421 H 0.61563 0.17009 0.30941 0.0
H422 H 0.63787 0.93954 0.34646 0.0
H423 H 0.65053 0.9772 0.38784 0.0
H424 H 0.69371 0.97419 0.2968 0.0
H425 H 0.68253 1.00086 0.25802 0.0
C426 C 0.66112 0.61242 0.73413 0.0
C427 C 0.60221 0.54798 0.74943 0.0
C428 C 0.55533 0.49523 0.68942 0.0
C429 C 0.62079 0.55851 0.6743 0.0
N430 N 0.75002 0.67443 0.68425 0.0
N431 N 0.51555 0.42682 0.74003 0.0
C432 C 0.67834 0.61635 0.69725 0.0
C433 C 0.55601 0.48887 0.72663 0.0
N434 N 0.69702 0.66979 0.75409 0.0
N435 N 0.49034 0.44181 0.66885 0.0
H436 H 0.52153 0.42076 0.76659 0.0
H437 H 0.486 0.38339 0.72378 0.0
H438 H 0.48368 0.44544 0.64188 0.0
H439 H 0.43855 0.39657 0.6797 0.0
H440 H 0.73531 0.71789 0.74351 0.0
H441 H 0.67954 0.66726 0.78009 0.0
H442 H 0.79639 0.71594 0.70069 0.0
H443 H 0.76671 0.67824 0.65775 0.0
C444 C 0.57172 0.01292 0.59044 0.0
C445 C 0.63092 0.07541 0.57306 0.0
C446 C 0.70255 0.13064 0.63097 0.0
C447 C 0.63746 0.07041 0.64865 0.0
N448 N 0.50395 0.95638 0.64548 0.0
N449 N 0.74628 0.19691 0.57831 0.0
C450 C 0.57058 1.012 0.62842 0.0
C451 C 0.69528 0.13512 0.59364 0.0
N452 N 0.5174 0.95376 0.57057 0.0
N453 N 0.77194 0.18346 0.64985 0.0
H454 H 0.74207 0.2034 0.55158 0.0
H455 H 0.78806 0.24269 0.59286 0.0
H456 H 0.77904 0.18201 0.67713 0.0
H457 H 0.82501 0.2259 0.63794 0.0
H458 H 0.47901 0.90596 0.58145 0.0
H459 H 0.51611 0.95203 0.5428 0.0
H460 H 0.44928 0.91543 0.63234 0.0
H461 H 0.50049 0.95337 0.67317 0.0
C462 C 0.60662 0.47791 0.96017 0.0
C463 C 0.58519 0.5153 0.95417 0.0
C464 C 0.48397 0.45489 0.00142 0.0
C465 C 0.49647 0.41048 0.0033 0.0
N466 N 0.56225 0.37395 0.98142 0.0
N467 N 0.50143 0.5385 0.96783 0.0
C468 C 0.55609 0.42058 0.98194 0.0
C469 C 0.52315 0.50345 0.97445 0.0
N470 N 0.67532 0.49725 0.94534 0.0
N471 N 0.43758 0.45269 0.02635 0.0
H472 H 0.5337 0.57891 0.95067 0.0
H473 H 0.4493 0.52559 0.97815 0.0
H474 H 0.4092 0.41888 0.04704 0.0
H475 H 0.4332 0.48835 0.02856 0.0
H476 H 0.69774 0.47531 0.9512 0.0
H477 H 0.71514 0.54025 0.9303 0.0
H478 H 0.59831 0.37462 0.96349 0.0
H479 H 0.5255 0.33087 -0.00326 0.0
C480 C 0.207 0.57191 0.27897 0.0
C481 C 0.13629 0.54753 0.25991 0.0
C482 C 0.077 0.54364 0.31624 0.0
C483 C 0.14286 0.55984 0.33551 0.0
N484 N 0.26398 0.57809 0.33539 0.0
N485 N 0.99699 0.49758 0.26142 0.0
C486 C 0.2062 0.57094 0.31692 0.0
C487 C 0.06936 0.53001 0.27881 0.0
N488 N 0.27592 0.5979 0.26094 0.0
N489 N 1.02299 0.54329 0.33346 0.0
H490 H 0.98851 0.4854 0.23429 0.0
H491 H 0.94343 0.47704 0.27443 0.0
H492 H 1.02712 0.55401 0.36076 0.0
H493 H 0.97903 0.5389 0.32013 0.0
H494 H 0.33187 0.62279 0.2736 0.0
H495 H 0.27953 0.60051 0.23324 0.0
H496 H 0.30642 0.57909 0.32309 0.0
H497 H 0.26482 0.57672 0.36312 0.0
loop_
_geom_bond_atom_site_label_1
_geom_bond_atom_site_label_2
_geom_bond_distance
_geom_bond_site_symmetry_2
_ccdc_geom_bond_type
Ho0 C3 2.811 . S
Ho0 O20 2.322 . S
Ho0 O22 2.378 . S
Ho0 O23 2.524 . S
Ho0 O24 2.381 . S
Ho0 O25 2.669 . S
Ho0 O27 2.346 1_455 S
Ho0 O31 2.305 . S
Ho1 C12 2.811 . S
Ho1 O21 2.346 1_655 S
Ho1 O25 2.305 1_655 S
Ho1 O26 2.322 . S
Ho1 O28 2.378 . S
Ho1 O29 2.524 . S
Ho1 O30 2.381 . S
Ho1 O31 2.669 1_655 S
C2 O20 1.259 . S
C2 O21 1.268 . S
C3 Ho0 2.811 . S
C3 C4 1.488 . S
C3 O22 1.215 . S
C3 O23 1.289 . S
C4 C3 1.488 . S
C4 C5 1.348 . S
C4 C9 1.413 . S
C5 C4 1.348 . S
C5 C6 1.442 . S
C5 H32 0.930 . S
C6 C5 1.442 . S
C6 C7 1.381 . S
C6 H33 0.931 . S
C7 C6 1.381 . S
C7 C8 1.321 . S
C8 C7 1.321 . S
C8 C9 1.403 . S
C8 H34 0.934 . S
C9 C4 1.413 . S
C9 C8 1.403 . S
C9 H35 0.930 . S
C10 O24 1.275 . S
C10 O25 1.256 . S
C11 O26 1.259 . S
C11 O27 1.268 . S
C12 Ho1 2.811 . S
C12 C13 1.488 . S
C12 O28 1.215 . S
C12 O29 1.289 . S
C13 C12 1.488 . S
C13 C14 1.348 . S
C13 C18 1.413 . S
C14 C13 1.348 . S
C14 C15 1.442 . S
C14 H36 0.930 . S
C15 C14 1.442 . S
C15 C16 1.381 . S
C15 H37 0.931 . S
C16 C15 1.381 . S
C16 C17 1.321 . S
C17 C16 1.321 . S
C17 C18 1.403 . S
C17 H38 0.934 . S
C18 C13 1.413 . S
C18 C17 1.403 . S
C18 H39 0.930 . S
C19 O30 1.275 1_455 S
C19 O31 1.256 . S
O20 Ho0 2.322 . S
O20 C2 1.259 . S
O21 Ho1 2.346 1_455 S
O21 C2 1.268 . S
O22 Ho0 2.378 . S
O22 C3 1.215 . S
O23 Ho0 2.524 . S
O23 C3 1.289 . S
O24 Ho0 2.381 . S
O24 C10 1.275 . S
O25 Ho0 2.669 . S
O25 Ho1 2.305 1_455 S
O25 C10 1.256 . S
O26 Ho1 2.322 . S
O26 C11 1.259 . S
O27 Ho0 2.346 1_655 S
O27 C11 1.268 . S
O28 Ho1 2.378 . S
O28 C12 1.215 . S
O29 Ho1 2.524 . S
O29 C12 1.289 . S
O30 Ho1 2.381 . S
O30 C19 1.275 1_655 S
O31 Ho0 2.305 . S
O31 Ho1 2.669 1_455 S
O31 C19 1.256 . S
H32 C5 0.930 . S
H33 C6 0.931 . S
H34 C8 0.934 . S
H35 C9 0.930 . S
H36 C14 0.930 . S
H37 C15 0.931 . S
H38 C17 0.934 . S
H39 C18 0.930 . S
Ho40 C43 2.811 . S
Ho40 O60 2.322 . S
Ho40 O62 2.378 . S
Ho40 O63 2.524 . S
Ho40 O64 2.381 . S
Ho40 O65 2.669 1_565 S
Ho40 O67 2.346 1_565 S
Ho40 O71 2.305 . S
Ho41 C52 2.811 . S
Ho41 O61 2.346 1_545 S
Ho41 O65 2.305 . S
Ho41 O66 2.322 . S
Ho41 O68 2.378 . S
Ho41 O69 2.524 . S
Ho41 O70 2.381 . S
Ho41 O71 2.669 1_545 S
C42 O60 1.259 . S
C42 O61 1.268 . S
C43 Ho40 2.811 . S
C43 C44 1.488 . S
C43 O62 1.215 . S
C43 O63 1.289 . S
C44 C43 1.488 . S
C44 C45 1.348 . S
C44 C49 1.413 . S
C45 C44 1.348 . S
C45 C46 1.442 . S
C45 H72 0.930 . S
C46 C45 1.442 . S
C46 C47 1.381 . S
C46 H73 0.931 . S
C47 C46 1.381 . S
C47 C48 1.321 . S
C48 C47 1.321 . S
C48 C49 1.403 . S
C48 H74 0.934 . S
C49 C44 1.413 . S
C49 C48 1.403 . S
C49 H75 0.930 . S
C50 O64 1.275 1_545 S
C50 O65 1.256 . S
C51 O66 1.259 . S
C51 O67 1.268 . S
C52 Ho41 2.811 . S
C52 C53 1.488 . S
C52 O68 1.215 . S
C52 O69 1.289 . S
C53 C52 1.488 . S
C53 C54 1.348 . S
C53 C58 1.413 . S
C54 C53 1.348 . S
C54 C55 1.442 . S
C54 H76 0.930 . S
C55 C54 1.442 . S
C55 C56 1.381 . S
C55 H77 0.931 . S
C56 C55 1.381 . S
C56 C57 1.321 . S
C57 C56 1.321 . S
C57 C58 1.403 . S
C57 H78 0.934 . S
C58 C53 1.413 . S
C58 C57 1.403 . S
C58 H79 0.930 . S
C59 O70 1.275 . S
C59 O71 1.256 1_545 S
O60 Ho40 2.322 . S
O60 C42 1.259 . S
O61 Ho41 2.346 1_565 S
O61 C42 1.268 . S
O62 Ho40 2.378 . S
O62 C43 1.215 . S
O63 Ho40 2.524 . S
O63 C43 1.289 . S
O64 Ho40 2.381 . S
O64 C50 1.275 1_565 S
O65 Ho40 2.669 1_545 S
O65 Ho41 2.305 . S
O65 C50 1.256 . S
O66 Ho41 2.322 . S
O66 C51 1.259 . S
O67 Ho40 2.346 1_545 S
O67 C51 1.268 . S
O68 Ho41 2.378 . S
O68 C52 1.215 . S
O69 Ho41 2.524 . S
O69 C52 1.289 . S
O70 Ho41 2.381 . S
O70 C59 1.275 . S
O71 Ho40 2.305 . S
O71 Ho41 2.669 1_565 S
O71 C59 1.256 1_565 S
H72 C45 0.930 . S
H73 C46 0.931 . S
H74 C48 0.934 . S
H75 C49 0.930 . S
H76 C54 0.930 . S
H77 C55 0.931 . S
H78 C57 0.934 . S
H79 C58 0.930 . S
Ho80 C83 2.811 . S
Ho80 O100 2.322 . S
Ho80 O102 2.378 . S
Ho80 O103 2.524 . S
Ho80 O104 2.381 . S
Ho80 O105 2.669 . S
Ho80 O107 2.346 . S
Ho80 O111 2.305 . S
Ho81 C92 2.811 . S
Ho81 O101 2.346 . S
Ho81 O105 2.305 . S
Ho81 O106 2.322 . S
Ho81 O108 2.378 . S
Ho81 O109 2.524 . S
Ho81 O110 2.381 . S
Ho81 O111 2.669 . S
C82 O100 1.259 . S
C82 O101 1.268 . S
C83 Ho80 2.811 . S
C83 C84 1.488 . S
C83 O102 1.215 . S
C83 O103 1.289 . S
C84 C83 1.488 . S
C84 C85 1.348 . S
C84 C89 1.413 . S
C85 C84 1.348 . S
C85 C86 1.442 . S
C85 H112 0.930 . S
C86 C85 1.442 . S
C86 C87 1.381 . S
C86 H113 0.931 . S
C87 C86 1.381 . S
C87 C88 1.321 . S
C88 C87 1.321 . S
C88 C89 1.403 . S
C88 H114 0.934 . S
C89 C84 1.413 . S
C89 C88 1.403 . S
C89 H115 0.930 . S
C90 O104 1.275 . S
C90 O105 1.256 . S
C91 O106 1.259 . S
C91 O107 1.268 . S
C92 Ho81 2.811 . S
C92 C93 1.488 . S
C92 O108 1.215 . S
C92 O109 1.289 . S
C93 C92 1.488 . S
C93 C94 1.348 . S
C93 C98 1.413 . S
C94 C93 1.348 . S
C94 C95 1.442 . S
C94 H116 0.930 . S
C95 C94 1.442 . S
C95 C96 1.381 . S
C95 H117 0.931 . S
C96 C95 1.381 . S
C96 C97 1.321 . S
C97 C96 1.321 . S
C97 C98 1.403 . S
C97 H118 0.934 . S
C98 C93 1.413 . S
C98 C97 1.403 . S
C98 H119 0.930 . S
C99 O110 1.275 . S
C99 O111 1.256 . S
O100 Ho80 2.322 . S
O100 C82 1.259 . S
O101 Ho81 2.346 . S
O101 C82 1.268 . S
O102 Ho80 2.378 . S
O102 C83 1.215 . S
O103 Ho80 2.524 . S
O103 C83 1.289 . S
O104 Ho80 2.381 . S
O104 C90 1.275 . S
O105 Ho80 2.669 . S
O105 Ho81 2.305 . S
O105 C90 1.256 . S
O106 Ho81 2.322 . S
O106 C91 1.259 . S
O107 Ho80 2.346 . S
O107 C91 1.268 . S
O108 Ho81 2.378 . S
O108 C92 1.215 . S
O109 Ho81 2.524 . S
O109 C92 1.289 . S
O110 Ho81 2.381 . S
O110 C99 1.275 . S
O111 Ho80 2.305 . S
O111 Ho81 2.669 . S
O111 C99 1.256 . S
H112 C85 0.930 . S
H113 C86 0.931 . S
H114 C88 0.934 . S
H115 C89 0.930 . S
H116 C94 0.930 . S
H117 C95 0.931 . S
H118 C97 0.934 . S
H119 C98 0.930 . S
H120 C123 0.931 . S
H121 C126 0.928 . S
H122 C128 0.930 . S
C123 H120 0.931 . S
C123 C124 1.413 . S
C123 C125 1.360 1_565 S
C124 C123 1.413 . S
C124 C128 1.429 1_565 S
C125 C123 1.360 1_545 S
C125 C126 1.372 . S
C126 H121 0.928 . S
C126 C125 1.372 . S
C126 C127 1.404 . S
C127 C126 1.404 . S
C127 C128 1.391 . S
C128 H122 0.930 . S
C128 C124 1.429 1_545 S
C128 C127 1.391 . S
H129 C132 0.931 . S
H130 C135 0.928 . S
H131 C137 0.930 . S
C132 H129 0.931 . S
C132 C133 1.413 . S
C132 C134 1.360 . S
C133 C132 1.413 . S
C133 C137 1.429 . S
C134 C132 1.360 . S
C134 C135 1.372 . S
C135 H130 0.928 . S
C135 C134 1.372 . S
C135 C136 1.404 . S
C136 C135 1.404 . S
C136 C137 1.391 . S
C137 H131 0.930 . S
C137 C133 1.429 . S
C137 C136 1.391 . S
H138 C141 0.931 1_655 S
H139 C144 0.928 . S
H140 C146 0.930 . S
C141 H138 0.931 1_455 S
C141 C142 1.413 . S
C141 C143 1.360 . S
C142 C141 1.413 . S
C142 C146 1.429 . S
C143 C141 1.360 . S
C143 C144 1.372 . S
C144 H139 0.928 . S
C144 C143 1.372 . S
C144 C145 1.404 . S
C145 C144 1.404 . S
C145 C146 1.391 . S
C146 H140 0.930 . S
C146 C142 1.429 . S
C146 C145 1.391 . S
H147 C150 0.931 . S
H148 C153 0.928 . S
H149 C155 0.932 . S
C150 H147 0.931 . S
C150 C151 1.413 . S
C150 C152 1.357 1_655 S
C151 C150 1.413 . S
C151 C155 1.429 1_655 S
C152 C150 1.357 1_455 S
C152 C153 1.375 . S
C153 H148 0.928 . S
C153 C152 1.375 . S
C153 C154 1.404 . S
C154 C153 1.404 . S
C154 C155 1.391 . S
C155 H149 0.932 . S
C155 C151 1.429 1_455 S
C155 C154 1.391 . S
H156 C159 0.931 . S
H157 C162 0.928 . S
H158 C164 0.930 . S
C159 H156 0.931 . S
C159 C160 1.413 . S
C159 C161 1.360 1_545 S
C160 C159 1.413 . S
C160 C164 1.429 . S
C161 C159 1.360 1_565 S
C161 C162 1.372 . S
C162 H157 0.928 . S
C162 C161 1.372 . S
C162 C163 1.404 . S
C163 C162 1.404 . S
C163 C164 1.391 1_565 S
C164 H158 0.930 . S
C164 C160 1.429 . S
C164 C163 1.391 1_545 S
H165 C168 0.931 . S
H166 C171 0.928 . S
H167 C173 0.930 . S
C168 H165 0.931 . S
C168 C169 1.413 . S
C168 C170 1.360 . S
C169 C168 1.413 . S
C169 C173 1.429 . S
C170 C168 1.360 . S
C170 C171 1.372 . S
C171 H166 0.928 . S
C171 C170 1.372 . S
C171 C172 1.404 . S
C172 C171 1.404 . S
C172 C173 1.391 . S
C173 H167 0.930 . S
C173 C169 1.429 . S
C173 C172 1.391 . S
C174 C175 1.363 . S
C174 C180 1.379 . S
C174 N182 1.356 . S
C175 C174 1.363 . S
C175 C181 1.363 . S
C176 C177 1.363 . S
C176 C181 1.379 . S
C176 N183 1.356 . S
C177 C176 1.363 . S
C177 C180 1.363 . S
N178 C180 1.356 . S
N178 H190 0.984 . S
N178 H191 0.985 . S
N179 C181 1.356 . S
N179 H184 0.984 . S
N179 H185 0.985 . S
C180 C174 1.379 . S
C180 C177 1.363 . S
C180 N178 1.356 . S
C181 C175 1.363 . S
C181 C176 1.379 . S
C181 N179 1.356 . S
N182 C174 1.356 . S
N182 H188 0.984 . S
N182 H189 0.984 . S
N183 C176 1.356 . S
N183 H186 0.984 . S
N183 H187 0.985 . S
H184 N179 0.984 . S
H185 N179 0.985 . S
H186 N183 0.984 . S
H187 N183 0.985 . S
H188 N182 0.984 . S
H189 N182 0.984 . S
H190 N178 0.984 . S
H191 N178 0.985 . S
C192 C193 1.363 . S
C192 C198 1.379 . S
C192 N200 1.356 . S
C193 C192 1.363 . S
C193 C199 1.363 . S
C194 C195 1.363 . S
C194 C199 1.379 . S
C194 N201 1.356 . S
C195 C194 1.363 . S
C195 C198 1.363 . S
N196 C198 1.356 . S
N196 H208 0.984 . S
N196 H209 0.985 . S
N197 C199 1.356 . S
N197 H202 0.984 . S
N197 H203 0.985 . S
C198 C192 1.379 . S
C198 C195 1.363 . S
C198 N196 1.356 . S
C199 C193 1.363 . S
C199 C194 1.379 . S
C199 N197 1.356 . S
N200 C192 1.356 . S
N200 H206 0.984 . S
N200 H207 0.984 . S
N201 C194 1.356 . S
N201 H204 0.984 . S
N201 H205 0.985 . S
H202 N197 0.984 . S
H203 N197 0.985 . S
H204 N201 0.984 . S
H205 N201 0.985 . S
H206 N200 0.984 . S
H207 N200 0.984 . S
H208 N196 0.984 . S
H209 N196 0.985 . S
C210 C211 1.363 . S
C210 C216 1.379 . S
C210 N218 1.356 . S
C211 C210 1.363 . S
C211 C217 1.363 . S
C212 C213 1.363 . S
C212 C217 1.379 . S
C212 N219 1.356 . S
C213 C212 1.363 . S
C213 C216 1.363 . S
N214 C216 1.356 . S
N214 H226 0.984 . S
N214 H227 0.985 . S
N215 C217 1.356 . S
N215 H220 0.984 . S
N215 H221 0.985 . S
C216 C210 1.379 . S
C216 C213 1.363 . S
C216 N214 1.356 . S
C217 C211 1.363 . S
C217 C212 1.379 . S
C217 N215 1.356 . S
N218 C210 1.356 . S
N218 H224 0.984 . S
N218 H225 0.984 . S
N219 C212 1.356 . S
N219 H222 0.984 . S
N219 H223 0.985 . S
H220 N215 0.984 . S
H221 N215 0.985 . S
H222 N219 0.984 . S
H223 N219 0.985 . S
H224 N218 0.984 . S
H225 N218 0.984 . S
H226 N214 0.984 . S
H227 N214 0.985 . S
C228 C229 1.363 . S
C228 C234 1.379 . S
C228 N236 1.356 . S
C229 C228 1.363 . S
C229 C235 1.363 . S
C230 C231 1.363 . S
C230 C235 1.379 . S
C230 N237 1.356 . S
C231 C230 1.363 . S
C231 C234 1.363 . S
N232 C234 1.356 . S
N232 H244 0.984 . S
N232 H245 0.985 . S
N233 C235 1.356 . S
N233 H238 0.984 . S
N233 H239 0.985 . S
C234 C228 1.379 . S
C234 C231 1.363 . S
C234 N232 1.356 . S
C235 C229 1.363 . S
C235 C230 1.379 . S
C235 N233 1.356 . S
N236 C228 1.356 . S
N236 H242 0.984 . S
N236 H243 0.984 . S
N237 C230 1.356 . S
N237 H240 0.984 . S
N237 H241 0.985 . S
H238 N233 0.984 . S
H239 N233 0.985 . S
H240 N237 0.984 . S
H241 N237 0.985 . S
H242 N236 0.984 . S
H243 N236 0.984 . S
H244 N232 0.984 . S
H245 N232 0.985 . S
C246 C247 1.363 . S
C246 C252 1.379 . S
C246 N254 1.356 . S
C247 C246 1.363 . S
C247 C253 1.363 . S
C248 C249 1.363 . S
C248 C253 1.379 . S
C248 N255 1.356 . S
C249 C248 1.363 . S
C249 C252 1.363 . S
N250 C252 1.356 . S
N250 H262 0.984 . S
N250 H263 0.985 . S
N251 C253 1.356 . S
N251 H256 0.984 . S
N251 H257 0.985 . S
C252 C246 1.379 . S
C252 C249 1.363 . S
C252 N250 1.356 . S
C253 C247 1.363 . S
C253 C248 1.379 . S
C253 N251 1.356 . S
N254 C246 1.356 . S
N254 H260 0.984 . S
N254 H261 0.984 . S
N255 C248 1.356 . S
N255 H258 0.984 . S
N255 H259 0.985 . S
H256 N251 0.984 . S
H257 N251 0.985 . S
H258 N255 0.984 . S
H259 N255 0.985 . S
H260 N254 0.984 . S
H261 N254 0.984 . S
H262 N250 0.984 . S
H263 N250 0.985 . S
C264 C265 1.363 . S
C264 C270 1.379 . S
C264 N272 1.356 . S
C265 C264 1.363 . S
C265 C271 1.363 . S
C266 C267 1.363 . S
C266 C271 1.379 . S
C266 N273 1.356 . S
C267 C266 1.363 . S
C267 C270 1.363 . S
N268 C270 1.356 . S
N268 H280 0.984 . S
N268 H281 0.985 . S
N269 C271 1.356 . S
N269 H274 0.984 . S
N269 H275 0.985 . S
C270 C264 1.379 . S
C270 C267 1.363 . S
C270 N268 1.356 . S
C271 C265 1.363 . S
C271 C266 1.379 . S
C271 N269 1.356 . S
N272 C264 1.356 . S
N272 H278 0.984 . S
N272 H279 0.984 . S
N273 C266 1.356 . S
N273 H276 0.984 . S
N273 H277 0.985 . S
H274 N269 0.984 . S
H275 N269 0.985 . S
H276 N273 0.984 . S
H277 N273 0.985 . S
H278 N272 0.984 . S
H279 N272 0.984 . S
H280 N268 0.984 . S
H281 N268 0.985 . S
C282 C283 1.363 . S
C282 C288 1.379 . S
C282 N290 1.356 . S
C283 C282 1.363 . S
C283 C289 1.363 . S
C284 C285 1.363 . S
C284 C289 1.379 . S
C284 N291 1.356 . S
C285 C284 1.363 . S
C285 C288 1.363 . S
N286 C288 1.356 . S
N286 H298 0.984 . S
N286 H299 0.985 . S
N287 C289 1.356 . S
N287 H292 0.984 . S
N287 H293 0.985 . S
C288 C282 1.379 . S
C288 C285 1.363 . S
C288 N286 1.356 . S
C289 C283 1.363 . S
C289 C284 1.379 . S
C289 N287 1.356 . S
N290 C282 1.356 . S
N290 H296 0.984 . S
N290 H297 0.984 . S
N291 C284 1.356 . S
N291 H294 0.984 . S
N291 H295 0.985 . S
H292 N287 0.984 . S
H293 N287 0.985 . S
H294 N291 0.984 . S
H295 N291 0.985 . S
H296 N290 0.984 . S
H297 N290 0.984 . S
H298 N286 0.984 . S
H299 N286 0.985 . S
C300 C301 1.363 . S
C300 C306 1.379 . S
C300 N308 1.356 . S
C301 C300 1.363 . S
C301 C307 1.363 . S
C302 C303 1.363 . S
C302 C307 1.379 . S
C302 N309 1.356 . S
C303 C302 1.363 . S
C303 C306 1.363 . S
N304 C306 1.356 . S
N304 H316 0.984 1_655 S
N304 H317 0.985 1_655 S
N305 C307 1.356 . S
N305 H310 0.984 . S
N305 H311 0.985 . S
C306 C300 1.379 . S
C306 C303 1.363 . S
C306 N304 1.356 . S
C307 C301 1.363 . S
C307 C302 1.379 . S
C307 N305 1.356 . S
N308 C300 1.356 . S
N308 H314 0.984 . S
N308 H315 0.984 . S
N309 C302 1.356 . S
N309 H312 0.984 . S
N309 H313 0.985 . S
H310 N305 0.984 . S
H311 N305 0.985 . S
H312 N309 0.984 . S
H313 N309 0.985 . S
H314 N308 0.984 . S
H315 N308 0.984 . S
H316 N304 0.984 1_455 S
H317 N304 0.985 1_455 S
C318 C319 1.363 . S
C318 C324 1.379 . S
C318 N326 1.356 . S
C319 C318 1.363 . S
C319 C325 1.363 . S
C320 C321 1.363 . S
C320 C325 1.379 . S
C320 N327 1.356 . S
C321 C320 1.363 . S
C321 C324 1.363 . S
N322 C324 1.356 . S
N322 H334 0.984 . S
N322 H335 0.985 . S
N323 C325 1.356 . S
N323 H328 0.984 . S
N323 H329 0.985 . S
C324 C318 1.379 . S
C324 C321 1.363 . S
C324 N322 1.356 . S
C325 C319 1.363 . S
C325 C320 1.379 . S
C325 N323 1.356 . S
N326 C318 1.356 . S
N326 H332 0.984 . S
N326 H333 0.984 . S
N327 C320 1.356 . S
N327 H330 0.984 . S
N327 H331 0.985 . S
H328 N323 0.984 . S
H329 N323 0.985 . S
H330 N327 0.984 . S
H331 N327 0.985 . S
H332 N326 0.984 . S
H333 N326 0.984 . S
H334 N322 0.984 . S
H335 N322 0.985 . S
C336 C337 1.363 . S
C336 C342 1.379 . S
C336 N344 1.356 . S
C337 C336 1.363 . S
C337 C343 1.363 . S
C338 C339 1.363 . S
C338 C343 1.379 . S
C338 N345 1.356 . S
C339 C338 1.363 . S
C339 C342 1.363 . S
N340 C342 1.356 . S
N340 H352 0.984 . S
N340 H353 0.985 . S
N341 C343 1.356 . S
N341 H346 0.984 . S
N341 H347 0.985 . S
C342 C336 1.379 . S
C342 C339 1.363 . S
C342 N340 1.356 . S
C343 C337 1.363 . S
C343 C338 1.379 . S
C343 N341 1.356 . S
N344 C336 1.356 . S
N344 H350 0.984 . S
N344 H351 0.984 . S
N345 C338 1.356 . S
N345 H348 0.984 . S
N345 H349 0.985 . S
H346 N341 0.984 . S
H347 N341 0.985 . S
H348 N345 0.984 . S
H349 N345 0.985 . S
H350 N344 0.984 . S
H351 N344 0.984 . S
H352 N340 0.984 . S
H353 N340 0.985 . S
C354 C355 1.363 . S
C354 C360 1.379 . S
C354 N362 1.356 . S
C355 C354 1.363 . S
C355 C361 1.363 . S
C356 C357 1.363 . S
C356 C361 1.379 . S
C356 N363 1.356 . S
C357 C356 1.363 . S
C357 C360 1.363 . S
N358 C360 1.356 . S
N358 H370 0.984 . S
N358 H371 0.985 . S
N359 C361 1.356 . S
N359 H364 0.984 . S
N359 H365 0.985 . S
C360 C354 1.379 . S
C360 C357 1.363 . S
C360 N358 1.356 . S
C361 C355 1.363 . S
C361 C356 1.379 . S
C361 N359 1.356 . S
N362 C354 1.356 . S
N362 H368 0.984 . S
N362 H369 0.984 . S
N363 C356 1.356 . S
N363 H366 0.984 . S
N363 H367 0.985 . S
H364 N359 0.984 . S
H365 N359 0.985 . S
H366 N363 0.984 . S
H367 N363 0.985 . S
H368 N362 0.984 . S
H369 N362 0.984 . S
H370 N358 0.984 . S
H371 N358 0.985 . S
C372 C373 1.363 . S
C372 C378 1.379 . S
C372 N380 1.356 . S
C373 C372 1.363 . S
C373 C379 1.363 . S
C374 C375 1.363 . S
C374 C379 1.379 . S
C374 N381 1.356 . S
C375 C374 1.363 . S
C375 C378 1.363 . S
N376 C378 1.356 . S
N376 H388 0.984 . S
N376 H389 0.985 . S
N377 C379 1.356 . S
N377 H382 0.984 . S
N377 H383 0.985 . S
C378 C372 1.379 . S
C378 C375 1.363 . S
C378 N376 1.356 . S
C379 C373 1.363 . S
C379 C374 1.379 . S
C379 N377 1.356 . S
N380 C372 1.356 . S
N380 H386 0.984 . S
N380 H387 0.984 . S
N381 C374 1.356 . S
N381 H384 0.984 . S
N381 H385 0.985 . S
H382 N377 0.984 . S
H383 N377 0.985 . S
H384 N381 0.984 . S
H385 N381 0.985 . S
H386 N380 0.984 . S
H387 N380 0.984 . S
H388 N376 0.984 . S
H389 N376 0.985 . S
C390 C391 1.363 . S
C390 C396 1.379 . S
C390 N398 1.356 . S
C391 C390 1.363 . S
C391 C397 1.363 . S
C392 C393 1.363 1_554 S
C392 C397 1.379 . S
C392 N399 1.356 1_554 S
C393 C392 1.363 1_556 S
C393 C396 1.363 1_556 S
N394 C396 1.356 1_556 S
N394 H406 0.984 . S
N394 H407 0.985 . S
N395 C397 1.356 . S
N395 H400 0.984 . S
N395 H401 0.985 . S
C396 C390 1.379 . S
C396 C393 1.363 1_554 S
C396 N394 1.356 1_554 S
C397 C391 1.363 . S
C397 C392 1.379 . S
C397 N395 1.356 . S
N398 C390 1.356 . S
N398 H404 0.984 . S
N398 H405 0.984 . S
N399 C392 1.356 1_556 S
N399 H402 0.984 . S
N399 H403 0.985 . S
H400 N395 0.984 . S
H401 N395 0.985 . S
H402 N399 0.984 . S
H403 N399 0.985 . S
H404 N398 0.984 . S
H405 N398 0.984 . S
H406 N394 0.984 . S
H407 N394 0.985 . S
C408 C409 1.363 1_565 S
C408 C414 1.379 . S
C408 N416 1.356 . S
C409 C408 1.363 1_545 S
C409 C415 1.363 . S
C410 C411 1.363 . S
C410 C415 1.379 . S
C410 N417 1.356 . S
C411 C410 1.363 . S
C411 C414 1.363 1_545 S
N412 C414 1.356 . S
N412 H424 0.984 . S
N412 H425 0.985 . S
N413 C415 1.356 . S
N413 H418 0.984 . S
N413 H419 0.985 . S
C414 C408 1.379 . S
C414 C411 1.363 1_565 S
C414 N412 1.356 . S
C415 C409 1.363 . S
C415 C410 1.379 . S
C415 N413 1.356 . S
N416 C408 1.356 . S
N416 H422 0.984 . S
N416 H423 0.984 . S
N417 C410 1.356 . S
N417 H420 0.984 . S
N417 H421 0.985 . S
H418 N413 0.984 . S
H419 N413 0.985 . S
H420 N417 0.984 . S
H421 N417 0.985 . S
H422 N416 0.984 . S
H423 N416 0.984 . S
H424 N412 0.984 . S
H425 N412 0.985 . S
C426 C427 1.363 . S
C426 C432 1.379 . S
C426 N434 1.356 . S
C427 C426 1.363 . S
C427 C433 1.363 . S
C428 C429 1.363 . S
C428 C433 1.379 . S
C428 N435 1.356 . S
C429 C428 1.363 . S
C429 C432 1.363 . S
N430 C432 1.356 . S
N430 H442 0.984 . S
N430 H443 0.985 . S
N431 C433 1.356 . S
N431 H436 0.984 . S
N431 H437 0.985 . S
C432 C426 1.379 . S
C432 C429 1.363 . S
C432 N430 1.356 . S
C433 C427 1.363 . S
C433 C428 1.379 . S
C433 N431 1.356 . S
N434 C426 1.356 . S
N434 H440 0.984 . S
N434 H441 0.984 . S
N435 C428 1.356 . S
N435 H438 0.984 . S
N435 H439 0.985 . S
H436 N431 0.984 . S
H437 N431 0.985 . S
H438 N435 0.984 . S
H439 N435 0.985 . S
H440 N434 0.984 . S
H441 N434 0.984 . S
H442 N430 0.984 . S
H443 N430 0.985 . S
C444 C445 1.363 1_565 S
C444 C450 1.379 . S
C444 N452 1.356 . S
C445 C444 1.363 1_545 S
C445 C451 1.363 . S
C446 C447 1.363 1_545 S
C446 C451 1.379 . S
C446 N453 1.356 . S
C447 C446 1.363 1_565 S
C447 C450 1.363 . S
N448 C450 1.356 . S
N448 H460 0.984 . S
N448 H461 0.985 . S
N449 C451 1.356 . S
N449 H454 0.984 . S
N449 H455 0.985 . S
C450 C444 1.379 . S
C450 C447 1.363 . S
C450 N448 1.356 . S
C451 C445 1.363 . S
C451 C446 1.379 . S
C451 N449 1.356 . S
N452 C444 1.356 . S
N452 H458 0.984 . S
N452 H459 0.984 . S
N453 C446 1.356 . S
N453 H456 0.984 . S
N453 H457 0.985 . S
H454 N449 0.984 . S
H455 N449 0.985 . S
H456 N453 0.984 . S
H457 N453 0.985 . S
H458 N452 0.984 . S
H459 N452 0.984 . S
H460 N448 0.984 . S
H461 N448 0.985 . S
C462 C463 1.363 . S
C462 C468 1.379 . S
C462 N470 1.356 . S
C463 C462 1.363 . S
C463 C469 1.363 . S
C464 C465 1.363 1_556 S
C464 C469 1.379 . S
C464 N471 1.356 1_556 S
C465 C464 1.363 1_554 S
C465 C468 1.363 1_554 S
N466 C468 1.351 1_554 S
N466 H478 0.981 1_554 S
N466 H479 0.993 . S
N467 C469 1.356 . S
N467 H472 0.984 . S
N467 H473 0.985 . S
C468 C462 1.379 . S
C468 C465 1.363 1_556 S
C468 N466 1.351 1_556 S
C469 C463 1.363 . S
C469 C464 1.379 . S
C469 N467 1.356 . S
N470 C462 1.356 . S
N470 H476 0.984 . S
N470 H477 0.984 . S
N471 C464 1.356 1_554 S
N471 H474 0.984 . S
N471 H475 0.985 . S
H472 N467 0.984 . S
H473 N467 0.985 . S
H474 N471 0.984 . S
H475 N471 0.985 . S
H476 N470 0.984 . S
H477 N470 0.984 . S
H478 N466 0.981 1_556 S
H479 N466 0.993 . S
C480 C481 1.363 . S
C480 C486 1.379 . S
C480 N488 1.356 . S
C481 C480 1.363 . S
C481 C487 1.363 1_455 S
C482 C483 1.363 1_655 S
C482 C487 1.379 . S
C482 N489 1.356 . S
C483 C482 1.363 1_455 S
C483 C486 1.363 . S
N484 C486 1.356 . S
N484 H496 0.984 . S
N484 H497 0.985 . S
N485 C487 1.356 . S
N485 H490 0.984 . S
N485 H491 0.985 . S
C486 C480 1.379 . S
C486 C483 1.363 . S
C486 N484 1.356 . S
C487 C481 1.363 1_655 S
C487 C482 1.379 . S
C487 N485 1.356 . S
N488 C480 1.356 . S
N488 H494 0.984 . S
N488 H495 0.984 . S
N489 C482 1.356 . S
N489 H492 0.984 . S
N489 H493 0.985 . S
H490 N485 0.984 . S
H491 N485 0.985 . S
H492 N489 0.984 . S
H493 N489 0.985 . S
H494 N488 0.984 . S
H495 N488 0.984 . S
H496 N484 0.984 . S
H497 N484 0.985 . S
C175 C7 1.238 . S
C177 C169 1.426 . S
C193 C51 1.879 . S
C195 C151 1.853 . S
C211 C87 1.644 . S
C213 C163 1.774 . S
C229 C16 0.967 . S
C231 C172 1.131 . S
C249 C154 1.866 . S
C247 C42 1.897 . S
C267 C160 1.591 . S
C265 C96 1.494 . S
C283 C47 1.473 . S
C285 C133 1.564 . S
C301 C91 3.047 . S
C303 C142 3.009 1_655 S
C319 C2 1.935 . S
C321 C124 1.946 . S
C339 C136 1.655 . S
C337 C56 1.522 . S
C357 C145 2.991 . S
C355 C82 2.983 . S
C373 C11 1.880 . S
C375 C127 1.872 . S
C393 C143 1.811 . S
C391 C19 1.749 . S
C409 C50 1.296 . S
C411 C125 1.337 . S
C427 C99 1.437 . S
C429 C134 1.497 . S
C447 C161 1.461 . S
C445 C59 1.422 . S
C465 C170 1.001 . S
C463 C90 1.010 . S
C481 C10 1.281 . S
C483 C152 1.312 . S
