# Generated by pormake.
# Topology pyr, (3,6)-cn, num edge types: 1
# Building blocks:
#     Node 0, Type 0, BuildingBlock: VETTIZ_charged_linker_0, # of connection points: 3
#     Node 1, Type 0, BuildingBlock: VETTIZ_charged_linker_0, # of connection points: 3
#     Node 2, Type 0, BuildingBlock: VETTIZ_charged_linker_0, # of connection points: 3
#     Node 3, Type 0, BuildingBlock: VETTIZ_charged_linker_0, # of connection points: 3
#     Node 4, Type 0, BuildingBlock: VETTIZ_charged_linker_0, # of connection points: 3
#     Node 5, Type 0, BuildingBlock: VETTIZ_charged_linker_0, # of connection points: 3
#     Node 6, Type 0, BuildingBlock: VETTIZ_charged_linker_0, # of connection points: 3
#     Node 7, Type 0, BuildingBlock: VETTIZ_charged_linker_0, # of connection points: 3
#     Node 8, Type 1, BuildingBlock: FUNLAD_clean_sbu_0, # of connection points: 6
#     Node 9, Type 1, BuildingBlock: FUNLAD_clean_sbu_0, # of connection points: 6
#     Node 10, Type 1, BuildingBlock: FUNLAD_clean_sbu_0, # of connection points: 6
#     Node 11, Type 1, BuildingBlock: FUNLAD_clean_sbu_0, # of connection points: 6
#     Edge 12, Type (0, 1), BuildingBlock: AJUNOK_clean_linker_0, # of connection points: 2
#     Edge 13, Type (0, 1), BuildingBlock: AJUNOK_clean_linker_0, # of connection points: 2
#     Edge 14, Type (0, 1), BuildingBlock: AJUNOK_clean_linker_0, # of connection points: 2
#     Edge 15, Type (0, 1), BuildingBlock: AJUNOK_clean_linker_0, # of connection points: 2
#     Edge 16, Type (0, 1), BuildingBlock: AJUNOK_clean_linker_0, # of connection points: 2
#     Edge 17, Type (0, 1), BuildingBlock: AJUNOK_clean_linker_0, # of connection points: 2
#     Edge 18, Type (0, 1), BuildingBlock: AJUNOK_clean_linker_0, # of connection points: 2
#     Edge 19, Type (0, 1), BuildingBlock: AJUNOK_clean_linker_0, # of connection points: 2
#     Edge 20, Type (0, 1), BuildingBlock: AJUNOK_clean_linker_0, # of connection points: 2
#     Edge 21, Type (0, 1), BuildingBlock: AJUNOK_clean_linker_0, # of connection points: 2
#     Edge 22, Type (0, 1), BuildingBlock: AJUNOK_clean_linker_0, # of connection points: 2
#     Edge 23, Type (0, 1), BuildingBlock: AJUNOK_clean_linker_0, # of connection points: 2
#     Edge 24, Type (0, 1), BuildingBlock: AJUNOK_clean_linker_0, # of connection points: 2
#     Edge 25, Type (0, 1), BuildingBlock: AJUNOK_clean_linker_0, # of connection points: 2
#     Edge 26, Type (0, 1), BuildingBlock: AJUNOK_clean_linker_0, # of connection points: 2
#     Edge 27, Type (0, 1), BuildingBlock: AJUNOK_clean_linker_0, # of connection points: 2
#     Edge 28, Type (0, 1), BuildingBlock: AJUNOK_clean_linker_0, # of connection points: 2
#     Edge 29, Type (0, 1), BuildingBlock: AJUNOK_clean_linker_0, # of connection points: 2
#     Edge 30, Type (0, 1), BuildingBlock: AJUNOK_clean_linker_0, # of connection points: 2
#     Edge 31, Type (0, 1), BuildingBlock: AJUNOK_clean_linker_0, # of connection points: 2
#     Edge 32, Type (0, 1), BuildingBlock: AJUNOK_clean_linker_0, # of connection points: 2
#     Edge 33, Type (0, 1), BuildingBlock: AJUNOK_clean_linker_0, # of connection points: 2
#     Edge 34, Type (0, 1), BuildingBlock: AJUNOK_clean_linker_0, # of connection points: 2
#     Edge 35, Type (0, 1), BuildingBlock: AJUNOK_clean_linker_0, # of connection points: 2
# Relax obj value: 0.085
# Max RMSD: 0.073
# Mean RMSD: 0.034
data_MOF--net-pry--node1-FUNLAD_clean_sbu_0--node2-VETTIZ_charged_linker_0--edge1-AJUNOK_clean_linker_0
_symmetry_space_group_name_H-M    P1
_symmetry_Int_Tables_number       1
_symmetry_cell_setting            triclinic
loop_
_symmetry_equiv_pos_as_xyz
'x, y, z'
_cell_length_a     34.152541
_cell_length_b     36.369501
_cell_length_c     36.285839
_cell_angle_alpha  90.088238
_cell_angle_beta   90.142574
_cell_angle_gamma 83.841033
loop_
_atom_site_label
_atom_site_type_symbol
_atom_site_fract_x
_atom_site_fract_y
_atom_site_fract_z
_atom_type_partial_charge
C0 C 0.12071 0.10286 0.29592 0.0
C1 C 0.08847 0.11673 0.31791 0.0
C2 C 0.06772 0.15103 0.30766 0.0
C3 C 0.11103 0.1565 0.25483 0.0
C4 C 0.13142 0.123 0.26499 0.0
C5 C 0.16543 0.11186 0.23962 0.0
H6 H 0.28468 0.15321 0.10039 0.0
C7 C 0.13065 0.17067 0.22153 0.0
C8 C 0.16285 0.14429 0.21301 0.0
H9 H 0.28933 0.05088 0.16176 0.0
H10 H 0.23241 0.07522 0.19675 0.0
H11 H 0.259 0.21005 0.16562 0.0
H12 H 0.19663 0.1547 0.08363 0.0
H13 H 0.16673 0.19615 0.09145 0.0
H14 H 0.21605 0.19748 0.07398 0.0
H15 H 0.25861 0.22121 0.11745 0.0
H16 H 0.2218 0.24278 0.14844 0.0
C17 C 0.20383 0.10911 0.26271 0.0
C18 C 0.15776 0.0754 0.22003 0.0
C19 C 0.07831 0.29173 0.15394 0.0
C20 C 0.09224 0.30942 0.1224 0.0
C21 C 0.12828 0.29459 0.10689 0.0
C22 C 0.14922 0.26248 0.12088 0.0
C23 C 0.13445 0.24422 0.15108 0.0
C24 C 0.09989 0.25894 0.16771 0.0
C25 C 0.09012 0.23539 0.20045 0.0
C26 C 0.12336 0.20344 0.19922 0.0
C27 C 0.14919 0.20933 0.17011 0.0
C28 C 0.09213 0.25886 0.23574 0.0
C29 C 0.04942 0.2218 0.19386 0.0
C30 C 0.27324 0.13545 0.1207 0.0
C31 C 0.29207 0.09972 0.12779 0.0
C32 C 0.27615 0.07862 0.15569 0.0
C33 C 0.24272 0.09272 0.17591 0.0
C34 C 0.22419 0.12831 0.1681 0.0
C35 C 0.23919 0.14864 0.14037 0.0
C36 C 0.21407 0.18452 0.13355 0.0
C37 C 0.18202 0.18295 0.16241 0.0
C38 C 0.18841 0.15032 0.18313 0.0
C39 C 0.23951 0.21652 0.14135 0.0
C40 C 0.1976 0.18354 0.09362 0.0
H41 H 0.0614 0.19642 0.27007 0.0
H42 H 0.13797 0.07714 0.30309 0.0
H43 H 0.12566 0.07343 0.21662 0.0
H44 H 0.16962 0.07347 0.19168 0.0
H45 H 0.17026 0.05086 0.23603 0.0
H46 H 0.20343 0.13286 0.28212 0.0
H47 H 0.20725 0.08328 0.27925 0.0
H48 H 0.23049 0.11014 0.24585 0.0
H49 H 0.05105 0.30269 0.16699 0.0
H50 H 0.14046 0.30803 0.08358 0.0
H51 H 0.17625 0.25306 0.10731 0.0
H52 H 0.11854 0.2743 0.23527 0.0
H53 H 0.06569 0.27937 0.23815 0.0
H54 H 0.09491 0.24194 0.26097 0.0
H55 H 0.04764 0.21036 0.16553 0.0
H56 H 0.04347 0.19945 0.21287 0.0
H57 H 0.02556 0.2449 0.19687 0.0
H58 H 0.04273 0.16256 0.32381 0.0
C59 C 0.07862 0.17076 0.27637 0.0
C60 C 0.25761 0.90846 0.61436 0.0
C61 C 0.23173 0.93815 0.62765 0.0
C62 C 0.24139 0.95524 0.66098 0.0
C63 C 0.30055 0.91195 0.66767 0.0
C64 C 0.29118 0.89562 0.63487 0.0
C65 C 0.32006 0.86304 0.62512 0.0
H66 H 0.46347 0.73119 0.67467 0.0
C67 C 0.33691 0.89075 0.68259 0.0
C68 C 0.348 0.86177 0.65794 0.0
H69 H 0.4017 0.7469 0.57036 0.0
H70 H 0.36955 0.80405 0.59157 0.0
H71 H 0.48193 0.82352 0.67267 0.0
H72 H 0.39578 0.76856 0.73346 0.0
H73 H 0.42292 0.79619 0.76228 0.0
H74 H 0.44787 0.75648 0.73955 0.0
H75 H 0.49656 0.79012 0.70788 0.0
H76 H 0.47991 0.83744 0.71922 0.0
C77 C 0.34077 0.87199 0.58863 0.0
C78 C 0.29702 0.82857 0.62329 0.0
C79 C 0.39905 0.93394 0.80068 0.0
C80 C 0.4317 0.92028 0.82238 0.0
C81 C 0.45247 0.88603 0.81207 0.0
C82 C 0.44171 0.8665 0.78053 0.0
C83 C 0.40969 0.88113 0.75863 0.0
C84 C 0.38871 0.91418 0.76929 0.0
C85 C 0.35445 0.9251 0.74399 0.0
C86 C 0.35953 0.89459 0.71518 0.0
C87 C 0.39188 0.86838 0.72371 0.0
C88 C 0.35974 0.96337 0.72726 0.0
C89 C 0.3159 0.92406 0.76626 0.0
C90 C 0.44326 0.74698 0.65622 0.0
C91 C 0.43399 0.73271 0.62102 0.0
C92 C 0.40809 0.75538 0.59815 0.0
C93 C 0.3895 0.78919 0.61041 0.0
C94 C 0.39696 0.80184 0.64596 0.0
C95 C 0.42494 0.78208 0.66773 0.0
C96 C 0.43243 0.80368 0.7026 0.0
C97 C 0.40193 0.83774 0.69914 0.0
C98 C 0.38084 0.83556 0.66598 0.0
C99 C 0.47501 0.8142 0.70088 0.0
C100 C 0.42454 0.78002 0.73647 0.0
H101 H 0.28109 0.9565 0.70614 0.0
H102 H 0.25195 0.89531 0.58838 0.0
H103 H 0.2763 0.82841 0.64689 0.0
H104 H 0.31591 0.80213 0.62509 0.0
H105 H 0.27943 0.82851 0.59749 0.0
H106 H 0.33857 0.90226 0.58323 0.0
H107 H 0.32757 0.85892 0.56458 0.0
H108 H 0.37287 0.8632 0.58938 0.0
H109 H 0.38142 0.95934 0.80826 0.0
H110 H 0.47747 0.87446 0.82827 0.0
H111 H 0.45856 0.84059 0.77445 0.0
H112 H 0.39077 0.96447 0.71843 0.0
H113 H 0.35248 0.98578 0.74775 0.0
H114 H 0.34163 0.96965 0.70238 0.0
H115 H 0.31971 0.90322 0.78876 0.0
H116 H 0.29149 0.91549 0.74933 0.0
H117 H 0.3065 0.95131 0.77912 0.0
H118 H 0.22211 0.97821 0.67197 0.0
C119 C 0.27556 0.94239 0.68097 0.0
C120 C 0.58167 0.34025 1.01757 0.0
C121 C 0.54442 0.33028 1.0073 0.0
C122 C 0.51505 0.35789 0.99544 0.0
C123 C 0.56302 0.40191 0.99467 0.0
C124 C 0.59016 0.37659 1.01148 0.0
C125 C 0.62854 0.39241 1.0186 0.0
H126 H 0.75152 0.51687 0.96933 0.0
C127 C 0.58279 0.43413 0.98422 0.0
C128 C 0.62068 0.42994 0.99976 0.0
H129 H 0.77261 0.42964 0.0498 0.0
H130 H 0.7045 0.41657 0.04458 0.0
H131 H 0.66104 0.5482 1.00092 0.0
H132 H 0.71567 0.48423 0.91498 0.0
H133 H 0.66667 0.4871 0.89942 0.0
H134 H 0.69098 0.52852 0.90453 0.0
H135 H 0.68663 0.56321 0.96139 0.0
H136 H 0.63434 0.55965 0.96 0.0
C137 C 0.63405 0.39624 0.06079 0.0
C138 C 0.66199 0.36725 0.99958 0.0
C139 C 0.54014 0.49619 0.86468 0.0
C140 C 0.55942 0.51945 0.84174 0.0
C141 C 0.58858 0.53962 0.85684 0.0
C142 C 0.60143 0.53337 0.89316 0.0
C143 C 0.58577 0.50595 0.91395 0.0
C144 C 0.55398 0.48952 0.90063 0.0
C145 C 0.54154 0.46061 0.9264 0.0
C146 C 0.57332 0.46061 0.95608 0.0
C147 C 0.59975 0.48644 0.94783 0.0
C148 C 0.49973 0.47362 0.94122 0.0
C149 C 0.54385 0.42333 0.90521 0.0
C150 C 0.74141 0.49489 0.98575 0.0
C151 C 0.76733 0.47366 1.00933 0.0
C152 C 0.75305 0.44601 0.03112 0.0
C153 C 0.71371 0.43842 0.02797 0.0
C154 C 0.68868 0.45856 1.00262 0.0
C155 C 0.70241 0.48689 0.98278 0.0
C156 C 0.67172 0.50586 0.95758 0.0
C157 C 0.63708 0.48408 0.9655 0.0
C158 C 0.6474 0.45612 0.99154 0.0
C159 C 0.66295 0.54652 0.97034 0.0
C160 C 0.6868 0.50142 0.91712 0.0
H161 H 0.50135 0.41415 0.97984 0.0
H162 H 0.60417 0.3197 0.02815 0.0
H163 H 0.654 0.36186 0.97047 0.0
H164 H 0.6901 0.37949 0.99874 0.0
H165 H 0.66744 0.34022 1.01391 0.0
H166 H 0.60549 0.39747 0.07567 0.0
H167 H 0.6535 0.37248 0.07213 0.0
H168 H 0.64621 0.42231 0.06825 0.0
H169 H 0.51746 0.48062 0.8537 0.0
H170 H 0.60315 0.55842 0.83978 0.0
H171 H 0.62458 0.54848 0.90297 0.0
H172 H 0.48828 0.50156 0.93101 0.0
H173 H 0.47804 0.45458 0.93258 0.0
H174 H 0.49949 0.47567 0.97177 0.0
H175 H 0.57361 0.41655 0.89302 0.0
H176 H 0.53799 0.39981 0.92255 0.0
H177 H 0.5218 0.42451 0.88261 0.0
H178 H 0.48596 0.35099 0.98807 0.0
C179 C 0.52408 0.39406 0.98984 0.0
C180 C 0.96676 0.69163 0.49847 0.0
C181 C 0.94353 0.71999 0.51667 0.0
C182 C 0.9068 0.71316 0.53113 0.0
C183 C 0.91418 0.65206 0.50365 0.0
C184 C 0.95113 0.65839 0.49128 0.0
C185 C 0.96846 0.62898 0.46526 0.0
H186 H 0.924 0.51592 0.33347 0.0
C187 C 0.90411 0.61735 0.48662 0.0
C188 C 0.93582 0.60367 0.46411 0.0
H189 H 0.02775 0.57261 0.3475 0.0
H190 H 0.01253 0.5818 0.41217 0.0
H191 H 0.92784 0.47487 0.41241 0.0
H192 H 0.86229 0.57336 0.37197 0.0
H193 H 0.83173 0.54352 0.39421 0.0
H194 H 0.86041 0.52669 0.35595 0.0
H195 H 0.87727 0.47501 0.39962 0.0
H196 H 0.89112 0.48555 0.44618 0.0
C197 C 1.00622 0.60943 0.48319 0.0
C198 C 0.97539 0.64724 0.42721 0.0
C199 C 0.76566 0.57915 0.49935 0.0
C200 C 0.74828 0.54847 0.48593 0.0
C201 C 0.77127 0.52072 0.46615 0.0
C202 C 0.81077 0.52435 0.45825 0.0
C203 C 0.82708 0.55621 0.46986 0.0
C204 C 0.80536 0.58206 0.49154 0.0
C205 C 0.82933 0.61209 0.5043 0.0
C206 C 0.86889 0.59982 0.48651 0.0
C207 C 0.86659 0.568 0.46505 0.0
C208 C 0.83184 0.61089 0.5469 0.0
C209 C 0.80998 0.64922 0.48836 0.0
C210 C 0.94325 0.5304 0.35071 0.0
C211 C 0.97565 0.54553 0.33526 0.0
C212 C 1.00182 0.5619 0.35857 0.0
C213 C 0.99247 0.56809 0.39572 0.0
C214 C 0.95602 0.55923 0.40887 0.0
C215 C 0.93341 0.5382 0.38752 0.0
C216 C 0.89572 0.53116 0.40648 0.0
C217 C 0.89741 0.55574 0.4404 0.0
C218 C 0.93253 0.57255 0.4411 0.0
C219 C 0.8979 0.48956 0.41664 0.0
C220 C 0.86055 0.54434 0.38093 0.0
H221 H 0.86363 0.67569 0.53601 0.0
H222 H 0.99468 0.6967 0.48637 0.0
H223 H 0.96537 0.67734 0.42654 0.0
H224 H 0.95845 0.63565 0.40471 0.0
H225 H 1.00708 0.64451 0.41975 0.0
H226 H 1.00147 0.6044 0.51301 0.0
H227 H 0.03105 0.62666 0.48075 0.0
H228 H 0.01507 0.5819 0.47104 0.0
H229 H 0.74876 0.6002 0.51562 0.0
H230 H 0.7584 0.49654 0.45634 0.0
H231 H 0.8271 0.5027 0.4429 0.0
H232 H 0.83348 0.58191 0.55708 0.0
H233 H 0.80556 0.62656 0.55958 0.0
H234 H 0.8587 0.62159 0.5577 0.0
H235 H 0.79847 0.64529 0.46006 0.0
H236 H 0.83073 0.6702 0.48522 0.0
H237 H 0.78486 0.66084 0.50568 0.0
H238 H 0.88849 0.73497 0.54519 0.0
C239 C 0.8923 0.67898 0.52533 0.0
C240 C 0.91512 0.75749 0.92732 0.0
C241 C 0.94516 0.73227 0.91278 0.0
C242 C 0.96259 0.74147 0.87908 0.0
C243 C 0.91939 0.79952 0.87513 0.0
C244 C 0.90259 0.79026 0.90812 0.0
C245 C 0.86928 0.81813 0.9195 0.0
H246 H 0.73967 0.96687 0.88336 0.0
C247 C 0.89814 0.83549 0.86203 0.0
C248 C 0.86857 0.84589 0.88824 0.0
H249 H 0.74671 0.89549 0.97884 0.0
H250 H 0.80594 0.86225 0.9557 0.0
H251 H 0.76769 0.90446 0.82101 0.0
H252 H 0.83064 0.97813 0.88535 0.0
H253 H 0.85695 0.97131 0.844 0.0
H254 H 0.80672 0.99282 0.84304 0.0
H255 H 0.76196 0.95391 0.8163 0.0
H256 H 0.79983 0.92569 0.79179 0.0
C257 C 0.83128 0.79824 0.92049 0.0
C258 C 0.88048 0.83527 0.95678 0.0
C259 C 0.9374 0.90202 0.74396 0.0
C260 C 0.92226 0.9358 0.72697 0.0
C261 C 0.88933 0.95619 0.74332 0.0
C262 C 0.87188 0.9438 0.77534 0.0
C263 C 0.88725 0.91043 0.79199 0.0
C264 C 0.91954 0.88998 0.77646 0.0
C265 C 0.93154 0.85514 0.7987 0.0
C266 C 0.902 0.85885 0.83054 0.0
C267 C 0.8758 0.89133 0.82592 0.0
C268 C 0.92607 0.82134 0.77418 0.0
C269 C 0.97422 0.85615 0.81237 0.0
C270 C 0.7542 0.94415 0.89923 0.0
C271 C 0.73745 0.93291 0.93237 0.0
C272 C 0.75795 0.90384 0.9526 0.0
C273 C 0.79265 0.8846 0.93915 0.0
C274 C 0.80781 0.89453 0.90507 0.0
C275 C 0.78947 0.9246 0.88621 0.0
C276 C 0.81177 0.93227 0.85161 0.0
C277 C 0.8452 0.90075 0.85209 0.0
C278 C 0.84224 0.87855 0.88329 0.0
C279 C 0.784 0.9292 0.81824 0.0
C280 C 0.8272 0.97066 0.85585 0.0
H281 H 0.96453 0.78019 0.835 0.0
H282 H 0.90065 0.7513 0.95276 0.0
H283 H 0.91295 0.8353 0.95951 0.0
H284 H 0.86875 0.86471 0.95949 0.0
H285 H 0.87031 0.81952 0.98047 0.0
H286 H 0.8314 0.77733 0.89804 0.0
H287 H 0.82864 0.78359 0.94706 0.0
H288 H 0.80413 0.81695 0.91577 0.0
H289 H 0.96286 0.88566 0.73258 0.0
H290 H 0.87657 0.98183 0.73096 0.0
H291 H 0.84682 0.96079 0.78589 0.0
H292 H 0.89754 0.82557 0.7591 0.0
H293 H 0.95001 0.8169 0.75344 0.0
H294 H 0.92519 0.79573 0.79022 0.0
H295 H 0.97794 0.8836 0.82467 0.0
H296 H 0.98245 0.83549 0.83401 0.0
H297 H 0.99541 0.8513 0.78924 0.0
H298 H 0.98606 0.72279 0.86722 0.0
C299 C 0.95007 0.77487 0.86037 0.0
C300 C 0.77007 0.13365 0.42871 0.0
C301 C 0.79503 0.10323 0.41559 0.0
C302 C 0.78429 0.08569 0.38287 0.0
C303 C 0.72554 0.12958 0.37666 0.0
C304 C 0.73616 0.14647 0.40876 0.0
C305 C 0.70805 0.17954 0.41855 0.0
H306 H 0.54582 0.29748 0.38499 0.0
C307 C 0.68847 0.15043 0.36278 0.0
C308 C 0.67844 0.17982 0.38722 0.0
H309 H 0.63117 0.29799 0.4734 0.0
H310 H 0.66661 0.24339 0.44938 0.0
H311 H 0.54369 0.2039 0.38313 0.0
H312 H 0.61325 0.2728 0.31803 0.0
H313 H 0.58966 0.24174 0.29025 0.0
H314 H 0.56037 0.27748 0.31527 0.0
H315 H 0.52097 0.23865 0.35239 0.0
H316 H 0.54103 0.19409 0.33548 0.0
C317 C 0.68922 0.17178 0.45628 0.0
C318 C 0.73121 0.21407 0.41772 0.0
C319 C 0.62304 0.10614 0.24687 0.0
C320 C 0.5891 0.11888 0.2265 0.0
C321 C 0.56649 0.15148 0.23879 0.0
C322 C 0.577 0.17044 0.2708 0.0
C323 C 0.61083 0.15707 0.291 0.0
C324 C 0.63326 0.12544 0.27861 0.0
C325 C 0.66879 0.11534 0.30257 0.0
C326 C 0.66392 0.1455 0.33173 0.0
C327 C 0.62979 0.17028 0.32518 0.0
C328 C 0.66548 0.07661 0.31918 0.0
C329 C 0.70615 0.11782 0.27894 0.0
C330 C 0.57232 0.28584 0.39893 0.0
C331 C 0.58532 0.30243 0.43167 0.0
C332 C 0.61978 0.28586 0.44884 0.0
C333 C 0.64076 0.25402 0.4345 0.0
C334 C 0.62782 0.23786 0.40212 0.0
C335 C 0.59412 0.25348 0.38465 0.0
C336 C 0.58567 0.23156 0.35024 0.0
C337 C 0.61996 0.2006 0.35022 0.0
C338 C 0.6443 0.20494 0.38094 0.0
C339 C 0.5456 0.21626 0.35526 0.0
C340 C 0.58705 0.25714 0.31648 0.0
H341 H 0.74344 0.08415 0.33866 0.0
H342 H 0.77661 0.14732 0.45418 0.0
H343 H 0.75611 0.21039 0.39786 0.0
H344 H 0.71314 0.23928 0.40805 0.0
H345 H 0.74377 0.21949 0.44521 0.0
H346 H 0.68584 0.14186 0.4595 0.0
H347 H 0.70771 0.1799 0.47952 0.0
H348 H 0.65904 0.18574 0.4594 0.0
H349 H 0.64181 0.08189 0.23795 0.0
H350 H 0.54027 0.16215 0.22376 0.0
H351 H 0.55844 0.19486 0.27863 0.0
H352 H 0.63462 0.07385 0.32758 0.0
H353 H 0.67431 0.05447 0.29879 0.0
H354 H 0.68323 0.07127 0.34442 0.0
H355 H 0.70128 0.14048 0.25833 0.0
H356 H 0.73166 0.12464 0.29538 0.0
H357 H 0.71437 0.09165 0.26366 0.0
H358 H 0.80291 0.06221 0.372 0.0
C359 C 0.74979 0.09862 0.36341 0.0
C360 C 0.47277 0.53958 0.19332 0.0
C361 C 0.45154 0.5191 0.21722 0.0
C362 C 0.41964 0.50172 0.20361 0.0
C363 C 0.42389 0.53418 0.14575 0.0
C364 C 0.45776 0.54792 0.15816 0.0
C365 C 0.47008 0.57801 0.13394 0.0
H366 H 0.4098 0.72159 0.03084 0.0
C367 C 0.41024 0.55535 0.11259 0.0
C368 C 0.43738 0.58074 0.10524 0.0
H369 H 0.52307 0.69354 0.08315 0.0
H370 H 0.50881 0.63062 0.09007 0.0
H371 H 0.35537 0.67989 0.08563 0.0
H372 H 0.41387 0.64271 0.98509 0.0
H373 H 0.37263 0.61794 0.98945 0.0
H374 H 0.36568 0.66768 0.98448 0.0
H375 H 0.34571 0.70065 0.04111 0.0
H376 H 0.32234 0.66124 0.05472 0.0
C377 C 0.46934 0.61357 0.15796 0.0
C378 C 0.51089 0.5648 0.11708 0.0
C379 C 0.27229 0.54474 0.06526 0.0
C380 C 0.24811 0.56527 0.03972 0.0
C381 C 0.26367 0.59277 1.0187 0.0
C382 C 0.30241 0.60107 1.02464 0.0
C383 C 0.32547 0.58177 0.05199 0.0
C384 C 0.31071 0.55335 0.0709 0.0
C385 C 0.33917 0.53576 0.09892 0.0
C386 C 0.37396 0.55778 0.09316 0.0
C387 C 0.36541 0.58526 0.06626 0.0
C388 C 0.32038 0.54188 0.13781 0.0
C389 C 0.34958 0.49466 0.08829 0.0
C390 C 0.43117 0.70194 0.04437 0.0
C391 C 0.46666 0.71302 0.05833 0.0
C392 C 0.49511 0.68608 0.07303 0.0
C393 C 0.48671 0.64967 0.07747 0.0
C394 C 0.44894 0.64062 0.0688 0.0
C395 C 0.42291 0.66541 0.04993 0.0
C396 C 0.3856 0.64886 0.04 0.0
C397 C 0.39229 0.61173 0.05976 0.0
C398 C 0.42897 0.60799 0.07762 0.0
C399 C 0.35019 0.67389 0.05605 0.0
C400 C 0.38402 0.64417 0.99758 0.0
H401 H 0.38038 0.49634 0.15907 0.0
H402 H 0.49762 0.55278 0.20355 0.0
H403 H 0.51819 0.53432 0.11937 0.0
H404 H 0.51186 0.57066 0.08712 0.0
H405 H 0.53481 0.57789 0.1311 0.0
H406 H 0.44186 0.61756 0.17458 0.0
H407 H 0.49475 0.61175 0.17728 0.0
H408 H 0.46993 0.63928 0.14237 0.0
H409 H 0.26109 0.52309 0.08136 0.0
H410 H 0.24541 0.60865 0.99864 0.0
H411 H 0.31259 0.6229 1.00863 0.0
H412 H 0.29449 0.56325 0.13767 0.0
H413 H 0.31007 0.51606 0.14867 0.0
H414 H 0.34085 0.55236 0.15802 0.0
H415 H 0.35481 0.49181 0.05812 0.0
H416 H 0.37695 0.48216 0.10161 0.0
H417 H 0.32519 0.47809 0.09548 0.0
H418 H 0.40322 0.48543 0.22178 0.0
C419 C 0.40605 0.50871 0.16754 0.0
C420 C 0.04746 0.35001 0.54163 0.0
C421 C 0.07202 0.32205 0.52414 0.0
C422 C 0.1088 0.32985 0.51053 0.0
C423 C 0.0994 0.39046 0.53878 0.0
C424 C 0.06209 0.38356 0.54965 0.0
C425 C 0.0436 0.41234 0.57581 0.0
H426 H 0.07848 0.52611 0.71155 0.0
C427 C 0.10902 0.42419 0.55797 0.0
C428 C 0.07653 0.43702 0.57984 0.0
H429 H 0.97375 0.47302 0.68935 0.0
H430 H 0.99678 0.45831 0.62752 0.0
H431 H 0.08501 0.56213 0.62651 0.0
H432 H 0.13802 0.46558 0.68319 0.0
H433 H 0.17521 0.48663 0.66035 0.0
H434 H 0.14643 0.5122 0.69469 0.0
H435 H 0.12783 0.56375 0.65487 0.0
H436 H 0.13174 0.55167 0.60656 0.0
C437 C 1.00731 0.433 0.5564 0.0
C438 C 0.03401 0.39314 0.61269 0.0
C439 C 0.24869 0.46002 0.55261 0.0
C440 C 0.2678 0.48667 0.57164 0.0
C441 C 0.24595 0.51152 0.59554 0.0
C442 C 0.2058 0.50912 0.60131 0.0
C443 C 0.1875 0.48116 0.58354 0.0
C444 C 0.20862 0.45776 0.55897 0.0
C445 C 0.18417 0.42978 0.54262 0.0
C446 C 0.14469 0.44077 0.56099 0.0
C447 C 0.14716 0.47037 0.58545 0.0
C448 C 0.18173 0.43592 0.50046 0.0
C449 C 0.20265 0.39055 0.55424 0.0
C450 C 0.06008 0.51229 0.69284 0.0
C451 C 0.02474 0.50005 0.70515 0.0
C452 C 1.00138 0.4821 0.6804 0.0
C453 C 0.01504 0.47317 0.64486 0.0
C454 C 0.05296 0.48097 0.63479 0.0
C455 C 0.07386 0.50221 0.65761 0.0
C456 C 0.11401 0.50701 0.64251 0.0
C457 C 0.11486 0.48238 0.60858 0.0
C458 C 0.07923 0.46679 0.60467 0.0
C459 C 0.11504 0.54824 0.63223 0.0
C460 C 0.14527 0.49231 0.67155 0.0
H461 H 0.15123 0.36819 0.50752 0.0
H462 H 0.01941 0.34428 0.55296 0.0
H463 H 0.04649 0.36365 0.61394 0.0
H464 H 0.04714 0.40564 0.63698 0.0
H465 H 1.00177 0.39367 0.61694 0.0
H466 H 0.01396 0.43859 0.52706 0.0
H467 H 0.98195 0.41625 0.5569 0.0
H468 H 0.9983 0.46039 0.56877 0.0
H469 H 0.26485 0.44072 0.53393 0.0
H470 H 0.26 0.53286 0.6097 0.0
H471 H 0.19073 0.52852 0.62008 0.0
H472 H 0.1762 0.46593 0.49402 0.0
H473 H 0.20973 0.42501 0.4869 0.0
H474 H 0.15723 0.42303 0.48757 0.0
H475 H 0.2224 0.39148 0.57859 0.0
H476 H 0.18028 0.37255 0.56306 0.0
H477 H 0.22045 0.37665 0.53163 0.0
H478 H 0.12805 0.30846 0.49687 0.0
C479 C 0.12235 0.36426 0.51722 0.0
C480 C 0.04371 0.04122 0.4538 0.0
N481 N 0.02482 0.09814 0.55261 0.0
C482 C 0.06136 0.10738 0.54441 0.0
C483 C 0.06869 0.14413 0.5437 0.0
C484 C 0.03817 0.1719 0.55142 0.0
C485 C 1.00145 0.1617 0.56255 0.0
C486 C 0.99529 0.12427 0.56283 0.0
Zn487 Zn 0.01465 0.04672 0.53567 0.0
C488 C 0.93925 0.04798 0.49455 0.0
N489 N 1.0001 0.94162 0.49147 0.0
C490 C 0.02908 0.91472 0.48178 0.0
C491 C 0.96307 0.93337 0.49927 0.0
C492 C 0.9545 0.897 0.49974 0.0
C493 C 0.98423 0.86847 0.49222 0.0
C494 C 0.02165 0.87757 0.48185 0.0
Zn495 Zn 0.01093 0.99307 0.50815 0.0
O496 O 0.03861 0.06093 0.48277 0.0
C497 C 0.08654 0.992 0.54917 0.0
O498 O 0.0356 1.00777 0.45533 0.0
H499 H 0.9407 0.95464 0.50836 0.0
H500 H 0.08417 0.08657 0.53517 0.0
H501 H 0.05847 0.92176 0.47628 0.0
O502 O 0.07149 0.02479 0.55581 0.0
O503 O 0.06779 0.97165 0.52851 0.0
H504 H 0.96633 0.11638 0.56879 0.0
O505 O 0.98668 0.979 0.56094 0.0
O506 O 0.98996 0.03203 0.58841 0.0
O507 O 0.95426 1.01523 0.48774 0.0
O508 O 0.95787 0.06811 0.51549 0.0
C509 C 0.98153 0.99869 0.58987 0.0
H510 H 0.09731 0.1508 0.5347 0.0
H511 H 0.9774 0.18241 0.56947 0.0
H512 H 0.92543 0.89118 0.50832 0.0
H513 H 0.04519 0.85624 0.47522 0.0
C514 C 0.58717 0.99728 0.9948 0.0
N515 N 0.51749 0.09992 0.99151 0.0
C516 C 0.55268 0.11287 0.99855 0.0
C517 C 0.55627 0.1505 0.99691 0.0
C518 C 0.52331 0.17527 0.98819 0.0
C519 C 0.48784 0.16119 0.97881 0.0
C520 C 0.48554 0.12304 0.98073 0.0
Zn521 Zn 0.51331 0.04725 1.00872 0.0
C522 C 0.48024 0.99754 0.95599 0.0
N523 N 0.50843 0.94068 0.05386 0.0
C524 C 0.52008 0.91555 0.02719 0.0
C525 C 0.49272 0.93004 0.08607 0.0
C526 C 0.48732 0.89275 0.09172 0.0
C527 C 0.49794 0.86674 0.06372 0.0
C528 C 0.51506 0.87859 0.03151 0.0
Zn529 Zn 0.51124 0.99396 0.03744 0.0
O530 O 0.57184 0.02981 0.98728 0.0
C531 C 0.54342 0.04394 0.09042 0.0
O532 O 0.56855 0.97756 1.01594 0.0
H533 H 0.48335 0.95051 0.1068 0.0
H534 H 0.57746 0.09435 1.00809 0.0
H535 H 0.53171 0.92428 1.00144 0.0
O536 O 0.5371 0.06348 0.06147 0.0
O537 O 0.53649 1.01018 0.08911 0.0
H538 H 0.45774 0.1122 0.97565 0.0
O539 O 0.45444 1.01081 0.05943 0.0
O540 O 0.45472 0.06344 0.02995 0.0
O541 O 0.48536 0.97867 0.98544 0.0
O542 O 0.48907 0.03073 0.95647 0.0
C543 C 0.43753 0.04267 0.05148 0.0
H544 H 0.58403 0.16027 1.00461 0.0
H545 H 0.46194 0.17951 0.97135 0.0
H546 H 0.47451 0.88451 0.11727 0.0
H547 H 0.52312 0.85969 1.00899 0.0
C548 C 0.52754 0.44336 0.50291 0.0
N549 N 0.53633 0.49227 0.60921 0.0
C550 C 0.51806 0.46892 0.63099 0.0
C551 C 0.52299 0.4698 0.66923 0.0
C552 C 0.54708 0.49474 0.68472 0.0
C553 C 0.56767 0.51644 0.66144 0.0
C554 C 0.56163 0.51499 0.62367 0.0
Zn555 Zn 0.51819 0.50429 0.55677 0.0
C556 C 0.58433 0.52997 0.51288 0.0
N557 N 0.48133 0.53837 0.44997 0.0
C558 C 0.45787 0.5141 0.43523 0.0
C559 C 0.49748 0.5634 0.42853 0.0
C560 C 0.49174 0.56326 0.39036 0.0
C561 C 0.46909 0.53722 0.37458 0.0
C562 C 0.45116 0.51323 0.39757 0.0
Zn563 Zn 0.49927 0.52703 0.50255 0.0
O564 O 0.53071 0.44737 0.53773 0.0
C565 C 0.43317 0.50142 0.54658 0.0
O566 O 0.51603 0.47168 0.48379 0.0
H567 H 0.51662 0.58196 0.44068 0.0
H568 H 0.49776 0.45137 0.61901 0.0
H569 H 0.44632 0.49347 0.45222 0.0
O570 O 0.45984 0.49477 0.57077 0.0
O571 O 0.44221 0.51409 0.5156 0.0
H572 H 0.57491 0.53427 0.6063 0.0
O573 O 0.48234 0.58229 0.52165 0.0
O574 O 0.50546 0.5615 0.57498 0.0
O575 O 0.55695 0.54052 0.49031 0.0
O576 O 0.57609 0.51342 0.54213 0.0
C577 C 0.48979 0.58819 0.55545 0.0
H578 H 0.50707 0.45229 0.68655 0.0
H579 H 0.58627 0.53617 0.67249 0.0
H580 H 0.50643 0.58195 0.37331 0.0
H581 H 0.43328 0.49298 0.38638 0.0
C582 C 0.98673 0.59086 0.99104 0.0
N583 N 0.99084 0.54898 0.1014 0.0
C584 C 0.01055 0.57499 0.11828 0.0
C585 C 1.00832 0.57951 0.15655 0.0
C586 C 0.98496 0.55754 0.17695 0.0
C587 C 0.9638 0.53216 0.15876 0.0
C588 C 0.96752 0.52797 0.1209 0.0
Zn589 Zn 1.00155 0.53266 0.04837 0.0
C590 C 0.93059 0.50477 1.01465 0.0
N591 N 0.02439 0.4911 0.94017 0.0
C592 C 0.04939 0.51052 0.92083 0.0
C593 C 1.0007 0.46879 0.92261 0.0
C594 C 0.99897 0.46824 0.88411 0.0
C595 C 0.02236 0.49035 0.86375 0.0
C596 C 0.04946 0.50985 0.88257 0.0
Zn597 Zn 0.01424 0.50705 0.99371 0.0
O598 O 0.98527 0.58825 0.02611 0.0
C599 C 0.08499 0.53507 0.0282 0.0
O600 O 0.99779 0.56183 0.97264 0.0
H601 H 0.98109 0.4534 0.93826 0.0
H602 H 0.02936 0.59104 0.10238 0.0
H603 H 0.06741 0.52887 0.9347 0.0
O604 O 0.06031 0.54424 0.0535 0.0
O605 O 0.07373 0.51867 0.9998 0.0
H606 H 0.95332 0.50641 0.10754 0.0
O607 O 0.03041 0.45218 1.01528 0.0
O608 O 0.01851 0.47698 0.06963 0.0
O609 O 0.95479 0.49563 0.98894 0.0
O610 O 0.94239 0.52111 0.04279 0.0
C611 C 0.02927 0.44845 0.05022 0.0
H612 H 0.02508 0.59929 0.17011 0.0
H613 H 0.94596 0.51448 0.17396 0.0
H614 H 0.97805 0.45233 0.87057 0.0
H615 H 0.06932 0.52594 0.86792 0.0
C616 C 0.06994 0.11546 0.3855 0.0
C617 C 0.07736 0.09632 0.35201 0.0
C618 C 0.06 0.09723 0.41792 0.0
C619 C 0.05649 0.05882 0.4187 0.0
H620 H 0.07226 0.14489 0.38685 0.0
H621 H 0.05464 0.11375 0.44263 0.0
S622 S 0.07168 0.99571 0.33819 0.0
N623 N 0.07978 0.03649 0.32164 0.0
N624 N 0.06102 1.00243 0.38224 0.0
C625 C 0.06373 0.03928 0.38536 0.0
C626 C 0.07418 0.05788 0.35228 0.0
C627 C 0.45197 0.92234 0.88954 0.0
C628 C 0.44348 0.94107 0.85603 0.0
C629 C 0.46296 0.94098 0.92143 0.0
C630 C 0.46647 0.97938 0.92156 0.0
H631 H 0.44975 0.89291 0.89132 0.0
H632 H 0.46919 0.92481 0.94622 0.0
S633 S 0.44861 0.04148 0.84068 0.0
N634 N 0.44004 1.00048 0.82489 0.0
N635 N 0.46069 0.03533 0.88452 0.0
C636 C 0.45813 0.99851 0.88818 0.0
C637 C 0.44664 0.97949 0.85567 0.0
C638 C 0.58884 0.50786 0.77974 0.0
C639 C 0.55494 0.51653 0.80136 0.0
C640 C 0.58596 0.50011 0.74218 0.0
C641 C 0.54909 0.5005 0.72491 0.0
H642 H 0.61787 0.50596 0.79216 0.0
H643 H 0.61279 0.49342 0.72657 0.0
S644 S 0.45154 0.52415 0.76851 0.0
N645 N 0.48345 0.52681 0.80245 0.0
N646 N 0.478 0.51219 0.73151 0.0
C647 C 0.51494 0.50966 0.74597 0.0
C648 C 0.51787 0.5177 0.78428 0.0
C649 C 0.01432 0.54087 0.27639 0.0
C650 C 0.97837 0.54976 0.29485 0.0
C651 C 0.01691 0.54532 0.23811 0.0
C652 C 0.98369 0.55893 0.21738 0.0
H653 H 0.04029 0.52969 0.2915 0.0
H654 H 0.04462 0.53687 0.22447 0.0
S655 S 0.88426 0.59044 0.25289 0.0
N656 N 0.90994 0.57628 0.28978 0.0
N657 N 0.91488 0.58357 0.21781 0.0
C658 C 0.94811 0.56916 0.23558 0.0
C659 C 0.94544 0.56486 0.27436 0.0
C660 C 0.35909 0.0627 0.12528 0.0
C661 C 0.32842 0.08463 0.10696 0.0
C662 C 0.39367 0.0486 0.10686 0.0
C663 C 0.39969 0.05646 0.06949 0.0
H664 H 0.35684 0.05683 0.15439 0.0
H665 H 0.41641 0.03221 0.12236 0.0
S666 S 0.32826 0.10962 1.00749 0.0
N667 N 0.30572 0.11062 0.04775 0.0
N668 N 0.3718 0.08613 1.01419 0.0
C669 C 0.36952 0.07803 0.05062 0.0
C670 C 0.33373 0.09161 0.06904 0.0
C671 C 0.18373 0.98919 0.60172 0.0
C672 C 0.19484 0.95112 0.60691 0.0
C673 C 0.14918 1.00203 0.58246 0.0
C674 C 0.12428 0.9774 0.5673 0.0
H675 H 0.20202 1.00931 0.61245 0.0
H676 H 0.14193 0.03162 0.57948 0.0
S677 S 0.13854 0.87503 0.57496 0.0
N678 N 0.17685 0.88894 0.59671 0.0
N679 N 0.11269 0.913 0.55986 0.0
C680 C 0.13503 0.93925 0.57221 0.0
C681 C 0.17003 0.92616 0.59214 0.0
C682 C 0.82703 0.48882 0.04371 0.0
C683 C 0.80935 0.48002 1.01035 0.0
C684 C 0.86622 0.49691 0.04475 0.0
C685 C 0.88929 0.49597 1.01252 0.0
H686 H 0.81019 0.49018 0.06904 0.0
H687 H 0.87853 0.50386 0.0711 0.0
S688 S 0.85678 0.47265 0.91843 0.0
N689 N 0.81774 0.46965 0.94455 0.0
N690 N 0.89152 0.48453 0.94639 0.0
C691 C 0.87204 0.48645 0.97907 0.0
C692 C 0.83203 0.47859 0.97801 0.0
C693 C 0.69576 0.51564 0.51443 0.0
C694 C 0.70634 0.54492 0.49281 0.0
C695 C 0.65614 0.51131 0.52091 0.0
C696 C 0.62573 0.53566 0.50532 0.0
H697 H 0.71831 0.4961 0.52658 0.0
H698 H 0.64932 0.48837 0.53788 0.0
S699 S 0.63851 0.61661 0.44622 0.0
N700 N 0.68389 0.59872 0.45588 0.0
N701 N 0.60911 0.59016 0.46727 0.0
C702 C 0.63604 0.56493 0.48336 0.0
C703 C 0.67646 0.5697 0.47735 0.0
C704 C 0.06067 0.37597 0.12497 0.0
C705 C 0.07066 0.34324 0.10474 0.0
C706 C 0.04647 0.40946 0.10731 0.0
C707 C 0.04161 0.41182 0.06859 0.0
H708 H 0.06544 0.3761 0.15449 0.0
H709 H 0.04032 0.434 0.12419 0.0
S710 S 0.05902 0.33279 1.00353 0.0
N711 N 0.07117 0.31463 0.04418 0.0
N712 N 0.04505 0.377 1.01123 0.0
C713 C 0.04981 0.37878 0.04835 0.0
C714 C 0.06411 0.34479 0.06632 0.0
C715 C 0.56462 0.26753 0.98231 0.0
C716 C 0.5381 0.29089 1.00361 0.0
C717 C 0.55872 0.23056 0.97632 0.0
C718 C 0.52612 0.2155 0.99149 0.0
H719 H 0.58992 0.27806 0.96976 0.0
H720 H 0.58001 0.21352 0.95985 0.0
S721 S 0.44876 0.26494 0.05034 0.0
N722 N 0.47829 0.29657 0.04017 0.0
N723 N 0.46744 0.22662 0.02951 0.0
C724 C 0.49923 0.23863 1.01272 0.0
C725 C 0.50518 0.27643 1.01866 0.0
C726 C 0.92944 0.78344 0.49213 0.0
C727 C 0.95396 0.75807 0.51319 0.0
C728 C 0.94026 0.81856 0.48439 0.0
C729 C 0.97587 0.82973 0.49769 0.0
H730 H 0.90209 0.77573 0.48079 0.0
H731 H 0.92053 0.83716 0.46784 0.0
S732 S 0.0496 0.77362 0.5554 0.0
N733 N 0.01511 0.74602 0.5474 0.0
N734 N 0.03503 0.81287 0.53413 0.0
C735 C 1.00061 0.80458 0.51901 0.0
C736 C 0.98972 0.76855 0.52649 0.0
C737 C 0.42491 0.67502 0.58424 0.0
C738 C 0.44939 0.69462 0.60696 0.0
C739 C 0.4386 0.64141 0.56715 0.0
C740 C 0.47704 0.62467 0.57296 0.0
H741 H 0.39454 0.68572 0.57934 0.0
H742 H 0.41852 0.62798 0.54979 0.0
S743 S 0.55323 0.66196 0.63093 0.0
N744 N 0.51477 0.69349 0.63417 0.0
N745 N 0.53929 0.62891 0.60419 0.0
C746 C 0.50156 0.64267 0.5967 0.0
C747 C 0.48805 0.67776 0.61327 0.0
C748 C 0.94547 0.98834 0.6895 0.0
C749 C 0.93973 0.95049 0.69237 0.0
C750 C 0.95899 1.00361 0.65669 0.0
C751 C 0.96717 0.98196 0.62482 0.0
H752 H 0.9394 1.00648 0.71294 0.0
H753 H 0.96275 0.03282 0.65631 0.0
S754 S 0.95695 0.88122 0.61727 0.0
N755 N 0.94338 0.8918 0.65996 0.0
N756 N 0.9687 0.91998 0.59876 0.0
C757 C 0.96185 0.94392 0.6274 0.0
C758 C 0.9483 0.92838 0.66093 0.0
C759 C 0.56804 0.11846 0.15944 0.0
C760 C 0.57785 0.09881 0.19221 0.0
C761 C 0.55784 0.1004 0.12689 0.0
C762 C 0.55642 0.0617 0.1254 0.0
H763 H 0.56865 0.14817 0.15877 0.0
H764 H 0.55059 0.1172 0.1027 0.0
S765 S 0.57827 0.99727 0.20397 0.0
N766 N 0.58479 0.03825 0.22118 0.0
N767 N 0.56548 1.00448 0.16044 0.0
C768 C 0.56602 0.04169 0.15807 0.0
C769 C 0.57676 0.06011 0.19119 0.0
C770 C 0.46749 0.49316 0.27987 0.0
C771 C 0.45682 0.52368 0.25713 0.0
C772 C 0.47202 0.49792 0.3179 0.0
C773 C 0.46557 0.53328 0.33424 0.0
H774 H 0.47258 0.46564 0.26819 0.0
H775 H 0.48067 0.47377 0.33465 0.0
S776 S 0.43407 0.62143 0.28638 0.0
N777 N 0.43813 0.59001 0.25333 0.0
N778 N 0.44618 0.59883 0.32488 0.0
C779 C 0.45445 0.56387 0.31168 0.0
C780 C 0.45006 0.55906 0.27308 0.0
C781 C 0.01482 0.46538 0.76267 0.0
C782 C 0.0168 0.49954 0.74502 0.0
C783 C 0.01539 0.46273 0.80115 0.0
C784 C 0.01792 0.49418 0.82323 0.0
H785 H 0.01507 0.4402 0.74663 0.0
H786 H 0.01567 0.43565 0.81359 0.0
S787 S 0.01809 0.59078 0.78993 0.0
N788 N 0.01764 0.56574 0.75198 0.0
N789 N 0.01785 0.56122 0.82441 0.0
C790 C 0.01749 0.52885 0.80575 0.0
C791 C 0.01715 0.53142 0.76661 0.0
C792 C 0.68892 0.98832 0.9489 0.0
C793 C 0.69809 0.94971 0.94576 0.0
C794 C 0.65293 1.00378 0.96442 0.0
C795 C 0.62495 0.98117 0.97763 0.0
H796 H 0.71008 1.00667 0.94017 0.0
H797 H 0.64736 0.03357 0.96677 0.0
S798 S 0.63255 0.87862 0.97097 0.0
N799 N 0.67425 0.88961 0.95344 0.0
N800 N 0.60787 0.91817 0.98327 0.0
C801 C 0.63338 0.94261 0.97335 0.0
C802 C 0.66953 0.92704 0.95725 0.0
C803 C 0.84206 0.05176 0.44203 0.0
C804 C 0.8319 0.08986 0.4361 0.0
C805 C 0.87635 0.03857 0.46148 0.0
C806 C 0.90185 0.0629 0.47615 0.0
H807 H 0.82318 0.0319 0.4318 0.0
H808 H 0.8829 1.00898 0.46507 0.0
S809 S 0.89034 0.1651 0.46629 0.0
N810 N 0.8516 0.15166 0.44487 0.0
N811 N 0.91521 0.12697 0.4822 0.0
C812 C 0.89211 0.10107 0.47044 0.0
C813 C 0.85744 0.11449 0.45026 0.0
C814 C 0.19036 0.5489 1.003 0.0
C815 C 0.20618 0.55913 0.03677 0.0
C816 C 0.15112 0.54103 1.0005 0.0
C817 C 0.12628 0.54364 0.03158 0.0
H818 H 0.20864 0.54626 0.9786 0.0
H819 H 0.14021 0.53292 0.97395 0.0
S820 S 0.15373 0.57132 0.12599 0.0
N821 N 0.19423 0.57278 0.10154 0.0
N822 N 0.12051 0.55829 0.09703 0.0
C823 C 0.14177 0.55463 0.06536 0.0
C824 C 0.18172 0.56229 0.0679 0.0
C825 C 0.32507 0.49212 0.53037 0.0
C826 C 0.31035 0.4889 0.56616 0.0
C827 C 0.36494 0.49563 0.52443 0.0
C828 C 0.39171 0.49561 0.55404 0.0
H829 H 0.30545 0.49271 0.50683 0.0
H830 H 0.37476 0.49859 0.4963 0.0
S831 S 0.36798 0.4856 0.65306 0.0
N832 N 0.32546 0.48429 0.63157 0.0
N833 N 0.40067 0.49071 0.62051 0.0
C834 C 0.37748 0.49143 0.58998 0.0
C835 C 0.33671 0.4882 0.59601 0.0
C836 C 0.96496 0.695 0.97044 0.0
C837 C 0.95679 0.6961 0.93222 0.0
C838 C 0.97432 0.66119 0.98938 0.0
C839 C 0.97581 0.62685 0.97103 0.0
H840 H 0.9643 0.72058 0.98585 0.0
H841 H 0.98075 0.66204 1.0186 0.0
S842 S 0.95191 0.61426 0.87201 0.0
N843 N 0.94778 0.65954 0.87755 0.0
N844 N 0.96523 0.59648 0.91253 0.0
C845 C 0.96684 0.62766 0.93293 0.0
C846 C 0.95743 0.66202 0.91375 0.0
C847 C 0.51085 0.76294 0.05098 0.0
C848 C 0.47359 0.75253 0.05998 0.0
C849 C 0.51895 0.79964 0.05421 0.0
C850 C 0.49001 0.82756 0.06614 0.0
H851 H 0.53392 0.74262 0.041 0.0
H852 H 0.54803 0.80633 0.04663 0.0
S853 S 0.38819 0.81464 0.09467 0.0
N854 N 0.40807 0.77274 0.08347 0.0
N855 N 0.42276 0.84227 0.08759 0.0
C856 C 0.45279 0.81754 0.07582 0.0
C857 C 0.44464 0.77996 0.07298 0.0
C858 C 0.08918 0.25915 0.54913 0.0
C859 C 0.06326 0.2835 0.52826 0.0
C860 C 0.08006 0.22362 0.55757 0.0
C861 C 0.04481 0.21098 0.54521 0.0
H862 H 0.11631 0.26799 0.55984 0.0
H863 H 0.10083 0.20586 0.57395 0.0
S864 S 0.96774 0.26396 0.48843 0.0
N865 N 1.00112 0.29297 0.49525 0.0
N866 N 0.98437 0.22537 0.5099 0.0
C867 C 0.01865 0.23508 0.52412 0.0
C868 C 0.02781 0.27153 0.51589 0.0
C869 C 0.56125 0.34052 0.48722 0.0
C870 C 0.56498 0.33731 0.44848 0.0
C871 C 0.54847 0.37441 0.50451 0.0
C872 C 0.53839 0.40684 0.48397 0.0
H873 H 0.56925 0.31668 0.50454 0.0
H874 H 0.54715 0.37524 0.53435 0.0
S875 S 0.54065 0.41342 0.38153 0.0
N876 N 0.5561 0.36969 0.39013 0.0
N877 N 0.53117 0.4329 0.4221 0.0
C878 C 0.54031 0.40372 0.44505 0.0
C879 C 0.55365 0.36918 0.4275 0.0
loop_
_geom_bond_atom_site_label_1
_geom_bond_atom_site_label_2
_geom_bond_distance
_geom_bond_site_symmetry_2
_ccdc_geom_bond_type
C0 C1 1.391 . S
C0 C4 1.391 . S
C0 H42 0.948 . S
C1 C0 1.391 . S
C1 C2 1.391 . S
C2 C1 1.391 . S
C2 H58 0.947 . S
C2 C59 1.392 . S
C3 C4 1.391 . S
C3 C7 1.397 . S
C3 C59 1.419 . S
C4 C0 1.391 . S
C4 C3 1.391 . S
C4 C5 1.399 . S
C5 C4 1.399 . S
C5 C8 1.396 . S
C5 C17 1.453 . S
C5 C18 1.684 . S
H6 C30 0.948 . S
C7 C3 1.397 . S
C7 C8 1.394 . S
C7 C26 1.723 . S
C8 C5 1.396 . S
C8 C7 1.394 . S
C8 C38 1.723 . S
H9 C32 0.947 . S
H10 C33 0.948 . S
H11 C39 0.982 . S
H12 C40 0.979 . S
H13 C40 0.980 . S
H14 C40 0.983 . S
H15 C39 0.979 . S
H16 C39 0.977 . S
C17 C5 1.453 . S
C17 H46 0.982 . S
C17 H47 0.979 . S
C17 H48 0.977 . S
C18 C5 1.684 . S
C18 H43 0.979 . S
C18 H44 0.980 . S
C18 H45 0.983 . S
C19 C20 1.391 . S
C19 C24 1.391 . S
C19 H49 0.948 . S
C20 C19 1.391 . S
C20 C21 1.391 . S
C21 C20 1.391 . S
C21 C22 1.392 . S
C21 H50 0.947 . S
C22 C21 1.392 . S
C22 C23 1.419 . S
C22 H51 0.948 . S
C23 C22 1.419 . S
C23 C24 1.391 . S
C23 C27 1.397 . S
C24 C19 1.391 . S
C24 C23 1.391 . S
C24 C25 1.399 . S
C25 C24 1.399 . S
C25 C26 1.396 . S
C25 C28 1.453 . S
C25 C29 1.684 . S
C26 C7 1.723 . S
C26 C25 1.396 . S
C26 C27 1.394 . S
C27 C23 1.397 . S
C27 C26 1.394 . S
C27 C37 1.723 . S
C28 C25 1.453 . S
C28 H52 0.982 . S
C28 H53 0.979 . S
C28 H54 0.977 . S
C29 C25 1.684 . S
C29 H55 0.987 . S
C29 H56 0.980 . S
C29 H57 0.983 1_455 S
C30 H6 0.948 . S
C30 C31 1.391 . S
C30 C35 1.391 . S
C31 C30 1.391 . S
C31 C32 1.391 . S
C32 H9 0.947 . S
C32 C31 1.391 . S
C32 C33 1.392 . S
C33 H10 0.948 . S
C33 C32 1.392 . S
C33 C34 1.419 . S
C34 C33 1.419 . S
C34 C35 1.391 . S
C34 C38 1.397 . S
C35 C30 1.391 . S
C35 C34 1.391 . S
C35 C36 1.399 . S
C36 C35 1.399 . S
C36 C37 1.396 . S
C36 C39 1.453 . S
C36 C40 1.684 . S
C37 C27 1.723 . S
C37 C36 1.396 . S
C37 C38 1.394 . S
C38 C8 1.723 . S
C38 C34 1.397 . S
C38 C37 1.394 . S
C39 H11 0.982 . S
C39 H15 0.979 . S
C39 H16 0.977 . S
C39 C36 1.453 . S
C40 H12 0.979 . S
C40 H13 0.980 . S
C40 H14 0.983 . S
C40 C36 1.684 . S
H41 C59 0.948 . S
H42 C0 0.948 . S
H43 C18 0.979 . S
H44 C18 0.980 . S
H45 C18 0.983 . S
H46 C17 0.982 . S
H47 C17 0.979 . S
H48 C17 0.977 . S
H49 C19 0.948 . S
H50 C21 0.947 . S
H51 C22 0.948 . S
H52 C28 0.982 . S
H53 C28 0.979 . S
H54 C28 0.977 . S
H55 C29 0.987 . S
H56 C29 0.980 . S
H57 C29 0.983 1_655 S
H58 C2 0.947 . S
C59 C2 1.392 . S
C59 C3 1.419 . S
C59 H41 0.948 . S
C60 C61 1.391 . S
C60 C64 1.391 . S
C60 H102 0.948 . S
C61 C60 1.391 . S
C61 C62 1.391 . S
C62 C61 1.391 . S
C62 H118 0.947 . S
C62 C119 1.392 . S
C63 C64 1.391 . S
C63 C67 1.397 . S
C63 C119 1.419 . S
C64 C60 1.391 . S
C64 C63 1.391 . S
C64 C65 1.399 . S
C65 C64 1.399 . S
C65 C68 1.396 . S
C65 C77 1.453 . S
C65 C78 1.684 . S
H66 C90 0.948 . S
C67 C63 1.397 . S
C67 C68 1.394 . S
C67 C86 1.723 . S
C68 C65 1.396 . S
C68 C67 1.394 . S
C68 C98 1.723 . S
H69 C92 0.947 . S
H70 C93 0.948 . S
H71 C99 0.982 . S
H72 C100 0.979 . S
H73 C100 0.980 . S
H74 C100 0.983 . S
H75 C99 0.979 . S
H76 C99 0.977 . S
C77 C65 1.453 . S
C77 H106 0.982 . S
C77 H107 0.979 . S
C77 H108 0.977 . S
C78 C65 1.684 . S
C78 H103 0.979 . S
C78 H104 0.980 . S
C78 H105 0.983 . S
C79 C80 1.391 . S
C79 C84 1.391 . S
C79 H109 0.948 . S
C80 C79 1.391 . S
C80 C81 1.391 . S
C81 C80 1.391 . S
C81 C82 1.392 . S
C81 H110 0.947 . S
C82 C81 1.392 . S
C82 C83 1.419 . S
C82 H111 0.948 . S
C83 C82 1.419 . S
C83 C84 1.391 . S
C83 C87 1.397 . S
C84 C79 1.391 . S
C84 C83 1.391 . S
C84 C85 1.399 . S
C85 C84 1.399 . S
C85 C86 1.396 . S
C85 C88 1.453 . S
C85 C89 1.684 . S
C86 C67 1.723 . S
C86 C85 1.396 . S
C86 C87 1.394 . S
C87 C83 1.397 . S
C87 C86 1.394 . S
C87 C97 1.723 . S
C88 C85 1.453 . S
C88 H112 0.982 . S
C88 H113 0.979 . S
C88 H114 0.977 . S
C89 C85 1.684 . S
C89 H115 0.979 . S
C89 H116 0.980 . S
C89 H117 0.983 . S
C90 H66 0.948 . S
C90 C91 1.391 . S
C90 C95 1.391 . S
C91 C90 1.391 . S
C91 C92 1.391 . S
C92 H69 0.947 . S
C92 C91 1.391 . S
C92 C93 1.392 . S
C93 H70 0.948 . S
C93 C92 1.392 . S
C93 C94 1.419 . S
C94 C93 1.419 . S
C94 C95 1.391 . S
C94 C98 1.397 . S
C95 C90 1.391 . S
C95 C94 1.391 . S
C95 C96 1.399 . S
C96 C95 1.399 . S
C96 C97 1.396 . S
C96 C99 1.453 . S
C96 C100 1.684 . S
C97 C87 1.723 . S
C97 C96 1.396 . S
C97 C98 1.394 . S
C98 C68 1.723 . S
C98 C94 1.397 . S
C98 C97 1.394 . S
C99 H71 0.982 . S
C99 H75 0.979 . S
C99 H76 0.977 . S
C99 C96 1.453 . S
C100 H72 0.979 . S
C100 H73 0.980 . S
C100 H74 0.983 . S
C100 C96 1.684 . S
H101 C119 0.948 . S
H102 C60 0.948 . S
H103 C78 0.979 . S
H104 C78 0.980 . S
H105 C78 0.983 . S
H106 C77 0.982 . S
H107 C77 0.979 . S
H108 C77 0.977 . S
H109 C79 0.948 . S
H110 C81 0.947 . S
H111 C82 0.948 . S
H112 C88 0.982 . S
H113 C88 0.979 . S
H114 C88 0.977 . S
H115 C89 0.979 . S
H116 C89 0.980 . S
H117 C89 0.983 . S
H118 C62 0.947 . S
C119 C62 1.392 . S
C119 C63 1.419 . S
C119 H101 0.948 . S
C120 C121 1.391 . S
C120 C124 1.391 . S
C120 H162 0.948 . S
C121 C120 1.391 . S
C121 C122 1.391 . S
C122 C121 1.391 . S
C122 H178 0.947 . S
C122 C179 1.392 . S
C123 C124 1.391 . S
C123 C127 1.397 . S
C123 C179 1.419 . S
C124 C120 1.391 . S
C124 C123 1.391 . S
C124 C125 1.399 . S
C125 C124 1.399 . S
C125 C128 1.396 . S
C125 C137 1.453 . S
C125 C138 1.684 . S
H126 C150 0.948 . S
C127 C123 1.397 . S
C127 C128 1.394 . S
C127 C146 1.723 . S
C128 C125 1.396 . S
C128 C127 1.394 . S
C128 C158 1.723 . S
H129 C152 0.947 1_554 S
H130 C153 0.948 . S
H131 C159 0.982 . S
H132 C160 0.979 . S
H133 C160 0.980 . S
H134 C160 0.983 . S
H135 C159 0.979 . S
H136 C159 0.977 . S
C137 C125 1.453 . S
C137 H166 0.982 . S
C137 H167 0.979 1_556 S
C137 H168 0.977 . S
C138 C125 1.684 . S
C138 H163 0.979 . S
C138 H164 0.980 . S
C138 H165 0.983 . S
C139 C140 1.391 . S
C139 C144 1.391 . S
C139 H169 0.948 . S
C140 C139 1.391 . S
C140 C141 1.391 . S
C141 C140 1.391 . S
C141 C142 1.392 . S
C141 H170 0.947 . S
C142 C141 1.392 . S
C142 C143 1.419 . S
C142 H171 0.948 . S
C143 C142 1.419 . S
C143 C144 1.391 . S
C143 C147 1.397 . S
C144 C139 1.391 . S
C144 C143 1.391 . S
C144 C145 1.399 . S
C145 C144 1.399 . S
C145 C146 1.396 . S
C145 C148 1.453 . S
C145 C149 1.684 . S
C146 C127 1.723 . S
C146 C145 1.396 . S
C146 C147 1.394 . S
C147 C143 1.397 . S
C147 C146 1.394 . S
C147 C157 1.723 . S
C148 C145 1.453 . S
C148 H172 0.982 . S
C148 H173 0.979 . S
C148 H174 0.977 . S
C149 C145 1.684 . S
C149 H175 0.979 . S
C149 H176 0.980 . S
C149 H177 0.983 . S
C150 H126 0.948 . S
C150 C151 1.391 . S
C150 C155 1.391 . S
C151 C150 1.391 . S
C151 C152 1.391 . S
C152 H129 0.947 1_556 S
C152 C151 1.391 . S
C152 C153 1.392 . S
C153 H130 0.948 . S
C153 C152 1.392 . S
C153 C154 1.419 . S
C154 C153 1.419 . S
C154 C155 1.391 . S
C154 C158 1.397 . S
C155 C150 1.391 . S
C155 C154 1.391 . S
C155 C156 1.399 . S
C156 C155 1.399 . S
C156 C157 1.396 . S
C156 C159 1.453 . S
C156 C160 1.684 . S
C157 C147 1.723 . S
C157 C156 1.396 . S
C157 C158 1.394 . S
C158 C128 1.723 . S
C158 C154 1.397 . S
C158 C157 1.394 . S
C159 H131 0.982 . S
C159 H135 0.979 . S
C159 H136 0.977 . S
C159 C156 1.453 . S
C160 H132 0.979 . S
C160 H133 0.980 . S
C160 H134 0.983 . S
C160 C156 1.684 . S
H161 C179 0.948 . S
H162 C120 0.948 . S
H163 C138 0.979 . S
H164 C138 0.980 . S
H165 C138 0.983 . S
H166 C137 0.982 . S
H167 C137 0.979 1_554 S
H168 C137 0.977 . S
H169 C139 0.948 . S
H170 C141 0.947 . S
H171 C142 0.948 . S
H172 C148 0.982 . S
H173 C148 0.979 . S
H174 C148 0.977 . S
H175 C149 0.979 . S
H176 C149 0.980 . S
H177 C149 0.983 . S
H178 C122 0.947 . S
C179 C122 1.392 . S
C179 C123 1.419 . S
C179 H161 0.948 . S
C180 C181 1.391 . S
C180 C184 1.391 . S
C180 H222 0.948 . S
C181 C180 1.391 . S
C181 C182 1.391 . S
C182 C181 1.391 . S
C182 H238 0.947 . S
C182 C239 1.392 . S
C183 C184 1.391 . S
C183 C187 1.397 . S
C183 C239 1.419 . S
C184 C180 1.391 . S
C184 C183 1.391 . S
C184 C185 1.399 . S
C185 C184 1.399 . S
C185 C188 1.396 . S
C185 C197 1.453 . S
C185 C198 1.684 . S
H186 C210 0.948 . S
C187 C183 1.397 . S
C187 C188 1.394 . S
C187 C206 1.723 . S
C188 C185 1.396 . S
C188 C187 1.394 . S
C188 C218 1.723 . S
H189 C212 0.947 . S
H190 C213 0.948 . S
H191 C219 0.982 . S
H192 C220 0.979 . S
H193 C220 0.980 . S
H194 C220 0.983 . S
H195 C219 0.979 . S
H196 C219 0.977 . S
C197 C185 1.453 . S
C197 H226 0.982 . S
C197 H227 0.979 . S
C197 H228 0.977 . S
C198 C185 1.684 . S
C198 H223 0.979 . S
C198 H224 0.980 . S
C198 H225 0.983 . S
C199 C200 1.391 . S
C199 C204 1.391 . S
C199 H229 0.948 . S
C200 C199 1.391 . S
C200 C201 1.391 . S
C201 C200 1.391 . S
C201 C202 1.392 . S
C201 H230 0.947 . S
C202 C201 1.392 . S
C202 C203 1.419 . S
C202 H231 0.948 . S
C203 C202 1.419 . S
C203 C204 1.391 . S
C203 C207 1.397 . S
C204 C199 1.391 . S
C204 C203 1.391 . S
C204 C205 1.399 . S
C205 C204 1.399 . S
C205 C206 1.396 . S
C205 C208 1.453 . S
C205 C209 1.684 . S
C206 C187 1.723 . S
C206 C205 1.396 . S
C206 C207 1.394 . S
C207 C203 1.397 . S
C207 C206 1.394 . S
C207 C217 1.723 . S
C208 C205 1.453 . S
C208 H232 0.982 . S
C208 H233 0.979 . S
C208 H234 0.977 . S
C209 C205 1.684 . S
C209 H235 0.979 . S
C209 H236 0.980 . S
C209 H237 0.983 . S
C210 H186 0.948 . S
C210 C211 1.391 . S
C210 C215 1.391 . S
C211 C210 1.391 . S
C211 C212 1.391 . S
C212 H189 0.947 . S
C212 C211 1.391 . S
C212 C213 1.392 . S
C213 H190 0.948 . S
C213 C212 1.392 . S
C213 C214 1.419 . S
C214 C213 1.419 . S
C214 C215 1.391 . S
C214 C218 1.397 . S
C215 C210 1.391 . S
C215 C214 1.391 . S
C215 C216 1.399 . S
C216 C215 1.399 . S
C216 C217 1.396 . S
C216 C219 1.453 . S
C216 C220 1.684 . S
C217 C207 1.723 . S
C217 C216 1.396 . S
C217 C218 1.394 . S
C218 C188 1.723 . S
C218 C214 1.397 . S
C218 C217 1.394 . S
C219 H191 0.982 . S
C219 H195 0.979 . S
C219 H196 0.977 . S
C219 C216 1.453 . S
C220 H192 0.979 . S
C220 H193 0.980 . S
C220 H194 0.983 . S
C220 C216 1.684 . S
H221 C239 0.948 . S
H222 C180 0.948 . S
H223 C198 0.979 . S
H224 C198 0.980 . S
H225 C198 0.983 . S
H226 C197 0.982 . S
H227 C197 0.979 . S
H228 C197 0.977 . S
H229 C199 0.948 . S
H230 C201 0.947 . S
H231 C202 0.948 . S
H232 C208 0.982 . S
H233 C208 0.979 . S
H234 C208 0.977 . S
H235 C209 0.979 . S
H236 C209 0.980 . S
H237 C209 0.983 . S
H238 C182 0.947 . S
C239 C182 1.392 . S
C239 C183 1.419 . S
C239 H221 0.948 . S
C240 C241 1.391 . S
C240 C244 1.391 . S
C240 H282 0.948 . S
C241 C240 1.391 . S
C241 C242 1.391 . S
C242 C241 1.391 . S
C242 H298 0.947 . S
C242 C299 1.392 . S
C243 C244 1.391 . S
C243 C247 1.397 . S
C243 C299 1.419 . S
C244 C240 1.391 . S
C244 C243 1.391 . S
C244 C245 1.399 . S
C245 C244 1.399 . S
C245 C248 1.396 . S
C245 C257 1.453 . S
C245 C258 1.684 . S
H246 C270 0.948 . S
C247 C243 1.397 . S
C247 C248 1.394 . S
C247 C266 1.723 . S
C248 C245 1.396 . S
C248 C247 1.394 . S
C248 C278 1.723 . S
H249 C272 0.947 . S
H250 C273 0.948 . S
H251 C279 0.982 . S
H252 C280 0.979 . S
H253 C280 0.980 . S
H254 C280 0.983 . S
H255 C279 0.979 . S
H256 C279 0.977 . S
C257 C245 1.453 . S
C257 H286 0.982 . S
C257 H287 0.979 . S
C257 H288 0.977 . S
C258 C245 1.684 . S
C258 H283 0.979 . S
C258 H284 0.980 . S
C258 H285 0.983 . S
C259 C260 1.391 . S
C259 C264 1.391 . S
C259 H289 0.948 . S
C260 C259 1.391 . S
C260 C261 1.391 . S
C261 C260 1.391 . S
C261 C262 1.392 . S
C261 H290 0.947 . S
C262 C261 1.392 . S
C262 C263 1.419 . S
C262 H291 0.948 . S
C263 C262 1.419 . S
C263 C264 1.391 . S
C263 C267 1.397 . S
C264 C259 1.391 . S
C264 C263 1.391 . S
C264 C265 1.399 . S
C265 C264 1.399 . S
C265 C266 1.396 . S
C265 C268 1.453 . S
C265 C269 1.684 . S
C266 C247 1.723 . S
C266 C265 1.396 . S
C266 C267 1.394 . S
C267 C263 1.397 . S
C267 C266 1.394 . S
C267 C277 1.723 . S
C268 C265 1.453 . S
C268 H292 0.982 . S
C268 H293 0.979 . S
C268 H294 0.977 . S
C269 C265 1.684 . S
C269 H295 0.979 . S
C269 H296 0.980 . S
C269 H297 0.983 1_655 S
C270 H246 0.948 . S
C270 C271 1.391 . S
C270 C275 1.391 . S
C271 C270 1.391 . S
C271 C272 1.391 . S
C272 H249 0.947 . S
C272 C271 1.391 . S
C272 C273 1.392 . S
C273 H250 0.948 . S
C273 C272 1.392 . S
C273 C274 1.419 . S
C274 C273 1.419 . S
C274 C275 1.391 . S
C274 C278 1.397 . S
C275 C270 1.391 . S
C275 C274 1.391 . S
C275 C276 1.399 . S
C276 C275 1.399 . S
C276 C277 1.396 . S
C276 C279 1.453 . S
C276 C280 1.684 . S
C277 C267 1.723 . S
C277 C276 1.396 . S
C277 C278 1.394 . S
C278 C248 1.723 . S
C278 C274 1.397 . S
C278 C277 1.394 . S
C279 H251 0.982 . S
C279 H255 0.979 . S
C279 H256 0.977 . S
C279 C276 1.453 . S
C280 H252 0.979 . S
C280 H253 0.980 . S
C280 H254 0.983 . S
C280 C276 1.684 . S
H281 C299 0.948 . S
H282 C240 0.948 . S
H283 C258 0.979 . S
H284 C258 0.980 . S
H285 C258 0.983 . S
H286 C257 0.982 . S
H287 C257 0.979 . S
H288 C257 0.977 . S
H289 C259 0.948 . S
H290 C261 0.947 . S
H291 C262 0.948 . S
H292 C268 0.982 . S
H293 C268 0.979 . S
H294 C268 0.977 . S
H295 C269 0.979 . S
H296 C269 0.980 . S
H297 C269 0.983 1_455 S
H298 C242 0.947 . S
C299 C242 1.392 . S
C299 C243 1.419 . S
C299 H281 0.948 . S
C300 C301 1.391 . S
C300 C304 1.391 . S
C300 H342 0.948 . S
C301 C300 1.391 . S
C301 C302 1.391 . S
C302 C301 1.391 . S
C302 H358 0.947 . S
C302 C359 1.392 . S
C303 C304 1.391 . S
C303 C307 1.397 . S
C303 C359 1.419 . S
C304 C300 1.391 . S
C304 C303 1.391 . S
C304 C305 1.399 . S
C305 C304 1.399 . S
C305 C308 1.396 . S
C305 C317 1.453 . S
C305 C318 1.684 . S
H306 C330 0.948 . S
C307 C303 1.397 . S
C307 C308 1.394 . S
C307 C326 1.723 . S
C308 C305 1.396 . S
C308 C307 1.394 . S
C308 C338 1.723 . S
H309 C332 0.947 . S
H310 C333 0.948 . S
H311 C339 0.982 . S
H312 C340 0.979 . S
H313 C340 0.980 . S
H314 C340 0.983 . S
H315 C339 0.979 . S
H316 C339 0.977 . S
C317 C305 1.453 . S
C317 H346 0.982 . S
C317 H347 0.979 . S
C317 H348 0.977 . S
C318 C305 1.684 . S
C318 H343 0.979 . S
C318 H344 0.980 . S
C318 H345 0.983 . S
C319 C320 1.391 . S
C319 C324 1.391 . S
C319 H349 0.948 . S
C320 C319 1.391 . S
C320 C321 1.391 . S
C321 C320 1.391 . S
C321 C322 1.392 . S
C321 H350 0.947 . S
C322 C321 1.392 . S
C322 C323 1.419 . S
C322 H351 0.948 . S
C323 C322 1.419 . S
C323 C324 1.391 . S
C323 C327 1.397 . S
C324 C319 1.391 . S
C324 C323 1.391 . S
C324 C325 1.399 . S
C325 C324 1.399 . S
C325 C326 1.396 . S
C325 C328 1.453 . S
C325 C329 1.684 . S
C326 C307 1.723 . S
C326 C325 1.396 . S
C326 C327 1.394 . S
C327 C323 1.397 . S
C327 C326 1.394 . S
C327 C337 1.723 . S
C328 C325 1.453 . S
C328 H352 0.982 . S
C328 H353 0.979 . S
C328 H354 0.977 . S
C329 C325 1.684 . S
C329 H355 0.979 . S
C329 H356 0.980 . S
C329 H357 0.983 . S
C330 H306 0.948 . S
C330 C331 1.391 . S
C330 C335 1.391 . S
C331 C330 1.391 . S
C331 C332 1.391 . S
C332 H309 0.947 . S
C332 C331 1.391 . S
C332 C333 1.392 . S
C333 H310 0.948 . S
C333 C332 1.392 . S
C333 C334 1.419 . S
C334 C333 1.419 . S
C334 C335 1.391 . S
C334 C338 1.397 . S
C335 C330 1.391 . S
C335 C334 1.391 . S
C335 C336 1.399 . S
C336 C335 1.399 . S
C336 C337 1.396 . S
C336 C339 1.453 . S
C336 C340 1.684 . S
C337 C327 1.723 . S
C337 C336 1.396 . S
C337 C338 1.394 . S
C338 C308 1.723 . S
C338 C334 1.397 . S
C338 C337 1.394 . S
C339 H311 0.982 . S
C339 H315 0.979 . S
C339 H316 0.977 . S
C339 C336 1.453 . S
C340 H312 0.979 . S
C340 H313 0.980 . S
C340 H314 0.983 . S
C340 C336 1.684 . S
H341 C359 0.948 . S
H342 C300 0.948 . S
H343 C318 0.979 . S
H344 C318 0.980 . S
H345 C318 0.983 . S
H346 C317 0.982 . S
H347 C317 0.979 . S
H348 C317 0.977 . S
H349 C319 0.948 . S
H350 C321 0.947 . S
H351 C322 0.948 . S
H352 C328 0.982 . S
H353 C328 0.979 . S
H354 C328 0.977 . S
H355 C329 0.979 . S
H356 C329 0.980 . S
H357 C329 0.983 . S
H358 C302 0.947 . S
C359 C302 1.392 . S
C359 C303 1.419 . S
C359 H341 0.948 . S
C360 C361 1.391 . S
C360 C364 1.391 . S
C360 H402 0.948 . S
C361 C360 1.391 . S
C361 C362 1.391 . S
C362 C361 1.391 . S
C362 H418 0.947 . S
C362 C419 1.392 . S
C363 C364 1.391 . S
C363 C367 1.397 . S
C363 C419 1.419 . S
C364 C360 1.391 . S
C364 C363 1.391 . S
C364 C365 1.399 . S
C365 C364 1.399 . S
C365 C368 1.396 . S
C365 C377 1.453 . S
C365 C378 1.684 . S
H366 C390 0.948 . S
C367 C363 1.397 . S
C367 C368 1.394 . S
C367 C386 1.723 . S
C368 C365 1.396 . S
C368 C367 1.394 . S
C368 C398 1.723 . S
H369 C392 0.947 . S
H370 C393 0.948 . S
H371 C399 0.982 . S
H372 C400 0.979 . S
H373 C400 0.980 . S
H374 C400 0.983 . S
H375 C399 0.979 . S
H376 C399 0.977 . S
C377 C365 1.453 . S
C377 H406 0.982 . S
C377 H407 0.979 . S
C377 H408 0.977 . S
C378 C365 1.684 . S
C378 H403 0.979 . S
C378 H404 0.980 . S
C378 H405 0.983 . S
C379 C380 1.391 . S
C379 C384 1.391 . S
C379 H409 0.948 . S
C380 C379 1.391 . S
C380 C381 1.391 . S
C381 C380 1.391 . S
C381 C382 1.392 . S
C381 H410 0.947 1_554 S
C382 C381 1.392 . S
C382 C383 1.419 . S
C382 H411 0.948 . S
C383 C382 1.419 . S
C383 C384 1.391 . S
C383 C387 1.397 . S
C384 C379 1.391 . S
C384 C383 1.391 . S
C384 C385 1.399 . S
C385 C384 1.399 . S
C385 C386 1.396 . S
C385 C388 1.453 . S
C385 C389 1.684 . S
C386 C367 1.723 . S
C386 C385 1.396 . S
C386 C387 1.394 . S
C387 C383 1.397 . S
C387 C386 1.394 . S
C387 C397 1.723 . S
C388 C385 1.453 . S
C388 H412 0.982 . S
C388 H413 0.979 . S
C388 H414 0.977 . S
C389 C385 1.684 . S
C389 H415 0.979 . S
C389 H416 0.980 . S
C389 H417 0.983 . S
C390 H366 0.948 . S
C390 C391 1.391 . S
C390 C395 1.391 . S
C391 C390 1.391 . S
C391 C392 1.391 . S
C392 H369 0.947 . S
C392 C391 1.391 . S
C392 C393 1.392 . S
C393 H370 0.948 . S
C393 C392 1.392 . S
C393 C394 1.419 . S
C394 C393 1.419 . S
C394 C395 1.391 . S
C394 C398 1.397 . S
C395 C390 1.391 . S
C395 C394 1.391 . S
C395 C396 1.399 . S
C396 C395 1.399 . S
C396 C397 1.396 . S
C396 C399 1.453 . S
C396 C400 1.684 1_554 S
C397 C387 1.723 . S
C397 C396 1.396 . S
C397 C398 1.394 . S
C398 C368 1.723 . S
C398 C394 1.397 . S
C398 C397 1.394 . S
C399 H371 0.982 . S
C399 H375 0.979 . S
C399 H376 0.977 . S
C399 C396 1.453 . S
C400 H372 0.979 . S
C400 H373 0.980 . S
C400 H374 0.983 . S
C400 C396 1.684 1_556 S
H401 C419 0.948 . S
H402 C360 0.948 . S
H403 C378 0.979 . S
H404 C378 0.980 . S
H405 C378 0.983 . S
H406 C377 0.982 . S
H407 C377 0.979 . S
H408 C377 0.977 . S
H409 C379 0.948 . S
H410 C381 0.947 1_556 S
H411 C382 0.948 . S
H412 C388 0.982 . S
H413 C388 0.979 . S
H414 C388 0.977 . S
H415 C389 0.979 . S
H416 C389 0.980 . S
H417 C389 0.983 . S
H418 C362 0.947 . S
C419 C362 1.392 . S
C419 C363 1.419 . S
C419 H401 0.948 . S
C420 C421 1.391 . S
C420 C424 1.391 . S
C420 H462 0.948 . S
C421 C420 1.391 . S
C421 C422 1.391 . S
C422 C421 1.391 . S
C422 H478 0.947 . S
C422 C479 1.392 . S
C423 C424 1.391 . S
C423 C427 1.397 . S
C423 C479 1.419 . S
C424 C420 1.391 . S
C424 C423 1.391 . S
C424 C425 1.399 . S
C425 C424 1.399 . S
C425 C428 1.396 . S
C425 C437 1.453 . S
C425 C438 1.684 . S
H426 C450 0.948 . S
C427 C423 1.397 . S
C427 C428 1.394 . S
C427 C446 1.723 . S
C428 C425 1.396 . S
C428 C427 1.394 . S
C428 C458 1.723 . S
H429 C452 0.947 . S
H430 C453 0.948 . S
H431 C459 0.982 . S
H432 C460 0.979 . S
H433 C460 0.980 . S
H434 C460 0.983 . S
H435 C459 0.979 . S
H436 C459 0.977 . S
C437 C425 1.453 . S
C437 H466 0.982 . S
C437 H467 0.979 . S
C437 H468 0.977 . S
C438 C425 1.684 . S
C438 H463 0.979 . S
C438 H464 0.980 . S
C438 H465 0.983 . S
C439 C440 1.391 . S
C439 C444 1.391 . S
C439 H469 0.948 . S
C440 C439 1.391 . S
C440 C441 1.391 . S
C441 C440 1.391 . S
C441 C442 1.392 . S
C441 H470 0.947 . S
C442 C441 1.392 . S
C442 C443 1.419 . S
C442 H471 0.948 . S
C443 C442 1.419 . S
C443 C444 1.391 . S
C443 C447 1.397 . S
C444 C439 1.391 . S
C444 C443 1.391 . S
C444 C445 1.399 . S
C445 C444 1.399 . S
C445 C446 1.396 . S
C445 C448 1.453 . S
C445 C449 1.684 . S
C446 C427 1.723 . S
C446 C445 1.396 . S
C446 C447 1.394 . S
C447 C443 1.397 . S
C447 C446 1.394 . S
C447 C457 1.723 . S
C448 C445 1.453 . S
C448 H472 0.982 . S
C448 H473 0.979 . S
C448 H474 0.977 . S
C449 C445 1.684 . S
C449 H475 0.979 . S
C449 H476 0.980 . S
C449 H477 0.983 . S
C450 H426 0.948 . S
C450 C451 1.391 . S
C450 C455 1.391 . S
C451 C450 1.391 . S
C451 C452 1.391 . S
C452 H429 0.947 . S
C452 C451 1.391 . S
C452 C453 1.392 . S
C453 H430 0.948 . S
C453 C452 1.392 . S
C453 C454 1.419 . S
C454 C453 1.419 . S
C454 C455 1.391 . S
C454 C458 1.397 . S
C455 C450 1.391 . S
C455 C454 1.391 . S
C455 C456 1.399 . S
C456 C455 1.399 . S
C456 C457 1.396 . S
C456 C459 1.453 . S
C456 C460 1.684 . S
C457 C447 1.723 . S
C457 C456 1.396 . S
C457 C458 1.394 . S
C458 C428 1.723 . S
C458 C454 1.397 . S
C458 C457 1.394 . S
C459 H431 0.982 . S
C459 H435 0.979 . S
C459 H436 0.977 . S
C459 C456 1.453 . S
C460 H432 0.979 . S
C460 H433 0.980 . S
C460 H434 0.983 . S
C460 C456 1.684 . S
H461 C479 0.948 . S
H462 C420 0.948 . S
H463 C438 0.979 . S
H464 C438 0.980 . S
H465 C438 0.983 . S
H466 C437 0.982 . S
H467 C437 0.979 . S
H468 C437 0.977 . S
H469 C439 0.948 . S
H470 C441 0.947 . S
H471 C442 0.948 . S
H472 C448 0.982 . S
H473 C448 0.979 . S
H474 C448 0.977 . S
H475 C449 0.979 . S
H476 C449 0.980 . S
H477 C449 0.983 . S
H478 C422 0.947 . S
C479 C422 1.392 . S
C479 C423 1.419 . S
C479 H461 0.948 . S
C480 O496 1.251 . S
C480 O498 1.254 1_545 S
N481 C482 1.333 . S
N481 C486 1.307 . S
N481 Zn487 2.020 . S
C482 N481 1.333 . S
C482 C483 1.379 . S
C482 H500 0.952 . S
C483 C482 1.379 . S
C483 C484 1.390 . S
C483 H510 0.949 . S
C484 C483 1.390 . S
C484 C485 1.357 . S
C485 C484 1.357 . S
C485 C486 1.370 . S
C485 H511 0.950 . S
C486 N481 1.307 . S
C486 C485 1.370 . S
C486 H504 0.948 1_455 S
Zn487 N481 2.020 . S
Zn487 O496 2.039 . S
Zn487 O502 2.034 . S
Zn487 O506 2.025 1_455 S
Zn487 O508 2.024 1_455 S
C488 O507 1.246 1_545 S
C488 O508 1.249 . S
N489 C490 1.307 . S
N489 C491 1.333 . S
N489 Zn495 2.020 . S
C490 N489 1.307 . S
C490 C494 1.370 . S
C490 H501 0.948 1_655 S
C491 N489 1.333 . S
C491 C492 1.379 . S
C491 H499 0.952 . S
C492 C491 1.379 . S
C492 C493 1.390 . S
C492 H512 0.949 . S
C493 C492 1.390 . S
C493 C494 1.357 . S
C494 C490 1.370 . S
C494 C493 1.357 . S
C494 H513 0.950 . S
Zn495 N489 2.020 . S
Zn495 O498 2.025 1_655 S
Zn495 O503 2.024 1_655 S
Zn495 O505 2.039 . S
Zn495 O507 2.034 . S
O496 C480 1.251 . S
O496 Zn487 2.039 . S
C497 O502 1.246 1_565 S
C497 O503 1.249 . S
O498 C480 1.254 1_565 S
O498 Zn495 2.025 1_455 S
H499 C491 0.952 . S
H500 C482 0.952 . S
H501 C490 0.948 1_455 S
O502 Zn487 2.034 . S
O502 C497 1.246 1_545 S
O503 Zn495 2.024 1_455 S
O503 C497 1.249 . S
H504 C486 0.948 1_655 S
O505 Zn495 2.039 . S
O505 C509 1.251 . S
O506 Zn487 2.025 1_655 S
O506 C509 1.254 1_545 S
O507 C488 1.246 1_565 S
O507 Zn495 2.034 . S
O508 Zn487 2.024 1_655 S
O508 C488 1.249 . S
C509 O505 1.251 . S
C509 O506 1.254 1_565 S
H510 C483 0.949 . S
H511 C485 0.950 . S
H512 C492 0.949 . S
H513 C494 0.950 . S
C514 O530 1.251 1_565 S
C514 O532 1.254 . S
N515 C516 1.333 . S
N515 C520 1.307 . S
N515 Zn521 2.020 . S
C516 N515 1.333 . S
C516 C517 1.379 . S
C516 H534 0.952 . S
C517 C516 1.379 . S
C517 C518 1.390 . S
C517 H544 0.949 . S
C518 C517 1.390 . S
C518 C519 1.357 . S
C519 C518 1.357 . S
C519 C520 1.370 . S
C519 H545 0.950 . S
C520 N515 1.307 . S
C520 C519 1.370 . S
C520 H538 0.948 . S
Zn521 N515 2.020 . S
Zn521 O530 2.039 . S
Zn521 O536 2.034 1_556 S
Zn521 O540 2.025 1_556 S
Zn521 O542 2.024 . S
C522 O541 1.246 . S
C522 O542 1.249 1_565 S
N523 C524 1.307 . S
N523 C525 1.333 . S
N523 Zn529 2.020 . S
C524 N523 1.307 . S
C524 C528 1.370 . S
C524 H535 0.948 . S
C525 N523 1.333 . S
C525 C526 1.379 . S
C525 H533 0.952 . S
C526 C525 1.379 . S
C526 C527 1.390 . S
C526 H546 0.949 . S
C527 C526 1.390 . S
C527 C528 1.357 . S
C528 C524 1.370 . S
C528 C527 1.357 . S
C528 H547 0.950 . S
Zn529 N523 2.020 . S
Zn529 O532 2.025 1_554 S
Zn529 O537 2.024 . S
Zn529 O539 2.039 . S
Zn529 O541 2.034 1_554 S
O530 C514 1.251 1_545 S
O530 Zn521 2.039 . S
C531 O536 1.246 . S
C531 O537 1.249 1_545 S
O532 C514 1.254 . S
O532 Zn529 2.025 1_556 S
H533 C525 0.952 . S
H534 C516 0.952 . S
H535 C524 0.948 . S
O536 Zn521 2.034 1_554 S
O536 C531 1.246 . S
O537 Zn529 2.024 . S
O537 C531 1.249 1_565 S
H538 C520 0.948 . S
O539 Zn529 2.039 . S
O539 C543 1.251 1_565 S
O540 Zn521 2.025 1_554 S
O540 C543 1.254 . S
O541 C522 1.246 . S
O541 Zn529 2.034 1_556 S
O542 Zn521 2.024 . S
O542 C522 1.249 1_545 S
C543 O539 1.251 1_545 S
C543 O540 1.254 . S
H544 C517 0.949 . S
H545 C519 0.950 . S
H546 C526 0.949 . S
H547 C528 0.950 . S
C548 O564 1.251 . S
C548 O566 1.254 . S
N549 C550 1.333 . S
N549 C554 1.307 . S
N549 Zn555 2.020 . S
C550 N549 1.333 . S
C550 C551 1.379 . S
C550 H568 0.952 . S
C551 C550 1.379 . S
C551 C552 1.390 . S
C551 H578 0.949 . S
C552 C551 1.390 . S
C552 C553 1.357 . S
C553 C552 1.357 . S
C553 C554 1.370 . S
C553 H579 0.950 . S
C554 N549 1.307 . S
C554 C553 1.370 . S
C554 H572 0.948 . S
Zn555 N549 2.020 . S
Zn555 O564 2.039 . S
Zn555 O570 2.034 . S
Zn555 O574 2.025 . S
Zn555 O576 2.024 . S
C556 O575 1.246 . S
C556 O576 1.249 . S
N557 C558 1.307 . S
N557 C559 1.333 . S
N557 Zn563 2.020 . S
C558 N557 1.307 . S
C558 C562 1.370 . S
C558 H569 0.948 . S
C559 N557 1.333 . S
C559 C560 1.379 . S
C559 H567 0.952 . S
C560 C559 1.379 . S
C560 C561 1.390 . S
C560 H580 0.949 . S
C561 C560 1.390 . S
C561 C562 1.357 . S
C562 C558 1.370 . S
C562 C561 1.357 . S
C562 H581 0.950 . S
Zn563 N557 2.020 . S
Zn563 O566 2.025 . S
Zn563 O571 2.024 . S
Zn563 O573 2.039 . S
Zn563 O575 2.034 . S
O564 C548 1.251 . S
O564 Zn555 2.039 . S
C565 O570 1.246 . S
C565 O571 1.249 . S
O566 C548 1.254 . S
O566 Zn563 2.025 . S
H567 C559 0.952 . S
H568 C550 0.952 . S
H569 C558 0.948 . S
O570 Zn555 2.034 . S
O570 C565 1.246 . S
O571 Zn563 2.024 . S
O571 C565 1.249 . S
H572 C554 0.948 . S
O573 Zn563 2.039 . S
O573 C577 1.251 . S
O574 Zn555 2.025 . S
O574 C577 1.254 . S
O575 C556 1.246 . S
O575 Zn563 2.034 . S
O576 Zn555 2.024 . S
O576 C556 1.249 . S
C577 O573 1.251 . S
C577 O574 1.254 . S
H578 C551 0.949 . S
H579 C553 0.950 . S
H580 C560 0.949 . S
H581 C562 0.950 . S
C582 O598 1.251 1_556 S
C582 O600 1.254 . S
N583 C584 1.333 . S
N583 C588 1.307 . S
N583 Zn589 2.020 . S
C584 N583 1.333 . S
C584 C585 1.379 . S
C584 H602 0.952 . S
C585 C584 1.379 . S
C585 C586 1.390 . S
C585 H612 0.949 . S
C586 C585 1.390 . S
C586 C587 1.357 . S
C587 C586 1.357 . S
C587 C588 1.370 . S
C587 H613 0.950 . S
C588 N583 1.307 . S
C588 C587 1.370 . S
C588 H606 0.948 . S
Zn589 N583 2.020 . S
Zn589 O598 2.039 . S
Zn589 O604 2.034 1_655 S
Zn589 O608 2.025 1_655 S
Zn589 O610 2.024 . S
C590 O609 1.246 . S
C590 O610 1.249 1_556 S
N591 C592 1.307 . S
N591 C593 1.333 . S
N591 Zn597 2.020 . S
C592 N591 1.307 . S
C592 C596 1.370 . S
C592 H603 0.948 . S
C593 N591 1.333 . S
C593 C594 1.379 . S
C593 H601 0.952 . S
C594 C593 1.379 . S
C594 C595 1.390 . S
C594 H614 0.949 . S
C595 C594 1.390 . S
C595 C596 1.357 . S
C596 C592 1.370 . S
C596 C595 1.357 . S
C596 H615 0.950 . S
Zn597 N591 2.020 . S
Zn597 O600 2.025 1_455 S
Zn597 O605 2.024 . S
Zn597 O607 2.039 . S
Zn597 O609 2.034 1_455 S
O598 C582 1.251 1_554 S
O598 Zn589 2.039 . S
C599 O604 1.246 . S
C599 O605 1.249 1_554 S
O600 C582 1.254 . S
O600 Zn597 2.025 1_655 S
H601 C593 0.952 . S
H602 C584 0.952 . S
H603 C592 0.948 . S
O604 Zn589 2.034 1_455 S
O604 C599 1.246 . S
O605 Zn597 2.024 . S
O605 C599 1.249 1_556 S
H606 C588 0.948 . S
O607 Zn597 2.039 . S
O607 C611 1.251 1_556 S
O608 Zn589 2.025 1_455 S
O608 C611 1.254 . S
O609 C590 1.246 . S
O609 Zn597 2.034 1_655 S
O610 Zn589 2.024 . S
O610 C590 1.249 1_554 S
C611 O607 1.251 1_554 S
C611 O608 1.254 . S
H612 C585 0.949 . S
H613 C587 0.950 . S
H614 C594 0.949 . S
H615 C596 0.950 . S
C616 C617 1.369 . S
C616 C618 1.419 . S
C616 H620 0.930 . S
C617 C616 1.369 . S
C617 C626 1.429 . S
C618 C616 1.419 . S
C618 C619 1.363 . S
C618 H621 0.944 . S
C619 C618 1.363 . S
C619 C625 1.428 . S
H620 C616 0.930 . S
H621 C618 0.944 . S
S622 N623 1.613 . S
S622 N624 1.610 . S
N623 S622 1.613 . S
N623 C626 1.350 1_565 S
N624 S622 1.610 . S
N624 C625 1.351 1_565 S
C625 C619 1.428 . S
C625 N624 1.351 1_545 S
C625 C626 1.434 . S
C626 C617 1.429 . S
C626 N623 1.350 1_545 S
C626 C625 1.434 . S
C627 C628 1.369 . S
C627 C629 1.419 . S
C627 H631 0.930 . S
C628 C627 1.369 . S
C628 C637 1.429 . S
C629 C627 1.419 . S
C629 C630 1.363 . S
C629 H632 0.929 . S
C630 C629 1.363 . S
C630 C636 1.428 . S
H631 C627 0.930 . S
H632 C629 0.929 . S
S633 N634 1.613 . S
S633 N635 1.610 . S
N634 S633 1.613 . S
N634 C637 1.350 1_545 S
N635 S633 1.610 . S
N635 C636 1.351 1_545 S
C636 C630 1.428 . S
C636 N635 1.351 1_565 S
C636 C637 1.434 . S
C637 C628 1.429 . S
C637 N634 1.350 1_565 S
C637 C636 1.434 . S
C638 C639 1.369 . S
C638 C640 1.419 . S
C638 H642 0.930 . S
C639 C638 1.369 . S
C639 C648 1.429 . S
C640 C638 1.419 . S
C640 C641 1.363 . S
C640 H643 0.929 . S
C641 C640 1.363 . S
C641 C647 1.428 . S
H642 C638 0.930 . S
H643 C640 0.929 . S
S644 N645 1.613 . S
S644 N646 1.610 . S
N645 S644 1.613 . S
N645 C648 1.350 . S
N646 S644 1.610 . S
N646 C647 1.351 . S
C647 C641 1.428 . S
C647 N646 1.351 . S
C647 C648 1.434 . S
C648 C639 1.429 . S
C648 N645 1.350 . S
C648 C647 1.434 . S
C649 C650 1.369 . S
C649 C651 1.419 . S
C649 H653 0.930 . S
C650 C649 1.369 . S
C650 C659 1.429 . S
C651 C649 1.419 . S
C651 C652 1.363 . S
C651 H654 0.929 . S
C652 C651 1.363 . S
C652 C658 1.428 . S
H653 C649 0.930 . S
H654 C651 0.929 . S
S655 N656 1.613 . S
S655 N657 1.610 . S
N656 S655 1.613 . S
N656 C659 1.350 . S
N657 S655 1.610 . S
N657 C658 1.351 . S
C658 C652 1.428 . S
C658 N657 1.351 . S
C658 C659 1.434 . S
C659 C650 1.429 . S
C659 N656 1.350 . S
C659 C658 1.434 . S
C660 C661 1.369 . S
C660 C662 1.419 . S
C660 H664 0.930 . S
C661 C660 1.369 . S
C661 C670 1.429 . S
C662 C660 1.419 . S
C662 C663 1.363 . S
C662 H665 0.929 . S
C663 C662 1.363 . S
C663 C669 1.428 . S
H664 C660 0.930 . S
H665 C662 0.929 . S
S666 N667 1.613 1_565 S
S666 N668 1.610 1_565 S
N667 S666 1.613 1_545 S
N667 C670 1.350 1_556 S
N668 S666 1.610 1_545 S
N668 C669 1.351 1_556 S
C669 C663 1.428 . S
C669 N668 1.351 1_554 S
C669 C670 1.434 . S
C670 C661 1.429 . S
C670 N667 1.350 1_554 S
C670 C669 1.434 . S
C671 C672 1.369 . S
C671 C673 1.419 . S
C671 H675 0.930 1_565 S
C672 C671 1.369 . S
C672 C681 1.429 . S
C673 C671 1.419 . S
C673 C674 1.363 . S
C673 H676 0.929 1_565 S
C674 C673 1.363 . S
C674 C680 1.428 . S
H675 C671 0.930 1_545 S
H676 C673 0.929 1_545 S
S677 N678 1.613 . S
S677 N679 1.610 . S
N678 S677 1.613 . S
N678 C681 1.350 . S
N679 S677 1.610 . S
N679 C680 1.351 . S
C680 C674 1.428 . S
C680 N679 1.351 . S
C680 C681 1.434 . S
C681 C672 1.429 . S
C681 N678 1.350 . S
C681 C680 1.434 . S
C682 C683 1.369 1_554 S
C682 C684 1.419 . S
C682 H686 0.930 . S
C683 C682 1.369 1_556 S
C683 C692 1.429 . S
C684 C682 1.419 . S
C684 C685 1.363 1_554 S
C684 H687 0.929 . S
C685 C684 1.363 1_556 S
C685 C691 1.428 . S
H686 C682 0.930 . S
H687 C684 0.929 . S
S688 N689 1.613 . S
S688 N690 1.610 . S
N689 S688 1.613 . S
N689 C692 1.350 . S
N690 S688 1.610 . S
N690 C691 1.351 . S
C691 C685 1.428 . S
C691 N690 1.351 . S
C691 C692 1.434 . S
C692 C683 1.429 . S
C692 N689 1.350 . S
C692 C691 1.434 . S
C693 C694 1.369 . S
C693 C695 1.419 . S
C693 H697 0.930 . S
C694 C693 1.369 . S
C694 C703 1.429 . S
C695 C693 1.419 . S
C695 C696 1.363 . S
C695 H698 0.929 . S
C696 C695 1.363 . S
C696 C702 1.428 . S
H697 C693 0.930 . S
H698 C695 0.929 . S
S699 N700 1.613 . S
S699 N701 1.610 . S
N700 S699 1.613 . S
N700 C703 1.350 . S
N701 S699 1.610 . S
N701 C702 1.351 . S
C702 C696 1.428 . S
C702 N701 1.351 . S
C702 C703 1.434 . S
C703 C694 1.429 . S
C703 N700 1.350 . S
C703 C702 1.434 . S
C704 C705 1.369 . S
C704 C706 1.419 . S
C704 H708 0.930 . S
C705 C704 1.369 . S
C705 C714 1.429 . S
C706 C704 1.419 . S
C706 C707 1.363 . S
C706 H709 0.929 . S
C707 C706 1.363 . S
C707 C713 1.428 . S
H708 C704 0.930 . S
H709 C706 0.929 . S
S710 N711 1.613 1_556 S
S710 N712 1.610 . S
N711 S710 1.613 1_554 S
N711 C714 1.350 . S
N712 S710 1.610 . S
N712 C713 1.351 1_556 S
C713 C707 1.428 . S
C713 N712 1.351 1_554 S
C713 C714 1.434 . S
C714 C705 1.429 . S
C714 N711 1.350 . S
C714 C713 1.434 . S
C715 C716 1.369 . S
C715 C717 1.419 . S
C715 H719 0.930 . S
C716 C715 1.369 . S
C716 C725 1.429 . S
C717 C715 1.419 . S
C717 C718 1.363 . S
C717 H720 0.929 . S
C718 C717 1.363 . S
C718 C724 1.428 . S
H719 C715 0.930 . S
H720 C717 0.929 . S
S721 N722 1.613 . S
S721 N723 1.610 . S
N722 S721 1.613 . S
N722 C725 1.350 . S
N723 S721 1.610 . S
N723 C724 1.351 . S
C724 C718 1.428 . S
C724 N723 1.351 . S
C724 C725 1.434 . S
C725 C716 1.429 . S
C725 N722 1.350 . S
C725 C724 1.434 . S
C726 C727 1.369 . S
C726 C728 1.419 . S
C726 H730 0.930 . S
C727 C726 1.369 . S
C727 C736 1.429 . S
C728 C726 1.419 . S
C728 C729 1.363 . S
C728 H731 0.929 . S
C729 C728 1.363 . S
C729 C735 1.428 . S
H730 C726 0.930 . S
H731 C728 0.929 . S
S732 N733 1.613 1_455 S
S732 N734 1.610 1_455 S
N733 S732 1.613 1_655 S
N733 C736 1.350 . S
N734 S732 1.610 1_655 S
N734 C735 1.351 . S
C735 C729 1.428 . S
C735 N734 1.351 . S
C735 C736 1.434 . S
C736 C727 1.429 . S
C736 N733 1.350 . S
C736 C735 1.434 . S
C737 C738 1.369 . S
C737 C739 1.419 . S
C737 H741 0.930 . S
C738 C737 1.369 . S
C738 C747 1.429 . S
C739 C737 1.419 . S
C739 C740 1.363 . S
C739 H742 0.929 . S
C740 C739 1.363 . S
C740 C746 1.428 . S
H741 C737 0.930 . S
H742 C739 0.929 . S
S743 N744 1.613 . S
S743 N745 1.610 . S
N744 S743 1.613 . S
N744 C747 1.350 . S
N745 S743 1.610 . S
N745 C746 1.351 . S
C746 C740 1.428 . S
C746 N745 1.351 . S
C746 C747 1.434 . S
C747 C738 1.429 . S
C747 N744 1.350 . S
C747 C746 1.434 . S
C748 C749 1.369 . S
C748 C750 1.419 . S
C748 H752 0.930 . S
C749 C748 1.369 . S
C749 C758 1.429 . S
C750 C748 1.419 . S
C750 C751 1.363 . S
C750 H753 0.929 1_565 S
C751 C750 1.363 . S
C751 C757 1.428 . S
H752 C748 0.930 . S
H753 C750 0.929 1_545 S
S754 N755 1.613 . S
S754 N756 1.610 . S
N755 S754 1.613 . S
N755 C758 1.350 . S
N756 S754 1.610 . S
N756 C757 1.351 . S
C757 C751 1.428 . S
C757 N756 1.351 . S
C757 C758 1.434 . S
C758 C749 1.429 . S
C758 N755 1.350 . S
C758 C757 1.434 . S
C759 C760 1.369 . S
C759 C761 1.419 . S
C759 H763 0.930 . S
C760 C759 1.369 . S
C760 C769 1.429 . S
C761 C759 1.419 . S
C761 C762 1.363 . S
C761 H764 0.929 . S
C762 C761 1.363 . S
C762 C768 1.428 . S
H763 C759 0.930 . S
H764 C761 0.929 . S
S765 N766 1.613 . S
S765 N767 1.610 . S
N766 S765 1.613 . S
N766 C769 1.350 1_565 S
N767 S765 1.610 . S
N767 C768 1.351 1_565 S
C768 C762 1.428 . S
C768 N767 1.351 1_545 S
C768 C769 1.434 . S
C769 C760 1.429 . S
C769 N766 1.350 1_545 S
C769 C768 1.434 . S
C770 C771 1.369 . S
C770 C772 1.419 . S
C770 H774 0.930 . S
C771 C770 1.369 . S
C771 C780 1.429 . S
C772 C770 1.419 . S
C772 C773 1.363 . S
C772 H775 0.929 . S
C773 C772 1.363 . S
C773 C779 1.428 . S
H774 C770 0.930 . S
H775 C772 0.929 . S
S776 N777 1.613 . S
S776 N778 1.610 . S
N777 S776 1.613 . S
N777 C780 1.350 . S
N778 S776 1.610 . S
N778 C779 1.351 . S
C779 C773 1.428 . S
C779 N778 1.351 . S
C779 C780 1.434 . S
C780 C771 1.429 . S
C780 N777 1.350 . S
C780 C779 1.434 . S
C781 C782 1.369 . S
C781 C783 1.419 . S
C781 H785 0.930 . S
C782 C781 1.369 . S
C782 C791 1.429 . S
C783 C781 1.419 . S
C783 C784 1.363 . S
C783 H786 0.929 . S
C784 C783 1.363 . S
C784 C790 1.428 . S
H785 C781 0.930 . S
H786 C783 0.929 . S
S787 N788 1.613 . S
S787 N789 1.610 . S
N788 S787 1.613 . S
N788 C791 1.350 . S
N789 S787 1.610 . S
N789 C790 1.351 . S
C790 C784 1.428 . S
C790 N789 1.351 . S
C790 C791 1.434 . S
C791 C782 1.429 . S
C791 N788 1.350 . S
C791 C790 1.434 . S
C792 C793 1.369 . S
C792 C794 1.419 . S
C792 H796 0.930 . S
C793 C792 1.369 . S
C793 C802 1.429 . S
C794 C792 1.419 . S
C794 C795 1.363 . S
C794 H797 0.935 . S
C795 C794 1.363 . S
C795 C801 1.428 . S
H796 C792 0.930 . S
H797 C794 0.935 . S
S798 N799 1.613 1_554 S
S798 N800 1.610 . S
N799 S798 1.613 1_556 S
N799 C802 1.350 . S
N800 S798 1.610 . S
N800 C801 1.351 1_554 S
C801 C795 1.428 . S
C801 N800 1.351 1_556 S
C801 C802 1.434 . S
C802 C793 1.429 . S
C802 N799 1.350 . S
C802 C801 1.434 . S
C803 C804 1.369 . S
C803 C805 1.419 . S
C803 H807 0.930 . S
C804 C803 1.369 . S
C804 C813 1.429 . S
C805 C803 1.419 . S
C805 C806 1.363 . S
C805 H808 0.929 . S
C806 C805 1.363 . S
C806 C812 1.428 . S
H807 C803 0.930 . S
H808 C805 0.929 . S
S809 N810 1.613 . S
S809 N811 1.610 . S
N810 S809 1.613 . S
N810 C813 1.350 . S
N811 S809 1.610 . S
N811 C812 1.351 . S
C812 C806 1.428 . S
C812 N811 1.351 . S
C812 C813 1.434 . S
C813 C804 1.429 . S
C813 N810 1.350 . S
C813 C812 1.434 . S
C814 C815 1.369 . S
C814 C816 1.419 . S
C814 H818 0.930 . S
C815 C814 1.369 . S
C815 C824 1.429 . S
C816 C814 1.419 . S
C816 C817 1.363 . S
C816 H819 0.929 . S
C817 C816 1.363 . S
C817 C823 1.428 . S
H818 C814 0.930 . S
H819 C816 0.929 . S
S820 N821 1.613 1_556 S
S820 N822 1.610 1_556 S
N821 S820 1.613 1_554 S
N821 C824 1.350 . S
N822 S820 1.610 1_554 S
N822 C823 1.351 . S
C823 C817 1.428 . S
C823 N822 1.351 . S
C823 C824 1.434 . S
C824 C815 1.429 . S
C824 N821 1.350 . S
C824 C823 1.434 . S
C825 C826 1.369 . S
C825 C827 1.419 . S
C825 H829 0.930 . S
C826 C825 1.369 . S
C826 C835 1.429 . S
C827 C825 1.419 . S
C827 C828 1.363 . S
C827 H830 0.929 . S
C828 C827 1.363 . S
C828 C834 1.428 . S
H829 C825 0.930 . S
H830 C827 0.929 . S
S831 N832 1.613 . S
S831 N833 1.610 . S
N832 S831 1.613 . S
N832 C835 1.350 . S
N833 S831 1.610 . S
N833 C834 1.351 . S
C834 C828 1.428 . S
C834 N833 1.351 . S
C834 C835 1.434 . S
C835 C826 1.429 . S
C835 N832 1.350 . S
C835 C834 1.434 . S
C836 C837 1.369 . S
C836 C838 1.419 . S
C836 H840 0.930 . S
C837 C836 1.369 . S
C837 C846 1.429 . S
C838 C836 1.419 . S
C838 C839 1.363 . S
C838 H841 0.929 1_556 S
C839 C838 1.363 . S
C839 C845 1.428 . S
H840 C836 0.930 . S
H841 C838 0.929 1_554 S
S842 N843 1.613 1_455 S
S842 N844 1.610 1_455 S
N843 S842 1.613 1_655 S
N843 C846 1.350 . S
N844 S842 1.610 1_655 S
N844 C845 1.351 . S
C845 C839 1.428 . S
C845 N844 1.351 . S
C845 C846 1.434 . S
C846 C837 1.429 . S
C846 N843 1.350 . S
C846 C845 1.434 . S
C847 C848 1.369 . S
C847 C849 1.419 . S
C847 H851 0.930 . S
C848 C847 1.369 . S
C848 C857 1.429 . S
C849 C847 1.419 . S
C849 C850 1.363 . S
C849 H852 0.929 . S
C850 C849 1.363 . S
C850 C856 1.428 . S
H851 C847 0.930 . S
H852 C849 0.929 . S
S853 N854 1.613 . S
S853 N855 1.610 . S
N854 S853 1.613 . S
N854 C857 1.350 . S
N855 S853 1.610 . S
N855 C856 1.351 . S
C856 C850 1.428 . S
C856 N855 1.351 . S
C856 C857 1.434 . S
C857 C848 1.429 . S
C857 N854 1.350 . S
C857 C856 1.434 . S
C858 C859 1.369 . S
C858 C860 1.419 . S
C858 H862 0.930 . S
C859 C858 1.369 . S
C859 C868 1.429 . S
C860 C858 1.419 . S
C860 C861 1.363 . S
C860 H863 0.929 . S
C861 C860 1.363 . S
C861 C867 1.428 . S
H862 C858 0.930 . S
H863 C860 0.929 . S
S864 N865 1.613 1_655 S
S864 N866 1.610 1_655 S
N865 S864 1.613 1_455 S
N865 C868 1.350 . S
N866 S864 1.610 1_455 S
N866 C867 1.351 . S
C867 C861 1.428 . S
C867 N866 1.351 . S
C867 C868 1.434 . S
C868 C859 1.429 . S
C868 N865 1.350 . S
C868 C867 1.434 . S
C869 C870 1.369 . S
C869 C871 1.419 . S
C869 H873 0.930 . S
C870 C869 1.369 . S
C870 C879 1.429 . S
C871 C869 1.419 . S
C871 C872 1.363 . S
C871 H874 0.929 . S
C872 C871 1.363 . S
C872 C878 1.428 . S
H873 C869 0.930 . S
H874 C871 0.929 . S
S875 N876 1.613 . S
S875 N877 1.610 . S
N876 S875 1.613 . S
N876 C879 1.350 . S
N877 S875 1.610 . S
N877 C878 1.351 . S
C878 C872 1.428 . S
C878 N877 1.351 . S
C878 C879 1.434 . S
C879 C870 1.429 . S
C879 N876 1.350 . S
C879 C878 1.434 . S
C617 C1 2.332 . S
C619 C480 2.345 . S
C628 C80 2.251 . S
C630 C522 2.323 . S
C641 C552 1.116 . S
C639 C140 1.079 . S
C650 C211 1.086 . S
C652 C586 1.180 . S
C663 C543 1.883 . S
C661 C31 1.879 . S
C674 C497 1.885 . S
C672 C61 1.818 . S
C685 C590 1.440 . S
C683 C151 1.344 . S
C696 C556 1.499 . S
C694 C200 1.383 . S
C705 C20 2.200 . S
C707 C611 2.241 . S
C718 C518 1.253 . S
C716 C121 1.155 . S
C727 C181 1.227 . S
C729 C493 1.273 . S
C738 C91 2.125 . S
C740 C577 2.221 . S
C751 C509 2.345 . S
C749 C260 2.312 . S
C760 C320 2.249 . S
C762 C531 2.323 . S
C771 C361 1.135 . S
C773 C561 1.119 . S
C782 C451 1.100 . S
C784 C595 1.170 . S
C793 C271 1.847 . S
C795 C514 1.885 . S
C806 C488 1.886 . S
C804 C301 1.817 . S
C817 C599 1.438 . S
C815 C380 1.416 . S
C828 C565 1.499 . S
C826 C440 1.381 . S
C837 C241 2.241 . S
C839 C582 2.241 . S
C850 C527 1.252 . S
C848 C391 1.221 . S
C861 C484 1.273 . S
C859 C421 1.226 . S
C870 C331 2.118 . S
C872 C548 2.222 . S
