# Generated by pormake.
# Topology zzz, (3,6)-cn, num edge types: 1
# Building blocks:
#     Node 0, Type 0, BuildingBlock: VETTIZ_charged_linker_0, # of connection points: 3
#     Node 1, Type 0, BuildingBlock: VETTIZ_charged_linker_0, # of connection points: 3
#     Node 2, Type 0, BuildingBlock: VETTIZ_charged_linker_0, # of connection points: 3
#     Node 3, Type 0, BuildingBlock: VETTIZ_charged_linker_0, # of connection points: 3
#     Node 4, Type 0, BuildingBlock: VETTIZ_charged_linker_0, # of connection points: 3
#     Node 5, Type 0, BuildingBlock: VETTIZ_charged_linker_0, # of connection points: 3
#     Node 6, Type 0, BuildingBlock: VETTIZ_charged_linker_0, # of connection points: 3
#     Node 7, Type 0, BuildingBlock: VETTIZ_charged_linker_0, # of connection points: 3
#     Node 8, Type 1, BuildingBlock: MIFKUJ_clean_sbu_0, # of connection points: 6
#     Node 9, Type 1, BuildingBlock: MIFKUJ_clean_sbu_0, # of connection points: 6
#     Node 10, Type 1, BuildingBlock: MIFKUJ_clean_sbu_0, # of connection points: 6
#     Node 11, Type 1, BuildingBlock: MIFKUJ_clean_sbu_0, # of connection points: 6
#     Edge 12, Type (0, 1), BuildingBlock: UVAHIK_clean_linker_0, # of connection points: 2
#     Edge 13, Type (0, 1), BuildingBlock: UVAHIK_clean_linker_0, # of connection points: 2
#     Edge 14, Type (0, 1), BuildingBlock: UVAHIK_clean_linker_0, # of connection points: 2
#     Edge 15, Type (0, 1), BuildingBlock: UVAHIK_clean_linker_0, # of connection points: 2
#     Edge 16, Type (0, 1), BuildingBlock: UVAHIK_clean_linker_0, # of connection points: 2
#     Edge 17, Type (0, 1), BuildingBlock: UVAHIK_clean_linker_0, # of connection points: 2
#     Edge 18, Type (0, 1), BuildingBlock: UVAHIK_clean_linker_0, # of connection points: 2
#     Edge 19, Type (0, 1), BuildingBlock: UVAHIK_clean_linker_0, # of connection points: 2
#     Edge 20, Type (0, 1), BuildingBlock: UVAHIK_clean_linker_0, # of connection points: 2
#     Edge 21, Type (0, 1), BuildingBlock: UVAHIK_clean_linker_0, # of connection points: 2
#     Edge 22, Type (0, 1), BuildingBlock: UVAHIK_clean_linker_0, # of connection points: 2
#     Edge 23, Type (0, 1), BuildingBlock: UVAHIK_clean_linker_0, # of connection points: 2
#     Edge 24, Type (0, 1), BuildingBlock: UVAHIK_clean_linker_0, # of connection points: 2
#     Edge 25, Type (0, 1), BuildingBlock: UVAHIK_clean_linker_0, # of connection points: 2
#     Edge 26, Type (0, 1), BuildingBlock: UVAHIK_clean_linker_0, # of connection points: 2
#     Edge 27, Type (0, 1), BuildingBlock: UVAHIK_clean_linker_0, # of connection points: 2
#     Edge 28, Type (0, 1), BuildingBlock: UVAHIK_clean_linker_0, # of connection points: 2
#     Edge 29, Type (0, 1), BuildingBlock: UVAHIK_clean_linker_0, # of connection points: 2
#     Edge 30, Type (0, 1), BuildingBlock: UVAHIK_clean_linker_0, # of connection points: 2
#     Edge 31, Type (0, 1), BuildingBlock: UVAHIK_clean_linker_0, # of connection points: 2
#     Edge 32, Type (0, 1), BuildingBlock: UVAHIK_clean_linker_0, # of connection points: 2
#     Edge 33, Type (0, 1), BuildingBlock: UVAHIK_clean_linker_0, # of connection points: 2
#     Edge 34, Type (0, 1), BuildingBlock: UVAHIK_clean_linker_0, # of connection points: 2
#     Edge 35, Type (0, 1), BuildingBlock: UVAHIK_clean_linker_0, # of connection points: 2
# Relax obj value: 0.309
# Max RMSD: 0.220
# Mean RMSD: 0.196
data_MOF--net-zzz--node1-MIFKUJ_clean_sbu_0--node2-VETTIZ_charged_linker_0--edge1-UVAHIK_clean_linker_0
_symmetry_space_group_name_H-M    P1
_symmetry_Int_Tables_number       1
_symmetry_cell_setting            triclinic
loop_
_symmetry_equiv_pos_as_xyz
'x, y, z'
_cell_length_a     69.613864
_cell_length_b     71.046576
_cell_length_c     25.975549
_cell_angle_alpha  89.293584
_cell_angle_beta   89.858706
_cell_angle_gamma 90.752297
loop_
_atom_site_label
_atom_site_type_symbol
_atom_site_fract_x
_atom_site_fract_y
_atom_site_fract_z
_atom_type_partial_charge
C0 C 0.76453 0.56717 0.23763 0.0
C1 C 0.78352 0.57274 0.24999 0.0
C2 C 0.79442 0.58313 0.2135 0.0
C3 C 0.76936 0.57911 0.1507 0.0
C4 C 0.75753 0.57107 0.18778 0.0
C5 C 0.73754 0.56751 0.16674 0.0
H6 H 0.68004 0.56581 0.95388 0.0
C7 C 0.75933 0.57896 0.1012 0.0
C8 C 0.74028 0.57298 0.11007 0.0
H9 H 0.66229 0.55494 0.11091 0.0
H10 H 0.69517 0.56036 0.14007 0.0
H11 H 0.70901 0.60131 0.97314 0.0
H12 H 0.71391 0.54182 0.95774 0.0
H13 H 0.737 0.55014 0.94172 0.0
H14 H 0.71673 0.55715 0.9031 0.0
H15 H 0.70509 0.58828 0.91518 0.0
H16 H 0.72865 0.59697 0.93195 0.0
C17 C 0.72358 0.5808 0.19436 0.0
C18 C 0.7324 0.54643 0.17376 0.0
C19 C 0.79959 0.57659 0.93941 0.0
C20 C 0.7949 0.57247 0.8881 0.0
C21 C 0.77551 0.57322 0.87278 0.0
C22 C 0.76097 0.57642 0.90893 0.0
C23 C 0.76584 0.57863 0.96102 0.0
C24 C 0.78491 0.57948 0.97516 0.0
C25 C 0.78744 0.582 0.03217 0.0
C26 C 0.76662 0.58079 0.05034 0.0
C27 C 0.75415 0.57873 0.00853 0.0
C28 C 0.79671 0.60168 0.04137 0.0
C29 C 0.79956 0.56547 0.05328 0.0
C30 C 0.68308 0.56501 0.99475 0.0
C31 C 0.66853 0.56046 0.03028 0.0
C32 C 0.67329 0.55867 0.08289 0.0
C33 C 0.6923 0.56195 0.0997 0.0
C34 C 0.70664 0.56684 0.06336 0.0
C35 C 0.70182 0.56804 0.01182 0.0
C36 C 0.71877 0.57197 0.9776 0.0
C37 C 0.73448 0.57437 0.01715 0.0
C38 C 0.72748 0.57129 0.06753 0.0
C39 C 0.71527 0.59055 0.94746 0.0
C40 C 0.72181 0.55451 0.94301 0.0
H41 H 0.7964 0.59403 0.13757 0.0
H42 H 0.75562 0.55973 0.26561 0.0
H43 H 0.74444 0.53758 0.16032 0.0
H44 H 0.71969 0.54217 0.15127 0.0
H45 H 0.72962 0.54293 0.21493 0.0
H46 H 0.73042 0.59483 0.20053 0.0
H47 H 0.71931 0.57495 0.23264 0.0
H48 H 0.71055 0.58367 0.17166 0.0
H49 H 0.81433 0.57624 0.95245 0.0
H50 H 0.77152 0.57065 0.83319 0.0
H51 H 0.74646 0.57636 0.89524 0.0
H52 H 0.79802 0.61026 0.00537 0.0
H53 H 0.81143 0.60048 0.05737 0.0
H54 H 0.78791 0.61021 0.06788 0.0
H55 H 0.79309 0.55175 0.04185 0.0
H56 H 0.8007 0.56524 0.09551 0.0
H57 H 0.81447 0.56625 0.03809 0.0
H58 H 0.80893 0.58777 0.2222 0.0
C59 C 0.78735 0.58646 0.16415 0.0
C60 C 0.07443 0.80329 0.94754 0.0
C61 C 0.07908 0.82168 0.96314 0.0
C62 C 0.07497 0.82698 0.01406 0.0
C63 C 0.05946 0.79678 0.0304 0.0
C64 C 0.06466 0.79111 0.98174 0.0
C65 C 0.0576 0.77148 0.9705 0.0
H66 H 0.00503 0.69444 0.04022 0.0
C67 C 0.04733 0.78175 0.05384 0.0
C68 C 0.04629 0.76683 0.0193 0.0
H69 H 0.04203 0.70291 0.90767 0.0
H70 H 0.04984 0.73412 0.93518 0.0
H71 H 0.03409 0.71503 0.12458 0.0
H72 H 0.98678 0.73768 0.03655 0.0
H73 H 0.98575 0.74587 0.10015 0.0
H74 H 0.98292 0.72102 0.08826 0.0
H75 H 0.00978 0.70669 0.1329 0.0
H76 H 0.01827 0.7275 0.16471 0.0
C77 C 0.07537 0.7587 0.9643 0.0
C78 C 0.0444 0.77242 0.92259 0.0
C79 C 0.01494 0.7944 0.22354 0.0
C80 C 0.00082 0.78499 0.25275 0.0
C81 C 0.99349 0.76757 0.2358 0.0
C82 C 0.00053 0.75952 0.19019 0.0
C83 C 0.01478 0.76922 0.16119 0.0
C84 C 0.0215 0.78647 0.17811 0.0
C85 C 0.03542 0.79571 0.1415 0.0
C86 C 0.03643 0.78106 0.09995 0.0
C87 C 0.02451 0.76541 0.11149 0.0
C88 C 0.05493 0.79813 0.16953 0.0
C89 C 0.02642 0.81436 0.1218 0.0
C90 C 0.01475 0.70314 0.01729 0.0
C91 C 0.02314 0.69612 0.97204 0.0
C92 C 0.0357 0.70783 0.94313 0.0
C93 C 0.04021 0.72602 0.9591 0.0
C94 C 0.0321 0.73277 0.00461 0.0
C95 C 0.0196 0.72148 0.03314 0.0
C96 C 0.01282 0.7313 0.08108 0.0
C97 C 0.02386 0.74993 0.07709 0.0
C98 C 0.03487 0.75068 0.03164 0.0
C99 C 0.01892 0.71954 0.12859 0.0
C100 C 0.99089 0.73407 0.07681 0.0
H101 H 0.06197 0.81976 0.08538 0.0
H102 H 0.07766 0.79874 0.90886 0.0
H103 H 0.03479 0.78478 0.92467 0.0
H104 H 0.0347 0.76008 0.91923 0.0
H105 H 0.05299 0.77382 0.88663 0.0
H106 H 0.08833 0.76476 0.9832 0.0
H107 H 0.079 0.7567 0.92308 0.0
H108 H 0.07328 0.74474 0.98312 0.0
H109 H 0.02047 0.80802 0.23527 0.0
H110 H 0.98244 0.76022 0.25788 0.0
H111 H 0.99457 0.74618 0.17903 0.0
H112 H 0.05759 0.78603 0.19603 0.0
H113 H 0.05521 0.81113 0.19286 0.0
H114 H 0.06734 0.7984 0.14289 0.0
H115 H 0.01045 0.81342 0.1216 0.0
H116 H 0.03026 0.81783 0.08149 0.0
H117 H 0.03056 0.82637 0.1466 0.0
H118 H 0.07826 0.84109 0.027 0.0
C119 C 0.06525 0.81462 0.04775 0.0
C120 C 0.8191 0.94369 0.0741 0.0
C121 C 0.82555 0.94165 0.023 0.0
C122 C 0.81256 0.93546 0.98517 0.0
C123 C 0.78702 0.93396 0.04799 0.0
C124 C 0.79977 0.93936 0.08592 0.0
C125 C 0.79016 0.93959 0.13819 0.0
H126 H 0.70824 0.92432 0.27735 0.0
C127 C 0.76818 0.93026 0.07167 0.0
C128 C 0.76994 0.93268 0.12502 0.0
H129 H 0.76127 0.94915 0.33139 0.0
H130 H 0.77615 0.94371 0.248 0.0
H131 H 0.70337 0.94543 0.19708 0.0
H132 H 0.72688 0.89099 0.19865 0.0
H133 H 0.71154 0.89274 0.14476 0.0
H134 H 0.70231 0.89761 0.20815 0.0
H135 H 0.68954 0.92633 0.17257 0.0
H136 H 0.70403 0.9413 0.13084 0.0
C137 C 0.7903 0.96014 0.15728 0.0
C138 C 0.80061 0.9257 0.17437 0.0
C139 C 0.70806 0.93065 0.96369 0.0
C140 C 0.68862 0.92849 0.97744 0.0
C141 C 0.68372 0.91992 0.02482 0.0
C142 C 0.698 0.9156 0.06068 0.0
C143 C 0.71721 0.92015 0.04901 0.0
C144 C 0.72219 0.92613 -4e-05 0.0
C145 C 0.74361 0.92839 0.99371 0.0
C146 C 0.75012 0.92588 0.04942 0.0
C147 C 0.73449 0.92138 0.08145 0.0
C148 C 0.74822 0.94841 0.97248 0.0
C149 C 0.75082 0.91241 0.9585 0.0
C150 C 0.72329 0.92797 0.27205 0.0
C151 C 0.7337 0.93681 0.31121 0.0
C152 C 0.753 0.94218 0.30178 0.0
C153 C 0.76151 0.93918 0.25328 0.0
C154 C 0.75038 0.93133 0.21348 0.0
C155 C 0.73157 0.92593 0.22358 0.0
C156 C 0.7208 0.92032 0.17621 0.0
C157 C 0.73627 0.923 0.13559 0.0
C158 C 0.75373 0.92909 0.15745 0.0
C159 C 0.70354 0.93388 0.1686 0.0
C160 C 0.71491 0.89932 0.18208 0.0
H161 H 0.78423 0.92696 0.96708 0.0
H162 H 0.82888 0.94823 0.10396 0.0
H163 H 0.80305 0.91213 0.15462 0.0
H164 H 0.79226 0.92219 0.2094 0.0
H165 H 0.81482 0.9315 0.18605 0.0
H166 H 0.7883 0.97021 0.12464 0.0
H167 H 0.80415 0.96373 0.17614 0.0
H168 H 0.77839 0.963 0.18406 0.0
H169 H 0.71202 0.93672 0.92666 0.0
H170 H 0.66878 0.91789 0.03562 0.0
H171 H 0.69352 0.90975 0.09702 0.0
H172 H 0.74108 0.95919 0.99629 0.0
H173 H 0.74315 0.95002 0.9322 0.0
H174 H 0.76373 0.95176 0.97248 0.0
H175 H 0.73932 0.90197 0.9493 0.0
H176 H 0.76236 0.90416 0.97724 0.0
H177 H 0.75627 0.91808 0.92109 0.0
H178 H 0.81723 0.93386 0.94563 0.0
C179 C 0.79342 0.93155 0.99745 0.0
C180 C 0.46432 0.73003 0.18719 0.0
C181 C 0.45916 0.71328 0.21373 0.0
C182 C 0.44488 0.70141 0.19308 0.0
C183 C 0.44192 0.72201 0.119 0.0
C184 C 0.4552 0.73429 0.14019 0.0
C185 C 0.45794 0.75175 0.10702 0.0
H186 H 0.43538 0.79932 0.88627 0.0
C187 C 0.43575 0.72976 0.069 0.0
C188 C 0.44464 0.74745 0.06194 0.0
H189 H 0.47343 0.81775 0.00717 0.0
H190 H 0.46728 0.78866 0.05473 0.0
H191 H 0.45178 0.76008 0.88045 0.0
H192 H 0.40166 0.77956 0.95925 0.0
H193 H 0.39549 0.75872 0.92653 0.0
H194 H 0.40417 0.77892 0.89045 0.0
H195 H 0.42927 0.76255 0.84794 0.0
H196 H 0.43565 0.74097 0.8807 0.0
C197 C 0.47924 0.75299 0.09012 0.0
C198 C 0.4511 0.76887 0.13806 0.0
C199 C 0.40013 0.68707 0.94621 0.0
C200 C 0.39503 0.68906 0.89411 0.0
C201 C 0.39596 0.70713 0.87103 0.0
C202 C 0.40324 0.7226 0.89824 0.0
C203 C 0.40981 0.71996 0.94894 0.0
C204 C 0.40757 0.70256 0.9726 0.0
C205 C 0.4157 0.70214 0.02613 0.0
C206 C 0.42424 0.72186 0.02956 0.0
C207 C 0.42073 0.73223 0.98438 0.0
C208 C 0.43137 0.68681 0.02833 0.0
C209 C 0.39885 0.69892 0.06468 0.0
C210 C 0.44211 0.79723 0.92344 0.0
C211 C 0.45464 0.81091 0.94347 0.0
C212 C 0.46366 0.8074 0.99113 0.0
C213 C 0.46001 0.79056 0.0187 0.0
C214 C 0.44741 0.77698 0.99804 0.0
C215 C 0.43884 0.78044 0.95091 0.0
C216 C 0.42694 0.76405 0.93282 0.0
C217 C 0.42899 0.75047 0.97786 0.0
C218 C 0.44098 0.75805 0.01616 0.0
C219 C 0.43619 0.7565 0.88277 0.0
C220 C 0.40593 0.77055 0.92651 0.0
H221 H 0.42576 0.69586 0.13217 0.0
H222 H 0.47507 0.73953 0.20274 0.0
H223 H 0.43807 0.76514 0.1611 0.0
H224 H 0.4468 0.78081 0.11332 0.0
H225 H 0.46239 0.77371 0.16517 0.0
H226 H 0.48455 0.73886 0.07944 0.0
H227 H 0.48843 0.75835 0.12177 0.0
H228 H 0.48153 0.76198 0.05566 0.0
H229 H 0.39978 0.67341 0.96516 0.0
H230 H 0.3918 0.70916 0.83122 0.0
H231 H 0.40416 0.73586 0.87811 0.0
H232 H 0.44057 0.68758 0.99326 0.0
H233 H 0.42479 0.67249 0.03049 0.0
H234 H 0.44131 0.68831 0.06097 0.0
H235 H 0.38475 0.70259 0.04742 0.0
H236 H 0.40013 0.70806 0.09884 0.0
H237 H 0.39786 0.68399 0.07764 0.0
H238 H 0.44074 0.68844 0.2128 0.0
C239 C 0.43625 0.70569 0.14609 0.0
C240 C 0.3214 0.45168 0.15859 0.0
C241 C 0.33185 0.45067 0.20507 0.0
C242 C 0.32202 0.44679 0.25143 0.0
C243 C 0.29182 0.44585 0.20637 0.0
C244 C 0.3013 0.44879 0.16011 0.0
C245 C 0.28741 0.44836 0.11529 0.0
H246 H 0.19429 0.43614 0.03699 0.0
C247 C 0.27118 0.44382 0.19637 0.0
C248 C 0.2683 0.44454 0.14285 0.0
H249 H 0.24295 0.45024 0.94019 0.0
H250 H 0.26406 0.44931 0.015 0.0
H251 H 0.21553 0.40621 0.11814 0.0
H252 H 0.2015 0.46442 0.1099 0.0
H253 H 0.20375 0.4604 0.17618 0.0
H254 H 0.18559 0.44779 0.14054 0.0
H255 H 0.19178 0.41571 0.12144 0.0
H256 H 0.20613 0.41254 0.17856 0.0
C257 C 0.29296 0.43205 0.0797 0.0
C258 C 0.28791 0.46788 0.08842 0.0
C259 C 0.2242 0.45049 0.34361 0.0
C260 C 0.20407 0.45034 0.34513 0.0
C261 C 0.19365 0.44358 0.30267 0.0
C262 C 0.20316 0.43863 0.2574 0.0
C263 C 0.22324 0.44054 0.25469 0.0
C264 C 0.23349 0.44535 0.29812 0.0
C265 C 0.25479 0.44549 0.28867 0.0
C266 C 0.25538 0.44233 0.23076 0.0
C267 C 0.23687 0.43959 0.21126 0.0
C268 C 0.26352 0.42882 0.31964 0.0
C269 C 0.26298 0.46509 0.30335 0.0
C270 C 0.20958 0.43851 0.03158 0.0
C271 C 0.21707 0.44281 0.98271 0.0
C272 C 0.23692 0.4467 0.9776 0.0
C273 C 0.24909 0.4462 0.021 0.0
C274 C 0.2412 0.44223 0.07004 0.0
C275 C 0.22166 0.43865 0.07435 0.0
C276 C 0.21501 0.4369 0.12905 0.0
C277 C 0.23382 0.43937 0.15735 0.0
C278 C 0.24931 0.44222 0.12297 0.0
C279 C 0.20652 0.41684 0.13753 0.0
C280 C 0.20068 0.45306 0.13973 0.0
H281 H 0.29566 0.44171 0.28891 0.0
H282 H 0.32869 0.45448 0.12236 0.0
H283 H 0.28843 0.47928 0.11738 0.0
H284 H 0.27497 0.47056 0.06522 0.0
H285 H 0.3008 0.46947 0.06334 0.0
H286 H 0.29569 0.41906 0.10274 0.0
H287 H 0.30625 0.43561 0.05766 0.0
H288 H 0.28151 0.42835 0.05225 0.0
H289 H 0.23243 0.45529 0.37637 0.0
H290 H 0.17809 0.4433 0.30333 0.0
H291 H 0.19446 0.4343 0.22558 0.0
H292 H 0.25235 0.41885 0.33481 0.0
H293 H 0.27184 0.43386 0.35331 0.0
H294 H 0.27295 0.4201 0.29531 0.0
H295 H 0.25414 0.47645 0.2861 0.0
H296 H 0.27778 0.46764 0.28958 0.0
H297 H 0.26297 0.46685 0.34578 0.0
H298 H 0.32973 0.44609 0.28761 0.0
C299 C 0.30219 0.44433 0.25226 0.0
C300 C 0.91892 0.20851 0.26459 0.0
C301 C 0.91771 0.18918 0.25307 0.0
C302 C 0.92206 0.18355 0.20245 0.0
C303 C 0.93282 0.21515 0.18053 0.0
C304 C 0.9269 0.22113 0.22828 0.0
C305 C 0.93239 0.2414 0.23738 0.0
H306 H 0.98711 0.31738 0.17327 0.0
C307 C 0.94395 0.23061 0.15575 0.0
C308 C 0.94381 0.24604 0.18869 0.0
H309 H 0.94573 0.3109 0.29696 0.0
H310 H 0.93688 0.28023 0.26677 0.0
H311 H 0.00325 0.27396 0.17707 0.0
H312 H 0.95819 0.29827 0.08395 0.0
H313 H 0.97375 0.28492 0.04546 0.0
H314 H 0.98292 0.30551 0.07728 0.0
H315 H 0.00836 0.29115 0.12742 0.0
H316 H 0.00547 0.26654 0.11288 0.0
C317 C 0.94512 0.2422 0.28624 0.0
C318 C 0.9137 0.25299 0.24081 0.0
C319 C 0.97899 0.21719 0.99026 0.0
C320 C 0.99331 0.22663 0.96185 0.0
C321 C 0.99992 0.24441 0.97819 0.0
C322 C 0.99198 0.25274 0.02234 0.0
C323 C 0.97761 0.24296 0.05065 0.0
C324 C 0.97158 0.22539 0.03439 0.0
C325 C 0.95769 0.21599 0.07079 0.0
C326 C 0.95551 0.23111 0.11076 0.0
C327 C 0.96708 0.24699 0.09905 0.0
C328 C 0.96726 0.19795 0.09296 0.0
C329 C 0.93862 0.21237 0.04166 0.0
C330 C 0.97623 0.30923 0.1938 0.0
C331 C 0.96713 0.31655 0.23767 0.0
C332 C 0.95282 0.30567 0.26292 0.0
C333 C 0.94775 0.28779 0.24551 0.0
C334 C 0.95713 0.28048 0.2025 0.0
C335 C 0.97079 0.29124 0.17646 0.0
C336 C 0.97824 0.28124 0.12955 0.0
C337 C 0.96681 0.26281 0.13227 0.0
C338 C 0.95483 0.26241 0.17595 0.0
C339 C 1.00001 0.27809 0.13659 0.0
C340 C 0.97316 0.29307 0.08127 0.0
H341 H 0.93306 0.19108 0.12908 0.0
H342 H 0.9151 0.21353 0.30237 0.0
H343 H 0.90136 0.24569 0.22213 0.0
H344 H 0.91499 0.26669 0.22015 0.0
H345 H 0.90957 0.2555 0.28146 0.0
H346 H 0.95592 0.23079 0.28581 0.0
H347 H 0.93631 0.24037 0.32168 0.0
H348 H 0.95349 0.25539 0.28953 0.0
H349 H 0.97408 0.20327 0.97924 0.0
H350 H 0.01115 0.25179 0.95684 0.0
H351 H 0.99748 0.26631 0.03314 0.0
H352 H 0.98315 0.19832 0.08811 0.0
H353 H 0.96185 0.18509 0.07356 0.0
H354 H 0.96513 0.19629 0.13501 0.0
H355 H 0.93508 0.22463 0.01649 0.0
H356 H 0.92615 0.21051 0.06773 0.0
H357 H 0.93967 0.19981 0.01682 0.0
H358 H 0.92136 0.16889 0.19168 0.0
C359 C 0.92935 0.19645 0.1661 0.0
C360 C 0.26694 0.07204 0.98178 0.0
C361 C 0.28325 0.08068 0.95867 0.0
C362 C 0.29036 0.09777 0.97856 0.0
C363 C 0.26831 0.09496 0.0498 0.0
C364 C 0.25933 0.07986 0.02687 0.0
C365 C 0.24161 0.07372 0.05683 0.0
H366 H 0.19217 0.07764 0.28267 0.0
C367 C 0.25947 0.09798 0.10009 0.0
C368 C 0.24309 0.08633 0.10392 0.0
H369 H 0.17587 0.04669 0.14703 0.0
H370 H 0.20361 0.05973 0.10121 0.0
H371 H 0.23076 0.06704 0.28622 0.0
H372 H 0.20654 0.11702 0.22558 0.0
H373 H 0.22734 0.12327 0.26085 0.0
H374 H 0.2083 0.10997 0.29208 0.0
H375 H 0.23209 0.08821 0.32217 0.0
H376 H 0.2513 0.08146 0.27965 0.0
C377 C 0.24337 0.05266 0.07131 0.0
C378 C 0.22372 0.07824 0.02389 0.0
C379 C 0.30306 0.12 0.24238 0.0
C380 C 0.30077 0.119 0.29608 0.0
C381 C 0.28208 0.11788 0.3169 0.0
C382 C 0.26615 0.11555 0.28469 0.0
C383 C 0.26904 0.11372 0.23146 0.0
C384 C 0.28708 0.11702 0.21072 0.0
C385 C 0.2875 0.1142 0.15337 0.0
C386 C 0.26704 0.10693 0.14427 0.0
C387 C 0.25652 0.10639 0.19034 0.0
C388 C 0.30274 0.09918 0.14099 0.0
C389 C 0.29161 0.13348 0.12646 0.0
C390 C 0.19449 0.07357 0.24311 0.0
C391 C 0.18188 0.06096 0.21872 0.0
C392 C 0.18534 0.05641 0.16676 0.0
C393 C 0.20144 0.06396 0.14028 0.0
C394 C 0.21419 0.07615 0.16607 0.0
C395 C 0.21046 0.08078 0.21657 0.0
C396 C 0.22578 0.09314 0.23932 0.0
C397 C 0.23892 0.0961 0.19323 0.0
C398 C 0.23222 0.086 0.15041 0.0
C399 C 0.23549 0.08205 0.28418 0.0
C400 C 0.21658 0.11186 0.25572 0.0
H401 H 0.28867 0.11796 0.03798 0.0
H402 H 0.26066 0.05937 0.96588 0.0
H403 H 0.22627 0.09093 0.99915 0.0
H404 H 0.21109 0.08171 0.04762 0.0
H405 H 0.21997 0.06636 0.99822 0.0
H406 H 0.25765 0.0499 0.08881 0.0
H407 H 0.2419 0.04373 0.03669 0.0
H408 H 0.23252 0.04791 0.09974 0.0
H409 H 0.31727 0.12109 0.22552 0.0
H410 H 0.27995 0.11755 0.35823 0.0
H411 H 0.25233 0.11414 0.30261 0.0
H412 H 0.29982 0.08599 0.1633 0.0
H413 H 0.31741 0.1043 0.15065 0.0
H414 H 0.30316 0.09551 0.09997 0.0
H415 H 0.29376 0.14508 0.15433 0.0
H416 H 0.27946 0.1378 0.10147 0.0
H417 H 0.30489 0.13312 0.1027 0.0
H418 H 0.30257 0.10493 0.96088 0.0
C419 C 0.28273 0.10508 0.02371 0.0
C420 C 0.52891 0.2772 0.99919 0.0
C421 C 0.5375 0.29165 0.96902 0.0
C422 C 0.5543 0.30066 0.98674 0.0
C423 C 0.55216 0.28319 0.06676 0.0
C424 C 0.53686 0.27287 0.04767 0.0
C425 C 0.53073 0.25738 0.08489 0.0
H426 H 0.53868 0.21835 0.32425 0.0
C427 C 0.55558 0.27719 0.12028 0.0
C428 C 0.54353 0.26166 0.13104 0.0
H429 H 0.50729 0.19617 0.19443 0.0
H430 H 0.51736 0.22306 0.14231 0.0
H431 H 0.57694 0.2323 0.26274 0.0
H432 H 0.5252 0.25962 0.30947 0.0
H433 H 0.54282 0.2775 0.30706 0.0
H434 H 0.54543 0.25799 0.35168 0.0
H435 H 0.57001 0.23628 0.32837 0.0
H436 H 0.58293 0.25398 0.2918 0.0
C437 C 0.53548 0.23817 0.06056 0.0
C438 C 0.50924 0.25973 0.09791 0.0
C439 C 0.59138 0.32209 0.23646 0.0
C440 C 0.59192 0.3237 0.29029 0.0
C441 C 0.58614 0.30807 0.3209 0.0
C442 C 0.57845 0.2918 0.29817 0.0
C443 C 0.57618 0.29128 0.2444 0.0
C444 C 0.58297 0.30614 0.21448 0.0
C445 C 0.57778 0.30417 0.15868 0.0
C446 C 0.56624 0.28587 0.16022 0.0
C447 C 0.56551 0.2783 0.21032 0.0
C448 C 0.59657 0.30245 0.12691 0.0
C449 C 0.56528 0.32129 0.1434 0.0
C450 C 0.53379 0.21931 0.28477 0.0
C451 C 0.52221 0.20502 0.26352 0.0
C452 C 0.51641 0.20682 0.21163 0.0
C453 C 0.52227 0.22241 0.1814 0.0
C454 C 0.53413 0.23634 0.20312 0.0
C455 C 0.5396 0.23468 0.25408 0.0
C456 C 0.55211 0.25087 0.27091 0.0
C457 C 0.55436 0.26182 0.22072 0.0
C458 C 0.54352 0.25345 0.18127 0.0
C459 C 0.57155 0.24305 0.28979 0.0
C460 C 0.54098 0.26208 0.3121 0.0
H461 H 0.57423 0.30414 0.04716 0.0
H462 H 0.51632 0.26968 0.98558 0.0
H463 H 0.50632 0.27454 0.10865 0.0
H464 H 0.50453 0.25082 0.1308 0.0
H465 H 0.5001 0.25621 0.06428 0.0
H466 H 0.54706 0.23957 0.0311 0.0
H467 H 0.5227 0.23192 0.04135 0.0
H468 H 0.54108 0.22797 0.08917 0.0
H469 H 0.59609 0.33367 0.21182 0.0
H470 H 0.58638 0.30884 0.3625 0.0
H471 H 0.57374 0.2806 0.32345 0.0
H472 H 0.60889 0.2981 0.15133 0.0
H473 H 0.60063 0.31605 0.10807 0.0
H474 H 0.5954 0.29143 0.09719 0.0
H475 H 0.55406 0.32369 0.17311 0.0
H476 H 0.55749 0.31959 0.107 0.0
H477 H 0.5742 0.33433 0.13993 0.0
H478 H 0.56122 0.31169 0.96391 0.0
C479 C 0.56172 0.29643 0.03524 0.0
Zn480 Zn 0.00628 0.02554 0.64442 0.0
Zn481 Zn 0.00457 0.97967 0.60264 0.0
C482 C 0.00107 0.06195 0.68563 0.0
O483 O 0.9834 0.05752 0.67233 0.0
C484 C 0.00827 0.94535 0.54641 0.0
O485 O 0.02653 0.94912 0.55458 0.0
O486 O 0.98868 0.03388 0.58736 0.0
O487 O 0.03007 0.01436 0.61209 0.0
O488 O 0.01316 1.00002 0.55269 0.0
C489 C 0.99585 0.04506 0.55372 0.0
O490 O 0.01428 0.04921 0.55576 0.0
O491 O 0.01422 0.04992 0.67909 0.0
C492 C 0.03306 0.97489 0.68645 0.0
O493 O 0.02269 0.98661 0.7131 0.0
O494 O 0.02813 0.97084 0.64082 0.0
O495 O 0.98371 0.9841 0.65505 0.0
O496 O 0.99032 0.01065 0.69579 0.0
O497 O 0.99576 0.95696 0.56158 0.0
C498 C 0.02835 0.00876 0.56598 0.0
C499 C 0.98078 0.99536 0.69188 0.0
Zn500 Zn 0.47939 0.01648 0.6197 0.0
Zn501 Zn 0.52687 0.99933 0.58606 0.0
C502 C 0.44472 0.01605 0.67128 0.0
O503 O 0.44307 0.00269 0.63694 0.0
C504 C 0.56364 0.00153 0.54006 0.0
O505 O 0.56147 0.01899 0.5549 0.0
O506 O 0.46433 0.02158 0.5549 0.0
O507 O 0.503 0.03368 0.61367 0.0
O508 O 0.51532 0.02042 0.54536 0.0
C509 C 0.46073 0.03904 0.55069 0.0
O510 O 0.46707 0.05055 0.58617 0.0
O511 O 0.46073 0.02485 0.67476 0.0
C512 C 0.53447 0.00584 0.6958 0.0
O513 O 0.51767 0.99789 0.70518 0.0
O514 O 0.5395 0.00918 0.64954 0.0
O515 O 0.51055 0.97698 0.60631 0.0
O516 O 0.48285 0.98851 0.63297 0.0
O517 O 0.54977 0.98989 0.54648 0.0
C518 C 0.50952 0.03506 0.5679 0.0
C519 C 0.49405 0.97471 0.62665 0.0
Zn520 Zn 0.50157 0.48562 0.61773 0.0
Zn521 Zn 0.5023 0.52976 0.58514 0.0
C522 C 0.51201 0.44981 0.6579 0.0
O523 O 0.529 0.4574 0.64894 0.0
C524 C 0.49286 0.56525 0.54129 0.0
O525 O 0.47566 0.5579 0.54896 0.0
O526 O 0.52457 0.48265 0.571 0.0
O527 O 0.47849 0.49202 0.57375 0.0
O528 O 0.49378 0.51341 0.52641 0.0
C529 C 0.52243 0.47309 0.53036 0.0
O530 O 0.50515 0.46712 0.51782 0.0
O531 O 0.49709 0.45946 0.64879 0.0
C532 C 0.48208 0.54416 0.67068 0.0
O533 O 0.49941 0.55073 0.68027 0.0
O534 O 0.47962 0.5335 0.63228 0.0
O535 O 0.52529 0.52284 0.62875 0.0
O536 O 0.50935 0.50217 0.67683 0.0
O537 O 0.5075 0.5556 0.55328 0.0
C538 C 0.48049 0.50109 0.53146 0.0
C539 C 0.52288 0.51423 0.67159 0.0
Zn540 Zn 0.01427 0.49403 0.6467 0.0
Zn541 Zn 0.98062 0.51182 0.58804 0.0
C542 C 0.04729 0.49299 0.70875 0.0
O543 O 0.04557 0.51107 0.69895 0.0
C544 C 0.9506 0.5139 0.51172 0.0
O545 O 0.95733 0.49728 0.50027 0.0
O546 O 0.03145 0.50776 0.5961 0.0
O547 O 0.99931 0.47357 0.60848 0.0
O548 O 0.9938 0.49298 0.54393 0.0
C549 C 0.04112 0.49763 0.56595 0.0
O550 O 0.03785 0.47939 0.56538 0.0
O551 O 0.03422 0.48177 0.6929 0.0
C552 C 0.9522 0.4879 0.64064 0.0
O553 O 0.94959 0.48001 0.59572 0.0
O554 O 0.96617 0.49936 0.64625 0.0
O555 O 0.99631 0.53235 0.62123 0.0
O556 O 0.00068 0.51378 0.68853 0.0
O557 O 0.95913 0.5236 0.54586 0.0
C558 C 0.99595 0.47631 0.56083 0.0
C559 C 0.99881 0.53026 0.6695 0.0
C560 C 0.1683 0.04728 0.3005 0.0
C561 C 0.16557 0.05254 0.24865 0.0
C562 C 0.15278 0.04166 0.33127 0.0
C563 C 0.10402 0.02265 0.33381 0.0
H564 H 0.10004 0.05012 0.46144 0.0
C565 C 0.03967 0.01222 0.4745 0.0
C566 C 0.04351 0.01327 0.52751 0.0
C567 C 0.05392 0.01685 0.43824 0.0
C568 C 0.10104 0.04207 0.42643 0.0
H569 H 0.14447 0.05481 0.1877 0.0
H570 H 0.11721 0.04444 0.24173 0.0
H571 H 0.12605 0.05752 0.40161 0.0
H572 H 0.06544 0.01956 0.58403 0.0
H573 H 0.09043 0.02698 0.52119 0.0
H574 H 0.07936 0.00675 0.3593 0.0
C575 C 0.13147 0.04498 0.25834 0.0
C576 C 0.1159 0.04642 0.39199 0.0
C577 C 0.14706 0.05085 0.22745 0.0
C578 C 0.06196 0.01879 0.54348 0.0
C579 C 0.07627 0.02318 0.5073 0.0
C580 C 0.08924 0.01808 0.36871 0.0
C581 C 0.13416 0.04086 0.3109 0.0
C582 C 0.11767 0.03665 0.3456 0.0
C583 C 0.07243 0.02244 0.45414 0.0
C584 C 0.08767 0.02762 0.41578 0.0
H585 H 0.18244 0.04787 0.31773 0.0
H586 H 0.15531 0.03817 0.37139 0.0
H587 H 0.10513 0.01486 0.29835 0.0
H588 H 0.02553 0.00812 0.46096 0.0
H589 H 0.0503 0.01636 0.39776 0.0
C590 C 0.51227 0.18971 0.3475 0.0
C591 C 0.51692 0.18806 0.29501 0.0
C592 C 0.50896 0.17369 0.37821 0.0
C593 C 0.49802 0.12251 0.37323 0.0
H594 H 0.52332 0.12112 0.50606 0.0
C595 C 0.51051 0.05326 0.48483 0.0
C596 C 0.50855 0.0531 0.53872 0.0
C597 C 0.50953 0.0701 0.45675 0.0
C598 C 0.51589 0.12136 0.46948 0.0
H599 H 0.52132 0.16817 0.23356 0.0
H600 H 0.51543 0.14024 0.28702 0.0
H601 H 0.52481 0.14979 0.45364 0.0
H602 H 0.50406 0.07058 0.60538 0.0
H603 H 0.50227 0.10009 0.55618 0.0
H604 H 0.48929 0.09399 0.38884 0.0
C605 C 0.51417 0.15396 0.30434 0.0
C606 C 0.51675 0.13781 0.43937 0.0
C607 C 0.51753 0.16999 0.27363 0.0
C608 C 0.50561 0.07023 0.5639 0.0
C609 C 0.50467 0.08713 0.53573 0.0
C610 C 0.49712 0.10607 0.40339 0.0
C611 C 0.51014 0.1556 0.35718 0.0
C612 C 0.50805 0.13851 0.39058 0.0
C613 C 0.50664 0.08726 0.48178 0.0
C614 C 0.50629 0.1052 0.45155 0.0
H615 H 0.51132 0.20342 0.36503 0.0
H616 H 0.50555 0.17546 0.41855 0.0
H617 H 0.49088 0.12267 0.33622 0.0
H618 H 0.51278 0.04034 0.46413 0.0
H619 H 0.51141 0.0697 0.41538 0.0
C620 C 0.36431 0.44132 0.23429 0.0
C621 C 0.35277 0.45439 0.2083 0.0
C622 C 0.38203 0.44681 0.25459 0.0
C623 C 0.40446 0.49018 0.30433 0.0
H624 H 0.44466 0.45556 0.34322 0.0
C625 C 0.46623 0.5093 0.44559 0.0
C626 C 0.46815 0.49645 0.48685 0.0
C627 C 0.45463 0.5049 0.40334 0.0
C628 C 0.43355 0.46539 0.3325 0.0
H629 H 0.35149 0.48288 0.17835 0.0
H630 H 0.38294 0.4924 0.21191 0.0
H631 H 0.42152 0.44661 0.27715 0.0
H632 H 0.45967 0.46879 0.51566 0.0
H633 H 0.4397 0.461 0.44144 0.0
H634 H 0.4166 0.5089 0.35999 0.0
C635 C 0.37805 0.47802 0.2181 0.0
C636 C 0.42025 0.46028 0.29472 0.0
C637 C 0.36019 0.47251 0.19799 0.0
C638 C 0.45841 0.47902 0.48465 0.0
C639 C 0.44712 0.47449 0.44198 0.0
C640 C 0.41797 0.4954 0.34149 0.0
C641 C 0.38871 0.46551 0.24909 0.0
C642 C 0.40509 0.47233 0.28133 0.0
C643 C 0.44504 0.48741 0.40102 0.0
C644 C 0.43228 0.48283 0.35707 0.0
H645 H 0.35883 0.42729 0.24293 0.0
H646 H 0.3896 0.43672 0.27831 0.0
H647 H 0.39291 0.49978 0.29592 0.0
H648 H 0.47353 0.52285 0.4462 0.0
H649 H 0.45327 0.5151 0.37228 0.0
C650 C 0.95788 0.34762 0.27354 0.0
C651 C 0.9724 0.33525 0.25865 0.0
C652 C 0.96236 0.36396 0.30049 0.0
C653 C 0.99896 0.38331 0.38742 0.0
H654 H 0.97002 0.42912 0.36866 0.0
C655 C 0.99593 0.44164 0.54157 0.0
C656 C 0.99538 0.46045 0.52424 0.0
C657 C 0.99489 0.42685 0.50643 0.0
C658 C 0.97843 0.41654 0.37417 0.0
H659 H 0.00309 0.33068 0.25828 0.0
H660 H 0.01104 0.35951 0.30514 0.0
H661 H 0.96568 0.40341 0.3087 0.0
H662 H 0.9939 0.47841 0.45617 0.0
H663 H 0.99239 0.45278 0.39534 0.0
H664 H 0.01178 0.39655 0.45286 0.0
C665 C 0.99613 0.3564 0.29643 0.0
C666 C 0.97579 0.40171 0.34001 0.0
C667 C 0.99163 0.34002 0.26911 0.0
C668 C 0.99415 0.46411 0.47102 0.0
C669 C 0.9932 0.44938 0.43602 0.0
C670 C 0.00162 0.39819 0.42166 0.0
C671 C 0.98149 0.36836 0.31331 0.0
C672 C 0.9858 0.3848 0.34659 0.0
C673 C 0.99334 0.43055 0.45322 0.0
C674 C 0.99123 0.41492 0.41578 0.0
H675 H 0.94294 0.34435 0.26568 0.0
H676 H 0.95069 0.37271 0.3132 0.0
H677 H 0.00678 0.37042 0.39394 0.0
H678 H 0.99687 0.43834 0.58229 0.0
H679 H 0.99483 0.41251 0.5211 0.0
C680 C 0.85585 0.93269 0.97939 0.0
C681 C 0.84554 0.94606 0.00713 0.0
C682 C 0.87257 0.93789 0.95289 0.0
C683 C 0.90974 0.97486 0.93198 0.0
H684 H 0.90698 0.95762 0.79105 0.0
C685 C 0.96041 0.00307 0.76886 0.0
C686 C 0.96644 0.99004 0.73203 0.0
C687 C 0.94667 0.99792 0.80615 0.0
C688 C 0.90821 0.96235 0.8304 0.0
H689 H 0.84526 0.97498 0.03223 0.0
H690 H 0.87471 0.98421 0.9856 0.0
H691 H 0.88238 0.9478 0.85231 0.0
H692 H 0.96321 0.96117 0.7067 0.0
H693 H 0.93972 0.95214 0.7719 0.0
H694 H 0.93571 0.98941 0.9097 0.0
C695 C 0.86987 0.96967 0.98458 0.0
C696 C 0.89406 0.95671 0.86558 0.0
C697 C 0.85308 0.96441 0.01137 0.0
C698 C 0.95872 0.97167 0.73396 0.0
C699 C 0.94515 0.9665 0.77134 0.0
C700 C 0.92406 0.98043 0.89667 0.0
C701 C 0.87929 0.95663 0.95328 0.0
C702 C 0.8947 0.96276 0.91686 0.0
C703 C 0.93876 0.97959 0.80756 0.0
C704 C 0.92351 0.97412 0.84547 0.0
H705 H 0.85036 0.91842 0.97586 0.0
H706 H 0.87976 0.92743 0.93006 0.0
H707 H 0.91059 0.97975 0.97124 0.0
H708 H 0.96607 0.01734 0.76847 0.0
H709 H 0.94195 0.00841 0.83311 0.0
C710 C 0.47753 0.8343 0.90283 0.0
C711 C 0.45859 0.82844 0.9135 0.0
C712 C 0.48117 0.84989 0.87062 0.0
C713 C 0.45744 0.88006 0.77125 0.0
H714 H 0.50183 0.91247 0.79308 0.0
C715 C 0.47026 0.95252 0.66903 0.0
C716 C 0.48896 0.95621 0.65049 0.0
C717 C 0.46621 0.9362 0.69806 0.0
C718 C 0.48946 0.90343 0.78627 0.0
H719 H 0.42861 0.83469 0.90076 0.0
H720 H 0.43485 0.86231 0.84641 0.0
H721 H 0.49541 0.88629 0.85237 0.0
H722 H 0.5179 0.94527 0.64665 0.0
H723 H 0.51082 0.91698 0.69767 0.0
H724 H 0.45127 0.89773 0.70593 0.0
C725 C 0.44697 0.85455 0.86117 0.0
C726 C 0.48579 0.88836 0.82018 0.0
C727 C 0.44336 0.83881 0.8927 0.0
C728 C 0.50332 0.94287 0.66009 0.0
C729 C 0.49933 0.92673 0.68972 0.0
C730 C 0.46098 0.89531 0.7378 0.0
C731 C 0.46593 0.86016 0.84894 0.0
C732 C 0.46975 0.87641 0.81311 0.0
C733 C 0.48083 0.9234 0.70978 0.0
C734 C 0.47707 0.9071 0.74484 0.0
H735 H 0.48953 0.82641 0.9179 0.0
H736 H 0.49596 0.85353 0.86163 0.0
H737 H 0.44517 0.871 0.76375 0.0
H738 H 0.45887 0.96249 0.66241 0.0
H739 H 0.45183 0.934 0.71316 0.0
C740 C 0.6411 0.56985 0.97439 0.0
C741 C 0.64876 0.55721 0.01068 0.0
C742 C 0.62438 0.56533 0.94755 0.0
C743 C 0.59723 0.52365 0.90417 0.0
H744 H 0.56303 0.56159 0.84948 0.0
C745 C 0.53582 0.50692 0.75967 0.0
C746 C 0.53531 0.51886 0.71607 0.0
C747 C 0.54758 0.5113 0.80161 0.0
C748 C 0.57248 0.55084 0.86443 0.0
H749 H 0.64422 0.53046 0.04988 0.0
H750 H 0.61455 0.52263 0.00367 0.0
H751 H 0.5861 0.57 0.91615 0.0
H752 H 0.54659 0.54488 0.68272 0.0
H753 H 0.56694 0.55259 0.75606 0.0
H754 H 0.58359 0.50455 0.85199 0.0
C755 C 0.62175 0.53592 0.99523 0.0
C756 C 0.58573 0.55564 0.90262 0.0
C757 C 0.63859 0.54048 0.0222 0.0
C758 C 0.54669 0.53535 0.71558 0.0
C759 C 0.55823 0.53985 0.75777 0.0
C760 C 0.58382 0.5188 0.86633 0.0
C761 C 0.61476 0.54806 0.95643 0.0
C762 C 0.59866 0.54225 0.92199 0.0
C763 C 0.55886 0.52785 0.80118 0.0
C764 C 0.57165 0.53247 0.84511 0.0
H765 H 0.64859 0.58291 0.96497 0.0
H766 H 0.61965 0.57498 0.91774 0.0
H767 H 0.60708 0.51299 0.91756 0.0
H768 H 0.52725 0.49409 0.76123 0.0
H769 H 0.54773 0.50183 0.8346 0.0
C770 C 0.00035 0.66992 0.94746 0.0
C771 C 0.01923 0.67674 0.95373 0.0
C772 C 0.9969 0.653 0.92151 0.0
C773 C 0.01942 0.62485 0.82148 0.0
H774 H 0.98255 0.58569 0.85946 0.0
C775 C 0.99936 0.56519 0.68273 0.0
C776 C 0.99933 0.54685 0.7036 0.0
C777 C 0.00039 0.58081 0.71488 0.0
C778 C 0.99292 0.59652 0.84848 0.0
H779 H 0.0493 0.67047 0.94205 0.0
H780 H 0.04333 0.64109 0.89719 0.0
H781 H 0.98725 0.61283 0.91585 0.0
H782 H 0.99988 0.53056 0.77484 0.0
H783 H 0.00167 0.55787 0.83085 0.0
H784 H 0.02524 0.60867 0.75449 0.0
C785 C 0.03116 0.64895 0.91104 0.0
C786 C 0.9955 0.61208 0.88055 0.0
C787 C 0.03458 0.66573 0.93687 0.0
C788 C 0.99994 0.5445 0.75744 0.0
C789 C 0.00082 0.56014 0.78961 0.0
C790 C 0.01672 0.60946 0.78933 0.0
C791 C 0.0123 0.64271 0.9015 0.0
C792 C 0.00894 0.6263 0.86758 0.0
C793 C 0.00127 0.57846 0.76866 0.0
C794 C 0.00353 0.59506 0.80252 0.0
H795 H 0.98826 0.67817 0.95999 0.0
H796 H 0.9822 0.64851 0.91475 0.0
H797 H 0.02969 0.63571 0.81005 0.0
H798 H 0.99882 0.56752 0.64148 0.0
H799 H 0.0005 0.59477 0.69761 0.0
C800 C 0.90883 0.15643 0.28475 0.0
C801 C 0.91581 0.17471 0.295 0.0
C802 C 0.91268 0.14147 0.31858 0.0
C803 C 0.95126 0.13028 0.40834 0.0
H804 H 0.92377 0.08294 0.42859 0.0
C805 C 0.9915 0.06588 0.47703 0.0
C806 C 0.98335 0.05577 0.51854 0.0
C807 C 0.98056 0.07868 0.44902 0.0
C808 C 0.93155 0.09614 0.42342 0.0
H809 H 0.92993 0.1918 0.35315 0.0
H810 H 0.93534 0.16617 0.4128 0.0
H811 H 0.9074 0.10973 0.38841 0.0
H812 H 0.95702 0.05016 0.5612 0.0
H813 H 0.93792 0.07287 0.5126 0.0
H814 H 0.97527 0.11701 0.44335 0.0
C815 C 0.92777 0.1632 0.37736 0.0
C816 C 0.92222 0.11142 0.40029 0.0
C817 C 0.92432 0.17805 0.34321 0.0
C818 C 0.96368 0.05778 0.52934 0.0
C819 C 0.95273 0.07075 0.50148 0.0
C820 C 0.9605 0.11512 0.43126 0.0
C821 C 0.92322 0.1446 0.3638 0.0
C822 C 0.93204 0.12866 0.3923 0.0
C823 C 0.96128 0.08183 0.46229 0.0
C824 C 0.95089 0.0978 0.43845 0.0
H825 H 0.90158 0.15338 0.24893 0.0
H826 H 0.90872 0.12733 0.30722 0.0
H827 H 0.95945 0.14316 0.40188 0.0
H828 H 0.00655 0.06441 0.46736 0.0
H829 H 0.98741 0.08665 0.41809 0.0
C830 C 0.3171 0.09882 0.36085 0.0
C831 C 0.31768 0.11484 0.32853 0.0
C832 C 0.33392 0.09183 0.38232 0.0
C833 C 0.38266 0.10181 0.42065 0.0
H834 H 0.3921 0.04989 0.3845 0.0
C835 C 0.45031 0.06491 0.49272 0.0
C836 C 0.44774 0.04639 0.51105 0.0
C837 C 0.43615 0.07347 0.46301 0.0
C838 C 0.38963 0.06432 0.39544 0.0
H839 H 0.33608 0.13681 0.29614 0.0
H840 H 0.36563 0.12479 0.3354 0.0
H841 H 0.36337 0.06546 0.35278 0.0
H842 H 0.42893 0.02192 0.51118 0.0
H843 H 0.40377 0.03697 0.461 0.0
H844 H 0.40826 0.10055 0.46549 0.0
C845 C 0.3521 0.1176 0.34329 0.0
C846 C 0.37323 0.07323 0.37708 0.0
C847 C 0.33525 0.12447 0.32101 0.0
C848 C 0.43128 0.03616 0.49693 0.0
C849 C 0.41689 0.04484 0.4681 0.0
C850 C 0.39891 0.0928 0.43985 0.0
C851 C 0.3516 0.10085 0.37251 0.0
C852 C 0.36951 0.09195 0.39005 0.0
C853 C 0.41889 0.06381 0.4521 0.0
C854 C 0.40251 0.07385 0.42795 0.0
H855 H 0.30385 0.09091 0.36671 0.0
H856 H 0.33321 0.07898 0.40521 0.0
H857 H 0.38 0.11625 0.4312 0.0
H858 H 0.46302 0.073 0.50285 0.0
H859 H 0.43848 0.08786 0.45009 0.0
C860 C 0.60479 0.34445 0.36114 0.0
C861 C 0.59535 0.34246 0.31367 0.0
C862 C 0.60556 0.36197 0.3854 0.0
C863 C 0.59438 0.41305 0.36453 0.0
H864 H 0.57683 0.41015 0.50614 0.0
C865 C 0.53746 0.45959 0.45238 0.0
C866 C 0.53921 0.46534 0.50363 0.0
C867 C 0.5517 0.44872 0.42993 0.0
C868 C 0.58221 0.4113 0.46703 0.0
H869 H 0.57952 0.3575 0.25442 0.0
H870 H 0.58084 0.38754 0.29609 0.0
H871 H 0.58906 0.38209 0.46521 0.0
H872 H 0.55767 0.46525 0.57078 0.0
H873 H 0.58232 0.4456 0.53185 0.0
H874 H 0.58577 0.44191 0.3653 0.0
C875 C 0.58816 0.37587 0.31427 0.0
C876 C 0.58927 0.3952 0.44351 0.0
C877 C 0.58738 0.35849 0.29022 0.0
C878 C 0.55601 0.46105 0.53107 0.0
C879 C 0.57007 0.44979 0.50896 0.0
C880 C 0.58705 0.42905 0.38783 0.0
C881 C 0.59687 0.3778 0.36267 0.0
C882 C 0.59452 0.39567 0.39118 0.0
C883 C 0.56775 0.44309 0.45869 0.0
C884 C 0.58012 0.42808 0.43856 0.0
H885 H 0.6112 0.3324 0.38004 0.0
H886 H 0.61251 0.363 0.42253 0.0
H887 H 0.59879 0.41401 0.32456 0.0
H888 H 0.52465 0.46272 0.43044 0.0
H889 H 0.54945 0.44359 0.39128 0.0
C890 C 0.17856 0.45074 0.41269 0.0
C891 C 0.19382 0.45984 0.38686 0.0
C892 C 0.16634 0.461 0.44409 0.0
C893 C 0.14379 0.50469 0.43946 0.0
H894 H 0.12247 0.49017 0.57239 0.0
C895 C 0.07209 0.515 0.57383 0.0
C896 C 0.05906 0.50487 0.54321 0.0
C897 C 0.09131 0.51684 0.5588 0.0
C898 C 0.12856 0.49476 0.53583 0.0
H899 H 0.20897 0.48639 0.375 0.0
H900 H 0.18708 0.50449 0.4287 0.0
H901 H 0.15326 0.47731 0.54496 0.0
H902 H 0.05513 0.49031 0.47129 0.0
H903 H 0.08854 0.49435 0.44369 0.0
H904 H 0.11808 0.5205 0.42803 0.0
C905 C 0.18489 0.48942 0.42557 0.0
C906 C 0.14606 0.48734 0.52016 0.0
C907 C 0.19738 0.47908 0.39512 0.0
C908 C 0.06495 0.49831 0.49515 0.0
C909 C 0.084 0.50064 0.47944 0.0
C910 C 0.12608 0.51176 0.45465 0.0
C911 C 0.16899 0.48053 0.44904 0.0
C912 C 0.15343 0.49174 0.47113 0.0
C913 C 0.09749 0.50909 0.51231 0.0
C914 C 0.11805 0.5063 0.50216 0.0
H915 H 0.17555 0.43594 0.40652 0.0
H916 H 0.15399 0.45393 0.46138 0.0
H917 H 0.14914 0.50809 0.40122 0.0
H918 H 0.06788 0.51994 0.61144 0.0
H919 H 0.10156 0.52325 0.5848 0.0
C920 C 0.07582 0.83777 0.87789 0.0
C921 C 0.08549 0.83616 0.92505 0.0
C922 C 0.07877 0.85349 0.84613 0.0
C923 C 0.09216 0.90334 0.85866 0.0
H924 H 0.07915 0.90306 0.71379 0.0
C925 C 0.04823 0.96139 0.76533 0.0
C926 C 0.0483 0.96389 0.71169 0.0
C927 C 0.06012 0.94808 0.78846 0.0
C928 C 0.08329 0.90362 0.75388 0.0
H929 H 0.10712 0.84891 0.97383 0.0
H930 H 0.11266 0.87631 0.91761 0.0
H931 H 0.08812 0.87399 0.75629 0.0
H932 H 0.06222 0.95594 0.64062 0.0
H933 H 0.08361 0.9333 0.68114 0.0
H934 H 0.08747 0.933 0.85615 0.0
C935 C 0.10238 0.86564 0.90584 0.0
C936 C 0.08816 0.88679 0.77853 0.0
C937 C 0.09928 0.84993 0.93795 0.0
C938 C 0.06167 0.95406 0.68206 0.0
C939 C 0.07383 0.941 0.70529 0.0
C940 C 0.08765 0.92025 0.83377 0.0
C941 C 0.0916 0.86797 0.8605 0.0
C942 C 0.09158 0.88625 0.83183 0.0
C943 C 0.0726 0.9372 0.75852 0.0
C944 C 0.08211 0.92044 0.78172 0.0
H945 H 0.06491 0.82755 0.86718 0.0
H946 H 0.06992 0.85484 0.81211 0.0
H947 H 0.09475 0.90357 0.89972 0.0
H948 H 0.03807 0.96876 0.78918 0.0
H949 H 0.0585 0.9455 0.8294 0.0
C950 C 0.65769 0.92827 0.92858 0.0
C951 C 0.67369 0.93812 0.94743 0.0
C952 C 0.64263 0.93804 0.90541 0.0
C953 C 0.62971 0.98554 0.85297 0.0
H954 H 0.57825 0.96449 0.86438 0.0
C955 C 0.56879 0.00914 0.72138 0.0
C956 C 0.54956 0.00574 0.73574 0.0
C957 C 0.58369 0.00428 0.7544 0.0
C958 C 0.59242 0.97089 0.86176 0.0
H959 H 0.68659 0.96566 0.95819 0.0
H960 H 0.66008 0.98281 0.92034 0.0
H961 H 0.60458 0.94867 0.90645 0.0
H962 H 0.53085 0.99676 0.79844 0.0
H963 H 0.55692 0.9892 0.85741 0.0
H964 H 0.61741 0.00829 0.81065 0.0
C965 C 0.65929 0.96758 0.92093 0.0
C966 C 0.60769 0.9615 0.88495 0.0
C967 C 0.67451 0.95779 0.94278 0.0
C968 C 0.54552 0.99929 0.78598 0.0
C969 C 0.5605 0.99473 0.81953 0.0
C970 C 0.61438 0.99518 0.83093 0.0
C971 C 0.64305 0.95788 0.90214 0.0
C972 C 0.62662 0.96844 0.87981 0.0
C973 C 0.57978 0.99627 0.80316 0.0
C974 C 0.59559 0.98773 0.83372 0.0
H975 H 0.6568 0.91308 0.93217 0.0
H976 H 0.63065 0.92999 0.89032 0.0
H977 H 0.64403 0.99135 0.84761 0.0
H978 H 0.57246 0.01423 0.68307 0.0
H979 H 0.59823 0.0056 0.73989 0.0
C980 C 0.40101 0.67051 0.81456 0.0
C981 C 0.39192 0.67192 0.86271 0.0
C982 C 0.40252 0.65312 0.79062 0.0
C983 C 0.40813 0.60459 0.83086 0.0
H984 H 0.41464 0.59727 0.68424 0.0
C985 C 0.46831 0.5615 0.74464 0.0
C986 C 0.46544 0.55187 0.69839 0.0
C987 C 0.45344 0.5717 0.76652 0.0
C988 C 0.41251 0.59883 0.72528 0.0
H989 H 0.37528 0.65649 0.92043 0.0
H990 H 0.37813 0.62601 0.87876 0.0
H991 H 0.39708 0.62447 0.71469 0.0
H992 H 0.44442 0.54439 0.64035 0.0
H993 H 0.41841 0.56243 0.6785 0.0
H994 H 0.42435 0.57945 0.84148 0.0
C995 C 0.38436 0.63836 0.86004 0.0
C996 C 0.40259 0.61451 0.7427 0.0
C997 C 0.38275 0.65582 0.88389 0.0
C998 C 0.44706 0.55168 0.67607 0.0
C999 C 0.4322 0.56208 0.69771 0.0
C1000 C 0.41809 0.58896 0.81345 0.0
C1001 C 0.39501 0.63671 0.81433 0.0
C1002 C 0.40102 0.61799 0.79568 0.0
C1003 C 0.43541 0.57262 0.74239 0.0
C1004 C 0.42111 0.58637 0.76053 0.0
H1005 H 0.40842 0.68252 0.79727 0.0
H1006 H 0.41098 0.65235 0.75568 0.0
H1007 H 0.40729 0.60688 0.87194 0.0
H1008 H 0.48229 0.56184 0.76283 0.0
H1009 H 0.45646 0.57982 0.80065 0.0
C1010 C 0.82891 0.57174 0.85595 0.0
C1011 C 0.80987 0.56502 0.85331 0.0
C1012 C 0.84367 0.56222 0.83143 0.0
C1013 C 0.85468 0.51479 0.78238 0.0
H1014 H 0.90074 0.54028 0.73236 0.0
C1015 C 0.91745 0.48316 0.66265 0.0
C1016 C 0.93598 0.48915 0.67719 0.0
C1017 C 0.90131 0.48977 0.68862 0.0
C1018 C 0.888 0.53299 0.74667 0.0
H1019 H 0.7913 0.54368 0.81974 0.0
H1020 H 0.81688 0.52775 0.77461 0.0
H1021 H 0.87364 0.55877 0.76089 0.0
H1022 H 0.95222 0.5046 0.73455 0.0
H1023 H 0.92405 0.51618 0.77929 0.0
H1024 H 0.8691 0.48897 0.76611 0.0
C1025 C 0.82051 0.53998 0.79727 0.0
C1026 C 0.87247 0.54357 0.76305 0.0
C1027 C 0.80576 0.54936 0.82238 0.0
C1028 C 0.93813 0.49997 0.72183 0.0
C1029 C 0.92204 0.50669 0.74736 0.0
C1030 C 0.87015 0.5042 0.76509 0.0
C1031 C 0.83973 0.54591 0.80293 0.0
C1032 C 0.85569 0.53462 0.78179 0.0
C1033 C 0.90355 0.50244 0.72926 0.0
C1034 C 0.88703 0.51325 0.74788 0.0
H1035 H 0.83253 0.58394 0.87874 0.0
H1036 H 0.85828 0.5672 0.83696 0.0
H1037 H 0.84212 0.50739 0.79731 0.0
H1038 H 0.9153 0.47473 0.62863 0.0
H1039 H 0.88714 0.48624 0.67423 0.0
C1040 C 0.01981 0.20905 0.91997 0.0
C1041 C 0.00146 0.21692 0.91701 0.0
C1042 C 0.02523 0.1951 0.88529 0.0
C1043 C 0.00993 0.16997 0.76597 0.0
H1044 H 0.02829 0.12571 0.8385 0.0
C1045 C 0.99148 0.09506 0.70251 0.0
C1046 C 0.00542 0.08097 0.70581 0.0
C1047 C 0.9952 0.11303 0.72143 0.0
C1048 C 0.02352 0.13802 0.81732 0.0
H1049 H 0.97491 0.2175 0.87409 0.0
H1050 H 0.98429 0.19347 0.8134 0.0
H1051 H 0.02817 0.15596 0.88176 0.0
H1052 H 0.03433 0.07479 0.73126 0.0
H1053 H 0.04072 0.10631 0.76532 0.0
H1054 H 0.00437 0.15176 0.70247 0.0
C1055 C 0.99466 0.19799 0.84183 0.0
C1056 C 0.02351 0.15541 0.84206 0.0
C1057 C 0.98924 0.21179 0.87656 0.0
C1058 C 0.02328 0.08534 0.72824 0.0
C1059 C 0.02693 0.10335 0.74779 0.0
C1060 C 0.00986 0.15258 0.74137 0.0
C1061 C 0.01239 0.18887 0.84708 0.0
C1062 C 0.01609 0.17148 0.8173 0.0
C1063 C 0.0129 0.1174 0.74454 0.0
C1064 C 0.01605 0.13629 0.76738 0.0
H1065 H 0.02934 0.21261 0.95138 0.0
H1066 H 0.03908 0.18852 0.89001 0.0
H1067 H 0.00446 0.18212 0.74542 0.0
H1068 H 0.9776 0.09223 0.6853 0.0
H1069 H 0.98396 0.12341 0.71907 0.0
C1070 C 0.30157 0.05306 0.92771 0.0
C1071 C 0.29458 0.07123 0.91837 0.0
C1072 C 0.31634 0.04593 0.89725 0.0
C1073 C 0.35645 0.06362 0.81552 0.0
H1074 H 0.36357 0.01069 0.78812 0.0
C1075 C 0.42866 0.03556 0.73897 0.0
C1076 C 0.42764 0.02144 0.70165 0.0
C1077 C 0.41209 0.04101 0.76536 0.0
C1078 C 0.36177 0.02556 0.79503 0.0
H1079 H 0.29627 0.09552 0.86736 0.0
H1080 H 0.32147 0.08283 0.81285 0.0
H1081 H 0.33391 0.02091 0.82823 0.0
H1082 H 0.40839 0.00193 0.66302 0.0
H1083 H 0.37969 0.01165 0.70784 0.0
H1084 H 0.38405 0.06835 0.78105 0.0
C1085 C 0.31611 0.07432 0.84476 0.0
C1086 C 0.3448 0.0314 0.81856 0.0
C1087 C 0.3015 0.0815 0.87552 0.0
C1088 C 0.40977 0.01279 0.69174 0.0
C1089 C 0.39325 0.01829 0.71776 0.0
C1090 C 0.37336 0.05779 0.79171 0.0
C1091 C 0.32429 0.05677 0.85654 0.0
C1092 C 0.34191 0.05051 0.8292 0.0
C1093 C 0.39413 0.03253 0.75478 0.0
C1094 C 0.37627 0.03868 0.7812 0.0
H1095 H 0.29668 0.04496 0.96093 0.0
H1096 H 0.3223 0.03242 0.90775 0.0
H1097 H 0.35496 0.07841 0.82396 0.0
H1098 H 0.44222 0.04248 0.74757 0.0
H1099 H 0.41337 0.05184 0.79416 0.0
C1100 C 0.51127 0.30893 0.92475 0.0
C1101 C 0.52858 0.29909 0.92152 0.0
C1102 C 0.50614 0.32168 0.8857 0.0
C1103 C 0.53218 0.35295 0.7978 0.0
H1104 H 0.48204 0.36818 0.74935 0.0
C1105 C 0.52578 0.41787 0.66814 0.0
C1106 C 0.5107 0.43026 0.67788 0.0
C1107 C 0.52574 0.39985 0.68998 0.0
C1108 C 0.49612 0.36417 0.76286 0.0
H1109 H 0.55303 0.29318 0.87308 0.0
H1110 H 0.54385 0.31492 0.8042 0.0
H1111 H 0.48519 0.33896 0.79977 0.0
H1112 H 0.48333 0.43327 0.7165 0.0
H1113 H 0.48359 0.4019 0.75677 0.0
H1114 H 0.54316 0.37828 0.76364 0.0
C1115 C 0.53443 0.31321 0.83723 0.0
C1116 C 0.49792 0.34739 0.79147 0.0
C1117 C 0.53959 0.30061 0.87631 0.0
C1118 C 0.49515 0.42399 0.70844 0.0
C1119 C 0.49528 0.40598 0.73124 0.0
C1120 C 0.53038 0.36968 0.76982 0.0
C1121 C 0.51828 0.32471 0.84292 0.0
C1122 C 0.51601 0.3416 0.80918 0.0
C1123 C 0.51083 0.39384 0.72321 0.0
C1124 C 0.51237 0.37557 0.75183 0.0
H1125 H 0.50268 0.30815 0.95958 0.0
H1126 H 0.49363 0.33033 0.89127 0.0
H1127 H 0.54625 0.34926 0.81215 0.0
H1128 H 0.53778 0.42218 0.64388 0.0
H1129 H 0.53766 0.39074 0.68149 0.0
C1130 C 0.20189 0.46194 0.91247 0.0
C1131 C 0.20344 0.44474 0.93917 0.0
C1132 C 0.18612 0.4653 0.8803 0.0
C1133 C 0.13568 0.44898 0.8647 0.0
H1134 H 0.13688 0.48228 0.74544 0.0
C1135 C 0.06731 0.46687 0.74639 0.0
C1136 C 0.06514 0.48597 0.73317 0.0
C1137 C 0.08459 0.46046 0.76757 0.0
C1138 C 0.1363 0.473 0.77883 0.0
H1139 H 0.19061 0.41707 0.95031 0.0
H1140 H 0.16355 0.42258 0.89282 0.0
H1141 H 0.16694 0.47316 0.78634 0.0
H1142 H 0.07954 0.51327 0.73169 0.0
H1143 H 0.10943 0.50213 0.76852 0.0
H1144 H 0.10503 0.44895 0.85734 0.0
C1145 C 0.17408 0.43375 0.8978 0.0
C1146 C 0.15355 0.46779 0.80234 0.0
C1147 C 0.1897 0.43049 0.93026 0.0
C1148 C 0.08063 0.49847 0.74157 0.0
C1149 C 0.09789 0.49205 0.76225 0.0
C1150 C 0.11845 0.4541 0.841 0.0
C1151 C 0.17166 0.45145 0.87391 0.0
C1152 C 0.15348 0.45589 0.84604 0.0
C1153 C 0.10013 0.47298 0.77544 0.0
C1154 C 0.11853 0.4664 0.79825 0.0
H1155 H 0.21213 0.47325 0.91922 0.0
H1156 H 0.18474 0.47914 0.86293 0.0
H1157 H 0.13493 0.44009 0.89883 0.0
H1158 H 0.0557 0.45686 0.74019 0.0
H1159 H 0.0859 0.44564 0.77708 0.0
C1160 C 0.97603 0.80323 0.29962 0.0
C1161 C 0.99387 0.79427 0.29965 0.0
C1162 C 0.97201 0.81692 0.33642 0.0
C1163 C 0.99112 0.83956 0.45588 0.0
H1164 H 0.97378 0.88563 0.39032 0.0
C1165 C 0.01597 0.91263 0.52 0.0
C1166 C 0.00252 0.92715 0.52337 0.0
C1167 C 0.01075 0.89521 0.49971 0.0
C1168 C 0.9783 0.87282 0.40954 0.0
H1169 H 0.02093 0.79147 0.33946 0.0
H1170 H 0.01403 0.81506 0.40364 0.0
H1171 H 0.97108 0.85594 0.34461 0.0
H1172 H 0.97303 0.93478 0.50778 0.0
H1173 H 0.96402 0.90427 0.4708 0.0
H1174 H 0.99941 0.85674 0.51952 0.0
C1175 C 0.00295 0.81159 0.37603 0.0
C1176 C 0.97668 0.85575 0.38346 0.0
C1177 C 0.00696 0.79803 0.33927 0.0
C1178 C 0.98371 0.92386 0.50565 0.0
C1179 C 0.97855 0.90644 0.48451 0.0
C1180 C 0.99289 0.85664 0.48169 0.0
C1181 C 0.98578 0.82181 0.37376 0.0
C1182 C 0.98371 0.839 0.40559 0.0
C1183 C 0.99202 0.89191 0.48167 0.0
C1184 C 0.9871 0.87353 0.45808 0.0
H1185 H 0.96586 0.80074 0.26888 0.0
H1186 H 0.95854 0.82434 0.33399 0.0
H1187 H 0.9963 0.8269 0.47455 0.0
H1188 H 0.03056 0.91463 0.53345 0.0
H1189 H 0.02153 0.88439 0.49725 0.0
C1190 C 0.70955 0.93058 0.38091 0.0
C1191 C 0.72298 0.94291 0.35743 0.0
C1192 C 0.69493 0.93753 0.412 0.0
C1193 C 0.66741 0.98104 0.4214 0.0
H1194 H 0.64006 0.95346 0.52909 0.0
C1195 C 0.59758 0.00847 0.51314 0.0
C1196 C 0.5826 0.99528 0.52116 0.0
C1197 C 0.61587 0.00262 0.49852 0.0
C1198 C 0.64749 0.96126 0.49882 0.0
H1199 H 0.73292 0.97189 0.35268 0.0
H1200 H 0.7078 0.984 0.40856 0.0
H1201 H 0.67144 0.94263 0.50045 0.0
H1202 H 0.5751 0.96556 0.51973 0.0
H1203 H 0.60705 0.95536 0.49374 0.0
H1204 H 0.64338 0.99949 0.41921 0.0
C1205 C 0.7082 0.96901 0.40166 0.0
C1206 C 0.66551 0.9551 0.48252 0.0
C1207 C 0.72281 0.96204 0.37034 0.0
C1208 C 0.5863 0.97609 0.51373 0.0
C1209 C 0.60465 0.97023 0.49935 0.0
C1210 C 0.64947 0.98724 0.43786 0.0
C1211 C 0.69349 0.95697 0.42056 0.0
C1212 C 0.67558 0.96475 0.44302 0.0
C1213 C 0.61967 0.98343 0.49178 0.0
C1214 C 0.63916 0.97727 0.47621 0.0
H1215 H 0.70942 0.91574 0.37179 0.0
H1216 H 0.68391 0.9278 0.42577 0.0
H1217 H 0.67447 0.98862 0.39012 0.0
H1218 H 0.59527 0.02335 0.51869 0.0
H1219 H 0.62714 0.01314 0.4934 0.0
C1220 C 0.45765 0.7019 0.3046 0.0
C1221 C 0.46882 0.70714 0.26161 0.0
C1222 C 0.46553 0.69125 0.34457 0.0
C1223 C 0.50209 0.65532 0.36036 0.0
H1224 H 0.4827 0.65426 0.50041 0.0
C1225 C 0.51222 0.59095 0.49698 0.0
C1226 C 0.49481 0.58444 0.51879 0.0
C1227 C 0.51335 0.60872 0.47293 0.0
C1228 C 0.48834 0.65442 0.46151 0.0
H1229 H 0.4973 0.70667 0.22822 0.0
H1230 H 0.5113 0.68812 0.29867 0.0
H1231 H 0.4777 0.68206 0.44615 0.0
H1232 H 0.46523 0.59177 0.53438 0.0
H1233 H 0.46724 0.62259 0.49298 0.0
H1234 H 0.51207 0.62738 0.3752 0.0
C1235 C 0.49637 0.6921 0.30122 0.0
C1236 C 0.48548 0.67034 0.43041 0.0
C1237 C 0.48845 0.70289 0.26122 0.0
C1238 C 0.47882 0.5963 0.51769 0.0
C1239 C 0.48002 0.61407 0.49437 0.0
C1240 C 0.50504 0.63944 0.3916 0.0
C1241 C 0.48478 0.68549 0.34233 0.0
C1242 C 0.49162 0.67068 0.37877 0.0
C1243 C 0.4972 0.62041 0.47109 0.0
C1244 C 0.49752 0.63853 0.44182 0.0
H1245 H 0.44244 0.70496 0.3056 0.0
H1246 H 0.45608 0.68632 0.3752 0.0
H1247 H 0.50686 0.65497 0.32068 0.0
H1248 H 0.52479 0.58213 0.49728 0.0
H1249 H 0.52679 0.61325 0.4554 0.0
C1250 C 0.80443 0.57877 0.32628 0.0
C1251 C 0.79341 0.56608 0.29713 0.0
C1252 C 0.81871 0.57223 0.35951 0.0
C1253 C 0.85215 0.53358 0.36282 0.0
H1254 H 0.86864 0.55409 0.4933 0.0
C1255 C 0.92048 0.50705 0.46281 0.0
C1256 C 0.93202 0.51999 0.48965 0.0
C1257 C 0.90246 0.51216 0.44426 0.0
C1258 C 0.86437 0.54837 0.45656 0.0
H1259 H 0.78753 0.5366 0.2831 0.0
H1260 H 0.81242 0.52511 0.34147 0.0
H1261 H 0.83779 0.5634 0.45669 0.0
H1262 H 0.93364 0.54856 0.51776 0.0
H1263 H 0.90242 0.55777 0.48354 0.0
H1264 H 0.87887 0.51924 0.36096 0.0
C1265 C 0.81011 0.54013 0.33832 0.0
C1266 C 0.84661 0.5536 0.43585 0.0
C1267 C 0.79569 0.54668 0.30546 0.0
C1268 C 0.92512 0.53827 0.49715 0.0
C1269 C 0.90712 0.54347 0.47796 0.0
C1270 C 0.86994 0.52854 0.38309 0.0
C1271 C 0.82236 0.55287 0.3638 0.0
C1272 C 0.84032 0.54626 0.3887 0.0
C1273 C 0.8955 0.53046 0.45131 0.0
C1274 C 0.87636 0.53587 0.43022 0.0
H1275 H 0.80299 0.59381 0.32033 0.0
H1276 H 0.8279 0.58241 0.3785 0.0
H1277 H 0.84797 0.52804 0.32577 0.0
H1278 H 0.92519 0.49277 0.45692 0.0
H1279 H 0.89385 0.50159 0.425 0.0
loop_
_geom_bond_atom_site_label_1
_geom_bond_atom_site_label_2
_geom_bond_distance
_geom_bond_site_symmetry_2
_ccdc_geom_bond_type
C0 C1 1.391 . S
C0 C4 1.391 . S
C0 H42 0.948 . S
C1 C0 1.391 . S
C1 C2 1.391 . S
C2 C1 1.391 . S
C2 H58 0.947 . S
C2 C59 1.392 . S
C3 C4 1.391 . S
C3 C7 1.397 . S
C3 C59 1.419 . S
C4 C0 1.391 . S
C4 C3 1.391 . S
C4 C5 1.399 . S
C5 C4 1.399 . S
C5 C8 1.396 . S
C5 C17 1.453 . S
C5 C18 1.684 . S
H6 C30 0.948 . S
C7 C3 1.397 . S
C7 C8 1.394 . S
C7 C26 1.723 . S
C8 C5 1.396 . S
C8 C7 1.394 . S
C8 C38 1.723 . S
H9 C32 0.947 . S
H10 C33 0.948 . S
H11 C39 0.982 . S
H12 C40 0.979 . S
H13 C40 0.980 . S
H14 C40 0.983 . S
H15 C39 0.979 . S
H16 C39 0.977 . S
C17 C5 1.453 . S
C17 H46 0.982 . S
C17 H47 0.979 . S
C17 H48 0.977 . S
C18 C5 1.684 . S
C18 H43 0.979 . S
C18 H44 0.980 . S
C18 H45 0.983 . S
C19 C20 1.391 . S
C19 C24 1.391 . S
C19 H49 0.948 . S
C20 C19 1.391 . S
C20 C21 1.391 . S
C21 C20 1.391 . S
C21 C22 1.392 . S
C21 H50 0.947 . S
C22 C21 1.392 . S
C22 C23 1.419 . S
C22 H51 0.948 . S
C23 C22 1.419 . S
C23 C24 1.391 . S
C23 C27 1.397 . S
C24 C19 1.391 . S
C24 C23 1.391 . S
C24 C25 1.399 1_556 S
C25 C24 1.399 1_554 S
C25 C26 1.396 . S
C25 C28 1.453 . S
C25 C29 1.684 . S
C26 C7 1.723 . S
C26 C25 1.396 . S
C26 C27 1.394 1_554 S
C27 C23 1.397 . S
C27 C26 1.394 1_556 S
C27 C37 1.723 . S
C28 C25 1.453 . S
C28 H52 0.982 . S
C28 H53 0.979 . S
C28 H54 0.977 . S
C29 C25 1.684 . S
C29 H55 0.979 . S
C29 H56 0.980 . S
C29 H57 0.983 . S
C30 H6 0.948 . S
C30 C31 1.391 . S
C30 C35 1.391 . S
C31 C30 1.391 . S
C31 C32 1.391 1_556 S
C32 H9 0.947 . S
C32 C31 1.391 1_554 S
C32 C33 1.392 . S
C33 H10 0.948 . S
C33 C32 1.392 . S
C33 C34 1.419 . S
C34 C33 1.419 . S
C34 C35 1.391 1_554 S
C34 C38 1.397 . S
C35 C30 1.391 . S
C35 C34 1.391 1_556 S
C35 C36 1.399 . S
C36 C35 1.399 . S
C36 C37 1.396 . S
C36 C39 1.453 . S
C36 C40 1.684 . S
C37 C27 1.723 . S
C37 C36 1.396 . S
C37 C38 1.394 1_556 S
C38 C8 1.723 . S
C38 C34 1.397 . S
C38 C37 1.394 1_554 S
C39 H11 0.982 . S
C39 H15 0.979 . S
C39 H16 0.977 . S
C39 C36 1.453 . S
C40 H12 0.979 . S
C40 H13 0.980 . S
C40 H14 0.983 . S
C40 C36 1.684 . S
H41 C59 0.948 . S
H42 C0 0.948 . S
H43 C18 0.979 . S
H44 C18 0.980 . S
H45 C18 0.983 . S
H46 C17 0.982 . S
H47 C17 0.979 . S
H48 C17 0.977 . S
H49 C19 0.948 . S
H50 C21 0.947 . S
H51 C22 0.948 . S
H52 C28 0.982 . S
H53 C28 0.979 . S
H54 C28 0.977 . S
H55 C29 0.979 . S
H56 C29 0.980 . S
H57 C29 0.983 . S
H58 C2 0.947 . S
C59 C2 1.392 . S
C59 C3 1.419 . S
C59 H41 0.948 . S
C60 C61 1.391 . S
C60 C64 1.391 . S
C60 H102 0.948 . S
C61 C60 1.391 . S
C61 C62 1.391 . S
C62 C61 1.391 . S
C62 H118 0.947 . S
C62 C119 1.392 . S
C63 C64 1.391 . S
C63 C67 1.397 1_656 S
C63 C119 1.419 . S
C64 C60 1.391 . S
C64 C63 1.391 . S
C64 C65 1.399 . S
C65 C64 1.399 . S
C65 C68 1.388 1_655 S
C65 C77 1.453 1_655 S
C65 C78 1.684 . S
H66 C90 0.948 . S
C67 C63 1.397 1_454 S
C67 C68 1.392 1_554 S
C67 C86 1.722 . S
C68 C65 1.388 1_455 S
C68 C67 1.392 1_556 S
C68 C98 1.723 1_556 S
H69 C92 0.947 . S
H70 C93 0.948 . S
H71 C99 0.982 . S
H72 C100 0.979 . S
H73 C100 0.980 . S
H74 C100 0.983 . S
H75 C99 0.979 . S
H76 C99 0.977 . S
C77 C65 1.453 1_455 S
C77 H106 0.982 . S
C77 H107 0.979 . S
C77 H108 0.977 . S
C78 C65 1.684 . S
C78 H103 0.979 . S
C78 H104 0.980 . S
C78 H105 0.983 . S
C79 C80 1.391 . S
C79 C84 1.391 . S
C79 H109 0.948 . S
C80 C79 1.391 . S
C80 C81 1.391 . S
C81 C80 1.391 . S
C81 C82 1.392 . S
C81 H110 0.947 . S
C82 C81 1.392 . S
C82 C83 1.419 . S
C82 H111 0.948 . S
C83 C82 1.419 . S
C83 C84 1.391 . S
C83 C87 1.397 1_655 S
C84 C79 1.391 . S
C84 C83 1.391 . S
C84 C85 1.399 . S
C85 C84 1.399 . S
C85 C86 1.388 1_655 S
C85 C88 1.453 1_655 S
C85 C89 1.684 . S
C86 C67 1.722 . S
C86 C85 1.388 1_455 S
C86 C87 1.394 . S
C87 C83 1.397 1_455 S
C87 C86 1.394 . S
C87 C97 1.721 . S
C88 C85 1.453 1_455 S
C88 H112 0.982 . S
C88 H113 0.979 . S
C88 H114 0.977 . S
C89 C85 1.684 . S
C89 H115 0.979 . S
C89 H116 0.980 . S
C89 H117 0.983 . S
C90 H66 0.948 . S
C90 C91 1.391 1_554 S
C90 C95 1.391 . S
C91 C90 1.391 1_556 S
C91 C92 1.391 . S
C92 H69 0.947 . S
C92 C91 1.391 . S
C92 C93 1.392 . S
C93 H70 0.948 . S
C93 C92 1.392 . S
C93 C94 1.419 1_556 S
C94 C93 1.419 1_554 S
C94 C95 1.391 . S
C94 C98 1.397 1_655 S
C95 C90 1.391 . S
C95 C94 1.391 . S
C95 C96 1.399 . S
C96 C95 1.399 . S
C96 C97 1.389 1_655 S
C96 C99 1.453 1_655 S
C96 C100 1.684 . S
C97 C87 1.721 . S
C97 C96 1.389 1_455 S
C97 C98 1.393 . S
C98 C68 1.723 1_554 S
C98 C94 1.397 1_455 S
C98 C97 1.393 . S
C99 H71 0.982 . S
C99 H75 0.979 . S
C99 H76 0.977 . S
C99 C96 1.453 1_455 S
C100 H72 0.979 . S
C100 H73 0.980 . S
C100 H74 0.983 . S
C100 C96 1.684 . S
H101 C119 0.948 1_554 S
H102 C60 0.948 . S
H103 C78 0.979 . S
H104 C78 0.980 . S
H105 C78 0.983 . S
H106 C77 0.982 . S
H107 C77 0.979 . S
H108 C77 0.977 . S
H109 C79 0.948 . S
H110 C81 0.947 . S
H111 C82 0.948 . S
H112 C88 0.982 . S
H113 C88 0.979 . S
H114 C88 0.977 . S
H115 C89 0.979 . S
H116 C89 0.980 . S
H117 C89 0.983 . S
H118 C62 0.947 . S
C119 C62 1.392 . S
C119 C63 1.419 . S
C119 H101 0.948 1_556 S
C120 C121 1.391 1_554 S
C120 C124 1.391 . S
C120 H162 0.948 . S
C121 C120 1.391 1_556 S
C121 C122 1.391 . S
C122 C121 1.391 . S
C122 H178 0.947 . S
C122 C179 1.392 . S
C123 C124 1.391 . S
C123 C127 1.397 . S
C123 C179 1.419 1_554 S
C124 C120 1.391 . S
C124 C123 1.391 . S
C124 C125 1.399 . S
C125 C124 1.399 . S
C125 C128 1.396 . S
C125 C137 1.453 . S
C125 C138 1.684 . S
H126 C150 0.948 . S
C127 C123 1.397 . S
C127 C128 1.394 . S
C127 C146 1.723 1_554 S
C128 C125 1.396 . S
C128 C127 1.394 . S
C128 C158 1.723 . S
H129 C152 0.947 . S
H130 C153 0.948 . S
H131 C159 0.982 . S
H132 C160 0.979 . S
H133 C160 0.980 . S
H134 C160 0.983 . S
H135 C159 0.979 . S
H136 C159 0.977 . S
C137 C125 1.453 . S
C137 H166 0.982 . S
C137 H167 0.979 . S
C137 H168 0.977 . S
C138 C125 1.684 . S
C138 H163 0.979 . S
C138 H164 0.980 . S
C138 H165 0.983 . S
C139 C140 1.391 . S
C139 C144 1.391 . S
C139 H169 0.948 . S
C140 C139 1.391 . S
C140 C141 1.391 . S
C141 C140 1.391 . S
C141 C142 1.392 . S
C141 H170 0.947 . S
C142 C141 1.392 . S
C142 C143 1.419 . S
C142 H171 0.948 1_556 S
C143 C142 1.419 . S
C143 C144 1.391 . S
C143 C147 1.397 1_556 S
C144 C139 1.391 . S
C144 C143 1.391 . S
C144 C145 1.399 . S
C145 C144 1.399 . S
C145 C146 1.396 . S
C145 C148 1.453 . S
C145 C149 1.684 . S
C146 C127 1.723 1_556 S
C146 C145 1.396 . S
C146 C147 1.394 1_556 S
C147 C143 1.397 1_554 S
C147 C146 1.394 1_554 S
C147 C157 1.723 . S
C148 C145 1.453 . S
C148 H172 0.982 . S
C148 H173 0.979 . S
C148 H174 0.977 . S
C149 C145 1.684 . S
C149 H175 0.979 . S
C149 H176 0.980 . S
C149 H177 0.983 . S
C150 H126 0.948 . S
C150 C151 1.391 . S
C150 C155 1.391 . S
C151 C150 1.391 . S
C151 C152 1.391 . S
C152 H129 0.947 . S
C152 C151 1.391 . S
C152 C153 1.392 . S
C153 H130 0.948 . S
C153 C152 1.392 . S
C153 C154 1.419 . S
C154 C153 1.419 . S
C154 C155 1.391 . S
C154 C158 1.397 . S
C155 C150 1.391 . S
C155 C154 1.391 . S
C155 C156 1.399 . S
C156 C155 1.399 . S
C156 C157 1.396 . S
C156 C159 1.453 . S
C156 C160 1.684 . S
C157 C147 1.723 . S
C157 C156 1.396 . S
C157 C158 1.394 . S
C158 C128 1.723 . S
C158 C154 1.397 . S
C158 C157 1.394 . S
C159 H131 0.982 . S
C159 H135 0.979 . S
C159 H136 0.977 . S
C159 C156 1.453 . S
C160 H132 0.979 . S
C160 H133 0.980 . S
C160 H134 0.983 . S
C160 C156 1.684 . S
H161 C179 0.948 . S
H162 C120 0.948 . S
H163 C138 0.979 . S
H164 C138 0.980 . S
H165 C138 0.983 . S
H166 C137 0.982 . S
H167 C137 0.979 . S
H168 C137 0.977 . S
H169 C139 0.948 . S
H170 C141 0.947 . S
H171 C142 0.948 1_554 S
H172 C148 0.982 . S
H173 C148 0.979 . S
H174 C148 0.977 . S
H175 C149 0.979 . S
H176 C149 0.980 . S
H177 C149 0.983 . S
H178 C122 0.947 . S
C179 C122 1.392 . S
C179 C123 1.419 1_556 S
C179 H161 0.948 . S
C180 C181 1.391 . S
C180 C184 1.391 . S
C180 H222 0.948 . S
C181 C180 1.391 . S
C181 C182 1.391 . S
C182 C181 1.391 . S
C182 H238 0.947 . S
C182 C239 1.392 . S
C183 C184 1.391 . S
C183 C187 1.397 . S
C183 C239 1.419 . S
C184 C180 1.391 . S
C184 C183 1.391 . S
C184 C185 1.399 . S
C185 C184 1.399 . S
C185 C188 1.396 . S
C185 C197 1.453 . S
C185 C198 1.684 . S
H186 C210 0.948 . S
C187 C183 1.397 . S
C187 C188 1.394 . S
C187 C206 1.723 . S
C188 C185 1.396 . S
C188 C187 1.394 . S
C188 C218 1.723 . S
H189 C212 0.947 . S
H190 C213 0.948 . S
H191 C219 0.982 . S
H192 C220 0.979 . S
H193 C220 0.980 . S
H194 C220 0.983 . S
H195 C219 0.979 . S
H196 C219 0.977 . S
C197 C185 1.453 . S
C197 H226 0.982 . S
C197 H227 0.979 . S
C197 H228 0.977 . S
C198 C185 1.684 . S
C198 H223 0.979 . S
C198 H224 0.980 . S
C198 H225 0.983 . S
C199 C200 1.391 . S
C199 C204 1.391 . S
C199 H229 0.948 . S
C200 C199 1.391 . S
C200 C201 1.391 . S
C201 C200 1.391 . S
C201 C202 1.392 . S
C201 H230 0.947 . S
C202 C201 1.392 . S
C202 C203 1.419 . S
C202 H231 0.948 . S
C203 C202 1.419 . S
C203 C204 1.391 . S
C203 C207 1.397 1_556 S
C204 C199 1.391 . S
C204 C203 1.391 . S
C204 C205 1.399 1_556 S
C205 C204 1.399 1_554 S
C205 C206 1.396 . S
C205 C208 1.453 . S
C205 C209 1.684 . S
C206 C187 1.723 . S
C206 C205 1.396 . S
C206 C207 1.394 . S
C207 C203 1.397 1_554 S
C207 C206 1.394 . S
C207 C217 1.723 . S
C208 C205 1.453 . S
C208 H232 0.982 . S
C208 H233 0.979 . S
C208 H234 0.977 . S
C209 C205 1.684 . S
C209 H235 0.979 . S
C209 H236 0.980 . S
C209 H237 0.983 . S
C210 H186 0.948 . S
C210 C211 1.391 1_556 S
C210 C215 1.391 . S
C211 C210 1.391 1_554 S
C211 C212 1.391 . S
C212 H189 0.947 . S
C212 C211 1.391 . S
C212 C213 1.392 . S
C213 H190 0.948 . S
C213 C212 1.392 . S
C213 C214 1.419 . S
C214 C213 1.419 . S
C214 C215 1.391 1_554 S
C214 C218 1.397 . S
C215 C210 1.391 . S
C215 C214 1.391 1_556 S
C215 C216 1.399 . S
C216 C215 1.399 . S
C216 C217 1.396 1_556 S
C216 C219 1.453 . S
C216 C220 1.684 . S
C217 C207 1.723 . S
C217 C216 1.396 1_554 S
C217 C218 1.394 . S
C218 C188 1.723 . S
C218 C214 1.397 . S
C218 C217 1.394 . S
C219 H191 0.982 . S
C219 H195 0.979 . S
C219 H196 0.977 . S
C219 C216 1.453 . S
C220 H192 0.979 . S
C220 H193 0.980 . S
C220 H194 0.983 . S
C220 C216 1.684 . S
H221 C239 0.948 . S
H222 C180 0.948 . S
H223 C198 0.979 . S
H224 C198 0.980 . S
H225 C198 0.983 . S
H226 C197 0.982 . S
H227 C197 0.979 . S
H228 C197 0.977 . S
H229 C199 0.948 . S
H230 C201 0.947 . S
H231 C202 0.948 . S
H232 C208 0.982 . S
H233 C208 0.979 . S
H234 C208 0.977 . S
H235 C209 0.979 . S
H236 C209 0.980 . S
H237 C209 0.983 . S
H238 C182 0.947 . S
C239 C182 1.392 . S
C239 C183 1.419 . S
C239 H221 0.948 . S
C240 C241 1.391 . S
C240 C244 1.391 . S
C240 H282 0.948 . S
C241 C240 1.391 . S
C241 C242 1.391 . S
C242 C241 1.391 . S
C242 H298 0.947 . S
C242 C299 1.392 . S
C243 C244 1.391 . S
C243 C247 1.397 . S
C243 C299 1.419 . S
C244 C240 1.391 . S
C244 C243 1.391 . S
C244 C245 1.399 . S
C245 C244 1.399 . S
C245 C248 1.396 . S
C245 C257 1.453 . S
C245 C258 1.684 . S
H246 C270 0.948 . S
C247 C243 1.397 . S
C247 C248 1.394 . S
C247 C266 1.723 . S
C248 C245 1.396 . S
C248 C247 1.394 . S
C248 C278 1.723 . S
H249 C272 0.947 . S
H250 C273 0.948 . S
H251 C279 0.982 . S
H252 C280 0.979 . S
H253 C280 0.980 . S
H254 C280 0.983 . S
H255 C279 0.979 . S
H256 C279 0.977 . S
C257 C245 1.453 . S
C257 H286 0.982 . S
C257 H287 0.979 . S
C257 H288 0.977 . S
C258 C245 1.684 . S
C258 H283 0.979 . S
C258 H284 0.980 . S
C258 H285 0.983 . S
C259 C260 1.391 . S
C259 C264 1.391 . S
C259 H289 0.948 . S
C260 C259 1.391 . S
C260 C261 1.391 . S
C261 C260 1.391 . S
C261 C262 1.392 . S
C261 H290 0.947 . S
C262 C261 1.392 . S
C262 C263 1.419 . S
C262 H291 0.948 . S
C263 C262 1.419 . S
C263 C264 1.391 . S
C263 C267 1.397 . S
C264 C259 1.391 . S
C264 C263 1.391 . S
C264 C265 1.399 . S
C265 C264 1.399 . S
C265 C266 1.396 . S
C265 C268 1.453 . S
C265 C269 1.684 . S
C266 C247 1.723 . S
C266 C265 1.396 . S
C266 C267 1.394 . S
C267 C263 1.397 . S
C267 C266 1.394 . S
C267 C277 1.723 . S
C268 C265 1.453 . S
C268 H292 0.982 . S
C268 H293 0.979 . S
C268 H294 0.977 . S
C269 C265 1.684 . S
C269 H295 0.979 . S
C269 H296 0.980 . S
C269 H297 0.983 . S
C270 H246 0.948 . S
C270 C271 1.391 1_554 S
C270 C275 1.391 . S
C271 C270 1.391 1_556 S
C271 C272 1.391 . S
C272 H249 0.947 . S
C272 C271 1.391 . S
C272 C273 1.392 1_556 S
C273 H250 0.948 . S
C273 C272 1.392 1_554 S
C273 C274 1.419 . S
C274 C273 1.419 . S
C274 C275 1.391 . S
C274 C278 1.397 . S
C275 C270 1.391 . S
C275 C274 1.391 . S
C275 C276 1.399 . S
C276 C275 1.399 . S
C276 C277 1.396 . S
C276 C279 1.453 . S
C276 C280 1.684 . S
C277 C267 1.723 . S
C277 C276 1.396 . S
C277 C278 1.394 . S
C278 C248 1.723 . S
C278 C274 1.397 . S
C278 C277 1.394 . S
C279 H251 0.982 . S
C279 H255 0.979 . S
C279 H256 0.977 . S
C279 C276 1.453 . S
C280 H252 0.979 . S
C280 H253 0.980 . S
C280 H254 0.983 . S
C280 C276 1.684 . S
H281 C299 0.948 . S
H282 C240 0.948 . S
H283 C258 0.979 . S
H284 C258 0.980 . S
H285 C258 0.983 . S
H286 C257 0.982 . S
H287 C257 0.979 . S
H288 C257 0.977 . S
H289 C259 0.948 . S
H290 C261 0.947 . S
H291 C262 0.948 . S
H292 C268 0.982 . S
H293 C268 0.979 . S
H294 C268 0.977 . S
H295 C269 0.979 . S
H296 C269 0.980 . S
H297 C269 0.983 . S
H298 C242 0.947 . S
C299 C242 1.392 . S
C299 C243 1.419 . S
C299 H281 0.948 . S
C300 C301 1.391 . S
C300 C304 1.391 . S
C300 H342 0.948 . S
C301 C300 1.391 . S
C301 C302 1.391 . S
C302 C301 1.391 . S
C302 H358 0.947 . S
C302 C359 1.392 . S
C303 C304 1.398 . S
C303 C307 1.396 1_655 S
C303 C359 1.423 . S
C304 C300 1.391 . S
C304 C303 1.398 . S
C304 C305 1.399 . S
C305 C304 1.399 . S
C305 C308 1.396 1_655 S
C305 C317 1.453 1_655 S
C305 C318 1.684 . S
H306 C330 0.948 . S
C307 C303 1.396 1_455 S
C307 C308 1.395 . S
C307 C326 1.723 . S
C308 C305 1.396 1_455 S
C308 C307 1.395 . S
C308 C338 1.723 . S
H309 C332 0.947 . S
H310 C333 0.948 . S
H311 C339 0.982 . S
H312 C340 0.979 . S
H313 C340 0.980 . S
H314 C340 0.983 . S
H315 C339 0.979 . S
H316 C339 0.977 . S
C317 C305 1.453 1_455 S
C317 H346 0.982 . S
C317 H347 0.979 . S
C317 H348 0.977 . S
C318 C305 1.684 . S
C318 H343 0.979 . S
C318 H344 0.980 . S
C318 H345 0.983 . S
C319 C320 1.391 1_554 S
C319 C324 1.391 . S
C319 H349 0.948 1_554 S
C320 C319 1.391 1_556 S
C320 C321 1.391 . S
C321 C320 1.391 . S
C321 C322 1.392 1_556 S
C321 H350 0.947 . S
C322 C321 1.392 1_554 S
C322 C323 1.424 . S
C322 H351 0.948 . S
C323 C322 1.424 . S
C323 C324 1.397 . S
C323 C327 1.395 1_655 S
C324 C319 1.391 . S
C324 C323 1.397 . S
C324 C325 1.399 . S
C325 C324 1.399 . S
C325 C326 1.396 1_655 S
C325 C328 1.453 1_655 S
C325 C329 1.684 . S
C326 C307 1.723 . S
C326 C325 1.396 1_455 S
C326 C327 1.395 . S
C327 C323 1.395 1_455 S
C327 C326 1.395 . S
C327 C337 1.723 . S
C328 C325 1.453 1_455 S
C328 H352 0.982 . S
C328 H353 0.979 . S
C328 H354 0.977 . S
C329 C325 1.684 . S
C329 H355 0.979 . S
C329 H356 0.980 . S
C329 H357 0.983 . S
C330 H306 0.948 . S
C330 C331 1.391 . S
C330 C335 1.391 . S
C331 C330 1.391 . S
C331 C332 1.391 . S
C332 H309 0.947 . S
C332 C331 1.391 . S
C332 C333 1.392 . S
C333 H310 0.948 . S
C333 C332 1.392 . S
C333 C334 1.424 . S
C334 C333 1.424 . S
C334 C335 1.398 . S
C334 C338 1.394 1_655 S
C335 C330 1.391 . S
C335 C334 1.398 . S
C335 C336 1.399 . S
C336 C335 1.399 . S
C336 C337 1.396 1_655 S
C336 C339 1.453 1_655 S
C336 C340 1.684 . S
C337 C327 1.723 . S
C337 C336 1.396 1_455 S
C337 C338 1.395 . S
C338 C308 1.723 . S
C338 C334 1.394 1_455 S
C338 C337 1.395 . S
C339 H311 0.982 . S
C339 H315 0.979 . S
C339 H316 0.977 . S
C339 C336 1.453 1_455 S
C340 H312 0.979 . S
C340 H313 0.980 . S
C340 H314 0.983 . S
C340 C336 1.684 . S
H341 C359 0.948 . S
H342 C300 0.948 . S
H343 C318 0.979 . S
H344 C318 0.980 . S
H345 C318 0.983 . S
H346 C317 0.982 . S
H347 C317 0.979 . S
H348 C317 0.977 . S
H349 C319 0.948 1_556 S
H350 C321 0.947 . S
H351 C322 0.948 . S
H352 C328 0.982 . S
H353 C328 0.979 . S
H354 C328 0.977 . S
H355 C329 0.979 . S
H356 C329 0.980 . S
H357 C329 0.983 . S
H358 C302 0.947 . S
C359 C302 1.392 . S
C359 C303 1.423 . S
C359 H341 0.948 . S
C360 C361 1.391 . S
C360 C364 1.391 1_556 S
C360 H402 0.948 . S
C361 C360 1.391 . S
C361 C362 1.391 1_556 S
C362 C361 1.391 1_554 S
C362 H418 0.947 1_554 S
C362 C419 1.392 . S
C363 C364 1.391 . S
C363 C367 1.397 . S
C363 C419 1.419 . S
C364 C360 1.391 1_554 S
C364 C363 1.391 . S
C364 C365 1.399 . S
C365 C364 1.399 . S
C365 C368 1.396 . S
C365 C377 1.453 . S
C365 C378 1.684 . S
H366 C390 0.948 . S
C367 C363 1.397 . S
C367 C368 1.394 . S
C367 C386 1.723 . S
C368 C365 1.396 . S
C368 C367 1.394 . S
C368 C398 1.723 . S
H369 C392 0.947 . S
H370 C393 0.948 . S
H371 C399 0.982 . S
H372 C400 0.979 . S
H373 C400 0.980 . S
H374 C400 0.983 . S
H375 C399 0.979 . S
H376 C399 0.977 . S
C377 C365 1.453 . S
C377 H406 0.982 . S
C377 H407 0.979 . S
C377 H408 0.977 . S
C378 C365 1.684 . S
C378 H403 0.979 . S
C378 H404 0.980 . S
C378 H405 0.983 . S
C379 C380 1.391 . S
C379 C384 1.391 . S
C379 H409 0.948 . S
C380 C379 1.391 . S
C380 C381 1.391 . S
C381 C380 1.391 . S
C381 C382 1.392 . S
C381 H410 0.947 . S
C382 C381 1.392 . S
C382 C383 1.419 . S
C382 H411 0.948 . S
C383 C382 1.419 . S
C383 C384 1.391 . S
C383 C387 1.397 . S
C384 C379 1.391 . S
C384 C383 1.391 . S
C384 C385 1.399 . S
C385 C384 1.399 . S
C385 C386 1.396 . S
C385 C388 1.453 . S
C385 C389 1.684 . S
C386 C367 1.723 . S
C386 C385 1.396 . S
C386 C387 1.394 . S
C387 C383 1.397 . S
C387 C386 1.394 . S
C387 C397 1.723 . S
C388 C385 1.453 . S
C388 H412 0.982 . S
C388 H413 0.979 . S
C388 H414 0.977 . S
C389 C385 1.684 . S
C389 H415 0.979 . S
C389 H416 0.980 . S
C389 H417 0.983 . S
C390 H366 0.948 . S
C390 C391 1.391 . S
C390 C395 1.391 . S
C391 C390 1.391 . S
C391 C392 1.391 . S
C392 H369 0.947 . S
C392 C391 1.391 . S
C392 C393 1.392 . S
C393 H370 0.948 . S
C393 C392 1.392 . S
C393 C394 1.419 . S
C394 C393 1.419 . S
C394 C395 1.391 . S
C394 C398 1.397 . S
C395 C390 1.391 . S
C395 C394 1.391 . S
C395 C396 1.399 . S
C396 C395 1.399 . S
C396 C397 1.396 . S
C396 C399 1.453 . S
C396 C400 1.684 . S
C397 C387 1.723 . S
C397 C396 1.396 . S
C397 C398 1.394 . S
C398 C368 1.723 . S
C398 C394 1.397 . S
C398 C397 1.394 . S
C399 H371 0.982 . S
C399 H375 0.979 . S
C399 H376 0.977 . S
C399 C396 1.453 . S
C400 H372 0.979 . S
C400 H373 0.980 . S
C400 H374 0.983 . S
C400 C396 1.684 . S
H401 C419 0.948 . S
H402 C360 0.948 . S
H403 C378 0.979 . S
H404 C378 0.980 . S
H405 C378 0.983 . S
H406 C377 0.982 . S
H407 C377 0.979 . S
H408 C377 0.977 . S
H409 C379 0.948 . S
H410 C381 0.947 . S
H411 C382 0.948 . S
H412 C388 0.982 . S
H413 C388 0.979 . S
H414 C388 0.977 . S
H415 C389 0.979 . S
H416 C389 0.980 . S
H417 C389 0.983 . S
H418 C362 0.947 1_556 S
C419 C362 1.392 . S
C419 C363 1.419 . S
C419 H401 0.948 . S
C420 C421 1.391 . S
C420 C424 1.391 1_556 S
C420 H462 0.948 . S
C421 C420 1.391 . S
C421 C422 1.378 1_556 S
C422 C421 1.378 1_554 S
C422 H478 0.941 1_554 S
C422 C479 1.411 . S
C423 C424 1.391 . S
C423 C427 1.397 . S
C423 C479 1.419 . S
C424 C420 1.391 1_554 S
C424 C423 1.391 . S
C424 C425 1.399 . S
C425 C424 1.399 . S
C425 C428 1.396 . S
C425 C437 1.453 . S
C425 C438 1.684 . S
H426 C450 0.948 . S
C427 C423 1.397 . S
C427 C428 1.394 . S
C427 C446 1.723 . S
C428 C425 1.396 . S
C428 C427 1.394 . S
C428 C458 1.723 . S
H429 C452 0.947 . S
H430 C453 0.948 . S
H431 C459 0.982 . S
H432 C460 0.979 . S
H433 C460 0.980 . S
H434 C460 0.983 . S
H435 C459 0.979 . S
H436 C459 0.977 . S
C437 C425 1.453 . S
C437 H466 0.982 . S
C437 H467 0.979 . S
C437 H468 0.977 . S
C438 C425 1.684 . S
C438 H463 0.979 . S
C438 H464 0.980 . S
C438 H465 0.983 . S
C439 C440 1.391 . S
C439 C444 1.391 . S
C439 H469 0.948 . S
C440 C439 1.391 . S
C440 C441 1.391 . S
C441 C440 1.391 . S
C441 C442 1.392 . S
C441 H470 0.947 . S
C442 C441 1.392 . S
C442 C443 1.419 . S
C442 H471 0.948 . S
C443 C442 1.419 . S
C443 C444 1.391 . S
C443 C447 1.397 . S
C444 C439 1.391 . S
C444 C443 1.391 . S
C444 C445 1.399 . S
C445 C444 1.399 . S
C445 C446 1.396 . S
C445 C448 1.453 . S
C445 C449 1.684 . S
C446 C427 1.723 . S
C446 C445 1.396 . S
C446 C447 1.394 . S
C447 C443 1.397 . S
C447 C446 1.394 . S
C447 C457 1.723 . S
C448 C445 1.453 . S
C448 H472 0.982 . S
C448 H473 0.979 . S
C448 H474 0.977 . S
C449 C445 1.684 . S
C449 H475 0.979 . S
C449 H476 0.980 . S
C449 H477 0.983 . S
C450 H426 0.948 . S
C450 C451 1.391 . S
C450 C455 1.391 . S
C451 C450 1.391 . S
C451 C452 1.391 . S
C452 H429 0.947 . S
C452 C451 1.391 . S
C452 C453 1.392 . S
C453 H430 0.948 . S
C453 C452 1.392 . S
C453 C454 1.419 . S
C454 C453 1.419 . S
C454 C455 1.391 . S
C454 C458 1.397 . S
C455 C450 1.391 . S
C455 C454 1.391 . S
C455 C456 1.399 . S
C456 C455 1.399 . S
C456 C457 1.396 . S
C456 C459 1.453 . S
C456 C460 1.684 . S
C457 C447 1.723 . S
C457 C456 1.396 . S
C457 C458 1.394 . S
C458 C428 1.723 . S
C458 C454 1.397 . S
C458 C457 1.394 . S
C459 H431 0.982 . S
C459 H435 0.979 . S
C459 H436 0.977 . S
C459 C456 1.453 . S
C460 H432 0.979 . S
C460 H433 0.980 . S
C460 H434 0.983 . S
C460 C456 1.684 . S
H461 C479 0.948 . S
H462 C420 0.948 . S
H463 C438 0.979 . S
H464 C438 0.980 . S
H465 C438 0.983 . S
H466 C437 0.982 . S
H467 C437 0.979 . S
H468 C437 0.977 . S
H469 C439 0.948 . S
H470 C441 0.947 . S
H471 C442 0.948 . S
H472 C448 0.982 . S
H473 C448 0.979 . S
H474 C448 0.977 . S
H475 C449 0.979 . S
H476 C449 0.980 . S
H477 C449 0.983 . S
H478 C422 0.941 1_556 S
C479 C422 1.411 . S
C479 C423 1.419 . S
C479 H461 0.948 . S
Zn480 O486 1.969 . S
Zn480 O487 1.965 1_655 S
Zn480 O491 2.024 1_655 S
Zn480 O496 1.969 . S
Zn481 O488 1.969 . S
Zn481 O494 1.969 . S
Zn481 O495 1.965 1_455 S
Zn481 O497 2.024 1_455 S
C482 O483 1.229 1_455 S
C482 O491 1.058 . S
O483 C482 1.229 1_655 S
C484 O485 1.229 1_655 S
C484 O497 1.058 . S
O485 C484 1.229 1_455 S
O486 Zn480 1.969 . S
O486 C489 1.267 . S
O487 Zn480 1.965 1_455 S
O487 C498 1.260 . S
O488 Zn481 1.969 . S
O488 C498 1.258 1_565 S
C489 O486 1.267 . S
C489 O490 1.228 1_655 S
O490 C489 1.228 1_455 S
O491 Zn480 2.024 1_455 S
O491 C482 1.058 . S
C492 O493 1.228 1_455 S
C492 O494 1.267 . S
O493 C492 1.228 1_655 S
O494 Zn481 1.969 . S
O494 C492 1.267 . S
O495 Zn481 1.965 1_655 S
O495 C499 1.260 1_565 S
O496 Zn480 1.969 . S
O496 C499 1.258 . S
O497 Zn481 2.024 1_655 S
O497 C484 1.058 . S
C498 O487 1.260 . S
C498 O488 1.258 1_545 S
C499 O495 1.260 1_545 S
C499 O496 1.258 . S
Zn500 O506 1.969 . S
Zn500 O507 1.965 . S
Zn500 O511 2.024 . S
Zn500 O516 1.969 1_545 S
Zn501 O508 1.969 . S
Zn501 O514 1.969 . S
Zn501 O515 1.965 1_545 S
Zn501 O517 2.024 1_545 S
C502 O503 1.229 . S
C502 O511 1.058 . S
O503 C502 1.229 . S
C504 O505 1.213 1_565 S
C504 O517 1.058 . S
O505 C504 1.213 1_545 S
O506 Zn500 1.969 . S
O506 C509 1.267 . S
O507 Zn500 1.965 . S
O507 C518 1.260 . S
O508 Zn501 1.969 . S
O508 C518 1.258 . S
C509 O506 1.267 . S
C509 O510 1.228 . S
O510 C509 1.228 . S
O511 Zn500 2.024 . S
O511 C502 1.058 . S
C512 O513 1.228 . S
C512 O514 1.267 1_565 S
O513 C512 1.228 . S
O514 Zn501 1.969 . S
O514 C512 1.267 1_545 S
O515 Zn501 1.965 1_565 S
O515 C519 1.260 . S
O516 Zn500 1.969 1_565 S
O516 C519 1.258 . S
O517 Zn501 2.024 1_565 S
O517 C504 1.058 . S
C518 O507 1.260 . S
C518 O508 1.258 . S
C519 O515 1.260 . S
C519 O516 1.258 . S
Zn520 O526 1.969 . S
Zn520 O527 1.965 . S
Zn520 O531 2.024 . S
Zn520 O536 1.969 . S
Zn521 O528 1.969 . S
Zn521 O534 1.969 . S
Zn521 O535 1.965 . S
Zn521 O537 2.024 . S
C522 O523 1.229 . S
C522 O531 1.058 . S
O523 C522 1.229 . S
C524 O525 1.229 . S
C524 O537 1.058 . S
O525 C524 1.229 . S
O526 Zn520 1.969 . S
O526 C529 1.267 . S
O527 Zn520 1.965 . S
O527 C538 1.260 . S
O528 Zn521 1.969 . S
O528 C538 1.258 . S
C529 O526 1.267 . S
C529 O530 1.228 . S
O530 C529 1.228 . S
O531 Zn520 2.024 . S
O531 C522 1.058 . S
C532 O533 1.228 . S
C532 O534 1.267 . S
O533 C532 1.228 . S
O534 Zn521 1.969 . S
O534 C532 1.267 . S
O535 Zn521 1.965 . S
O535 C539 1.260 . S
O536 Zn520 1.969 . S
O536 C539 1.258 . S
O537 Zn521 2.024 . S
O537 C524 1.058 . S
C538 O527 1.260 . S
C538 O528 1.258 . S
C539 O535 1.260 . S
C539 O536 1.258 . S
Zn540 O546 1.969 . S
Zn540 O547 1.965 . S
Zn540 O551 2.024 . S
Zn540 O556 1.969 . S
Zn541 O548 1.969 . S
Zn541 O554 1.969 . S
Zn541 O555 1.965 . S
Zn541 O557 2.024 . S
C542 O543 1.229 . S
C542 O551 1.058 . S
O543 C542 1.229 . S
C544 O545 1.229 . S
C544 O557 1.058 . S
O545 C544 1.229 . S
O546 Zn540 1.969 . S
O546 C549 1.267 . S
O547 Zn540 1.965 . S
O547 C558 1.260 1_455 S
O548 Zn541 1.969 . S
O548 C558 1.258 . S
C549 O546 1.267 . S
C549 O550 1.228 . S
O550 C549 1.228 . S
O551 Zn540 2.024 . S
O551 C542 1.058 . S
C552 O553 1.228 . S
C552 O554 1.267 . S
O553 C552 1.228 . S
O554 Zn541 1.969 . S
O554 C552 1.267 . S
O555 Zn541 1.965 . S
O555 C559 1.260 1_655 S
O556 Zn540 1.969 . S
O556 C559 1.258 . S
O557 Zn541 2.024 . S
O557 C544 1.058 . S
C558 O547 1.260 1_655 S
C558 O548 1.258 . S
C559 O555 1.260 1_455 S
C559 O556 1.258 . S
C560 C561 1.349 . S
C560 C562 1.327 . S
C560 H585 0.950 . S
C561 C560 1.349 . S
C561 C577 1.349 . S
C562 C560 1.327 . S
C562 C581 1.429 . S
C562 H586 0.950 . S
C563 C580 1.574 . S
C563 C582 1.368 . S
C563 H587 0.949 . S
H564 C568 0.949 . S
C565 C566 1.349 . S
C565 C567 1.327 . S
C565 H588 0.950 . S
C566 C565 1.349 . S
C566 C578 1.349 . S
C567 C565 1.327 . S
C567 C583 1.429 . S
C567 H589 0.950 . S
C568 H564 0.949 . S
C568 C576 1.574 . S
C568 C584 1.368 . S
H569 C577 0.950 . S
H570 C575 0.950 . S
H571 C576 0.949 . S
H572 C578 0.950 . S
H573 C579 0.950 . S
H574 C580 0.949 . S
C575 H570 0.950 . S
C575 C577 1.327 . S
C575 C581 1.429 . S
C576 C568 1.574 . S
C576 H571 0.949 . S
C576 C582 1.368 . S
C577 C561 1.349 . S
C577 H569 0.950 . S
C577 C575 1.327 . S
C578 C566 1.349 . S
C578 H572 0.950 . S
C578 C579 1.327 . S
C579 H573 0.950 . S
C579 C578 1.327 . S
C579 C583 1.429 . S
C580 C563 1.574 . S
C580 H574 0.949 . S
C580 C584 1.368 . S
C581 C562 1.429 . S
C581 C575 1.429 . S
C581 C582 1.523 . S
C582 C563 1.368 . S
C582 C576 1.368 . S
C582 C581 1.523 . S
C583 C567 1.429 . S
C583 C579 1.429 . S
C583 C584 1.523 . S
C584 C568 1.368 . S
C584 C580 1.368 . S
C584 C583 1.523 . S
H585 C560 0.950 . S
H586 C562 0.950 . S
H587 C563 0.949 . S
H588 C565 0.950 . S
H589 C567 0.950 . S
C590 C591 1.349 . S
C590 C592 1.327 . S
C590 H615 0.950 . S
C591 C590 1.349 . S
C591 C607 1.349 . S
C592 C590 1.327 . S
C592 C611 1.429 . S
C592 H616 0.950 . S
C593 C610 1.574 . S
C593 C612 1.368 . S
C593 H617 0.949 . S
H594 C598 0.949 . S
C595 C596 1.349 . S
C595 C597 1.327 . S
C595 H618 0.950 . S
C596 C595 1.349 . S
C596 C608 1.349 . S
C597 C595 1.327 . S
C597 C613 1.429 . S
C597 H619 0.950 . S
C598 H594 0.949 . S
C598 C606 1.574 . S
C598 C614 1.368 . S
H599 C607 0.950 . S
H600 C605 0.950 . S
H601 C606 0.949 . S
H602 C608 0.950 . S
H603 C609 0.950 . S
H604 C610 0.949 . S
C605 H600 0.950 . S
C605 C607 1.327 . S
C605 C611 1.429 . S
C606 C598 1.574 . S
C606 H601 0.949 . S
C606 C612 1.368 . S
C607 C591 1.349 . S
C607 H599 0.950 . S
C607 C605 1.327 . S
C608 C596 1.349 . S
C608 H602 0.950 . S
C608 C609 1.327 . S
C609 H603 0.950 . S
C609 C608 1.327 . S
C609 C613 1.429 . S
C610 C593 1.574 . S
C610 H604 0.949 . S
C610 C614 1.368 . S
C611 C592 1.429 . S
C611 C605 1.429 . S
C611 C612 1.523 . S
C612 C593 1.368 . S
C612 C606 1.368 . S
C612 C611 1.523 . S
C613 C597 1.429 . S
C613 C609 1.429 . S
C613 C614 1.523 . S
C614 C598 1.368 . S
C614 C610 1.368 . S
C614 C613 1.523 . S
H615 C590 0.950 . S
H616 C592 0.950 . S
H617 C593 0.949 . S
H618 C595 0.950 . S
H619 C597 0.950 . S
C620 C621 1.349 . S
C620 C622 1.327 . S
C620 H645 0.950 . S
C621 C620 1.349 . S
C621 C637 1.349 . S
C622 C620 1.327 . S
C622 C641 1.429 . S
C622 H646 0.950 . S
C623 C640 1.574 . S
C623 C642 1.368 . S
C623 H647 0.949 . S
H624 C628 0.949 . S
C625 C626 1.349 . S
C625 C627 1.327 . S
C625 H648 0.950 . S
C626 C625 1.349 . S
C626 C638 1.349 . S
C627 C625 1.327 . S
C627 C643 1.429 . S
C627 H649 0.950 . S
C628 H624 0.949 . S
C628 C636 1.574 . S
C628 C644 1.368 . S
H629 C637 0.950 . S
H630 C635 0.950 . S
H631 C636 0.949 . S
H632 C638 0.950 . S
H633 C639 0.950 . S
H634 C640 0.949 . S
C635 H630 0.950 . S
C635 C637 1.327 . S
C635 C641 1.429 . S
C636 C628 1.574 . S
C636 H631 0.949 . S
C636 C642 1.368 . S
C637 C621 1.349 . S
C637 H629 0.950 . S
C637 C635 1.327 . S
C638 C626 1.349 . S
C638 H632 0.950 . S
C638 C639 1.327 . S
C639 H633 0.950 . S
C639 C638 1.327 . S
C639 C643 1.429 . S
C640 C623 1.574 . S
C640 H634 0.949 . S
C640 C644 1.368 . S
C641 C622 1.429 . S
C641 C635 1.429 . S
C641 C642 1.523 . S
C642 C623 1.368 . S
C642 C636 1.368 . S
C642 C641 1.523 . S
C643 C627 1.429 . S
C643 C639 1.429 . S
C643 C644 1.523 . S
C644 C628 1.368 . S
C644 C640 1.368 . S
C644 C643 1.523 . S
H645 C620 0.950 . S
H646 C622 0.950 . S
H647 C623 0.949 . S
H648 C625 0.950 . S
H649 C627 0.950 . S
C650 C651 1.350 . S
C650 C652 1.327 . S
C650 H675 0.950 . S
C651 C650 1.350 . S
C651 C667 1.348 1_655 S
C652 C650 1.327 . S
C652 C671 1.429 . S
C652 H676 0.950 . S
C653 C670 1.574 . S
C653 C672 1.368 1_455 S
C653 H677 0.949 . S
H654 C658 0.949 . S
C655 C656 1.339 1_455 S
C655 C657 1.329 . S
C655 H678 0.960 . S
C656 C655 1.339 1_655 S
C656 C668 1.349 . S
C657 C655 1.329 . S
C657 C673 1.429 1_455 S
C657 H679 0.950 . S
C658 H654 0.949 . S
C658 C666 1.574 . S
C658 C674 1.368 . S
H659 C667 0.950 . S
H660 C665 0.950 . S
H661 C666 0.949 . S
H662 C668 0.950 . S
H663 C669 0.950 . S
H664 C670 0.949 . S
C665 H660 0.950 . S
C665 C667 1.327 . S
C665 C671 1.429 1_455 S
C666 C658 1.574 . S
C666 H661 0.949 . S
C666 C672 1.368 . S
C667 C651 1.348 1_455 S
C667 H659 0.950 . S
C667 C665 1.327 . S
C668 C656 1.349 . S
C668 H662 0.950 . S
C668 C669 1.327 . S
C669 H663 0.950 . S
C669 C668 1.327 . S
C669 C673 1.429 . S
C670 C653 1.574 . S
C670 H664 0.949 . S
C670 C674 1.368 1_455 S
C671 C652 1.429 . S
C671 C665 1.429 1_655 S
C671 C672 1.523 . S
C672 C653 1.368 1_655 S
C672 C666 1.368 . S
C672 C671 1.523 . S
C673 C657 1.429 1_655 S
C673 C669 1.429 . S
C673 C674 1.523 . S
C674 C658 1.368 . S
C674 C670 1.368 1_655 S
C674 C673 1.523 . S
H675 C650 0.950 . S
H676 C652 0.950 . S
H677 C653 0.949 . S
H678 C655 0.960 . S
H679 C657 0.950 . S
C680 C681 1.349 . S
C680 C682 1.327 . S
C680 H705 0.950 . S
C681 C680 1.349 . S
C681 C697 1.349 . S
C682 C680 1.327 . S
C682 C701 1.429 . S
C682 H706 0.950 . S
C683 C700 1.574 . S
C683 C702 1.368 . S
C683 H707 0.949 . S
H684 C688 0.949 . S
C685 C686 1.366 . S
C685 C687 1.349 . S
C685 H708 0.914 1_565 S
C686 C685 1.366 . S
C686 C698 1.349 . S
C687 C685 1.349 . S
C687 C703 1.429 . S
C687 H709 0.950 . S
C688 H684 0.949 . S
C688 C696 1.574 . S
C688 C704 1.368 . S
H689 C697 0.950 1_554 S
H690 C695 0.950 . S
H691 C696 0.949 . S
H692 C698 0.950 . S
H693 C699 0.950 . S
H694 C700 0.949 . S
C695 H690 0.950 . S
C695 C697 1.327 . S
C695 C701 1.429 . S
C696 C688 1.574 . S
C696 H691 0.949 . S
C696 C702 1.368 . S
C697 C681 1.349 . S
C697 H689 0.950 1_556 S
C697 C695 1.327 . S
C698 C686 1.349 . S
C698 H692 0.950 . S
C698 C699 1.327 . S
C699 H693 0.950 . S
C699 C698 1.327 . S
C699 C703 1.429 . S
C700 C683 1.574 . S
C700 H694 0.949 . S
C700 C704 1.368 . S
C701 C682 1.429 . S
C701 C695 1.429 . S
C701 C702 1.523 . S
C702 C683 1.368 . S
C702 C696 1.368 . S
C702 C701 1.523 . S
C703 C687 1.429 . S
C703 C699 1.429 . S
C703 C704 1.523 . S
C704 C688 1.368 . S
C704 C700 1.368 . S
C704 C703 1.523 . S
H705 C680 0.950 . S
H706 C682 0.950 . S
H707 C683 0.949 . S
H708 C685 0.914 1_545 S
H709 C687 0.950 . S
C710 C711 1.349 . S
C710 C712 1.327 . S
C710 H735 0.950 1_556 S
C711 C710 1.349 . S
C711 C727 1.349 . S
C712 C710 1.327 . S
C712 C731 1.429 . S
C712 H736 0.950 . S
C713 C730 1.574 . S
C713 C732 1.368 . S
C713 H737 0.949 . S
H714 C718 0.949 . S
C715 C716 1.349 . S
C715 C717 1.327 . S
C715 H738 0.950 . S
C716 C715 1.349 . S
C716 C728 1.349 . S
C717 C715 1.327 . S
C717 C733 1.429 . S
C717 H739 0.950 . S
C718 H714 0.949 . S
C718 C726 1.574 . S
C718 C734 1.368 . S
H719 C727 0.950 . S
H720 C725 0.950 . S
H721 C726 0.949 . S
H722 C728 0.950 . S
H723 C729 0.950 . S
H724 C730 0.949 . S
C725 H720 0.950 . S
C725 C727 1.327 . S
C725 C731 1.429 . S
C726 C718 1.574 . S
C726 H721 0.949 . S
C726 C732 1.368 . S
C727 C711 1.349 . S
C727 H719 0.950 . S
C727 C725 1.327 . S
C728 C716 1.349 . S
C728 H722 0.950 . S
C728 C729 1.327 . S
C729 H723 0.950 . S
C729 C728 1.327 . S
C729 C733 1.429 . S
C730 C713 1.574 . S
C730 H724 0.949 . S
C730 C734 1.368 . S
C731 C712 1.429 . S
C731 C725 1.429 . S
C731 C732 1.523 . S
C732 C713 1.368 . S
C732 C726 1.368 . S
C732 C731 1.523 . S
C733 C717 1.429 . S
C733 C729 1.429 . S
C733 C734 1.523 . S
C734 C718 1.368 . S
C734 C730 1.368 . S
C734 C733 1.523 . S
H735 C710 0.950 1_554 S
H736 C712 0.950 . S
H737 C713 0.949 . S
H738 C715 0.950 . S
H739 C717 0.950 . S
C740 C741 1.349 . S
C740 C742 1.327 . S
C740 H765 0.950 . S
C741 C740 1.349 . S
C741 C757 1.349 . S
C742 C740 1.327 . S
C742 C761 1.429 . S
C742 H766 0.950 . S
C743 C760 1.574 . S
C743 C762 1.368 . S
C743 H767 0.949 . S
H744 C748 0.949 . S
C745 C746 1.349 . S
C745 C747 1.327 . S
C745 H768 0.950 . S
C746 C745 1.349 . S
C746 C758 1.349 . S
C747 C745 1.327 . S
C747 C763 1.429 . S
C747 H769 0.950 . S
C748 H744 0.949 . S
C748 C756 1.574 . S
C748 C764 1.368 . S
H749 C757 0.950 . S
H750 C755 0.950 . S
H751 C756 0.949 . S
H752 C758 0.950 . S
H753 C759 0.950 . S
H754 C760 0.949 . S
C755 H750 0.950 . S
C755 C757 1.327 . S
C755 C761 1.429 . S
C756 C748 1.574 . S
C756 H751 0.949 . S
C756 C762 1.368 . S
C757 C741 1.349 . S
C757 H749 0.950 . S
C757 C755 1.327 . S
C758 C746 1.349 . S
C758 H752 0.950 . S
C758 C759 1.327 . S
C759 H753 0.950 . S
C759 C758 1.327 . S
C759 C763 1.429 . S
C760 C743 1.574 . S
C760 H754 0.949 . S
C760 C764 1.368 . S
C761 C742 1.429 . S
C761 C755 1.429 . S
C761 C762 1.523 . S
C762 C743 1.368 . S
C762 C756 1.368 . S
C762 C761 1.523 . S
C763 C747 1.429 . S
C763 C759 1.429 . S
C763 C764 1.523 . S
C764 C748 1.368 . S
C764 C760 1.368 . S
C764 C763 1.523 . S
H765 C740 0.950 . S
H766 C742 0.950 . S
H767 C743 0.949 . S
H768 C745 0.950 . S
H769 C747 0.950 . S
C770 C771 1.347 1_655 S
C770 C772 1.327 . S
C770 H795 0.950 1_556 S
C771 C770 1.347 1_455 S
C771 C787 1.351 . S
C772 C770 1.327 . S
C772 C791 1.429 1_655 S
C772 H796 0.950 . S
C773 C790 1.574 . S
C773 C792 1.368 . S
C773 H797 0.949 . S
H774 C778 0.949 . S
C775 C776 1.349 . S
C775 C777 1.327 . S
C775 H798 0.950 . S
C776 C775 1.349 . S
C776 C788 1.349 1_455 S
C777 C775 1.327 . S
C777 C793 1.429 . S
C777 H799 0.950 . S
C778 H774 0.949 . S
C778 C786 1.574 . S
C778 C794 1.368 1_655 S
H779 C787 0.950 . S
H780 C785 0.950 . S
H781 C786 0.949 . S
H782 C788 0.950 . S
H783 C789 0.950 . S
H784 C790 0.949 . S
C785 H780 0.950 . S
C785 C787 1.327 . S
C785 C791 1.429 . S
C786 C778 1.574 . S
C786 H781 0.949 . S
C786 C792 1.368 1_655 S
C787 C771 1.351 . S
C787 H779 0.950 . S
C787 C785 1.327 . S
C788 C776 1.349 1_655 S
C788 H782 0.950 . S
C788 C789 1.327 . S
C789 H783 0.950 . S
C789 C788 1.327 . S
C789 C793 1.429 1_655 S
C790 C773 1.574 . S
C790 H784 0.949 . S
C790 C794 1.368 . S
C791 C772 1.429 1_455 S
C791 C785 1.429 . S
C791 C792 1.523 . S
C792 C773 1.368 . S
C792 C786 1.368 1_455 S
C792 C791 1.523 . S
C793 C777 1.429 . S
C793 C789 1.429 1_455 S
C793 C794 1.523 . S
C794 C778 1.368 1_455 S
C794 C790 1.368 . S
C794 C793 1.523 . S
H795 C770 0.950 1_554 S
H796 C772 0.950 . S
H797 C773 0.949 . S
H798 C775 0.950 . S
H799 C777 0.950 . S
C800 C801 1.317 1_655 S
C800 C802 1.327 . S
C800 H825 0.950 . S
C801 C800 1.317 1_455 S
C801 C817 1.379 . S
C802 C800 1.327 . S
C802 C821 1.429 . S
C802 H826 0.950 . S
C803 C820 1.574 . S
C803 C822 1.368 1_455 S
C803 H827 0.949 . S
H804 C808 0.949 . S
C805 C806 1.349 1_455 S
C805 C807 1.327 . S
C805 H828 0.950 . S
C806 C805 1.349 1_655 S
C806 C818 1.349 . S
C807 C805 1.327 . S
C807 C823 1.429 1_455 S
C807 H829 0.950 . S
C808 H804 0.949 . S
C808 C816 1.574 . S
C808 C824 1.368 . S
H809 C817 0.950 . S
H810 C815 0.950 . S
H811 C816 0.949 . S
H812 C818 0.950 . S
H813 C819 0.950 . S
H814 C820 0.949 . S
C815 H810 0.950 . S
C815 C817 1.327 . S
C815 C821 1.429 1_455 S
C816 C808 1.574 . S
C816 H811 0.949 . S
C816 C822 1.368 . S
C817 C801 1.379 . S
C817 H809 0.950 . S
C817 C815 1.327 . S
C818 C806 1.349 . S
C818 H812 0.950 . S
C818 C819 1.327 . S
C819 H813 0.950 . S
C819 C818 1.327 . S
C819 C823 1.429 . S
C820 C803 1.574 . S
C820 H814 0.949 . S
C820 C824 1.368 1_455 S
C821 C802 1.429 . S
C821 C815 1.429 1_655 S
C821 C822 1.523 . S
C822 C803 1.368 1_655 S
C822 C816 1.368 . S
C822 C821 1.523 . S
C823 C807 1.429 1_655 S
C823 C819 1.429 . S
C823 C824 1.523 . S
C824 C808 1.368 . S
C824 C820 1.368 1_655 S
C824 C823 1.523 . S
H825 C800 0.950 . S
H826 C802 0.950 . S
H827 C803 0.949 . S
H828 C805 0.950 . S
H829 C807 0.950 . S
C830 C831 1.349 . S
C830 C832 1.327 . S
C830 H855 0.950 . S
C831 C830 1.349 . S
C831 C847 1.349 . S
C832 C830 1.327 . S
C832 C851 1.429 . S
C832 H856 0.950 . S
C833 C850 1.574 . S
C833 C852 1.368 . S
C833 H857 0.949 . S
H834 C838 0.949 . S
C835 C836 1.349 . S
C835 C837 1.327 . S
C835 H858 0.950 . S
C836 C835 1.349 . S
C836 C848 1.349 . S
C837 C835 1.327 . S
C837 C853 1.429 . S
C837 H859 0.950 . S
C838 H834 0.949 . S
C838 C846 1.574 . S
C838 C854 1.368 . S
H839 C847 0.950 . S
H840 C845 0.950 . S
H841 C846 0.949 . S
H842 C848 0.950 1_565 S
H843 C849 0.950 . S
H844 C850 0.949 . S
C845 H840 0.950 . S
C845 C847 1.327 . S
C845 C851 1.429 . S
C846 C838 1.574 . S
C846 H841 0.949 . S
C846 C852 1.368 . S
C847 C831 1.349 . S
C847 H839 0.950 . S
C847 C845 1.327 . S
C848 C836 1.349 . S
C848 H842 0.950 1_545 S
C848 C849 1.327 . S
C849 H843 0.950 . S
C849 C848 1.327 . S
C849 C853 1.429 . S
C850 C833 1.574 . S
C850 H844 0.949 . S
C850 C854 1.368 . S
C851 C832 1.429 . S
C851 C845 1.429 . S
C851 C852 1.523 . S
C852 C833 1.368 . S
C852 C846 1.368 . S
C852 C851 1.523 . S
C853 C837 1.429 . S
C853 C849 1.429 . S
C853 C854 1.523 . S
C854 C838 1.368 . S
C854 C850 1.368 . S
C854 C853 1.523 . S
H855 C830 0.950 . S
H856 C832 0.950 . S
H857 C833 0.949 . S
H858 C835 0.950 . S
H859 C837 0.950 . S
C860 C861 1.349 . S
C860 C862 1.327 . S
C860 H885 0.950 . S
C861 C860 1.349 . S
C861 C877 1.349 . S
C862 C860 1.327 . S
C862 C881 1.429 . S
C862 H886 0.950 . S
C863 C880 1.574 . S
C863 C882 1.368 . S
C863 H887 0.949 . S
H864 C868 0.949 . S
C865 C866 1.349 . S
C865 C867 1.327 . S
C865 H888 0.950 . S
C866 C865 1.349 . S
C866 C878 1.349 . S
C867 C865 1.327 . S
C867 C883 1.429 . S
C867 H889 0.950 . S
C868 H864 0.949 . S
C868 C876 1.574 . S
C868 C884 1.368 . S
H869 C877 0.950 . S
H870 C875 0.950 . S
H871 C876 0.949 . S
H872 C878 0.950 . S
H873 C879 0.950 . S
H874 C880 0.949 . S
C875 H870 0.950 . S
C875 C877 1.327 . S
C875 C881 1.429 . S
C876 C868 1.574 . S
C876 H871 0.949 . S
C876 C882 1.368 . S
C877 C861 1.349 . S
C877 H869 0.950 . S
C877 C875 1.327 . S
C878 C866 1.349 . S
C878 H872 0.950 . S
C878 C879 1.327 . S
C879 H873 0.950 . S
C879 C878 1.327 . S
C879 C883 1.429 . S
C880 C863 1.574 . S
C880 H874 0.949 . S
C880 C884 1.368 . S
C881 C862 1.429 . S
C881 C875 1.429 . S
C881 C882 1.523 . S
C882 C863 1.368 . S
C882 C876 1.368 . S
C882 C881 1.523 . S
C883 C867 1.429 . S
C883 C879 1.429 . S
C883 C884 1.523 . S
C884 C868 1.368 . S
C884 C880 1.368 . S
C884 C883 1.523 . S
H885 C860 0.950 . S
H886 C862 0.950 . S
H887 C863 0.949 . S
H888 C865 0.950 . S
H889 C867 0.950 . S
C890 C891 1.349 . S
C890 C892 1.327 . S
C890 H915 0.950 . S
C891 C890 1.349 . S
C891 C907 1.349 . S
C892 C890 1.327 . S
C892 C911 1.429 . S
C892 H916 0.950 . S
C893 C910 1.574 . S
C893 C912 1.368 . S
C893 H917 0.949 . S
H894 C898 0.949 . S
C895 C896 1.349 . S
C895 C897 1.327 . S
C895 H918 0.950 . S
C896 C895 1.349 . S
C896 C908 1.349 . S
C897 C895 1.327 . S
C897 C913 1.429 . S
C897 H919 0.950 . S
C898 H894 0.949 . S
C898 C906 1.574 . S
C898 C914 1.368 . S
H899 C907 0.950 . S
H900 C905 0.950 . S
H901 C906 0.949 . S
H902 C908 0.950 . S
H903 C909 0.950 . S
H904 C910 0.949 . S
C905 H900 0.950 . S
C905 C907 1.327 . S
C905 C911 1.429 . S
C906 C898 1.574 . S
C906 H901 0.949 . S
C906 C912 1.368 . S
C907 C891 1.349 . S
C907 H899 0.950 . S
C907 C905 1.327 . S
C908 C896 1.349 . S
C908 H902 0.950 . S
C908 C909 1.327 . S
C909 H903 0.950 . S
C909 C908 1.327 . S
C909 C913 1.429 . S
C910 C893 1.574 . S
C910 H904 0.949 . S
C910 C914 1.368 . S
C911 C892 1.429 . S
C911 C905 1.429 . S
C911 C912 1.523 . S
C912 C893 1.368 . S
C912 C906 1.368 . S
C912 C911 1.523 . S
C913 C897 1.429 . S
C913 C909 1.429 . S
C913 C914 1.523 . S
C914 C898 1.368 . S
C914 C910 1.368 . S
C914 C913 1.523 . S
H915 C890 0.950 . S
H916 C892 0.950 . S
H917 C893 0.949 . S
H918 C895 0.950 . S
H919 C897 0.950 . S
C920 C921 1.368 . S
C920 C922 1.327 . S
C920 H945 0.950 . S
C921 C920 1.368 . S
C921 C937 1.328 1_655 S
C922 C920 1.327 . S
C922 C941 1.429 1_655 S
C922 H946 0.950 . S
C923 C940 1.574 . S
C923 C942 1.368 . S
C923 H947 0.949 . S
H924 C928 0.949 . S
C925 C926 1.349 . S
C925 C927 1.327 . S
C925 H948 0.950 . S
C926 C925 1.349 . S
C926 C938 1.349 . S
C927 C925 1.327 . S
C927 C943 1.429 . S
C927 H949 0.950 . S
C928 H924 0.949 . S
C928 C936 1.574 . S
C928 C944 1.368 1_655 S
H929 C937 0.950 . S
H930 C935 0.950 . S
H931 C936 0.949 . S
H932 C938 0.950 1_655 S
H933 C939 0.950 1_655 S
H934 C940 0.949 . S
C935 H930 0.950 . S
C935 C937 1.327 . S
C935 C941 1.429 . S
C936 C928 1.574 . S
C936 H931 0.949 . S
C936 C942 1.368 1_655 S
C937 C921 1.328 1_455 S
C937 H929 0.950 . S
C937 C935 1.327 . S
C938 C926 1.349 . S
C938 H932 0.950 1_455 S
C938 C939 1.327 . S
C939 H933 0.950 1_455 S
C939 C938 1.327 . S
C939 C943 1.429 . S
C940 C923 1.574 . S
C940 H934 0.949 . S
C940 C944 1.368 . S
C941 C922 1.429 1_455 S
C941 C935 1.429 . S
C941 C942 1.523 . S
C942 C923 1.368 . S
C942 C936 1.368 1_455 S
C942 C941 1.523 . S
C943 C927 1.429 . S
C943 C939 1.429 . S
C943 C944 1.523 . S
C944 C928 1.368 1_455 S
C944 C940 1.368 . S
C944 C943 1.523 . S
H945 C920 0.950 . S
H946 C922 0.950 . S
H947 C923 0.949 . S
H948 C925 0.950 . S
H949 C927 0.950 . S
C950 C951 1.349 . S
C950 C952 1.327 . S
C950 H975 0.950 . S
C951 C950 1.349 . S
C951 C967 1.349 . S
C952 C950 1.327 . S
C952 C971 1.429 . S
C952 H976 0.950 . S
C953 C970 1.574 . S
C953 C972 1.368 . S
C953 H977 0.949 . S
H954 C958 0.949 . S
C955 C956 1.332 1_545 S
C955 C957 1.327 1_545 S
C955 H978 0.950 . S
C956 C955 1.332 1_565 S
C956 C968 1.391 . S
C957 C955 1.327 1_565 S
C957 C973 1.429 . S
C957 H979 0.950 1_565 S
C958 H954 0.949 . S
C958 C966 1.574 . S
C958 C974 1.368 . S
H959 C967 0.950 . S
H960 C965 0.950 . S
H961 C966 0.949 . S
H962 C968 0.950 . S
H963 C969 0.950 . S
H964 C970 0.949 . S
C965 H960 0.950 . S
C965 C967 1.327 . S
C965 C971 1.429 . S
C966 C958 1.574 . S
C966 H961 0.949 . S
C966 C972 1.368 . S
C967 C951 1.349 . S
C967 H959 0.950 . S
C967 C965 1.327 . S
C968 C956 1.391 . S
C968 H962 0.950 . S
C968 C969 1.327 . S
C969 H963 0.950 . S
C969 C968 1.327 . S
C969 C973 1.429 . S
C970 C953 1.574 . S
C970 H964 0.949 . S
C970 C974 1.368 . S
C971 C952 1.429 . S
C971 C965 1.429 . S
C971 C972 1.523 . S
C972 C953 1.368 . S
C972 C966 1.368 . S
C972 C971 1.523 . S
C973 C957 1.429 . S
C973 C969 1.429 . S
C973 C974 1.523 . S
C974 C958 1.368 . S
C974 C970 1.368 . S
C974 C973 1.523 . S
H975 C950 0.950 . S
H976 C952 0.950 . S
H977 C953 0.949 . S
H978 C955 0.950 . S
H979 C957 0.950 1_545 S
C980 C981 1.349 . S
C980 C982 1.327 . S
C980 H1005 0.950 . S
C981 C980 1.349 . S
C981 C997 1.349 . S
C982 C980 1.327 . S
C982 C1001 1.429 . S
C982 H1006 0.950 . S
C983 C1000 1.574 . S
C983 C1002 1.368 . S
C983 H1007 0.949 . S
H984 C988 0.949 . S
C985 C986 1.349 . S
C985 C987 1.327 . S
C985 H1008 0.950 . S
C986 C985 1.349 . S
C986 C998 1.349 . S
C987 C985 1.327 . S
C987 C1003 1.429 . S
C987 H1009 0.950 . S
C988 H984 0.949 . S
C988 C996 1.574 . S
C988 C1004 1.368 . S
H989 C997 0.950 . S
H990 C995 0.950 . S
H991 C996 0.949 . S
H992 C998 0.950 . S
H993 C999 0.950 . S
H994 C1000 0.949 . S
C995 H990 0.950 . S
C995 C997 1.327 . S
C995 C1001 1.429 . S
C996 C988 1.574 . S
C996 H991 0.949 . S
C996 C1002 1.368 . S
C997 C981 1.349 . S
C997 H989 0.950 . S
C997 C995 1.327 . S
C998 C986 1.349 . S
C998 H992 0.950 . S
C998 C999 1.327 . S
C999 H993 0.950 . S
C999 C998 1.327 . S
C999 C1003 1.429 . S
C1000 C983 1.574 . S
C1000 H994 0.949 . S
C1000 C1004 1.368 . S
C1001 C982 1.429 . S
C1001 C995 1.429 . S
C1001 C1002 1.523 . S
C1002 C983 1.368 . S
C1002 C996 1.368 . S
C1002 C1001 1.523 . S
C1003 C987 1.429 . S
C1003 C999 1.429 . S
C1003 C1004 1.523 . S
C1004 C988 1.368 . S
C1004 C1000 1.368 . S
C1004 C1003 1.523 . S
H1005 C980 0.950 . S
H1006 C982 0.950 . S
H1007 C983 0.949 . S
H1008 C985 0.950 . S
H1009 C987 0.950 . S
C1010 C1011 1.349 . S
C1010 C1012 1.327 . S
C1010 H1035 0.950 . S
C1011 C1010 1.349 . S
C1011 C1027 1.349 . S
C1012 C1010 1.327 . S
C1012 C1031 1.429 . S
C1012 H1036 0.950 . S
C1013 C1030 1.574 . S
C1013 C1032 1.368 . S
C1013 H1037 0.949 . S
H1014 C1018 0.949 . S
C1015 C1016 1.349 . S
C1015 C1017 1.327 . S
C1015 H1038 0.950 . S
C1016 C1015 1.349 . S
C1016 C1028 1.349 . S
C1017 C1015 1.327 . S
C1017 C1033 1.429 . S
C1017 H1039 0.950 . S
C1018 H1014 0.949 . S
C1018 C1026 1.574 . S
C1018 C1034 1.368 . S
H1019 C1027 0.950 . S
H1020 C1025 0.950 . S
H1021 C1026 0.949 . S
H1022 C1028 0.950 . S
H1023 C1029 0.950 . S
H1024 C1030 0.949 . S
C1025 H1020 0.950 . S
C1025 C1027 1.327 . S
C1025 C1031 1.429 . S
C1026 C1018 1.574 . S
C1026 H1021 0.949 . S
C1026 C1032 1.368 . S
C1027 C1011 1.349 . S
C1027 H1019 0.950 . S
C1027 C1025 1.327 . S
C1028 C1016 1.349 . S
C1028 H1022 0.950 . S
C1028 C1029 1.327 . S
C1029 H1023 0.950 . S
C1029 C1028 1.327 . S
C1029 C1033 1.429 . S
C1030 C1013 1.574 . S
C1030 H1024 0.949 . S
C1030 C1034 1.368 . S
C1031 C1012 1.429 . S
C1031 C1025 1.429 . S
C1031 C1032 1.523 . S
C1032 C1013 1.368 . S
C1032 C1026 1.368 . S
C1032 C1031 1.523 . S
C1033 C1017 1.429 . S
C1033 C1029 1.429 . S
C1033 C1034 1.523 . S
C1034 C1018 1.368 . S
C1034 C1030 1.368 . S
C1034 C1033 1.523 . S
H1035 C1010 0.950 . S
H1036 C1012 0.950 . S
H1037 C1013 0.949 . S
H1038 C1015 0.950 . S
H1039 C1017 0.950 . S
C1040 C1041 1.379 . S
C1040 C1042 1.327 . S
C1040 H1065 0.950 . S
C1041 C1040 1.379 . S
C1041 C1057 1.321 1_455 S
C1042 C1040 1.327 . S
C1042 C1061 1.429 . S
C1042 H1066 0.950 . S
C1043 C1060 1.574 . S
C1043 C1062 1.368 1_655 S
C1043 H1067 0.949 . S
H1044 C1048 0.949 . S
C1045 C1046 1.349 1_655 S
C1045 C1047 1.327 . S
C1045 H1068 0.950 . S
C1046 C1045 1.349 1_455 S
C1046 C1058 1.349 . S
C1047 C1045 1.327 . S
C1047 C1063 1.429 1_655 S
C1047 H1069 0.950 . S
C1048 H1044 0.949 . S
C1048 C1056 1.574 . S
C1048 C1064 1.368 . S
H1049 C1057 0.950 . S
H1050 C1055 0.950 . S
H1051 C1056 0.949 . S
H1052 C1058 0.950 . S
H1053 C1059 0.950 . S
H1054 C1060 0.949 . S
C1055 H1050 0.950 . S
C1055 C1057 1.327 . S
C1055 C1061 1.429 1_655 S
C1056 C1048 1.574 . S
C1056 H1051 0.949 . S
C1056 C1062 1.368 . S
C1057 C1041 1.321 1_655 S
C1057 H1049 0.950 . S
C1057 C1055 1.327 . S
C1058 C1046 1.349 . S
C1058 H1052 0.950 . S
C1058 C1059 1.327 . S
C1059 H1053 0.950 . S
C1059 C1058 1.327 . S
C1059 C1063 1.429 . S
C1060 C1043 1.574 . S
C1060 H1054 0.949 . S
C1060 C1064 1.368 1_655 S
C1061 C1042 1.429 . S
C1061 C1055 1.429 1_455 S
C1061 C1062 1.523 . S
C1062 C1043 1.368 1_455 S
C1062 C1056 1.368 . S
C1062 C1061 1.523 . S
C1063 C1047 1.429 1_455 S
C1063 C1059 1.429 . S
C1063 C1064 1.523 . S
C1064 C1048 1.368 . S
C1064 C1060 1.368 1_455 S
C1064 C1063 1.523 . S
H1065 C1040 0.950 . S
H1066 C1042 0.950 . S
H1067 C1043 0.949 . S
H1068 C1045 0.950 . S
H1069 C1047 0.950 . S
C1070 C1071 1.349 . S
C1070 C1072 1.327 . S
C1070 H1095 0.950 . S
C1071 C1070 1.349 . S
C1071 C1087 1.349 . S
C1072 C1070 1.327 . S
C1072 C1091 1.429 . S
C1072 H1096 0.950 . S
C1073 C1090 1.574 . S
C1073 C1092 1.368 . S
C1073 H1097 0.949 . S
H1074 C1078 0.949 . S
C1075 C1076 1.349 . S
C1075 C1077 1.327 . S
C1075 H1098 0.950 . S
C1076 C1075 1.349 . S
C1076 C1088 1.349 . S
C1077 C1075 1.327 . S
C1077 C1093 1.429 . S
C1077 H1099 0.950 . S
C1078 H1074 0.949 . S
C1078 C1086 1.574 . S
C1078 C1094 1.368 . S
H1079 C1087 0.950 . S
H1080 C1085 0.950 . S
H1081 C1086 0.949 . S
H1082 C1088 0.950 . S
H1083 C1089 0.950 . S
H1084 C1090 0.949 . S
C1085 H1080 0.950 . S
C1085 C1087 1.327 . S
C1085 C1091 1.429 . S
C1086 C1078 1.574 . S
C1086 H1081 0.949 . S
C1086 C1092 1.368 . S
C1087 C1071 1.349 . S
C1087 H1079 0.950 . S
C1087 C1085 1.327 . S
C1088 C1076 1.349 . S
C1088 H1082 0.950 . S
C1088 C1089 1.327 . S
C1089 H1083 0.950 . S
C1089 C1088 1.327 . S
C1089 C1093 1.429 . S
C1090 C1073 1.574 . S
C1090 H1084 0.949 . S
C1090 C1094 1.368 . S
C1091 C1072 1.429 . S
C1091 C1085 1.429 . S
C1091 C1092 1.523 . S
C1092 C1073 1.368 . S
C1092 C1086 1.368 . S
C1092 C1091 1.523 . S
C1093 C1077 1.429 . S
C1093 C1089 1.429 . S
C1093 C1094 1.523 . S
C1094 C1078 1.368 . S
C1094 C1090 1.368 . S
C1094 C1093 1.523 . S
H1095 C1070 0.950 . S
H1096 C1072 0.950 . S
H1097 C1073 0.949 . S
H1098 C1075 0.950 . S
H1099 C1077 0.950 . S
C1100 C1101 1.349 . S
C1100 C1102 1.327 . S
C1100 H1125 0.950 . S
C1101 C1100 1.349 . S
C1101 C1117 1.349 . S
C1102 C1100 1.327 . S
C1102 C1121 1.429 . S
C1102 H1126 0.950 . S
C1103 C1120 1.574 . S
C1103 C1122 1.368 . S
C1103 H1127 0.949 . S
H1104 C1108 0.949 . S
C1105 C1106 1.349 . S
C1105 C1107 1.327 . S
C1105 H1128 0.950 . S
C1106 C1105 1.349 . S
C1106 C1118 1.349 . S
C1107 C1105 1.327 . S
C1107 C1123 1.429 . S
C1107 H1129 0.950 . S
C1108 H1104 0.949 . S
C1108 C1116 1.574 . S
C1108 C1124 1.368 . S
H1109 C1117 0.950 . S
H1110 C1115 0.950 . S
H1111 C1116 0.949 . S
H1112 C1118 0.950 . S
H1113 C1119 0.950 . S
H1114 C1120 0.949 . S
C1115 H1110 0.950 . S
C1115 C1117 1.327 . S
C1115 C1121 1.429 . S
C1116 C1108 1.574 . S
C1116 H1111 0.949 . S
C1116 C1122 1.368 . S
C1117 C1101 1.349 . S
C1117 H1109 0.950 . S
C1117 C1115 1.327 . S
C1118 C1106 1.349 . S
C1118 H1112 0.950 . S
C1118 C1119 1.327 . S
C1119 H1113 0.950 . S
C1119 C1118 1.327 . S
C1119 C1123 1.429 . S
C1120 C1103 1.574 . S
C1120 H1114 0.949 . S
C1120 C1124 1.368 . S
C1121 C1102 1.429 . S
C1121 C1115 1.429 . S
C1121 C1122 1.523 . S
C1122 C1103 1.368 . S
C1122 C1116 1.368 . S
C1122 C1121 1.523 . S
C1123 C1107 1.429 . S
C1123 C1119 1.429 . S
C1123 C1124 1.523 . S
C1124 C1108 1.368 . S
C1124 C1120 1.368 . S
C1124 C1123 1.523 . S
H1125 C1100 0.950 . S
H1126 C1102 0.950 . S
H1127 C1103 0.949 . S
H1128 C1105 0.950 . S
H1129 C1107 0.950 . S
C1130 C1131 1.349 . S
C1130 C1132 1.327 . S
C1130 H1155 0.950 . S
C1131 C1130 1.349 . S
C1131 C1147 1.349 . S
C1132 C1130 1.327 . S
C1132 C1151 1.429 . S
C1132 H1156 0.950 . S
C1133 C1150 1.574 . S
C1133 C1152 1.368 . S
C1133 H1157 0.949 . S
H1134 C1138 0.949 . S
C1135 C1136 1.349 . S
C1135 C1137 1.327 . S
C1135 H1158 0.950 . S
C1136 C1135 1.349 . S
C1136 C1148 1.349 . S
C1137 C1135 1.327 . S
C1137 C1153 1.429 . S
C1137 H1159 0.950 . S
C1138 H1134 0.949 . S
C1138 C1146 1.574 . S
C1138 C1154 1.368 . S
H1139 C1147 0.950 . S
H1140 C1145 0.950 . S
H1141 C1146 0.949 . S
H1142 C1148 0.950 . S
H1143 C1149 0.950 . S
H1144 C1150 0.949 . S
C1145 H1140 0.950 . S
C1145 C1147 1.327 . S
C1145 C1151 1.429 . S
C1146 C1138 1.574 . S
C1146 H1141 0.949 . S
C1146 C1152 1.368 . S
C1147 C1131 1.349 . S
C1147 H1139 0.950 . S
C1147 C1145 1.327 . S
C1148 C1136 1.349 . S
C1148 H1142 0.950 . S
C1148 C1149 1.327 . S
C1149 H1143 0.950 . S
C1149 C1148 1.327 . S
C1149 C1153 1.429 . S
C1150 C1133 1.574 . S
C1150 H1144 0.949 . S
C1150 C1154 1.368 . S
C1151 C1132 1.429 . S
C1151 C1145 1.429 . S
C1151 C1152 1.523 . S
C1152 C1133 1.368 . S
C1152 C1146 1.368 . S
C1152 C1151 1.523 . S
C1153 C1137 1.429 . S
C1153 C1149 1.429 . S
C1153 C1154 1.523 . S
C1154 C1138 1.368 . S
C1154 C1150 1.368 . S
C1154 C1153 1.523 . S
H1155 C1130 0.950 . S
H1156 C1132 0.950 . S
H1157 C1133 0.949 . S
H1158 C1135 0.950 . S
H1159 C1137 0.950 . S
C1160 C1161 1.382 . S
C1160 C1162 1.327 . S
C1160 H1185 0.950 . S
C1161 C1160 1.382 . S
C1161 C1177 1.318 1_655 S
C1162 C1160 1.327 . S
C1162 C1181 1.429 . S
C1162 H1186 0.950 . S
C1163 C1180 1.574 . S
C1163 C1182 1.368 1_455 S
C1163 H1187 0.949 . S
H1164 C1168 0.949 . S
C1165 C1166 1.349 1_455 S
C1165 C1167 1.327 . S
C1165 H1188 0.950 . S
C1166 C1165 1.349 1_655 S
C1166 C1178 1.349 . S
C1167 C1165 1.327 . S
C1167 C1183 1.429 1_455 S
C1167 H1189 0.950 . S
C1168 H1164 0.949 . S
C1168 C1176 1.574 . S
C1168 C1184 1.368 . S
H1169 C1177 0.950 . S
H1170 C1175 0.950 . S
H1171 C1176 0.949 . S
H1172 C1178 0.950 . S
H1173 C1179 0.950 . S
H1174 C1180 0.949 . S
C1175 H1170 0.950 . S
C1175 C1177 1.327 . S
C1175 C1181 1.429 1_455 S
C1176 C1168 1.574 . S
C1176 H1171 0.949 . S
C1176 C1182 1.368 . S
C1177 C1161 1.318 1_455 S
C1177 H1169 0.950 . S
C1177 C1175 1.327 . S
C1178 C1166 1.349 . S
C1178 H1172 0.950 . S
C1178 C1179 1.327 . S
C1179 H1173 0.950 . S
C1179 C1178 1.327 . S
C1179 C1183 1.429 . S
C1180 C1163 1.574 . S
C1180 H1174 0.949 . S
C1180 C1184 1.368 1_455 S
C1181 C1162 1.429 . S
C1181 C1175 1.429 1_655 S
C1181 C1182 1.523 . S
C1182 C1163 1.368 1_655 S
C1182 C1176 1.368 . S
C1182 C1181 1.523 . S
C1183 C1167 1.429 1_655 S
C1183 C1179 1.429 . S
C1183 C1184 1.523 . S
C1184 C1168 1.368 . S
C1184 C1180 1.368 1_655 S
C1184 C1183 1.523 . S
H1185 C1160 0.950 . S
H1186 C1162 0.950 . S
H1187 C1163 0.949 . S
H1188 C1165 0.950 . S
H1189 C1167 0.950 . S
C1190 C1191 1.349 . S
C1190 C1192 1.327 . S
C1190 H1215 0.950 . S
C1191 C1190 1.349 . S
C1191 C1207 1.349 . S
C1192 C1190 1.327 . S
C1192 C1211 1.429 . S
C1192 H1216 0.950 . S
C1193 C1210 1.574 . S
C1193 C1212 1.368 . S
C1193 H1217 0.949 . S
H1194 C1198 0.949 . S
C1195 C1196 1.349 . S
C1195 C1197 1.327 . S
C1195 H1218 0.950 . S
C1196 C1195 1.349 . S
C1196 C1208 1.349 . S
C1197 C1195 1.327 . S
C1197 C1213 1.429 . S
C1197 H1219 0.950 . S
C1198 H1194 0.949 . S
C1198 C1206 1.574 . S
C1198 C1214 1.368 . S
H1199 C1207 0.950 . S
H1200 C1205 0.950 . S
H1201 C1206 0.949 . S
H1202 C1208 0.950 . S
H1203 C1209 0.950 . S
H1204 C1210 0.949 . S
C1205 H1200 0.950 . S
C1205 C1207 1.327 . S
C1205 C1211 1.429 . S
C1206 C1198 1.574 . S
C1206 H1201 0.949 . S
C1206 C1212 1.368 . S
C1207 C1191 1.349 . S
C1207 H1199 0.950 . S
C1207 C1205 1.327 . S
C1208 C1196 1.349 . S
C1208 H1202 0.950 . S
C1208 C1209 1.327 . S
C1209 H1203 0.950 . S
C1209 C1208 1.327 . S
C1209 C1213 1.429 . S
C1210 C1193 1.574 . S
C1210 H1204 0.949 . S
C1210 C1214 1.368 . S
C1211 C1192 1.429 . S
C1211 C1205 1.429 . S
C1211 C1212 1.523 . S
C1212 C1193 1.368 . S
C1212 C1206 1.368 . S
C1212 C1211 1.523 . S
C1213 C1197 1.429 . S
C1213 C1209 1.429 . S
C1213 C1214 1.523 . S
C1214 C1198 1.368 . S
C1214 C1210 1.368 . S
C1214 C1213 1.523 . S
H1215 C1190 0.950 . S
H1216 C1192 0.950 . S
H1217 C1193 0.949 . S
H1218 C1195 0.950 . S
H1219 C1197 0.950 . S
C1220 C1221 1.349 . S
C1220 C1222 1.327 . S
C1220 H1245 0.950 . S
C1221 C1220 1.349 . S
C1221 C1237 1.349 . S
C1222 C1220 1.327 . S
C1222 C1241 1.429 . S
C1222 H1246 0.950 . S
C1223 C1240 1.574 . S
C1223 C1242 1.368 . S
C1223 H1247 0.949 . S
H1224 C1228 0.949 . S
C1225 C1226 1.349 . S
C1225 C1227 1.327 . S
C1225 H1248 0.950 . S
C1226 C1225 1.349 . S
C1226 C1238 1.349 . S
C1227 C1225 1.327 . S
C1227 C1243 1.429 . S
C1227 H1249 0.950 . S
C1228 H1224 0.949 . S
C1228 C1236 1.574 . S
C1228 C1244 1.368 . S
H1229 C1237 0.950 . S
H1230 C1235 0.950 . S
H1231 C1236 0.949 . S
H1232 C1238 0.950 . S
H1233 C1239 0.950 . S
H1234 C1240 0.949 . S
C1235 H1230 0.950 . S
C1235 C1237 1.327 . S
C1235 C1241 1.429 . S
C1236 C1228 1.574 . S
C1236 H1231 0.949 . S
C1236 C1242 1.368 . S
C1237 C1221 1.349 . S
C1237 H1229 0.950 . S
C1237 C1235 1.327 . S
C1238 C1226 1.349 . S
C1238 H1232 0.950 . S
C1238 C1239 1.327 . S
C1239 H1233 0.950 . S
C1239 C1238 1.327 . S
C1239 C1243 1.429 . S
C1240 C1223 1.574 . S
C1240 H1234 0.949 . S
C1240 C1244 1.368 . S
C1241 C1222 1.429 . S
C1241 C1235 1.429 . S
C1241 C1242 1.523 . S
C1242 C1223 1.368 . S
C1242 C1236 1.368 . S
C1242 C1241 1.523 . S
C1243 C1227 1.429 . S
C1243 C1239 1.429 . S
C1243 C1244 1.523 . S
C1244 C1228 1.368 . S
C1244 C1240 1.368 . S
C1244 C1243 1.523 . S
H1245 C1220 0.950 . S
H1246 C1222 0.950 . S
H1247 C1223 0.949 . S
H1248 C1225 0.950 . S
H1249 C1227 0.950 . S
C1250 C1251 1.349 . S
C1250 C1252 1.327 . S
C1250 H1275 0.950 . S
C1251 C1250 1.349 . S
C1251 C1267 1.349 . S
C1252 C1250 1.327 . S
C1252 C1271 1.429 . S
C1252 H1276 0.950 . S
C1253 C1270 1.574 . S
C1253 C1272 1.368 . S
C1253 H1277 0.949 . S
H1254 C1258 0.949 . S
C1255 C1256 1.349 . S
C1255 C1257 1.327 . S
C1255 H1278 0.950 . S
C1256 C1255 1.349 . S
C1256 C1268 1.349 . S
C1257 C1255 1.327 . S
C1257 C1273 1.429 . S
C1257 H1279 0.950 . S
C1258 H1254 0.949 . S
C1258 C1266 1.574 . S
C1258 C1274 1.368 . S
H1259 C1267 0.950 . S
H1260 C1265 0.950 . S
H1261 C1266 0.949 . S
H1262 C1268 0.950 . S
H1263 C1269 0.950 . S
H1264 C1270 0.949 . S
C1265 H1260 0.950 . S
C1265 C1267 1.327 . S
C1265 C1271 1.429 . S
C1266 C1258 1.574 . S
C1266 H1261 0.949 . S
C1266 C1272 1.368 . S
C1267 C1251 1.349 . S
C1267 H1259 0.950 . S
C1267 C1265 1.327 . S
C1268 C1256 1.349 . S
C1268 H1262 0.950 . S
C1268 C1269 1.327 . S
C1269 H1263 0.950 . S
C1269 C1268 1.327 . S
C1269 C1273 1.429 . S
C1270 C1253 1.574 . S
C1270 H1264 0.949 . S
C1270 C1274 1.368 . S
C1271 C1252 1.429 . S
C1271 C1265 1.429 . S
C1271 C1272 1.523 . S
C1272 C1253 1.368 . S
C1272 C1266 1.368 . S
C1272 C1271 1.523 . S
C1273 C1257 1.429 . S
C1273 C1269 1.429 . S
C1273 C1274 1.523 . S
C1274 C1258 1.368 . S
C1274 C1270 1.368 . S
C1274 C1273 1.523 . S
H1275 C1250 0.950 . S
H1276 C1252 0.950 . S
H1277 C1253 0.949 . S
H1278 C1255 0.950 . S
H1279 C1257 0.950 . S
C561 C391 1.810 . S
C566 C498 1.762 . S
C596 C518 1.445 . S
C591 C451 1.486 . S
C626 C538 1.728 . S
C621 C241 1.578 . S
C656 C558 1.409 . S
C651 C331 1.333 . S
C686 C499 1.767 1_565 S
C681 C121 1.682 . S
C711 C211 1.511 1_556 S
C716 C519 1.444 . S
C741 C31 1.707 . S
C746 C539 1.728 . S
C771 C91 1.336 1_455 S
C776 C559 1.410 . S
C806 C489 0.489 . S
C801 C301 0.494 1_455 S
C836 C509 0.607 . S
C831 C380 0.538 . S
C866 C529 0.502 . S
C861 C440 0.433 . S
C891 C260 0.629 . S
C896 C549 0.590 . S
C921 C61 0.494 . S
C926 C492 0.479 . S
C956 C512 0.630 . S
C951 C140 0.592 . S
C986 C532 0.502 . S
C981 C200 0.400 . S
C1011 C20 0.558 . S
C1016 C552 0.596 . S
C1041 C320 2.039 1_455 S
C1046 C482 1.927 . S
C1071 C361 1.884 . S
C1076 C502 1.982 . S
C1106 C522 1.821 . S
C1101 C421 1.686 . S
C1136 C542 2.113 . S
C1131 C271 2.183 . S
C1161 C80 2.039 . S
C1166 C484 1.929 . S
C1196 C504 1.982 . S
C1191 C151 2.110 . S
C1226 C524 1.821 . S
C1221 C181 1.727 . S
C1251 C1 1.957 . S
C1256 C544 2.117 . S
