# Generated by pormake.
# Topology rtl, (3,6)-cn, num edge types: 1
# Building blocks:
#     Node 0, Type 0, BuildingBlock: CUQRIR_clean_linker_1, # of connection points: 3
#     Node 1, Type 0, BuildingBlock: CUQRIR_clean_linker_1, # of connection points: 3
#     Node 2, Type 0, BuildingBlock: CUQRIR_clean_linker_1, # of connection points: 3
#     Node 3, Type 0, BuildingBlock: CUQRIR_clean_linker_1, # of connection points: 3
#     Node 4, Type 1, BuildingBlock: LEVNOQ01_clean_sbu_1, # of connection points: 6
#     Node 5, Type 1, BuildingBlock: LEVNOQ01_clean_sbu_1, # of connection points: 6
#     Edge 6, Type (0, 1), BuildingBlock: FUNLAD_clean_linker_0, # of connection points: 2
#     Edge 7, Type (0, 1), BuildingBlock: FUNLAD_clean_linker_0, # of connection points: 2
#     Edge 8, Type (0, 1), BuildingBlock: FUNLAD_clean_linker_0, # of connection points: 2
#     Edge 9, Type (0, 1), BuildingBlock: FUNLAD_clean_linker_0, # of connection points: 2
#     Edge 10, Type (0, 1), BuildingBlock: FUNLAD_clean_linker_0, # of connection points: 2
#     Edge 11, Type (0, 1), BuildingBlock: FUNLAD_clean_linker_0, # of connection points: 2
#     Edge 12, Type (0, 1), BuildingBlock: FUNLAD_clean_linker_0, # of connection points: 2
#     Edge 13, Type (0, 1), BuildingBlock: FUNLAD_clean_linker_0, # of connection points: 2
#     Edge 14, Type (0, 1), BuildingBlock: FUNLAD_clean_linker_0, # of connection points: 2
#     Edge 15, Type (0, 1), BuildingBlock: FUNLAD_clean_linker_0, # of connection points: 2
#     Edge 16, Type (0, 1), BuildingBlock: FUNLAD_clean_linker_0, # of connection points: 2
#     Edge 17, Type (0, 1), BuildingBlock: FUNLAD_clean_linker_0, # of connection points: 2
# Relax obj value: 0.023
# Max RMSD: 0.125
# Mean RMSD: 0.103
data_MOF--net-rtl--node1-LEVNOQ01_clean_sbu_1--node2-CUQRIR_clean_linker_1--edge1-FUNLAD_clean_linker_0
_symmetry_space_group_name_H-M    P1
_symmetry_Int_Tables_number       1
_symmetry_cell_setting            triclinic
loop_
_symmetry_equiv_pos_as_xyz
'x, y, z'
_cell_length_a     38.959974
_cell_length_b     39.004302
_cell_length_c     24.097505
_cell_angle_alpha  90.035203
_cell_angle_beta   97.457233
_cell_angle_gamma 90.251537
loop_
_atom_site_label
_atom_site_type_symbol
_atom_site_fract_x
_atom_site_fract_y
_atom_site_fract_z
_atom_type_partial_charge
C0 C 0.22503 0.80944 0.05528 0.0
N1 N 0.20305 0.83556 0.06188 0.0
N2 N 0.24415 0.80167 0.10463 0.0
C3 C 0.23021 0.79375 0.99989 0.0
C4 C 0.2333 0.8241 0.14138 0.0
N5 N 0.20864 0.84508 0.11535 0.0
C6 C 0.24491 0.82355 0.20345 0.0
H7 H 0.21177 0.77209 0.99087 0.0
H8 H 0.25689 0.78376 1.00074 0.0
H9 H 0.22523 0.81274 0.96557 0.0
H10 H 0.26631 0.8423 0.21352 0.0
H11 H 0.2545 0.79779 0.21725 0.0
H12 H 0.22339 0.83073 0.22707 0.0
C13 C 0.70936 0.72676 0.62649 0.0
N14 N 0.68599 0.70327 0.60316 0.0
N15 N 0.71853 0.74844 0.58699 0.0
C16 C 0.72062 0.73074 0.68827 0.0
C17 C 0.69989 0.73744 0.5389 0.0
N18 N 0.67984 0.71033 0.54879 0.0
C19 C 0.70287 0.75184 0.48177 0.0
H20 H 0.7291 0.75741 0.69882 0.0
H21 H 0.74271 0.71334 0.70087 0.0
H22 H 0.69929 0.7238 0.71255 0.0
H23 H 0.72873 0.76359 0.48033 0.0
H24 H 0.68289 0.77188 0.47189 0.0
H25 H 0.69848 0.73156 0.44927 0.0
C26 C 0.79354 0.21364 0.04076 0.0
N27 N 0.81563 0.18973 0.02541 0.0
N28 N 0.77638 0.22915 0.99499 0.0
C29 C 0.78925 0.22255 0.10028 0.0
C30 C 0.78873 0.21369 0.95139 0.0
N31 N 0.81251 0.18978 0.9699 0.0
C32 C 0.77882 0.22296 0.89089 0.0
H33 H 0.76245 0.23119 0.10323 0.0
H34 H 0.8073 0.24379 0.11454 0.0
H35 H 0.79535 0.20067 0.12901 0.0
H36 H 0.77078 0.25018 0.88652 0.0
H37 H 0.75677 0.20654 0.87317 0.0
H38 H 0.80061 0.21846 0.86639 0.0
C39 C 0.2928 0.2937 0.44262 0.0
N40 N 0.31328 0.31833 0.46944 0.0
N41 N 0.28111 0.27206 0.47993 0.0
C42 C 0.28652 0.28908 0.38013 0.0
C43 C 0.29522 0.28434 0.53039 0.0
N44 N 0.31517 0.31222 0.52403 0.0
C45 C 0.2871 0.27079 0.58573 0.0
H46 H 0.2642 0.30513 0.36294 0.0
H47 H 0.28045 0.26195 0.36878 0.0
H48 H 0.30945 0.29734 0.36056 0.0
H49 H 0.30696 0.25166 0.60166 0.0
H50 H 0.26136 0.25808 0.58117 0.0
H51 H 0.28748 0.29175 0.61697 0.0
O52 O 0.98253 0.08894 0.61517 0.0
Mg53 Mg 0.03426 0.07514 0.61609 0.0
O54 O 0.96781 0.03531 0.59386 0.0
Mg55 Mg 0.00925 0.01261 0.53992 0.0
O56 O 0.04373 0.06065 0.53933 0.0
O57 O 0.06672 0.10794 0.58136 0.0
O58 O 0.05292 0.99316 0.48546 0.0
O59 O 0.97717 0.0368 0.46257 0.0
Mg60 Mg 0.99671 0.96267 0.47081 0.0
O61 O 0.97114 0.96387 0.54063 0.0
O62 O 0.0447 0.93802 0.47729 0.0
O63 O 0.98251 0.9962 0.40156 0.0
O64 O 0.95931 0.92736 0.46816 0.0
C65 C 0.05446 0.00477 0.66768 0.0
C66 C 0.96071 0.06473 0.61283 0.0
C67 C 0.06319 0.08764 0.53871 0.0
C68 C 0.06361 0.96374 0.47228 0.0
C69 C 0.97284 0.02612 0.41232 0.0
C70 C 0.95343 0.93818 0.51653 0.0
O71 O 0.05392 0.03712 0.6739 0.0
O72 O 0.04131 0.99055 0.62175 0.0
O73 O 0.58094 0.52186 0.12502 0.0
Mg74 Mg 0.5426 0.48439 0.10994 0.0
O75 O 0.52978 0.54482 0.11396 0.0
Mg76 Mg 0.5004 0.50937 0.03964 0.0
O77 O 0.53895 0.46096 0.03328 0.0
O78 O 0.56681 0.43938 0.11309 0.0
O79 O 0.47002 0.47584 0.966 0.0
O80 O 0.53424 0.53741 0.97842 0.0
Mg81 Mg 0.45522 0.54428 0.96313 0.0
O82 O 0.46103 0.55554 0.04651 0.0
O83 O 0.42309 0.50393 0.93392 0.0
O84 O 0.49405 0.55954 0.91636 0.0
O85 O 0.4275 0.58508 0.97973 0.0
C86 C 0.47576 0.47563 0.15038 0.0
C87 C 0.56169 0.54638 0.13441 0.0
C88 C 0.55848 0.43747 0.05975 0.0
C89 C 0.44069 0.47689 0.93538 0.0
C90 C 0.52562 0.5543 0.93338 0.0
C91 C 0.43902 0.58004 0.03164 0.0
O92 O 0.5073 0.47884 0.16963 0.0
O93 O 0.46644 0.48169 0.09884 0.0
C94 C 0.22675 0.24521 0.43673 0.0
C95 C 0.25929 0.24237 0.4688 0.0
C96 C 0.20452 0.21685 0.42926 0.0
C97 C 0.21464 0.18498 0.45365 0.0
C98 C 0.24775 0.18218 0.48433 0.0
C99 C 0.26985 0.21055 0.49175 0.0
C100 C 0.19033 0.15545 0.45434 0.0
C101 C 0.15957 0.15274 0.42171 0.0
C102 C 0.13205 0.12936 0.43674 0.0
C103 C 0.0981 0.14187 0.43263 0.0
C104 C 0.07358 0.12542 0.46081 0.0
C105 C 0.08242 0.09573 0.49207 0.0
H106 H 0.16533 0.08661 0.46504 0.0
C107 C 0.11488 0.08072 0.49027 0.0
C108 C 0.13964 0.09744 0.46267 0.0
H109 H 0.12225 0.05798 0.51468 0.0
H110 H 0.21811 0.26973 0.41918 0.0
H111 H 0.17904 0.22067 0.40656 0.0
H112 H 0.25622 0.15815 0.50396 0.0
H113 H 0.29503 0.20788 0.51625 0.0
H114 H 0.19689 0.13667 0.48726 0.0
H115 H 0.15222 0.17144 0.3891 0.0
H116 H 0.09151 0.16622 0.41247 0.0
H117 H 0.04877 0.13759 0.46239 0.0
C118 C 0.26597 0.74261 0.10053 0.0
C119 C 0.2717 0.77717 0.11494 0.0
C120 C 0.29318 0.71912 0.10851 0.0
C121 C 0.32669 0.72989 0.13119 0.0
C122 C 0.3321 0.76449 0.1461 0.0
C123 C 0.30484 0.78787 0.13832 0.0
C124 C 0.35719 0.7069 0.13345 0.0
C125 C 0.35507 0.67239 0.13373 0.0
C126 C 0.38353 0.64962 0.12048 0.0
C127 C 0.38158 0.61425 0.13128 0.0
C128 C 0.40302 0.5911 0.10768 0.0
C129 C 0.42645 0.60309 0.07258 0.0
H130 H 0.41152 0.68832 0.07865 0.0
C131 C 0.4304 0.63845 0.06544 0.0
C132 C 0.40932 0.66155 0.08924 0.0
H133 H 0.44792 0.64812 0.0376 0.0
H134 H 0.24051 0.734 0.08236 0.0
H135 H 0.28807 0.69297 0.09477 0.0
H136 H 0.35768 0.77363 0.16278 0.0
H137 H 0.30977 0.81455 0.14913 0.0
H138 H 0.38217 0.7192 0.13267 0.0
H139 H 0.33079 0.66017 0.1401 0.0
H140 H 0.36189 0.6043 0.15489 0.0
H141 H 0.39908 0.56381 0.11269 0.0
C142 C 0.77629 0.77317 0.61767 0.0
C143 C 0.74173 0.77736 0.59401 0.0
C144 C 0.79986 0.80042 0.61806 0.0
C145 C 0.78906 0.83236 0.59482 0.0
C146 C 0.75403 0.83676 0.57369 0.0
C147 C 0.73059 0.8096 0.5735 0.0
C148 C 0.81398 0.85981 0.58419 0.0
C149 C 0.84673 0.86244 0.60997 0.0
C150 C 0.87264 0.88466 0.58711 0.0
C151 C 0.89962 0.90043 0.62275 0.0
C152 C 0.92549 0.91923 0.60044 0.0
C153 C 0.9252 0.92151 0.54218 0.0
H154 H 0.85238 0.87526 0.5001 0.0
C155 C 0.89803 0.90594 0.50689 0.0
C156 C 0.87211 0.88785 0.52895 0.0
H157 H 0.89698 0.90731 0.46179 0.0
H158 H 0.78533 0.74835 0.63332 0.0
H159 H 0.82673 0.7957 0.63361 0.0
H160 H 0.745 0.86097 0.55531 0.0
H161 H 0.70391 0.81336 0.55564 0.0
H162 H 0.80534 0.8778 0.55087 0.0
H163 H 0.85526 0.84712 0.64674 0.0
H164 H 0.9008 0.89797 0.66772 0.0
H165 H 0.94625 0.93088 0.62854 0.0
C166 C 0.71852 0.2524 0.96157 0.0
C167 C 0.75122 0.25618 0.99323 0.0
C168 C 0.69324 0.27769 0.963 0.0
C169 C 0.70033 0.30705 0.99653 0.0
C170 C 0.7334 0.31113 0.0268 0.0
C171 C 0.75871 0.28613 0.02469 0.0
C172 C 0.67295 0.3317 0.00657 0.0
C173 C 0.64461 0.3387 0.9701 0.0
C174 C 0.61729 0.36114 0.98753 0.0
C175 C 0.60418 0.38899 0.95445 0.0
C176 C 0.58257 0.41311 0.97585 0.0
C177 C 0.57378 0.40926 0.03029 0.0
H178 H 0.61479 0.33405 0.06535 0.0
C179 C 0.58442 0.37963 0.06081 0.0
C180 C 0.60591 0.3559 0.03974 0.0
H181 H 0.57752 0.37558 0.10246 0.0
H182 H 0.7122 0.22931 0.93736 0.0
H183 H 0.66779 0.27339 0.94013 0.0
H184 H 0.73948 0.33346 0.05308 0.0
H185 H 0.78398 0.28985 0.04849 0.0
H186 H 0.6763 0.34477 0.04685 0.0
H187 H 0.64187 0.32884 0.9276 0.0
H188 H 0.61234 0.39322 0.9137 0.0
H189 H 0.57469 0.43571 0.95144 0.0
C190 C 0.20959 0.89564 0.17673 0.0
C191 C 0.19068 0.87148 0.1418 0.0
C192 C 0.19305 0.91637 0.21227 0.0
C193 C 0.15712 0.91372 0.21273 0.0
C194 C 0.13779 0.8919 0.17394 0.0
C195 C 0.1545 0.87066 0.13901 0.0
C196 C 0.13977 0.93159 0.25579 0.0
C197 C 0.15405 0.93281 0.30982 0.0
C198 C 0.13437 0.94414 0.35512 0.0
C199 C 0.13507 0.92386 0.40333 0.0
C200 C 0.11349 0.93146 0.44369 0.0
C201 C 0.0919 0.96028 0.43758 0.0
H202 H 0.11335 0.99015 0.31363 0.0
C203 C 0.09317 0.98211 0.39148 0.0
C204 C 0.11391 0.97384 0.35009 0.0
H205 H 0.07637 0.00422 0.38545 0.0
H206 H 0.23746 0.89718 0.17846 0.0
H207 H 0.20849 0.93371 0.24056 0.0
H208 H 0.10999 0.88971 0.17313 0.0
H209 H 0.13945 0.8522 0.11236 0.0
H210 H 0.11316 0.93983 0.24451 0.0
H211 H 0.17904 0.92085 0.3221 0.0
H212 H 0.15083 0.90097 0.4082 0.0
H213 H 0.11267 0.91411 0.47859 0.0
C214 C 0.68536 0.65615 0.67166 0.0
C215 C 0.66748 0.67854 0.63249 0.0
C216 C 0.66725 0.63501 0.70492 0.0
C217 C 0.63085 0.63577 0.69903 0.0
C218 C 0.61312 0.65686 0.65766 0.0
C219 C 0.63122 0.67824 0.62511 0.0
C220 C 0.61009 0.61619 0.73589 0.0
C221 C 0.62169 0.60625 0.78867 0.0
C222 C 0.59765 0.59321 0.82714 0.0
C223 C 0.60903 0.56966 0.86975 0.0
C224 C 0.58612 0.55718 0.90564 0.0
C225 C 0.55157 0.56837 0.89953 0.0
H226 H 0.55419 0.62484 0.7929 0.0
C227 C 0.54086 0.593 0.8584 0.0
C228 C 0.56353 0.60537 0.82305 0.0
H229 H 0.51469 0.60288 0.85323 0.0
H230 H 0.71337 0.65558 0.67722 0.0
H231 H 0.68182 0.61839 0.73515 0.0
H232 H 0.58508 0.65786 0.65199 0.0
H233 H 0.61688 0.69556 0.59572 0.0
H234 H 0.58294 0.61232 0.72008 0.0
H235 H 0.64885 0.60893 0.80511 0.0
H236 H 0.63544 0.56044 0.87458 0.0
H237 H 0.59519 0.5384 0.93719 0.0
C238 C 0.82393 0.14349 0.09508 0.0
C239 C 0.83806 0.16795 0.06189 0.0
C240 C 0.84536 0.12474 0.1349 0.0
C241 C 0.88143 0.12978 0.14144 0.0
C242 C 0.89567 0.15303 0.10619 0.0
C243 C 0.87408 0.17234 0.06721 0.0
C244 C 0.9045 0.11102 0.18477 0.0
C245 C 0.89575 0.10549 0.23627 0.0
C246 C 0.91792 0.08652 0.28056 0.0
C247 C 0.91612 0.09458 0.33687 0.0
C248 C 0.93489 0.0757 0.37974 0.0
C249 C 0.95521 0.0478 0.36706 0.0
H250 H 0.94038 0.05181 0.22484 0.0
C251 C 0.95729 0.03991 0.31067 0.0
C252 C 0.93897 0.05917 0.2678 0.0
H253 H 0.97276 0.01856 0.2996 0.0
H254 H 0.79617 0.13962 0.09103 0.0
H255 H 0.83372 0.10633 0.16053 0.0
H256 H 0.9234 0.15715 0.11023 0.0
H257 H 0.88538 0.19146 0.04254 0.0
H258 H 0.92988 0.10349 0.17512 0.0
H259 H 0.87186 0.11635 0.24721 0.0
H260 H 0.89992 0.11542 0.34776 0.0
H261 H 0.93264 0.08234 0.42277 0.0
C262 C 0.35572 0.31733 0.61113 0.0
C263 C 0.33335 0.33279 0.56813 0.0
C264 C 0.37055 0.33652 0.65718 0.0
C265 C 0.3635 0.37179 0.66075 0.0
C266 C 0.34205 0.38734 0.61642 0.0
C267 C 0.32714 0.36805 0.57057 0.0
C268 C 0.37582 0.39293 0.71099 0.0
C269 C 0.3992 0.38277 0.75414 0.0
C270 C 0.40874 0.40459 0.80445 0.0
C271 C 0.4422 0.40266 0.83414 0.0
C272 C 0.45236 0.42483 0.87916 0.0
C273 C 0.42903 0.44914 0.89535 0.0
H274 H 0.35832 0.42841 0.80328 0.0
C275 C 0.3949 0.44938 0.86798 0.0
C276 C 0.38482 0.4273 0.8233 0.0
H277 H 0.3761 0.46739 0.88003 0.0
H278 H 0.36103 0.29015 0.6096 0.0
H279 H 0.3865 0.32318 0.69024 0.0
H280 H 0.33605 0.41441 0.61789 0.0
H281 H 0.30975 0.38037 0.53796 0.0
H282 H 0.3649 0.41846 0.71222 0.0
H283 H 0.41283 0.35873 0.75218 0.0
H284 H 0.46092 0.38489 0.82113 0.0
H285 H 0.47882 0.424 0.89949 0.0
C286 C 0.66358 0.6575 0.49567 0.0
C287 C 0.65704 0.69184 0.50737 0.0
C288 C 0.6447 0.64117 0.44968 0.0
C289 C 0.61887 0.65903 0.41492 0.0
C290 C 0.61091 0.69269 0.42915 0.0
C291 C 0.63008 0.70908 0.47467 0.0
C292 C 0.60075 0.64367 0.36265 0.0
C293 C 0.61725 0.62297 0.33013 0.0
C294 C 0.60153 0.60783 0.27594 0.0
C295 C 0.62383 0.59287 0.24163 0.0
C296 C 0.6107 0.57505 0.19331 0.0
C297 C 0.57483 0.57162 0.17797 0.0
H298 H 0.54731 0.61676 0.28448 0.0
C299 C 0.55232 0.58815 0.21033 0.0
C300 C 0.56551 0.60598 0.25911 0.0
H301 H 0.52453 0.58559 0.1999 0.0
H302 H 0.68426 0.64388 0.5207 0.0
H303 H 0.65073 0.61481 0.44087 0.0
H304 H 0.59088 0.70684 0.40354 0.0
H305 H 0.62464 0.73557 0.48357 0.0
H306 H 0.57453 0.65202 0.34872 0.0
H307 H 0.64448 0.61758 0.34298 0.0
H308 H 0.65164 0.59399 0.25319 0.0
H309 H 0.62875 0.56264 0.16922 0.0
C310 C 0.81568 0.1406 0.90711 0.0
C311 C 0.83155 0.16902 0.93555 0.0
C312 C 0.83149 0.12418 0.86543 0.0
C313 C 0.86348 0.13618 0.85163 0.0
C314 C 0.87974 0.1639 0.882 0.0
C315 C 0.86382 0.18029 0.92326 0.0
C316 C 0.87949 0.12315 0.803 0.0
C317 C 0.86962 0.09479 0.77285 0.0
C318 C 0.88678 0.08555 0.72338 0.0
C319 C 0.89583 0.05139 0.71413 0.0
C320 C 0.91748 0.04361 0.67366 0.0
C321 C 0.93008 0.07 0.64196 0.0
H322 H 0.88853 0.13756 0.69189 0.0
C323 C 0.91786 0.10351 0.64726 0.0
C324 C 0.89633 0.11119 0.68734 0.0
H325 H 0.92673 0.12426 0.62275 0.0
H326 H 0.79033 0.13221 0.9155 0.0
H327 H 0.81775 0.10332 0.84269 0.0
H328 H 0.90423 0.1739 0.87217 0.0
H329 H 0.8758 0.20289 0.94361 0.0
H330 H 0.90094 0.13819 0.79109 0.0
H331 H 0.85053 0.07725 0.78588 0.0
H332 H 0.88819 0.03111 0.74076 0.0
H333 H 0.92653 0.01755 0.67044 0.0
C334 C 0.31605 0.36626 0.40355 0.0
C335 C 0.3328 0.34379 0.44358 0.0
C336 C 0.33527 0.38814 0.37335 0.0
C337 C 0.37172 0.38769 0.38253 0.0
C338 C 0.38823 0.36647 0.42494 0.0
C339 C 0.36896 0.34464 0.45505 0.0
C340 C 0.39358 0.40817 0.34839 0.0
C341 C 0.38254 0.41994 0.29644 0.0
C342 C 0.40582 0.43676 0.26003 0.0
C343 C 0.39592 0.43734 0.20178 0.0
C344 C 0.41811 0.45081 0.16589 0.0
C345 C 0.45074 0.4639 0.18764 0.0
H346 H 0.44592 0.4532 0.3263 0.0
C347 C 0.46002 0.46466 0.24596 0.0
C348 C 0.43776 0.45158 0.28176 0.0
H349 H 0.4847 0.47525 0.26412 0.0
H350 H 0.28807 0.3663 0.39499 0.0
H351 H 0.32143 0.40503 0.34275 0.0
H352 H 0.41622 0.36586 0.43348 0.0
H353 H 0.38229 0.32741 0.48574 0.0
H354 H 0.42065 0.41086 0.36521 0.0
H355 H 0.35618 0.4147 0.27774 0.0
H356 H 0.37129 0.42653 0.18381 0.0
H357 H 0.41012 0.45007 0.12114 0.0
C358 C 0.18484 0.88712 0.00711 0.0
C359 C 0.18061 0.85221 0.01794 0.0
C360 C 0.16628 0.90232 0.95997 0.0
C361 C 0.14269 0.88286 0.923 0.0
C362 C 0.13807 0.84802 0.93484 0.0
C363 C 0.15674 0.83288 0.98194 0.0
C364 C 0.12385 0.89755 0.87054 0.0
C365 C 0.11774 0.93134 0.86388 0.0
C366 C 0.10006 0.94784 0.81217 0.0
C367 C 0.09121 0.98244 0.81595 0.0
C368 C 0.07629 0.00031 0.76912 0.0
C369 C 0.06963 0.98419 0.71656 0.0
H370 H 0.09993 0.90471 0.75458 0.0
C371 C 0.07783 0.94928 0.71238 0.0
C372 C 0.09312 0.93124 0.75974 0.0
H373 H 0.07304 0.93614 0.67251 0.0
H374 H 0.20368 0.90222 0.0338 0.0
H375 H 0.17165 0.92892 0.95176 0.0
H376 H 0.12029 0.83234 0.90719 0.0
H377 H 0.15322 0.80583 0.98968 0.0
H378 H 0.11408 0.87976 0.83756 0.0
H379 H 0.12539 0.94833 0.89904 0.0
H380 H 0.09611 0.99601 0.85548 0.0
H381 H 0.07002 0.02704 0.77443 0.0
loop_
_geom_bond_atom_site_label_1
_geom_bond_atom_site_label_2
_geom_bond_distance
_geom_bond_site_symmetry_2
_ccdc_geom_bond_type
C0 N1 1.317 . S
C0 N2 1.348 . S
C0 C3 1.485 1_554 S
N1 C0 1.317 . S
N1 N5 1.370 . S
N2 C0 1.348 . S
N2 C4 1.346 . S
C3 C0 1.485 1_556 S
C3 H7 0.960 . S
C3 H8 0.961 . S
C3 H9 0.960 . S
C4 N2 1.346 . S
C4 N5 1.307 . S
C4 C6 1.486 . S
N5 N1 1.370 . S
N5 C4 1.307 . S
C6 C4 1.486 . S
C6 H10 0.960 . S
C6 H11 0.960 . S
C6 H12 0.959 . S
H7 C3 0.960 . S
H8 C3 0.961 . S
H9 C3 0.960 . S
H10 C6 0.960 . S
H11 C6 0.960 . S
H12 C6 0.959 . S
C13 N14 1.317 . S
C13 N15 1.348 . S
C13 C16 1.485 . S
N14 C13 1.317 . S
N14 N18 1.370 . S
N15 C13 1.348 . S
N15 C17 1.346 . S
C16 C13 1.485 . S
C16 H20 0.960 . S
C16 H21 0.961 . S
C16 H22 0.960 . S
C17 N15 1.346 . S
C17 N18 1.307 . S
C17 C19 1.486 . S
N18 N14 1.370 . S
N18 C17 1.307 . S
C19 C17 1.486 . S
C19 H23 0.960 . S
C19 H24 0.960 . S
C19 H25 0.959 . S
H20 C16 0.960 . S
H21 C16 0.961 . S
H22 C16 0.960 . S
H23 C19 0.960 . S
H24 C19 0.960 . S
H25 C19 0.959 . S
C26 N27 1.317 . S
C26 N28 1.357 . S
C26 C29 1.485 . S
N27 C26 1.317 . S
N27 N31 1.370 1_554 S
N28 C26 1.357 . S
N28 C30 1.336 1_554 S
C29 C26 1.485 . S
C29 H33 0.960 . S
C29 H34 0.961 . S
C29 H35 0.960 . S
C30 N28 1.336 1_556 S
C30 N31 1.307 . S
C30 C32 1.486 . S
N31 N27 1.370 1_556 S
N31 C30 1.307 . S
C32 C30 1.486 . S
C32 H36 0.960 . S
C32 H37 0.960 . S
C32 H38 0.959 . S
H33 C29 0.960 . S
H34 C29 0.961 . S
H35 C29 0.960 . S
H36 C32 0.960 . S
H37 C32 0.960 . S
H38 C32 0.959 . S
C39 N40 1.317 . S
C39 N41 1.348 . S
C39 C42 1.485 . S
N40 C39 1.317 . S
N40 N44 1.370 . S
N41 C39 1.348 . S
N41 C43 1.346 . S
C42 C39 1.485 . S
C42 H46 0.960 . S
C42 H47 0.961 . S
C42 H48 0.960 . S
C43 N41 1.346 . S
C43 N44 1.307 . S
C43 C45 1.486 . S
N44 N40 1.370 . S
N44 C43 1.307 . S
C45 C43 1.486 . S
C45 H49 0.960 . S
C45 H50 0.960 . S
C45 H51 0.959 . S
H46 C42 0.960 . S
H47 C42 0.961 . S
H48 C42 0.960 . S
H49 C45 0.960 . S
H50 C45 0.960 . S
H51 C45 0.959 . S
O52 Mg53 1.990 . S
O52 C66 1.253 1_455 S
Mg53 O52 1.990 . S
Mg53 O56 2.180 . S
Mg53 O57 2.117 . S
Mg53 O71 2.030 . S
O54 Mg55 2.072 1_655 S
O54 C66 1.260 . S
Mg55 O54 2.072 1_455 S
Mg55 O56 2.099 . S
Mg55 O58 2.079 1_545 S
Mg55 O59 2.072 1_455 S
Mg55 O61 2.099 1_445 S
Mg55 O72 2.079 1_545 S
O56 Mg53 2.180 . S
O56 Mg55 2.099 . S
O56 C67 1.279 . S
O57 Mg53 2.117 . S
O57 C67 1.250 . S
O58 Mg55 2.079 1_565 S
O58 C68 1.264 . S
O59 Mg55 2.072 1_655 S
O59 C69 1.260 . S
Mg60 O61 2.180 . S
Mg60 O62 2.030 1_655 S
Mg60 O63 1.990 1_565 S
Mg60 O64 2.117 . S
O61 Mg55 2.099 1_665 S
O61 Mg60 2.180 . S
O61 C70 1.279 . S
O62 Mg60 2.030 1_455 S
O62 C68 1.248 . S
O63 Mg60 1.990 1_545 S
O63 C69 1.253 . S
O64 Mg60 2.117 . S
O64 C70 1.250 . S
C65 O71 1.248 1_565 S
C65 O72 1.264 . S
C66 O52 1.253 1_655 S
C66 O54 1.260 . S
C67 O56 1.279 . S
C67 O57 1.250 . S
C68 O58 1.264 . S
C68 O62 1.248 . S
C69 O59 1.260 . S
C69 O63 1.253 . S
C70 O61 1.279 . S
C70 O64 1.250 . S
O71 Mg53 2.030 . S
O71 C65 1.248 1_545 S
O72 Mg55 2.079 1_565 S
O72 C65 1.264 . S
O73 Mg74 1.990 . S
O73 C87 1.253 . S
Mg74 O73 1.990 . S
Mg74 O77 2.180 . S
Mg74 O78 2.117 . S
Mg74 O92 2.030 . S
O75 Mg76 2.072 . S
O75 C87 1.260 . S
Mg76 O75 2.072 . S
Mg76 O77 2.099 . S
Mg76 O79 2.079 1_554 S
Mg76 O80 2.072 1_554 S
Mg76 O82 2.099 . S
Mg76 O93 2.079 . S
O77 Mg74 2.180 . S
O77 Mg76 2.099 . S
O77 C88 1.279 . S
O78 Mg74 2.117 . S
O78 C88 1.250 . S
O79 Mg76 2.079 1_556 S
O79 C89 1.264 . S
O80 Mg76 2.072 1_556 S
O80 C90 1.260 . S
Mg81 O82 2.180 1_556 S
Mg81 O83 2.030 . S
Mg81 O84 1.990 . S
Mg81 O85 2.117 . S
O82 Mg76 2.099 . S
O82 Mg81 2.180 1_554 S
O82 C91 1.279 . S
O83 Mg81 2.030 . S
O83 C89 1.248 . S
O84 Mg81 1.990 . S
O84 C90 1.253 . S
O85 Mg81 2.117 . S
O85 C91 1.250 1_556 S
C86 O92 1.248 . S
C86 O93 1.264 . S
C87 O73 1.253 . S
C87 O75 1.260 . S
C88 O77 1.279 . S
C88 O78 1.250 . S
C89 O79 1.264 . S
C89 O83 1.248 . S
C90 O80 1.260 . S
C90 O84 1.253 . S
C91 O82 1.279 . S
C91 O85 1.250 1_554 S
O92 Mg74 2.030 . S
O92 C86 1.248 . S
O93 Mg76 2.079 . S
O93 C86 1.264 . S
C94 C95 1.386 . S
C94 C96 1.383 . S
C94 H110 0.951 . S
C95 C94 1.386 . S
C95 C99 1.383 . S
C96 C94 1.383 . S
C96 C97 1.402 . S
C96 H111 0.951 . S
C97 C96 1.402 . S
C97 C98 1.375 . S
C97 C100 1.481 . S
C98 C97 1.375 . S
C98 C99 1.367 . S
C98 H112 0.951 . S
C99 C95 1.383 . S
C99 C98 1.367 . S
C99 H113 0.950 . S
C100 C97 1.481 . S
C100 C101 1.297 . S
C100 H114 0.950 . S
C101 C100 1.297 . S
C101 C102 1.479 . S
C101 H115 0.950 . S
C102 C101 1.479 . S
C102 C103 1.375 . S
C102 C108 1.404 . S
C103 C102 1.375 . S
C103 C104 1.369 . S
C103 H116 0.950 . S
C104 C103 1.369 . S
C104 C105 1.392 . S
C104 H117 0.951 . S
C105 C104 1.392 . S
C105 C107 1.384 . S
H106 C108 0.949 . S
C107 C105 1.384 . S
C107 C108 1.385 . S
C107 H109 0.950 . S
C108 C102 1.404 . S
C108 H106 0.949 . S
C108 C107 1.385 . S
H109 C107 0.950 . S
H110 C94 0.951 . S
H111 C96 0.951 . S
H112 C98 0.951 . S
H113 C99 0.950 . S
H114 C100 0.950 . S
H115 C101 0.950 . S
H116 C103 0.950 . S
H117 C104 0.951 . S
C118 C119 1.386 . S
C118 C120 1.383 . S
C118 H134 0.951 . S
C119 C118 1.386 . S
C119 C123 1.383 . S
C120 C118 1.383 . S
C120 C121 1.402 . S
C120 H135 0.951 . S
C121 C120 1.402 . S
C121 C122 1.375 . S
C121 C124 1.481 . S
C122 C121 1.375 . S
C122 C123 1.367 . S
C122 H136 0.951 . S
C123 C119 1.383 . S
C123 C122 1.367 . S
C123 H137 0.950 . S
C124 C121 1.481 . S
C124 C125 1.297 . S
C124 H138 0.950 . S
C125 C124 1.297 . S
C125 C126 1.479 . S
C125 H139 0.950 . S
C126 C125 1.479 . S
C126 C127 1.375 . S
C126 C132 1.404 . S
C127 C126 1.375 . S
C127 C128 1.369 . S
C127 H140 0.950 1_554 S
C128 C127 1.369 . S
C128 C129 1.392 . S
C128 H141 0.951 1_554 S
C129 C128 1.392 . S
C129 C131 1.384 . S
H130 C132 0.949 . S
C131 C129 1.384 . S
C131 C132 1.385 . S
C131 H133 0.950 . S
C132 C126 1.404 . S
C132 H130 0.949 . S
C132 C131 1.385 . S
H133 C131 0.950 . S
H134 C118 0.951 . S
H135 C120 0.951 . S
H136 C122 0.951 . S
H137 C123 0.950 . S
H138 C124 0.950 . S
H139 C125 0.950 . S
H140 C127 0.950 1_556 S
H141 C128 0.951 1_556 S
C142 C143 1.386 . S
C142 C144 1.383 . S
C142 H158 0.951 . S
C143 C142 1.386 . S
C143 C147 1.383 . S
C144 C142 1.383 . S
C144 C145 1.402 . S
C144 H159 0.951 . S
C145 C144 1.402 . S
C145 C146 1.375 . S
C145 C148 1.481 . S
C146 C145 1.375 . S
C146 C147 1.367 . S
C146 H160 0.951 . S
C147 C143 1.383 . S
C147 C146 1.367 . S
C147 H161 0.950 . S
C148 C145 1.481 . S
C148 C149 1.297 . S
C148 H162 0.950 . S
C149 C148 1.297 . S
C149 C150 1.479 . S
C149 H163 0.950 . S
C150 C149 1.479 . S
C150 C151 1.375 . S
C150 C156 1.404 . S
C151 C150 1.375 . S
C151 C152 1.369 . S
C151 H164 0.950 . S
C152 C151 1.369 . S
C152 C153 1.392 . S
C152 H165 0.951 . S
C153 C152 1.392 . S
C153 C155 1.384 . S
H154 C156 0.949 . S
C155 C153 1.384 . S
C155 C156 1.385 . S
C155 H157 0.950 . S
C156 C150 1.404 . S
C156 H154 0.949 . S
C156 C155 1.385 . S
H157 C155 0.950 . S
H158 C142 0.951 . S
H159 C144 0.951 . S
H160 C146 0.951 . S
H161 C147 0.950 . S
H162 C148 0.950 . S
H163 C149 0.950 . S
H164 C151 0.950 . S
H165 C152 0.951 . S
C166 C167 1.386 1_556 S
C166 C168 1.383 . S
C166 H182 0.951 . S
C167 C166 1.386 1_554 S
C167 C171 1.383 . S
C168 C166 1.383 . S
C168 C169 1.402 1_556 S
C168 H183 0.951 . S
C169 C168 1.402 1_554 S
C169 C170 1.375 . S
C169 C172 1.481 . S
C170 C169 1.375 . S
C170 C171 1.367 . S
C170 H184 0.951 . S
C171 C167 1.383 . S
C171 C170 1.367 . S
C171 H185 0.950 . S
C172 C169 1.481 . S
C172 C173 1.297 . S
C172 H186 0.950 . S
C173 C172 1.297 . S
C173 C174 1.479 . S
C173 H187 0.950 1_554 S
C174 C173 1.479 . S
C174 C175 1.375 1_554 S
C174 C180 1.404 . S
C175 C174 1.375 1_556 S
C175 C176 1.369 . S
C175 H188 0.950 . S
C176 C175 1.369 . S
C176 C177 1.392 1_556 S
C176 H189 0.951 . S
C177 C176 1.392 1_554 S
C177 C179 1.384 . S
H178 C180 0.949 . S
C179 C177 1.384 . S
C179 C180 1.385 . S
C179 H181 0.950 . S
C180 C174 1.404 . S
C180 H178 0.949 . S
C180 C179 1.385 . S
H181 C179 0.950 . S
H182 C166 0.951 . S
H183 C168 0.951 . S
H184 C170 0.951 . S
H185 C171 0.950 . S
H186 C172 0.950 . S
H187 C173 0.950 1_556 S
H188 C175 0.950 . S
H189 C176 0.951 . S
C190 C191 1.386 . S
C190 C192 1.383 . S
C190 H206 0.951 . S
C191 C190 1.386 . S
C191 C195 1.383 . S
C192 C190 1.383 . S
C192 C193 1.402 . S
C192 H207 0.951 . S
C193 C192 1.402 . S
C193 C194 1.375 . S
C193 C196 1.481 . S
C194 C193 1.375 . S
C194 C195 1.367 . S
C194 H208 0.951 . S
C195 C191 1.383 . S
C195 C194 1.367 . S
C195 H209 0.950 . S
C196 C193 1.481 . S
C196 C197 1.297 . S
C196 H210 0.950 . S
C197 C196 1.297 . S
C197 C198 1.479 . S
C197 H211 0.950 . S
C198 C197 1.479 . S
C198 C199 1.375 . S
C198 C204 1.404 . S
C199 C198 1.375 . S
C199 C200 1.369 . S
C199 H212 0.950 . S
C200 C199 1.369 . S
C200 C201 1.392 . S
C200 H213 0.951 . S
C201 C200 1.392 . S
C201 C203 1.384 . S
H202 C204 0.949 . S
C203 C201 1.384 . S
C203 C204 1.385 . S
C203 H205 0.950 . S
C204 C198 1.404 . S
C204 H202 0.949 . S
C204 C203 1.385 . S
H205 C203 0.950 . S
H206 C190 0.951 . S
H207 C192 0.951 . S
H208 C194 0.951 . S
H209 C195 0.950 . S
H210 C196 0.950 . S
H211 C197 0.950 . S
H212 C199 0.950 . S
H213 C200 0.951 . S
C214 C215 1.386 . S
C214 C216 1.383 . S
C214 H230 0.951 . S
C215 C214 1.386 . S
C215 C219 1.383 . S
C216 C214 1.383 . S
C216 C217 1.402 . S
C216 H231 0.951 . S
C217 C216 1.402 . S
C217 C218 1.375 . S
C217 C220 1.481 . S
C218 C217 1.375 . S
C218 C219 1.367 . S
C218 H232 0.951 . S
C219 C215 1.383 . S
C219 C218 1.367 . S
C219 H233 0.950 . S
C220 C217 1.481 . S
C220 C221 1.297 . S
C220 H234 0.950 . S
C221 C220 1.297 . S
C221 C222 1.479 . S
C221 H235 0.950 . S
C222 C221 1.479 . S
C222 C223 1.375 . S
C222 C228 1.404 . S
C223 C222 1.375 . S
C223 C224 1.369 . S
C223 H236 0.950 . S
C224 C223 1.369 . S
C224 C225 1.392 . S
C224 H237 0.951 . S
C225 C224 1.392 . S
C225 C227 1.384 . S
H226 C228 0.949 . S
C227 C225 1.384 . S
C227 C228 1.385 . S
C227 H229 0.950 . S
C228 C222 1.404 . S
C228 H226 0.949 . S
C228 C227 1.385 . S
H229 C227 0.950 . S
H230 C214 0.951 . S
H231 C216 0.951 . S
H232 C218 0.951 . S
H233 C219 0.950 . S
H234 C220 0.950 . S
H235 C221 0.950 . S
H236 C223 0.950 . S
H237 C224 0.951 . S
C238 C239 1.386 . S
C238 C240 1.383 . S
C238 H254 0.951 . S
C239 C238 1.386 . S
C239 C243 1.383 . S
C240 C238 1.383 . S
C240 C241 1.402 . S
C240 H255 0.951 . S
C241 C240 1.402 . S
C241 C242 1.375 . S
C241 C244 1.481 . S
C242 C241 1.375 . S
C242 C243 1.367 . S
C242 H256 0.951 . S
C243 C239 1.383 . S
C243 C242 1.367 . S
C243 H257 0.950 . S
C244 C241 1.481 . S
C244 C245 1.297 . S
C244 H258 0.950 . S
C245 C244 1.297 . S
C245 C246 1.479 . S
C245 H259 0.950 . S
C246 C245 1.479 . S
C246 C247 1.375 . S
C246 C252 1.404 . S
C247 C246 1.375 . S
C247 C248 1.369 . S
C247 H260 0.950 . S
C248 C247 1.369 . S
C248 C249 1.392 . S
C248 H261 0.951 . S
C249 C248 1.392 . S
C249 C251 1.384 . S
H250 C252 0.949 . S
C251 C249 1.384 . S
C251 C252 1.385 . S
C251 H253 0.950 1_655 S
C252 C246 1.404 . S
C252 H250 0.949 . S
C252 C251 1.385 . S
H253 C251 0.950 1_455 S
H254 C238 0.951 . S
H255 C240 0.951 . S
H256 C242 0.951 . S
H257 C243 0.950 . S
H258 C244 0.950 . S
H259 C245 0.950 . S
H260 C247 0.950 . S
H261 C248 0.951 . S
C262 C263 1.386 . S
C262 C264 1.383 . S
C262 H278 0.951 . S
C263 C262 1.386 . S
C263 C267 1.383 . S
C264 C262 1.383 . S
C264 C265 1.402 . S
C264 H279 0.951 . S
C265 C264 1.402 . S
C265 C266 1.375 . S
C265 C268 1.481 . S
C266 C265 1.375 . S
C266 C267 1.367 . S
C266 H280 0.951 . S
C267 C263 1.383 . S
C267 C266 1.367 . S
C267 H281 0.950 . S
C268 C265 1.481 . S
C268 C269 1.297 . S
C268 H282 0.950 . S
C269 C268 1.297 . S
C269 C270 1.479 . S
C269 H283 0.950 . S
C270 C269 1.479 . S
C270 C271 1.375 . S
C270 C276 1.404 . S
C271 C270 1.375 . S
C271 C272 1.369 . S
C271 H284 0.950 . S
C272 C271 1.369 . S
C272 C273 1.392 . S
C272 H285 0.951 . S
C273 C272 1.392 . S
C273 C275 1.384 . S
H274 C276 0.949 . S
C275 C273 1.384 . S
C275 C276 1.385 . S
C275 H277 0.950 . S
C276 C270 1.404 . S
C276 H274 0.949 . S
C276 C275 1.385 . S
H277 C275 0.950 . S
H278 C262 0.951 . S
H279 C264 0.951 . S
H280 C266 0.951 . S
H281 C267 0.950 . S
H282 C268 0.950 . S
H283 C269 0.950 . S
H284 C271 0.950 . S
H285 C272 0.951 . S
C286 C287 1.386 . S
C286 C288 1.383 . S
C286 H302 0.951 . S
C287 C286 1.386 . S
C287 C291 1.383 . S
C288 C286 1.383 . S
C288 C289 1.402 . S
C288 H303 0.951 . S
C289 C288 1.402 . S
C289 C290 1.375 . S
C289 C292 1.481 . S
C290 C289 1.375 . S
C290 C291 1.367 . S
C290 H304 0.951 . S
C291 C287 1.383 . S
C291 C290 1.367 . S
C291 H305 0.950 . S
C292 C289 1.481 . S
C292 C293 1.297 . S
C292 H306 0.950 . S
C293 C292 1.297 . S
C293 C294 1.479 . S
C293 H307 0.950 . S
C294 C293 1.479 . S
C294 C295 1.375 . S
C294 C300 1.404 . S
C295 C294 1.375 . S
C295 C296 1.369 . S
C295 H308 0.950 . S
C296 C295 1.369 . S
C296 C297 1.392 . S
C296 H309 0.951 . S
C297 C296 1.392 . S
C297 C299 1.384 . S
H298 C300 0.949 . S
C299 C297 1.384 . S
C299 C300 1.385 . S
C299 H301 0.950 . S
C300 C294 1.404 . S
C300 H298 0.949 . S
C300 C299 1.385 . S
H301 C299 0.950 . S
H302 C286 0.951 . S
H303 C288 0.951 . S
H304 C290 0.951 . S
H305 C291 0.950 . S
H306 C292 0.950 . S
H307 C293 0.950 . S
H308 C295 0.950 . S
H309 C296 0.951 . S
C310 C311 1.386 . S
C310 C312 1.383 . S
C310 H326 0.951 . S
C311 C310 1.386 . S
C311 C315 1.383 . S
C312 C310 1.383 . S
C312 C313 1.402 . S
C312 H327 0.951 . S
C313 C312 1.402 . S
C313 C314 1.375 . S
C313 C316 1.481 . S
C314 C313 1.375 . S
C314 C315 1.367 . S
C314 H328 0.951 . S
C315 C311 1.383 . S
C315 C314 1.367 . S
C315 H329 0.950 . S
C316 C313 1.481 . S
C316 C317 1.297 . S
C316 H330 0.950 . S
C317 C316 1.297 . S
C317 C318 1.479 . S
C317 H331 0.950 . S
C318 C317 1.479 . S
C318 C319 1.375 . S
C318 C324 1.404 . S
C319 C318 1.375 . S
C319 C320 1.369 . S
C319 H332 0.950 . S
C320 C319 1.369 . S
C320 C321 1.392 . S
C320 H333 0.951 . S
C321 C320 1.392 . S
C321 C323 1.384 . S
H322 C324 0.949 . S
C323 C321 1.384 . S
C323 C324 1.385 . S
C323 H325 0.950 . S
C324 C318 1.404 . S
C324 H322 0.949 . S
C324 C323 1.385 . S
H325 C323 0.950 . S
H326 C310 0.951 . S
H327 C312 0.951 . S
H328 C314 0.951 . S
H329 C315 0.950 . S
H330 C316 0.950 . S
H331 C317 0.950 . S
H332 C319 0.950 . S
H333 C320 0.951 . S
C334 C335 1.386 . S
C334 C336 1.383 . S
C334 H350 0.951 . S
C335 C334 1.386 . S
C335 C339 1.383 . S
C336 C334 1.383 . S
C336 C337 1.402 . S
C336 H351 0.951 . S
C337 C336 1.402 . S
C337 C338 1.375 . S
C337 C340 1.481 . S
C338 C337 1.375 . S
C338 C339 1.367 . S
C338 H352 0.951 . S
C339 C335 1.383 . S
C339 C338 1.367 . S
C339 H353 0.950 . S
C340 C337 1.481 . S
C340 C341 1.297 . S
C340 H354 0.950 . S
C341 C340 1.297 . S
C341 C342 1.479 . S
C341 H355 0.950 . S
C342 C341 1.479 . S
C342 C343 1.375 . S
C342 C348 1.404 . S
C343 C342 1.375 . S
C343 C344 1.369 . S
C343 H356 0.950 . S
C344 C343 1.369 . S
C344 C345 1.392 . S
C344 H357 0.951 . S
C345 C344 1.392 . S
C345 C347 1.384 . S
H346 C348 0.949 . S
C347 C345 1.384 . S
C347 C348 1.385 . S
C347 H349 0.950 . S
C348 C342 1.404 . S
C348 H346 0.949 . S
C348 C347 1.385 . S
H349 C347 0.950 . S
H350 C334 0.951 . S
H351 C336 0.951 . S
H352 C338 0.951 . S
H353 C339 0.950 . S
H354 C340 0.950 . S
H355 C341 0.950 . S
H356 C343 0.950 . S
H357 C344 0.951 . S
C358 C359 1.386 . S
C358 C360 1.383 1_554 S
C358 H374 0.951 . S
C359 C358 1.386 . S
C359 C363 1.383 1_554 S
C360 C358 1.383 1_556 S
C360 C361 1.402 . S
C360 H375 0.951 . S
C361 C360 1.402 . S
C361 C362 1.375 . S
C361 C364 1.481 . S
C362 C361 1.375 . S
C362 C363 1.367 . S
C362 H376 0.951 . S
C363 C359 1.383 1_556 S
C363 C362 1.367 . S
C363 H377 0.950 . S
C364 C361 1.481 . S
C364 C365 1.297 . S
C364 H378 0.950 . S
C365 C364 1.297 . S
C365 C366 1.479 . S
C365 H379 0.950 . S
C366 C365 1.479 . S
C366 C367 1.375 . S
C366 C372 1.404 . S
C367 C366 1.375 . S
C367 C368 1.369 . S
C367 H380 0.950 . S
C368 C367 1.369 . S
C368 C369 1.392 . S
C368 H381 0.951 . S
C369 C368 1.392 . S
C369 C371 1.384 . S
H370 C372 0.949 . S
C371 C369 1.384 . S
C371 C372 1.385 . S
C371 H373 0.950 . S
C372 C366 1.404 . S
C372 H370 0.949 . S
C372 C371 1.385 . S
H373 C371 0.950 . S
H374 C358 0.951 . S
H375 C360 0.951 . S
H376 C362 0.951 . S
H377 C363 0.950 . S
H378 C364 0.950 . S
H379 C365 0.950 . S
H380 C367 0.950 . S
H381 C368 0.951 . S
C105 C67 1.301 . S
C95 N41 1.463 . S
C119 N2 1.467 . S
C129 C91 1.190 . S
C143 N15 1.617 . S
C153 C70 1.346 . S
C167 N28 1.616 . S
C177 C88 1.383 . S
C201 C68 1.472 . S
C191 N5 1.499 . S
C225 C90 1.487 . S
C215 N14 1.590 . S
C239 N27 1.560 . S
C249 C69 1.473 . S
C263 N44 1.481 . S
C273 C89 1.385 . S
C297 C87 1.509 . S
C287 N18 1.556 . S
C321 C66 1.549 . S
C311 N31 1.579 . S
C345 C86 1.467 . S
C335 N40 1.496 . S
C359 N1 1.472 . S
C369 C65 1.389 . S
