# Generated by pormake.
# Topology zzz, (3,6)-cn, num edge types: 1
# Building blocks:
#     Node 0, Type 0, BuildingBlock: BETDAH_clean_linker_0, # of connection points: 3
#     Node 1, Type 0, BuildingBlock: BETDAH_clean_linker_0, # of connection points: 3
#     Node 2, Type 0, BuildingBlock: BETDAH_clean_linker_0, # of connection points: 3
#     Node 3, Type 0, BuildingBlock: BETDAH_clean_linker_0, # of connection points: 3
#     Node 4, Type 0, BuildingBlock: BETDAH_clean_linker_0, # of connection points: 3
#     Node 5, Type 0, BuildingBlock: BETDAH_clean_linker_0, # of connection points: 3
#     Node 6, Type 0, BuildingBlock: BETDAH_clean_linker_0, # of connection points: 3
#     Node 7, Type 0, BuildingBlock: BETDAH_clean_linker_0, # of connection points: 3
#     Node 8, Type 1, BuildingBlock: PAMTUU_clean_sbu_0, # of connection points: 6
#     Node 9, Type 1, BuildingBlock: PAMTUU_clean_sbu_0, # of connection points: 6
#     Node 10, Type 1, BuildingBlock: PAMTUU_clean_sbu_0, # of connection points: 6
#     Node 11, Type 1, BuildingBlock: PAMTUU_clean_sbu_0, # of connection points: 6
#     Edge 12, Type (0, 1), BuildingBlock: CIFDUS_clean_linker_0, # of connection points: 2
#     Edge 13, Type (0, 1), BuildingBlock: CIFDUS_clean_linker_0, # of connection points: 2
#     Edge 14, Type (0, 1), BuildingBlock: CIFDUS_clean_linker_0, # of connection points: 2
#     Edge 15, Type (0, 1), BuildingBlock: CIFDUS_clean_linker_0, # of connection points: 2
#     Edge 16, Type (0, 1), BuildingBlock: CIFDUS_clean_linker_0, # of connection points: 2
#     Edge 17, Type (0, 1), BuildingBlock: CIFDUS_clean_linker_0, # of connection points: 2
#     Edge 18, Type (0, 1), BuildingBlock: CIFDUS_clean_linker_0, # of connection points: 2
#     Edge 19, Type (0, 1), BuildingBlock: CIFDUS_clean_linker_0, # of connection points: 2
#     Edge 20, Type (0, 1), BuildingBlock: CIFDUS_clean_linker_0, # of connection points: 2
#     Edge 21, Type (0, 1), BuildingBlock: CIFDUS_clean_linker_0, # of connection points: 2
#     Edge 22, Type (0, 1), BuildingBlock: CIFDUS_clean_linker_0, # of connection points: 2
#     Edge 23, Type (0, 1), BuildingBlock: CIFDUS_clean_linker_0, # of connection points: 2
#     Edge 24, Type (0, 1), BuildingBlock: CIFDUS_clean_linker_0, # of connection points: 2
#     Edge 25, Type (0, 1), BuildingBlock: CIFDUS_clean_linker_0, # of connection points: 2
#     Edge 26, Type (0, 1), BuildingBlock: CIFDUS_clean_linker_0, # of connection points: 2
#     Edge 27, Type (0, 1), BuildingBlock: CIFDUS_clean_linker_0, # of connection points: 2
#     Edge 28, Type (0, 1), BuildingBlock: CIFDUS_clean_linker_0, # of connection points: 2
#     Edge 29, Type (0, 1), BuildingBlock: CIFDUS_clean_linker_0, # of connection points: 2
#     Edge 30, Type (0, 1), BuildingBlock: CIFDUS_clean_linker_0, # of connection points: 2
#     Edge 31, Type (0, 1), BuildingBlock: CIFDUS_clean_linker_0, # of connection points: 2
#     Edge 32, Type (0, 1), BuildingBlock: CIFDUS_clean_linker_0, # of connection points: 2
#     Edge 33, Type (0, 1), BuildingBlock: CIFDUS_clean_linker_0, # of connection points: 2
#     Edge 34, Type (0, 1), BuildingBlock: CIFDUS_clean_linker_0, # of connection points: 2
#     Edge 35, Type (0, 1), BuildingBlock: CIFDUS_clean_linker_0, # of connection points: 2
# Relax obj value: 0.239
# Max RMSD: 0.236
# Mean RMSD: 0.119
data_MOF--net-zzz--node1-PAMTUU_clean_sbu_0--node2-BETDAH_clean_linker_0--edge1-CIFDUS_clean_linker_0
_symmetry_space_group_name_H-M    P1
_symmetry_Int_Tables_number       1
_symmetry_cell_setting            triclinic
loop_
_symmetry_equiv_pos_as_xyz
'x, y, z'
_cell_length_a     44.013477
_cell_length_b     48.092514
_cell_length_c     14.106915
_cell_angle_alpha  102.34094
_cell_angle_beta   89.774898
_cell_angle_gamma 90.655236
loop_
_atom_site_label
_atom_site_type_symbol
_atom_site_fract_x
_atom_site_fract_y
_atom_site_fract_z
_atom_type_partial_charge
H0 H 0.83121 0.5533 0.48773 0.0
H1 H 0.73925 0.54499 0.38609 0.0
H2 H 0.77226 0.49066 0.5688 0.0
C3 C 0.80865 0.54441 0.49035 0.0
C4 C 0.80449 0.523 0.54343 0.0
C5 C 0.78557 0.5522 0.43206 0.0
C6 C 0.75716 0.53876 0.42937 0.0
C7 C 0.75242 0.51574 0.47423 0.0
C8 C 0.776 0.50821 0.5331 0.0
N9 N 0.72486 0.49921 0.45588 0.0
C10 C 0.70407 0.50098 0.38137 0.0
H11 H 1.0125 0.82164 0.36391 0.0
H12 H 0.03096 0.73247 0.29236 0.0
H13 H 0.97814 0.76795 0.54814 0.0
C14 C 1.00923 0.80059 0.37902 0.0
C15 C 0.99309 0.79755 0.46165 0.0
C16 C 1.02311 0.77734 0.31902 0.0
C17 C 1.01994 0.75028 0.33932 0.0
C18 C 1.00297 0.74661 0.42117 0.0
C19 C 0.99028 0.77049 0.4835 0.0
N20 N 0.99864 0.71932 0.44279 0.0
C21 C 1.00541 0.69432 0.37667 0.0
H22 H 0.73853 0.9512 0.43782 0.0
H23 H 0.8282 0.96588 0.33534 0.0
H24 H 0.79098 0.02301 0.58543 0.0
C25 C 0.75952 0.96333 0.44513 0.0
C26 C 0.76147 0.98746 0.52113 0.0
C27 C 0.78265 0.95608 0.37459 0.0
C28 C 0.81001 0.97172 0.3873 0.0
C29 C 0.81324 0.9962 0.46117 0.0
C30 C 0.78892 0.00387 0.52915 0.0
N31 N 0.83978 0.01413 0.46406 0.0
C32 C 0.86318 0.01084 0.39336 0.0
H33 H 0.53853 0.6864 0.18597 0.0
H34 H 0.54047 0.75028 0.01325 0.0
H35 H 0.5862 0.76482 0.29048 0.0
C36 C 0.54436 0.70777 0.17791 0.0
C37 C 0.56225 0.72474 0.24922 0.0
C38 C 0.5365 0.71633 0.09237 0.0
C39 C 0.54578 0.74364 0.07991 0.0
C40 C 0.56308 0.76172 0.15324 0.0
C41 C 0.57186 0.75164 0.23617 0.0
N42 N 0.57404 0.78924 0.14516 0.0
C43 C 0.56422 0.80669 0.08364 0.0
H44 H 0.22174 0.44709 0.1934 0.0
H45 H 0.31011 0.45752 0.32535 0.0
H46 H 0.27991 0.51516 0.14944 0.0
C47 C 0.24356 0.45785 0.20434 0.0
C48 C 0.2478 0.48163 0.16316 0.0
C49 C 0.26517 0.44963 0.26641 0.0
C50 C 0.29328 0.46397 0.27894 0.0
C51 C 0.299 0.4877 0.23785 0.0
C52 C 0.27612 0.4964 0.17901 0.0
N53 N 0.32664 0.50394 0.25993 0.0
C54 C 0.34823 0.50013 0.32973 0.0
H55 H 1.02487 0.19023 0.21336 0.0
H56 H 0.03601 0.27594 0.37721 0.0
H57 H 0.0744 0.25089 0.08928 0.0
C58 C 0.03293 0.21194 0.21864 0.0
C59 C 0.04975 0.21836 0.14204 0.0
C60 C 1.02769 0.23246 0.30346 0.0
C61 C 0.03948 0.26014 0.31093 0.0
C62 C 0.05604 0.26699 0.23253 0.0
C63 C 0.06118 0.2459 0.14859 0.0
N64 N 0.06848 0.29453 0.23607 0.0
C65 C 0.062 0.31823 0.30814 0.0
H66 H 0.34245 0.04701 0.33905 0.0
H67 H 0.24803 0.03909 0.39837 0.0
H68 H 0.28156 0.00986 0.10641 0.0
C69 C 0.31968 0.04213 0.31105 0.0
C70 C 0.31565 0.02997 0.21188 0.0
C71 C 0.29545 0.04495 0.37747 0.0
C72 C 0.26617 0.03697 0.34526 0.0
C73 C 0.26068 0.02373 0.24866 0.0
C74 C 0.28558 0.02028 0.1813 0.0
N75 N 0.23082 0.01248 0.22104 0.0
C76 C 0.20614 0.01308 0.28631 0.0
H77 H 0.51131 0.31826 0.50983 0.0
H78 H 0.5203 0.25115 0.66735 0.0
H79 H 0.47585 0.23541 0.38726 0.0
C80 C 0.50825 0.29613 0.51429 0.0
C81 C 0.49305 0.27799 0.43922 0.0
C82 C 0.51842 0.28699 0.59639 0.0
C83 C 0.5129 0.2584 0.60374 0.0
C84 C 0.49783 0.2394 0.52683 0.0
C85 C 0.48775 0.24964 0.44561 0.0
N86 N 0.49212 0.20999 0.52565 0.0
C87 C 0.49839 0.19408 0.59555 0.0
Tb88 Tb 1.00888 0.01534 0.75443 0.0
Tb89 Tb 0.05662 0.9953 0.90242 0.0
C90 C 0.98729 0.00647 0.96237 0.0
C91 C 0.97191 0.06119 0.61323 0.0
C92 C 0.97121 0.11404 0.5566 0.0
C93 C 0.94402 0.09873 0.56233 0.0
C94 C 0.9444 0.07252 0.59027 0.0
C95 C 0.99903 0.0765 0.60926 0.0
C96 C 0.99872 0.10255 0.58064 0.0
C97 C 0.972 0.03459 0.6485 0.0
O98 O 1.02572 0.05393 0.84982 0.0
O99 O 0.0701 0.03888 0.90691 0.0
O100 O 0.07878 0.98855 0.75925 0.0
O101 O 0.05358 0.02008 0.68856 0.0
O102 O 0.07465 0.99501 0.04043 0.0
O103 O 0.09369 0.96903 0.91091 0.0
O104 O 1.0261 0.95964 0.85529 0.0
O105 O 1.01012 0.969 0.711 0.0
O106 O 0.98094 0.00348 0.86938 0.0
O107 O 1.01582 0.00865 0.99219 0.0
C108 C 0.05244 0.05918 0.89124 0.0
O109 O 0.99331 0.01649 0.61456 0.0
O110 O 0.96912 0.03793 0.74207 0.0
C111 C 0.07738 0.00404 0.69277 0.0
C112 C 0.08695 0.94721 0.0404 0.0
C113 C 0.07359 0.89139 0.06085 0.0
C114 C 0.10357 0.89935 0.04317 0.0
C115 C 0.11017 0.92708 0.03261 0.0
C116 C 0.05731 0.93961 0.06251 0.0
C117 C 0.05075 0.91207 0.07316 0.0
C118 C 0.09203 0.97344 0.00491 0.0
C119 C 1.01409 0.9513 0.76915 0.0
H120 H 0.92239 0.10703 0.54555 0.0
H121 H 0.92319 0.06121 0.59474 0.0
H122 H 1.02047 0.06831 0.6283 0.0
H123 H 1.02019 0.11334 0.57534 0.0
H124 H 0.12164 0.8839 0.03372 0.0
H125 H 0.13305 0.93239 0.01344 0.0
H126 H 0.03885 0.95456 0.06703 0.0
H127 H 1.02758 0.90685 0.08947 0.0
Tb128 Tb 0.52207 0.99094 0.78979 0.0
Tb129 Tb 0.55763 0.02481 0.97373 0.0
C130 C 0.55204 0.9575 0.92871 0.0
C131 C 0.45287 0.97345 0.67272 0.0
C132 C 0.39143 0.98797 0.70083 0.0
C133 C 0.40001 0.9634 0.63204 0.0
C134 C 0.43065 0.95599 0.61885 0.0
C135 C 0.44412 0.99714 0.74366 0.0
C136 C 0.41376 0.00386 0.75958 0.0
C137 C 0.48522 0.96682 0.66344 0.0
O138 O 0.49061 0.99607 0.91404 0.0
O139 O 0.50977 0.03731 0.00269 0.0
O140 O 0.55412 0.05643 0.88577 0.0
O141 O 0.51389 0.03645 0.79266 0.0
O142 O 0.56364 0.02988 0.1244 0.0
O143 O 0.59085 0.05396 0.04266 0.0
O144 O 0.59425 0.00639 0.87215 0.0
O145 O 0.56751 0.99568 0.72956 0.0
O146 O 0.54735 0.95738 0.83692 0.0
O147 O 0.55055 0.98141 0.99368 0.0
C148 C 0.48661 0.01953 0.97976 0.0
O149 O 0.50279 0.98787 0.65163 0.0
O150 O 0.49527 0.95497 0.73166 0.0
C151 C 0.53258 0.05811 0.82352 0.0
C152 C 0.61617 0.02694 0.13838 0.0
C153 C 0.65577 0.98139 0.14173 0.0
C154 C 0.63624 0.99167 0.22071 0.0
C155 C 0.61641 0.01402 0.21853 0.0
C156 C 0.63713 0.01797 0.06287 0.0
C157 C 0.65614 0.99512 0.06338 0.0
C158 C 0.58942 0.04311 0.11977 0.0
C159 C 0.59369 0.99999 0.77632 0.0
H160 H 0.38333 0.95093 0.58433 0.0
H161 H 0.43701 0.93733 0.56499 0.0
H162 H 0.46085 0.01106 0.78554 0.0
H163 H 0.40794 0.0227 0.81349 0.0
H164 H 0.63605 0.98237 0.28417 0.0
H165 H 0.60023 0.02025 0.2771 0.0
H166 H 0.63764 0.02744 -7e-05 0.0
H167 H 0.67064 0.98793 0.00101 0.0
Tb168 Tb 0.5022 0.49256 0.91544 0.0
Tb169 Tb 0.55634 0.51087 0.77649 0.0
C170 C 0.48746 0.5024 0.70403 0.0
C171 C 0.46796 0.4475 0.06728 0.0
C172 C 0.4771 0.39728 0.13843 0.0
C173 C 0.44927 0.40201 0.09578 0.0
C174 C 0.44479 0.42684 0.06058 0.0
C175 C 0.49548 0.44319 0.11177 0.0
C176 C 0.49989 0.41855 0.14754 0.0
C177 C 0.46467 0.47139 0.01704 0.0
O178 O 0.53203 0.45636 0.87617 0.0
O179 O 0.55361 0.46437 0.73619 0.0
O180 O 0.5808 0.50069 0.90065 0.0
O181 O 0.54133 0.50685 0.01027 0.0
O182 O 0.57602 0.5085 0.63881 0.0
O183 O 0.5944 0.53695 0.76483 0.0
O184 O 0.53934 0.54975 0.86691 0.0
O185 O 0.49218 0.5371 0.91635 0.0
O186 O 0.48118 0.48808 0.77165 0.0
O187 O 0.51345 0.51627 0.70413 0.0
C188 C 0.54592 0.4471 0.79348 0.0
O189 O 0.48041 0.49461 0.05019 0.0
O190 O 0.46624 0.46401 0.92289 0.0
C191 C 0.57066 0.50418 0.99069 0.0
C192 C 0.59063 0.55516 0.6223 0.0
C193 C 0.58107 0.60506 0.54923 0.0
C194 C 0.60664 0.60286 0.60668 0.0
C195 C 0.6113 0.57819 0.64304 0.0
C196 C 0.56572 0.55701 0.56193 0.0
C197 C 0.56106 0.58154 0.52585 0.0
C198 C 0.59358 0.53059 0.67032 0.0
C199 C 0.51195 0.55644 0.90053 0.0
H200 H 0.43128 0.38613 0.08659 0.0
H201 H 0.42354 0.42947 0.02515 0.0
H202 H 0.51393 0.45854 0.11685 0.0
H203 H 0.52138 0.41611 0.18179 0.0
H204 H 0.62248 0.62054 0.62626 0.0
H205 H 0.63063 0.57743 0.68967 0.0
H206 H 0.54933 0.53975 0.5441 0.0
H207 H 0.54149 0.58215 0.48008 0.0
Tb208 Tb 0.04133 0.51747 0.785 0.0
Tb209 Tb 1.00895 0.4841 0.93012 0.0
C210 C 1.01359 0.55055 0.9787 0.0
C211 C 0.08867 0.51693 0.58417 0.0
C212 C 0.13097 0.47473 0.505 0.0
C213 C 0.14059 0.50294 0.54368 0.0
C214 C 0.11964 0.52378 0.58351 0.0
C215 C 0.07882 0.48946 0.53734 0.0
C216 C 0.09976 0.46851 0.49886 0.0
C217 C 0.06831 0.53521 0.65324 0.0
O218 O 0.07956 0.50007 0.85364 0.0
O219 O 0.05456 0.49456 0.99061 0.0
O220 O 0.03494 0.45139 0.83701 0.0
O221 O 0.0332 0.4735 0.71002 0.0
O222 O 1.00177 0.48044 0.07404 0.0
O223 O 0.97795 0.45285 0.9561 0.0
O224 O 0.97507 0.48692 0.8172 0.0
O225 O 0.99295 0.52786 0.78017 0.0
O226 O 0.03637 0.54977 0.91789 0.0
O227 O 0.99597 0.52829 0.97618 0.0
C228 C 0.08017 0.49685 0.94398 0.0
O229 O 0.03967 0.52786 0.64776 0.0
O230 O 0.07783 0.54075 0.74281 0.0
C231 C 0.03738 0.45054 0.74418 0.0
C232 C 0.94939 0.47974 0.08476 0.0
C233 C 0.9103 0.52588 0.14953 0.0
C234 C 0.9273 0.51442 0.21627 0.0
C235 C 0.94676 0.49163 0.18409 0.0
C236 C 0.93063 0.48978 0.01894 0.0
C237 C 0.91158 0.51279 0.0508 0.0
C238 C 0.97747 0.46497 0.04833 0.0
C239 C 0.97047 0.50958 0.78102 0.0
H240 H 0.16444 0.50881 0.54559 0.0
H241 H 0.12781 0.54473 0.6192 0.0
H242 H 0.05503 0.48353 0.53589 0.0
H243 H 0.09153 0.44718 0.46837 0.0
H244 H 0.9259 0.5233 0.29345 0.0
H245 H 0.96131 0.48463 0.23602 0.0
H246 H 0.93218 0.48128 0.94164 0.0
H247 H 0.8986 0.52086 0.99759 0.0
H248 H 0.19955 0.98663 0.43869 0.0
H249 H 0.15365 0.04198 0.28464 0.0
H250 H 0.10986 0.04435 0.3944 0.0
H251 H 0.08417 0.03077 0.53639 0.0
H252 H 0.1306 0.97486 0.68844 0.0
H253 H 0.1738 0.97272 0.57888 0.0
C254 C 0.17993 0.99918 0.42915 0.0
C255 C 0.18 0.01414 0.35315 0.0
C256 C 0.1546 1.00038 0.49292 0.0
C257 C 0.15432 0.03029 0.34225 0.0
C258 C 0.12918 0.03163 0.40528 0.0
C259 C 0.10368 0.01806 0.54568 0.0
C260 C 0.1036 0.00299 0.6219 0.0
C261 C 0.12895 0.01679 0.48126 0.0
C262 C 0.12947 0.98672 0.63138 0.0
C263 C 0.15446 0.98546 0.56833 0.0
H264 H 0.54666 0.17557 0.6859 0.0
H265 H 0.45252 0.15836 0.61194 0.0
H266 H 0.45414 0.11455 0.67391 0.0
H267 H 0.48301 0.07972 0.74413 0.0
H268 H 0.57688 0.09801 0.82276 0.0
H269 H 0.5747 0.14215 0.76461 0.0
C270 C 0.52643 0.16244 0.68506 0.0
C271 C 0.49939 0.17037 0.64544 0.0
C272 C 0.52755 0.13708 0.72091 0.0
C273 C 0.47349 0.1529 0.64331 0.0
C274 C 0.47446 0.1277 0.67816 0.0
C275 C 0.50296 0.09337 0.74858 0.0
C276 C 0.5301 0.08524 0.78777 0.0
C277 C 0.50148 0.11929 0.71615 0.0
C278 C 0.5556 0.10353 0.79348 0.0
C279 C 0.55443 0.12892 0.76002 0.0
H280 H 0.40613 0.52107 0.34821 0.0
H281 H 0.34107 0.47316 0.47893 0.0
H282 H 0.37798 0.46903 0.605 0.0
H283 H 0.429 0.47961 0.68045 0.0
H284 H 0.49361 0.52827 0.54954 0.0
H285 H 0.45711 0.53142 0.42296 0.0
C286 C 0.4001 0.50966 0.40423 0.0
C287 C 0.37083 0.49735 0.40377 0.0
C288 C 0.42154 0.50752 0.47723 0.0
C289 C 0.3634 0.48273 0.47712 0.0
C290 C 0.38457 0.48042 0.54952 0.0
C291 C 0.4352 0.49087 0.62425 0.0
C292 C 0.46443 0.50364 0.62578 0.0
C293 C 0.41377 0.49279 0.55075 0.0
C294 C 0.47159 0.51815 0.55149 0.0
C295 C 0.45058 0.52001 0.47847 0.0
H296 H 0.06668 0.32703 0.50217 0.0
H297 H 0.04348 0.36704 0.26694 0.0
H298 H 0.03364 0.41191 0.3821 0.0
H299 H 0.03146 0.43934 0.54871 0.0
H300 H 0.05536 0.40012 0.7858 0.0
H301 H 0.06474 0.35512 0.67114 0.0
C302 C 0.05938 0.34566 0.47686 0.0
C303 C 0.05565 0.34412 0.37724 0.0
C304 C 0.05386 0.37132 0.54351 0.0
C305 C 0.04632 0.36806 0.3439 0.0
C306 C 0.04075 0.3936 0.40951 0.0
C307 C 0.03904 0.4211 0.57551 0.0
C308 C 0.04298 0.4232 0.67563 0.0
C309 C 0.04449 0.39547 0.50938 0.0
C310 C 0.05216 0.39908 0.70904 0.0
C311 C 0.05758 0.37336 0.64354 0.0
H312 H 0.86217 0.00374 0.19548 0.0
H313 H 0.92303 0.01591 0.43932 0.0
H314 H 0.96677 0.01573 0.33071 0.0
H315 H 0.98825 0.01232 0.16418 0.0
H316 H 0.92653 1.00054 0.92146 0.0
H317 H 0.88351 1.0003 0.03013 0.0
C318 C 0.88503 0.00624 0.22472 0.0
C319 C 0.88918 0.00972 0.32584 0.0
C320 C 0.91029 0.0062 0.16126 0.0
C321 C 0.91905 0.01307 0.36207 0.0
C322 C 0.94417 0.013 0.29966 0.0
C323 C 0.96543 0.0097 0.13481 0.0
C324 C 0.96119 0.00647 0.03328 0.0
C325 C 0.94019 0.00963 0.19874 0.0
C326 C 0.93107 0.00311 0.99825 0.0
C327 C 0.90616 0.00295 0.0608 0.0
H328 H 0.58272 0.86015 0.15317 0.0
H329 H 0.5356 0.80772 0.91189 0.0
H330 H 0.52884 0.84937 0.8385 0.0
H331 H 0.53563 0.90162 0.84561 0.0
H332 H 0.58237 0.95303 0.09133 0.0
H333 H 0.59023 0.91121 0.15913 0.0
C334 C 0.57094 0.85788 0.08446 0.0
C335 C 0.55952 0.83097 0.0382 0.0
C336 C 0.56718 0.8819 0.04319 0.0
C337 C 0.54445 0.82825 0.9491 0.0
C338 C 0.54066 0.8521 0.90715 0.0
C339 C 0.54776 0.90357 0.91348 0.0
C340 C 0.55828 0.93069 0.96315 0.0
C341 C 0.55187 0.87916 0.95363 0.0
C342 C 0.57376 0.93268 0.05156 0.0
C343 C 0.5783 0.90868 0.09069 0.0
H344 H 0.64242 0.50687 0.38651 0.0
H345 H 0.71934 0.49728 0.19328 0.0
H346 H 0.68561 0.49759 0.05529 0.0
H347 H 0.6337 0.49994 0.98799 0.0
H348 H 0.55696 0.50973 0.18342 0.0
H349 H 0.59075 0.51008 0.31994 0.0
C350 C 0.65176 0.5049 0.31414 0.0
C351 C 0.68343 0.50196 0.30027 0.0
C352 C 0.63208 0.50511 0.2347 0.0
C353 C 0.69511 0.4995 0.20602 0.0
C354 C 0.67575 0.49967 0.12693 0.0
C355 C 0.6243 0.50219 0.06033 0.0
C356 C 0.59245 0.50479 0.07389 0.0
C357 C 0.6441 0.50235 0.14 0.0
C358 C 0.58112 0.50769 0.16923 0.0
C359 C 0.60054 0.50787 0.24811 0.0
H360 H 0.96725 0.65106 0.30987 0.0
H361 H 0.05781 0.68267 0.27807 0.0
H362 H 0.06827 0.64123 0.14743 0.0
H363 H 0.0515 0.59576 0.04344 0.0
H364 H 0.96092 0.56398 0.07881 0.0
H365 H 0.95047 0.60578 0.20579 0.0
C366 C 0.98927 0.64865 0.27428 0.0
C367 C 1.01186 0.66944 0.30283 0.0
C368 C 0.995 0.62488 0.19964 0.0
C369 C 0.04025 0.66658 0.25678 0.0
C370 C 0.04616 0.64301 0.18216 0.0
C371 C 0.02942 0.59811 0.07846 0.0
C372 C 1.00705 0.57682 0.05146 0.0
C373 C 1.02367 0.62202 0.15288 0.0
C374 C 0.97861 0.58001 0.09829 0.0
C375 C 0.97259 0.60388 0.17117 0.0
H376 H 0.97392 0.20489 0.29851 0.0
H377 H 0.0487 0.23689 0.48809 0.0
H378 H 0.03405 0.20523 0.59588 0.0
H379 H 1.00661 0.16186 0.616 0.0
H380 H 0.93625 0.12636 0.41142 0.0
H381 H 0.94218 0.16599 0.33093 0.0
C382 C 0.98633 0.20557 0.36534 0.0
C383 C 1.01254 0.22282 0.3849 0.0
C384 C 0.97899 0.18608 0.42298 0.0
C385 C 1.02839 0.22382 0.47174 0.0
C386 C 1.02031 0.20535 0.53238 0.0
C387 C 0.99242 0.16288 0.5542 0.0
C388 C 0.9714 0.14074 0.51898 0.0
C389 C 0.99679 0.18522 0.50538 0.0
C390 C 0.95256 0.14297 0.44067 0.0
C391 C 0.95607 0.1656 0.3939 0.0
H392 H 0.27817 0.0097 0.49123 0.0
H393 H 0.32912 0.08697 0.49381 0.0
H394 H 0.35843 0.07947 0.63272 0.0
H395 H 0.38025 0.04313 0.70525 0.0
H396 H 0.33534 0.96155 0.67841 0.0
H397 H 0.29229 0.9787 0.59904 0.0
C398 C 0.29464 0.02565 0.52541 0.0
C399 C 0.30231 0.04839 0.48137 0.0
C400 C 0.313 0.01982 0.59901 0.0
C401 C 0.32342 0.06905 0.52605 0.0
C402 C 0.34031 0.06456 0.60462 0.0
C403 C 0.36047 0.02944 0.68658 0.0
C404 C 0.36137 1.00074 0.69408 0.0
C405 C 0.33711 0.03873 0.63497 0.0
C406 C 0.33544 0.98345 0.67031 0.0
C407 C 0.31095 0.99323 0.62464 0.0
H408 H 0.5669 0.32021 0.57809 0.0
H409 H 0.49884 0.30606 0.78317 0.0
H410 H 0.50511 0.35535 0.87339 0.0
H411 H 0.52115 0.40449 0.87054 0.0
H412 H 0.58333 0.41945 0.64866 0.0
H413 H 0.58762 0.36815 0.58684 0.0
C414 C 0.55442 0.32764 0.64507 0.0
C415 C 0.53227 0.30955 0.67352 0.0
C416 C 0.55605 0.35661 0.69064 0.0
C417 C 0.51615 0.31939 0.76005 0.0
C418 C 0.51923 0.34782 0.81018 0.0
C419 C 0.53609 0.39659 0.80967 0.0
C420 C 0.55161 0.41597 0.76344 0.0
C421 C 0.53764 0.36701 0.77237 0.0
C422 C 0.57083 0.40517 0.6848 0.0
C423 C 0.57338 0.37579 0.64966 0.0
H424 H 0.22481 0.40407 0.23828 0.0
H425 H 0.28151 0.45423 0.45951 0.0
H426 H 0.24003 0.45884 0.57457 0.0
H427 H 0.18525 0.46753 0.58645 0.0
H428 H 0.12747 0.4309 0.34425 0.0
H429 H 0.16991 0.40348 0.26341 0.0
C430 C 0.22822 0.41534 0.31282 0.0
C431 C 0.25465 0.43212 0.33639 0.0
C432 C 0.20281 0.42213 0.37317 0.0
C433 C 0.26041 0.44324 0.43559 0.0
C434 C 0.23631 0.44655 0.50158 0.0
C435 C 0.18185 0.4532 0.5166 0.0
C436 C 0.15369 0.45236 0.4693 0.0
C437 C 0.20683 0.43939 0.46691 0.0
C438 C 0.1491 0.43252 0.38143 0.0
C439 C 0.17345 0.41683 0.33486 0.0
H440 H 1.005 0.78629 0.14699 0.0
H441 H 0.08403 0.78471 0.32406 0.0
H442 H 0.11038 0.81813 0.24274 0.0
H443 H 0.10489 0.85676 0.15459 0.0
H444 H 1.02453 0.85965 0.98283 0.0
H445 H 1.00469 0.81677 0.0281 0.0
C446 C 1.02861 0.79207 0.16344 0.0
C447 C 0.04265 0.78335 0.24103 0.0
C448 C 0.04285 0.81242 0.12012 0.0
C449 C 0.07303 0.79109 0.26359 0.0
C450 C 0.08782 0.81064 0.21847 0.0
C451 C 0.08354 0.84746 0.12446 0.0
C452 C 0.06566 0.86191 0.06854 0.0
C453 C 0.07208 0.82294 0.15173 0.0
C454 C 0.03816 0.84946 0.02915 0.0
C455 C 1.02688 0.82485 0.05447 0.0
H456 H 0.74234 0.91014 0.32504 0.0
H457 H 0.80502 0.95958 0.19177 0.0
H458 H 0.76704 0.96534 0.07527 0.0
H459 H 0.71334 0.97622 0.06936 0.0
H460 H 0.64785 0.93418 0.22139 0.0
H461 H 0.68863 0.90764 0.27696 0.0
C462 C 0.74786 0.92158 0.26865 0.0
C463 C 0.77461 0.9383 0.27689 0.0
C464 C 0.72447 0.92807 0.21004 0.0
C465 C 0.78333 0.94905 0.19513 0.0
C466 C 0.76127 0.95292 0.12866 0.0
C467 C 0.70749 0.96034 0.11066 0.0
C468 C 0.67775 0.95844 0.14585 0.0
C469 C 0.73101 0.94588 0.1447 0.0
C470 C 0.67087 0.93725 0.19799 0.0
C471 C 0.69415 0.92181 0.22894 0.0
H472 H 0.4865 0.68339 0.10212 0.0
H473 H 0.55915 0.6967 0.9106 0.0
H474 H 0.55434 0.64724 0.82222 0.0
H475 H 0.53823 0.59838 0.82597 0.0
H476 H 0.46912 0.58397 0.02853 0.0
H477 H 0.46401 0.63549 0.08701 0.0
C478 C 0.50033 0.67574 0.03823 0.0
C479 C 0.5235 0.6936 0.01393 0.0
C480 C 0.49899 0.6467 0.99277 0.0
C481 C 0.54115 0.68353 0.93084 0.0
C482 C 0.53886 0.65499 0.88173 0.0
C483 C 0.52172 0.60647 0.88215 0.0
C484 C 0.50463 0.58728 0.92482 0.0
C485 C 0.51936 0.63604 0.9165 0.0
C486 C 0.4828 0.59818 0.9954 0.0
C487 C 0.47991 0.62767 0.02885 0.0
H488 H 0.82661 0.59651 0.44144 0.0
H489 H 0.76326 0.54518 0.24445 0.0
H490 H 0.79953 0.54094 0.11403 0.0
H491 H 0.85337 0.53152 0.08484 0.0
H492 H 0.91957 0.57362 0.29313 0.0
H493 H 0.87934 0.60049 0.38995 0.0
C494 C 0.82046 0.58523 0.36884 0.0
C495 C 0.79396 0.56822 0.35577 0.0
C496 C 0.84303 0.57955 0.29729 0.0
C497 C 0.78459 0.55663 0.25981 0.0
C498 C 0.80569 0.55365 0.18457 0.0
C499 C 0.85927 0.54757 0.14875 0.0
C500 C 0.88909 0.54952 0.18477 0.0
C501 C 0.83595 0.56164 0.20661 0.0
C502 C 0.89644 0.57084 0.26662 0.0
C503 C 0.87345 0.5863 0.32179 0.0
H504 H 0.09167 0.17834 0.13578 0.0
H505 H 1.01982 0.20493 0.97026 0.0
H506 H 1.017 0.15714 0.86599 0.0
H507 H 1.02831 0.10624 0.84438 0.0
H508 H 0.09816 0.07939 0.01852 0.0
H509 H 0.10866 0.12882 0.09674 0.0
C510 C 0.0764 0.17385 0.07402 0.0
C511 C 0.05616 0.19485 0.05947 0.0
C512 C 0.07394 0.14611 0.01815 0.0
C513 C 0.0359 0.18901 0.98113 0.0
C514 C 0.03397 0.16162 0.92285 0.0
C515 C 0.04609 0.11123 0.8986 0.0
C516 C 0.06188 0.08913 0.92744 0.0
C517 C 0.05175 0.13969 0.94426 0.0
C518 C 0.08536 0.09595 0.99596 0.0
C519 C 0.0914 0.12423 0.04079 0.0
H520 H 0.36659 0.06471 0.21821 0.0
H521 H 0.32993 0.98478 0.05921 0.0
H522 H 0.37851 0.97476 0.97334 0.0
H523 H 0.43321 0.98704 0.95132 0.0
H524 H 0.46929 0.06657 0.11559 0.0
H525 H 0.41987 0.07759 0.19297 0.0
C526 C 0.36899 0.04491 0.16521 0.0
C527 C 0.34399 0.02544 0.14729 0.0
C528 C 0.39746 0.03885 0.11781 0.0
C529 C 0.3481 1.00043 0.07536 0.0
C530 C 0.37623 0.99449 0.02672 0.0
C531 C 0.43036 0.00685 0.00392 0.0
C532 C 0.45564 0.02584 0.02724 0.0
C533 C 0.40138 0.01326 0.04866 0.0
C534 C 0.45086 0.05136 0.09577 0.0
C535 C 0.42235 0.05776 0.14014 0.0
H536 H 0.52742 0.29443 0.3023 0.0
H537 H 0.43527 0.29254 0.4038 0.0
H538 H 0.42113 0.32854 0.31268 0.0
H539 H 0.43724 0.36582 0.22578 0.0
H540 H 0.5299 0.36714 0.12464 0.0
H541 H 0.54162 0.32649 0.19477 0.0
C542 C 0.50397 0.30106 0.30087 0.0
C543 C 0.48229 0.29057 0.35827 0.0
C544 C 0.49636 0.32244 0.25116 0.0
C545 C 0.45215 0.29982 0.35825 0.0
C546 C 0.44423 0.3208 0.30755 0.0
C547 C 0.45984 0.35691 0.21718 0.0
C548 C 0.48283 0.37027 0.17206 0.0
C549 C 0.46647 0.33312 0.25705 0.0
C550 C 0.51196 0.35816 0.16193 0.0
C551 C 0.51867 0.33463 0.20116 0.0
H552 H 0.18973 0.48901 0.2302 0.0
H553 H 0.24393 0.49408 0.97953 0.0
H554 H 0.19741 0.49979 0.88906 0.0
H555 H 0.1402 0.49976 0.87796 0.0
H556 H 0.08792 0.49234 0.13151 0.0
H557 H 0.13439 0.49053 0.22185 0.0
C558 C 0.19156 0.49163 0.15588 0.0
C559 C 0.22066 0.49099 0.11216 0.0
C560 C 0.16469 0.49395 0.10364 0.0
C561 C 0.22216 0.49474 0.01595 0.0
C562 C 0.19538 0.49765 0.96373 0.0
C563 C 0.13894 0.4978 0.953 0.0
C564 C 0.10998 0.49601 0.99672 0.0
C565 C 0.16633 0.49666 0.00606 0.0
C566 C 0.10935 0.4936 0.09457 0.0
C567 C 0.13612 0.49266 0.14703 0.0
H568 H 1.0112 0.81797 0.64613 0.0
H569 H 0.95423 0.83676 0.42087 0.0
H570 H 0.95329 0.88699 0.50243 0.0
H571 H 0.97642 0.92641 0.62137 0.0
H572 H 0.03421 0.90744 0.84547 0.0
H573 H 1.02702 0.85666 0.78143 0.0
C574 C 0.99751 0.8329 0.6175 0.0
C575 C 0.98289 0.82387 0.52785 0.0
C576 C 0.99802 0.8619 0.66296 0.0
C577 C 0.96554 0.84338 0.49026 0.0
C578 C 0.96538 0.87213 0.53608 0.0
C579 C 0.98712 0.91115 0.65675 0.0
C580 C 1.00634 0.92074 0.73654 0.0
C581 C 0.98288 0.88184 0.61963 0.0
C582 C 1.01954 0.90069 0.78308 0.0
C583 C 1.01546 0.87157 0.74659 0.0
H584 H 0.70152 0.98652 0.46539 0.0
H585 H 0.75726 0.0053 0.72216 0.0
H586 H 0.71117 0.01076 0.82374 0.0
H587 H 0.65433 0.00771 0.83972 0.0
H588 H 0.60021 0.98748 0.5789 0.0
H589 H 0.64605 0.98441 0.48055 0.0
C590 C 0.70386 0.99176 0.54371 0.0
C591 C 0.73342 0.99514 0.58515 0.0
C592 C 0.67721 0.99424 0.6017 0.0
C593 C 0.73524 0.00267 0.68717 0.0
C594 C 0.70871 0.00551 0.74554 0.0
C595 C 0.65244 0.00263 0.7615 0.0
C596 C 0.62313 0.99774 0.7181 0.0
C597 C 0.67944 1.00091 0.70379 0.0
C598 C 0.62187 0.99126 0.61584 0.0
C599 C 0.6483 0.98957 0.55886 0.0
H600 H 0.5269 0.70448 0.37644 0.0
H601 H 0.62042 0.71379 0.29736 0.0
H602 H 0.63546 0.6788 0.39168 0.0
H603 H 0.62055 0.64013 0.47543 0.0
H604 H 0.52624 0.63068 0.5489 0.0
H605 H 0.51299 0.67076 0.47755 0.0
C606 C 0.55071 0.69954 0.38275 0.0
C607 C 0.57253 0.71179 0.33042 0.0
C608 C 0.55892 0.67866 0.43378 0.0
C609 C 0.60326 0.705 0.33816 0.0
C610 C 0.61176 0.68462 0.39082 0.0
C611 C 0.5972 0.64717 0.47738 0.0
C612 C 0.57433 0.63182 0.51553 0.0
C613 C 0.5896 0.67042 0.43563 0.0
C614 C 0.5442 0.64143 0.51755 0.0
C615 C 0.53659 0.66455 0.47739 0.0
H616 H 0.84886 0.55877 0.64146 0.0
H617 H 0.8225 0.47006 0.57417 0.0
H618 H 0.87007 0.45805 0.64571 0.0
H619 H 0.92172 0.47248 0.71734 0.0
H620 H 0.94839 0.56104 0.76627 0.0
H621 H 0.89902 0.57291 0.70947 0.0
C622 C 0.85336 0.53663 0.64092 0.0
C623 C 0.83163 0.51542 0.59994 0.0
C624 C 0.88146 0.52969 0.67809 0.0
C625 C 0.83816 0.4871 0.60481 0.0
C626 C 0.86575 0.48014 0.645 0.0
C627 C 0.91672 0.49438 0.71569 0.0
C628 C 0.93932 0.51577 0.74599 0.0
C629 C 0.88798 0.50118 0.68022 0.0
C630 C 0.93202 0.54398 0.74287 0.0
C631 C 0.90355 0.55088 0.71059 0.0
loop_
_geom_bond_atom_site_label_1
_geom_bond_atom_site_label_2
_geom_bond_distance
_geom_bond_site_symmetry_2
_ccdc_geom_bond_type
H0 C3 0.929 . S
H1 C6 0.929 . S
H2 C8 0.930 . S
C3 H0 0.929 . S
C3 C4 1.398 . S
C3 C5 1.396 . S
C4 C3 1.398 . S
C4 C8 1.407 . S
C5 C3 1.396 . S
C5 C6 1.394 . S
C6 H1 0.929 . S
C6 C5 1.394 . S
C6 C7 1.382 . S
C7 C6 1.382 . S
C7 C8 1.392 . S
C7 N9 1.420 . S
C8 H2 0.930 . S
C8 C4 1.407 . S
C8 C7 1.392 . S
N9 C7 1.420 . S
N9 C10 1.244 . S
C10 N9 1.244 . S
H11 C14 0.929 . S
H12 C17 0.929 . S
H13 C19 0.930 . S
C14 H11 0.929 . S
C14 C15 1.395 1_655 S
C14 C16 1.394 1_655 S
C15 C14 1.395 1_455 S
C15 C19 1.414 . S
C16 C14 1.394 1_455 S
C16 C17 1.397 . S
C17 H12 0.929 . S
C17 C16 1.397 . S
C17 C18 1.382 . S
C18 C17 1.382 . S
C18 C19 1.392 . S
C18 N20 1.420 . S
C19 H13 0.930 . S
C19 C15 1.414 . S
C19 C18 1.392 . S
N20 C18 1.420 . S
N20 C21 1.232 1_455 S
C21 N20 1.232 1_655 S
H22 C25 0.929 . S
H23 C28 0.929 . S
H24 C30 0.930 . S
C25 H22 0.929 . S
C25 C26 1.402 1_565 S
C25 C27 1.391 1_565 S
C26 C25 1.402 1_545 S
C26 C30 1.414 . S
C27 C25 1.391 1_545 S
C27 C28 1.397 . S
C28 H23 0.929 . S
C28 C27 1.397 . S
C28 C29 1.382 . S
C29 C28 1.382 . S
C29 C30 1.392 . S
C29 N31 1.420 . S
C30 H24 0.930 . S
C30 C26 1.414 . S
C30 C29 1.392 . S
N31 C29 1.420 . S
N31 C32 1.237 1_545 S
C32 N31 1.237 1_565 S
H33 C36 0.929 . S
H34 C39 0.929 . S
H35 C41 0.930 . S
C36 H33 0.929 . S
C36 C37 1.398 . S
C36 C38 1.396 1_554 S
C37 C36 1.398 . S
C37 C41 1.407 . S
C38 C36 1.396 1_556 S
C38 C39 1.394 . S
C39 H34 0.929 . S
C39 C38 1.394 . S
C39 C40 1.382 1_556 S
C40 C39 1.382 1_554 S
C40 C41 1.392 . S
C40 N42 1.420 . S
C41 H35 0.930 . S
C41 C37 1.407 . S
C41 C40 1.392 . S
N42 C40 1.420 . S
N42 C43 1.244 1_554 S
C43 N42 1.244 1_556 S
H44 C47 0.929 . S
H45 C50 0.929 . S
H46 C52 0.930 . S
C47 H44 0.929 . S
C47 C48 1.398 . S
C47 C49 1.396 . S
C48 C47 1.398 . S
C48 C52 1.407 . S
C49 C47 1.396 . S
C49 C50 1.394 . S
C50 H45 0.929 . S
C50 C49 1.394 . S
C50 C51 1.382 . S
C51 C50 1.382 . S
C51 C52 1.392 . S
C51 N53 1.420 . S
C52 H46 0.930 . S
C52 C48 1.407 . S
C52 C51 1.392 . S
N53 C51 1.420 . S
N53 C54 1.244 . S
C54 N53 1.244 . S
H55 C58 0.929 . S
H56 C61 0.929 . S
H57 C63 0.930 . S
C58 H55 0.929 . S
C58 C59 1.398 1_655 S
C58 C60 1.394 1_655 S
C59 C58 1.398 1_455 S
C59 C63 1.407 . S
C60 C58 1.394 1_455 S
C60 C61 1.398 . S
C61 H56 0.929 . S
C61 C60 1.398 . S
C61 C62 1.382 . S
C62 C61 1.382 . S
C62 C63 1.392 . S
C62 N64 1.420 . S
C63 H57 0.930 . S
C63 C59 1.407 . S
C63 C62 1.392 . S
N64 C62 1.420 . S
N64 C65 1.236 1_455 S
C65 N64 1.236 1_655 S
H66 C69 0.929 . S
H67 C72 0.929 . S
H68 C74 0.930 . S
C69 H66 0.929 . S
C69 C70 1.398 1_565 S
C69 C71 1.399 1_565 S
C70 C69 1.398 1_545 S
C70 C74 1.407 . S
C71 C69 1.399 1_545 S
C71 C72 1.398 . S
C72 H67 0.929 . S
C72 C71 1.398 . S
C72 C73 1.382 . S
C73 C72 1.382 . S
C73 C74 1.392 . S
C73 N75 1.420 . S
C74 H68 0.930 . S
C74 C70 1.407 . S
C74 C73 1.392 . S
N75 C73 1.420 . S
N75 C76 1.233 1_545 S
C76 N75 1.233 1_565 S
H77 C80 0.929 . S
H78 C83 0.929 . S
H79 C85 0.930 . S
C80 H77 0.929 . S
C80 C81 1.398 . S
C80 C82 1.396 . S
C81 C80 1.398 . S
C81 C85 1.407 . S
C82 C80 1.396 . S
C82 C83 1.394 . S
C83 H78 0.929 . S
C83 C82 1.394 . S
C83 C84 1.382 . S
C84 C83 1.382 . S
C84 C85 1.392 . S
C84 N86 1.420 . S
C85 H79 0.930 . S
C85 C81 1.407 . S
C85 C84 1.392 . S
N86 C84 1.420 . S
N86 C87 1.244 . S
C87 N86 1.244 . S
Tb88 C97 2.764 . S
Tb88 O98 2.325 . S
Tb88 O101 2.303 1_655 S
Tb88 O105 2.322 1_545 S
Tb88 O106 2.349 . S
Tb88 O109 2.415 . S
Tb88 O110 2.399 . S
Tb89 O99 2.322 1_565 S
Tb89 O100 2.349 . S
Tb89 O102 2.415 1_556 S
Tb89 O103 2.399 . S
Tb89 O104 2.325 . S
Tb89 O107 2.303 1_455 S
Tb89 C118 2.764 1_556 S
C90 O106 1.277 . S
C90 O107 1.252 1_545 S
C91 C94 1.358 . S
C91 C95 1.332 . S
C91 C97 1.504 . S
C92 C93 1.373 . S
C92 C96 1.308 . S
C93 C92 1.373 . S
C93 C94 1.429 . S
C93 H120 0.932 . S
C94 C91 1.358 . S
C94 C93 1.429 . S
C94 H121 0.930 . S
C95 C91 1.332 . S
C95 C96 1.394 . S
C95 H122 0.932 1_655 S
C96 C92 1.308 . S
C96 C95 1.394 . S
C96 H123 0.929 . S
C97 Tb88 2.764 . S
C97 C91 1.504 . S
C97 O109 1.239 . S
C97 O110 1.263 . S
O98 Tb88 2.325 . S
O98 C108 1.236 1_655 S
O99 Tb89 2.322 1_545 S
O99 C108 1.257 . S
O100 Tb89 2.349 . S
O100 C111 1.272 . S
O101 Tb88 2.303 1_455 S
O101 C111 1.254 1_545 S
O102 Tb89 2.415 1_554 S
O102 C118 1.239 . S
O103 Tb89 2.399 . S
O103 C118 1.263 1_556 S
O104 Tb89 2.325 . S
O104 C119 1.236 1_455 S
O105 Tb88 2.322 1_565 S
O105 C119 1.257 . S
O106 Tb88 2.349 . S
O106 C90 1.277 . S
O107 Tb89 2.303 1_655 S
O107 C90 1.252 1_565 S
C108 O98 1.236 1_455 S
C108 O99 1.257 . S
O109 Tb88 2.415 . S
O109 C97 1.239 . S
O110 Tb88 2.399 . S
O110 C97 1.263 . S
C111 O100 1.272 . S
C111 O101 1.254 1_565 S
C112 C115 1.358 . S
C112 C116 1.332 . S
C112 C118 1.504 . S
C113 C114 1.373 . S
C113 C117 1.308 . S
C114 C113 1.373 . S
C114 C115 1.429 . S
C114 H124 0.932 . S
C115 C112 1.358 . S
C115 C114 1.429 . S
C115 H125 0.930 . S
C116 C112 1.332 . S
C116 C117 1.394 . S
C116 H126 0.932 1_455 S
C117 C113 1.308 . S
C117 C116 1.394 . S
C117 H127 0.929 . S
C118 Tb89 2.764 1_554 S
C118 O102 1.239 . S
C118 O103 1.263 1_554 S
C118 C112 1.504 . S
C119 O104 1.236 1_655 S
C119 O105 1.257 . S
H120 C93 0.932 . S
H121 C94 0.930 . S
H122 C95 0.932 1_455 S
H123 C96 0.929 . S
H124 C114 0.932 . S
H125 C115 0.930 . S
H126 C116 0.932 1_655 S
H127 C117 0.929 . S
Tb128 C137 2.764 . S
Tb128 O138 2.325 . S
Tb128 O141 2.303 1_565 S
Tb128 O145 2.322 . S
Tb128 O146 2.349 . S
Tb128 O149 2.415 1_565 S
Tb128 O150 2.399 . S
Tb129 O139 2.322 . S
Tb129 O140 2.349 . S
Tb129 O142 2.415 1_546 S
Tb129 O143 2.399 1_556 S
Tb129 O144 2.325 . S
Tb129 O147 2.303 1_545 S
Tb129 C158 2.764 1_556 S
C130 O146 1.261 . S
C130 O147 1.257 . S
C131 C134 1.358 . S
C131 C135 1.332 1_565 S
C131 C137 1.504 . S
C132 C133 1.373 . S
C132 C136 1.308 1_565 S
C133 C132 1.373 . S
C133 C134 1.429 . S
C133 H160 0.932 . S
C134 C131 1.358 . S
C134 C133 1.429 . S
C134 H161 0.930 . S
C135 C131 1.332 1_545 S
C135 C136 1.394 . S
C135 H162 0.932 . S
C136 C132 1.308 1_545 S
C136 C135 1.394 . S
C136 H163 0.929 . S
C137 Tb128 2.764 . S
C137 C131 1.504 . S
C137 O149 1.239 1_565 S
C137 O150 1.263 . S
O138 Tb128 2.325 . S
O138 C148 1.236 1_565 S
O139 Tb129 2.322 . S
O139 C148 1.257 . S
O140 Tb129 2.349 . S
O140 C151 1.261 . S
O141 Tb128 2.303 1_545 S
O141 C151 1.257 . S
O142 Tb129 2.415 1_564 S
O142 C158 1.239 1_565 S
O143 Tb129 2.399 1_554 S
O143 C158 1.263 . S
O144 Tb129 2.325 . S
O144 C159 1.236 1_545 S
O145 Tb128 2.322 . S
O145 C159 1.257 . S
O146 Tb128 2.349 . S
O146 C130 1.261 . S
O147 Tb129 2.303 1_565 S
O147 C130 1.257 . S
C148 O138 1.236 1_545 S
C148 O139 1.257 . S
O149 Tb128 2.415 1_545 S
O149 C137 1.239 1_545 S
O150 Tb128 2.399 . S
O150 C137 1.263 . S
C151 O140 1.261 . S
C151 O141 1.257 . S
C152 C155 1.358 . S
C152 C156 1.332 1_545 S
C152 C158 1.504 . S
C153 C154 1.373 . S
C153 C157 1.308 1_545 S
C154 C153 1.373 . S
C154 C155 1.429 . S
C154 H164 0.932 . S
C155 C152 1.358 . S
C155 C154 1.429 . S
C155 H165 0.930 . S
C156 C152 1.332 1_565 S
C156 C157 1.394 . S
C156 H166 0.932 . S
C157 C153 1.308 1_565 S
C157 C156 1.394 . S
C157 H167 0.929 . S
C158 Tb129 2.764 1_554 S
C158 O142 1.239 1_545 S
C158 O143 1.263 . S
C158 C152 1.504 . S
C159 O144 1.236 1_565 S
C159 O145 1.257 . S
H160 C133 0.932 . S
H161 C134 0.930 . S
H162 C135 0.932 . S
H163 C136 0.929 . S
H164 C154 0.932 . S
H165 C155 0.930 . S
H166 C156 0.932 . S
H167 C157 0.929 . S
Tb168 C177 2.764 1_556 S
Tb168 O178 2.325 . S
Tb168 O181 2.303 . S
Tb168 O185 2.322 . S
Tb168 O186 2.349 . S
Tb168 O189 2.415 1_556 S
Tb168 O190 2.399 1_556 S
Tb169 O179 2.322 . S
Tb169 O180 2.349 . S
Tb169 O182 2.415 . S
Tb169 O183 2.399 . S
Tb169 O184 2.325 . S
Tb169 O187 2.303 . S
Tb169 C198 2.764 . S
C170 O186 1.261 . S
C170 O187 1.257 . S
C171 C174 1.358 . S
C171 C175 1.332 . S
C171 C177 1.504 . S
C172 C173 1.373 . S
C172 C176 1.308 . S
C173 C172 1.373 . S
C173 C174 1.429 . S
C173 H200 0.932 . S
C174 C171 1.358 . S
C174 C173 1.429 . S
C174 H201 0.930 . S
C175 C171 1.332 . S
C175 C176 1.394 . S
C175 H202 0.932 . S
C176 C172 1.308 . S
C176 C175 1.394 . S
C176 H203 0.929 . S
C177 Tb168 2.764 1_554 S
C177 C171 1.504 . S
C177 O189 1.239 . S
C177 O190 1.263 . S
O178 Tb168 2.325 . S
O178 C188 1.236 . S
O179 Tb169 2.322 . S
O179 C188 1.257 . S
O180 Tb169 2.349 . S
O180 C191 1.261 . S
O181 Tb168 2.303 . S
O181 C191 1.257 . S
O182 Tb169 2.415 . S
O182 C198 1.239 . S
O183 Tb169 2.399 . S
O183 C198 1.263 . S
O184 Tb169 2.325 . S
O184 C199 1.236 . S
O185 Tb168 2.322 . S
O185 C199 1.257 . S
O186 Tb168 2.349 . S
O186 C170 1.261 . S
O187 Tb169 2.303 . S
O187 C170 1.257 . S
C188 O178 1.236 . S
C188 O179 1.257 . S
O189 Tb168 2.415 1_554 S
O189 C177 1.239 . S
O190 Tb168 2.399 1_554 S
O190 C177 1.263 . S
C191 O180 1.261 . S
C191 O181 1.257 . S
C192 C195 1.358 . S
C192 C196 1.332 . S
C192 C198 1.504 . S
C193 C194 1.373 . S
C193 C197 1.308 . S
C194 C193 1.373 . S
C194 C195 1.429 . S
C194 H204 0.932 . S
C195 C192 1.358 . S
C195 C194 1.429 . S
C195 H205 0.930 . S
C196 C192 1.332 . S
C196 C197 1.394 . S
C196 H206 0.932 . S
C197 C193 1.308 . S
C197 C196 1.394 . S
C197 H207 0.929 . S
C198 Tb169 2.764 . S
C198 O182 1.239 . S
C198 O183 1.263 . S
C198 C192 1.504 . S
C199 O184 1.236 . S
C199 O185 1.257 . S
H200 C173 0.932 . S
H201 C174 0.930 . S
H202 C175 0.932 . S
H203 C176 0.929 . S
H204 C194 0.932 . S
H205 C195 0.930 . S
H206 C196 0.932 . S
H207 C197 0.929 . S
Tb208 C217 2.764 . S
Tb208 O218 2.325 . S
Tb208 O221 2.303 . S
Tb208 O225 2.322 1_455 S
Tb208 O226 2.349 . S
Tb208 O229 2.415 . S
Tb208 O230 2.399 . S
Tb209 O219 2.322 1_655 S
Tb209 O220 2.349 . S
Tb209 O222 2.415 1_556 S
Tb209 O223 2.399 . S
Tb209 O224 2.325 . S
Tb209 O227 2.303 . S
Tb209 C238 2.764 1_556 S
C210 O226 1.261 . S
C210 O227 1.257 1_455 S
C211 C214 1.358 . S
C211 C215 1.332 . S
C211 C217 1.504 . S
C212 C213 1.373 . S
C212 C216 1.308 . S
C213 C212 1.373 . S
C213 C214 1.429 . S
C213 H240 0.932 . S
C214 C211 1.358 . S
C214 C213 1.429 . S
C214 H241 0.930 . S
C215 C211 1.332 . S
C215 C216 1.394 . S
C215 H242 0.932 . S
C216 C212 1.308 . S
C216 C215 1.394 . S
C216 H243 0.929 . S
C217 Tb208 2.764 . S
C217 C211 1.504 . S
C217 O229 1.239 . S
C217 O230 1.263 . S
O218 Tb208 2.325 . S
O218 C228 1.236 . S
O219 Tb209 2.322 1_455 S
O219 C228 1.257 . S
O220 Tb209 2.349 . S
O220 C231 1.261 . S
O221 Tb208 2.303 . S
O221 C231 1.257 1_455 S
O222 Tb209 2.415 1_554 S
O222 C238 1.239 . S
O223 Tb209 2.399 . S
O223 C238 1.263 1_556 S
O224 Tb209 2.325 . S
O224 C239 1.236 . S
O225 Tb208 2.322 1_655 S
O225 C239 1.257 . S
O226 Tb208 2.349 . S
O226 C210 1.261 . S
O227 Tb209 2.303 . S
O227 C210 1.257 1_655 S
C228 O218 1.236 . S
C228 O219 1.257 . S
O229 Tb208 2.415 . S
O229 C217 1.239 . S
O230 Tb208 2.399 . S
O230 C217 1.263 . S
C231 O220 1.261 . S
C231 O221 1.257 1_655 S
C232 C235 1.358 . S
C232 C236 1.332 . S
C232 C238 1.504 . S
C233 C234 1.373 . S
C233 C237 1.308 . S
C234 C233 1.373 . S
C234 C235 1.429 . S
C234 H244 0.932 . S
C235 C232 1.358 . S
C235 C234 1.429 . S
C235 H245 0.930 . S
C236 C232 1.332 . S
C236 C237 1.394 . S
C236 H246 0.932 . S
C237 C233 1.308 . S
C237 C236 1.394 . S
C237 H247 0.929 . S
C238 Tb209 2.764 1_554 S
C238 O222 1.239 . S
C238 O223 1.263 1_554 S
C238 C232 1.504 . S
C239 O224 1.236 . S
C239 O225 1.257 . S
H240 C213 0.932 . S
H241 C214 0.930 . S
H242 C215 0.932 . S
H243 C216 0.929 . S
H244 C234 0.932 . S
H245 C235 0.930 . S
H246 C236 0.932 . S
H247 C237 0.929 . S
H248 C254 0.930 . S
H249 C257 0.930 . S
H250 C258 0.930 . S
H251 C259 0.930 . S
H252 C262 0.930 . S
H253 C263 0.930 . S
C254 H248 0.930 . S
C254 C255 1.355 1_545 S
C254 C256 1.415 . S
C255 C254 1.355 1_565 S
C255 C257 1.428 . S
C256 C254 1.415 . S
C256 C261 1.425 1_545 S
C256 C263 1.409 . S
C257 H249 0.930 . S
C257 C255 1.428 . S
C257 C258 1.362 . S
C258 H250 0.930 . S
C258 C257 1.362 . S
C258 C261 1.409 . S
C259 H251 0.930 . S
C259 C260 1.355 1_565 S
C259 C261 1.415 . S
C260 C259 1.355 1_545 S
C260 C262 1.419 . S
C261 C256 1.425 1_565 S
C261 C258 1.409 . S
C261 C259 1.415 . S
C262 H252 0.930 . S
C262 C260 1.419 . S
C262 C263 1.362 . S
C263 H253 0.930 . S
C263 C256 1.409 . S
C263 C262 1.362 . S
H264 C270 0.930 . S
H265 C273 0.930 . S
H266 C274 0.930 . S
H267 C275 0.930 . S
H268 C278 0.930 . S
H269 C279 0.930 . S
C270 H264 0.930 . S
C270 C271 1.355 . S
C270 C272 1.415 . S
C271 C270 1.355 . S
C271 C273 1.419 . S
C272 C270 1.415 . S
C272 C277 1.425 . S
C272 C279 1.409 . S
C273 H265 0.930 . S
C273 C271 1.419 . S
C273 C274 1.362 . S
C274 H266 0.930 . S
C274 C273 1.362 . S
C274 C277 1.409 . S
C275 H267 0.930 . S
C275 C276 1.355 . S
C275 C277 1.415 . S
C276 C275 1.355 . S
C276 C278 1.419 . S
C277 C272 1.425 . S
C277 C274 1.409 . S
C277 C275 1.415 . S
C278 H268 0.930 . S
C278 C276 1.419 . S
C278 C279 1.362 . S
C279 H269 0.930 . S
C279 C272 1.409 . S
C279 C278 1.362 . S
H280 C286 0.930 . S
H281 C289 0.930 . S
H282 C290 0.930 . S
H283 C291 0.930 . S
H284 C294 0.930 . S
H285 C295 0.930 . S
C286 H280 0.930 . S
C286 C287 1.355 . S
C286 C288 1.415 . S
C287 C286 1.355 . S
C287 C289 1.419 . S
C288 C286 1.415 . S
C288 C293 1.425 . S
C288 C295 1.409 . S
C289 H281 0.930 . S
C289 C287 1.419 . S
C289 C290 1.362 . S
C290 H282 0.930 . S
C290 C289 1.362 . S
C290 C293 1.409 . S
C291 H283 0.930 . S
C291 C292 1.355 . S
C291 C293 1.415 . S
C292 C291 1.355 . S
C292 C294 1.419 . S
C293 C288 1.425 . S
C293 C290 1.409 . S
C293 C291 1.415 . S
C294 H284 0.930 . S
C294 C292 1.419 . S
C294 C295 1.362 . S
C295 H285 0.930 . S
C295 C288 1.409 . S
C295 C294 1.362 . S
H296 C302 0.930 . S
H297 C305 0.930 . S
H298 C306 0.930 . S
H299 C307 0.930 . S
H300 C310 0.930 . S
H301 C311 0.930 . S
C302 H296 0.930 . S
C302 C303 1.355 1_455 S
C302 C304 1.415 . S
C303 C302 1.355 1_655 S
C303 C305 1.419 . S
C304 C302 1.415 . S
C304 C309 1.425 1_455 S
C304 C311 1.409 . S
C305 H297 0.930 . S
C305 C303 1.419 . S
C305 C306 1.362 . S
C306 H298 0.930 . S
C306 C305 1.362 . S
C306 C309 1.409 . S
C307 H299 0.930 . S
C307 C308 1.355 1_655 S
C307 C309 1.415 . S
C308 C307 1.355 1_455 S
C308 C310 1.419 . S
C309 C304 1.425 1_655 S
C309 C306 1.409 . S
C309 C307 1.415 . S
C310 H300 0.930 . S
C310 C308 1.419 . S
C310 C311 1.362 . S
C311 H301 0.930 . S
C311 C304 1.409 . S
C311 C310 1.362 . S
H312 C318 0.930 . S
H313 C321 0.930 . S
H314 C322 0.930 . S
H315 C323 0.930 . S
H316 C326 0.930 1_556 S
H317 C327 0.930 . S
C318 H312 0.930 . S
C318 C319 1.355 1_545 S
C318 C320 1.415 . S
C319 C318 1.355 1_565 S
C319 C321 1.419 . S
C320 C318 1.415 . S
C320 C325 1.425 1_545 S
C320 C327 1.409 . S
C321 H313 0.930 . S
C321 C319 1.419 . S
C321 C322 1.362 . S
C322 H314 0.930 . S
C322 C321 1.362 . S
C322 C325 1.409 . S
C323 H315 0.930 . S
C323 C324 1.366 . S
C323 C325 1.415 . S
C324 C323 1.366 . S
C324 C326 1.409 1_565 S
C325 C320 1.425 1_565 S
C325 C322 1.409 . S
C325 C323 1.415 . S
C326 H316 0.930 1_554 S
C326 C324 1.409 1_545 S
C326 C327 1.362 . S
C327 H317 0.930 . S
C327 C320 1.409 . S
C327 C326 1.362 . S
H328 C334 0.930 . S
H329 C337 0.930 . S
H330 C338 0.930 . S
H331 C339 0.930 . S
H332 C342 0.930 . S
H333 C343 0.930 . S
C334 H328 0.930 . S
C334 C335 1.355 . S
C334 C336 1.415 . S
C335 C334 1.355 . S
C335 C337 1.419 . S
C336 C334 1.415 . S
C336 C341 1.425 . S
C336 C343 1.409 . S
C337 H329 0.930 . S
C337 C335 1.419 . S
C337 C338 1.362 . S
C338 H330 0.930 . S
C338 C337 1.362 . S
C338 C341 1.409 . S
C339 H331 0.930 . S
C339 C340 1.355 . S
C339 C341 1.415 . S
C340 C339 1.355 . S
C340 C342 1.419 . S
C341 C336 1.425 . S
C341 C338 1.409 . S
C341 C339 1.415 . S
C342 H332 0.930 . S
C342 C340 1.419 . S
C342 C343 1.362 . S
C343 H333 0.930 . S
C343 C336 1.409 . S
C343 C342 1.362 . S
H344 C350 0.930 . S
H345 C353 0.930 . S
H346 C354 0.930 . S
H347 C355 0.930 . S
H348 C358 0.930 . S
H349 C359 0.930 . S
C350 H344 0.930 . S
C350 C351 1.355 . S
C350 C352 1.415 . S
C351 C350 1.355 . S
C351 C353 1.419 . S
C352 C350 1.415 . S
C352 C357 1.425 . S
C352 C359 1.409 . S
C353 H345 0.930 . S
C353 C351 1.419 . S
C353 C354 1.362 . S
C354 H346 0.930 . S
C354 C353 1.362 . S
C354 C357 1.409 . S
C355 H347 0.930 . S
C355 C356 1.355 . S
C355 C357 1.415 . S
C356 C355 1.355 . S
C356 C358 1.419 . S
C357 C352 1.425 . S
C357 C354 1.409 . S
C357 C355 1.415 . S
C358 H348 0.930 . S
C358 C356 1.419 . S
C358 C359 1.362 . S
C359 H349 0.930 . S
C359 C352 1.409 . S
C359 C358 1.362 . S
H360 C366 0.930 . S
H361 C369 0.930 . S
H362 C370 0.930 . S
H363 C371 0.930 . S
H364 C374 0.932 . S
H365 C375 0.930 . S
C366 H360 0.930 . S
C366 C367 1.355 1_655 S
C366 C368 1.415 . S
C367 C366 1.355 1_455 S
C367 C369 1.419 . S
C368 C366 1.415 . S
C368 C373 1.425 1_655 S
C368 C375 1.409 . S
C369 H361 0.930 . S
C369 C367 1.419 . S
C369 C370 1.362 . S
C370 H362 0.930 . S
C370 C369 1.362 . S
C370 C373 1.409 . S
C371 H363 0.930 . S
C371 C372 1.355 1_455 S
C371 C373 1.415 . S
C372 C371 1.355 1_655 S
C372 C374 1.419 . S
C373 C368 1.425 1_455 S
C373 C370 1.409 . S
C373 C371 1.415 . S
C374 H364 0.932 . S
C374 C372 1.419 . S
C374 C375 1.362 . S
C375 H365 0.930 . S
C375 C368 1.409 . S
C375 C374 1.362 . S
H376 C382 0.930 . S
H377 C385 0.930 . S
H378 C386 0.930 . S
H379 C387 0.930 . S
H380 C390 0.930 . S
H381 C391 0.930 . S
C382 H376 0.930 . S
C382 C383 1.353 1_655 S
C382 C384 1.415 . S
C383 C382 1.353 1_455 S
C383 C385 1.420 . S
C384 C382 1.415 . S
C384 C389 1.425 . S
C384 C391 1.409 . S
C385 H377 0.930 . S
C385 C383 1.420 . S
C385 C386 1.362 . S
C386 H378 0.930 . S
C386 C385 1.362 . S
C386 C389 1.409 1_455 S
C387 H379 0.930 . S
C387 C388 1.355 . S
C387 C389 1.415 . S
C388 C387 1.355 . S
C388 C390 1.419 . S
C389 C384 1.425 . S
C389 C386 1.409 1_655 S
C389 C387 1.415 . S
C390 H380 0.930 . S
C390 C388 1.419 . S
C390 C391 1.362 . S
C391 H381 0.930 . S
C391 C384 1.409 . S
C391 C390 1.362 . S
H392 C398 0.930 . S
H393 C401 0.930 . S
H394 C402 0.930 . S
H395 C403 0.930 . S
H396 C406 0.930 . S
H397 C407 0.930 . S
C398 H392 0.930 . S
C398 C399 1.355 1_565 S
C398 C400 1.415 . S
C399 C398 1.355 1_545 S
C399 C401 1.419 . S
C400 C398 1.415 . S
C400 C405 1.425 . S
C400 C407 1.409 . S
C401 H393 0.930 . S
C401 C399 1.419 . S
C401 C402 1.362 . S
C402 H394 0.930 . S
C402 C401 1.362 . S
C402 C405 1.409 1_545 S
C403 H395 0.930 . S
C403 C404 1.355 . S
C403 C405 1.415 . S
C404 C403 1.355 . S
C404 C406 1.419 . S
C405 C400 1.425 . S
C405 C402 1.409 1_565 S
C405 C403 1.415 . S
C406 H396 0.930 . S
C406 C404 1.419 . S
C406 C407 1.362 . S
C407 H397 0.930 . S
C407 C400 1.409 . S
C407 C406 1.362 . S
H408 C414 0.930 . S
H409 C417 0.930 . S
H410 C418 0.930 . S
H411 C419 0.930 . S
H412 C422 0.930 . S
H413 C423 0.930 . S
C414 H408 0.930 . S
C414 C415 1.355 . S
C414 C416 1.415 . S
C415 C414 1.355 . S
C415 C417 1.419 . S
C416 C414 1.415 . S
C416 C421 1.425 . S
C416 C423 1.409 . S
C417 H409 0.930 . S
C417 C415 1.419 . S
C417 C418 1.362 . S
C418 H410 0.930 . S
C418 C417 1.362 . S
C418 C421 1.409 . S
C419 H411 0.930 . S
C419 C420 1.355 . S
C419 C421 1.415 . S
C420 C419 1.355 . S
C420 C422 1.419 . S
C421 C416 1.425 . S
C421 C418 1.409 . S
C421 C419 1.415 . S
C422 H412 0.930 . S
C422 C420 1.419 . S
C422 C423 1.362 . S
C423 H413 0.930 . S
C423 C416 1.409 . S
C423 C422 1.362 . S
H424 C430 0.930 . S
H425 C433 0.930 . S
H426 C434 0.930 . S
H427 C435 0.930 . S
H428 C438 0.930 . S
H429 C439 0.930 . S
C430 H424 0.930 . S
C430 C431 1.355 . S
C430 C432 1.415 . S
C431 C430 1.355 . S
C431 C433 1.419 . S
C432 C430 1.415 . S
C432 C437 1.425 . S
C432 C439 1.409 . S
C433 H425 0.930 . S
C433 C431 1.419 . S
C433 C434 1.362 . S
C434 H426 0.930 . S
C434 C433 1.362 . S
C434 C437 1.409 . S
C435 H427 0.930 . S
C435 C436 1.355 . S
C435 C437 1.415 . S
C436 C435 1.355 . S
C436 C438 1.419 . S
C437 C432 1.425 . S
C437 C434 1.409 . S
C437 C435 1.415 . S
C438 H428 0.930 . S
C438 C436 1.419 . S
C438 C439 1.362 . S
C439 H429 0.930 . S
C439 C432 1.409 . S
C439 C438 1.362 . S
H440 C446 0.917 1_655 S
H441 C449 0.930 . S
H442 C450 0.930 . S
H443 C451 0.930 . S
H444 C454 0.930 . S
H445 C455 0.930 1_655 S
C446 H440 0.917 1_455 S
C446 C447 1.357 . S
C446 C448 1.424 . S
C447 C446 1.357 . S
C447 C449 1.419 . S
C448 C446 1.424 . S
C448 C453 1.425 . S
C448 C455 1.409 . S
C449 H441 0.930 . S
C449 C447 1.419 . S
C449 C450 1.362 . S
C450 H442 0.930 . S
C450 C449 1.362 . S
C450 C453 1.409 . S
C451 H443 0.930 . S
C451 C452 1.355 . S
C451 C453 1.415 . S
C452 C451 1.355 . S
C452 C454 1.419 . S
C453 C448 1.425 . S
C453 C450 1.409 . S
C453 C451 1.415 . S
C454 H444 0.930 . S
C454 C452 1.419 . S
C454 C455 1.362 . S
C455 H445 0.930 1_455 S
C455 C448 1.409 . S
C455 C454 1.362 . S
H456 C462 0.930 . S
H457 C465 0.930 . S
H458 C466 0.930 . S
H459 C467 0.930 . S
H460 C470 0.930 . S
H461 C471 0.930 . S
C462 H456 0.930 . S
C462 C463 1.355 . S
C462 C464 1.415 1_565 S
C463 C462 1.355 . S
C463 C465 1.419 1_565 S
C464 C462 1.415 1_545 S
C464 C469 1.425 . S
C464 C471 1.409 1_545 S
C465 H457 0.930 . S
C465 C463 1.419 1_545 S
C465 C466 1.362 . S
C466 H458 0.930 . S
C466 C465 1.362 . S
C466 C469 1.409 . S
C467 H459 0.930 . S
C467 C468 1.355 . S
C467 C469 1.415 . S
C468 C467 1.355 . S
C468 C470 1.419 . S
C469 C464 1.425 . S
C469 C466 1.409 . S
C469 C467 1.415 . S
C470 H460 0.930 . S
C470 C468 1.419 . S
C470 C471 1.362 1_545 S
C471 H461 0.930 . S
C471 C464 1.409 1_565 S
C471 C470 1.362 1_565 S
H472 C478 0.930 . S
H473 C481 0.930 . S
H474 C482 0.930 . S
H475 C483 0.930 . S
H476 C486 0.930 . S
H477 C487 0.930 . S
C478 H472 0.930 . S
C478 C479 1.355 . S
C478 C480 1.415 . S
C479 C478 1.355 . S
C479 C481 1.419 . S
C480 C478 1.415 . S
C480 C485 1.425 . S
C480 C487 1.409 . S
C481 H473 0.930 . S
C481 C479 1.419 . S
C481 C482 1.362 . S
C482 H474 0.930 . S
C482 C481 1.362 . S
C482 C485 1.409 . S
C483 H475 0.930 . S
C483 C484 1.355 . S
C483 C485 1.415 . S
C484 C483 1.355 . S
C484 C486 1.419 . S
C485 C480 1.425 . S
C485 C482 1.409 . S
C485 C483 1.415 . S
C486 H476 0.930 . S
C486 C484 1.419 . S
C486 C487 1.362 . S
C487 H477 0.930 . S
C487 C480 1.409 . S
C487 C486 1.362 . S
H488 C494 0.930 . S
H489 C497 0.930 . S
H490 C498 0.930 . S
H491 C499 0.930 . S
H492 C502 0.930 . S
H493 C503 0.930 . S
C494 H488 0.930 . S
C494 C495 1.355 . S
C494 C496 1.415 . S
C495 C494 1.355 . S
C495 C497 1.419 . S
C496 C494 1.415 . S
C496 C501 1.425 . S
C496 C503 1.409 . S
C497 H489 0.930 . S
C497 C495 1.419 . S
C497 C498 1.362 . S
C498 H490 0.930 . S
C498 C497 1.362 . S
C498 C501 1.409 . S
C499 H491 0.930 . S
C499 C500 1.355 . S
C499 C501 1.415 . S
C500 C499 1.355 . S
C500 C502 1.419 . S
C501 C496 1.425 . S
C501 C498 1.409 . S
C501 C499 1.415 . S
C502 H492 0.930 . S
C502 C500 1.419 . S
C502 C503 1.362 . S
C503 H493 0.930 . S
C503 C496 1.409 . S
C503 C502 1.362 . S
H504 C510 0.930 . S
H505 C513 0.930 . S
H506 C514 0.930 . S
H507 C515 0.930 . S
H508 C518 0.930 . S
H509 C519 0.930 . S
C510 H504 0.930 . S
C510 C511 1.362 1_556 S
C510 C512 1.415 . S
C511 C510 1.362 1_554 S
C511 C513 1.414 1_455 S
C512 C510 1.415 . S
C512 C517 1.425 1_556 S
C512 C519 1.409 . S
C513 H505 0.930 . S
C513 C511 1.414 1_655 S
C513 C514 1.362 . S
C514 H506 0.930 . S
C514 C513 1.362 . S
C514 C517 1.409 1_655 S
C515 H507 0.930 . S
C515 C516 1.355 1_554 S
C515 C517 1.415 . S
C516 C515 1.355 1_556 S
C516 C518 1.419 . S
C517 C512 1.425 1_554 S
C517 C514 1.409 1_455 S
C517 C515 1.415 . S
C518 H508 0.930 . S
C518 C516 1.419 . S
C518 C519 1.362 . S
C519 H509 0.930 . S
C519 C512 1.409 . S
C519 C518 1.362 . S
H520 C526 0.930 . S
H521 C529 0.930 . S
H522 C530 0.930 . S
H523 C531 0.930 . S
H524 C534 0.930 . S
H525 C535 0.930 . S
C526 H520 0.930 . S
C526 C527 1.355 . S
C526 C528 1.415 . S
C527 C526 1.355 . S
C527 C529 1.419 1_544 S
C528 C526 1.415 . S
C528 C533 1.425 1_544 S
C528 C535 1.409 . S
C529 H521 0.930 . S
C529 C527 1.419 1_566 S
C529 C530 1.362 . S
C530 H522 0.930 . S
C530 C529 1.362 . S
C530 C533 1.409 . S
C531 H523 0.930 . S
C531 C532 1.355 1_565 S
C531 C533 1.415 . S
C532 C531 1.355 1_545 S
C532 C534 1.419 1_556 S
C533 C528 1.425 1_566 S
C533 C530 1.409 . S
C533 C531 1.415 . S
C534 H524 0.930 . S
C534 C532 1.419 1_554 S
C534 C535 1.362 . S
C535 H525 0.930 . S
C535 C528 1.409 . S
C535 C534 1.362 . S
H536 C542 0.930 . S
H537 C545 0.930 . S
H538 C546 0.930 . S
H539 C547 0.930 . S
H540 C550 0.930 . S
H541 C551 0.930 . S
C542 H536 0.930 . S
C542 C543 1.355 . S
C542 C544 1.415 . S
C543 C542 1.355 . S
C543 C545 1.419 . S
C544 C542 1.415 . S
C544 C549 1.425 . S
C544 C551 1.409 . S
C545 H537 0.930 . S
C545 C543 1.419 . S
C545 C546 1.362 . S
C546 H538 0.930 . S
C546 C545 1.362 . S
C546 C549 1.409 . S
C547 H539 0.930 . S
C547 C548 1.355 . S
C547 C549 1.415 . S
C548 C547 1.355 . S
C548 C550 1.419 . S
C549 C544 1.425 . S
C549 C546 1.409 . S
C549 C547 1.415 . S
C550 H540 0.930 . S
C550 C548 1.419 . S
C550 C551 1.362 . S
C551 H541 0.930 . S
C551 C544 1.409 . S
C551 C550 1.362 . S
H552 C558 0.930 . S
H553 C561 0.930 . S
H554 C562 0.930 . S
H555 C563 0.930 . S
H556 C566 0.930 . S
H557 C567 0.930 . S
C558 H552 0.930 . S
C558 C559 1.355 1_556 S
C558 C560 1.415 . S
C559 C558 1.355 1_554 S
C559 C561 1.419 . S
C560 C558 1.415 . S
C560 C565 1.425 1_556 S
C560 C567 1.409 . S
C561 H553 0.930 . S
C561 C559 1.419 . S
C561 C562 1.362 . S
C562 H554 0.930 . S
C562 C561 1.362 . S
C562 C565 1.409 . S
C563 H555 0.930 . S
C563 C564 1.355 1_554 S
C563 C565 1.415 . S
C564 C563 1.355 1_556 S
C564 C566 1.419 . S
C565 C560 1.425 1_554 S
C565 C562 1.409 . S
C565 C563 1.415 . S
C566 H556 0.930 . S
C566 C564 1.419 . S
C566 C567 1.362 . S
C567 H557 0.930 . S
C567 C560 1.409 . S
C567 C566 1.362 . S
H568 C574 0.930 . S
H569 C577 0.930 . S
H570 C578 0.930 . S
H571 C579 0.930 . S
H572 C582 0.930 . S
H573 C583 0.930 . S
C574 H568 0.930 . S
C574 C575 1.355 1_455 S
C574 C576 1.415 . S
C575 C574 1.355 1_655 S
C575 C577 1.419 . S
C576 C574 1.415 . S
C576 C581 1.425 1_455 S
C576 C583 1.409 . S
C577 H569 0.930 . S
C577 C575 1.419 . S
C577 C578 1.362 . S
C578 H570 0.930 . S
C578 C577 1.362 . S
C578 C581 1.409 . S
C579 H571 0.930 . S
C579 C580 1.355 . S
C579 C581 1.415 . S
C580 C579 1.355 . S
C580 C582 1.419 1_655 S
C581 C576 1.425 1_655 S
C581 C578 1.409 . S
C581 C579 1.415 . S
C582 H572 0.930 . S
C582 C580 1.419 1_455 S
C582 C583 1.362 . S
C583 H573 0.930 . S
C583 C576 1.409 . S
C583 C582 1.362 . S
H584 C590 0.930 . S
H585 C593 0.930 . S
H586 C594 0.930 . S
H587 C595 0.930 . S
H588 C598 0.930 . S
H589 C599 0.930 . S
C590 H584 0.930 . S
C590 C591 1.355 1_545 S
C590 C592 1.415 . S
C591 C590 1.355 1_565 S
C591 C593 1.419 . S
C592 C590 1.415 . S
C592 C597 1.425 1_545 S
C592 C599 1.409 . S
C593 H585 0.930 . S
C593 C591 1.419 . S
C593 C594 1.362 . S
C594 H586 0.930 . S
C594 C593 1.362 . S
C594 C597 1.409 . S
C595 H587 0.930 . S
C595 C596 1.355 . S
C595 C597 1.415 . S
C596 C595 1.355 . S
C596 C598 1.419 1_565 S
C597 C592 1.425 1_565 S
C597 C594 1.409 . S
C597 C595 1.415 . S
C598 H588 0.930 . S
C598 C596 1.419 1_545 S
C598 C599 1.362 . S
C599 H589 0.930 . S
C599 C592 1.409 . S
C599 C598 1.362 . S
H600 C606 0.930 . S
H601 C609 0.930 . S
H602 C610 0.930 . S
H603 C611 0.930 . S
H604 C614 0.930 . S
H605 C615 0.930 . S
C606 H600 0.930 . S
C606 C607 1.355 . S
C606 C608 1.415 . S
C607 C606 1.355 . S
C607 C609 1.419 . S
C608 C606 1.415 . S
C608 C613 1.425 . S
C608 C615 1.409 . S
C609 H601 0.930 . S
C609 C607 1.419 . S
C609 C610 1.362 . S
C610 H602 0.930 . S
C610 C609 1.362 . S
C610 C613 1.409 . S
C611 H603 0.930 . S
C611 C612 1.355 . S
C611 C613 1.415 . S
C612 C611 1.355 . S
C612 C614 1.419 . S
C613 C608 1.425 . S
C613 C610 1.409 . S
C613 C611 1.415 . S
C614 H604 0.930 . S
C614 C612 1.419 . S
C614 C615 1.362 . S
C615 H605 0.930 . S
C615 C608 1.409 . S
C615 C614 1.362 . S
H616 C622 0.930 . S
H617 C625 0.930 . S
H618 C626 0.930 . S
H619 C627 0.930 . S
H620 C630 0.930 . S
H621 C631 0.930 . S
C622 H616 0.930 . S
C622 C623 1.355 . S
C622 C624 1.415 . S
C623 C622 1.355 . S
C623 C625 1.419 . S
C624 C622 1.415 . S
C624 C629 1.425 . S
C624 C631 1.409 . S
C625 H617 0.930 . S
C625 C623 1.419 . S
C625 C626 1.362 . S
C626 H618 0.930 . S
C626 C625 1.362 . S
C626 C629 1.409 . S
C627 H619 0.930 . S
C627 C628 1.355 . S
C627 C629 1.415 . S
C628 C627 1.355 . S
C628 C630 1.419 . S
C629 C624 1.425 . S
C629 C626 1.409 . S
C629 C627 1.415 . S
C630 H620 0.930 . S
C630 C628 1.419 . S
C630 C631 1.362 . S
C631 H621 0.930 . S
C631 C624 1.409 . S
C631 C630 1.362 . S
C255 C76 1.957 . S
C260 C111 2.110 1_545 S
C276 C151 1.741 . S
C271 C87 1.771 . S
C292 C170 2.121 . S
C287 C54 1.905 . S
C308 C231 1.490 1_455 S
C303 C65 1.376 . S
C324 C90 2.090 1_564 S
C319 C32 1.953 . S
C335 C43 1.766 . S
C340 C130 1.761 . S
C351 C10 1.907 . S
C356 C191 2.110 1_554 S
C367 C21 1.389 1_455 S
C372 C210 1.491 1_654 S
C388 C92 1.033 . S
C383 C60 1.039 . S
C404 C132 0.477 . S
C399 C71 0.414 . S
C420 C188 1.144 . S
C415 C82 1.089 . S
C431 C49 0.545 . S
C436 C212 0.485 . S
C447 C16 0.933 . S
C452 C113 0.919 . S
C468 C153 0.464 . S
C463 C27 0.539 1_565 S
C484 C199 1.157 . S
C479 C38 1.034 . S
C495 C5 0.633 . S
C500 C233 0.582 . S
C511 C59 1.489 . S
C516 C108 1.714 . S
C527 C70 2.252 . S
C532 C148 2.457 . S
C548 C172 1.546 . S
C543 C81 1.518 . S
C564 C228 2.437 . S
C559 C48 2.171 . S
C575 C15 1.554 1_655 S
C580 C119 1.694 . S
C596 C159 2.450 . S
C591 C26 2.242 1_565 S
C612 C193 1.513 . S
C607 C37 1.533 . S
C623 C4 2.213 . S
C628 C239 2.456 . S
