# Generated by pormake.
# Topology tbo, (3,4)-cn, num edge types: 1
# Building blocks:
#     Node 0, Type 0, BuildingBlock: KAKCAD_clean_linker_0, # of connection points: 3
#     Node 1, Type 0, BuildingBlock: KAKCAD_clean_linker_0, # of connection points: 3
#     Node 2, Type 0, BuildingBlock: KAKCAD_clean_linker_0, # of connection points: 3
#     Node 3, Type 0, BuildingBlock: KAKCAD_clean_linker_0, # of connection points: 3
#     Node 4, Type 0, BuildingBlock: KAKCAD_clean_linker_0, # of connection points: 3
#     Node 5, Type 0, BuildingBlock: KAKCAD_clean_linker_0, # of connection points: 3
#     Node 6, Type 0, BuildingBlock: KAKCAD_clean_linker_0, # of connection points: 3
#     Node 7, Type 0, BuildingBlock: KAKCAD_clean_linker_0, # of connection points: 3
#     Node 8, Type 0, BuildingBlock: KAKCAD_clean_linker_0, # of connection points: 3
#     Node 9, Type 0, BuildingBlock: KAKCAD_clean_linker_0, # of connection points: 3
#     Node 10, Type 0, BuildingBlock: KAKCAD_clean_linker_0, # of connection points: 3
#     Node 11, Type 0, BuildingBlock: KAKCAD_clean_linker_0, # of connection points: 3
#     Node 12, Type 0, BuildingBlock: KAKCAD_clean_linker_0, # of connection points: 3
#     Node 13, Type 0, BuildingBlock: KAKCAD_clean_linker_0, # of connection points: 3
#     Node 14, Type 0, BuildingBlock: KAKCAD_clean_linker_0, # of connection points: 3
#     Node 15, Type 0, BuildingBlock: KAKCAD_clean_linker_0, # of connection points: 3
#     Node 16, Type 0, BuildingBlock: KAKCAD_clean_linker_0, # of connection points: 3
#     Node 17, Type 0, BuildingBlock: KAKCAD_clean_linker_0, # of connection points: 3
#     Node 18, Type 0, BuildingBlock: KAKCAD_clean_linker_0, # of connection points: 3
#     Node 19, Type 0, BuildingBlock: KAKCAD_clean_linker_0, # of connection points: 3
#     Node 20, Type 0, BuildingBlock: KAKCAD_clean_linker_0, # of connection points: 3
#     Node 21, Type 0, BuildingBlock: KAKCAD_clean_linker_0, # of connection points: 3
#     Node 22, Type 0, BuildingBlock: KAKCAD_clean_linker_0, # of connection points: 3
#     Node 23, Type 0, BuildingBlock: KAKCAD_clean_linker_0, # of connection points: 3
#     Node 24, Type 0, BuildingBlock: KAKCAD_clean_linker_0, # of connection points: 3
#     Node 25, Type 0, BuildingBlock: KAKCAD_clean_linker_0, # of connection points: 3
#     Node 26, Type 0, BuildingBlock: KAKCAD_clean_linker_0, # of connection points: 3
#     Node 27, Type 0, BuildingBlock: KAKCAD_clean_linker_0, # of connection points: 3
#     Node 28, Type 0, BuildingBlock: KAKCAD_clean_linker_0, # of connection points: 3
#     Node 29, Type 0, BuildingBlock: KAKCAD_clean_linker_0, # of connection points: 3
#     Node 30, Type 0, BuildingBlock: KAKCAD_clean_linker_0, # of connection points: 3
#     Node 31, Type 0, BuildingBlock: KAKCAD_clean_linker_0, # of connection points: 3
#     Node 32, Type 1, BuildingBlock: ESEHIV_clean_sbu_0, # of connection points: 4
#     Node 33, Type 1, BuildingBlock: ESEHIV_clean_sbu_0, # of connection points: 4
#     Node 34, Type 1, BuildingBlock: ESEHIV_clean_sbu_0, # of connection points: 4
#     Node 35, Type 1, BuildingBlock: ESEHIV_clean_sbu_0, # of connection points: 4
#     Node 36, Type 1, BuildingBlock: ESEHIV_clean_sbu_0, # of connection points: 4
#     Node 37, Type 1, BuildingBlock: ESEHIV_clean_sbu_0, # of connection points: 4
#     Node 38, Type 1, BuildingBlock: ESEHIV_clean_sbu_0, # of connection points: 4
#     Node 39, Type 1, BuildingBlock: ESEHIV_clean_sbu_0, # of connection points: 4
#     Node 40, Type 1, BuildingBlock: ESEHIV_clean_sbu_0, # of connection points: 4
#     Node 41, Type 1, BuildingBlock: ESEHIV_clean_sbu_0, # of connection points: 4
#     Node 42, Type 1, BuildingBlock: ESEHIV_clean_sbu_0, # of connection points: 4
#     Node 43, Type 1, BuildingBlock: ESEHIV_clean_sbu_0, # of connection points: 4
#     Node 44, Type 1, BuildingBlock: ESEHIV_clean_sbu_0, # of connection points: 4
#     Node 45, Type 1, BuildingBlock: ESEHIV_clean_sbu_0, # of connection points: 4
#     Node 46, Type 1, BuildingBlock: ESEHIV_clean_sbu_0, # of connection points: 4
#     Node 47, Type 1, BuildingBlock: ESEHIV_clean_sbu_0, # of connection points: 4
#     Node 48, Type 1, BuildingBlock: ESEHIV_clean_sbu_0, # of connection points: 4
#     Node 49, Type 1, BuildingBlock: ESEHIV_clean_sbu_0, # of connection points: 4
#     Node 50, Type 1, BuildingBlock: ESEHIV_clean_sbu_0, # of connection points: 4
#     Node 51, Type 1, BuildingBlock: ESEHIV_clean_sbu_0, # of connection points: 4
#     Node 52, Type 1, BuildingBlock: ESEHIV_clean_sbu_0, # of connection points: 4
#     Node 53, Type 1, BuildingBlock: ESEHIV_clean_sbu_0, # of connection points: 4
#     Node 54, Type 1, BuildingBlock: ESEHIV_clean_sbu_0, # of connection points: 4
#     Node 55, Type 1, BuildingBlock: ESEHIV_clean_sbu_0, # of connection points: 4
#     Edge 56, Type (0, 1), BuildingBlock: KIFKEQ_clean_linker_1, # of connection points: 2
#     Edge 57, Type (0, 1), BuildingBlock: KIFKEQ_clean_linker_1, # of connection points: 2
#     Edge 58, Type (0, 1), BuildingBlock: KIFKEQ_clean_linker_1, # of connection points: 2
#     Edge 59, Type (0, 1), BuildingBlock: KIFKEQ_clean_linker_1, # of connection points: 2
#     Edge 60, Type (0, 1), BuildingBlock: KIFKEQ_clean_linker_1, # of connection points: 2
#     Edge 61, Type (0, 1), BuildingBlock: KIFKEQ_clean_linker_1, # of connection points: 2
#     Edge 62, Type (0, 1), BuildingBlock: KIFKEQ_clean_linker_1, # of connection points: 2
#     Edge 63, Type (0, 1), BuildingBlock: KIFKEQ_clean_linker_1, # of connection points: 2
#     Edge 64, Type (0, 1), BuildingBlock: KIFKEQ_clean_linker_1, # of connection points: 2
#     Edge 65, Type (0, 1), BuildingBlock: KIFKEQ_clean_linker_1, # of connection points: 2
#     Edge 66, Type (0, 1), BuildingBlock: KIFKEQ_clean_linker_1, # of connection points: 2
#     Edge 67, Type (0, 1), BuildingBlock: KIFKEQ_clean_linker_1, # of connection points: 2
#     Edge 68, Type (0, 1), BuildingBlock: KIFKEQ_clean_linker_1, # of connection points: 2
#     Edge 69, Type (0, 1), BuildingBlock: KIFKEQ_clean_linker_1, # of connection points: 2
#     Edge 70, Type (0, 1), BuildingBlock: KIFKEQ_clean_linker_1, # of connection points: 2
#     Edge 71, Type (0, 1), BuildingBlock: KIFKEQ_clean_linker_1, # of connection points: 2
#     Edge 72, Type (0, 1), BuildingBlock: KIFKEQ_clean_linker_1, # of connection points: 2
#     Edge 73, Type (0, 1), BuildingBlock: KIFKEQ_clean_linker_1, # of connection points: 2
#     Edge 74, Type (0, 1), BuildingBlock: KIFKEQ_clean_linker_1, # of connection points: 2
#     Edge 75, Type (0, 1), BuildingBlock: KIFKEQ_clean_linker_1, # of connection points: 2
#     Edge 76, Type (0, 1), BuildingBlock: KIFKEQ_clean_linker_1, # of connection points: 2
#     Edge 77, Type (0, 1), BuildingBlock: KIFKEQ_clean_linker_1, # of connection points: 2
#     Edge 78, Type (0, 1), BuildingBlock: KIFKEQ_clean_linker_1, # of connection points: 2
#     Edge 79, Type (0, 1), BuildingBlock: KIFKEQ_clean_linker_1, # of connection points: 2
#     Edge 80, Type (0, 1), BuildingBlock: KIFKEQ_clean_linker_1, # of connection points: 2
#     Edge 81, Type (0, 1), BuildingBlock: KIFKEQ_clean_linker_1, # of connection points: 2
#     Edge 82, Type (0, 1), BuildingBlock: KIFKEQ_clean_linker_1, # of connection points: 2
#     Edge 83, Type (0, 1), BuildingBlock: KIFKEQ_clean_linker_1, # of connection points: 2
#     Edge 84, Type (0, 1), BuildingBlock: KIFKEQ_clean_linker_1, # of connection points: 2
#     Edge 85, Type (0, 1), BuildingBlock: KIFKEQ_clean_linker_1, # of connection points: 2
#     Edge 86, Type (0, 1), BuildingBlock: KIFKEQ_clean_linker_1, # of connection points: 2
#     Edge 87, Type (0, 1), BuildingBlock: KIFKEQ_clean_linker_1, # of connection points: 2
#     Edge 88, Type (0, 1), BuildingBlock: KIFKEQ_clean_linker_1, # of connection points: 2
#     Edge 89, Type (0, 1), BuildingBlock: KIFKEQ_clean_linker_1, # of connection points: 2
#     Edge 90, Type (0, 1), BuildingBlock: KIFKEQ_clean_linker_1, # of connection points: 2
#     Edge 91, Type (0, 1), BuildingBlock: KIFKEQ_clean_linker_1, # of connection points: 2
#     Edge 92, Type (0, 1), BuildingBlock: KIFKEQ_clean_linker_1, # of connection points: 2
#     Edge 93, Type (0, 1), BuildingBlock: KIFKEQ_clean_linker_1, # of connection points: 2
#     Edge 94, Type (0, 1), BuildingBlock: KIFKEQ_clean_linker_1, # of connection points: 2
#     Edge 95, Type (0, 1), BuildingBlock: KIFKEQ_clean_linker_1, # of connection points: 2
#     Edge 96, Type (0, 1), BuildingBlock: KIFKEQ_clean_linker_1, # of connection points: 2
#     Edge 97, Type (0, 1), BuildingBlock: KIFKEQ_clean_linker_1, # of connection points: 2
#     Edge 98, Type (0, 1), BuildingBlock: KIFKEQ_clean_linker_1, # of connection points: 2
#     Edge 99, Type (0, 1), BuildingBlock: KIFKEQ_clean_linker_1, # of connection points: 2
#     Edge 100, Type (0, 1), BuildingBlock: KIFKEQ_clean_linker_1, # of connection points: 2
#     Edge 101, Type (0, 1), BuildingBlock: KIFKEQ_clean_linker_1, # of connection points: 2
#     Edge 102, Type (0, 1), BuildingBlock: KIFKEQ_clean_linker_1, # of connection points: 2
#     Edge 103, Type (0, 1), BuildingBlock: KIFKEQ_clean_linker_1, # of connection points: 2
#     Edge 104, Type (0, 1), BuildingBlock: KIFKEQ_clean_linker_1, # of connection points: 2
#     Edge 105, Type (0, 1), BuildingBlock: KIFKEQ_clean_linker_1, # of connection points: 2
#     Edge 106, Type (0, 1), BuildingBlock: KIFKEQ_clean_linker_1, # of connection points: 2
#     Edge 107, Type (0, 1), BuildingBlock: KIFKEQ_clean_linker_1, # of connection points: 2
#     Edge 108, Type (0, 1), BuildingBlock: KIFKEQ_clean_linker_1, # of connection points: 2
#     Edge 109, Type (0, 1), BuildingBlock: KIFKEQ_clean_linker_1, # of connection points: 2
#     Edge 110, Type (0, 1), BuildingBlock: KIFKEQ_clean_linker_1, # of connection points: 2
#     Edge 111, Type (0, 1), BuildingBlock: KIFKEQ_clean_linker_1, # of connection points: 2
#     Edge 112, Type (0, 1), BuildingBlock: KIFKEQ_clean_linker_1, # of connection points: 2
#     Edge 113, Type (0, 1), BuildingBlock: KIFKEQ_clean_linker_1, # of connection points: 2
#     Edge 114, Type (0, 1), BuildingBlock: KIFKEQ_clean_linker_1, # of connection points: 2
#     Edge 115, Type (0, 1), BuildingBlock: KIFKEQ_clean_linker_1, # of connection points: 2
#     Edge 116, Type (0, 1), BuildingBlock: KIFKEQ_clean_linker_1, # of connection points: 2
#     Edge 117, Type (0, 1), BuildingBlock: KIFKEQ_clean_linker_1, # of connection points: 2
#     Edge 118, Type (0, 1), BuildingBlock: KIFKEQ_clean_linker_1, # of connection points: 2
#     Edge 119, Type (0, 1), BuildingBlock: KIFKEQ_clean_linker_1, # of connection points: 2
#     Edge 120, Type (0, 1), BuildingBlock: KIFKEQ_clean_linker_1, # of connection points: 2
#     Edge 121, Type (0, 1), BuildingBlock: KIFKEQ_clean_linker_1, # of connection points: 2
#     Edge 122, Type (0, 1), BuildingBlock: KIFKEQ_clean_linker_1, # of connection points: 2
#     Edge 123, Type (0, 1), BuildingBlock: KIFKEQ_clean_linker_1, # of connection points: 2
#     Edge 124, Type (0, 1), BuildingBlock: KIFKEQ_clean_linker_1, # of connection points: 2
#     Edge 125, Type (0, 1), BuildingBlock: KIFKEQ_clean_linker_1, # of connection points: 2
#     Edge 126, Type (0, 1), BuildingBlock: KIFKEQ_clean_linker_1, # of connection points: 2
#     Edge 127, Type (0, 1), BuildingBlock: KIFKEQ_clean_linker_1, # of connection points: 2
#     Edge 128, Type (0, 1), BuildingBlock: KIFKEQ_clean_linker_1, # of connection points: 2
#     Edge 129, Type (0, 1), BuildingBlock: KIFKEQ_clean_linker_1, # of connection points: 2
#     Edge 130, Type (0, 1), BuildingBlock: KIFKEQ_clean_linker_1, # of connection points: 2
#     Edge 131, Type (0, 1), BuildingBlock: KIFKEQ_clean_linker_1, # of connection points: 2
#     Edge 132, Type (0, 1), BuildingBlock: KIFKEQ_clean_linker_1, # of connection points: 2
#     Edge 133, Type (0, 1), BuildingBlock: KIFKEQ_clean_linker_1, # of connection points: 2
#     Edge 134, Type (0, 1), BuildingBlock: KIFKEQ_clean_linker_1, # of connection points: 2
#     Edge 135, Type (0, 1), BuildingBlock: KIFKEQ_clean_linker_1, # of connection points: 2
#     Edge 136, Type (0, 1), BuildingBlock: KIFKEQ_clean_linker_1, # of connection points: 2
#     Edge 137, Type (0, 1), BuildingBlock: KIFKEQ_clean_linker_1, # of connection points: 2
#     Edge 138, Type (0, 1), BuildingBlock: KIFKEQ_clean_linker_1, # of connection points: 2
#     Edge 139, Type (0, 1), BuildingBlock: KIFKEQ_clean_linker_1, # of connection points: 2
#     Edge 140, Type (0, 1), BuildingBlock: KIFKEQ_clean_linker_1, # of connection points: 2
#     Edge 141, Type (0, 1), BuildingBlock: KIFKEQ_clean_linker_1, # of connection points: 2
#     Edge 142, Type (0, 1), BuildingBlock: KIFKEQ_clean_linker_1, # of connection points: 2
#     Edge 143, Type (0, 1), BuildingBlock: KIFKEQ_clean_linker_1, # of connection points: 2
#     Edge 144, Type (0, 1), BuildingBlock: KIFKEQ_clean_linker_1, # of connection points: 2
#     Edge 145, Type (0, 1), BuildingBlock: KIFKEQ_clean_linker_1, # of connection points: 2
#     Edge 146, Type (0, 1), BuildingBlock: KIFKEQ_clean_linker_1, # of connection points: 2
#     Edge 147, Type (0, 1), BuildingBlock: KIFKEQ_clean_linker_1, # of connection points: 2
#     Edge 148, Type (0, 1), BuildingBlock: KIFKEQ_clean_linker_1, # of connection points: 2
#     Edge 149, Type (0, 1), BuildingBlock: KIFKEQ_clean_linker_1, # of connection points: 2
#     Edge 150, Type (0, 1), BuildingBlock: KIFKEQ_clean_linker_1, # of connection points: 2
#     Edge 151, Type (0, 1), BuildingBlock: KIFKEQ_clean_linker_1, # of connection points: 2
# Relax obj value: 0.002
# Max RMSD: 0.116
# Mean RMSD: 0.048
data_MOF--net-tbo--node1-ESEHIV_clean_sbu_0--node2-KAKCAD_clean_linker_0--edge1-KIFKEQ_clean_linker_1
_symmetry_space_group_name_H-M    P1
_symmetry_Int_Tables_number       1
_symmetry_cell_setting            triclinic
loop_
_symmetry_equiv_pos_as_xyz
'x, y, z'
_cell_length_a     92.063212
_cell_length_b     91.851922
_cell_length_c     91.790138
_cell_angle_alpha  90.254371
_cell_angle_beta   92.0958
_cell_angle_gamma 90.729211
loop_
_atom_site_label
_atom_site_type_symbol
_atom_site_fract_x
_atom_site_fract_y
_atom_site_fract_z
_atom_type_partial_charge
C0 C 0.21717 0.19449 0.12913 0.0
C1 C 0.22005 0.20947 0.13119 0.0
C2 C 0.21118 0.18615 0.14025 0.0
C3 C 0.20781 0.19268 0.15356 0.0
C4 C 0.21105 0.20755 0.15572 0.0
C5 C 0.2171 0.21583 0.1447 0.0
C6 C 0.2001 0.18445 0.16493 0.0
C7 C 0.20481 0.17071 0.16971 0.0
C8 C 0.19781 0.16347 0.18109 0.0
C9 C 0.18586 0.17019 0.18749 0.0
C10 C 0.18099 0.1839 0.18276 0.0
C11 C 0.18809 0.19076 0.17134 0.0
C12 C 0.16871 0.19137 0.18979 0.0
C13 C 0.15638 0.18358 0.19419 0.0
C14 C 0.1691 0.20658 0.19176 0.0
C15 C 0.15736 0.21385 0.19749 0.0
C16 C 0.14492 0.20614 0.20171 0.0
C17 C 0.20326 0.1492 0.18668 0.0
C18 C 0.20815 0.13841 0.17714 0.0
C19 C 0.20364 0.14627 0.20172 0.0
C20 C 0.20863 0.13294 0.20706 0.0
C21 C 0.21351 0.12212 0.19756 0.0
C22 C 0.21319 0.12504 0.18251 0.0
C23 C 0.14466 0.19087 0.20012 0.0
H24 H 0.21946 0.18923 0.1189 0.0
H25 H 0.20875 0.17473 0.13828 0.0
H26 H 0.20871 0.21286 0.16591 0.0
H27 H 0.21904 0.22734 0.14663 0.0
H28 H 0.21426 0.16595 0.16496 0.0
H29 H 0.18418 0.20111 0.16726 0.0
H30 H 0.18043 0.16479 0.19628 0.0
H31 H 0.15563 0.17188 0.19278 0.0
H32 H 0.17851 0.21296 0.18881 0.0
H33 H 0.15799 0.2256 0.19832 0.0
H34 H 0.20792 0.14022 0.16549 0.0
H35 H 0.20019 0.15435 0.20945 0.0
H36 H 0.13539 0.18449 0.20346 0.0
H37 H 0.21695 0.11704 0.17486 0.0
H38 H 0.20845 0.13106 0.21869 0.0
C39 C 0.91513 0.21426 0.21508 0.0
C40 C 0.92692 0.20491 0.2179 0.0
C41 C 0.90256 0.20925 0.20746 0.0
C42 C 0.90139 0.19474 0.20268 0.0
C43 C 0.91316 0.18542 0.20534 0.0
C44 C 0.9258 0.19045 0.21275 0.0
C45 C 0.88772 0.18909 0.19552 0.0
C46 C 0.88107 0.1964 0.18368 0.0
C47 C 0.86813 0.19094 0.17687 0.0
C48 C 0.8618 0.17809 0.18232 0.0
C49 C 0.8683 0.17067 0.1942 0.0
C50 C 0.88128 0.17627 0.20066 0.0
C51 C 0.86155 0.15719 0.20009 0.0
C52 C 0.84643 0.1561 0.20167 0.0
C53 C 0.87026 0.14547 0.20466 0.0
C54 C 0.86409 0.13315 0.21097 0.0
C55 C 0.84902 0.13217 0.21282 0.0
C56 C 0.86133 0.19849 0.16399 0.0
C57 C 0.86115 0.2138 0.16327 0.0
C58 C 0.85504 0.19045 0.15223 0.0
C59 C 0.84871 0.1975 0.14014 0.0
C60 C 0.84858 0.21278 0.13941 0.0
C61 C 0.85489 0.22084 0.15113 0.0
C62 C 0.84024 0.14373 0.20794 0.0
H63 H 0.91542 0.22538 0.21903 0.0
H64 H 0.89358 0.21662 0.20569 0.0
H65 H 0.9126 0.1742 0.20164 0.0
H66 H 0.93471 0.18299 0.21434 0.0
H67 H 0.88623 0.20612 0.17953 0.0
H68 H 0.88622 0.17087 0.21004 0.0
H69 H 0.85179 0.17384 0.17729 0.0
H70 H 0.83941 0.16498 0.19845 0.0
H71 H 0.88191 0.14581 0.20335 0.0
H72 H 0.87113 0.12433 0.21435 0.0
H73 H 0.86567 0.22037 0.17219 0.0
H74 H 0.85521 0.17867 0.15224 0.0
H75 H 0.82861 0.14339 0.20934 0.0
H76 H 0.8548 0.23263 0.15101 0.0
H77 H 0.84415 0.19095 0.13122 0.0
C78 C 0.81069 0.82899 0.12813 0.0
C79 C 0.80828 0.83871 0.11651 0.0
C80 C 0.81734 0.8338 0.14131 0.0
C81 C 0.82145 0.84849 0.14323 0.0
C82 C 0.81907 0.85819 0.1316 0.0
C83 C 0.81268 0.85333 0.11836 0.0
C84 C 0.82769 0.85386 0.15749 0.0
C85 C 0.83947 0.84679 0.16453 0.0
C86 C 0.84545 0.85204 0.17795 0.0
C87 C 0.83916 0.8643 0.18437 0.0
C88 C 0.82729 0.87143 0.17759 0.0
C89 C 0.82173 0.86617 0.16408 0.0
C90 C 0.82067 0.88427 0.18474 0.0
C91 C 0.81915 0.88457 0.19993 0.0
C92 C 0.816 0.89639 0.17655 0.0
C93 C 0.81026 0.9086 0.18342 0.0
C94 C 0.80916 0.909 0.19865 0.0
C95 C 0.85826 0.84491 0.18535 0.0
C96 C 0.85965 0.82967 0.18546 0.0
C97 C 0.86907 0.85337 0.19277 0.0
C98 C 0.88068 0.84681 0.20037 0.0
C99 C 0.88199 0.83156 0.20069 0.0
C100 C 0.87135 0.82309 0.193 0.0
C101 C 0.81352 0.89677 0.20679 0.0
H102 H 0.80751 0.81763 0.12698 0.0
H103 H 0.81896 0.8261 0.15011 0.0
H104 H 0.82219 0.86956 0.13276 0.0
H105 H 0.81092 0.86108 0.10963 0.0
H106 H 0.84423 0.83748 0.15932 0.0
H107 H 0.81244 0.87139 0.15884 0.0
H108 H 0.84353 0.86834 0.19475 0.0
H109 H 0.82226 0.87533 0.20658 0.0
H110 H 0.81712 0.89661 0.16485 0.0
H111 H 0.80709 0.91788 0.17687 0.0
H112 H 0.85153 0.82277 0.17997 0.0
H113 H 0.86858 0.86514 0.19275 0.0
H114 H 0.81255 0.89662 0.21851 0.0
H115 H 0.87205 0.81133 0.19277 0.0
H116 H 0.88848 0.85376 0.20626 0.0
C117 C 0.1617 0.80334 0.13034 0.0
C118 C 0.17669 0.80519 0.12834 0.0
C119 C 0.15541 0.80829 0.143 0.0
C120 C 0.16393 0.81493 0.15426 0.0
C121 C 0.17898 0.81653 0.15243 0.0
C122 C 0.18526 0.8118 0.1396 0.0
C123 C 0.15697 0.82037 0.16765 0.0
C124 C 0.14486 0.81298 0.1731 0.0
C125 C 0.13727 0.8186 0.18483 0.0
C126 C 0.14231 0.83157 0.19158 0.0
C127 C 0.15469 0.83888 0.18666 0.0
C128 C 0.16191 0.83326 0.17466 0.0
C129 C 0.15992 0.85261 0.19379 0.0
C130 C 0.15026 0.86397 0.19635 0.0
C131 C 0.17465 0.85449 0.19796 0.0
C132 C 0.17962 0.86743 0.20464 0.0
C133 C 0.17002 0.87892 0.2071 0.0
C134 C 0.12385 0.81109 0.18963 0.0
C135 C 0.11371 0.80528 0.17926 0.0
C136 C 0.12102 0.8097 0.2045 0.0
C137 C 0.10831 0.80272 0.20889 0.0
C138 C 0.09814 0.79698 0.1985 0.0
C139 C 0.10104 0.7983 0.18364 0.0
C140 C 0.15526 0.877 0.20282 0.0
H141 H 0.15474 0.79805 0.12211 0.0
H142 H 0.14375 0.80707 0.14379 0.0
H143 H 0.18595 0.82141 0.16091 0.0
H144 H 0.19681 0.81357 0.13844 0.0
H145 H 0.14129 0.80272 0.16822 0.0
H146 H 0.17104 0.83929 0.17049 0.0
H147 H 0.13653 0.83607 0.20061 0.0
H148 H 0.13887 0.86288 0.19307 0.0
H149 H 0.18231 0.84584 0.19624 0.0
H150 H 0.19099 0.86831 0.20802 0.0
H151 H 0.11545 0.80631 0.1677 0.0
H152 H 0.12865 0.81394 0.21277 0.0
H153 H 0.14755 0.88566 0.20424 0.0
H154 H 0.09351 0.79392 0.17535 0.0
H155 H 0.10634 0.80206 0.22043 0.0
C156 C 0.13663 0.83823 0.8312 0.0
C157 C 0.13611 0.83574 0.81605 0.0
C158 C 0.149 0.84457 0.83813 0.0
C159 C 0.16102 0.84871 0.83001 0.0
C160 C 0.16046 0.84619 0.81487 0.0
C161 C 0.14819 0.83977 0.80799 0.0
C162 C 0.17402 0.85594 0.83709 0.0
C163 C 0.1804 0.85063 0.85014 0.0
C164 C 0.19318 0.85712 0.85628 0.0
C165 C 0.19941 0.86919 0.8493 0.0
C166 C 0.193 0.87482 0.83639 0.0
C167 C 0.18029 0.86812 0.83046 0.0
C168 C 0.19934 0.88773 0.829 0.0
C169 C 0.20483 0.89976 0.8371 0.0
C170 C 0.19934 0.88837 0.81368 0.0
C171 C 0.2042 0.90087 0.80664 0.0
C172 C 0.20933 0.91302 0.81471 0.0
C173 C 0.20017 0.85112 0.86982 0.0
C174 C 0.19186 0.84777 0.88192 0.0
C175 C 0.21521 0.84862 0.87071 0.0
C176 C 0.22176 0.84274 0.88334 0.0
C177 C 0.21348 0.83938 0.89552 0.0
C178 C 0.19843 0.84208 0.89463 0.0
C179 C 0.20981 0.91226 0.83003 0.0
H180 H 0.12756 0.83509 0.83774 0.0
H181 H 0.14907 0.84645 0.84979 0.0
H182 H 0.1696 0.84912 0.80832 0.0
H183 H 0.14811 0.83808 0.7963 0.0
H184 H 0.17573 0.84113 0.85524 0.0
H185 H 0.17506 0.87256 0.82072 0.0
H186 H 0.20927 0.87418 0.85393 0.0
H187 H 0.20485 0.89972 0.8489 0.0
H188 H 0.19552 0.87919 0.80709 0.0
H189 H 0.20397 0.90101 0.79483 0.0
H190 H 0.18028 0.84974 0.88163 0.0
H191 H 0.22188 0.85093 0.8615 0.0
H192 H 0.21362 0.92149 0.83655 0.0
H193 H 0.19168 0.83994 0.90382 0.0
H194 H 0.23329 0.84059 0.88342 0.0
C195 C 0.2244 0.20602 0.91802 0.0
C196 C 0.23951 0.20862 0.91844 0.0
C197 C 0.21722 0.20075 0.90534 0.0
C198 C 0.22495 0.19789 0.89274 0.0
C199 C 0.24007 0.20043 0.89315 0.0
C200 C 0.24726 0.20578 0.90583 0.0
C201 C 0.21726 0.19221 0.87926 0.0
C202 C 0.20377 0.19791 0.87459 0.0
C203 C 0.19629 0.1925 0.862 0.0
C204 C 0.20256 0.18118 0.85403 0.0
C205 C 0.21608 0.17533 0.85851 0.0
C206 C 0.2233 0.18096 0.87113 0.0
C207 C 0.22265 0.16317 0.85025 0.0
C208 C 0.21411 0.15129 0.84509 0.0
C209 C 0.23767 0.16313 0.84788 0.0
C210 C 0.24401 0.15145 0.84075 0.0
C211 C 0.23553 0.13945 0.83579 0.0
C212 C 0.18201 0.19882 0.85722 0.0
C213 C 0.17166 0.20243 0.86751 0.0
C214 C 0.17873 0.20165 0.84241 0.0
C215 C 0.16555 0.20811 0.83806 0.0
C216 C 0.15527 0.21186 0.84838 0.0
C217 C 0.15848 0.20884 0.86316 0.0
C218 C 0.22047 0.13957 0.83799 0.0
H219 H 0.21805 0.20827 0.92745 0.0
H220 H 0.2056 0.19879 0.90545 0.0
H221 H 0.24634 0.19845 0.8836 0.0
H222 H 0.2589 0.20759 0.90579 0.0
H223 H 0.19924 0.20685 0.8806 0.0
H224 H 0.23349 0.17625 0.8749 0.0
H225 H 0.1969 0.1769 0.84435 0.0
H226 H 0.20254 0.1509 0.84683 0.0
H227 H 0.24456 0.17216 0.85157 0.0
H228 H 0.25565 0.1517 0.83936 0.0
H229 H 0.17372 0.20026 0.87899 0.0
H230 H 0.18647 0.19914 0.83419 0.0
H231 H 0.21357 0.13061 0.83418 0.0
H232 H 0.15093 0.21168 0.87145 0.0
H233 H 0.16341 0.21011 0.82657 0.0
C234 C 0.84899 0.1312 0.82837 0.0
C235 C 0.83374 0.13202 0.82838 0.0
C236 C 0.85771 0.14295 0.83328 0.0
C237 C 0.85135 0.15574 0.83839 0.0
C238 C 0.83611 0.15663 0.83821 0.0
C239 C 0.82742 0.14492 0.83327 0.0
C240 C 0.86052 0.16799 0.84434 0.0
C241 C 0.873 0.17271 0.83722 0.0
C242 C 0.88146 0.18449 0.84278 0.0
C243 C 0.87748 0.1913 0.85579 0.0
C244 C 0.86505 0.18671 0.86299 0.0
C245 C 0.85664 0.17509 0.85719 0.0
C246 C 0.86066 0.19413 0.87649 0.0
C247 C 0.87073 0.19655 0.88814 0.0
C248 C 0.84625 0.19861 0.8779 0.0
C249 C 0.84196 0.20532 0.89071 0.0
C250 C 0.85193 0.20753 0.90253 0.0
C251 C 0.8941 0.19011 0.83474 0.0
C252 C 0.90413 0.18059 0.82868 0.0
C253 C 0.89621 0.20519 0.8331 0.0
C254 C 0.90809 0.21063 0.82574 0.0
C255 C 0.91822 0.20116 0.81978 0.0
C256 C 0.91611 0.18606 0.82134 0.0
C257 C 0.8664 0.20308 0.90105 0.0
H258 H 0.8542 0.12147 0.82452 0.0
H259 H 0.86941 0.14191 0.83336 0.0
H260 H 0.83088 0.1664 0.84192 0.0
H261 H 0.81572 0.14589 0.83354 0.0
H262 H 0.87582 0.16756 0.82708 0.0
H263 H 0.84719 0.17137 0.8629 0.0
H264 H 0.88396 0.20031 0.86024 0.0
H265 H 0.88188 0.19307 0.88738 0.0
H266 H 0.83832 0.19704 0.869 0.0
H267 H 0.83083 0.20887 0.89126 0.0
H268 H 0.90284 0.16892 0.82982 0.0
H269 H 0.8886 0.21282 0.83747 0.0
H270 H 0.87435 0.20437 0.90996 0.0
H271 H 0.92368 0.17847 0.81683 0.0
H272 H 0.90948 0.22232 0.82495 0.0
C273 C 0.82608 0.84538 0.88551 0.0
C274 C 0.83557 0.83964 0.89637 0.0
C275 C 0.8315 0.85176 0.87292 0.0
C276 C 0.84656 0.85274 0.87092 0.0
C277 C 0.85602 0.8475 0.88204 0.0
C278 C 0.85063 0.8409 0.89444 0.0
C279 C 0.85252 0.85857 0.85713 0.0
C280 C 0.84596 0.87021 0.84955 0.0
C281 C 0.85174 0.87558 0.83655 0.0
C282 C 0.86441 0.86925 0.83129 0.0
C283 C 0.87117 0.85769 0.83878 0.0
C284 C 0.86498 0.85232 0.85145 0.0
C285 C 0.88469 0.85099 0.83358 0.0
C286 C 0.88609 0.84724 0.81884 0.0
C287 C 0.896 0.84751 0.84362 0.0
C288 C 0.90819 0.84002 0.83918 0.0
C289 C 0.90943 0.83583 0.82453 0.0
C290 C 0.84449 0.88776 0.8285 0.0
C291 C 0.82925 0.8882 0.82702 0.0
C292 C 0.85266 0.89906 0.82228 0.0
C293 C 0.84573 0.9106 0.815 0.0
C294 C 0.83047 0.91114 0.81376 0.0
C295 C 0.82235 0.8997 0.81976 0.0
C296 C 0.89832 0.8397 0.81437 0.0
H297 H 0.81443 0.84492 0.88665 0.0
H298 H 0.82384 0.8556 0.86461 0.0
H299 H 0.86769 0.84833 0.88114 0.0
H300 H 0.85838 0.83648 0.90234 0.0
H301 H 0.83653 0.87534 0.85395 0.0
H302 H 0.8698 0.84295 0.85677 0.0
H303 H 0.86902 0.87328 0.82137 0.0
H304 H 0.87754 0.84971 0.81085 0.0
H305 H 0.89533 0.85041 0.85503 0.0
H306 H 0.91643 0.83713 0.84733 0.0
H307 H 0.8226 0.87956 0.83138 0.0
H308 H 0.86441 0.89916 0.82333 0.0
H309 H 0.89902 0.83681 0.80297 0.0
H310 H 0.81059 0.89956 0.81875 0.0
H311 H 0.85234 0.91928 0.81065 0.0
C312 C 0.19321 0.70443 0.60725 0.0
C313 C 0.1938 0.71974 0.60756 0.0
C314 C 0.18974 0.69654 0.61966 0.0
C315 C 0.18672 0.70375 0.63273 0.0
C316 C 0.18705 0.71907 0.633 0.0
C317 C 0.19061 0.72697 0.62058 0.0
C318 C 0.18355 0.69526 0.64606 0.0
C319 C 0.19184 0.68296 0.64978 0.0
C320 C 0.18905 0.67491 0.66237 0.0
C321 C 0.17769 0.67915 0.6712 0.0
C322 C 0.16915 0.69129 0.66763 0.0
C323 C 0.17225 0.69937 0.6551 0.0
C324 C 0.15693 0.69537 0.67694 0.0
C325 C 0.14753 0.68461 0.68228 0.0
C326 C 0.15465 0.70999 0.68071 0.0
C327 C 0.14334 0.71374 0.68974 0.0
C328 C 0.13398 0.70297 0.69513 0.0
C329 C 0.198 0.66206 0.66635 0.0
C330 C 0.20103 0.65142 0.65589 0.0
C331 C 0.20338 0.66026 0.68074 0.0
C332 C 0.21152 0.64804 0.68462 0.0
C333 C 0.21435 0.63719 0.67424 0.0
C334 C 0.20905 0.6391 0.6598 0.0
C335 C 0.13618 0.68837 0.69123 0.0
H336 H 0.19579 0.69849 0.59748 0.0
H337 H 0.18944 0.68477 0.61903 0.0
H338 H 0.18487 0.72495 0.64292 0.0
H339 H 0.19087 0.73875 0.62117 0.0
H340 H 0.20076 0.67987 0.64307 0.0
H341 H 0.16559 0.70861 0.65213 0.0
H342 H 0.17548 0.67293 0.6809 0.0
H343 H 0.14889 0.67326 0.67945 0.0
H344 H 0.16176 0.71853 0.67686 0.0
H345 H 0.14185 0.72511 0.69241 0.0
H346 H 0.1969 0.65246 0.64475 0.0
H347 H 0.20141 0.6684 0.68899 0.0
H348 H 0.12925 0.67979 0.69528 0.0
H349 H 0.2108 0.63091 0.65154 0.0
H350 H 0.21567 0.64716 0.69576 0.0
C351 C 0.8997 0.73288 0.6877 0.0
C352 C 0.91223 0.72518 0.69201 0.0
C353 C 0.88721 0.7255 0.68238 0.0
C354 C 0.88691 0.71022 0.68125 0.0
C355 C 0.89948 0.70252 0.68541 0.0
C356 C 0.912 0.70991 0.6907 0.0
C357 C 0.87346 0.70239 0.67587 0.0
C358 C 0.8652 0.70787 0.66401 0.0
C359 C 0.85217 0.70101 0.65907 0.0
C360 C 0.84757 0.68821 0.66611 0.0
C361 C 0.85582 0.68236 0.67789 0.0
C362 C 0.86871 0.68961 0.68269 0.0
C363 C 0.85103 0.66878 0.68536 0.0
C364 C 0.83638 0.66644 0.68864 0.0
C365 C 0.86123 0.65819 0.68963 0.0
C366 C 0.85695 0.6457 0.69712 0.0
C367 C 0.84234 0.64343 0.7006 0.0
C368 C 0.84362 0.70728 0.64647 0.0
C369 C 0.84268 0.72247 0.64476 0.0
C370 C 0.83681 0.69825 0.63577 0.0
C371 C 0.82957 0.70426 0.62356 0.0
C372 C 0.82901 0.71947 0.62165 0.0
C373 C 0.83559 0.72846 0.63251 0.0
C374 C 0.83209 0.65394 0.6962 0.0
H375 H 0.89953 0.74465 0.68846 0.0
H376 H 0.87768 0.73177 0.67939 0.0
H377 H 0.89967 0.69076 0.68455 0.0
H378 H 0.92139 0.70362 0.69408 0.0
H379 H 0.86915 0.71741 0.6584 0.0
H380 H 0.87486 0.68551 0.69206 0.0
H381 H 0.83758 0.68279 0.66241 0.0
H382 H 0.82825 0.6744 0.68564 0.0
H383 H 0.87258 0.65954 0.68716 0.0
H384 H 0.86518 0.63795 0.70044 0.0
H385 H 0.84754 0.72981 0.65287 0.0
H386 H 0.83735 0.68652 0.63663 0.0
H387 H 0.82072 0.6525 0.69854 0.0
H388 H 0.83557 0.74019 0.63144 0.0
H389 H 0.82442 0.69694 0.6156 0.0
C390 C 0.85525 0.32341 0.64828 0.0
C391 C 0.84952 0.33057 0.6359 0.0
C392 C 0.85901 0.33118 0.66104 0.0
C393 C 0.85735 0.3464 0.66173 0.0
C394 C 0.85155 0.35355 0.64932 0.0
C395 C 0.84762 0.34572 0.6366 0.0
C396 C 0.86171 0.35468 0.67533 0.0
C397 C 0.87393 0.35043 0.6839 0.0
C398 C 0.87795 0.3577 0.69698 0.0
C399 C 0.86965 0.36959 0.70138 0.0
C400 C 0.8575 0.37419 0.69293 0.0
C401 C 0.85363 0.36669 0.67993 0.0
C402 C 0.84873 0.3867 0.69789 0.0
C403 C 0.84466 0.38767 0.71245 0.0
C404 C 0.84459 0.39788 0.68822 0.0
C405 C 0.83692 0.40994 0.69313 0.0
C406 C 0.83308 0.41107 0.70781 0.0
C407 C 0.89073 0.35275 0.70607 0.0
C408 C 0.89324 0.33781 0.70813 0.0
C409 C 0.90055 0.36284 0.7127 0.0
C410 C 0.91264 0.3581 0.72105 0.0
C411 C 0.91521 0.34314 0.723 0.0
C412 C 0.90528 0.33308 0.71647 0.0
C413 C 0.83687 0.39961 0.71732 0.0
H414 H 0.85663 0.31171 0.64818 0.0
H415 H 0.86309 0.32519 0.67042 0.0
H416 H 0.85027 0.36525 0.64932 0.0
H417 H 0.84335 0.35158 0.6272 0.0
H418 H 0.88055 0.34155 0.68024 0.0
H419 H 0.84402 0.36994 0.67366 0.0
H420 H 0.8726 0.37525 0.71146 0.0
H421 H 0.84743 0.37911 0.7201 0.0
H422 H 0.84764 0.39748 0.67694 0.0
H423 H 0.83436 0.41857 0.6855 0.0
H424 H 0.88577 0.32972 0.70343 0.0
H425 H 0.89907 0.37442 0.71121 0.0
H426 H 0.83381 0.39982 0.72859 0.0
H427 H 0.90671 0.32149 0.71795 0.0
H428 H 0.92012 0.36617 0.72574 0.0
C429 C 0.18351 0.33459 0.6349 0.0
C430 C 0.1985 0.3322 0.63404 0.0
C431 C 0.17796 0.34127 0.64719 0.0
C432 C 0.18731 0.34584 0.65881 0.0
C433 C 0.20233 0.34365 0.65787 0.0
C434 C 0.20786 0.33682 0.64564 0.0
C435 C 0.18139 0.3525 0.67208 0.0
C436 C 0.16947 0.34605 0.67874 0.0
C437 C 0.16414 0.35185 0.69166 0.0
C438 C 0.17083 0.36442 0.69785 0.0
C439 C 0.18279 0.37107 0.69129 0.0
C440 C 0.18793 0.36502 0.67837 0.0
C441 C 0.19015 0.38419 0.69792 0.0
C442 C 0.18213 0.39563 0.70378 0.0
C443 C 0.20538 0.38553 0.69798 0.0
C444 C 0.21237 0.39819 0.70314 0.0
C445 C 0.20435 0.40985 0.70848 0.0
C446 C 0.15209 0.34421 0.699 0.0
C447 C 0.14016 0.33837 0.69082 0.0
C448 C 0.15283 0.34202 0.71414 0.0
C449 C 0.14208 0.3339 0.7209 0.0
C450 C 0.13031 0.32777 0.71269 0.0
C451 C 0.12937 0.33025 0.69759 0.0
C452 C 0.18917 0.40834 0.70906 0.0
H453 H 0.17603 0.33105 0.62617 0.0
H454 H 0.16635 0.34289 0.6476 0.0
H455 H 0.20978 0.34695 0.66671 0.0
H456 H 0.21947 0.33523 0.64523 0.0
H457 H 0.16472 0.33611 0.67416 0.0
H458 H 0.19696 0.37017 0.67304 0.0
H459 H 0.16686 0.36889 0.70786 0.0
H460 H 0.17038 0.39499 0.70385 0.0
H461 H 0.21194 0.37679 0.69392 0.0
H462 H 0.22411 0.39891 0.70285 0.0
H463 H 0.1392 0.33998 0.67914 0.0
H464 H 0.16194 0.34625 0.72074 0.0
H465 H 0.18272 0.41716 0.71308 0.0
H466 H 0.12048 0.32566 0.69094 0.0
H467 H 0.143 0.33241 0.73259 0.0
C468 C 0.14585 0.32677 0.35465 0.0
C469 C 0.14415 0.32097 0.34048 0.0
C470 C 0.15833 0.33482 0.35883 0.0
C471 C 0.16932 0.33745 0.34889 0.0
C472 C 0.16762 0.33168 0.33471 0.0
C473 C 0.15523 0.32343 0.33059 0.0
C474 C 0.18238 0.34636 0.35333 0.0
C475 C 0.18979 0.34374 0.36671 0.0
C476 C 0.20169 0.35252 0.37151 0.0
C477 C 0.20602 0.36421 0.36267 0.0
C478 C 0.19888 0.36684 0.34913 0.0
C479 C 0.18719 0.35777 0.34448 0.0
C480 C 0.20327 0.37936 0.34002 0.0
C481 C 0.20334 0.39359 0.34572 0.0
C482 C 0.20698 0.37724 0.32545 0.0
C483 C 0.21073 0.38912 0.31675 0.0
C484 C 0.21048 0.40337 0.32236 0.0
C485 C 0.20957 0.34935 0.38568 0.0
C486 C 0.20195 0.34436 0.39773 0.0
C487 C 0.22479 0.35083 0.38717 0.0
C488 C 0.23218 0.34719 0.40025 0.0
C489 C 0.22457 0.34189 0.4122 0.0
C490 C 0.20933 0.34061 0.41075 0.0
C491 C 0.20674 0.40549 0.33692 0.0
H492 H 0.13755 0.325 0.36254 0.0
H493 H 0.15927 0.33922 0.3698 0.0
H494 H 0.17594 0.33347 0.32683 0.0
H495 H 0.15417 0.31919 0.31956 0.0
H496 H 0.18639 0.3346 0.37325 0.0
H497 H 0.18145 0.35998 0.33421 0.0
H498 H 0.21493 0.37131 0.3663 0.0
H499 H 0.20044 0.39552 0.35689 0.0
H500 H 0.20701 0.36637 0.32081 0.0
H501 H 0.21351 0.38721 0.30554 0.0
H502 H 0.19021 0.34328 0.39714 0.0
H503 H 0.23108 0.35451 0.37812 0.0
H504 H 0.20651 0.41637 0.34151 0.0
H505 H 0.20304 0.3364 0.41957 0.0
H506 H 0.24388 0.34854 0.40097 0.0
C507 C 0.19347 0.69839 0.39141 0.0
C508 C 0.20858 0.70088 0.39127 0.0
C509 C 0.18593 0.69257 0.37915 0.0
C510 C 0.19332 0.68912 0.36646 0.0
C511 C 0.20837 0.6919 0.36626 0.0
C512 C 0.2159 0.69767 0.3785 0.0
C513 C 0.18551 0.68224 0.35363 0.0
C514 C 0.17162 0.68688 0.34894 0.0
C515 C 0.16428 0.68041 0.33676 0.0
C516 C 0.17108 0.66904 0.32926 0.0
C517 C 0.18502 0.66431 0.33381 0.0
C518 C 0.19204 0.67094 0.34599 0.0
C519 C 0.19255 0.65241 0.32614 0.0
C520 C 0.18574 0.63882 0.32353 0.0
C521 C 0.20717 0.65423 0.32256 0.0
C522 C 0.21498 0.64263 0.31701 0.0
C523 C 0.20845 0.6288 0.31501 0.0
C524 C 0.14973 0.68594 0.33181 0.0
C525 C 0.13925 0.68936 0.34203 0.0
C526 C 0.14646 0.68861 0.31698 0.0
C527 C 0.13324 0.69497 0.31255 0.0
C528 C 0.1229 0.69869 0.32283 0.0
C529 C 0.12602 0.69562 0.33761 0.0
C530 C 0.19362 0.62712 0.31808 0.0
H531 H 0.18752 0.70061 0.40112 0.0
H532 H 0.17437 0.69042 0.37975 0.0
H533 H 0.21437 0.68966 0.35658 0.0
H534 H 0.22748 0.69973 0.37791 0.0
H535 H 0.1667 0.69586 0.35454 0.0
H536 H 0.20258 0.66703 0.34975 0.0
H537 H 0.16559 0.66393 0.31989 0.0
H538 H 0.17452 0.63707 0.3263 0.0
H539 H 0.21266 0.66463 0.32428 0.0
H540 H 0.22623 0.64451 0.3144 0.0
H541 H 0.14134 0.68733 0.35353 0.0
H542 H 0.1543 0.6862 0.30882 0.0
H543 H 0.18821 0.61664 0.31678 0.0
H544 H 0.11841 0.69843 0.34586 0.0
H545 H 0.13115 0.69702 0.30106 0.0
C546 C 0.82709 0.61631 0.33211 0.0
C547 C 0.81205 0.61622 0.32881 0.0
C548 C 0.83392 0.62855 0.33855 0.0
C549 C 0.82583 0.64091 0.34193 0.0
C550 C 0.81075 0.6407 0.3389 0.0
C551 C 0.80395 0.62851 0.33238 0.0
C552 C 0.83308 0.65411 0.34838 0.0
C553 C 0.8461 0.6595 0.34285 0.0
C554 C 0.85272 0.6723 0.34854 0.0
C555 C 0.84614 0.67969 0.36002 0.0
C556 C 0.83312 0.67438 0.36574 0.0
C557 C 0.82675 0.66156 0.35986 0.0
C558 C 0.82604 0.68201 0.3779 0.0
C559 C 0.83426 0.68738 0.39003 0.0
C560 C 0.81084 0.68333 0.37777 0.0
C561 C 0.80397 0.68939 0.38964 0.0
C562 C 0.81212 0.69438 0.40197 0.0
C563 C 0.86628 0.67805 0.34217 0.0
C564 C 0.87758 0.66858 0.33878 0.0
C565 C 0.86786 0.69293 0.33899 0.0
C566 C 0.88035 0.69818 0.33238 0.0
C567 C 0.8916 0.68869 0.32891 0.0
C568 C 0.8901 0.67384 0.33227 0.0
C569 C 0.82737 0.69347 0.40193 0.0
H570 H 0.83366 0.60707 0.32934 0.0
H571 H 0.84554 0.62834 0.34087 0.0
H572 H 0.80424 0.6501 0.34127 0.0
H573 H 0.79233 0.62874 0.33004 0.0
H574 H 0.85084 0.65399 0.33374 0.0
H575 H 0.81692 0.65718 0.36441 0.0
H576 H 0.85112 0.68958 0.36445 0.0
H577 H 0.84599 0.68647 0.39051 0.0
H578 H 0.80418 0.6795 0.36852 0.0
H579 H 0.79221 0.68977 0.3893 0.0
H580 H 0.87675 0.65707 0.34119 0.0
H581 H 0.85931 0.70048 0.34134 0.0
H582 H 0.83401 0.69739 0.41115 0.0
H583 H 0.89852 0.66622 0.32967 0.0
H584 H 0.88123 0.70971 0.3301 0.0
C585 C 0.82776 0.33504 0.39264 0.0
C586 C 0.83625 0.33222 0.40533 0.0
C587 C 0.83428 0.33953 0.37983 0.0
C588 C 0.84948 0.34125 0.37937 0.0
C589 C 0.85797 0.33837 0.39205 0.0
C590 C 0.85145 0.33394 0.40486 0.0
C591 C 0.8564 0.34614 0.36576 0.0
C592 C 0.85009 0.35732 0.35728 0.0
C593 C 0.85653 0.36209 0.34446 0.0
C594 C 0.86918 0.35531 0.33995 0.0
C595 C 0.87567 0.34424 0.34825 0.0
C596 C 0.86937 0.33978 0.36123 0.0
C597 C 0.88915 0.33762 0.34313 0.0
C598 C 0.88907 0.3306 0.32953 0.0
C599 C 0.90238 0.33967 0.35096 0.0
C600 C 0.91544 0.33535 0.34497 0.0
C601 C 0.91549 0.3287 0.33108 0.0
C602 C 0.85034 0.37433 0.33583 0.0
C603 C 0.83533 0.37509 0.33258 0.0
C604 C 0.85956 0.38521 0.33047 0.0
C605 C 0.85398 0.39642 0.32179 0.0
C606 C 0.83902 0.39703 0.31822 0.0
C607 C 0.82973 0.3863 0.32383 0.0
C608 C 0.90205 0.32604 0.32365 0.0
H609 H 0.81603 0.33391 0.39263 0.0
H610 H 0.82742 0.34152 0.37023 0.0
H611 H 0.86968 0.3397 0.39213 0.0
H612 H 0.85835 0.33167 0.41436 0.0
H613 H 0.84042 0.36265 0.3609 0.0
H614 H 0.87437 0.33111 0.36754 0.0
H615 H 0.8741 0.35872 0.32994 0.0
H616 H 0.87895 0.32889 0.32332 0.0
H617 H 0.90269 0.34524 0.3614 0.0
H618 H 0.92552 0.33776 0.35099 0.0
H619 H 0.82797 0.3668 0.33647 0.0
H620 H 0.87114 0.38509 0.33302 0.0
H621 H 0.90152 0.3206 0.31315 0.0
H622 H 0.81817 0.38637 0.32119 0.0
H623 H 0.86141 0.40467 0.31796 0.0
C624 C 0.71725 0.19637 0.61747 0.0
C625 C 0.72002 0.21147 0.61791 0.0
C626 C 0.7112 0.18928 0.62935 0.0
C627 C 0.70764 0.19719 0.64184 0.0
C628 C 0.71038 0.21229 0.64224 0.0
C629 C 0.71652 0.21933 0.63044 0.0
C630 C 0.70079 0.18991 0.65438 0.0
C631 C 0.70619 0.17678 0.66009 0.0
C632 C 0.7001 0.17037 0.67245 0.0
C633 C 0.68827 0.17724 0.67889 0.0
C634 C 0.68276 0.19039 0.67329 0.0
C635 C 0.68904 0.1965 0.66099 0.0
C636 C 0.67071 0.19813 0.68032 0.0
C637 C 0.65816 0.19065 0.68461 0.0
C638 C 0.67149 0.21333 0.68219 0.0
C639 C 0.65984 0.22094 0.68769 0.0
C640 C 0.64706 0.21358 0.69151 0.0
C641 C 0.70657 0.15695 0.67903 0.0
C642 C 0.71144 0.14555 0.67021 0.0
C643 C 0.70827 0.15561 0.69425 0.0
C644 C 0.71472 0.14329 0.70048 0.0
C645 C 0.71971 0.13193 0.69169 0.0
C646 C 0.71789 0.13318 0.67646 0.0
C647 C 0.64644 0.1983 0.69013 0.0
H648 H 0.71999 0.18999 0.60803 0.0
H649 H 0.70913 0.17766 0.62869 0.0
H650 H 0.70789 0.21867 0.65176 0.0
H651 H 0.71844 0.23098 0.63111 0.0
H652 H 0.71554 0.17189 0.65528 0.0
H653 H 0.68464 0.20645 0.65641 0.0
H654 H 0.68347 0.17249 0.68839 0.0
H655 H 0.6572 0.17896 0.68324 0.0
H656 H 0.68112 0.21939 0.6793 0.0
H657 H 0.66087 0.23264 0.68896 0.0
H658 H 0.71021 0.14614 0.65845 0.0
H659 H 0.70484 0.16421 0.70141 0.0
H660 H 0.63674 0.19229 0.69291 0.0
H661 H 0.72166 0.12471 0.66934 0.0
H662 H 0.71571 0.14264 0.71225 0.0
C663 C 0.41314 0.23257 0.7036 0.0
C664 C 0.42307 0.22257 0.70974 0.0
C665 C 0.40056 0.22777 0.69591 0.0
C666 C 0.39755 0.21282 0.69401 0.0
C667 C 0.40749 0.2028 0.7001 0.0
C668 C 0.42006 0.20761 0.70786 0.0
C669 C 0.38409 0.20772 0.68578 0.0
C670 C 0.3789 0.21522 0.67329 0.0
C671 C 0.36624 0.21052 0.66551 0.0
C672 C 0.35871 0.19815 0.67035 0.0
C673 C 0.36357 0.19052 0.68281 0.0
C674 C 0.37628 0.1954 0.69043 0.0
C675 C 0.3553 0.17752 0.68788 0.0
C676 C 0.34001 0.17739 0.68748 0.0
C677 C 0.3626 0.16507 0.69297 0.0
C678 C 0.3548 0.15278 0.69742 0.0
C679 C 0.3395 0.15261 0.69689 0.0
C680 C 0.36073 0.21852 0.65236 0.0
C681 C 0.35999 0.23381 0.65239 0.0
C682 C 0.35573 0.21087 0.63981 0.0
C683 C 0.34996 0.21828 0.62769 0.0
C684 C 0.34895 0.23355 0.6278 0.0
C685 C 0.3541 0.24123 0.64029 0.0
C686 C 0.33222 0.16511 0.6919 0.0
H687 H 0.41515 0.24418 0.70456 0.0
H688 H 0.39312 0.23583 0.69156 0.0
H689 H 0.40566 0.1912 0.69873 0.0
H690 H 0.42736 0.19957 0.7125 0.0
H691 H 0.38492 0.22454 0.66938 0.0
H692 H 0.37986 0.18982 0.70027 0.0
H693 H 0.34897 0.19446 0.66438 0.0
H694 H 0.33401 0.18684 0.6838 0.0
H695 H 0.37436 0.16473 0.69333 0.0
H696 H 0.36079 0.14343 0.70136 0.0
H697 H 0.36365 0.24002 0.66192 0.0
H698 H 0.35627 0.1991 0.63937 0.0
H699 H 0.32045 0.16534 0.6912 0.0
H700 H 0.35359 0.253 0.64069 0.0
H701 H 0.34598 0.212 0.61832 0.0
C702 C 0.32191 0.83402 0.64865 0.0
C703 C 0.3203 0.84166 0.63548 0.0
C704 C 0.32727 0.84102 0.66128 0.0
C705 C 0.33123 0.85585 0.66109 0.0
C706 C 0.32871 0.86378 0.6482 0.0
C707 C 0.32327 0.85674 0.63549 0.0
C708 C 0.33957 0.86228 0.67379 0.0
C709 C 0.3513 0.85451 0.67983 0.0
C710 C 0.35948 0.85983 0.69191 0.0
C711 C 0.35601 0.87341 0.69786 0.0
C712 C 0.34419 0.8815 0.69209 0.0
C713 C 0.33608 0.87582 0.67989 0.0
C714 C 0.3402 0.89563 0.69903 0.0
C715 C 0.34179 0.89762 0.71423 0.0
C716 C 0.33482 0.90728 0.69059 0.0
C717 C 0.33119 0.92049 0.69715 0.0
C718 C 0.33297 0.92253 0.71235 0.0
C719 C 0.37152 0.85089 0.6982 0.0
C720 C 0.36954 0.83579 0.69978 0.0
C721 C 0.3852 0.85711 0.70191 0.0
C722 C 0.39676 0.8483 0.7066 0.0
C723 C 0.39487 0.83311 0.70775 0.0
C724 C 0.38105 0.82702 0.70444 0.0
C725 C 0.33835 0.91087 0.72076 0.0
H726 H 0.31939 0.82248 0.64909 0.0
H727 H 0.32884 0.83467 0.67112 0.0
H728 H 0.33172 0.8752 0.64774 0.0
H729 H 0.32212 0.86292 0.6255 0.0
H730 H 0.35426 0.84427 0.6749 0.0
H731 H 0.3268 0.88165 0.67542 0.0
H732 H 0.36248 0.8776 0.70707 0.0
H733 H 0.34561 0.88889 0.7212 0.0
H734 H 0.33355 0.90628 0.67886 0.0
H735 H 0.32686 0.92906 0.69027 0.0
H736 H 0.35909 0.83068 0.6972 0.0
H737 H 0.38707 0.8687 0.70076 0.0
H738 H 0.34008 0.91198 0.73244 0.0
H739 H 0.37919 0.81537 0.70503 0.0
H740 H 0.40721 0.85338 0.70925 0.0
C741 C 0.66737 0.8156 0.64007 0.0
C742 C 0.68234 0.81476 0.63763 0.0
C743 C 0.66238 0.82304 0.6522 0.0
C744 C 0.67222 0.82986 0.66222 0.0
C745 C 0.68718 0.82909 0.65977 0.0
C746 C 0.69218 0.82162 0.64764 0.0
C747 C 0.66687 0.83767 0.67521 0.0
C748 C 0.65542 0.83171 0.68314 0.0
C749 C 0.65027 0.83897 0.69538 0.0
C750 C 0.65647 0.85245 0.69953 0.0
C751 C 0.66779 0.85866 0.69172 0.0
C752 C 0.67308 0.85114 0.67969 0.0
C753 C 0.67381 0.87311 0.69621 0.0
C754 C 0.66442 0.88471 0.69866 0.0
C755 C 0.68881 0.87522 0.6988 0.0
C756 C 0.69425 0.88853 0.70431 0.0
C757 C 0.68481 0.90008 0.70715 0.0
C758 C 0.63834 0.83265 0.70386 0.0
C759 C 0.62545 0.8276 0.69678 0.0
C760 C 0.63957 0.8321 0.71916 0.0
C761 C 0.62811 0.82673 0.72724 0.0
C762 C 0.61509 0.82198 0.72018 0.0
C763 C 0.61389 0.82241 0.70487 0.0
C764 C 0.66984 0.89806 0.70396 0.0
H765 H 0.65946 0.81068 0.63247 0.0
H766 H 0.65078 0.82362 0.65362 0.0
H767 H 0.69507 0.83404 0.66738 0.0
H768 H 0.70378 0.82102 0.64625 0.0
H769 H 0.65073 0.82122 0.68002 0.0
H770 H 0.68171 0.85602 0.67355 0.0
H771 H 0.65242 0.85819 0.70887 0.0
H772 H 0.65281 0.88343 0.69655 0.0
H773 H 0.69627 0.8664 0.69708 0.0
H774 H 0.70581 0.88959 0.70676 0.0
H775 H 0.62418 0.82798 0.68501 0.0
H776 H 0.64943 0.83585 0.72489 0.0
H777 H 0.66226 0.90677 0.70562 0.0
H778 H 0.60403 0.81869 0.69915 0.0
H779 H 0.6293 0.82657 0.73902 0.0
C780 C 0.62401 0.82972 0.34234 0.0
C781 C 0.62235 0.83004 0.32703 0.0
C782 C 0.63656 0.83544 0.34946 0.0
C783 C 0.64778 0.84169 0.34148 0.0
C784 C 0.646 0.84226 0.32619 0.0
C785 C 0.63347 0.83652 0.31907 0.0
C786 C 0.66138 0.84739 0.349 0.0
C787 C 0.668 0.83976 0.36073 0.0
C788 C 0.68113 0.8448 0.36741 0.0
C789 C 0.6876 0.85762 0.36225 0.0
C790 C 0.68104 0.86569 0.35086 0.0
C791 C 0.6679 0.86044 0.34432 0.0
C792 C 0.68797 0.87957 0.34591 0.0
C793 C 0.69588 0.8886 0.35587 0.0
C794 C 0.68703 0.88382 0.33119 0.0
C795 C 0.69387 0.89661 0.32659 0.0
C796 C 0.70214 0.90541 0.33649 0.0
C797 C 0.68814 0.83697 0.37996 0.0
C798 C 0.67992 0.83218 0.39167 0.0
C799 C 0.70329 0.83507 0.38076 0.0
C800 C 0.7101 0.82898 0.39313 0.0
C801 C 0.70196 0.82463 0.40507 0.0
C802 C 0.68675 0.82611 0.40409 0.0
C803 C 0.70301 0.90116 0.35121 0.0
H804 H 0.61559 0.82505 0.34887 0.0
H805 H 0.63742 0.83503 0.36125 0.0
H806 H 0.65449 0.84682 0.31967 0.0
H807 H 0.6327 0.83678 0.30727 0.0
H808 H 0.66317 0.82967 0.36441 0.0
H809 H 0.66252 0.86666 0.33576 0.0
H810 H 0.69781 0.86135 0.36727 0.0
H811 H 0.69663 0.886 0.36736 0.0
H812 H 0.6812 0.87716 0.32311 0.0
H813 H 0.69262 0.89956 0.31521 0.0
H814 H 0.66825 0.83361 0.39147 0.0
H815 H 0.70992 0.8384 0.37183 0.0
H816 H 0.70941 0.90739 0.35923 0.0
H817 H 0.68012 0.82302 0.4131 0.0
H818 H 0.72178 0.8277 0.39332 0.0
C819 C 0.70259 0.19877 0.39716 0.0
C820 C 0.71781 0.19777 0.39697 0.0
C821 C 0.69385 0.19413 0.38516 0.0
C822 C 0.70012 0.18849 0.37259 0.0
C823 C 0.71539 0.18772 0.37237 0.0
C824 C 0.72409 0.19221 0.38442 0.0
C825 C 0.69086 0.18334 0.3598 0.0
C826 C 0.67804 0.19068 0.35554 0.0
C827 C 0.66945 0.186 0.34334 0.0
C828 C 0.67382 0.17374 0.3354 0.0
C829 C 0.68662 0.16635 0.33936 0.0
C830 C 0.69496 0.17115 0.35163 0.0
C831 C 0.69162 0.15394 0.33038 0.0
C832 C 0.6819 0.14288 0.32544 0.0
C833 C 0.70624 0.15319 0.32657 0.0
C834 C 0.71104 0.1417 0.31803 0.0
C835 C 0.70138 0.13058 0.31314 0.0
C836 C 0.6562 0.19415 0.33854 0.0
C837 C 0.64647 0.19948 0.34871 0.0
C838 C 0.65315 0.19661 0.32363 0.0
C839 C 0.64066 0.20403 0.31901 0.0
C840 C 0.63085 0.20928 0.32913 0.0
C841 C 0.63393 0.20692 0.34407 0.0
C842 C 0.68675 0.13127 0.317 0.0
H843 H 0.6974 0.20288 0.40673 0.0
H844 H 0.68216 0.19472 0.38586 0.0
H845 H 0.72069 0.18378 0.36281 0.0
H846 H 0.7358 0.19151 0.38383 0.0
H847 H 0.675 0.20037 0.3614 0.0
H848 H 0.70461 0.16519 0.35492 0.0
H849 H 0.66734 0.17005 0.32597 0.0
H850 H 0.67058 0.14311 0.32827 0.0
H851 H 0.71397 0.1616 0.33006 0.0
H852 H 0.72241 0.14141 0.31543 0.0
H853 H 0.64843 0.19771 0.36027 0.0
H854 H 0.66047 0.19286 0.31549 0.0
H855 H 0.67903 0.1229 0.31337 0.0
H856 H 0.62669 0.21089 0.35218 0.0
H857 H 0.63858 0.20542 0.30741 0.0
C858 C 0.32546 0.11394 0.33452 0.0
C859 C 0.31018 0.11438 0.33374 0.0
C860 C 0.33362 0.12597 0.33967 0.0
C861 C 0.32667 0.1387 0.34412 0.0
C862 C 0.31141 0.1392 0.34308 0.0
C863 C 0.30327 0.12718 0.33798 0.0
C864 C 0.33518 0.15136 0.35013 0.0
C865 C 0.34803 0.15606 0.34372 0.0
C866 C 0.35584 0.1683 0.34922 0.0
C867 C 0.35054 0.1759 0.36124 0.0
C868 C 0.33768 0.17134 0.36779 0.0
C869 C 0.33026 0.15894 0.36225 0.0
C870 C 0.33181 0.1794 0.38036 0.0
C871 C 0.34108 0.18505 0.3916 0.0
C872 C 0.31671 0.18104 0.38143 0.0
C873 C 0.31098 0.18762 0.39364 0.0
C874 C 0.32021 0.19293 0.40501 0.0
C875 C 0.36935 0.17325 0.34218 0.0
C876 C 0.37947 0.16308 0.33742 0.0
C877 C 0.37214 0.18815 0.33996 0.0
C878 C 0.38466 0.19275 0.33304 0.0
C879 C 0.39472 0.18258 0.32815 0.0
C880 C 0.39199 0.16769 0.33049 0.0
C881 C 0.33533 0.19182 0.40378 0.0
H882 H 0.3311 0.10418 0.33144 0.0
H883 H 0.34535 0.1252 0.34047 0.0
H884 H 0.30572 0.14894 0.34613 0.0
H885 H 0.29154 0.12798 0.33722 0.0
H886 H 0.35172 0.15045 0.33415 0.0
H887 H 0.32065 0.155 0.36755 0.0
H888 H 0.3564 0.18541 0.36547 0.0
H889 H 0.35275 0.18387 0.39121 0.0
H890 H 0.30925 0.17718 0.37282 0.0
H891 H 0.2993 0.18859 0.39419 0.0
H892 H 0.37775 0.15154 0.3391 0.0
H893 H 0.36452 0.19627 0.34335 0.0
H894 H 0.34267 0.19578 0.41243 0.0
H895 H 0.39942 0.15954 0.32675 0.0
H896 H 0.3865 0.20432 0.33159 0.0
C897 C 0.30867 0.83765 0.38746 0.0
C898 C 0.31761 0.83612 0.40011 0.0
C899 C 0.31463 0.84164 0.37419 0.0
C900 C 0.32967 0.84414 0.37325 0.0
C901 C 0.33857 0.84284 0.38594 0.0
C902 C 0.33262 0.83893 0.39918 0.0
C903 C 0.33615 0.84806 0.35912 0.0
C904 C 0.32945 0.85829 0.34984 0.0
C905 C 0.3357 0.86233 0.33666 0.0
C906 C 0.3488 0.85589 0.33275 0.0
C907 C 0.35559 0.84544 0.34179 0.0
C908 C 0.34916 0.84165 0.35496 0.0
C909 C 0.36927 0.83826 0.3375 0.0
C910 C 0.37111 0.83378 0.32301 0.0
C911 C 0.38042 0.83544 0.34796 0.0
C912 C 0.39297 0.82813 0.3441 0.0
C913 C 0.39474 0.82347 0.32966 0.0
C914 C 0.32852 0.87345 0.3272 0.0
C915 C 0.31344 0.87273 0.32429 0.0
C916 C 0.33647 0.88522 0.32164 0.0
C917 C 0.32938 0.89638 0.31393 0.0
C918 C 0.31419 0.89596 0.31153 0.0
C919 C 0.30639 0.88378 0.3165 0.0
C920 C 0.38368 0.82648 0.31915 0.0
H921 H 0.2971 0.83542 0.3877 0.0
H922 H 0.30749 0.84244 0.36459 0.0
H923 H 0.35015 0.84497 0.38566 0.0
H924 H 0.33982 0.83819 0.40874 0.0
H925 H 0.31957 0.86349 0.3531 0.0
H926 H 0.35411 0.8334 0.36185 0.0
H927 H 0.35367 0.85901 0.32264 0.0
H928 H 0.36267 0.83558 0.31471 0.0
H929 H 0.3795 0.83895 0.35916 0.0
H930 H 0.40136 0.82624 0.35243 0.0
H931 H 0.30705 0.86366 0.32819 0.0
H932 H 0.3481 0.8861 0.32377 0.0
H933 H 0.38458 0.8229 0.30796 0.0
H934 H 0.29474 0.88287 0.31456 0.0
H935 H 0.33574 0.90562 0.31039 0.0
C936 C 0.69693 0.68977 0.12006 0.0
C937 C 0.70146 0.70442 0.12056 0.0
C938 C 0.68904 0.6838 0.13132 0.0
C939 C 0.68552 0.6923 0.14344 0.0
C940 C 0.68934 0.70717 0.14362 0.0
C941 C 0.69723 0.71319 0.13226 0.0
C942 C 0.67917 0.68516 0.15632 0.0
C943 C 0.68501 0.67192 0.16121 0.0
C944 C 0.67932 0.66457 0.17309 0.0
C945 C 0.66754 0.67054 0.18019 0.0
C946 C 0.66144 0.68377 0.1755 0.0
C947 C 0.66748 0.69119 0.16368 0.0
C948 C 0.64852 0.68943 0.18282 0.0
C949 C 0.63653 0.68018 0.18507 0.0
C950 C 0.64825 0.70379 0.18815 0.0
C951 C 0.6364 0.70865 0.19594 0.0
C952 C 0.62447 0.69932 0.1983 0.0
C953 C 0.68586 0.65067 0.17796 0.0
C954 C 0.68868 0.63975 0.16774 0.0
C955 C 0.69009 0.64856 0.19264 0.0
C956 C 0.69747 0.63597 0.19692 0.0
C957 C 0.70064 0.62516 0.18662 0.0
C958 C 0.6959 0.62711 0.17202 0.0
C959 C 0.62461 0.68509 0.19263 0.0
H960 H 0.69969 0.68282 0.11103 0.0
H961 H 0.68599 0.67238 0.1307 0.0
H962 H 0.68682 0.71397 0.15283 0.0
H963 H 0.70056 0.72453 0.13294 0.0
H964 H 0.6943 0.66743 0.15591 0.0
H965 H 0.66277 0.70131 0.15991 0.0
H966 H 0.66304 0.66481 0.18934 0.0
H967 H 0.6364 0.66908 0.18101 0.0
H968 H 0.65738 0.71112 0.18662 0.0
H969 H 0.63654 0.7197 0.2001 0.0
H970 H 0.68536 0.64103 0.15637 0.0
H971 H 0.68815 0.65689 0.20071 0.0
H972 H 0.61564 0.67763 0.19434 0.0
H973 H 0.69781 0.61888 0.16385 0.0
H974 H 0.70108 0.63494 0.20822 0.0
C975 C 0.39015 0.72695 0.18896 0.0
C976 C 0.40147 0.71759 0.19333 0.0
C977 C 0.37743 0.72145 0.18198 0.0
C978 C 0.37565 0.70643 0.17922 0.0
C979 C 0.387 0.69709 0.18347 0.0
C980 C 0.39974 0.70259 0.19038 0.0
C981 C 0.36207 0.70056 0.17182 0.0
C982 C 0.3557 0.70791 0.15984 0.0
C983 C 0.343 0.70249 0.15265 0.0
C984 C 0.33657 0.68956 0.15766 0.0
C985 C 0.34258 0.68208 0.16977 0.0
C986 C 0.35542 0.68765 0.1767 0.0
C987 C 0.33528 0.66863 0.17529 0.0
C988 C 0.32003 0.66769 0.17567 0.0
C989 C 0.34343 0.65662 0.1802 0.0
C990 C 0.33651 0.64403 0.18529 0.0
C991 C 0.32124 0.64311 0.18565 0.0
C992 C 0.33647 0.71036 0.13989 0.0
C993 C 0.3349 0.72557 0.14027 0.0
C994 C 0.33177 0.70274 0.12722 0.0
C995 C 0.32572 0.71015 0.11521 0.0
C996 C 0.32407 0.72535 0.11562 0.0
C997 C 0.32871 0.73297 0.12831 0.0
C998 C 0.31312 0.65513 0.18075 0.0
H999 H 0.39095 0.73851 0.19124 0.0
H1000 H 0.36885 0.72895 0.17901 0.0
H1001 H 0.38611 0.6855 0.18129 0.0
H1002 H 0.40829 0.69505 0.19332 0.0
H1003 H 0.36087 0.71769 0.15582 0.0
H1004 H 0.36002 0.68217 0.18619 0.0
H1005 H 0.32679 0.68535 0.15212 0.0
H1006 H 0.31337 0.67675 0.17218 0.0
H1007 H 0.35518 0.65687 0.17996 0.0
H1008 H 0.34315 0.63508 0.18909 0.0
H1009 H 0.33831 0.73175 0.1499 0.0
H1010 H 0.33293 0.69104 0.12653 0.0
H1011 H 0.30136 0.6548 0.18067 0.0
H1012 H 0.32769 0.74468 0.12895 0.0
H1013 H 0.32214 0.70394 0.10565 0.0
C1014 C 0.34558 0.33145 0.15181 0.0
C1015 C 0.34235 0.34078 0.14006 0.0
C1016 C 0.35039 0.33708 0.16538 0.0
C1017 C 0.35215 0.3522 0.16758 0.0
C1018 C 0.34887 0.36153 0.15584 0.0
C1019 C 0.34404 0.3559 0.14227 0.0
C1020 C 0.35765 0.35815 0.18198 0.0
C1021 C 0.36874 0.35095 0.18992 0.0
C1022 C 0.37405 0.35625 0.20351 0.0
C1023 C 0.3682 0.36907 0.20916 0.0
C1024 C 0.35706 0.3765 0.20147 0.0
C1025 C 0.35191 0.37096 0.18786 0.0
C1026 C 0.35066 0.38991 0.20777 0.0
C1027 C 0.34765 0.3907 0.22267 0.0
C1028 C 0.34745 0.40201 0.19894 0.0
C1029 C 0.3414 0.41455 0.20484 0.0
C1030 C 0.33831 0.41533 0.21974 0.0
C1031 C 0.38563 0.3482 0.21175 0.0
C1032 C 0.38477 0.33296 0.21279 0.0
C1033 C 0.39775 0.35551 0.21826 0.0
C1034 C 0.409 0.34767 0.22519 0.0
C1035 C 0.40833 0.33237 0.22581 0.0
C1036 C 0.39592 0.32517 0.21975 0.0
C1037 C 0.34154 0.40322 0.22857 0.0
H1038 H 0.34418 0.31978 0.1506 0.0
H1039 H 0.35256 0.32955 0.17422 0.0
H1040 H 0.35031 0.3732 0.15703 0.0
H1041 H 0.34186 0.36341 0.13343 0.0
H1042 H 0.37352 0.3413 0.18535 0.0
H1043 H 0.3431 0.3764 0.18203 0.0
H1044 H 0.37229 0.37322 0.21962 0.0
H1045 H 0.34975 0.38151 0.22976 0.0
H1046 H 0.34981 0.40188 0.18746 0.0
H1047 H 0.33931 0.42372 0.19773 0.0
H1048 H 0.37545 0.32702 0.20817 0.0
H1049 H 0.39875 0.36724 0.21758 0.0
H1050 H 0.33911 0.40327 0.24002 0.0
H1051 H 0.39482 0.31344 0.22035 0.0
H1052 H 0.4184 0.35357 0.22966 0.0
C1053 C 0.69285 0.31982 0.13864 0.0
C1054 C 0.70782 0.32247 0.13726 0.0
C1055 C 0.68555 0.32524 0.15052 0.0
C1056 C 0.69303 0.33314 0.16169 0.0
C1057 C 0.70806 0.33561 0.16046 0.0
C1058 C 0.71532 0.33047 0.14836 0.0
C1059 C 0.68504 0.33885 0.17436 0.0
C1060 C 0.673 0.33115 0.17954 0.0
C1061 C 0.66443 0.33694 0.19049 0.0
C1062 C 0.66866 0.35032 0.19698 0.0
C1063 C 0.68112 0.35785 0.19255 0.0
C1064 C 0.68906 0.35218 0.18106 0.0
C1065 C 0.68589 0.37168 0.19987 0.0
C1066 C 0.6758 0.38243 0.20327 0.0
C1067 C 0.70067 0.37421 0.2035 0.0
C1068 C 0.7053 0.38724 0.21018 0.0
C1069 C 0.69525 0.3981 0.21338 0.0
C1070 C 0.65097 0.32908 0.19484 0.0
C1071 C 0.64248 0.3211 0.18445 0.0
C1072 C 0.64643 0.32945 0.20931 0.0
C1073 C 0.63379 0.32206 0.21324 0.0
C1074 C 0.62546 0.31385 0.20289 0.0
C1075 C 0.63005 0.31346 0.18844 0.0
C1076 C 0.68043 0.39552 0.20991 0.0
H1077 H 0.68666 0.31345 0.13058 0.0
H1078 H 0.67394 0.32331 0.1508 0.0
H1079 H 0.7143 0.34147 0.16888 0.0
H1080 H 0.7268 0.33294 0.14768 0.0
H1081 H 0.67031 0.32049 0.17508 0.0
H1082 H 0.69815 0.35843 0.1771 0.0
H1083 H 0.66228 0.35492 0.2055 0.0
H1084 H 0.66434 0.38086 0.20053 0.0
H1085 H 0.7087 0.36607 0.20118 0.0
H1086 H 0.71681 0.38894 0.2125 0.0
H1087 H 0.64536 0.32076 0.17313 0.0
H1088 H 0.6527 0.33531 0.21769 0.0
H1089 H 0.67241 0.40363 0.2123 0.0
H1090 H 0.62417 0.30711 0.18015 0.0
H1091 H 0.63054 0.3229 0.22442 0.0
C1092 C 0.65338 0.32296 0.84862 0.0
C1093 C 0.65092 0.32216 0.83342 0.0
C1094 C 0.66552 0.33042 0.85468 0.0
C1095 C 0.67566 0.33724 0.84573 0.0
C1096 C 0.67316 0.33655 0.83053 0.0
C1097 C 0.66096 0.32913 0.82446 0.0
C1098 C 0.68881 0.34486 0.85233 0.0
C1099 C 0.69606 0.33902 0.86472 0.0
C1100 C 0.70808 0.34623 0.87152 0.0
C1101 C 0.7129 0.35948 0.86565 0.0
C1102 C 0.70615 0.36534 0.85305 0.0
C1103 C 0.69413 0.35796 0.84643 0.0
C1104 C 0.71193 0.37912 0.84685 0.0
C1105 C 0.71501 0.39123 0.85592 0.0
C1106 C 0.71523 0.37998 0.83204 0.0
C1107 C 0.72192 0.39251 0.82655 0.0
C1108 C 0.72523 0.40453 0.8357 0.0
C1109 C 0.71567 0.33991 0.88469 0.0
C1110 C 0.70781 0.33243 0.89529 0.0
C1111 C 0.73085 0.34132 0.88681 0.0
C1112 C 0.73794 0.3356 0.89921 0.0
C1113 C 0.73007 0.32812 0.90973 0.0
C1114 C 0.71494 0.32653 0.90759 0.0
C1115 C 0.72148 0.40382 0.85039 0.0
H1116 H 0.64603 0.31763 0.85591 0.0
H1117 H 0.6669 0.33089 0.86644 0.0
H1118 H 0.68074 0.34155 0.82326 0.0
H1119 H 0.65936 0.32896 0.81272 0.0
H1120 H 0.6925 0.3286 0.8689 0.0
H1121 H 0.68869 0.36268 0.83694 0.0
H1122 H 0.72204 0.36527 0.87082 0.0
H1123 H 0.71252 0.3909 0.86736 0.0
H1124 H 0.71306 0.37079 0.82482 0.0
H1125 H 0.72457 0.39277 0.81515 0.0
H1126 H 0.6961 0.33132 0.89422 0.0
H1127 H 0.73736 0.34669 0.87879 0.0
H1128 H 0.72396 0.41284 0.85774 0.0
H1129 H 0.70857 0.32095 0.9156 0.0
H1130 H 0.74964 0.33682 0.90047 0.0
C1131 C 0.69328 0.70768 0.89293 0.0
C1132 C 0.70801 0.71182 0.89458 0.0
C1133 C 0.68822 0.69958 0.88079 0.0
C1134 C 0.69773 0.69538 0.86991 0.0
C1135 C 0.71252 0.69929 0.87167 0.0
C1136 C 0.71759 0.70744 0.88382 0.0
C1137 C 0.6921 0.68742 0.85659 0.0
C1138 C 0.67875 0.69141 0.84987 0.0
C1139 C 0.67333 0.68425 0.83724 0.0
C1140 C 0.68124 0.67286 0.83134 0.0
C1141 C 0.69443 0.66838 0.83799 0.0
C1142 C 0.6999 0.67588 0.85052 0.0
C1143 C 0.70216 0.65565 0.83191 0.0
C1144 C 0.69429 0.64315 0.82722 0.0
C1145 C 0.71731 0.65594 0.83048 0.0
C1146 C 0.72437 0.64407 0.82436 0.0
C1147 C 0.71648 0.63158 0.8196 0.0
C1148 C 0.65926 0.6885 0.83027 0.0
C1149 C 0.64657 0.6884 0.83831 0.0
C1150 C 0.65837 0.69231 0.81547 0.0
C1151 C 0.64501 0.69601 0.80881 0.0
C1152 C 0.63227 0.69563 0.81677 0.0
C1153 C 0.63316 0.69178 0.83157 0.0
C1154 C 0.70134 0.63129 0.82116 0.0
H1155 H 0.68554 0.71094 0.90089 0.0
H1156 H 0.6768 0.69661 0.87992 0.0
H1157 H 0.72014 0.69634 0.86348 0.0
H1158 H 0.72904 0.71025 0.88481 0.0
H1159 H 0.67267 0.70037 0.85423 0.0
H1160 H 0.70998 0.67241 0.85581 0.0
H1161 H 0.677 0.66736 0.82158 0.0
H1162 H 0.68264 0.64244 0.82839 0.0
H1163 H 0.72367 0.66546 0.83383 0.0
H1164 H 0.73602 0.64479 0.82318 0.0
H1165 H 0.64699 0.68543 0.84972 0.0
H1166 H 0.66803 0.69248 0.80907 0.0
H1167 H 0.69492 0.62177 0.81794 0.0
H1168 H 0.62348 0.69148 0.83794 0.0
H1169 H 0.64458 0.69889 0.79737 0.0
C1170 C 0.34639 0.62942 0.82231 0.0
C1171 C 0.33146 0.62856 0.81844 0.0
C1172 C 0.35216 0.64139 0.83015 0.0
C1173 C 0.34311 0.65274 0.83439 0.0
C1174 C 0.32822 0.65193 0.83044 0.0
C1175 C 0.32247 0.64001 0.82257 0.0
C1176 C 0.34901 0.66516 0.84332 0.0
C1177 C 0.36211 0.67222 0.83994 0.0
C1178 C 0.36753 0.68411 0.84837 0.0
C1179 C 0.35961 0.68876 0.86036 0.0
C1180 C 0.3464 0.68196 0.86372 0.0
C1181 C 0.34131 0.6701 0.85524 0.0
C1182 C 0.33761 0.68743 0.87581 0.0
C1183 C 0.34417 0.6914 0.88934 0.0
C1184 C 0.32246 0.68864 0.87383 0.0
C1185 C 0.31405 0.6936 0.88512 0.0
C1186 C 0.32055 0.69753 0.89868 0.0
C1187 C 0.38118 0.69194 0.84446 0.0
C1188 C 0.39288 0.68438 0.8387 0.0
C1189 C 0.38261 0.70712 0.84638 0.0
C1190 C 0.39535 0.71448 0.84274 0.0
C1191 C 0.40699 0.70696 0.83682 0.0
C1192 C 0.40555 0.69178 0.83485 0.0
C1193 C 0.33572 0.69637 0.90068 0.0
H1194 H 0.35362 0.62072 0.81946 0.0
H1195 H 0.36365 0.64162 0.83318 0.0
H1196 H 0.321 0.66061 0.83336 0.0
H1197 H 0.31099 0.6399 0.81951 0.0
H1198 H 0.36779 0.66872 0.83043 0.0
H1199 H 0.33135 0.66454 0.85806 0.0
H1200 H 0.3636 0.69782 0.86702 0.0
H1201 H 0.3558 0.69049 0.89123 0.0
H1202 H 0.31709 0.68585 0.86347 0.0
H1203 H 0.30238 0.6942 0.88325 0.0
H1204 H 0.39233 0.67268 0.83722 0.0
H1205 H 0.3738 0.71343 0.85053 0.0
H1206 H 0.34108 0.69943 0.91096 0.0
H1207 H 0.41413 0.68558 0.83011 0.0
H1208 H 0.39604 0.72611 0.84465 0.0
C1209 C 0.33259 0.34912 0.8866 0.0
C1210 C 0.34049 0.34555 0.89947 0.0
C1211 C 0.33975 0.35335 0.87409 0.0
C1212 C 0.35502 0.35413 0.87408 0.0
C1213 C 0.36295 0.3504 0.88689 0.0
C1214 C 0.35578 0.34618 0.89943 0.0
C1215 C 0.36257 0.35899 0.86079 0.0
C1216 C 0.35703 0.37067 0.85245 0.0
C1217 C 0.3639 0.37531 0.83982 0.0
C1218 C 0.37625 0.36795 0.83538 0.0
C1219 C 0.38201 0.3564 0.84356 0.0
C1220 C 0.37526 0.35204 0.85634 0.0
C1221 C 0.39519 0.34914 0.83852 0.0
C1222 C 0.39506 0.34255 0.82469 0.0
C1223 C 0.40831 0.35013 0.84676 0.0
C1224 C 0.42123 0.34517 0.84096 0.0
C1225 C 0.42117 0.3389 0.82695 0.0
C1226 C 0.35839 0.38794 0.83127 0.0
C1227 C 0.34346 0.38947 0.82795 0.0
C1228 C 0.36815 0.39842 0.82604 0.0
C1229 C 0.36316 0.41002 0.81753 0.0
C1230 C 0.34826 0.41143 0.81399 0.0
C1231 C 0.33846 0.40106 0.81936 0.0
C1232 C 0.40789 0.33734 0.81901 0.0
H1233 H 0.32083 0.34849 0.88612 0.0
H1234 H 0.33329 0.35588 0.86435 0.0
H1235 H 0.37471 0.35105 0.88733 0.0
H1236 H 0.36223 0.3437 0.90918 0.0
H1237 H 0.34758 0.37643 0.85602 0.0
H1238 H 0.37966 0.343 0.86254 0.0
H1239 H 0.3815 0.37126 0.82552 0.0
H1240 H 0.38505 0.34176 0.81812 0.0
H1241 H 0.40867 0.3553 0.8574 0.0
H1242 H 0.43132 0.34644 0.84732 0.0
H1243 H 0.33568 0.38153 0.83175 0.0
H1244 H 0.37971 0.39766 0.82855 0.0
H1245 H 0.40755 0.33264 0.80816 0.0
H1246 H 0.32689 0.40192 0.81696 0.0
H1247 H 0.37102 0.41774 0.81348 0.0
Cu1248 Cu 0.28326 0.28853 0.02363 0.0
N1249 N 0.2824 0.30362 0.00992 0.0
N1250 N 0.28831 0.31623 0.99009 0.0
C1251 C 0.29074 0.30418 0.99817 0.0
C1252 C 0.27798 0.32355 0.99709 0.0
C1253 C 0.27434 0.31574 0.00928 0.0
O1254 O 0.28391 0.27069 0.01196 0.0
C1255 C 0.29964 0.30505 0.04331 0.0
O1256 O 0.29005 0.31449 0.03848 0.0
H1257 H 0.29866 0.29598 0.99579 0.0
H1258 H 0.26654 0.31884 0.01721 0.0
N1259 N 0.26691 0.28676 0.03509 0.0
N1260 N 0.25302 0.27687 0.05205 0.0
C1261 C 0.26618 0.27711 0.04602 0.0
C1262 C 0.25374 0.29297 0.03412 0.0
C1263 C 0.24513 0.28686 0.04457 0.0
C1264 C 0.27196 0.26804 1.00488 0.0
O1265 O 0.26112 0.27701 1.00634 0.0
H1266 H 0.27503 0.26997 0.04909 0.0
H1267 H 0.25043 0.30096 0.02611 0.0
O1268 O 0.2994 0.29229 0.03772 0.0
H1269 H 0.27333 0.33378 0.99364 0.0
H1270 H 0.23392 0.28949 0.04641 0.0
Cu1271 Cu 0.78708 0.2659 0.02321 0.0
N1272 N 0.7694 0.26958 0.03376 0.0
N1273 N 0.75413 0.27837 0.04979 0.0
C1274 C 0.76817 0.27605 0.04686 0.0
C1275 C 0.74626 0.27321 0.03818 0.0
C1276 C 0.75572 0.26771 0.02832 0.0
O1277 O 0.79635 0.2562 0.0412 0.0
C1278 C 0.78241 0.28655 0.99907 0.0
O1279 O 0.79427 0.29292 1.00451 0.0
H1280 H 0.7773 0.27958 0.05381 0.0
H1281 H 0.75287 0.26313 0.0177 0.0
N1282 N 0.80463 0.26229 0.01247 0.0
N1283 N 0.81902 0.25487 0.99495 0.0
C1284 C 0.80579 0.25357 1.00075 0.0
C1285 C 0.81751 0.26927 0.01422 0.0
C1286 C 0.82642 0.26472 1.00339 0.0
C1287 C 0.80407 0.2633 0.05066 0.0
O1288 O 0.80613 0.27735 0.04884 0.0
H1289 H 0.79692 0.24696 0.99618 0.0
H1290 H 0.82005 0.27745 0.02246 0.0
O1291 O 0.77755 0.27511 1.00508 0.0
H1292 H 0.73454 0.27357 0.03687 0.0
H1293 H 0.83742 0.2685 1.00174 0.0
Cu1294 Cu 0.76708 0.7701 1.00723 0.0
N1295 N 0.78494 0.77427 0.99896 0.0
N1296 N 0.80067 0.78405 0.98368 0.0
C1297 C 0.78706 0.7788 0.98523 0.0
C1298 C 0.80744 0.7826 0.99686 0.0
C1299 C 0.79773 0.77649 1.00624 0.0
O1300 O 0.75292 0.76377 0.99209 0.0
C1301 C 0.76856 0.79849 0.02029 0.0
O1302 O 0.77618 0.80249 1.00914 0.0
H1303 H 0.77855 0.77931 0.97684 0.0
H1304 H 0.79954 0.77475 0.01781 0.0
N1305 N 0.76862 0.75459 0.02015 0.0
N1306 N 0.76266 0.74055 0.03891 0.0
C1307 C 0.76081 0.75347 0.03221 0.0
C1308 C 0.77575 0.74196 0.01912 0.0
C1309 C 0.77207 0.73324 0.0307 0.0
C1310 C 0.74807 0.77085 0.9811 0.0
O1311 O 0.75137 0.78474 0.97991 0.0
H1312 H 0.75333 0.76172 0.03557 0.0
H1313 H 0.78273 0.73912 0.01034 0.0
O1314 O 0.76194 0.78622 0.01989 0.0
H1315 H 0.8184 0.78631 0.99967 0.0
H1316 H 0.77582 0.72229 0.03277 0.0
Cu1317 Cu 0.25039 0.76739 1.00572 0.0
N1318 N 0.23314 0.76837 0.01566 0.0
N1319 N 0.21752 0.77331 0.03299 0.0
C1320 C 0.23133 0.76982 0.0301 0.0
C1321 C 0.21037 0.77393 0.01992 0.0
C1322 C 0.22003 0.77089 0.00928 0.0
O1323 O 0.26666 0.76446 0.01953 0.0
C1324 C 0.2579 0.78656 0.98227 0.0
O1325 O 0.26816 0.7773 0.97938 0.0
H1326 H 0.24011 0.76937 0.03824 0.0
H1327 H 0.21789 0.77137 0.99762 0.0
N1328 N 0.24966 0.75132 0.99324 0.0
N1329 N 0.25686 0.73516 0.97682 0.0
C1330 C 0.26101 0.74575 0.98638 0.0
C1331 C 0.23791 0.74382 0.98808 0.0
C1332 C 0.24232 0.73385 0.97791 0.0
C1333 C 0.27044 0.77258 0.03031 0.0
O1334 O 0.26411 0.7852 0.0319 0.0
H1335 H 0.27201 0.74995 0.98785 0.0
H1336 H 0.22687 0.74575 0.99112 0.0
O1337 O 0.25068 0.78487 0.99372 0.0
H1338 H 0.19913 0.777 0.01818 0.0
H1339 H 0.2353 0.72647 0.9716 0.0
Cu1340 Cu 0.03545 0.27 0.27393 0.0
N1341 N 0.04503 0.26951 0.25639 0.0
N1342 N 0.06117 0.26242 0.24029 0.0
C1343 C 0.05525 0.25976 0.25324 0.0
C1344 C 0.05455 0.27447 0.23512 0.0
C1345 C 0.04454 0.27882 0.24509 0.0
O1346 O 0.05076 0.26802 0.28895 0.0
C1347 C 0.01977 0.24334 0.26663 0.0
O1348 O 0.03188 0.23855 0.26133 0.0
H1349 H 0.05861 0.25112 0.26055 0.0
H1350 H 0.03761 0.28823 0.24431 0.0
N1351 N 0.02626 0.28776 0.27663 0.0
N1352 N 1.00917 0.30274 0.28429 0.0
C1353 C 0.01226 0.28907 0.28012 0.0
C1354 C 0.03225 0.3011 0.27852 0.0
C1355 C 0.02171 0.31039 0.28331 0.0
C1356 C 0.05084 0.27441 0.30129 0.0
O1357 O 0.03882 0.28028 0.3057 0.0
H1358 H 1.00477 0.27992 0.28064 0.0
H1359 H 0.04365 0.30367 0.27738 0.0
O1360 O 0.01985 0.25544 0.27345 0.0
H1361 H 0.0568 0.27975 0.22492 0.0
H1362 H 0.02328 0.32172 0.28633 0.0
Cu1363 Cu 0.76927 0.02037 0.27036 0.0
N1364 N 0.78734 0.02988 0.26999 0.0
N1365 N 0.80401 0.04622 0.26335 0.0
C1366 C 0.79044 0.04083 0.26087 0.0
C1367 C 0.80974 0.03821 0.27439 0.0
C1368 C 0.79939 0.02816 0.27851 0.0
O1369 O 0.75438 0.03542 0.26861 0.0
C1370 C 0.77847 0.99537 0.25789 0.0
O1371 O 0.78664 0.99638 0.2699 0.0
H1372 H 0.78277 0.04482 0.25267 0.0
H1373 H 0.80047 0.02034 0.28725 0.0
N1374 N 0.76635 0.01085 0.28804 0.0
N1375 N 0.75749 0.99442 0.30334 0.0
C1376 C 0.7597 0.99779 0.28932 0.0
C1377 C 0.76844 0.01589 0.30176 0.0
C1378 C 0.76288 1.00579 0.31125 0.0
C1379 C 0.75692 0.04662 0.27665 0.0
O1380 O 0.76881 0.04707 0.28499 0.0
H1381 H 0.75595 0.99117 0.28011 0.0
H1382 H 0.77325 0.02636 0.30466 0.0
O1383 O 0.76928 1.00537 0.25515 0.0
H1384 H 0.82046 0.03978 0.27943 0.0
H1385 H 0.76265 1.00677 0.323 0.0
Cu1386 Cu 0.99407 0.75752 0.27113 0.0
N1387 N 0.98122 0.77329 0.27087 0.0
N1388 N 0.96334 0.78787 0.26277 0.0
C1389 C 0.97133 0.77598 0.26003 0.0
C1390 C 0.96837 0.79278 0.27593 0.0
C1391 C 0.9793 0.78371 0.28094 0.0
O1392 O 0.98224 0.74056 0.27577 0.0
C1393 C 1.00792 0.76889 0.24769 0.0
O1394 O 1.00463 0.78086 0.25465 0.0
H1395 H 0.97015 0.7694 0.25025 0.0
H1396 H 0.98524 0.78456 0.29129 0.0
N1397 N 1.00976 0.75927 0.28474 0.0
N1398 N 0.0311 0.7535 0.29572 0.0
C1399 C 0.01939 0.74863 0.28769 0.0
C1400 C 0.01557 0.77134 0.29107 0.0
C1401 C 0.02866 0.7678 0.29792 0.0
C1402 C 0.97911 0.73913 0.28911 0.0
O1403 O 0.98497 0.74826 0.29876 0.0
H1404 H 0.01825 0.73774 0.2832 0.0
H1405 H 0.01108 0.78212 0.2901 0.0
O1406 O 1.00347 0.75669 0.25251 0.0
H1407 H 0.96422 0.80207 0.28168 0.0
H1408 H 0.03599 0.77532 0.30367 0.0
Cu1409 Cu 0.23901 1.00217 0.26242 0.0
N1410 N 0.24027 0.01308 0.2797 0.0
N1411 N 0.24868 0.03036 0.29514 0.0
C1412 C 0.2496 0.02433 0.28178 0.0
C1413 C 0.23835 0.02251 0.30178 0.0
C1414 C 0.23316 0.01186 0.2922 0.0
O1415 O 0.23923 0.01673 0.24688 0.0
C1416 C 0.25475 0.98058 0.27507 0.0
O1417 O 0.24388 0.98217 0.28379 0.0
H1418 H 0.25712 0.02782 0.27367 0.0
H1419 H 0.22494 1.00371 0.29432 0.0
N1420 N 0.22181 0.99113 0.26063 0.0
N1421 N 0.20677 0.97282 0.25393 0.0
C1422 C 0.22005 0.97893 0.25253 0.0
C1423 C 0.20917 0.99287 0.2673 0.0
C1424 C 0.19988 0.98153 0.26324 0.0
C1425 C 0.22953 0.02641 0.24825 0.0
O1426 O 0.22018 0.0248 0.25862 0.0
H1427 H 0.22851 0.97443 0.24604 0.0
H1428 H 0.20685 1.0017 0.27465 0.0
O1429 O 0.2551 0.98844 0.26365 0.0
H1430 H 0.23474 0.02436 0.31271 0.0
H1431 H 0.1889 0.97987 0.26679 0.0
Cu1432 Cu 0.02399 0.76638 0.7664 0.0
N1433 N 0.03391 0.74888 0.76449 0.0
N1434 N 0.05094 0.73406 0.75634 0.0
C1435 C 0.04523 0.74751 0.75577 0.0
C1436 C 0.04273 0.7266 0.76575 0.0
C1437 C 0.03223 0.73581 0.77081 0.0
O1438 O 0.03896 0.78162 0.76807 0.0
C1439 C 0.99976 0.75787 0.75098 0.0
O1440 O 1.00025 0.74878 0.76199 0.0
H1441 H 0.04912 0.75629 0.74907 0.0
H1442 H 0.02406 0.7332 0.77859 0.0
N1443 N 0.01299 0.76769 0.78305 0.0
N1444 N 0.99506 0.77558 0.79672 0.0
C1445 C 1.0013 0.77626 0.78368 0.0
C1446 C 0.01434 0.76136 0.79621 0.0
C1447 C 1.00327 0.76626 0.80472 0.0
C1448 C 0.04869 0.7789 0.77791 0.0
O1449 O 0.04735 0.76701 0.78568 0.0
H1450 H 0.99757 0.78302 0.77471 0.0
H1451 H 0.02274 0.75376 0.7994 0.0
O1452 O 0.00997 0.76731 0.74996 0.0
H1453 H 0.04434 0.7154 0.76896 0.0
H1454 H 1.00134 0.76309 0.81583 0.0
Cu1455 Cu 0.2737 0.03362 0.75837 0.0
N1456 N 0.27607 0.04483 0.74158 0.0
N1457 N 0.28397 0.0627 0.72719 0.0
C1458 C 0.28238 0.05814 0.74103 0.0
C1459 C 0.27832 0.05182 0.71871 0.0
C1460 C 0.2735 0.04083 0.7276 0.0
O1461 O 0.2705 0.04656 0.7748 0.0
C1462 C 0.30025 0.01907 0.75245 0.0
O1463 O 0.30327 0.03032 0.74427 0.0
H1464 H 0.28637 0.06403 0.75059 0.0
H1465 H 0.26895 0.03042 0.72411 0.0
N1466 N 0.25715 0.02175 0.7568 0.0
N1467 N 0.24232 1.00335 0.76253 0.0
C1468 C 0.2544 0.01111 0.76637 0.0
C1469 C 0.24638 0.0208 0.7465 0.0
C1470 C 0.23723 1.00937 0.74999 0.0
C1471 C 0.27933 0.05569 0.78086 0.0
O1472 O 0.29296 0.05602 0.77707 0.0
H1473 H 0.26146 1.00882 0.77575 0.0
H1474 H 0.24535 0.02775 0.73705 0.0
O1475 O 0.28937 0.01958 0.76063 0.0
H1476 H 0.2779 0.05165 0.70692 0.0
H1477 H 0.22761 1.00578 0.74378 0.0
Cu1478 Cu 0.03084 0.27297 0.78805 0.0
N1479 N 0.01996 0.29011 0.78808 0.0
N1480 N 1.00222 0.30536 0.78111 0.0
C1481 C 1.00816 0.29213 0.77926 0.0
C1482 C 0.01075 0.31197 0.79153 0.0
C1483 C 0.02168 0.30252 0.79583 0.0
O1484 O 0.01658 0.25711 0.78665 0.0
C1485 C 0.05384 0.28446 0.77448 0.0
O1486 O 0.05376 0.29188 0.78675 0.0
H1487 H 1.00416 0.28404 0.77144 0.0
H1488 H 0.03026 0.30458 0.80396 0.0
N1489 N 0.04261 0.27012 0.80493 0.0
N1490 N 0.06148 0.26209 0.81867 0.0
C1491 C 0.05473 0.26203 0.80534 0.0
C1492 C 0.04154 0.27549 0.81849 0.0
C1493 C 0.05314 0.27054 0.827 0.0
C1494 C 1.00709 0.25797 0.79638 0.0
O1495 O 1.00848 0.26836 0.80624 0.0
H1496 H 0.05848 0.2562 0.79595 0.0
H1497 H 0.03303 0.2826 0.82193 0.0
O1498 O 0.04399 0.27479 0.77202 0.0
H1499 H 1.00916 0.32278 0.79587 0.0
H1500 H 0.0554 0.27323 0.83836 0.0
Cu1501 Cu 0.75898 0.01887 0.76259 0.0
N1502 N 0.762 0.02926 0.78 0.0
N1503 N 0.77133 0.04646 0.79504 0.0
C1504 C 0.77045 0.04129 0.78126 0.0
C1505 C 0.76316 0.03722 0.80282 0.0
C1506 C 0.7574 0.02661 0.7935 0.0
O1507 O 0.75893 0.03345 0.74702 0.0
C1508 C 0.77128 0.9935 0.77187 0.0
O1509 O 0.75969 0.99441 0.77974 0.0
H1510 H 0.77611 0.04594 0.77222 0.0
H1511 H 0.75049 0.01756 0.7964 0.0
N1512 N 0.74088 1.00939 0.76138 0.0
N1513 N 0.72436 0.99244 0.75455 0.0
C1514 C 0.73755 0.99833 0.75213 0.0
C1515 C 0.72935 0.01068 0.76987 0.0
C1516 C 0.71914 1.00017 0.76571 0.0
C1517 C 0.74974 0.0435 0.74906 0.0
O1518 O 0.74152 0.04258 0.76043 0.0
H1519 H 0.74499 0.99423 0.74428 0.0
H1520 H 0.72858 0.01842 0.7787 0.0
O1521 O 0.77377 1.00362 0.76275 0.0
H1522 H 0.76142 0.03809 0.81439 0.0
H1523 H 0.70879 0.99823 0.77063 0.0
Cu1524 Cu 0.26801 0.77417 0.50945 0.0
N1525 N 0.28203 0.77475 0.52472 0.0
N1526 N 0.29356 0.78246 0.54527 0.0
C1527 C 0.28412 0.78587 0.53424 0.0
C1528 C 0.29758 0.76865 0.54254 0.0
C1529 C 0.29042 0.76392 0.52989 0.0
O1530 O 0.24957 0.77152 0.519 0.0
C1531 C 0.28291 0.79492 0.49414 0.0
O1532 O 0.29373 0.78807 0.50068 0.0
H1533 H 0.27822 0.79597 0.53346 0.0
H1534 H 0.29084 0.75314 0.52516 0.0
N1535 N 0.27039 0.75856 0.49665 0.0
N1536 N 0.26501 0.74335 0.47806 0.0
C1537 C 0.25991 0.75332 0.48738 0.0
C1538 C 0.28263 0.75176 0.49307 0.0
C1539 C 0.27933 0.74233 0.48163 0.0
C1540 C 0.24743 0.75873 0.52392 0.0
O1541 O 0.25702 0.74864 0.5214 0.0
H1542 H 0.24889 0.75732 0.48704 0.0
H1543 H 0.29328 0.75394 0.498 0.0
O1544 O 0.26994 0.79135 0.49719 0.0
H1545 H 0.30493 0.7623 0.54935 0.0
H1546 H 0.28695 0.73549 0.47618 0.0
Cu1547 Cu 0.74812 0.75993 0.51805 0.0
N1548 N 0.75072 0.74285 0.50731 0.0
N1549 N 0.75862 0.72805 0.48991 0.0
C1550 C 0.757 0.74197 0.49432 0.0
C1551 C 0.75299 0.71985 0.50057 0.0
C1552 C 0.74814 0.72901 0.51128 0.0
O1553 O 0.74312 0.77544 0.50444 0.0
C1554 C 0.77691 0.75675 0.53052 0.0
O1555 O 0.77978 0.7498 0.51845 0.0
H1556 H 0.76095 0.75135 0.48856 0.0
H1557 H 0.74345 0.7258 0.52143 0.0
N1558 N 0.73245 0.75804 0.53023 0.0
N1559 N 0.71838 0.76282 0.54899 0.0
C1560 C 0.73105 0.76578 0.54257 0.0
C1561 C 0.72027 0.74986 0.5287 0.0
C1562 C 0.71155 0.75279 0.54027 0.0
C1563 C 0.75125 0.78129 0.49513 0.0
O1564 O 0.76517 0.77827 0.49538 0.0
H1565 H 0.73903 0.77375 0.54648 0.0
H1566 H 0.71783 0.74245 0.51972 0.0
O1567 O 0.76482 0.76322 0.53142 0.0
H1568 H 0.75255 0.70808 0.50076 0.0
H1569 H 0.70103 0.74789 0.54209 0.0
Cu1570 Cu 0.79201 0.26174 0.51328 0.0
N1571 N 0.79119 0.2455 0.50079 0.0
N1572 N 0.78223 0.23139 0.48252 0.0
C1573 C 0.7805 0.24358 0.49051 0.0
C1574 C 0.79454 0.22535 0.48802 0.0
C1575 C 0.8 0.23404 0.49933 0.0
O1576 O 0.79241 0.27859 0.50039 0.0
C1577 C 0.77735 0.24901 0.5347 0.0
O1578 O 0.78871 0.24068 0.53323 0.0
H1579 H 0.77175 0.2512 0.48875 0.0
H1580 H 0.80967 0.23201 0.50596 0.0
N1581 N 0.80838 0.26339 0.52616 0.0
N1582 N 0.82165 0.27199 0.54535 0.0
C1583 C 0.80935 0.27332 0.53702 0.0
C1584 C 0.8206 0.25552 0.52761 0.0
C1585 C 0.82876 0.26077 0.53947 0.0
C1586 C 0.80458 0.28021 0.49433 0.0
O1587 O 0.81503 0.27106 0.4976 0.0
H1588 H 0.80093 0.28113 0.539 0.0
H1589 H 0.82344 0.24659 0.52065 0.0
O1590 O 0.77565 0.25977 0.52608 0.0
H1591 H 0.79917 0.2153 0.48426 0.0
H1592 H 0.83916 0.25669 0.5434 0.0
Cu1593 Cu 0.27043 0.27171 0.51965 0.0
N1594 N 0.25324 0.27445 0.52947 0.0
N1595 N 0.23765 0.28182 0.54608 0.0
C1596 C 0.25176 0.28066 0.54265 0.0
C1597 C 0.23002 0.27601 0.53456 0.0
C1598 C 0.23964 0.27156 0.52435 0.0
O1599 O 0.28659 0.26889 0.5336 0.0
C1600 C 0.2662 0.29922 0.50564 0.0
O1601 O 0.25982 0.30308 0.51761 0.0
H1602 H 0.26086 0.28471 0.54931 0.0
H1603 H 0.23691 0.26681 0.51379 0.0
N1604 N 0.269 0.25457 0.50878 0.0
N1605 N 0.27405 0.23816 0.49176 0.0
C1606 C 0.27776 0.2511 0.49792 0.0
C1607 C 0.25947 0.2434 0.50964 0.0
C1608 C 0.26251 0.23328 0.49905 0.0
C1609 C 0.29212 0.27784 0.54293 0.0
O1610 O 0.2877 0.29138 0.543 0.0
H1611 H 0.28651 0.2581 0.49444 0.0
H1612 H 0.25092 0.24266 0.51738 0.0
O1613 O 0.27264 0.28704 0.50522 0.0
H1614 H 0.21831 0.2751 0.53344 0.0
H1615 H 0.25679 0.22306 0.49698 0.0
Cu1616 Cu 0.78557 0.52349 0.7697 0.0
N1617 N 0.80191 0.5356 0.76732 0.0
N1618 N 0.81495 0.55424 0.7586 0.0
C1619 C 0.8017 0.54777 0.75915 0.0
C1620 C 0.82385 0.54573 0.76681 0.0
C1621 C 0.8158 0.53427 0.77215 0.0
O1622 O 0.76942 0.53679 0.77237 0.0
C1623 C 0.79497 0.50107 0.75345 0.0
O1624 O 0.80536 0.5028 0.76351 0.0
H1625 H 0.792 0.55155 0.75339 0.0
H1626 H 0.8199 0.52546 0.77883 0.0
N1627 N 0.78646 0.51134 0.78615 0.0
N1628 N 0.78001 0.49274 0.80035 0.0
C1629 C 0.77649 0.50082 0.78852 0.0
C1630 C 0.79664 0.50996 0.79694 0.0
C1631 C 0.79271 0.49844 0.80569 0.0
C1632 C 0.77055 0.54363 0.78451 0.0
O1633 O 0.78166 0.54079 0.79338 0.0
H1634 H 0.76707 0.49881 0.78134 0.0
H1635 H 0.80631 0.51668 0.7983 0.0
O1636 O 0.78427 0.50978 0.75329 0.0
H1637 H 0.83538 0.54759 0.76884 0.0
H1638 H 0.79874 0.49457 0.81522 0.0
Cu1639 Cu 0.28135 0.52254 0.74062 0.0
N1640 N 0.29844 0.51178 0.74233 0.0
N1641 N 0.3133 0.49447 0.75087 0.0
C1642 C 0.29985 0.50011 0.75102 0.0
C1643 C 0.32071 0.50306 0.74173 0.0
C1644 C 0.3115 0.51375 0.73647 0.0
O1645 O 0.26545 0.50839 0.74173 0.0
C1646 C 0.29234 0.54737 0.75307 0.0
O1647 O 0.29952 0.54636 0.74101 0.0
H1648 H 0.29118 0.49607 0.75763 0.0
H1649 H 0.31422 0.52242 0.72908 0.0
N1650 N 0.27896 0.53215 0.72277 0.0
N1651 N 0.27033 0.54864 0.70697 0.0
C1652 C 0.2691 0.54261 0.72024 0.0
C1653 C 0.28666 0.5314 0.71061 0.0
C1654 C 0.2814 0.54165 0.70085 0.0
C1655 C 0.26647 0.49828 0.73226 0.0
O1656 O 0.27708 0.49907 0.72309 0.0
H1657 H 0.26154 0.54612 0.72827 0.0
H1658 H 0.29563 0.52414 0.70904 0.0
O1659 O 0.28291 0.53754 0.75574 0.0
H1660 H 0.33196 0.50173 0.739 0.0
H1661 H 0.28544 0.54384 0.69014 0.0
Cu1662 Cu 0.26344 0.52306 0.25309 0.0
N1663 N 0.24728 0.51042 0.25371 0.0
N1664 N 0.23375 0.49196 0.26198 0.0
C1665 C 0.24718 0.49649 0.25842 0.0
C1666 C 0.22503 0.50339 0.25925 0.0
C1667 C 0.23338 0.51472 0.25419 0.0
O1668 O 0.28083 0.51134 0.25125 0.0
C1669 C 0.26734 0.54786 0.27238 0.0
O1670 O 0.27786 0.55216 0.26409 0.0
H1671 H 0.25689 0.49025 0.26053 0.0
H1672 H 0.2298 0.52575 0.25235 0.0
N1673 N 0.26229 0.53551 0.23687 0.0
N1674 N 0.26815 0.55381 0.22195 0.0
C1675 C 0.27288 0.54466 0.23256 0.0
C1676 C 0.25053 0.53872 0.22843 0.0
C1677 C 0.25409 0.54997 0.21925 0.0
C1678 C 0.28578 0.50204 0.26034 0.0
O1679 O 0.28025 0.50126 0.27331 0.0
H1680 H 0.28365 0.54509 0.23768 0.0
H1681 H 0.23995 0.53361 0.22921 0.0
O1682 O 0.26172 0.53522 0.27044 0.0
H1683 H 0.21362 0.50385 0.26166 0.0
H1684 H 0.24674 0.55512 0.21144 0.0
Cu1685 Cu 0.77027 0.50921 0.24874 0.0
N1686 N 0.78688 0.49781 0.24921 0.0
N1687 N 0.80169 0.47996 0.25656 0.0
C1688 C 0.78817 0.48543 0.2569 0.0
C1689 C 0.80921 0.48933 0.24827 0.0
C1690 C 0.80005 0.50035 0.24379 0.0
O1691 O 0.75369 0.49588 0.24908 0.0
C1692 C 0.7813 0.53298 0.26341 0.0
O1693 O 0.78903 0.53293 0.25166 0.0
H1694 H 0.77947 0.48094 0.26317 0.0
H1695 H 0.80295 0.50976 0.23745 0.0
N1696 N 0.76829 0.52052 0.23191 0.0
N1697 N 0.75957 0.53803 0.21739 0.0
C1698 C 0.75824 0.5309 0.23008 0.0
C1699 C 0.77625 0.52099 0.2199 0.0
C1700 C 0.77092 0.53187 0.21093 0.0
C1701 C 0.75077 0.48923 0.23709 0.0
O1702 O 0.75876 0.49204 0.22584 0.0
H1703 H 0.75038 0.53346 0.23817 0.0
H1704 H 0.78532 0.51402 0.21783 0.0
O1705 O 0.77193 0.52284 0.26503 0.0
H1706 H 0.82057 0.48844 0.2458 0.0
H1707 H 0.77504 0.53498 0.20048 0.0
Cu1708 Cu 0.53953 0.28058 0.76446 0.0
N1709 N 0.5298 0.298 0.76761 0.0
N1710 N 0.51287 0.31247 0.77652 0.0
C1711 C 0.51594 0.29899 0.77173 0.0
C1712 C 0.52527 0.3203 0.77539 0.0
C1713 C 0.53571 0.31133 0.76991 0.0
O1714 O 0.52435 0.26581 0.76054 0.0
C1715 C 0.56443 0.27226 0.78247 0.0
O1716 O 0.56741 0.26294 0.77217 0.0
H1717 H 0.50862 0.28972 0.77235 0.0
H1718 H 0.54706 0.31406 0.76869 0.0
N1719 N 0.55129 0.28164 0.74824 0.0
N1720 N 0.56751 0.27468 0.73206 0.0
C1721 C 0.55805 0.27034 0.74214 0.0
C1722 C 0.55631 0.29357 0.74152 0.0
C1723 C 0.56631 0.28933 0.73155 0.0
C1724 C 0.51624 0.26897 0.74945 0.0
O1725 O 0.51956 0.2806 0.74191 0.0
H1726 H 0.55668 0.25921 0.7457 0.0
H1727 H 0.55336 0.30462 0.74408 0.0
O1728 O 0.5523 0.27881 0.78185 0.0
H1729 H 0.52687 0.3315 0.77888 0.0
H1730 H 0.57249 0.29655 0.72478 0.0
Cu1731 Cu 0.50694 0.75554 0.76534 0.0
N1732 N 0.51678 0.7379 0.76655 0.0
N1733 N 0.53464 0.72246 0.7723 0.0
C1734 C 0.53123 0.73625 0.76867 0.0
C1735 C 0.52187 0.71509 0.77229 0.0
C1736 C 0.51088 0.72463 0.76867 0.0
O1737 O 0.52068 0.77127 0.76234 0.0
C1738 C 0.49654 0.75082 0.79398 0.0
O1739 O 0.50886 0.74416 0.79681 0.0
H1740 H 0.539 0.74518 0.76868 0.0
H1741 H 0.49932 0.72231 0.76859 0.0
N1742 N 0.49393 0.75594 0.74938 0.0
N1743 N 0.47602 0.7648 0.73507 0.0
C1744 C 0.48607 0.7677 0.74579 0.0
C1745 C 0.48879 0.74513 0.74062 0.0
C1746 C 0.47768 0.75058 0.73176 0.0
C1747 C 0.53127 0.77531 0.77075 0.0
O1748 O 0.53286 0.76951 0.78376 0.0
H1749 H 0.48715 0.77798 0.75157 0.0
H1750 H 0.49243 0.73399 0.74104 0.0
O1751 O 0.49475 0.75762 0.78201 0.0
H1752 H 0.52053 0.7038 0.77536 0.0
H1753 H 0.47112 0.74448 0.72377 0.0
Cu1754 Cu 0.51294 0.76115 0.26966 0.0
N1755 N 0.50212 0.76207 0.28657 0.0
N1756 N 0.48408 0.76917 0.30061 0.0
C1757 C 0.48979 0.76972 0.28728 0.0
C1758 C 0.4933 0.76087 0.30868 0.0
C1759 C 0.50441 0.75648 0.29997 0.0
O1760 O 0.49834 0.76125 0.25353 0.0
C1761 C 0.53752 0.77406 0.28105 0.0
O1762 O 0.53641 0.76197 0.28854 0.0
H1763 H 0.48527 0.77585 0.27819 0.0
H1764 H 0.51354 0.74982 0.30326 0.0
N1765 N 0.52344 0.74396 0.26747 0.0
N1766 N 0.54047 0.7296 0.25856 0.0
C1767 C 0.53312 0.74214 0.257 0.0
C1768 C 0.52456 0.73207 0.27594 0.0
C1769 C 0.53514 0.7232 0.27049 0.0
C1770 C 0.48917 0.75081 0.25481 0.0
O1771 O 0.49115 0.74167 0.26566 0.0
H1772 H 0.5352 0.75024 0.24877 0.0
H1773 H 0.51846 0.73016 0.28561 0.0
O1774 O 0.52764 0.77684 0.27135 0.0
H1775 H 0.49207 0.75809 0.32001 0.0
H1776 H 0.53874 0.71295 0.27504 0.0
Cu1777 Cu 0.51177 0.25036 0.2684 0.0
N1778 N 0.50121 0.23297 0.27008 0.0
N1779 N 0.48382 0.21781 0.27748 0.0
C1780 C 0.49049 0.23088 0.27944 0.0
C1781 C 0.49078 0.21134 0.26654 0.0
C1782 C 0.50148 0.22077 0.26195 0.0
O1783 O 0.49806 0.26647 0.2697 0.0
C1784 C 0.53695 0.23978 0.28044 0.0
O1785 O 0.53417 0.23085 0.26943 0.0
H1786 H 0.48744 0.23899 0.28731 0.0
H1787 H 0.50864 0.21904 0.25303 0.0
N1788 N 0.52012 0.25204 0.25022 0.0
N1789 N 0.53613 0.25932 0.23402 0.0
C1790 C 0.53353 0.2575 0.24823 0.0
C1791 C 0.51401 0.25034 0.23675 0.0
C1792 C 0.52388 0.25494 0.22669 0.0
C1793 C 0.48623 0.2646 0.26218 0.0
O1794 O 0.48431 0.25243 0.25476 0.0
H1795 H 0.54098 0.26081 0.25706 0.0
H1796 H 0.50302 0.24653 0.2344 0.0
O1797 O 0.52794 0.24987 0.28285 0.0
H1798 H 0.48797 0.20083 0.26178 0.0
H1799 H 0.52212 0.2553 0.21497 0.0
H1800 H 0.21161 0.20902 0.10223 0.0
H1801 H 0.241 0.23089 0.13314 0.0
H1802 H 0.21974 0.22515 0.08297 0.0
H1803 H 0.24876 0.24728 0.11406 0.0
H1804 H 0.26991 0.26459 0.07332 0.0
H1805 H 0.26233 0.24764 0.09197 0.0
H1806 H 0.21783 0.25073 0.07579 0.0
H1807 H 0.22552 0.26734 0.05677 0.0
C1808 C 0.21989 0.21718 0.10489 0.0
C1809 C 0.22564 0.21866 0.11924 0.0
C1810 C 0.22441 0.22656 0.0939 0.0
C1811 C 0.23485 0.23758 0.09697 0.0
C1812 C 0.24079 0.23886 0.11126 0.0
C1813 C 0.23624 0.22953 0.12224 0.0
C1814 C 0.25852 0.26158 0.07365 0.0
C1815 C 0.24834 0.26732 0.06348 0.0
C1816 C 0.25415 0.25196 0.08445 0.0
C1817 C 0.23947 0.24779 0.08539 0.0
C1818 C 0.22926 0.25357 0.07528 0.0
C1819 C 0.23363 0.26325 0.06448 0.0
H1820 H 0.823 0.20604 0.12453 0.0
H1821 H 0.85915 0.23645 0.12492 0.0
H1822 H 0.81218 0.21821 0.10331 0.0
H1823 H 0.84849 0.24851 0.10356 0.0
H1824 H 0.81856 0.27572 0.07422 0.0
H1825 H 0.82897 0.26366 0.09567 0.0
H1826 H 0.81496 0.22195 0.07787 0.0
H1827 H 0.80416 0.23408 0.05661 0.0
C1828 C 0.82871 0.21525 0.12 0.0
C1829 C 0.84194 0.22027 0.12645 0.0
C1830 C 0.82251 0.22223 0.10779 0.0
C1831 C 0.82943 0.23437 0.10164 0.0
C1832 C 0.84269 0.23936 0.10811 0.0
C1833 C 0.84884 0.23243 0.12036 0.0
C1834 C 0.81769 0.26397 0.07488 0.0
C1835 C 0.81051 0.25588 0.06367 0.0
C1836 C 0.82375 0.25703 0.08716 0.0
C1837 C 0.82287 0.24179 0.08856 0.0
C1838 C 0.81568 0.23371 0.07732 0.0
C1839 C 0.80956 0.24066 0.06506 0.0
H1840 H 0.78324 0.82259 0.11257 0.0
H1841 H 0.81722 0.8435 0.08886 0.0
H1842 H 0.77145 0.8145 0.08966 0.0
H1843 H 0.80596 0.83488 0.06596 0.0
H1844 H 0.77917 0.82612 0.02533 0.0
H1845 H 0.78719 0.83686 0.04863 0.0
H1846 H 0.7729 0.79802 0.07071 0.0
H1847 H 0.7642 0.78775 0.04757 0.0
C1848 C 0.78826 0.82533 0.10243 0.0
C1849 C 0.80116 0.83366 0.10252 0.0
C1850 C 0.78153 0.82065 0.08925 0.0
C1851 C 0.78767 0.82397 0.07579 0.0
C1852 C 0.80063 0.83234 0.07597 0.0
C1853 C 0.8072 0.83721 0.08914 0.0
C1854 C 0.77745 0.82004 0.03521 0.0
C1855 C 0.77104 0.80608 0.03454 0.0
C1856 C 0.78223 0.82611 0.04861 0.0
C1857 C 0.781 0.81827 0.06169 0.0
C1858 C 0.77396 0.80456 0.06102 0.0
C1859 C 0.76895 0.7986 0.04766 0.0
H1860 H 0.20378 0.79369 0.12423 0.0
H1861 H 0.16433 0.80611 0.10073 0.0
H1862 H 0.21425 0.78648 0.10136 0.0
H1863 H 0.17421 0.7977 0.07823 0.0
H1864 H 0.19975 0.79574 0.03773 0.0
H1865 H 0.19071 0.80379 0.06091 0.0
H1866 H 0.21379 0.76887 0.08271 0.0
H1867 H 0.22343 0.76138 0.05937 0.0
C1868 C 0.19731 0.79487 0.11423 0.0
C1869 C 0.18316 0.8005 0.11443 0.0
C1870 C 0.20324 0.79049 0.1011 0.0
C1871 C 0.19513 0.79148 0.08785 0.0
C1872 C 0.18095 0.797 0.08811 0.0
C1873 C 0.17514 0.80159 0.10115 0.0
C1874 C 0.20281 0.78976 0.04749 0.0
C1875 C 0.21214 0.77785 0.04678 0.0
C1876 C 0.19759 0.79433 0.06081 0.0
C1877 C 0.20132 0.7869 0.07377 0.0
C1878 C 0.21079 0.775 0.07304 0.0
C1879 C 0.21625 0.77061 0.05969 0.0
H1880 H 0.20195 0.8191 0.91399 0.0
H1881 H 0.24092 0.84475 0.90768 0.0
H1882 H 0.21326 0.80841 0.93571 0.0
H1883 H 0.25237 0.83352 0.92918 0.0
H1884 H 0.27116 0.79424 0.95709 0.0
H1885 H 0.2608 0.80822 0.9367 0.0
H1886 H 0.22237 0.81593 0.961 0.0
H1887 H 0.23268 0.80206 0.98139 0.0
C1888 C 0.21285 0.82263 0.91727 0.0
C1889 C 0.22044 0.83288 0.90897 0.0
C1890 C 0.21936 0.81642 0.92974 0.0
C1891 C 0.2337 0.82015 0.9342 0.0
C1892 C 0.24134 0.83035 0.92595 0.0
C1893 C 0.23477 0.83671 0.91356 0.0
C1894 C 0.26061 0.79914 0.9582 0.0
C1895 C 0.25275 0.79695 0.97088 0.0
C1896 C 0.25469 0.80717 0.94651 0.0
C1897 C 0.24069 0.81304 0.94718 0.0
C1898 C 0.23309 0.81137 0.96008 0.0
C1899 C 0.23907 0.80351 0.97182 0.0
H1900 H 0.26068 0.22994 0.92068 0.0
H1901 H 0.23532 0.2008 0.94674 0.0
H1902 H 0.27092 0.24146 0.94284 0.0
H1903 H 0.24558 0.21227 0.96887 0.0
H1904 H 0.2473 0.2526 0.99961 0.0
H1905 H 0.24163 0.23602 0.97951 0.0
H1906 H 0.28596 0.2395 0.96588 0.0
H1907 H 0.29164 0.25638 0.98627 0.0
C1908 C 0.25751 0.22579 0.93113 0.0
C1909 C 0.24699 0.21459 0.93191 0.0
C1910 C 0.26344 0.23237 0.94386 0.0
C1911 C 0.25898 0.22789 0.95766 0.0
C1912 C 0.24906 0.21617 0.95842 0.0
C1913 C 0.24313 0.20962 0.94573 0.0
C1914 C 0.25595 0.24957 0.99253 0.0
C1915 C 0.26991 0.25577 0.9945 0.0
C1916 C 0.25271 0.24 0.98101 0.0
C1917 C 0.26331 0.23644 0.97101 0.0
C1918 C 0.27752 0.24211 0.97335 0.0
C1919 C 0.28083 0.25163 0.98508 0.0
H1920 H 0.82572 0.20431 0.91562 0.0
H1921 H 0.86742 0.22624 0.92091 0.0
H1922 H 0.81774 0.21597 0.93765 0.0
H1923 H 0.85983 0.23701 0.94357 0.0
H1924 H 0.83691 0.26635 0.9752 0.0
H1925 H 0.8448 0.25492 0.9529 0.0
H1926 H 0.82034 0.21601 0.96315 0.0
H1927 H 0.81206 0.22778 0.98517 0.0
C1928 C 0.83322 0.21161 0.92146 0.0
C1929 C 0.84722 0.21436 0.91635 0.0
C1930 C 0.82871 0.21813 0.93429 0.0
C1931 C 0.83812 0.22745 0.9425 0.0
C1932 C 0.85218 0.23008 0.93747 0.0
C1933 C 0.85663 0.22369 0.92454 0.0
C1934 C 0.83331 0.25532 0.9727 0.0
C1935 C 0.82389 0.24794 0.98192 0.0
C1936 C 0.83786 0.24872 0.95993 0.0
C1937 C 0.83327 0.23448 0.95616 0.0
C1938 C 0.82391 0.22707 0.9655 0.0
C1939 C 0.8192 0.23377 0.97817 0.0
H1940 H 0.81052 0.82306 0.89847 0.0
H1941 H 0.84775 0.83886 0.92424 0.0
H1942 H 0.80178 0.81032 0.91958 0.0
H1943 H 0.83985 0.82492 0.94481 0.0
H1944 H 0.81639 0.80904 0.98411 0.0
H1945 H 0.82404 0.82307 0.96326 0.0
H1946 H 0.8048 0.79029 0.93425 0.0
H1947 H 0.7964 0.77686 0.9553 0.0
C1948 C 0.81688 0.82387 0.9086 0.0
C1949 C 0.82993 0.83205 0.90948 0.0
C1950 C 0.81199 0.81626 0.92072 0.0
C1951 C 0.82011 0.81637 0.93403 0.0
C1952 C 0.8331 0.82464 0.93491 0.0
C1953 C 0.83783 0.83248 0.92291 0.0
C1954 C 0.81391 0.80484 0.97325 0.0
C1955 C 0.8059 0.79184 0.97129 0.0
C1956 C 0.81834 0.81285 0.96123 0.0
C1957 C 0.81515 0.80789 0.9469 0.0
C1958 C 0.80725 0.79471 0.94502 0.0
C1959 C 0.80254 0.78689 0.95707 0.0
H1960 H 0.14524 0.23074 0.21896 0.0
H1961 H 0.11573 0.19972 0.19759 0.0
H1962 H 0.12461 0.24447 0.22721 0.0
H1963 H 0.09514 0.21319 0.20651 0.0
H1964 H 0.0648 0.23333 0.24134 0.0
H1965 H 0.08487 0.21949 0.23165 0.0
H1966 H 0.10353 0.25919 0.21513 0.0
H1967 H 0.08336 0.27303 0.22476 0.0
C1968 C 0.1344 0.22685 0.21592 0.0
C1969 C 0.13225 0.2141 0.20747 0.0
C1970 C 0.12257 0.23473 0.22072 0.0
C1971 C 0.10829 0.22994 0.21743 0.0
C1972 C 0.10606 0.21708 0.20926 0.0
C1973 C 0.11789 0.20931 0.20425 0.0
C1974 C 0.07318 0.23907 0.23559 0.0
C1975 C 0.07257 0.25425 0.23383 0.0
C1976 C 0.08459 0.23115 0.22998 0.0
C1977 C 0.09578 0.23827 0.22269 0.0
C1978 C 0.0951 0.25344 0.22079 0.0
C1979 C 0.08353 0.26134 0.22619 0.0
H1980 H 0.85941 0.118 0.23712 0.0
H1981 H 0.82399 0.1172 0.20496 0.0
H1982 H 0.84869 0.09715 0.24928 0.0
H1983 H 0.81332 0.09622 0.21699 0.0
H1984 H 0.79029 0.06931 0.2511 0.0
H1985 H 0.80127 0.08986 0.2388 0.0
H1986 H 0.84379 0.07149 0.24678 0.0
H1987 H 0.83272 0.05096 0.25927 0.0
C1988 C 0.84941 0.11326 0.23255 0.0
C1989 C 0.84255 0.11928 0.22006 0.0
C1990 C 0.84326 0.10127 0.23951 0.0
C1991 C 0.83012 0.09496 0.23415 0.0
C1992 C 0.82332 0.10093 0.22159 0.0
C1993 C 0.82944 0.11296 0.21466 0.0
C1994 C 0.80196 0.06956 0.25012 0.0
C1995 C 0.81062 0.05843 0.25611 0.0
C1996 C 0.80828 0.08137 0.24304 0.0
C1997 C 0.82343 0.08234 0.24171 0.0
C1998 C 0.8321 0.07121 0.24776 0.0
C1999 C 0.82577 0.05942 0.25491 0.0
H2000 H 0.91034 0.84125 0.20443 0.0
H2001 H 0.88159 0.80607 0.21644 0.0
H2002 H 0.92989 0.83066 0.21933 0.0
H2003 H 0.90134 0.79531 0.231 0.0
H2004 H 0.94495 0.77335 0.24383 0.0
H2005 H 0.92549 0.78362 0.22839 0.0
H2006 H 0.93591 0.82643 0.24567 0.0
H2007 H 0.95546 0.81618 0.26097 0.0
C2008 C 0.90811 0.8313 0.21027 0.0
C2009 C 0.89424 0.82462 0.20922 0.0
C2010 C 0.91938 0.8252 0.21881 0.0
C2011 C 0.91719 0.81216 0.22642 0.0
C2012 C 0.90345 0.80529 0.22516 0.0
C2013 C 0.89212 0.81146 0.21674 0.0
C2014 C 0.94316 0.78497 0.24426 0.0
C2015 C 0.9518 0.79394 0.25365 0.0
C2016 C 0.93192 0.79084 0.2355 0.0
C2017 C 0.92913 0.80586 0.23577 0.0
C2018 C 0.93783 0.81484 0.24509 0.0
C2019 C 0.94896 0.80894 0.25397 0.0
H2020 H 0.19639 0.89279 0.20404 0.0
H2021 H 0.15583 0.89679 0.22593 0.0
H2022 H 0.20531 0.91506 0.21572 0.0
H2023 H 0.16429 0.91971 0.23664 0.0
H2024 H 0.18875 0.95287 0.26553 0.0
H2025 H 0.18001 0.9301 0.2544 0.0
H2026 H 0.20329 0.94032 0.21557 0.0
H2027 H 0.21245 0.96274 0.22706 0.0
C2028 C 0.18933 0.89839 0.21133 0.0
C2029 C 0.17537 0.89285 0.21403 0.0
C2030 C 0.19438 0.91137 0.21787 0.0
C2031 C 0.18554 0.91933 0.22713 0.0
C2032 C 0.17154 0.91384 0.22975 0.0
C2033 C 0.16657 0.90075 0.22338 0.0
C2034 C 0.19192 0.95024 0.25459 0.0
C2035 C 0.2013 0.95956 0.24717 0.0
C2036 C 0.18688 0.9372 0.24816 0.0
C2037 C 0.19091 0.93326 0.23403 0.0
C2038 C 0.20017 0.94275 0.22657 0.0
C2039 C 0.20539 0.95566 0.23311 0.0
H2040 H 0.13578 0.81417 0.79547 0.0
H2041 H 0.10724 0.84123 0.81989 0.0
H2042 H 0.11474 0.80181 0.78391 0.0
H2043 H 0.08611 0.82866 0.8084 0.0
H2044 H 0.05135 0.80876 0.77564 0.0
H2045 H 0.07262 0.82382 0.78343 0.0
H2046 H 0.09632 0.78485 0.79435 0.0
H2047 H 0.07531 0.77004 0.7868 0.0
C2048 C 0.12501 0.8176 0.79825 0.0
C2049 C 0.12319 0.82864 0.80866 0.0
C2050 C 0.11296 0.81047 0.79167 0.0
C2051 C 0.09878 0.81426 0.79525 0.0
C2052 C 0.09691 0.8256 0.80532 0.0
C2053 C 0.10899 0.83266 0.81203 0.0
C2054 C 0.06121 0.8035 0.77949 0.0
C2055 C 0.06169 0.78826 0.78066 0.0
C2056 C 0.07331 0.81207 0.78405 0.0
C2057 C 0.08613 0.8055 0.7895 0.0
C2058 C 0.08668 0.79025 0.79008 0.0
C2059 C 0.0746 0.78177 0.78582 0.0
H2060 H 0.22977 0.11033 0.8394 0.0
H2061 H 0.25691 0.13995 0.81571 0.0
H2062 H 0.24095 0.08973 0.8275 0.0
H2063 H 0.26803 0.11937 0.80374 0.0
H2064 H 0.294 0.07909 0.79339 0.0
H2065 H 0.28393 0.09892 0.80753 0.0
H2066 H 0.24156 0.07816 0.80409 0.0
H2067 H 0.25165 0.05827 0.79033 0.0
C2068 C 0.23804 0.11246 0.83156 0.0
C2069 C 0.24239 0.12683 0.8285 0.0
C2070 C 0.24448 0.10063 0.82474 0.0
C2071 C 0.25542 0.10283 0.81463 0.0
C2072 C 0.25983 0.11721 0.81164 0.0
C2073 C 0.25341 0.12904 0.81849 0.0
C2074 C 0.28258 0.07867 0.79582 0.0
C2075 C 0.27366 0.06706 0.79068 0.0
C2076 C 0.27676 0.09011 0.80382 0.0
C2077 C 0.26188 0.09024 0.8069 0.0
C2078 C 0.25308 0.07841 0.8021 0.0
C2079 C 0.25888 0.06699 0.79412 0.0
H2080 H 0.91912 0.22392 0.80074 0.0
H2081 H 0.94656 0.19219 0.82229 0.0
H2082 H 0.94059 0.23638 0.79191 0.0
H2083 H 0.96808 0.20464 0.81326 0.0
H2084 H 1.00391 0.22916 0.78797 0.0
H2085 H 0.98214 0.21358 0.79063 0.0
H2086 H 0.95916 0.25041 0.80734 0.0
H2087 H 0.98062 0.26568 0.80487 0.0
C2088 C 0.92973 0.2195 0.80346 0.0
C2089 C 0.93113 0.20723 0.81247 0.0
C2090 C 0.94201 0.2266 0.79833 0.0
C2091 C 0.95601 0.22157 0.80203 0.0
C2092 C 0.95742 0.2087 0.81015 0.0
C2093 C 0.94509 0.20159 0.81535 0.0
C2094 C 0.9941 0.23388 0.79201 0.0
C2095 C 0.99394 0.24857 0.7963 0.0
C2096 C 0.98171 0.22499 0.7936 0.0
C2097 C 0.96894 0.23081 0.79914 0.0
C2098 C 0.96874 0.24564 0.80287 0.0
C2099 C 0.98109 0.25436 0.80156 0.0
H2100 H 0.83768 0.92593 0.78882 0.0
H2101 H 0.80625 0.925 0.82262 0.0
H2102 H 0.82434 0.94576 0.77676 0.0
H2103 H 0.79303 0.94455 0.81063 0.0
H2104 H 0.76301 0.96648 0.77941 0.0
H2105 H 0.77814 0.94673 0.78825 0.0
H2106 H 0.81665 0.97213 0.77963 0.0
H2107 H 0.80124 0.99208 0.77041 0.0
C2108 C 0.82802 0.93001 0.79375 0.0
C2109 C 0.82292 0.92368 0.80659 0.0
C2110 C 0.82038 0.94136 0.78682 0.0
C2111 C 0.80747 0.94658 0.79258 0.0
C2112 C 0.80271 0.94054 0.80566 0.0
C2113 C 0.8103 0.92929 0.81255 0.0
C2114 C 0.77471 0.96781 0.77917 0.0
C2115 C 0.78093 0.98089 0.77436 0.0
C2116 C 0.78339 0.95651 0.78434 0.0
C2117 C 0.79861 0.95797 0.78503 0.0
C2118 C 0.80495 0.97069 0.7793 0.0
C2119 C 0.79616 0.98208 0.77398 0.0
H2120 H 0.22967 0.11713 0.22269 0.0
H2121 H 0.20909 0.09462 0.18584 0.0
H2122 H 0.23551 0.09384 0.23388 0.0
H2123 H 0.21536 0.07124 0.19698 0.0
H2124 H 0.23916 0.03173 0.22047 0.0
H2125 H 0.23729 0.0548 0.20685 0.0
H2126 H 0.21784 0.07498 0.24381 0.0
H2127 H 0.21947 0.05229 0.25712 0.0
C2128 C 0.22644 0.10724 0.21691 0.0
C2129 C 0.21863 0.10783 0.20346 0.0
C2130 C 0.2299 0.09388 0.2233 0.0
C2131 C 0.2258 0.08072 0.21636 0.0
C2132 C 0.21875 0.08122 0.20253 0.0
C2133 C 0.21516 0.09463 0.19616 0.0
C2134 C 0.23458 0.04115 0.22563 0.0
C2135 C 0.22939 0.04016 0.23982 0.0
C2136 C 0.23345 0.0543 0.21785 0.0
C2137 C 0.22748 0.06671 0.22431 0.0
C2138 C 0.22262 0.06569 0.23858 0.0
C2139 C 0.22347 0.05261 0.24617 0.0
H2140 H 0.23351 0.93004 0.82048 0.0
H2141 H 0.1954 0.92652 0.79182 0.0
H2142 H 0.2411 0.95197 0.80779 0.0
H2143 H 0.20273 0.94864 0.77933 0.0
H2144 H 0.22809 0.97994 0.75056 0.0
H2145 H 0.21999 0.95812 0.76316 0.0
H2146 H 0.23547 0.97682 0.80425 0.0
H2147 H 0.24383 0.99839 0.79154 0.0
C2148 C 0.22668 0.93405 0.81156 0.0
C2149 C 0.21389 0.92652 0.80713 0.0
C2150 C 0.23099 0.94666 0.80429 0.0
C2151 C 0.22253 0.95215 0.7925 0.0
C2152 C 0.20967 0.94463 0.78817 0.0
C2153 C 0.20543 0.93196 0.79536 0.0
C2154 C 0.22962 0.97941 0.76229 0.0
C2155 C 0.23668 0.99085 0.77004 0.0
C2156 C 0.22497 0.96691 0.76955 0.0
C2157 C 0.22714 0.96561 0.78476 0.0
C2158 C 0.2339 0.97724 0.79251 0.0
C2159 C 0.23866 0.98966 0.78524 0.0
H2160 H 0.15102 0.2332 0.82785 0.0
H2161 H 0.12796 0.20698 0.85862 0.0
H2162 H 0.12846 0.24531 0.82076 0.0
H2163 H 0.10538 0.21907 0.8515 0.0
H2164 H 0.07056 0.25402 0.84598 0.0
H2165 H 0.09321 0.24208 0.85312 0.0
H2166 H 0.10542 0.24137 0.80814 0.0
H2167 H 0.0831 0.25381 0.8011 0.0
C2168 C 0.14111 0.22989 0.833 0.0
C2169 C 0.14137 0.21908 0.84383 0.0
C2170 C 0.12815 0.23686 0.82893 0.0
C2171 C 0.11504 0.23322 0.83555 0.0
C2172 C 0.11528 0.22236 0.84633 0.0
C2173 C 0.12825 0.2154 0.85041 0.0
C2174 C 0.07811 0.25145 0.83761 0.0
C2175 C 0.0749 0.25491 0.82294 0.0
C2176 C 0.09107 0.24443 0.84169 0.0
C2177 C 0.1012 0.2407 0.83122 0.0
C2178 C 0.09799 0.24419 0.81655 0.0
C2179 C 0.08505 0.25119 0.81247 0.0
H2180 H 0.83765 0.10312 0.8344 0.0
H2181 H 0.80868 0.13249 0.81142 0.0
H2182 H 0.82222 0.08253 0.82654 0.0
H2183 H 0.79301 0.11199 0.80399 0.0
H2184 H 0.77825 0.07044 0.77959 0.0
H2185 H 0.79338 0.09102 0.78776 0.0
H2186 H 0.7981 0.07186 0.83054 0.0
H2187 H 0.7833 0.05096 0.82218 0.0
C2188 C 0.82801 0.10518 0.82764 0.0
C2189 C 0.82442 0.11945 0.82351 0.0
C2190 C 0.81907 0.0934 0.82329 0.0
C2191 C 0.80636 0.09562 0.81466 0.0
C2192 C 0.80279 0.10989 0.81052 0.0
C2193 C 0.8117 0.12166 0.8149 0.0
C2194 C 0.78258 0.07055 0.79071 0.0
C2195 C 0.77964 0.05899 0.8002 0.0
C2196 C 0.79113 0.08244 0.79545 0.0
C2197 C 0.79698 0.08308 0.8098 0.0
C2198 C 0.7939 0.07162 0.81936 0.0
C2199 C 0.78528 0.05972 0.81463 0.0
H2200 H 0.90932 0.81265 0.80561 0.0
H2201 H 0.93806 0.83888 0.83354 0.0
H2202 H 0.92972 0.79754 0.79918 0.0
H2203 H 0.95844 0.82371 0.82717 0.0
H2204 H 0.98865 0.78468 0.8239 0.0
H2205 H 0.9677 0.79898 0.8307 0.0
H2206 H 0.95199 0.79885 0.78578 0.0
H2207 H 0.97261 0.78425 0.77911 0.0
C2208 C 0.92001 0.81532 0.81025 0.0
C2209 C 0.92202 0.82701 0.82009 0.0
C2210 C 0.93171 0.80661 0.8066 0.0
C2211 C 0.94572 0.80936 0.81271 0.0
C2212 C 0.94776 0.82112 0.82247 0.0
C2213 C 0.93606 0.82984 0.82609 0.0
C2214 C 0.98063 0.78757 0.81553 0.0
C2215 C 0.98237 0.78341 0.80096 0.0
C2216 C 0.9687 0.79589 0.81939 0.0
C2217 C 0.9582 0.80015 0.80877 0.0
C2218 C 0.95981 0.7957 0.79425 0.0
C2219 C 0.97173 0.78745 0.7904 0.0
H2220 H 0.82114 0.92201 0.22298 0.0
H2221 H 0.78559 0.92604 0.19134 0.0
H2222 H 0.8124 0.94286 0.23626 0.0
H2223 H 0.77657 0.94697 0.20488 0.0
H2224 H 0.7746 0.99315 0.22793 0.0
H2225 H 0.78139 0.97244 0.21261 0.0
H2226 H 0.79262 0.94794 0.2514 0.0
H2227 H 0.78637 0.96853 0.26642 0.0
C2228 C 0.81135 0.92729 0.21893 0.0
C2229 C 0.80395 0.92222 0.20623 0.0
C2230 C 0.8063 0.93926 0.22657 0.0
C2231 C 0.79359 0.94647 0.22182 0.0
C2232 C 0.78639 0.9417 0.20884 0.0
C2233 C 0.79154 0.92971 0.2011 0.0
C2234 C 0.77834 0.98323 0.2331 0.0
C2235 C 0.78017 0.98252 0.24834 0.0
C2236 C 0.78223 0.97138 0.22435 0.0
C2237 C 0.78791 0.95862 0.23076 0.0
C2238 C 0.78878 0.95772 0.24604 0.0
C2239 C 0.78509 0.96951 0.25468 0.0
H2240 H 0.09408 0.77851 0.22146 0.0
H2241 H 0.07086 0.79998 0.18606 0.0
H2242 H 0.07111 0.76925 0.23036 0.0
H2243 H 0.04798 0.79025 0.19464 0.0
H2244 H 0.01276 0.79172 0.22996 0.0
H2245 H 0.03406 0.79625 0.21573 0.0
H2246 H 0.04965 0.75317 0.22594 0.0
H2247 H 0.02819 0.7487 0.24042 0.0
C2248 C 0.0841 0.78113 0.21549 0.0
C2249 C 0.08432 0.79013 0.20314 0.0
C2250 C 0.07094 0.77563 0.22047 0.0
C2251 C 0.0577 0.77904 0.21323 0.0
C2252 C 0.05798 0.78753 0.20053 0.0
C2253 C 0.07112 0.79302 0.19556 0.0
C2254 C 0.02054 0.78306 0.22886 0.0
C2255 C 0.01886 0.76989 0.23635 0.0
C2256 C 0.03275 0.78563 0.22064 0.0
C2257 C 0.04365 0.77512 0.2198 0.0
C2258 C 0.04151 0.76155 0.22653 0.0
C2259 C 0.02916 0.75892 0.23467 0.0
H2260 H 0.94448 0.18962 0.23721 0.0
H2261 H 0.93981 0.23211 0.21758 0.0
H2262 H 0.96658 0.19805 0.25029 0.0
H2263 H 0.96152 0.24059 0.2312 0.0
H2264 H 0.99254 0.25454 0.26874 0.0
H2265 H 0.96981 0.24483 0.25793 0.0
H2266 H 0.9922 0.20678 0.24327 0.0
H2267 H 0.01506 0.21653 0.25395 0.0
C2268 C 0.94814 0.20072 0.23559 0.0
C2269 C 0.94028 0.21014 0.22622 0.0
C2270 C 0.96077 0.20555 0.24319 0.0
C2271 C 0.96573 0.21998 0.24182 0.0
C2272 C 0.95783 0.22946 0.23264 0.0
C2273 C 0.94533 0.22458 0.22486 0.0
C2274 C 0.99262 0.24398 0.26344 0.0
C2275 C 1.00567 0.23634 0.26216 0.0
C2276 C 0.9796 0.2385 0.25715 0.0
C2277 C 0.97927 0.22513 0.24963 0.0
C2278 C 0.99213 0.2171 0.24902 0.0
C2279 C 1.00522 0.22269 0.25513 0.0
H2280 H 0.18556 0.71479 0.57897 0.0
H2281 H 0.21232 0.74331 0.60653 0.0
H2282 H 0.19528 0.72625 0.55741 0.0
H2283 H 0.22207 0.75476 0.58496 0.0
H2284 H 0.23386 0.77688 0.54295 0.0
H2285 H 0.21793 0.76939 0.56254 0.0
H2286 H 0.21911 0.72495 0.54705 0.0
H2287 H 0.23476 0.73242 0.52766 0.0
C2288 C 0.19345 0.72357 0.58043 0.0
C2289 C 0.19831 0.72798 0.59449 0.0
C2290 C 0.19899 0.73017 0.56807 0.0
C2291 C 0.20956 0.74134 0.56944 0.0
C2292 C 0.21383 0.7463 0.58349 0.0
C2293 C 0.20826 0.7397 0.59587 0.0
C2294 C 0.23034 0.76561 0.54354 0.0
C2295 C 0.23557 0.75522 0.53382 0.0
C2296 C 0.22136 0.76129 0.55483 0.0
C2297 C 0.21731 0.74655 0.55643 0.0
C2298 C 0.22185 0.7364 0.5461 0.0
C2299 C 0.2309 0.74067 0.535 0.0
H2300 H 0.81337 0.74479 0.61936 0.0
H2301 H 0.82845 0.70895 0.59352 0.0
H2302 H 0.80252 0.7557 0.59755 0.0
H2303 H 0.81669 0.7193 0.57192 0.0
H2304 H 0.80436 0.74565 0.53259 0.0
H2305 H 0.81771 0.73791 0.55457 0.0
H2306 H 0.78291 0.75332 0.58075 0.0
H2307 H 0.76994 0.7616 0.55886 0.0
C2308 C 0.8144 0.7392 0.60905 0.0
C2309 C 0.82186 0.72594 0.60831 0.0
C2310 C 0.80798 0.74539 0.59651 0.0
C2311 C 0.80867 0.73844 0.58286 0.0
C2312 C 0.81609 0.72516 0.58213 0.0
C2313 C 0.82264 0.71904 0.59464 0.0
C2314 C 0.7997 0.74764 0.54307 0.0
C2315 C 0.78606 0.75422 0.54393 0.0
C2316 C 0.80728 0.74303 0.5557 0.0
C2317 C 0.80134 0.74472 0.56952 0.0
C2318 C 0.78797 0.75191 0.57039 0.0
C2319 C 0.78048 0.75667 0.55777 0.0
H2320 H 0.82478 0.33252 0.61855 0.0
H2321 H 0.86541 0.30974 0.62259 0.0
H2322 H 0.8181 0.31837 0.59673 0.0
H2323 H 0.85904 0.2959 0.60051 0.0
H2324 H 0.83728 0.26302 0.56916 0.0
H2325 H 0.84394 0.27718 0.59096 0.0
H2326 H 0.82275 0.31472 0.57202 0.0
H2327 H 0.81574 0.30033 0.55047 0.0
C2328 C 0.83237 0.3246 0.61466 0.0
C2329 C 0.84561 0.32223 0.62233 0.0
C2330 C 0.82857 0.3165 0.60209 0.0
C2331 C 0.83799 0.30591 0.59675 0.0
C2332 C 0.85133 0.3037 0.60438 0.0
C2333 C 0.85504 0.31169 0.61704 0.0
C2334 C 0.83414 0.27432 0.56964 0.0
C2335 C 0.82596 0.28053 0.55808 0.0
C2336 C 0.83799 0.28249 0.58214 0.0
C2337 C 0.83392 0.29718 0.58336 0.0
C2338 C 0.82586 0.3034 0.57168 0.0
C2339 C 0.82187 0.29516 0.55926 0.0
H2340 H 0.21817 0.3102 0.63378 0.0
H2341 H 0.19198 0.33735 0.60527 0.0
H2342 H 0.22747 0.29762 0.61268 0.0
H2343 H 0.20154 0.3251 0.58411 0.0
H2344 H 0.21003 0.29117 0.54976 0.0
H2345 H 0.20058 0.30277 0.57113 0.0
H2346 H 0.24294 0.30052 0.59281 0.0
H2347 H 0.25221 0.28808 0.57179 0.0
C2348 C 0.21453 0.31358 0.62297 0.0
C2349 C 0.20434 0.32474 0.62117 0.0
C2350 C 0.21988 0.3064 0.61086 0.0
C2351 C 0.21527 0.31031 0.59664 0.0
C2352 C 0.20514 0.32158 0.59488 0.0
C2353 C 0.19969 0.32865 0.607 0.0
C2354 C 0.21734 0.29291 0.55911 0.0
C2355 C 0.23196 0.28862 0.5589 0.0
C2356 C 0.21193 0.2998 0.57135 0.0
C2357 C 0.22099 0.3027 0.58371 0.0
C2358 C 0.23558 0.29834 0.58357 0.0
C2359 C 0.24096 0.29134 0.57137 0.0
H2360 H 0.21591 0.34497 0.44041 0.0
H2361 H 0.2511 0.3285 0.41544 0.0
H2362 H 0.22759 0.33584 0.46259 0.0
H2363 H 0.26332 0.32026 0.4378 0.0
H2364 H 0.27045 0.29032 0.47762 0.0
H2365 H 0.26168 0.30178 0.45522 0.0
H2366 H 0.24663 0.33834 0.48009 0.0
H2367 H 0.25487 0.32651 0.50257 0.0
C2368 C 0.2262 0.33948 0.43962 0.0
C2369 C 0.23242 0.33738 0.426 0.0
C2370 C 0.23306 0.33444 0.45245 0.0
C2371 C 0.24647 0.32725 0.45211 0.0
C2372 C 0.25292 0.32553 0.43854 0.0
C2373 C 0.24598 0.33047 0.42568 0.0
C2374 C 0.26549 0.30092 0.47831 0.0
C2375 C 0.26328 0.30743 0.49194 0.0
C2376 C 0.26047 0.30755 0.46541 0.0
C2377 C 0.25324 0.32097 0.46575 0.0
C2378 C 0.2518 0.32785 0.47936 0.0
C2379 C 0.25667 0.32114 0.49228 0.0
H2380 H 0.235 0.69216 0.40251 0.0
H2381 H 0.20065 0.72265 0.40981 0.0
H2382 H 0.24859 0.70178 0.42379 0.0
H2383 H 0.21429 0.73238 0.43104 0.0
H2384 H 0.23614 0.73717 0.47619 0.0
H2385 H 0.2224 0.72646 0.45553 0.0
H2386 H 0.26196 0.72318 0.43188 0.0
H2387 H 0.27568 0.73377 0.4526 0.0
C2388 C 0.2304 0.701 0.40859 0.0
C2389 C 0.21675 0.70666 0.40441 0.0
C2390 C 0.2382 0.70653 0.4208 0.0
C2391 C 0.23258 0.71789 0.42915 0.0
C2392 C 0.21887 0.72348 0.42502 0.0
C2393 C 0.21105 0.71792 0.41282 0.0
C2394 C 0.2419 0.7342 0.46657 0.0
C2395 C 0.25702 0.73638 0.46606 0.0
C2396 C 0.23401 0.72808 0.4547 0.0
C2397 C 0.24104 0.724 0.44198 0.0
C2398 C 0.2562 0.72599 0.44156 0.0
C2399 C 0.26409 0.73207 0.45346 0.0
H2400 H 0.78806 0.71169 0.40247 0.0
H2401 H 0.81909 0.68978 0.43088 0.0
H2402 H 0.77482 0.71946 0.42355 0.0
H2403 H 0.80627 0.69818 0.45203 0.0
H2404 H 0.77121 0.7018 0.48561 0.0
H2405 H 0.78405 0.69391 0.46431 0.0
H2406 H 0.77617 0.73556 0.44404 0.0
H2407 H 0.76272 0.74318 0.46498 0.0
C2408 C 0.7921 0.70857 0.41322 0.0
C2409 C 0.80463 0.70003 0.41493 0.0
C2410 C 0.78459 0.71318 0.42535 0.0
C2411 C 0.78943 0.70943 0.43954 0.0
C2412 C 0.80209 0.7011 0.44127 0.0
C2413 C 0.80959 0.69646 0.42913 0.0
C2414 C 0.77202 0.70922 0.47655 0.0
C2415 C 0.7659 0.72316 0.47711 0.0
C2416 C 0.77958 0.70476 0.46439 0.0
C2417 C 0.78125 0.71412 0.45245 0.0
C2418 C 0.77501 0.728 0.45295 0.0
C2419 C 0.76742 0.73244 0.46508 0.0
H2420 H 0.81387 0.31249 0.40815 0.0
H2421 H 0.84307 0.34076 0.4334 0.0
H2422 H 0.80428 0.30275 0.43063 0.0
H2423 H 0.83349 0.33104 0.45583 0.0
H2424 H 0.83028 0.29278 0.48837 0.0
H2425 H 0.83614 0.30751 0.46748 0.0
H2426 H 0.79086 0.30724 0.45333 0.0
H2427 H 0.78498 0.29222 0.4745 0.0
C2428 C 0.81806 0.31683 0.41848 0.0
C2429 C 0.82941 0.32726 0.41896 0.0
C2430 C 0.81251 0.31128 0.43138 0.0
C2431 C 0.81819 0.31603 0.44505 0.0
C2432 C 0.82904 0.32696 0.44549 0.0
C2433 C 0.83458 0.3325 0.43263 0.0
C2434 C 0.8215 0.29608 0.48097 0.0
C2435 C 0.80718 0.29131 0.48305 0.0
C2436 C 0.82486 0.30461 0.46901 0.0
C2437 C 0.81399 0.30854 0.45868 0.0
C2438 C 0.7995 0.30429 0.46105 0.0
C2439 C 0.7961 0.29583 0.47322 0.0
H2440 H 0.13496 0.72233 0.7179 0.0
H2441 H 0.10594 0.69253 0.69435 0.0
H2442 H 0.11532 0.72914 0.73356 0.0
H2443 H 0.08621 0.69945 0.70991 0.0
H2444 H 0.05686 0.70626 0.74837 0.0
H2445 H 0.07736 0.69809 0.7344 0.0
H2446 H 0.0932 0.74248 0.73215 0.0
H2447 H 0.07321 0.75047 0.74657 0.0
C2448 C 0.12435 0.71731 0.716 0.0
C2449 C 0.12201 0.70694 0.70482 0.0
C2450 C 0.11307 0.72121 0.72498 0.0
C2451 C 0.09913 0.71489 0.72299 0.0
C2452 C 0.09684 0.70438 0.71192 0.0
C2453 C 0.10815 0.70044 0.70296 0.0
C2454 C 0.06482 0.71422 0.74505 0.0
C2455 C 0.06328 0.72904 0.74852 0.0
C2456 C 0.0765 0.70957 0.7369 0.0
C2457 C 0.08693 0.71963 0.73208 0.0
C2458 C 0.08549 0.73439 0.73578 0.0
C2459 C 0.07386 0.73902 0.74391 0.0
H2460 H 0.85165 0.61534 0.69751 0.0
H2461 H 0.823 0.64158 0.72265 0.0
H2462 H 0.84497 0.59397 0.71153 0.0
H2463 H 0.81635 0.62021 0.73673 0.0
H2464 H 0.79706 0.57603 0.74952 0.0
H2465 H 0.80337 0.59732 0.73523 0.0
H2466 H 0.84806 0.58355 0.73539 0.0
H2467 H 0.84164 0.56197 0.74915 0.0
C2468 C 0.844 0.61659 0.7061 0.0
C2469 C 0.8379 0.63024 0.70893 0.0
C2470 C 0.84017 0.60431 0.71418 0.0
C2471 C 0.83015 0.60531 0.72534 0.0
C2472 C 0.82395 0.61894 0.72809 0.0
C2473 C 0.82777 0.63123 0.72 0.0
C2474 C 0.80821 0.57744 0.74641 0.0
C2475 C 0.8188 0.56715 0.7505 0.0
C2476 C 0.81188 0.58978 0.73834 0.0
C2477 C 0.82624 0.59221 0.7341 0.0
C2478 C 0.83685 0.58198 0.73827 0.0
C2479 C 0.83319 0.56965 0.74635 0.0
H2480 H 0.92729 0.35461 0.74849 0.0
H2481 H 0.93269 0.32003 0.71717 0.0
H2482 H 0.94825 0.34582 0.76282 0.0
H2483 H 0.95352 0.31125 0.73149 0.0
H2484 H 0.97984 0.28994 0.76829 0.0
H2485 H 0.95901 0.29936 0.75448 0.0
H2486 H 0.97466 0.34328 0.76254 0.0
H2487 H 0.99561 0.33381 0.7764 0.0
C2488 C 0.93301 0.34522 0.74458 0.0
C2489 C 0.9282 0.338 0.73168 0.0
C2490 C 0.94503 0.34017 0.75281 0.0
C2491 C 0.95255 0.32775 0.74838 0.0
C2492 C 0.94784 0.32066 0.73541 0.0
C2493 C 0.93585 0.3257 0.72718 0.0
C2494 C 0.97896 0.3016 0.76704 0.0
C2495 C 0.98955 0.31108 0.77339 0.0
C2496 C 0.96697 0.30702 0.7591 0.0
C2497 C 0.96518 0.32209 0.75726 0.0
C2498 C 0.9756 0.33162 0.76383 0.0
C2499 C 0.98764 0.32618 0.77179 0.0
H2500 H 0.20113 0.42671 0.73307 0.0
H2501 H 0.22454 0.42441 0.69324 0.0
H2502 H 0.21542 0.44848 0.74049 0.0
H2503 H 0.2385 0.44602 0.70044 0.0
H2504 H 0.27345 0.47145 0.72332 0.0
H2505 H 0.25754 0.45061 0.71879 0.0
H2506 H 0.2213 0.47478 0.73455 0.0
H2507 H 0.23761 0.49586 0.73952 0.0
C2508 C 0.2092 0.43095 0.72585 0.0
C2509 C 0.21194 0.4237 0.71271 0.0
C2510 C 0.21734 0.44341 0.73008 0.0
C2511 C 0.22831 0.44881 0.7212 0.0
C2512 C 0.23045 0.44191 0.70775 0.0
C2513 C 0.22244 0.42952 0.7036 0.0
C2514 C 0.26211 0.47234 0.72594 0.0
C2515 C 0.25671 0.48537 0.73154 0.0
C2516 C 0.25296 0.46039 0.72327 0.0
C2517 C 0.23806 0.46114 0.72592 0.0
C2518 C 0.23273 0.47389 0.73233 0.0
C2519 C 0.24203 0.48594 0.73517 0.0
H2520 H 0.116 0.32839 0.34474 0.0
H2521 H 0.14198 0.29485 0.32602 0.0
H2522 H 0.09394 0.31546 0.33656 0.0
H2523 H 0.11993 0.28148 0.31831 0.0
H2524 H 0.07812 0.2717 0.29085 0.0
H2525 H 0.10069 0.28186 0.30118 0.0
H2526 H 0.07831 0.29557 0.33941 0.0
H2527 H 0.05553 0.28599 0.32866 0.0
C2528 C 0.11697 0.3181 0.33907 0.0
C2529 C 0.13073 0.31268 0.33597 0.0
C2530 C 0.1043 0.31059 0.33444 0.0
C2531 C 0.10502 0.29732 0.32675 0.0
C2532 C 0.11885 0.29176 0.32395 0.0
C2533 C 0.13153 0.2994 0.3284 0.0
C2534 C 0.07803 0.27666 0.30158 0.0
C2535 C 0.06495 0.27811 0.30887 0.0
C2536 C 0.09106 0.28249 0.30756 0.0
C2537 C 0.09142 0.28976 0.32111 0.0
C2538 C 0.07846 0.29042 0.32879 0.0
C2539 C 0.06538 0.28476 0.3227 0.0
H2540 H 0.19999 0.60624 0.29654 0.0
H2541 H 0.2369 0.62259 0.32238 0.0
H2542 H 0.2146 0.58605 0.28822 0.0
H2543 H 0.25151 0.60261 0.3138 0.0
H2544 H 0.27617 0.57571 0.27934 0.0
H2545 H 0.26204 0.59468 0.2907 0.0
H2546 H 0.22714 0.56376 0.29697 0.0
H2547 H 0.24122 0.54478 0.28558 0.0
C2548 C 0.21115 0.60549 0.30057 0.0
C2549 C 0.21723 0.61619 0.31007 0.0
C2550 C 0.21954 0.5939 0.29579 0.0
C2551 C 0.23426 0.59272 0.30031 0.0
C2552 C 0.24029 0.60329 0.30993 0.0
C2553 C 0.23188 0.61481 0.3148 0.0
C2554 C 0.26559 0.57287 0.28337 0.0
C2555 C 0.25985 0.5587 0.28149 0.0
C2556 C 0.25749 0.58377 0.2899 0.0
C2557 C 0.24338 0.58079 0.29461 0.0
C2558 C 0.23788 0.56648 0.29326 0.0
C2559 C 0.24603 0.55555 0.28686 0.0
H2560 H 0.91995 0.68181 0.33543 0.0
H2561 H 0.89335 0.70819 0.30652 0.0
H2562 H 0.9418 0.69162 0.32456 0.0
H2563 H 0.91522 0.71823 0.29585 0.0
H2564 H 0.95737 0.72592 0.27229 0.0
H2565 H 0.93652 0.71197 0.28094 0.0
H2566 H 0.95404 0.71565 0.32511 0.0
H2567 H 0.97475 0.72943 0.31652 0.0
C2568 C 0.91876 0.6896 0.32667 0.0
C2569 C 0.9049 0.69428 0.32191 0.0
C2570 C 0.93128 0.69529 0.3205 0.0
C2571 C 0.93026 0.70573 0.30935 0.0
C2572 C 0.91639 0.71011 0.30431 0.0
C2573 C 0.90386 0.7045 0.31056 0.0
C2574 C 0.95689 0.72347 0.28379 0.0
C2575 C 0.96768 0.72882 0.29373 0.0
C2576 C 0.94489 0.71561 0.28877 0.0
C2577 C 0.94358 0.71278 0.30373 0.0
C2578 C 0.95476 0.71753 0.31351 0.0
C2579 C 0.96661 0.72549 0.30858 0.0
H2580 H 0.8511 0.40823 0.2938 0.0
H2581 H 0.81385 0.41237 0.32074 0.0
H2582 H 0.84207 0.42788 0.27835 0.0
H2583 H 0.80476 0.43197 0.30518 0.0
H2584 H 0.82964 0.47475 0.26543 0.0
H2585 H 0.83848 0.4543 0.27987 0.0
H2586 H 0.79493 0.43634 0.2803 0.0
H2587 H 0.78607 0.45671 0.26575 0.0
C2588 C 0.84103 0.41339 0.29649 0.0
C2589 C 0.83324 0.40876 0.30858 0.0
C2590 C 0.83585 0.42465 0.28761 0.0
C2591 C 0.82272 0.43152 0.29055 0.0
C2592 C 0.81482 0.42677 0.30251 0.0
C2593 C 0.82003 0.41553 0.31143 0.0
C2594 C 0.82196 0.46636 0.2684 0.0
C2595 C 0.80711 0.46747 0.26446 0.0
C2596 C 0.82704 0.45463 0.27671 0.0
C2597 C 0.81739 0.44373 0.2813 0.0
C2598 C 0.80259 0.44469 0.27716 0.0
C2599 C 0.79752 0.45639 0.26881 0.0
H2600 H 0.21322 0.62199 0.69984 0.0
H2601 H 0.23413 0.62209 0.65845 0.0
H2602 H 0.22689 0.60068 0.70717 0.0
H2603 H 0.24712 0.60011 0.66542 0.0
H2604 H 0.27973 0.57002 0.68923 0.0
H2605 H 0.26621 0.59131 0.68092 0.0
H2606 H 0.22849 0.57548 0.70301 0.0
H2607 H 0.24221 0.55452 0.71161 0.0
C2608 C 0.22074 0.61749 0.69228 0.0
C2609 C 0.22258 0.62389 0.67855 0.0
C2610 C 0.22843 0.60507 0.6964 0.0
C2611 C 0.23809 0.59854 0.68687 0.0
C2612 C 0.2399 0.60489 0.67312 0.0
C2613 C 0.23229 0.61741 0.66903 0.0
C2614 C 0.26851 0.57106 0.69217 0.0
C2615 C 0.26206 0.56066 0.70115 0.0
C2616 C 0.26073 0.58325 0.68739 0.0
C2617 C 0.24625 0.58524 0.69137 0.0
C2618 C 0.23971 0.57456 0.70001 0.0
C2619 C 0.24754 0.56248 0.7049 0.0
H2620 H 0.19336 0.42667 0.31639 0.0
H2621 H 0.23497 0.40855 0.30714 0.0
H2622 H 0.19847 0.44747 0.30098 0.0
H2623 H 0.24071 0.42982 0.29246 0.0
H2624 H 0.24326 0.46461 0.25748 0.0
H2625 H 0.23727 0.44277 0.27129 0.0
H2626 H 0.21108 0.4688 0.2994 0.0
H2627 H 0.2164 0.49017 0.28498 0.0
C2628 C 0.2037 0.42728 0.31116 0.0
C2629 C 0.21378 0.41605 0.31298 0.0
C2630 C 0.20674 0.43928 0.30238 0.0
C2631 C 0.22012 0.44059 0.29545 0.0
C2632 C 0.23019 0.42923 0.29732 0.0
C2633 C 0.22698 0.41705 0.30584 0.0
C2634 C 0.23613 0.46552 0.26656 0.0
C2635 C 0.23014 0.47902 0.27003 0.0
C2636 C 0.23276 0.45304 0.2746 0.0
C2637 C 0.22359 0.45382 0.28657 0.0
C2638 C 0.21781 0.46748 0.29008 0.0
C2639 C 0.22091 0.47984 0.28184 0.0
H2640 H 0.1192 0.72063 0.30288 0.0
H2641 H 0.09538 0.69386 0.33258 0.0
H2642 H 0.09694 0.73349 0.29612 0.0
H2643 H 0.07319 0.707 0.32611 0.0
H2644 H 0.03334 0.72435 0.30004 0.0
H2645 H 0.05536 0.71073 0.30607 0.0
H2646 H 0.08042 0.75081 0.30676 0.0
H2647 H 0.05852 0.76433 0.30038 0.0
C2648 C 0.1092 0.7174 0.3079 0.0
C2649 C 0.10913 0.70618 0.31829 0.0
C2650 C 0.09645 0.72491 0.30415 0.0
C2651 C 0.08324 0.72136 0.31062 0.0
C2652 C 0.08311 0.70998 0.32083 0.0
C2653 C 0.09589 0.70253 0.32464 0.0
C2654 C 0.04355 0.73025 0.3014 0.0
C2655 C 0.04409 0.74547 0.29972 0.0
C2656 C 0.05618 0.72245 0.30499 0.0
C2657 C 0.06972 0.72964 0.30689 0.0
C2658 C 0.07024 0.74486 0.30523 0.0
C2659 C 0.05761 0.75266 0.30174 0.0
H2660 H 0.79267 0.6172 0.30567 0.0
H2661 H 0.81567 0.58705 0.33386 0.0
H2662 H 0.78284 0.59687 0.29107 0.0
H2663 H 0.8059 0.56665 0.31906 0.0
H2664 H 0.77614 0.53332 0.29281 0.0
H2665 H 0.78163 0.55342 0.31009 0.0
H2666 H 0.79659 0.57985 0.27472 0.0
H2667 H 0.79134 0.56 0.2577 0.0
C2668 C 0.79542 0.60621 0.30891 0.0
C2669 C 0.80502 0.60373 0.32087 0.0
C2670 C 0.78984 0.59459 0.3005 0.0
C2671 C 0.79366 0.58021 0.30391 0.0
C2672 C 0.8027 0.57763 0.31626 0.0
C2673 C 0.80841 0.58929 0.32462 0.0
C2674 C 0.78046 0.5435 0.28878 0.0
C2675 C 0.78338 0.54509 0.27395 0.0
C2676 C 0.78366 0.55493 0.29864 0.0
C2677 C 0.78948 0.56819 0.2937 0.0
C2678 C 0.79197 0.56983 0.27881 0.0
C2679 C 0.78905 0.5584 0.26908 0.0
H2680 H 0.94115 0.3193 0.34418 0.0
H2681 H 0.92172 0.33011 0.30204 0.0
H2682 H 0.96396 0.31398 0.33262 0.0
H2683 H 0.9443 0.32411 0.29057 0.0
H2684 H 0.98198 0.29421 0.2759 0.0
H2685 H 0.9593 0.30082 0.28723 0.0
H2686 H 0.98344 0.32814 0.31816 0.0
H2687 H 1.00612 0.32158 0.30673 0.0
C2688 C 0.94169 0.32061 0.3325 0.0
C2689 C 0.92944 0.32509 0.3241 0.0
C2690 C 0.95478 0.31751 0.32588 0.0
C2691 C 0.95588 0.3186 0.3107 0.0
C2692 C 0.9437 0.32301 0.30228 0.0
C2693 C 0.93071 0.32634 0.3089 0.0
C2694 C 0.9824 0.30168 0.28506 0.0
C2695 C 0.99579 0.30742 0.2904 0.0
C2696 C 0.96945 0.3055 0.29151 0.0
C2697 C 0.96963 0.31495 0.3036 0.0
C2698 C 0.983 0.32076 0.30891 0.0
C2699 C 0.99595 0.31713 0.30229 0.0
H2700 H 0.81208 0.4279 0.69388 0.0
H2701 H 0.83727 0.42447 0.73437 0.0
H2702 H 0.80002 0.4494 0.70343 0.0
H2703 H 0.82499 0.44547 0.7439 0.0
H2704 H 0.79275 0.47386 0.76352 0.0
H2705 H 0.80009 0.4516 0.75138 0.0
H2706 H 0.80634 0.4757 0.71177 0.0
H2707 H 0.79876 0.4981 0.72406 0.0
C2708 C 0.8151 0.43169 0.70477 0.0
C2709 C 0.82558 0.42425 0.71339 0.0
C2710 C 0.80813 0.44399 0.71025 0.0
C2711 C 0.81137 0.44901 0.7245 0.0
C2712 C 0.82195 0.44168 0.733 0.0
C2713 C 0.82898 0.42955 0.72752 0.0
C2714 C 0.79518 0.47428 0.75206 0.0
C2715 C 0.79504 0.48761 0.74466 0.0
C2716 C 0.79956 0.46158 0.74516 0.0
C2717 C 0.80407 0.46193 0.7307 0.0
C2718 C 0.80289 0.47508 0.72291 0.0
C2719 C 0.79847 0.48787 0.72988 0.0
H2720 H 0.1347 0.30721 0.73375 0.0
H2721 H 0.10068 0.3278 0.7079 0.0
H2722 H 0.11645 0.294 0.74722 0.0
H2723 H 0.08239 0.31446 0.72137 0.0
H2724 H 0.05313 0.28129 0.74456 0.0
H2725 H 0.07191 0.28956 0.72792 0.0
H2726 H 0.09915 0.30315 0.76495 0.0
H2727 H 0.08066 0.29502 0.78132 0.0
C2728 C 0.12333 0.3089 0.73092 0.0
C2729 C 0.11915 0.31876 0.71992 0.0
C2730 C 0.11288 0.30126 0.73858 0.0
C2731 C 0.09799 0.30328 0.73543 0.0
C2732 C 0.09378 0.31257 0.72395 0.0
C2733 C 0.10426 0.32025 0.71627 0.0
C2734 C 0.06326 0.28583 0.74906 0.0
C2735 C 0.06543 0.2876 0.7642 0.0
C2736 C 0.07393 0.29064 0.73958 0.0
C2737 C 0.087 0.29699 0.74514 0.0
C2738 C 0.0893 0.29816 0.7603 0.0
C2739 C 0.07864 0.29359 0.76969 0.0
H2740 H 0.94106 0.72026 0.68724 0.0
H2741 H 0.91282 0.74767 0.71166 0.0
H2742 H 0.96225 0.73137 0.69998 0.0
H2743 H 0.93396 0.75897 0.72406 0.0
H2744 H 0.97211 0.75377 0.75843 0.0
H2745 H 0.95101 0.74849 0.74252 0.0
H2746 H 0.97714 0.75465 0.70483 0.0
H2747 H 0.99848 0.7601 0.72103 0.0
C2748 C 0.93938 0.72877 0.6952 0.0
C2749 C 0.92522 0.73296 0.69854 0.0
C2750 C 0.95152 0.73526 0.70235 0.0
C2751 C 0.94978 0.74602 0.71306 0.0
C2752 C 0.93566 0.75065 0.71593 0.0
C2753 C 0.92354 0.74422 0.70874 0.0
C2754 C 0.97329 0.75429 0.74674 0.0
C2755 C 0.98689 0.75731 0.74093 0.0
C2756 C 0.96118 0.75134 0.73761 0.0
C2757 C 0.96239 0.75112 0.72241 0.0
C2758 C 0.97591 0.75468 0.71652 0.0
C2759 C 0.98806 0.75792 0.72574 0.0
H2760 H 0.74207 0.23162 0.61943 0.0
H2761 H 0.71381 0.20831 0.58855 0.0
H2762 H 0.75449 0.24308 0.59937 0.0
H2763 H 0.72643 0.21974 0.5684 0.0
H2764 H 0.74769 0.25267 0.53624 0.0
H2765 H 0.73236 0.24515 0.55647 0.0
H2766 H 0.77069 0.2315 0.58097 0.0
H2767 H 0.78574 0.23872 0.561 0.0
C2768 C 0.73837 0.2291 0.60836 0.0
C2769 C 0.72701 0.21898 0.60559 0.0
C2770 C 0.74553 0.23563 0.59687 0.0
C2771 C 0.74144 0.2323 0.58233 0.0
C2772 C 0.72973 0.2226 0.5795 0.0
C2773 C 0.72264 0.21593 0.59103 0.0
C2774 C 0.75276 0.24824 0.54606 0.0
C2775 C 0.76786 0.24622 0.54706 0.0
C2776 C 0.74403 0.24386 0.55755 0.0
C2777 C 0.75036 0.23776 0.57029 0.0
C2778 C 0.76551 0.23628 0.57138 0.0
C2779 C 0.77411 0.24035 0.55989 0.0
H2780 H 0.32969 0.25609 0.62798 0.0
H2781 H 0.35285 0.22857 0.59875 0.0
H2782 H 0.31736 0.26762 0.60717 0.0
H2783 H 0.34071 0.24021 0.57792 0.0
H2784 H 0.30255 0.25028 0.54621 0.0
H2785 H 0.31717 0.24059 0.56636 0.0
H2786 H 0.31961 0.28325 0.58638 0.0
H2787 H 0.30455 0.29293 0.56627 0.0
C2788 C 0.33233 0.25266 0.6171 0.0
C2789 C 0.34219 0.24132 0.61506 0.0
C2790 C 0.32528 0.2593 0.60514 0.0
C2791 C 0.32794 0.25481 0.5908 0.0
C2792 C 0.33814 0.24376 0.58878 0.0
C2793 C 0.34513 0.23709 0.60074 0.0
C2794 C 0.30628 0.25767 0.55482 0.0
C2795 C 0.3023 0.27241 0.5546 0.0
C2796 C 0.31478 0.2521 0.56638 0.0
C2797 C 0.31961 0.2611 0.57807 0.0
C2798 C 0.31593 0.27594 0.57768 0.0
C2799 C 0.30738 0.28153 0.56608 0.0
H2800 H 0.33184 0.81632 0.62618 0.0
H2801 H 0.30043 0.84885 0.61363 0.0
H2802 H 0.32562 0.80251 0.60415 0.0
H2803 H 0.29384 0.83478 0.59159 0.0
H2804 H 0.29526 0.81194 0.54688 0.0
H2805 H 0.30181 0.82677 0.56834 0.0
H2806 H 0.30678 0.78765 0.59394 0.0
H2807 H 0.30056 0.77295 0.57248 0.0
C2808 C 0.32346 0.82044 0.61876 0.0
C2809 C 0.3165 0.83359 0.62174 0.0
C2810 C 0.31985 0.81248 0.60611 0.0
C2811 C 0.30908 0.81738 0.59611 0.0
C2812 C 0.30228 0.83071 0.59896 0.0
C2813 C 0.306 0.83876 0.61161 0.0
C2814 C 0.29772 0.80654 0.55712 0.0
C2815 C 0.29749 0.79125 0.55793 0.0
C2816 C 0.30144 0.81504 0.56945 0.0
C2817 C 0.30491 0.80845 0.58292 0.0
C2818 C 0.30451 0.79314 0.58372 0.0
C2819 C 0.30092 0.78468 0.57139 0.0
H2820 H 0.67209 0.78891 0.62586 0.0
H2821 H 0.70459 0.82253 0.62006 0.0
H2822 H 0.68071 0.77596 0.60465 0.0
H2823 H 0.71324 0.80954 0.59893 0.0
H2824 H 0.73458 0.77508 0.57122 0.0
H2825 H 0.72585 0.78735 0.59269 0.0
H2826 H 0.68155 0.77807 0.57815 0.0
H2827 H 0.69029 0.76581 0.55659 0.0
C2828 C 0.681 0.79361 0.62 0.0
C2829 C 0.68764 0.80678 0.62471 0.0
C2830 C 0.68595 0.78617 0.60784 0.0
C2831 C 0.69769 0.79168 0.60008 0.0
C2832 C 0.70433 0.80485 0.60478 0.0
C2833 C 0.69937 0.8123 0.61692 0.0
C2834 C 0.72298 0.77573 0.57251 0.0
C2835 C 0.71316 0.76952 0.56206 0.0
C2836 C 0.71796 0.78278 0.58485 0.0
C2837 C 0.70299 0.78379 0.58712 0.0
C2838 C 0.69316 0.77736 0.57683 0.0
C2839 C 0.69818 0.77031 0.56445 0.0
H2840 H 0.69304 0.80227 0.42256 0.0
H2841 H 0.7277 0.83394 0.41828 0.0
H2842 H 0.7051 0.793 0.44464 0.0
H2843 H 0.73979 0.82459 0.44033 0.0
H2844 H 0.76433 0.79227 0.47102 0.0
H2845 H 0.75256 0.80318 0.44951 0.0
H2846 H 0.71104 0.79988 0.46976 0.0
H2847 H 0.72272 0.78881 0.49112 0.0
C2848 C 0.70317 0.80735 0.42638 0.0
C2849 C 0.70937 0.81886 0.41857 0.0
C2850 C 0.71009 0.80203 0.43907 0.0
C2851 C 0.72342 0.80806 0.44432 0.0
C2852 C 0.72964 0.81955 0.43652 0.0
C2853 C 0.7227 0.8249 0.42384 0.0
C2854 C 0.75272 0.79404 0.47096 0.0
C2855 C 0.74449 0.78959 0.48281 0.0
C2856 C 0.74596 0.80032 0.45862 0.0
C2857 C 0.73081 0.80227 0.45781 0.0
C2858 C 0.72268 0.79828 0.46987 0.0
C2859 C 0.72942 0.79203 0.48219 0.0
H2860 H 0.74095 0.18358 0.40962 0.0
H2861 H 0.71578 0.22265 0.41328 0.0
H2862 H 0.7563 0.19128 0.43051 0.0
H2863 H 0.73137 0.23064 0.4339 0.0
H2864 H 0.75316 0.23487 0.47894 0.0
H2865 H 0.73748 0.22644 0.4586 0.0
H2866 H 0.77467 0.20791 0.43827 0.0
H2867 H 0.79021 0.21603 0.45888 0.0
C2868 C 0.73879 0.19389 0.41482 0.0
C2869 C 0.72714 0.2025 0.40979 0.0
C2870 C 0.74764 0.19836 0.42679 0.0
C2871 C 0.74517 0.21163 0.43398 0.0
C2872 C 0.73349 0.22023 0.42888 0.0
C2873 C 0.72455 0.21568 0.41701 0.0
C2874 C 0.75798 0.22904 0.4701 0.0
C2875 C 0.77295 0.22615 0.47053 0.0
C2876 C 0.74899 0.22423 0.45837 0.0
C2877 C 0.75475 0.21651 0.44666 0.0
C2878 C 0.76975 0.21359 0.44715 0.0
C2879 C 0.7787 0.21828 0.45897 0.0
H2880 H 0.29868 0.1815 0.42115 0.0
H2881 H 0.32764 0.21863 0.41862 0.0
H2882 H 0.2879 0.19198 0.44258 0.0
H2883 H 0.31652 0.2295 0.43975 0.0
H2884 H 0.30255 0.23919 0.48572 0.0
H2885 H 0.31415 0.22786 0.46517 0.0
H2886 H 0.27242 0.21063 0.44969 0.0
H2887 H 0.26102 0.22158 0.47056 0.0
C2888 C 0.30264 0.19199 0.42514 0.0
C2889 C 0.31395 0.19929 0.41822 0.0
C2890 C 0.29642 0.19805 0.43738 0.0
C2891 C 0.30124 0.21167 0.4429 0.0
C2892 C 0.31266 0.21891 0.43598 0.0
C2893 C 0.31901 0.21273 0.42384 0.0
C2894 C 0.29589 0.23298 0.47789 0.0
C2895 C 0.28089 0.23125 0.47973 0.0
C2896 C 0.30251 0.22653 0.46606 0.0
C2897 C 0.29425 0.21833 0.45568 0.0
C2898 C 0.27921 0.21662 0.45758 0.0
C2899 C 0.27264 0.22292 0.46952 0.0
H2900 H 0.32962 0.81736 0.42005 0.0
H2901 H 0.29161 0.84366 0.41197 0.0
H2902 H 0.32018 0.80973 0.44319 0.0
H2903 H 0.28202 0.83577 0.43524 0.0
H2904 H 0.26513 0.80203 0.47049 0.0
H2905 H 0.27275 0.81335 0.4478 0.0
H2906 H 0.31577 0.82049 0.46704 0.0
H2907 H 0.30827 0.8091 0.48945 0.0
C2908 C 0.31931 0.82167 0.42327 0.0
C2909 C 0.31149 0.83129 0.41416 0.0
C2910 C 0.31388 0.81727 0.43657 0.0
C2911 C 0.30043 0.8223 0.44118 0.0
C2912 C 0.2924 0.83168 0.43199 0.0
C2913 C 0.29789 0.83617 0.41864 0.0
C2914 C 0.27609 0.80636 0.46997 0.0
C2915 C 0.28615 0.80452 0.4817 0.0
C2916 C 0.28047 0.81281 0.45696 0.0
C2917 C 0.29496 0.81752 0.4555 0.0
C2918 C 0.30464 0.81664 0.46765 0.0
C2919 C 0.3003 0.81019 0.48055 0.0
H2920 H 0.63659 0.23931 0.68087 0.0
H2921 H 0.62881 0.20683 0.71365 0.0
H2922 H 0.61676 0.25374 0.6898 0.0
H2923 H 0.60889 0.22131 0.72262 0.0
H2924 H 0.5659 0.24551 0.72678 0.0
H2925 H 0.58448 0.23029 0.71642 0.0
H2926 H 0.61182 0.2683 0.71109 0.0
H2927 H 0.59338 0.28346 0.72145 0.0
C2928 C 0.6307 0.23528 0.69005 0.0
C2929 C 0.63443 0.22196 0.69664 0.0
C2930 C 0.61931 0.24356 0.69517 0.0
C2931 C 0.61128 0.23877 0.70701 0.0
C2932 C 0.61475 0.22527 0.71339 0.0
C2933 C 0.62618 0.21697 0.70825 0.0
C2934 C 0.57587 0.25063 0.72343 0.0
C2935 C 0.57807 0.26577 0.72501 0.0
C2936 C 0.58655 0.24188 0.7175 0.0
C2937 C 0.59967 0.24804 0.71293 0.0
C2938 C 0.60176 0.26319 0.71428 0.0
C2939 C 0.59112 0.27193 0.72022 0.0
H2940 H 0.34556 0.12391 0.69169 0.0
H2941 H 0.31447 0.15139 0.71226 0.0
H2942 H 0.332 0.1024 0.69909 0.0
H2943 H 0.30055 0.1299 0.71907 0.0
H2944 H 0.28807 0.08789 0.74255 0.0
H2945 H 0.30155 0.10948 0.73534 0.0
H2946 H 0.3096 0.08933 0.69385 0.0
H2947 H 0.29668 0.06749 0.70131 0.0
C2948 C 0.33585 0.12538 0.69782 0.0
C2949 C 0.33116 0.13943 0.70139 0.0
C2950 C 0.32795 0.11303 0.70189 0.0
C2951 C 0.31512 0.11437 0.70964 0.0
C2952 C 0.31044 0.12841 0.71324 0.0
C2953 C 0.31835 0.14077 0.70917 0.0
C2954 C 0.29279 0.08798 0.73193 0.0
C2955 C 0.2913 0.07583 0.72257 0.0
C2956 C 0.3004 0.10047 0.72772 0.0
C2957 C 0.30672 0.10118 0.71401 0.0
C2958 C 0.30506 0.08912 0.70457 0.0
C2959 C 0.29746 0.07662 0.70878 0.0
H2960 H 0.39464 0.80908 0.72536 0.0
H2961 H 0.42316 0.83526 0.69946 0.0
H2962 H 0.41448 0.79247 0.73092 0.0
H2963 H 0.44308 0.81871 0.70522 0.0
H2964 H 0.47804 0.79411 0.73296 0.0
H2965 H 0.4586 0.81087 0.72622 0.0
H2966 H 0.42929 0.77438 0.71824 0.0
H2967 H 0.44868 0.75764 0.7253 0.0
C2968 C 0.40512 0.81128 0.72079 0.0
C2969 C 0.40726 0.8235 0.7119 0.0
C2970 C 0.41649 0.80173 0.72397 0.0
C2971 C 0.43033 0.8042 0.71841 0.0
C2972 C 0.43257 0.81656 0.70976 0.0
C2973 C 0.42116 0.82609 0.70651 0.0
C2974 C 0.46745 0.78967 0.72975 0.0
C2975 C 0.46489 0.77455 0.72975 0.0
C2976 C 0.45634 0.79927 0.72578 0.0
C2977 C 0.44237 0.79397 0.7218 0.0
C2978 C 0.43989 0.77882 0.72144 0.0
C2979 C 0.45104 0.76921 0.72532 0.0
H2980 H 0.71057 0.91449 0.7023 0.0
H2981 H 0.67179 0.91729 0.72727 0.0
H2982 H 0.71991 0.93676 0.71386 0.0
H2983 H 0.68063 0.94005 0.73799 0.0
H2984 H 0.70742 0.97182 0.76664 0.0
H2985 H 0.69787 0.94958 0.75509 0.0
H2986 H 0.71708 0.96224 0.71468 0.0
H2987 H 0.72699 0.98422 0.72648 0.0
C2988 C 0.704 0.91985 0.71021 0.0
C2989 C 0.6904 0.91401 0.71381 0.0
C2990 C 0.70927 0.93278 0.7167 0.0
C2991 C 0.70104 0.9403 0.72687 0.0
C2992 C 0.6874 0.93451 0.73037 0.0
C2993 C 0.6822 0.92152 0.72401 0.0
C2994 C 0.70946 0.96989 0.75525 0.0
C2995 C 0.71797 0.97975 0.74747 0.0
C2996 C 0.70397 0.95714 0.74859 0.0
C2997 C 0.7067 0.95402 0.73391 0.0
C2998 C 0.71499 0.96407 0.72607 0.0
C2999 C 0.72062 0.97673 0.73279 0.0
H3000 H 0.60666 0.83948 0.3027 0.0
H3001 H 0.6088 0.80448 0.33396 0.0
H3002 H 0.58637 0.82695 0.28966 0.0
H3003 H 0.5884 0.79236 0.32133 0.0
H3004 H 0.56447 0.7652 0.28838 0.0
H3005 H 0.5848 0.77958 0.2983 0.0
H3006 H 0.56014 0.81884 0.29175 0.0
H3007 H 0.53959 0.8042 0.28139 0.0
C3008 C 0.6028 0.82916 0.30683 0.0
C3009 C 0.60945 0.82298 0.31939 0.0
C3010 C 0.59108 0.82206 0.29942 0.0
C3011 C 0.58584 0.80857 0.30433 0.0
C3012 C 0.5923 0.80261 0.31706 0.0
C3013 C 0.60392 0.80967 0.32445 0.0
C3014 C 0.56342 0.77693 0.28882 0.0
C3015 C 0.55038 0.78356 0.28424 0.0
C3016 C 0.57506 0.78518 0.29463 0.0
C3017 C 0.57399 0.80033 0.29621 0.0
C3018 C 0.56129 0.80717 0.29074 0.0
C3019 C 0.54955 0.79882 0.28477 0.0
H3020 H 0.69551 0.10138 0.31612 0.0
H3021 H 0.71948 0.13185 0.29023 0.0
H3022 H 0.70699 0.08112 0.30379 0.0
H3023 H 0.73081 0.11167 0.27782 0.0
H3024 H 0.76456 0.07475 0.28048 0.0
H3025 H 0.74915 0.09494 0.2865 0.0
H3026 H 0.71118 0.06704 0.28106 0.0
H3027 H 0.72691 0.04654 0.27504 0.0
C3028 C 0.70297 0.10375 0.30757 0.0
C3029 C 0.70678 0.11823 0.30434 0.0
C3030 C 0.70951 0.09213 0.30045 0.0
C3031 C 0.71996 0.09475 0.28992 0.0
C3032 C 0.72303 0.10925 0.28607 0.0
C3033 C 0.71656 0.12083 0.29321 0.0
C3034 C 0.75289 0.07297 0.28026 0.0
C3035 C 0.74693 0.05907 0.27733 0.0
C3036 C 0.74402 0.08459 0.28364 0.0
C3037 C 0.7289 0.08265 0.28431 0.0
C3038 C 0.72281 0.06886 0.28073 0.0
C3039 C 0.73176 0.05718 0.27714 0.0
H3040 H 0.39686 0.2042 0.30786 0.0
H3041 H 0.42243 0.17203 0.33105 0.0
H3042 H 0.41844 0.21243 0.29552 0.0
H3043 H 0.44401 0.18022 0.31859 0.0
H3044 H 0.47608 0.18966 0.28216 0.0
H3045 H 0.45441 0.1808 0.29416 0.0
H3046 H 0.44137 0.22517 0.30144 0.0
H3047 H 0.46268 0.23396 0.28912 0.0
C3048 C 0.40711 0.19895 0.31042 0.0
C3049 C 0.4079 0.18749 0.32051 0.0
C3050 C 0.41947 0.20366 0.30332 0.0
C3051 C 0.43296 0.19701 0.3061 0.0
C3052 C 0.43375 0.18545 0.31607 0.0
C3053 C 0.42138 0.18076 0.32321 0.0
C3054 C 0.46853 0.1975 0.28625 0.0
C3055 C 0.47116 0.21252 0.28472 0.0
C3056 C 0.45619 0.19243 0.29324 0.0
C3057 C 0.44616 0.20228 0.29876 0.0
C3058 C 0.44879 0.21729 0.2972 0.0
C3059 C 0.46113 0.22234 0.29029 0.0
H3060 H 0.28837 0.90721 0.31952 0.0
H3061 H 0.32217 0.91345 0.28861 0.0
H3062 H 0.27556 0.92795 0.3095 0.0
H3063 H 0.30947 0.93486 0.27889 0.0
H3064 H 0.27117 0.96333 0.2573 0.0
H3065 H 0.28665 0.94294 0.26524 0.0
H3066 H 0.27934 0.95394 0.31016 0.0
H3067 H 0.26381 0.97373 0.3023 0.0
C3068 C 0.29305 0.91293 0.31048 0.0
C3069 C 0.30632 0.90856 0.30487 0.0
C3070 C 0.28578 0.925 0.30486 0.0
C3071 C 0.29158 0.93323 0.29351 0.0
C3072 C 0.30471 0.92876 0.28763 0.0
C3073 C 0.31203 0.91658 0.29329 0.0
C3074 C 0.27313 0.96147 0.26884 0.0
C3075 C 0.26612 0.96995 0.27918 0.0
C3076 C 0.28196 0.94981 0.2734 0.0
C3077 C 0.28394 0.94658 0.28834 0.0
C3078 C 0.27771 0.9558 0.29857 0.0
C3079 C 0.26886 0.96723 0.29406 0.0
H3080 H 0.71651 0.10307 0.68364 0.0
H3081 H 0.73893 0.13119 0.71516 0.0
H3082 H 0.72635 0.08175 0.69628 0.0
H3083 H 0.74858 0.10994 0.72779 0.0
H3084 H 0.74158 0.07023 0.75741 0.0
H3085 H 0.73643 0.09133 0.74243 0.0
H3086 H 0.74913 0.06771 0.70426 0.0
H3087 H 0.7544 0.04625 0.71953 0.0
C3088 C 0.72372 0.10474 0.69311 0.0
C3089 C 0.72671 0.11889 0.69851 0.0
C3090 C 0.72939 0.0925 0.70033 0.0
C3091 C 0.73814 0.09413 0.71314 0.0
C3092 C 0.74167 0.10829 0.71811 0.0
C3093 C 0.73606 0.12048 0.7109 0.0
C3094 C 0.74344 0.06952 0.74584 0.0
C3095 C 0.74836 0.05654 0.73965 0.0
C3096 C 0.74057 0.08169 0.73725 0.0
C3097 C 0.74238 0.08126 0.72213 0.0
C3098 C 0.74758 0.06836 0.71588 0.0
C3099 C 0.7507 0.05613 0.7246 0.0
H3100 H 0.70819 0.93085 0.3518 0.0
H3101 H 0.71411 0.91059 0.30983 0.0
H3102 H 0.72227 0.95172 0.34439 0.0
H3103 H 0.72669 0.93221 0.30183 0.0
H3104 H 0.76093 0.96671 0.29468 0.0
H3105 H 0.7479 0.9452 0.30298 0.0
H3106 H 0.72296 0.97252 0.33112 0.0
H3107 H 0.7369 0.9937 0.32347 0.0
C3108 C 0.71242 0.93079 0.34096 0.0
C3109 C 0.71001 0.91878 0.33153 0.0
C3110 C 0.72031 0.94301 0.33656 0.0
C3111 C 0.72574 0.94385 0.32244 0.0
C3112 C 0.72303 0.93199 0.31289 0.0
C3113 C 0.71546 0.9196 0.31742 0.0
C3114 C 0.75271 0.96798 0.30272 0.0
C3115 C 0.74993 0.98177 0.30852 0.0
C3116 C 0.74509 0.95569 0.30741 0.0
C3117 C 0.73419 0.95696 0.31772 0.0
C3118 C 0.73143 0.9709 0.32343 0.0
C3119 C 0.73935 0.98311 0.31902 0.0
H3120 H 0.60328 0.20682 0.33962 0.0
H3121 H 0.62778 0.22894 0.3069 0.0
H3122 H 0.58082 0.21704 0.32918 0.0
H3123 H 0.60535 0.23888 0.29639 0.0
H3124 H 0.56213 0.23057 0.26983 0.0
H3125 H 0.58489 0.22572 0.28298 0.0
H3126 H 0.56656 0.24061 0.32295 0.0
H3127 H 0.54347 0.24567 0.30953 0.0
C3128 C 0.60394 0.21407 0.3304 0.0
C3129 C 0.61735 0.21684 0.32396 0.0
C3130 C 0.59105 0.21994 0.32443 0.0
C3131 C 0.5913 0.22864 0.31188 0.0
C3132 C 0.60478 0.23203 0.30594 0.0
C3133 C 0.61763 0.22625 0.31192 0.0
C3134 C 0.56295 0.23297 0.2814 0.0
C3135 C 0.551 0.23844 0.28867 0.0
C3136 C 0.57605 0.23028 0.28892 0.0
C3137 C 0.57755 0.2328 0.304 0.0
C3138 C 0.56569 0.23853 0.31132 0.0
C3139 C 0.55254 0.24151 0.30367 0.0
H3140 H 0.28537 0.10328 0.34515 0.0
H3141 H 0.31515 0.09654 0.31053 0.0
H3142 H 0.27035 0.08294 0.33597 0.0
H3143 H 0.30035 0.0759 0.30161 0.0
H3144 H 0.26122 0.05208 0.27994 0.0
H3145 H 0.27637 0.07201 0.28961 0.0
H3146 H 0.27065 0.05628 0.33333 0.0
H3147 H 0.25552 0.03621 0.32363 0.0
C3148 C 0.28872 0.09744 0.33559 0.0
C3149 C 0.30141 0.10158 0.32851 0.0
C3150 C 0.28019 0.08569 0.33043 0.0
C3151 C 0.28413 0.07783 0.31804 0.0
C3152 C 0.29693 0.08185 0.31108 0.0
C3153 C 0.30549 0.09357 0.31628 0.0
C3154 C 0.26329 0.05275 0.29161 0.0
C3155 C 0.25722 0.04245 0.30099 0.0
C3156 C 0.27198 0.0642 0.29715 0.0
C3157 C 0.2748 0.06567 0.31223 0.0
C3158 C 0.26857 0.05551 0.32166 0.0
C3159 C 0.25988 0.04403 0.3161 0.0
H3160 H 0.41052 0.82648 0.30506 0.0
H3161 H 0.40898 0.80211 0.34511 0.0
H3162 H 0.43198 0.81311 0.29834 0.0
H3163 H 0.43044 0.78869 0.33837 0.0
H3164 H 0.47788 0.77827 0.32789 0.0
H3165 H 0.45634 0.79133 0.33514 0.0
H3166 H 0.43909 0.78919 0.29077 0.0
H3167 H 0.46059 0.77625 0.28356 0.0
C3168 C 0.41468 0.81818 0.31238 0.0
C3169 C 0.40798 0.81538 0.32562 0.0
C3170 C 0.42701 0.8105 0.30853 0.0
C3171 C 0.43296 0.79976 0.31778 0.0
C3172 C 0.4263 0.79701 0.33106 0.0
C3173 C 0.41398 0.80471 0.33493 0.0
C3174 C 0.46943 0.78047 0.31972 0.0
C3175 C 0.47106 0.7763 0.30511 0.0
C3176 C 0.45706 0.78796 0.32387 0.0
C3177 C 0.44599 0.79144 0.31352 0.0
C3178 C 0.44752 0.78701 0.29898 0.0
C3179 C 0.45987 0.77956 0.29484 0.0
H3180 H 0.32151 0.92712 0.73931 0.0
H3181 H 0.33594 0.95028 0.70148 0.0
H3182 H 0.31577 0.95008 0.75082 0.0
H3183 H 0.32908 0.97313 0.71248 0.0
H3184 H 0.3255 0.01409 0.7385 0.0
H3185 H 0.33461 0.99081 0.73016 0.0
H3186 H 0.29886 0.96864 0.75029 0.0
H3187 H 0.29025 0.99181 0.75918 0.0
C3188 C 0.32351 0.93708 0.73341 0.0
C3189 C 0.32923 0.9367 0.71939 0.0
C3190 C 0.31999 0.95032 0.73997 0.0
C3191 C 0.32189 0.96361 0.73265 0.0
C3192 C 0.32765 0.96322 0.71864 0.0
C3193 C 0.33135 0.95001 0.71217 0.0
C3194 C 0.31978 1.0042 0.74139 0.0
C3195 C 0.30714 1.00485 0.7495 0.0
C3196 C 0.3249 0.99082 0.73645 0.0
C3197 C 0.31739 0.97773 0.73928 0.0
C3198 C 0.3051 0.97838 0.74796 0.0
C3199 C 0.30011 0.99174 0.75308 0.0
H3200 H 0.58663 0.82963 0.71713 0.0
H3201 H 0.61572 0.80254 0.74265 0.0
H3202 H 0.56616 0.82058 0.73073 0.0
H3203 H 0.59523 0.79303 0.75597 0.0
H3204 H 0.55692 0.78462 0.78423 0.0
H3205 H 0.57702 0.79759 0.77313 0.0
H3206 H 0.55212 0.7992 0.73233 0.0
H3207 H 0.53201 0.7869 0.7435 0.0
C3208 C 0.58861 0.82165 0.72561 0.0
C3209 C 0.60273 0.8167 0.72876 0.0
C3210 C 0.57688 0.81643 0.7334 0.0
C3211 C 0.57897 0.80596 0.74442 0.0
C3212 C 0.59319 0.80124 0.74774 0.0
C3213 C 0.60495 0.80661 0.74005 0.0
C3214 C 0.55567 0.78799 0.77297 0.0
C3215 C 0.54286 0.78466 0.76476 0.0
C3216 C 0.56725 0.7953 0.76655 0.0
C3217 C 0.56629 0.79938 0.75177 0.0
C3218 C 0.55325 0.79646 0.74377 0.0
C3219 C 0.54169 0.78928 0.75019 0.0
H3220 H 0.45059 0.21098 0.70992 0.0
H3221 H 0.42616 0.24611 0.72816 0.0
H3222 H 0.47286 0.22093 0.72168 0.0
H3223 H 0.44845 0.25616 0.73949 0.0
H3224 H 0.49268 0.27992 0.73523 0.0
H3225 H 0.47021 0.26758 0.72761 0.0
H3226 H 0.48574 0.22771 0.74699 0.0
H3227 H 0.50855 0.24029 0.75492 0.0
C3228 C 0.44988 0.22067 0.7166 0.0
C3229 C 0.43653 0.22784 0.71787 0.0
C3230 C 0.46267 0.22635 0.72334 0.0
C3231 C 0.46243 0.23939 0.7314 0.0
C3232 C 0.44902 0.24621 0.73317 0.0
C3233 C 0.43625 0.24048 0.72657 0.0
C3234 C 0.49136 0.26852 0.73796 0.0
C3235 C 0.50245 0.26106 0.74564 0.0
C3236 C 0.4784 0.26148 0.73366 0.0
C3237 C 0.47616 0.24669 0.73673 0.0
C3238 C 0.4872 0.23912 0.74446 0.0
C3239 C 0.50019 0.24631 0.74904 0.0
H3240 H 0.69959 0.73044 0.10601 0.0
H3241 H 0.72519 0.69148 0.10951 0.0
H3242 H 0.71495 0.73925 0.08666 0.0
H3243 H 0.7407 0.70034 0.09047 0.0
H3244 H 0.75486 0.71269 0.04483 0.0
H3245 H 0.74039 0.70425 0.0649 0.0
H3246 H 0.73863 0.74831 0.08142 0.0
H3247 H 0.75289 0.75672 0.06117 0.0
C3248 C 0.70859 0.72384 0.10275 0.0
C3249 C 0.71107 0.7102 0.10918 0.0
C3250 C 0.71744 0.72889 0.09168 0.0
C3251 C 0.72905 0.72048 0.08689 0.0
C3252 C 0.73169 0.70698 0.0936 0.0
C3253 C 0.7228 0.70191 0.10456 0.0
C3254 C 0.75154 0.72053 0.05285 0.0
C3255 C 0.75499 0.73538 0.05136 0.0
C3256 C 0.74323 0.71571 0.06439 0.0
C3257 C 0.73825 0.7256 0.07481 0.0
C3258 C 0.74199 0.74041 0.07347 0.0
C3259 C 0.75023 0.74524 0.06188 0.0
H3260 H 0.32948 0.72168 0.0867 0.0
H3261 H 0.30364 0.74677 0.11574 0.0
H3262 H 0.31819 0.73404 0.06582 0.0
H3263 H 0.29204 0.7589 0.09489 0.0
H3264 H 0.28061 0.7863 0.0554 0.0
H3265 H 0.29478 0.77578 0.07564 0.0
H3266 H 0.29596 0.73485 0.05233 0.0
H3267 H 0.28233 0.74549 0.032 0.0
C3268 C 0.32131 0.72979 0.08861 0.0
C3269 C 0.31743 0.73319 0.10289 0.0
C3270 C 0.3148 0.73687 0.07663 0.0
C3271 C 0.30411 0.74748 0.07858 0.0
C3272 C 0.30038 0.751 0.09291 0.0
C3273 C 0.30699 0.744 0.1049 0.0
C3274 C 0.28408 0.77512 0.05452 0.0
C3275 C 0.28029 0.76676 0.04205 0.0
C3276 C 0.2921 0.76902 0.0662 0.0
C3277 C 0.29648 0.75438 0.06575 0.0
C3278 C 0.29301 0.74619 0.05307 0.0
C3279 C 0.28509 0.7523 0.04139 0.0
H3280 H 0.32089 0.35145 0.12183 0.0
H3281 H 0.3517 0.31648 0.12555 0.0
H3282 H 0.31239 0.34213 0.09817 0.0
H3283 H 0.34318 0.30712 0.1017 0.0
H3284 H 0.31113 0.28747 0.06504 0.0
H3285 H 0.32239 0.29558 0.08841 0.0
H3286 H 0.32046 0.34018 0.07379 0.0
H3287 H 0.30899 0.33214 0.05085 0.0
C3288 C 0.32598 0.34185 0.11753 0.0
C3289 C 0.33708 0.33482 0.1256 0.0
C3290 C 0.32111 0.33649 0.10391 0.0
C3291 C 0.32721 0.32394 0.09788 0.0
C3292 C 0.33816 0.31674 0.10602 0.0
C3293 C 0.34304 0.32212 0.11971 0.0
C3294 C 0.31343 0.29896 0.06675 0.0
C3295 C 0.30907 0.30918 0.05616 0.0
C3296 C 0.31983 0.30363 0.08015 0.0
C3297 C 0.32205 0.31859 0.08314 0.0
C3298 C 0.31854 0.32863 0.07209 0.0
C3299 C 0.31208 0.324 0.05885 0.0
H3300 H 0.73615 0.31321 0.13567 0.0
H3301 H 0.6969 0.31914 0.10915 0.0
H3302 H 0.7483 0.30412 0.11452 0.0
H3303 H 0.70844 0.30855 0.08856 0.0
H3304 H 0.73447 0.29971 0.04959 0.0
H3305 H 0.72444 0.31172 0.0706 0.0
H3306 H 0.7507 0.2845 0.09926 0.0
H3307 H 0.76144 0.27343 0.078 0.0
C3308 C 0.73006 0.31259 0.12538 0.0
C3309 C 0.71544 0.31691 0.12428 0.0
C3310 C 0.73699 0.30708 0.11323 0.0
C3311 C 0.72942 0.30546 0.09969 0.0
C3312 C 0.71483 0.30982 0.09863 0.0
C3313 C 0.70803 0.31565 0.11064 0.0
C3314 C 0.7381 0.29644 0.06043 0.0
C3315 C 0.74862 0.28565 0.06227 0.0
C3316 C 0.73229 0.3032 0.07252 0.0
C3317 C 0.73653 0.29901 0.08679 0.0
C3318 C 0.74726 0.28826 0.08854 0.0
C3319 C 0.75337 0.2818 0.07639 0.0
H3320 H 0.75011 0.34165 0.928 0.0
H3321 H 0.7271 0.30085 0.92114 0.0
H3322 H 0.76246 0.3318 0.94965 0.0
H3323 H 0.73986 0.29069 0.94243 0.0
H3324 H 0.75459 0.28072 0.98907 0.0
H3325 H 0.74183 0.29093 0.96786 0.0
H3326 H 0.78039 0.31578 0.95788 0.0
H3327 H 0.79286 0.30607 0.9795 0.0
C3328 C 0.74783 0.3305 0.93106 0.0
C3329 C 0.73764 0.32203 0.92289 0.0
C3330 C 0.75496 0.3248 0.94345 0.0
C3331 C 0.75226 0.31038 0.94788 0.0
C3332 C 0.74207 0.3019 0.9396 0.0
C3333 C 0.73478 0.30769 0.92733 0.0
C3334 C 0.76033 0.28838 0.98234 0.0
C3335 C 0.77473 0.2926 0.986 0.0
C3336 C 0.75303 0.29419 0.97008 0.0
C3337 C 0.76002 0.30422 0.96103 0.0
C3338 C 0.7745 0.30833 0.96468 0.0
C3339 C 0.78172 0.30268 0.97706 0.0
H3340 H 0.70013 0.70956 0.92307 0.0
H3341 H 0.72781 0.73449 0.89522 0.0
H3342 H 0.70835 0.72444 0.94388 0.0
H3343 H 0.73648 0.749 0.91617 0.0
H3344 H 0.73948 0.78123 0.95413 0.0
H3345 H 0.72911 0.76738 0.93338 0.0
H3346 H 0.72964 0.72833 0.95943 0.0
H3347 H 0.73969 0.74216 0.98016 0.0
C3348 C 0.70795 0.71823 0.92135 0.0
C3349 C 0.71329 0.72078 0.90741 0.0
C3350 C 0.71279 0.72669 0.93335 0.0
C3351 C 0.7231 0.73796 0.93176 0.0
C3352 C 0.7284 0.74055 0.9178 0.0
C3353 C 0.72357 0.73208 0.9058 0.0
C3354 C 0.73721 0.76973 0.95549 0.0
C3355 C 0.74045 0.76284 0.96885 0.0
C3356 C 0.73139 0.76174 0.94354 0.0
C3357 C 0.7286 0.74668 0.94466 0.0
C3358 C 0.73148 0.73991 0.95816 0.0
C3359 C 0.73731 0.74787 0.97007 0.0
H3360 H 0.32276 0.69071 0.92773 0.0
H3361 H 0.29779 0.71629 0.89665 0.0
H3362 H 0.30726 0.69885 0.94714 0.0
H3363 H 0.28232 0.72436 0.91597 0.0
H3364 H 0.24839 0.72437 0.95025 0.0
H3365 H 0.26389 0.71449 0.9318 0.0
H3366 H 0.30145 0.72096 0.9608 0.0
H3367 H 0.28585 0.73038 0.97948 0.0
C3368 C 0.31405 0.69816 0.92506 0.0
C3369 C 0.31147 0.70279 0.91063 0.0
C3370 C 0.30516 0.7028 0.93617 0.0
C3371 C 0.29348 0.71215 0.93307 0.0
C3372 C 0.29102 0.7169 0.91867 0.0
C3373 C 0.29991 0.7123 0.9076 0.0
C3374 C 0.2599 0.72344 0.95282 0.0
C3375 C 0.26587 0.72824 0.96634 0.0
C3376 C 0.26882 0.71795 0.94216 0.0
C3377 C 0.28393 0.71709 0.94478 0.0
C3378 C 0.28985 0.72143 0.95846 0.0
C3379 C 0.28092 0.72696 0.96912 0.0
H3380 H 0.34783 0.32427 0.91925 0.0
H3381 H 0.31567 0.35715 0.91014 0.0
H3382 H 0.3353 0.31743 0.9412 0.0
H3383 H 0.30281 0.3499 0.93172 0.0
H3384 H 0.29224 0.34362 0.97975 0.0
H3385 H 0.30486 0.35074 0.95796 0.0
H3386 H 0.31334 0.30554 0.94875 0.0
H3387 H 0.3008 0.29845 0.97056 0.0
C3388 C 0.3381 0.33007 0.92192 0.0
C3389 C 0.33279 0.34128 0.91288 0.0
C3390 C 0.33081 0.32602 0.93443 0.0
C3391 C 0.318 0.33308 0.93825 0.0
C3392 C 0.31271 0.34431 0.92923 0.0
C3393 C 0.32 0.34836 0.91672 0.0
C3394 C 0.29668 0.33518 0.97302 0.0
C3395 C 0.29551 0.32045 0.97699 0.0
C3396 C 0.30393 0.33927 0.96049 0.0
C3397 C 0.31018 0.32873 0.95157 0.0
C3398 C 0.30891 0.31399 0.95548 0.0
C3399 C 0.30169 0.30991 0.96801 0.0
H3400 H 0.6254 0.7134 0.22466 0.0
H3401 H 0.59545 0.6961 0.19148 0.0
H3402 H 0.6049 0.72047 0.23931 0.0
H3403 H 0.57497 0.70317 0.2061 0.0
H3404 H 0.54331 0.73369 0.22966 0.0
H3405 H 0.56368 0.72653 0.21496 0.0
H3406 H 0.58477 0.70753 0.25297 0.0
H3407 H 0.56435 0.71473 0.26768 0.0
C3408 C 0.61443 0.71122 0.22045 0.0
C3409 C 0.61203 0.70421 0.20692 0.0
C3410 C 0.60271 0.71514 0.22889 0.0
C3411 C 0.58833 0.71233 0.22388 0.0
C3412 C 0.58593 0.70554 0.21023 0.0
C3413 C 0.59764 0.70142 0.2019 0.0
C3414 C 0.5523 0.72798 0.23486 0.0
C3415 C 0.55222 0.72477 0.24982 0.0
C3416 C 0.56392 0.72381 0.22643 0.0
C3417 C 0.57585 0.7165 0.23281 0.0
C3418 C 0.57578 0.71325 0.24777 0.0
C3419 C 0.56404 0.71724 0.25616 0.0
H3420 H 0.32836 0.6144 0.18133 0.0
H3421 H 0.29715 0.64136 0.20237 0.0
H3422 H 0.31579 0.59264 0.1898 0.0
H3423 H 0.28458 0.61965 0.21073 0.0
H3424 H 0.25663 0.57849 0.21033 0.0
H3425 H 0.26964 0.59962 0.20133 0.0
H3426 H 0.31051 0.57885 0.21172 0.0
H3427 H 0.29745 0.55744 0.22031 0.0
C3428 C 0.31891 0.61572 0.18787 0.0
C3429 C 0.31377 0.62971 0.19108 0.0
C3430 C 0.31168 0.60321 0.19273 0.0
C3431 C 0.29909 0.60434 0.20089 0.0
C3432 C 0.29406 0.61832 0.20423 0.0
C3433 C 0.30129 0.63081 0.19941 0.0
C3434 C 0.26837 0.57828 0.21053 0.0
C3435 C 0.27593 0.56616 0.21608 0.0
C3436 C 0.27587 0.59053 0.20552 0.0
C3437 C 0.29116 0.59104 0.20588 0.0
C3438 C 0.29874 0.57884 0.21119 0.0
C3439 C 0.29124 0.56658 0.21625 0.0
H3440 H 0.42555 0.33829 0.25051 0.0
H3441 H 0.4192 0.30701 0.2155 0.0
H3442 H 0.44479 0.32307 0.26142 0.0
H3443 H 0.43803 0.29189 0.22645 0.0
H3444 H 0.45763 0.25976 0.25684 0.0
H3445 H 0.43928 0.27723 0.2494 0.0
H3446 H 0.47044 0.31236 0.25612 0.0
H3447 H 0.48905 0.29462 0.26379 0.0
C3448 C 0.4283 0.32826 0.24509 0.0
C3449 C 0.4206 0.32375 0.23226 0.0
C3450 C 0.4393 0.31956 0.25135 0.0
C3451 C 0.44273 0.30617 0.24494 0.0
C3452 C 0.43539 0.30198 0.23186 0.0
C3453 C 0.42454 0.31064 0.2256 0.0
C3454 C 0.46057 0.27123 0.25697 0.0
C3455 C 0.47484 0.2758 0.26071 0.0
C3456 C 0.45005 0.28123 0.25264 0.0
C3457 C 0.4535 0.29613 0.25184 0.0
C3458 C 0.46749 0.30092 0.25659 0.0
C3459 C 0.47812 0.2908 0.26101 0.0
H3460 H 0.68625 0.42535 0.20561 0.0
H3461 H 0.71602 0.40307 0.23507 0.0
H3462 H 0.69674 0.44868 0.21358 0.0
H3463 H 0.72681 0.42642 0.24272 0.0
H3464 H 0.73967 0.47191 0.2585 0.0
H3465 H 0.72353 0.45058 0.25487 0.0
H3466 H 0.72061 0.45939 0.20867 0.0
H3467 H 0.73651 0.48047 0.21228 0.0
C3468 C 0.69485 0.42543 0.21398 0.0
C3469 C 0.70041 0.41233 0.21957 0.0
C3470 C 0.70093 0.43881 0.21847 0.0
C3471 C 0.7127 0.4394 0.22868 0.0
C3472 C 0.7177 0.42635 0.23491 0.0
C3473 C 0.71164 0.41296 0.23038 0.0
C3474 C 0.73529 0.46942 0.24765 0.0
C3475 C 0.7394 0.47777 0.23566 0.0
C3476 C 0.72615 0.45718 0.24555 0.0
C3477 C 0.72082 0.45328 0.23148 0.0
C3478 C 0.72436 0.46215 0.21967 0.0
C3479 C 0.73358 0.47419 0.22173 0.0
H3480 H 0.6232 0.32047 0.84365 0.0
H3481 H 0.64924 0.30529 0.80857 0.0
H3482 H 0.60232 0.30694 0.83337 0.0
H3483 H 0.62817 0.29247 0.79785 0.0
H3484 H 0.59165 0.26104 0.78696 0.0
H3485 H 0.61229 0.27215 0.80039 0.0
H3486 H 0.58502 0.30741 0.81363 0.0
H3487 H 0.56432 0.29607 0.80062 0.0
C3488 C 0.62452 0.31423 0.83376 0.0
C3489 C 0.638 0.31403 0.82698 0.0
C3490 C 0.61245 0.30658 0.82775 0.0
C3491 C 0.61347 0.29855 0.81474 0.0
C3492 C 0.62696 0.29832 0.80799 0.0
C3493 C 0.63904 0.30591 0.81403 0.0
C3494 C 0.58999 0.27102 0.79297 0.0
C3495 C 0.57629 0.27766 0.79264 0.0
C3496 C 0.60189 0.2775 0.80055 0.0
C3497 C 0.60046 0.29084 0.80794 0.0
C3498 C 0.58658 0.2971 0.80819 0.0
C3499 C 0.57466 0.29057 0.80068 0.0
H3500 H 0.74283 0.62033 0.82825 0.0
H3501 H 0.70722 0.61362 0.79687 0.0
H3502 H 0.7548 0.59905 0.8188 0.0
H3503 H 0.71895 0.59181 0.78784 0.0
H3504 H 0.7533 0.56124 0.76688 0.0
H3505 H 0.73975 0.58267 0.77462 0.0
H3506 H 0.7515 0.57324 0.81956 0.0
H3507 H 0.76513 0.55234 0.81187 0.0
C3508 C 0.73756 0.61438 0.81928 0.0
C3509 C 0.724 0.61874 0.8134 0.0
C3510 C 0.74434 0.60201 0.81397 0.0
C3511 C 0.73776 0.59354 0.80267 0.0
C3512 C 0.72436 0.59806 0.79652 0.0
C3513 C 0.71755 0.61049 0.80183 0.0
C3514 C 0.75276 0.56368 0.7784 0.0
C3515 C 0.76041 0.5552 0.78875 0.0
C3516 C 0.74504 0.57596 0.78285 0.0
C3517 C 0.7448 0.57989 0.79772 0.0
C3518 C 0.7518 0.57086 0.80801 0.0
C3519 C 0.75954 0.55876 0.80359 0.0
H3520 H 0.43531 0.6976 0.83834 0.0
H3521 H 0.40927 0.73451 0.82536 0.0
H3522 H 0.45678 0.70983 0.82958 0.0
H3523 H 0.43094 0.74723 0.81779 0.0
H3524 H 0.46808 0.75654 0.78709 0.0
H3525 H 0.44682 0.74707 0.79878 0.0
H3526 H 0.47437 0.72829 0.83274 0.0
H3527 H 0.4958 0.73722 0.82051 0.0
C3528 C 0.43413 0.70835 0.83371 0.0
C3529 C 0.42041 0.71492 0.83245 0.0
C3530 C 0.44657 0.71553 0.82892 0.0
C3531 C 0.44571 0.72958 0.82291 0.0
C3532 C 0.43207 0.73634 0.82211 0.0
C3533 C 0.4196 0.72908 0.82669 0.0
C3534 C 0.46964 0.75061 0.79719 0.0
C3535 C 0.48369 0.74754 0.80278 0.0
C3536 C 0.45737 0.74519 0.80398 0.0
C3537 C 0.45877 0.73672 0.81668 0.0
C3538 C 0.47283 0.73444 0.82278 0.0
C3539 C 0.48514 0.73971 0.81586 0.0
H3540 H 0.35698 0.44005 0.81498 0.0
H3541 H 0.32786 0.41025 0.79154 0.0
H3542 H 0.3488 0.45984 0.79923 0.0
H3543 H 0.31974 0.43001 0.7757 0.0
H3544 H 0.29735 0.47188 0.76094 0.0
H3545 H 0.30583 0.45194 0.77619 0.0
H3546 H 0.34982 0.46863 0.77448 0.0
H3547 H 0.3412 0.489 0.7597 0.0
C3548 C 0.34891 0.4377 0.80639 0.0
C3549 C 0.34306 0.42357 0.80454 0.0
C3550 C 0.34424 0.44905 0.79732 0.0
C3551 C 0.33363 0.44654 0.78615 0.0
C3552 C 0.32777 0.43239 0.78432 0.0
C3553 C 0.33242 0.42106 0.79341 0.0
C3554 C 0.30882 0.4714 0.76389 0.0
C3555 C 0.31856 0.48217 0.75917 0.0
C3556 C 0.31372 0.45983 0.77251 0.0
C3557 C 0.32852 0.45867 0.77661 0.0
C3558 C 0.33832 0.46929 0.77169 0.0
C3559 C 0.33341 0.48089 0.76306 0.0
H3560 H 0.72138 0.61131 0.17117 0.0
H3561 H 0.69939 0.60941 0.21194 0.0
H3562 H 0.73512 0.58984 0.178 0.0
H3563 H 0.71385 0.58849 0.21919 0.0
H3564 H 0.73118 0.54256 0.22202 0.0
H3565 H 0.71676 0.56338 0.21427 0.0
H3566 H 0.75427 0.58196 0.19386 0.0
H3567 H 0.76851 0.56087 0.20132 0.0
C3568 C 0.71943 0.60631 0.18159 0.0
C3569 C 0.70917 0.61209 0.19095 0.0
C3570 C 0.7275 0.5941 0.18561 0.0
C3571 C 0.72565 0.5874 0.19917 0.0
C3572 C 0.71544 0.59322 0.20857 0.0
C3573 C 0.70728 0.60537 0.2045 0.0
C3574 C 0.73632 0.55111 0.21589 0.0
C3575 C 0.75098 0.5501 0.2123 0.0
C3576 C 0.72808 0.56309 0.21149 0.0
C3577 C 0.73434 0.57444 0.2035 0.0
C3578 C 0.749 0.57334 0.1998 0.0
C3579 C 0.7572 0.56127 0.20408 0.0
H3580 H 0.74924 0.40536 0.81899 0.0
H3581 H 0.71881 0.43326 0.8399 0.0
H3582 H 0.76248 0.4268 0.81053 0.0
H3583 H 0.73206 0.4547 0.83145 0.0
H3584 H 0.75084 0.4884 0.79918 0.0
H3585 H 0.73741 0.46705 0.80756 0.0
H3586 H 0.77778 0.44739 0.82188 0.0
H3587 H 0.7912 0.46876 0.81347 0.0
C3588 C 0.74531 0.41607 0.82168 0.0
C3589 C 0.73296 0.4176 0.8301 0.0
C3590 C 0.75298 0.42835 0.81695 0.0
C3591 C 0.74835 0.44245 0.82035 0.0
C3592 C 0.73586 0.44399 0.82858 0.0
C3593 C 0.72832 0.43171 0.83349 0.0
C3594 C 0.75684 0.4795 0.80409 0.0
C3595 C 0.77209 0.48027 0.80566 0.0
C3596 C 0.74915 0.46733 0.80898 0.0
C3597 C 0.75653 0.45551 0.81536 0.0
C3598 C 0.77178 0.45627 0.81691 0.0
C3599 C 0.77946 0.46855 0.81222 0.0
H3600 H 0.62497 0.72011 0.80169 0.0
H3601 H 0.60763 0.67891 0.81575 0.0
H3602 H 0.60138 0.72619 0.79057 0.0
H3603 H 0.58424 0.68442 0.80389 0.0
H3604 H 0.54002 0.70474 0.79518 0.0
H3605 H 0.56365 0.69811 0.80566 0.0
H3606 H 0.5846 0.72215 0.77165 0.0
H3607 H 0.5608 0.72939 0.76179 0.0
C3608 C 0.6161 0.71228 0.8022 0.0
C3609 C 0.61805 0.6991 0.80962 0.0
C3610 C 0.60258 0.71568 0.79572 0.0
C3611 C 0.59075 0.70582 0.79625 0.0
C3612 C 0.5929 0.69247 0.80349 0.0
C3613 C 0.60633 0.68923 0.81023 0.0
C3614 C 0.5497 0.70844 0.78989 0.0
C3615 C 0.54861 0.71753 0.77766 0.0
C3616 C 0.56331 0.70462 0.79586 0.0
C3617 C 0.5762 0.70956 0.78958 0.0
C3618 C 0.57502 0.71837 0.77706 0.0
C3619 C 0.56139 0.72243 0.77128 0.0
H3620 H 0.30526 0.61434 0.82146 0.0
H3621 H 0.34371 0.61429 0.79583 0.0
H3622 H 0.29463 0.59481 0.80617 0.0
H3623 H 0.33342 0.59443 0.78108 0.0
H3624 H 0.30545 0.57281 0.7464 0.0
H3625 H 0.31419 0.592 0.76277 0.0
H3626 H 0.29674 0.56887 0.79923 0.0
H3627 H 0.2876 0.54955 0.78256 0.0
C3628 C 0.31147 0.61014 0.81261 0.0
C3629 C 0.32531 0.616 0.80981 0.0
C3630 C 0.30544 0.59883 0.80396 0.0
C3631 C 0.3131 0.59315 0.7923 0.0
C3632 C 0.32709 0.59873 0.7898 0.0
C3633 C 0.33309 0.61001 0.7984 0.0
C3634 C 0.30337 0.5718 0.7579 0.0
C3635 C 0.29597 0.55957 0.76321 0.0
C3636 C 0.30849 0.58279 0.76731 0.0
C3637 C 0.30648 0.58184 0.78236 0.0
C3638 C 0.29849 0.56991 0.78768 0.0
C3639 C 0.29325 0.55886 0.77816 0.0
H3640 H 0.42752 0.31318 0.81367 0.0
H3641 H 0.44576 0.35543 0.82479 0.0
H3642 H 0.44981 0.30679 0.80172 0.0
H3643 H 0.46778 0.34948 0.81223 0.0
H3644 H 0.51085 0.33018 0.79996 0.0
H3645 H 0.48895 0.33618 0.8127 0.0
H3646 H 0.46324 0.31074 0.78119 0.0
H3647 H 0.48537 0.30423 0.76899 0.0
C3648 C 0.43632 0.32112 0.81348 0.0
C3649 C 0.43495 0.33476 0.82022 0.0
C3650 C 0.44907 0.31753 0.80652 0.0
C3651 C 0.4607 0.32762 0.80586 0.0
C3652 C 0.45927 0.34128 0.81269 0.0
C3653 C 0.44661 0.34474 0.81987 0.0
C3654 C 0.50048 0.32599 0.79572 0.0
C3655 C 0.49979 0.31677 0.78347 0.0
C3656 C 0.48787 0.32945 0.803 0.0
C3657 C 0.47419 0.32397 0.79806 0.0
C3658 C 0.47354 0.31493 0.78559 0.0
C3659 C 0.4862 0.31128 0.77848 0.0
H3660 H 0.34395 0.42817 0.24657 0.0
H3661 H 0.31731 0.43269 0.20716 0.0
H3662 H 0.33266 0.44964 0.25682 0.0
H3663 H 0.30618 0.45417 0.21733 0.0
H3664 H 0.29799 0.49965 0.23369 0.0
H3665 H 0.31158 0.47931 0.22424 0.0
H3666 H 0.30931 0.45769 0.26578 0.0
H3667 H 0.29585 0.47815 0.27534 0.0
C3668 C 0.33564 0.43367 0.2401 0.0
C3669 C 0.33159 0.42863 0.22599 0.0
C3670 C 0.32918 0.44602 0.24598 0.0
C3671 C 0.31854 0.45372 0.2379 0.0
C3672 C 0.31453 0.44871 0.22379 0.0
C3673 C 0.32094 0.43635 0.21793 0.0
C3674 C 0.30054 0.49066 0.2409 0.0
C3675 C 0.29573 0.49055 0.25528 0.0
C3676 C 0.30824 0.47892 0.23542 0.0
C3677 C 0.3114 0.46674 0.24417 0.0
C3678 C 0.30715 0.4669 0.25875 0.0
C3679 C 0.2994 0.47865 0.26423 0.0
H3680 H 0.60038 0.30831 0.18637 0.0
H3681 H 0.62019 0.30058 0.22904 0.0
H3682 H 0.57937 0.29394 0.19281 0.0
H3683 H 0.59853 0.2876 0.23601 0.0
H3684 H 0.56385 0.25377 0.24196 0.0
H3685 H 0.58557 0.26623 0.23369 0.0
H3686 H 0.55854 0.29347 0.20581 0.0
H3687 H 0.53704 0.28016 0.21347 0.0
C3688 C 0.6003 0.3036 0.19715 0.0
C3689 C 0.61217 0.30561 0.20711 0.0
C3690 C 0.58804 0.29553 0.20096 0.0
C3691 C 0.58711 0.28951 0.21497 0.0
C3692 C 0.59887 0.29174 0.22501 0.0
C3693 C 0.61126 0.29952 0.22109 0.0
C3694 C 0.56269 0.26232 0.23392 0.0
C3695 C 0.54888 0.26602 0.22829 0.0
C3696 C 0.57509 0.2696 0.22928 0.0
C3697 C 0.57393 0.28107 0.21917 0.0
C3698 C 0.56 0.28458 0.2134 0.0
C3699 C 0.54764 0.27702 0.2178 0.0
H3700 H 0.41658 0.74334 0.18909 0.0
H3701 H 0.41655 0.70491 0.21607 0.0
H3702 H 0.43756 0.75302 0.20338 0.0
H3703 H 0.43771 0.71421 0.22976 0.0
H3704 H 0.46338 0.74001 0.26273 0.0
H3705 H 0.44244 0.73314 0.24737 0.0
H3706 H 0.4639 0.74967 0.20966 0.0
H3707 H 0.48505 0.75697 0.22539 0.0
C3708 C 0.42104 0.73693 0.19802 0.0
C3709 C 0.41476 0.72333 0.20143 0.0
C3710 C 0.43317 0.74242 0.2061 0.0
C3711 C 0.43926 0.7345 0.21784 0.0
C3712 C 0.43317 0.72078 0.22099 0.0
C3713 C 0.4211 0.71532 0.21296 0.0
C3714 C 0.46364 0.74232 0.25117 0.0
C3715 C 0.47596 0.74886 0.24524 0.0
C3716 C 0.45163 0.73827 0.24233 0.0
C3717 C 0.45159 0.74047 0.22719 0.0
C3718 C 0.46359 0.74777 0.22128 0.0
C3719 C 0.47569 0.75197 0.23025 0.0
loop_
_geom_bond_atom_site_label_1
_geom_bond_atom_site_label_2
_geom_bond_distance
_geom_bond_site_symmetry_2
_ccdc_geom_bond_type
C0 C1 1.386 . S
C0 C2 1.397 . S
C0 H24 0.931 . S
C1 C0 1.386 . S
C1 C5 1.397 . S
C2 C0 1.397 . S
C2 C3 1.384 . S
C2 H25 0.930 . S
C3 C2 1.384 . S
C3 C4 1.377 . S
C3 C6 1.481 . S
C4 C3 1.377 . S
C4 C5 1.389 . S
C4 H26 0.929 . S
C5 C1 1.397 . S
C5 C4 1.389 . S
C5 H27 0.931 . S
C6 C3 1.481 . S
C6 C7 1.387 . S
C6 C11 1.390 . S
C7 C6 1.387 . S
C7 C8 1.401 . S
C7 H28 0.930 . S
C8 C7 1.401 . S
C8 C9 1.376 . S
C8 C17 1.511 . S
C9 C8 1.376 . S
C9 C10 1.392 . S
C9 H30 0.931 . S
C10 C9 1.392 . S
C10 C11 1.361 . S
C10 C12 1.500 . S
C11 C6 1.390 . S
C11 C10 1.361 . S
C11 H29 0.931 . S
C12 C10 1.500 . S
C12 C13 1.371 . S
C12 C14 1.365 . S
C13 C12 1.371 . S
C13 C23 1.386 . S
C13 H31 0.931 . S
C14 C12 1.365 . S
C14 C15 1.409 . S
C14 H32 0.929 . S
C15 C14 1.409 . S
C15 C16 1.380 . S
C15 H33 0.930 . S
C16 C15 1.380 . S
C16 C23 1.357 . S
C17 C8 1.511 . S
C17 C18 1.341 . S
C17 C19 1.371 . S
C18 C17 1.341 . S
C18 C22 1.394 . S
C18 H34 0.930 . S
C19 C17 1.371 . S
C19 C20 1.392 . S
C19 H35 0.931 . S
C20 C19 1.392 . S
C20 C21 1.331 . S
C20 H38 0.932 . S
C21 C20 1.331 . S
C21 C22 1.336 . S
C22 C18 1.394 . S
C22 C21 1.336 . S
C22 H37 0.929 . S
C23 C13 1.386 . S
C23 C16 1.357 . S
C23 H36 0.928 . S
H24 C0 0.931 . S
H25 C2 0.930 . S
H26 C4 0.929 . S
H27 C5 0.931 . S
H28 C7 0.930 . S
H29 C11 0.931 . S
H30 C9 0.931 . S
H31 C13 0.931 . S
H32 C14 0.929 . S
H33 C15 0.930 . S
H34 C18 0.930 . S
H35 C19 0.931 . S
H36 C23 0.928 . S
H37 C22 0.929 . S
H38 C20 0.932 . S
C39 C40 1.386 . S
C39 C41 1.397 . S
C39 H63 0.931 . S
C40 C39 1.386 . S
C40 C44 1.397 . S
C41 C39 1.397 . S
C41 C42 1.384 . S
C41 H64 0.930 . S
C42 C41 1.384 . S
C42 C43 1.377 . S
C42 C45 1.481 . S
C43 C42 1.377 . S
C43 C44 1.389 . S
C43 H65 0.929 . S
C44 C40 1.397 . S
C44 C43 1.389 . S
C44 H66 0.931 . S
C45 C42 1.481 . S
C45 C46 1.387 . S
C45 C50 1.390 . S
C46 C45 1.387 . S
C46 C47 1.401 . S
C46 H67 0.930 . S
C47 C46 1.401 . S
C47 C48 1.376 . S
C47 C56 1.511 . S
C48 C47 1.376 . S
C48 C49 1.392 . S
C48 H69 0.931 . S
C49 C48 1.392 . S
C49 C50 1.361 . S
C49 C51 1.500 . S
C50 C45 1.390 . S
C50 C49 1.361 . S
C50 H68 0.931 . S
C51 C49 1.500 . S
C51 C52 1.371 . S
C51 C53 1.365 . S
C52 C51 1.371 . S
C52 C62 1.386 . S
C52 H70 0.931 . S
C53 C51 1.365 . S
C53 C54 1.409 . S
C53 H71 0.929 . S
C54 C53 1.409 . S
C54 C55 1.380 . S
C54 H72 0.930 . S
C55 C54 1.380 . S
C55 C62 1.357 . S
C56 C47 1.511 . S
C56 C57 1.341 . S
C56 C58 1.371 . S
C57 C56 1.341 . S
C57 C61 1.394 . S
C57 H73 0.930 . S
C58 C56 1.371 . S
C58 C59 1.392 . S
C58 H74 0.931 . S
C59 C58 1.392 . S
C59 C60 1.331 . S
C59 H77 0.932 . S
C60 C59 1.331 . S
C60 C61 1.336 . S
C61 C57 1.394 . S
C61 C60 1.336 . S
C61 H76 0.929 . S
C62 C52 1.386 . S
C62 C55 1.357 . S
C62 H75 0.928 . S
H63 C39 0.931 . S
H64 C41 0.930 . S
H65 C43 0.929 . S
H66 C44 0.931 . S
H67 C46 0.930 . S
H68 C50 0.931 . S
H69 C48 0.931 . S
H70 C52 0.931 . S
H71 C53 0.929 . S
H72 C54 0.930 . S
H73 C57 0.930 . S
H74 C58 0.931 . S
H75 C62 0.928 . S
H76 C61 0.929 . S
H77 C59 0.932 . S
C78 C79 1.386 . S
C78 C80 1.397 . S
C78 H102 0.931 . S
C79 C78 1.386 . S
C79 C83 1.397 . S
C80 C78 1.397 . S
C80 C81 1.384 . S
C80 H103 0.930 . S
C81 C80 1.384 . S
C81 C82 1.377 . S
C81 C84 1.481 . S
C82 C81 1.377 . S
C82 C83 1.389 . S
C82 H104 0.929 . S
C83 C79 1.397 . S
C83 C82 1.389 . S
C83 H105 0.931 . S
C84 C81 1.481 . S
C84 C85 1.387 . S
C84 C89 1.390 . S
C85 C84 1.387 . S
C85 C86 1.401 . S
C85 H106 0.930 . S
C86 C85 1.401 . S
C86 C87 1.376 . S
C86 C95 1.511 . S
C87 C86 1.376 . S
C87 C88 1.392 . S
C87 H108 0.931 . S
C88 C87 1.392 . S
C88 C89 1.361 . S
C88 C90 1.500 . S
C89 C84 1.390 . S
C89 C88 1.361 . S
C89 H107 0.931 . S
C90 C88 1.500 . S
C90 C91 1.371 . S
C90 C92 1.365 . S
C91 C90 1.371 . S
C91 C101 1.386 . S
C91 H109 0.931 . S
C92 C90 1.365 . S
C92 C93 1.409 . S
C92 H110 0.929 . S
C93 C92 1.409 . S
C93 C94 1.380 . S
C93 H111 0.930 . S
C94 C93 1.380 . S
C94 C101 1.357 . S
C95 C86 1.511 . S
C95 C96 1.341 . S
C95 C97 1.371 . S
C96 C95 1.341 . S
C96 C100 1.394 . S
C96 H112 0.930 . S
C97 C95 1.371 . S
C97 C98 1.392 . S
C97 H113 0.931 . S
C98 C97 1.392 . S
C98 C99 1.331 . S
C98 H116 0.932 . S
C99 C98 1.331 . S
C99 C100 1.336 . S
C100 C96 1.394 . S
C100 C99 1.336 . S
C100 H115 0.929 . S
C101 C91 1.386 . S
C101 C94 1.357 . S
C101 H114 0.928 . S
H102 C78 0.931 . S
H103 C80 0.930 . S
H104 C82 0.929 . S
H105 C83 0.931 . S
H106 C85 0.930 . S
H107 C89 0.931 . S
H108 C87 0.931 . S
H109 C91 0.931 . S
H110 C92 0.929 . S
H111 C93 0.930 . S
H112 C96 0.930 . S
H113 C97 0.931 . S
H114 C101 0.928 . S
H115 C100 0.929 . S
H116 C98 0.932 . S
C117 C118 1.386 . S
C117 C119 1.397 . S
C117 H141 0.931 . S
C118 C117 1.386 . S
C118 C122 1.397 . S
C119 C117 1.397 . S
C119 C120 1.384 . S
C119 H142 0.930 . S
C120 C119 1.384 . S
C120 C121 1.377 . S
C120 C123 1.481 . S
C121 C120 1.377 . S
C121 C122 1.389 . S
C121 H143 0.929 . S
C122 C118 1.397 . S
C122 C121 1.389 . S
C122 H144 0.931 . S
C123 C120 1.481 . S
C123 C124 1.387 . S
C123 C128 1.390 . S
C124 C123 1.387 . S
C124 C125 1.401 . S
C124 H145 0.930 . S
C125 C124 1.401 . S
C125 C126 1.376 . S
C125 C134 1.511 . S
C126 C125 1.376 . S
C126 C127 1.392 . S
C126 H147 0.931 . S
C127 C126 1.392 . S
C127 C128 1.361 . S
C127 C129 1.500 . S
C128 C123 1.390 . S
C128 C127 1.361 . S
C128 H146 0.931 . S
C129 C127 1.500 . S
C129 C130 1.371 . S
C129 C131 1.365 . S
C130 C129 1.371 . S
C130 C140 1.386 . S
C130 H148 0.931 . S
C131 C129 1.365 . S
C131 C132 1.409 . S
C131 H149 0.929 . S
C132 C131 1.409 . S
C132 C133 1.380 . S
C132 H150 0.930 . S
C133 C132 1.380 . S
C133 C140 1.357 . S
C134 C125 1.511 . S
C134 C135 1.341 . S
C134 C136 1.371 . S
C135 C134 1.341 . S
C135 C139 1.394 . S
C135 H151 0.930 . S
C136 C134 1.371 . S
C136 C137 1.392 . S
C136 H152 0.931 . S
C137 C136 1.392 . S
C137 C138 1.331 . S
C137 H155 0.932 . S
C138 C137 1.331 . S
C138 C139 1.336 . S
C139 C135 1.394 . S
C139 C138 1.336 . S
C139 H154 0.929 . S
C140 C130 1.386 . S
C140 C133 1.357 . S
C140 H153 0.928 . S
H141 C117 0.931 . S
H142 C119 0.930 . S
H143 C121 0.929 . S
H144 C122 0.931 . S
H145 C124 0.930 . S
H146 C128 0.931 . S
H147 C126 0.931 . S
H148 C130 0.931 . S
H149 C131 0.929 . S
H150 C132 0.930 . S
H151 C135 0.930 . S
H152 C136 0.931 . S
H153 C140 0.928 . S
H154 C139 0.929 . S
H155 C137 0.932 . S
C156 C157 1.386 . S
C156 C158 1.397 . S
C156 H180 0.931 . S
C157 C156 1.386 . S
C157 C161 1.397 . S
C158 C156 1.397 . S
C158 C159 1.384 . S
C158 H181 0.930 . S
C159 C158 1.384 . S
C159 C160 1.377 . S
C159 C162 1.481 . S
C160 C159 1.377 . S
C160 C161 1.389 . S
C160 H182 0.929 . S
C161 C157 1.397 . S
C161 C160 1.389 . S
C161 H183 0.931 . S
C162 C159 1.481 . S
C162 C163 1.387 . S
C162 C167 1.390 . S
C163 C162 1.387 . S
C163 C164 1.401 . S
C163 H184 0.930 . S
C164 C163 1.401 . S
C164 C165 1.376 . S
C164 C173 1.511 . S
C165 C164 1.376 . S
C165 C166 1.392 . S
C165 H186 0.931 . S
C166 C165 1.392 . S
C166 C167 1.361 . S
C166 C168 1.500 . S
C167 C162 1.390 . S
C167 C166 1.361 . S
C167 H185 0.931 . S
C168 C166 1.500 . S
C168 C169 1.371 . S
C168 C170 1.365 . S
C169 C168 1.371 . S
C169 C179 1.386 . S
C169 H187 0.931 . S
C170 C168 1.365 . S
C170 C171 1.409 . S
C170 H188 0.929 . S
C171 C170 1.409 . S
C171 C172 1.380 . S
C171 H189 0.930 . S
C172 C171 1.380 . S
C172 C179 1.357 . S
C173 C164 1.511 . S
C173 C174 1.341 . S
C173 C175 1.371 . S
C174 C173 1.341 . S
C174 C178 1.394 . S
C174 H190 0.930 . S
C175 C173 1.371 . S
C175 C176 1.392 . S
C175 H191 0.931 . S
C176 C175 1.392 . S
C176 C177 1.331 . S
C176 H194 0.932 . S
C177 C176 1.331 . S
C177 C178 1.336 . S
C178 C174 1.394 . S
C178 C177 1.336 . S
C178 H193 0.929 . S
C179 C169 1.386 . S
C179 C172 1.357 . S
C179 H192 0.928 . S
H180 C156 0.931 . S
H181 C158 0.930 . S
H182 C160 0.929 . S
H183 C161 0.931 . S
H184 C163 0.930 . S
H185 C167 0.931 . S
H186 C165 0.931 . S
H187 C169 0.931 . S
H188 C170 0.929 . S
H189 C171 0.930 . S
H190 C174 0.930 . S
H191 C175 0.931 . S
H192 C179 0.928 . S
H193 C178 0.929 . S
H194 C176 0.932 . S
C195 C196 1.386 . S
C195 C197 1.397 . S
C195 H219 0.931 . S
C196 C195 1.386 . S
C196 C200 1.397 . S
C197 C195 1.397 . S
C197 C198 1.384 . S
C197 H220 0.930 . S
C198 C197 1.384 . S
C198 C199 1.377 . S
C198 C201 1.481 . S
C199 C198 1.377 . S
C199 C200 1.389 . S
C199 H221 0.929 . S
C200 C196 1.397 . S
C200 C199 1.389 . S
C200 H222 0.931 . S
C201 C198 1.481 . S
C201 C202 1.387 . S
C201 C206 1.390 . S
C202 C201 1.387 . S
C202 C203 1.401 . S
C202 H223 0.930 . S
C203 C202 1.401 . S
C203 C204 1.376 . S
C203 C212 1.511 . S
C204 C203 1.376 . S
C204 C205 1.392 . S
C204 H225 0.931 . S
C205 C204 1.392 . S
C205 C206 1.361 . S
C205 C207 1.500 . S
C206 C201 1.390 . S
C206 C205 1.361 . S
C206 H224 0.931 . S
C207 C205 1.500 . S
C207 C208 1.371 . S
C207 C209 1.365 . S
C208 C207 1.371 . S
C208 C218 1.386 . S
C208 H226 0.931 . S
C209 C207 1.365 . S
C209 C210 1.409 . S
C209 H227 0.929 . S
C210 C209 1.409 . S
C210 C211 1.380 . S
C210 H228 0.930 . S
C211 C210 1.380 . S
C211 C218 1.357 . S
C212 C203 1.511 . S
C212 C213 1.341 . S
C212 C214 1.371 . S
C213 C212 1.341 . S
C213 C217 1.394 . S
C213 H229 0.930 . S
C214 C212 1.371 . S
C214 C215 1.392 . S
C214 H230 0.931 . S
C215 C214 1.392 . S
C215 C216 1.331 . S
C215 H233 0.932 . S
C216 C215 1.331 . S
C216 C217 1.336 . S
C217 C213 1.394 . S
C217 C216 1.336 . S
C217 H232 0.929 . S
C218 C208 1.386 . S
C218 C211 1.357 . S
C218 H231 0.928 . S
H219 C195 0.931 . S
H220 C197 0.930 . S
H221 C199 0.929 . S
H222 C200 0.931 . S
H223 C202 0.930 . S
H224 C206 0.931 . S
H225 C204 0.931 . S
H226 C208 0.931 . S
H227 C209 0.929 . S
H228 C210 0.930 . S
H229 C213 0.930 . S
H230 C214 0.931 . S
H231 C218 0.928 . S
H232 C217 0.929 . S
H233 C215 0.932 . S
C234 C235 1.386 . S
C234 C236 1.397 . S
C234 H258 0.931 . S
C235 C234 1.386 . S
C235 C239 1.397 . S
C236 C234 1.397 . S
C236 C237 1.384 . S
C236 H259 0.930 . S
C237 C236 1.384 . S
C237 C238 1.377 . S
C237 C240 1.481 . S
C238 C237 1.377 . S
C238 C239 1.389 . S
C238 H260 0.929 . S
C239 C235 1.397 . S
C239 C238 1.389 . S
C239 H261 0.931 . S
C240 C237 1.481 . S
C240 C241 1.387 . S
C240 C245 1.390 . S
C241 C240 1.387 . S
C241 C242 1.401 . S
C241 H262 0.930 . S
C242 C241 1.401 . S
C242 C243 1.376 . S
C242 C251 1.511 . S
C243 C242 1.376 . S
C243 C244 1.392 . S
C243 H264 0.931 . S
C244 C243 1.392 . S
C244 C245 1.361 . S
C244 C246 1.500 . S
C245 C240 1.390 . S
C245 C244 1.361 . S
C245 H263 0.931 . S
C246 C244 1.500 . S
C246 C247 1.371 . S
C246 C248 1.365 . S
C247 C246 1.371 . S
C247 C257 1.386 . S
C247 H265 0.931 . S
C248 C246 1.365 . S
C248 C249 1.409 . S
C248 H266 0.929 . S
C249 C248 1.409 . S
C249 C250 1.380 . S
C249 H267 0.930 . S
C250 C249 1.380 . S
C250 C257 1.357 . S
C251 C242 1.511 . S
C251 C252 1.341 . S
C251 C253 1.371 . S
C252 C251 1.341 . S
C252 C256 1.394 . S
C252 H268 0.930 . S
C253 C251 1.371 . S
C253 C254 1.392 . S
C253 H269 0.931 . S
C254 C253 1.392 . S
C254 C255 1.331 . S
C254 H272 0.932 . S
C255 C254 1.331 . S
C255 C256 1.336 . S
C256 C252 1.394 . S
C256 C255 1.336 . S
C256 H271 0.929 . S
C257 C247 1.386 . S
C257 C250 1.357 . S
C257 H270 0.928 . S
H258 C234 0.931 . S
H259 C236 0.930 . S
H260 C238 0.929 . S
H261 C239 0.931 . S
H262 C241 0.930 . S
H263 C245 0.931 . S
H264 C243 0.931 . S
H265 C247 0.931 . S
H266 C248 0.929 . S
H267 C249 0.930 . S
H268 C252 0.930 . S
H269 C253 0.931 . S
H270 C257 0.928 . S
H271 C256 0.929 . S
H272 C254 0.932 . S
C273 C274 1.386 . S
C273 C275 1.397 . S
C273 H297 0.931 . S
C274 C273 1.386 . S
C274 C278 1.397 . S
C275 C273 1.397 . S
C275 C276 1.384 . S
C275 H298 0.930 . S
C276 C275 1.384 . S
C276 C277 1.377 . S
C276 C279 1.481 . S
C277 C276 1.377 . S
C277 C278 1.389 . S
C277 H299 0.929 . S
C278 C274 1.397 . S
C278 C277 1.389 . S
C278 H300 0.931 . S
C279 C276 1.481 . S
C279 C280 1.387 . S
C279 C284 1.390 . S
C280 C279 1.387 . S
C280 C281 1.401 . S
C280 H301 0.930 . S
C281 C280 1.401 . S
C281 C282 1.376 . S
C281 C290 1.511 . S
C282 C281 1.376 . S
C282 C283 1.392 . S
C282 H303 0.931 . S
C283 C282 1.392 . S
C283 C284 1.361 . S
C283 C285 1.500 . S
C284 C279 1.390 . S
C284 C283 1.361 . S
C284 H302 0.931 . S
C285 C283 1.500 . S
C285 C286 1.371 . S
C285 C287 1.365 . S
C286 C285 1.371 . S
C286 C296 1.386 . S
C286 H304 0.931 . S
C287 C285 1.365 . S
C287 C288 1.409 . S
C287 H305 0.929 . S
C288 C287 1.409 . S
C288 C289 1.380 . S
C288 H306 0.930 . S
C289 C288 1.380 . S
C289 C296 1.357 . S
C290 C281 1.511 . S
C290 C291 1.341 . S
C290 C292 1.371 . S
C291 C290 1.341 . S
C291 C295 1.394 . S
C291 H307 0.930 . S
C292 C290 1.371 . S
C292 C293 1.392 . S
C292 H308 0.931 . S
C293 C292 1.392 . S
C293 C294 1.331 . S
C293 H311 0.932 . S
C294 C293 1.331 . S
C294 C295 1.336 . S
C295 C291 1.394 . S
C295 C294 1.336 . S
C295 H310 0.929 . S
C296 C286 1.386 . S
C296 C289 1.357 . S
C296 H309 0.928 . S
H297 C273 0.931 . S
H298 C275 0.930 . S
H299 C277 0.929 . S
H300 C278 0.931 . S
H301 C280 0.930 . S
H302 C284 0.931 . S
H303 C282 0.931 . S
H304 C286 0.931 . S
H305 C287 0.929 . S
H306 C288 0.930 . S
H307 C291 0.930 . S
H308 C292 0.931 . S
H309 C296 0.928 . S
H310 C295 0.929 . S
H311 C293 0.932 . S
C312 C313 1.386 . S
C312 C314 1.397 . S
C312 H336 0.931 . S
C313 C312 1.386 . S
C313 C317 1.397 . S
C314 C312 1.397 . S
C314 C315 1.384 . S
C314 H337 0.930 . S
C315 C314 1.384 . S
C315 C316 1.377 . S
C315 C318 1.481 . S
C316 C315 1.377 . S
C316 C317 1.389 . S
C316 H338 0.929 . S
C317 C313 1.397 . S
C317 C316 1.389 . S
C317 H339 0.931 . S
C318 C315 1.481 . S
C318 C319 1.387 . S
C318 C323 1.390 . S
C319 C318 1.387 . S
C319 C320 1.401 . S
C319 H340 0.930 . S
C320 C319 1.401 . S
C320 C321 1.376 . S
C320 C329 1.511 . S
C321 C320 1.376 . S
C321 C322 1.392 . S
C321 H342 0.931 . S
C322 C321 1.392 . S
C322 C323 1.361 . S
C322 C324 1.500 . S
C323 C318 1.390 . S
C323 C322 1.361 . S
C323 H341 0.931 . S
C324 C322 1.500 . S
C324 C325 1.371 . S
C324 C326 1.365 . S
C325 C324 1.371 . S
C325 C335 1.386 . S
C325 H343 0.931 . S
C326 C324 1.365 . S
C326 C327 1.409 . S
C326 H344 0.929 . S
C327 C326 1.409 . S
C327 C328 1.380 . S
C327 H345 0.930 . S
C328 C327 1.380 . S
C328 C335 1.357 . S
C329 C320 1.511 . S
C329 C330 1.341 . S
C329 C331 1.371 . S
C330 C329 1.341 . S
C330 C334 1.394 . S
C330 H346 0.930 . S
C331 C329 1.371 . S
C331 C332 1.392 . S
C331 H347 0.931 . S
C332 C331 1.392 . S
C332 C333 1.331 . S
C332 H350 0.932 . S
C333 C332 1.331 . S
C333 C334 1.336 . S
C334 C330 1.394 . S
C334 C333 1.336 . S
C334 H349 0.929 . S
C335 C325 1.386 . S
C335 C328 1.357 . S
C335 H348 0.928 . S
H336 C312 0.931 . S
H337 C314 0.930 . S
H338 C316 0.929 . S
H339 C317 0.931 . S
H340 C319 0.930 . S
H341 C323 0.931 . S
H342 C321 0.931 . S
H343 C325 0.931 . S
H344 C326 0.929 . S
H345 C327 0.930 . S
H346 C330 0.930 . S
H347 C331 0.931 . S
H348 C335 0.928 . S
H349 C334 0.929 . S
H350 C332 0.932 . S
C351 C352 1.386 . S
C351 C353 1.397 . S
C351 H375 0.931 . S
C352 C351 1.386 . S
C352 C356 1.397 . S
C353 C351 1.397 . S
C353 C354 1.384 . S
C353 H376 0.930 . S
C354 C353 1.384 . S
C354 C355 1.377 . S
C354 C357 1.481 . S
C355 C354 1.377 . S
C355 C356 1.389 . S
C355 H377 0.929 . S
C356 C352 1.397 . S
C356 C355 1.389 . S
C356 H378 0.931 . S
C357 C354 1.481 . S
C357 C358 1.387 . S
C357 C362 1.390 . S
C358 C357 1.387 . S
C358 C359 1.401 . S
C358 H379 0.930 . S
C359 C358 1.401 . S
C359 C360 1.376 . S
C359 C368 1.511 . S
C360 C359 1.376 . S
C360 C361 1.392 . S
C360 H381 0.931 . S
C361 C360 1.392 . S
C361 C362 1.361 . S
C361 C363 1.500 . S
C362 C357 1.390 . S
C362 C361 1.361 . S
C362 H380 0.931 . S
C363 C361 1.500 . S
C363 C364 1.371 . S
C363 C365 1.365 . S
C364 C363 1.371 . S
C364 C374 1.386 . S
C364 H382 0.931 . S
C365 C363 1.365 . S
C365 C366 1.409 . S
C365 H383 0.929 . S
C366 C365 1.409 . S
C366 C367 1.380 . S
C366 H384 0.930 . S
C367 C366 1.380 . S
C367 C374 1.357 . S
C368 C359 1.511 . S
C368 C369 1.341 . S
C368 C370 1.371 . S
C369 C368 1.341 . S
C369 C373 1.394 . S
C369 H385 0.930 . S
C370 C368 1.371 . S
C370 C371 1.392 . S
C370 H386 0.931 . S
C371 C370 1.392 . S
C371 C372 1.331 . S
C371 H389 0.932 . S
C372 C371 1.331 . S
C372 C373 1.336 . S
C373 C369 1.394 . S
C373 C372 1.336 . S
C373 H388 0.929 . S
C374 C364 1.386 . S
C374 C367 1.357 . S
C374 H387 0.928 . S
H375 C351 0.931 . S
H376 C353 0.930 . S
H377 C355 0.929 . S
H378 C356 0.931 . S
H379 C358 0.930 . S
H380 C362 0.931 . S
H381 C360 0.931 . S
H382 C364 0.931 . S
H383 C365 0.929 . S
H384 C366 0.930 . S
H385 C369 0.930 . S
H386 C370 0.931 . S
H387 C374 0.928 . S
H388 C373 0.929 . S
H389 C371 0.932 . S
C390 C391 1.386 . S
C390 C392 1.397 . S
C390 H414 0.931 . S
C391 C390 1.386 . S
C391 C395 1.397 . S
C392 C390 1.397 . S
C392 C393 1.384 . S
C392 H415 0.930 . S
C393 C392 1.384 . S
C393 C394 1.377 . S
C393 C396 1.481 . S
C394 C393 1.377 . S
C394 C395 1.389 . S
C394 H416 0.929 . S
C395 C391 1.397 . S
C395 C394 1.389 . S
C395 H417 0.931 . S
C396 C393 1.481 . S
C396 C397 1.387 . S
C396 C401 1.390 . S
C397 C396 1.387 . S
C397 C398 1.401 . S
C397 H418 0.930 . S
C398 C397 1.401 . S
C398 C399 1.376 . S
C398 C407 1.511 . S
C399 C398 1.376 . S
C399 C400 1.392 . S
C399 H420 0.931 . S
C400 C399 1.392 . S
C400 C401 1.361 . S
C400 C402 1.500 . S
C401 C396 1.390 . S
C401 C400 1.361 . S
C401 H419 0.931 . S
C402 C400 1.500 . S
C402 C403 1.371 . S
C402 C404 1.365 . S
C403 C402 1.371 . S
C403 C413 1.386 . S
C403 H421 0.931 . S
C404 C402 1.365 . S
C404 C405 1.409 . S
C404 H422 0.929 . S
C405 C404 1.409 . S
C405 C406 1.380 . S
C405 H423 0.930 . S
C406 C405 1.380 . S
C406 C413 1.357 . S
C407 C398 1.511 . S
C407 C408 1.341 . S
C407 C409 1.371 . S
C408 C407 1.341 . S
C408 C412 1.394 . S
C408 H424 0.930 . S
C409 C407 1.371 . S
C409 C410 1.392 . S
C409 H425 0.931 . S
C410 C409 1.392 . S
C410 C411 1.331 . S
C410 H428 0.932 . S
C411 C410 1.331 . S
C411 C412 1.336 . S
C412 C408 1.394 . S
C412 C411 1.336 . S
C412 H427 0.929 . S
C413 C403 1.386 . S
C413 C406 1.357 . S
C413 H426 0.928 . S
H414 C390 0.931 . S
H415 C392 0.930 . S
H416 C394 0.929 . S
H417 C395 0.931 . S
H418 C397 0.930 . S
H419 C401 0.931 . S
H420 C399 0.931 . S
H421 C403 0.931 . S
H422 C404 0.929 . S
H423 C405 0.930 . S
H424 C408 0.930 . S
H425 C409 0.931 . S
H426 C413 0.928 . S
H427 C412 0.929 . S
H428 C410 0.932 . S
C429 C430 1.386 . S
C429 C431 1.397 . S
C429 H453 0.931 . S
C430 C429 1.386 . S
C430 C434 1.397 . S
C431 C429 1.397 . S
C431 C432 1.384 . S
C431 H454 0.930 . S
C432 C431 1.384 . S
C432 C433 1.377 . S
C432 C435 1.481 . S
C433 C432 1.377 . S
C433 C434 1.389 . S
C433 H455 0.929 . S
C434 C430 1.397 . S
C434 C433 1.389 . S
C434 H456 0.931 . S
C435 C432 1.481 . S
C435 C436 1.387 . S
C435 C440 1.390 . S
C436 C435 1.387 . S
C436 C437 1.401 . S
C436 H457 0.930 . S
C437 C436 1.401 . S
C437 C438 1.376 . S
C437 C446 1.511 . S
C438 C437 1.376 . S
C438 C439 1.392 . S
C438 H459 0.931 . S
C439 C438 1.392 . S
C439 C440 1.361 . S
C439 C441 1.500 . S
C440 C435 1.390 . S
C440 C439 1.361 . S
C440 H458 0.931 . S
C441 C439 1.500 . S
C441 C442 1.371 . S
C441 C443 1.365 . S
C442 C441 1.371 . S
C442 C452 1.386 . S
C442 H460 0.931 . S
C443 C441 1.365 . S
C443 C444 1.409 . S
C443 H461 0.929 . S
C444 C443 1.409 . S
C444 C445 1.380 . S
C444 H462 0.930 . S
C445 C444 1.380 . S
C445 C452 1.357 . S
C446 C437 1.511 . S
C446 C447 1.341 . S
C446 C448 1.371 . S
C447 C446 1.341 . S
C447 C451 1.394 . S
C447 H463 0.930 . S
C448 C446 1.371 . S
C448 C449 1.392 . S
C448 H464 0.931 . S
C449 C448 1.392 . S
C449 C450 1.331 . S
C449 H467 0.932 . S
C450 C449 1.331 . S
C450 C451 1.336 . S
C451 C447 1.394 . S
C451 C450 1.336 . S
C451 H466 0.929 . S
C452 C442 1.386 . S
C452 C445 1.357 . S
C452 H465 0.928 . S
H453 C429 0.931 . S
H454 C431 0.930 . S
H455 C433 0.929 . S
H456 C434 0.931 . S
H457 C436 0.930 . S
H458 C440 0.931 . S
H459 C438 0.931 . S
H460 C442 0.931 . S
H461 C443 0.929 . S
H462 C444 0.930 . S
H463 C447 0.930 . S
H464 C448 0.931 . S
H465 C452 0.928 . S
H466 C451 0.929 . S
H467 C449 0.932 . S
C468 C469 1.386 . S
C468 C470 1.397 . S
C468 H492 0.931 . S
C469 C468 1.386 . S
C469 C473 1.397 . S
C470 C468 1.397 . S
C470 C471 1.384 . S
C470 H493 0.930 . S
C471 C470 1.384 . S
C471 C472 1.377 . S
C471 C474 1.481 . S
C472 C471 1.377 . S
C472 C473 1.389 . S
C472 H494 0.929 . S
C473 C469 1.397 . S
C473 C472 1.389 . S
C473 H495 0.931 . S
C474 C471 1.481 . S
C474 C475 1.387 . S
C474 C479 1.390 . S
C475 C474 1.387 . S
C475 C476 1.401 . S
C475 H496 0.930 . S
C476 C475 1.401 . S
C476 C477 1.376 . S
C476 C485 1.511 . S
C477 C476 1.376 . S
C477 C478 1.392 . S
C477 H498 0.931 . S
C478 C477 1.392 . S
C478 C479 1.361 . S
C478 C480 1.500 . S
C479 C474 1.390 . S
C479 C478 1.361 . S
C479 H497 0.931 . S
C480 C478 1.500 . S
C480 C481 1.371 . S
C480 C482 1.365 . S
C481 C480 1.371 . S
C481 C491 1.386 . S
C481 H499 0.931 . S
C482 C480 1.365 . S
C482 C483 1.409 . S
C482 H500 0.929 . S
C483 C482 1.409 . S
C483 C484 1.380 . S
C483 H501 0.930 . S
C484 C483 1.380 . S
C484 C491 1.357 . S
C485 C476 1.511 . S
C485 C486 1.341 . S
C485 C487 1.371 . S
C486 C485 1.341 . S
C486 C490 1.394 . S
C486 H502 0.930 . S
C487 C485 1.371 . S
C487 C488 1.392 . S
C487 H503 0.931 . S
C488 C487 1.392 . S
C488 C489 1.331 . S
C488 H506 0.932 . S
C489 C488 1.331 . S
C489 C490 1.336 . S
C490 C486 1.394 . S
C490 C489 1.336 . S
C490 H505 0.929 . S
C491 C481 1.386 . S
C491 C484 1.357 . S
C491 H504 0.928 . S
H492 C468 0.931 . S
H493 C470 0.930 . S
H494 C472 0.929 . S
H495 C473 0.931 . S
H496 C475 0.930 . S
H497 C479 0.931 . S
H498 C477 0.931 . S
H499 C481 0.931 . S
H500 C482 0.929 . S
H501 C483 0.930 . S
H502 C486 0.930 . S
H503 C487 0.931 . S
H504 C491 0.928 . S
H505 C490 0.929 . S
H506 C488 0.932 . S
C507 C508 1.386 . S
C507 C509 1.397 . S
C507 H531 0.931 . S
C508 C507 1.386 . S
C508 C512 1.397 . S
C509 C507 1.397 . S
C509 C510 1.384 . S
C509 H532 0.930 . S
C510 C509 1.384 . S
C510 C511 1.377 . S
C510 C513 1.481 . S
C511 C510 1.377 . S
C511 C512 1.389 . S
C511 H533 0.929 . S
C512 C508 1.397 . S
C512 C511 1.389 . S
C512 H534 0.931 . S
C513 C510 1.481 . S
C513 C514 1.387 . S
C513 C518 1.390 . S
C514 C513 1.387 . S
C514 C515 1.401 . S
C514 H535 0.930 . S
C515 C514 1.401 . S
C515 C516 1.376 . S
C515 C524 1.511 . S
C516 C515 1.376 . S
C516 C517 1.392 . S
C516 H537 0.931 . S
C517 C516 1.392 . S
C517 C518 1.361 . S
C517 C519 1.500 . S
C518 C513 1.390 . S
C518 C517 1.361 . S
C518 H536 0.931 . S
C519 C517 1.500 . S
C519 C520 1.371 . S
C519 C521 1.365 . S
C520 C519 1.371 . S
C520 C530 1.386 . S
C520 H538 0.931 . S
C521 C519 1.365 . S
C521 C522 1.409 . S
C521 H539 0.929 . S
C522 C521 1.409 . S
C522 C523 1.380 . S
C522 H540 0.930 . S
C523 C522 1.380 . S
C523 C530 1.357 . S
C524 C515 1.511 . S
C524 C525 1.341 . S
C524 C526 1.371 . S
C525 C524 1.341 . S
C525 C529 1.394 . S
C525 H541 0.930 . S
C526 C524 1.371 . S
C526 C527 1.392 . S
C526 H542 0.931 . S
C527 C526 1.392 . S
C527 C528 1.331 . S
C527 H545 0.932 . S
C528 C527 1.331 . S
C528 C529 1.336 . S
C529 C525 1.394 . S
C529 C528 1.336 . S
C529 H544 0.929 . S
C530 C520 1.386 . S
C530 C523 1.357 . S
C530 H543 0.928 . S
H531 C507 0.931 . S
H532 C509 0.930 . S
H533 C511 0.929 . S
H534 C512 0.931 . S
H535 C514 0.930 . S
H536 C518 0.931 . S
H537 C516 0.931 . S
H538 C520 0.931 . S
H539 C521 0.929 . S
H540 C522 0.930 . S
H541 C525 0.930 . S
H542 C526 0.931 . S
H543 C530 0.928 . S
H544 C529 0.929 . S
H545 C527 0.932 . S
C546 C547 1.386 . S
C546 C548 1.397 . S
C546 H570 0.931 . S
C547 C546 1.386 . S
C547 C551 1.397 . S
C548 C546 1.397 . S
C548 C549 1.384 . S
C548 H571 0.930 . S
C549 C548 1.384 . S
C549 C550 1.377 . S
C549 C552 1.481 . S
C550 C549 1.377 . S
C550 C551 1.389 . S
C550 H572 0.929 . S
C551 C547 1.397 . S
C551 C550 1.389 . S
C551 H573 0.931 . S
C552 C549 1.481 . S
C552 C553 1.387 . S
C552 C557 1.390 . S
C553 C552 1.387 . S
C553 C554 1.401 . S
C553 H574 0.930 . S
C554 C553 1.401 . S
C554 C555 1.376 . S
C554 C563 1.511 . S
C555 C554 1.376 . S
C555 C556 1.392 . S
C555 H576 0.931 . S
C556 C555 1.392 . S
C556 C557 1.361 . S
C556 C558 1.500 . S
C557 C552 1.390 . S
C557 C556 1.361 . S
C557 H575 0.931 . S
C558 C556 1.500 . S
C558 C559 1.371 . S
C558 C560 1.365 . S
C559 C558 1.371 . S
C559 C569 1.386 . S
C559 H577 0.931 . S
C560 C558 1.365 . S
C560 C561 1.409 . S
C560 H578 0.929 . S
C561 C560 1.409 . S
C561 C562 1.380 . S
C561 H579 0.930 . S
C562 C561 1.380 . S
C562 C569 1.357 . S
C563 C554 1.511 . S
C563 C564 1.341 . S
C563 C565 1.371 . S
C564 C563 1.341 . S
C564 C568 1.394 . S
C564 H580 0.930 . S
C565 C563 1.371 . S
C565 C566 1.392 . S
C565 H581 0.931 . S
C566 C565 1.392 . S
C566 C567 1.331 . S
C566 H584 0.932 . S
C567 C566 1.331 . S
C567 C568 1.336 . S
C568 C564 1.394 . S
C568 C567 1.336 . S
C568 H583 0.929 . S
C569 C559 1.386 . S
C569 C562 1.357 . S
C569 H582 0.928 . S
H570 C546 0.931 . S
H571 C548 0.930 . S
H572 C550 0.929 . S
H573 C551 0.931 . S
H574 C553 0.930 . S
H575 C557 0.931 . S
H576 C555 0.931 . S
H577 C559 0.931 . S
H578 C560 0.929 . S
H579 C561 0.930 . S
H580 C564 0.930 . S
H581 C565 0.931 . S
H582 C569 0.928 . S
H583 C568 0.929 . S
H584 C566 0.932 . S
C585 C586 1.386 . S
C585 C587 1.397 . S
C585 H609 0.931 . S
C586 C585 1.386 . S
C586 C590 1.397 . S
C587 C585 1.397 . S
C587 C588 1.384 . S
C587 H610 0.930 . S
C588 C587 1.384 . S
C588 C589 1.377 . S
C588 C591 1.481 . S
C589 C588 1.377 . S
C589 C590 1.389 . S
C589 H611 0.929 . S
C590 C586 1.397 . S
C590 C589 1.389 . S
C590 H612 0.931 . S
C591 C588 1.481 . S
C591 C592 1.387 . S
C591 C596 1.390 . S
C592 C591 1.387 . S
C592 C593 1.401 . S
C592 H613 0.930 . S
C593 C592 1.401 . S
C593 C594 1.376 . S
C593 C602 1.511 . S
C594 C593 1.376 . S
C594 C595 1.392 . S
C594 H615 0.931 . S
C595 C594 1.392 . S
C595 C596 1.361 . S
C595 C597 1.500 . S
C596 C591 1.390 . S
C596 C595 1.361 . S
C596 H614 0.931 . S
C597 C595 1.500 . S
C597 C598 1.371 . S
C597 C599 1.365 . S
C598 C597 1.371 . S
C598 C608 1.386 . S
C598 H616 0.931 . S
C599 C597 1.365 . S
C599 C600 1.409 . S
C599 H617 0.929 . S
C600 C599 1.409 . S
C600 C601 1.380 . S
C600 H618 0.930 . S
C601 C600 1.380 . S
C601 C608 1.357 . S
C602 C593 1.511 . S
C602 C603 1.341 . S
C602 C604 1.371 . S
C603 C602 1.341 . S
C603 C607 1.394 . S
C603 H619 0.930 . S
C604 C602 1.371 . S
C604 C605 1.392 . S
C604 H620 0.931 . S
C605 C604 1.392 . S
C605 C606 1.331 . S
C605 H623 0.932 . S
C606 C605 1.331 . S
C606 C607 1.336 . S
C607 C603 1.394 . S
C607 C606 1.336 . S
C607 H622 0.929 . S
C608 C598 1.386 . S
C608 C601 1.357 . S
C608 H621 0.928 . S
H609 C585 0.931 . S
H610 C587 0.930 . S
H611 C589 0.929 . S
H612 C590 0.931 . S
H613 C592 0.930 . S
H614 C596 0.931 . S
H615 C594 0.931 . S
H616 C598 0.931 . S
H617 C599 0.929 . S
H618 C600 0.930 . S
H619 C603 0.930 . S
H620 C604 0.931 . S
H621 C608 0.928 . S
H622 C607 0.929 . S
H623 C605 0.932 . S
C624 C625 1.386 . S
C624 C626 1.397 . S
C624 H648 0.931 . S
C625 C624 1.386 . S
C625 C629 1.397 . S
C626 C624 1.397 . S
C626 C627 1.384 . S
C626 H649 0.930 . S
C627 C626 1.384 . S
C627 C628 1.377 . S
C627 C630 1.481 . S
C628 C627 1.377 . S
C628 C629 1.389 . S
C628 H650 0.929 . S
C629 C625 1.397 . S
C629 C628 1.389 . S
C629 H651 0.931 . S
C630 C627 1.481 . S
C630 C631 1.387 . S
C630 C635 1.390 . S
C631 C630 1.387 . S
C631 C632 1.401 . S
C631 H652 0.930 . S
C632 C631 1.401 . S
C632 C633 1.376 . S
C632 C641 1.511 . S
C633 C632 1.376 . S
C633 C634 1.392 . S
C633 H654 0.931 . S
C634 C633 1.392 . S
C634 C635 1.361 . S
C634 C636 1.500 . S
C635 C630 1.390 . S
C635 C634 1.361 . S
C635 H653 0.931 . S
C636 C634 1.500 . S
C636 C637 1.371 . S
C636 C638 1.365 . S
C637 C636 1.371 . S
C637 C647 1.386 . S
C637 H655 0.931 . S
C638 C636 1.365 . S
C638 C639 1.409 . S
C638 H656 0.929 . S
C639 C638 1.409 . S
C639 C640 1.380 . S
C639 H657 0.930 . S
C640 C639 1.380 . S
C640 C647 1.357 . S
C641 C632 1.511 . S
C641 C642 1.341 . S
C641 C643 1.371 . S
C642 C641 1.341 . S
C642 C646 1.394 . S
C642 H658 0.930 . S
C643 C641 1.371 . S
C643 C644 1.392 . S
C643 H659 0.931 . S
C644 C643 1.392 . S
C644 C645 1.331 . S
C644 H662 0.932 . S
C645 C644 1.331 . S
C645 C646 1.336 . S
C646 C642 1.394 . S
C646 C645 1.336 . S
C646 H661 0.929 . S
C647 C637 1.386 . S
C647 C640 1.357 . S
C647 H660 0.928 . S
H648 C624 0.931 . S
H649 C626 0.930 . S
H650 C628 0.929 . S
H651 C629 0.931 . S
H652 C631 0.930 . S
H653 C635 0.931 . S
H654 C633 0.931 . S
H655 C637 0.931 . S
H656 C638 0.929 . S
H657 C639 0.930 . S
H658 C642 0.930 . S
H659 C643 0.931 . S
H660 C647 0.928 . S
H661 C646 0.929 . S
H662 C644 0.932 . S
C663 C664 1.386 . S
C663 C665 1.397 . S
C663 H687 0.931 . S
C664 C663 1.386 . S
C664 C668 1.397 . S
C665 C663 1.397 . S
C665 C666 1.384 . S
C665 H688 0.930 . S
C666 C665 1.384 . S
C666 C667 1.377 . S
C666 C669 1.481 . S
C667 C666 1.377 . S
C667 C668 1.389 . S
C667 H689 0.929 . S
C668 C664 1.397 . S
C668 C667 1.389 . S
C668 H690 0.931 . S
C669 C666 1.481 . S
C669 C670 1.387 . S
C669 C674 1.390 . S
C670 C669 1.387 . S
C670 C671 1.401 . S
C670 H691 0.930 . S
C671 C670 1.401 . S
C671 C672 1.376 . S
C671 C680 1.511 . S
C672 C671 1.376 . S
C672 C673 1.392 . S
C672 H693 0.931 . S
C673 C672 1.392 . S
C673 C674 1.361 . S
C673 C675 1.500 . S
C674 C669 1.390 . S
C674 C673 1.361 . S
C674 H692 0.931 . S
C675 C673 1.500 . S
C675 C676 1.371 . S
C675 C677 1.365 . S
C676 C675 1.371 . S
C676 C686 1.386 . S
C676 H694 0.931 . S
C677 C675 1.365 . S
C677 C678 1.409 . S
C677 H695 0.929 . S
C678 C677 1.409 . S
C678 C679 1.380 . S
C678 H696 0.930 . S
C679 C678 1.380 . S
C679 C686 1.357 . S
C680 C671 1.511 . S
C680 C681 1.341 . S
C680 C682 1.371 . S
C681 C680 1.341 . S
C681 C685 1.394 . S
C681 H697 0.930 . S
C682 C680 1.371 . S
C682 C683 1.392 . S
C682 H698 0.931 . S
C683 C682 1.392 . S
C683 C684 1.331 . S
C683 H701 0.932 . S
C684 C683 1.331 . S
C684 C685 1.336 . S
C685 C681 1.394 . S
C685 C684 1.336 . S
C685 H700 0.929 . S
C686 C676 1.386 . S
C686 C679 1.357 . S
C686 H699 0.928 . S
H687 C663 0.931 . S
H688 C665 0.930 . S
H689 C667 0.929 . S
H690 C668 0.931 . S
H691 C670 0.930 . S
H692 C674 0.931 . S
H693 C672 0.931 . S
H694 C676 0.931 . S
H695 C677 0.929 . S
H696 C678 0.930 . S
H697 C681 0.930 . S
H698 C682 0.931 . S
H699 C686 0.928 . S
H700 C685 0.929 . S
H701 C683 0.932 . S
C702 C703 1.386 . S
C702 C704 1.397 . S
C702 H726 0.931 . S
C703 C702 1.386 . S
C703 C707 1.397 . S
C704 C702 1.397 . S
C704 C705 1.384 . S
C704 H727 0.930 . S
C705 C704 1.384 . S
C705 C706 1.377 . S
C705 C708 1.481 . S
C706 C705 1.377 . S
C706 C707 1.389 . S
C706 H728 0.929 . S
C707 C703 1.397 . S
C707 C706 1.389 . S
C707 H729 0.931 . S
C708 C705 1.481 . S
C708 C709 1.387 . S
C708 C713 1.390 . S
C709 C708 1.387 . S
C709 C710 1.401 . S
C709 H730 0.930 . S
C710 C709 1.401 . S
C710 C711 1.376 . S
C710 C719 1.511 . S
C711 C710 1.376 . S
C711 C712 1.392 . S
C711 H732 0.931 . S
C712 C711 1.392 . S
C712 C713 1.361 . S
C712 C714 1.500 . S
C713 C708 1.390 . S
C713 C712 1.361 . S
C713 H731 0.931 . S
C714 C712 1.500 . S
C714 C715 1.371 . S
C714 C716 1.365 . S
C715 C714 1.371 . S
C715 C725 1.386 . S
C715 H733 0.931 . S
C716 C714 1.365 . S
C716 C717 1.409 . S
C716 H734 0.929 . S
C717 C716 1.409 . S
C717 C718 1.380 . S
C717 H735 0.930 . S
C718 C717 1.380 . S
C718 C725 1.357 . S
C719 C710 1.511 . S
C719 C720 1.341 . S
C719 C721 1.371 . S
C720 C719 1.341 . S
C720 C724 1.394 . S
C720 H736 0.930 . S
C721 C719 1.371 . S
C721 C722 1.392 . S
C721 H737 0.931 . S
C722 C721 1.392 . S
C722 C723 1.331 . S
C722 H740 0.932 . S
C723 C722 1.331 . S
C723 C724 1.336 . S
C724 C720 1.394 . S
C724 C723 1.336 . S
C724 H739 0.929 . S
C725 C715 1.386 . S
C725 C718 1.357 . S
C725 H738 0.928 . S
H726 C702 0.931 . S
H727 C704 0.930 . S
H728 C706 0.929 . S
H729 C707 0.931 . S
H730 C709 0.930 . S
H731 C713 0.931 . S
H732 C711 0.931 . S
H733 C715 0.931 . S
H734 C716 0.929 . S
H735 C717 0.930 . S
H736 C720 0.930 . S
H737 C721 0.931 . S
H738 C725 0.928 . S
H739 C724 0.929 . S
H740 C722 0.932 . S
C741 C742 1.386 . S
C741 C743 1.397 . S
C741 H765 0.931 . S
C742 C741 1.386 . S
C742 C746 1.397 . S
C743 C741 1.397 . S
C743 C744 1.384 . S
C743 H766 0.930 . S
C744 C743 1.384 . S
C744 C745 1.377 . S
C744 C747 1.481 . S
C745 C744 1.377 . S
C745 C746 1.389 . S
C745 H767 0.929 . S
C746 C742 1.397 . S
C746 C745 1.389 . S
C746 H768 0.931 . S
C747 C744 1.481 . S
C747 C748 1.387 . S
C747 C752 1.390 . S
C748 C747 1.387 . S
C748 C749 1.401 . S
C748 H769 0.930 . S
C749 C748 1.401 . S
C749 C750 1.376 . S
C749 C758 1.511 . S
C750 C749 1.376 . S
C750 C751 1.392 . S
C750 H771 0.931 . S
C751 C750 1.392 . S
C751 C752 1.361 . S
C751 C753 1.500 . S
C752 C747 1.390 . S
C752 C751 1.361 . S
C752 H770 0.931 . S
C753 C751 1.500 . S
C753 C754 1.371 . S
C753 C755 1.365 . S
C754 C753 1.371 . S
C754 C764 1.386 . S
C754 H772 0.931 . S
C755 C753 1.365 . S
C755 C756 1.409 . S
C755 H773 0.929 . S
C756 C755 1.409 . S
C756 C757 1.380 . S
C756 H774 0.930 . S
C757 C756 1.380 . S
C757 C764 1.357 . S
C758 C749 1.511 . S
C758 C759 1.341 . S
C758 C760 1.371 . S
C759 C758 1.341 . S
C759 C763 1.394 . S
C759 H775 0.930 . S
C760 C758 1.371 . S
C760 C761 1.392 . S
C760 H776 0.931 . S
C761 C760 1.392 . S
C761 C762 1.331 . S
C761 H779 0.932 . S
C762 C761 1.331 . S
C762 C763 1.336 . S
C763 C759 1.394 . S
C763 C762 1.336 . S
C763 H778 0.929 . S
C764 C754 1.386 . S
C764 C757 1.357 . S
C764 H777 0.928 . S
H765 C741 0.931 . S
H766 C743 0.930 . S
H767 C745 0.929 . S
H768 C746 0.931 . S
H769 C748 0.930 . S
H770 C752 0.931 . S
H771 C750 0.931 . S
H772 C754 0.931 . S
H773 C755 0.929 . S
H774 C756 0.930 . S
H775 C759 0.930 . S
H776 C760 0.931 . S
H777 C764 0.928 . S
H778 C763 0.929 . S
H779 C761 0.932 . S
C780 C781 1.386 . S
C780 C782 1.397 . S
C780 H804 0.931 . S
C781 C780 1.386 . S
C781 C785 1.397 . S
C782 C780 1.397 . S
C782 C783 1.384 . S
C782 H805 0.930 . S
C783 C782 1.384 . S
C783 C784 1.377 . S
C783 C786 1.481 . S
C784 C783 1.377 . S
C784 C785 1.389 . S
C784 H806 0.929 . S
C785 C781 1.397 . S
C785 C784 1.389 . S
C785 H807 0.931 . S
C786 C783 1.481 . S
C786 C787 1.387 . S
C786 C791 1.390 . S
C787 C786 1.387 . S
C787 C788 1.401 . S
C787 H808 0.930 . S
C788 C787 1.401 . S
C788 C789 1.376 . S
C788 C797 1.511 . S
C789 C788 1.376 . S
C789 C790 1.392 . S
C789 H810 0.931 . S
C790 C789 1.392 . S
C790 C791 1.361 . S
C790 C792 1.500 . S
C791 C786 1.390 . S
C791 C790 1.361 . S
C791 H809 0.931 . S
C792 C790 1.500 . S
C792 C793 1.371 . S
C792 C794 1.365 . S
C793 C792 1.371 . S
C793 C803 1.386 . S
C793 H811 0.931 . S
C794 C792 1.365 . S
C794 C795 1.409 . S
C794 H812 0.929 . S
C795 C794 1.409 . S
C795 C796 1.380 . S
C795 H813 0.930 . S
C796 C795 1.380 . S
C796 C803 1.357 . S
C797 C788 1.511 . S
C797 C798 1.341 . S
C797 C799 1.371 . S
C798 C797 1.341 . S
C798 C802 1.394 . S
C798 H814 0.930 . S
C799 C797 1.371 . S
C799 C800 1.392 . S
C799 H815 0.931 . S
C800 C799 1.392 . S
C800 C801 1.331 . S
C800 H818 0.932 . S
C801 C800 1.331 . S
C801 C802 1.336 . S
C802 C798 1.394 . S
C802 C801 1.336 . S
C802 H817 0.929 . S
C803 C793 1.386 . S
C803 C796 1.357 . S
C803 H816 0.928 . S
H804 C780 0.931 . S
H805 C782 0.930 . S
H806 C784 0.929 . S
H807 C785 0.931 . S
H808 C787 0.930 . S
H809 C791 0.931 . S
H810 C789 0.931 . S
H811 C793 0.931 . S
H812 C794 0.929 . S
H813 C795 0.930 . S
H814 C798 0.930 . S
H815 C799 0.931 . S
H816 C803 0.928 . S
H817 C802 0.929 . S
H818 C800 0.932 . S
C819 C820 1.386 . S
C819 C821 1.397 . S
C819 H843 0.931 . S
C820 C819 1.386 . S
C820 C824 1.397 . S
C821 C819 1.397 . S
C821 C822 1.384 . S
C821 H844 0.930 . S
C822 C821 1.384 . S
C822 C823 1.377 . S
C822 C825 1.481 . S
C823 C822 1.377 . S
C823 C824 1.389 . S
C823 H845 0.929 . S
C824 C820 1.397 . S
C824 C823 1.389 . S
C824 H846 0.931 . S
C825 C822 1.481 . S
C825 C826 1.387 . S
C825 C830 1.390 . S
C826 C825 1.387 . S
C826 C827 1.401 . S
C826 H847 0.930 . S
C827 C826 1.401 . S
C827 C828 1.376 . S
C827 C836 1.511 . S
C828 C827 1.376 . S
C828 C829 1.392 . S
C828 H849 0.931 . S
C829 C828 1.392 . S
C829 C830 1.361 . S
C829 C831 1.500 . S
C830 C825 1.390 . S
C830 C829 1.361 . S
C830 H848 0.931 . S
C831 C829 1.500 . S
C831 C832 1.371 . S
C831 C833 1.365 . S
C832 C831 1.371 . S
C832 C842 1.386 . S
C832 H850 0.931 . S
C833 C831 1.365 . S
C833 C834 1.409 . S
C833 H851 0.929 . S
C834 C833 1.409 . S
C834 C835 1.380 . S
C834 H852 0.930 . S
C835 C834 1.380 . S
C835 C842 1.357 . S
C836 C827 1.511 . S
C836 C837 1.341 . S
C836 C838 1.371 . S
C837 C836 1.341 . S
C837 C841 1.394 . S
C837 H853 0.930 . S
C838 C836 1.371 . S
C838 C839 1.392 . S
C838 H854 0.931 . S
C839 C838 1.392 . S
C839 C840 1.331 . S
C839 H857 0.932 . S
C840 C839 1.331 . S
C840 C841 1.336 . S
C841 C837 1.394 . S
C841 C840 1.336 . S
C841 H856 0.929 . S
C842 C832 1.386 . S
C842 C835 1.357 . S
C842 H855 0.928 . S
H843 C819 0.931 . S
H844 C821 0.930 . S
H845 C823 0.929 . S
H846 C824 0.931 . S
H847 C826 0.930 . S
H848 C830 0.931 . S
H849 C828 0.931 . S
H850 C832 0.931 . S
H851 C833 0.929 . S
H852 C834 0.930 . S
H853 C837 0.930 . S
H854 C838 0.931 . S
H855 C842 0.928 . S
H856 C841 0.929 . S
H857 C839 0.932 . S
C858 C859 1.386 . S
C858 C860 1.397 . S
C858 H882 0.931 . S
C859 C858 1.386 . S
C859 C863 1.397 . S
C860 C858 1.397 . S
C860 C861 1.384 . S
C860 H883 0.930 . S
C861 C860 1.384 . S
C861 C862 1.377 . S
C861 C864 1.481 . S
C862 C861 1.377 . S
C862 C863 1.389 . S
C862 H884 0.929 . S
C863 C859 1.397 . S
C863 C862 1.389 . S
C863 H885 0.931 . S
C864 C861 1.481 . S
C864 C865 1.387 . S
C864 C869 1.390 . S
C865 C864 1.387 . S
C865 C866 1.401 . S
C865 H886 0.930 . S
C866 C865 1.401 . S
C866 C867 1.376 . S
C866 C875 1.511 . S
C867 C866 1.376 . S
C867 C868 1.392 . S
C867 H888 0.931 . S
C868 C867 1.392 . S
C868 C869 1.361 . S
C868 C870 1.500 . S
C869 C864 1.390 . S
C869 C868 1.361 . S
C869 H887 0.931 . S
C870 C868 1.500 . S
C870 C871 1.371 . S
C870 C872 1.365 . S
C871 C870 1.371 . S
C871 C881 1.386 . S
C871 H889 0.931 . S
C872 C870 1.365 . S
C872 C873 1.409 . S
C872 H890 0.929 . S
C873 C872 1.409 . S
C873 C874 1.380 . S
C873 H891 0.930 . S
C874 C873 1.380 . S
C874 C881 1.357 . S
C875 C866 1.511 . S
C875 C876 1.341 . S
C875 C877 1.371 . S
C876 C875 1.341 . S
C876 C880 1.394 . S
C876 H892 0.930 . S
C877 C875 1.371 . S
C877 C878 1.392 . S
C877 H893 0.931 . S
C878 C877 1.392 . S
C878 C879 1.331 . S
C878 H896 0.932 . S
C879 C878 1.331 . S
C879 C880 1.336 . S
C880 C876 1.394 . S
C880 C879 1.336 . S
C880 H895 0.929 . S
C881 C871 1.386 . S
C881 C874 1.357 . S
C881 H894 0.928 . S
H882 C858 0.931 . S
H883 C860 0.930 . S
H884 C862 0.929 . S
H885 C863 0.931 . S
H886 C865 0.930 . S
H887 C869 0.931 . S
H888 C867 0.931 . S
H889 C871 0.931 . S
H890 C872 0.929 . S
H891 C873 0.930 . S
H892 C876 0.930 . S
H893 C877 0.931 . S
H894 C881 0.928 . S
H895 C880 0.929 . S
H896 C878 0.932 . S
C897 C898 1.386 . S
C897 C899 1.397 . S
C897 H921 0.931 . S
C898 C897 1.386 . S
C898 C902 1.397 . S
C899 C897 1.397 . S
C899 C900 1.384 . S
C899 H922 0.930 . S
C900 C899 1.384 . S
C900 C901 1.377 . S
C900 C903 1.481 . S
C901 C900 1.377 . S
C901 C902 1.389 . S
C901 H923 0.929 . S
C902 C898 1.397 . S
C902 C901 1.389 . S
C902 H924 0.931 . S
C903 C900 1.481 . S
C903 C904 1.387 . S
C903 C908 1.390 . S
C904 C903 1.387 . S
C904 C905 1.401 . S
C904 H925 0.930 . S
C905 C904 1.401 . S
C905 C906 1.376 . S
C905 C914 1.511 . S
C906 C905 1.376 . S
C906 C907 1.392 . S
C906 H927 0.931 . S
C907 C906 1.392 . S
C907 C908 1.361 . S
C907 C909 1.500 . S
C908 C903 1.390 . S
C908 C907 1.361 . S
C908 H926 0.931 . S
C909 C907 1.500 . S
C909 C910 1.371 . S
C909 C911 1.365 . S
C910 C909 1.371 . S
C910 C920 1.386 . S
C910 H928 0.931 . S
C911 C909 1.365 . S
C911 C912 1.409 . S
C911 H929 0.929 . S
C912 C911 1.409 . S
C912 C913 1.380 . S
C912 H930 0.930 . S
C913 C912 1.380 . S
C913 C920 1.357 . S
C914 C905 1.511 . S
C914 C915 1.341 . S
C914 C916 1.371 . S
C915 C914 1.341 . S
C915 C919 1.394 . S
C915 H931 0.930 . S
C916 C914 1.371 . S
C916 C917 1.392 . S
C916 H932 0.931 . S
C917 C916 1.392 . S
C917 C918 1.331 . S
C917 H935 0.932 . S
C918 C917 1.331 . S
C918 C919 1.336 . S
C919 C915 1.394 . S
C919 C918 1.336 . S
C919 H934 0.929 . S
C920 C910 1.386 . S
C920 C913 1.357 . S
C920 H933 0.928 . S
H921 C897 0.931 . S
H922 C899 0.930 . S
H923 C901 0.929 . S
H924 C902 0.931 . S
H925 C904 0.930 . S
H926 C908 0.931 . S
H927 C906 0.931 . S
H928 C910 0.931 . S
H929 C911 0.929 . S
H930 C912 0.930 . S
H931 C915 0.930 . S
H932 C916 0.931 . S
H933 C920 0.928 . S
H934 C919 0.929 . S
H935 C917 0.932 . S
C936 C937 1.386 . S
C936 C938 1.397 . S
C936 H960 0.931 . S
C937 C936 1.386 . S
C937 C941 1.397 . S
C938 C936 1.397 . S
C938 C939 1.384 . S
C938 H961 0.930 . S
C939 C938 1.384 . S
C939 C940 1.377 . S
C939 C942 1.481 . S
C940 C939 1.377 . S
C940 C941 1.389 . S
C940 H962 0.929 . S
C941 C937 1.397 . S
C941 C940 1.389 . S
C941 H963 0.931 . S
C942 C939 1.481 . S
C942 C943 1.387 . S
C942 C947 1.390 . S
C943 C942 1.387 . S
C943 C944 1.401 . S
C943 H964 0.930 . S
C944 C943 1.401 . S
C944 C945 1.376 . S
C944 C953 1.511 . S
C945 C944 1.376 . S
C945 C946 1.392 . S
C945 H966 0.931 . S
C946 C945 1.392 . S
C946 C947 1.361 . S
C946 C948 1.500 . S
C947 C942 1.390 . S
C947 C946 1.361 . S
C947 H965 0.931 . S
C948 C946 1.500 . S
C948 C949 1.371 . S
C948 C950 1.365 . S
C949 C948 1.371 . S
C949 C959 1.386 . S
C949 H967 0.931 . S
C950 C948 1.365 . S
C950 C951 1.409 . S
C950 H968 0.929 . S
C951 C950 1.409 . S
C951 C952 1.380 . S
C951 H969 0.930 . S
C952 C951 1.380 . S
C952 C959 1.357 . S
C953 C944 1.511 . S
C953 C954 1.341 . S
C953 C955 1.371 . S
C954 C953 1.341 . S
C954 C958 1.394 . S
C954 H970 0.930 . S
C955 C953 1.371 . S
C955 C956 1.392 . S
C955 H971 0.931 . S
C956 C955 1.392 . S
C956 C957 1.331 . S
C956 H974 0.932 . S
C957 C956 1.331 . S
C957 C958 1.336 . S
C958 C954 1.394 . S
C958 C957 1.336 . S
C958 H973 0.929 . S
C959 C949 1.386 . S
C959 C952 1.357 . S
C959 H972 0.928 . S
H960 C936 0.931 . S
H961 C938 0.930 . S
H962 C940 0.929 . S
H963 C941 0.931 . S
H964 C943 0.930 . S
H965 C947 0.931 . S
H966 C945 0.931 . S
H967 C949 0.931 . S
H968 C950 0.929 . S
H969 C951 0.930 . S
H970 C954 0.930 . S
H971 C955 0.931 . S
H972 C959 0.928 . S
H973 C958 0.929 . S
H974 C956 0.932 . S
C975 C976 1.386 . S
C975 C977 1.397 . S
C975 H999 0.931 . S
C976 C975 1.386 . S
C976 C980 1.397 . S
C977 C975 1.397 . S
C977 C978 1.384 . S
C977 H1000 0.930 . S
C978 C977 1.384 . S
C978 C979 1.377 . S
C978 C981 1.481 . S
C979 C978 1.377 . S
C979 C980 1.389 . S
C979 H1001 0.929 . S
C980 C976 1.397 . S
C980 C979 1.389 . S
C980 H1002 0.931 . S
C981 C978 1.481 . S
C981 C982 1.387 . S
C981 C986 1.390 . S
C982 C981 1.387 . S
C982 C983 1.401 . S
C982 H1003 0.930 . S
C983 C982 1.401 . S
C983 C984 1.376 . S
C983 C992 1.511 . S
C984 C983 1.376 . S
C984 C985 1.392 . S
C984 H1005 0.931 . S
C985 C984 1.392 . S
C985 C986 1.361 . S
C985 C987 1.500 . S
C986 C981 1.390 . S
C986 C985 1.361 . S
C986 H1004 0.931 . S
C987 C985 1.500 . S
C987 C988 1.371 . S
C987 C989 1.365 . S
C988 C987 1.371 . S
C988 C998 1.386 . S
C988 H1006 0.931 . S
C989 C987 1.365 . S
C989 C990 1.409 . S
C989 H1007 0.929 . S
C990 C989 1.409 . S
C990 C991 1.380 . S
C990 H1008 0.930 . S
C991 C990 1.380 . S
C991 C998 1.357 . S
C992 C983 1.511 . S
C992 C993 1.341 . S
C992 C994 1.371 . S
C993 C992 1.341 . S
C993 C997 1.394 . S
C993 H1009 0.930 . S
C994 C992 1.371 . S
C994 C995 1.392 . S
C994 H1010 0.931 . S
C995 C994 1.392 . S
C995 C996 1.331 . S
C995 H1013 0.932 . S
C996 C995 1.331 . S
C996 C997 1.336 . S
C997 C993 1.394 . S
C997 C996 1.336 . S
C997 H1012 0.929 . S
C998 C988 1.386 . S
C998 C991 1.357 . S
C998 H1011 0.928 . S
H999 C975 0.931 . S
H1000 C977 0.930 . S
H1001 C979 0.929 . S
H1002 C980 0.931 . S
H1003 C982 0.930 . S
H1004 C986 0.931 . S
H1005 C984 0.931 . S
H1006 C988 0.931 . S
H1007 C989 0.929 . S
H1008 C990 0.930 . S
H1009 C993 0.930 . S
H1010 C994 0.931 . S
H1011 C998 0.928 . S
H1012 C997 0.929 . S
H1013 C995 0.932 . S
C1014 C1015 1.386 . S
C1014 C1016 1.397 . S
C1014 H1038 0.931 . S
C1015 C1014 1.386 . S
C1015 C1019 1.397 . S
C1016 C1014 1.397 . S
C1016 C1017 1.384 . S
C1016 H1039 0.930 . S
C1017 C1016 1.384 . S
C1017 C1018 1.377 . S
C1017 C1020 1.481 . S
C1018 C1017 1.377 . S
C1018 C1019 1.389 . S
C1018 H1040 0.929 . S
C1019 C1015 1.397 . S
C1019 C1018 1.389 . S
C1019 H1041 0.931 . S
C1020 C1017 1.481 . S
C1020 C1021 1.387 . S
C1020 C1025 1.390 . S
C1021 C1020 1.387 . S
C1021 C1022 1.401 . S
C1021 H1042 0.930 . S
C1022 C1021 1.401 . S
C1022 C1023 1.376 . S
C1022 C1031 1.511 . S
C1023 C1022 1.376 . S
C1023 C1024 1.392 . S
C1023 H1044 0.931 . S
C1024 C1023 1.392 . S
C1024 C1025 1.361 . S
C1024 C1026 1.500 . S
C1025 C1020 1.390 . S
C1025 C1024 1.361 . S
C1025 H1043 0.931 . S
C1026 C1024 1.500 . S
C1026 C1027 1.371 . S
C1026 C1028 1.365 . S
C1027 C1026 1.371 . S
C1027 C1037 1.386 . S
C1027 H1045 0.931 . S
C1028 C1026 1.365 . S
C1028 C1029 1.409 . S
C1028 H1046 0.929 . S
C1029 C1028 1.409 . S
C1029 C1030 1.380 . S
C1029 H1047 0.930 . S
C1030 C1029 1.380 . S
C1030 C1037 1.357 . S
C1031 C1022 1.511 . S
C1031 C1032 1.341 . S
C1031 C1033 1.371 . S
C1032 C1031 1.341 . S
C1032 C1036 1.394 . S
C1032 H1048 0.930 . S
C1033 C1031 1.371 . S
C1033 C1034 1.392 . S
C1033 H1049 0.931 . S
C1034 C1033 1.392 . S
C1034 C1035 1.331 . S
C1034 H1052 0.932 . S
C1035 C1034 1.331 . S
C1035 C1036 1.336 . S
C1036 C1032 1.394 . S
C1036 C1035 1.336 . S
C1036 H1051 0.929 . S
C1037 C1027 1.386 . S
C1037 C1030 1.357 . S
C1037 H1050 0.928 . S
H1038 C1014 0.931 . S
H1039 C1016 0.930 . S
H1040 C1018 0.929 . S
H1041 C1019 0.931 . S
H1042 C1021 0.930 . S
H1043 C1025 0.931 . S
H1044 C1023 0.931 . S
H1045 C1027 0.931 . S
H1046 C1028 0.929 . S
H1047 C1029 0.930 . S
H1048 C1032 0.930 . S
H1049 C1033 0.931 . S
H1050 C1037 0.928 . S
H1051 C1036 0.929 . S
H1052 C1034 0.932 . S
C1053 C1054 1.386 . S
C1053 C1055 1.397 . S
C1053 H1077 0.931 . S
C1054 C1053 1.386 . S
C1054 C1058 1.397 . S
C1055 C1053 1.397 . S
C1055 C1056 1.384 . S
C1055 H1078 0.930 . S
C1056 C1055 1.384 . S
C1056 C1057 1.377 . S
C1056 C1059 1.481 . S
C1057 C1056 1.377 . S
C1057 C1058 1.389 . S
C1057 H1079 0.929 . S
C1058 C1054 1.397 . S
C1058 C1057 1.389 . S
C1058 H1080 0.931 . S
C1059 C1056 1.481 . S
C1059 C1060 1.387 . S
C1059 C1064 1.390 . S
C1060 C1059 1.387 . S
C1060 C1061 1.401 . S
C1060 H1081 0.930 . S
C1061 C1060 1.401 . S
C1061 C1062 1.376 . S
C1061 C1070 1.511 . S
C1062 C1061 1.376 . S
C1062 C1063 1.392 . S
C1062 H1083 0.931 . S
C1063 C1062 1.392 . S
C1063 C1064 1.361 . S
C1063 C1065 1.500 . S
C1064 C1059 1.390 . S
C1064 C1063 1.361 . S
C1064 H1082 0.931 . S
C1065 C1063 1.500 . S
C1065 C1066 1.371 . S
C1065 C1067 1.365 . S
C1066 C1065 1.371 . S
C1066 C1076 1.386 . S
C1066 H1084 0.931 . S
C1067 C1065 1.365 . S
C1067 C1068 1.409 . S
C1067 H1085 0.929 . S
C1068 C1067 1.409 . S
C1068 C1069 1.380 . S
C1068 H1086 0.930 . S
C1069 C1068 1.380 . S
C1069 C1076 1.357 . S
C1070 C1061 1.511 . S
C1070 C1071 1.341 . S
C1070 C1072 1.371 . S
C1071 C1070 1.341 . S
C1071 C1075 1.394 . S
C1071 H1087 0.930 . S
C1072 C1070 1.371 . S
C1072 C1073 1.392 . S
C1072 H1088 0.931 . S
C1073 C1072 1.392 . S
C1073 C1074 1.331 . S
C1073 H1091 0.932 . S
C1074 C1073 1.331 . S
C1074 C1075 1.336 . S
C1075 C1071 1.394 . S
C1075 C1074 1.336 . S
C1075 H1090 0.929 . S
C1076 C1066 1.386 . S
C1076 C1069 1.357 . S
C1076 H1089 0.928 . S
H1077 C1053 0.931 . S
H1078 C1055 0.930 . S
H1079 C1057 0.929 . S
H1080 C1058 0.931 . S
H1081 C1060 0.930 . S
H1082 C1064 0.931 . S
H1083 C1062 0.931 . S
H1084 C1066 0.931 . S
H1085 C1067 0.929 . S
H1086 C1068 0.930 . S
H1087 C1071 0.930 . S
H1088 C1072 0.931 . S
H1089 C1076 0.928 . S
H1090 C1075 0.929 . S
H1091 C1073 0.932 . S
C1092 C1093 1.386 . S
C1092 C1094 1.397 . S
C1092 H1116 0.931 . S
C1093 C1092 1.386 . S
C1093 C1097 1.397 . S
C1094 C1092 1.397 . S
C1094 C1095 1.384 . S
C1094 H1117 0.930 . S
C1095 C1094 1.384 . S
C1095 C1096 1.377 . S
C1095 C1098 1.481 . S
C1096 C1095 1.377 . S
C1096 C1097 1.389 . S
C1096 H1118 0.929 . S
C1097 C1093 1.397 . S
C1097 C1096 1.389 . S
C1097 H1119 0.931 . S
C1098 C1095 1.481 . S
C1098 C1099 1.387 . S
C1098 C1103 1.390 . S
C1099 C1098 1.387 . S
C1099 C1100 1.401 . S
C1099 H1120 0.930 . S
C1100 C1099 1.401 . S
C1100 C1101 1.376 . S
C1100 C1109 1.511 . S
C1101 C1100 1.376 . S
C1101 C1102 1.392 . S
C1101 H1122 0.931 . S
C1102 C1101 1.392 . S
C1102 C1103 1.361 . S
C1102 C1104 1.500 . S
C1103 C1098 1.390 . S
C1103 C1102 1.361 . S
C1103 H1121 0.931 . S
C1104 C1102 1.500 . S
C1104 C1105 1.371 . S
C1104 C1106 1.365 . S
C1105 C1104 1.371 . S
C1105 C1115 1.386 . S
C1105 H1123 0.931 . S
C1106 C1104 1.365 . S
C1106 C1107 1.409 . S
C1106 H1124 0.929 . S
C1107 C1106 1.409 . S
C1107 C1108 1.380 . S
C1107 H1125 0.930 . S
C1108 C1107 1.380 . S
C1108 C1115 1.357 . S
C1109 C1100 1.511 . S
C1109 C1110 1.341 . S
C1109 C1111 1.371 . S
C1110 C1109 1.341 . S
C1110 C1114 1.394 . S
C1110 H1126 0.930 . S
C1111 C1109 1.371 . S
C1111 C1112 1.392 . S
C1111 H1127 0.931 . S
C1112 C1111 1.392 . S
C1112 C1113 1.331 . S
C1112 H1130 0.932 . S
C1113 C1112 1.331 . S
C1113 C1114 1.336 . S
C1114 C1110 1.394 . S
C1114 C1113 1.336 . S
C1114 H1129 0.929 . S
C1115 C1105 1.386 . S
C1115 C1108 1.357 . S
C1115 H1128 0.928 . S
H1116 C1092 0.931 . S
H1117 C1094 0.930 . S
H1118 C1096 0.929 . S
H1119 C1097 0.931 . S
H1120 C1099 0.930 . S
H1121 C1103 0.931 . S
H1122 C1101 0.931 . S
H1123 C1105 0.931 . S
H1124 C1106 0.929 . S
H1125 C1107 0.930 . S
H1126 C1110 0.930 . S
H1127 C1111 0.931 . S
H1128 C1115 0.928 . S
H1129 C1114 0.929 . S
H1130 C1112 0.932 . S
C1131 C1132 1.386 . S
C1131 C1133 1.397 . S
C1131 H1155 0.931 . S
C1132 C1131 1.386 . S
C1132 C1136 1.397 . S
C1133 C1131 1.397 . S
C1133 C1134 1.384 . S
C1133 H1156 0.930 . S
C1134 C1133 1.384 . S
C1134 C1135 1.377 . S
C1134 C1137 1.481 . S
C1135 C1134 1.377 . S
C1135 C1136 1.389 . S
C1135 H1157 0.929 . S
C1136 C1132 1.397 . S
C1136 C1135 1.389 . S
C1136 H1158 0.931 . S
C1137 C1134 1.481 . S
C1137 C1138 1.387 . S
C1137 C1142 1.390 . S
C1138 C1137 1.387 . S
C1138 C1139 1.401 . S
C1138 H1159 0.930 . S
C1139 C1138 1.401 . S
C1139 C1140 1.376 . S
C1139 C1148 1.511 . S
C1140 C1139 1.376 . S
C1140 C1141 1.392 . S
C1140 H1161 0.931 . S
C1141 C1140 1.392 . S
C1141 C1142 1.361 . S
C1141 C1143 1.500 . S
C1142 C1137 1.390 . S
C1142 C1141 1.361 . S
C1142 H1160 0.931 . S
C1143 C1141 1.500 . S
C1143 C1144 1.371 . S
C1143 C1145 1.365 . S
C1144 C1143 1.371 . S
C1144 C1154 1.386 . S
C1144 H1162 0.931 . S
C1145 C1143 1.365 . S
C1145 C1146 1.409 . S
C1145 H1163 0.929 . S
C1146 C1145 1.409 . S
C1146 C1147 1.380 . S
C1146 H1164 0.930 . S
C1147 C1146 1.380 . S
C1147 C1154 1.357 . S
C1148 C1139 1.511 . S
C1148 C1149 1.341 . S
C1148 C1150 1.371 . S
C1149 C1148 1.341 . S
C1149 C1153 1.394 . S
C1149 H1165 0.930 . S
C1150 C1148 1.371 . S
C1150 C1151 1.392 . S
C1150 H1166 0.931 . S
C1151 C1150 1.392 . S
C1151 C1152 1.331 . S
C1151 H1169 0.932 . S
C1152 C1151 1.331 . S
C1152 C1153 1.336 . S
C1153 C1149 1.394 . S
C1153 C1152 1.336 . S
C1153 H1168 0.929 . S
C1154 C1144 1.386 . S
C1154 C1147 1.357 . S
C1154 H1167 0.928 . S
H1155 C1131 0.931 . S
H1156 C1133 0.930 . S
H1157 C1135 0.929 . S
H1158 C1136 0.931 . S
H1159 C1138 0.930 . S
H1160 C1142 0.931 . S
H1161 C1140 0.931 . S
H1162 C1144 0.931 . S
H1163 C1145 0.929 . S
H1164 C1146 0.930 . S
H1165 C1149 0.930 . S
H1166 C1150 0.931 . S
H1167 C1154 0.928 . S
H1168 C1153 0.929 . S
H1169 C1151 0.932 . S
C1170 C1171 1.386 . S
C1170 C1172 1.397 . S
C1170 H1194 0.931 . S
C1171 C1170 1.386 . S
C1171 C1175 1.397 . S
C1172 C1170 1.397 . S
C1172 C1173 1.384 . S
C1172 H1195 0.930 . S
C1173 C1172 1.384 . S
C1173 C1174 1.377 . S
C1173 C1176 1.481 . S
C1174 C1173 1.377 . S
C1174 C1175 1.389 . S
C1174 H1196 0.929 . S
C1175 C1171 1.397 . S
C1175 C1174 1.389 . S
C1175 H1197 0.931 . S
C1176 C1173 1.481 . S
C1176 C1177 1.387 . S
C1176 C1181 1.390 . S
C1177 C1176 1.387 . S
C1177 C1178 1.401 . S
C1177 H1198 0.930 . S
C1178 C1177 1.401 . S
C1178 C1179 1.376 . S
C1178 C1187 1.511 . S
C1179 C1178 1.376 . S
C1179 C1180 1.392 . S
C1179 H1200 0.931 . S
C1180 C1179 1.392 . S
C1180 C1181 1.361 . S
C1180 C1182 1.500 . S
C1181 C1176 1.390 . S
C1181 C1180 1.361 . S
C1181 H1199 0.931 . S
C1182 C1180 1.500 . S
C1182 C1183 1.371 . S
C1182 C1184 1.365 . S
C1183 C1182 1.371 . S
C1183 C1193 1.386 . S
C1183 H1201 0.931 . S
C1184 C1182 1.365 . S
C1184 C1185 1.409 . S
C1184 H1202 0.929 . S
C1185 C1184 1.409 . S
C1185 C1186 1.380 . S
C1185 H1203 0.930 . S
C1186 C1185 1.380 . S
C1186 C1193 1.357 . S
C1187 C1178 1.511 . S
C1187 C1188 1.341 . S
C1187 C1189 1.371 . S
C1188 C1187 1.341 . S
C1188 C1192 1.394 . S
C1188 H1204 0.930 . S
C1189 C1187 1.371 . S
C1189 C1190 1.392 . S
C1189 H1205 0.931 . S
C1190 C1189 1.392 . S
C1190 C1191 1.331 . S
C1190 H1208 0.932 . S
C1191 C1190 1.331 . S
C1191 C1192 1.336 . S
C1192 C1188 1.394 . S
C1192 C1191 1.336 . S
C1192 H1207 0.929 . S
C1193 C1183 1.386 . S
C1193 C1186 1.357 . S
C1193 H1206 0.928 . S
H1194 C1170 0.931 . S
H1195 C1172 0.930 . S
H1196 C1174 0.929 . S
H1197 C1175 0.931 . S
H1198 C1177 0.930 . S
H1199 C1181 0.931 . S
H1200 C1179 0.931 . S
H1201 C1183 0.931 . S
H1202 C1184 0.929 . S
H1203 C1185 0.930 . S
H1204 C1188 0.930 . S
H1205 C1189 0.931 . S
H1206 C1193 0.928 . S
H1207 C1192 0.929 . S
H1208 C1190 0.932 . S
C1209 C1210 1.386 . S
C1209 C1211 1.397 . S
C1209 H1233 0.931 . S
C1210 C1209 1.386 . S
C1210 C1214 1.397 . S
C1211 C1209 1.397 . S
C1211 C1212 1.384 . S
C1211 H1234 0.930 . S
C1212 C1211 1.384 . S
C1212 C1213 1.377 . S
C1212 C1215 1.481 . S
C1213 C1212 1.377 . S
C1213 C1214 1.389 . S
C1213 H1235 0.929 . S
C1214 C1210 1.397 . S
C1214 C1213 1.389 . S
C1214 H1236 0.931 . S
C1215 C1212 1.481 . S
C1215 C1216 1.387 . S
C1215 C1220 1.390 . S
C1216 C1215 1.387 . S
C1216 C1217 1.401 . S
C1216 H1237 0.930 . S
C1217 C1216 1.401 . S
C1217 C1218 1.376 . S
C1217 C1226 1.511 . S
C1218 C1217 1.376 . S
C1218 C1219 1.392 . S
C1218 H1239 0.931 . S
C1219 C1218 1.392 . S
C1219 C1220 1.361 . S
C1219 C1221 1.500 . S
C1220 C1215 1.390 . S
C1220 C1219 1.361 . S
C1220 H1238 0.931 . S
C1221 C1219 1.500 . S
C1221 C1222 1.371 . S
C1221 C1223 1.365 . S
C1222 C1221 1.371 . S
C1222 C1232 1.386 . S
C1222 H1240 0.931 . S
C1223 C1221 1.365 . S
C1223 C1224 1.409 . S
C1223 H1241 0.929 . S
C1224 C1223 1.409 . S
C1224 C1225 1.380 . S
C1224 H1242 0.930 . S
C1225 C1224 1.380 . S
C1225 C1232 1.357 . S
C1226 C1217 1.511 . S
C1226 C1227 1.341 . S
C1226 C1228 1.371 . S
C1227 C1226 1.341 . S
C1227 C1231 1.394 . S
C1227 H1243 0.930 . S
C1228 C1226 1.371 . S
C1228 C1229 1.392 . S
C1228 H1244 0.931 . S
C1229 C1228 1.392 . S
C1229 C1230 1.331 . S
C1229 H1247 0.932 . S
C1230 C1229 1.331 . S
C1230 C1231 1.336 . S
C1231 C1227 1.394 . S
C1231 C1230 1.336 . S
C1231 H1246 0.929 . S
C1232 C1222 1.386 . S
C1232 C1225 1.357 . S
C1232 H1245 0.928 . S
H1233 C1209 0.931 . S
H1234 C1211 0.930 . S
H1235 C1213 0.929 . S
H1236 C1214 0.931 . S
H1237 C1216 0.930 . S
H1238 C1220 0.931 . S
H1239 C1218 0.931 . S
H1240 C1222 0.931 . S
H1241 C1223 0.929 . S
H1242 C1224 0.930 . S
H1243 C1227 0.930 . S
H1244 C1228 0.931 . S
H1245 C1232 0.928 . S
H1246 C1231 0.929 . S
H1247 C1229 0.932 . S
Cu1248 N1249 1.999 . S
Cu1248 O1254 1.974 1_554 S
Cu1248 N1259 1.985 . S
Cu1248 O1268 1.959 . S
N1249 Cu1248 1.999 . S
N1249 C1251 1.263 1_554 S
N1249 C1253 1.389 . S
N1250 C1251 1.358 . S
N1250 C1252 1.400 . S
C1251 N1249 1.263 1_556 S
C1251 N1250 1.358 . S
C1251 H1257 0.930 . S
C1252 N1250 1.400 . S
C1252 C1253 1.351 1_556 S
C1252 H1269 0.930 . S
C1253 N1249 1.389 . S
C1253 C1252 1.351 1_554 S
C1253 H1258 0.930 . S
O1254 Cu1248 1.974 1_556 S
O1254 C1264 1.282 . S
C1255 O1256 1.261 . S
C1255 O1268 1.251 . S
O1256 C1255 1.261 . S
H1257 C1251 0.930 . S
H1258 C1253 0.930 . S
N1259 Cu1248 1.985 . S
N1259 C1261 1.335 . S
N1259 C1262 1.390 . S
N1260 C1261 1.345 . S
N1260 C1263 1.336 . S
C1261 N1259 1.335 . S
C1261 N1260 1.345 . S
C1261 H1266 0.930 . S
C1262 N1259 1.390 . S
C1262 C1263 1.346 . S
C1262 H1267 0.930 . S
C1263 N1260 1.336 . S
C1263 C1262 1.346 . S
C1263 H1270 0.929 . S
C1264 O1254 1.282 . S
C1264 O1265 1.216 . S
O1265 C1264 1.216 . S
H1266 C1261 0.930 . S
H1267 C1262 0.930 . S
O1268 Cu1248 1.959 . S
O1268 C1255 1.251 . S
H1269 C1252 0.930 . S
H1270 C1263 0.929 . S
Cu1271 N1272 1.999 . S
Cu1271 O1277 1.974 . S
Cu1271 N1282 1.985 1_554 S
Cu1271 O1291 1.959 1_554 S
N1272 Cu1271 1.999 . S
N1272 C1274 1.263 . S
N1272 C1276 1.389 . S
N1273 C1274 1.358 . S
N1273 C1275 1.400 . S
C1274 N1272 1.263 . S
C1274 N1273 1.358 . S
C1274 H1280 0.930 . S
C1275 N1273 1.400 . S
C1275 C1276 1.351 . S
C1275 H1292 0.930 . S
C1276 N1272 1.389 . S
C1276 C1275 1.351 . S
C1276 H1281 0.930 . S
O1277 Cu1271 1.974 . S
O1277 C1287 1.282 . S
C1278 O1279 1.261 . S
C1278 O1291 1.251 . S
O1279 C1278 1.261 . S
H1280 C1274 0.930 . S
H1281 C1276 0.930 . S
N1282 Cu1271 1.985 1_556 S
N1282 C1284 1.335 . S
N1282 C1285 1.390 . S
N1283 C1284 1.345 . S
N1283 C1286 1.336 . S
C1284 N1282 1.335 . S
C1284 N1283 1.345 . S
C1284 H1289 0.930 . S
C1285 N1282 1.390 . S
C1285 C1286 1.346 . S
C1285 H1290 0.930 1_556 S
C1286 N1283 1.336 . S
C1286 C1285 1.346 . S
C1286 H1293 0.929 . S
C1287 O1277 1.282 . S
C1287 O1288 1.216 . S
O1288 C1287 1.216 . S
H1289 C1284 0.930 . S
H1290 C1285 0.930 1_554 S
O1291 Cu1271 1.959 1_556 S
O1291 C1278 1.251 . S
H1292 C1275 0.930 . S
H1293 C1286 0.929 . S
Cu1294 N1295 1.965 1_554 S
Cu1294 O1300 1.932 1_554 S
Cu1294 N1305 2.019 . S
Cu1294 O1314 2.001 . S
N1295 Cu1294 1.965 1_556 S
N1295 C1297 1.263 . S
N1295 C1299 1.389 . S
N1296 C1297 1.358 . S
N1296 C1298 1.400 . S
C1297 N1295 1.263 . S
C1297 N1296 1.358 . S
C1297 H1303 0.930 . S
C1298 N1296 1.400 . S
C1298 C1299 1.351 . S
C1298 H1315 0.930 . S
C1299 N1295 1.389 . S
C1299 C1298 1.351 . S
C1299 H1304 0.930 . S
O1300 Cu1294 1.932 1_556 S
O1300 C1310 1.282 . S
C1301 O1302 1.261 . S
C1301 O1314 1.251 . S
O1302 C1301 1.261 . S
H1303 C1297 0.930 . S
H1304 C1299 0.930 . S
N1305 Cu1294 2.019 . S
N1305 C1307 1.335 . S
N1305 C1308 1.390 . S
N1306 C1307 1.345 . S
N1306 C1309 1.336 . S
C1307 N1305 1.335 . S
C1307 N1306 1.345 . S
C1307 H1312 0.930 . S
C1308 N1305 1.390 . S
C1308 C1309 1.346 . S
C1308 H1313 0.965 . S
C1309 N1306 1.336 . S
C1309 C1308 1.346 . S
C1309 H1316 0.929 . S
C1310 O1300 1.282 . S
C1310 O1311 1.216 . S
O1311 C1310 1.216 . S
H1312 C1307 0.930 . S
H1313 C1308 0.965 . S
O1314 Cu1294 2.001 . S
O1314 C1301 1.251 . S
H1315 C1298 0.930 . S
H1316 C1309 0.929 . S
Cu1317 N1318 2.047 . S
Cu1317 O1323 2.030 . S
Cu1317 N1328 1.941 1_554 S
Cu1317 O1337 1.905 1_554 S
N1318 Cu1317 2.047 . S
N1318 C1320 1.263 . S
N1318 C1322 1.389 . S
N1319 C1320 1.358 . S
N1319 C1321 1.400 . S
C1320 N1318 1.263 . S
C1320 N1319 1.358 . S
C1320 H1326 0.930 . S
C1321 N1319 1.400 . S
C1321 C1322 1.351 . S
C1321 H1338 0.930 . S
C1322 N1318 1.389 . S
C1322 C1321 1.351 . S
C1322 H1327 0.930 . S
O1323 Cu1317 2.030 . S
O1323 C1333 1.282 . S
C1324 O1325 1.261 . S
C1324 O1337 1.251 . S
O1325 C1324 1.261 . S
H1326 C1320 0.930 . S
H1327 C1322 0.930 . S
N1328 Cu1317 1.941 1_556 S
N1328 C1330 1.335 . S
N1328 C1331 1.390 . S
N1329 C1330 1.345 . S
N1329 C1332 1.336 . S
C1330 N1328 1.335 . S
C1330 N1329 1.345 . S
C1330 H1335 0.930 . S
C1331 N1328 1.390 . S
C1331 C1332 1.346 . S
C1331 H1336 0.881 1_556 S
C1332 N1329 1.336 . S
C1332 C1331 1.346 . S
C1332 H1339 0.929 . S
C1333 O1323 1.282 . S
C1333 O1334 1.216 . S
O1334 C1333 1.216 . S
H1335 C1330 0.930 . S
H1336 C1331 0.881 1_554 S
O1337 Cu1317 1.905 1_556 S
O1337 C1324 1.251 . S
H1338 C1321 0.930 . S
H1339 C1332 0.929 . S
Cu1340 N1341 1.999 . S
Cu1340 O1346 1.974 . S
Cu1340 N1351 1.985 1_455 S
Cu1340 O1360 1.959 1_455 S
N1341 Cu1340 1.999 . S
N1341 C1343 1.263 . S
N1341 C1345 1.389 . S
N1342 C1343 1.358 . S
N1342 C1344 1.400 . S
C1343 N1341 1.263 . S
C1343 N1342 1.358 . S
C1343 H1349 0.930 . S
C1344 N1342 1.400 . S
C1344 C1345 1.351 . S
C1344 H1361 0.930 . S
C1345 N1341 1.389 . S
C1345 C1344 1.351 . S
C1345 H1350 0.930 . S
O1346 Cu1340 1.974 . S
O1346 C1356 1.282 . S
C1347 O1348 1.261 . S
C1347 O1360 1.251 . S
O1348 C1347 1.261 . S
H1349 C1343 0.930 . S
H1350 C1345 0.930 . S
N1351 Cu1340 1.985 1_655 S
N1351 C1353 1.335 . S
N1351 C1354 1.388 1_655 S
N1352 C1353 1.345 . S
N1352 C1355 1.336 . S
C1353 N1351 1.335 . S
C1353 N1352 1.345 . S
C1353 H1358 0.930 . S
C1354 N1351 1.388 1_455 S
C1354 C1355 1.336 1_455 S
C1354 H1359 0.941 . S
C1355 N1352 1.336 . S
C1355 C1354 1.336 1_655 S
C1355 H1362 0.929 . S
C1356 O1346 1.282 . S
C1356 O1357 1.216 . S
O1357 C1356 1.216 . S
H1358 C1353 0.930 . S
H1359 C1354 0.941 . S
O1360 Cu1340 1.959 1_655 S
O1360 C1347 1.251 . S
H1361 C1344 0.930 . S
H1362 C1355 0.929 . S
Cu1363 N1364 1.999 . S
Cu1363 O1369 1.974 . S
Cu1363 N1374 1.985 1_545 S
Cu1363 O1383 1.959 1_545 S
N1364 Cu1363 1.999 . S
N1364 C1366 1.263 . S
N1364 C1368 1.389 . S
N1365 C1366 1.358 . S
N1365 C1367 1.400 . S
C1366 N1364 1.263 . S
C1366 N1365 1.358 . S
C1366 H1372 0.930 . S
C1367 N1365 1.400 . S
C1367 C1368 1.351 . S
C1367 H1384 0.930 . S
C1368 N1364 1.389 . S
C1368 C1367 1.351 . S
C1368 H1373 0.930 . S
O1369 Cu1363 1.974 . S
O1369 C1379 1.282 . S
C1370 O1371 1.261 . S
C1370 O1383 1.251 . S
O1371 C1370 1.261 . S
H1372 C1366 0.930 . S
H1373 C1368 0.930 . S
N1374 Cu1363 1.985 1_565 S
N1374 C1376 1.335 . S
N1374 C1377 1.390 . S
N1375 C1376 1.345 . S
N1375 C1378 1.336 . S
C1376 N1374 1.335 . S
C1376 N1375 1.345 . S
C1376 H1381 0.930 . S
C1377 N1374 1.390 . S
C1377 C1378 1.346 . S
C1377 H1382 0.930 1_565 S
C1378 N1375 1.336 . S
C1378 C1377 1.346 . S
C1378 H1385 0.929 . S
C1379 O1369 1.282 . S
C1379 O1380 1.216 . S
O1380 C1379 1.216 . S
H1381 C1376 0.930 . S
H1382 C1377 0.930 1_545 S
O1383 Cu1363 1.959 1_565 S
O1383 C1370 1.251 . S
H1384 C1367 0.930 . S
H1385 C1378 0.929 . S
Cu1386 N1387 2.003 1_455 S
Cu1386 O1392 1.978 1_455 S
Cu1386 N1397 1.982 . S
Cu1386 O1406 1.955 . S
N1387 Cu1386 2.003 1_655 S
N1387 C1389 1.263 . S
N1387 C1391 1.389 . S
N1388 C1389 1.358 . S
N1388 C1390 1.400 . S
C1389 N1387 1.263 . S
C1389 N1388 1.358 . S
C1389 H1395 0.930 . S
C1390 N1388 1.400 . S
C1390 C1391 1.351 . S
C1390 H1407 0.930 . S
C1391 N1387 1.389 . S
C1391 C1390 1.351 . S
C1391 H1396 0.930 . S
O1392 Cu1386 1.978 1_655 S
O1392 C1402 1.282 . S
C1393 O1394 1.261 . S
C1393 O1406 1.251 . S
O1394 C1393 1.261 . S
H1395 C1389 0.930 . S
H1396 C1391 0.930 . S
N1397 Cu1386 1.982 . S
N1397 C1399 1.335 . S
N1397 C1400 1.390 . S
N1398 C1399 1.345 . S
N1398 C1401 1.336 . S
C1399 N1397 1.335 . S
C1399 N1398 1.345 . S
C1399 H1404 0.930 . S
C1400 N1397 1.390 . S
C1400 C1401 1.346 . S
C1400 H1405 0.930 . S
C1401 N1398 1.336 . S
C1401 C1400 1.346 . S
C1401 H1408 0.929 . S
C1402 O1392 1.282 . S
C1402 O1403 1.216 . S
O1403 C1402 1.216 . S
H1404 C1399 0.930 . S
H1405 C1400 0.930 . S
O1406 Cu1386 1.955 . S
O1406 C1393 1.251 . S
H1407 C1390 0.930 . S
H1408 C1401 0.929 . S
Cu1409 N1410 1.986 1_565 S
Cu1409 O1415 1.957 1_565 S
Cu1409 N1420 1.998 . S
Cu1409 O1429 1.976 . S
N1410 Cu1409 1.986 1_545 S
N1410 C1412 1.263 . S
N1410 C1414 1.389 . S
N1411 C1412 1.358 . S
N1411 C1413 1.400 . S
C1412 N1410 1.263 . S
C1412 N1411 1.358 . S
C1412 H1418 0.930 . S
C1413 N1411 1.400 . S
C1413 C1414 1.351 . S
C1413 H1430 0.930 . S
C1414 N1410 1.389 . S
C1414 C1413 1.351 . S
C1414 H1419 0.930 . S
O1415 Cu1409 1.957 1_545 S
O1415 C1425 1.282 . S
C1416 O1417 1.261 . S
C1416 O1429 1.251 . S
O1417 C1416 1.261 . S
H1418 C1412 0.930 . S
H1419 C1414 0.930 . S
N1420 Cu1409 1.998 . S
N1420 C1422 1.335 . S
N1420 C1423 1.390 . S
N1421 C1422 1.345 . S
N1421 C1424 1.336 . S
C1422 N1420 1.335 . S
C1422 N1421 1.345 . S
C1422 H1427 0.930 . S
C1423 N1420 1.390 . S
C1423 C1424 1.346 . S
C1423 H1428 0.930 . S
C1424 N1421 1.336 . S
C1424 C1423 1.346 . S
C1424 H1431 0.929 . S
C1425 O1415 1.282 . S
C1425 O1426 1.216 . S
O1426 C1425 1.216 . S
H1427 C1422 0.930 . S
H1428 C1423 0.930 . S
O1429 Cu1409 1.976 . S
O1429 C1416 1.251 . S
H1430 C1413 0.930 . S
H1431 C1424 0.929 . S
Cu1432 N1433 1.999 . S
Cu1432 O1438 1.974 . S
Cu1432 N1443 1.985 1_455 S
Cu1432 O1452 1.959 1_455 S
N1433 Cu1432 1.999 . S
N1433 C1435 1.263 . S
N1433 C1437 1.389 . S
N1434 C1435 1.358 . S
N1434 C1436 1.400 . S
C1435 N1433 1.263 . S
C1435 N1434 1.358 . S
C1435 H1441 0.930 . S
C1436 N1434 1.400 . S
C1436 C1437 1.351 . S
C1436 H1453 0.930 . S
C1437 N1433 1.389 . S
C1437 C1436 1.351 . S
C1437 H1442 0.930 . S
O1438 Cu1432 1.974 . S
O1438 C1448 1.282 . S
C1439 O1440 1.261 . S
C1439 O1452 1.251 . S
O1440 C1439 1.261 . S
H1441 C1435 0.930 . S
H1442 C1437 0.930 . S
N1443 Cu1432 1.985 1_655 S
N1443 C1445 1.335 . S
N1443 C1446 1.395 . S
N1444 C1445 1.345 . S
N1444 C1447 1.336 . S
C1445 N1443 1.335 . S
C1445 N1444 1.345 . S
C1445 H1450 0.930 . S
C1446 N1443 1.395 . S
C1446 C1447 1.366 . S
C1446 H1451 0.910 1_655 S
C1447 N1444 1.336 . S
C1447 C1446 1.366 . S
C1447 H1454 0.929 . S
C1448 O1438 1.282 . S
C1448 O1449 1.216 . S
O1449 C1448 1.216 . S
H1450 C1445 0.930 . S
H1451 C1446 0.910 1_455 S
O1452 Cu1432 1.959 1_655 S
O1452 C1439 1.251 . S
H1453 C1436 0.930 . S
H1454 C1447 0.929 . S
Cu1455 N1456 1.999 . S
Cu1455 O1461 1.974 . S
Cu1455 N1466 1.985 1_545 S
Cu1455 O1475 1.959 1_545 S
N1456 Cu1455 1.999 . S
N1456 C1458 1.263 . S
N1456 C1460 1.389 . S
N1457 C1458 1.358 . S
N1457 C1459 1.400 . S
C1458 N1456 1.263 . S
C1458 N1457 1.358 . S
C1458 H1464 0.930 . S
C1459 N1457 1.400 . S
C1459 C1460 1.351 . S
C1459 H1476 0.930 . S
C1460 N1456 1.389 . S
C1460 C1459 1.351 . S
C1460 H1465 0.930 . S
O1461 Cu1455 1.974 . S
O1461 C1471 1.282 . S
C1462 O1463 1.261 . S
C1462 O1475 1.251 . S
O1463 C1462 1.261 . S
H1464 C1458 0.930 . S
H1465 C1460 0.930 . S
N1466 Cu1455 1.985 1_565 S
N1466 C1468 1.335 . S
N1466 C1469 1.378 1_565 S
N1467 C1468 1.345 . S
N1467 C1470 1.336 . S
C1468 N1466 1.335 . S
C1468 N1467 1.345 . S
C1468 H1473 0.930 . S
C1469 N1466 1.378 1_545 S
C1469 C1470 1.281 1_545 S
C1469 H1474 0.999 . S
C1470 N1467 1.336 . S
C1470 C1469 1.281 1_565 S
C1470 H1477 0.929 . S
C1471 O1461 1.282 . S
C1471 O1472 1.216 . S
O1472 C1471 1.216 . S
H1473 C1468 0.930 . S
H1474 C1469 0.999 . S
O1475 Cu1455 1.959 1_565 S
O1475 C1462 1.251 . S
H1476 C1459 0.930 . S
H1477 C1470 0.929 . S
Cu1478 N1479 1.999 . S
Cu1478 O1484 1.974 . S
Cu1478 N1489 1.985 . S
Cu1478 O1498 1.959 . S
N1479 Cu1478 1.999 . S
N1479 C1481 1.263 1_455 S
N1479 C1483 1.389 . S
N1480 C1481 1.358 . S
N1480 C1482 1.400 . S
C1481 N1479 1.263 1_655 S
C1481 N1480 1.358 . S
C1481 H1487 0.930 . S
C1482 N1480 1.400 . S
C1482 C1483 1.351 1_655 S
C1482 H1499 0.930 . S
C1483 N1479 1.389 . S
C1483 C1482 1.351 1_455 S
C1483 H1488 0.930 . S
O1484 Cu1478 1.974 . S
O1484 C1494 1.282 1_455 S
C1485 O1486 1.261 . S
C1485 O1498 1.251 . S
O1486 C1485 1.261 . S
H1487 C1481 0.930 . S
H1488 C1483 0.930 . S
N1489 Cu1478 1.985 . S
N1489 C1491 1.335 . S
N1489 C1492 1.390 . S
N1490 C1491 1.345 . S
N1490 C1493 1.336 . S
C1491 N1489 1.335 . S
C1491 N1490 1.345 . S
C1491 H1496 0.930 . S
C1492 N1489 1.390 . S
C1492 C1493 1.346 . S
C1492 H1497 0.930 . S
C1493 N1490 1.336 . S
C1493 C1492 1.346 . S
C1493 H1500 0.929 . S
C1494 O1484 1.282 1_655 S
C1494 O1495 1.216 1_655 S
O1495 C1494 1.216 1_455 S
H1496 C1491 0.930 . S
H1497 C1492 0.930 . S
O1498 Cu1478 1.959 . S
O1498 C1485 1.251 . S
H1499 C1482 0.930 . S
H1500 C1493 0.929 . S
Cu1501 N1502 1.999 . S
Cu1501 O1507 1.974 . S
Cu1501 N1512 2.019 . S
Cu1501 O1521 1.959 1_545 S
N1502 Cu1501 1.999 . S
N1502 C1504 1.263 . S
N1502 C1506 1.389 . S
N1503 C1504 1.358 . S
N1503 C1505 1.400 . S
C1504 N1502 1.263 . S
C1504 N1503 1.358 . S
C1504 H1510 0.930 . S
C1505 N1503 1.400 . S
C1505 C1506 1.351 . S
C1505 H1522 0.930 . S
C1506 N1502 1.389 . S
C1506 C1505 1.351 . S
C1506 H1511 0.930 . S
O1507 Cu1501 1.974 . S
O1507 C1517 1.282 . S
C1508 O1509 1.243 1_565 S
C1508 O1521 1.251 . S
O1509 C1508 1.243 1_545 S
H1510 C1504 0.930 . S
H1511 C1506 0.930 . S
N1512 Cu1501 2.019 . S
N1512 C1514 1.281 1_545 S
N1512 C1515 1.404 . S
N1513 C1514 1.345 . S
N1513 C1516 1.336 . S
C1514 N1512 1.281 1_565 S
C1514 N1513 1.345 . S
C1514 H1519 0.930 . S
C1515 N1512 1.404 . S
C1515 C1516 1.346 1_545 S
C1515 H1520 0.930 . S
C1516 N1513 1.336 . S
C1516 C1515 1.346 1_565 S
C1516 H1523 0.929 . S
C1517 O1507 1.282 . S
C1517 O1518 1.216 . S
O1518 C1517 1.216 . S
H1519 C1514 0.930 . S
H1520 C1515 0.930 . S
O1521 Cu1501 1.959 1_565 S
O1521 C1508 1.251 . S
H1522 C1505 0.930 . S
H1523 C1516 0.929 . S
Cu1524 N1525 1.999 . S
Cu1524 O1530 1.974 . S
Cu1524 N1535 1.985 . S
Cu1524 O1544 1.959 . S
N1525 Cu1524 1.999 . S
N1525 C1527 1.263 . S
N1525 C1529 1.389 . S
N1526 C1527 1.358 . S
N1526 C1528 1.400 . S
C1527 N1525 1.263 . S
C1527 N1526 1.358 . S
C1527 H1533 0.930 . S
C1528 N1526 1.400 . S
C1528 C1529 1.351 . S
C1528 H1545 0.930 . S
C1529 N1525 1.389 . S
C1529 C1528 1.351 . S
C1529 H1534 0.930 . S
O1530 Cu1524 1.974 . S
O1530 C1540 1.282 . S
C1531 O1532 1.261 . S
C1531 O1544 1.251 . S
O1532 C1531 1.261 . S
H1533 C1527 0.930 . S
H1534 C1529 0.930 . S
N1535 Cu1524 1.985 . S
N1535 C1537 1.335 . S
N1535 C1538 1.390 . S
N1536 C1537 1.345 . S
N1536 C1539 1.336 . S
C1537 N1535 1.335 . S
C1537 N1536 1.345 . S
C1537 H1542 0.930 . S
C1538 N1535 1.390 . S
C1538 C1539 1.346 . S
C1538 H1543 0.930 . S
C1539 N1536 1.336 . S
C1539 C1538 1.346 . S
C1539 H1546 0.929 . S
C1540 O1530 1.282 . S
C1540 O1541 1.216 . S
O1541 C1540 1.216 . S
H1542 C1537 0.930 . S
H1543 C1538 0.930 . S
O1544 Cu1524 1.959 . S
O1544 C1531 1.251 . S
H1545 C1528 0.930 . S
H1546 C1539 0.929 . S
Cu1547 N1548 1.999 . S
Cu1547 O1553 1.974 . S
Cu1547 N1558 1.985 . S
Cu1547 O1567 1.959 . S
N1548 Cu1547 1.999 . S
N1548 C1550 1.263 . S
N1548 C1552 1.389 . S
N1549 C1550 1.358 . S
N1549 C1551 1.400 . S
C1550 N1548 1.263 . S
C1550 N1549 1.358 . S
C1550 H1556 0.930 . S
C1551 N1549 1.400 . S
C1551 C1552 1.351 . S
C1551 H1568 0.930 . S
C1552 N1548 1.389 . S
C1552 C1551 1.351 . S
C1552 H1557 0.930 . S
O1553 Cu1547 1.974 . S
O1553 C1563 1.282 . S
C1554 O1555 1.261 . S
C1554 O1567 1.251 . S
O1555 C1554 1.261 . S
H1556 C1550 0.930 . S
H1557 C1552 0.930 . S
N1558 Cu1547 1.985 . S
N1558 C1560 1.335 . S
N1558 C1561 1.390 . S
N1559 C1560 1.345 . S
N1559 C1562 1.336 . S
C1560 N1558 1.335 . S
C1560 N1559 1.345 . S
C1560 H1565 0.930 . S
C1561 N1558 1.390 . S
C1561 C1562 1.346 . S
C1561 H1566 0.930 . S
C1562 N1559 1.336 . S
C1562 C1561 1.346 . S
C1562 H1569 0.929 . S
C1563 O1553 1.282 . S
C1563 O1564 1.216 . S
O1564 C1563 1.216 . S
H1565 C1560 0.930 . S
H1566 C1561 0.930 . S
O1567 Cu1547 1.959 . S
O1567 C1554 1.251 . S
H1568 C1551 0.930 . S
H1569 C1562 0.929 . S
Cu1570 N1571 1.999 . S
Cu1570 O1576 1.974 . S
Cu1570 N1581 1.985 . S
Cu1570 O1590 1.959 . S
N1571 Cu1570 1.999 . S
N1571 C1573 1.263 . S
N1571 C1575 1.389 . S
N1572 C1573 1.358 . S
N1572 C1574 1.400 . S
C1573 N1571 1.263 . S
C1573 N1572 1.358 . S
C1573 H1579 0.930 . S
C1574 N1572 1.400 . S
C1574 C1575 1.351 . S
C1574 H1591 0.930 . S
C1575 N1571 1.389 . S
C1575 C1574 1.351 . S
C1575 H1580 0.930 . S
O1576 Cu1570 1.974 . S
O1576 C1586 1.282 . S
C1577 O1578 1.261 . S
C1577 O1590 1.251 . S
O1578 C1577 1.261 . S
H1579 C1573 0.930 . S
H1580 C1575 0.930 . S
N1581 Cu1570 1.985 . S
N1581 C1583 1.335 . S
N1581 C1584 1.390 . S
N1582 C1583 1.345 . S
N1582 C1585 1.336 . S
C1583 N1581 1.335 . S
C1583 N1582 1.345 . S
C1583 H1588 0.930 . S
C1584 N1581 1.390 . S
C1584 C1585 1.346 . S
C1584 H1589 0.930 . S
C1585 N1582 1.336 . S
C1585 C1584 1.346 . S
C1585 H1592 0.929 . S
C1586 O1576 1.282 . S
C1586 O1587 1.216 . S
O1587 C1586 1.216 . S
H1588 C1583 0.930 . S
H1589 C1584 0.930 . S
O1590 Cu1570 1.959 . S
O1590 C1577 1.251 . S
H1591 C1574 0.930 . S
H1592 C1585 0.929 . S
Cu1593 N1594 1.999 . S
Cu1593 O1599 1.974 . S
Cu1593 N1604 1.985 . S
Cu1593 O1613 1.959 . S
N1594 Cu1593 1.999 . S
N1594 C1596 1.263 . S
N1594 C1598 1.389 . S
N1595 C1596 1.358 . S
N1595 C1597 1.400 . S
C1596 N1594 1.263 . S
C1596 N1595 1.358 . S
C1596 H1602 0.930 . S
C1597 N1595 1.400 . S
C1597 C1598 1.351 . S
C1597 H1614 0.930 . S
C1598 N1594 1.389 . S
C1598 C1597 1.351 . S
C1598 H1603 0.930 . S
O1599 Cu1593 1.974 . S
O1599 C1609 1.282 . S
C1600 O1601 1.261 . S
C1600 O1613 1.251 . S
O1601 C1600 1.261 . S
H1602 C1596 0.930 . S
H1603 C1598 0.930 . S
N1604 Cu1593 1.985 . S
N1604 C1606 1.335 . S
N1604 C1607 1.390 . S
N1605 C1606 1.345 . S
N1605 C1608 1.336 . S
C1606 N1604 1.335 . S
C1606 N1605 1.345 . S
C1606 H1611 0.930 . S
C1607 N1604 1.390 . S
C1607 C1608 1.346 . S
C1607 H1612 0.930 . S
C1608 N1605 1.336 . S
C1608 C1607 1.346 . S
C1608 H1615 0.929 . S
C1609 O1599 1.282 . S
C1609 O1610 1.216 . S
O1610 C1609 1.216 . S
H1611 C1606 0.930 . S
H1612 C1607 0.930 . S
O1613 Cu1593 1.959 . S
O1613 C1600 1.251 . S
H1614 C1597 0.930 . S
H1615 C1608 0.929 . S
Cu1616 N1617 1.999 . S
Cu1616 O1622 1.974 . S
Cu1616 N1627 1.985 . S
Cu1616 O1636 1.959 . S
N1617 Cu1616 1.999 . S
N1617 C1619 1.263 . S
N1617 C1621 1.389 . S
N1618 C1619 1.358 . S
N1618 C1620 1.400 . S
C1619 N1617 1.263 . S
C1619 N1618 1.358 . S
C1619 H1625 0.930 . S
C1620 N1618 1.400 . S
C1620 C1621 1.351 . S
C1620 H1637 0.930 . S
C1621 N1617 1.389 . S
C1621 C1620 1.351 . S
C1621 H1626 0.930 . S
O1622 Cu1616 1.974 . S
O1622 C1632 1.282 . S
C1623 O1624 1.261 . S
C1623 O1636 1.251 . S
O1624 C1623 1.261 . S
H1625 C1619 0.930 . S
H1626 C1621 0.930 . S
N1627 Cu1616 1.985 . S
N1627 C1629 1.335 . S
N1627 C1630 1.390 . S
N1628 C1629 1.345 . S
N1628 C1631 1.336 . S
C1629 N1627 1.335 . S
C1629 N1628 1.345 . S
C1629 H1634 0.930 . S
C1630 N1627 1.390 . S
C1630 C1631 1.346 . S
C1630 H1635 0.930 . S
C1631 N1628 1.336 . S
C1631 C1630 1.346 . S
C1631 H1638 0.929 . S
C1632 O1622 1.282 . S
C1632 O1633 1.216 . S
O1633 C1632 1.216 . S
H1634 C1629 0.930 . S
H1635 C1630 0.930 . S
O1636 Cu1616 1.959 . S
O1636 C1623 1.251 . S
H1637 C1620 0.930 . S
H1638 C1631 0.929 . S
Cu1639 N1640 1.999 . S
Cu1639 O1645 1.974 . S
Cu1639 N1650 1.985 . S
Cu1639 O1659 1.959 . S
N1640 Cu1639 1.999 . S
N1640 C1642 1.263 . S
N1640 C1644 1.389 . S
N1641 C1642 1.358 . S
N1641 C1643 1.400 . S
C1642 N1640 1.263 . S
C1642 N1641 1.358 . S
C1642 H1648 0.930 . S
C1643 N1641 1.400 . S
C1643 C1644 1.351 . S
C1643 H1660 0.930 . S
C1644 N1640 1.389 . S
C1644 C1643 1.351 . S
C1644 H1649 0.930 . S
O1645 Cu1639 1.974 . S
O1645 C1655 1.282 . S
C1646 O1647 1.261 . S
C1646 O1659 1.251 . S
O1647 C1646 1.261 . S
H1648 C1642 0.930 . S
H1649 C1644 0.930 . S
N1650 Cu1639 1.985 . S
N1650 C1652 1.335 . S
N1650 C1653 1.390 . S
N1651 C1652 1.345 . S
N1651 C1654 1.336 . S
C1652 N1650 1.335 . S
C1652 N1651 1.345 . S
C1652 H1657 0.930 . S
C1653 N1650 1.390 . S
C1653 C1654 1.346 . S
C1653 H1658 0.930 . S
C1654 N1651 1.336 . S
C1654 C1653 1.346 . S
C1654 H1661 0.929 . S
C1655 O1645 1.282 . S
C1655 O1656 1.216 . S
O1656 C1655 1.216 . S
H1657 C1652 0.930 . S
H1658 C1653 0.930 . S
O1659 Cu1639 1.959 . S
O1659 C1646 1.251 . S
H1660 C1643 0.930 . S
H1661 C1654 0.929 . S
Cu1662 N1663 1.999 . S
Cu1662 O1668 1.974 . S
Cu1662 N1673 1.985 . S
Cu1662 O1682 1.959 . S
N1663 Cu1662 1.999 . S
N1663 C1665 1.263 . S
N1663 C1667 1.389 . S
N1664 C1665 1.358 . S
N1664 C1666 1.400 . S
C1665 N1663 1.263 . S
C1665 N1664 1.358 . S
C1665 H1671 0.930 . S
C1666 N1664 1.400 . S
C1666 C1667 1.351 . S
C1666 H1683 0.930 . S
C1667 N1663 1.389 . S
C1667 C1666 1.351 . S
C1667 H1672 0.930 . S
O1668 Cu1662 1.974 . S
O1668 C1678 1.282 . S
C1669 O1670 1.261 . S
C1669 O1682 1.251 . S
O1670 C1669 1.261 . S
H1671 C1665 0.930 . S
H1672 C1667 0.930 . S
N1673 Cu1662 1.985 . S
N1673 C1675 1.335 . S
N1673 C1676 1.390 . S
N1674 C1675 1.345 . S
N1674 C1677 1.336 . S
C1675 N1673 1.335 . S
C1675 N1674 1.345 . S
C1675 H1680 0.930 . S
C1676 N1673 1.390 . S
C1676 C1677 1.346 . S
C1676 H1681 0.930 . S
C1677 N1674 1.336 . S
C1677 C1676 1.346 . S
C1677 H1684 0.929 . S
C1678 O1668 1.282 . S
C1678 O1679 1.216 . S
O1679 C1678 1.216 . S
H1680 C1675 0.930 . S
H1681 C1676 0.930 . S
O1682 Cu1662 1.959 . S
O1682 C1669 1.251 . S
H1683 C1666 0.930 . S
H1684 C1677 0.929 . S
Cu1685 N1686 1.999 . S
Cu1685 O1691 1.974 . S
Cu1685 N1696 1.985 . S
Cu1685 O1705 1.959 . S
N1686 Cu1685 1.999 . S
N1686 C1688 1.263 . S
N1686 C1690 1.389 . S
N1687 C1688 1.358 . S
N1687 C1689 1.400 . S
C1688 N1686 1.263 . S
C1688 N1687 1.358 . S
C1688 H1694 0.930 . S
C1689 N1687 1.400 . S
C1689 C1690 1.351 . S
C1689 H1706 0.930 . S
C1690 N1686 1.389 . S
C1690 C1689 1.351 . S
C1690 H1695 0.930 . S
O1691 Cu1685 1.974 . S
O1691 C1701 1.282 . S
C1692 O1693 1.261 . S
C1692 O1705 1.251 . S
O1693 C1692 1.261 . S
H1694 C1688 0.930 . S
H1695 C1690 0.930 . S
N1696 Cu1685 1.985 . S
N1696 C1698 1.335 . S
N1696 C1699 1.390 . S
N1697 C1698 1.345 . S
N1697 C1700 1.336 . S
C1698 N1696 1.335 . S
C1698 N1697 1.345 . S
C1698 H1703 0.930 . S
C1699 N1696 1.390 . S
C1699 C1700 1.346 . S
C1699 H1704 0.930 . S
C1700 N1697 1.336 . S
C1700 C1699 1.346 . S
C1700 H1707 0.929 . S
C1701 O1691 1.282 . S
C1701 O1702 1.216 . S
O1702 C1701 1.216 . S
H1703 C1698 0.930 . S
H1704 C1699 0.930 . S
O1705 Cu1685 1.959 . S
O1705 C1692 1.251 . S
H1706 C1689 0.930 . S
H1707 C1700 0.929 . S
Cu1708 N1709 1.999 . S
Cu1708 O1714 1.974 . S
Cu1708 N1719 1.985 . S
Cu1708 O1728 1.959 . S
N1709 Cu1708 1.999 . S
N1709 C1711 1.263 . S
N1709 C1713 1.389 . S
N1710 C1711 1.358 . S
N1710 C1712 1.400 . S
C1711 N1709 1.263 . S
C1711 N1710 1.358 . S
C1711 H1717 0.930 . S
C1712 N1710 1.400 . S
C1712 C1713 1.351 . S
C1712 H1729 0.930 . S
C1713 N1709 1.389 . S
C1713 C1712 1.351 . S
C1713 H1718 0.930 . S
O1714 Cu1708 1.974 . S
O1714 C1724 1.282 . S
C1715 O1716 1.261 . S
C1715 O1728 1.251 . S
O1716 C1715 1.261 . S
H1717 C1711 0.930 . S
H1718 C1713 0.930 . S
N1719 Cu1708 1.985 . S
N1719 C1721 1.335 . S
N1719 C1722 1.390 . S
N1720 C1721 1.345 . S
N1720 C1723 1.336 . S
C1721 N1719 1.335 . S
C1721 N1720 1.345 . S
C1721 H1726 0.930 . S
C1722 N1719 1.390 . S
C1722 C1723 1.346 . S
C1722 H1727 0.930 . S
C1723 N1720 1.336 . S
C1723 C1722 1.346 . S
C1723 H1730 0.929 . S
C1724 O1714 1.282 . S
C1724 O1725 1.216 . S
O1725 C1724 1.216 . S
H1726 C1721 0.930 . S
H1727 C1722 0.930 . S
O1728 Cu1708 1.959 . S
O1728 C1715 1.251 . S
H1729 C1712 0.930 . S
H1730 C1723 0.929 . S
Cu1731 N1732 1.999 . S
Cu1731 O1737 1.974 . S
Cu1731 N1742 1.985 . S
Cu1731 O1751 1.959 . S
N1732 Cu1731 1.999 . S
N1732 C1734 1.263 . S
N1732 C1736 1.389 . S
N1733 C1734 1.358 . S
N1733 C1735 1.400 . S
C1734 N1732 1.263 . S
C1734 N1733 1.358 . S
C1734 H1740 0.930 . S
C1735 N1733 1.400 . S
C1735 C1736 1.351 . S
C1735 H1752 0.930 . S
C1736 N1732 1.389 . S
C1736 C1735 1.351 . S
C1736 H1741 0.930 . S
O1737 Cu1731 1.974 . S
O1737 C1747 1.282 . S
C1738 O1739 1.261 . S
C1738 O1751 1.251 . S
O1739 C1738 1.261 . S
H1740 C1734 0.930 . S
H1741 C1736 0.930 . S
N1742 Cu1731 1.985 . S
N1742 C1744 1.335 . S
N1742 C1745 1.390 . S
N1743 C1744 1.345 . S
N1743 C1746 1.336 . S
C1744 N1742 1.335 . S
C1744 N1743 1.345 . S
C1744 H1749 0.930 . S
C1745 N1742 1.390 . S
C1745 C1746 1.346 . S
C1745 H1750 0.930 . S
C1746 N1743 1.336 . S
C1746 C1745 1.346 . S
C1746 H1753 0.929 . S
C1747 O1737 1.282 . S
C1747 O1748 1.216 . S
O1748 C1747 1.216 . S
H1749 C1744 0.930 . S
H1750 C1745 0.930 . S
O1751 Cu1731 1.959 . S
O1751 C1738 1.251 . S
H1752 C1735 0.930 . S
H1753 C1746 0.929 . S
Cu1754 N1755 1.999 . S
Cu1754 O1760 1.974 . S
Cu1754 N1765 1.985 . S
Cu1754 O1774 1.959 . S
N1755 Cu1754 1.999 . S
N1755 C1757 1.263 . S
N1755 C1759 1.389 . S
N1756 C1757 1.358 . S
N1756 C1758 1.400 . S
C1757 N1755 1.263 . S
C1757 N1756 1.358 . S
C1757 H1763 0.930 . S
C1758 N1756 1.400 . S
C1758 C1759 1.351 . S
C1758 H1775 0.930 . S
C1759 N1755 1.389 . S
C1759 C1758 1.351 . S
C1759 H1764 0.930 . S
O1760 Cu1754 1.974 . S
O1760 C1770 1.282 . S
C1761 O1762 1.261 . S
C1761 O1774 1.251 . S
O1762 C1761 1.261 . S
H1763 C1757 0.930 . S
H1764 C1759 0.930 . S
N1765 Cu1754 1.985 . S
N1765 C1767 1.335 . S
N1765 C1768 1.390 . S
N1766 C1767 1.345 . S
N1766 C1769 1.336 . S
C1767 N1765 1.335 . S
C1767 N1766 1.345 . S
C1767 H1772 0.930 . S
C1768 N1765 1.390 . S
C1768 C1769 1.346 . S
C1768 H1773 0.930 . S
C1769 N1766 1.336 . S
C1769 C1768 1.346 . S
C1769 H1776 0.929 . S
C1770 O1760 1.282 . S
C1770 O1771 1.216 . S
O1771 C1770 1.216 . S
H1772 C1767 0.930 . S
H1773 C1768 0.930 . S
O1774 Cu1754 1.959 . S
O1774 C1761 1.251 . S
H1775 C1758 0.930 . S
H1776 C1769 0.929 . S
Cu1777 N1778 1.999 . S
Cu1777 O1783 1.974 . S
Cu1777 N1788 1.985 . S
Cu1777 O1797 1.959 . S
N1778 Cu1777 1.999 . S
N1778 C1780 1.263 . S
N1778 C1782 1.389 . S
N1779 C1780 1.358 . S
N1779 C1781 1.400 . S
C1780 N1778 1.263 . S
C1780 N1779 1.358 . S
C1780 H1786 0.930 . S
C1781 N1779 1.400 . S
C1781 C1782 1.351 . S
C1781 H1798 0.930 . S
C1782 N1778 1.389 . S
C1782 C1781 1.351 . S
C1782 H1787 0.930 . S
O1783 Cu1777 1.974 . S
O1783 C1793 1.282 . S
C1784 O1785 1.261 . S
C1784 O1797 1.251 . S
O1785 C1784 1.261 . S
H1786 C1780 0.930 . S
H1787 C1782 0.930 . S
N1788 Cu1777 1.985 . S
N1788 C1790 1.335 . S
N1788 C1791 1.390 . S
N1789 C1790 1.345 . S
N1789 C1792 1.336 . S
C1790 N1788 1.335 . S
C1790 N1789 1.345 . S
C1790 H1795 0.930 . S
C1791 N1788 1.390 . S
C1791 C1792 1.346 . S
C1791 H1796 0.930 . S
C1792 N1789 1.336 . S
C1792 C1791 1.346 . S
C1792 H1799 0.929 . S
C1793 O1783 1.282 . S
C1793 O1794 1.216 . S
O1794 C1793 1.216 . S
H1795 C1790 0.930 . S
H1796 C1791 0.930 . S
O1797 Cu1777 1.959 . S
O1797 C1784 1.251 . S
H1798 C1781 0.930 . S
H1799 C1792 0.929 . S
H1800 C1808 0.950 . S
H1801 C1813 0.950 . S
H1802 C1810 0.950 . S
H1803 C1812 0.950 . S
H1804 C1814 0.950 . S
H1805 C1816 0.950 . S
H1806 C1818 0.950 . S
H1807 C1819 0.950 . S
C1808 H1800 0.950 . S
C1808 C1809 1.386 . S
C1808 C1810 1.391 . S
C1809 C1808 1.386 . S
C1809 C1813 1.393 . S
C1810 H1802 0.950 . S
C1810 C1808 1.391 . S
C1810 C1811 1.400 . S
C1811 C1810 1.400 . S
C1811 C1812 1.398 . S
C1811 C1817 1.491 . S
C1812 H1803 0.950 . S
C1812 C1811 1.398 . S
C1812 C1813 1.391 . S
C1813 H1801 0.950 . S
C1813 C1809 1.393 . S
C1813 C1812 1.391 . S
C1814 H1804 0.950 . S
C1814 C1815 1.386 . S
C1814 C1816 1.391 . S
C1815 C1814 1.386 . S
C1815 C1819 1.393 . S
C1816 H1805 0.950 . S
C1816 C1814 1.391 . S
C1816 C1817 1.400 . S
C1817 C1811 1.491 . S
C1817 C1816 1.400 . S
C1817 C1818 1.398 . S
C1818 H1806 0.950 . S
C1818 C1817 1.398 . S
C1818 C1819 1.391 . S
C1819 H1807 0.950 . S
C1819 C1815 1.393 . S
C1819 C1818 1.391 . S
H1820 C1828 0.950 . S
H1821 C1833 0.950 . S
H1822 C1830 0.950 . S
H1823 C1832 0.950 . S
H1824 C1834 0.950 . S
H1825 C1836 0.950 . S
H1826 C1838 0.950 . S
H1827 C1839 0.950 . S
C1828 H1820 0.950 . S
C1828 C1829 1.386 . S
C1828 C1830 1.391 . S
C1829 C1828 1.386 . S
C1829 C1833 1.393 . S
C1830 H1822 0.950 . S
C1830 C1828 1.391 . S
C1830 C1831 1.400 . S
C1831 C1830 1.400 . S
C1831 C1832 1.398 . S
C1831 C1837 1.491 . S
C1832 H1823 0.950 . S
C1832 C1831 1.398 . S
C1832 C1833 1.391 . S
C1833 H1821 0.950 . S
C1833 C1829 1.393 . S
C1833 C1832 1.391 . S
C1834 H1824 0.950 . S
C1834 C1835 1.386 . S
C1834 C1836 1.391 . S
C1835 C1834 1.386 . S
C1835 C1839 1.393 . S
C1836 H1825 0.950 . S
C1836 C1834 1.391 . S
C1836 C1837 1.400 . S
C1837 C1831 1.491 . S
C1837 C1836 1.400 . S
C1837 C1838 1.398 . S
C1838 H1826 0.950 . S
C1838 C1837 1.398 . S
C1838 C1839 1.391 . S
C1839 H1827 0.950 . S
C1839 C1835 1.393 . S
C1839 C1838 1.391 . S
H1840 C1848 0.950 . S
H1841 C1853 0.950 . S
H1842 C1850 0.950 . S
H1843 C1852 0.950 . S
H1844 C1854 0.950 . S
H1845 C1856 0.950 . S
H1846 C1858 0.950 . S
H1847 C1859 0.950 . S
C1848 H1840 0.950 . S
C1848 C1849 1.386 . S
C1848 C1850 1.391 . S
C1849 C1848 1.386 . S
C1849 C1853 1.393 . S
C1850 H1842 0.950 . S
C1850 C1848 1.391 . S
C1850 C1851 1.400 . S
C1851 C1850 1.400 . S
C1851 C1852 1.398 . S
C1851 C1857 1.491 . S
C1852 H1843 0.950 . S
C1852 C1851 1.398 . S
C1852 C1853 1.391 . S
C1853 H1841 0.950 . S
C1853 C1849 1.393 . S
C1853 C1852 1.391 . S
C1854 H1844 0.950 . S
C1854 C1855 1.386 . S
C1854 C1856 1.391 . S
C1855 C1854 1.386 . S
C1855 C1859 1.393 . S
C1856 H1845 0.950 . S
C1856 C1854 1.391 . S
C1856 C1857 1.400 . S
C1857 C1851 1.491 . S
C1857 C1856 1.400 . S
C1857 C1858 1.398 . S
C1858 H1846 0.950 . S
C1858 C1857 1.398 . S
C1858 C1859 1.391 . S
C1859 H1847 0.950 . S
C1859 C1855 1.393 . S
C1859 C1858 1.391 . S
H1860 C1868 0.950 . S
H1861 C1873 0.950 . S
H1862 C1870 0.950 . S
H1863 C1872 0.950 . S
H1864 C1874 0.950 . S
H1865 C1876 0.950 . S
H1866 C1878 0.950 . S
H1867 C1879 0.950 . S
C1868 H1860 0.950 . S
C1868 C1869 1.386 . S
C1868 C1870 1.391 . S
C1869 C1868 1.386 . S
C1869 C1873 1.393 . S
C1870 H1862 0.950 . S
C1870 C1868 1.391 . S
C1870 C1871 1.400 . S
C1871 C1870 1.400 . S
C1871 C1872 1.398 . S
C1871 C1877 1.491 . S
C1872 H1863 0.950 . S
C1872 C1871 1.398 . S
C1872 C1873 1.391 . S
C1873 H1861 0.950 . S
C1873 C1869 1.393 . S
C1873 C1872 1.391 . S
C1874 H1864 0.950 . S
C1874 C1875 1.386 . S
C1874 C1876 1.391 . S
C1875 C1874 1.386 . S
C1875 C1879 1.393 . S
C1876 H1865 0.950 . S
C1876 C1874 1.391 . S
C1876 C1877 1.400 . S
C1877 C1871 1.491 . S
C1877 C1876 1.400 . S
C1877 C1878 1.398 . S
C1878 H1866 0.950 . S
C1878 C1877 1.398 . S
C1878 C1879 1.391 . S
C1879 H1867 0.950 . S
C1879 C1875 1.393 . S
C1879 C1878 1.391 . S
H1880 C1888 0.950 . S
H1881 C1893 0.950 . S
H1882 C1890 0.950 . S
H1883 C1892 0.950 . S
H1884 C1894 0.950 . S
H1885 C1896 0.950 . S
H1886 C1898 0.950 . S
H1887 C1899 0.950 . S
C1888 H1880 0.950 . S
C1888 C1889 1.386 . S
C1888 C1890 1.391 . S
C1889 C1888 1.386 . S
C1889 C1893 1.393 . S
C1890 H1882 0.950 . S
C1890 C1888 1.391 . S
C1890 C1891 1.400 . S
C1891 C1890 1.400 . S
C1891 C1892 1.398 . S
C1891 C1897 1.491 . S
C1892 H1883 0.950 . S
C1892 C1891 1.398 . S
C1892 C1893 1.391 . S
C1893 H1881 0.950 . S
C1893 C1889 1.393 . S
C1893 C1892 1.391 . S
C1894 H1884 0.950 . S
C1894 C1895 1.386 . S
C1894 C1896 1.391 . S
C1895 C1894 1.386 . S
C1895 C1899 1.393 . S
C1896 H1885 0.950 . S
C1896 C1894 1.391 . S
C1896 C1897 1.400 . S
C1897 C1891 1.491 . S
C1897 C1896 1.400 . S
C1897 C1898 1.398 . S
C1898 H1886 0.950 . S
C1898 C1897 1.398 . S
C1898 C1899 1.391 . S
C1899 H1887 0.950 . S
C1899 C1895 1.393 . S
C1899 C1898 1.391 . S
H1900 C1908 0.950 . S
H1901 C1913 0.950 . S
H1902 C1910 0.950 . S
H1903 C1912 0.950 . S
H1904 C1914 0.950 . S
H1905 C1916 0.950 . S
H1906 C1918 0.950 . S
H1907 C1919 0.950 . S
C1908 H1900 0.950 . S
C1908 C1909 1.386 . S
C1908 C1910 1.391 . S
C1909 C1908 1.386 . S
C1909 C1913 1.393 . S
C1910 H1902 0.950 . S
C1910 C1908 1.391 . S
C1910 C1911 1.400 . S
C1911 C1910 1.400 . S
C1911 C1912 1.398 . S
C1911 C1917 1.491 . S
C1912 H1903 0.950 . S
C1912 C1911 1.398 . S
C1912 C1913 1.391 . S
C1913 H1901 0.950 . S
C1913 C1909 1.393 . S
C1913 C1912 1.391 . S
C1914 H1904 0.950 . S
C1914 C1915 1.386 . S
C1914 C1916 1.391 . S
C1915 C1914 1.386 . S
C1915 C1919 1.393 . S
C1916 H1905 0.950 . S
C1916 C1914 1.391 . S
C1916 C1917 1.400 . S
C1917 C1911 1.491 . S
C1917 C1916 1.400 . S
C1917 C1918 1.398 . S
C1918 H1906 0.950 . S
C1918 C1917 1.398 . S
C1918 C1919 1.391 . S
C1919 H1907 0.950 . S
C1919 C1915 1.393 . S
C1919 C1918 1.391 . S
H1920 C1928 0.950 . S
H1921 C1933 0.950 . S
H1922 C1930 0.950 . S
H1923 C1932 0.950 . S
H1924 C1934 0.950 . S
H1925 C1936 0.950 . S
H1926 C1938 0.950 . S
H1927 C1939 0.950 . S
C1928 H1920 0.950 . S
C1928 C1929 1.386 . S
C1928 C1930 1.391 . S
C1929 C1928 1.386 . S
C1929 C1933 1.393 . S
C1930 H1922 0.950 . S
C1930 C1928 1.391 . S
C1930 C1931 1.400 . S
C1931 C1930 1.400 . S
C1931 C1932 1.398 . S
C1931 C1937 1.491 . S
C1932 H1923 0.950 . S
C1932 C1931 1.398 . S
C1932 C1933 1.391 . S
C1933 H1921 0.950 . S
C1933 C1929 1.393 . S
C1933 C1932 1.391 . S
C1934 H1924 0.950 . S
C1934 C1935 1.386 . S
C1934 C1936 1.391 . S
C1935 C1934 1.386 . S
C1935 C1939 1.393 . S
C1936 H1925 0.950 . S
C1936 C1934 1.391 . S
C1936 C1937 1.400 . S
C1937 C1931 1.491 . S
C1937 C1936 1.400 . S
C1937 C1938 1.398 . S
C1938 H1926 0.950 . S
C1938 C1937 1.398 . S
C1938 C1939 1.391 . S
C1939 H1927 0.950 . S
C1939 C1935 1.393 . S
C1939 C1938 1.391 . S
H1940 C1948 0.950 . S
H1941 C1953 0.950 . S
H1942 C1950 0.950 . S
H1943 C1952 0.950 . S
H1944 C1954 0.950 . S
H1945 C1956 0.950 . S
H1946 C1958 0.950 . S
H1947 C1959 0.950 . S
C1948 H1940 0.950 . S
C1948 C1949 1.386 . S
C1948 C1950 1.391 . S
C1949 C1948 1.386 . S
C1949 C1953 1.393 . S
C1950 H1942 0.950 . S
C1950 C1948 1.391 . S
C1950 C1951 1.400 . S
C1951 C1950 1.400 . S
C1951 C1952 1.398 . S
C1951 C1957 1.491 . S
C1952 H1943 0.950 . S
C1952 C1951 1.398 . S
C1952 C1953 1.391 . S
C1953 H1941 0.950 . S
C1953 C1949 1.393 . S
C1953 C1952 1.391 . S
C1954 H1944 0.950 . S
C1954 C1955 1.386 . S
C1954 C1956 1.391 . S
C1955 C1954 1.386 . S
C1955 C1959 1.393 . S
C1956 H1945 0.950 . S
C1956 C1954 1.391 . S
C1956 C1957 1.400 . S
C1957 C1951 1.491 . S
C1957 C1956 1.400 . S
C1957 C1958 1.398 . S
C1958 H1946 0.950 . S
C1958 C1957 1.398 . S
C1958 C1959 1.391 . S
C1959 H1947 0.950 . S
C1959 C1955 1.393 . S
C1959 C1958 1.391 . S
H1960 C1968 0.950 . S
H1961 C1973 0.950 . S
H1962 C1970 0.950 . S
H1963 C1972 0.950 . S
H1964 C1974 0.950 . S
H1965 C1976 0.950 . S
H1966 C1978 0.950 . S
H1967 C1979 0.950 . S
C1968 H1960 0.950 . S
C1968 C1969 1.386 . S
C1968 C1970 1.391 . S
C1969 C1968 1.386 . S
C1969 C1973 1.393 . S
C1970 H1962 0.950 . S
C1970 C1968 1.391 . S
C1970 C1971 1.400 . S
C1971 C1970 1.400 . S
C1971 C1972 1.398 . S
C1971 C1977 1.491 . S
C1972 H1963 0.950 . S
C1972 C1971 1.398 . S
C1972 C1973 1.391 . S
C1973 H1961 0.950 . S
C1973 C1969 1.393 . S
C1973 C1972 1.391 . S
C1974 H1964 0.950 . S
C1974 C1975 1.386 . S
C1974 C1976 1.391 . S
C1975 C1974 1.386 . S
C1975 C1979 1.393 . S
C1976 H1965 0.950 . S
C1976 C1974 1.391 . S
C1976 C1977 1.400 . S
C1977 C1971 1.491 . S
C1977 C1976 1.400 . S
C1977 C1978 1.398 . S
C1978 H1966 0.950 . S
C1978 C1977 1.398 . S
C1978 C1979 1.391 . S
C1979 H1967 0.950 . S
C1979 C1975 1.393 . S
C1979 C1978 1.391 . S
H1980 C1988 0.950 . S
H1981 C1993 0.950 . S
H1982 C1990 0.950 . S
H1983 C1992 0.950 . S
H1984 C1994 0.950 . S
H1985 C1996 0.950 . S
H1986 C1998 0.950 . S
H1987 C1999 0.950 . S
C1988 H1980 0.950 . S
C1988 C1989 1.386 . S
C1988 C1990 1.391 . S
C1989 C1988 1.386 . S
C1989 C1993 1.393 . S
C1990 H1982 0.950 . S
C1990 C1988 1.391 . S
C1990 C1991 1.400 . S
C1991 C1990 1.400 . S
C1991 C1992 1.398 . S
C1991 C1997 1.491 . S
C1992 H1983 0.950 . S
C1992 C1991 1.398 . S
C1992 C1993 1.391 . S
C1993 H1981 0.950 . S
C1993 C1989 1.393 . S
C1993 C1992 1.391 . S
C1994 H1984 0.950 . S
C1994 C1995 1.386 . S
C1994 C1996 1.391 . S
C1995 C1994 1.386 . S
C1995 C1999 1.393 . S
C1996 H1985 0.950 . S
C1996 C1994 1.391 . S
C1996 C1997 1.400 . S
C1997 C1991 1.491 . S
C1997 C1996 1.400 . S
C1997 C1998 1.398 . S
C1998 H1986 0.950 . S
C1998 C1997 1.398 . S
C1998 C1999 1.391 . S
C1999 H1987 0.950 . S
C1999 C1995 1.393 . S
C1999 C1998 1.391 . S
H2000 C2008 0.950 . S
H2001 C2013 0.950 . S
H2002 C2010 0.950 . S
H2003 C2012 0.950 . S
H2004 C2014 0.950 . S
H2005 C2016 0.950 . S
H2006 C2018 0.950 . S
H2007 C2019 0.950 . S
C2008 H2000 0.950 . S
C2008 C2009 1.386 . S
C2008 C2010 1.391 . S
C2009 C2008 1.386 . S
C2009 C2013 1.393 . S
C2010 H2002 0.950 . S
C2010 C2008 1.391 . S
C2010 C2011 1.400 . S
C2011 C2010 1.400 . S
C2011 C2012 1.398 . S
C2011 C2017 1.491 . S
C2012 H2003 0.950 . S
C2012 C2011 1.398 . S
C2012 C2013 1.391 . S
C2013 H2001 0.950 . S
C2013 C2009 1.393 . S
C2013 C2012 1.391 . S
C2014 H2004 0.950 . S
C2014 C2015 1.386 . S
C2014 C2016 1.391 . S
C2015 C2014 1.386 . S
C2015 C2019 1.393 . S
C2016 H2005 0.950 . S
C2016 C2014 1.391 . S
C2016 C2017 1.400 . S
C2017 C2011 1.491 . S
C2017 C2016 1.400 . S
C2017 C2018 1.398 . S
C2018 H2006 0.950 . S
C2018 C2017 1.398 . S
C2018 C2019 1.391 . S
C2019 H2007 0.950 . S
C2019 C2015 1.393 . S
C2019 C2018 1.391 . S
H2020 C2028 0.950 . S
H2021 C2033 0.950 . S
H2022 C2030 0.950 . S
H2023 C2032 0.950 . S
H2024 C2034 0.950 . S
H2025 C2036 0.950 . S
H2026 C2038 0.950 . S
H2027 C2039 0.950 . S
C2028 H2020 0.950 . S
C2028 C2029 1.386 . S
C2028 C2030 1.391 . S
C2029 C2028 1.386 . S
C2029 C2033 1.393 . S
C2030 H2022 0.950 . S
C2030 C2028 1.391 . S
C2030 C2031 1.400 . S
C2031 C2030 1.400 . S
C2031 C2032 1.398 . S
C2031 C2037 1.491 . S
C2032 H2023 0.950 . S
C2032 C2031 1.398 . S
C2032 C2033 1.391 . S
C2033 H2021 0.950 . S
C2033 C2029 1.393 . S
C2033 C2032 1.391 . S
C2034 H2024 0.950 . S
C2034 C2035 1.386 . S
C2034 C2036 1.391 . S
C2035 C2034 1.386 . S
C2035 C2039 1.393 . S
C2036 H2025 0.950 . S
C2036 C2034 1.391 . S
C2036 C2037 1.400 . S
C2037 C2031 1.491 . S
C2037 C2036 1.400 . S
C2037 C2038 1.398 . S
C2038 H2026 0.950 . S
C2038 C2037 1.398 . S
C2038 C2039 1.391 . S
C2039 H2027 0.950 . S
C2039 C2035 1.393 . S
C2039 C2038 1.391 . S
H2040 C2048 0.950 . S
H2041 C2053 0.950 . S
H2042 C2050 0.950 . S
H2043 C2052 0.950 . S
H2044 C2054 0.950 . S
H2045 C2056 0.950 . S
H2046 C2058 0.950 . S
H2047 C2059 0.950 . S
C2048 H2040 0.950 . S
C2048 C2049 1.386 . S
C2048 C2050 1.391 . S
C2049 C2048 1.386 . S
C2049 C2053 1.393 . S
C2050 H2042 0.950 . S
C2050 C2048 1.391 . S
C2050 C2051 1.400 . S
C2051 C2050 1.400 . S
C2051 C2052 1.398 . S
C2051 C2057 1.491 . S
C2052 H2043 0.950 . S
C2052 C2051 1.398 . S
C2052 C2053 1.391 . S
C2053 H2041 0.950 . S
C2053 C2049 1.393 . S
C2053 C2052 1.391 . S
C2054 H2044 0.950 . S
C2054 C2055 1.386 . S
C2054 C2056 1.391 . S
C2055 C2054 1.386 . S
C2055 C2059 1.393 . S
C2056 H2045 0.950 . S
C2056 C2054 1.391 . S
C2056 C2057 1.400 . S
C2057 C2051 1.491 . S
C2057 C2056 1.400 . S
C2057 C2058 1.398 . S
C2058 H2046 0.950 . S
C2058 C2057 1.398 . S
C2058 C2059 1.391 . S
C2059 H2047 0.950 . S
C2059 C2055 1.393 . S
C2059 C2058 1.391 . S
H2060 C2068 0.950 . S
H2061 C2073 0.950 . S
H2062 C2070 0.950 . S
H2063 C2072 0.950 . S
H2064 C2074 0.950 . S
H2065 C2076 0.950 . S
H2066 C2078 0.950 . S
H2067 C2079 0.950 . S
C2068 H2060 0.950 . S
C2068 C2069 1.386 . S
C2068 C2070 1.391 . S
C2069 C2068 1.386 . S
C2069 C2073 1.393 . S
C2070 H2062 0.950 . S
C2070 C2068 1.391 . S
C2070 C2071 1.400 . S
C2071 C2070 1.400 . S
C2071 C2072 1.398 . S
C2071 C2077 1.491 . S
C2072 H2063 0.950 . S
C2072 C2071 1.398 . S
C2072 C2073 1.391 . S
C2073 H2061 0.950 . S
C2073 C2069 1.393 . S
C2073 C2072 1.391 . S
C2074 H2064 0.950 . S
C2074 C2075 1.386 . S
C2074 C2076 1.391 . S
C2075 C2074 1.386 . S
C2075 C2079 1.393 . S
C2076 H2065 0.950 . S
C2076 C2074 1.391 . S
C2076 C2077 1.400 . S
C2077 C2071 1.491 . S
C2077 C2076 1.400 . S
C2077 C2078 1.398 . S
C2078 H2066 0.950 . S
C2078 C2077 1.398 . S
C2078 C2079 1.391 . S
C2079 H2067 0.950 . S
C2079 C2075 1.393 . S
C2079 C2078 1.391 . S
H2080 C2088 0.950 . S
H2081 C2093 0.950 . S
H2082 C2090 0.950 . S
H2083 C2092 0.950 . S
H2084 C2094 0.950 . S
H2085 C2096 0.950 . S
H2086 C2098 0.950 . S
H2087 C2099 0.950 . S
C2088 H2080 0.950 . S
C2088 C2089 1.386 . S
C2088 C2090 1.391 . S
C2089 C2088 1.386 . S
C2089 C2093 1.393 . S
C2090 H2082 0.950 . S
C2090 C2088 1.391 . S
C2090 C2091 1.400 . S
C2091 C2090 1.400 . S
C2091 C2092 1.398 . S
C2091 C2097 1.491 . S
C2092 H2083 0.950 . S
C2092 C2091 1.398 . S
C2092 C2093 1.391 . S
C2093 H2081 0.950 . S
C2093 C2089 1.393 . S
C2093 C2092 1.391 . S
C2094 H2084 0.950 . S
C2094 C2095 1.386 . S
C2094 C2096 1.391 . S
C2095 C2094 1.386 . S
C2095 C2099 1.393 . S
C2096 H2085 0.950 . S
C2096 C2094 1.391 . S
C2096 C2097 1.400 . S
C2097 C2091 1.491 . S
C2097 C2096 1.400 . S
C2097 C2098 1.398 . S
C2098 H2086 0.950 . S
C2098 C2097 1.398 . S
C2098 C2099 1.391 . S
C2099 H2087 0.950 . S
C2099 C2095 1.393 . S
C2099 C2098 1.391 . S
H2100 C2108 0.950 . S
H2101 C2113 0.950 . S
H2102 C2110 0.950 . S
H2103 C2112 0.950 . S
H2104 C2114 0.950 . S
H2105 C2116 0.950 . S
H2106 C2118 0.950 . S
H2107 C2119 0.950 . S
C2108 H2100 0.950 . S
C2108 C2109 1.386 . S
C2108 C2110 1.391 . S
C2109 C2108 1.386 . S
C2109 C2113 1.393 . S
C2110 H2102 0.950 . S
C2110 C2108 1.391 . S
C2110 C2111 1.400 . S
C2111 C2110 1.400 . S
C2111 C2112 1.398 . S
C2111 C2117 1.491 . S
C2112 H2103 0.950 . S
C2112 C2111 1.398 . S
C2112 C2113 1.391 . S
C2113 H2101 0.950 . S
C2113 C2109 1.393 . S
C2113 C2112 1.391 . S
C2114 H2104 0.950 . S
C2114 C2115 1.386 . S
C2114 C2116 1.391 . S
C2115 C2114 1.386 . S
C2115 C2119 1.393 . S
C2116 H2105 0.950 . S
C2116 C2114 1.391 . S
C2116 C2117 1.400 . S
C2117 C2111 1.491 . S
C2117 C2116 1.400 . S
C2117 C2118 1.398 . S
C2118 H2106 0.950 . S
C2118 C2117 1.398 . S
C2118 C2119 1.391 . S
C2119 H2107 0.950 . S
C2119 C2115 1.393 . S
C2119 C2118 1.391 . S
H2120 C2128 0.950 . S
H2121 C2133 0.950 . S
H2122 C2130 0.950 . S
H2123 C2132 0.950 . S
H2124 C2134 0.950 . S
H2125 C2136 0.950 . S
H2126 C2138 0.950 . S
H2127 C2139 0.950 . S
C2128 H2120 0.950 . S
C2128 C2129 1.386 . S
C2128 C2130 1.391 . S
C2129 C2128 1.386 . S
C2129 C2133 1.393 . S
C2130 H2122 0.950 . S
C2130 C2128 1.391 . S
C2130 C2131 1.400 . S
C2131 C2130 1.400 . S
C2131 C2132 1.398 . S
C2131 C2137 1.491 . S
C2132 H2123 0.950 . S
C2132 C2131 1.398 . S
C2132 C2133 1.391 . S
C2133 H2121 0.950 . S
C2133 C2129 1.393 . S
C2133 C2132 1.391 . S
C2134 H2124 0.950 . S
C2134 C2135 1.386 . S
C2134 C2136 1.391 . S
C2135 C2134 1.386 . S
C2135 C2139 1.393 . S
C2136 H2125 0.950 . S
C2136 C2134 1.391 . S
C2136 C2137 1.400 . S
C2137 C2131 1.491 . S
C2137 C2136 1.400 . S
C2137 C2138 1.398 . S
C2138 H2126 0.950 . S
C2138 C2137 1.398 . S
C2138 C2139 1.391 . S
C2139 H2127 0.950 . S
C2139 C2135 1.393 . S
C2139 C2138 1.391 . S
H2140 C2148 0.950 . S
H2141 C2153 0.950 . S
H2142 C2150 0.950 . S
H2143 C2152 0.950 . S
H2144 C2154 0.950 . S
H2145 C2156 0.950 . S
H2146 C2158 0.950 . S
H2147 C2159 0.950 . S
C2148 H2140 0.950 . S
C2148 C2149 1.386 . S
C2148 C2150 1.391 . S
C2149 C2148 1.386 . S
C2149 C2153 1.393 . S
C2150 H2142 0.950 . S
C2150 C2148 1.391 . S
C2150 C2151 1.400 . S
C2151 C2150 1.400 . S
C2151 C2152 1.398 . S
C2151 C2157 1.491 . S
C2152 H2143 0.950 . S
C2152 C2151 1.398 . S
C2152 C2153 1.391 . S
C2153 H2141 0.950 . S
C2153 C2149 1.393 . S
C2153 C2152 1.391 . S
C2154 H2144 0.950 . S
C2154 C2155 1.386 . S
C2154 C2156 1.391 . S
C2155 C2154 1.386 . S
C2155 C2159 1.393 . S
C2156 H2145 0.950 . S
C2156 C2154 1.391 . S
C2156 C2157 1.400 . S
C2157 C2151 1.491 . S
C2157 C2156 1.400 . S
C2157 C2158 1.398 . S
C2158 H2146 0.950 . S
C2158 C2157 1.398 . S
C2158 C2159 1.391 . S
C2159 H2147 0.950 . S
C2159 C2155 1.393 . S
C2159 C2158 1.391 . S
H2160 C2168 0.950 . S
H2161 C2173 0.950 . S
H2162 C2170 0.950 . S
H2163 C2172 0.950 . S
H2164 C2174 0.950 . S
H2165 C2176 0.950 . S
H2166 C2178 0.950 . S
H2167 C2179 0.950 . S
C2168 H2160 0.950 . S
C2168 C2169 1.386 . S
C2168 C2170 1.391 . S
C2169 C2168 1.386 . S
C2169 C2173 1.393 . S
C2170 H2162 0.950 . S
C2170 C2168 1.391 . S
C2170 C2171 1.400 . S
C2171 C2170 1.400 . S
C2171 C2172 1.398 . S
C2171 C2177 1.491 . S
C2172 H2163 0.950 . S
C2172 C2171 1.398 . S
C2172 C2173 1.391 . S
C2173 H2161 0.950 . S
C2173 C2169 1.393 . S
C2173 C2172 1.391 . S
C2174 H2164 0.950 . S
C2174 C2175 1.386 . S
C2174 C2176 1.391 . S
C2175 C2174 1.386 . S
C2175 C2179 1.393 . S
C2176 H2165 0.950 . S
C2176 C2174 1.391 . S
C2176 C2177 1.400 . S
C2177 C2171 1.491 . S
C2177 C2176 1.400 . S
C2177 C2178 1.398 . S
C2178 H2166 0.950 . S
C2178 C2177 1.398 . S
C2178 C2179 1.391 . S
C2179 H2167 0.950 . S
C2179 C2175 1.393 . S
C2179 C2178 1.391 . S
H2180 C2188 0.950 . S
H2181 C2193 0.950 . S
H2182 C2190 0.950 . S
H2183 C2192 0.950 . S
H2184 C2194 0.950 . S
H2185 C2196 0.950 . S
H2186 C2198 0.950 . S
H2187 C2199 0.950 . S
C2188 H2180 0.950 . S
C2188 C2189 1.386 . S
C2188 C2190 1.391 . S
C2189 C2188 1.386 . S
C2189 C2193 1.393 . S
C2190 H2182 0.950 . S
C2190 C2188 1.391 . S
C2190 C2191 1.400 . S
C2191 C2190 1.400 . S
C2191 C2192 1.398 . S
C2191 C2197 1.491 . S
C2192 H2183 0.950 . S
C2192 C2191 1.398 . S
C2192 C2193 1.391 . S
C2193 H2181 0.950 . S
C2193 C2189 1.393 . S
C2193 C2192 1.391 . S
C2194 H2184 0.950 . S
C2194 C2195 1.386 . S
C2194 C2196 1.391 . S
C2195 C2194 1.386 . S
C2195 C2199 1.393 . S
C2196 H2185 0.950 . S
C2196 C2194 1.391 . S
C2196 C2197 1.400 . S
C2197 C2191 1.491 . S
C2197 C2196 1.400 . S
C2197 C2198 1.398 . S
C2198 H2186 0.950 . S
C2198 C2197 1.398 . S
C2198 C2199 1.391 . S
C2199 H2187 0.950 . S
C2199 C2195 1.393 . S
C2199 C2198 1.391 . S
H2200 C2208 0.950 . S
H2201 C2213 0.950 . S
H2202 C2210 0.950 . S
H2203 C2212 0.950 . S
H2204 C2214 0.950 . S
H2205 C2216 0.950 . S
H2206 C2218 0.950 . S
H2207 C2219 0.950 . S
C2208 H2200 0.950 . S
C2208 C2209 1.386 . S
C2208 C2210 1.391 . S
C2209 C2208 1.386 . S
C2209 C2213 1.393 . S
C2210 H2202 0.950 . S
C2210 C2208 1.391 . S
C2210 C2211 1.400 . S
C2211 C2210 1.400 . S
C2211 C2212 1.398 . S
C2211 C2217 1.491 . S
C2212 H2203 0.950 . S
C2212 C2211 1.398 . S
C2212 C2213 1.391 . S
C2213 H2201 0.950 . S
C2213 C2209 1.393 . S
C2213 C2212 1.391 . S
C2214 H2204 0.950 . S
C2214 C2215 1.386 . S
C2214 C2216 1.391 . S
C2215 C2214 1.386 . S
C2215 C2219 1.393 . S
C2216 H2205 0.950 . S
C2216 C2214 1.391 . S
C2216 C2217 1.400 . S
C2217 C2211 1.491 . S
C2217 C2216 1.400 . S
C2217 C2218 1.398 . S
C2218 H2206 0.950 . S
C2218 C2217 1.398 . S
C2218 C2219 1.391 . S
C2219 H2207 0.950 . S
C2219 C2215 1.393 . S
C2219 C2218 1.391 . S
H2220 C2228 0.950 . S
H2221 C2233 0.950 . S
H2222 C2230 0.950 . S
H2223 C2232 0.950 . S
H2224 C2234 0.950 . S
H2225 C2236 0.950 . S
H2226 C2238 0.950 . S
H2227 C2239 0.950 . S
C2228 H2220 0.950 . S
C2228 C2229 1.386 . S
C2228 C2230 1.391 . S
C2229 C2228 1.386 . S
C2229 C2233 1.393 . S
C2230 H2222 0.950 . S
C2230 C2228 1.391 . S
C2230 C2231 1.400 . S
C2231 C2230 1.400 . S
C2231 C2232 1.398 . S
C2231 C2237 1.491 . S
C2232 H2223 0.950 . S
C2232 C2231 1.398 . S
C2232 C2233 1.391 . S
C2233 H2221 0.950 . S
C2233 C2229 1.393 . S
C2233 C2232 1.391 . S
C2234 H2224 0.950 . S
C2234 C2235 1.386 . S
C2234 C2236 1.391 . S
C2235 C2234 1.386 . S
C2235 C2239 1.393 . S
C2236 H2225 0.950 . S
C2236 C2234 1.391 . S
C2236 C2237 1.400 . S
C2237 C2231 1.491 . S
C2237 C2236 1.400 . S
C2237 C2238 1.398 . S
C2238 H2226 0.950 . S
C2238 C2237 1.398 . S
C2238 C2239 1.391 . S
C2239 H2227 0.950 . S
C2239 C2235 1.393 . S
C2239 C2238 1.391 . S
H2240 C2248 0.950 . S
H2241 C2253 0.950 . S
H2242 C2250 0.950 . S
H2243 C2252 0.950 . S
H2244 C2254 0.950 . S
H2245 C2256 0.950 . S
H2246 C2258 0.950 . S
H2247 C2259 0.950 . S
C2248 H2240 0.950 . S
C2248 C2249 1.386 . S
C2248 C2250 1.391 . S
C2249 C2248 1.386 . S
C2249 C2253 1.393 . S
C2250 H2242 0.950 . S
C2250 C2248 1.391 . S
C2250 C2251 1.400 . S
C2251 C2250 1.400 . S
C2251 C2252 1.398 . S
C2251 C2257 1.491 . S
C2252 H2243 0.950 . S
C2252 C2251 1.398 . S
C2252 C2253 1.391 . S
C2253 H2241 0.950 . S
C2253 C2249 1.393 . S
C2253 C2252 1.391 . S
C2254 H2244 0.950 . S
C2254 C2255 1.386 . S
C2254 C2256 1.391 . S
C2255 C2254 1.386 . S
C2255 C2259 1.393 . S
C2256 H2245 0.950 . S
C2256 C2254 1.391 . S
C2256 C2257 1.400 . S
C2257 C2251 1.491 . S
C2257 C2256 1.400 . S
C2257 C2258 1.398 . S
C2258 H2246 0.950 . S
C2258 C2257 1.398 . S
C2258 C2259 1.391 . S
C2259 H2247 0.950 . S
C2259 C2255 1.393 . S
C2259 C2258 1.391 . S
H2260 C2268 0.950 . S
H2261 C2273 0.950 . S
H2262 C2270 0.950 . S
H2263 C2272 0.950 . S
H2264 C2274 0.950 . S
H2265 C2276 0.950 . S
H2266 C2278 0.950 . S
H2267 C2279 0.950 . S
C2268 H2260 0.950 . S
C2268 C2269 1.386 . S
C2268 C2270 1.391 . S
C2269 C2268 1.386 . S
C2269 C2273 1.393 . S
C2270 H2262 0.950 . S
C2270 C2268 1.391 . S
C2270 C2271 1.400 . S
C2271 C2270 1.400 . S
C2271 C2272 1.398 . S
C2271 C2277 1.491 . S
C2272 H2263 0.950 . S
C2272 C2271 1.398 . S
C2272 C2273 1.391 . S
C2273 H2261 0.950 . S
C2273 C2269 1.393 . S
C2273 C2272 1.391 . S
C2274 H2264 0.950 . S
C2274 C2275 1.386 . S
C2274 C2276 1.391 . S
C2275 C2274 1.386 . S
C2275 C2279 1.393 . S
C2276 H2265 0.950 . S
C2276 C2274 1.391 . S
C2276 C2277 1.400 . S
C2277 C2271 1.491 . S
C2277 C2276 1.400 . S
C2277 C2278 1.398 . S
C2278 H2266 0.950 . S
C2278 C2277 1.398 . S
C2278 C2279 1.391 . S
C2279 H2267 0.950 . S
C2279 C2275 1.393 . S
C2279 C2278 1.391 . S
H2280 C2288 0.950 . S
H2281 C2293 0.950 . S
H2282 C2290 0.950 . S
H2283 C2292 0.950 . S
H2284 C2294 0.950 . S
H2285 C2296 0.950 . S
H2286 C2298 0.950 . S
H2287 C2299 0.950 . S
C2288 H2280 0.950 . S
C2288 C2289 1.386 . S
C2288 C2290 1.391 . S
C2289 C2288 1.386 . S
C2289 C2293 1.393 . S
C2290 H2282 0.950 . S
C2290 C2288 1.391 . S
C2290 C2291 1.400 . S
C2291 C2290 1.400 . S
C2291 C2292 1.398 . S
C2291 C2297 1.491 . S
C2292 H2283 0.950 . S
C2292 C2291 1.398 . S
C2292 C2293 1.391 . S
C2293 H2281 0.950 . S
C2293 C2289 1.393 . S
C2293 C2292 1.391 . S
C2294 H2284 0.950 . S
C2294 C2295 1.386 . S
C2294 C2296 1.391 . S
C2295 C2294 1.386 . S
C2295 C2299 1.393 . S
C2296 H2285 0.950 . S
C2296 C2294 1.391 . S
C2296 C2297 1.400 . S
C2297 C2291 1.491 . S
C2297 C2296 1.400 . S
C2297 C2298 1.398 . S
C2298 H2286 0.950 . S
C2298 C2297 1.398 . S
C2298 C2299 1.391 . S
C2299 H2287 0.950 . S
C2299 C2295 1.393 . S
C2299 C2298 1.391 . S
H2300 C2308 0.950 . S
H2301 C2313 0.950 . S
H2302 C2310 0.950 . S
H2303 C2312 0.950 . S
H2304 C2314 0.950 . S
H2305 C2316 0.950 . S
H2306 C2318 0.950 . S
H2307 C2319 0.950 . S
C2308 H2300 0.950 . S
C2308 C2309 1.386 . S
C2308 C2310 1.391 . S
C2309 C2308 1.386 . S
C2309 C2313 1.393 . S
C2310 H2302 0.950 . S
C2310 C2308 1.391 . S
C2310 C2311 1.400 . S
C2311 C2310 1.400 . S
C2311 C2312 1.398 . S
C2311 C2317 1.491 . S
C2312 H2303 0.950 . S
C2312 C2311 1.398 . S
C2312 C2313 1.391 . S
C2313 H2301 0.950 . S
C2313 C2309 1.393 . S
C2313 C2312 1.391 . S
C2314 H2304 0.950 . S
C2314 C2315 1.386 . S
C2314 C2316 1.391 . S
C2315 C2314 1.386 . S
C2315 C2319 1.393 . S
C2316 H2305 0.950 . S
C2316 C2314 1.391 . S
C2316 C2317 1.400 . S
C2317 C2311 1.491 . S
C2317 C2316 1.400 . S
C2317 C2318 1.398 . S
C2318 H2306 0.950 . S
C2318 C2317 1.398 . S
C2318 C2319 1.391 . S
C2319 H2307 0.950 . S
C2319 C2315 1.393 . S
C2319 C2318 1.391 . S
H2320 C2328 0.950 . S
H2321 C2333 0.950 . S
H2322 C2330 0.950 . S
H2323 C2332 0.950 . S
H2324 C2334 0.950 . S
H2325 C2336 0.950 . S
H2326 C2338 0.950 . S
H2327 C2339 0.950 . S
C2328 H2320 0.950 . S
C2328 C2329 1.386 . S
C2328 C2330 1.391 . S
C2329 C2328 1.386 . S
C2329 C2333 1.393 . S
C2330 H2322 0.950 . S
C2330 C2328 1.391 . S
C2330 C2331 1.400 . S
C2331 C2330 1.400 . S
C2331 C2332 1.398 . S
C2331 C2337 1.491 . S
C2332 H2323 0.950 . S
C2332 C2331 1.398 . S
C2332 C2333 1.391 . S
C2333 H2321 0.950 . S
C2333 C2329 1.393 . S
C2333 C2332 1.391 . S
C2334 H2324 0.950 . S
C2334 C2335 1.386 . S
C2334 C2336 1.391 . S
C2335 C2334 1.386 . S
C2335 C2339 1.393 . S
C2336 H2325 0.950 . S
C2336 C2334 1.391 . S
C2336 C2337 1.400 . S
C2337 C2331 1.491 . S
C2337 C2336 1.400 . S
C2337 C2338 1.398 . S
C2338 H2326 0.950 . S
C2338 C2337 1.398 . S
C2338 C2339 1.391 . S
C2339 H2327 0.950 . S
C2339 C2335 1.393 . S
C2339 C2338 1.391 . S
H2340 C2348 0.950 . S
H2341 C2353 0.950 . S
H2342 C2350 0.950 . S
H2343 C2352 0.950 . S
H2344 C2354 0.950 . S
H2345 C2356 0.950 . S
H2346 C2358 0.950 . S
H2347 C2359 0.950 . S
C2348 H2340 0.950 . S
C2348 C2349 1.386 . S
C2348 C2350 1.391 . S
C2349 C2348 1.386 . S
C2349 C2353 1.393 . S
C2350 H2342 0.950 . S
C2350 C2348 1.391 . S
C2350 C2351 1.400 . S
C2351 C2350 1.400 . S
C2351 C2352 1.398 . S
C2351 C2357 1.491 . S
C2352 H2343 0.950 . S
C2352 C2351 1.398 . S
C2352 C2353 1.391 . S
C2353 H2341 0.950 . S
C2353 C2349 1.393 . S
C2353 C2352 1.391 . S
C2354 H2344 0.950 . S
C2354 C2355 1.386 . S
C2354 C2356 1.391 . S
C2355 C2354 1.386 . S
C2355 C2359 1.393 . S
C2356 H2345 0.950 . S
C2356 C2354 1.391 . S
C2356 C2357 1.400 . S
C2357 C2351 1.491 . S
C2357 C2356 1.400 . S
C2357 C2358 1.398 . S
C2358 H2346 0.950 . S
C2358 C2357 1.398 . S
C2358 C2359 1.391 . S
C2359 H2347 0.950 . S
C2359 C2355 1.393 . S
C2359 C2358 1.391 . S
H2360 C2368 0.950 . S
H2361 C2373 0.950 . S
H2362 C2370 0.950 . S
H2363 C2372 0.950 . S
H2364 C2374 0.950 . S
H2365 C2376 0.950 . S
H2366 C2378 0.950 . S
H2367 C2379 0.950 . S
C2368 H2360 0.950 . S
C2368 C2369 1.386 . S
C2368 C2370 1.391 . S
C2369 C2368 1.386 . S
C2369 C2373 1.393 . S
C2370 H2362 0.950 . S
C2370 C2368 1.391 . S
C2370 C2371 1.400 . S
C2371 C2370 1.400 . S
C2371 C2372 1.398 . S
C2371 C2377 1.491 . S
C2372 H2363 0.950 . S
C2372 C2371 1.398 . S
C2372 C2373 1.391 . S
C2373 H2361 0.950 . S
C2373 C2369 1.393 . S
C2373 C2372 1.391 . S
C2374 H2364 0.950 . S
C2374 C2375 1.386 . S
C2374 C2376 1.391 . S
C2375 C2374 1.386 . S
C2375 C2379 1.393 . S
C2376 H2365 0.950 . S
C2376 C2374 1.391 . S
C2376 C2377 1.400 . S
C2377 C2371 1.491 . S
C2377 C2376 1.400 . S
C2377 C2378 1.398 . S
C2378 H2366 0.950 . S
C2378 C2377 1.398 . S
C2378 C2379 1.391 . S
C2379 H2367 0.950 . S
C2379 C2375 1.393 . S
C2379 C2378 1.391 . S
H2380 C2388 0.950 . S
H2381 C2393 0.950 . S
H2382 C2390 0.950 . S
H2383 C2392 0.950 . S
H2384 C2394 0.950 . S
H2385 C2396 0.950 . S
H2386 C2398 0.950 . S
H2387 C2399 0.950 . S
C2388 H2380 0.950 . S
C2388 C2389 1.386 . S
C2388 C2390 1.391 . S
C2389 C2388 1.386 . S
C2389 C2393 1.393 . S
C2390 H2382 0.950 . S
C2390 C2388 1.391 . S
C2390 C2391 1.400 . S
C2391 C2390 1.400 . S
C2391 C2392 1.398 . S
C2391 C2397 1.491 . S
C2392 H2383 0.950 . S
C2392 C2391 1.398 . S
C2392 C2393 1.391 . S
C2393 H2381 0.950 . S
C2393 C2389 1.393 . S
C2393 C2392 1.391 . S
C2394 H2384 0.950 . S
C2394 C2395 1.386 . S
C2394 C2396 1.391 . S
C2395 C2394 1.386 . S
C2395 C2399 1.393 . S
C2396 H2385 0.950 . S
C2396 C2394 1.391 . S
C2396 C2397 1.400 . S
C2397 C2391 1.491 . S
C2397 C2396 1.400 . S
C2397 C2398 1.398 . S
C2398 H2386 0.950 . S
C2398 C2397 1.398 . S
C2398 C2399 1.391 . S
C2399 H2387 0.950 . S
C2399 C2395 1.393 . S
C2399 C2398 1.391 . S
H2400 C2408 0.950 . S
H2401 C2413 0.950 . S
H2402 C2410 0.950 . S
H2403 C2412 0.950 . S
H2404 C2414 0.950 . S
H2405 C2416 0.950 . S
H2406 C2418 0.950 . S
H2407 C2419 0.950 . S
C2408 H2400 0.950 . S
C2408 C2409 1.386 . S
C2408 C2410 1.391 . S
C2409 C2408 1.386 . S
C2409 C2413 1.393 . S
C2410 H2402 0.950 . S
C2410 C2408 1.391 . S
C2410 C2411 1.400 . S
C2411 C2410 1.400 . S
C2411 C2412 1.398 . S
C2411 C2417 1.491 . S
C2412 H2403 0.950 . S
C2412 C2411 1.398 . S
C2412 C2413 1.391 . S
C2413 H2401 0.950 . S
C2413 C2409 1.393 . S
C2413 C2412 1.391 . S
C2414 H2404 0.950 . S
C2414 C2415 1.386 . S
C2414 C2416 1.391 . S
C2415 C2414 1.386 . S
C2415 C2419 1.393 . S
C2416 H2405 0.950 . S
C2416 C2414 1.391 . S
C2416 C2417 1.400 . S
C2417 C2411 1.491 . S
C2417 C2416 1.400 . S
C2417 C2418 1.398 . S
C2418 H2406 0.950 . S
C2418 C2417 1.398 . S
C2418 C2419 1.391 . S
C2419 H2407 0.950 . S
C2419 C2415 1.393 . S
C2419 C2418 1.391 . S
H2420 C2428 0.950 . S
H2421 C2433 0.950 . S
H2422 C2430 0.950 . S
H2423 C2432 0.950 . S
H2424 C2434 0.950 . S
H2425 C2436 0.950 . S
H2426 C2438 0.950 . S
H2427 C2439 0.950 . S
C2428 H2420 0.950 . S
C2428 C2429 1.386 . S
C2428 C2430 1.391 . S
C2429 C2428 1.386 . S
C2429 C2433 1.393 . S
C2430 H2422 0.950 . S
C2430 C2428 1.391 . S
C2430 C2431 1.400 . S
C2431 C2430 1.400 . S
C2431 C2432 1.398 . S
C2431 C2437 1.491 . S
C2432 H2423 0.950 . S
C2432 C2431 1.398 . S
C2432 C2433 1.391 . S
C2433 H2421 0.950 . S
C2433 C2429 1.393 . S
C2433 C2432 1.391 . S
C2434 H2424 0.950 . S
C2434 C2435 1.386 . S
C2434 C2436 1.391 . S
C2435 C2434 1.386 . S
C2435 C2439 1.393 . S
C2436 H2425 0.950 . S
C2436 C2434 1.391 . S
C2436 C2437 1.400 . S
C2437 C2431 1.491 . S
C2437 C2436 1.400 . S
C2437 C2438 1.398 . S
C2438 H2426 0.950 . S
C2438 C2437 1.398 . S
C2438 C2439 1.391 . S
C2439 H2427 0.950 . S
C2439 C2435 1.393 . S
C2439 C2438 1.391 . S
H2440 C2448 0.950 . S
H2441 C2453 0.950 . S
H2442 C2450 0.950 . S
H2443 C2452 0.950 . S
H2444 C2454 0.950 . S
H2445 C2456 0.950 . S
H2446 C2458 0.950 . S
H2447 C2459 0.950 . S
C2448 H2440 0.950 . S
C2448 C2449 1.386 . S
C2448 C2450 1.391 . S
C2449 C2448 1.386 . S
C2449 C2453 1.393 . S
C2450 H2442 0.950 . S
C2450 C2448 1.391 . S
C2450 C2451 1.400 . S
C2451 C2450 1.400 . S
C2451 C2452 1.398 . S
C2451 C2457 1.491 . S
C2452 H2443 0.950 . S
C2452 C2451 1.398 . S
C2452 C2453 1.391 . S
C2453 H2441 0.950 . S
C2453 C2449 1.393 . S
C2453 C2452 1.391 . S
C2454 H2444 0.950 . S
C2454 C2455 1.386 . S
C2454 C2456 1.391 . S
C2455 C2454 1.386 . S
C2455 C2459 1.393 . S
C2456 H2445 0.950 . S
C2456 C2454 1.391 . S
C2456 C2457 1.400 . S
C2457 C2451 1.491 . S
C2457 C2456 1.400 . S
C2457 C2458 1.398 . S
C2458 H2446 0.950 . S
C2458 C2457 1.398 . S
C2458 C2459 1.391 . S
C2459 H2447 0.950 . S
C2459 C2455 1.393 . S
C2459 C2458 1.391 . S
H2460 C2468 0.950 . S
H2461 C2473 0.950 . S
H2462 C2470 0.950 . S
H2463 C2472 0.950 . S
H2464 C2474 0.950 . S
H2465 C2476 0.950 . S
H2466 C2478 0.950 . S
H2467 C2479 0.950 . S
C2468 H2460 0.950 . S
C2468 C2469 1.386 . S
C2468 C2470 1.391 . S
C2469 C2468 1.386 . S
C2469 C2473 1.393 . S
C2470 H2462 0.950 . S
C2470 C2468 1.391 . S
C2470 C2471 1.400 . S
C2471 C2470 1.400 . S
C2471 C2472 1.398 . S
C2471 C2477 1.491 . S
C2472 H2463 0.950 . S
C2472 C2471 1.398 . S
C2472 C2473 1.391 . S
C2473 H2461 0.950 . S
C2473 C2469 1.393 . S
C2473 C2472 1.391 . S
C2474 H2464 0.950 . S
C2474 C2475 1.386 . S
C2474 C2476 1.391 . S
C2475 C2474 1.386 . S
C2475 C2479 1.393 . S
C2476 H2465 0.950 . S
C2476 C2474 1.391 . S
C2476 C2477 1.400 . S
C2477 C2471 1.491 . S
C2477 C2476 1.400 . S
C2477 C2478 1.398 . S
C2478 H2466 0.950 . S
C2478 C2477 1.398 . S
C2478 C2479 1.391 . S
C2479 H2467 0.950 . S
C2479 C2475 1.393 . S
C2479 C2478 1.391 . S
H2480 C2488 0.950 . S
H2481 C2493 0.950 . S
H2482 C2490 0.950 . S
H2483 C2492 0.950 . S
H2484 C2494 0.950 . S
H2485 C2496 0.950 . S
H2486 C2498 0.950 . S
H2487 C2499 0.950 . S
C2488 H2480 0.950 . S
C2488 C2489 1.386 . S
C2488 C2490 1.391 . S
C2489 C2488 1.386 . S
C2489 C2493 1.393 . S
C2490 H2482 0.950 . S
C2490 C2488 1.391 . S
C2490 C2491 1.400 . S
C2491 C2490 1.400 . S
C2491 C2492 1.398 . S
C2491 C2497 1.491 . S
C2492 H2483 0.950 . S
C2492 C2491 1.398 . S
C2492 C2493 1.391 . S
C2493 H2481 0.950 . S
C2493 C2489 1.393 . S
C2493 C2492 1.391 . S
C2494 H2484 0.950 . S
C2494 C2495 1.386 . S
C2494 C2496 1.391 . S
C2495 C2494 1.386 . S
C2495 C2499 1.393 . S
C2496 H2485 0.950 . S
C2496 C2494 1.391 . S
C2496 C2497 1.400 . S
C2497 C2491 1.491 . S
C2497 C2496 1.400 . S
C2497 C2498 1.398 . S
C2498 H2486 0.950 . S
C2498 C2497 1.398 . S
C2498 C2499 1.391 . S
C2499 H2487 0.950 . S
C2499 C2495 1.393 . S
C2499 C2498 1.391 . S
H2500 C2508 0.950 . S
H2501 C2513 0.950 . S
H2502 C2510 0.950 . S
H2503 C2512 0.950 . S
H2504 C2514 0.950 . S
H2505 C2516 0.950 . S
H2506 C2518 0.950 . S
H2507 C2519 0.950 . S
C2508 H2500 0.950 . S
C2508 C2509 1.386 . S
C2508 C2510 1.391 . S
C2509 C2508 1.386 . S
C2509 C2513 1.393 . S
C2510 H2502 0.950 . S
C2510 C2508 1.391 . S
C2510 C2511 1.400 . S
C2511 C2510 1.400 . S
C2511 C2512 1.398 . S
C2511 C2517 1.491 . S
C2512 H2503 0.950 . S
C2512 C2511 1.398 . S
C2512 C2513 1.391 . S
C2513 H2501 0.950 . S
C2513 C2509 1.393 . S
C2513 C2512 1.391 . S
C2514 H2504 0.950 . S
C2514 C2515 1.386 . S
C2514 C2516 1.391 . S
C2515 C2514 1.386 . S
C2515 C2519 1.393 . S
C2516 H2505 0.950 . S
C2516 C2514 1.391 . S
C2516 C2517 1.400 . S
C2517 C2511 1.491 . S
C2517 C2516 1.400 . S
C2517 C2518 1.398 . S
C2518 H2506 0.950 . S
C2518 C2517 1.398 . S
C2518 C2519 1.391 . S
C2519 H2507 0.950 . S
C2519 C2515 1.393 . S
C2519 C2518 1.391 . S
H2520 C2528 0.950 . S
H2521 C2533 0.950 . S
H2522 C2530 0.950 . S
H2523 C2532 0.950 . S
H2524 C2534 0.950 . S
H2525 C2536 0.950 . S
H2526 C2538 0.950 . S
H2527 C2539 0.950 . S
C2528 H2520 0.950 . S
C2528 C2529 1.386 . S
C2528 C2530 1.391 . S
C2529 C2528 1.386 . S
C2529 C2533 1.393 . S
C2530 H2522 0.950 . S
C2530 C2528 1.391 . S
C2530 C2531 1.400 . S
C2531 C2530 1.400 . S
C2531 C2532 1.398 . S
C2531 C2537 1.491 . S
C2532 H2523 0.950 . S
C2532 C2531 1.398 . S
C2532 C2533 1.391 . S
C2533 H2521 0.950 . S
C2533 C2529 1.393 . S
C2533 C2532 1.391 . S
C2534 H2524 0.950 . S
C2534 C2535 1.386 . S
C2534 C2536 1.391 . S
C2535 C2534 1.386 . S
C2535 C2539 1.393 . S
C2536 H2525 0.950 . S
C2536 C2534 1.391 . S
C2536 C2537 1.400 . S
C2537 C2531 1.491 . S
C2537 C2536 1.400 . S
C2537 C2538 1.398 . S
C2538 H2526 0.950 . S
C2538 C2537 1.398 . S
C2538 C2539 1.391 . S
C2539 H2527 0.950 . S
C2539 C2535 1.393 . S
C2539 C2538 1.391 . S
H2540 C2548 0.950 . S
H2541 C2553 0.950 . S
H2542 C2550 0.950 . S
H2543 C2552 0.950 . S
H2544 C2554 0.950 . S
H2545 C2556 0.950 . S
H2546 C2558 0.950 . S
H2547 C2559 0.950 . S
C2548 H2540 0.950 . S
C2548 C2549 1.386 . S
C2548 C2550 1.391 . S
C2549 C2548 1.386 . S
C2549 C2553 1.393 . S
C2550 H2542 0.950 . S
C2550 C2548 1.391 . S
C2550 C2551 1.400 . S
C2551 C2550 1.400 . S
C2551 C2552 1.398 . S
C2551 C2557 1.491 . S
C2552 H2543 0.950 . S
C2552 C2551 1.398 . S
C2552 C2553 1.391 . S
C2553 H2541 0.950 . S
C2553 C2549 1.393 . S
C2553 C2552 1.391 . S
C2554 H2544 0.950 . S
C2554 C2555 1.386 . S
C2554 C2556 1.391 . S
C2555 C2554 1.386 . S
C2555 C2559 1.393 . S
C2556 H2545 0.950 . S
C2556 C2554 1.391 . S
C2556 C2557 1.400 . S
C2557 C2551 1.491 . S
C2557 C2556 1.400 . S
C2557 C2558 1.398 . S
C2558 H2546 0.950 . S
C2558 C2557 1.398 . S
C2558 C2559 1.391 . S
C2559 H2547 0.950 . S
C2559 C2555 1.393 . S
C2559 C2558 1.391 . S
H2560 C2568 0.950 . S
H2561 C2573 0.950 . S
H2562 C2570 0.950 . S
H2563 C2572 0.950 . S
H2564 C2574 0.950 . S
H2565 C2576 0.950 . S
H2566 C2578 0.950 . S
H2567 C2579 0.950 . S
C2568 H2560 0.950 . S
C2568 C2569 1.386 . S
C2568 C2570 1.391 . S
C2569 C2568 1.386 . S
C2569 C2573 1.393 . S
C2570 H2562 0.950 . S
C2570 C2568 1.391 . S
C2570 C2571 1.400 . S
C2571 C2570 1.400 . S
C2571 C2572 1.398 . S
C2571 C2577 1.491 . S
C2572 H2563 0.950 . S
C2572 C2571 1.398 . S
C2572 C2573 1.391 . S
C2573 H2561 0.950 . S
C2573 C2569 1.393 . S
C2573 C2572 1.391 . S
C2574 H2564 0.950 . S
C2574 C2575 1.386 . S
C2574 C2576 1.391 . S
C2575 C2574 1.386 . S
C2575 C2579 1.393 . S
C2576 H2565 0.950 . S
C2576 C2574 1.391 . S
C2576 C2577 1.400 . S
C2577 C2571 1.491 . S
C2577 C2576 1.400 . S
C2577 C2578 1.398 . S
C2578 H2566 0.950 . S
C2578 C2577 1.398 . S
C2578 C2579 1.391 . S
C2579 H2567 0.950 . S
C2579 C2575 1.393 . S
C2579 C2578 1.391 . S
H2580 C2588 0.950 . S
H2581 C2593 0.950 . S
H2582 C2590 0.950 . S
H2583 C2592 0.950 . S
H2584 C2594 0.950 . S
H2585 C2596 0.950 . S
H2586 C2598 0.950 . S
H2587 C2599 0.950 . S
C2588 H2580 0.950 . S
C2588 C2589 1.386 . S
C2588 C2590 1.391 . S
C2589 C2588 1.386 . S
C2589 C2593 1.393 . S
C2590 H2582 0.950 . S
C2590 C2588 1.391 . S
C2590 C2591 1.400 . S
C2591 C2590 1.400 . S
C2591 C2592 1.398 . S
C2591 C2597 1.491 . S
C2592 H2583 0.950 . S
C2592 C2591 1.398 . S
C2592 C2593 1.391 . S
C2593 H2581 0.950 . S
C2593 C2589 1.393 . S
C2593 C2592 1.391 . S
C2594 H2584 0.950 . S
C2594 C2595 1.386 . S
C2594 C2596 1.391 . S
C2595 C2594 1.386 . S
C2595 C2599 1.393 . S
C2596 H2585 0.950 . S
C2596 C2594 1.391 . S
C2596 C2597 1.400 . S
C2597 C2591 1.491 . S
C2597 C2596 1.400 . S
C2597 C2598 1.398 . S
C2598 H2586 0.950 . S
C2598 C2597 1.398 . S
C2598 C2599 1.391 . S
C2599 H2587 0.950 . S
C2599 C2595 1.393 . S
C2599 C2598 1.391 . S
H2600 C2608 0.950 . S
H2601 C2613 0.950 . S
H2602 C2610 0.950 . S
H2603 C2612 0.950 . S
H2604 C2614 0.950 . S
H2605 C2616 0.950 . S
H2606 C2618 0.950 . S
H2607 C2619 0.950 . S
C2608 H2600 0.950 . S
C2608 C2609 1.386 . S
C2608 C2610 1.391 . S
C2609 C2608 1.386 . S
C2609 C2613 1.393 . S
C2610 H2602 0.950 . S
C2610 C2608 1.391 . S
C2610 C2611 1.400 . S
C2611 C2610 1.400 . S
C2611 C2612 1.398 . S
C2611 C2617 1.491 . S
C2612 H2603 0.950 . S
C2612 C2611 1.398 . S
C2612 C2613 1.391 . S
C2613 H2601 0.950 . S
C2613 C2609 1.393 . S
C2613 C2612 1.391 . S
C2614 H2604 0.950 . S
C2614 C2615 1.386 . S
C2614 C2616 1.391 . S
C2615 C2614 1.386 . S
C2615 C2619 1.393 . S
C2616 H2605 0.950 . S
C2616 C2614 1.391 . S
C2616 C2617 1.400 . S
C2617 C2611 1.491 . S
C2617 C2616 1.400 . S
C2617 C2618 1.398 . S
C2618 H2606 0.950 . S
C2618 C2617 1.398 . S
C2618 C2619 1.391 . S
C2619 H2607 0.950 . S
C2619 C2615 1.393 . S
C2619 C2618 1.391 . S
H2620 C2628 0.950 . S
H2621 C2633 0.950 . S
H2622 C2630 0.950 . S
H2623 C2632 0.950 . S
H2624 C2634 0.950 . S
H2625 C2636 0.950 . S
H2626 C2638 0.950 . S
H2627 C2639 0.950 . S
C2628 H2620 0.950 . S
C2628 C2629 1.386 . S
C2628 C2630 1.391 . S
C2629 C2628 1.386 . S
C2629 C2633 1.393 . S
C2630 H2622 0.950 . S
C2630 C2628 1.391 . S
C2630 C2631 1.400 . S
C2631 C2630 1.400 . S
C2631 C2632 1.398 . S
C2631 C2637 1.491 . S
C2632 H2623 0.950 . S
C2632 C2631 1.398 . S
C2632 C2633 1.391 . S
C2633 H2621 0.950 . S
C2633 C2629 1.393 . S
C2633 C2632 1.391 . S
C2634 H2624 0.950 . S
C2634 C2635 1.386 . S
C2634 C2636 1.391 . S
C2635 C2634 1.386 . S
C2635 C2639 1.393 . S
C2636 H2625 0.950 . S
C2636 C2634 1.391 . S
C2636 C2637 1.400 . S
C2637 C2631 1.491 . S
C2637 C2636 1.400 . S
C2637 C2638 1.398 . S
C2638 H2626 0.950 . S
C2638 C2637 1.398 . S
C2638 C2639 1.391 . S
C2639 H2627 0.950 . S
C2639 C2635 1.393 . S
C2639 C2638 1.391 . S
H2640 C2648 0.950 . S
H2641 C2653 0.950 . S
H2642 C2650 0.950 . S
H2643 C2652 0.950 . S
H2644 C2654 0.950 . S
H2645 C2656 0.950 . S
H2646 C2658 0.950 . S
H2647 C2659 0.950 . S
C2648 H2640 0.950 . S
C2648 C2649 1.386 . S
C2648 C2650 1.391 . S
C2649 C2648 1.386 . S
C2649 C2653 1.393 . S
C2650 H2642 0.950 . S
C2650 C2648 1.391 . S
C2650 C2651 1.400 . S
C2651 C2650 1.400 . S
C2651 C2652 1.398 . S
C2651 C2657 1.491 . S
C2652 H2643 0.950 . S
C2652 C2651 1.398 . S
C2652 C2653 1.391 . S
C2653 H2641 0.950 . S
C2653 C2649 1.393 . S
C2653 C2652 1.391 . S
C2654 H2644 0.950 . S
C2654 C2655 1.386 . S
C2654 C2656 1.391 . S
C2655 C2654 1.386 . S
C2655 C2659 1.393 . S
C2656 H2645 0.950 . S
C2656 C2654 1.391 . S
C2656 C2657 1.400 . S
C2657 C2651 1.491 . S
C2657 C2656 1.400 . S
C2657 C2658 1.398 . S
C2658 H2646 0.950 . S
C2658 C2657 1.398 . S
C2658 C2659 1.391 . S
C2659 H2647 0.950 . S
C2659 C2655 1.393 . S
C2659 C2658 1.391 . S
H2660 C2668 0.950 . S
H2661 C2673 0.950 . S
H2662 C2670 0.950 . S
H2663 C2672 0.950 . S
H2664 C2674 0.950 . S
H2665 C2676 0.950 . S
H2666 C2678 0.950 . S
H2667 C2679 0.950 . S
C2668 H2660 0.950 . S
C2668 C2669 1.386 . S
C2668 C2670 1.391 . S
C2669 C2668 1.386 . S
C2669 C2673 1.393 . S
C2670 H2662 0.950 . S
C2670 C2668 1.391 . S
C2670 C2671 1.400 . S
C2671 C2670 1.400 . S
C2671 C2672 1.398 . S
C2671 C2677 1.491 . S
C2672 H2663 0.950 . S
C2672 C2671 1.398 . S
C2672 C2673 1.391 . S
C2673 H2661 0.950 . S
C2673 C2669 1.393 . S
C2673 C2672 1.391 . S
C2674 H2664 0.950 . S
C2674 C2675 1.386 . S
C2674 C2676 1.391 . S
C2675 C2674 1.386 . S
C2675 C2679 1.393 . S
C2676 H2665 0.950 . S
C2676 C2674 1.391 . S
C2676 C2677 1.400 . S
C2677 C2671 1.491 . S
C2677 C2676 1.400 . S
C2677 C2678 1.398 . S
C2678 H2666 0.950 . S
C2678 C2677 1.398 . S
C2678 C2679 1.391 . S
C2679 H2667 0.950 . S
C2679 C2675 1.393 . S
C2679 C2678 1.391 . S
H2680 C2688 0.950 . S
H2681 C2693 0.950 . S
H2682 C2690 0.950 . S
H2683 C2692 0.950 . S
H2684 C2694 0.950 . S
H2685 C2696 0.950 . S
H2686 C2698 0.950 . S
H2687 C2699 0.950 . S
C2688 H2680 0.950 . S
C2688 C2689 1.386 . S
C2688 C2690 1.391 . S
C2689 C2688 1.386 . S
C2689 C2693 1.393 . S
C2690 H2682 0.950 . S
C2690 C2688 1.391 . S
C2690 C2691 1.400 . S
C2691 C2690 1.400 . S
C2691 C2692 1.398 . S
C2691 C2697 1.491 . S
C2692 H2683 0.950 . S
C2692 C2691 1.398 . S
C2692 C2693 1.391 . S
C2693 H2681 0.950 . S
C2693 C2689 1.393 . S
C2693 C2692 1.391 . S
C2694 H2684 0.950 . S
C2694 C2695 1.386 . S
C2694 C2696 1.391 . S
C2695 C2694 1.386 . S
C2695 C2699 1.393 . S
C2696 H2685 0.950 . S
C2696 C2694 1.391 . S
C2696 C2697 1.400 . S
C2697 C2691 1.491 . S
C2697 C2696 1.400 . S
C2697 C2698 1.398 . S
C2698 H2686 0.950 . S
C2698 C2697 1.398 . S
C2698 C2699 1.391 . S
C2699 H2687 0.950 . S
C2699 C2695 1.393 . S
C2699 C2698 1.391 . S
H2700 C2708 0.950 . S
H2701 C2713 0.950 . S
H2702 C2710 0.950 . S
H2703 C2712 0.950 . S
H2704 C2714 0.950 . S
H2705 C2716 0.950 . S
H2706 C2718 0.950 . S
H2707 C2719 0.950 . S
C2708 H2700 0.950 . S
C2708 C2709 1.386 . S
C2708 C2710 1.391 . S
C2709 C2708 1.386 . S
C2709 C2713 1.393 . S
C2710 H2702 0.950 . S
C2710 C2708 1.391 . S
C2710 C2711 1.400 . S
C2711 C2710 1.400 . S
C2711 C2712 1.398 . S
C2711 C2717 1.491 . S
C2712 H2703 0.950 . S
C2712 C2711 1.398 . S
C2712 C2713 1.391 . S
C2713 H2701 0.950 . S
C2713 C2709 1.393 . S
C2713 C2712 1.391 . S
C2714 H2704 0.950 . S
C2714 C2715 1.386 . S
C2714 C2716 1.391 . S
C2715 C2714 1.386 . S
C2715 C2719 1.393 . S
C2716 H2705 0.950 . S
C2716 C2714 1.391 . S
C2716 C2717 1.400 . S
C2717 C2711 1.491 . S
C2717 C2716 1.400 . S
C2717 C2718 1.398 . S
C2718 H2706 0.950 . S
C2718 C2717 1.398 . S
C2718 C2719 1.391 . S
C2719 H2707 0.950 . S
C2719 C2715 1.393 . S
C2719 C2718 1.391 . S
H2720 C2728 0.950 . S
H2721 C2733 0.950 . S
H2722 C2730 0.950 . S
H2723 C2732 0.950 . S
H2724 C2734 0.950 . S
H2725 C2736 0.950 . S
H2726 C2738 0.950 . S
H2727 C2739 0.950 . S
C2728 H2720 0.950 . S
C2728 C2729 1.386 . S
C2728 C2730 1.391 . S
C2729 C2728 1.386 . S
C2729 C2733 1.393 . S
C2730 H2722 0.950 . S
C2730 C2728 1.391 . S
C2730 C2731 1.400 . S
C2731 C2730 1.400 . S
C2731 C2732 1.398 . S
C2731 C2737 1.491 . S
C2732 H2723 0.950 . S
C2732 C2731 1.398 . S
C2732 C2733 1.391 . S
C2733 H2721 0.950 . S
C2733 C2729 1.393 . S
C2733 C2732 1.391 . S
C2734 H2724 0.950 . S
C2734 C2735 1.386 . S
C2734 C2736 1.391 . S
C2735 C2734 1.386 . S
C2735 C2739 1.393 . S
C2736 H2725 0.950 . S
C2736 C2734 1.391 . S
C2736 C2737 1.400 . S
C2737 C2731 1.491 . S
C2737 C2736 1.400 . S
C2737 C2738 1.398 . S
C2738 H2726 0.950 . S
C2738 C2737 1.398 . S
C2738 C2739 1.391 . S
C2739 H2727 0.950 . S
C2739 C2735 1.393 . S
C2739 C2738 1.391 . S
H2740 C2748 0.950 . S
H2741 C2753 0.950 . S
H2742 C2750 0.950 . S
H2743 C2752 0.950 . S
H2744 C2754 0.950 . S
H2745 C2756 0.950 . S
H2746 C2758 0.950 . S
H2747 C2759 0.950 . S
C2748 H2740 0.950 . S
C2748 C2749 1.386 . S
C2748 C2750 1.391 . S
C2749 C2748 1.386 . S
C2749 C2753 1.393 . S
C2750 H2742 0.950 . S
C2750 C2748 1.391 . S
C2750 C2751 1.400 . S
C2751 C2750 1.400 . S
C2751 C2752 1.398 . S
C2751 C2757 1.491 . S
C2752 H2743 0.950 . S
C2752 C2751 1.398 . S
C2752 C2753 1.391 . S
C2753 H2741 0.950 . S
C2753 C2749 1.393 . S
C2753 C2752 1.391 . S
C2754 H2744 0.950 . S
C2754 C2755 1.386 . S
C2754 C2756 1.391 . S
C2755 C2754 1.386 . S
C2755 C2759 1.393 . S
C2756 H2745 0.950 . S
C2756 C2754 1.391 . S
C2756 C2757 1.400 . S
C2757 C2751 1.491 . S
C2757 C2756 1.400 . S
C2757 C2758 1.398 . S
C2758 H2746 0.950 . S
C2758 C2757 1.398 . S
C2758 C2759 1.391 . S
C2759 H2747 0.950 . S
C2759 C2755 1.393 . S
C2759 C2758 1.391 . S
H2760 C2768 0.950 . S
H2761 C2773 0.950 . S
H2762 C2770 0.950 . S
H2763 C2772 0.950 . S
H2764 C2774 0.950 . S
H2765 C2776 0.950 . S
H2766 C2778 0.950 . S
H2767 C2779 0.950 . S
C2768 H2760 0.950 . S
C2768 C2769 1.386 . S
C2768 C2770 1.391 . S
C2769 C2768 1.386 . S
C2769 C2773 1.393 . S
C2770 H2762 0.950 . S
C2770 C2768 1.391 . S
C2770 C2771 1.400 . S
C2771 C2770 1.400 . S
C2771 C2772 1.398 . S
C2771 C2777 1.491 . S
C2772 H2763 0.950 . S
C2772 C2771 1.398 . S
C2772 C2773 1.391 . S
C2773 H2761 0.950 . S
C2773 C2769 1.393 . S
C2773 C2772 1.391 . S
C2774 H2764 0.950 . S
C2774 C2775 1.386 . S
C2774 C2776 1.391 . S
C2775 C2774 1.386 . S
C2775 C2779 1.393 . S
C2776 H2765 0.950 . S
C2776 C2774 1.391 . S
C2776 C2777 1.400 . S
C2777 C2771 1.491 . S
C2777 C2776 1.400 . S
C2777 C2778 1.398 . S
C2778 H2766 0.950 . S
C2778 C2777 1.398 . S
C2778 C2779 1.391 . S
C2779 H2767 0.950 . S
C2779 C2775 1.393 . S
C2779 C2778 1.391 . S
H2780 C2788 0.950 . S
H2781 C2793 0.950 . S
H2782 C2790 0.950 . S
H2783 C2792 0.950 . S
H2784 C2794 0.950 . S
H2785 C2796 0.950 . S
H2786 C2798 0.950 . S
H2787 C2799 0.950 . S
C2788 H2780 0.950 . S
C2788 C2789 1.386 . S
C2788 C2790 1.391 . S
C2789 C2788 1.386 . S
C2789 C2793 1.393 . S
C2790 H2782 0.950 . S
C2790 C2788 1.391 . S
C2790 C2791 1.400 . S
C2791 C2790 1.400 . S
C2791 C2792 1.398 . S
C2791 C2797 1.491 . S
C2792 H2783 0.950 . S
C2792 C2791 1.398 . S
C2792 C2793 1.391 . S
C2793 H2781 0.950 . S
C2793 C2789 1.393 . S
C2793 C2792 1.391 . S
C2794 H2784 0.950 . S
C2794 C2795 1.386 . S
C2794 C2796 1.391 . S
C2795 C2794 1.386 . S
C2795 C2799 1.393 . S
C2796 H2785 0.950 . S
C2796 C2794 1.391 . S
C2796 C2797 1.400 . S
C2797 C2791 1.491 . S
C2797 C2796 1.400 . S
C2797 C2798 1.398 . S
C2798 H2786 0.950 . S
C2798 C2797 1.398 . S
C2798 C2799 1.391 . S
C2799 H2787 0.950 . S
C2799 C2795 1.393 . S
C2799 C2798 1.391 . S
H2800 C2808 0.950 . S
H2801 C2813 0.950 . S
H2802 C2810 0.950 . S
H2803 C2812 0.950 . S
H2804 C2814 0.950 . S
H2805 C2816 0.950 . S
H2806 C2818 0.950 . S
H2807 C2819 0.950 . S
C2808 H2800 0.950 . S
C2808 C2809 1.386 . S
C2808 C2810 1.391 . S
C2809 C2808 1.386 . S
C2809 C2813 1.393 . S
C2810 H2802 0.950 . S
C2810 C2808 1.391 . S
C2810 C2811 1.400 . S
C2811 C2810 1.400 . S
C2811 C2812 1.398 . S
C2811 C2817 1.491 . S
C2812 H2803 0.950 . S
C2812 C2811 1.398 . S
C2812 C2813 1.391 . S
C2813 H2801 0.950 . S
C2813 C2809 1.393 . S
C2813 C2812 1.391 . S
C2814 H2804 0.950 . S
C2814 C2815 1.386 . S
C2814 C2816 1.391 . S
C2815 C2814 1.386 . S
C2815 C2819 1.393 . S
C2816 H2805 0.950 . S
C2816 C2814 1.391 . S
C2816 C2817 1.400 . S
C2817 C2811 1.491 . S
C2817 C2816 1.400 . S
C2817 C2818 1.398 . S
C2818 H2806 0.950 . S
C2818 C2817 1.398 . S
C2818 C2819 1.391 . S
C2819 H2807 0.950 . S
C2819 C2815 1.393 . S
C2819 C2818 1.391 . S
H2820 C2828 0.950 . S
H2821 C2833 0.950 . S
H2822 C2830 0.950 . S
H2823 C2832 0.950 . S
H2824 C2834 0.950 . S
H2825 C2836 0.950 . S
H2826 C2838 0.950 . S
H2827 C2839 0.950 . S
C2828 H2820 0.950 . S
C2828 C2829 1.386 . S
C2828 C2830 1.391 . S
C2829 C2828 1.386 . S
C2829 C2833 1.393 . S
C2830 H2822 0.950 . S
C2830 C2828 1.391 . S
C2830 C2831 1.400 . S
C2831 C2830 1.400 . S
C2831 C2832 1.398 . S
C2831 C2837 1.491 . S
C2832 H2823 0.950 . S
C2832 C2831 1.398 . S
C2832 C2833 1.391 . S
C2833 H2821 0.950 . S
C2833 C2829 1.393 . S
C2833 C2832 1.391 . S
C2834 H2824 0.950 . S
C2834 C2835 1.386 . S
C2834 C2836 1.391 . S
C2835 C2834 1.386 . S
C2835 C2839 1.393 . S
C2836 H2825 0.950 . S
C2836 C2834 1.391 . S
C2836 C2837 1.400 . S
C2837 C2831 1.491 . S
C2837 C2836 1.400 . S
C2837 C2838 1.398 . S
C2838 H2826 0.950 . S
C2838 C2837 1.398 . S
C2838 C2839 1.391 . S
C2839 H2827 0.950 . S
C2839 C2835 1.393 . S
C2839 C2838 1.391 . S
H2840 C2848 0.950 . S
H2841 C2853 0.950 . S
H2842 C2850 0.950 . S
H2843 C2852 0.950 . S
H2844 C2854 0.950 . S
H2845 C2856 0.950 . S
H2846 C2858 0.950 . S
H2847 C2859 0.950 . S
C2848 H2840 0.950 . S
C2848 C2849 1.386 . S
C2848 C2850 1.391 . S
C2849 C2848 1.386 . S
C2849 C2853 1.393 . S
C2850 H2842 0.950 . S
C2850 C2848 1.391 . S
C2850 C2851 1.400 . S
C2851 C2850 1.400 . S
C2851 C2852 1.398 . S
C2851 C2857 1.491 . S
C2852 H2843 0.950 . S
C2852 C2851 1.398 . S
C2852 C2853 1.391 . S
C2853 H2841 0.950 . S
C2853 C2849 1.393 . S
C2853 C2852 1.391 . S
C2854 H2844 0.950 . S
C2854 C2855 1.386 . S
C2854 C2856 1.391 . S
C2855 C2854 1.386 . S
C2855 C2859 1.393 . S
C2856 H2845 0.950 . S
C2856 C2854 1.391 . S
C2856 C2857 1.400 . S
C2857 C2851 1.491 . S
C2857 C2856 1.400 . S
C2857 C2858 1.398 . S
C2858 H2846 0.950 . S
C2858 C2857 1.398 . S
C2858 C2859 1.391 . S
C2859 H2847 0.950 . S
C2859 C2855 1.393 . S
C2859 C2858 1.391 . S
H2860 C2868 0.950 . S
H2861 C2873 0.950 . S
H2862 C2870 0.950 . S
H2863 C2872 0.950 . S
H2864 C2874 0.950 . S
H2865 C2876 0.950 . S
H2866 C2878 0.950 . S
H2867 C2879 0.950 . S
C2868 H2860 0.950 . S
C2868 C2869 1.386 . S
C2868 C2870 1.391 . S
C2869 C2868 1.386 . S
C2869 C2873 1.393 . S
C2870 H2862 0.950 . S
C2870 C2868 1.391 . S
C2870 C2871 1.400 . S
C2871 C2870 1.400 . S
C2871 C2872 1.398 . S
C2871 C2877 1.491 . S
C2872 H2863 0.950 . S
C2872 C2871 1.398 . S
C2872 C2873 1.391 . S
C2873 H2861 0.950 . S
C2873 C2869 1.393 . S
C2873 C2872 1.391 . S
C2874 H2864 0.950 . S
C2874 C2875 1.386 . S
C2874 C2876 1.391 . S
C2875 C2874 1.386 . S
C2875 C2879 1.393 . S
C2876 H2865 0.950 . S
C2876 C2874 1.391 . S
C2876 C2877 1.400 . S
C2877 C2871 1.491 . S
C2877 C2876 1.400 . S
C2877 C2878 1.398 . S
C2878 H2866 0.950 . S
C2878 C2877 1.398 . S
C2878 C2879 1.391 . S
C2879 H2867 0.950 . S
C2879 C2875 1.393 . S
C2879 C2878 1.391 . S
H2880 C2888 0.950 . S
H2881 C2893 0.950 . S
H2882 C2890 0.950 . S
H2883 C2892 0.950 . S
H2884 C2894 0.950 . S
H2885 C2896 0.950 . S
H2886 C2898 0.950 . S
H2887 C2899 0.950 . S
C2888 H2880 0.950 . S
C2888 C2889 1.386 . S
C2888 C2890 1.391 . S
C2889 C2888 1.386 . S
C2889 C2893 1.393 . S
C2890 H2882 0.950 . S
C2890 C2888 1.391 . S
C2890 C2891 1.400 . S
C2891 C2890 1.400 . S
C2891 C2892 1.398 . S
C2891 C2897 1.491 . S
C2892 H2883 0.950 . S
C2892 C2891 1.398 . S
C2892 C2893 1.391 . S
C2893 H2881 0.950 . S
C2893 C2889 1.393 . S
C2893 C2892 1.391 . S
C2894 H2884 0.950 . S
C2894 C2895 1.386 . S
C2894 C2896 1.391 . S
C2895 C2894 1.386 . S
C2895 C2899 1.393 . S
C2896 H2885 0.950 . S
C2896 C2894 1.391 . S
C2896 C2897 1.400 . S
C2897 C2891 1.491 . S
C2897 C2896 1.400 . S
C2897 C2898 1.398 . S
C2898 H2886 0.950 . S
C2898 C2897 1.398 . S
C2898 C2899 1.391 . S
C2899 H2887 0.950 . S
C2899 C2895 1.393 . S
C2899 C2898 1.391 . S
H2900 C2908 0.950 . S
H2901 C2913 0.950 . S
H2902 C2910 0.950 . S
H2903 C2912 0.950 . S
H2904 C2914 0.950 . S
H2905 C2916 0.950 . S
H2906 C2918 0.950 . S
H2907 C2919 0.950 . S
C2908 H2900 0.950 . S
C2908 C2909 1.386 . S
C2908 C2910 1.391 . S
C2909 C2908 1.386 . S
C2909 C2913 1.393 . S
C2910 H2902 0.950 . S
C2910 C2908 1.391 . S
C2910 C2911 1.400 . S
C2911 C2910 1.400 . S
C2911 C2912 1.398 . S
C2911 C2917 1.491 . S
C2912 H2903 0.950 . S
C2912 C2911 1.398 . S
C2912 C2913 1.391 . S
C2913 H2901 0.950 . S
C2913 C2909 1.393 . S
C2913 C2912 1.391 . S
C2914 H2904 0.950 . S
C2914 C2915 1.386 . S
C2914 C2916 1.391 . S
C2915 C2914 1.386 . S
C2915 C2919 1.393 . S
C2916 H2905 0.950 . S
C2916 C2914 1.391 . S
C2916 C2917 1.400 . S
C2917 C2911 1.491 . S
C2917 C2916 1.400 . S
C2917 C2918 1.398 . S
C2918 H2906 0.950 . S
C2918 C2917 1.398 . S
C2918 C2919 1.391 . S
C2919 H2907 0.950 . S
C2919 C2915 1.393 . S
C2919 C2918 1.391 . S
H2920 C2928 0.950 . S
H2921 C2933 0.950 . S
H2922 C2930 0.950 . S
H2923 C2932 0.950 . S
H2924 C2934 0.950 . S
H2925 C2936 0.950 . S
H2926 C2938 0.950 . S
H2927 C2939 0.950 . S
C2928 H2920 0.950 . S
C2928 C2929 1.386 . S
C2928 C2930 1.391 . S
C2929 C2928 1.386 . S
C2929 C2933 1.393 . S
C2930 H2922 0.950 . S
C2930 C2928 1.391 . S
C2930 C2931 1.400 . S
C2931 C2930 1.400 . S
C2931 C2932 1.398 . S
C2931 C2937 1.491 . S
C2932 H2923 0.950 . S
C2932 C2931 1.398 . S
C2932 C2933 1.391 . S
C2933 H2921 0.950 . S
C2933 C2929 1.393 . S
C2933 C2932 1.391 . S
C2934 H2924 0.950 . S
C2934 C2935 1.386 . S
C2934 C2936 1.391 . S
C2935 C2934 1.386 . S
C2935 C2939 1.393 . S
C2936 H2925 0.950 . S
C2936 C2934 1.391 . S
C2936 C2937 1.400 . S
C2937 C2931 1.491 . S
C2937 C2936 1.400 . S
C2937 C2938 1.398 . S
C2938 H2926 0.950 . S
C2938 C2937 1.398 . S
C2938 C2939 1.391 . S
C2939 H2927 0.950 . S
C2939 C2935 1.393 . S
C2939 C2938 1.391 . S
H2940 C2948 0.950 . S
H2941 C2953 0.950 . S
H2942 C2950 0.950 . S
H2943 C2952 0.950 . S
H2944 C2954 0.950 . S
H2945 C2956 0.950 . S
H2946 C2958 0.950 . S
H2947 C2959 0.950 . S
C2948 H2940 0.950 . S
C2948 C2949 1.386 . S
C2948 C2950 1.391 . S
C2949 C2948 1.386 . S
C2949 C2953 1.393 . S
C2950 H2942 0.950 . S
C2950 C2948 1.391 . S
C2950 C2951 1.400 . S
C2951 C2950 1.400 . S
C2951 C2952 1.398 . S
C2951 C2957 1.491 . S
C2952 H2943 0.950 . S
C2952 C2951 1.398 . S
C2952 C2953 1.391 . S
C2953 H2941 0.950 . S
C2953 C2949 1.393 . S
C2953 C2952 1.391 . S
C2954 H2944 0.950 . S
C2954 C2955 1.386 . S
C2954 C2956 1.391 . S
C2955 C2954 1.386 . S
C2955 C2959 1.393 . S
C2956 H2945 0.950 . S
C2956 C2954 1.391 . S
C2956 C2957 1.400 . S
C2957 C2951 1.491 . S
C2957 C2956 1.400 . S
C2957 C2958 1.398 . S
C2958 H2946 0.950 . S
C2958 C2957 1.398 . S
C2958 C2959 1.391 . S
C2959 H2947 0.950 . S
C2959 C2955 1.393 . S
C2959 C2958 1.391 . S
H2960 C2968 0.950 . S
H2961 C2973 0.950 . S
H2962 C2970 0.950 . S
H2963 C2972 0.950 . S
H2964 C2974 0.950 . S
H2965 C2976 0.950 . S
H2966 C2978 0.950 . S
H2967 C2979 0.950 . S
C2968 H2960 0.950 . S
C2968 C2969 1.386 . S
C2968 C2970 1.391 . S
C2969 C2968 1.386 . S
C2969 C2973 1.393 . S
C2970 H2962 0.950 . S
C2970 C2968 1.391 . S
C2970 C2971 1.400 . S
C2971 C2970 1.400 . S
C2971 C2972 1.398 . S
C2971 C2977 1.491 . S
C2972 H2963 0.950 . S
C2972 C2971 1.398 . S
C2972 C2973 1.391 . S
C2973 H2961 0.950 . S
C2973 C2969 1.393 . S
C2973 C2972 1.391 . S
C2974 H2964 0.950 . S
C2974 C2975 1.386 . S
C2974 C2976 1.391 . S
C2975 C2974 1.386 . S
C2975 C2979 1.393 . S
C2976 H2965 0.950 . S
C2976 C2974 1.391 . S
C2976 C2977 1.400 . S
C2977 C2971 1.491 . S
C2977 C2976 1.400 . S
C2977 C2978 1.398 . S
C2978 H2966 0.950 . S
C2978 C2977 1.398 . S
C2978 C2979 1.391 . S
C2979 H2967 0.950 . S
C2979 C2975 1.393 . S
C2979 C2978 1.391 . S
H2980 C2988 0.950 . S
H2981 C2993 0.950 . S
H2982 C2990 0.950 . S
H2983 C2992 0.950 . S
H2984 C2994 0.950 . S
H2985 C2996 0.950 . S
H2986 C2998 0.950 . S
H2987 C2999 0.950 . S
C2988 H2980 0.950 . S
C2988 C2989 1.386 . S
C2988 C2990 1.391 . S
C2989 C2988 1.386 . S
C2989 C2993 1.393 . S
C2990 H2982 0.950 . S
C2990 C2988 1.391 . S
C2990 C2991 1.400 . S
C2991 C2990 1.400 . S
C2991 C2992 1.398 . S
C2991 C2997 1.491 . S
C2992 H2983 0.950 . S
C2992 C2991 1.398 . S
C2992 C2993 1.391 . S
C2993 H2981 0.950 . S
C2993 C2989 1.393 . S
C2993 C2992 1.391 . S
C2994 H2984 0.950 . S
C2994 C2995 1.386 . S
C2994 C2996 1.391 . S
C2995 C2994 1.386 . S
C2995 C2999 1.393 . S
C2996 H2985 0.950 . S
C2996 C2994 1.391 . S
C2996 C2997 1.400 . S
C2997 C2991 1.491 . S
C2997 C2996 1.400 . S
C2997 C2998 1.398 . S
C2998 H2986 0.950 . S
C2998 C2997 1.398 . S
C2998 C2999 1.391 . S
C2999 H2987 0.950 . S
C2999 C2995 1.393 . S
C2999 C2998 1.391 . S
H3000 C3008 0.950 . S
H3001 C3013 0.950 . S
H3002 C3010 0.950 . S
H3003 C3012 0.950 . S
H3004 C3014 0.950 . S
H3005 C3016 0.950 . S
H3006 C3018 0.950 . S
H3007 C3019 0.950 . S
C3008 H3000 0.950 . S
C3008 C3009 1.386 . S
C3008 C3010 1.391 . S
C3009 C3008 1.386 . S
C3009 C3013 1.393 . S
C3010 H3002 0.950 . S
C3010 C3008 1.391 . S
C3010 C3011 1.400 . S
C3011 C3010 1.400 . S
C3011 C3012 1.398 . S
C3011 C3017 1.491 . S
C3012 H3003 0.950 . S
C3012 C3011 1.398 . S
C3012 C3013 1.391 . S
C3013 H3001 0.950 . S
C3013 C3009 1.393 . S
C3013 C3012 1.391 . S
C3014 H3004 0.950 . S
C3014 C3015 1.386 . S
C3014 C3016 1.391 . S
C3015 C3014 1.386 . S
C3015 C3019 1.393 . S
C3016 H3005 0.950 . S
C3016 C3014 1.391 . S
C3016 C3017 1.400 . S
C3017 C3011 1.491 . S
C3017 C3016 1.400 . S
C3017 C3018 1.398 . S
C3018 H3006 0.950 . S
C3018 C3017 1.398 . S
C3018 C3019 1.391 . S
C3019 H3007 0.950 . S
C3019 C3015 1.393 . S
C3019 C3018 1.391 . S
H3020 C3028 0.950 . S
H3021 C3033 0.950 . S
H3022 C3030 0.950 . S
H3023 C3032 0.950 . S
H3024 C3034 0.950 . S
H3025 C3036 0.950 . S
H3026 C3038 0.950 . S
H3027 C3039 0.950 . S
C3028 H3020 0.950 . S
C3028 C3029 1.386 . S
C3028 C3030 1.391 . S
C3029 C3028 1.386 . S
C3029 C3033 1.393 . S
C3030 H3022 0.950 . S
C3030 C3028 1.391 . S
C3030 C3031 1.400 . S
C3031 C3030 1.400 . S
C3031 C3032 1.398 . S
C3031 C3037 1.491 . S
C3032 H3023 0.950 . S
C3032 C3031 1.398 . S
C3032 C3033 1.391 . S
C3033 H3021 0.950 . S
C3033 C3029 1.393 . S
C3033 C3032 1.391 . S
C3034 H3024 0.950 . S
C3034 C3035 1.386 . S
C3034 C3036 1.391 . S
C3035 C3034 1.386 . S
C3035 C3039 1.393 . S
C3036 H3025 0.950 . S
C3036 C3034 1.391 . S
C3036 C3037 1.400 . S
C3037 C3031 1.491 . S
C3037 C3036 1.400 . S
C3037 C3038 1.398 . S
C3038 H3026 0.950 . S
C3038 C3037 1.398 . S
C3038 C3039 1.391 . S
C3039 H3027 0.950 . S
C3039 C3035 1.393 . S
C3039 C3038 1.391 . S
H3040 C3048 0.950 . S
H3041 C3053 0.950 . S
H3042 C3050 0.950 . S
H3043 C3052 0.950 . S
H3044 C3054 0.950 . S
H3045 C3056 0.950 . S
H3046 C3058 0.950 . S
H3047 C3059 0.950 . S
C3048 H3040 0.950 . S
C3048 C3049 1.386 . S
C3048 C3050 1.391 . S
C3049 C3048 1.386 . S
C3049 C3053 1.393 . S
C3050 H3042 0.950 . S
C3050 C3048 1.391 . S
C3050 C3051 1.400 . S
C3051 C3050 1.400 . S
C3051 C3052 1.398 . S
C3051 C3057 1.491 . S
C3052 H3043 0.950 . S
C3052 C3051 1.398 . S
C3052 C3053 1.391 . S
C3053 H3041 0.950 . S
C3053 C3049 1.393 . S
C3053 C3052 1.391 . S
C3054 H3044 0.950 . S
C3054 C3055 1.386 . S
C3054 C3056 1.391 . S
C3055 C3054 1.386 . S
C3055 C3059 1.393 . S
C3056 H3045 0.950 . S
C3056 C3054 1.391 . S
C3056 C3057 1.400 . S
C3057 C3051 1.491 . S
C3057 C3056 1.400 . S
C3057 C3058 1.398 . S
C3058 H3046 0.950 . S
C3058 C3057 1.398 . S
C3058 C3059 1.391 . S
C3059 H3047 0.950 . S
C3059 C3055 1.393 . S
C3059 C3058 1.391 . S
H3060 C3068 0.950 . S
H3061 C3073 0.950 . S
H3062 C3070 0.950 . S
H3063 C3072 0.950 . S
H3064 C3074 0.950 . S
H3065 C3076 0.950 . S
H3066 C3078 0.950 . S
H3067 C3079 0.950 . S
C3068 H3060 0.950 . S
C3068 C3069 1.386 . S
C3068 C3070 1.391 . S
C3069 C3068 1.386 . S
C3069 C3073 1.393 . S
C3070 H3062 0.950 . S
C3070 C3068 1.391 . S
C3070 C3071 1.400 . S
C3071 C3070 1.400 . S
C3071 C3072 1.398 . S
C3071 C3077 1.491 . S
C3072 H3063 0.950 . S
C3072 C3071 1.398 . S
C3072 C3073 1.391 . S
C3073 H3061 0.950 . S
C3073 C3069 1.393 . S
C3073 C3072 1.391 . S
C3074 H3064 0.950 . S
C3074 C3075 1.386 . S
C3074 C3076 1.391 . S
C3075 C3074 1.386 . S
C3075 C3079 1.393 . S
C3076 H3065 0.950 . S
C3076 C3074 1.391 . S
C3076 C3077 1.400 . S
C3077 C3071 1.491 . S
C3077 C3076 1.400 . S
C3077 C3078 1.398 . S
C3078 H3066 0.950 . S
C3078 C3077 1.398 . S
C3078 C3079 1.391 . S
C3079 H3067 0.950 . S
C3079 C3075 1.393 . S
C3079 C3078 1.391 . S
H3080 C3088 0.950 . S
H3081 C3093 0.950 . S
H3082 C3090 0.950 . S
H3083 C3092 0.950 . S
H3084 C3094 0.950 . S
H3085 C3096 0.950 . S
H3086 C3098 0.950 . S
H3087 C3099 0.950 . S
C3088 H3080 0.950 . S
C3088 C3089 1.386 . S
C3088 C3090 1.391 . S
C3089 C3088 1.386 . S
C3089 C3093 1.393 . S
C3090 H3082 0.950 . S
C3090 C3088 1.391 . S
C3090 C3091 1.400 . S
C3091 C3090 1.400 . S
C3091 C3092 1.398 . S
C3091 C3097 1.491 . S
C3092 H3083 0.950 . S
C3092 C3091 1.398 . S
C3092 C3093 1.391 . S
C3093 H3081 0.950 . S
C3093 C3089 1.393 . S
C3093 C3092 1.391 . S
C3094 H3084 0.950 . S
C3094 C3095 1.386 . S
C3094 C3096 1.391 . S
C3095 C3094 1.386 . S
C3095 C3099 1.393 . S
C3096 H3085 0.950 . S
C3096 C3094 1.391 . S
C3096 C3097 1.400 . S
C3097 C3091 1.491 . S
C3097 C3096 1.400 . S
C3097 C3098 1.398 . S
C3098 H3086 0.950 . S
C3098 C3097 1.398 . S
C3098 C3099 1.391 . S
C3099 H3087 0.950 . S
C3099 C3095 1.393 . S
C3099 C3098 1.391 . S
H3100 C3108 0.950 . S
H3101 C3113 0.950 . S
H3102 C3110 0.950 . S
H3103 C3112 0.950 . S
H3104 C3114 0.950 . S
H3105 C3116 0.950 . S
H3106 C3118 0.950 . S
H3107 C3119 0.950 . S
C3108 H3100 0.950 . S
C3108 C3109 1.386 . S
C3108 C3110 1.391 . S
C3109 C3108 1.386 . S
C3109 C3113 1.393 . S
C3110 H3102 0.950 . S
C3110 C3108 1.391 . S
C3110 C3111 1.400 . S
C3111 C3110 1.400 . S
C3111 C3112 1.398 . S
C3111 C3117 1.491 . S
C3112 H3103 0.950 . S
C3112 C3111 1.398 . S
C3112 C3113 1.391 . S
C3113 H3101 0.950 . S
C3113 C3109 1.393 . S
C3113 C3112 1.391 . S
C3114 H3104 0.950 . S
C3114 C3115 1.386 . S
C3114 C3116 1.391 . S
C3115 C3114 1.386 . S
C3115 C3119 1.393 . S
C3116 H3105 0.950 . S
C3116 C3114 1.391 . S
C3116 C3117 1.400 . S
C3117 C3111 1.491 . S
C3117 C3116 1.400 . S
C3117 C3118 1.398 . S
C3118 H3106 0.950 . S
C3118 C3117 1.398 . S
C3118 C3119 1.391 . S
C3119 H3107 0.950 . S
C3119 C3115 1.393 . S
C3119 C3118 1.391 . S
H3120 C3128 0.950 . S
H3121 C3133 0.950 . S
H3122 C3130 0.950 . S
H3123 C3132 0.950 . S
H3124 C3134 0.950 . S
H3125 C3136 0.950 . S
H3126 C3138 0.950 . S
H3127 C3139 0.950 . S
C3128 H3120 0.950 . S
C3128 C3129 1.386 . S
C3128 C3130 1.391 . S
C3129 C3128 1.386 . S
C3129 C3133 1.393 . S
C3130 H3122 0.950 . S
C3130 C3128 1.391 . S
C3130 C3131 1.400 . S
C3131 C3130 1.400 . S
C3131 C3132 1.398 . S
C3131 C3137 1.491 . S
C3132 H3123 0.950 . S
C3132 C3131 1.398 . S
C3132 C3133 1.391 . S
C3133 H3121 0.950 . S
C3133 C3129 1.393 . S
C3133 C3132 1.391 . S
C3134 H3124 0.950 . S
C3134 C3135 1.386 . S
C3134 C3136 1.391 . S
C3135 C3134 1.386 . S
C3135 C3139 1.393 . S
C3136 H3125 0.950 . S
C3136 C3134 1.391 . S
C3136 C3137 1.400 . S
C3137 C3131 1.491 . S
C3137 C3136 1.400 . S
C3137 C3138 1.398 . S
C3138 H3126 0.950 . S
C3138 C3137 1.398 . S
C3138 C3139 1.391 . S
C3139 H3127 0.950 . S
C3139 C3135 1.393 . S
C3139 C3138 1.391 . S
H3140 C3148 0.950 . S
H3141 C3153 0.950 . S
H3142 C3150 0.950 . S
H3143 C3152 0.950 . S
H3144 C3154 0.950 . S
H3145 C3156 0.950 . S
H3146 C3158 0.950 . S
H3147 C3159 0.950 . S
C3148 H3140 0.950 . S
C3148 C3149 1.386 . S
C3148 C3150 1.391 . S
C3149 C3148 1.386 . S
C3149 C3153 1.393 . S
C3150 H3142 0.950 . S
C3150 C3148 1.391 . S
C3150 C3151 1.400 . S
C3151 C3150 1.400 . S
C3151 C3152 1.398 . S
C3151 C3157 1.491 . S
C3152 H3143 0.950 . S
C3152 C3151 1.398 . S
C3152 C3153 1.391 . S
C3153 H3141 0.950 . S
C3153 C3149 1.393 . S
C3153 C3152 1.391 . S
C3154 H3144 0.950 . S
C3154 C3155 1.386 . S
C3154 C3156 1.391 . S
C3155 C3154 1.386 . S
C3155 C3159 1.393 . S
C3156 H3145 0.950 . S
C3156 C3154 1.391 . S
C3156 C3157 1.400 . S
C3157 C3151 1.491 . S
C3157 C3156 1.400 . S
C3157 C3158 1.398 . S
C3158 H3146 0.950 . S
C3158 C3157 1.398 . S
C3158 C3159 1.391 . S
C3159 H3147 0.950 . S
C3159 C3155 1.393 . S
C3159 C3158 1.391 . S
H3160 C3168 0.950 . S
H3161 C3173 0.950 . S
H3162 C3170 0.950 . S
H3163 C3172 0.950 . S
H3164 C3174 0.950 . S
H3165 C3176 0.950 . S
H3166 C3178 0.950 . S
H3167 C3179 0.950 . S
C3168 H3160 0.950 . S
C3168 C3169 1.386 . S
C3168 C3170 1.391 . S
C3169 C3168 1.386 . S
C3169 C3173 1.393 . S
C3170 H3162 0.950 . S
C3170 C3168 1.391 . S
C3170 C3171 1.400 . S
C3171 C3170 1.400 . S
C3171 C3172 1.398 . S
C3171 C3177 1.491 . S
C3172 H3163 0.950 . S
C3172 C3171 1.398 . S
C3172 C3173 1.391 . S
C3173 H3161 0.950 . S
C3173 C3169 1.393 . S
C3173 C3172 1.391 . S
C3174 H3164 0.950 . S
C3174 C3175 1.386 . S
C3174 C3176 1.391 . S
C3175 C3174 1.386 . S
C3175 C3179 1.393 . S
C3176 H3165 0.950 . S
C3176 C3174 1.391 . S
C3176 C3177 1.400 . S
C3177 C3171 1.491 . S
C3177 C3176 1.400 . S
C3177 C3178 1.398 . S
C3178 H3166 0.950 . S
C3178 C3177 1.398 . S
C3178 C3179 1.391 . S
C3179 H3167 0.950 . S
C3179 C3175 1.393 . S
C3179 C3178 1.391 . S
H3180 C3188 0.950 . S
H3181 C3193 0.950 . S
H3182 C3190 0.950 . S
H3183 C3192 0.950 . S
H3184 C3194 0.950 . S
H3185 C3196 0.950 . S
H3186 C3198 0.950 . S
H3187 C3199 0.950 . S
C3188 H3180 0.950 . S
C3188 C3189 1.386 . S
C3188 C3190 1.391 . S
C3189 C3188 1.386 . S
C3189 C3193 1.393 . S
C3190 H3182 0.950 . S
C3190 C3188 1.391 . S
C3190 C3191 1.400 . S
C3191 C3190 1.400 . S
C3191 C3192 1.398 . S
C3191 C3197 1.491 . S
C3192 H3183 0.950 . S
C3192 C3191 1.398 . S
C3192 C3193 1.391 . S
C3193 H3181 0.950 . S
C3193 C3189 1.393 . S
C3193 C3192 1.391 . S
C3194 H3184 0.950 . S
C3194 C3195 1.386 . S
C3194 C3196 1.391 . S
C3195 C3194 1.386 . S
C3195 C3199 1.393 . S
C3196 H3185 0.950 . S
C3196 C3194 1.391 . S
C3196 C3197 1.400 . S
C3197 C3191 1.491 . S
C3197 C3196 1.400 . S
C3197 C3198 1.398 . S
C3198 H3186 0.950 . S
C3198 C3197 1.398 . S
C3198 C3199 1.391 . S
C3199 H3187 0.950 . S
C3199 C3195 1.393 . S
C3199 C3198 1.391 . S
H3200 C3208 0.950 . S
H3201 C3213 0.950 . S
H3202 C3210 0.950 . S
H3203 C3212 0.950 . S
H3204 C3214 0.950 . S
H3205 C3216 0.950 . S
H3206 C3218 0.950 . S
H3207 C3219 0.950 . S
C3208 H3200 0.950 . S
C3208 C3209 1.386 . S
C3208 C3210 1.391 . S
C3209 C3208 1.386 . S
C3209 C3213 1.393 . S
C3210 H3202 0.950 . S
C3210 C3208 1.391 . S
C3210 C3211 1.400 . S
C3211 C3210 1.400 . S
C3211 C3212 1.398 . S
C3211 C3217 1.491 . S
C3212 H3203 0.950 . S
C3212 C3211 1.398 . S
C3212 C3213 1.391 . S
C3213 H3201 0.950 . S
C3213 C3209 1.393 . S
C3213 C3212 1.391 . S
C3214 H3204 0.950 . S
C3214 C3215 1.386 . S
C3214 C3216 1.391 . S
C3215 C3214 1.386 . S
C3215 C3219 1.393 . S
C3216 H3205 0.950 . S
C3216 C3214 1.391 . S
C3216 C3217 1.400 . S
C3217 C3211 1.491 . S
C3217 C3216 1.400 . S
C3217 C3218 1.398 . S
C3218 H3206 0.950 . S
C3218 C3217 1.398 . S
C3218 C3219 1.391 . S
C3219 H3207 0.950 . S
C3219 C3215 1.393 . S
C3219 C3218 1.391 . S
H3220 C3228 0.950 . S
H3221 C3233 0.950 . S
H3222 C3230 0.950 . S
H3223 C3232 0.950 . S
H3224 C3234 0.950 . S
H3225 C3236 0.950 . S
H3226 C3238 0.950 . S
H3227 C3239 0.950 . S
C3228 H3220 0.950 . S
C3228 C3229 1.386 . S
C3228 C3230 1.391 . S
C3229 C3228 1.386 . S
C3229 C3233 1.393 . S
C3230 H3222 0.950 . S
C3230 C3228 1.391 . S
C3230 C3231 1.400 . S
C3231 C3230 1.400 . S
C3231 C3232 1.398 . S
C3231 C3237 1.491 . S
C3232 H3223 0.950 . S
C3232 C3231 1.398 . S
C3232 C3233 1.391 . S
C3233 H3221 0.950 . S
C3233 C3229 1.393 . S
C3233 C3232 1.391 . S
C3234 H3224 0.950 . S
C3234 C3235 1.386 . S
C3234 C3236 1.391 . S
C3235 C3234 1.386 . S
C3235 C3239 1.393 . S
C3236 H3225 0.950 . S
C3236 C3234 1.391 . S
C3236 C3237 1.400 . S
C3237 C3231 1.491 . S
C3237 C3236 1.400 . S
C3237 C3238 1.398 . S
C3238 H3226 0.950 . S
C3238 C3237 1.398 . S
C3238 C3239 1.391 . S
C3239 H3227 0.950 . S
C3239 C3235 1.393 . S
C3239 C3238 1.391 . S
H3240 C3248 0.950 . S
H3241 C3253 0.950 . S
H3242 C3250 0.950 . S
H3243 C3252 0.950 . S
H3244 C3254 0.950 . S
H3245 C3256 0.950 . S
H3246 C3258 0.950 . S
H3247 C3259 0.950 . S
C3248 H3240 0.950 . S
C3248 C3249 1.386 . S
C3248 C3250 1.391 . S
C3249 C3248 1.386 . S
C3249 C3253 1.393 . S
C3250 H3242 0.950 . S
C3250 C3248 1.391 . S
C3250 C3251 1.400 . S
C3251 C3250 1.400 . S
C3251 C3252 1.398 . S
C3251 C3257 1.491 . S
C3252 H3243 0.950 . S
C3252 C3251 1.398 . S
C3252 C3253 1.391 . S
C3253 H3241 0.950 . S
C3253 C3249 1.393 . S
C3253 C3252 1.391 . S
C3254 H3244 0.950 . S
C3254 C3255 1.386 . S
C3254 C3256 1.391 . S
C3255 C3254 1.386 . S
C3255 C3259 1.393 . S
C3256 H3245 0.950 . S
C3256 C3254 1.391 . S
C3256 C3257 1.400 . S
C3257 C3251 1.491 . S
C3257 C3256 1.400 . S
C3257 C3258 1.398 . S
C3258 H3246 0.950 . S
C3258 C3257 1.398 . S
C3258 C3259 1.391 . S
C3259 H3247 0.950 . S
C3259 C3255 1.393 . S
C3259 C3258 1.391 . S
H3260 C3268 0.950 . S
H3261 C3273 0.950 . S
H3262 C3270 0.950 . S
H3263 C3272 0.950 . S
H3264 C3274 0.950 . S
H3265 C3276 0.950 . S
H3266 C3278 0.950 . S
H3267 C3279 0.950 . S
C3268 H3260 0.950 . S
C3268 C3269 1.386 . S
C3268 C3270 1.391 . S
C3269 C3268 1.386 . S
C3269 C3273 1.393 . S
C3270 H3262 0.950 . S
C3270 C3268 1.391 . S
C3270 C3271 1.400 . S
C3271 C3270 1.400 . S
C3271 C3272 1.398 . S
C3271 C3277 1.491 . S
C3272 H3263 0.950 . S
C3272 C3271 1.398 . S
C3272 C3273 1.391 . S
C3273 H3261 0.950 . S
C3273 C3269 1.393 . S
C3273 C3272 1.391 . S
C3274 H3264 0.950 . S
C3274 C3275 1.386 . S
C3274 C3276 1.391 . S
C3275 C3274 1.386 . S
C3275 C3279 1.393 . S
C3276 H3265 0.950 . S
C3276 C3274 1.391 . S
C3276 C3277 1.400 . S
C3277 C3271 1.491 . S
C3277 C3276 1.400 . S
C3277 C3278 1.398 . S
C3278 H3266 0.950 . S
C3278 C3277 1.398 . S
C3278 C3279 1.391 . S
C3279 H3267 0.950 . S
C3279 C3275 1.393 . S
C3279 C3278 1.391 . S
H3280 C3288 0.950 . S
H3281 C3293 0.950 . S
H3282 C3290 0.950 . S
H3283 C3292 0.950 . S
H3284 C3294 0.950 . S
H3285 C3296 0.950 . S
H3286 C3298 0.950 . S
H3287 C3299 0.950 . S
C3288 H3280 0.950 . S
C3288 C3289 1.386 . S
C3288 C3290 1.391 . S
C3289 C3288 1.386 . S
C3289 C3293 1.393 . S
C3290 H3282 0.950 . S
C3290 C3288 1.391 . S
C3290 C3291 1.400 . S
C3291 C3290 1.400 . S
C3291 C3292 1.398 . S
C3291 C3297 1.491 . S
C3292 H3283 0.950 . S
C3292 C3291 1.398 . S
C3292 C3293 1.391 . S
C3293 H3281 0.950 . S
C3293 C3289 1.393 . S
C3293 C3292 1.391 . S
C3294 H3284 0.950 . S
C3294 C3295 1.386 . S
C3294 C3296 1.391 . S
C3295 C3294 1.386 . S
C3295 C3299 1.393 . S
C3296 H3285 0.950 . S
C3296 C3294 1.391 . S
C3296 C3297 1.400 . S
C3297 C3291 1.491 . S
C3297 C3296 1.400 . S
C3297 C3298 1.398 . S
C3298 H3286 0.950 . S
C3298 C3297 1.398 . S
C3298 C3299 1.391 . S
C3299 H3287 0.950 . S
C3299 C3295 1.393 . S
C3299 C3298 1.391 . S
H3300 C3308 0.950 . S
H3301 C3313 0.950 . S
H3302 C3310 0.950 . S
H3303 C3312 0.950 . S
H3304 C3314 0.950 . S
H3305 C3316 0.950 . S
H3306 C3318 0.950 . S
H3307 C3319 0.950 . S
C3308 H3300 0.950 . S
C3308 C3309 1.386 . S
C3308 C3310 1.391 . S
C3309 C3308 1.386 . S
C3309 C3313 1.393 . S
C3310 H3302 0.950 . S
C3310 C3308 1.391 . S
C3310 C3311 1.400 . S
C3311 C3310 1.400 . S
C3311 C3312 1.398 . S
C3311 C3317 1.491 . S
C3312 H3303 0.950 . S
C3312 C3311 1.398 . S
C3312 C3313 1.391 . S
C3313 H3301 0.950 . S
C3313 C3309 1.393 . S
C3313 C3312 1.391 . S
C3314 H3304 0.950 . S
C3314 C3315 1.386 . S
C3314 C3316 1.391 . S
C3315 C3314 1.386 . S
C3315 C3319 1.393 . S
C3316 H3305 0.950 . S
C3316 C3314 1.391 . S
C3316 C3317 1.400 . S
C3317 C3311 1.491 . S
C3317 C3316 1.400 . S
C3317 C3318 1.398 . S
C3318 H3306 0.950 . S
C3318 C3317 1.398 . S
C3318 C3319 1.391 . S
C3319 H3307 0.950 . S
C3319 C3315 1.393 . S
C3319 C3318 1.391 . S
H3320 C3328 0.950 . S
H3321 C3333 0.950 . S
H3322 C3330 0.950 . S
H3323 C3332 0.950 . S
H3324 C3334 0.950 . S
H3325 C3336 0.950 . S
H3326 C3338 0.950 . S
H3327 C3339 0.950 . S
C3328 H3320 0.950 . S
C3328 C3329 1.386 . S
C3328 C3330 1.391 . S
C3329 C3328 1.386 . S
C3329 C3333 1.393 . S
C3330 H3322 0.950 . S
C3330 C3328 1.391 . S
C3330 C3331 1.400 . S
C3331 C3330 1.400 . S
C3331 C3332 1.398 . S
C3331 C3337 1.491 . S
C3332 H3323 0.950 . S
C3332 C3331 1.398 . S
C3332 C3333 1.391 . S
C3333 H3321 0.950 . S
C3333 C3329 1.393 . S
C3333 C3332 1.391 . S
C3334 H3324 0.950 . S
C3334 C3335 1.386 . S
C3334 C3336 1.391 . S
C3335 C3334 1.386 . S
C3335 C3339 1.393 . S
C3336 H3325 0.950 . S
C3336 C3334 1.391 . S
C3336 C3337 1.400 . S
C3337 C3331 1.491 . S
C3337 C3336 1.400 . S
C3337 C3338 1.398 . S
C3338 H3326 0.950 . S
C3338 C3337 1.398 . S
C3338 C3339 1.391 . S
C3339 H3327 0.950 . S
C3339 C3335 1.393 . S
C3339 C3338 1.391 . S
H3340 C3348 0.950 . S
H3341 C3353 0.950 . S
H3342 C3350 0.950 . S
H3343 C3352 0.950 . S
H3344 C3354 0.950 . S
H3345 C3356 0.950 . S
H3346 C3358 0.950 . S
H3347 C3359 0.950 . S
C3348 H3340 0.950 . S
C3348 C3349 1.386 . S
C3348 C3350 1.391 . S
C3349 C3348 1.386 . S
C3349 C3353 1.393 . S
C3350 H3342 0.950 . S
C3350 C3348 1.391 . S
C3350 C3351 1.400 . S
C3351 C3350 1.400 . S
C3351 C3352 1.398 . S
C3351 C3357 1.491 . S
C3352 H3343 0.950 . S
C3352 C3351 1.398 . S
C3352 C3353 1.391 . S
C3353 H3341 0.950 . S
C3353 C3349 1.393 . S
C3353 C3352 1.391 . S
C3354 H3344 0.950 . S
C3354 C3355 1.386 . S
C3354 C3356 1.391 . S
C3355 C3354 1.386 . S
C3355 C3359 1.393 . S
C3356 H3345 0.950 . S
C3356 C3354 1.391 . S
C3356 C3357 1.400 . S
C3357 C3351 1.491 . S
C3357 C3356 1.400 . S
C3357 C3358 1.398 . S
C3358 H3346 0.950 . S
C3358 C3357 1.398 . S
C3358 C3359 1.391 . S
C3359 H3347 0.950 . S
C3359 C3355 1.393 . S
C3359 C3358 1.391 . S
H3360 C3368 0.950 . S
H3361 C3373 0.950 . S
H3362 C3370 0.950 . S
H3363 C3372 0.950 . S
H3364 C3374 0.950 . S
H3365 C3376 0.950 . S
H3366 C3378 0.950 . S
H3367 C3379 0.950 . S
C3368 H3360 0.950 . S
C3368 C3369 1.386 . S
C3368 C3370 1.391 . S
C3369 C3368 1.386 . S
C3369 C3373 1.393 . S
C3370 H3362 0.950 . S
C3370 C3368 1.391 . S
C3370 C3371 1.400 . S
C3371 C3370 1.400 . S
C3371 C3372 1.398 . S
C3371 C3377 1.491 . S
C3372 H3363 0.950 . S
C3372 C3371 1.398 . S
C3372 C3373 1.391 . S
C3373 H3361 0.950 . S
C3373 C3369 1.393 . S
C3373 C3372 1.391 . S
C3374 H3364 0.950 . S
C3374 C3375 1.386 . S
C3374 C3376 1.391 . S
C3375 C3374 1.386 . S
C3375 C3379 1.393 . S
C3376 H3365 0.950 . S
C3376 C3374 1.391 . S
C3376 C3377 1.400 . S
C3377 C3371 1.491 . S
C3377 C3376 1.400 . S
C3377 C3378 1.398 . S
C3378 H3366 0.950 . S
C3378 C3377 1.398 . S
C3378 C3379 1.391 . S
C3379 H3367 0.950 . S
C3379 C3375 1.393 . S
C3379 C3378 1.391 . S
H3380 C3388 0.950 . S
H3381 C3393 0.950 . S
H3382 C3390 0.950 . S
H3383 C3392 0.950 . S
H3384 C3394 0.950 . S
H3385 C3396 0.950 . S
H3386 C3398 0.950 . S
H3387 C3399 0.950 . S
C3388 H3380 0.950 . S
C3388 C3389 1.386 . S
C3388 C3390 1.391 . S
C3389 C3388 1.386 . S
C3389 C3393 1.393 . S
C3390 H3382 0.950 . S
C3390 C3388 1.391 . S
C3390 C3391 1.400 . S
C3391 C3390 1.400 . S
C3391 C3392 1.398 . S
C3391 C3397 1.491 . S
C3392 H3383 0.950 . S
C3392 C3391 1.398 . S
C3392 C3393 1.391 . S
C3393 H3381 0.950 . S
C3393 C3389 1.393 . S
C3393 C3392 1.391 . S
C3394 H3384 0.950 . S
C3394 C3395 1.386 . S
C3394 C3396 1.391 . S
C3395 C3394 1.386 . S
C3395 C3399 1.393 . S
C3396 H3385 0.950 . S
C3396 C3394 1.391 . S
C3396 C3397 1.400 . S
C3397 C3391 1.491 . S
C3397 C3396 1.400 . S
C3397 C3398 1.398 . S
C3398 H3386 0.950 . S
C3398 C3397 1.398 . S
C3398 C3399 1.391 . S
C3399 H3387 0.950 . S
C3399 C3395 1.393 . S
C3399 C3398 1.391 . S
H3400 C3408 0.950 . S
H3401 C3413 0.950 . S
H3402 C3410 0.950 . S
H3403 C3412 0.950 . S
H3404 C3414 0.950 . S
H3405 C3416 0.950 . S
H3406 C3418 0.950 . S
H3407 C3419 0.950 . S
C3408 H3400 0.950 . S
C3408 C3409 1.386 . S
C3408 C3410 1.391 . S
C3409 C3408 1.386 . S
C3409 C3413 1.393 . S
C3410 H3402 0.950 . S
C3410 C3408 1.391 . S
C3410 C3411 1.400 . S
C3411 C3410 1.400 . S
C3411 C3412 1.398 . S
C3411 C3417 1.491 . S
C3412 H3403 0.950 . S
C3412 C3411 1.398 . S
C3412 C3413 1.391 . S
C3413 H3401 0.950 . S
C3413 C3409 1.393 . S
C3413 C3412 1.391 . S
C3414 H3404 0.950 . S
C3414 C3415 1.386 . S
C3414 C3416 1.391 . S
C3415 C3414 1.386 . S
C3415 C3419 1.393 . S
C3416 H3405 0.950 . S
C3416 C3414 1.391 . S
C3416 C3417 1.400 . S
C3417 C3411 1.491 . S
C3417 C3416 1.400 . S
C3417 C3418 1.398 . S
C3418 H3406 0.950 . S
C3418 C3417 1.398 . S
C3418 C3419 1.391 . S
C3419 H3407 0.950 . S
C3419 C3415 1.393 . S
C3419 C3418 1.391 . S
H3420 C3428 0.950 . S
H3421 C3433 0.950 . S
H3422 C3430 0.950 . S
H3423 C3432 0.950 . S
H3424 C3434 0.950 . S
H3425 C3436 0.950 . S
H3426 C3438 0.950 . S
H3427 C3439 0.950 . S
C3428 H3420 0.950 . S
C3428 C3429 1.386 . S
C3428 C3430 1.391 . S
C3429 C3428 1.386 . S
C3429 C3433 1.393 . S
C3430 H3422 0.950 . S
C3430 C3428 1.391 . S
C3430 C3431 1.400 . S
C3431 C3430 1.400 . S
C3431 C3432 1.398 . S
C3431 C3437 1.491 . S
C3432 H3423 0.950 . S
C3432 C3431 1.398 . S
C3432 C3433 1.391 . S
C3433 H3421 0.950 . S
C3433 C3429 1.393 . S
C3433 C3432 1.391 . S
C3434 H3424 0.950 . S
C3434 C3435 1.386 . S
C3434 C3436 1.391 . S
C3435 C3434 1.386 . S
C3435 C3439 1.393 . S
C3436 H3425 0.950 . S
C3436 C3434 1.391 . S
C3436 C3437 1.400 . S
C3437 C3431 1.491 . S
C3437 C3436 1.400 . S
C3437 C3438 1.398 . S
C3438 H3426 0.950 . S
C3438 C3437 1.398 . S
C3438 C3439 1.391 . S
C3439 H3427 0.950 . S
C3439 C3435 1.393 . S
C3439 C3438 1.391 . S
H3440 C3448 0.950 . S
H3441 C3453 0.950 . S
H3442 C3450 0.950 . S
H3443 C3452 0.950 . S
H3444 C3454 0.950 . S
H3445 C3456 0.950 . S
H3446 C3458 0.950 . S
H3447 C3459 0.950 . S
C3448 H3440 0.950 . S
C3448 C3449 1.386 . S
C3448 C3450 1.391 . S
C3449 C3448 1.386 . S
C3449 C3453 1.393 . S
C3450 H3442 0.950 . S
C3450 C3448 1.391 . S
C3450 C3451 1.400 . S
C3451 C3450 1.400 . S
C3451 C3452 1.398 . S
C3451 C3457 1.491 . S
C3452 H3443 0.950 . S
C3452 C3451 1.398 . S
C3452 C3453 1.391 . S
C3453 H3441 0.950 . S
C3453 C3449 1.393 . S
C3453 C3452 1.391 . S
C3454 H3444 0.950 . S
C3454 C3455 1.386 . S
C3454 C3456 1.391 . S
C3455 C3454 1.386 . S
C3455 C3459 1.393 . S
C3456 H3445 0.950 . S
C3456 C3454 1.391 . S
C3456 C3457 1.400 . S
C3457 C3451 1.491 . S
C3457 C3456 1.400 . S
C3457 C3458 1.398 . S
C3458 H3446 0.950 . S
C3458 C3457 1.398 . S
C3458 C3459 1.391 . S
C3459 H3447 0.950 . S
C3459 C3455 1.393 . S
C3459 C3458 1.391 . S
H3460 C3468 0.950 . S
H3461 C3473 0.950 . S
H3462 C3470 0.950 . S
H3463 C3472 0.950 . S
H3464 C3474 0.950 . S
H3465 C3476 0.950 . S
H3466 C3478 0.950 . S
H3467 C3479 0.950 . S
C3468 H3460 0.950 . S
C3468 C3469 1.386 . S
C3468 C3470 1.391 . S
C3469 C3468 1.386 . S
C3469 C3473 1.393 . S
C3470 H3462 0.950 . S
C3470 C3468 1.391 . S
C3470 C3471 1.400 . S
C3471 C3470 1.400 . S
C3471 C3472 1.398 . S
C3471 C3477 1.491 . S
C3472 H3463 0.950 . S
C3472 C3471 1.398 . S
C3472 C3473 1.391 . S
C3473 H3461 0.950 . S
C3473 C3469 1.393 . S
C3473 C3472 1.391 . S
C3474 H3464 0.950 . S
C3474 C3475 1.386 . S
C3474 C3476 1.391 . S
C3475 C3474 1.386 . S
C3475 C3479 1.393 . S
C3476 H3465 0.950 . S
C3476 C3474 1.391 . S
C3476 C3477 1.400 . S
C3477 C3471 1.491 . S
C3477 C3476 1.400 . S
C3477 C3478 1.398 . S
C3478 H3466 0.950 . S
C3478 C3477 1.398 . S
C3478 C3479 1.391 . S
C3479 H3467 0.950 . S
C3479 C3475 1.393 . S
C3479 C3478 1.391 . S
H3480 C3488 0.950 . S
H3481 C3493 0.950 . S
H3482 C3490 0.950 . S
H3483 C3492 0.950 . S
H3484 C3494 0.950 . S
H3485 C3496 0.950 . S
H3486 C3498 0.950 . S
H3487 C3499 0.950 . S
C3488 H3480 0.950 . S
C3488 C3489 1.386 . S
C3488 C3490 1.391 . S
C3489 C3488 1.386 . S
C3489 C3493 1.393 . S
C3490 H3482 0.950 . S
C3490 C3488 1.391 . S
C3490 C3491 1.400 . S
C3491 C3490 1.400 . S
C3491 C3492 1.398 . S
C3491 C3497 1.491 . S
C3492 H3483 0.950 . S
C3492 C3491 1.398 . S
C3492 C3493 1.391 . S
C3493 H3481 0.950 . S
C3493 C3489 1.393 . S
C3493 C3492 1.391 . S
C3494 H3484 0.950 . S
C3494 C3495 1.386 . S
C3494 C3496 1.391 . S
C3495 C3494 1.386 . S
C3495 C3499 1.393 . S
C3496 H3485 0.950 . S
C3496 C3494 1.391 . S
C3496 C3497 1.400 . S
C3497 C3491 1.491 . S
C3497 C3496 1.400 . S
C3497 C3498 1.398 . S
C3498 H3486 0.950 . S
C3498 C3497 1.398 . S
C3498 C3499 1.391 . S
C3499 H3487 0.950 . S
C3499 C3495 1.393 . S
C3499 C3498 1.391 . S
H3500 C3508 0.950 . S
H3501 C3513 0.950 . S
H3502 C3510 0.950 . S
H3503 C3512 0.950 . S
H3504 C3514 0.950 . S
H3505 C3516 0.950 . S
H3506 C3518 0.950 . S
H3507 C3519 0.950 . S
C3508 H3500 0.950 . S
C3508 C3509 1.386 . S
C3508 C3510 1.391 . S
C3509 C3508 1.386 . S
C3509 C3513 1.393 . S
C3510 H3502 0.950 . S
C3510 C3508 1.391 . S
C3510 C3511 1.400 . S
C3511 C3510 1.400 . S
C3511 C3512 1.398 . S
C3511 C3517 1.491 . S
C3512 H3503 0.950 . S
C3512 C3511 1.398 . S
C3512 C3513 1.391 . S
C3513 H3501 0.950 . S
C3513 C3509 1.393 . S
C3513 C3512 1.391 . S
C3514 H3504 0.950 . S
C3514 C3515 1.386 . S
C3514 C3516 1.391 . S
C3515 C3514 1.386 . S
C3515 C3519 1.393 . S
C3516 H3505 0.950 . S
C3516 C3514 1.391 . S
C3516 C3517 1.400 . S
C3517 C3511 1.491 . S
C3517 C3516 1.400 . S
C3517 C3518 1.398 . S
C3518 H3506 0.950 . S
C3518 C3517 1.398 . S
C3518 C3519 1.391 . S
C3519 H3507 0.950 . S
C3519 C3515 1.393 . S
C3519 C3518 1.391 . S
H3520 C3528 0.950 . S
H3521 C3533 0.950 . S
H3522 C3530 0.950 . S
H3523 C3532 0.950 . S
H3524 C3534 0.950 . S
H3525 C3536 0.950 . S
H3526 C3538 0.950 . S
H3527 C3539 0.950 . S
C3528 H3520 0.950 . S
C3528 C3529 1.386 . S
C3528 C3530 1.391 . S
C3529 C3528 1.386 . S
C3529 C3533 1.393 . S
C3530 H3522 0.950 . S
C3530 C3528 1.391 . S
C3530 C3531 1.400 . S
C3531 C3530 1.400 . S
C3531 C3532 1.398 . S
C3531 C3537 1.491 . S
C3532 H3523 0.950 . S
C3532 C3531 1.398 . S
C3532 C3533 1.391 . S
C3533 H3521 0.950 . S
C3533 C3529 1.393 . S
C3533 C3532 1.391 . S
C3534 H3524 0.950 . S
C3534 C3535 1.386 . S
C3534 C3536 1.391 . S
C3535 C3534 1.386 . S
C3535 C3539 1.393 . S
C3536 H3525 0.950 . S
C3536 C3534 1.391 . S
C3536 C3537 1.400 . S
C3537 C3531 1.491 . S
C3537 C3536 1.400 . S
C3537 C3538 1.398 . S
C3538 H3526 0.950 . S
C3538 C3537 1.398 . S
C3538 C3539 1.391 . S
C3539 H3527 0.950 . S
C3539 C3535 1.393 . S
C3539 C3538 1.391 . S
H3540 C3548 0.950 . S
H3541 C3553 0.950 . S
H3542 C3550 0.950 . S
H3543 C3552 0.950 . S
H3544 C3554 0.950 . S
H3545 C3556 0.950 . S
H3546 C3558 0.950 . S
H3547 C3559 0.950 . S
C3548 H3540 0.950 . S
C3548 C3549 1.386 . S
C3548 C3550 1.391 . S
C3549 C3548 1.386 . S
C3549 C3553 1.393 . S
C3550 H3542 0.950 . S
C3550 C3548 1.391 . S
C3550 C3551 1.400 . S
C3551 C3550 1.400 . S
C3551 C3552 1.398 . S
C3551 C3557 1.491 . S
C3552 H3543 0.950 . S
C3552 C3551 1.398 . S
C3552 C3553 1.391 . S
C3553 H3541 0.950 . S
C3553 C3549 1.393 . S
C3553 C3552 1.391 . S
C3554 H3544 0.950 . S
C3554 C3555 1.386 . S
C3554 C3556 1.391 . S
C3555 C3554 1.386 . S
C3555 C3559 1.393 . S
C3556 H3545 0.950 . S
C3556 C3554 1.391 . S
C3556 C3557 1.400 . S
C3557 C3551 1.491 . S
C3557 C3556 1.400 . S
C3557 C3558 1.398 . S
C3558 H3546 0.950 . S
C3558 C3557 1.398 . S
C3558 C3559 1.391 . S
C3559 H3547 0.950 . S
C3559 C3555 1.393 . S
C3559 C3558 1.391 . S
H3560 C3568 0.950 . S
H3561 C3573 0.950 . S
H3562 C3570 0.950 . S
H3563 C3572 0.950 . S
H3564 C3574 0.950 . S
H3565 C3576 0.950 . S
H3566 C3578 0.950 . S
H3567 C3579 0.950 . S
C3568 H3560 0.950 . S
C3568 C3569 1.386 . S
C3568 C3570 1.391 . S
C3569 C3568 1.386 . S
C3569 C3573 1.393 . S
C3570 H3562 0.950 . S
C3570 C3568 1.391 . S
C3570 C3571 1.400 . S
C3571 C3570 1.400 . S
C3571 C3572 1.398 . S
C3571 C3577 1.491 . S
C3572 H3563 0.950 . S
C3572 C3571 1.398 . S
C3572 C3573 1.391 . S
C3573 H3561 0.950 . S
C3573 C3569 1.393 . S
C3573 C3572 1.391 . S
C3574 H3564 0.950 . S
C3574 C3575 1.386 . S
C3574 C3576 1.391 . S
C3575 C3574 1.386 . S
C3575 C3579 1.393 . S
C3576 H3565 0.950 . S
C3576 C3574 1.391 . S
C3576 C3577 1.400 . S
C3577 C3571 1.491 . S
C3577 C3576 1.400 . S
C3577 C3578 1.398 . S
C3578 H3566 0.950 . S
C3578 C3577 1.398 . S
C3578 C3579 1.391 . S
C3579 H3567 0.950 . S
C3579 C3575 1.393 . S
C3579 C3578 1.391 . S
H3580 C3588 0.950 . S
H3581 C3593 0.950 . S
H3582 C3590 0.950 . S
H3583 C3592 0.950 . S
H3584 C3594 0.950 . S
H3585 C3596 0.950 . S
H3586 C3598 0.950 . S
H3587 C3599 0.950 . S
C3588 H3580 0.950 . S
C3588 C3589 1.386 . S
C3588 C3590 1.391 . S
C3589 C3588 1.386 . S
C3589 C3593 1.393 . S
C3590 H3582 0.950 . S
C3590 C3588 1.391 . S
C3590 C3591 1.400 . S
C3591 C3590 1.400 . S
C3591 C3592 1.398 . S
C3591 C3597 1.491 . S
C3592 H3583 0.950 . S
C3592 C3591 1.398 . S
C3592 C3593 1.391 . S
C3593 H3581 0.950 . S
C3593 C3589 1.393 . S
C3593 C3592 1.391 . S
C3594 H3584 0.950 . S
C3594 C3595 1.386 . S
C3594 C3596 1.391 . S
C3595 C3594 1.386 . S
C3595 C3599 1.393 . S
C3596 H3585 0.950 . S
C3596 C3594 1.391 . S
C3596 C3597 1.400 . S
C3597 C3591 1.491 . S
C3597 C3596 1.400 . S
C3597 C3598 1.398 . S
C3598 H3586 0.950 . S
C3598 C3597 1.398 . S
C3598 C3599 1.391 . S
C3599 H3587 0.950 . S
C3599 C3595 1.393 . S
C3599 C3598 1.391 . S
H3600 C3608 0.950 . S
H3601 C3613 0.950 . S
H3602 C3610 0.950 . S
H3603 C3612 0.950 . S
H3604 C3614 0.950 . S
H3605 C3616 0.950 . S
H3606 C3618 0.950 . S
H3607 C3619 0.950 . S
C3608 H3600 0.950 . S
C3608 C3609 1.386 . S
C3608 C3610 1.391 . S
C3609 C3608 1.386 . S
C3609 C3613 1.393 . S
C3610 H3602 0.950 . S
C3610 C3608 1.391 . S
C3610 C3611 1.400 . S
C3611 C3610 1.400 . S
C3611 C3612 1.398 . S
C3611 C3617 1.491 . S
C3612 H3603 0.950 . S
C3612 C3611 1.398 . S
C3612 C3613 1.391 . S
C3613 H3601 0.950 . S
C3613 C3609 1.393 . S
C3613 C3612 1.391 . S
C3614 H3604 0.950 . S
C3614 C3615 1.386 . S
C3614 C3616 1.391 . S
C3615 C3614 1.386 . S
C3615 C3619 1.393 . S
C3616 H3605 0.950 . S
C3616 C3614 1.391 . S
C3616 C3617 1.400 . S
C3617 C3611 1.491 . S
C3617 C3616 1.400 . S
C3617 C3618 1.398 . S
C3618 H3606 0.950 . S
C3618 C3617 1.398 . S
C3618 C3619 1.391 . S
C3619 H3607 0.950 . S
C3619 C3615 1.393 . S
C3619 C3618 1.391 . S
H3620 C3628 0.950 . S
H3621 C3633 0.950 . S
H3622 C3630 0.950 . S
H3623 C3632 0.950 . S
H3624 C3634 0.950 . S
H3625 C3636 0.950 . S
H3626 C3638 0.950 . S
H3627 C3639 0.950 . S
C3628 H3620 0.950 . S
C3628 C3629 1.386 . S
C3628 C3630 1.391 . S
C3629 C3628 1.386 . S
C3629 C3633 1.393 . S
C3630 H3622 0.950 . S
C3630 C3628 1.391 . S
C3630 C3631 1.400 . S
C3631 C3630 1.400 . S
C3631 C3632 1.398 . S
C3631 C3637 1.491 . S
C3632 H3623 0.950 . S
C3632 C3631 1.398 . S
C3632 C3633 1.391 . S
C3633 H3621 0.950 . S
C3633 C3629 1.393 . S
C3633 C3632 1.391 . S
C3634 H3624 0.950 . S
C3634 C3635 1.386 . S
C3634 C3636 1.391 . S
C3635 C3634 1.386 . S
C3635 C3639 1.393 . S
C3636 H3625 0.950 . S
C3636 C3634 1.391 . S
C3636 C3637 1.400 . S
C3637 C3631 1.491 . S
C3637 C3636 1.400 . S
C3637 C3638 1.398 . S
C3638 H3626 0.950 . S
C3638 C3637 1.398 . S
C3638 C3639 1.391 . S
C3639 H3627 0.950 . S
C3639 C3635 1.393 . S
C3639 C3638 1.391 . S
H3640 C3648 0.950 . S
H3641 C3653 0.950 . S
H3642 C3650 0.950 . S
H3643 C3652 0.950 . S
H3644 C3654 0.950 . S
H3645 C3656 0.950 . S
H3646 C3658 0.950 . S
H3647 C3659 0.950 . S
C3648 H3640 0.950 . S
C3648 C3649 1.386 . S
C3648 C3650 1.391 . S
C3649 C3648 1.386 . S
C3649 C3653 1.393 . S
C3650 H3642 0.950 . S
C3650 C3648 1.391 . S
C3650 C3651 1.400 . S
C3651 C3650 1.400 . S
C3651 C3652 1.398 . S
C3651 C3657 1.491 . S
C3652 H3643 0.950 . S
C3652 C3651 1.398 . S
C3652 C3653 1.391 . S
C3653 H3641 0.950 . S
C3653 C3649 1.393 . S
C3653 C3652 1.391 . S
C3654 H3644 0.950 . S
C3654 C3655 1.386 . S
C3654 C3656 1.391 . S
C3655 C3654 1.386 . S
C3655 C3659 1.393 . S
C3656 H3645 0.950 . S
C3656 C3654 1.391 . S
C3656 C3657 1.400 . S
C3657 C3651 1.491 . S
C3657 C3656 1.400 . S
C3657 C3658 1.398 . S
C3658 H3646 0.950 . S
C3658 C3657 1.398 . S
C3658 C3659 1.391 . S
C3659 H3647 0.950 . S
C3659 C3655 1.393 . S
C3659 C3658 1.391 . S
H3660 C3668 0.950 . S
H3661 C3673 0.950 . S
H3662 C3670 0.950 . S
H3663 C3672 0.950 . S
H3664 C3674 0.950 . S
H3665 C3676 0.950 . S
H3666 C3678 0.950 . S
H3667 C3679 0.950 . S
C3668 H3660 0.950 . S
C3668 C3669 1.386 . S
C3668 C3670 1.391 . S
C3669 C3668 1.386 . S
C3669 C3673 1.393 . S
C3670 H3662 0.950 . S
C3670 C3668 1.391 . S
C3670 C3671 1.400 . S
C3671 C3670 1.400 . S
C3671 C3672 1.398 . S
C3671 C3677 1.491 . S
C3672 H3663 0.950 . S
C3672 C3671 1.398 . S
C3672 C3673 1.391 . S
C3673 H3661 0.950 . S
C3673 C3669 1.393 . S
C3673 C3672 1.391 . S
C3674 H3664 0.950 . S
C3674 C3675 1.386 . S
C3674 C3676 1.391 . S
C3675 C3674 1.386 . S
C3675 C3679 1.393 . S
C3676 H3665 0.950 . S
C3676 C3674 1.391 . S
C3676 C3677 1.400 . S
C3677 C3671 1.491 . S
C3677 C3676 1.400 . S
C3677 C3678 1.398 . S
C3678 H3666 0.950 . S
C3678 C3677 1.398 . S
C3678 C3679 1.391 . S
C3679 H3667 0.950 . S
C3679 C3675 1.393 . S
C3679 C3678 1.391 . S
H3680 C3688 0.950 . S
H3681 C3693 0.950 . S
H3682 C3690 0.950 . S
H3683 C3692 0.950 . S
H3684 C3694 0.950 . S
H3685 C3696 0.950 . S
H3686 C3698 0.950 . S
H3687 C3699 0.950 . S
C3688 H3680 0.950 . S
C3688 C3689 1.386 . S
C3688 C3690 1.391 . S
C3689 C3688 1.386 . S
C3689 C3693 1.393 . S
C3690 H3682 0.950 . S
C3690 C3688 1.391 . S
C3690 C3691 1.400 . S
C3691 C3690 1.400 . S
C3691 C3692 1.398 . S
C3691 C3697 1.491 . S
C3692 H3683 0.950 . S
C3692 C3691 1.398 . S
C3692 C3693 1.391 . S
C3693 H3681 0.950 . S
C3693 C3689 1.393 . S
C3693 C3692 1.391 . S
C3694 H3684 0.950 . S
C3694 C3695 1.386 . S
C3694 C3696 1.391 . S
C3695 C3694 1.386 . S
C3695 C3699 1.393 . S
C3696 H3685 0.950 . S
C3696 C3694 1.391 . S
C3696 C3697 1.400 . S
C3697 C3691 1.491 . S
C3697 C3696 1.400 . S
C3697 C3698 1.398 . S
C3698 H3686 0.950 . S
C3698 C3697 1.398 . S
C3698 C3699 1.391 . S
C3699 H3687 0.950 . S
C3699 C3695 1.393 . S
C3699 C3698 1.391 . S
H3700 C3708 0.950 . S
H3701 C3713 0.950 . S
H3702 C3710 0.950 . S
H3703 C3712 0.950 . S
H3704 C3714 0.950 . S
H3705 C3716 0.950 . S
H3706 C3718 0.950 . S
H3707 C3719 0.950 . S
C3708 H3700 0.950 . S
C3708 C3709 1.386 . S
C3708 C3710 1.391 . S
C3709 C3708 1.386 . S
C3709 C3713 1.393 . S
C3710 H3702 0.950 . S
C3710 C3708 1.391 . S
C3710 C3711 1.400 . S
C3711 C3710 1.400 . S
C3711 C3712 1.398 . S
C3711 C3717 1.491 . S
C3712 H3703 0.950 . S
C3712 C3711 1.398 . S
C3712 C3713 1.391 . S
C3713 H3701 0.950 . S
C3713 C3709 1.393 . S
C3713 C3712 1.391 . S
C3714 H3704 0.950 . S
C3714 C3715 1.386 . S
C3714 C3716 1.391 . S
C3715 C3714 1.386 . S
C3715 C3719 1.393 . S
C3716 H3705 0.950 . S
C3716 C3714 1.391 . S
C3716 C3717 1.400 . S
C3717 C3711 1.491 . S
C3717 C3716 1.400 . S
C3717 C3718 1.398 . S
C3718 H3706 0.950 . S
C3718 C3717 1.398 . S
C3718 C3719 1.391 . S
C3719 H3707 0.950 . S
C3719 C3715 1.393 . S
C3719 C3718 1.391 . S
C1815 N1260 1.470 . S
C1809 C1 1.521 . S
C1835 C1287 1.591 . S
C1829 C60 1.593 . S
C1849 C79 1.511 . S
C1855 C1301 1.501 . S
C1875 N1319 1.436 . S
C1869 C118 1.466 . S
C1889 C177 1.580 . S
C1895 C1324 1.577 . S
C1909 C196 1.498 . S
C1915 C1264 1.502 . S
C1929 C250 1.411 . S
C1935 N1283 1.384 . S
C1955 N1296 1.478 . S
C1949 C274 1.517 . S
C1975 N1342 1.431 . S
C1969 C16 1.460 . S
C1989 C55 1.548 . S
C1995 N1365 1.516 . S
C2009 C99 1.560 . S
C2015 N1388 1.532 . S
C2035 N1421 1.409 . S
C2029 C133 1.448 . S
C2049 C157 1.565 . S
C2055 C1448 1.558 . S
C2075 C1471 1.553 . S
C2069 C211 1.561 . S
C2089 C255 1.452 . S
C2095 C1494 1.453 . S
C2115 C1508 1.443 . S
C2109 C294 1.441 . S
C2129 C21 1.448 . S
C2135 C1425 1.444 . S
C2149 C172 1.505 . S
C2155 N1467 1.460 . S
C2175 N1490 1.437 . S
C2169 C216 1.471 . S
C2189 C235 1.455 . S
C2195 N1503 1.409 . S
C2215 N1444 1.430 . S
C2209 C289 1.471 . S
C2235 C1370 1.664 . S
C2229 C94 1.665 . S
C2249 C138 1.469 . S
C2255 C1393 1.463 . S
C2275 C1347 1.611 . S
C2269 C40 1.612 . S
C2295 C1540 1.473 . S
C2289 C313 1.484 . S
C2309 C372 1.611 . S
C2315 C1554 1.611 . S
C2329 C391 1.507 . S
C2335 N1582 1.472 . S
C2355 N1595 1.421 . S
C2349 C430 1.454 . S
C2369 C489 1.594 . S
C2375 C1600 1.592 . S
C2389 C508 1.494 . S
C2395 N1536 1.442 . S
C2409 C562 1.496 . S
C2415 N1549 1.466 . S
C2429 C586 1.472 . S
C2435 C1586 1.468 . S
C2455 N1434 1.432 . S
C2449 C328 1.457 . S
C2469 C367 1.534 . S
C2475 N1618 1.480 . S
C2495 N1480 1.434 . S
C2489 C411 1.469 . S
C2509 C445 1.484 . S
C2515 C1655 1.479 . S
C2529 C469 1.598 . S
C2535 C1356 1.591 . S
C2555 C1669 1.584 . S
C2549 C523 1.586 . S
C2569 C567 1.502 . S
C2575 C1402 1.496 . S
C2595 N1687 1.405 . S
C2589 C606 1.437 . S
C2609 C333 1.475 . S
C2615 N1651 1.443 . S
C2635 N1664 1.489 . S
C2629 C484 1.539 . S
C2649 C528 1.473 . S
C2655 N1398 1.419 . S
C2675 C1692 1.416 . S
C2669 C547 1.415 . S
C2689 C601 1.447 . S
C2695 N1352 1.401 . S
C2709 C406 1.563 . S
C2715 C1623 1.560 . S
C2729 C450 1.513 . S
C2735 C1485 1.512 . S
C2749 C352 1.614 . S
C2755 C1439 1.612 . S
C2769 C625 1.546 . S
C2775 C1577 1.547 . S
C2795 C1609 1.549 . S
C2789 C684 1.553 . S
C2809 C703 1.470 . S
C2815 N1526 1.433 . S
C2829 C742 1.438 . S
C2835 N1559 1.408 . S
C2849 C801 1.595 . S
C2855 C1563 1.583 . S
C2869 C820 1.553 . S
C2875 N1572 1.518 . S
C2895 N1605 1.361 . S
C2889 C874 1.391 . S
C2909 C898 1.525 . S
C2915 C1531 1.525 . S
C2935 N1720 1.456 . S
C2929 C640 1.487 . S
C2949 C679 1.490 . S
C2955 N1457 1.444 . S
C2975 N1743 1.383 . S
C2969 C723 1.422 . S
C2989 C757 1.463 . S
C2995 N1513 1.433 . S
C3009 C781 1.571 . S
C3015 C1761 1.569 . S
C3029 C835 1.653 . S
C3035 C1379 1.645 . S
C3055 N1779 1.362 . S
C3049 C879 1.389 . S
C3069 C918 1.492 . S
C3075 C1416 1.499 . S
C3095 C1517 1.490 . S
C3089 C645 1.498 . S
C3115 N1375 1.507 . S
C3109 C796 1.551 . S
C3129 C840 1.569 . S
C3135 C1784 1.565 . S
C3149 C859 1.378 . S
C3155 N1411 1.324 . S
C3175 N1756 1.487 . S
C3169 C913 1.518 . S
C3195 C1462 1.558 . S
C3189 C718 1.559 . S
C3215 C1747 1.505 . S
C3209 C762 1.514 . S
C3235 C1724 1.573 . S
C3229 C664 1.581 . S
C3249 C937 1.433 . S
C3255 N1306 1.378 . S
C3269 C996 1.568 . S
C3275 C1333 1.557 . S
C3295 C1255 1.544 . S
C3289 C1015 1.544 . S
C3315 N1273 1.370 . S
C3309 C1054 1.400 . S
C3335 C1278 1.592 . S
C3329 C1113 1.592 . S
C3355 C1310 1.503 . S
C3349 C1132 1.514 . S
C3375 N1329 1.461 . S
C3369 C1186 1.508 . S
C3389 C1210 1.537 . S
C3395 N1250 1.507 . S
C3409 C952 1.396 . S
C3415 N1766 1.358 . S
C3435 N1674 1.470 . S
C3429 C991 1.511 . S
C3455 C1793 1.574 . S
C3449 C1035 1.576 . S
C3475 C1701 1.356 . S
C3469 C1069 1.367 . S
C3489 C1093 1.598 . S
C3495 C1715 1.595 . S
C3515 C1632 1.575 . S
C3509 C1147 1.583 . S
C3535 C1738 1.591 . S
C3529 C1191 1.593 . S
C3549 C1230 1.484 . S
C3555 N1641 1.436 . S
C3575 N1697 1.350 . S
C3569 C957 1.395 . S
C3595 N1628 1.471 . S
C3589 C1108 1.511 . S
C3615 N1733 1.397 . S
C3609 C1152 1.421 . S
C3629 C1171 1.486 . S
C3635 C1646 1.482 . S
C3649 C1225 1.456 . S
C3655 N1710 1.428 . S
C3669 C1030 1.663 . S
C3675 C1678 1.660 . S
C3689 C1074 1.400 . S
C3695 N1789 1.362 . S
C3715 C1770 1.548 . S
C3709 C976 1.556 . S
