# Generated by pormake.
# Topology ctn, (3,4)-cn, num edge types: 1
# Building blocks:
#     Node 0, Type 0, BuildingBlock: MIDCAF_clean_linker_0, # of connection points: 3
#     Node 1, Type 0, BuildingBlock: MIDCAF_clean_linker_0, # of connection points: 3
#     Node 2, Type 0, BuildingBlock: MIDCAF_clean_linker_0, # of connection points: 3
#     Node 3, Type 0, BuildingBlock: MIDCAF_clean_linker_0, # of connection points: 3
#     Node 4, Type 0, BuildingBlock: MIDCAF_clean_linker_0, # of connection points: 3
#     Node 5, Type 0, BuildingBlock: MIDCAF_clean_linker_0, # of connection points: 3
#     Node 6, Type 0, BuildingBlock: MIDCAF_clean_linker_0, # of connection points: 3
#     Node 7, Type 0, BuildingBlock: MIDCAF_clean_linker_0, # of connection points: 3
#     Node 8, Type 0, BuildingBlock: MIDCAF_clean_linker_0, # of connection points: 3
#     Node 9, Type 0, BuildingBlock: MIDCAF_clean_linker_0, # of connection points: 3
#     Node 10, Type 0, BuildingBlock: MIDCAF_clean_linker_0, # of connection points: 3
#     Node 11, Type 0, BuildingBlock: MIDCAF_clean_linker_0, # of connection points: 3
#     Node 12, Type 0, BuildingBlock: MIDCAF_clean_linker_0, # of connection points: 3
#     Node 13, Type 0, BuildingBlock: MIDCAF_clean_linker_0, # of connection points: 3
#     Node 14, Type 0, BuildingBlock: MIDCAF_clean_linker_0, # of connection points: 3
#     Node 15, Type 0, BuildingBlock: MIDCAF_clean_linker_0, # of connection points: 3
#     Node 16, Type 1, BuildingBlock: AZAVOO_clean_sbu_0, # of connection points: 4
#     Node 17, Type 1, BuildingBlock: AZAVOO_clean_sbu_0, # of connection points: 4
#     Node 18, Type 1, BuildingBlock: AZAVOO_clean_sbu_0, # of connection points: 4
#     Node 19, Type 1, BuildingBlock: AZAVOO_clean_sbu_0, # of connection points: 4
#     Node 20, Type 1, BuildingBlock: AZAVOO_clean_sbu_0, # of connection points: 4
#     Node 21, Type 1, BuildingBlock: AZAVOO_clean_sbu_0, # of connection points: 4
#     Node 22, Type 1, BuildingBlock: AZAVOO_clean_sbu_0, # of connection points: 4
#     Node 23, Type 1, BuildingBlock: AZAVOO_clean_sbu_0, # of connection points: 4
#     Node 24, Type 1, BuildingBlock: AZAVOO_clean_sbu_0, # of connection points: 4
#     Node 25, Type 1, BuildingBlock: AZAVOO_clean_sbu_0, # of connection points: 4
#     Node 26, Type 1, BuildingBlock: AZAVOO_clean_sbu_0, # of connection points: 4
#     Node 27, Type 1, BuildingBlock: AZAVOO_clean_sbu_0, # of connection points: 4
#     Edge 28, Type (0, 1), None
#     Edge 29, Type (0, 1), None
#     Edge 30, Type (0, 1), None
#     Edge 31, Type (0, 1), None
#     Edge 32, Type (0, 1), None
#     Edge 33, Type (0, 1), None
#     Edge 34, Type (0, 1), None
#     Edge 35, Type (0, 1), None
#     Edge 36, Type (0, 1), None
#     Edge 37, Type (0, 1), None
#     Edge 38, Type (0, 1), None
#     Edge 39, Type (0, 1), None
#     Edge 40, Type (0, 1), None
#     Edge 41, Type (0, 1), None
#     Edge 42, Type (0, 1), None
#     Edge 43, Type (0, 1), None
#     Edge 44, Type (0, 1), None
#     Edge 45, Type (0, 1), None
#     Edge 46, Type (0, 1), None
#     Edge 47, Type (0, 1), None
#     Edge 48, Type (0, 1), None
#     Edge 49, Type (0, 1), None
#     Edge 50, Type (0, 1), None
#     Edge 51, Type (0, 1), None
#     Edge 52, Type (0, 1), None
#     Edge 53, Type (0, 1), None
#     Edge 54, Type (0, 1), None
#     Edge 55, Type (0, 1), None
#     Edge 56, Type (0, 1), None
#     Edge 57, Type (0, 1), None
#     Edge 58, Type (0, 1), None
#     Edge 59, Type (0, 1), None
#     Edge 60, Type (0, 1), None
#     Edge 61, Type (0, 1), None
#     Edge 62, Type (0, 1), None
#     Edge 63, Type (0, 1), None
#     Edge 64, Type (0, 1), None
#     Edge 65, Type (0, 1), None
#     Edge 66, Type (0, 1), None
#     Edge 67, Type (0, 1), None
#     Edge 68, Type (0, 1), None
#     Edge 69, Type (0, 1), None
#     Edge 70, Type (0, 1), None
#     Edge 71, Type (0, 1), None
#     Edge 72, Type (0, 1), None
#     Edge 73, Type (0, 1), None
#     Edge 74, Type (0, 1), None
#     Edge 75, Type (0, 1), None
# Relax obj value: 0.002
# Max RMSD: 0.039
# Mean RMSD: 0.024
data_MOF--net-ctn--node1-AZAVOO_clean_sbu_0--node2-MIDCAF_clean_linker_0--edge1-none
_symmetry_space_group_name_H-M    P1
_symmetry_Int_Tables_number       1
_symmetry_cell_setting            triclinic
loop_
_symmetry_equiv_pos_as_xyz
'x, y, z'
_cell_length_a     35.641281
_cell_length_b     36.478044
_cell_length_c     36.400781
_cell_angle_alpha  89.693109
_cell_angle_beta   93.644768
_cell_angle_gamma 93.88188
loop_
_atom_site_label
_atom_site_type_symbol
_atom_site_fract_x
_atom_site_fract_y
_atom_site_fract_z
_atom_type_partial_charge
C0 C 0.9391 0.04352 0.10872 0.0
C1 C 0.95239 0.02351 0.13939 0.0
C2 C 0.98224 0.00083 0.13555 0.0
C3 C -0.00049 -0.00054 0.10216 0.0
H4 H 0.04098 0.92949 0.01116 0.0
H5 H 0.08415 0.88136 0.0066 0.0
H6 H 0.16957 0.96103 0.97075 0.0
H7 H 0.12547 0.0096 0.97474 0.0
H8 H 0.07112 0.08349 0.92993 0.0
H9 H 0.07397 0.14449 0.90136 0.0
H10 H 0.99551 0.18018 0.97719 0.0
H11 H 0.99208 0.12008 0.00502 0.0
H12 H 0.94672 0.05949 0.05292 0.0
H13 H 0.91609 0.06121 0.1107 0.0
H14 H 0.99313 0.98504 0.1586 0.0
H15 H 0.02334 0.98276 0.10045 0.0
N16 N 0.03238 -0.0019 0.0303 0.0
N17 N 0.05471 0.03442 0.98159 0.0
N18 N 0.00919 0.05565 0.01863 0.0
C19 C 0.05481 0.00263 0.00152 0.0
C20 C 0.03152 0.06102 0.98996 0.0
C21 C 0.00949 0.0245 0.03898 0.0
C22 C 0.07995 0.97336 0.99365 0.0
C23 C 0.06879 0.93674 0.00183 0.0
C24 C 0.09361 0.90909 -0.00088 0.0
C25 C 0.13054 0.91737 0.98873 0.0
C26 C 0.14135 0.9538 0.97901 0.0
C27 C 0.1161 0.98155 0.98114 0.0
C28 C 0.03167 0.09676 0.97006 0.0
C29 C 0.05415 0.10427 0.94016 0.0
C30 C 0.05567 0.1392 0.9237 0.0
C31 C 0.03501 0.16732 0.93704 0.0
C32 C 0.01177 0.15936 0.96611 0.0
C33 C 0.00995 0.12461 0.98223 0.0
C34 C 0.98766 0.02125 0.07222 0.0
C35 C 0.95672 0.04263 0.07559 0.0
C36 C 0.25925 0.60553 0.25525 0.0
C37 C 0.21989 0.60595 0.25514 0.0
C38 C 0.20263 0.63878 0.247 0.0
C39 C 0.22462 0.67079 0.23913 0.0
H40 H 0.29781 0.82902 0.19104 0.0
H41 H 0.27597 0.85906 0.13361 0.0
H42 H 0.28235 0.75708 0.0751 0.0
H43 H 0.30317 0.72751 0.13203 0.0
H44 H 0.41133 0.77426 0.25235 0.0
H45 H 0.46165 0.77834 0.30194 0.0
H46 H 0.38143 0.73744 0.37923 0.0
H47 H 0.33222 0.73349 0.33039 0.0
H48 H 0.31157 0.63692 0.24982 0.0
H49 H 0.27323 0.58059 0.26161 0.0
H50 H 0.17229 0.63964 0.24668 0.0
H51 H 0.21103 0.69602 0.23317 0.0
N52 N 0.28365 0.72492 0.2051 0.0
N53 N 0.33458 0.76542 0.2268 0.0
N54 N 0.31526 0.71405 0.26186 0.0
C55 C 0.30693 0.75543 0.20035 0.0
C56 C 0.33856 0.74456 0.25786 0.0
C57 C 0.28777 0.70426 0.23584 0.0
C58 C 0.30206 0.77607 0.16572 0.0
C59 C 0.29546 0.81357 0.16557 0.0
C60 C 0.28275 0.83059 0.13282 0.0
C61 C 0.27715 0.81037 0.09985 0.0
C62 C 0.28634 0.77352 0.09989 0.0
C63 C 0.29829 0.75651 0.1325 0.0
C64 C 0.36799 0.75335 0.28752 0.0
C65 C 0.4046 0.76688 0.28015 0.0
C66 C 0.4334 0.76883 0.30846 0.0
C67 C 0.4258 0.75758 0.34452 0.0
C68 C 0.38864 0.74589 0.35185 0.0
C69 C 0.36026 0.74372 0.32378 0.0
C70 C 0.26403 0.67042 0.24057 0.0
C71 C 0.28117 0.63765 0.24861 0.0
C72 C 0.03192 0.3927 0.96792 0.0
C73 C 0.0004 0.36744 0.96472 0.0
C74 C 0.96583 0.37749 0.97674 0.0
C75 C 0.96321 0.41171 0.99308 0.0
H76 H 0.89628 0.5081 0.00187 0.0
H77 H 0.84409 0.54854 -0.00185 0.0
H78 H 0.90437 0.62012 0.0793 0.0
H79 H 0.95588 0.58021 0.08318 0.0
H80 H 0.01803 0.53093 0.14092 0.0
H81 H 0.06792 0.53524 0.19042 0.0
H82 H 0.14609 0.49559 0.11632 0.0
H83 H 0.09621 0.49056 0.0673 0.0
H84 H 0.05473 0.44475 0.98911 0.0
H85 H 0.0589 0.38558 0.95892 0.0
H86 H 0.94106 0.35851 0.97433 0.0
H87 H 0.93663 0.41831 0.0034 0.0
N88 N 0.96398 0.48877 0.02108 0.0
N89 N 0.99201 0.52448 0.07024 0.0
N90 N 0.02376 0.47639 0.04708 0.0
C91 C 0.9628 0.51732 0.04479 0.0
C92 C 0.02254 0.50413 0.07146 0.0
C93 C 0.9946 0.46844 0.02204 0.0
C94 C 0.93039 0.54085 0.04283 0.0
C95 C 0.8983 0.53245 0.01897 0.0
C96 C 0.86838 0.55556 0.01681 0.0
C97 C 0.87015 0.58759 0.03829 0.0
C98 C 0.9021 0.59576 0.06221 0.0
C99 C 0.93173 0.5727 0.06453 0.0
C100 C 0.05327 0.51032 0.10033 0.0
C101 C 0.04599 0.52352 0.13519 0.0
C102 C 0.07443 0.52572 0.16357 0.0
C103 C 0.11082 0.51555 0.15728 0.0
C104 C 0.11834 0.50364 0.12201 0.0
C105 C 0.08977 0.50069 0.09395 0.0
C106 C 0.99538 0.43589 -0.00146 0.0
C107 C 0.02956 0.42645 0.9852 0.0
C108 C 0.76921 0.71356 0.14376 0.0
C109 C 0.74218 0.70543 0.11478 0.0
C110 C 0.7079 0.72234 0.11343 0.0
C111 C 0.70145 0.7484 0.13988 0.0
H112 H 0.62054 0.79098 0.21123 0.0
H113 H 0.56956 0.77877 0.25174 0.0
H114 H 0.63141 0.84486 0.3365 0.0
H115 H 0.68264 0.85705 0.2958 0.0
H116 H 0.7543 0.91663 0.2415 0.0
H117 H 0.80855 0.96172 0.24378 0.0
H118 H 0.87904 0.87785 0.20952 0.0
H119 H 0.82551 0.83341 0.20732 0.0
H120 H 0.78533 0.74771 0.19055 0.0
H121 H 0.79596 0.70099 0.14514 0.0
H122 H 0.68659 0.71621 0.0914 0.0
H123 H 0.67538 0.76213 0.13772 0.0
N124 N 0.69328 0.79445 0.20705 0.0
N125 N 0.72003 0.84852 0.23585 0.0
N126 N 0.75543 0.81487 0.19745 0.0
C127 C 0.69016 0.82339 0.22976 0.0
C128 C 0.75273 0.84443 0.21928 0.0
C129 C 0.72592 0.78999 0.19116 0.0
C130 C 0.65601 0.82428 0.25065 0.0
C131 C 0.62295 0.80358 0.23824 0.0
C132 C 0.59366 0.79658 0.26147 0.0
C133 C 0.59687 0.81001 0.29767 0.0
C134 C 0.62831 0.83368 0.30888 0.0
C135 C 0.65763 0.84083 0.28551 0.0
C136 C 0.78551 0.87151 0.22406 0.0
C137 C 0.78151 0.90789 0.23484 0.0
C138 C 0.81253 0.93373 0.23587 0.0
C139 C 0.84812 0.9235 0.22647 0.0
C140 C 0.8521 0.88686 0.21669 0.0
C141 C 0.82125 0.86129 0.21543 0.0
C142 C 0.72975 0.75854 0.16716 0.0
C143 C 0.76328 0.74039 0.16947 0.0
C144 C 0.06176 0.85066 0.54405 0.0
C145 C 0.02581 0.83608 0.55257 0.0
C146 C 0.99524 0.85846 0.54887 0.0
C147 C 3e-05 0.89388 0.53446 0.0
H148 H 0.9975 0.92455 0.40503 0.0
H149 H 0.97231 0.93159 0.3416 0.0
H150 H 0.96708 0.04809 0.35897 0.0
H151 H 0.99349 0.04126 0.4222 0.0
H152 H 0.05994 0.07474 0.48794 0.0
H153 H 0.10742 0.12485 0.49858 0.0
H154 H 0.18793 0.0479 0.5381 0.0
H155 H 0.13945 -0.00278 0.52776 0.0
H156 H 0.09441 0.89692 0.52308 0.0
H157 H 0.08575 0.83391 0.54668 0.0
H158 H 0.96719 0.84782 0.55495 0.0
H159 H 0.97568 0.90997 0.52992 0.0
N160 N 0.0162 0.94731 0.47374 0.0
N161 N 0.04437 0.00634 0.46582 0.0
N162 N 0.0656 0.96987 0.51528 0.0
C163 C 0.01883 0.97902 0.45422 0.0
C164 C 0.06782 0.00204 0.49618 0.0
C165 C 0.03913 0.94278 0.50445 0.0
C166 C 0.99757 0.9824 0.41841 0.0
C167 C 0.99029 0.95153 0.39554 0.0
C168 C 0.97614 0.95558 0.3592 0.0
C169 C 0.96808 0.99041 0.34542 0.0
C170 C 0.97304 0.02093 0.36899 0.0
C171 C 0.98818 0.01704 0.40506 0.0
C172 C 0.09608 0.03213 0.50688 0.0
C173 C 0.08764 0.06849 0.49926 0.0
C174 C 0.11494 0.09725 0.50546 0.0
C175 C 0.15165 0.09038 0.51892 0.0
C176 C 0.15997 0.05403 0.52749 0.0
C177 C 0.13222 0.0251 0.52184 0.0
C178 C 0.03565 0.90792 0.52471 0.0
C179 C 0.06676 0.88661 0.53072 0.0
C180 C 0.25603 0.76467 0.87967 0.0
C181 C 0.22778 0.78047 0.89813 0.0
C182 C 0.19069 0.77834 0.8821 0.0
C183 C 0.18175 0.75826 0.84943 0.0
H184 H 0.10139 0.73145 0.74948 0.0
H185 H 0.05356 0.73848 0.69867 0.0
H186 H 0.11518 0.67129 0.62954 0.0
H187 H 0.16195 0.66394 0.67946 0.0
H188 H 0.21848 0.61178 0.71448 0.0
H189 H 0.26697 0.57034 0.70276 0.0
H190 H 0.33195 0.60975 0.80064 0.0
H191 H 0.28349 0.65119 0.81251 0.0
H192 H 0.26981 0.73226 0.83474 0.0
H193 H 0.28499 0.76643 0.89092 0.0
H194 H 0.16838 0.79034 0.89581 0.0
H195 H 0.15273 0.75526 0.83849 0.0
N196 N 0.1712 0.71706 0.77699 0.0
N197 N 0.18996 0.66634 0.74474 0.0
N198 N 0.22495 0.68706 0.79767 0.0
C199 C 0.16566 0.69311 0.74814 0.0
C200 C 0.21953 0.66297 0.76945 0.0
C201 C 0.20119 0.71409 0.8018 0.0
C202 C 0.13555 0.69719 0.71862 0.0
C203 C 0.10449 0.71811 0.72344 0.0
C204 C 0.07706 0.72198 0.69446 0.0
C205 C 0.08075 0.70558 0.66007 0.0
C206 C 0.11161 0.6845 0.65556 0.0
C207 C 0.13844 0.68017 0.68442 0.0
C208 C 0.2472 0.6352 0.76421 0.0
C209 C 0.24289 0.61143 0.73374 0.0
C210 C 0.27074 0.5876 0.72701 0.0
C211 C 0.30351 0.58703 0.75056 0.0
C212 C 0.30713 0.60967 0.78184 0.0
C213 C 0.27928 0.63348 0.78861 0.0
C214 C 0.20985 0.74024 0.83263 0.0
C215 C 0.24723 0.74493 0.84743 0.0
C216 C 0.99547 0.63013 0.5167 0.0
C217 C 0.97168 0.63276 0.54574 0.0
C218 C 0.94794 0.60205 0.55452 0.0
C219 C 0.94716 0.56976 0.53396 0.0
H220 H 0.86701 0.48878 0.48447 0.0
H221 H 0.81639 0.44247 0.49552 0.0
H222 H 0.8839 0.35807 0.45736 0.0
H223 H 0.93437 0.40449 0.44581 0.0
H224 H 0.99123 0.46827 0.36795 0.0
H225 H 0.04286 0.46824 0.3262 0.0
H226 H 0.11982 0.5157 0.41239 0.0
H227 H 0.06865 0.51644 0.45316 0.0
H228 H 0.01338 0.5968 0.47388 0.0
H229 H 0.01395 0.65329 0.50908 0.0
H230 H 0.92917 0.60323 0.57669 0.0
H231 H 0.92808 0.5468 0.54106 0.0
N232 N 0.93886 0.50861 0.48263 0.0
N233 N 0.9649 0.47253 0.43867 0.0
N234 N 0.99644 0.52801 0.45913 0.0
C235 C 0.93677 0.47796 0.46134 0.0
C236 C 0.99485 0.49764 0.43759 0.0
C237 C 0.96858 0.53377 0.48164 0.0
C238 C 0.90482 0.45025 0.46447 0.0
C239 C 0.87092 0.46037 0.4781 0.0
C240 C 0.84183 0.43387 0.48432 0.0
C241 C 0.84626 0.39658 0.47767 0.0
C242 C 0.87975 0.38658 0.46308 0.0
C243 C 0.9086 0.41318 0.45624 0.0
C244 C 0.02598 0.49265 0.41361 0.0
C245 C 0.01937 0.47815 0.37791 0.0
C246 C 0.04882 0.47831 0.35403 0.0
C247 C 0.08535 0.49226 0.36588 0.0
C248 C 0.09205 0.50489 0.40225 0.0
C249 C 0.06269 0.5054 0.42566 0.0
C250 C 0.97046 0.56735 0.50446 0.0
C251 C 0.99507 0.59769 0.49645 0.0
C252 C 0.88766 0.71188 0.7212 0.0
C253 C 0.90039 0.73749 0.69495 0.0
C254 C 0.88352 0.77111 0.69143 0.0
C255 C 0.85355 0.77835 0.71247 0.0
H256 H 0.76613 0.84295 0.70914 0.0
H257 H 0.74312 0.90355 0.70043 0.0
H258 H 0.67939 0.88866 0.79718 0.0
H259 H 0.70249 0.82761 0.80601 0.0
H260 H 0.70225 0.74723 0.84328 0.0
H261 H 0.69126 0.72227 0.9037 0.0
H262 H 0.79762 0.67168 0.90625 0.0
H263 H 0.80877 0.69684 0.84528 0.0
H264 H 0.84799 0.69861 0.76186 0.0
H265 H 0.90013 0.68572 0.72463 0.0
H266 H 0.89269 0.7915 0.67158 0.0
H267 H 0.84084 0.80433 0.70841 0.0
N268 N 0.78622 0.78864 0.7487 0.0
N269 N 0.74632 0.77508 0.79614 0.0
N270 N 0.7964 0.73809 0.78723 0.0
C271 C 0.75608 0.79661 0.76735 0.0
C272 C 0.76613 0.74567 0.80617 0.0
C273 C 0.80648 0.7595 0.75829 0.0
C274 C 0.73686 0.83066 0.75876 0.0
C275 C 0.74682 0.85226 0.72836 0.0
C276 C 0.73358 0.88711 0.72334 0.0
C277 C 0.71001 0.90126 0.74855 0.0
C278 C 0.69771 0.87865 0.7774 0.0
C279 C 0.71104 0.84366 0.78248 0.0
C280 C 0.75681 0.72478 0.83975 0.0
C281 C 0.72316 0.73039 0.85637 0.0
C282 C 0.7168 0.716 0.89111 0.0
C283 C 0.74392 0.6956 0.91014 0.0
C284 C 0.77626 0.68746 0.89238 0.0
C285 C 0.78266 0.70194 0.85745 0.0
C286 C 0.83979 0.75224 0.73777 0.0
C287 C 0.8577 0.71922 0.74248 0.0
C288 C 0.38766 0.21188 0.2212 0.0
C289 C 0.40039 0.23749 0.19495 0.0
C290 C 0.38352 0.27111 0.19142 0.0
C291 C 0.35354 0.27835 0.21247 0.0
H292 H 0.26613 0.34295 0.20915 0.0
H293 H 0.24312 0.40355 0.20043 0.0
H294 H 0.17939 0.38866 0.29719 0.0
H295 H 0.20249 0.32761 0.30602 0.0
H296 H 0.20225 0.24723 0.34328 0.0
H297 H 0.19126 0.22227 0.4037 0.0
H298 H 0.29762 0.17169 0.40626 0.0
H299 H 0.30877 0.19685 0.34528 0.0
H300 H 0.34799 0.19862 0.26186 0.0
H301 H 0.40013 0.18572 0.22463 0.0
H302 H 0.39269 0.2915 0.17158 0.0
H303 H 0.34084 0.30433 0.20841 0.0
N304 N 0.28622 0.28864 0.2487 0.0
N305 N 0.24632 0.27508 0.29614 0.0
N306 N 0.2964 0.23809 0.28723 0.0
C307 C 0.25608 0.29661 0.26735 0.0
C308 C 0.26614 0.24568 0.30618 0.0
C309 C 0.30648 0.25951 0.25829 0.0
C310 C 0.23686 0.33066 0.25876 0.0
C311 C 0.24682 0.35226 0.22836 0.0
C312 C 0.23358 0.38711 0.22334 0.0
C313 C 0.21 0.40126 0.24855 0.0
C314 C 0.19771 0.37865 0.2774 0.0
C315 C 0.21104 0.34366 0.28248 0.0
C316 C 0.25681 0.22478 0.33975 0.0
C317 C 0.22316 0.23039 0.35638 0.0
C318 C 0.2168 0.216 0.39111 0.0
C319 C 0.24392 0.1956 0.41014 0.0
C320 C 0.27626 0.18746 0.39238 0.0
C321 C 0.28266 0.20195 0.35745 0.0
C322 C 0.33978 0.25224 0.23776 0.0
C323 C 0.3577 0.21923 0.24248 0.0
C324 C 0.53192 0.8927 0.46792 0.0
C325 C 0.5004 0.86743 0.46472 0.0
C326 C 0.46583 0.87749 0.47674 0.0
C327 C 0.46321 0.91171 0.49308 0.0
H328 H 0.39629 0.0081 0.50187 0.0
H329 H 0.3441 0.04854 0.49816 0.0
H330 H 0.40438 0.12012 0.5793 0.0
H331 H 0.45588 0.08021 0.58318 0.0
H332 H 0.51803 0.03093 0.64092 0.0
H333 H 0.56792 0.03523 0.69042 0.0
H334 H 0.6461 0.99558 0.61632 0.0
H335 H 0.59621 0.99056 0.5673 0.0
H336 H 0.55473 0.94475 0.48911 0.0
H337 H 0.5589 0.88558 0.45892 0.0
H338 H 0.44106 0.85852 0.47432 0.0
H339 H 0.43663 0.91831 0.5034 0.0
N340 N 0.46398 0.98877 0.52108 0.0
N341 N 0.49201 0.02448 0.57024 0.0
N342 N 0.52376 0.97638 0.54708 0.0
C343 C 0.4628 0.01732 0.54479 0.0
C344 C 0.52254 0.00413 0.57146 0.0
C345 C 0.4946 0.96843 0.52204 0.0
C346 C 0.43039 0.04085 0.54283 0.0
C347 C 0.39831 0.03245 0.51897 0.0
C348 C 0.36838 0.05556 0.51681 0.0
C349 C 0.37015 0.08759 0.53829 0.0
C350 C 0.4021 0.09576 0.56221 0.0
C351 C 0.43173 0.0727 0.56453 0.0
C352 C 0.55327 0.01032 0.60033 0.0
C353 C 0.54599 0.02352 0.63519 0.0
C354 C 0.57444 0.02571 0.66357 0.0
C355 C 0.61082 0.01555 0.65728 0.0
C356 C 0.61835 0.00364 0.62201 0.0
C357 C 0.58977 0.00069 0.59395 0.0
C358 C 0.49538 0.93589 0.49853 0.0
C359 C 0.52956 0.92645 0.48519 0.0
C360 C 0.26922 0.21356 0.64376 0.0
C361 C 0.24218 0.20543 0.61478 0.0
C362 C 0.2079 0.22234 0.61343 0.0
C363 C 0.20146 0.2484 0.63988 0.0
H364 H 0.12054 0.29098 0.71123 0.0
H365 H 0.06957 0.27877 0.75174 0.0
H366 H 0.13141 0.34486 0.8365 0.0
H367 H 0.18264 0.35705 0.79581 0.0
H368 H 0.25431 0.41663 0.7415 0.0
H369 H 0.30855 0.46172 0.74379 0.0
H370 H 0.37904 0.37785 0.70952 0.0
H371 H 0.32551 0.33341 0.70732 0.0
H372 H 0.28533 0.2477 0.69055 0.0
H373 H 0.29596 0.20099 0.64514 0.0
H374 H 0.18659 0.21621 0.5914 0.0
H375 H 0.17538 0.26213 0.63772 0.0
N376 N 0.19328 0.29445 0.70705 0.0
N377 N 0.22003 0.34852 0.73585 0.0
N378 N 0.25543 0.31487 0.69745 0.0
C379 C 0.19016 0.32338 0.72976 0.0
C380 C 0.25273 0.34443 0.71929 0.0
C381 C 0.22592 0.28999 0.69116 0.0
C382 C 0.15601 0.32428 0.75066 0.0
C383 C 0.12295 0.30357 0.73824 0.0
C384 C 0.09366 0.29657 0.76148 0.0
C385 C 0.09687 0.31 0.79767 0.0
C386 C 0.12831 0.33368 0.80888 0.0
C387 C 0.15763 0.34083 0.78551 0.0
C388 C 0.28551 0.37151 0.72406 0.0
C389 C 0.28151 0.40789 0.73484 0.0
C390 C 0.31253 0.43373 0.73587 0.0
C391 C 0.34812 0.42349 0.72647 0.0
C392 C 0.3521 0.38686 0.71669 0.0
C393 C 0.32125 0.36129 0.71543 0.0
C394 C 0.22975 0.25854 0.66716 0.0
C395 C 0.26328 0.24039 0.66947 0.0
C396 C 0.75925 0.10553 0.75524 0.0
C397 C 0.7199 0.10595 0.75514 0.0
C398 C 0.70263 0.13878 0.747 0.0
C399 C 0.72463 0.17079 0.73913 0.0
H400 H 0.79781 0.32903 0.69104 0.0
H401 H 0.77596 0.35906 0.63361 0.0
H402 H 0.78235 0.25708 0.5751 0.0
H403 H 0.80318 0.22752 0.63203 0.0
H404 H 0.91133 0.27426 0.75235 0.0
H405 H 0.96165 0.27834 0.80194 0.0
H406 H 0.88143 0.23743 0.87923 0.0
H407 H 0.83222 0.23349 0.83039 0.0
H408 H 0.81157 0.13692 0.74982 0.0
H409 H 0.77323 0.08059 0.7616 0.0
H410 H 0.67229 0.13964 0.74668 0.0
H411 H 0.71103 0.19602 0.73317 0.0
N412 N 0.78366 0.22492 0.70511 0.0
N413 N 0.83458 0.26542 0.7268 0.0
N414 N 0.81526 0.21405 0.76186 0.0
C415 C 0.80693 0.25543 0.70035 0.0
C416 C 0.83857 0.24456 0.75786 0.0
C417 C 0.78778 0.20426 0.73584 0.0
C418 C 0.80206 0.27607 0.66572 0.0
C419 C 0.79545 0.31357 0.66557 0.0
C420 C 0.78274 0.33059 0.63283 0.0
C421 C 0.77714 0.31038 0.59985 0.0
C422 C 0.78634 0.27353 0.59989 0.0
C423 C 0.7983 0.25652 0.6325 0.0
C424 C 0.86799 0.25336 0.78752 0.0
C425 C 0.9046 0.26688 0.78015 0.0
C426 C 0.9334 0.26883 0.80846 0.0
C427 C 0.9258 0.25758 0.84452 0.0
C428 C 0.88865 0.24589 0.85185 0.0
C429 C 0.86026 0.24372 0.82378 0.0
C430 C 0.76404 0.17042 0.74057 0.0
C431 C 0.78117 0.13765 0.74861 0.0
C432 C 0.4391 0.54353 0.60872 0.0
C433 C 0.45238 0.52351 0.63939 0.0
C434 C 0.48224 0.50083 0.63555 0.0
C435 C 0.49951 0.49946 0.60216 0.0
H436 H 0.54097 0.42949 0.51116 0.0
H437 H 0.58414 0.38136 0.50659 0.0
H438 H 0.66956 0.46102 0.47075 0.0
H439 H 0.62546 0.50959 0.47474 0.0
H440 H 0.57111 0.58349 0.42993 0.0
H441 H 0.57397 0.64449 0.40136 0.0
H442 H 0.49551 0.68018 0.47718 0.0
H443 H 0.49207 0.62008 0.50502 0.0
H444 H 0.44671 0.55949 0.55292 0.0
H445 H 0.41609 0.56121 0.6107 0.0
H446 H 0.49313 0.48504 0.6586 0.0
H447 H 0.52334 0.48276 0.60045 0.0
N448 N 0.53237 0.4981 0.5303 0.0
N449 N 0.55471 0.53442 0.48158 0.0
N450 N 0.50919 0.55565 0.51863 0.0
C451 C 0.5548 0.50263 0.50152 0.0
C452 C 0.53151 0.56102 0.48996 0.0
C453 C 0.50948 0.5245 0.53898 0.0
C454 C 0.57995 0.47336 0.49365 0.0
C455 C 0.56878 0.43674 0.50182 0.0
C456 C 0.5936 0.40908 0.49911 0.0
C457 C 0.63053 0.41736 0.48873 0.0
C458 C 0.64134 0.45379 0.479 0.0
C459 C 0.6161 0.48155 0.48114 0.0
C460 C 0.53167 0.59676 0.47006 0.0
C461 C 0.55414 0.60426 0.44016 0.0
C462 C 0.55566 0.63919 0.4237 0.0
C463 C 0.535 0.66732 0.43704 0.0
C464 C 0.51177 0.65936 0.46611 0.0
C465 C 0.50994 0.62461 0.48222 0.0
C466 C 0.48766 0.52125 0.57221 0.0
C467 C 0.45672 0.54263 0.57559 0.0
C468 C 0.56176 0.35066 0.04405 0.0
C469 C 0.5258 0.33608 0.05257 0.0
C470 C 0.49524 0.35846 0.04887 0.0
C471 C 0.50003 0.39388 0.03446 0.0
H472 H 0.4975 0.42455 0.90503 0.0
H473 H 0.47231 0.43159 0.8416 0.0
H474 H 0.46708 0.54809 0.85897 0.0
H475 H 0.49349 0.54126 0.9222 0.0
H476 H 0.55994 0.57474 0.98794 0.0
H477 H 0.60741 0.62485 -0.00142 0.0
H478 H 0.68793 0.5479 0.0381 0.0
H479 H 0.63945 0.49722 0.02776 0.0
H480 H 0.59441 0.39692 0.02308 0.0
H481 H 0.58575 0.33391 0.04669 0.0
H482 H 0.46719 0.34782 0.05495 0.0
H483 H 0.47568 0.40997 0.02992 0.0
N484 N 0.5162 0.44731 0.97374 0.0
N485 N 0.54437 0.50634 0.96582 0.0
N486 N 0.5656 0.46988 0.01528 0.0
C487 C 0.51883 0.47902 0.95422 0.0
C488 C 0.56782 0.50204 0.99618 0.0
C489 C 0.53913 0.44278 0.00445 0.0
C490 C 0.49757 0.4824 0.91841 0.0
C491 C 0.49029 0.45153 0.89554 0.0
C492 C 0.47614 0.45559 0.8592 0.0
C493 C 0.46808 0.49041 0.84542 0.0
C494 C 0.47303 0.52093 0.86899 0.0
C495 C 0.48818 0.51704 0.90506 0.0
C496 C 0.59607 0.53213 0.00689 0.0
C497 C 0.58764 0.56849 -0.00074 0.0
C498 C 0.61494 0.59725 0.00546 0.0
C499 C 0.65165 0.59038 0.01893 0.0
C500 C 0.65997 0.55403 0.02749 0.0
C501 C 0.63222 0.5251 0.02184 0.0
C502 C 0.53565 0.40792 0.02471 0.0
C503 C 0.56676 0.38661 0.03073 0.0
C504 C 0.75602 0.26467 0.37968 0.0
C505 C 0.72777 0.28047 0.39813 0.0
C506 C 0.69069 0.27834 0.3821 0.0
C507 C 0.68174 0.25826 0.34943 0.0
H508 H 0.60139 0.23145 0.24948 0.0
H509 H 0.55356 0.23848 0.19867 0.0
H510 H 0.61518 0.17129 0.12955 0.0
H511 H 0.66195 0.16394 0.17946 0.0
H512 H 0.71848 0.11179 0.21448 0.0
H513 H 0.76698 0.07034 0.20276 0.0
H514 H 0.83195 0.10975 0.30064 0.0
H515 H 0.78349 0.15119 0.31251 0.0
H516 H 0.7698 0.23225 0.33475 0.0
H517 H 0.78499 0.26643 0.39092 0.0
H518 H 0.66838 0.29033 0.39581 0.0
H519 H 0.65272 0.25526 0.3385 0.0
N520 N 0.6712 0.21706 0.27699 0.0
N521 N 0.68996 0.16634 0.24474 0.0
N522 N 0.72495 0.18706 0.29767 0.0
C523 C 0.66566 0.19311 0.24814 0.0
C524 C 0.71953 0.16297 0.26945 0.0
C525 C 0.70118 0.21408 0.3018 0.0
C526 C 0.63555 0.19719 0.21862 0.0
C527 C 0.60449 0.21811 0.22345 0.0
C528 C 0.57707 0.22198 0.19446 0.0
C529 C 0.58075 0.20558 0.16007 0.0
C530 C 0.61161 0.18451 0.15556 0.0
C531 C 0.63844 0.18017 0.18442 0.0
C532 C 0.7472 0.1352 0.26421 0.0
C533 C 0.7429 0.11143 0.23374 0.0
C534 C 0.77074 0.0876 0.22701 0.0
C535 C 0.80351 0.08703 0.25056 0.0
C536 C 0.80713 0.10967 0.28184 0.0
C537 C 0.77928 0.13348 0.28861 0.0
C538 C 0.70985 0.24023 0.33263 0.0
C539 C 0.74723 0.24493 0.34743 0.0
C540 C 0.49548 0.13012 0.01671 0.0
C541 C 0.47169 0.13276 0.04574 0.0
C542 C 0.44795 0.10205 0.05453 0.0
C543 C 0.44717 0.06975 0.03397 0.0
H544 H 0.36703 0.98878 0.98448 0.0
H545 H 0.3164 0.94247 0.99553 0.0
H546 H 0.38391 0.85807 0.95736 0.0
H547 H 0.43438 0.90449 0.94582 0.0
H548 H 0.49125 0.96826 0.86796 0.0
H549 H 0.54287 0.96824 0.8262 0.0
H550 H 0.61983 0.01571 0.91239 0.0
H551 H 0.56867 0.01644 0.95316 0.0
H552 H 0.51339 0.0968 0.97389 0.0
H553 H 0.51396 0.15328 0.00909 0.0
H554 H 0.42918 0.10323 0.07669 0.0
H555 H 0.4281 0.04679 0.04107 0.0
N556 N 0.43888 0.0086 0.98264 0.0
N557 N 0.46491 0.97253 0.93868 0.0
N558 N 0.49646 0.02801 0.95914 0.0
C559 C 0.43678 0.97796 0.96135 0.0
C560 C 0.49487 -0.00237 0.9376 0.0
C561 C 0.4686 0.03376 0.98165 0.0
C562 C 0.40483 0.95025 0.96448 0.0
C563 C 0.37093 0.96037 0.9781 0.0
C564 C 0.34184 0.93387 0.98433 0.0
C565 C 0.34627 0.89658 0.97767 0.0
C566 C 0.37976 0.88657 0.96308 0.0
C567 C 0.40861 0.91317 0.95625 0.0
C568 C 0.526 0.99264 0.91362 0.0
C569 C 0.51939 0.97815 0.87792 0.0
C570 C 0.54883 0.97831 0.85404 0.0
C571 C 0.58536 0.99226 0.86589 0.0
C572 C 0.59207 0.00489 0.90225 0.0
C573 C 0.56271 0.0054 0.92567 0.0
C574 C 0.47047 0.06735 0.00447 0.0
C575 C 0.49509 0.09769 0.99646 0.0
Mg576 Mg 0.22721 0.84704 0.00603 0.0
O577 O 0.28335 0.87705 0.99114 0.0
O578 O 0.32672 0.83531 0.99278 0.0
Mg579 Mg 0.29938 0.77972 0.00891 0.0
C580 C 0.31701 0.86807 0.98742 0.0
C581 C 0.15776 0.88828 0.99091 0.0
O582 O 0.14632 0.85458 -0.00014 0.0
O583 O 0.21947 0.8209 0.94837 0.0
O584 O 0.26372 0.78025 0.95453 0.0
O585 O 0.24239 0.85652 0.0665 0.0
O586 O 0.25653 0.80805 0.03572 0.0
C587 C 0.23733 0.79504 0.93562 0.0
C588 C 0.25862 0.82585 0.06622 0.0
O589 O 0.1929 0.89575 0.98851 0.0
Mg590 Mg 0.16338 0.51161 0.27743 0.0
O591 O 0.13156 0.51394 0.22066 0.0
O592 O 0.17506 0.51896 0.17885 0.0
Mg593 Mg 0.23367 0.52136 0.20821 0.0
C594 C 0.14076 0.51653 0.18733 0.0
C595 C 0.11628 0.4959 0.34054 0.0
O596 O 0.15072 0.50567 0.35358 0.0
O597 O 0.17753 0.45262 0.26699 0.0
O598 O 0.22217 0.46175 0.22675 0.0
O599 O 0.16635 0.57298 0.28063 0.0
O600 O 0.2097 0.54067 0.25779 0.0
C601 C 0.20194 0.4405 0.24671 0.0
C602 C 0.19774 0.57219 0.26469 0.0
O603 O 0.10998 0.49352 0.30585 0.0
Mg604 Mg 0.77093 0.65223 0.02725 0.0
O605 O 0.71572 0.61494 0.02535 0.0
O606 O 0.66965 0.6539 0.02117 0.0
Mg607 Mg 0.69321 0.71338 0.02286 0.0
C608 C 0.68075 0.62132 0.02261 0.0
C609 C 0.8394 0.61292 0.03627 0.0
O610 O 0.84396 0.64429 0.05412 0.0
O611 O 0.76189 0.66468 0.9659 0.0
O612 O 0.71711 0.70473 0.9668 0.0
O613 O 0.77286 0.65593 0.08853 0.0
O614 O 0.74384 0.69372 0.05049 0.0
C615 C 0.74018 0.68695 0.94955 0.0
C616 C 0.75228 0.68363 0.08367 0.0
O617 O 0.80814 0.60523 0.01821 0.0
Mg618 Mg 0.91423 0.03779 0.23893 0.0
O619 O 0.87676 0.9842 0.23327 0.0
O620 O 0.91342 0.93895 0.2216 0.0
Mg621 Mg 0.97404 0.96308 0.22092 0.0
C622 C 0.88118 0.95044 0.22702 0.0
C623 C 0.83465 0.0647 0.24119 0.0
O624 O 0.83206 0.0457 0.21047 0.0
O625 O 0.93534 0.02003 0.29604 0.0
O626 O 0.97197 0.97498 0.28287 0.0
O627 O 0.9081 0.0479 0.17873 0.0
O628 O 0.95349 0.01702 0.20562 0.0
C629 C 0.9574 0.99517 0.30599 0.0
C630 C 0.93722 0.02903 0.17571 0.0
O631 O 0.86547 0.06616 0.26089 0.0
Mg632 Mg 0.27094 0.15223 0.52725 0.0
O633 O 0.21572 0.11494 0.52535 0.0
O634 O 0.16965 0.15389 0.52117 0.0
Mg635 Mg 0.19321 0.21338 0.52286 0.0
C636 C 0.18076 0.12132 0.52261 0.0
C637 C 0.3394 0.11292 0.53627 0.0
O638 O 0.34396 0.1443 0.55412 0.0
O639 O 0.26189 0.16468 0.4659 0.0
O640 O 0.21711 0.20473 0.4668 0.0
O641 O 0.27286 0.15593 0.58853 0.0
O642 O 0.24384 0.19372 0.55049 0.0
C643 C 0.24019 0.18695 0.44955 0.0
C644 C 0.25228 0.18363 0.58367 0.0
O645 O 0.30814 0.10523 0.51821 0.0
Mg646 Mg 0.41423 0.53779 0.73893 0.0
O647 O 0.37676 0.4842 0.73327 0.0
O648 O 0.41342 0.43895 0.7216 0.0
Mg649 Mg 0.47404 0.46308 0.72092 0.0
C650 C 0.38118 0.45044 0.72702 0.0
C651 C 0.33464 0.5647 0.74119 0.0
O652 O 0.33206 0.5457 0.71047 0.0
O653 O 0.43534 0.52004 0.79604 0.0
O654 O 0.47197 0.47498 0.78287 0.0
O655 O 0.4081 0.54791 0.67873 0.0
O656 O 0.45349 0.51702 0.70562 0.0
C657 C 0.4574 0.49517 0.80599 0.0
C658 C 0.43721 0.52903 0.67571 0.0
O659 O 0.36547 0.56616 0.76089 0.0
Mg660 Mg 0.7272 0.34704 0.50603 0.0
O661 O 0.78334 0.37705 0.49114 0.0
O662 O 0.82672 0.33531 0.49278 0.0
Mg663 Mg 0.79937 0.27972 0.50892 0.0
C664 C 0.817 0.36807 0.48742 0.0
C665 C 0.65775 0.38827 0.49091 0.0
O666 O 0.64631 0.35458 0.49986 0.0
O667 O 0.71946 0.3209 0.44838 0.0
O668 O 0.76372 0.28025 0.45454 0.0
O669 O 0.74239 0.35652 0.5665 0.0
O670 O 0.75652 0.30805 0.53572 0.0
C671 C 0.73733 0.29504 0.43562 0.0
C672 C 0.75862 0.32585 0.56623 0.0
O673 O 0.69289 0.39575 0.48851 0.0
Mg674 Mg 0.66338 0.01161 0.77743 0.0
O675 O 0.63156 0.01394 0.72066 0.0
O676 O 0.67506 0.01896 0.67885 0.0
Mg677 Mg 0.73367 0.02136 0.70821 0.0
C678 C 0.64076 0.01652 0.68733 0.0
C679 C 0.61629 0.9959 0.84054 0.0
O680 O 0.65073 0.00568 0.85358 0.0
O681 O 0.67753 0.95262 0.76699 0.0
O682 O 0.72218 0.96175 0.72674 0.0
O683 O 0.66636 0.07298 0.78063 0.0
O684 O 0.70971 0.04067 0.75779 0.0
C685 C 0.70195 0.9405 0.74671 0.0
C686 C 0.69775 0.07219 0.76468 0.0
O687 O 0.60999 0.99352 0.80585 0.0
Mg688 Mg 0.04662 0.27214 0.90337 0.0
O689 O 0.99008 0.26638 0.86818 0.0
O690 O 0.94637 0.24748 0.90672 0.0
Mg691 Mg 0.97336 0.24066 0.96443 0.0
C692 C 0.95587 0.25725 0.87468 0.0
C693 C 0.07025 0.29558 0.82467 0.0
O694 O 0.04475 0.26902 0.81529 0.0
O695 O 0.02836 0.3245 0.92809 0.0
O696 O 0.98479 0.30346 0.96606 0.0
O697 O 0.05826 0.21328 0.89411 0.0
O698 O 0.02701 0.23244 0.93991 0.0
C699 C 0.00433 0.32982 0.95171 0.0
C700 C 0.03981 0.20546 0.92297 0.0
O701 O 0.07598 0.30423 0.85839 0.0
Mg702 Mg 0.54662 0.77213 0.40337 0.0
O703 O 0.49008 0.76638 0.36817 0.0
O704 O 0.44637 0.74748 0.40672 0.0
Mg705 Mg 0.47336 0.74066 0.46442 0.0
C706 C 0.45586 0.75725 0.37468 0.0
C707 C 0.57025 0.79558 0.32467 0.0
O708 O 0.54475 0.76902 0.31529 0.0
O709 O 0.52836 0.8245 0.42809 0.0
O710 O 0.48479 0.80346 0.46606 0.0
O711 O 0.55826 0.71328 0.39411 0.0
O712 O 0.52701 0.73244 0.43991 0.0
C713 C 0.50433 0.82982 0.45171 0.0
C714 C 0.53981 0.70546 0.42296 0.0
O715 O 0.57598 0.80422 0.35839 0.0
Mg716 Mg 0.96759 0.72953 0.59552 0.0
O717 O 0.02017 0.71901 0.63347 0.0
O718 O 0.06532 0.7075 0.59601 0.0
Mg719 Mg 0.04335 0.71175 0.53617 0.0
C720 C 0.05379 0.71107 0.62822 0.0
C721 C 0.92861 0.72801 0.66911 0.0
O722 O 0.94057 0.69473 0.66899 0.0
O723 O 0.99279 0.78647 0.58175 0.0
O724 O 0.03754 0.77377 0.54416 0.0
O725 O 0.94959 0.67002 0.59341 0.0
O726 O 0.98625 0.69795 0.55372 0.0
C727 C 0.01913 0.79668 0.56099 0.0
C728 C 0.96954 0.66797 0.5651 0.0
O729 O 0.9375 0.75025 0.64357 0.0
Mg730 Mg 0.46759 0.22953 0.09552 0.0
O731 O 0.52017 0.21901 0.13347 0.0
O732 O 0.56532 0.2075 0.09601 0.0
Mg733 Mg 0.54335 0.21175 0.03618 0.0
C734 C 0.55379 0.21108 0.12822 0.0
C735 C 0.42861 0.22801 0.16911 0.0
O736 O 0.44057 0.19473 0.16899 0.0
O737 O 0.49279 0.28647 0.08175 0.0
O738 O 0.53754 0.27377 0.04417 0.0
O739 O 0.44959 0.17002 0.09341 0.0
O740 O 0.48625 0.19795 0.05372 0.0
C741 C 0.51913 0.29668 0.06099 0.0
C742 C 0.46955 0.16797 0.06511 0.0
O743 O 0.4375 0.25025 0.14357 0.0
loop_
_geom_bond_atom_site_label_1
_geom_bond_atom_site_label_2
_geom_bond_distance
_geom_bond_site_symmetry_2
_ccdc_geom_bond_type
C0 C1 1.384 . S
C0 H13 0.947 . S
C0 C35 1.382 . S
C1 C0 1.384 . S
C1 C2 1.378 1_545 S
C2 C1 1.378 1_565 S
C2 C3 1.378 1_565 S
C2 H14 0.952 . S
C3 C2 1.378 1_545 S
C3 H15 0.950 1_645 S
C3 C34 1.383 . S
H4 C23 0.947 . S
H5 C24 0.946 . S
H6 C26 0.953 . S
H7 C27 0.963 . S
H8 C29 0.952 . S
H9 C30 0.949 . S
H10 C32 0.950 . S
H11 C33 0.948 1_654 S
H12 C35 0.951 . S
H13 C0 0.947 . S
H14 C2 0.952 . S
H15 C3 0.950 1_465 S
N16 C19 1.382 . S
N16 C21 1.363 . S
N17 C19 1.371 . S
N17 C20 1.372 . S
N18 C20 1.361 . S
N18 C21 1.377 . S
C19 N16 1.382 . S
C19 N17 1.371 . S
C19 C22 1.480 1_545 S
C20 N17 1.372 . S
C20 N18 1.361 . S
C20 C28 1.457 1_554 S
C21 N16 1.363 . S
C21 N18 1.377 . S
C21 C34 1.479 1_455 S
C22 C19 1.480 1_565 S
C22 C23 1.383 . S
C22 C27 1.382 1_564 S
C23 H4 0.947 . S
C23 C22 1.383 . S
C23 C24 1.388 . S
C24 H5 0.946 . S
C24 C23 1.388 . S
C24 C25 1.384 . S
C25 C24 1.384 . S
C25 C26 1.377 1_554 S
C26 H6 0.953 . S
C26 C25 1.377 1_556 S
C26 C27 1.354 1_565 S
C27 H7 0.963 . S
C27 C22 1.382 1_546 S
C27 C26 1.354 1_545 S
C28 C20 1.457 1_556 S
C28 C29 1.372 . S
C28 C33 1.364 . S
C29 H8 0.952 . S
C29 C28 1.372 . S
C29 C30 1.389 . S
C30 H9 0.949 . S
C30 C29 1.389 . S
C30 C31 1.387 . S
C31 C30 1.387 . S
C31 C32 1.372 1_455 S
C32 H10 0.950 . S
C32 C31 1.372 1_655 S
C32 C33 1.379 1_655 S
C33 H11 0.948 1_456 S
C33 C28 1.364 . S
C33 C32 1.379 1_455 S
C34 C3 1.383 . S
C34 C21 1.479 1_655 S
C34 C35 1.398 . S
C35 C0 1.382 . S
C35 H12 0.951 . S
C35 C34 1.398 . S
C36 C37 1.384 . S
C36 H49 0.947 . S
C36 C71 1.382 . S
C37 C36 1.384 . S
C37 C38 1.378 . S
C38 C37 1.378 . S
C38 C39 1.378 . S
C38 H50 0.952 . S
C39 C38 1.378 . S
C39 H51 0.950 . S
C39 C70 1.383 . S
H40 C59 0.947 . S
H41 C60 0.946 . S
H42 C62 0.953 . S
H43 C63 0.945 . S
H44 C65 0.952 . S
H45 C66 0.949 . S
H46 C68 0.950 . S
H47 C69 0.948 . S
H48 C71 0.951 . S
H49 C36 0.947 . S
H50 C38 0.952 . S
H51 C39 0.950 . S
N52 C55 1.382 . S
N52 C57 1.363 . S
N53 C55 1.371 . S
N53 C56 1.372 . S
N54 C56 1.361 . S
N54 C57 1.377 . S
C55 N52 1.382 . S
C55 N53 1.371 . S
C55 C58 1.480 . S
C56 N53 1.372 . S
C56 N54 1.361 . S
C56 C64 1.457 . S
C57 N52 1.363 . S
C57 N54 1.377 . S
C57 C70 1.479 . S
C58 C55 1.480 . S
C58 C59 1.383 . S
C58 C63 1.385 . S
C59 H40 0.947 . S
C59 C58 1.383 . S
C59 C60 1.388 . S
C60 H41 0.946 . S
C60 C59 1.388 . S
C60 C61 1.384 . S
C61 C60 1.384 . S
C61 C62 1.377 . S
C62 H42 0.953 . S
C62 C61 1.377 . S
C62 C63 1.369 . S
C63 H43 0.945 . S
C63 C58 1.385 . S
C63 C62 1.369 . S
C64 C56 1.457 . S
C64 C65 1.372 . S
C64 C69 1.364 . S
C65 H44 0.952 . S
C65 C64 1.372 . S
C65 C66 1.389 . S
C66 H45 0.949 . S
C66 C65 1.389 . S
C66 C67 1.387 . S
C67 C66 1.387 . S
C67 C68 1.372 . S
C68 H46 0.950 . S
C68 C67 1.372 . S
C68 C69 1.379 . S
C69 H47 0.948 . S
C69 C64 1.364 . S
C69 C68 1.379 . S
C70 C39 1.383 . S
C70 C57 1.479 . S
C70 C71 1.398 . S
C71 C36 1.382 . S
C71 H48 0.951 . S
C71 C70 1.398 . S
C72 C73 1.384 . S
C72 H85 0.947 . S
C72 C107 1.382 1_556 S
C73 C72 1.384 . S
C73 C74 1.378 1_455 S
C74 C73 1.378 1_655 S
C74 C75 1.378 . S
C74 H86 0.952 . S
C75 C74 1.378 . S
C75 H87 0.950 . S
C75 C106 1.383 . S
H76 C95 0.947 1_556 S
H77 C96 0.946 1_556 S
H78 C98 0.953 . S
H79 C99 0.945 . S
H80 C101 0.952 . S
H81 C102 0.949 . S
H82 C104 0.950 . S
H83 C105 0.948 . S
H84 C107 0.951 . S
H85 C72 0.947 . S
H86 C74 0.952 . S
H87 C75 0.950 . S
N88 C91 1.382 . S
N88 C93 1.363 . S
N89 C91 1.371 . S
N89 C92 1.372 1_655 S
N90 C92 1.361 . S
N90 C93 1.377 1_455 S
C91 N88 1.382 . S
C91 N89 1.371 . S
C91 C94 1.480 . S
C92 N89 1.372 1_455 S
C92 N90 1.361 . S
C92 C100 1.457 . S
C93 N88 1.363 . S
C93 N90 1.377 1_655 S
C93 C106 1.479 1_554 S
C94 C91 1.480 . S
C94 C95 1.383 . S
C94 C99 1.385 . S
C95 H76 0.947 1_554 S
C95 C94 1.383 . S
C95 C96 1.388 . S
C96 H77 0.946 1_554 S
C96 C95 1.388 . S
C96 C97 1.384 . S
C97 C96 1.384 . S
C97 C98 1.377 . S
C98 H78 0.953 . S
C98 C97 1.377 . S
C98 C99 1.369 . S
C99 H79 0.945 . S
C99 C94 1.385 . S
C99 C98 1.369 . S
C100 C92 1.457 . S
C100 C101 1.372 . S
C100 C105 1.364 . S
C101 H80 0.952 . S
C101 C100 1.372 . S
C101 C102 1.389 . S
C102 H81 0.949 . S
C102 C101 1.389 . S
C102 C103 1.387 . S
C103 C102 1.387 . S
C103 C104 1.372 . S
C104 H82 0.950 . S
C104 C103 1.372 . S
C104 C105 1.379 . S
C105 H83 0.948 . S
C105 C100 1.364 . S
C105 C104 1.379 . S
C106 C75 1.383 . S
C106 C93 1.479 1_556 S
C106 C107 1.398 1_656 S
C107 C72 1.382 1_554 S
C107 H84 0.951 . S
C107 C106 1.398 1_454 S
C108 C109 1.384 . S
C108 H121 0.947 . S
C108 C143 1.382 . S
C109 C108 1.384 . S
C109 C110 1.378 . S
C110 C109 1.378 . S
C110 C111 1.378 . S
C110 H122 0.952 . S
C111 C110 1.378 . S
C111 H123 0.950 . S
C111 C142 1.383 . S
H112 C131 0.947 . S
H113 C132 0.946 . S
H114 C134 0.953 . S
H115 C135 0.945 . S
H116 C137 0.952 . S
H117 C138 0.949 . S
H118 C140 0.950 . S
H119 C141 0.948 . S
H120 C143 0.951 . S
H121 C108 0.947 . S
H122 C110 0.952 . S
H123 C111 0.950 . S
N124 C127 1.382 . S
N124 C129 1.363 . S
N125 C127 1.371 . S
N125 C128 1.372 . S
N126 C128 1.361 . S
N126 C129 1.377 . S
C127 N124 1.382 . S
C127 N125 1.371 . S
C127 C130 1.480 . S
C128 N125 1.372 . S
C128 N126 1.361 . S
C128 C136 1.457 . S
C129 N124 1.363 . S
C129 N126 1.377 . S
C129 C142 1.479 . S
C130 C127 1.480 . S
C130 C131 1.383 . S
C130 C135 1.385 . S
C131 H112 0.947 . S
C131 C130 1.383 . S
C131 C132 1.388 . S
C132 H113 0.946 . S
C132 C131 1.388 . S
C132 C133 1.384 . S
C133 C132 1.384 . S
C133 C134 1.377 . S
C134 H114 0.953 . S
C134 C133 1.377 . S
C134 C135 1.369 . S
C135 H115 0.945 . S
C135 C130 1.385 . S
C135 C134 1.369 . S
C136 C128 1.457 . S
C136 C137 1.372 . S
C136 C141 1.364 . S
C137 H116 0.952 . S
C137 C136 1.372 . S
C137 C138 1.389 . S
C138 H117 0.949 . S
C138 C137 1.389 . S
C138 C139 1.387 . S
C139 C138 1.387 . S
C139 C140 1.372 . S
C140 H118 0.950 . S
C140 C139 1.372 . S
C140 C141 1.379 . S
C141 H119 0.948 . S
C141 C136 1.364 . S
C141 C140 1.379 . S
C142 C111 1.383 . S
C142 C129 1.479 . S
C142 C143 1.398 . S
C143 C108 1.382 . S
C143 H120 0.951 . S
C143 C142 1.398 . S
C144 C145 1.384 . S
C144 H157 0.947 . S
C144 C179 1.382 . S
C145 C144 1.384 . S
C145 C146 1.378 . S
C146 C145 1.378 . S
C146 C147 1.378 . S
C146 H158 0.952 1_455 S
C147 C146 1.378 . S
C147 H159 0.950 1_455 S
C147 C178 1.383 . S
H148 C167 0.947 . S
H149 C168 0.946 . S
H150 C170 0.953 . S
H151 C171 0.945 . S
H152 C173 0.952 . S
H153 C174 0.949 . S
H154 C176 0.950 . S
H155 C177 0.948 1_565 S
H156 C179 0.951 . S
H157 C144 0.947 . S
H158 C146 0.952 1_655 S
H159 C147 0.950 1_655 S
N160 C163 1.382 . S
N160 C165 1.363 . S
N161 C163 1.371 1_545 S
N161 C164 1.372 1_545 S
N162 C164 1.361 . S
N162 C165 1.377 . S
C163 N160 1.382 . S
C163 N161 1.371 1_565 S
C163 C166 1.480 . S
C164 N161 1.372 1_565 S
C164 N162 1.361 . S
C164 C172 1.457 1_565 S
C165 N160 1.363 . S
C165 N162 1.377 . S
C165 C178 1.479 . S
C166 C163 1.480 . S
C166 C167 1.383 1_455 S
C166 C171 1.385 1_565 S
C167 H148 0.947 . S
C167 C166 1.383 1_655 S
C167 C168 1.388 . S
C168 H149 0.946 . S
C168 C167 1.388 . S
C168 C169 1.384 . S
C169 C168 1.384 . S
C169 C170 1.377 1_565 S
C170 H150 0.953 . S
C170 C169 1.377 1_545 S
C170 C171 1.369 1_655 S
C171 H151 0.945 . S
C171 C166 1.385 1_545 S
C171 C170 1.369 1_455 S
C172 C164 1.457 1_545 S
C172 C173 1.372 . S
C172 C177 1.364 . S
C173 H152 0.952 . S
C173 C172 1.372 . S
C173 C174 1.389 . S
C174 H153 0.949 . S
C174 C173 1.389 . S
C174 C175 1.387 . S
C175 C174 1.387 . S
C175 C176 1.372 . S
C176 H154 0.950 . S
C176 C175 1.372 . S
C176 C177 1.379 . S
C177 H155 0.948 1_545 S
C177 C172 1.364 . S
C177 C176 1.379 . S
C178 C147 1.383 . S
C178 C165 1.479 . S
C178 C179 1.398 . S
C179 C144 1.382 . S
C179 H156 0.951 . S
C179 C178 1.398 . S
C180 C181 1.384 . S
C180 H193 0.947 . S
C180 C215 1.382 . S
C181 C180 1.384 . S
C181 C182 1.378 . S
C182 C181 1.378 . S
C182 C183 1.378 . S
C182 H194 0.952 . S
C183 C182 1.378 . S
C183 H195 0.950 . S
C183 C214 1.383 . S
H184 C203 0.947 . S
H185 C204 0.946 . S
H186 C206 0.953 . S
H187 C207 0.945 . S
H188 C209 0.952 . S
H189 C210 0.949 . S
H190 C212 0.950 . S
H191 C213 0.948 . S
H192 C215 0.951 . S
H193 C180 0.947 . S
H194 C182 0.952 . S
H195 C183 0.950 . S
N196 C199 1.382 . S
N196 C201 1.363 . S
N197 C199 1.371 . S
N197 C200 1.372 . S
N198 C200 1.361 . S
N198 C201 1.377 . S
C199 N196 1.382 . S
C199 N197 1.371 . S
C199 C202 1.480 . S
C200 N197 1.372 . S
C200 N198 1.361 . S
C200 C208 1.457 . S
C201 N196 1.363 . S
C201 N198 1.377 . S
C201 C214 1.479 . S
C202 C199 1.480 . S
C202 C203 1.383 . S
C202 C207 1.385 . S
C203 H184 0.947 . S
C203 C202 1.383 . S
C203 C204 1.388 . S
C204 H185 0.946 . S
C204 C203 1.388 . S
C204 C205 1.384 . S
C205 C204 1.384 . S
C205 C206 1.377 . S
C206 H186 0.953 . S
C206 C205 1.377 . S
C206 C207 1.369 . S
C207 H187 0.945 . S
C207 C202 1.385 . S
C207 C206 1.369 . S
C208 C200 1.457 . S
C208 C209 1.372 . S
C208 C213 1.364 . S
C209 H188 0.952 . S
C209 C208 1.372 . S
C209 C210 1.389 . S
C210 H189 0.949 . S
C210 C209 1.389 . S
C210 C211 1.387 . S
C211 C210 1.387 . S
C211 C212 1.372 . S
C212 H190 0.950 . S
C212 C211 1.372 . S
C212 C213 1.379 . S
C213 H191 0.948 . S
C213 C208 1.364 . S
C213 C212 1.379 . S
C214 C183 1.383 . S
C214 C201 1.479 . S
C214 C215 1.398 . S
C215 C180 1.382 . S
C215 H192 0.951 . S
C215 C214 1.398 . S
C216 C217 1.384 1_455 S
C216 H229 0.947 . S
C216 C251 1.382 . S
C217 C216 1.384 1_655 S
C217 C218 1.378 . S
C218 C217 1.378 . S
C218 C219 1.378 . S
C218 H230 0.952 . S
C219 C218 1.378 . S
C219 H231 0.950 . S
C219 C250 1.383 . S
H220 C239 0.947 . S
H221 C240 0.946 . S
H222 C242 0.953 . S
H223 C243 0.945 . S
H224 C245 0.952 1_655 S
H225 C246 0.949 . S
H226 C248 0.950 . S
H227 C249 0.948 . S
H228 C251 0.951 . S
H229 C216 0.947 . S
H230 C218 0.952 . S
H231 C219 0.950 . S
N232 C235 1.382 . S
N232 C237 1.363 . S
N233 C235 1.371 . S
N233 C236 1.372 . S
N234 C236 1.361 . S
N234 C237 1.377 . S
C235 N232 1.382 . S
C235 N233 1.371 . S
C235 C238 1.480 . S
C236 N233 1.372 . S
C236 N234 1.361 . S
C236 C244 1.457 1_655 S
C237 N232 1.363 . S
C237 N234 1.377 . S
C237 C250 1.479 . S
C238 C235 1.480 . S
C238 C239 1.383 . S
C238 C243 1.385 . S
C239 H220 0.947 . S
C239 C238 1.383 . S
C239 C240 1.388 . S
C240 H221 0.946 . S
C240 C239 1.388 . S
C240 C241 1.384 . S
C241 C240 1.384 . S
C241 C242 1.377 . S
C242 H222 0.953 . S
C242 C241 1.377 . S
C242 C243 1.369 . S
C243 H223 0.945 . S
C243 C238 1.385 . S
C243 C242 1.369 . S
C244 C236 1.457 1_455 S
C244 C245 1.372 . S
C244 C249 1.364 . S
C245 H224 0.952 1_455 S
C245 C244 1.372 . S
C245 C246 1.389 . S
C246 H225 0.949 . S
C246 C245 1.389 . S
C246 C247 1.387 . S
C247 C246 1.387 . S
C247 C248 1.372 . S
C248 H226 0.950 . S
C248 C247 1.372 . S
C248 C249 1.379 . S
C249 H227 0.948 . S
C249 C244 1.364 . S
C249 C248 1.379 . S
C250 C219 1.383 . S
C250 C237 1.479 . S
C250 C251 1.398 1_655 S
C251 C216 1.382 . S
C251 H228 0.951 . S
C251 C250 1.398 1_455 S
C252 C253 1.384 . S
C252 H265 0.947 . S
C252 C287 1.382 . S
C253 C252 1.384 . S
C253 C254 1.378 . S
C254 C253 1.378 . S
C254 C255 1.378 . S
C254 H266 0.952 . S
C255 C254 1.378 . S
C255 H267 0.950 . S
C255 C286 1.383 . S
H256 C275 0.947 . S
H257 C276 0.946 . S
H258 C278 0.953 . S
H259 C279 0.945 . S
H260 C281 0.952 . S
H261 C282 0.949 . S
H262 C284 0.950 . S
H263 C285 0.948 . S
H264 C287 0.951 . S
H265 C252 0.947 . S
H266 C254 0.952 . S
H267 C255 0.950 . S
N268 C271 1.382 . S
N268 C273 1.363 . S
N269 C271 1.371 . S
N269 C272 1.372 . S
N270 C272 1.361 . S
N270 C273 1.377 . S
C271 N268 1.382 . S
C271 N269 1.371 . S
C271 C274 1.480 . S
C272 N269 1.372 . S
C272 N270 1.361 . S
C272 C280 1.457 . S
C273 N268 1.363 . S
C273 N270 1.377 . S
C273 C286 1.479 . S
C274 C271 1.480 . S
C274 C275 1.383 . S
C274 C279 1.385 . S
C275 H256 0.947 . S
C275 C274 1.383 . S
C275 C276 1.388 . S
C276 H257 0.946 . S
C276 C275 1.388 . S
C276 C277 1.384 . S
C277 C276 1.384 . S
C277 C278 1.377 . S
C278 H258 0.953 . S
C278 C277 1.377 . S
C278 C279 1.369 . S
C279 H259 0.945 . S
C279 C274 1.385 . S
C279 C278 1.369 . S
C280 C272 1.457 . S
C280 C281 1.372 . S
C280 C285 1.364 . S
C281 H260 0.952 . S
C281 C280 1.372 . S
C281 C282 1.389 . S
C282 H261 0.949 . S
C282 C281 1.389 . S
C282 C283 1.387 . S
C283 C282 1.387 . S
C283 C284 1.372 . S
C284 H262 0.950 . S
C284 C283 1.372 . S
C284 C285 1.379 . S
C285 H263 0.948 . S
C285 C280 1.364 . S
C285 C284 1.379 . S
C286 C255 1.383 . S
C286 C273 1.479 . S
C286 C287 1.398 . S
C287 C252 1.382 . S
C287 H264 0.951 . S
C287 C286 1.398 . S
C288 C289 1.384 . S
C288 H301 0.947 . S
C288 C323 1.382 . S
C289 C288 1.384 . S
C289 C290 1.378 . S
C290 C289 1.378 . S
C290 C291 1.378 . S
C290 H302 0.952 . S
C291 C290 1.378 . S
C291 H303 0.950 . S
C291 C322 1.383 . S
H292 C311 0.947 . S
H293 C312 0.946 . S
H294 C314 0.953 . S
H295 C315 0.945 . S
H296 C317 0.952 . S
H297 C318 0.949 . S
H298 C320 0.950 . S
H299 C321 0.948 . S
H300 C323 0.951 . S
H301 C288 0.947 . S
H302 C290 0.952 . S
H303 C291 0.950 . S
N304 C307 1.382 . S
N304 C309 1.363 . S
N305 C307 1.371 . S
N305 C308 1.372 . S
N306 C308 1.361 . S
N306 C309 1.377 . S
C307 N304 1.382 . S
C307 N305 1.371 . S
C307 C310 1.480 . S
C308 N305 1.372 . S
C308 N306 1.361 . S
C308 C316 1.457 . S
C309 N304 1.363 . S
C309 N306 1.377 . S
C309 C322 1.479 . S
C310 C307 1.480 . S
C310 C311 1.383 . S
C310 C315 1.385 . S
C311 H292 0.947 . S
C311 C310 1.383 . S
C311 C312 1.388 . S
C312 H293 0.946 . S
C312 C311 1.388 . S
C312 C313 1.384 . S
C313 C312 1.384 . S
C313 C314 1.377 . S
C314 H294 0.953 . S
C314 C313 1.377 . S
C314 C315 1.369 . S
C315 H295 0.945 . S
C315 C310 1.385 . S
C315 C314 1.369 . S
C316 C308 1.457 . S
C316 C317 1.372 . S
C316 C321 1.364 . S
C317 H296 0.952 . S
C317 C316 1.372 . S
C317 C318 1.389 . S
C318 H297 0.949 . S
C318 C317 1.389 . S
C318 C319 1.387 . S
C319 C318 1.387 . S
C319 C320 1.372 . S
C320 H298 0.950 . S
C320 C319 1.372 . S
C320 C321 1.379 . S
C321 H299 0.948 . S
C321 C316 1.364 . S
C321 C320 1.379 . S
C322 C291 1.383 . S
C322 C309 1.479 . S
C322 C323 1.398 . S
C323 C288 1.382 . S
C323 H300 0.951 . S
C323 C322 1.398 . S
C324 C325 1.384 . S
C324 H337 0.947 . S
C324 C359 1.382 . S
C325 C324 1.384 . S
C325 C326 1.378 . S
C326 C325 1.378 . S
C326 C327 1.378 . S
C326 H338 0.952 . S
C327 C326 1.378 . S
C327 H339 0.950 . S
C327 C358 1.383 . S
H328 C347 0.947 1_565 S
H329 C348 0.946 . S
H330 C350 0.953 . S
H331 C351 0.945 . S
H332 C353 0.952 . S
H333 C354 0.949 . S
H334 C356 0.950 . S
H335 C357 0.948 . S
H336 C359 0.951 . S
H337 C324 0.947 . S
H338 C326 0.952 . S
H339 C327 0.950 . S
N340 C343 1.382 . S
N340 C345 1.363 . S
N341 C343 1.371 . S
N341 C344 1.372 . S
N342 C344 1.361 . S
N342 C345 1.377 . S
C343 N340 1.382 . S
C343 N341 1.371 . S
C343 C346 1.480 1_565 S
C344 N341 1.372 . S
C344 N342 1.361 . S
C344 C352 1.457 . S
C345 N340 1.363 . S
C345 N342 1.377 . S
C345 C358 1.479 . S
C346 C343 1.480 1_545 S
C346 C347 1.383 . S
C346 C351 1.385 . S
C347 H328 0.947 1_545 S
C347 C346 1.383 . S
C347 C348 1.388 . S
C348 H329 0.946 . S
C348 C347 1.388 . S
C348 C349 1.384 . S
C349 C348 1.384 . S
C349 C350 1.377 . S
C350 H330 0.953 . S
C350 C349 1.377 . S
C350 C351 1.369 . S
C351 H331 0.945 . S
C351 C346 1.385 . S
C351 C350 1.369 . S
C352 C344 1.457 . S
C352 C353 1.372 1_565 S
C352 C357 1.364 . S
C353 H332 0.952 . S
C353 C352 1.372 1_545 S
C353 C354 1.389 . S
C354 H333 0.949 . S
C354 C353 1.389 . S
C354 C355 1.387 1_545 S
C355 C354 1.387 1_565 S
C355 C356 1.372 . S
C356 H334 0.950 . S
C356 C355 1.372 . S
C356 C357 1.379 . S
C357 H335 0.948 . S
C357 C352 1.364 . S
C357 C356 1.379 . S
C358 C327 1.383 . S
C358 C345 1.479 . S
C358 C359 1.398 . S
C359 C324 1.382 . S
C359 H336 0.951 . S
C359 C358 1.398 . S
C360 C361 1.384 . S
C360 H373 0.947 . S
C360 C395 1.382 . S
C361 C360 1.384 . S
C361 C362 1.378 . S
C362 C361 1.378 . S
C362 C363 1.378 . S
C362 H374 0.952 . S
C363 C362 1.378 . S
C363 H375 0.950 . S
C363 C394 1.383 . S
H364 C383 0.947 . S
H365 C384 0.946 . S
H366 C386 0.953 . S
H367 C387 0.945 . S
H368 C389 0.952 . S
H369 C390 0.949 . S
H370 C392 0.950 . S
H371 C393 0.948 . S
H372 C395 0.951 . S
H373 C360 0.947 . S
H374 C362 0.952 . S
H375 C363 0.950 . S
N376 C379 1.382 . S
N376 C381 1.363 . S
N377 C379 1.371 . S
N377 C380 1.372 . S
N378 C380 1.361 . S
N378 C381 1.377 . S
C379 N376 1.382 . S
C379 N377 1.371 . S
C379 C382 1.480 . S
C380 N377 1.372 . S
C380 N378 1.361 . S
C380 C388 1.457 . S
C381 N376 1.363 . S
C381 N378 1.377 . S
C381 C394 1.479 . S
C382 C379 1.480 . S
C382 C383 1.383 . S
C382 C387 1.385 . S
C383 H364 0.947 . S
C383 C382 1.383 . S
C383 C384 1.388 . S
C384 H365 0.946 . S
C384 C383 1.388 . S
C384 C385 1.384 . S
C385 C384 1.384 . S
C385 C386 1.377 . S
C386 H366 0.953 . S
C386 C385 1.377 . S
C386 C387 1.369 . S
C387 H367 0.945 . S
C387 C382 1.385 . S
C387 C386 1.369 . S
C388 C380 1.457 . S
C388 C389 1.372 . S
C388 C393 1.364 . S
C389 H368 0.952 . S
C389 C388 1.372 . S
C389 C390 1.389 . S
C390 H369 0.949 . S
C390 C389 1.389 . S
C390 C391 1.387 . S
C391 C390 1.387 . S
C391 C392 1.372 . S
C392 H370 0.950 . S
C392 C391 1.372 . S
C392 C393 1.379 . S
C393 H371 0.948 . S
C393 C388 1.364 . S
C393 C392 1.379 . S
C394 C363 1.383 . S
C394 C381 1.479 . S
C394 C395 1.398 . S
C395 C360 1.382 . S
C395 H372 0.951 . S
C395 C394 1.398 . S
C396 C397 1.384 . S
C396 H409 0.947 . S
C396 C431 1.382 . S
C397 C396 1.384 . S
C397 C398 1.378 . S
C398 C397 1.378 . S
C398 C399 1.378 . S
C398 H410 0.952 . S
C399 C398 1.378 . S
C399 H411 0.950 . S
C399 C430 1.383 . S
H400 C419 0.947 . S
H401 C420 0.946 . S
H402 C422 0.953 . S
H403 C423 0.945 . S
H404 C425 0.952 . S
H405 C426 0.949 . S
H406 C428 0.950 . S
H407 C429 0.948 . S
H408 C431 0.951 . S
H409 C396 0.947 . S
H410 C398 0.952 . S
H411 C399 0.950 . S
N412 C415 1.382 . S
N412 C417 1.363 . S
N413 C415 1.371 . S
N413 C416 1.372 . S
N414 C416 1.361 . S
N414 C417 1.377 . S
C415 N412 1.382 . S
C415 N413 1.371 . S
C415 C418 1.480 . S
C416 N413 1.372 . S
C416 N414 1.361 . S
C416 C424 1.457 . S
C417 N412 1.363 . S
C417 N414 1.377 . S
C417 C430 1.479 . S
C418 C415 1.480 . S
C418 C419 1.383 . S
C418 C423 1.385 . S
C419 H400 0.947 . S
C419 C418 1.383 . S
C419 C420 1.388 . S
C420 H401 0.946 . S
C420 C419 1.388 . S
C420 C421 1.384 . S
C421 C420 1.384 . S
C421 C422 1.377 . S
C422 H402 0.953 . S
C422 C421 1.377 . S
C422 C423 1.369 . S
C423 H403 0.945 . S
C423 C418 1.385 . S
C423 C422 1.369 . S
C424 C416 1.457 . S
C424 C425 1.372 . S
C424 C429 1.364 . S
C425 H404 0.952 . S
C425 C424 1.372 . S
C425 C426 1.389 . S
C426 H405 0.949 . S
C426 C425 1.389 . S
C426 C427 1.387 . S
C427 C426 1.387 . S
C427 C428 1.372 . S
C428 H406 0.950 . S
C428 C427 1.372 . S
C428 C429 1.379 . S
C429 H407 0.948 . S
C429 C424 1.364 . S
C429 C428 1.379 . S
C430 C399 1.383 . S
C430 C417 1.479 . S
C430 C431 1.398 . S
C431 C396 1.382 . S
C431 H408 0.951 . S
C431 C430 1.398 . S
C432 C433 1.384 . S
C432 H445 0.947 . S
C432 C467 1.382 . S
C433 C432 1.384 . S
C433 C434 1.378 . S
C434 C433 1.378 . S
C434 C435 1.378 . S
C434 H446 0.952 . S
C435 C434 1.378 . S
C435 H447 0.950 . S
C435 C466 1.383 . S
H436 C455 0.947 . S
H437 C456 0.946 . S
H438 C458 0.953 . S
H439 C459 0.945 . S
H440 C461 0.952 . S
H441 C462 0.949 . S
H442 C464 0.950 . S
H443 C465 0.948 . S
H444 C467 0.951 . S
H445 C432 0.947 . S
H446 C434 0.952 . S
H447 C435 0.950 . S
N448 C451 1.382 . S
N448 C453 1.363 . S
N449 C451 1.371 . S
N449 C452 1.372 . S
N450 C452 1.361 . S
N450 C453 1.377 . S
C451 N448 1.382 . S
C451 N449 1.371 . S
C451 C454 1.480 . S
C452 N449 1.372 . S
C452 N450 1.361 . S
C452 C460 1.457 . S
C453 N448 1.363 . S
C453 N450 1.377 . S
C453 C466 1.479 . S
C454 C451 1.480 . S
C454 C455 1.383 . S
C454 C459 1.385 . S
C455 H436 0.947 . S
C455 C454 1.383 . S
C455 C456 1.388 . S
C456 H437 0.946 . S
C456 C455 1.388 . S
C456 C457 1.384 . S
C457 C456 1.384 . S
C457 C458 1.377 . S
C458 H438 0.953 . S
C458 C457 1.377 . S
C458 C459 1.369 . S
C459 H439 0.945 . S
C459 C454 1.385 . S
C459 C458 1.369 . S
C460 C452 1.457 . S
C460 C461 1.372 . S
C460 C465 1.364 . S
C461 H440 0.952 . S
C461 C460 1.372 . S
C461 C462 1.389 . S
C462 H441 0.949 . S
C462 C461 1.389 . S
C462 C463 1.387 . S
C463 C462 1.387 . S
C463 C464 1.372 . S
C464 H442 0.950 . S
C464 C463 1.372 . S
C464 C465 1.379 . S
C465 H443 0.948 . S
C465 C460 1.364 . S
C465 C464 1.379 . S
C466 C435 1.383 . S
C466 C453 1.479 . S
C466 C467 1.398 . S
C467 C432 1.382 . S
C467 H444 0.951 . S
C467 C466 1.398 . S
C468 C469 1.384 . S
C468 H481 0.947 . S
C468 C503 1.382 . S
C469 C468 1.384 . S
C469 C470 1.378 . S
C470 C469 1.378 . S
C470 C471 1.360 1_554 S
C470 H482 0.952 . S
C471 C470 1.360 1_556 S
C471 H483 0.973 . S
C471 C502 1.378 1_556 S
H472 C491 0.947 . S
H473 C492 0.946 . S
H474 C494 0.953 . S
H475 C495 0.945 . S
H476 C497 0.952 . S
H477 C498 0.949 . S
H478 C500 0.950 . S
H479 C501 0.948 . S
H480 C503 0.951 . S
H481 C468 0.947 . S
H482 C470 0.952 . S
H483 C471 0.973 . S
N484 C487 1.382 . S
N484 C489 1.363 . S
N485 C487 1.371 . S
N485 C488 1.372 . S
N486 C488 1.361 . S
N486 C489 1.377 . S
C487 N484 1.382 . S
C487 N485 1.371 . S
C487 C490 1.480 . S
C488 N485 1.372 . S
C488 N486 1.361 . S
C488 C496 1.457 . S
C489 N484 1.363 . S
C489 N486 1.377 . S
C489 C502 1.479 1_556 S
C490 C487 1.480 . S
C490 C491 1.383 . S
C490 C495 1.385 . S
C491 H472 0.947 . S
C491 C490 1.383 . S
C491 C492 1.388 . S
C492 H473 0.946 . S
C492 C491 1.388 . S
C492 C493 1.384 . S
C493 C492 1.384 . S
C493 C494 1.377 . S
C494 H474 0.953 . S
C494 C493 1.377 . S
C494 C495 1.369 . S
C495 H475 0.945 . S
C495 C490 1.385 . S
C495 C494 1.369 . S
C496 C488 1.457 . S
C496 C497 1.372 . S
C496 C501 1.364 1_556 S
C497 H476 0.952 . S
C497 C496 1.372 . S
C497 C498 1.389 . S
C498 H477 0.949 . S
C498 C497 1.389 . S
C498 C499 1.387 . S
C499 C498 1.387 . S
C499 C500 1.372 1_556 S
C500 H478 0.950 . S
C500 C499 1.372 1_554 S
C500 C501 1.379 . S
C501 H479 0.948 . S
C501 C496 1.364 1_554 S
C501 C500 1.379 . S
C502 C471 1.378 1_554 S
C502 C489 1.479 1_554 S
C502 C503 1.398 . S
C503 C468 1.382 . S
C503 H480 0.951 . S
C503 C502 1.398 . S
C504 C505 1.384 . S
C504 H517 0.947 . S
C504 C539 1.382 . S
C505 C504 1.384 . S
C505 C506 1.378 . S
C506 C505 1.378 . S
C506 C507 1.378 . S
C506 H518 0.952 . S
C507 C506 1.378 . S
C507 H519 0.950 . S
C507 C538 1.383 . S
H508 C527 0.947 . S
H509 C528 0.946 . S
H510 C530 0.953 . S
H511 C531 0.945 . S
H512 C533 0.952 . S
H513 C534 0.949 . S
H514 C536 0.950 . S
H515 C537 0.948 . S
H516 C539 0.951 . S
H517 C504 0.947 . S
H518 C506 0.952 . S
H519 C507 0.950 . S
N520 C523 1.382 . S
N520 C525 1.363 . S
N521 C523 1.371 . S
N521 C524 1.372 . S
N522 C524 1.361 . S
N522 C525 1.377 . S
C523 N520 1.382 . S
C523 N521 1.371 . S
C523 C526 1.480 . S
C524 N521 1.372 . S
C524 N522 1.361 . S
C524 C532 1.457 . S
C525 N520 1.363 . S
C525 N522 1.377 . S
C525 C538 1.479 . S
C526 C523 1.480 . S
C526 C527 1.383 . S
C526 C531 1.385 . S
C527 H508 0.947 . S
C527 C526 1.383 . S
C527 C528 1.388 . S
C528 H509 0.946 . S
C528 C527 1.388 . S
C528 C529 1.384 . S
C529 C528 1.384 . S
C529 C530 1.377 . S
C530 H510 0.953 . S
C530 C529 1.377 . S
C530 C531 1.369 . S
C531 H511 0.945 . S
C531 C526 1.385 . S
C531 C530 1.369 . S
C532 C524 1.457 . S
C532 C533 1.372 . S
C532 C537 1.364 . S
C533 H512 0.952 . S
C533 C532 1.372 . S
C533 C534 1.389 . S
C534 H513 0.949 . S
C534 C533 1.389 . S
C534 C535 1.387 . S
C535 C534 1.387 . S
C535 C536 1.372 . S
C536 H514 0.950 . S
C536 C535 1.372 . S
C536 C537 1.379 . S
C537 H515 0.948 . S
C537 C532 1.364 . S
C537 C536 1.379 . S
C538 C507 1.383 . S
C538 C525 1.479 . S
C538 C539 1.398 . S
C539 C504 1.382 . S
C539 H516 0.951 . S
C539 C538 1.398 . S
C540 C541 1.384 . S
C540 H553 0.947 . S
C540 C575 1.382 . S
C541 C540 1.384 . S
C541 C542 1.378 . S
C542 C541 1.378 . S
C542 C543 1.378 . S
C542 H554 0.952 . S
C543 C542 1.378 . S
C543 H555 0.950 . S
C543 C574 1.383 . S
H544 C563 0.947 1_545 S
H545 C564 0.946 . S
H546 C566 0.953 . S
H547 C567 0.945 . S
H548 C569 0.952 . S
H549 C570 0.949 . S
H550 C572 0.950 . S
H551 C573 0.948 . S
H552 C575 0.951 1_556 S
H553 C540 0.947 . S
H554 C542 0.952 . S
H555 C543 0.950 . S
N556 C559 1.382 1_554 S
N556 C561 1.365 . S
N557 C559 1.371 1_565 S
N557 C560 1.372 1_565 S
N558 C560 1.361 . S
N558 C561 1.369 1_556 S
C559 N556 1.382 1_556 S
C559 N557 1.371 1_545 S
C559 C562 1.480 1_545 S
C560 N557 1.372 1_545 S
C560 N558 1.361 . S
C560 C568 1.457 . S
C561 N556 1.365 . S
C561 N558 1.369 1_554 S
C561 C574 1.484 . S
C562 C559 1.480 1_565 S
C562 C563 1.383 1_556 S
C562 C567 1.385 . S
C563 H544 0.947 1_565 S
C563 C562 1.383 1_554 S
C563 C564 1.388 . S
C564 H545 0.946 . S
C564 C563 1.388 . S
C564 C565 1.384 1_554 S
C565 C564 1.384 1_556 S
C565 C566 1.377 . S
C566 H546 0.953 . S
C566 C565 1.377 . S
C566 C567 1.369 . S
C567 H547 0.945 . S
C567 C562 1.385 . S
C567 C566 1.369 . S
C568 C560 1.457 . S
C568 C569 1.372 1_545 S
C568 C573 1.364 . S
C569 H548 0.952 . S
C569 C568 1.372 1_565 S
C569 C570 1.389 . S
C570 H549 0.949 . S
C570 C569 1.389 . S
C570 C571 1.387 1_565 S
C571 C570 1.387 1_545 S
C571 C572 1.372 . S
C572 H550 0.950 . S
C572 C571 1.372 . S
C572 C573 1.379 . S
C573 H551 0.948 . S
C573 C568 1.364 . S
C573 C572 1.379 . S
C574 C543 1.383 . S
C574 C561 1.484 . S
C574 C575 1.398 . S
C575 C540 1.382 . S
C575 H552 0.951 1_554 S
C575 C574 1.398 . S
Mg576 O577 2.028 . S
Mg576 O583 1.986 1_554 S
Mg576 O585 2.114 . S
Mg576 O586 2.251 . S
Mg576 O589 2.010 . S
O577 Mg576 2.028 . S
O577 C580 1.250 1_554 S
O578 Mg579 2.028 . S
O578 C580 1.248 . S
Mg579 O578 2.028 . S
Mg579 O584 2.032 . S
Mg579 O586 2.079 1_556 S
C580 O577 1.250 1_556 S
C580 O578 1.248 . S
C581 O582 1.264 . S
C581 O589 1.249 . S
O582 C581 1.264 . S
O583 Mg576 1.986 1_556 S
O583 C587 1.246 . S
O584 Mg579 2.032 . S
O584 C587 1.259 . S
O585 Mg576 2.114 . S
O585 C588 1.252 . S
O586 Mg576 2.251 . S
O586 Mg579 2.079 1_554 S
O586 C588 1.273 . S
C587 O583 1.246 . S
C587 O584 1.259 . S
C588 O585 1.252 . S
C588 O586 1.273 . S
O589 Mg576 2.010 . S
O589 C581 1.249 . S
Mg590 O591 2.028 . S
Mg590 O597 1.986 . S
Mg590 O599 2.114 . S
Mg590 O600 2.251 . S
Mg590 O603 2.010 . S
O591 Mg590 2.028 . S
O591 C594 1.250 . S
O592 Mg593 2.028 . S
O592 C594 1.248 . S
Mg593 O592 2.028 . S
Mg593 O598 2.032 . S
Mg593 O600 2.079 . S
C594 O591 1.250 . S
C594 O592 1.248 . S
C595 O596 1.264 . S
C595 O603 1.249 . S
O596 C595 1.264 . S
O597 Mg590 1.986 . S
O597 C601 1.246 . S
O598 Mg593 2.032 . S
O598 C601 1.259 . S
O599 Mg590 2.114 . S
O599 C602 1.252 . S
O600 Mg590 2.251 . S
O600 Mg593 2.079 . S
O600 C602 1.273 . S
C601 O597 1.246 . S
C601 O598 1.259 . S
C602 O599 1.252 . S
C602 O600 1.273 . S
O603 Mg590 2.010 . S
O603 C595 1.249 . S
Mg604 O605 2.028 . S
Mg604 O611 1.986 1_554 S
Mg604 O613 2.114 . S
Mg604 O614 2.251 . S
Mg604 O617 2.010 . S
O605 Mg604 2.028 . S
O605 C608 1.248 1_554 S
O606 Mg607 2.028 . S
O606 C608 1.249 . S
Mg607 O606 2.028 . S
Mg607 O612 2.032 . S
Mg607 O614 2.079 1_556 S
C608 O605 1.248 1_556 S
C608 O606 1.249 . S
C609 O610 1.264 . S
C609 O617 1.249 . S
O610 C609 1.264 . S
O611 Mg604 1.986 1_556 S
O611 C615 1.246 . S
O612 Mg607 2.032 . S
O612 C615 1.259 . S
O613 Mg604 2.114 . S
O613 C616 1.252 . S
O614 Mg604 2.251 . S
O614 Mg607 2.079 1_554 S
O614 C616 1.273 . S
C615 O611 1.246 . S
C615 O612 1.259 . S
C616 O613 1.252 . S
C616 O614 1.273 . S
O617 Mg604 2.010 . S
O617 C609 1.249 . S
Mg618 O619 2.028 1_545 S
Mg618 O625 1.986 . S
Mg618 O627 2.114 . S
Mg618 O628 2.251 . S
Mg618 O631 2.010 . S
O619 Mg618 2.028 1_565 S
O619 C622 1.250 . S
O620 Mg621 2.028 . S
O620 C622 1.248 . S
Mg621 O620 2.028 . S
Mg621 O626 2.032 . S
Mg621 O628 2.079 1_565 S
C622 O619 1.250 . S
C622 O620 1.248 . S
C623 O624 1.264 . S
C623 O631 1.249 . S
O624 C623 1.264 . S
O625 Mg618 1.986 . S
O625 C629 1.246 1_545 S
O626 Mg621 2.032 . S
O626 C629 1.259 . S
O627 Mg618 2.114 . S
O627 C630 1.252 . S
O628 Mg618 2.251 . S
O628 Mg621 2.079 1_545 S
O628 C630 1.273 . S
C629 O625 1.246 1_565 S
C629 O626 1.259 . S
C630 O627 1.252 . S
C630 O628 1.273 . S
O631 Mg618 2.010 . S
O631 C623 1.249 . S
Mg632 O633 2.028 . S
Mg632 O639 1.986 . S
Mg632 O641 2.114 . S
Mg632 O642 2.251 . S
Mg632 O645 2.010 . S
O633 Mg632 2.028 . S
O633 C636 1.250 . S
O634 Mg635 2.028 . S
O634 C636 1.248 . S
Mg635 O634 2.028 . S
Mg635 O640 2.032 . S
Mg635 O642 2.079 . S
C636 O633 1.250 . S
C636 O634 1.248 . S
C637 O638 1.264 . S
C637 O645 1.249 . S
O638 C637 1.264 . S
O639 Mg632 1.986 . S
O639 C643 1.246 . S
O640 Mg635 2.032 . S
O640 C643 1.259 . S
O641 Mg632 2.114 . S
O641 C644 1.252 . S
O642 Mg632 2.251 . S
O642 Mg635 2.079 . S
O642 C644 1.273 . S
C643 O639 1.246 . S
C643 O640 1.259 . S
C644 O641 1.252 . S
C644 O642 1.273 . S
O645 Mg632 2.010 . S
O645 C637 1.249 . S
Mg646 O647 2.028 . S
Mg646 O653 1.986 . S
Mg646 O655 2.114 . S
Mg646 O656 2.251 . S
Mg646 O659 2.010 . S
O647 Mg646 2.028 . S
O647 C650 1.250 . S
O648 Mg649 2.028 . S
O648 C650 1.248 . S
Mg649 O648 2.028 . S
Mg649 O654 2.032 . S
Mg649 O656 2.079 . S
C650 O647 1.250 . S
C650 O648 1.248 . S
C651 O652 1.264 . S
C651 O659 1.249 . S
O652 C651 1.264 . S
O653 Mg646 1.986 . S
O653 C657 1.246 . S
O654 Mg649 2.032 . S
O654 C657 1.259 . S
O655 Mg646 2.114 . S
O655 C658 1.252 . S
O656 Mg646 2.251 . S
O656 Mg649 2.079 . S
O656 C658 1.273 . S
C657 O653 1.246 . S
C657 O654 1.259 . S
C658 O655 1.252 . S
C658 O656 1.273 . S
O659 Mg646 2.010 . S
O659 C651 1.249 . S
Mg660 O661 2.028 . S
Mg660 O667 1.986 . S
Mg660 O669 2.114 . S
Mg660 O670 2.251 . S
Mg660 O673 2.010 . S
O661 Mg660 2.028 . S
O661 C664 1.250 . S
O662 Mg663 2.028 . S
O662 C664 1.248 . S
Mg663 O662 2.028 . S
Mg663 O668 2.032 . S
Mg663 O670 2.079 . S
C664 O661 1.250 . S
C664 O662 1.248 . S
C665 O666 1.264 . S
C665 O673 1.249 . S
O666 C665 1.264 . S
O667 Mg660 1.986 . S
O667 C671 1.246 . S
O668 Mg663 2.032 . S
O668 C671 1.259 . S
O669 Mg660 2.114 . S
O669 C672 1.252 . S
O670 Mg660 2.251 . S
O670 Mg663 2.079 . S
O670 C672 1.273 . S
C671 O667 1.246 . S
C671 O668 1.259 . S
C672 O669 1.252 . S
C672 O670 1.273 . S
O673 Mg660 2.010 . S
O673 C665 1.249 . S
Mg674 O675 2.028 1_545 S
Mg674 O681 1.986 1_545 S
Mg674 O683 2.114 . S
Mg674 O684 2.251 . S
Mg674 O687 2.010 . S
O675 Mg674 2.028 1_565 S
O675 C678 1.250 . S
O676 Mg677 2.028 . S
O676 C678 1.248 . S
Mg677 O676 2.028 . S
Mg677 O682 2.032 . S
Mg677 O684 2.079 1_565 S
C678 O675 1.250 . S
C678 O676 1.248 . S
C679 O680 1.264 . S
C679 O687 1.249 . S
O680 C679 1.264 . S
O681 Mg674 1.986 1_565 S
O681 C685 1.246 . S
O682 Mg677 2.032 . S
O682 C685 1.259 . S
O683 Mg674 2.114 . S
O683 C686 1.252 . S
O684 Mg674 2.251 . S
O684 Mg677 2.079 1_545 S
O684 C686 1.273 . S
C685 O681 1.246 . S
C685 O682 1.259 . S
C686 O683 1.252 . S
C686 O684 1.273 . S
O687 Mg674 2.010 . S
O687 C679 1.249 . S
Mg688 O689 2.028 1_455 S
Mg688 O695 1.986 . S
Mg688 O697 2.114 . S
Mg688 O698 2.251 1_455 S
Mg688 O701 2.010 . S
O689 Mg688 2.028 1_655 S
O689 C692 1.250 . S
O690 Mg691 2.028 . S
O690 C692 1.248 . S
Mg691 O690 2.028 . S
Mg691 O696 2.032 . S
Mg691 O698 2.079 . S
C692 O689 1.250 . S
C692 O690 1.248 . S
C693 O694 1.264 . S
C693 O701 1.249 . S
O694 C693 1.264 . S
O695 Mg688 1.986 . S
O695 C699 1.246 1_455 S
O696 Mg691 2.032 . S
O696 C699 1.259 . S
O697 Mg688 2.114 . S
O697 C700 1.252 . S
O698 Mg688 2.251 1_655 S
O698 Mg691 2.079 . S
O698 C700 1.273 1_655 S
C699 O695 1.246 1_655 S
C699 O696 1.259 . S
C700 O697 1.252 . S
C700 O698 1.273 1_455 S
O701 Mg688 2.010 . S
O701 C693 1.249 . S
Mg702 O703 2.028 . S
Mg702 O709 1.986 . S
Mg702 O711 2.114 . S
Mg702 O712 2.251 . S
Mg702 O715 2.010 . S
O703 Mg702 2.028 . S
O703 C706 1.250 . S
O704 Mg705 2.028 . S
O704 C706 1.248 . S
Mg705 O704 2.028 . S
Mg705 O710 2.032 . S
Mg705 O712 2.079 . S
C706 O703 1.250 . S
C706 O704 1.248 . S
C707 O708 1.264 . S
C707 O715 1.249 . S
O708 C707 1.264 . S
O709 Mg702 1.986 . S
O709 C713 1.246 . S
O710 Mg705 2.032 . S
O710 C713 1.259 . S
O711 Mg702 2.114 . S
O711 C714 1.252 . S
O712 Mg702 2.251 . S
O712 Mg705 2.079 . S
O712 C714 1.273 . S
C713 O709 1.246 . S
C713 O710 1.259 . S
C714 O711 1.252 . S
C714 O712 1.273 . S
O715 Mg702 2.010 . S
O715 C707 1.249 . S
Mg716 O717 2.028 1_655 S
Mg716 O723 1.985 . S
Mg716 O725 2.114 . S
Mg716 O726 2.251 1_655 S
Mg716 O729 2.010 . S
O717 Mg716 2.028 1_455 S
O717 C720 1.250 . S
O718 Mg719 2.028 . S
O718 C720 1.248 . S
Mg719 O718 2.028 . S
Mg719 O724 2.032 . S
Mg719 O726 2.079 . S
C720 O717 1.250 . S
C720 O718 1.248 . S
C721 O722 1.264 . S
C721 O729 1.249 . S
O722 C721 1.264 . S
O723 Mg716 1.985 . S
O723 C727 1.247 1_655 S
O724 Mg719 2.032 . S
O724 C727 1.259 . S
O725 Mg716 2.114 . S
O725 C728 1.252 . S
O726 Mg716 2.251 1_455 S
O726 Mg719 2.079 . S
O726 C728 1.273 1_455 S
C727 O723 1.247 1_455 S
C727 O724 1.259 . S
C728 O725 1.252 . S
C728 O726 1.273 1_655 S
O729 Mg716 2.010 . S
O729 C721 1.249 . S
Mg730 O731 2.028 . S
Mg730 O737 1.986 . S
Mg730 O739 2.114 . S
Mg730 O740 2.251 . S
Mg730 O743 2.010 . S
O731 Mg730 2.028 . S
O731 C734 1.250 . S
O732 Mg733 2.028 . S
O732 C734 1.248 . S
Mg733 O732 2.028 . S
Mg733 O738 2.032 . S
Mg733 O740 2.079 . S
C734 O731 1.250 . S
C734 O732 1.248 . S
C735 O736 1.264 . S
C735 O743 1.249 . S
O736 C735 1.264 . S
O737 Mg730 1.986 . S
O737 C741 1.246 . S
O738 Mg733 2.032 . S
O738 C741 1.259 . S
O739 Mg730 2.114 . S
O739 C742 1.252 . S
O740 Mg730 2.251 . S
O740 Mg733 2.079 . S
O740 C742 1.273 . S
C741 O737 1.246 . S
C741 O738 1.259 . S
C742 O739 1.252 . S
C742 O740 1.273 . S
O743 Mg730 2.010 . S
O743 C735 1.249 . S
C587 C181 1.434 . S
C595 C247 1.203 . S
C283 C615 1.416 . S
C629 C169 1.499 . S
C644 C361 1.529 . S
C658 C433 1.554 . S
C421 C672 1.583 . S
C678 C355 1.403 . S
C427 C692 1.540 . S
C713 C325 1.571 . S
C385 C693 1.255 . S
C714 C463 1.568 . S
C253 C721 1.097 . S
C145 C727 1.511 . S
C205 C720 1.416 . S
C217 C728 1.511 . S
C139 C622 1.454 . S
C535 C623 1.230 . S
C580 C565 1.477 . S
C601 C313 1.425 . S
C175 C636 1.486 . S
C686 C397 1.527 . S
C637 C349 1.119 . S
C665 C457 1.229 . S
C671 C505 1.434 . S
C571 C679 1.204 . S
C319 C643 1.416 . S
C657 C493 1.499 . S
C109 C616 1.529 . S
C630 C1 1.554 . S
C588 C61 1.583 . S
C594 C103 1.403 . S
C67 C706 1.540 . S
C73 C699 1.571 1_455 S
C133 C707 1.255 . S
C31 C700 1.568 . S
C735 C289 1.097 . S
C741 C469 1.511 . S
C734 C529 1.416 . S
C541 C742 1.511 . S
C391 C650 1.454 . S
C651 C211 1.231 . S
C664 C241 1.477 . S
C685 C277 1.427 . S
C499 C608 1.487 . S
C602 C37 1.529 . S
C97 C609 1.119 . S
C581 C25 1.228 . S
