# Generated by pormake.
# Topology anh, (6,3)-cn, num edge types: 1
# Building blocks:
#     Node 0, Type 0, BuildingBlock: BETFAJ_clean_sbu_0, # of connection points: 6
#     Node 1, Type 0, BuildingBlock: BETFAJ_clean_sbu_0, # of connection points: 6
#     Node 2, Type 0, BuildingBlock: BETFAJ_clean_sbu_0, # of connection points: 6
#     Node 3, Type 1, BuildingBlock: BELTOD_clean_linker_0, # of connection points: 3
#     Node 4, Type 1, BuildingBlock: BELTOD_clean_linker_0, # of connection points: 3
#     Node 5, Type 1, BuildingBlock: BELTOD_clean_linker_0, # of connection points: 3
#     Node 6, Type 1, BuildingBlock: BELTOD_clean_linker_0, # of connection points: 3
#     Node 7, Type 1, BuildingBlock: BELTOD_clean_linker_0, # of connection points: 3
#     Node 8, Type 1, BuildingBlock: BELTOD_clean_linker_0, # of connection points: 3
#     Edge 9, Type (0, 1), BuildingBlock: ZUJKAS_clean_linker_0, # of connection points: 2
#     Edge 10, Type (0, 1), BuildingBlock: ZUJKAS_clean_linker_0, # of connection points: 2
#     Edge 11, Type (0, 1), BuildingBlock: ZUJKAS_clean_linker_0, # of connection points: 2
#     Edge 12, Type (0, 1), BuildingBlock: ZUJKAS_clean_linker_0, # of connection points: 2
#     Edge 13, Type (0, 1), BuildingBlock: ZUJKAS_clean_linker_0, # of connection points: 2
#     Edge 14, Type (0, 1), BuildingBlock: ZUJKAS_clean_linker_0, # of connection points: 2
#     Edge 15, Type (0, 1), BuildingBlock: ZUJKAS_clean_linker_0, # of connection points: 2
#     Edge 16, Type (0, 1), BuildingBlock: ZUJKAS_clean_linker_0, # of connection points: 2
#     Edge 17, Type (0, 1), BuildingBlock: ZUJKAS_clean_linker_0, # of connection points: 2
#     Edge 18, Type (0, 1), BuildingBlock: ZUJKAS_clean_linker_0, # of connection points: 2
#     Edge 19, Type (0, 1), BuildingBlock: ZUJKAS_clean_linker_0, # of connection points: 2
#     Edge 20, Type (0, 1), BuildingBlock: ZUJKAS_clean_linker_0, # of connection points: 2
#     Edge 21, Type (0, 1), BuildingBlock: ZUJKAS_clean_linker_0, # of connection points: 2
#     Edge 22, Type (0, 1), BuildingBlock: ZUJKAS_clean_linker_0, # of connection points: 2
#     Edge 23, Type (0, 1), BuildingBlock: ZUJKAS_clean_linker_0, # of connection points: 2
#     Edge 24, Type (0, 1), BuildingBlock: ZUJKAS_clean_linker_0, # of connection points: 2
#     Edge 25, Type (0, 1), BuildingBlock: ZUJKAS_clean_linker_0, # of connection points: 2
#     Edge 26, Type (0, 1), BuildingBlock: ZUJKAS_clean_linker_0, # of connection points: 2
# Relax obj value: 0.158
# Max RMSD: 0.195
# Mean RMSD: 0.142
data_MOF--net-anh--node1-BETFAJ_clean_sbu_0--node2-BELTOD_clean_linker_0--edge1-ZUJKAS_clean_linker_0
_symmetry_space_group_name_H-M    P1
_symmetry_Int_Tables_number       1
_symmetry_cell_setting            triclinic
loop_
_symmetry_equiv_pos_as_xyz
'x, y, z'
_cell_length_a     44.675867
_cell_length_b     50.675207
_cell_length_c     76.724971
_cell_angle_alpha  92.531697
_cell_angle_beta   89.445081
_cell_angle_gamma 127.43504
loop_
_atom_site_label
_atom_site_type_symbol
_atom_site_fract_x
_atom_site_fract_y
_atom_site_fract_z
_atom_type_partial_charge
Sm0 Sm 0.0684 0.489 0.16181 0.0
Sm1 Sm 0.03053 0.52005 0.16524 0.0
C2 C 0.1136 0.47398 0.15461 0.0
C3 C 0.15336 0.4949 0.15958 0.0
C4 C 0.17983 0.50406 0.1467 0.0
C5 C 0.21793 0.52779 0.15064 0.0
C6 C 0.23013 0.5427 0.16759 0.0
C7 C 0.2034 0.53413 0.18038 0.0
C8 C 0.16522 0.51045 0.1764 0.0
C9 C 0.04965 0.49261 0.19551 0.0
C10 C 0.12054 0.57165 0.16582 0.0
C11 C 0.99387 0.5385 0.18102 0.0
C12 C 0.95313 0.51805 0.18215 0.0
C13 C 0.93668 0.50784 0.19852 0.0
C14 C 0.89782 0.48481 0.19971 0.0
C15 C 0.87497 0.47268 0.18456 0.0
C16 C 0.89179 0.48099 0.16813 0.0
C17 C 0.93059 0.50347 0.16693 0.0
C18 C 0.03199 0.50918 0.12954 0.0
C19 C 0.97855 0.43905 0.16112 0.0
O20 O 0.10506 0.48695 0.14318 0.0
O21 O 0.09004 0.46085 0.16745 0.0
O22 O 0.06463 0.51579 0.18491 0.0
O23 O 0.04375 0.46621 0.18824 0.0
O24 O 0.12037 0.54536 0.16491 0.0
O25 O 0.08914 0.56837 0.16543 0.0
O26 O 1.00815 0.52644 0.18933 0.0
O27 O 1.00817 0.54892 0.16558 0.0
O28 O 0.0452 0.50186 0.14123 0.0
O29 O 1.01592 0.52131 0.13655 0.0
O30 O 0.98092 0.46472 0.16768 0.0
O31 O 1.0084 0.44294 0.15473 0.0
H32 H 0.171 0.49306 0.13355 0.0
H33 H 0.23783 0.53321 0.14056 0.0
H34 H 0.21208 0.54507 0.19354 0.0
H35 H 0.14505 0.5046 0.18643 0.0
H36 H 0.95393 0.51768 0.21036 0.0
H37 H 0.88542 0.47847 0.2125 0.0
H38 H 0.87503 0.47235 0.15616 0.0
H39 H 0.94275 0.50968 0.15409 0.0
Sm40 Sm 0.55929 0.99473 0.48695 0.0
Sm41 Sm 0.51418 0.02436 0.48324 0.0
C42 C 0.582 0.95905 0.49449 0.0
C43 C 0.56551 0.9234 0.49364 0.0
C44 C 0.55684 0.90661 0.50914 0.0
C45 C 0.5433 0.87347 0.50867 0.0
C46 C 0.53831 0.85644 0.49268 0.0
C47 C 0.54567 0.87289 0.47712 0.0
C48 C 0.55917 0.90604 0.47758 0.0
C49 C 0.55413 0.01109 0.4542 0.0
C50 C 0.46509 0.94366 0.4826 0.0
C51 C 0.49142 0.05707 0.47072 0.0
C52 C 0.50086 0.08975 0.47566 0.0
C53 C 0.50588 0.11064 0.46268 0.0
C54 C 0.51616 0.14223 0.46721 0.0
C55 C 0.52156 0.15341 0.48483 0.0
C56 C 0.51743 0.13269 0.49778 0.0
C57 C 0.50732 0.10121 0.49323 0.0
C58 C 0.52839 0.02333 0.51825 0.0
C59 C 0.60718 0.07406 0.48878 0.0
O60 O 0.56836 0.96858 0.50615 0.0
O61 O 0.58893 0.97341 0.47966 0.0
O62 O 0.52762 0.99691 0.46494 0.0
O63 O 0.58422 0.01603 0.4604 0.0
O64 O 0.49692 0.94772 0.48545 0.0
O65 O 0.46404 0.96885 0.48039 0.0
O66 O 0.51907 0.058 0.46394 0.0
O67 O 0.4718 0.03366 0.48192 0.0
O68 O 0.53791 0.01445 0.50519 0.0
O69 O 0.51006 0.03388 0.51289 0.0
O70 O 0.5771 0.06931 0.48198 0.0
O71 O 0.60673 0.04956 0.49445 0.0
H72 H 0.56143 0.91936 0.52168 0.0
H73 H 0.53841 0.86172 0.52092 0.0
H74 H 0.5417 0.86032 0.46459 0.0
H75 H 0.56526 0.91817 0.46536 0.0
H76 H 0.50176 0.10247 0.44903 0.0
H77 H 0.51896 0.15754 0.45694 0.0
H78 H 0.52209 0.14084 0.51143 0.0
H79 H 0.50462 0.08587 0.50347 0.0
Sm80 Sm 0.59582 0.56124 0.83437 0.0
Sm81 Sm 0.54518 0.48751 0.83599 0.0
C82 C 0.62633 0.62331 0.82739 0.0
C83 C 0.61284 0.64372 0.82769 0.0
C84 C 0.58799 0.63908 0.81463 0.0
C85 C 0.57612 0.65897 0.81479 0.0
C86 C 0.58883 0.68397 0.82798 0.0
C87 C 0.61267 0.68793 0.84137 0.0
C88 C 0.6247 0.66808 0.84118 0.0
C89 C 0.58563 0.53883 0.86691 0.0
C90 C 0.50155 0.521 0.83878 0.0
C91 C 0.51414 0.42478 0.84199 0.0
C92 C 0.52427 0.40202 0.83901 0.0
C93 C 0.54482 0.39946 0.85172 0.0
C94 C 0.55297 0.37694 0.84908 0.0
C95 C 0.54039 0.35649 0.83379 0.0
C96 C 0.5205 0.35934 0.82098 0.0
C97 C 0.51255 0.38192 0.82353 0.0
C98 C 0.55572 0.50995 0.80303 0.0
C99 C 0.63971 0.52846 0.83636 0.0
O100 O 0.61183 0.59922 0.81531 0.0
O101 O 0.63043 0.61485 0.84253 0.0
O102 O 0.55981 0.52748 0.85563 0.0
O103 O 0.61822 0.56378 0.86155 0.0
O104 O 0.53482 0.54829 0.83415 0.0
O105 O 0.49863 0.49404 0.84217 0.0
O106 O 0.53386 0.4491 0.85381 0.0
O107 O 0.5062 0.43381 0.82816 0.0
O108 O 0.58159 0.52149 0.81435 0.0
O109 O 0.52368 0.48459 0.80845 0.0
O110 O 0.6058 0.50134 0.84026 0.0
O111 O 0.64339 0.55497 0.83123 0.0
H112 H 0.57792 0.62031 0.80415 0.0
H113 H 0.55725 0.655 0.80445 0.0
H114 H 0.62307 0.70712 0.85165 0.0
H115 H 0.64371 0.67211 0.85146 0.0
H116 H 0.55409 0.41444 0.86382 0.0
H117 H 0.56804 0.37476 0.85917 0.0
H118 H 0.51051 0.3436 0.80911 0.0
H119 H 0.49664 0.38318 0.81349 0.0
P120 P 0.5681 -0.00059 0.21052 0.0
H121 H 0.54669 0.95942 0.17804 0.0
H122 H 0.48599 0.90901 0.16759 0.0
H123 H 0.4303 0.9247 0.20847 0.0
H124 H 0.49074 0.97585 0.2182 0.0
H125 H 0.64921 0.0422 0.20843 0.0
H126 H 0.69531 0.09831 0.19903 0.0
H127 H 0.60553 0.10266 0.18389 0.0
H128 H 0.55889 0.04571 0.19367 0.0
H129 H 0.52942 0.95153 0.23731 0.0
H130 H 0.59023 0.05735 0.23361 0.0
O131 O 0.58866 0.98078 0.21001 0.0
H132 H 0.52013 0.95651 0.26839 0.0
H133 H 0.58125 0.06247 0.26473 0.0
C134 C 0.52338 0.97094 0.19915 0.0
C135 C 0.52124 0.95264 0.18435 0.0
C136 C 0.4865 0.92351 0.17855 0.0
C137 C 0.45329 0.91205 0.18756 0.0
C138 C 0.45518 0.9325 0.20125 0.0
C139 C 0.48993 0.96183 0.20691 0.0
C140 C 0.60059 0.0394 0.20127 0.0
C141 C 0.63923 0.0548 0.20274 0.0
C142 C 0.66567 0.08702 0.19733 0.0
C143 C 0.65418 0.10487 0.19044 0.0
C144 C 0.61528 0.08952 0.1891 0.0
C145 C 0.58863 0.05694 0.1945 0.0
C146 C 0.56058 0.00401 0.23317 0.0
C147 C 0.54059 0.9758 0.24318 0.0
C148 C 0.53509 0.97864 0.26088 0.0
C149 C 0.54992 0.00987 0.26894 0.0
C150 C 0.56972 0.03813 0.25884 0.0
C151 C 0.57483 0.03519 0.24105 0.0
P152 P 0.6051 0.55046 0.56046 0.0
H153 H 0.63837 0.53353 0.53385 0.0
H154 H 0.61837 0.48088 0.52009 0.0
H155 H 0.51243 0.43026 0.54693 0.0
H156 H 0.53383 0.48318 0.56139 0.0
H157 H 0.64244 0.61953 0.55275 0.0
H158 H 0.62045 0.64772 0.539 0.0
H159 H 0.50906 0.55439 0.5324 0.0
H160 H 0.53133 0.52586 0.54583 0.0
H161 H 0.63132 0.53383 0.58913 0.0
H162 H 0.54791 0.54951 0.58087 0.0
O163 O 0.65215 0.57529 0.56027 0.0
H164 H 0.61561 0.52545 0.61991 0.0
H165 H 0.53134 0.54034 0.61159 0.0
C166 C 0.58794 0.51202 0.54892 0.0
C167 C 0.61081 0.5111 0.53674 0.0
C168 C 0.59903 0.48092 0.52869 0.0
C169 C 0.5638 0.45112 0.53246 0.0
C170 C 0.54005 0.45256 0.54399 0.0
C171 C 0.55213 0.48279 0.55221 0.0
C172 C 0.58867 0.57056 0.55 0.0
C173 C 0.61343 0.60498 0.54815 0.0
C174 C 0.60091 0.62106 0.54033 0.0
C175 C 0.56329 0.60299 0.53459 0.0
C176 C 0.53825 0.56861 0.5367 0.0
C177 C 0.55098 0.5524 0.54428 0.0
C178 C 0.59132 0.54286 0.58282 0.0
C179 C 0.60945 0.53527 0.59395 0.0
C180 C 0.60016 0.53016 0.6115 0.0
C181 C 0.57224 0.53228 0.61821 0.0
C182 C 0.55333 0.53901 0.60686 0.0
C183 C 0.56274 0.54417 0.58926 0.0
P184 P 0.08529 0.5465 0.88126 0.0
H185 H 0.14705 0.57772 0.85554 0.0
H186 H 0.19674 0.57243 0.84883 0.0
H187 H 0.14066 0.48505 0.8791 0.0
H188 H 0.09095 0.49075 0.88589 0.0
H189 H 0.05002 0.57615 0.89365 0.0
H190 H 0.99498 0.57228 0.88618 0.0
H191 H 0.96404 0.49698 0.84598 0.0
H192 H 1.02128 0.502 0.8534 0.0
H193 H 0.13821 0.57872 0.91107 0.0
H194 H 1.02217 0.49379 0.9023 0.0
O195 O 0.11561 0.58798 0.88146 0.0
H196 H 0.13182 0.57047 0.94227 0.0
H197 H 1.0157 0.48424 0.93361 0.0
C198 C 0.11404 0.53449 0.87116 0.0
C199 C 0.14453 0.55675 0.86043 0.0
C200 C 0.1738 0.554 0.8568 0.0
C201 C 0.17407 0.52858 0.86356 0.0
C202 C 0.14228 0.50508 0.87347 0.0
C203 C 0.11316 0.50813 0.87729 0.0
C204 C 0.0408 0.53951 0.87425 0.0
C205 C 0.03162 0.55859 0.88318 0.0
C206 C 0.99928 0.55608 0.87893 0.0
C207 C 0.97354 0.53393 0.86551 0.0
C208 C 0.98265 0.5146 0.85637 0.0
C209 C 1.01561 0.51727 0.86068 0.0
C210 C 0.08054 0.53727 0.90427 0.0
C211 C 0.11132 0.55799 0.91585 0.0
C212 C 0.10765 0.55299 0.93382 0.0
C213 C 0.07312 0.5267 0.9408 0.0
C214 C 0.04258 0.50521 0.92898 0.0
C215 C 0.04628 0.51043 0.91096 0.0
P216 P 0.05237 0.49589 0.44198 0.0
H217 H 0.10919 0.52635 0.46998 0.0
H218 H 0.1557 0.58445 0.48 0.0
H219 H 0.09764 0.61177 0.45025 0.0
H220 H 0.05124 0.55338 0.43996 0.0
H221 H 1.01955 0.42627 0.44291 0.0
H222 H 0.95877 0.37734 0.45158 0.0
H223 H 0.92663 0.439 0.46887 0.0
H224 H 0.98866 0.48881 0.46009 0.0
H225 H 0.10482 0.54031 0.41606 0.0
H226 H 0.98552 0.46079 0.41809 0.0
O227 O 0.08176 0.48589 0.4416 0.0
H228 H 0.09871 0.54351 0.38476 0.0
H229 H 0.97912 0.46406 0.3868 0.0
C230 C 0.07714 0.5356 0.45395 0.0
C231 C 0.10577 0.5446 0.46594 0.0
C232 C 0.13249 0.57786 0.4716 0.0
C233 C 0.13066 0.60266 0.46563 0.0
C234 C 0.09977 0.59314 0.45501 0.0
C235 C 0.0732 0.55979 0.44916 0.0
C236 C 1.00899 0.46133 0.4511 0.0
C237 C 0.99989 0.4296 0.44885 0.0
C238 C 0.96487 0.40148 0.45365 0.0
C239 C 0.93775 0.40424 0.46073 0.0
C240 C 0.94708 0.43617 0.46349 0.0
C241 C 0.98244 0.46457 0.45852 0.0
C242 C 0.0457 0.50046 0.41945 0.0
C243 C 0.07717 0.52393 0.40981 0.0
C244 C 0.0736 0.52579 0.39191 0.0
C245 C 0.0384 0.50403 0.38323 0.0
C246 C 1.00669 0.48097 0.39304 0.0
C247 C 1.0103 0.47921 0.41099 0.0
P248 P 0.59688 0.03265 0.76 0.0
H249 H 0.63017 0.07701 0.79078 0.0
H250 H 0.6176 0.11291 0.80564 0.0
H251 H 0.51893 0.06964 0.77255 0.0
H252 H 0.53153 0.03347 0.75778 0.0
H253 H 0.63579 0.0034 0.76082 0.0
H254 H 0.62161 0.95415 0.77392 0.0
H255 H 0.51871 0.93238 0.79442 0.0
H256 H 0.53346 0.98242 0.78132 0.0
H257 H 0.60228 0.07392 0.73331 0.0
H258 H 0.55124 0.97007 0.73819 0.0
O259 O 0.64368 0.05949 0.75853 0.0
H260 H 0.58465 0.06331 0.70235 0.0
H261 H 0.53307 0.95916 0.70724 0.0
C262 C 0.58244 0.05342 0.77288 0.0
C263 C 0.60552 0.0749 0.78689 0.0
C264 C 0.59837 0.09541 0.79534 0.0
C265 C 0.56776 0.0945 0.78999 0.0
C266 C 0.5428 0.07091 0.77689 0.0
C267 C 0.55011 0.05043 0.76837 0.0
C268 C 0.58599 0.99677 0.77036 0.0
C269 C 0.61032 0.98824 0.76824 0.0
C270 C 0.60202 0.95992 0.77562 0.0
C271 C 0.56898 0.93937 0.78513 0.0
C272 C 0.54453 0.94797 0.78728 0.0
C273 C 0.55288 0.97644 0.7798 0.0
C274 C 0.57812 0.02287 0.73804 0.0
C275 C 0.58663 0.04871 0.72777 0.0
C276 C 0.5764 0.04256 0.71009 0.0
C277 C 0.55757 0.01038 0.70231 0.0
C278 C 0.54797 0.98428 0.7128 0.0
C279 C 0.55817 0.99048 0.73054 0.0
P280 P 0.47986 0.40133 0.09244 0.0
H281 H 0.50889 0.39448 0.12391 0.0
H282 H 0.57121 0.43105 0.13837 0.0
H283 H 0.61491 0.49325 0.09416 0.0
H284 H 0.55357 0.45767 0.07983 0.0
H285 H 0.40605 0.37134 0.10826 0.0
H286 H 0.38226 0.39705 0.12552 0.0
H287 H 0.49284 0.49181 0.12573 0.0
H288 H 0.5161 0.46717 0.10853 0.0
H289 H 0.50279 0.38911 0.05964 0.0
H290 H 0.46533 0.44599 0.0786 0.0
O291 O 0.45499 0.3601 0.09267 0.0
H292 H 0.52567 0.42094 0.0333 0.0
H293 H 0.48918 0.47833 0.05274 0.0
C294 C 0.5269 0.42215 0.10043 0.0
C295 C 0.53209 0.41557 0.1172 0.0
C296 C 0.56699 0.437 0.12567 0.0
C297 C 0.5968 0.46508 0.11737 0.0
C298 C 0.59165 0.47202 0.1008 0.0
C299 C 0.55686 0.45074 0.09236 0.0
C300 C 0.46279 0.41715 0.10732 0.0
C301 C 0.4252 0.3974 0.11243 0.0
C302 C 0.41181 0.41191 0.12229 0.0
C303 C 0.43612 0.44609 0.12681 0.0
C304 C 0.474 0.46531 0.12243 0.0
C305 C 0.4872 0.45102 0.11265 0.0
C306 C 0.48226 0.415 0.07104 0.0
C307 C 0.4984 0.40764 0.0579 0.0
C308 C 0.51238 0.42644 0.04314 0.0
C309 C 0.50997 0.45257 0.04133 0.0
C310 C 0.49162 0.45848 0.05397 0.0
C311 C 0.47775 0.43975 0.06872 0.0
H312 H 0.25847 0.53478 0.19625 0.0
H313 H 0.31394 0.53686 0.19482 0.0
H314 H 0.34611 0.59021 0.14748 0.0
H315 H 0.29183 0.59028 0.14953 0.0
H316 H 0.29738 0.49864 0.16405 0.0
H317 H 0.44571 0.61371 0.16476 0.0
H318 H 0.40833 0.6124 0.17514 0.0
H319 H 0.41304 0.61461 0.15186 0.0
C320 C 0.27887 0.54942 0.18634 0.0
C321 C 0.27012 0.56095 0.17245 0.0
C322 C 0.31059 0.5504 0.1855 0.0
C323 C 0.33326 0.56276 0.17078 0.0
C324 C 0.32886 0.5805 0.15894 0.0
H325 H 0.43256 0.489 0.10977 0.0
H326 H 0.40984 0.51984 0.12093 0.0
C327 C 0.29762 0.58029 0.16005 0.0
C328 C 0.35118 0.5476 0.16491 0.0
H329 H 0.43382 0.56397 0.15206 0.0
C330 C 0.32738 0.51288 0.16179 0.0
C331 C 0.38977 0.56649 0.16111 0.0
C332 C 0.41578 0.60388 0.16348 0.0
C333 C 0.34148 0.49639 0.15537 0.0
C334 C 0.3804 0.51513 0.15241 0.0
C335 C 0.40408 0.54988 0.15489 0.0
C336 C 0.39652 0.49871 0.14632 0.0
C337 C 0.31465 0.45923 0.1514 0.0
C338 C 0.39631 0.47692 0.15707 0.0
C339 C 0.40862 0.45899 0.15067 0.0
C340 C 0.42148 0.46324 0.1336 0.0
C341 C 0.42238 0.48552 0.12299 0.0
C342 C 0.40986 0.50321 0.12933 0.0
H343 H 0.28483 0.44988 0.15068 0.0
H344 H 0.32158 0.45247 0.13885 0.0
H345 H 0.31728 0.44628 0.16187 0.0
H346 H 0.38619 0.47355 0.17028 0.0
H347 H 0.40849 0.44218 0.15898 0.0
H348 H 0.65197 0.10142 0.46106 0.0
H349 H 0.70682 0.15975 0.45835 0.0
H350 H 0.69528 0.1814 0.51194 0.0
H351 H 0.64079 0.12274 0.51469 0.0
H352 H 0.70768 0.21449 0.46226 0.0
H353 H 0.80739 0.22465 0.50997 0.0
H354 H 0.76556 0.1851 0.50183 0.0
H355 H 0.7621 0.20914 0.51849 0.0
C356 C 0.66189 0.11857 0.47236 0.0
C357 C 0.64301 0.10772 0.4882 0.0
C358 C 0.69294 0.15187 0.47078 0.0
C359 C 0.70553 0.17495 0.485 0.0
C360 C 0.68671 0.16396 0.50092 0.0
H361 H 0.89663 0.38916 0.49064 0.0
H362 H 0.83718 0.33516 0.49736 0.0
C363 C 0.65568 0.13052 0.50251 0.0
C364 C 0.73721 0.21069 0.48281 0.0
H365 H 0.82679 0.27417 0.4971 0.0
C366 C 0.73368 0.22755 0.46992 0.0
C367 C 0.77105 0.22784 0.49288 0.0
C368 C 0.77706 0.21077 0.50648 0.0
C369 C 0.76315 0.26089 0.4667 0.0
C370 C 0.79733 0.27779 0.47646 0.0
C371 C 0.8005 0.26126 0.48969 0.0
C372 C 0.83124 0.31145 0.4721 0.0
C373 C 0.75743 0.27771 0.45281 0.0
C374 C 0.84742 0.31611 0.45568 0.0
C375 C 0.88113 0.34668 0.45187 0.0
C376 C 0.89966 0.37336 0.46441 0.0
C377 C 0.88287 0.36912 0.48069 0.0
C378 C 0.84907 0.33827 0.48456 0.0
H379 H 0.72702 0.26556 0.45047 0.0
H380 H 0.77212 0.30445 0.45644 0.0
H381 H 0.76912 0.27592 0.44038 0.0
H382 H 0.83462 0.29572 0.44596 0.0
H383 H 0.89322 0.34926 0.43917 0.0
H384 H 0.5669 0.70703 0.85441 0.0
H385 H 0.55234 0.74646 0.85216 0.0
H386 H 0.57582 0.75317 0.79721 0.0
H387 H 0.59044 0.71428 0.79933 0.0
H388 H 0.60071 0.81306 0.83967 0.0
H389 H 0.47052 0.73102 0.79904 0.0
H390 H 0.48985 0.71521 0.81176 0.0
H391 H 0.50903 0.73212 0.79087 0.0
C392 C 0.56886 0.71694 0.84187 0.0
C393 C 0.57928 0.70724 0.82698 0.0
C394 C 0.56045 0.7393 0.8406 0.0
C395 C 0.56223 0.75207 0.82444 0.0
C396 C 0.57324 0.74284 0.80969 0.0
H397 H 0.57341 0.89331 0.76869 0.0
H398 H 0.56591 0.84631 0.7813 0.0
C399 C 0.58155 0.72058 0.81093 0.0
C400 C 0.5541 0.7761 0.82273 0.0
H401 H 0.50267 0.79001 0.79773 0.0
C402 C 0.57868 0.80791 0.83088 0.0
C403 C 0.52522 0.76912 0.8113 0.0
C404 C 0.4969 0.7349 0.80287 0.0
C405 C 0.57706 0.83376 0.82676 0.0
C406 C 0.54978 0.82727 0.81439 0.0
C407 C 0.5236 0.79488 0.80718 0.0
C408 C 0.55134 0.85446 0.8069 0.0
C409 C 0.60614 0.86829 0.83469 0.0
C410 C 0.54475 0.87414 0.81705 0.0
C411 C 0.54917 0.90122 0.80985 0.0
C412 C 0.56035 0.90893 0.79246 0.0
C413 C 0.56541 0.88829 0.78221 0.0
C414 C 0.56091 0.86134 0.78936 0.0
H415 H 0.62827 0.86993 0.84232 0.0
H416 H 0.61989 0.88662 0.82433 0.0
H417 H 0.5921 0.87542 0.84354 0.0
H418 H 0.53684 0.8689 0.83055 0.0
H419 H 0.54512 0.91676 0.81802 0.0
H420 H 0.85059 0.49937 0.20576 0.0
H421 H 0.80327 0.50472 0.19677 0.0
H422 H 0.76461 0.42845 0.15602 0.0
H423 H 0.81306 0.42305 0.16492 0.0
H424 H 0.79893 0.49347 0.14467 0.0
H425 H 0.69167 0.45942 0.19486 0.0
H426 H 0.73938 0.48388 0.20307 0.0
H427 H 0.71747 0.44252 0.19395 0.0
C428 C 0.83049 0.48192 0.19569 0.0
C429 C 0.83608 0.46139 0.18569 0.0
C430 C 0.80347 0.48527 0.19048 0.0
C431 C 0.78104 0.46729 0.17567 0.0
C432 C 0.78217 0.44265 0.16746 0.0
H433 H 0.63571 0.44352 0.10893 0.0
H434 H 0.69409 0.46049 0.1222 0.0
C435 C 0.80947 0.43936 0.17264 0.0
C436 C 0.76288 0.47929 0.16691 0.0
H437 H 0.69601 0.49084 0.17181 0.0
C438 C 0.77642 0.49296 0.15058 0.0
C439 C 0.73495 0.47989 0.17509 0.0
C440 C 0.71979 0.46544 0.19266 0.0
C441 C 0.7607 0.50533 0.14162 0.0
C442 C 0.73058 0.5034 0.14919 0.0
C443 C 0.71947 0.49254 0.16618 0.0
C444 C 0.70271 0.50118 0.13813 0.0
C445 C 0.77446 0.5181 0.12363 0.0
C446 C 0.68807 0.51835 0.14282 0.0
C447 C 0.65383 0.50794 0.13544 0.0
C448 C 0.63482 0.48055 0.12347 0.0
C449 C 0.65066 0.46498 0.11805 0.0
C450 C 0.68429 0.47508 0.12539 0.0
H451 H 0.80508 0.53031 0.12263 0.0
H452 H 0.75953 0.49688 0.11384 0.0
H453 H 0.76909 0.53602 0.12029 0.0
H454 H 0.70175 0.53808 0.15294 0.0
H455 H 0.64141 0.51996 0.13965 0.0
H456 H 0.39397 0.92276 0.49042 0.0
H457 H 0.33567 0.86543 0.48975 0.0
H458 H 0.39726 0.82994 0.47084 0.0
H459 H 0.45566 0.88681 0.47236 0.0
H460 H 0.29739 0.82056 0.46425 0.0
H461 H 0.34379 0.76935 0.50949 0.0
H462 H 0.37088 0.8134 0.50661 0.0
H463 H 0.37459 0.78743 0.49138 0.0
C464 C 0.39502 0.90266 0.48619 0.0
C465 C 0.42943 0.90925 0.48158 0.0
C466 C 0.3617 0.86989 0.48584 0.0
C467 C 0.36205 0.8431 0.48066 0.0
C468 C 0.3963 0.84988 0.47552 0.0
H469 H 0.20414 0.632 0.45901 0.0
H470 H 0.25813 0.69064 0.46321 0.0
C471 C 0.42968 0.8825 0.47624 0.0
C472 C 0.3265 0.80823 0.48004 0.0
H473 H 0.28823 0.72962 0.49224 0.0
C474 C 0.29525 0.80074 0.47054 0.0
C475 C 0.3235 0.78226 0.4883 0.0
C476 C 0.35487 0.78858 0.49966 0.0
C477 C 0.26181 0.76796 0.46843 0.0
C478 C 0.25926 0.74187 0.47626 0.0
C479 C 0.29017 0.7495 0.48613 0.0
C480 C 0.22572 0.70626 0.47371 0.0
C481 C 0.23015 0.76151 0.45728 0.0
C482 C 0.18932 0.69524 0.47829 0.0
C483 C 0.15819 0.66162 0.47564 0.0
C484 C 0.16311 0.63833 0.4688 0.0
C485 C 0.19959 0.64933 0.46451 0.0
C486 C 0.23046 0.68287 0.46688 0.0
H487 H 0.24009 0.78236 0.44868 0.0
H488 H 0.21672 0.73826 0.44901 0.0
H489 H 0.20838 0.75879 0.46586 0.0
H490 H 0.18497 0.71254 0.48402 0.0
H491 H 0.13041 0.65373 0.47915 0.0
H492 H 0.60426 0.36297 0.82595 0.0
H493 H 0.60927 0.31756 0.82016 0.0
H494 H 0.49145 0.24575 0.83158 0.0
H495 H 0.48631 0.29089 0.8369 0.0
H496 H 0.59257 0.2654 0.84146 0.0
H497 H 0.49972 0.21636 0.78227 0.0
H498 H 0.52054 0.25719 0.79216 0.0
H499 H 0.47956 0.22094 0.80142 0.0
C500 C 0.57966 0.33744 0.8273 0.0
C501 C 0.54485 0.33008 0.83172 0.0
C502 C 0.58248 0.31163 0.82401 0.0
C503 C 0.55053 0.27833 0.82515 0.0
C504 C 0.51618 0.27123 0.83026 0.0
H505 H 0.50466 0.08667 0.80176 0.0
H506 H 0.50007 0.13087 0.81176 0.0
C507 C 0.5133 0.2969 0.83338 0.0
C508 C 0.5526 0.25081 0.82064 0.0
H509 H 0.51651 0.18343 0.79247 0.0
C510 C 0.57608 0.24751 0.83072 0.0
C511 C 0.53093 0.22753 0.80664 0.0
C512 C 0.50651 0.23074 0.79488 0.0
C513 C 0.57801 0.22114 0.82734 0.0
C514 C 0.55633 0.19787 0.81333 0.0
C515 C 0.53281 0.20115 0.80329 0.0
C516 C 0.55919 0.17098 0.80823 0.0
C517 C 0.60277 0.21811 0.83894 0.0
C518 C 0.59376 0.17901 0.80281 0.0
C519 C 0.59643 0.15398 0.79723 0.0
C520 C 0.56448 0.12042 0.79677 0.0
C521 C 0.5297 0.11235 0.80204 0.0
C522 C 0.5271 0.13749 0.80777 0.0
H523 H 0.60878 0.23174 0.85174 0.0
H524 H 0.58948 0.19164 0.84124 0.0
H525 H 0.63009 0.22897 0.83251 0.0
H526 H 0.61857 0.20472 0.80253 0.0
H527 H 0.62338 0.16097 0.79281 0.0
H528 H 0.56938 0.83361 0.4724 0.0
H529 H 0.56285 0.78266 0.47541 0.0
H530 H 0.48268 0.75369 0.51625 0.0
H531 H 0.48788 0.80409 0.51285 0.0
H532 H 0.58385 0.77267 0.50626 0.0
H533 H 0.43618 0.66565 0.48871 0.0
H534 H 0.45696 0.70747 0.48254 0.0
H535 H 0.44033 0.69526 0.50431 0.0
C536 C 0.54927 0.81586 0.48158 0.0
C537 C 0.52931 0.82301 0.49247 0.0
C538 C 0.54576 0.78683 0.48334 0.0
C539 C 0.52218 0.76437 0.49598 0.0
C540 C 0.50058 0.77044 0.50622 0.0
H541 H 0.51239 0.61106 0.54749 0.0
H542 H 0.49937 0.64831 0.53684 0.0
C543 C 0.50396 0.79946 0.50442 0.0
C544 C 0.52446 0.73742 0.50011 0.0
H545 H 0.47279 0.65349 0.50382 0.0
C546 C 0.55965 0.74658 0.50553 0.0
C547 C 0.4927 0.7035 0.49939 0.0
C548 C 0.45446 0.69228 0.49328 0.0
C549 C 0.56394 0.72279 0.51046 0.0
C550 C 0.53227 0.68885 0.50964 0.0
C551 C 0.49699 0.67957 0.5043 0.0
C552 C 0.5356 0.66292 0.51458 0.0
C553 C 0.60215 0.73431 0.51695 0.0
C554 C 0.55922 0.65815 0.50522 0.0
C555 C 0.56698 0.63738 0.51138 0.0
C556 C 0.55058 0.62064 0.52676 0.0
C557 C 0.52504 0.62368 0.53552 0.0
C558 C 0.51765 0.64485 0.52947 0.0
H559 H 0.62095 0.76135 0.52066 0.0
H560 H 0.59941 0.72041 0.52842 0.0
H561 H 0.61593 0.7297 0.50645 0.0
H562 H 0.57282 0.67153 0.49355 0.0
H563 H 0.58664 0.63513 0.50446 0.0
H564 H 0.68965 0.53485 0.81173 0.0
H565 H 0.74335 0.53367 0.81586 0.0
H566 H 0.72455 0.5268 0.87125 0.0
H567 H 0.66905 0.52481 0.86676 0.0
H568 H 0.80705 0.56587 0.82802 0.0
H569 H 0.73775 0.45927 0.87026 0.0
H570 H 0.71156 0.47093 0.86006 0.0
H571 H 0.73719 0.49138 0.88042 0.0
C572 C 0.6967 0.53264 0.82477 0.0
C573 C 0.67424 0.52943 0.83884 0.0
C574 C 0.72786 0.53206 0.82722 0.0
C575 C 0.73856 0.52894 0.84391 0.0
C576 C 0.71685 0.52732 0.85803 0.0
H577 H 0.93132 0.54382 0.88805 0.0
H578 H 0.87741 0.54313 0.88195 0.0
C579 C 0.685 0.52675 0.8555 0.0
C580 C 0.77248 0.52825 0.84649 0.0
H581 H 0.80474 0.49263 0.86956 0.0
C582 C 0.8059 0.54937 0.83699 0.0
C583 C 0.77254 0.50689 0.85807 0.0
C584 C 0.73769 0.48063 0.86761 0.0
C585 C 0.83835 0.55035 0.83899 0.0
C586 C 0.83867 0.52988 0.851 0.0
C587 C 0.80542 0.50872 0.86044 0.0
C588 C 0.8731 0.53053 0.85436 0.0
C589 C 0.87262 0.57411 0.82843 0.0
C590 C 0.88973 0.52327 0.8411 0.0
C591 C 0.92136 0.52371 0.84458 0.0
C592 C 0.93808 0.53164 0.8615 0.0
C593 C 0.92078 0.53834 0.87473 0.0
C594 C 0.88919 0.53769 0.87126 0.0
H595 H 0.87133 0.59318 0.8227 0.0
H596 H 0.89876 0.5869 0.83657 0.0
H597 H 0.87438 0.55996 0.81756 0.0
H598 H 0.87804 0.51687 0.82795 0.0
H599 H 0.93307 0.51834 0.83385 0.0
H600 H 0.12687 0.62698 0.17566 0.0
H601 H 0.18349 0.68398 0.17935 0.0
H602 H 0.25171 0.65241 0.16625 0.0
H603 H 0.19441 0.59436 0.16243 0.0
H604 H 0.24703 0.71197 0.2019 0.0
H605 H 0.28316 0.72647 0.13169 0.0
H606 H 0.23708 0.69329 0.13927 0.0
H607 H 0.2755 0.69108 0.14126 0.0
C608 C 0.15379 0.63189 0.17345 0.0
C609 C 0.156 0.606 0.16845 0.0
C610 C 0.1862 0.66463 0.17569 0.0
C611 C 0.22172 0.67251 0.17287 0.0
C612 C 0.22439 0.64682 0.16825 0.0
H613 H 0.44734 0.85588 0.17957 0.0
H614 H 0.3903 0.79872 0.17579 0.0
C615 C 0.19173 0.61371 0.16611 0.0
C616 C 0.25558 0.70783 0.17455 0.0
H617 H 0.32618 0.77185 0.15114 0.0
C618 C 0.26441 0.72509 0.19083 0.0
C619 C 0.27766 0.725 0.16 0.0
C620 C 0.26786 0.70823 0.142 0.0
C621 C 0.29543 0.75888 0.19302 0.0
C622 C 0.31794 0.77583 0.17852 0.0
C623 C 0.30888 0.75869 0.16223 0.0
C624 C 0.35211 0.81097 0.18019 0.0
C625 C 0.30447 0.7761 0.21087 0.0
C626 C 0.34949 0.83694 0.18359 0.0
C627 C 0.38219 0.86995 0.1855 0.0
C628 C 0.4181 0.87752 0.18405 0.0
C629 C 0.42033 0.85128 0.18038 0.0
C630 C 0.38772 0.81845 0.17838 0.0
H631 H 0.28771 0.75829 0.2212 0.0
H632 H 0.33492 0.79015 0.21413 0.0
H633 H 0.29821 0.79421 0.21089 0.0
H634 H 0.32217 0.83167 0.18481 0.0
H635 H 0.37933 0.88947 0.18816 0.0
H636 H 0.49091 0.16687 0.51134 0.0
H637 H 0.50032 0.21898 0.51829 0.0
H638 H 0.57862 0.26513 0.47631 0.0
H639 H 0.56986 0.21307 0.46937 0.0
H640 H 0.57239 0.28654 0.52576 0.0
H641 H 0.49305 0.27522 0.46667 0.0
H642 H 0.48814 0.23997 0.47495 0.0
H643 H 0.52988 0.27086 0.46367 0.0
C644 C 0.51062 0.18822 0.50375 0.0
C645 C 0.52947 0.18579 0.48973 0.0
C646 C 0.51578 0.21789 0.50769 0.0
C647 C 0.5397 0.24558 0.49765 0.0
C648 C 0.55954 0.24373 0.484 0.0
H649 H 0.57884 0.43599 0.50028 0.0
H650 H 0.57278 0.38603 0.49145 0.0
C651 C 0.55445 0.21402 0.48005 0.0
C652 C 0.54302 0.27609 0.50135 0.0
H653 H 0.51663 0.32153 0.48603 0.0
C654 C 0.56037 0.29435 0.51708 0.0
C655 C 0.52749 0.28614 0.48988 0.0
C656 C 0.50836 0.26704 0.47286 0.0
C657 C 0.56263 0.32259 0.5217 0.0
C658 C 0.54583 0.33201 0.51055 0.0
C659 C 0.52909 0.31404 0.49463 0.0
C660 C 0.54583 0.36069 0.51513 0.0
C661 C 0.58367 0.34235 0.53834 0.0
C662 C 0.53104 0.36237 0.53099 0.0
C663 C 0.53534 0.3912 0.53629 0.0
C664 C 0.55373 0.41867 0.52562 0.0
C665 C 0.56559 0.41574 0.50906 0.0
C666 C 0.56185 0.38707 0.50391 0.0
H667 H 0.60429 0.33817 0.54231 0.0
H668 H 0.59901 0.36942 0.53689 0.0
H669 H 0.56329 0.33429 0.54902 0.0
H670 H 0.51737 0.3418 0.53958 0.0
H671 H 0.52587 0.39244 0.54913 0.0
H672 H 0.49863 0.57446 0.84022 0.0
H673 H 0.44423 0.5746 0.84444 0.0
H674 H 0.37113 0.46761 0.84501 0.0
H675 H 0.42569 0.46764 0.8418 0.0
H676 H 0.38537 0.55652 0.82836 0.0
H677 H 0.3262 0.4781 0.88538 0.0
H678 H 0.3713 0.49258 0.8769 0.0
H679 H 0.32826 0.45647 0.86691 0.0
C680 C 0.47105 0.55087 0.84141 0.0
C681 C 0.46738 0.52107 0.84084 0.0
C682 C 0.43947 0.55092 0.84382 0.0
C683 C 0.40247 0.52119 0.84567 0.0
C684 C 0.39875 0.49132 0.84451 0.0
H685 H 0.17522 0.47373 0.86038 0.0
H686 H 0.22868 0.47241 0.85576 0.0
C687 C 0.4304 0.49129 0.84241 0.0
C688 C 0.36835 0.52164 0.84831 0.0
H689 H 0.28788 0.48965 0.87215 0.0
C690 C 0.36438 0.54195 0.83809 0.0
C691 C 0.33976 0.50272 0.86084 0.0
C692 C 0.34172 0.48151 0.87324 0.0
C693 C 0.33355 0.54346 0.8397 0.0
C694 C 0.30507 0.52467 0.85228 0.0
C695 C 0.30892 0.50423 0.86244 0.0
C696 C 0.27144 0.52574 0.85514 0.0
C697 C 0.3315 0.56459 0.82728 0.0
C698 C 0.27609 0.55598 0.8568 0.0
C699 C 0.24507 0.55679 0.85933 0.0
C700 C 0.2076 0.5274 0.86069 0.0
C701 C 0.20306 0.49715 0.8595 0.0
C702 C 0.23411 0.49636 0.85678 0.0
H703 H 0.34661 0.56762 0.81505 0.0
H704 H 0.30189 0.55371 0.82381 0.0
H705 H 0.34537 0.58978 0.8335 0.0
H706 H 0.30404 0.57941 0.85644 0.0
H707 H 0.25084 0.58085 0.86061 0.0
H708 H 0.96636 0.37939 0.15563 0.0
H709 H 0.90834 0.32375 0.16041 0.0
H710 H 0.85211 0.36618 0.17561 0.0
H711 H 0.90986 0.42191 0.17081 0.0
H712 H 0.8672 0.30021 0.19219 0.0
H713 H 0.78097 0.2932 0.13776 0.0
H714 H 0.83174 0.32303 0.13883 0.0
H715 H 0.80343 0.32961 0.15223 0.0
C716 C 0.94152 0.3769 0.15973 0.0
C717 C 0.94269 0.40512 0.16263 0.0
C718 C 0.90845 0.34508 0.16258 0.0
C719 C 0.87581 0.34081 0.16817 0.0
C720 C 0.8768 0.36887 0.17102 0.0
H721 H 0.65594 0.15971 0.19677 0.0
H722 H 0.70822 0.21794 0.19134 0.0
C723 C 0.90989 0.40072 0.16828 0.0
C724 C 0.84096 0.30699 0.1713 0.0
H725 H 0.75008 0.24844 0.15667 0.0
C726 C 0.8416 0.28891 0.18444 0.0
C727 C 0.80752 0.29238 0.16123 0.0
C728 C 0.80571 0.31036 0.14662 0.0
C729 C 0.8097 0.25653 0.18772 0.0
C730 C 0.77653 0.24174 0.17745 0.0
C731 C 0.77559 0.25997 0.16453 0.0
C732 C 0.74345 0.20661 0.17935 0.0
C733 C 0.81157 0.23822 0.20213 0.0
C734 C 0.74558 0.18107 0.17386 0.0
C735 C 0.71581 0.14797 0.17676 0.0
C736 C 0.68328 0.13966 0.18531 0.0
C737 C 0.68049 0.16523 0.19008 0.0
C738 C 0.71038 0.19849 0.18709 0.0
H739 H 0.83644 0.25514 0.21096 0.0
H740 H 0.7856 0.22552 0.20996 0.0
H741 H 0.81352 0.21888 0.19632 0.0
H742 H 0.77067 0.18685 0.16763 0.0
H743 H 0.71859 0.12885 0.1726 0.0
H744 H 0.98244 0.49523 0.10362 0.0
H745 H 0.9905 0.49503 0.07204 0.0
H746 H 0.10116 0.5212 0.08039 0.0
H747 H 0.09168 0.51882 0.11201 0.0
H748 H 0.03455 0.54165 0.05248 0.0
H749 H 0.07028 0.45488 0.04252 0.0
H750 H 0.05362 0.45935 0.0631 0.0
H751 H 0.10232 0.48918 0.0574 0.0
C752 C 1.00816 0.50024 0.09869 0.0
C753 C 0.03621 0.50667 0.11033 0.0
C754 C 1.01291 0.5003 0.08056 0.0
C755 C 0.0463 0.50765 0.07346 0.0
C756 C 0.07451 0.51423 0.08519 0.0
H757 H 0.1264 0.54019 0.9654 0.0
H758 H 0.12072 0.53661 0.99704 0.0
C759 C 0.06922 0.51313 0.10337 0.0
C760 C 0.05197 0.5104 0.05398 0.0
H761 H 0.07776 0.48572 0.01825 0.0
C762 C 0.04369 0.52908 0.04507 0.0
C763 C 0.06454 0.49462 0.04401 0.0
C764 C 0.07286 0.47315 0.05222 0.0
C765 C 0.04737 0.53232 0.02686 0.0
C766 C 0.05927 0.5161 0.01689 0.0
C767 C 0.06839 0.49803 0.02575 0.0
C768 C 0.06235 0.51762 0.99734 0.0
C769 C 0.03917 0.55382 0.01855 0.0
C770 C 0.03133 0.5076 0.98664 0.0
C771 C 0.03464 0.51019 0.96844 0.0
C772 C 0.06899 0.52242 0.96027 0.0
C773 C 0.09966 0.53139 0.97102 0.0
C774 C 0.09637 0.52903 0.98923 0.0
H775 H 0.0418 0.57219 0.02818 0.0
H776 H 0.05848 0.56748 0.00766 0.0
H777 H 1.00978 0.53782 0.01329 0.0
H778 H 1.0044 0.49786 0.99238 0.0
H779 H 1.01032 0.50319 0.96086 0.0
H780 H 0.60999 0.04615 0.43117 0.0
H781 H 0.60364 0.04838 0.39979 0.0
H782 H 0.48278 0.98825 0.40413 0.0
H783 H 0.48902 0.98629 0.43576 0.0
H784 H 0.56198 0.989 0.37809 0.0
H785 H 0.50978 0.06392 0.37191 0.0
H786 H 0.53372 0.06607 0.3914 0.0
H787 H 0.4857 0.03078 0.38685 0.0
C788 C 0.58209 0.03384 0.42549 0.0
C789 C 0.54997 0.01579 0.43581 0.0
C790 C 0.57852 0.03517 0.40758 0.0
C791 C 0.54279 0.01854 0.39967 0.0
C792 C 0.51064 0.00162 0.41004 0.0
H793 H 0.48651 0.97169 0.28825 0.0
H794 H 0.48198 0.97369 0.32014 0.0
C795 C 0.51422 0.00042 0.42806 0.0
C796 C 0.53949 0.0164 0.3804 0.0
H797 H 0.51619 0.04131 0.34579 0.0
C798 C 0.55184 0.00034 0.37104 0.0
C799 C 0.52609 0.0311 0.37128 0.0
C800 C 0.51324 0.04917 0.3808 0.0
C801 C 0.55166 -0.00102 0.35277 0.0
C802 C 0.53906 0.01427 0.34366 0.0
C803 C 0.52588 0.0297 0.35293 0.0
C804 C 0.54077 0.0152 0.32448 0.0
C805 C 0.56534 0.98157 0.34323 0.0
C806 C 0.57522 0.03822 0.31652 0.0
C807 C 0.57788 0.03721 0.29838 0.0
C808 C 0.54616 0.01296 0.28797 0.0
C809 C 0.51143 0.99047 0.296 0.0
C810 C 0.50874 0.99168 0.31414 0.0
H811 H 0.56973 0.9674 0.35211 0.0
H812 H 0.54479 0.9642 0.33276 0.0
H813 H 0.59248 0.00029 0.33696 0.0
H814 H 0.60024 0.05638 0.32438 0.0
H815 H 0.60506 0.05458 0.29256 0.0
H816 H 0.55348 0.5551 0.78683 0.0
H817 H 0.55496 0.56172 0.75516 0.0
H818 H 0.57283 0.48755 0.7465 0.0
H819 H 0.57108 0.48083 0.77808 0.0
H820 H 0.61071 0.57653 0.72916 0.0
H821 H 0.47399 0.45091 0.71889 0.0
H822 H 0.4905 0.47225 0.7401 0.0
H823 H 0.509 0.45179 0.73083 0.0
C824 C 0.55838 0.54075 0.77809 0.0
C825 C 0.56229 0.51757 0.78463 0.0
C826 C 0.55913 0.54444 0.7601 0.0
C827 C 0.56335 0.52469 0.74856 0.0
C828 C 0.56895 0.5026 0.75523 0.0
H829 H 0.5665 0.4876 0.63948 0.0
H830 H 0.56189 0.48691 0.67122 0.0
C831 C 0.56823 0.49894 0.77318 0.0
C832 C 0.56031 0.52598 0.72953 0.0
H833 H 0.50799 0.47814 0.69347 0.0
C834 C 0.58812 0.55521 0.72132 0.0
C835 C 0.5306 0.49809 0.71945 0.0
C836 C 0.49909 0.46655 0.72774 0.0
C837 C 0.58797 0.55679 0.70311 0.0
C838 C 0.55873 0.52857 0.69298 0.0
C839 C 0.53035 0.49969 0.70128 0.0
C840 C 0.55851 0.52773 0.67369 0.0
C841 C 0.61995 0.58812 0.69483 0.0
C842 C 0.55684 0.55019 0.66454 0.0
C843 C 0.55992 0.55091 0.6464 0.0
C844 C 0.5644 0.52897 0.63713 0.0
C845 C 0.56391 0.5053 0.64629 0.0
C846 C 0.56103 0.50472 0.6644 0.0
H847 H 0.64425 0.60448 0.70404 0.0
H848 H 0.62988 0.58209 0.68309 0.0
H849 H 0.60993 0.6023 0.69069 0.0
H850 H 0.554 0.56763 0.67147 0.0
H851 H 0.56025 0.56948 0.63973 0.0
H852 H 0.5622 0.99788 0.5319 0.0
H853 H 0.56555 0.98825 0.56271 0.0
H854 H 0.50907 0.03082 0.57708 0.0
H855 H 0.50514 0.0399 0.54646 0.0
H856 H 0.59872 0.03558 0.5921 0.0
H857 H 0.445 0.93919 0.59936 0.0
H858 H 0.4672 0.95043 0.57837 0.0
H859 H 0.45691 0.97593 0.58955 0.0
C860 C 0.5504 0.005 0.54163 0.0
C861 C 0.53295 0.01918 0.53676 0.0
C862 C 0.55238 -0.00043 0.55921 0.0
C863 C 0.53681 0.00817 0.57212 0.0
C864 C 0.52043 0.02325 0.56729 0.0
H865 H 0.53144 0.03529 0.68155 0.0
H866 H 0.52559 0.0306 0.64966 0.0
C867 C 0.51843 0.02862 0.54979 0.0
C868 C 0.53807 0.00219 0.59075 0.0
H869 H 0.48165 0.96512 0.62582 0.0
C870 C 0.5732 0.01972 0.59944 0.0
C871 C 0.50468 0.98132 0.60025 0.0
C872 C 0.46629 0.96036 0.5914 0.0
C873 C 0.5757 0.01835 0.61758 0.0
C874 C 0.54226 -0.00116 0.62716 0.0
C875 C 0.5072 0.98023 0.6184 0.0
C876 C 0.54326 -0.00065 0.64644 0.0
C877 C 0.61394 0.03888 0.62657 0.0
C878 C 0.55437 0.98271 0.65512 0.0
C879 C 0.55774 0.98533 0.67334 0.0
C880 C 0.55019 0.00475 0.68315 0.0
C881 C 0.53789 0.02049 0.67437 0.0
C882 C 0.53436 0.01771 0.65618 0.0
H883 H 0.63714 0.05469 0.61742 0.0
H884 H 0.61513 0.05511 0.6372 0.0
H885 H 0.61868 0.02215 0.63259 0.0
H886 H 0.56118 0.9683 0.64777 0.0
H887 H 0.56759 0.97315 0.67968 0.0
H888 H 0.5187 0.50131 0.88315 0.0
H889 H 0.50932 0.48807 0.91395 0.0
H890 H 0.62787 0.53439 0.92036 0.0
H891 H 0.63766 0.54866 0.88969 0.0
H892 H 0.52567 0.45469 0.93571 0.0
H893 H 0.61014 0.59019 0.95307 0.0
H894 H 0.59289 0.57295 0.93117 0.0
H895 H 0.63384 0.57847 0.93962 0.0
C896 C 0.54261 0.50831 0.89113 0.0
C897 C 0.57907 0.5268 0.88442 0.0
C898 C 0.53721 0.50066 0.90861 0.0
C899 C 0.56817 0.51117 0.91933 0.0
C900 C 0.60398 0.527 0.91224 0.0
H901 H 0.57862 0.48045 0.02696 0.0
H902 H 0.59701 0.50179 0.99764 0.0
C903 C 0.60951 0.53512 0.89484 0.0
C904 C 0.56358 0.5082 0.93819 0.0
H905 H 0.58975 0.55432 0.97656 0.0
C906 C 0.53966 0.47638 0.94467 0.0
C907 C 0.58157 0.53679 0.94964 0.0
C908 C 0.60578 0.57156 0.94306 0.0
C909 C 0.53373 0.47234 0.96255 0.0
C910 C 0.5522 0.50089 0.97398 0.0
C911 C 0.57599 0.53271 0.96756 0.0
C912 C 0.54657 0.49746 0.99272 0.0
C913 C 0.50777 0.43769 0.96921 0.0
C914 C 0.51323 0.48988 -0.00037 0.0
C915 C 0.50253 0.47746 0.01619 0.0
C916 C 0.52512 0.47248 0.02582 0.0
C917 C 0.5604 0.48337 0.01951 0.0
C918 C 0.57109 0.49583 0.00295 0.0
H919 H 0.49829 0.41814 0.95872 0.0
H920 H 0.52214 0.43457 0.97973 0.0
H921 H 0.48251 0.43387 0.97487 0.0
H922 H 0.49418 0.49109 0.99172 0.0
H923 H 0.47529 0.46934 0.02084 0.0
H924 H 1.01827 0.4441 0.21884 0.0
H925 H 1.01364 0.44896 0.25036 0.0
H926 H 0.06604 0.55338 0.24714 0.0
H927 H 0.0705 0.54856 0.21531 0.0
H928 H 0.07322 0.48802 0.27356 0.0
H929 H 0.97596 0.52173 0.27855 0.0
H930 H 0.98118 0.50476 0.25858 0.0
H931 H 1.01629 0.54774 0.26519 0.0
C932 C 0.02854 0.4681 0.22477 0.0
C933 C 0.04491 0.49598 0.21453 0.0
C934 C 1.02585 0.47082 0.24284 0.0
C935 C 0.03924 0.50145 0.25121 0.0
C936 C 0.05493 0.52933 0.241 0.0
H937 H 0.07194 0.55819 0.36291 0.0
H938 H 0.07134 0.55855 0.33095 0.0
C939 C 0.05766 0.5266 0.22281 0.0
C940 C 0.03877 0.50415 0.27068 0.0
H941 H 1.00292 0.52171 0.30501 0.0
C942 C 0.0578 0.49538 0.28039 0.0
C943 C 1.01872 0.5138 0.27968 0.0
C944 C 0.99657 0.5223 0.27002 0.0
C945 C 0.05731 0.49594 0.29872 0.0
C946 C 0.03699 0.50523 0.30768 0.0
C947 C 1.01841 0.51453 0.29808 0.0
C948 C 0.03468 0.50499 0.32703 0.0
C949 C 0.07873 0.48675 0.30847 0.0
C950 C 1.0137 0.47475 0.33542 0.0
C951 C 1.01397 0.47444 0.35366 0.0
C952 C 0.0354 0.50441 0.3639 0.0
C953 C 0.05551 0.53468 0.35542 0.0
C954 C 0.05501 0.53494 0.33717 0.0
H955 H 0.09812 0.48561 0.29989 0.0
H956 H 0.09535 0.505 0.31952 0.0
H957 H 0.05843 0.46197 0.31397 0.0
H958 H 0.99774 0.45134 0.32783 0.0
H959 H 0.99846 0.4507 0.35972 0.0
loop_
_geom_bond_atom_site_label_1
_geom_bond_atom_site_label_2
_geom_bond_distance
_geom_bond_site_symmetry_2
_ccdc_geom_bond_type
Sm0 C2 2.846 . S
Sm0 O20 2.543 . S
Sm0 O21 2.450 . S
Sm0 O22 2.681 . S
Sm0 O23 2.464 . S
Sm0 O24 2.396 . S
Sm0 O28 2.386 . S
Sm0 O31 2.408 1_455 S
Sm1 C11 2.846 . S
Sm1 O22 2.386 1_655 S
Sm1 O25 2.408 1_655 S
Sm1 O26 2.543 . S
Sm1 O27 2.450 . S
Sm1 O28 2.681 1_655 S
Sm1 O29 2.464 1_655 S
Sm1 O30 2.396 . S
C2 Sm0 2.846 . S
C2 C3 1.506 . S
C2 O20 1.261 . S
C2 O21 1.242 . S
C3 C2 1.506 . S
C3 C4 1.358 . S
C3 C8 1.382 . S
C4 C3 1.358 . S
C4 C5 1.385 . S
C4 H32 0.930 . S
C5 C4 1.385 . S
C5 C6 1.395 . S
C5 H33 0.929 . S
C6 C5 1.395 . S
C6 C7 1.335 . S
C7 C6 1.335 . S
C7 C8 1.398 . S
C7 H34 0.930 . S
C8 C3 1.382 . S
C8 C7 1.398 . S
C8 H35 0.929 . S
C9 O22 1.271 . S
C9 O23 1.251 . S
C10 O24 1.252 . S
C10 O25 1.272 . S
C11 Sm1 2.846 . S
C11 C12 1.506 . S
C11 O26 1.261 . S
C11 O27 1.242 . S
C12 C11 1.506 . S
C12 C13 1.358 . S
C12 C17 1.382 . S
C13 C12 1.358 . S
C13 C14 1.385 . S
C13 H36 0.930 . S
C14 C13 1.385 . S
C14 C15 1.395 . S
C14 H37 0.929 . S
C15 C14 1.395 . S
C15 C16 1.335 . S
C16 C15 1.335 . S
C16 C17 1.398 . S
C16 H38 0.930 . S
C17 C12 1.382 . S
C17 C16 1.398 . S
C17 H39 0.929 . S
C18 O28 1.271 . S
C18 O29 1.251 . S
C19 O30 1.252 . S
C19 O31 1.272 . S
O20 Sm0 2.543 . S
O20 C2 1.261 . S
O21 Sm0 2.450 . S
O21 C2 1.242 . S
O22 Sm0 2.681 . S
O22 Sm1 2.386 1_455 S
O22 C9 1.271 . S
O23 Sm0 2.464 . S
O23 C9 1.251 . S
O24 Sm0 2.396 . S
O24 C10 1.252 . S
O25 Sm1 2.408 1_455 S
O25 C10 1.272 . S
O26 Sm1 2.543 . S
O26 C11 1.261 . S
O27 Sm1 2.450 . S
O27 C11 1.242 . S
O28 Sm0 2.386 . S
O28 Sm1 2.681 1_455 S
O28 C18 1.271 . S
O29 Sm1 2.464 1_455 S
O29 C18 1.251 . S
O30 Sm1 2.396 . S
O30 C19 1.252 . S
O31 Sm0 2.408 1_655 S
O31 C19 1.272 . S
H32 C4 0.930 . S
H33 C5 0.929 . S
H34 C7 0.930 . S
H35 C8 0.929 . S
H36 C13 0.930 . S
H37 C14 0.929 . S
H38 C16 0.930 . S
H39 C17 0.929 . S
Sm40 C42 2.846 . S
Sm40 O60 2.543 . S
Sm40 O61 2.450 . S
Sm40 O62 2.681 1_565 S
Sm40 O63 2.464 . S
Sm40 O64 2.396 . S
Sm40 O68 2.386 1_565 S
Sm40 O71 2.408 1_565 S
Sm41 C51 2.846 . S
Sm41 O62 2.386 . S
Sm41 O65 2.408 1_545 S
Sm41 O66 2.543 . S
Sm41 O67 2.450 . S
Sm41 O68 2.681 . S
Sm41 O69 2.464 . S
Sm41 O70 2.396 . S
C42 Sm40 2.846 . S
C42 C43 1.506 . S
C42 O60 1.261 . S
C42 O61 1.242 . S
C43 C42 1.506 . S
C43 C44 1.358 . S
C43 C48 1.382 . S
C44 C43 1.358 . S
C44 C45 1.385 . S
C44 H72 0.930 . S
C45 C44 1.385 . S
C45 C46 1.395 . S
C45 H73 0.929 . S
C46 C45 1.395 . S
C46 C47 1.335 . S
C47 C46 1.335 . S
C47 C48 1.398 . S
C47 H74 0.930 . S
C48 C43 1.382 . S
C48 C47 1.398 . S
C48 H75 0.929 . S
C49 O62 1.271 . S
C49 O63 1.251 1_545 S
C50 O64 1.252 . S
C50 O65 1.272 . S
C51 Sm41 2.846 . S
C51 C52 1.506 . S
C51 O66 1.261 . S
C51 O67 1.242 . S
C52 C51 1.506 . S
C52 C53 1.358 . S
C52 C57 1.382 . S
C53 C52 1.358 . S
C53 C54 1.385 . S
C53 H76 0.930 . S
C54 C53 1.385 . S
C54 C55 1.395 . S
C54 H77 0.929 . S
C55 C54 1.395 . S
C55 C56 1.335 . S
C56 C55 1.335 . S
C56 C57 1.398 . S
C56 H78 0.930 . S
C57 C52 1.382 . S
C57 C56 1.398 . S
C57 H79 0.929 . S
C58 O68 1.271 . S
C58 O69 1.251 . S
C59 O70 1.252 . S
C59 O71 1.272 . S
O60 Sm40 2.543 . S
O60 C42 1.261 . S
O61 Sm40 2.450 . S
O61 C42 1.242 . S
O62 Sm40 2.681 1_545 S
O62 Sm41 2.386 . S
O62 C49 1.271 . S
O63 Sm40 2.464 . S
O63 C49 1.251 1_565 S
O64 Sm40 2.396 . S
O64 C50 1.252 . S
O65 Sm41 2.408 1_565 S
O65 C50 1.272 . S
O66 Sm41 2.543 . S
O66 C51 1.261 . S
O67 Sm41 2.450 . S
O67 C51 1.242 . S
O68 Sm40 2.386 1_545 S
O68 Sm41 2.681 . S
O68 C58 1.271 . S
O69 Sm41 2.464 . S
O69 C58 1.251 . S
O70 Sm41 2.396 . S
O70 C59 1.252 . S
O71 Sm40 2.408 1_545 S
O71 C59 1.272 . S
H72 C44 0.930 . S
H73 C45 0.929 . S
H74 C47 0.930 . S
H75 C48 0.929 . S
H76 C53 0.930 . S
H77 C54 0.929 . S
H78 C56 0.930 . S
H79 C57 0.929 . S
Sm80 C82 2.846 . S
Sm80 O100 2.543 . S
Sm80 O101 2.450 . S
Sm80 O102 2.681 . S
Sm80 O103 2.464 . S
Sm80 O104 2.396 . S
Sm80 O108 2.386 . S
Sm80 O111 2.408 . S
Sm81 C91 2.846 . S
Sm81 O102 2.386 . S
Sm81 O105 2.408 . S
Sm81 O106 2.543 . S
Sm81 O107 2.450 . S
Sm81 O108 2.681 . S
Sm81 O109 2.464 . S
Sm81 O110 2.396 . S
C82 Sm80 2.846 . S
C82 C83 1.506 . S
C82 O100 1.261 . S
C82 O101 1.242 . S
C83 C82 1.506 . S
C83 C84 1.358 . S
C83 C88 1.382 . S
C84 C83 1.358 . S
C84 C85 1.385 . S
C84 H112 0.930 . S
C85 C84 1.385 . S
C85 C86 1.395 . S
C85 H113 0.929 . S
C86 C85 1.395 . S
C86 C87 1.335 . S
C87 C86 1.335 . S
C87 C88 1.398 . S
C87 H114 0.930 . S
C88 C83 1.382 . S
C88 C87 1.398 . S
C88 H115 0.929 . S
C89 O102 1.271 . S
C89 O103 1.251 . S
C90 O104 1.252 . S
C90 O105 1.272 . S
C91 Sm81 2.846 . S
C91 C92 1.506 . S
C91 O106 1.261 . S
C91 O107 1.242 . S
C92 C91 1.506 . S
C92 C93 1.358 . S
C92 C97 1.382 . S
C93 C92 1.358 . S
C93 C94 1.385 . S
C93 H116 0.930 . S
C94 C93 1.385 . S
C94 C95 1.395 . S
C94 H117 0.929 . S
C95 C94 1.395 . S
C95 C96 1.335 . S
C96 C95 1.335 . S
C96 C97 1.398 . S
C96 H118 0.930 . S
C97 C92 1.382 . S
C97 C96 1.398 . S
C97 H119 0.929 . S
C98 O108 1.271 . S
C98 O109 1.251 . S
C99 O110 1.252 . S
C99 O111 1.272 . S
O100 Sm80 2.543 . S
O100 C82 1.261 . S
O101 Sm80 2.450 . S
O101 C82 1.242 . S
O102 Sm80 2.681 . S
O102 Sm81 2.386 . S
O102 C89 1.271 . S
O103 Sm80 2.464 . S
O103 C89 1.251 . S
O104 Sm80 2.396 . S
O104 C90 1.252 . S
O105 Sm81 2.408 . S
O105 C90 1.272 . S
O106 Sm81 2.543 . S
O106 C91 1.261 . S
O107 Sm81 2.450 . S
O107 C91 1.242 . S
O108 Sm80 2.386 . S
O108 Sm81 2.681 . S
O108 C98 1.271 . S
O109 Sm81 2.464 . S
O109 C98 1.251 . S
O110 Sm81 2.396 . S
O110 C99 1.252 . S
O111 Sm80 2.408 . S
O111 C99 1.272 . S
H112 C84 0.930 . S
H113 C85 0.929 . S
H114 C87 0.930 . S
H115 C88 0.929 . S
H116 C93 0.930 . S
H117 C94 0.929 . S
H118 C96 0.930 . S
H119 C97 0.929 . S
P120 O131 1.470 1_545 S
P120 C134 1.810 1_545 S
P120 C140 1.820 . S
P120 C146 1.826 . S
H121 C135 0.941 . S
H122 C136 0.939 . S
H123 C138 0.940 . S
H124 C139 0.940 . S
H125 C141 0.939 . S
H126 C142 0.942 . S
H127 C144 0.940 . S
H128 C145 0.939 . S
H129 C147 0.941 . S
H130 C151 0.939 . S
O131 P120 1.470 1_565 S
H132 C148 0.939 . S
H133 C150 0.940 . S
C134 P120 1.810 1_565 S
C134 C135 1.389 . S
C134 C139 1.391 . S
C135 H121 0.941 . S
C135 C134 1.389 . S
C135 C136 1.397 . S
C136 H122 0.939 . S
C136 C135 1.397 . S
C136 C137 1.378 . S
C137 C136 1.378 . S
C137 C138 1.378 . S
C138 H123 0.940 . S
C138 C137 1.378 . S
C138 C139 1.396 . S
C139 H124 0.940 . S
C139 C134 1.391 . S
C139 C138 1.396 . S
C140 P120 1.820 . S
C140 C141 1.378 . S
C140 C145 1.400 . S
C141 H125 0.939 . S
C141 C140 1.378 . S
C141 C142 1.361 . S
C142 H126 0.942 . S
C142 C141 1.361 . S
C142 C143 1.369 . S
C143 C142 1.369 . S
C143 C144 1.404 . S
C144 H127 0.940 . S
C144 C143 1.404 . S
C144 C145 1.389 . S
C145 H128 0.939 . S
C145 C140 1.400 . S
C145 C144 1.389 . S
C146 P120 1.826 . S
C146 C147 1.391 1_545 S
C146 C151 1.391 . S
C147 H129 0.941 . S
C147 C146 1.391 1_565 S
C147 C148 1.396 . S
C148 H132 0.939 . S
C148 C147 1.396 . S
C148 C149 1.397 1_565 S
C149 C148 1.397 1_545 S
C149 C150 1.385 . S
C150 H133 0.940 . S
C150 C149 1.385 . S
C150 C151 1.388 . S
C151 H130 0.939 . S
C151 C146 1.391 . S
C151 C150 1.388 . S
P152 O163 1.490 . S
P152 C166 1.812 . S
P152 C172 1.803 . S
P152 C178 1.819 . S
H153 C167 0.941 . S
H154 C168 0.939 . S
H155 C170 0.940 . S
H156 C171 0.940 . S
H157 C173 0.939 . S
H158 C174 0.942 . S
H159 C176 0.940 . S
H160 C177 0.939 . S
H161 C179 0.941 . S
H162 C183 0.939 . S
O163 P152 1.490 . S
H164 C180 0.939 . S
H165 C182 0.940 . S
C166 P152 1.812 . S
C166 C167 1.389 . S
C166 C171 1.391 . S
C167 H153 0.941 . S
C167 C166 1.389 . S
C167 C168 1.397 . S
C168 H154 0.939 . S
C168 C167 1.397 . S
C168 C169 1.378 . S
C169 C168 1.378 . S
C169 C170 1.378 . S
C170 H155 0.940 . S
C170 C169 1.378 . S
C170 C171 1.396 . S
C171 H156 0.940 . S
C171 C166 1.391 . S
C171 C170 1.396 . S
C172 P152 1.803 . S
C172 C173 1.378 . S
C172 C177 1.400 . S
C173 H157 0.939 . S
C173 C172 1.378 . S
C173 C174 1.361 . S
C174 H158 0.942 . S
C174 C173 1.361 . S
C174 C175 1.369 . S
C175 C174 1.369 . S
C175 C176 1.404 . S
C176 H159 0.940 . S
C176 C175 1.404 . S
C176 C177 1.389 . S
C177 H160 0.939 . S
C177 C172 1.400 . S
C177 C176 1.389 . S
C178 P152 1.819 . S
C178 C179 1.391 . S
C178 C183 1.391 . S
C179 H161 0.941 . S
C179 C178 1.391 . S
C179 C180 1.396 . S
C180 H164 0.939 . S
C180 C179 1.396 . S
C180 C181 1.397 . S
C181 C180 1.397 . S
C181 C182 1.385 . S
C182 H165 0.940 . S
C182 C181 1.385 . S
C182 C183 1.388 . S
C183 H162 0.939 . S
C183 C178 1.391 . S
C183 C182 1.388 . S
P184 O195 1.490 . S
P184 C198 1.812 . S
P184 C204 1.803 . S
P184 C210 1.819 . S
H185 C199 0.941 . S
H186 C200 0.939 . S
H187 C202 0.940 . S
H188 C203 0.940 . S
H189 C205 0.939 . S
H190 C206 0.942 . S
H191 C208 0.940 . S
H192 C209 0.939 . S
H193 C211 0.941 . S
H194 C215 0.939 . S
O195 P184 1.490 . S
H196 C212 0.939 . S
H197 C214 0.940 1_655 S
C198 P184 1.812 . S
C198 C199 1.389 . S
C198 C203 1.391 . S
C199 H185 0.941 . S
C199 C198 1.389 . S
C199 C200 1.397 . S
C200 H186 0.939 . S
C200 C199 1.397 . S
C200 C201 1.378 . S
C201 C200 1.378 . S
C201 C202 1.378 . S
C202 H187 0.940 . S
C202 C201 1.378 . S
C202 C203 1.396 . S
C203 H188 0.940 . S
C203 C198 1.391 . S
C203 C202 1.396 . S
C204 P184 1.803 . S
C204 C205 1.378 . S
C204 C209 1.400 . S
C205 H189 0.939 . S
C205 C204 1.378 . S
C205 C206 1.361 1_455 S
C206 H190 0.942 . S
C206 C205 1.361 1_655 S
C206 C207 1.369 . S
C207 C206 1.369 . S
C207 C208 1.404 . S
C208 H191 0.940 . S
C208 C207 1.404 . S
C208 C209 1.389 1_655 S
C209 H192 0.939 . S
C209 C204 1.400 . S
C209 C208 1.389 1_455 S
C210 P184 1.819 . S
C210 C211 1.391 . S
C210 C215 1.391 . S
C211 H193 0.941 . S
C211 C210 1.391 . S
C211 C212 1.396 . S
C212 H196 0.939 . S
C212 C211 1.396 . S
C212 C213 1.397 . S
C213 C212 1.397 . S
C213 C214 1.385 . S
C214 H197 0.940 1_455 S
C214 C213 1.385 . S
C214 C215 1.388 . S
C215 H194 0.939 . S
C215 C210 1.391 . S
C215 C214 1.388 . S
P216 O227 1.490 . S
P216 C230 1.812 . S
P216 C236 1.803 1_455 S
P216 C242 1.819 . S
H217 C231 0.941 . S
H218 C232 0.939 . S
H219 C234 0.940 . S
H220 C235 0.940 . S
H221 C237 0.939 . S
H222 C238 0.942 . S
H223 C240 0.940 . S
H224 C241 0.939 . S
H225 C243 0.941 . S
H226 C247 0.939 . S
O227 P216 1.490 . S
H228 C244 0.939 . S
H229 C246 0.940 . S
C230 P216 1.812 . S
C230 C231 1.389 . S
C230 C235 1.391 . S
C231 H217 0.941 . S
C231 C230 1.389 . S
C231 C232 1.397 . S
C232 H218 0.939 . S
C232 C231 1.397 . S
C232 C233 1.378 . S
C233 C232 1.378 . S
C233 C234 1.378 . S
C234 H219 0.940 . S
C234 C233 1.378 . S
C234 C235 1.396 . S
C235 H220 0.940 . S
C235 C230 1.391 . S
C235 C234 1.396 . S
C236 P216 1.803 1_655 S
C236 C237 1.378 . S
C236 C241 1.400 . S
C237 H221 0.939 . S
C237 C236 1.378 . S
C237 C238 1.361 . S
C238 H222 0.942 . S
C238 C237 1.361 . S
C238 C239 1.369 . S
C239 C238 1.369 . S
C239 C240 1.404 . S
C240 H223 0.940 . S
C240 C239 1.404 . S
C240 C241 1.389 . S
C241 H224 0.939 . S
C241 C236 1.400 . S
C241 C240 1.389 . S
C242 P216 1.819 . S
C242 C243 1.391 . S
C242 C247 1.391 1_455 S
C243 H225 0.941 . S
C243 C242 1.391 . S
C243 C244 1.396 . S
C244 H228 0.939 . S
C244 C243 1.396 . S
C244 C245 1.397 . S
C245 C244 1.397 . S
C245 C246 1.385 1_455 S
C246 H229 0.940 . S
C246 C245 1.385 1_655 S
C246 C247 1.388 . S
C247 H226 0.939 . S
C247 C242 1.391 1_655 S
C247 C246 1.388 . S
P248 O259 1.490 . S
P248 C262 1.812 . S
P248 C268 1.803 1_545 S
P248 C274 1.819 . S
H249 C263 0.941 . S
H250 C264 0.939 . S
H251 C266 0.940 . S
H252 C267 0.940 . S
H253 C269 0.939 . S
H254 C270 0.942 . S
H255 C272 0.940 . S
H256 C273 0.939 . S
H257 C275 0.941 . S
H258 C279 0.939 . S
O259 P248 1.490 . S
H260 C276 0.939 . S
H261 C278 0.940 . S
C262 P248 1.812 . S
C262 C263 1.389 . S
C262 C267 1.391 . S
C263 H249 0.941 . S
C263 C262 1.389 . S
C263 C264 1.397 . S
C264 H250 0.939 . S
C264 C263 1.397 . S
C264 C265 1.378 . S
C265 C264 1.378 . S
C265 C266 1.378 . S
C266 H251 0.940 . S
C266 C265 1.378 . S
C266 C267 1.396 . S
C267 H252 0.940 . S
C267 C262 1.391 . S
C267 C266 1.396 . S
C268 P248 1.803 1_565 S
C268 C269 1.378 . S
C268 C273 1.400 . S
C269 H253 0.939 . S
C269 C268 1.378 . S
C269 C270 1.361 . S
C270 H254 0.942 . S
C270 C269 1.361 . S
C270 C271 1.369 . S
C271 C270 1.369 . S
C271 C272 1.404 . S
C272 H255 0.940 . S
C272 C271 1.404 . S
C272 C273 1.389 . S
C273 H256 0.939 . S
C273 C268 1.400 . S
C273 C272 1.389 . S
C274 P248 1.819 . S
C274 C275 1.391 . S
C274 C279 1.391 1_545 S
C275 H257 0.941 . S
C275 C274 1.391 . S
C275 C276 1.396 . S
C276 H260 0.939 . S
C276 C275 1.396 . S
C276 C277 1.397 . S
C277 C276 1.397 . S
C277 C278 1.385 1_545 S
C278 H261 0.940 . S
C278 C277 1.385 1_565 S
C278 C279 1.388 . S
C279 H258 0.939 . S
C279 C274 1.391 1_565 S
C279 C278 1.388 . S
P280 O291 1.490 . S
P280 C294 1.812 . S
P280 C300 1.803 . S
P280 C306 1.819 . S
H281 C295 0.941 . S
H282 C296 0.939 . S
H283 C298 0.940 . S
H284 C299 0.940 . S
H285 C301 0.939 . S
H286 C302 0.942 . S
H287 C304 0.940 . S
H288 C305 0.939 . S
H289 C307 0.941 . S
H290 C311 0.939 . S
O291 P280 1.490 . S
H292 C308 0.939 . S
H293 C310 0.940 . S
C294 P280 1.812 . S
C294 C295 1.389 . S
C294 C299 1.391 . S
C295 H281 0.941 . S
C295 C294 1.389 . S
C295 C296 1.397 . S
C296 H282 0.939 . S
C296 C295 1.397 . S
C296 C297 1.378 . S
C297 C296 1.378 . S
C297 C298 1.378 . S
C298 H283 0.940 . S
C298 C297 1.378 . S
C298 C299 1.396 . S
C299 H284 0.940 . S
C299 C294 1.391 . S
C299 C298 1.396 . S
C300 P280 1.803 . S
C300 C301 1.378 . S
C300 C305 1.400 . S
C301 H285 0.939 . S
C301 C300 1.378 . S
C301 C302 1.361 . S
C302 H286 0.942 . S
C302 C301 1.361 . S
C302 C303 1.369 . S
C303 C302 1.369 . S
C303 C304 1.404 . S
C304 H287 0.940 . S
C304 C303 1.404 . S
C304 C305 1.389 . S
C305 H288 0.939 . S
C305 C300 1.400 . S
C305 C304 1.389 . S
C306 P280 1.819 . S
C306 C307 1.391 . S
C306 C311 1.391 . S
C307 H289 0.941 . S
C307 C306 1.391 . S
C307 C308 1.396 . S
C308 H292 0.939 . S
C308 C307 1.396 . S
C308 C309 1.397 . S
C309 C308 1.397 . S
C309 C310 1.385 . S
C310 H293 0.940 . S
C310 C309 1.385 . S
C310 C311 1.388 . S
C311 H290 0.939 . S
C311 C306 1.391 . S
C311 C310 1.388 . S
H312 C320 0.929 . S
H313 C322 0.930 . S
H314 C324 0.930 . S
H315 C327 0.929 . S
H316 C330 0.930 . S
H317 C332 0.960 . S
H318 C332 0.960 . S
H319 C332 0.960 . S
C320 H312 0.929 . S
C320 C321 1.377 . S
C320 C322 1.384 . S
C321 C320 1.377 . S
C321 C327 1.390 . S
C322 H313 0.930 . S
C322 C320 1.384 . S
C322 C323 1.372 . S
C323 C322 1.372 . S
C323 C324 1.400 . S
C323 C328 1.490 . S
C324 H314 0.930 . S
C324 C323 1.400 . S
C324 C327 1.386 . S
H325 C341 0.930 . S
H326 C342 0.931 . S
C327 H315 0.929 . S
C327 C321 1.390 . S
C327 C324 1.386 . S
C328 C323 1.490 . S
C328 C330 1.395 . S
C328 C331 1.403 . S
H329 C335 0.930 . S
C330 H316 0.930 . S
C330 C328 1.395 . S
C330 C333 1.403 . S
C331 C328 1.403 . S
C331 C332 1.524 . S
C331 C335 1.400 . S
C332 H317 0.960 . S
C332 H318 0.960 . S
C332 H319 0.960 . S
C332 C331 1.524 . S
C333 C330 1.403 . S
C333 C334 1.392 . S
C333 C337 1.495 . S
C334 C333 1.392 . S
C334 C335 1.385 . S
C334 C336 1.478 . S
C335 H329 0.930 . S
C335 C331 1.400 . S
C335 C334 1.385 . S
C336 C334 1.478 . S
C336 C338 1.381 . S
C336 C342 1.383 . S
C337 C333 1.495 . S
C337 H343 0.959 . S
C337 H344 0.961 . S
C337 H345 0.960 . S
C338 C336 1.381 . S
C338 C339 1.394 . S
C338 H346 0.930 . S
C339 C338 1.394 . S
C339 C340 1.383 . S
C339 H347 0.929 . S
C340 C339 1.383 . S
C340 C341 1.377 . S
C341 H325 0.930 . S
C341 C340 1.377 . S
C341 C342 1.379 . S
C342 H326 0.931 . S
C342 C336 1.383 . S
C342 C341 1.379 . S
H343 C337 0.959 . S
H344 C337 0.961 . S
H345 C337 0.960 . S
H346 C338 0.930 . S
H347 C339 0.929 . S
H348 C356 0.929 . S
H349 C358 0.930 . S
H350 C360 0.930 . S
H351 C363 0.929 . S
H352 C366 0.930 . S
H353 C368 0.960 . S
H354 C368 0.960 . S
H355 C368 0.960 . S
C356 H348 0.929 . S
C356 C357 1.377 . S
C356 C358 1.384 . S
C357 C356 1.377 . S
C357 C363 1.390 . S
C358 H349 0.930 . S
C358 C356 1.384 . S
C358 C359 1.372 . S
C359 C358 1.372 . S
C359 C360 1.400 . S
C359 C364 1.490 . S
C360 H350 0.930 . S
C360 C359 1.400 . S
C360 C363 1.386 . S
H361 C377 0.930 . S
H362 C378 0.931 . S
C363 H351 0.929 . S
C363 C357 1.390 . S
C363 C360 1.386 . S
C364 C359 1.490 . S
C364 C366 1.395 . S
C364 C367 1.403 . S
H365 C371 0.930 . S
C366 H352 0.930 . S
C366 C364 1.395 . S
C366 C369 1.403 . S
C367 C364 1.403 . S
C367 C368 1.524 . S
C367 C371 1.400 . S
C368 H353 0.960 . S
C368 H354 0.960 . S
C368 H355 0.960 . S
C368 C367 1.524 . S
C369 C366 1.403 . S
C369 C370 1.392 . S
C369 C373 1.495 . S
C370 C369 1.392 . S
C370 C371 1.385 . S
C370 C372 1.478 . S
C371 H365 0.930 . S
C371 C367 1.400 . S
C371 C370 1.385 . S
C372 C370 1.478 . S
C372 C374 1.381 . S
C372 C378 1.383 . S
C373 C369 1.495 . S
C373 H379 0.959 . S
C373 H380 0.961 . S
C373 H381 0.960 . S
C374 C372 1.381 . S
C374 C375 1.394 . S
C374 H382 0.930 . S
C375 C374 1.394 . S
C375 C376 1.383 . S
C375 H383 0.929 . S
C376 C375 1.383 . S
C376 C377 1.377 . S
C377 H361 0.930 . S
C377 C376 1.377 . S
C377 C378 1.379 . S
C378 H362 0.931 . S
C378 C372 1.383 . S
C378 C377 1.379 . S
H379 C373 0.959 . S
H380 C373 0.961 . S
H381 C373 0.960 . S
H382 C374 0.930 . S
H383 C375 0.929 . S
H384 C392 0.929 . S
H385 C394 0.930 . S
H386 C396 0.930 . S
H387 C399 0.929 . S
H388 C402 0.930 . S
H389 C404 0.960 . S
H390 C404 0.960 . S
H391 C404 0.960 . S
C392 H384 0.929 . S
C392 C393 1.377 . S
C392 C394 1.384 . S
C393 C392 1.377 . S
C393 C399 1.390 . S
C394 H385 0.930 . S
C394 C392 1.384 . S
C394 C395 1.372 . S
C395 C394 1.372 . S
C395 C396 1.400 . S
C395 C400 1.490 . S
C396 H386 0.930 . S
C396 C395 1.400 . S
C396 C399 1.386 . S
H397 C413 0.930 . S
H398 C414 0.931 . S
C399 H387 0.929 . S
C399 C393 1.390 . S
C399 C396 1.386 . S
C400 C395 1.490 . S
C400 C402 1.395 . S
C400 C403 1.403 . S
H401 C407 0.930 . S
C402 H388 0.930 . S
C402 C400 1.395 . S
C402 C405 1.403 . S
C403 C400 1.403 . S
C403 C404 1.524 . S
C403 C407 1.400 . S
C404 H389 0.960 . S
C404 H390 0.960 . S
C404 H391 0.960 . S
C404 C403 1.524 . S
C405 C402 1.403 . S
C405 C406 1.392 . S
C405 C409 1.495 . S
C406 C405 1.392 . S
C406 C407 1.385 . S
C406 C408 1.478 . S
C407 H401 0.930 . S
C407 C403 1.400 . S
C407 C406 1.385 . S
C408 C406 1.478 . S
C408 C410 1.381 . S
C408 C414 1.383 . S
C409 C405 1.495 . S
C409 H415 0.959 . S
C409 H416 0.961 . S
C409 H417 0.960 . S
C410 C408 1.381 . S
C410 C411 1.394 . S
C410 H418 0.930 . S
C411 C410 1.394 . S
C411 C412 1.383 . S
C411 H419 0.929 . S
C412 C411 1.383 . S
C412 C413 1.377 . S
C413 H397 0.930 . S
C413 C412 1.377 . S
C413 C414 1.379 . S
C414 H398 0.931 . S
C414 C408 1.383 . S
C414 C413 1.379 . S
H415 C409 0.959 . S
H416 C409 0.961 . S
H417 C409 0.960 . S
H418 C410 0.930 . S
H419 C411 0.929 . S
H420 C428 0.929 . S
H421 C430 0.930 . S
H422 C432 0.930 . S
H423 C435 0.929 . S
H424 C438 0.930 . S
H425 C440 0.960 . S
H426 C440 0.960 . S
H427 C440 0.960 . S
C428 H420 0.929 . S
C428 C429 1.377 . S
C428 C430 1.384 . S
C429 C428 1.377 . S
C429 C435 1.390 . S
C430 H421 0.930 . S
C430 C428 1.384 . S
C430 C431 1.372 . S
C431 C430 1.372 . S
C431 C432 1.400 . S
C431 C436 1.490 . S
C432 H422 0.930 . S
C432 C431 1.400 . S
C432 C435 1.386 . S
H433 C449 0.930 . S
H434 C450 0.931 . S
C435 H423 0.929 . S
C435 C429 1.390 . S
C435 C432 1.386 . S
C436 C431 1.490 . S
C436 C438 1.395 . S
C436 C439 1.403 . S
H437 C443 0.930 . S
C438 H424 0.930 . S
C438 C436 1.395 . S
C438 C441 1.403 . S
C439 C436 1.403 . S
C439 C440 1.524 . S
C439 C443 1.400 . S
C440 H425 0.960 . S
C440 H426 0.960 . S
C440 H427 0.960 . S
C440 C439 1.524 . S
C441 C438 1.403 . S
C441 C442 1.392 . S
C441 C445 1.495 . S
C442 C441 1.392 . S
C442 C443 1.385 . S
C442 C444 1.478 . S
C443 H437 0.930 . S
C443 C439 1.400 . S
C443 C442 1.385 . S
C444 C442 1.478 . S
C444 C446 1.381 . S
C444 C450 1.383 . S
C445 C441 1.495 . S
C445 H451 0.959 . S
C445 H452 0.961 . S
C445 H453 0.960 . S
C446 C444 1.381 . S
C446 C447 1.394 . S
C446 H454 0.930 . S
C447 C446 1.394 . S
C447 C448 1.383 . S
C447 H455 0.929 . S
C448 C447 1.383 . S
C448 C449 1.377 . S
C449 H433 0.930 . S
C449 C448 1.377 . S
C449 C450 1.379 . S
C450 H434 0.931 . S
C450 C444 1.383 . S
C450 C449 1.379 . S
H451 C445 0.959 . S
H452 C445 0.961 . S
H453 C445 0.960 . S
H454 C446 0.930 . S
H455 C447 0.929 . S
H456 C464 0.929 . S
H457 C466 0.930 . S
H458 C468 0.930 . S
H459 C471 0.929 . S
H460 C474 0.930 . S
H461 C476 0.960 . S
H462 C476 0.960 . S
H463 C476 0.960 . S
C464 H456 0.929 . S
C464 C465 1.377 . S
C464 C466 1.384 . S
C465 C464 1.377 . S
C465 C471 1.390 . S
C466 H457 0.930 . S
C466 C464 1.384 . S
C466 C467 1.372 . S
C467 C466 1.372 . S
C467 C468 1.400 . S
C467 C472 1.490 . S
C468 H458 0.930 . S
C468 C467 1.400 . S
C468 C471 1.386 . S
H469 C485 0.930 . S
H470 C486 0.931 . S
C471 H459 0.929 . S
C471 C465 1.390 . S
C471 C468 1.386 . S
C472 C467 1.490 . S
C472 C474 1.395 . S
C472 C475 1.403 . S
H473 C479 0.930 . S
C474 H460 0.930 . S
C474 C472 1.395 . S
C474 C477 1.403 . S
C475 C472 1.403 . S
C475 C476 1.524 . S
C475 C479 1.400 . S
C476 H461 0.960 . S
C476 H462 0.960 . S
C476 H463 0.960 . S
C476 C475 1.524 . S
C477 C474 1.403 . S
C477 C478 1.392 . S
C477 C481 1.495 . S
C478 C477 1.392 . S
C478 C479 1.385 . S
C478 C480 1.478 . S
C479 H473 0.930 . S
C479 C475 1.400 . S
C479 C478 1.385 . S
C480 C478 1.478 . S
C480 C482 1.381 . S
C480 C486 1.383 . S
C481 C477 1.495 . S
C481 H487 0.959 . S
C481 H488 0.961 . S
C481 H489 0.960 . S
C482 C480 1.381 . S
C482 C483 1.394 . S
C482 H490 0.930 . S
C483 C482 1.394 . S
C483 C484 1.383 . S
C483 H491 0.929 . S
C484 C483 1.383 . S
C484 C485 1.377 . S
C485 H469 0.930 . S
C485 C484 1.377 . S
C485 C486 1.379 . S
C486 H470 0.931 . S
C486 C480 1.383 . S
C486 C485 1.379 . S
H487 C481 0.959 . S
H488 C481 0.961 . S
H489 C481 0.960 . S
H490 C482 0.930 . S
H491 C483 0.929 . S
H492 C500 0.929 . S
H493 C502 0.930 . S
H494 C504 0.930 . S
H495 C507 0.929 . S
H496 C510 0.930 . S
H497 C512 0.960 . S
H498 C512 0.960 . S
H499 C512 0.960 . S
C500 H492 0.929 . S
C500 C501 1.377 . S
C500 C502 1.384 . S
C501 C500 1.377 . S
C501 C507 1.390 . S
C502 H493 0.930 . S
C502 C500 1.384 . S
C502 C503 1.372 . S
C503 C502 1.372 . S
C503 C504 1.400 . S
C503 C508 1.490 . S
C504 H494 0.930 . S
C504 C503 1.400 . S
C504 C507 1.386 . S
H505 C521 0.930 . S
H506 C522 0.931 . S
C507 H495 0.929 . S
C507 C501 1.390 . S
C507 C504 1.386 . S
C508 C503 1.490 . S
C508 C510 1.395 . S
C508 C511 1.403 . S
H509 C515 0.930 . S
C510 H496 0.930 . S
C510 C508 1.395 . S
C510 C513 1.403 . S
C511 C508 1.403 . S
C511 C512 1.524 . S
C511 C515 1.400 . S
C512 H497 0.960 . S
C512 H498 0.960 . S
C512 H499 0.960 . S
C512 C511 1.524 . S
C513 C510 1.403 . S
C513 C514 1.392 . S
C513 C517 1.495 . S
C514 C513 1.392 . S
C514 C515 1.385 . S
C514 C516 1.478 . S
C515 H509 0.930 . S
C515 C511 1.400 . S
C515 C514 1.385 . S
C516 C514 1.478 . S
C516 C518 1.381 . S
C516 C522 1.383 . S
C517 C513 1.495 . S
C517 H523 0.959 . S
C517 H524 0.961 . S
C517 H525 0.960 . S
C518 C516 1.381 . S
C518 C519 1.394 . S
C518 H526 0.930 . S
C519 C518 1.394 . S
C519 C520 1.383 . S
C519 H527 0.929 . S
C520 C519 1.383 . S
C520 C521 1.377 . S
C521 H505 0.930 . S
C521 C520 1.377 . S
C521 C522 1.379 . S
C522 H506 0.931 . S
C522 C516 1.383 . S
C522 C521 1.379 . S
H523 C517 0.959 . S
H524 C517 0.961 . S
H525 C517 0.960 . S
H526 C518 0.930 . S
H527 C519 0.929 . S
H528 C536 0.929 . S
H529 C538 0.930 . S
H530 C540 0.930 . S
H531 C543 0.929 . S
H532 C546 0.930 . S
H533 C548 0.960 . S
H534 C548 0.960 . S
H535 C548 0.960 . S
C536 H528 0.929 . S
C536 C537 1.377 . S
C536 C538 1.384 . S
C537 C536 1.377 . S
C537 C543 1.390 . S
C538 H529 0.930 . S
C538 C536 1.384 . S
C538 C539 1.372 . S
C539 C538 1.372 . S
C539 C540 1.400 . S
C539 C544 1.490 . S
C540 H530 0.930 . S
C540 C539 1.400 . S
C540 C543 1.386 . S
H541 C557 0.930 . S
H542 C558 0.931 . S
C543 H531 0.929 . S
C543 C537 1.390 . S
C543 C540 1.386 . S
C544 C539 1.490 . S
C544 C546 1.395 . S
C544 C547 1.403 . S
H545 C551 0.930 . S
C546 H532 0.930 . S
C546 C544 1.395 . S
C546 C549 1.403 . S
C547 C544 1.403 . S
C547 C548 1.524 . S
C547 C551 1.400 . S
C548 H533 0.960 . S
C548 H534 0.960 . S
C548 H535 0.960 . S
C548 C547 1.524 . S
C549 C546 1.403 . S
C549 C550 1.392 . S
C549 C553 1.495 . S
C550 C549 1.392 . S
C550 C551 1.385 . S
C550 C552 1.478 . S
C551 H545 0.930 . S
C551 C547 1.400 . S
C551 C550 1.385 . S
C552 C550 1.478 . S
C552 C554 1.381 . S
C552 C558 1.383 . S
C553 C549 1.495 . S
C553 H559 0.959 . S
C553 H560 0.961 . S
C553 H561 0.960 . S
C554 C552 1.381 . S
C554 C555 1.394 . S
C554 H562 0.930 . S
C555 C554 1.394 . S
C555 C556 1.383 . S
C555 H563 0.929 . S
C556 C555 1.383 . S
C556 C557 1.377 . S
C557 H541 0.930 . S
C557 C556 1.377 . S
C557 C558 1.379 . S
C558 H542 0.931 . S
C558 C552 1.383 . S
C558 C557 1.379 . S
H559 C553 0.959 . S
H560 C553 0.961 . S
H561 C553 0.960 . S
H562 C554 0.930 . S
H563 C555 0.929 . S
H564 C572 0.929 . S
H565 C574 0.930 . S
H566 C576 0.930 . S
H567 C579 0.929 . S
H568 C582 0.930 . S
H569 C584 0.960 . S
H570 C584 0.960 . S
H571 C584 0.960 . S
C572 H564 0.929 . S
C572 C573 1.377 . S
C572 C574 1.384 . S
C573 C572 1.377 . S
C573 C579 1.390 . S
C574 H565 0.930 . S
C574 C572 1.384 . S
C574 C575 1.372 . S
C575 C574 1.372 . S
C575 C576 1.400 . S
C575 C580 1.490 . S
C576 H566 0.930 . S
C576 C575 1.400 . S
C576 C579 1.386 . S
H577 C593 0.930 . S
H578 C594 0.931 . S
C579 H567 0.929 . S
C579 C573 1.390 . S
C579 C576 1.386 . S
C580 C575 1.490 . S
C580 C582 1.395 . S
C580 C583 1.403 . S
H581 C587 0.930 . S
C582 H568 0.930 . S
C582 C580 1.395 . S
C582 C585 1.403 . S
C583 C580 1.403 . S
C583 C584 1.524 . S
C583 C587 1.400 . S
C584 H569 0.960 . S
C584 H570 0.960 . S
C584 H571 0.960 . S
C584 C583 1.524 . S
C585 C582 1.403 . S
C585 C586 1.392 . S
C585 C589 1.495 . S
C586 C585 1.392 . S
C586 C587 1.385 . S
C586 C588 1.478 . S
C587 H581 0.930 . S
C587 C583 1.400 . S
C587 C586 1.385 . S
C588 C586 1.478 . S
C588 C590 1.381 . S
C588 C594 1.383 . S
C589 C585 1.495 . S
C589 H595 0.959 . S
C589 H596 0.961 . S
C589 H597 0.960 . S
C590 C588 1.381 . S
C590 C591 1.394 . S
C590 H598 0.930 . S
C591 C590 1.394 . S
C591 C592 1.383 . S
C591 H599 0.929 . S
C592 C591 1.383 . S
C592 C593 1.377 . S
C593 H577 0.930 . S
C593 C592 1.377 . S
C593 C594 1.379 . S
C594 H578 0.931 . S
C594 C588 1.383 . S
C594 C593 1.379 . S
H595 C589 0.959 . S
H596 C589 0.961 . S
H597 C589 0.960 . S
H598 C590 0.930 . S
H599 C591 0.929 . S
H600 C608 0.929 . S
H601 C610 0.930 . S
H602 C612 0.930 . S
H603 C615 0.929 . S
H604 C618 0.930 . S
H605 C620 0.960 . S
H606 C620 0.960 . S
H607 C620 0.960 . S
C608 H600 0.929 . S
C608 C609 1.377 . S
C608 C610 1.384 . S
C609 C608 1.377 . S
C609 C615 1.390 . S
C610 H601 0.930 . S
C610 C608 1.384 . S
C610 C611 1.372 . S
C611 C610 1.372 . S
C611 C612 1.400 . S
C611 C616 1.490 . S
C612 H602 0.930 . S
C612 C611 1.400 . S
C612 C615 1.386 . S
H613 C629 0.930 . S
H614 C630 0.931 . S
C615 H603 0.929 . S
C615 C609 1.390 . S
C615 C612 1.386 . S
C616 C611 1.490 . S
C616 C618 1.395 . S
C616 C619 1.403 . S
H617 C623 0.930 . S
C618 H604 0.930 . S
C618 C616 1.395 . S
C618 C621 1.403 . S
C619 C616 1.403 . S
C619 C620 1.524 . S
C619 C623 1.400 . S
C620 H605 0.960 . S
C620 H606 0.960 . S
C620 H607 0.960 . S
C620 C619 1.524 . S
C621 C618 1.403 . S
C621 C622 1.392 . S
C621 C625 1.495 . S
C622 C621 1.392 . S
C622 C623 1.385 . S
C622 C624 1.478 . S
C623 H617 0.930 . S
C623 C619 1.400 . S
C623 C622 1.385 . S
C624 C622 1.478 . S
C624 C626 1.381 . S
C624 C630 1.383 . S
C625 C621 1.495 . S
C625 H631 0.959 . S
C625 H632 0.961 . S
C625 H633 0.960 . S
C626 C624 1.381 . S
C626 C627 1.394 . S
C626 H634 0.930 . S
C627 C626 1.394 . S
C627 C628 1.383 . S
C627 H635 0.929 . S
C628 C627 1.383 . S
C628 C629 1.377 . S
C629 H613 0.930 . S
C629 C628 1.377 . S
C629 C630 1.379 . S
C630 H614 0.931 . S
C630 C624 1.383 . S
C630 C629 1.379 . S
H631 C625 0.959 . S
H632 C625 0.961 . S
H633 C625 0.960 . S
H634 C626 0.930 . S
H635 C627 0.929 . S
H636 C644 0.929 . S
H637 C646 0.930 . S
H638 C648 0.930 . S
H639 C651 0.929 . S
H640 C654 0.930 . S
H641 C656 0.960 . S
H642 C656 0.960 . S
H643 C656 0.960 . S
C644 H636 0.929 . S
C644 C645 1.377 . S
C644 C646 1.384 . S
C645 C644 1.377 . S
C645 C651 1.390 . S
C646 H637 0.930 . S
C646 C644 1.384 . S
C646 C647 1.372 . S
C647 C646 1.372 . S
C647 C648 1.400 . S
C647 C652 1.490 . S
C648 H638 0.930 . S
C648 C647 1.400 . S
C648 C651 1.386 . S
H649 C665 0.930 . S
H650 C666 0.931 . S
C651 H639 0.929 . S
C651 C645 1.390 . S
C651 C648 1.386 . S
C652 C647 1.490 . S
C652 C654 1.395 . S
C652 C655 1.403 . S
H653 C659 0.930 . S
C654 H640 0.930 . S
C654 C652 1.395 . S
C654 C657 1.403 . S
C655 C652 1.403 . S
C655 C656 1.524 . S
C655 C659 1.400 . S
C656 H641 0.960 . S
C656 H642 0.960 . S
C656 H643 0.960 . S
C656 C655 1.524 . S
C657 C654 1.403 . S
C657 C658 1.392 . S
C657 C661 1.495 . S
C658 C657 1.392 . S
C658 C659 1.385 . S
C658 C660 1.478 . S
C659 H653 0.930 . S
C659 C655 1.400 . S
C659 C658 1.385 . S
C660 C658 1.478 . S
C660 C662 1.381 . S
C660 C666 1.383 . S
C661 C657 1.495 . S
C661 H667 0.959 . S
C661 H668 0.961 . S
C661 H669 0.960 . S
C662 C660 1.381 . S
C662 C663 1.394 . S
C662 H670 0.930 . S
C663 C662 1.394 . S
C663 C664 1.383 . S
C663 H671 0.929 . S
C664 C663 1.383 . S
C664 C665 1.377 . S
C665 H649 0.930 . S
C665 C664 1.377 . S
C665 C666 1.379 . S
C666 H650 0.931 . S
C666 C660 1.383 . S
C666 C665 1.379 . S
H667 C661 0.959 . S
H668 C661 0.961 . S
H669 C661 0.960 . S
H670 C662 0.930 . S
H671 C663 0.929 . S
H672 C680 0.929 . S
H673 C682 0.930 . S
H674 C684 0.930 . S
H675 C687 0.929 . S
H676 C690 0.930 . S
H677 C692 0.960 . S
H678 C692 0.960 . S
H679 C692 0.960 . S
C680 H672 0.929 . S
C680 C681 1.377 . S
C680 C682 1.384 . S
C681 C680 1.377 . S
C681 C687 1.390 . S
C682 H673 0.930 . S
C682 C680 1.384 . S
C682 C683 1.372 . S
C683 C682 1.372 . S
C683 C684 1.400 . S
C683 C688 1.490 . S
C684 H674 0.930 . S
C684 C683 1.400 . S
C684 C687 1.386 . S
H685 C701 0.930 . S
H686 C702 0.931 . S
C687 H675 0.929 . S
C687 C681 1.390 . S
C687 C684 1.386 . S
C688 C683 1.490 . S
C688 C690 1.395 . S
C688 C691 1.403 . S
H689 C695 0.930 . S
C690 H676 0.930 . S
C690 C688 1.395 . S
C690 C693 1.403 . S
C691 C688 1.403 . S
C691 C692 1.524 . S
C691 C695 1.400 . S
C692 H677 0.960 . S
C692 H678 0.960 . S
C692 H679 0.960 . S
C692 C691 1.524 . S
C693 C690 1.403 . S
C693 C694 1.392 . S
C693 C697 1.495 . S
C694 C693 1.392 . S
C694 C695 1.385 . S
C694 C696 1.478 . S
C695 H689 0.930 . S
C695 C691 1.400 . S
C695 C694 1.385 . S
C696 C694 1.478 . S
C696 C698 1.381 . S
C696 C702 1.383 . S
C697 C693 1.495 . S
C697 H703 0.959 . S
C697 H704 0.961 . S
C697 H705 0.960 . S
C698 C696 1.381 . S
C698 C699 1.394 . S
C698 H706 0.930 . S
C699 C698 1.394 . S
C699 C700 1.383 . S
C699 H707 0.929 . S
C700 C699 1.383 . S
C700 C701 1.377 . S
C701 H685 0.930 . S
C701 C700 1.377 . S
C701 C702 1.379 . S
C702 H686 0.931 . S
C702 C696 1.383 . S
C702 C701 1.379 . S
H703 C697 0.959 . S
H704 C697 0.961 . S
H705 C697 0.960 . S
H706 C698 0.930 . S
H707 C699 0.929 . S
H708 C716 0.929 . S
H709 C718 0.930 . S
H710 C720 0.930 . S
H711 C723 0.929 . S
H712 C726 0.930 . S
H713 C728 0.960 . S
H714 C728 0.960 . S
H715 C728 0.960 . S
C716 H708 0.929 . S
C716 C717 1.377 . S
C716 C718 1.384 . S
C717 C716 1.377 . S
C717 C723 1.390 . S
C718 H709 0.930 . S
C718 C716 1.384 . S
C718 C719 1.372 . S
C719 C718 1.372 . S
C719 C720 1.400 . S
C719 C724 1.490 . S
C720 H710 0.930 . S
C720 C719 1.400 . S
C720 C723 1.386 . S
H721 C737 0.930 . S
H722 C738 0.931 . S
C723 H711 0.929 . S
C723 C717 1.390 . S
C723 C720 1.386 . S
C724 C719 1.490 . S
C724 C726 1.395 . S
C724 C727 1.403 . S
H725 C731 0.930 . S
C726 H712 0.930 . S
C726 C724 1.395 . S
C726 C729 1.403 . S
C727 C724 1.403 . S
C727 C728 1.524 . S
C727 C731 1.400 . S
C728 H713 0.960 . S
C728 H714 0.960 . S
C728 H715 0.960 . S
C728 C727 1.524 . S
C729 C726 1.403 . S
C729 C730 1.392 . S
C729 C733 1.495 . S
C730 C729 1.392 . S
C730 C731 1.385 . S
C730 C732 1.478 . S
C731 H725 0.930 . S
C731 C727 1.400 . S
C731 C730 1.385 . S
C732 C730 1.478 . S
C732 C734 1.381 . S
C732 C738 1.383 . S
C733 C729 1.495 . S
C733 H739 0.959 . S
C733 H740 0.961 . S
C733 H741 0.960 . S
C734 C732 1.381 . S
C734 C735 1.394 . S
C734 H742 0.930 . S
C735 C734 1.394 . S
C735 C736 1.383 . S
C735 H743 0.929 . S
C736 C735 1.383 . S
C736 C737 1.377 . S
C737 H721 0.930 . S
C737 C736 1.377 . S
C737 C738 1.379 . S
C738 H722 0.931 . S
C738 C732 1.383 . S
C738 C737 1.379 . S
H739 C733 0.959 . S
H740 C733 0.961 . S
H741 C733 0.960 . S
H742 C734 0.930 . S
H743 C735 0.929 . S
H744 C752 0.929 . S
H745 C754 0.930 . S
H746 C756 0.930 . S
H747 C759 0.929 . S
H748 C762 0.930 . S
H749 C764 0.960 . S
H750 C764 0.960 . S
H751 C764 0.960 . S
C752 H744 0.929 . S
C752 C753 1.377 1_655 S
C752 C754 1.384 . S
C753 C752 1.377 1_455 S
C753 C759 1.390 . S
C754 H745 0.930 . S
C754 C752 1.384 . S
C754 C755 1.372 1_655 S
C755 C754 1.372 1_455 S
C755 C756 1.400 . S
C755 C760 1.490 . S
C756 H746 0.930 . S
C756 C755 1.400 . S
C756 C759 1.386 . S
H757 C773 0.930 . S
H758 C774 0.931 1_554 S
C759 H747 0.929 . S
C759 C753 1.390 . S
C759 C756 1.386 . S
C760 C755 1.490 . S
C760 C762 1.395 . S
C760 C763 1.403 . S
H761 C767 0.930 . S
C762 H748 0.930 . S
C762 C760 1.395 . S
C762 C765 1.403 . S
C763 C760 1.403 . S
C763 C764 1.524 . S
C763 C767 1.400 . S
C764 H749 0.960 . S
C764 H750 0.960 . S
C764 H751 0.960 . S
C764 C763 1.524 . S
C765 C762 1.403 . S
C765 C766 1.392 . S
C765 C769 1.495 . S
C766 C765 1.392 . S
C766 C767 1.385 . S
C766 C768 1.478 . S
C767 H761 0.930 . S
C767 C763 1.400 . S
C767 C766 1.385 . S
C768 C766 1.478 . S
C768 C770 1.381 1_554 S
C768 C774 1.383 1_554 S
C769 C765 1.495 . S
C769 H775 0.975 . S
C769 H776 0.961 . S
C769 H777 0.960 1_455 S
C770 C768 1.381 1_556 S
C770 C771 1.394 . S
C770 H778 0.930 1_455 S
C771 C770 1.394 . S
C771 C772 1.383 . S
C771 H779 0.929 1_455 S
C772 C771 1.383 . S
C772 C773 1.377 . S
C773 H757 0.930 . S
C773 C772 1.377 . S
C773 C774 1.379 . S
C774 H758 0.931 1_556 S
C774 C768 1.383 1_556 S
C774 C773 1.379 . S
H775 C769 0.975 . S
H776 C769 0.961 . S
H777 C769 0.960 1_655 S
H778 C770 0.930 1_655 S
H779 C771 0.929 1_655 S
H780 C788 0.929 . S
H781 C790 0.930 . S
H782 C792 0.931 . S
H783 C795 0.929 . S
H784 C798 0.953 . S
H785 C800 0.960 . S
H786 C800 0.960 . S
H787 C800 0.960 . S
C788 H780 0.929 . S
C788 C789 1.377 . S
C788 C790 1.384 . S
C789 C788 1.377 . S
C789 C795 1.390 1_545 S
C790 H781 0.930 . S
C790 C788 1.384 . S
C790 C791 1.372 . S
C791 C790 1.372 . S
C791 C792 1.399 1_545 S
C791 C796 1.490 . S
C792 H782 0.931 . S
C792 C791 1.399 1_565 S
C792 C795 1.385 . S
H793 C809 0.930 . S
H794 C810 0.931 . S
C795 H783 0.929 . S
C795 C789 1.390 1_565 S
C795 C792 1.385 . S
C796 C791 1.490 . S
C796 C798 1.372 1_545 S
C796 C799 1.403 . S
H797 C803 0.930 . S
C798 H784 0.953 . S
C798 C796 1.372 1_565 S
C798 C801 1.405 . S
C799 C796 1.403 . S
C799 C800 1.524 . S
C799 C803 1.400 . S
C800 H785 0.960 . S
C800 H786 0.960 . S
C800 H787 0.960 . S
C800 C799 1.524 . S
C801 C798 1.405 . S
C801 C802 1.392 1_565 S
C801 C805 1.495 . S
C802 C801 1.392 1_545 S
C802 C803 1.385 . S
C802 C804 1.478 . S
C803 H797 0.930 . S
C803 C799 1.400 . S
C803 C802 1.385 . S
C804 C802 1.478 . S
C804 C806 1.381 . S
C804 C810 1.383 1_545 S
C805 C801 1.495 . S
C805 H811 0.959 . S
C805 H812 0.961 . S
C805 H813 0.960 . S
C806 C804 1.381 . S
C806 C807 1.394 . S
C806 H814 0.930 . S
C807 C806 1.394 . S
C807 C808 1.383 . S
C807 H815 0.929 . S
C808 C807 1.383 . S
C808 C809 1.377 1_545 S
C809 H793 0.930 . S
C809 C808 1.377 1_565 S
C809 C810 1.379 . S
C810 H794 0.931 . S
C810 C804 1.383 1_565 S
C810 C809 1.379 . S
H811 C805 0.959 . S
H812 C805 0.961 . S
H813 C805 0.960 . S
H814 C806 0.930 . S
H815 C807 0.929 . S
H816 C824 0.929 . S
H817 C826 0.930 . S
H818 C828 0.930 . S
H819 C831 0.929 . S
H820 C834 0.930 . S
H821 C836 0.960 . S
H822 C836 0.960 . S
H823 C836 0.960 . S
C824 H816 0.929 . S
C824 C825 1.377 . S
C824 C826 1.384 . S
C825 C824 1.377 . S
C825 C831 1.390 . S
C826 H817 0.930 . S
C826 C824 1.384 . S
C826 C827 1.372 . S
C827 C826 1.372 . S
C827 C828 1.400 . S
C827 C832 1.490 . S
C828 H818 0.930 . S
C828 C827 1.400 . S
C828 C831 1.386 . S
H829 C845 0.930 . S
H830 C846 0.931 . S
C831 H819 0.929 . S
C831 C825 1.390 . S
C831 C828 1.386 . S
C832 C827 1.490 . S
C832 C834 1.395 . S
C832 C835 1.403 . S
H833 C839 0.930 . S
C834 H820 0.930 . S
C834 C832 1.395 . S
C834 C837 1.403 . S
C835 C832 1.403 . S
C835 C836 1.524 . S
C835 C839 1.400 . S
C836 H821 0.960 . S
C836 H822 0.960 . S
C836 H823 0.960 . S
C836 C835 1.524 . S
C837 C834 1.403 . S
C837 C838 1.392 . S
C837 C841 1.495 . S
C838 C837 1.392 . S
C838 C839 1.385 . S
C838 C840 1.478 . S
C839 H833 0.930 . S
C839 C835 1.400 . S
C839 C838 1.385 . S
C840 C838 1.478 . S
C840 C842 1.381 . S
C840 C846 1.383 . S
C841 C837 1.495 . S
C841 H847 0.959 . S
C841 H848 0.961 . S
C841 H849 0.960 . S
C842 C840 1.381 . S
C842 C843 1.394 . S
C842 H850 0.930 . S
C843 C842 1.394 . S
C843 C844 1.383 . S
C843 H851 0.929 . S
C844 C843 1.383 . S
C844 C845 1.377 . S
C845 H829 0.930 . S
C845 C844 1.377 . S
C845 C846 1.379 . S
C846 H830 0.931 . S
C846 C840 1.383 . S
C846 C845 1.379 . S
H847 C841 0.959 . S
H848 C841 0.961 . S
H849 C841 0.960 . S
H850 C842 0.930 . S
H851 C843 0.929 . S
H852 C860 0.929 . S
H853 C862 0.930 . S
H854 C864 0.930 . S
H855 C867 0.929 . S
H856 C870 0.930 . S
H857 C872 0.960 . S
H858 C872 0.960 . S
H859 C872 0.960 . S
C860 H852 0.929 . S
C860 C861 1.377 1_565 S
C860 C862 1.384 . S
C861 C860 1.377 1_545 S
C861 C867 1.390 . S
C862 H853 0.930 . S
C862 C860 1.384 . S
C862 C863 1.372 1_565 S
C863 C862 1.372 1_545 S
C863 C864 1.400 . S
C863 C868 1.490 . S
C864 H854 0.930 . S
C864 C863 1.400 . S
C864 C867 1.386 . S
H865 C881 0.930 . S
H866 C882 0.931 . S
C867 H855 0.929 . S
C867 C861 1.390 . S
C867 C864 1.386 . S
C868 C863 1.490 . S
C868 C870 1.395 . S
C868 C871 1.403 1_545 S
H869 C875 0.930 . S
C870 H856 0.930 . S
C870 C868 1.395 . S
C870 C873 1.403 . S
C871 C868 1.403 1_565 S
C871 C872 1.524 . S
C871 C875 1.400 . S
C872 H857 0.960 . S
C872 H858 0.960 . S
C872 H859 0.960 . S
C872 C871 1.524 . S
C873 C870 1.403 . S
C873 C874 1.392 . S
C873 C877 1.495 . S
C874 C873 1.392 . S
C874 C875 1.385 1_545 S
C874 C876 1.478 . S
C875 H869 0.930 . S
C875 C871 1.400 . S
C875 C874 1.385 1_565 S
C876 C874 1.478 . S
C876 C878 1.381 1_545 S
C876 C882 1.383 . S
C877 C873 1.495 . S
C877 H883 0.959 . S
C877 H884 0.961 . S
C877 H885 0.960 . S
C878 C876 1.381 1_565 S
C878 C879 1.394 . S
C878 H886 0.930 . S
C879 C878 1.394 . S
C879 C880 1.383 1_565 S
C879 H887 0.929 . S
C880 C879 1.383 1_545 S
C880 C881 1.377 . S
C881 H865 0.930 . S
C881 C880 1.377 . S
C881 C882 1.379 . S
C882 H866 0.931 . S
C882 C876 1.383 . S
C882 C881 1.379 . S
H883 C877 0.959 . S
H884 C877 0.961 . S
H885 C877 0.960 . S
H886 C878 0.930 . S
H887 C879 0.929 . S
H888 C896 0.929 . S
H889 C898 0.930 . S
H890 C900 0.930 . S
H891 C903 0.929 . S
H892 C906 0.930 . S
H893 C908 0.960 . S
H894 C908 0.960 . S
H895 C908 0.960 . S
C896 H888 0.929 . S
C896 C897 1.377 . S
C896 C898 1.384 . S
C897 C896 1.377 . S
C897 C903 1.390 . S
C898 H889 0.930 . S
C898 C896 1.384 . S
C898 C899 1.372 . S
C899 C898 1.372 . S
C899 C900 1.400 . S
C899 C904 1.490 . S
C900 H890 0.930 . S
C900 C899 1.400 . S
C900 C903 1.386 . S
H901 C917 0.930 . S
H902 C918 0.931 1_556 S
C903 H891 0.929 . S
C903 C897 1.390 . S
C903 C900 1.386 . S
C904 C899 1.490 . S
C904 C906 1.395 . S
C904 C907 1.403 . S
H905 C911 0.930 . S
C906 H892 0.930 . S
C906 C904 1.395 . S
C906 C909 1.403 . S
C907 C904 1.403 . S
C907 C908 1.524 . S
C907 C911 1.400 . S
C908 H893 0.960 . S
C908 H894 0.960 . S
C908 H895 0.960 . S
C908 C907 1.524 . S
C909 C906 1.403 . S
C909 C910 1.392 . S
C909 C913 1.495 . S
C910 C909 1.392 . S
C910 C911 1.385 . S
C910 C912 1.478 . S
C911 H905 0.930 . S
C911 C907 1.400 . S
C911 C910 1.385 . S
C912 C910 1.478 . S
C912 C914 1.381 1_556 S
C912 C918 1.383 1_556 S
C913 C909 1.495 . S
C913 H919 0.959 . S
C913 H920 0.961 . S
C913 H921 0.960 . S
C914 C912 1.381 1_554 S
C914 C915 1.394 . S
C914 H922 0.930 1_554 S
C915 C914 1.394 . S
C915 C916 1.383 . S
C915 H923 0.929 . S
C916 C915 1.383 . S
C916 C917 1.377 . S
C917 H901 0.930 . S
C917 C916 1.377 . S
C917 C918 1.379 . S
C918 H902 0.931 1_554 S
C918 C912 1.383 1_554 S
C918 C917 1.379 . S
H919 C913 0.959 . S
H920 C913 0.961 . S
H921 C913 0.960 . S
H922 C914 0.930 1_556 S
H923 C915 0.929 . S
H924 C932 0.929 1_655 S
H925 C934 0.925 . S
H926 C936 0.930 . S
H927 C939 0.929 . S
H928 C942 0.930 . S
H929 C944 0.960 . S
H930 C944 0.960 . S
H931 C944 0.960 . S
C932 H924 0.929 1_455 S
C932 C933 1.377 . S
C932 C934 1.383 1_455 S
C933 C932 1.377 . S
C933 C939 1.390 . S
C934 H925 0.925 . S
C934 C932 1.383 1_655 S
C934 C935 1.378 1_655 S
C935 C934 1.378 1_455 S
C935 C936 1.400 . S
C935 C940 1.490 . S
C936 H926 0.930 . S
C936 C935 1.400 . S
C936 C939 1.386 . S
H937 C953 0.930 . S
H938 C954 0.931 . S
C939 H927 0.929 . S
C939 C933 1.390 . S
C939 C936 1.386 . S
C940 C935 1.490 . S
C940 C942 1.395 . S
C940 C943 1.403 1_455 S
H941 C947 0.930 . S
C942 H928 0.930 . S
C942 C940 1.395 . S
C942 C945 1.403 . S
C943 C940 1.403 1_655 S
C943 C944 1.524 . S
C943 C947 1.400 . S
C944 H929 0.960 . S
C944 H930 0.960 . S
C944 H931 0.960 . S
C944 C943 1.524 . S
C945 C942 1.403 . S
C945 C946 1.392 . S
C945 C949 1.495 . S
C946 C945 1.392 . S
C946 C947 1.385 1_455 S
C946 C948 1.478 . S
C947 H941 0.930 . S
C947 C943 1.400 . S
C947 C946 1.385 1_655 S
C948 C946 1.478 . S
C948 C950 1.381 1_455 S
C948 C954 1.383 . S
C949 C945 1.495 . S
C949 H955 0.959 . S
C949 H956 0.961 . S
C949 H957 0.960 . S
C950 C948 1.381 1_655 S
C950 C951 1.394 . S
C950 H958 0.930 . S
C951 C950 1.394 . S
C951 C952 1.383 1_655 S
C951 H959 0.929 . S
C952 C951 1.383 1_455 S
C952 C953 1.377 . S
C953 H937 0.930 . S
C953 C952 1.377 . S
C953 C954 1.379 . S
C954 H938 0.931 . S
C954 C948 1.383 . S
C954 C953 1.379 . S
H955 C949 0.959 . S
H956 C949 0.961 . S
H957 C949 0.960 . S
H958 C950 0.930 . S
H959 C951 0.929 . S
C321 C6 0.437 . S
C340 C303 0.353 . S
C357 C59 1.842 . S
C376 C239 1.794 . S
C393 C86 1.161 . S
C412 C271 1.121 . S
C429 C15 0.370 . S
C448 C297 0.348 . S
C484 C233 1.863 . S
C465 C50 1.895 . S
C520 C265 1.211 . S
C501 C95 1.226 . S
C537 C46 1.164 . S
C556 C175 1.129 . S
C573 C99 2.999 . S
C592 C207 2.927 . S
C609 C10 1.919 . S
C628 C137 1.875 . S
C664 C169 1.189 . S
C645 C55 1.212 . S
C700 C201 2.899 . S
C681 C90 2.918 . S
C717 C19 1.833 . S
C736 C143 1.770 . S
C772 C213 1.706 . S
C753 C18 1.695 . S
C789 C49 1.344 . S
C808 C149 1.333 . S
C825 C98 1.457 . S
C844 C181 1.458 . S
C880 C277 1.430 . S
C861 C58 1.449 . S
C916 C309 1.085 . S
C897 C89 1.097 . S
C933 C9 1.339 . S
C952 C245 1.322 . S
