# Generated by pormake.
# Topology rtl, (3,6)-cn, num edge types: 1
# Building blocks:
#     Node 0, Type 0, BuildingBlock: BETDAH_clean_linker_0, # of connection points: 3
#     Node 1, Type 0, BuildingBlock: BETDAH_clean_linker_0, # of connection points: 3
#     Node 2, Type 0, BuildingBlock: BETDAH_clean_linker_0, # of connection points: 3
#     Node 3, Type 0, BuildingBlock: BETDAH_clean_linker_0, # of connection points: 3
#     Node 4, Type 1, BuildingBlock: FUNLAD_clean_sbu_0, # of connection points: 6
#     Node 5, Type 1, BuildingBlock: FUNLAD_clean_sbu_0, # of connection points: 6
#     Edge 6, Type (0, 1), BuildingBlock: FUNLAD_clean_linker_0, # of connection points: 2
#     Edge 7, Type (0, 1), BuildingBlock: FUNLAD_clean_linker_0, # of connection points: 2
#     Edge 8, Type (0, 1), BuildingBlock: FUNLAD_clean_linker_0, # of connection points: 2
#     Edge 9, Type (0, 1), BuildingBlock: FUNLAD_clean_linker_0, # of connection points: 2
#     Edge 10, Type (0, 1), BuildingBlock: FUNLAD_clean_linker_0, # of connection points: 2
#     Edge 11, Type (0, 1), BuildingBlock: FUNLAD_clean_linker_0, # of connection points: 2
#     Edge 12, Type (0, 1), BuildingBlock: FUNLAD_clean_linker_0, # of connection points: 2
#     Edge 13, Type (0, 1), BuildingBlock: FUNLAD_clean_linker_0, # of connection points: 2
#     Edge 14, Type (0, 1), BuildingBlock: FUNLAD_clean_linker_0, # of connection points: 2
#     Edge 15, Type (0, 1), BuildingBlock: FUNLAD_clean_linker_0, # of connection points: 2
#     Edge 16, Type (0, 1), BuildingBlock: FUNLAD_clean_linker_0, # of connection points: 2
#     Edge 17, Type (0, 1), BuildingBlock: FUNLAD_clean_linker_0, # of connection points: 2
# Relax obj value: 0.002
# Max RMSD: 0.047
# Mean RMSD: 0.031
data_MOF--net-rtl--node1-FUNLAD_clean_sbu_0--node2-BETDAH_clean_linker_0--edge1-FUNLAD_clean_linker_0
_symmetry_space_group_name_H-M    P1
_symmetry_Int_Tables_number       1
_symmetry_cell_setting            triclinic
loop_
_symmetry_equiv_pos_as_xyz
'x, y, z'
_cell_length_a     46.08227
_cell_length_b     46.091671
_cell_length_c     24.598435
_cell_angle_alpha  91.193448
_cell_angle_beta   92.036482
_cell_angle_gamma 90.158259
loop_
_atom_site_label
_atom_site_type_symbol
_atom_site_fract_x
_atom_site_fract_y
_atom_site_fract_z
_atom_type_partial_charge
H0 H 0.15088 0.88336 0.02084 0.0
H1 H 0.18562 0.80235 0.07781 0.0
H2 H 0.17895 0.81846 0.90644 0.0
C3 C 0.16065 0.86243 0.0125 0.0
C4 C 0.16458 0.85349 0.95844 0.0
C5 C 0.16796 0.84413 0.05584 0.0
C6 C 0.18035 0.81685 0.0448 0.0
C7 C 0.18474 0.80791 0.99067 0.0
C8 C 0.17652 0.82609 0.94802 0.0
N9 N 0.19507 0.77987 0.97723 0.0
C10 C 0.21754 0.76606 0.00533 0.0
H11 H 0.62909 0.64499 0.53767 0.0
H12 H 0.65181 0.71658 0.43823 0.0
H13 H 0.67361 0.71943 0.6096 0.0
C14 C 0.63939 0.66597 0.53348 0.0
C15 C 0.65153 0.68045 0.57971 0.0
C16 C 0.63947 0.67871 0.48225 0.0
C17 C 0.65219 0.70614 0.47733 0.0
C18 C 0.66503 0.72058 0.52269 0.0
C19 C 0.66463 0.70781 0.57411 0.0
N20 N 0.67598 0.74894 0.51596 0.0
C21 C 0.70278 0.75842 0.53702 0.0
H22 H 0.86663 0.12588 0.00506 0.0
H23 H 0.84462 0.20975 0.07193 0.0
H24 H 0.84761 0.1969 0.89904 0.0
C25 C 0.85973 0.14811 -0.00064 0.0
C26 C 0.85689 0.15884 0.94644 0.0
C27 C 0.85556 0.16625 0.04503 0.0
C28 C 0.84731 0.19526 0.03723 0.0
C29 C 0.84388 0.20602 0.98448 0.0
C30 C 0.84886 0.1879 0.93942 0.0
N31 N 0.83927 0.23593 0.97644 0.0
C32 C 0.81262 0.24895 0.98442 0.0
H33 H 0.3847 0.36751 0.50833 0.0
H34 H 0.30632 0.33193 0.57051 0.0
H35 H 0.31527 0.33908 0.3982 0.0
C36 C 0.36365 0.35728 0.50114 0.0
C37 C 0.35245 0.35365 0.44762 0.0
C38 C 0.34721 0.34969 0.54576 0.0
C39 C 0.31938 0.33754 0.53646 0.0
C40 C 0.30803 0.3337 0.48298 0.0
C41 C 0.32442 0.34206 0.43913 0.0
N42 N 0.27945 0.3233 0.47198 0.0
C43 C 0.26776 0.29949 0.49712 0.0
C44 C 0.04006 0.97307 0.41637 0.0
N45 N 0.05441 0.05331 0.49767 0.0
C46 C 0.08325 0.04738 0.50362 0.0
C47 C 0.10352 0.06994 0.50993 0.0
C48 C 0.09404 0.09892 0.51001 0.0
C49 C 0.06417 0.10431 0.50257 0.0
C50 C 0.04469 0.08114 0.49666 0.0
Zn51 Zn 0.02449 0.02028 0.49437 0.0
C52 C 0.97678 0.03013 0.41129 0.0
N53 N 0.96113 0.95213 0.49047 0.0
C54 C 0.96937 0.92387 0.49392 0.0
C55 C 0.9326 0.95968 0.49004 0.0
C56 C 0.91112 0.93856 0.4946 0.0
C57 C 0.91898 0.90929 0.49963 0.0
C58 C 0.94854 0.90198 0.49841 0.0
Zn59 Zn 0.99162 0.98463 0.49136 0.0
O60 O 0.04801 0.99786 0.43513 0.0
C61 C 0.03841 0.97477 0.57521 0.0
O62 O 0.01679 0.96168 0.43277 0.0
H63 H 0.92647 0.98224 0.48722 0.0
H64 H 0.09052 0.0251 0.50448 0.0
H65 H 0.99218 0.91834 0.49449 0.0
O66 O 0.04815 0.9984 0.55711 0.0
O67 O 0.0149 0.96421 0.55475 0.0
H68 H 0.02168 0.08543 0.49201 0.0
O69 O 0.96746 0.00822 0.55041 0.0
O70 O 1.00088 0.04217 0.55367 0.0
O71 O 0.96849 0.00567 0.42803 0.0
O72 O 0.99989 0.04161 0.43194 0.0
C73 C 0.97714 0.03221 0.57015 0.0
H74 H 0.12628 0.0647 0.516 0.0
H75 H 0.05586 0.12625 0.50129 0.0
H76 H 0.88857 0.94513 0.49438 0.0
H77 H 0.95558 0.87971 0.5025 0.0
C78 C 0.484 0.47151 0.92295 0.0
N79 N 0.56143 0.45735 0.01314 0.0
C80 C 0.55429 0.42874 0.01552 0.0
C81 C 0.57597 0.40767 0.01905 0.0
C82 C 0.60529 0.41609 0.01968 0.0
C83 C 0.61203 0.44577 0.01723 0.0
C84 C 0.58967 0.46613 0.01415 0.0
Zn85 Zn 0.52913 0.4877 0.00793 0.0
C86 C 0.5426 0.53399 0.92865 0.0
N87 N 0.46164 0.55113 -0.00266 0.0
C88 C 0.43376 0.54126 0.99415 0.0
C89 C 0.46764 0.58005 0.00115 0.0
C90 C 0.44508 0.60027 0.00281 0.0
C91 C 0.41609 0.59063 0.0003 0.0
C92 C 0.41062 0.56067 0.9955 0.0
Zn93 Zn 0.49438 0.52115 0.0012 0.0
O94 O 0.50762 0.46288 0.94533 0.0
C95 C 0.4811 0.47541 0.08113 0.0
O96 O 0.47338 0.4957 0.938 0.0
H97 H 0.48995 0.58744 0.00373 0.0
H98 H 0.53172 0.42221 0.01446 0.0
H99 H 0.42942 0.5182 0.99169 0.0
O100 O 0.50549 0.46551 0.06707 0.0
O101 O 0.47142 0.49843 0.05972 0.0
H102 H 0.59488 0.48898 0.01254 0.0
O103 O 0.51576 0.54567 0.0644 0.0
O104 O 0.55022 0.513 0.0705 0.0
O105 O 0.51819 0.5438 0.94305 0.0
O106 O 0.55214 0.51053 0.94882 0.0
C107 C 0.53945 0.53695 0.08639 0.0
H108 H 0.56985 0.385 0.02028 0.0
H109 H 0.63436 0.45321 0.01823 0.0
H110 H 0.45028 0.62318 0.00596 0.0
H111 H 0.38865 0.55221 0.99425 0.0
C112 C 0.22759 0.27547 0.54203 0.0
C113 C 0.2534 0.27356 0.51389 0.0
C114 C 0.21108 0.25053 0.55029 0.0
C115 C 0.22004 0.22331 0.52971 0.0
C116 C 0.24681 0.22147 0.50422 0.0
C117 C 0.26328 0.24643 0.49606 0.0
C118 C 0.20179 0.19665 0.53175 0.0
C119 C 0.17272 0.19715 0.53637 0.0
C120 C 0.15396 0.17083 0.53184 0.0
C121 C 0.12672 0.17159 0.55555 0.0
C122 C 0.10755 0.14813 0.54925 0.0
C123 C 0.115 0.1234 0.51834 0.0
H124 H 0.18199 0.14487 0.4809 0.0
C125 C 0.14237 0.12254 0.49483 0.0
C126 C 0.16163 0.14598 0.50139 0.0
H127 H 0.14863 0.10408 0.46997 0.0
H128 H 0.2197 0.29636 0.55606 0.0
H129 H 0.1912 0.25286 0.57199 0.0
H130 H 0.25444 0.20085 0.48845 0.0
H131 H 0.28314 0.24464 0.47393 0.0
H132 H 0.21261 0.17599 0.5259 0.0
H133 H 0.16172 0.21766 0.54252 0.0
H134 H 0.12017 0.19049 0.57895 0.0
H135 H 0.08688 0.1494 0.56873 0.0
C136 C 0.23864 0.71937 0.03149 0.0
C137 C 0.24205 0.74917 0.02389 0.0
C138 C 0.26299 0.70169 0.03903 0.0
C139 C 0.29116 0.7136 0.03842 0.0
C140 C 0.29431 0.7438 0.03425 0.0
C141 C 0.2699 0.76146 0.02653 0.0
C142 C 0.31753 0.69503 0.0397 0.0
C143 C 0.31754 0.66807 0.01728 0.0
C144 C 0.34373 0.6494 0.0131 0.0
C145 C 0.34265 0.62594 0.97574 0.0
C146 C 0.36627 0.60726 0.97092 0.0
C147 C 0.39159 0.61146 0.00368 0.0
H148 H 0.37071 0.6711 0.07606 0.0
C149 C 0.39284 0.63504 0.04093 0.0
C150 C 0.36915 0.65377 0.04579 0.0
H151 H 0.41185 0.63858 0.06744 0.0
H152 H 0.21722 0.70955 0.02941 0.0
H153 H 0.25966 0.67866 0.04412 0.0
H154 H 0.31572 0.75357 0.03426 0.0
H155 H 0.27288 0.78447 0.02027 0.0
H156 H 0.33773 0.70487 0.05484 0.0
H157 H 0.29761 0.65968 -0.00214 0.0
H158 H 0.32341 0.62199 0.95 0.0
H159 H 0.36468 0.58953 0.94137 0.0
C160 C 0.75508 0.7617 0.52193 0.0
C161 C 0.7308 0.77122 0.54987 0.0
C162 C 0.78126 0.77713 0.52699 0.0
C163 C 0.78338 0.80256 0.55975 0.0
C164 C 0.75936 0.81094 0.59003 0.0
C165 C 0.73319 0.79552 0.58481 0.0
C166 C 0.8096 0.82158 0.56181 0.0
C167 C 0.82839 0.82295 0.52104 0.0
C168 C 0.85232 0.84467 0.51926 0.0
C169 C 0.87559 0.83912 0.48517 0.0
C170 C 0.89749 0.85981 0.4794 0.0
C171 C 0.89641 0.88673 0.50713 0.0
H172 H 0.83355 0.87717 0.57292 0.0
C173 C 0.87324 0.89223 0.54155 0.0
C174 C 0.85143 0.87153 0.54748 0.0
H175 H 0.87189 0.91266 0.56388 0.0
H176 H 0.75352 0.74293 0.4947 0.0
H177 H 0.79949 0.76926 0.50453 0.0
H178 H 0.76043 0.83024 0.61596 0.0
H179 H 0.71454 0.80325 0.60641 0.0
H180 H 0.81225 0.83627 0.59669 0.0
H181 H 0.82583 0.80821 0.48622 0.0
H182 H 0.87669 0.81879 0.46243 0.0
H183 H 0.91487 0.855 0.45215 0.0
C184 C 0.77694 0.27705 0.03616 0.0
C185 C 0.78583 0.26484 0.98691 0.0
C186 C 0.75248 0.29501 0.03706 0.0
C187 C 0.73664 0.30097 0.98847 0.0
C188 C 0.74551 0.28814 0.9395 0.0
C189 C 0.76984 0.27017 0.93875 0.0
C190 C 0.71229 0.32206 0.98625 0.0
C191 C 0.69646 0.32969 0.02925 0.0
C192 C 0.67315 0.35189 0.02584 0.0
C193 C 0.64951 0.35001 0.06005 0.0
C194 C 0.62737 0.37072 0.0579 0.0
C195 C 0.62872 0.39405 0.02213 0.0
H196 H 0.69294 0.3781 0.96462 0.0
C197 C 0.65265 0.39621 0.9886 0.0
C198 C 0.67463 0.3754 0.99041 0.0
H199 H 0.65427 0.41389 0.96051 0.0
H200 H 0.78935 0.27339 0.07362 0.0
H201 H 0.74686 0.30502 0.07541 0.0
H202 H 0.73388 0.29247 0.90148 0.0
H203 H 0.77663 0.26106 0.90026 0.0
H204 H 0.70682 0.33122 0.94686 0.0
H205 H 0.69975 0.31868 0.06754 0.0
H206 H 0.64803 0.33234 0.08819 0.0
H207 H 0.60939 0.36869 0.08477 0.0
C208 C 0.16692 0.88097 0.13166 0.0
C209 C 0.15977 0.85307 0.11141 0.0
C210 C 0.15431 0.89194 0.17856 0.0
C211 C 0.13376 0.8754 0.2057 0.0
C212 C 0.12837 0.84667 0.18774 0.0
C213 C 0.14124 0.83559 0.14096 0.0
C214 C 0.11676 0.88775 0.25112 0.0
C215 C 0.11162 0.91643 0.25704 0.0
C216 C 0.09343 0.92957 0.29972 0.0
C217 C 0.09829 0.95877 0.3146 0.0
C218 C 0.08105 0.97268 0.35256 0.0
C219 C 0.05811 0.95785 0.37612 0.0
H220 H 0.06561 0.89226 0.31182 0.0
C221 C 0.053 0.92863 0.36109 0.0
C222 C 0.07054 0.91456 0.32332 0.0
H223 H 0.03547 0.91662 0.37846 0.0
H224 H 0.18151 0.8947 0.10998 0.0
H225 H 0.16032 0.91361 0.19248 0.0
H226 H 0.11305 0.83325 0.20832 0.0
H227 H 0.13528 0.81403 0.12605 0.0
H228 H 0.10709 0.87264 0.27857 0.0
H229 H 0.12103 0.93147 0.2292 0.0
H230 H 0.11557 0.97095 0.29674 0.0
H231 H 0.08558 0.99523 0.36303 0.0
C232 C 0.65455 0.6383 0.64184 0.0
C233 C 0.64773 0.66758 0.63367 0.0
C234 C 0.64541 0.62418 0.68796 0.0
C235 C 0.62872 0.63899 0.72659 0.0
C236 C 0.62387 0.66887 0.72023 0.0
C237 C 0.63329 0.68306 0.67425 0.0
C238 C 0.61457 0.62403 0.77201 0.0
C239 C 0.61125 0.59498 0.7744 0.0
C240 C 0.59408 0.58048 0.81612 0.0
C241 C 0.60114 0.55193 0.83018 0.0
C242 C 0.58455 0.53693 0.86694 0.0
C243 C 0.56012 0.54997 0.8897 0.0
H244 H 0.56305 0.61527 0.82788 0.0
C245 C 0.55287 0.57848 0.87533 0.0
C246 C 0.5697 0.59363 0.83901 0.0
H247 H 0.53417 0.58913 0.89212 0.0
H248 H 0.66602 0.62601 0.61137 0.0
H249 H 0.65093 0.60155 0.69194 0.0
H250 H 0.61147 0.68101 0.74956 0.0
H251 H 0.62763 0.70563 0.66878 0.0
H252 H 0.60508 0.6377 0.80316 0.0
H253 H 0.62095 0.58081 0.74449 0.0
H254 H 0.61959 0.54118 0.81264 0.0
H255 H 0.5907 0.51497 0.87704 0.0
C256 C 0.85497 0.12741 0.11481 0.0
C257 C 0.8634 0.15539 0.09999 0.0
C258 C 0.86661 0.11503 0.16211 0.0
C259 C 0.88726 0.1303 0.19532 0.0
C260 C 0.89402 0.15903 0.18249 0.0
C261 C 0.88229 0.17146 0.13524 0.0
C262 C 0.903 0.11674 0.24216 0.0
C263 C 0.90698 0.08785 0.24586 0.0
C264 C 0.92478 0.07411 0.28975 0.0
C265 C 0.91891 0.04518 0.30243 0.0
C266 C 0.93576 0.03097 0.34189 0.0
C267 C 0.95923 0.04525 0.36906 0.0
H268 H 0.95414 0.11043 0.30696 0.0
C269 C 0.96539 0.07412 0.356 0.0
C270 C 0.94834 0.08844 0.31678 0.0
H271 H 0.98337 0.08569 0.3761 0.0
H272 H 0.84 0.11476 0.08889 0.0
H273 H 0.85967 0.09337 0.17177 0.0
H274 H 0.90952 0.17146 0.2077 0.0
H275 H 0.8893 0.19302 0.12477 0.0
H276 H 0.91296 0.13121 0.27286 0.0
H277 H 0.89711 0.07328 0.21528 0.0
H278 H 0.90112 0.03353 0.28181 0.0
H279 H 0.93045 0.00871 0.35084 0.0
C280 C 0.38739 0.35028 0.61682 0.0
C281 C 0.35862 0.35709 0.60143 0.0
C282 C 0.40006 0.36165 0.66512 0.0
C283 C 0.38432 0.38058 0.69874 0.0
C284 C 0.35493 0.38572 0.68503 0.0
C285 C 0.34218 0.3741 0.63685 0.0
C286 C 0.3979 0.39632 0.74682 0.0
C287 C 0.42681 0.40019 0.75441 0.0
C288 C 0.44029 0.41815 0.79946 0.0
C289 C 0.46877 0.41185 0.81747 0.0
C290 C 0.48284 0.42904 0.8578 0.0
C291 C 0.46891 0.45331 0.88038 0.0
H292 H 0.40462 0.44846 0.80814 0.0
C293 C 0.44046 0.45981 0.86211 0.0
C294 C 0.42624 0.44239 0.82213 0.0
H295 H 0.42914 0.47839 0.87864 0.0
H296 H 0.40038 0.3368 0.59055 0.0
H297 H 0.42229 0.35586 0.67504 0.0
H298 H 0.34211 0.39984 0.71042 0.0
H299 H 0.31997 0.37978 0.62585 0.0
H300 H 0.38337 0.40632 0.7755 0.0
H301 H 0.44166 0.3902 0.72648 0.0
H302 H 0.4802 0.39351 0.80028 0.0
H303 H 0.50479 0.42345 0.87083 0.0
C304 C 0.63927 0.66163 0.38476 0.0
C305 C 0.62525 0.66378 0.43445 0.0
C306 C 0.62595 0.64706 0.34007 0.0
C307 C 0.59827 0.6345 0.34427 0.0
C308 C 0.58403 0.63729 0.39356 0.0
C309 C 0.59745 0.65158 0.43834 0.0
C310 C 0.5833 0.61894 0.29787 0.0
C311 C 0.59756 0.60441 0.25904 0.0
C312 C 0.58234 0.58765 0.21437 0.0
C313 C 0.59594 0.56321 0.19196 0.0
C314 C 0.582 0.54665 0.15051 0.0
C315 C 0.55431 0.5545 0.13006 0.0
H316 H 0.54409 0.61504 0.20842 0.0
C317 C 0.54099 0.57939 0.15162 0.0
C318 C 0.55484 0.5958 0.19332 0.0
H319 H 0.51979 0.58618 0.13641 0.0
H320 H 0.66069 0.67091 0.38068 0.0
H321 H 0.63723 0.64604 0.30222 0.0
H322 H 0.56257 0.6281 0.39766 0.0
H323 H 0.58595 0.65333 0.47591 0.0
H324 H 0.55975 0.6178 0.29796 0.0
H325 H 0.62109 0.60303 0.26199 0.0
H326 H 0.61724 0.55664 0.20711 0.0
H327 H 0.59296 0.52773 0.13447 0.0
C328 C 0.89095 0.12419 0.90239 0.0
C329 C 0.86531 0.14059 0.89919 0.0
C330 C 0.9001 0.1083 0.85736 0.0
C331 C 0.8839 0.10856 0.80785 0.0
C332 C 0.85772 0.12403 0.80506 0.0
C333 C 0.84862 0.14016 0.8502 0.0
C334 C 0.89433 0.09315 0.75872 0.0
C335 C 0.9228 0.09187 0.74844 0.0
C336 C 0.93483 0.07719 0.70006 0.0
C337 C 0.96193 0.08643 0.68274 0.0
C338 C 0.97519 0.07221 0.63974 0.0
C339 C 0.96185 0.04804 0.61346 0.0
H340 H 0.90044 0.04525 0.68631 0.0
C341 C 0.93453 0.03885 0.63033 0.0
C342 C 0.92107 0.05334 0.67323 0.0
H343 H 0.92375 0.02024 0.61096 0.0
H344 H 0.90443 0.12422 0.93939 0.0
H345 H 0.91997 0.09592 0.86139 0.0
H346 H 0.84471 0.12429 0.7675 0.0
H347 H 0.82861 0.15237 0.84677 0.0
H348 H 0.87832 0.08447 0.7292 0.0
H349 H 0.93821 0.10331 0.77573 0.0
H350 H 0.97306 0.10464 0.70287 0.0
H351 H 0.99625 0.07988 0.6279 0.0
C352 C 0.35591 0.37758 0.35723 0.0
C353 C 0.36954 0.36326 0.40105 0.0
C354 C 0.37213 0.38787 0.31474 0.0
C355 C 0.4025 0.38448 0.31547 0.0
C356 C 0.41597 0.36934 0.35834 0.0
C357 C 0.39972 0.35889 0.4007 0.0
C358 C 0.42083 0.39638 0.27253 0.0
C359 C 0.41261 0.41891 0.24154 0.0
C360 C 0.43096 0.43246 0.20031 0.0
C361 C 0.4222 0.45932 0.17949 0.0
C362 C 0.43846 0.47316 0.14086 0.0
C363 C 0.46399 0.46048 0.12199 0.0
H364 H 0.46365 0.39853 0.1944 0.0
C365 C 0.47276 0.4335 0.14228 0.0
C366 C 0.45636 0.41952 0.18081 0.0
H367 H 0.49219 0.42303 0.1281 0.0
H368 H 0.33272 0.38142 0.3562 0.0
H369 H 0.36064 0.3984 0.28156 0.0
H370 H 0.43925 0.36599 0.3596 0.0
H371 H 0.41084 0.34744 0.43328 0.0
H372 H 0.44241 0.38734 0.26924 0.0
H373 H 0.39186 0.42918 0.24834 0.0
H374 H 0.40269 0.46978 0.19335 0.0
H375 H 0.43102 0.49391 0.12599 0.0
C376 C 0.12697 0.88515 0.91412 0.0
C377 C 0.15433 0.87182 0.9128 0.0
C378 C 0.11642 0.90099 0.86999 0.0
C379 C 0.13294 0.90373 0.82336 0.0
C380 C 0.16072 0.89136 0.82281 0.0
C381 C 0.17125 0.87534 0.86694 0.0
C382 C 0.12151 0.91913 0.77476 0.0
C383 C 0.09308 0.91874 0.76015 0.0
C384 C 0.0806 0.93288 0.71105 0.0
C385 C 0.05406 0.92244 0.68874 0.0
C386 C 0.04076 0.93572 0.64402 0.0
C387 C 0.05352 0.96006 0.6209 0.0
H388 H 0.11374 0.96618 0.7046 0.0
C389 C 0.08018 0.97055 0.64301 0.0
C390 C 0.09363 0.95709 0.6877 0.0
H391 H 0.09048 0.98936 0.62626 0.0
H392 H 0.11337 0.88274 0.94877 0.0
H393 H 0.09528 0.91101 0.87252 0.0
H394 H 0.17401 0.89348 0.78763 0.0
H395 H 0.19257 0.86561 0.86513 0.0
H396 H 0.13705 0.92912 0.74869 0.0
H397 H 0.07823 0.90613 0.78369 0.0
H398 H 0.04349 0.90395 0.7061 0.0
H399 H 0.02019 0.92711 0.62813 0.0
loop_
_geom_bond_atom_site_label_1
_geom_bond_atom_site_label_2
_geom_bond_distance
_geom_bond_site_symmetry_2
_ccdc_geom_bond_type
H0 C3 0.929 . S
H1 C6 0.929 . S
H2 C8 0.930 . S
C3 H0 0.929 . S
C3 C4 1.398 1_554 S
C3 C5 1.396 . S
C4 C3 1.398 1_556 S
C4 C8 1.407 . S
C5 C3 1.396 . S
C5 C6 1.394 . S
C6 H1 0.929 . S
C6 C5 1.394 . S
C6 C7 1.382 . S
C7 C6 1.382 . S
C7 C8 1.392 1_554 S
C7 N9 1.420 1_554 S
C8 H2 0.930 . S
C8 C4 1.407 . S
C8 C7 1.392 1_556 S
N9 C7 1.420 1_556 S
N9 C10 1.244 1_556 S
C10 N9 1.244 1_554 S
H11 C14 0.929 . S
H12 C17 0.929 . S
H13 C19 0.930 . S
C14 H11 0.929 . S
C14 C15 1.398 . S
C14 C16 1.396 . S
C15 C14 1.398 . S
C15 C19 1.407 . S
C16 C14 1.396 . S
C16 C17 1.394 . S
C17 H12 0.929 . S
C17 C16 1.394 . S
C17 C18 1.382 . S
C18 C17 1.382 . S
C18 C19 1.392 . S
C18 N20 1.420 . S
C19 H13 0.930 . S
C19 C15 1.407 . S
C19 C18 1.392 . S
N20 C18 1.420 . S
N20 C21 1.244 . S
C21 N20 1.244 . S
H22 C25 0.931 . S
H23 C28 0.929 . S
H24 C30 0.930 . S
C25 H22 0.931 . S
C25 C26 1.381 1_554 S
C25 C27 1.411 . S
C26 C25 1.381 1_556 S
C26 C30 1.407 . S
C27 C25 1.411 . S
C27 C28 1.394 . S
C28 H23 0.929 . S
C28 C27 1.394 . S
C28 C29 1.382 1_554 S
C29 C28 1.382 1_556 S
C29 C30 1.392 . S
C29 N31 1.420 . S
C30 H24 0.930 . S
C30 C26 1.407 . S
C30 C29 1.392 . S
N31 C29 1.420 . S
N31 C32 1.244 1_556 S
C32 N31 1.244 1_554 S
H33 C36 0.929 . S
H34 C39 0.929 . S
H35 C41 0.930 . S
C36 H33 0.929 . S
C36 C37 1.398 . S
C36 C38 1.396 . S
C37 C36 1.398 . S
C37 C41 1.407 . S
C38 C36 1.396 . S
C38 C39 1.394 . S
C39 H34 0.929 . S
C39 C38 1.394 . S
C39 C40 1.382 . S
C40 C39 1.382 . S
C40 C41 1.392 . S
C40 N42 1.420 . S
C41 H35 0.930 . S
C41 C37 1.407 . S
C41 C40 1.392 . S
N42 C40 1.420 . S
N42 C43 1.244 . S
C43 N42 1.244 . S
C44 O60 1.223 1_565 S
C44 O62 1.254 . S
N45 C46 1.333 . S
N45 C50 1.307 . S
N45 Zn51 2.020 . S
C46 N45 1.333 . S
C46 C47 1.379 . S
C46 H64 0.952 . S
C47 C46 1.379 . S
C47 C48 1.390 . S
C47 H74 0.949 . S
C48 C47 1.390 . S
C48 C49 1.357 . S
C49 C48 1.357 . S
C49 C50 1.370 . S
C49 H75 0.950 . S
C50 N45 1.307 . S
C50 C49 1.370 . S
C50 H68 0.948 . S
Zn51 N45 2.020 . S
Zn51 O60 2.058 . S
Zn51 O66 2.011 1_545 S
Zn51 O70 2.025 1_455 S
Zn51 O72 2.024 1_455 S
C52 O71 1.246 . S
C52 O72 1.249 . S
N53 C54 1.307 . S
N53 C55 1.333 . S
N53 Zn59 2.020 . S
C54 N53 1.307 . S
C54 C58 1.370 . S
C54 H65 0.948 . S
C55 N53 1.333 . S
C55 C56 1.379 . S
C55 H63 0.952 . S
C56 C55 1.379 . S
C56 C57 1.390 . S
C56 H76 0.949 . S
C57 C56 1.390 . S
C57 C58 1.357 . S
C58 C54 1.370 . S
C58 C57 1.357 . S
C58 H77 0.950 . S
Zn59 N53 2.020 . S
Zn59 O62 2.025 1_655 S
Zn59 O67 2.024 1_655 S
Zn59 O69 2.039 1_565 S
Zn59 O71 2.034 1_565 S
O60 C44 1.223 1_545 S
O60 Zn51 2.058 . S
C61 O66 1.276 . S
C61 O67 1.249 . S
O62 C44 1.254 . S
O62 Zn59 2.025 1_455 S
H63 C55 0.952 . S
H64 C46 0.952 . S
H65 C54 0.948 . S
O66 Zn51 2.011 1_565 S
O66 C61 1.276 . S
O67 Zn59 2.024 1_455 S
O67 C61 1.249 . S
H68 C50 0.948 . S
O69 Zn59 2.039 1_545 S
O69 C73 1.251 . S
O70 Zn51 2.025 1_655 S
O70 C73 1.254 . S
O71 C52 1.246 . S
O71 Zn59 2.034 1_545 S
O72 Zn51 2.024 1_655 S
O72 C52 1.249 . S
C73 O69 1.251 . S
C73 O70 1.254 . S
H74 C47 0.949 . S
H75 C49 0.950 . S
H76 C56 0.949 . S
H77 C58 0.950 . S
C78 O94 1.251 . S
C78 O96 1.254 . S
N79 C80 1.333 . S
N79 C84 1.307 . S
N79 Zn85 2.020 . S
C80 N79 1.333 . S
C80 C81 1.379 . S
C80 H98 0.952 1_554 S
C81 C80 1.379 . S
C81 C82 1.390 . S
C81 H108 0.949 1_554 S
C82 C81 1.390 . S
C82 C83 1.357 . S
C83 C82 1.357 . S
C83 C84 1.370 . S
C83 H109 0.950 . S
C84 N79 1.307 . S
C84 C83 1.370 . S
C84 H102 0.948 . S
Zn85 N79 2.020 . S
Zn85 O94 2.039 1_554 S
Zn85 O100 2.034 . S
Zn85 O104 2.025 . S
Zn85 O106 2.024 1_554 S
C86 O105 1.246 . S
C86 O106 1.249 . S
N87 C88 1.307 . S
N87 C89 1.333 . S
N87 Zn93 2.020 . S
C88 N87 1.307 . S
C88 C92 1.370 . S
C88 H99 0.948 1_554 S
C89 N87 1.333 . S
C89 C90 1.379 . S
C89 H97 0.952 . S
C90 C89 1.379 . S
C90 C91 1.390 . S
C90 H110 0.949 . S
C91 C90 1.390 . S
C91 C92 1.357 . S
C92 C88 1.370 . S
C92 C91 1.357 . S
C92 H111 0.950 1_554 S
Zn93 N87 2.020 . S
Zn93 O96 2.025 1_554 S
Zn93 O101 2.024 . S
Zn93 O103 2.039 . S
Zn93 O105 2.034 1_554 S
O94 C78 1.251 . S
O94 Zn85 2.039 1_556 S
C95 O100 1.246 . S
C95 O101 1.249 . S
O96 C78 1.254 . S
O96 Zn93 2.025 1_556 S
H97 C89 0.952 . S
H98 C80 0.952 1_556 S
H99 C88 0.948 1_556 S
O100 Zn85 2.034 . S
O100 C95 1.246 . S
O101 Zn93 2.024 . S
O101 C95 1.249 . S
H102 C84 0.948 . S
O103 Zn93 2.039 . S
O103 C107 1.251 . S
O104 Zn85 2.025 . S
O104 C107 1.254 . S
O105 C86 1.246 . S
O105 Zn93 2.034 1_556 S
O106 Zn85 2.024 1_556 S
O106 C86 1.249 . S
C107 O103 1.251 . S
C107 O104 1.254 . S
H108 C81 0.949 1_556 S
H109 C83 0.950 . S
H110 C90 0.949 . S
H111 C92 0.950 1_556 S
C112 C113 1.386 . S
C112 C114 1.383 . S
C112 H128 0.951 . S
C113 C112 1.386 . S
C113 C117 1.383 . S
C114 C112 1.383 . S
C114 C115 1.402 . S
C114 H129 0.951 . S
C115 C114 1.402 . S
C115 C116 1.375 . S
C115 C118 1.481 . S
C116 C115 1.375 . S
C116 C117 1.367 . S
C116 H130 0.951 . S
C117 C113 1.383 . S
C117 C116 1.367 . S
C117 H131 0.950 . S
C118 C115 1.481 . S
C118 C119 1.297 . S
C118 H132 0.950 . S
C119 C118 1.297 . S
C119 C120 1.479 . S
C119 H133 0.950 . S
C120 C119 1.479 . S
C120 C121 1.375 . S
C120 C126 1.404 . S
C121 C120 1.375 . S
C121 C122 1.369 . S
C121 H134 0.950 . S
C122 C121 1.369 . S
C122 C123 1.392 . S
C122 H135 0.951 . S
C123 C122 1.392 . S
C123 C125 1.384 . S
H124 C126 0.949 . S
C125 C123 1.384 . S
C125 C126 1.385 . S
C125 H127 0.950 . S
C126 C120 1.404 . S
C126 H124 0.949 . S
C126 C125 1.385 . S
H127 C125 0.950 . S
H128 C112 0.951 . S
H129 C114 0.951 . S
H130 C116 0.951 . S
H131 C117 0.950 . S
H132 C118 0.950 . S
H133 C119 0.950 . S
H134 C121 0.950 . S
H135 C122 0.951 . S
C136 C137 1.386 1_556 S
C136 C138 1.383 . S
C136 H152 0.951 . S
C137 C136 1.386 1_554 S
C137 C141 1.383 . S
C138 C136 1.383 . S
C138 C139 1.402 1_556 S
C138 H153 0.951 . S
C139 C138 1.402 1_554 S
C139 C140 1.375 . S
C139 C142 1.481 . S
C140 C139 1.375 . S
C140 C141 1.367 . S
C140 H154 0.951 . S
C141 C137 1.383 . S
C141 C140 1.367 . S
C141 H155 0.950 . S
C142 C139 1.481 . S
C142 C143 1.297 . S
C142 H156 0.950 . S
C143 C142 1.297 . S
C143 C144 1.479 . S
C143 H157 0.950 1_554 S
C144 C143 1.479 . S
C144 C145 1.375 1_554 S
C144 C150 1.404 . S
C145 C144 1.375 1_556 S
C145 C146 1.369 . S
C145 H158 0.950 . S
C146 C145 1.369 . S
C146 C147 1.392 1_556 S
C146 H159 0.951 . S
C147 C146 1.392 1_554 S
C147 C149 1.384 . S
H148 C150 0.949 . S
C149 C147 1.384 . S
C149 C150 1.385 . S
C149 H151 0.950 . S
C150 C144 1.404 . S
C150 H148 0.949 . S
C150 C149 1.385 . S
H151 C149 0.950 . S
H152 C136 0.951 . S
H153 C138 0.951 . S
H154 C140 0.951 . S
H155 C141 0.950 . S
H156 C142 0.950 . S
H157 C143 0.950 1_556 S
H158 C145 0.950 . S
H159 C146 0.951 . S
C160 C161 1.386 . S
C160 C162 1.383 . S
C160 H176 0.951 . S
C161 C160 1.386 . S
C161 C165 1.383 . S
C162 C160 1.383 . S
C162 C163 1.402 . S
C162 H177 0.951 . S
C163 C162 1.402 . S
C163 C164 1.375 . S
C163 C166 1.481 . S
C164 C163 1.375 . S
C164 C165 1.367 . S
C164 H178 0.951 . S
C165 C161 1.383 . S
C165 C164 1.367 . S
C165 H179 0.950 . S
C166 C163 1.481 . S
C166 C167 1.297 . S
C166 H180 0.950 . S
C167 C166 1.297 . S
C167 C168 1.479 . S
C167 H181 0.950 . S
C168 C167 1.479 . S
C168 C169 1.375 . S
C168 C174 1.404 . S
C169 C168 1.375 . S
C169 C170 1.369 . S
C169 H182 0.950 . S
C170 C169 1.369 . S
C170 C171 1.392 . S
C170 H183 0.951 . S
C171 C170 1.392 . S
C171 C173 1.384 . S
H172 C174 0.949 . S
C173 C171 1.384 . S
C173 C174 1.385 . S
C173 H175 0.950 . S
C174 C168 1.404 . S
C174 H172 0.949 . S
C174 C173 1.385 . S
H175 C173 0.950 . S
H176 C160 0.951 . S
H177 C162 0.951 . S
H178 C164 0.951 . S
H179 C165 0.950 . S
H180 C166 0.950 . S
H181 C167 0.950 . S
H182 C169 0.950 . S
H183 C170 0.951 . S
C184 C185 1.386 . S
C184 C186 1.383 . S
C184 H200 0.951 . S
C185 C184 1.386 . S
C185 C189 1.383 1_554 S
C186 C184 1.383 . S
C186 C187 1.389 1_554 S
C186 H201 0.951 . S
C187 C186 1.389 1_556 S
C187 C188 1.386 . S
C187 C190 1.482 . S
C188 C187 1.386 . S
C188 C189 1.367 . S
C188 H202 0.951 . S
C189 C185 1.383 1_556 S
C189 C188 1.367 . S
C189 H203 0.950 . S
C190 C187 1.482 . S
C190 C191 1.297 1_556 S
C190 H204 0.950 . S
C191 C190 1.297 1_554 S
C191 C192 1.479 . S
C191 H205 0.950 . S
C192 C191 1.479 . S
C192 C193 1.375 . S
C192 C198 1.404 1_554 S
C193 C192 1.375 . S
C193 C194 1.369 . S
C193 H206 0.950 . S
C194 C193 1.369 . S
C194 C195 1.392 . S
C194 H207 0.951 . S
C195 C194 1.392 . S
C195 C197 1.384 1_554 S
H196 C198 0.949 . S
C197 C195 1.384 1_556 S
C197 C198 1.385 . S
C197 H199 0.950 . S
C198 C192 1.404 1_556 S
C198 H196 0.949 . S
C198 C197 1.385 . S
H199 C197 0.950 . S
H200 C184 0.951 . S
H201 C186 0.951 . S
H202 C188 0.951 . S
H203 C189 0.950 . S
H204 C190 0.950 . S
H205 C191 0.950 . S
H206 C193 0.950 . S
H207 C194 0.951 . S
C208 C209 1.386 . S
C208 C210 1.383 . S
C208 H224 0.951 . S
C209 C208 1.386 . S
C209 C213 1.383 . S
C210 C208 1.383 . S
C210 C211 1.402 . S
C210 H225 0.951 . S
C211 C210 1.402 . S
C211 C212 1.375 . S
C211 C214 1.481 . S
C212 C211 1.375 . S
C212 C213 1.367 . S
C212 H226 0.951 . S
C213 C209 1.383 . S
C213 C212 1.367 . S
C213 H227 0.950 . S
C214 C211 1.481 . S
C214 C215 1.297 . S
C214 H228 0.950 . S
C215 C214 1.297 . S
C215 C216 1.479 . S
C215 H229 0.950 . S
C216 C215 1.479 . S
C216 C217 1.375 . S
C216 C222 1.404 . S
C217 C216 1.375 . S
C217 C218 1.369 . S
C217 H230 0.950 . S
C218 C217 1.369 . S
C218 C219 1.392 . S
C218 H231 0.951 . S
C219 C218 1.392 . S
C219 C221 1.384 . S
H220 C222 0.949 . S
C221 C219 1.384 . S
C221 C222 1.385 . S
C221 H223 0.950 . S
C222 C216 1.404 . S
C222 H220 0.949 . S
C222 C221 1.385 . S
H223 C221 0.950 . S
H224 C208 0.951 . S
H225 C210 0.951 . S
H226 C212 0.951 . S
H227 C213 0.950 . S
H228 C214 0.950 . S
H229 C215 0.950 . S
H230 C217 0.950 . S
H231 C218 0.951 . S
C232 C233 1.386 . S
C232 C234 1.383 . S
C232 H248 0.951 . S
C233 C232 1.386 . S
C233 C237 1.383 . S
C234 C232 1.383 . S
C234 C235 1.402 . S
C234 H249 0.951 . S
C235 C234 1.402 . S
C235 C236 1.375 . S
C235 C238 1.481 . S
C236 C235 1.375 . S
C236 C237 1.367 . S
C236 H250 0.951 . S
C237 C233 1.383 . S
C237 C236 1.367 . S
C237 H251 0.950 . S
C238 C235 1.481 . S
C238 C239 1.297 . S
C238 H252 0.950 . S
C239 C238 1.297 . S
C239 C240 1.479 . S
C239 H253 0.950 . S
C240 C239 1.479 . S
C240 C241 1.375 . S
C240 C246 1.404 . S
C241 C240 1.375 . S
C241 C242 1.369 . S
C241 H254 0.950 . S
C242 C241 1.369 . S
C242 C243 1.392 . S
C242 H255 0.951 . S
C243 C242 1.392 . S
C243 C245 1.384 . S
H244 C246 0.949 . S
C245 C243 1.384 . S
C245 C246 1.385 . S
C245 H247 0.950 . S
C246 C240 1.404 . S
C246 H244 0.949 . S
C246 C245 1.385 . S
H247 C245 0.950 . S
H248 C232 0.951 . S
H249 C234 0.951 . S
H250 C236 0.951 . S
H251 C237 0.950 . S
H252 C238 0.950 . S
H253 C239 0.950 . S
H254 C241 0.950 . S
H255 C242 0.951 . S
C256 C257 1.386 . S
C256 C258 1.383 . S
C256 H272 0.951 . S
C257 C256 1.386 . S
C257 C261 1.383 . S
C258 C256 1.383 . S
C258 C259 1.402 . S
C258 H273 0.951 . S
C259 C258 1.402 . S
C259 C260 1.375 . S
C259 C262 1.481 . S
C260 C259 1.375 . S
C260 C261 1.367 . S
C260 H274 0.951 . S
C261 C257 1.383 . S
C261 C260 1.367 . S
C261 H275 0.950 . S
C262 C259 1.481 . S
C262 C263 1.297 . S
C262 H276 0.950 . S
C263 C262 1.297 . S
C263 C264 1.479 . S
C263 H277 0.950 . S
C264 C263 1.479 . S
C264 C265 1.375 . S
C264 C270 1.404 . S
C265 C264 1.375 . S
C265 C266 1.369 . S
C265 H278 0.950 . S
C266 C265 1.369 . S
C266 C267 1.392 . S
C266 H279 0.951 . S
C267 C266 1.392 . S
C267 C269 1.384 . S
H268 C270 0.949 . S
C269 C267 1.384 . S
C269 C270 1.385 . S
C269 H271 0.950 . S
C270 C264 1.404 . S
C270 H268 0.949 . S
C270 C269 1.385 . S
H271 C269 0.950 . S
H272 C256 0.951 . S
H273 C258 0.951 . S
H274 C260 0.951 . S
H275 C261 0.950 . S
H276 C262 0.950 . S
H277 C263 0.950 . S
H278 C265 0.950 . S
H279 C266 0.951 . S
C280 C281 1.386 . S
C280 C282 1.383 . S
C280 H296 0.951 . S
C281 C280 1.386 . S
C281 C285 1.383 . S
C282 C280 1.383 . S
C282 C283 1.402 . S
C282 H297 0.951 . S
C283 C282 1.402 . S
C283 C284 1.375 . S
C283 C286 1.481 . S
C284 C283 1.375 . S
C284 C285 1.367 . S
C284 H298 0.951 . S
C285 C281 1.383 . S
C285 C284 1.367 . S
C285 H299 0.950 . S
C286 C283 1.481 . S
C286 C287 1.297 . S
C286 H300 0.950 . S
C287 C286 1.297 . S
C287 C288 1.479 . S
C287 H301 0.950 . S
C288 C287 1.479 . S
C288 C289 1.375 . S
C288 C294 1.404 . S
C289 C288 1.375 . S
C289 C290 1.369 . S
C289 H302 0.950 . S
C290 C289 1.369 . S
C290 C291 1.392 . S
C290 H303 0.951 . S
C291 C290 1.392 . S
C291 C293 1.384 . S
H292 C294 0.949 . S
C293 C291 1.384 . S
C293 C294 1.385 . S
C293 H295 0.950 . S
C294 C288 1.404 . S
C294 H292 0.949 . S
C294 C293 1.385 . S
H295 C293 0.950 . S
H296 C280 0.951 . S
H297 C282 0.951 . S
H298 C284 0.951 . S
H299 C285 0.950 . S
H300 C286 0.950 . S
H301 C287 0.950 . S
H302 C289 0.950 . S
H303 C290 0.951 . S
C304 C305 1.386 . S
C304 C306 1.383 . S
C304 H320 0.951 . S
C305 C304 1.386 . S
C305 C309 1.383 . S
C306 C304 1.383 . S
C306 C307 1.402 . S
C306 H321 0.951 . S
C307 C306 1.402 . S
C307 C308 1.375 . S
C307 C310 1.481 . S
C308 C307 1.375 . S
C308 C309 1.367 . S
C308 H322 0.951 . S
C309 C305 1.383 . S
C309 C308 1.367 . S
C309 H323 0.950 . S
C310 C307 1.481 . S
C310 C311 1.297 . S
C310 H324 0.950 . S
C311 C310 1.297 . S
C311 C312 1.479 . S
C311 H325 0.950 . S
C312 C311 1.479 . S
C312 C313 1.375 . S
C312 C318 1.404 . S
C313 C312 1.375 . S
C313 C314 1.369 . S
C313 H326 0.950 . S
C314 C313 1.369 . S
C314 C315 1.392 . S
C314 H327 0.951 . S
C315 C314 1.392 . S
C315 C317 1.384 . S
H316 C318 0.949 . S
C317 C315 1.384 . S
C317 C318 1.385 . S
C317 H319 0.950 . S
C318 C312 1.404 . S
C318 H316 0.949 . S
C318 C317 1.385 . S
H319 C317 0.950 . S
H320 C304 0.951 . S
H321 C306 0.951 . S
H322 C308 0.951 . S
H323 C309 0.950 . S
H324 C310 0.950 . S
H325 C311 0.950 . S
H326 C313 0.950 . S
H327 C314 0.951 . S
C328 C329 1.386 . S
C328 C330 1.383 . S
C328 H344 0.951 . S
C329 C328 1.386 . S
C329 C333 1.383 . S
C330 C328 1.383 . S
C330 C331 1.402 . S
C330 H345 0.951 . S
C331 C330 1.402 . S
C331 C332 1.375 . S
C331 C334 1.481 . S
C332 C331 1.375 . S
C332 C333 1.367 . S
C332 H346 0.951 . S
C333 C329 1.383 . S
C333 C332 1.367 . S
C333 H347 0.950 . S
C334 C331 1.481 . S
C334 C335 1.297 . S
C334 H348 0.950 . S
C335 C334 1.297 . S
C335 C336 1.479 . S
C335 H349 0.950 . S
C336 C335 1.479 . S
C336 C337 1.375 . S
C336 C342 1.404 . S
C337 C336 1.375 . S
C337 C338 1.369 . S
C337 H350 0.950 . S
C338 C337 1.369 . S
C338 C339 1.392 . S
C338 H351 0.951 . S
C339 C338 1.392 . S
C339 C341 1.384 . S
H340 C342 0.949 . S
C341 C339 1.384 . S
C341 C342 1.385 . S
C341 H343 0.950 . S
C342 C336 1.404 . S
C342 H340 0.949 . S
C342 C341 1.385 . S
H343 C341 0.950 . S
H344 C328 0.951 . S
H345 C330 0.951 . S
H346 C332 0.951 . S
H347 C333 0.950 . S
H348 C334 0.950 . S
H349 C335 0.950 . S
H350 C337 0.950 . S
H351 C338 0.951 . S
C352 C353 1.386 . S
C352 C354 1.383 . S
C352 H368 0.951 . S
C353 C352 1.386 . S
C353 C357 1.383 . S
C354 C352 1.383 . S
C354 C355 1.402 . S
C354 H369 0.951 . S
C355 C354 1.402 . S
C355 C356 1.375 . S
C355 C358 1.481 . S
C356 C355 1.375 . S
C356 C357 1.367 . S
C356 H370 0.951 . S
C357 C353 1.383 . S
C357 C356 1.367 . S
C357 H371 0.950 . S
C358 C355 1.481 . S
C358 C359 1.297 . S
C358 H372 0.950 . S
C359 C358 1.297 . S
C359 C360 1.479 . S
C359 H373 0.950 . S
C360 C359 1.479 . S
C360 C361 1.375 . S
C360 C366 1.404 . S
C361 C360 1.375 . S
C361 C362 1.369 . S
C361 H374 0.950 . S
C362 C361 1.369 . S
C362 C363 1.392 . S
C362 H375 0.951 . S
C363 C362 1.392 . S
C363 C365 1.384 . S
H364 C366 0.949 . S
C365 C363 1.384 . S
C365 C366 1.385 . S
C365 H367 0.950 . S
C366 C360 1.404 . S
C366 H364 0.949 . S
C366 C365 1.385 . S
H367 C365 0.950 . S
H368 C352 0.951 . S
H369 C354 0.951 . S
H370 C356 0.951 . S
H371 C357 0.950 . S
H372 C358 0.950 . S
H373 C359 0.950 . S
H374 C361 0.950 . S
H375 C362 0.951 . S
C376 C377 1.386 . S
C376 C378 1.383 . S
C376 H392 0.951 . S
C377 C376 1.386 . S
C377 C381 1.383 . S
C378 C376 1.383 . S
C378 C379 1.402 . S
C378 H393 0.951 . S
C379 C378 1.402 . S
C379 C380 1.375 . S
C379 C382 1.481 . S
C380 C379 1.375 . S
C380 C381 1.367 . S
C380 H394 0.951 . S
C381 C377 1.383 . S
C381 C380 1.367 . S
C381 H395 0.950 . S
C382 C379 1.481 . S
C382 C383 1.297 . S
C382 H396 0.950 . S
C383 C382 1.297 . S
C383 C384 1.479 . S
C383 H397 0.950 . S
C384 C383 1.479 . S
C384 C385 1.375 . S
C384 C390 1.404 . S
C385 C384 1.375 . S
C385 C386 1.369 . S
C385 H398 0.950 . S
C386 C385 1.369 . S
C386 C387 1.392 . S
C386 H399 0.951 . S
C387 C386 1.392 . S
C387 C389 1.384 . S
H388 C390 0.949 . S
C389 C387 1.384 . S
C389 C390 1.385 . S
C389 H391 0.950 . S
C390 C384 1.404 . S
C390 H388 0.949 . S
C390 C389 1.385 . S
H391 C389 0.950 . S
H392 C376 0.951 . S
H393 C378 0.951 . S
H394 C380 0.951 . S
H395 C381 0.950 . S
H396 C382 0.950 . S
H397 C383 0.950 . S
H398 C385 0.950 . S
H399 C386 0.951 . S
C123 C48 1.501 . S
C113 C43 1.510 . S
C137 C10 1.506 . S
C147 C91 1.496 . S
C161 C21 1.510 . S
C171 C57 1.502 . S
C185 C32 1.508 . S
C195 C82 1.490 . S
C219 C44 1.554 . S
C209 C5 1.517 . S
C243 C86 1.521 . S
C233 C15 1.545 . S
C257 C27 1.530 . S
C267 C52 1.557 . S
C281 C38 1.503 . S
C291 C78 1.536 . S
C315 C107 1.461 . S
C305 C16 1.436 . S
C339 C73 1.448 . S
C329 C26 1.458 . S
C363 C95 1.473 . S
C353 C37 1.467 . S
C377 C4 1.454 . S
C387 C61 1.455 . S
