# Generated by pormake.
# Topology zzz, (3,6)-cn, num edge types: 1
# Building blocks:
#     Node 0, Type 0, BuildingBlock: PAMTOO_clean_linker_0, # of connection points: 3
#     Node 1, Type 0, BuildingBlock: PAMTOO_clean_linker_0, # of connection points: 3
#     Node 2, Type 0, BuildingBlock: PAMTOO_clean_linker_0, # of connection points: 3
#     Node 3, Type 0, BuildingBlock: PAMTOO_clean_linker_0, # of connection points: 3
#     Node 4, Type 0, BuildingBlock: PAMTOO_clean_linker_0, # of connection points: 3
#     Node 5, Type 0, BuildingBlock: PAMTOO_clean_linker_0, # of connection points: 3
#     Node 6, Type 0, BuildingBlock: PAMTOO_clean_linker_0, # of connection points: 3
#     Node 7, Type 0, BuildingBlock: PAMTOO_clean_linker_0, # of connection points: 3
#     Node 8, Type 1, BuildingBlock: PAMTOO_clean_sbu_0, # of connection points: 6
#     Node 9, Type 1, BuildingBlock: PAMTOO_clean_sbu_0, # of connection points: 6
#     Node 10, Type 1, BuildingBlock: PAMTOO_clean_sbu_0, # of connection points: 6
#     Node 11, Type 1, BuildingBlock: PAMTOO_clean_sbu_0, # of connection points: 6
#     Edge 12, Type (0, 1), BuildingBlock: AJUNOK_clean_linker_0, # of connection points: 2
#     Edge 13, Type (0, 1), BuildingBlock: AJUNOK_clean_linker_0, # of connection points: 2
#     Edge 14, Type (0, 1), BuildingBlock: AJUNOK_clean_linker_0, # of connection points: 2
#     Edge 15, Type (0, 1), BuildingBlock: AJUNOK_clean_linker_0, # of connection points: 2
#     Edge 16, Type (0, 1), BuildingBlock: AJUNOK_clean_linker_0, # of connection points: 2
#     Edge 17, Type (0, 1), BuildingBlock: AJUNOK_clean_linker_0, # of connection points: 2
#     Edge 18, Type (0, 1), BuildingBlock: AJUNOK_clean_linker_0, # of connection points: 2
#     Edge 19, Type (0, 1), BuildingBlock: AJUNOK_clean_linker_0, # of connection points: 2
#     Edge 20, Type (0, 1), BuildingBlock: AJUNOK_clean_linker_0, # of connection points: 2
#     Edge 21, Type (0, 1), BuildingBlock: AJUNOK_clean_linker_0, # of connection points: 2
#     Edge 22, Type (0, 1), BuildingBlock: AJUNOK_clean_linker_0, # of connection points: 2
#     Edge 23, Type (0, 1), BuildingBlock: AJUNOK_clean_linker_0, # of connection points: 2
#     Edge 24, Type (0, 1), BuildingBlock: AJUNOK_clean_linker_0, # of connection points: 2
#     Edge 25, Type (0, 1), BuildingBlock: AJUNOK_clean_linker_0, # of connection points: 2
#     Edge 26, Type (0, 1), BuildingBlock: AJUNOK_clean_linker_0, # of connection points: 2
#     Edge 27, Type (0, 1), BuildingBlock: AJUNOK_clean_linker_0, # of connection points: 2
#     Edge 28, Type (0, 1), BuildingBlock: AJUNOK_clean_linker_0, # of connection points: 2
#     Edge 29, Type (0, 1), BuildingBlock: AJUNOK_clean_linker_0, # of connection points: 2
#     Edge 30, Type (0, 1), BuildingBlock: AJUNOK_clean_linker_0, # of connection points: 2
#     Edge 31, Type (0, 1), BuildingBlock: AJUNOK_clean_linker_0, # of connection points: 2
#     Edge 32, Type (0, 1), BuildingBlock: AJUNOK_clean_linker_0, # of connection points: 2
#     Edge 33, Type (0, 1), BuildingBlock: AJUNOK_clean_linker_0, # of connection points: 2
#     Edge 34, Type (0, 1), BuildingBlock: AJUNOK_clean_linker_0, # of connection points: 2
#     Edge 35, Type (0, 1), BuildingBlock: AJUNOK_clean_linker_0, # of connection points: 2
# Relax obj value: 0.281
# Max RMSD: 0.249
# Mean RMSD: 0.130
data_MOF--net-zzz--node1-PAMTOO_clean_sbu_0--node2-PAMTOO_clean_linker_0--edge1-AJUNOK_clean_linker_0
_symmetry_space_group_name_H-M    P1
_symmetry_Int_Tables_number       1
_symmetry_cell_setting            triclinic
loop_
_symmetry_equiv_pos_as_xyz
'x, y, z'
_cell_length_a     43.006362
_cell_length_b     35.052639
_cell_length_c     11.664758
_cell_angle_alpha  92.365902
_cell_angle_beta   76.289343
_cell_angle_gamma 85.874225
loop_
_atom_site_label
_atom_site_type_symbol
_atom_site_fract_x
_atom_site_fract_y
_atom_site_fract_z
_atom_type_partial_charge
H0 H 0.88332 0.47263 0.55381 0.0
H1 H 0.79986 0.51192 0.43698 0.0
H2 H 0.82736 0.57681 0.71231 0.0
H3 H 0.74349 0.59593 0.6791 0.0
C4 C 0.7537 0.57001 0.62068 0.0
O5 O 0.7861 0.57368 0.57355 0.0
H6 H 0.75065 0.54502 0.67714 0.0
C7 C 0.86217 0.49256 0.56507 0.0
C8 C 0.85788 0.52455 0.64576 0.0
C9 C 0.84145 0.48791 0.48979 0.0
C10 C 0.81535 0.51476 0.49735 0.0
C11 C 0.80994 0.54651 0.57769 0.0
C12 C 0.83116 0.55157 0.65242 0.0
H13 H 0.07751 0.81282 0.50041 0.0
H14 H 0.05114 0.71595 0.31996 0.0
H15 H 0.99062 0.7615 0.65368 0.0
H16 H 1.01777 0.66414 0.55159 0.0
C17 C 0.99918 0.67034 0.50189 0.0
O18 O 0.99786 0.70849 0.47359 0.0
H19 H 0.97608 0.66545 0.56362 0.0
C20 C 0.06219 0.78951 0.50123 0.0
C21 C 0.03449 0.78971 0.59308 0.0
C22 C 0.06866 0.76306 0.40331 0.0
C23 C 0.04719 0.73528 0.39781 0.0
C24 C 1.01946 0.73376 0.48861 0.0
C25 C 1.01279 0.76141 0.58622 0.0
H26 H 0.68567 0.0737 0.46862 0.0
H27 H 0.78161 0.07047 0.25132 0.0
H28 H 0.75845 0.99114 0.52655 0.0
H29 H 0.83431 1.01973 0.46673 0.0
C30 C 0.83175 0.03068 0.38108 0.0
O31 O 0.80578 1.01448 0.35139 0.0
H32 H 0.82675 0.06233 0.39573 0.0
C33 C 0.71067 0.06244 0.4494 0.0
C34 C 0.71895 0.03162 0.51138 0.0
C35 C 0.73292 0.0767 0.35638 0.0
C36 C 0.7647 0.06036 0.32576 0.0
C37 C 0.77466 0.03029 0.38818 0.0
C38 C 0.75146 1.01541 0.48106 0.0
H39 H 0.4847 0.68046 0.58514 0.0
H40 H 0.49556 0.74618 0.27793 0.0
H41 H 0.53764 0.78015 0.56319 0.0
H42 H 0.5511 0.79388 0.22612 0.0
C43 C 0.54223 0.81706 0.29692 0.0
O44 O 0.51584 0.80595 0.37893 0.0
H45 H 0.56194 0.82099 0.34198 0.0
C46 C 0.49391 0.70471 0.53693 0.0
C47 C 0.5144 0.72695 0.58155 0.0
C48 C 0.49156 0.70742 0.42039 0.0
C49 C 0.49945 0.74177 0.36497 0.0
C50 C 0.51342 0.77015 0.42169 0.0
C51 C 0.52349 0.76099 0.52586 0.0
H52 H 0.18175 0.59991 0.18359 0.0
H53 H 0.27092 0.57447 0.28162 0.0
H54 H 0.24185 0.4972 0.03871 0.0
H55 H 0.29713 0.45668 0.20562 0.0
C56 C 0.28816 0.48573 0.24702 0.0
O57 O 0.28647 0.51032 0.1579 0.0
H58 H 0.26377 0.48277 0.30393 0.0
C59 C 0.20416 0.5822 0.17188 0.0
C60 C 0.20953 0.54851 0.09755 0.0
C61 C 0.2258 0.59117 0.24045 0.0
C62 C 0.25423 0.56781 0.2285 0.0
C63 C 0.25989 0.53376 0.15807 0.0
C64 C 0.2375 0.52384 0.09259 0.0
H65 H 0.09199 0.19594 0.15291 0.0
H66 H 0.09455 0.30137 0.35166 0.0
H67 H 1.02411 0.2908 0.14705 0.0
H68 H 0.05251 0.38371 0.18448 0.0
C69 C 0.06239 0.37108 0.25534 0.0
O70 O 0.04747 0.33794 0.28862 0.0
H71 H 0.08854 0.36413 0.21599 0.0
C72 C 0.08436 0.22604 0.17477 0.0
C73 C 0.05767 0.24062 0.13716 0.0
C74 C 0.09715 0.24677 0.25613 0.0
C75 C 0.0855 0.28515 0.28727 0.0
C76 C 0.06007 0.3019 0.24507 0.0
C77 C 0.04544 0.27918 0.17181 0.0
H78 H 0.36214 0.96209 0.34337 0.0
H79 H 0.26444 0.95867 0.53941 0.0
H80 H 0.28692 0.03178 0.2464 0.0
H81 H 0.21727 0.05976 0.44425 0.0
C82 C 0.22178 0.03433 0.4936 0.0
O83 O 0.23901 1.00554 0.41249 0.0
H84 H 0.2366 0.04382 0.55408 0.0
C85 C 0.33682 0.97116 0.35533 0.0
C86 C 0.32782 0.99828 0.28241 0.0
C87 C 0.31437 0.95704 0.44764 0.0
C88 C 0.28176 0.9694 0.46723 0.0
C89 C 0.27134 0.99597 0.39454 0.0
C90 C 0.2946 1.01086 0.30187 0.0
H91 H 0.53026 0.38407 0.38711 0.0
H92 H 0.5392 0.2873 0.5942 0.0
H93 H 0.51613 0.27182 0.25464 0.0
H94 H 0.49026 0.20664 0.42339 0.0
C95 C 0.5012 0.21751 0.49422 0.0
O96 O 0.52826 0.23584 0.4419 0.0
H97 H 0.48303 0.23869 0.552 0.0
C98 C 0.5297 0.3534 0.39703 0.0
C99 C 0.52212 0.3304 0.30902 0.0
C100 C 0.53566 0.33838 0.49923 0.0
C101 C 0.53485 0.29892 0.51426 0.0
C102 C 0.52786 0.2744 0.42657 0.0
C103 C 0.5215 0.29032 0.32279 0.0
Dy104 Dy 1.01323 0.02746 0.80035 0.0
Dy105 Dy 0.03912 1.00507 0.02394 0.0
C106 C 0.08989 1.01457 0.77637 0.0
O107 O 1.00319 0.96583 0.81802 0.0
O108 O 0.04381 0.9506 0.90647 0.0
O109 O 1.01161 1.0163 0.61815 0.0
O110 O 0.98751 0.06837 0.71558 0.0
O111 O 0.9856 1.00439 0.09456 0.0
O112 O 0.96695 0.03065 0.94383 0.0
O113 O 1.02204 0.06767 0.06032 0.0
O114 O 1.03224 0.08049 0.86678 0.0
O115 O 0.03826 0.97144 0.17497 0.0
O116 O 0.07413 1.01198 0.12768 0.0
C117 C 1.02319 0.93991 0.84625 0.0
O118 O 0.06631 1.0106 0.72385 0.0
O119 O 0.08341 1.01959 0.89195 0.0
C120 C 1.02284 0.07528 0.53346 0.0
C121 C 0.06921 0.12824 0.4679 0.0
C122 C 0.07878 0.08908 0.46503 0.0
C123 C 0.05573 0.06278 0.49584 0.0
C124 C 1.01321 0.11388 0.52593 0.0
C125 C 0.03615 0.14005 0.49293 0.0
C126 C 1.00082 0.05173 0.61144 0.0
C127 C 0.96159 1.01775 0.05106 0.0
C128 C 1.02696 0.09263 0.97834 0.0
C129 C 0.09006 0.95189 0.18703 0.0
C130 C 0.11953 0.87769 0.18033 0.0
C131 C 0.1077 0.89903 0.28899 0.0
C132 C 0.09282 0.9359 0.29227 0.0
C133 C 0.10593 0.93292 0.0781 0.0
C134 C 0.1208 0.89599 0.07477 0.0
C135 C 0.06521 0.98301 0.19032 0.0
H136 H 0.10394 0.07893 0.44495 0.0
H137 H 0.06384 0.03301 0.49881 0.0
H138 H 0.98809 0.12432 0.55439 0.0
H139 H 1.02792 0.16991 0.49115 0.0
H140 H 0.10624 0.88557 0.3719 0.0
H141 H 0.08072 0.9502 0.37691 0.0
H142 H 0.10404 0.94502 0.99575 0.0
H143 H 0.12993 0.88022 0.9902 0.0
Dy144 Dy 0.51759 0.98928 0.78598 0.0
Dy145 Dy 0.52749 0.0464 0.99251 0.0
C146 C 0.51495 0.07898 0.76035 0.0
O147 O 0.57171 0.98463 0.75284 0.0
O148 O 0.57657 0.03766 0.86584 0.0
O149 O 0.49947 0.98164 0.6303 0.0
O150 O 0.52279 0.93319 0.69583 0.0
O151 O 0.53875 0.9876 0.05486 0.0
O152 O 0.51217 0.9533 0.94349 0.0
O153 O 0.47567 0.0356 0.06134 0.0
O154 O 0.46661 1.00756 0.8919 0.0
O155 O 0.53255 0.06458 0.16623 0.0
O156 O 0.53715 0.10467 0.02812 0.0
C157 C 0.58963 1.00991 0.78563 0.0
O158 O 0.52879 0.04622 0.70756 0.0
O159 O 0.50311 0.08047 0.87476 0.0
C160 C 0.47722 0.92335 0.62262 0.0
C161 C 0.4152 0.90384 0.61962 0.0
C162 C 0.43869 0.90568 0.51322 0.0
C163 C 0.46945 0.91547 0.51484 0.0
C164 C 0.45504 0.91759 0.72891 0.0
C165 C 0.42426 0.90754 0.72737 0.0
C166 C 0.50531 0.94448 0.62421 0.0
C167 C 0.52604 0.95577 0.03219 0.0
C168 C 0.45586 0.02218 1.00188 0.0
C169 C 0.57501 0.10512 0.14056 0.0
C170 C 0.63838 0.1191 0.14506 0.0
C171 C 0.62957 0.08142 0.13606 0.0
C172 C 0.59837 0.07452 0.13313 0.0
C173 C 0.58382 0.14288 0.1446 0.0
C174 C 0.61534 0.14988 0.14728 0.0
C175 C 0.54267 0.09734 0.13016 0.0
H176 H 0.43251 0.90324 0.42857 0.0
H177 H 0.4862 0.92 0.43217 0.0
H178 H 0.46068 0.92365 0.81323 0.0
H179 H 0.40687 0.90564 0.81051 0.0
H180 H 0.64654 0.05701 0.13598 0.0
H181 H 0.5925 0.0451 0.12584 0.0
H182 H 0.56629 0.16686 0.14677 0.0
H183 H 0.6215 0.17918 0.15349 0.0
Dy184 Dy 0.56387 0.52791 0.95865 0.0
Dy185 Dy 0.49057 0.52763 0.87943 0.0
C186 C 0.5161 0.45751 0.02288 0.0
O187 O 0.56974 0.47719 0.83152 0.0
O188 O 0.53432 0.50587 0.74188 0.0
O189 O 0.58775 0.51926 0.09795 0.0
O190 O 0.61514 0.5373 0.9302 0.0
O191 O 0.50514 0.5878 0.87086 0.0
O192 O 0.56031 0.57714 0.83883 0.0
O193 O 0.47661 0.56378 0.04931 0.0
O194 O 0.52686 0.56385 0.09267 0.0
O195 O 0.47313 0.53776 0.72362 0.0
O196 O 0.44114 0.5158 0.87762 0.0
C197 C 0.5527 0.47559 0.75305 0.0
O198 O 0.54266 0.47393 0.0245 0.0
O199 O 0.4932 0.47295 0.97643 0.0
C200 C 0.63696 0.5451 0.10512 0.0
C201 C 0.67631 0.55975 0.26439 0.0
C202 C 0.64362 0.57355 0.29178 0.0
C203 C 0.62417 0.56621 0.2134 0.0
C204 C 0.67005 0.53372 0.07401 0.0
C205 C 0.68952 0.54107 0.15239 0.0
C206 C 0.61567 0.52776 0.03721 0.0
C207 C 0.53416 0.59964 0.83816 0.0
C208 C 0.49576 0.57407 0.1163 0.0
C209 C 0.41966 0.52618 0.70033 0.0
C210 C 0.37595 0.51908 0.55208 0.0
C211 C 0.40193 0.54202 0.5221 0.0
C212 C 0.42358 0.54525 0.59451 0.0
C213 C 0.39303 0.50451 0.73313 0.0
C214 C 0.37152 0.50095 0.65996 0.0
C215 C 0.44499 0.52602 0.76871 0.0
H216 H 0.63276 0.58896 0.3758 0.0
H217 H 0.59878 0.57534 0.24023 0.0
H218 H 0.68051 0.517 0.99193 0.0
H219 H 0.71456 0.53015 0.12801 0.0
H220 H 0.40572 0.55747 0.44216 0.0
H221 H 0.44375 0.56232 0.5664 0.0
H222 H 0.38944 0.48916 0.81334 0.0
H223 H 0.3519 0.48298 0.68631 0.0
Dy224 Dy 0.04226 0.56614 0.79443 0.0
Dy225 Dy 1.03022 0.48648 0.92381 0.0
C226 C 0.05405 0.48543 0.65178 0.0
O227 O 0.98884 0.56339 0.82654 0.0
O228 O 0.98655 0.49916 0.85206 0.0
O229 O 0.06311 0.5968 0.6429 0.0
O230 O 0.03339 0.62784 0.80043 0.0
O231 O 1.00784 0.53357 0.06512 0.0
O232 O 0.04017 0.57937 0.98438 0.0
O233 O 0.07647 0.50185 0.96305 0.0
O234 O 0.09098 0.54562 0.8222 0.0
O235 O 1.01998 0.44979 0.06982 0.0
O236 O 1.02936 0.42545 0.891 0.0
C237 C 0.97336 0.53226 0.82979 0.0
O238 O 0.03966 0.51999 0.65699 0.0
O239 O 0.06317 0.47409 0.74486 0.0
C240 C 0.07805 0.65696 0.69033 0.0
C241 C 0.14076 0.67722 0.60902 0.0
C242 C 0.13021 0.66648 0.72634 0.0
C243 C 0.09929 0.65445 0.76474 0.0
C244 C 0.08576 0.67791 0.58996 0.0
C245 C 0.11695 0.68801 0.54881 0.0
C246 C 0.05299 0.63032 0.69744 0.0
C247 C 1.02065 0.56629 0.07518 0.0
C248 C 0.09761 0.52389 0.90493 0.0
C249 C 0.98902 0.40022 0.0343 0.0
C250 C 0.92407 0.39327 0.13594 0.0
C251 C 0.94751 0.3834 0.19846 0.0
C252 C 0.97985 0.38647 0.14713 0.0
C253 C 0.9666 0.40251 0.96396 0.0
C254 C 0.93434 0.39767 0.0138 0.0
C255 C 1.01887 0.41955 1.0024 0.0
H256 H 0.14684 0.66226 0.78211 0.0
H257 H 0.09328 0.63979 0.84607 0.0
H258 H 0.06915 0.68186 0.53477 0.0
H259 H 0.12287 0.69861 0.46118 0.0
H260 H 0.94093 0.37845 0.29179 0.0
H261 H 0.99696 0.38245 0.20086 0.0
H262 H 0.97324 0.41164 0.87446 0.0
H263 H 0.91709 0.40256 0.96069 0.0
C264 C 0.16314 1.01958 0.51193 0.0
C265 C 0.18915 0.02285 0.56516 0.0
C266 C 0.13165 1.01538 0.57959 0.0
C267 C 0.12429 1.01506 0.70434 0.0
H268 H 0.16698 1.02153 0.41725 0.0
H269 H 0.11282 1.01326 0.53335 0.0
S270 S 0.18453 1.01806 0.88637 0.0
N271 N 0.20577 1.02171 0.75 0.0
N272 N 0.14717 1.01472 0.87629 0.0
C273 C 0.15051 1.01642 0.75785 0.0
C274 C 0.1826 1.02014 0.68881 0.0
C275 C 0.48482 0.17632 0.66999 0.0
C276 C 0.50801 0.18349 0.56686 0.0
C277 C 0.48746 0.14299 0.73217 0.0
C278 C 0.51302 0.11444 0.69283 0.0
H279 H 0.46394 0.19647 0.70223 0.0
H280 H 0.46879 0.13916 0.8104 0.0
S281 S 0.58155 0.11965 0.43391 0.0
N282 N 0.55847 0.15934 0.43222 0.0
N283 N 0.56314 0.09675 0.54796 0.0
C284 C 0.53665 0.1213 0.59103 0.0
C285 C 0.53419 0.15559 0.52831 0.0
C286 C 0.29932 0.50666 0.44443 0.0
C287 C 0.31074 0.49846 0.32167 0.0
C288 C 0.32037 0.51393 0.51734 0.0
C289 C 0.35385 0.51344 0.47098 0.0
H290 H 0.27392 0.5066 0.48513 0.0
H291 H 0.31026 0.51976 0.61123 0.0
S292 S 0.39578 0.49423 0.1539 0.0
N293 N 0.3575 0.49115 0.15646 0.0
N294 N 0.39712 0.50439 0.29211 0.0
C295 C 0.36543 0.50615 0.34751 0.0
C296 C 0.34392 0.49876 0.2735 0.0
C297 C 0.07875 0.39608 0.43921 0.0
C298 C 0.05861 0.40019 0.36046 0.0
C299 C 0.07744 0.42386 0.53174 0.0
C300 C 0.05614 0.45733 0.54911 0.0
H301 H 0.096 0.37132 0.42828 0.0
H302 H 0.09345 0.41914 0.58973 0.0
S303 S 0.99658 0.48081 0.37292 0.0
N304 N 1.01534 0.4396 0.3114 0.0
N305 N 1.01331 0.49186 0.48209 0.0
C306 C 0.03555 0.46154 0.47201 0.0
C307 C 0.0366 0.43298 0.37901 0.0
C308 C 0.89094 1.00496 0.31699 0.0
C309 C 0.86372 0.02266 0.28656 0.0
C310 C 0.92191 1.00292 0.23993 0.0
C311 C 0.92758 1.0186 0.12777 0.0
H312 H 0.88853 0.99355 0.40324 0.0
H313 H 0.94172 0.98947 0.27028 0.0
S314 S 0.86429 0.06727 1.00304 0.0
N315 N 0.84455 0.05553 0.13455 0.0
N316 N 0.90221 0.05159 0.9897 0.0
C317 C 0.90034 0.03552 0.09483 0.0
C318 C 0.86874 0.0376 0.17384 0.0
C319 C 0.54836 0.88826 0.25942 0.0
C320 C 0.53443 0.85408 0.23899 0.0
C321 C 0.54498 0.92106 0.19491 0.0
C322 C 0.5276 0.92135 0.10614 0.0
H323 H 0.56277 0.88938 0.32387 0.0
H324 H 0.55676 0.9461 0.21319 0.0
S325 S 0.48459 0.83975 0.02387 0.0
N326 N 0.50127 0.82333 0.12781 0.0
N327 N 0.4947 0.88411 1.00724 0.0
C328 C 0.51261 0.88761 0.08811 0.0
C329 C 0.51604 0.85438 0.15414 0.0
C330 C 0.74594 0.57724 0.4096 0.0
C331 C 0.73458 0.56609 0.5261 0.0
C332 C 0.72717 0.57503 0.32551 0.0
C333 C 0.69597 0.56244 0.35484 0.0
H334 H 0.76946 0.58781 0.38286 0.0
H335 H 0.73701 0.58381 0.23719 0.0
S336 S 0.65516 0.52966 0.64702 0.0
N337 N 0.6901 0.54195 0.66541 0.0
N338 N 0.65514 0.5377 0.50861 0.0
C339 C 0.6844 0.55134 0.47097 0.0
C340 C 0.70353 0.55332 0.55598 0.0
C341 C 0.97898 0.62752 0.35631 0.0
C342 C 1.00497 0.6426 0.3926 0.0
C343 C 0.98394 0.601 0.25759 0.0
C344 C 1.01509 0.58907 0.19015 0.0
H345 H 0.95459 0.63636 0.40457 0.0
H346 H 0.96327 0.59091 0.23143 0.0
S347 S 0.09135 0.61786 0.25046 0.0
N348 N 0.06305 0.64141 0.35534 0.0
N349 N 0.07226 0.59317 0.16918 0.0
C350 C 0.04118 0.60349 0.22636 0.0
C351 C 0.03618 0.62986 0.32734 0.0
C352 C 0.09647 0.22649 0.45411 0.0
C353 C 0.11336 0.22429 0.33455 0.0
C354 C 0.08556 0.19327 0.50678 0.0
C355 C 0.09278 0.15754 0.44253 0.0
H356 H 0.08567 0.25372 0.49813 0.0
H357 H 0.06794 0.19628 0.59085 0.0
S358 S 0.15489 0.13687 0.16208 0.0
N359 N 0.15139 0.18407 0.1827 0.0
N360 N 0.12979 0.12105 0.27694 0.0
C361 C 0.11793 0.15459 0.33973 0.0
C362 C 0.12968 0.18863 0.28893 0.0
C363 C 0.34505 0.89836 0.48386 0.0
C364 C 0.32721 0.93312 0.52959 0.0
C365 C 0.37144 0.88518 0.52659 0.0
C366 C 0.38085 0.90663 0.61545 0.0
H367 H 0.34124 0.88407 0.40475 0.0
H368 H 0.38677 0.86071 0.48027 0.0
S369 S 0.33645 0.99418 0.78359 0.0
N370 N 0.31621 0.98413 0.68386 0.0
N371 N 0.36604 0.96001 0.76386 0.0
C372 C 0.35998 0.938 0.67421 0.0
C373 C 0.33297 0.95111 0.63113 0.0
C374 C 0.57009 0.37559 0.60002 0.0
C375 C 0.53935 0.36646 0.59165 0.0
C376 C 0.57434 0.41058 0.65592 0.0
C377 C 0.54814 0.43791 0.70029 0.0
H378 H 0.59104 0.35672 0.55707 0.0
H379 H 0.59839 0.41713 0.65881 0.0
S380 S 0.4626 0.42534 0.70938 0.0
N381 N 0.48227 0.38535 0.64218 0.0
N382 N 0.49019 0.45155 0.74091 0.0
C383 C 0.51724 0.42801 0.697 0.0
C384 C 0.51287 0.39211 0.64448 0.0
C385 C 0.20409 0.65688 0.32878 0.0
C386 C 0.21495 0.61911 0.34307 0.0
C387 C 0.18484 0.6796 0.42491 0.0
C388 C 0.17384 0.66418 0.5361 0.0
H389 H 0.20859 0.66794 0.24152 0.0
H390 H 0.17541 0.70772 0.40791 0.0
S391 S 0.20427 0.57002 0.62332 0.0
N392 N 0.22064 0.57058 0.48068 0.0
N393 N 0.18311 0.6117 0.6596 0.0
C394 C 0.18906 0.62852 0.55452 0.0
C395 C 0.20955 0.60608 0.45758 0.0
C396 C 0.12243 0.78423 0.31491 0.0
C397 C 0.09324 0.77204 0.29775 0.0
C398 C 0.13534 0.81616 0.25893 0.0
C399 C 0.11996 0.83545 0.18162 0.0
H400 H 0.13181 0.77382 0.38732 0.0
H401 H 0.15436 0.82901 0.28926 0.0
S402 S 0.05141 0.80372 0.07078 0.0
N403 N 0.05596 0.77318 0.17059 0.0
N404 N 0.08018 0.8328 0.06473 0.0
C405 C 0.09557 0.8176 0.14357 0.0
C406 C 0.08236 0.7854 0.20122 0.0
C407 C 0.72169 0.08953 0.16275 0.0
C408 C 0.72021 0.10302 0.27916 0.0
C409 C 0.69699 0.1004 0.10825 0.0
C410 C 0.6701 0.12462 0.16953 0.0
H411 H 0.73928 0.06643 0.1203 0.0
H412 H 0.69674 0.08568 0.02495 0.0
S413 S 0.66178 0.17821 0.45735 0.0
N414 N 0.69547 0.15036 0.4384 0.0
N415 N 0.64832 0.16994 0.33808 0.0
C416 C 0.67184 0.14399 0.27547 0.0
C417 C 0.69725 0.13334 0.32994 0.0
C418 C 0.46845 0.67122 0.27032 0.0
C419 C 0.48699 0.67133 0.35505 0.0
C420 C 0.46702 0.63741 0.20224 0.0
C421 C 0.48445 0.60303 0.21592 0.0
H422 H 0.4559 0.69755 0.25381 0.0
H423 H 0.4542 0.63886 0.13296 0.0
S424 S 0.53272 0.58583 0.43537 0.0
N425 N 0.52148 0.63204 0.45222 0.0
N426 N 0.51591 0.56925 0.3326 0.0
C427 C 0.49993 0.60179 0.30865 0.0
C428 C 0.50238 0.63585 0.37483 0.0
C429 C 0.85881 0.4209 0.40667 0.0
C430 C 0.85138 0.45947 0.38838 0.0
C431 C 0.87831 0.39656 0.31539 0.0
C432 C 0.89209 0.41061 0.20481 0.0
H433 H 0.85178 0.41042 0.49439 0.0
H434 H 0.88566 0.36795 0.33593 0.0
S435 S 0.87343 0.5077 0.10741 0.0
N436 N 0.85355 0.50866 0.24706 0.0
N437 N 0.89122 0.46398 0.07682 0.0
C438 C 0.8809 0.44773 0.18149 0.0
C439 C 0.86049 0.47208 0.27368 0.0
C440 C 0.05585 0.19398 0.96942 0.0
C441 C 0.04097 0.21105 0.08278 0.0
C442 C 0.04978 0.15671 0.93375 0.0
C443 C 1.0293 0.13422 0.01121 0.0
H444 H 0.07419 0.20842 0.91103 0.0
H445 H 0.06293 0.14451 0.84756 0.0
S446 S 0.98156 0.16695 0.31242 0.0
N447 N 1.00248 0.20357 0.26763 0.0
N448 N 0.99155 0.13376 0.20242 0.0
C449 C 1.01283 0.15182 0.12193 0.0
C450 C 1.0185 0.19004 0.15702 0.0
C451 C 0.36883 0.9927 0.0857 0.0
C452 C 0.3551 1.01343 0.19453 0.0
C453 C 0.40057 0.99722 0.02072 0.0
C454 C 0.42052 1.02199 0.06289 0.0
H455 H 0.35568 0.97094 0.05425 0.0
H456 H 0.41014 0.9794 0.94019 0.0
S457 S 0.39536 0.08455 0.34001 0.0
N458 N 0.36352 0.06113 0.33775 0.0
N459 N 0.4226 0.06959 0.2182 0.0
C460 C 0.40641 0.04417 0.16893 0.0
C461 C 0.37403 0.03988 0.23382 0.0
C462 C 0.54218 0.35974 0.11715 0.0
C463 C 0.51568 0.35134 0.2065 0.0
C464 C 0.54116 0.39274 0.05243 0.0
C465 C 0.51353 0.41882 0.07332 0.0
H466 H 0.56492 0.3428 0.10533 0.0
H467 H 0.56292 0.3991 0.99019 0.0
S468 S 0.43674 0.40848 0.29024 0.0
N469 N 0.46025 0.37072 0.30658 0.0
N470 N 0.45815 0.432 0.18336 0.0
C471 C 0.48601 0.40909 0.15505 0.0
C472 C 0.48715 0.3756 0.22181 0.0
C473 C 0.1729 0.56535 0.9634 0.0
C474 C 0.18411 0.53868 0.03485 0.0
C475 C 0.14603 0.55944 0.91706 0.0
C476 C 0.12867 0.52688 0.9417 0.0
H477 H 0.18458 0.59159 0.94551 0.0
H478 H 0.13804 0.58148 0.86562 0.0
S479 S 0.14832 0.44801 0.12338 0.0
N480 N 0.17605 0.47806 0.12597 0.0
N481 N 0.12563 0.46696 0.04077 0.0
C482 C 0.14014 0.49954 0.01098 0.0
C483 C 0.16777 0.50539 0.05683 0.0
C484 C 1.00056 0.84879 0.69934 0.0
C485 C 1.02819 0.82311 0.68404 0.0
C486 C 0.99862 0.88574 0.75593 0.0
C487 C 1.02418 0.8988 0.80013 0.0
H488 H 0.98116 0.84133 0.66037 0.0
H489 H 0.97729 0.90476 0.76105 0.0
S490 S 0.10152 0.84205 0.78593 0.0
N491 N 0.08095 0.81279 0.7243 0.0
N492 N 0.07771 0.88181 0.82672 0.0
C493 C 0.05125 0.87259 0.79055 0.0
C494 C 0.0531 0.83501 0.73393 0.0
C495 C 0.67668 0.03896 0.70358 0.0
C496 C 0.6913 1.01671 0.59845 0.0
C497 C 0.64466 0.03513 0.76609 0.0
C498 C 0.62521 1.00917 0.72612 0.0
H499 H 0.68941 0.06145 0.73355 0.0
H500 H 0.63463 0.05413 0.84371 0.0
S501 S 0.65235 0.94301 0.4574 0.0
N502 N 0.68402 0.9668 0.45965 0.0
N503 N 0.62437 0.95924 0.57583 0.0
C504 C 0.64015 0.98538 0.62412 0.0
C505 C 0.67286 0.98928 0.56084 0.0
C506 C 0.55513 0.68016 0.62896 0.0
C507 C 0.52897 0.70805 0.67128 0.0
C508 C 0.55879 0.64639 0.68877 0.0
C509 C 0.53634 0.6392 0.79324 0.0
H510 H 0.5705 0.68205 0.5415 0.0
H511 H 0.5774 0.62429 0.64683 0.0
S512 S 0.46822 0.70707 0.95471 0.0
N513 N 0.48391 0.72893 0.83444 0.0
N514 N 0.49061 0.66629 0.9467 0.0
C515 C 0.51259 0.66904 0.84331 0.0
C516 C 0.50911 0.70334 0.78305 0.0
C517 C 0.89625 0.49866 0.76331 0.0
C518 C 0.8836 0.53007 0.7118 0.0
C519 C 0.92434 0.50024 0.80502 0.0
C520 C 0.94127 0.53341 0.7982 0.0
H521 H 0.88494 0.47195 0.76766 0.0
H522 H 0.93329 0.47466 0.83989 0.0
S523 S 0.91742 0.62453 0.67702 0.0
N524 N 0.88971 0.59596 0.66051 0.0
N525 N 0.94194 0.59939 0.74049 0.0
C526 C 0.92804 0.56571 0.75191 0.0
C527 C 0.8994 0.56397 0.7088 0.0
loop_
_geom_bond_atom_site_label_1
_geom_bond_atom_site_label_2
_geom_bond_distance
_geom_bond_site_symmetry_2
_ccdc_geom_bond_type
H0 C7 0.929 . S
H1 C10 0.930 . S
H2 C12 0.929 . S
H3 C4 0.969 . S
C4 H3 0.969 . S
C4 O5 1.550 . S
C4 H6 0.973 . S
O5 C4 1.550 . S
O5 C11 1.412 . S
H6 C4 0.973 . S
C7 H0 0.929 . S
C7 C8 1.400 . S
C7 C9 1.364 . S
C8 C7 1.400 . S
C8 C12 1.377 . S
C9 C7 1.364 . S
C9 C10 1.374 . S
C10 H1 0.930 . S
C10 C9 1.374 . S
C10 C11 1.383 . S
C11 O5 1.412 . S
C11 C10 1.383 . S
C11 C12 1.394 . S
C12 H2 0.929 . S
C12 C8 1.377 . S
C12 C11 1.394 . S
H13 C20 0.929 1_655 S
H14 C23 0.933 . S
H15 C25 0.931 1_655 S
H16 C17 0.969 . S
C17 H16 0.969 . S
C17 O18 1.550 1_455 S
C17 H19 0.973 1_455 S
O18 C17 1.550 1_655 S
O18 C24 1.401 1_655 S
H19 C17 0.973 1_655 S
C20 H13 0.929 1_455 S
C20 C21 1.398 . S
C20 C22 1.365 . S
C21 C20 1.398 . S
C21 C25 1.375 . S
C22 C20 1.365 . S
C22 C23 1.373 1_455 S
C23 H14 0.933 . S
C23 C22 1.373 1_655 S
C23 C24 1.378 1_655 S
C24 O18 1.401 1_455 S
C24 C23 1.378 1_455 S
C24 C25 1.401 . S
C25 H15 0.931 1_455 S
C25 C21 1.375 . S
C25 C24 1.401 . S
H26 C33 0.928 1_565 S
H27 C36 0.930 . S
H28 C38 0.928 1_565 S
H29 C30 0.969 . S
C30 H29 0.969 . S
C30 O31 1.550 1_545 S
C30 H32 0.973 1_545 S
O31 C30 1.550 1_565 S
O31 C37 1.407 1_565 S
H32 C30 0.973 1_565 S
C33 H26 0.928 1_545 S
C33 C34 1.400 . S
C33 C35 1.363 . S
C34 C33 1.400 . S
C34 C38 1.378 . S
C35 C33 1.363 . S
C35 C36 1.375 1_545 S
C36 H27 0.930 . S
C36 C35 1.375 1_565 S
C36 C37 1.383 1_565 S
C37 O31 1.407 1_545 S
C37 C36 1.383 1_545 S
C37 C38 1.391 . S
C38 H28 0.928 1_545 S
C38 C34 1.378 . S
C38 C37 1.391 . S
H39 C46 0.929 . S
H40 C49 0.930 . S
H41 C51 0.929 . S
H42 C43 0.969 . S
C43 H42 0.969 . S
C43 O44 1.550 . S
C43 H45 0.973 . S
O44 C43 1.550 . S
O44 C50 1.412 . S
H45 C43 0.973 . S
C46 H39 0.929 . S
C46 C47 1.400 . S
C46 C48 1.364 . S
C47 C46 1.400 . S
C47 C51 1.377 . S
C48 C46 1.364 . S
C48 C49 1.374 . S
C49 H40 0.930 . S
C49 C48 1.374 . S
C49 C50 1.383 . S
C50 O44 1.412 . S
C50 C49 1.383 . S
C50 C51 1.394 . S
C51 H41 0.929 . S
C51 C47 1.377 . S
C51 C50 1.394 . S
H52 C59 0.929 . S
H53 C62 0.930 . S
H54 C64 0.929 . S
H55 C56 0.969 . S
C56 H55 0.969 . S
C56 O57 1.550 1_554 S
C56 H58 0.973 . S
O57 C56 1.550 1_556 S
O57 C63 1.412 . S
H58 C56 0.973 . S
C59 H52 0.929 . S
C59 C60 1.400 . S
C59 C61 1.364 1_556 S
C60 C59 1.400 . S
C60 C64 1.377 . S
C61 C59 1.364 1_554 S
C61 C62 1.374 . S
C62 H53 0.930 . S
C62 C61 1.374 . S
C62 C63 1.383 1_554 S
C63 O57 1.412 . S
C63 C62 1.383 1_556 S
C63 C64 1.394 . S
C64 H54 0.929 . S
C64 C60 1.377 . S
C64 C63 1.394 . S
H65 C72 0.928 1_655 S
H66 C75 0.939 . S
H67 C77 0.926 1_656 S
H68 C69 0.969 . S
C69 H68 0.969 . S
C69 O70 1.550 1_455 S
C69 H71 0.973 1_455 S
O70 C69 1.550 1_655 S
O70 C76 1.406 1_655 S
H71 C69 0.973 1_655 S
C72 H65 0.928 1_455 S
C72 C73 1.401 . S
C72 C74 1.363 . S
C73 C72 1.401 . S
C73 C77 1.378 . S
C74 C72 1.363 . S
C74 C75 1.375 1_455 S
C75 H66 0.939 . S
C75 C74 1.375 1_655 S
C75 C76 1.387 1_655 S
C76 O70 1.406 1_455 S
C76 C75 1.387 1_455 S
C76 C77 1.387 . S
C77 H67 0.926 1_454 S
C77 C73 1.378 . S
C77 C76 1.387 . S
H78 C85 0.929 1_565 S
H79 C88 0.931 . S
H80 C90 0.929 1_565 S
H81 C82 0.969 . S
C82 H81 0.969 . S
C82 O83 1.550 1_545 S
C82 H84 0.973 1_545 S
O83 C82 1.550 1_565 S
O83 C89 1.412 1_565 S
H84 C82 0.973 1_565 S
C85 H78 0.929 1_545 S
C85 C86 1.399 . S
C85 C87 1.364 . S
C86 C85 1.399 . S
C86 C90 1.376 . S
C87 C85 1.364 . S
C87 C88 1.373 1_545 S
C88 H79 0.931 . S
C88 C87 1.373 1_565 S
C88 C89 1.383 1_565 S
C89 O83 1.412 1_545 S
C89 C88 1.383 1_545 S
C89 C90 1.394 . S
C90 H80 0.929 1_545 S
C90 C86 1.376 . S
C90 C89 1.394 . S
H91 C98 0.929 . S
H92 C101 0.930 . S
H93 C103 0.929 . S
H94 C95 0.969 . S
C95 H94 0.969 . S
C95 O96 1.550 . S
C95 H97 0.973 . S
O96 C95 1.550 . S
O96 C102 1.412 . S
H97 C95 0.973 . S
C98 H91 0.929 . S
C98 C99 1.400 . S
C98 C100 1.364 . S
C99 C98 1.400 . S
C99 C103 1.377 . S
C100 C98 1.364 . S
C100 C101 1.374 . S
C101 H92 0.930 . S
C101 C100 1.374 . S
C101 C102 1.383 . S
C102 O96 1.412 . S
C102 C101 1.383 . S
C102 C103 1.394 . S
C103 H93 0.929 . S
C103 C99 1.377 . S
C103 C102 1.394 . S
Dy104 O107 2.307 1_545 S
Dy104 O109 2.395 1_655 S
Dy104 O110 2.379 . S
Dy104 O112 2.339 . S
Dy104 O114 2.298 . S
Dy104 O118 2.275 1_655 S
Dy104 C126 2.738 . S
Dy105 O108 2.298 1_554 S
Dy105 O111 2.275 1_454 S
Dy105 O113 2.307 1_565 S
Dy105 O115 2.395 1_455 S
Dy105 O116 2.379 . S
Dy105 O119 2.339 1_554 S
Dy105 C135 2.738 . S
C106 O118 1.254 1_565 S
C106 O119 1.257 . S
O107 Dy104 2.307 1_565 S
O107 C117 1.266 . S
O108 Dy105 2.298 1_556 S
O108 C117 1.236 1_455 S
O109 Dy104 2.395 1_455 S
O109 C126 1.255 1_455 S
O110 Dy104 2.379 . S
O110 C126 1.249 . S
O111 Dy105 2.275 1_656 S
O111 C127 1.254 1_565 S
O112 Dy104 2.339 . S
O112 C127 1.257 . S
O113 Dy105 2.307 1_545 S
O113 C128 1.266 1_554 S
O114 Dy104 2.298 . S
O114 C128 1.236 1_655 S
O115 Dy105 2.395 1_655 S
O115 C135 1.255 1_655 S
O116 Dy105 2.379 . S
O116 C135 1.249 . S
C117 O107 1.266 . S
C117 O108 1.236 1_655 S
O118 Dy104 2.275 1_455 S
O118 C106 1.254 1_545 S
O119 Dy105 2.339 1_556 S
O119 C106 1.257 . S
C120 C123 1.344 1_655 S
C120 C124 1.328 . S
C120 C126 1.516 . S
C121 C122 1.304 1_655 S
C121 C125 1.323 . S
C122 C121 1.304 1_455 S
C122 C123 1.371 . S
C122 H136 0.930 . S
C123 C120 1.344 1_455 S
C123 C122 1.371 . S
C123 H137 0.931 . S
C124 C120 1.328 . S
C124 C125 1.433 . S
C124 H138 0.931 . S
C125 C121 1.323 . S
C125 C124 1.433 . S
C125 H139 0.933 . S
C126 Dy104 2.738 . S
C126 O109 1.255 1_655 S
C126 O110 1.249 . S
C126 C120 1.516 . S
C127 O111 1.254 1_545 S
C127 O112 1.257 . S
C128 O113 1.266 1_556 S
C128 O114 1.236 1_455 S
C129 C132 1.344 1_455 S
C129 C133 1.328 . S
C129 C135 1.516 . S
C130 C131 1.304 1_455 S
C130 C134 1.323 . S
C131 C130 1.304 1_655 S
C131 C132 1.371 . S
C131 H140 0.930 . S
C132 C129 1.344 1_655 S
C132 C131 1.371 . S
C132 H141 0.931 . S
C133 C129 1.328 . S
C133 C134 1.433 . S
C133 H142 0.931 . S
C134 C130 1.323 . S
C134 C133 1.433 . S
C134 H143 0.933 . S
C135 Dy105 2.738 . S
C135 O115 1.255 1_455 S
C135 O116 1.249 . S
C135 C129 1.516 . S
H136 C122 0.930 . S
H137 C123 0.931 . S
H138 C124 0.931 . S
H139 C125 0.933 . S
H140 C131 0.930 . S
H141 C132 0.931 . S
H142 C133 0.931 . S
H143 C134 0.933 . S
Dy144 O147 2.307 . S
Dy144 O149 2.395 1_565 S
Dy144 O150 2.379 . S
Dy144 O152 2.339 . S
Dy144 O154 2.298 . S
Dy144 O158 2.275 1_565 S
Dy144 C166 2.738 . S
Dy145 O148 2.298 1_554 S
Dy145 O151 2.275 1_544 S
Dy145 O153 2.307 . S
Dy145 O155 2.395 1_545 S
Dy145 O156 2.379 . S
Dy145 O159 2.339 1_554 S
Dy145 C175 2.738 . S
C146 O158 1.254 . S
C146 O159 1.257 . S
O147 Dy144 2.307 . S
O147 C157 1.266 . S
O148 Dy145 2.298 1_556 S
O148 C157 1.236 1_545 S
O149 Dy144 2.395 1_545 S
O149 C166 1.255 1_545 S
O150 Dy144 2.379 . S
O150 C166 1.249 . S
O151 Dy145 2.275 1_566 S
O151 C167 1.254 . S
O152 Dy144 2.339 . S
O152 C167 1.257 . S
O153 Dy145 2.307 . S
O153 C168 1.266 1_554 S
O154 Dy144 2.298 . S
O154 C168 1.236 1_565 S
O155 Dy145 2.395 1_565 S
O155 C175 1.255 1_565 S
O156 Dy145 2.379 . S
O156 C175 1.249 . S
C157 O147 1.266 . S
C157 O148 1.236 1_565 S
O158 Dy144 2.275 1_545 S
O158 C146 1.254 . S
O159 Dy145 2.339 1_556 S
O159 C146 1.257 . S
C160 C163 1.333 1_565 S
C160 C164 1.328 . S
C160 C166 1.516 . S
C161 C162 1.304 . S
C161 C165 1.323 . S
C162 C161 1.304 . S
C162 C163 1.370 1_565 S
C162 H176 0.930 1_565 S
C163 C160 1.333 1_545 S
C163 C162 1.370 1_545 S
C163 H177 0.943 . S
C164 C160 1.328 . S
C164 C165 1.433 . S
C164 H178 0.931 . S
C165 C161 1.323 . S
C165 C164 1.433 . S
C165 H179 0.933 . S
C166 Dy144 2.738 . S
C166 O149 1.255 1_565 S
C166 O150 1.249 . S
C166 C160 1.516 . S
C167 O151 1.254 . S
C167 O152 1.257 . S
C168 O153 1.266 1_556 S
C168 O154 1.236 1_545 S
C169 C172 1.339 1_545 S
C169 C173 1.328 . S
C169 C175 1.516 . S
C170 C171 1.304 . S
C170 C174 1.323 . S
C171 C170 1.304 . S
C171 C172 1.370 1_545 S
C171 H180 0.930 1_545 S
C172 C169 1.339 1_565 S
C172 C171 1.370 1_565 S
C172 H181 0.937 . S
C173 C169 1.328 . S
C173 C174 1.433 . S
C173 H182 0.931 . S
C174 C170 1.323 . S
C174 C173 1.433 . S
C174 H183 0.933 . S
C175 Dy145 2.738 . S
C175 O155 1.255 1_545 S
C175 O156 1.249 . S
C175 C169 1.516 . S
H176 C162 0.930 1_545 S
H177 C163 0.943 . S
H178 C164 0.931 . S
H179 C165 0.933 . S
H180 C171 0.930 1_565 S
H181 C172 0.937 . S
H182 C173 0.931 . S
H183 C174 0.933 . S
Dy184 O187 2.307 . S
Dy184 O189 2.395 1_556 S
Dy184 O190 2.379 . S
Dy184 O192 2.339 . S
Dy184 O194 2.298 . S
Dy184 O198 2.275 . S
Dy184 C206 2.738 1_556 S
Dy185 O188 2.298 . S
Dy185 O191 2.275 . S
Dy185 O193 2.307 1_556 S
Dy185 O195 2.395 . S
Dy185 O196 2.379 . S
Dy185 O199 2.339 1_556 S
Dy185 C215 2.738 . S
C186 O198 1.254 1_554 S
C186 O199 1.257 . S
O187 Dy184 2.307 . S
O187 C197 1.266 . S
O188 Dy185 2.298 . S
O188 C197 1.236 . S
O189 Dy184 2.395 1_554 S
O189 C206 1.255 . S
O190 Dy184 2.379 . S
O190 C206 1.249 1_556 S
O191 Dy185 2.275 . S
O191 C207 1.254 . S
O192 Dy184 2.339 . S
O192 C207 1.257 . S
O193 Dy185 2.307 1_554 S
O193 C208 1.266 . S
O194 Dy184 2.298 . S
O194 C208 1.236 1_556 S
O195 Dy185 2.395 . S
O195 C215 1.255 . S
O196 Dy185 2.379 . S
O196 C215 1.249 . S
C197 O187 1.266 . S
C197 O188 1.236 . S
O198 Dy184 2.275 . S
O198 C186 1.254 1_556 S
O199 Dy185 2.339 1_554 S
O199 C186 1.257 . S
C200 C203 1.344 . S
C200 C204 1.328 . S
C200 C206 1.516 . S
C201 C202 1.304 . S
C201 C205 1.323 . S
C202 C201 1.304 . S
C202 C203 1.371 . S
C202 H216 0.930 . S
C203 C200 1.344 . S
C203 C202 1.371 . S
C203 H217 0.931 . S
C204 C200 1.328 . S
C204 C205 1.433 . S
C204 H218 0.931 1_554 S
C205 C201 1.323 . S
C205 C204 1.433 . S
C205 H219 0.933 . S
C206 Dy184 2.738 1_554 S
C206 O189 1.255 . S
C206 O190 1.249 1_554 S
C206 C200 1.516 . S
C207 O191 1.254 . S
C207 O192 1.257 . S
C208 O193 1.266 . S
C208 O194 1.236 1_554 S
C209 C212 1.344 . S
C209 C213 1.328 . S
C209 C215 1.516 . S
C210 C211 1.304 . S
C210 C214 1.323 . S
C211 C210 1.304 . S
C211 C212 1.371 . S
C211 H220 0.930 . S
C212 C209 1.344 . S
C212 C211 1.371 . S
C212 H221 0.931 . S
C213 C209 1.328 . S
C213 C214 1.433 . S
C213 H222 0.931 . S
C214 C210 1.323 . S
C214 C213 1.433 . S
C214 H223 0.933 . S
C215 Dy185 2.738 . S
C215 O195 1.255 . S
C215 O196 1.249 . S
C215 C209 1.516 . S
H216 C202 0.930 . S
H217 C203 0.931 . S
H218 C204 0.931 1_556 S
H219 C205 0.933 . S
H220 C211 0.930 . S
H221 C212 0.931 . S
H222 C213 0.931 . S
H223 C214 0.933 . S
Dy224 O227 2.307 1_455 S
Dy224 O229 2.395 . S
Dy224 O230 2.379 . S
Dy224 O232 2.339 . S
Dy224 O234 2.298 . S
Dy224 O238 2.275 . S
Dy224 C246 2.738 . S
Dy225 O228 2.298 1_554 S
Dy225 O231 2.275 . S
Dy225 O233 2.307 1_654 S
Dy225 O235 2.395 . S
Dy225 O236 2.379 . S
Dy225 O239 2.339 1_554 S
Dy225 C255 2.738 . S
C226 O238 1.254 1_655 S
C226 O239 1.257 . S
O227 Dy224 2.307 1_655 S
O227 C237 1.266 . S
O228 Dy225 2.298 1_556 S
O228 C237 1.236 . S
O229 Dy224 2.395 . S
O229 C246 1.255 . S
O230 Dy224 2.379 . S
O230 C246 1.249 . S
O231 Dy225 2.275 . S
O231 C247 1.254 1_654 S
O232 Dy224 2.339 . S
O232 C247 1.257 . S
O233 Dy225 2.307 1_456 S
O233 C248 1.266 . S
O234 Dy224 2.298 . S
O234 C248 1.236 . S
O235 Dy225 2.395 . S
O235 C255 1.255 . S
O236 Dy225 2.379 . S
O236 C255 1.249 . S
C237 O227 1.266 . S
C237 O228 1.236 . S
O238 Dy224 2.275 . S
O238 C226 1.254 1_455 S
O239 Dy225 2.339 1_556 S
O239 C226 1.257 . S
C240 C243 1.344 . S
C240 C244 1.328 . S
C240 C246 1.516 . S
C241 C242 1.304 . S
C241 C245 1.323 . S
C242 C241 1.304 . S
C242 C243 1.371 . S
C242 H256 0.930 . S
C243 C240 1.344 . S
C243 C242 1.371 . S
C243 H257 0.931 . S
C244 C240 1.328 . S
C244 C245 1.433 . S
C244 H258 0.931 . S
C245 C241 1.323 . S
C245 C244 1.433 . S
C245 H259 0.933 . S
C246 Dy224 2.738 . S
C246 O229 1.255 . S
C246 O230 1.249 . S
C246 C240 1.516 . S
C247 O231 1.254 1_456 S
C247 O232 1.257 . S
C248 O233 1.266 . S
C248 O234 1.236 . S
C249 C252 1.344 . S
C249 C253 1.328 . S
C249 C255 1.516 . S
C250 C251 1.304 . S
C250 C254 1.323 . S
C251 C250 1.304 . S
C251 C252 1.371 . S
C251 H260 0.930 . S
C252 C249 1.344 . S
C252 C251 1.371 . S
C252 H261 0.931 . S
C253 C249 1.328 . S
C253 C254 1.433 . S
C253 H262 0.931 . S
C254 C250 1.323 . S
C254 C253 1.433 . S
C254 H263 0.933 . S
C255 Dy225 2.738 . S
C255 O235 1.255 . S
C255 O236 1.249 . S
C255 C249 1.516 . S
H256 C242 0.930 . S
H257 C243 0.931 . S
H258 C244 0.931 . S
H259 C245 0.933 . S
H260 C251 0.930 . S
H261 C252 0.931 . S
H262 C253 0.931 . S
H263 C254 0.933 . S
C264 C265 1.366 1_565 S
C264 C266 1.419 . S
C264 H268 0.930 . S
C265 C264 1.366 1_545 S
C265 C274 1.431 . S
C266 C264 1.419 . S
C266 C267 1.357 1_565 S
C266 H269 0.929 . S
C267 C266 1.357 1_545 S
C267 C273 1.439 . S
H268 C264 0.930 . S
H269 C266 0.929 . S
S270 N271 1.613 . S
S270 N272 1.610 . S
N271 S270 1.613 . S
N271 C274 1.350 . S
N272 S270 1.610 . S
N272 C273 1.351 . S
C273 C267 1.439 . S
C273 N272 1.351 . S
C273 C274 1.434 . S
C274 C265 1.431 . S
C274 N271 1.350 . S
C274 C273 1.434 . S
C275 C276 1.369 . S
C275 C277 1.419 . S
C275 H279 0.930 . S
C276 C275 1.369 . S
C276 C285 1.429 . S
C277 C275 1.419 . S
C277 C278 1.363 . S
C277 H280 0.929 . S
C278 C277 1.363 . S
C278 C284 1.428 . S
H279 C275 0.930 . S
H280 C277 0.929 . S
S281 N282 1.613 . S
S281 N283 1.610 . S
N282 S281 1.613 . S
N282 C285 1.350 . S
N283 S281 1.610 . S
N283 C284 1.351 . S
C284 C278 1.428 . S
C284 N283 1.351 . S
C284 C285 1.434 . S
C285 C276 1.429 . S
C285 N282 1.350 . S
C285 C284 1.434 . S
C286 C287 1.369 . S
C286 C288 1.419 . S
C286 H290 0.930 . S
C287 C286 1.369 . S
C287 C296 1.429 . S
C288 C286 1.419 . S
C288 C289 1.363 . S
C288 H291 0.929 . S
C289 C288 1.363 . S
C289 C295 1.428 . S
H290 C286 0.930 . S
H291 C288 0.929 . S
S292 N293 1.613 . S
S292 N294 1.610 . S
N293 S292 1.613 . S
N293 C296 1.350 . S
N294 S292 1.610 . S
N294 C295 1.351 . S
C295 C289 1.428 . S
C295 N294 1.351 . S
C295 C296 1.434 . S
C296 C287 1.429 . S
C296 N293 1.350 . S
C296 C295 1.434 . S
C297 C298 1.389 . S
C297 C299 1.419 . S
C297 H301 0.930 . S
C298 C297 1.389 . S
C298 C307 1.415 1_455 S
C299 C297 1.419 . S
C299 C300 1.363 . S
C299 H302 0.929 . S
C300 C299 1.363 . S
C300 C306 1.428 1_455 S
H301 C297 0.930 . S
H302 C299 0.929 . S
S303 N304 1.613 . S
S303 N305 1.610 . S
N304 S303 1.613 . S
N304 C307 1.350 . S
N305 S303 1.610 . S
N305 C306 1.351 . S
C306 C300 1.428 1_655 S
C306 N305 1.351 . S
C306 C307 1.434 . S
C307 C298 1.415 1_655 S
C307 N304 1.350 . S
C307 C306 1.434 . S
C308 C309 1.354 1_545 S
C308 C310 1.419 . S
C308 H312 0.930 . S
C309 C308 1.354 1_565 S
C309 C318 1.442 . S
C310 C308 1.419 . S
C310 C311 1.363 1_545 S
C310 H313 0.929 . S
C311 C310 1.363 1_565 S
C311 C317 1.428 . S
H312 C308 0.930 . S
H313 C310 0.929 . S
S314 N315 1.613 . S
S314 N316 1.610 . S
N315 S314 1.613 . S
N315 C318 1.350 . S
N316 S314 1.610 . S
N316 C317 1.351 . S
C317 C311 1.428 . S
C317 N316 1.351 . S
C317 C318 1.434 . S
C318 C309 1.442 . S
C318 N315 1.350 . S
C318 C317 1.434 . S
C319 C320 1.369 . S
C319 C321 1.419 . S
C319 H323 0.930 . S
C320 C319 1.369 . S
C320 C329 1.429 . S
C321 C319 1.419 . S
C321 C322 1.363 . S
C321 H324 0.929 . S
C322 C321 1.363 . S
C322 C328 1.428 . S
H323 C319 0.930 . S
H324 C321 0.929 . S
S325 N326 1.613 . S
S325 N327 1.610 . S
N326 S325 1.613 . S
N326 C329 1.350 . S
N327 S325 1.610 . S
N327 C328 1.351 . S
C328 C322 1.428 . S
C328 N327 1.351 . S
C328 C329 1.434 . S
C329 C320 1.429 . S
C329 N326 1.350 . S
C329 C328 1.434 . S
C330 C331 1.369 . S
C330 C332 1.419 . S
C330 H334 0.930 . S
C331 C330 1.369 . S
C331 C340 1.429 . S
C332 C330 1.419 . S
C332 C333 1.363 . S
C332 H335 0.929 . S
C333 C332 1.363 . S
C333 C339 1.428 . S
H334 C330 0.930 . S
H335 C332 0.929 . S
S336 N337 1.613 . S
S336 N338 1.610 . S
N337 S336 1.613 . S
N337 C340 1.350 . S
N338 S336 1.610 . S
N338 C339 1.351 . S
C339 C333 1.428 . S
C339 N338 1.351 . S
C339 C340 1.434 . S
C340 C331 1.429 . S
C340 N337 1.350 . S
C340 C339 1.434 . S
C341 C342 1.390 . S
C341 C343 1.419 . S
C341 H345 0.930 . S
C342 C341 1.390 . S
C342 C351 1.414 1_655 S
C343 C341 1.419 . S
C343 C344 1.363 . S
C343 H346 0.929 . S
C344 C343 1.363 . S
C344 C350 1.428 1_655 S
H345 C341 0.930 . S
H346 C343 0.929 . S
S347 N348 1.613 . S
S347 N349 1.610 . S
N348 S347 1.613 . S
N348 C351 1.350 . S
N349 S347 1.610 . S
N349 C350 1.351 . S
C350 C344 1.428 1_455 S
C350 N349 1.351 . S
C350 C351 1.434 . S
C351 C342 1.414 1_455 S
C351 N348 1.350 . S
C351 C350 1.434 . S
C352 C353 1.369 1_655 S
C352 C354 1.419 . S
C352 H356 0.930 . S
C353 C352 1.369 1_455 S
C353 C362 1.429 . S
C354 C352 1.419 . S
C354 C355 1.363 . S
C354 H357 0.929 . S
C355 C354 1.363 . S
C355 C361 1.422 1_655 S
H356 C352 0.930 . S
H357 C354 0.929 . S
S358 N359 1.613 . S
S358 N360 1.610 . S
N359 S358 1.613 . S
N359 C362 1.350 . S
N360 S358 1.610 . S
N360 C361 1.354 . S
C361 C355 1.422 1_455 S
C361 N360 1.354 . S
C361 C362 1.438 . S
C362 C353 1.429 . S
C362 N359 1.350 . S
C362 C361 1.438 . S
C363 C364 1.369 . S
C363 C365 1.419 . S
C363 H367 0.930 . S
C364 C363 1.369 . S
C364 C373 1.429 . S
C365 C363 1.419 . S
C365 C366 1.363 . S
C365 H368 0.929 . S
C366 C365 1.363 . S
C366 C372 1.428 . S
H367 C363 0.930 . S
H368 C365 0.929 . S
S369 N370 1.613 . S
S369 N371 1.610 1_545 S
N370 S369 1.613 . S
N370 C373 1.350 1_545 S
N371 S369 1.610 1_565 S
N371 C372 1.351 . S
C372 C366 1.428 . S
C372 N371 1.351 . S
C372 C373 1.434 . S
C373 C364 1.429 . S
C373 N370 1.350 1_565 S
C373 C372 1.434 . S
C374 C375 1.369 . S
C374 C376 1.419 . S
C374 H378 0.930 . S
C375 C374 1.369 . S
C375 C384 1.429 . S
C376 C374 1.419 . S
C376 C377 1.363 . S
C376 H379 0.929 . S
C377 C376 1.363 . S
C377 C383 1.428 . S
H378 C374 0.930 . S
H379 C376 0.929 . S
S380 N381 1.613 . S
S380 N382 1.610 . S
N381 S380 1.613 . S
N381 C384 1.350 . S
N382 S380 1.610 . S
N382 C383 1.351 . S
C383 C377 1.428 . S
C383 N382 1.351 . S
C383 C384 1.434 . S
C384 C375 1.429 . S
C384 N381 1.350 . S
C384 C383 1.434 . S
C385 C386 1.369 . S
C385 C387 1.419 . S
C385 H389 0.930 . S
C386 C385 1.369 . S
C386 C395 1.429 . S
C387 C385 1.419 . S
C387 C388 1.363 . S
C387 H390 0.929 . S
C388 C387 1.363 . S
C388 C394 1.428 . S
H389 C385 0.930 . S
H390 C387 0.929 . S
S391 N392 1.613 . S
S391 N393 1.610 . S
N392 S391 1.613 . S
N392 C395 1.350 . S
N393 S391 1.610 . S
N393 C394 1.351 . S
C394 C388 1.428 . S
C394 N393 1.351 . S
C394 C395 1.434 . S
C395 C386 1.429 . S
C395 N392 1.350 . S
C395 C394 1.434 . S
C396 C397 1.369 1_455 S
C396 C398 1.419 . S
C396 H400 0.930 . S
C397 C396 1.369 1_655 S
C397 C406 1.429 . S
C398 C396 1.419 . S
C398 C399 1.363 . S
C398 H401 0.929 . S
C399 C398 1.363 . S
C399 C405 1.428 . S
H400 C396 0.930 . S
H401 C398 0.929 . S
S402 N403 1.613 . S
S402 N404 1.610 1_655 S
N403 S402 1.613 . S
N403 C406 1.350 . S
N404 S402 1.610 1_455 S
N404 C405 1.351 . S
C405 C399 1.428 . S
C405 N404 1.351 . S
C405 C406 1.434 1_455 S
C406 C397 1.429 . S
C406 N403 1.350 . S
C406 C405 1.434 1_655 S
C407 C408 1.369 1_565 S
C407 C409 1.419 1_565 S
C407 H411 0.930 . S
C408 C407 1.369 1_545 S
C408 C417 1.429 . S
C409 C407 1.419 1_545 S
C409 C410 1.362 . S
C409 H412 0.930 1_545 S
C410 C409 1.362 . S
C410 C416 1.428 . S
H411 C407 0.930 . S
H412 C409 0.930 1_565 S
S413 N414 1.613 . S
S413 N415 1.610 . S
N414 S413 1.613 . S
N414 C417 1.350 . S
N415 S413 1.610 . S
N415 C416 1.351 . S
C416 C410 1.428 . S
C416 N415 1.351 . S
C416 C417 1.434 . S
C417 C408 1.429 . S
C417 N414 1.350 . S
C417 C416 1.434 . S
C418 C419 1.369 . S
C418 C420 1.419 . S
C418 H422 0.930 . S
C419 C418 1.369 . S
C419 C428 1.429 . S
C420 C418 1.419 . S
C420 C421 1.363 . S
C420 H423 0.929 . S
C421 C420 1.363 . S
C421 C427 1.428 . S
H422 C418 0.930 . S
H423 C420 0.929 . S
S424 N425 1.613 . S
S424 N426 1.610 . S
N425 S424 1.613 . S
N425 C428 1.350 . S
N426 S424 1.610 . S
N426 C427 1.351 . S
C427 C421 1.428 . S
C427 N426 1.351 . S
C427 C428 1.434 . S
C428 C419 1.429 . S
C428 N425 1.350 . S
C428 C427 1.434 . S
C429 C430 1.369 . S
C429 C431 1.419 . S
C429 H433 0.930 . S
C430 C429 1.369 . S
C430 C439 1.429 . S
C431 C429 1.419 . S
C431 C432 1.363 . S
C431 H434 0.929 . S
C432 C431 1.363 . S
C432 C438 1.428 . S
H433 C429 0.930 . S
H434 C431 0.929 . S
S435 N436 1.613 . S
S435 N437 1.610 . S
N436 S435 1.613 . S
N436 C439 1.350 . S
N437 S435 1.610 . S
N437 C438 1.351 . S
C438 C432 1.428 . S
C438 N437 1.351 . S
C438 C439 1.434 . S
C439 C430 1.429 . S
C439 N436 1.350 . S
C439 C438 1.434 . S
C440 C441 1.369 . S
C440 C442 1.419 . S
C440 H444 0.930 . S
C441 C440 1.369 . S
C441 C450 1.429 1_456 S
C442 C440 1.419 . S
C442 C443 1.363 . S
C442 H445 0.929 . S
C443 C442 1.363 . S
C443 C449 1.428 1_556 S
H444 C440 0.930 . S
H445 C442 0.929 . S
S446 N447 1.613 . S
S446 N448 1.610 . S
N447 S446 1.613 . S
N447 C450 1.350 . S
N448 S446 1.610 . S
N448 C449 1.351 1_655 S
C449 C443 1.428 1_554 S
C449 N448 1.351 1_455 S
C449 C450 1.434 1_455 S
C450 C441 1.429 1_654 S
C450 N447 1.350 . S
C450 C449 1.434 1_655 S
C451 C452 1.369 1_565 S
C451 C453 1.419 . S
C451 H455 0.930 . S
C452 C451 1.369 1_545 S
C452 C461 1.429 . S
C453 C451 1.419 . S
C453 C454 1.363 1_565 S
C453 H456 0.929 . S
C454 C453 1.363 1_545 S
C454 C460 1.428 . S
H455 C451 0.930 . S
H456 C453 0.929 . S
S457 N458 1.613 . S
S457 N459 1.610 . S
N458 S457 1.613 . S
N458 C461 1.350 . S
N459 S457 1.610 . S
N459 C460 1.351 . S
C460 C454 1.428 . S
C460 N459 1.351 . S
C460 C461 1.434 . S
C461 C452 1.429 . S
C461 N458 1.350 . S
C461 C460 1.434 . S
C462 C463 1.369 . S
C462 C464 1.419 . S
C462 H466 0.930 . S
C463 C462 1.369 . S
C463 C472 1.429 . S
C464 C462 1.419 . S
C464 C465 1.363 . S
C464 H467 0.929 . S
C465 C464 1.363 . S
C465 C471 1.428 . S
H466 C462 0.930 . S
H467 C464 0.929 . S
S468 N469 1.613 . S
S468 N470 1.610 . S
N469 S468 1.613 . S
N469 C472 1.350 . S
N470 S468 1.610 . S
N470 C471 1.351 . S
C471 C465 1.428 . S
C471 N470 1.351 . S
C471 C472 1.434 . S
C472 C463 1.429 . S
C472 N469 1.350 . S
C472 C471 1.434 . S
C473 C474 1.369 . S
C473 C475 1.419 . S
C473 H477 0.930 . S
C474 C473 1.369 . S
C474 C483 1.429 . S
C475 C473 1.419 . S
C475 C476 1.363 . S
C475 H478 0.929 . S
C476 C475 1.363 . S
C476 C482 1.428 . S
H477 C473 0.930 . S
H478 C475 0.929 . S
S479 N480 1.613 . S
S479 N481 1.610 . S
N480 S479 1.613 . S
N480 C483 1.350 1_554 S
N481 S479 1.610 . S
N481 C482 1.351 1_554 S
C482 C476 1.428 . S
C482 N481 1.351 1_556 S
C482 C483 1.434 . S
C483 C474 1.429 . S
C483 N480 1.350 1_556 S
C483 C482 1.434 . S
C484 C485 1.369 . S
C484 C486 1.419 . S
C484 H488 0.930 . S
C485 C484 1.369 . S
C485 C494 1.429 1_655 S
C486 C484 1.419 . S
C486 C487 1.363 . S
C486 H489 0.929 . S
C487 C486 1.363 . S
C487 C493 1.428 1_655 S
H488 C484 0.930 . S
H489 C486 0.929 . S
S490 N491 1.613 . S
S490 N492 1.610 . S
N491 S490 1.613 . S
N491 C494 1.350 . S
N492 S490 1.610 . S
N492 C493 1.351 . S
C493 C487 1.428 1_455 S
C493 N492 1.351 . S
C493 C494 1.434 . S
C494 C485 1.429 1_455 S
C494 N491 1.350 . S
C494 C493 1.434 . S
C495 C496 1.369 . S
C495 C497 1.419 . S
C495 H499 0.930 . S
C496 C495 1.369 . S
C496 C505 1.429 . S
C497 C495 1.419 . S
C497 C498 1.363 . S
C497 H500 0.929 . S
C498 C497 1.363 . S
C498 C504 1.428 . S
H499 C495 0.930 . S
H500 C497 0.929 . S
S501 N502 1.615 . S
S501 N503 1.610 . S
N502 S501 1.615 . S
N502 C505 1.356 . S
N503 S501 1.610 . S
N503 C504 1.351 . S
C504 C498 1.428 . S
C504 N503 1.351 . S
C504 C505 1.434 . S
C505 C496 1.429 . S
C505 N502 1.356 . S
C505 C504 1.434 . S
C506 C507 1.369 . S
C506 C508 1.419 . S
C506 H510 0.930 . S
C507 C506 1.369 . S
C507 C516 1.429 . S
C508 C506 1.419 . S
C508 C509 1.363 . S
C508 H511 0.929 . S
C509 C508 1.363 . S
C509 C515 1.428 . S
H510 C506 0.930 . S
H511 C508 0.929 . S
S512 N513 1.613 . S
S512 N514 1.610 . S
N513 S512 1.613 . S
N513 C516 1.350 . S
N514 S512 1.610 . S
N514 C515 1.351 . S
C515 C509 1.428 . S
C515 N514 1.351 . S
C515 C516 1.434 . S
C516 C507 1.429 . S
C516 N513 1.350 . S
C516 C515 1.434 . S
C517 C518 1.369 . S
C517 C519 1.419 . S
C517 H521 0.930 . S
C518 C517 1.369 . S
C518 C527 1.429 1_556 S
C519 C517 1.419 . S
C519 C520 1.363 . S
C519 H522 0.929 . S
C520 C519 1.363 . S
C520 C526 1.428 . S
H521 C517 0.930 . S
H522 C519 0.929 . S
S523 N524 1.613 . S
S523 N525 1.610 . S
N524 S523 1.613 . S
N524 C527 1.350 . S
N525 S523 1.610 . S
N525 C526 1.351 1_554 S
C526 C520 1.428 . S
C526 N525 1.351 1_556 S
C526 C527 1.434 1_556 S
C527 C518 1.429 1_554 S
C527 N524 1.350 . S
C527 C526 1.434 1_554 S
C265 C82 1.940 . S
C267 C106 2.182 1_545 S
C278 C146 2.055 . S
C276 C95 1.903 . S
C289 C210 2.046 . S
C287 C56 1.739 . S
C300 C226 1.949 1_455 S
C298 C69 1.469 . S
C311 C127 2.191 1_564 S
C309 C30 1.949 1_565 S
C320 C43 1.851 . S
C322 C167 2.057 1_554 S
C331 C4 1.670 . S
C333 C201 2.052 . S
C342 C17 1.455 1_655 S
C344 C247 1.951 1_654 S
C355 C121 0.644 . S
C353 C74 0.633 . S
C366 C161 0.919 . S
C364 C87 0.933 1_565 S
C377 C197 1.054 . S
C375 C100 1.059 . S
C386 C61 0.940 . S
C388 C241 0.891 . S
C397 C22 0.647 1_655 S
C399 C130 0.640 . S
C410 C170 0.933 . S
C408 C35 0.913 . S
C421 C208 1.052 . S
C419 C48 1.061 . S
C430 C9 0.951 . S
C432 C250 0.882 . S
C441 C73 1.878 1_556 S
C443 C128 2.187 . S
C452 C86 2.028 . S
C454 C168 2.256 1_554 S
C465 C186 1.767 . S
C463 C99 1.746 . S
C476 C248 2.622 . S
C474 C60 2.277 . S
C485 C21 1.886 1_655 S
C487 C117 2.194 . S
C498 C157 2.254 . S
C496 C34 2.016 1_565 S
C509 C207 1.769 . S
C507 C47 1.742 . S
C518 C8 2.287 . S
C520 C237 2.626 . S
