# Generated by pormake.
# Topology wbl, (4,4)-cn, num edge types: 1
# Building blocks:
#     Node 0, Type 0, BuildingBlock: MUDLON_clean_linker_0, # of connection points: 4
#     Node 1, Type 0, BuildingBlock: MUDLON_clean_linker_0, # of connection points: 4
#     Node 2, Type 0, BuildingBlock: MUDLON_clean_linker_0, # of connection points: 4
#     Node 3, Type 0, BuildingBlock: MUDLON_clean_linker_0, # of connection points: 4
#     Node 4, Type 0, BuildingBlock: MUDLON_clean_linker_0, # of connection points: 4
#     Node 5, Type 0, BuildingBlock: MUDLON_clean_linker_0, # of connection points: 4
#     Node 6, Type 0, BuildingBlock: MUDLON_clean_linker_0, # of connection points: 4
#     Node 7, Type 0, BuildingBlock: MUDLON_clean_linker_0, # of connection points: 4
#     Node 8, Type 1, BuildingBlock: TATPOV_clean_sbu_0, # of connection points: 4
#     Node 9, Type 1, BuildingBlock: TATPOV_clean_sbu_0, # of connection points: 4
#     Node 10, Type 1, BuildingBlock: TATPOV_clean_sbu_0, # of connection points: 4
#     Node 11, Type 1, BuildingBlock: TATPOV_clean_sbu_0, # of connection points: 4
#     Node 12, Type 1, BuildingBlock: TATPOV_clean_sbu_0, # of connection points: 4
#     Node 13, Type 1, BuildingBlock: TATPOV_clean_sbu_0, # of connection points: 4
#     Node 14, Type 1, BuildingBlock: TATPOV_clean_sbu_0, # of connection points: 4
#     Node 15, Type 1, BuildingBlock: TATPOV_clean_sbu_0, # of connection points: 4
#     Edge 16, Type (0, 1), BuildingBlock: KIFKEQ_clean_linker_1, # of connection points: 2
#     Edge 17, Type (0, 1), BuildingBlock: KIFKEQ_clean_linker_1, # of connection points: 2
#     Edge 18, Type (0, 1), BuildingBlock: KIFKEQ_clean_linker_1, # of connection points: 2
#     Edge 19, Type (0, 1), BuildingBlock: KIFKEQ_clean_linker_1, # of connection points: 2
#     Edge 20, Type (0, 1), BuildingBlock: KIFKEQ_clean_linker_1, # of connection points: 2
#     Edge 21, Type (0, 1), BuildingBlock: KIFKEQ_clean_linker_1, # of connection points: 2
#     Edge 22, Type (0, 1), BuildingBlock: KIFKEQ_clean_linker_1, # of connection points: 2
#     Edge 23, Type (0, 1), BuildingBlock: KIFKEQ_clean_linker_1, # of connection points: 2
#     Edge 24, Type (0, 1), BuildingBlock: KIFKEQ_clean_linker_1, # of connection points: 2
#     Edge 25, Type (0, 1), BuildingBlock: KIFKEQ_clean_linker_1, # of connection points: 2
#     Edge 26, Type (0, 1), BuildingBlock: KIFKEQ_clean_linker_1, # of connection points: 2
#     Edge 27, Type (0, 1), BuildingBlock: KIFKEQ_clean_linker_1, # of connection points: 2
#     Edge 28, Type (0, 1), BuildingBlock: KIFKEQ_clean_linker_1, # of connection points: 2
#     Edge 29, Type (0, 1), BuildingBlock: KIFKEQ_clean_linker_1, # of connection points: 2
#     Edge 30, Type (0, 1), BuildingBlock: KIFKEQ_clean_linker_1, # of connection points: 2
#     Edge 31, Type (0, 1), BuildingBlock: KIFKEQ_clean_linker_1, # of connection points: 2
#     Edge 32, Type (0, 1), BuildingBlock: KIFKEQ_clean_linker_1, # of connection points: 2
#     Edge 33, Type (0, 1), BuildingBlock: KIFKEQ_clean_linker_1, # of connection points: 2
#     Edge 34, Type (0, 1), BuildingBlock: KIFKEQ_clean_linker_1, # of connection points: 2
#     Edge 35, Type (0, 1), BuildingBlock: KIFKEQ_clean_linker_1, # of connection points: 2
#     Edge 36, Type (0, 1), BuildingBlock: KIFKEQ_clean_linker_1, # of connection points: 2
#     Edge 37, Type (0, 1), BuildingBlock: KIFKEQ_clean_linker_1, # of connection points: 2
#     Edge 38, Type (0, 1), BuildingBlock: KIFKEQ_clean_linker_1, # of connection points: 2
#     Edge 39, Type (0, 1), BuildingBlock: KIFKEQ_clean_linker_1, # of connection points: 2
#     Edge 40, Type (0, 1), BuildingBlock: KIFKEQ_clean_linker_1, # of connection points: 2
#     Edge 41, Type (0, 1), BuildingBlock: KIFKEQ_clean_linker_1, # of connection points: 2
#     Edge 42, Type (0, 1), BuildingBlock: KIFKEQ_clean_linker_1, # of connection points: 2
#     Edge 43, Type (0, 1), BuildingBlock: KIFKEQ_clean_linker_1, # of connection points: 2
#     Edge 44, Type (0, 1), BuildingBlock: KIFKEQ_clean_linker_1, # of connection points: 2
#     Edge 45, Type (0, 1), BuildingBlock: KIFKEQ_clean_linker_1, # of connection points: 2
#     Edge 46, Type (0, 1), BuildingBlock: KIFKEQ_clean_linker_1, # of connection points: 2
#     Edge 47, Type (0, 1), BuildingBlock: KIFKEQ_clean_linker_1, # of connection points: 2
# Relax obj value: 0.126
# Max RMSD: 0.127
# Mean RMSD: 0.118
data_MOF--net-wbl--node1-TATPOV_clean_sbu_0--node2-MUDLON_clean_linker_0--edge1-KIFKEQ_clean_linker_1
_symmetry_space_group_name_H-M    P1
_symmetry_Int_Tables_number       1
_symmetry_cell_setting            triclinic
loop_
_symmetry_equiv_pos_as_xyz
'x, y, z'
_cell_length_a     54.228189
_cell_length_b     54.236171
_cell_length_c     76.177077
_cell_angle_alpha  91.438702
_cell_angle_beta   91.405256
_cell_angle_gamma 90.00251
loop_
_atom_site_label
_atom_site_type_symbol
_atom_site_fract_x
_atom_site_fract_y
_atom_site_fract_z
_atom_type_partial_charge
H0 H 0.17026 0.00563 0.3467 0.0
N1 N 0.13122 0.0071 0.32505 0.0
H2 H 0.17581 0.98057 0.37283 0.0
H3 H 0.09616 0.97774 0.33946 0.0
H4 H 0.10141 0.953 0.36554 0.0
H5 H 0.11556 0.96162 0.3127 0.0
H6 H 0.13613 0.93631 0.29083 0.0
H7 H 0.16335 0.02262 0.30204 0.0
H8 H 0.18293 0.99803 0.27896 0.0
H9 H 0.13256 0.05455 0.33358 0.0
H10 H 0.08416 0.99738 0.31286 0.0
H11 H 0.09827 0.08369 0.3338 0.0
H12 H 0.04926 0.02597 0.31393 0.0
H13 H 0.98453 0.17191 0.34484 0.0
H14 H 0.96389 0.18231 0.37217 0.0
H15 H 0.95726 0.10468 0.38286 0.0
H16 H 0.97717 0.09454 0.35519 0.0
H17 H 0.95478 0.09253 0.32728 0.0
H18 H 0.91612 0.09673 0.31032 0.0
H19 H 0.94309 0.1643 0.28888 0.0
H20 H 0.98147 0.16021 0.30615 0.0
H21 H 0.03003 0.12103 0.35272 0.0
H22 H 0.06309 0.09122 0.3505 0.0
H23 H 0.03071 0.06223 0.30188 0.0
N24 N 0.99135 0.12736 0.33054 0.0
H25 H 0.99695 0.09121 0.30444 0.0
C26 C 0.13292 0.99363 0.34112 0.0
C27 C 0.1551 0.99438 0.35091 0.0
C28 C 0.15817 0.98016 0.36584 0.0
C29 C 0.13903 0.96478 0.37122 0.0
C30 C 0.11656 0.96448 0.36162 0.0
C31 C 0.1135 0.97878 0.34673 0.0
C32 C 0.13857 0.99381 0.30942 0.0
C33 C 0.13005 0.96983 0.3053 0.0
C34 C 0.14173 0.95539 0.29253 0.0
C35 C 0.16175 0.96483 0.28334 0.0
C36 C 0.16821 0.9898 0.28617 0.0
C37 C 0.15688 0.00401 0.29921 0.0
C38 C 0.11084 0.02389 0.32343 0.0
C39 C 0.11444 0.04837 0.32907 0.0
C40 C 0.09475 0.06486 0.32936 0.0
C41 C 0.07084 0.05706 0.32424 0.0
C42 C 0.06741 0.03263 0.31795 0.0
C43 C 0.0873 0.01619 0.31745 0.0
C44 C 0.98243 0.13258 0.34798 0.0
C45 C 0.97898 0.15721 0.35327 0.0
C46 C 0.96725 0.16307 0.36893 0.0
C47 C 0.95881 0.14432 0.37973 0.0
C48 C 0.96315 0.11957 0.37474 0.0
C49 C 0.97472 0.11373 0.35898 0.0
C50 C 0.97088 0.12631 0.31808 0.0
C51 C 0.9525 0.10803 0.31874 0.0
C52 C 0.93044 0.11045 0.30907 0.0
C53 C 0.92656 0.13095 0.29842 0.0
C54 C 0.94565 0.14822 0.29687 0.0
C55 C 0.96756 0.14594 0.30669 0.0
C56 C 0.0099 0.10802 0.32933 0.0
C57 C 0.0295 0.10787 0.34179 0.0
C58 C 0.04877 0.09101 0.34034 0.0
C59 C 0.04962 0.07427 0.32599 0.0
C60 C 0.03038 0.07451 0.3133 0.0
C61 C 0.01087 0.09125 0.31485 0.0
H62 H 0.98321 0.38959 0.5998 0.0
N63 N 0.98145 0.4314 0.58248 0.0
H64 H 0.96349 0.38058 0.62743 0.0
H65 H 0.95899 0.46511 0.6042 0.0
H66 H 0.93969 0.45648 0.63207 0.0
H67 H 0.93064 0.43443 0.58205 0.0
H68 H 0.90333 0.41449 0.56111 0.0
H69 H 0.99291 0.41557 0.55025 0.0
H70 H 0.96513 0.39826 0.52763 0.0
H71 H 0.02954 0.43304 0.58879 0.0
H72 H 0.96804 0.47734 0.57166 0.0
H73 H 0.05713 0.46821 0.5864 0.0
H74 H 0.99569 0.51266 0.56845 0.0
H75 H 0.12863 0.5566 0.60989 0.0
H76 H 0.13593 0.57705 0.63851 0.0
H77 H 0.07808 0.62933 0.62651 0.0
H78 H 0.07189 0.60954 0.59772 0.0
H79 H 0.06927 0.60249 0.56514 0.0
H80 H 0.08359 0.63723 0.54798 0.0
H81 H 0.15898 0.61435 0.5571 0.0
H82 H 0.14455 0.57978 0.57416 0.0
H83 H 0.10636 0.52722 0.56978 0.0
H84 H 0.07655 0.49358 0.56618 0.0
H85 H 0.01939 0.54176 0.5858 0.0
N86 N 0.09904 0.57147 0.58402 0.0
H87 H 0.04894 0.57549 0.5883 0.0
C88 C 0.97272 0.42793 0.59999 0.0
C89 C 0.97416 0.40435 0.607 0.0
C90 C 0.96292 0.39929 0.6228 0.0
C91 C 0.94994 0.41781 0.63195 0.0
C92 C 0.94932 0.44176 0.62525 0.0
C93 C 0.96061 0.4468 0.60942 0.0
C94 C 0.9642 0.42544 0.56821 0.0
C95 C 0.93852 0.42653 0.57029 0.0
C96 C 0.92259 0.4153 0.55788 0.0
C97 C 0.93172 0.4036 0.5426 0.0
C98 C 0.95719 0.40565 0.53953 0.0
C99 C 0.97324 0.41596 0.55235 0.0
C100 C 0.99695 0.45258 0.58034 0.0
C101 C 0.02213 0.45039 0.58429 0.0
C102 C 0.03786 0.47047 0.58272 0.0
C103 C 0.02873 0.49326 0.577 0.0
C104 C 0.00334 0.49544 0.57297 0.0
C105 C 0.98753 0.47527 0.5747 0.0
C106 C 0.0998 0.58145 0.60171 0.0
C107 C 0.11724 0.57217 0.61365 0.0
C108 C 0.12124 0.58382 0.63003 0.0
C109 C 0.10769 0.60498 0.63478 0.0
C110 C 0.08911 0.61333 0.62317 0.0
C111 C 0.08534 0.60182 0.60673 0.0
C112 C 0.10597 0.5886 0.57091 0.0
C113 C 0.0888 0.60458 0.56302 0.0
C114 C 0.09699 0.62441 0.55325 0.0
C115 C 0.12239 0.62859 0.55145 0.0
C116 C 0.13933 0.6117 0.55848 0.0
C117 C 0.13114 0.59187 0.56806 0.0
C118 C 0.0801 0.55363 0.57963 0.0
C119 C 0.08726 0.53057 0.57291 0.0
C120 C 0.07023 0.51135 0.57106 0.0
C121 C 0.04567 0.51475 0.57615 0.0
C122 C 0.03812 0.53843 0.58177 0.0
C123 C 0.05515 0.55777 0.58337 0.0
H124 H 0.63871 0.48498 0.85474 0.0
N125 N 0.61131 0.47364 0.82634 0.0
H126 H 0.64331 0.46155 0.8817 0.0
H127 H 0.58775 0.43033 0.83351 0.0
H128 H 0.59181 0.40717 0.86036 0.0
H129 H 0.65488 0.47812 0.81192 0.0
H130 H 0.67092 0.45421 0.78701 0.0
H131 H 0.58434 0.44228 0.80464 0.0
H132 H 0.60066 0.41732 0.78018 0.0
H133 H 0.61609 0.52078 0.81899 0.0
H134 H 0.56184 0.46581 0.83045 0.0
H135 H 0.58411 0.55247 0.81891 0.0
H136 H 0.53004 0.49745 0.83163 0.0
H137 H 0.48926 0.64373 0.85654 0.0
H138 H 0.46679 0.65398 0.88315 0.0
H139 H 0.43228 0.58207 0.88031 0.0
H140 H 0.45608 0.57156 0.85429 0.0
H141 H 0.44019 0.57939 0.82601 0.0
H142 H 0.40588 0.59587 0.80896 0.0
H143 H 0.44776 0.66184 0.80015 0.0
H144 H 0.48287 0.64469 0.81676 0.0
H145 H 0.5303 0.60663 0.84319 0.0
H146 H 0.5611 0.57433 0.83956 0.0
H147 H 0.50497 0.5258 0.81677 0.0
N148 N 0.48264 0.6044 0.83571 0.0
H149 H 0.47424 0.55761 0.82142 0.0
C150 C 0.61306 0.45947 0.84208 0.0
C151 C 0.62844 0.46801 0.85595 0.0
C152 C 0.63089 0.45469 0.87136 0.0
C153 C 0.61791 0.43247 0.87318 0.0
C154 C 0.60231 0.42403 0.85929 0.0
C155 C 0.5999 0.43737 0.84389 0.0
C156 C 0.61876 0.46151 0.81035 0.0
C157 C 0.64281 0.4653 0.80476 0.0
C158 C 0.65183 0.45178 0.7905 0.0
C159 C 0.63699 0.43393 0.78174 0.0
C160 C 0.61243 0.43097 0.78678 0.0
C161 C 0.60322 0.44498 0.80084 0.0
C162 C 0.59149 0.49113 0.82504 0.0
C163 C 0.59723 0.51562 0.82151 0.0
C164 C 0.57895 0.5337 0.82166 0.0
C165 C 0.5545 0.52768 0.82564 0.0
C166 C 0.54859 0.50282 0.82844 0.0
C167 C 0.56687 0.48465 0.82796 0.0
C168 C 0.4739 0.60721 0.85331 0.0
C169 C 0.47747 0.62994 0.86206 0.0
C170 C 0.46439 0.63582 0.87711 0.0
C171 C 0.44715 0.61912 0.88353 0.0
C172 C 0.4453 0.5954 0.87567 0.0
C173 C 0.45874 0.58942 0.8607 0.0
C174 C 0.46455 0.61058 0.82237 0.0
C175 C 0.44274 0.59675 0.81969 0.0
C176 C 0.4229 0.60631 0.81004 0.0
C177 C 0.42423 0.6301 0.80333 0.0
C178 C 0.44638 0.64341 0.80522 0.0
C179 C 0.46643 0.63359 0.81454 0.0
C180 C 0.50001 0.58484 0.83249 0.0
C181 C 0.52473 0.58901 0.83737 0.0
C182 C 0.54233 0.57055 0.83512 0.0
C183 C 0.53564 0.54743 0.82767 0.0
C184 C 0.51079 0.54326 0.8227 0.0
C185 C 0.49309 0.56169 0.82524 0.0
H186 H 0.50239 0.87675 0.11354 0.0
N187 N 0.49725 0.91122 0.08977 0.0
H188 H 0.48426 0.8761 0.14254 0.0
H189 H 0.47471 0.9503 0.10622 0.0
H190 H 0.45654 0.95 0.13539 0.0
H191 H 0.44971 0.92681 0.08396 0.0
H192 H 0.41751 0.90427 0.06732 0.0
H193 H 0.503 0.87164 0.06904 0.0
H194 H 0.47083 0.84917 0.05201 0.0
H195 H 0.545 0.91686 0.09632 0.0
H196 H 0.48333 0.95016 0.06917 0.0
H197 H 0.57222 0.9487 0.08585 0.0
H198 H 0.51064 0.98114 0.05756 0.0
H199 H 0.66064 0.04908 0.06449 0.0
H200 H 0.67675 0.07096 0.09071 0.0
H201 H 0.60223 0.08086 0.10869 0.0
H202 H 0.58646 0.06089 0.08199 0.0
H203 H 0.5859 0.08389 0.05162 0.0
H204 H 0.59484 0.11771 0.03216 0.0
H205 H 0.65054 0.07322 0.00717 0.0
H206 H 0.6412 0.03924 0.02654 0.0
H207 H 0.62167 0.99407 0.05502 0.0
H208 H 0.59219 0.9617 0.06129 0.0
H209 H 0.53416 0.01633 0.06409 0.0
N210 N 0.61377 0.0421 0.05475 0.0
H211 H 0.56347 0.04805 0.05639 0.0
C212 C 0.48983 0.91342 0.10776 0.0
C213 C 0.4929 0.89299 0.11844 0.0
C214 C 0.48258 0.89273 0.13502 0.0
C215 C 0.46886 0.91298 0.14127 0.0
C216 C 0.46678 0.93401 0.13087 0.0
C217 C 0.47726 0.93428 0.11426 0.0
C218 C 0.47878 0.90065 0.07791 0.0
C219 C 0.4546 0.91004 0.07692 0.0
C220 C 0.43618 0.89715 0.06742 0.0
C221 C 0.44168 0.87491 0.05854 0.0
C222 C 0.46614 0.86634 0.05868 0.0
C223 C 0.48449 0.87909 0.06837 0.0
C224 C 0.51228 0.93084 0.08341 0.0
C225 C 0.53743 0.93094 0.08792 0.0
C226 C 0.553 0.94903 0.08169 0.0
C227 C 0.54384 0.96734 0.07049 0.0
C228 C 0.51842 0.96746 0.06618 0.0
C229 C 0.50273 0.94954 0.07273 0.0
C230 C 0.62244 0.05293 0.07127 0.0
C231 C 0.64788 0.05585 0.07421 0.0
C232 C 0.65702 0.06826 0.08928 0.0
C233 C 0.64084 0.07776 0.10195 0.0
C234 C 0.61531 0.07428 0.09914 0.0
C235 C 0.60619 0.06237 0.08388 0.0
C236 C 0.61291 0.05896 0.04047 0.0
C237 C 0.59908 0.08088 0.04136 0.0
C238 C 0.60428 0.10028 0.03025 0.0
C239 C 0.62353 0.0981 0.0183 0.0
C240 C 0.63566 0.07536 0.01632 0.0
C241 C 0.63027 0.05593 0.02728 0.0
C242 C 0.59496 0.02345 0.05555 0.0
C243 C 0.60244 0.99886 0.05657 0.0
C244 C 0.58558 0.98047 0.06044 0.0
C245 C 0.56083 0.98641 0.0638 0.0
C246 C 0.55301 0.01094 0.06164 0.0
C247 C 0.56986 0.02925 0.05734 0.0
H248 H 0.08128 0.59824 0.92451 0.0
N249 N 0.03379 0.60878 0.93374 0.0
H250 H 0.10164 0.6113 0.89819 0.0
H251 H 0.01326 0.63111 0.90628 0.0
H252 H 0.03346 0.6439 0.87953 0.0
H253 H 0.04093 0.65521 0.94438 0.0
H254 H 0.07271 0.67086 0.96481 0.0
H255 H 0.06044 0.58065 0.95765 0.0
H256 H 0.09097 0.59613 0.97875 0.0
H257 H 0.05452 0.56349 0.92658 0.0
H258 H 0.9875 0.59965 0.94228 0.0
H259 H 0.03449 0.52363 0.928 0.0
H260 H 0.96676 0.55957 0.94307 0.0
H261 H 0.96121 0.39826 0.92166 0.0
H262 H 0.94293 0.38044 0.89443 0.0
H263 H 0.90458 0.4489 0.88527 0.0
H264 H 0.92304 0.46661 0.91233 0.0
H265 H 0.90632 0.46253 0.94035 0.0
H266 H 0.87392 0.44602 0.95817 0.0
H267 H 0.92575 0.39386 0.98013 0.0
H268 H 0.95779 0.40972 0.96134 0.0
H269 H 0.986 0.45837 0.91398 0.0
H270 H 0.00508 0.49873 0.91307 0.0
H271 H 0.96497 0.52211 0.95888 0.0
N272 N 0.9523 0.44244 0.93615 0.0
H273 H 0.94507 0.4822 0.9594 0.0
C274 C 0.04562 0.61377 0.91739 0.0
C275 C 0.07055 0.60784 0.91466 0.0
C276 C 0.0822 0.61529 0.89953 0.0
C277 C 0.06923 0.62877 0.88676 0.0
C278 C 0.04409 0.63387 0.88923 0.0
C279 C 0.03245 0.62643 0.9044 0.0
C280 C 0.04835 0.61682 0.94903 0.0
C281 C 0.05143 0.64224 0.95215 0.0
C282 C 0.0696 0.65115 0.96396 0.0
C283 C 0.08488 0.63476 0.97324 0.0
C284 C 0.08012 0.60931 0.97143 0.0
C285 C 0.06231 0.60038 0.95932 0.0
C286 C 0.02244 0.58472 0.93431 0.0
C287 C 0.03537 0.56293 0.93015 0.0
C288 C 0.02379 0.54003 0.9309 0.0
C289 C 0.9989 0.5383 0.93554 0.0
C290 C 0.98602 0.56013 0.93967 0.0
C291 C 0.99774 0.58306 0.93911 0.0
C292 C 0.9434 0.43359 0.91909 0.0
C293 C 0.94917 0.40948 0.91359 0.0
C294 C 0.93877 0.3994 0.89807 0.0
C295 C 0.92221 0.41326 0.88783 0.0
C296 C 0.91703 0.43771 0.89304 0.0
C297 C 0.92758 0.44784 0.90849 0.0
C298 C 0.9345 0.43709 0.94935 0.0
C299 C 0.91081 0.44772 0.94911 0.0
C300 C 0.89229 0.43837 0.95949 0.0
C301 C 0.89706 0.41831 0.97044 0.0
C302 C 0.92124 0.40892 0.97155 0.0
C303 C 0.93968 0.41815 0.96102 0.0
C304 C 0.96303 0.46705 0.93617 0.0
C305 C 0.98085 0.47227 0.92367 0.0
C306 C 0.99208 0.49536 0.92331 0.0
C307 C 0.98648 0.51383 0.93584 0.0
C308 C 0.96925 0.50855 0.94873 0.0
C309 C 0.95776 0.48545 0.94899 0.0
H310 H 0.5268 0.35721 0.17457 0.0
N311 N 0.52725 0.40209 0.18939 0.0
H312 H 0.54694 0.34379 0.14756 0.0
H313 H 0.54797 0.4323 0.16537 0.0
H314 H 0.5688 0.41911 0.13894 0.0
H315 H 0.57637 0.41505 0.18983 0.0
H316 H 0.60724 0.39939 0.20946 0.0
H317 H 0.51913 0.38539 0.22134 0.0
H318 H 0.54992 0.37256 0.24291 0.0
H319 H 0.47868 0.39856 0.18812 0.0
H320 H 0.53795 0.45128 0.19316 0.0
H321 H 0.44863 0.43203 0.18762 0.0
H322 H 0.50815 0.48517 0.19162 0.0
H323 H 0.35792 0.54084 0.16703 0.0
H324 H 0.34692 0.55918 0.13888 0.0
H325 H 0.4242 0.57112 0.12932 0.0
H326 H 0.43498 0.55211 0.15726 0.0
H327 H 0.43404 0.57717 0.18386 0.0
H328 H 0.42727 0.61576 0.20023 0.0
H329 H 0.36315 0.5841 0.22359 0.0
H330 H 0.37003 0.54548 0.20705 0.0
H331 H 0.40356 0.49389 0.16558 0.0
H332 H 0.43459 0.46177 0.16795 0.0
H333 H 0.47574 0.50692 0.20594 0.0
N334 N 0.4025 0.53766 0.18198 0.0
H335 H 0.44543 0.53942 0.20297 0.0
C336 C 0.53583 0.39565 0.17206 0.0
C337 C 0.53542 0.37082 0.16656 0.0
C338 C 0.54717 0.3632 0.15124 0.0
C339 C 0.55982 0.38031 0.14117 0.0
C340 C 0.55904 0.40542 0.14621 0.0
C341 C 0.54709 0.41304 0.16144 0.0
C342 C 0.54533 0.40003 0.20352 0.0
C343 C 0.57034 0.40566 0.20131 0.0
C344 C 0.58828 0.39683 0.21299 0.0
C345 C 0.58167 0.38313 0.2277 0.0
C346 C 0.55629 0.38129 0.23126 0.0
C347 C 0.53841 0.38913 0.21909 0.0
C348 C 0.51038 0.42247 0.19044 0.0
C349 C 0.48512 0.41747 0.18909 0.0
C350 C 0.46805 0.43665 0.18861 0.0
C351 C 0.47595 0.46137 0.1892 0.0
C352 C 0.50138 0.46638 0.19117 0.0
C353 C 0.51847 0.44706 0.19191 0.0
C354 C 0.39713 0.54523 0.16426 0.0
C355 C 0.37244 0.54697 0.15866 0.0
C356 C 0.36623 0.55766 0.14268 0.0
C357 C 0.38468 0.56692 0.13199 0.0
C358 C 0.40956 0.56406 0.13721 0.0
C359 C 0.41576 0.55331 0.15321 0.0
C360 C 0.40234 0.55845 0.19418 0.0
C361 C 0.41879 0.57835 0.19273 0.0
C362 C 0.41487 0.60042 0.20205 0.0
C363 C 0.3945 0.60302 0.213 0.0
C364 C 0.37909 0.58259 0.21533 0.0
C365 C 0.38297 0.56053 0.20594 0.0
C366 C 0.42201 0.5195 0.18369 0.0
C367 C 0.41943 0.49706 0.17425 0.0
C368 C 0.43709 0.47854 0.17581 0.0
C369 C 0.45765 0.48164 0.18724 0.0
C370 C 0.46033 0.50403 0.19681 0.0
C371 C 0.44276 0.52277 0.19508 0.0
H372 H 0.42452 0.94804 0.43602 0.0
N373 N 0.47142 0.94203 0.44936 0.0
H374 H 0.40746 0.92994 0.40875 0.0
H375 H 0.49446 0.91308 0.42626 0.0
H376 H 0.47715 0.89429 0.39894 0.0
H377 H 0.46914 0.89847 0.46398 0.0
H378 H 0.4374 0.88385 0.48306 0.0
H379 H 0.4401 0.97233 0.46865 0.0
H380 H 0.40927 0.95821 0.48855 0.0
H381 H 0.44705 0.98418 0.4393 0.0
H382 H 0.51795 0.95539 0.45541 0.0
H383 H 0.46581 0.02361 0.43329 0.0
H384 H 0.53714 0.99488 0.44893 0.0
H385 H 0.54123 0.14342 0.40128 0.0
H386 H 0.5574 0.15178 0.37247 0.0
H387 H 0.58368 0.07663 0.36821 0.0
H388 H 0.56829 0.06881 0.39738 0.0
H389 H 0.59488 0.08352 0.42166 0.0
H390 H 0.63075 0.10088 0.4372 0.0
H391 H 0.58539 0.15957 0.45835 0.0
H392 H 0.54969 0.14265 0.44177 0.0
H393 H 0.51136 0.07862 0.40342 0.0
H394 H 0.49221 0.04017 0.41169 0.0
H395 H 0.54005 0.03789 0.45776 0.0
N396 N 0.54854 0.10338 0.42004 0.0
H397 H 0.55955 0.07561 0.4495 0.0
C398 C 0.46097 0.93213 0.43306 0.0
C399 C 0.43634 0.93677 0.42789 0.0
C400 C 0.42657 0.92637 0.41231 0.0
C401 C 0.44105 0.91084 0.40175 0.0
C402 C 0.46562 0.90617 0.40691 0.0
C403 C 0.47552 0.91689 0.42241 0.0
C404 C 0.45691 0.93631 0.46442 0.0
C405 C 0.4565 0.91173 0.46968 0.0
C406 C 0.43829 0.90342 0.48072 0.0
C407 C 0.42022 0.91971 0.48713 0.0
C408 C 0.42229 0.94493 0.4834 0.0
C409 C 0.44024 0.95313 0.47201 0.0
C410 C 0.48113 0.96668 0.44797 0.0
C411 C 0.46663 0.98632 0.44175 0.0
C412 C 0.47746 0.00891 0.43812 0.0
C413 C 0.50303 0.01235 0.44042 0.0
C414 C 0.51736 0.99296 0.44716 0.0
C415 C 0.50646 0.97039 0.45089 0.0
C416 C 0.55351 0.10563 0.40156 0.0
C417 C 0.54992 0.12861 0.39391 0.0
C418 C 0.55917 0.13329 0.37738 0.0
C419 C 0.57211 0.11494 0.368 0.0
C420 C 0.57426 0.09135 0.37518 0.0
C421 C 0.56521 0.08676 0.39182 0.0
C422 C 0.56962 0.11205 0.4304 0.0
C423 C 0.59267 0.10021 0.42952 0.0
C424 C 0.61314 0.11002 0.43865 0.0
C425 C 0.61102 0.13169 0.44904 0.0
C426 C 0.58779 0.1431 0.45025 0.0
C427 C 0.56733 0.13339 0.44094 0.0
C428 C 0.53809 0.07985 0.42505 0.0
C429 C 0.5182 0.06965 0.41511 0.0
C430 C 0.50695 0.04778 0.42001 0.0
C431 C 0.5148 0.03578 0.43531 0.0
C432 C 0.53402 0.04628 0.44564 0.0
C433 C 0.54534 0.06808 0.44073 0.0
H434 H 0.09853 0.92082 0.68418 0.0
N435 N 0.10267 0.9692 0.6952 0.0
H436 H 0.11448 0.90246 0.65727 0.0
H437 H 0.12728 0.99167 0.67036 0.0
H438 H 0.14409 0.97321 0.64349 0.0
H439 H 0.14659 0.96778 0.7112 0.0
H440 H 0.16045 0.93977 0.73388 0.0
H441 H 0.07262 0.93917 0.71441 0.0
H442 H 0.08589 0.91245 0.73779 0.0
H443 H 0.06134 0.94537 0.68161 0.0
H444 H 0.08751 0.01374 0.7055 0.0
H445 H 0.02002 0.96234 0.6789 0.0
H446 H 0.04584 0.03104 0.7027 0.0
H447 H 0.88984 0.03023 0.66445 0.0
H448 H 0.87417 0.05068 0.63811 0.0
H449 H 0.94419 0.0876 0.63358 0.0
H450 H 0.95975 0.06711 0.65973 0.0
H451 H 0.957 0.08307 0.68854 0.0
H452 H 0.94034 0.1197 0.70319 0.0
H453 H 0.87559 0.07854 0.71657 0.0
H454 H 0.89224 0.04182 0.70155 0.0
H455 H 0.95692 0.01053 0.65869 0.0
H456 H 0.99813 0.99355 0.66208 0.0
H457 H 0.00403 0.02521 0.71455 0.0
N458 N 0.93216 0.03965 0.68186 0.0
H459 H 0.96303 0.04241 0.71129 0.0
C460 C 0.11175 0.95775 0.67929 0.0
C461 C 0.10835 0.93245 0.67536 0.0
C462 C 0.11766 0.92191 0.66 0.0
C463 C 0.1307 0.93631 0.64824 0.0
C464 C 0.1339 0.96163 0.65214 0.0
C465 C 0.12447 0.97219 0.66751 0.0
C466 C 0.10871 0.95565 0.71086 0.0
C467 C 0.13319 0.95604 0.7172 0.0
C468 C 0.14101 0.94008 0.7303 0.0
C469 C 0.12436 0.92353 0.73762 0.0
C470 C 0.09939 0.92447 0.73218 0.0
C471 C 0.09168 0.94007 0.71881 0.0
C472 C 0.07775 0.97845 0.69363 0.0
C473 C 0.05833 0.96412 0.68615 0.0
C474 C 0.03461 0.97387 0.68458 0.0
C475 C 0.0297 0.99808 0.69047 0.0
C476 C 0.04901 0.01225 0.69816 0.0
C477 C 0.0728 0.00249 0.69969 0.0
C478 C 0.9258 0.04722 0.66421 0.0
C479 C 0.90202 0.04212 0.65743 0.0
C480 C 0.89312 0.05384 0.64242 0.0
C481 C 0.90787 0.071 0.63399 0.0
C482 C 0.9323 0.07476 0.64001 0.0
C483 C 0.94123 0.06297 0.65494 0.0
C484 C 0.92568 0.05966 0.6938 0.0
C485 C 0.93942 0.08173 0.69485 0.0
C486 C 0.92988 0.10268 0.7032 0.0
C487 C 0.90657 0.10196 0.71077 0.0
C488 C 0.89366 0.07951 0.71087 0.0
C489 C 0.90313 0.05857 0.70236 0.0
C490 C 0.95705 0.02974 0.68409 0.0
C491 C 0.96716 0.01452 0.67081 0.0
C492 C 0.9907 0.00442 0.67284 0.0
C493 C 0.00456 0.00855 0.68844 0.0
C494 C 0.99412 0.02246 0.70213 0.0
C495 C 0.97054 0.0325 0.70014 0.0
Zn496 Zn 0.29106 0.72754 0.97888 0.0
Zn497 Zn 0.30618 0.69795 0.00522 0.0
O498 O 0.26858 0.69419 0.00445 0.0
O499 O 0.25551 0.7201 0.98449 0.0
O500 O 0.31646 0.67595 0.02489 0.0
O501 O 0.30946 0.75589 0.99112 0.0
O502 O 0.31994 0.73177 0.01291 0.0
C503 C 0.25096 0.70429 0.99594 0.0
C504 C 0.32302 0.68753 0.9678 0.0
O505 O 0.32369 0.68292 0.9841 0.0
O506 O 0.30981 0.70504 0.96212 0.0
C507 C 0.33898 0.67086 0.02803 0.0
O508 O 0.35602 0.68043 0.01829 0.0
C509 C 0.32031 0.75279 0.00582 0.0
Zn510 Zn 0.31011 0.80094 0.28294 0.0
Zn511 Zn 0.33903 0.82453 0.25985 0.0
O512 O 0.30503 0.83986 0.25526 0.0
O513 O 0.28106 0.82063 0.27342 0.0
O514 O 0.36108 0.84025 0.24246 0.0
O515 O 0.31927 0.76798 0.27194 0.0
O516 O 0.34327 0.78767 0.25408 0.0
C517 C 0.28386 0.83652 0.26169 0.0
C518 C 0.34972 0.83024 0.29923 0.0
O519 O 0.35425 0.8354 0.28343 0.0
O520 O 0.33215 0.81578 0.30256 0.0
C521 C 0.36111 0.86319 0.23942 0.0
O522 O 0.34579 0.87782 0.24778 0.0
C523 C 0.33466 0.76757 0.2597 0.0
Zn524 Zn 0.22413 0.80963 0.47804 0.0
Zn525 Zn 0.20443 0.83788 0.50409 0.0
O526 O 0.24144 0.84471 0.50671 0.0
O527 O 0.25837 0.81998 0.48708 0.0
O528 O 0.19035 0.85712 0.52446 0.0
O529 O 0.20732 0.77935 0.48711 0.0
O530 O 0.19276 0.80258 0.50858 0.0
C531 C 0.26055 0.83616 0.49933 0.0
C532 C 0.19197 0.84914 0.46591 0.0
O533 O 0.18938 0.85373 0.48224 0.0
O534 O 0.20563 0.83148 0.46085 0.0
C535 C 0.20011 0.85414 0.5396 0.0
O536 O 0.21882 0.83891 0.54123 0.0
C537 C 0.19482 0.78157 0.50088 0.0
Zn538 Zn 0.23218 0.73636 0.74337 0.0
Zn539 Zn 0.20822 0.71529 0.76951 0.0
O540 O 0.20029 0.75219 0.77276 0.0
O541 O 0.22319 0.76995 0.75322 0.0
O542 O 0.1898 0.69962 0.78903 0.0
O543 O 0.26347 0.71953 0.75093 0.0
O544 O 0.24451 0.70486 0.77372 0.0
C545 C 0.20809 0.77161 0.76561 0.0
C546 C 0.19368 0.70337 0.73111 0.0
O547 O 0.19172 0.69959 0.74745 0.0
O548 O 0.20921 0.71887 0.72592 0.0
C549 C 0.16649 0.70215 0.78929 0.0
O550 O 0.15546 0.71504 0.77701 0.0
C551 C 0.26399 0.70729 0.76486 0.0
Zn552 Zn 0.79503 0.22424 0.53509 0.0
Zn553 Zn 0.82223 0.20187 0.50929 0.0
O554 O 0.8344 0.23754 0.51108 0.0
O555 O 0.81024 0.25731 0.52953 0.0
O556 O 0.84258 0.18734 0.48984 0.0
O557 O 0.76411 0.21306 0.5217 0.0
O558 O 0.78657 0.19609 0.50092 0.0
C559 C 0.82779 0.25738 0.51887 0.0
C560 C 0.82709 0.18386 0.54662 0.0
O561 O 0.83201 0.1818 0.53041 0.0
O562 O 0.81265 0.20071 0.55199 0.0
C563 C 0.84702 0.20026 0.47658 0.0
O564 O 0.83742 0.22244 0.47559 0.0
C565 C 0.76558 0.20125 0.5072 0.0
Zn566 Zn 0.79502 0.2917 0.77163 0.0
Zn567 Zn 0.82225 0.31661 0.74836 0.0
O568 O 0.787 0.32904 0.74357 0.0
O569 O 0.76425 0.30631 0.76049 0.0
O570 O 0.84282 0.33289 0.73032 0.0
O571 O 0.80829 0.25913 0.76258 0.0
O572 O 0.82968 0.28001 0.74376 0.0
C573 C 0.76596 0.3228 0.7491 0.0
C574 C 0.83117 0.32604 0.78748 0.0
O575 O 0.83667 0.32973 0.77162 0.0
O576 O 0.81399 0.31117 0.79093 0.0
C577 C 0.84361 0.35607 0.72832 0.0
O578 O 0.83009 0.37056 0.73826 0.0
C579 C 0.82343 0.25955 0.75021 0.0
Zn580 Zn 0.71908 0.29686 0.03388 0.0
Zn581 Zn 0.69217 0.32063 0.00903 0.0
O582 O 0.68507 0.28423 0.00279 0.0
O583 O 0.70947 0.26462 0.02136 0.0
O584 O 0.67564 0.33982 0.98977 0.0
O585 O 0.75036 0.31438 0.02752 0.0
O586 O 0.72796 0.33297 0.00737 0.0
C587 C 0.69382 0.26422 0.00873 0.0
C588 C 0.67814 0.32639 0.04727 0.0
O589 O 0.67451 0.33151 0.03119 0.0
O590 O 0.69584 0.3124 0.05175 0.0
C591 C 0.65757 0.33257 0.98003 0.0
O592 O 0.64763 0.31089 0.98257 0.0
C593 C 0.7487 0.32947 0.01514 0.0
Zn594 Zn 0.73612 0.2182 0.22278 0.0
Zn595 Zn 0.70807 0.19093 0.24484 0.0
O596 O 0.69521 0.22641 0.24642 0.0
O597 O 0.71875 0.24972 0.23052 0.0
O598 O 0.68689 0.17296 0.26202 0.0
O599 O 0.76642 0.20681 0.23605 0.0
O600 O 0.74382 0.18433 0.25322 0.0
C601 C 0.70086 0.24748 0.24073 0.0
C602 C 0.70666 0.17871 0.20566 0.0
O603 O 0.69962 0.17459 0.22114 0.0
O604 O 0.72181 0.19597 0.20296 0.0
C605 C 0.6784 0.18455 0.27528 0.0
O606 O 0.68434 0.20783 0.27801 0.0
C607 C 0.76486 0.19185 0.24847 0.0
H608 H 0.14851 0.92384 0.2629 0.0
H609 H 0.21194 0.96689 0.28066 0.0
H610 H 0.17611 0.89189 0.25157 0.0
H611 H 0.23903 0.93568 0.2688 0.0
H612 H 0.23538 0.83173 0.26992 0.0
H613 H 0.20383 0.8636 0.26885 0.0
H614 H 0.25402 0.91159 0.2428 0.0
H615 H 0.28577 0.87971 0.24393 0.0
C616 C 0.16823 0.92679 0.26412 0.0
C617 C 0.17786 0.94793 0.27296 0.0
C618 C 0.18401 0.90854 0.25751 0.0
C619 C 0.20972 0.91124 0.25936 0.0
C620 C 0.21931 0.93318 0.26693 0.0
C621 C 0.20363 0.95121 0.27372 0.0
C622 C 0.23951 0.84883 0.26355 0.0
C623 C 0.26324 0.85336 0.25733 0.0
C624 C 0.22134 0.86704 0.26281 0.0
C625 C 0.22657 0.8902 0.25593 0.0
C626 C 0.2496 0.89399 0.24836 0.0
C627 C 0.26774 0.87568 0.24897 0.0
H628 H 0.15627 0.66041 0.56573 0.0
H629 H 0.10882 0.64859 0.51996 0.0
H630 H 0.17218 0.69803 0.55324 0.0
H631 H 0.12488 0.68646 0.50735 0.0
H632 H 0.18673 0.73679 0.48448 0.0
H633 H 0.16732 0.70042 0.49644 0.0
H634 H 0.15576 0.74046 0.54523 0.0
H635 H 0.17503 0.77694 0.5333 0.0
C636 C 0.14932 0.66587 0.55295 0.0
C637 C 0.13148 0.65154 0.54371 0.0
C638 C 0.15825 0.6875 0.54589 0.0
C639 C 0.14973 0.69514 0.52936 0.0
C640 C 0.13182 0.68087 0.5201 0.0
C641 C 0.12258 0.65935 0.52731 0.0
C642 C 0.17998 0.73788 0.49774 0.0
C643 C 0.18254 0.75971 0.50798 0.0
C644 C 0.16871 0.71711 0.50451 0.0
C645 C 0.16008 0.71766 0.52174 0.0
C646 C 0.16241 0.73952 0.53194 0.0
C647 C 0.17338 0.7604 0.52509 0.0
H648 H 0.39281 0.61312 0.77719 0.0
H649 H 0.40443 0.67335 0.81461 0.0
H650 H 0.35348 0.6316 0.76771 0.0
H651 H 0.36498 0.69149 0.80541 0.0
H652 H 0.27845 0.69383 0.79795 0.0
H653 H 0.3179 0.67518 0.80687 0.0
H654 H 0.34109 0.67483 0.75308 0.0
H655 H 0.3021 0.6939 0.74419 0.0
C656 C 0.38698 0.63037 0.78325 0.0
C657 C 0.40163 0.642 0.79646 0.0
C658 C 0.36459 0.64087 0.77788 0.0
C659 C 0.35628 0.66281 0.78595 0.0
C660 C 0.37098 0.67446 0.79911 0.0
C661 C 0.39358 0.66425 0.80421 0.0
C662 C 0.29198 0.68973 0.78806 0.0
C663 C 0.28729 0.69542 0.77041 0.0
C664 C 0.31449 0.67918 0.79316 0.0
C665 C 0.33238 0.67365 0.78062 0.0
C666 C 0.3275 0.67886 0.76295 0.0
C667 C 0.30527 0.68987 0.75792 0.0
H668 H 0.44038 0.85333 0.02574 0.0
H669 H 0.3983 0.86185 0.0729 0.0
H670 H 0.40866 0.82559 0.01309 0.0
H671 H 0.36665 0.83409 0.06028 0.0
H672 H 0.33941 0.75592 0.03936 0.0
H673 H 0.36699 0.78768 0.05195 0.0
H674 H 0.36272 0.82691 0.00336 0.0
H675 H 0.33497 0.79535 0.99076 0.0
C676 C 0.42425 0.8494 0.03331 0.0
C677 C 0.42172 0.85972 0.05025 0.0
C678 C 0.40608 0.83369 0.02606 0.0
C679 C 0.38527 0.82773 0.03575 0.0
C680 C 0.38258 0.83833 0.05259 0.0
C681 C 0.40056 0.85432 0.05973 0.0
C682 C 0.34411 0.77146 0.03144 0.0
C683 C 0.33506 0.77308 0.01406 0.0
C684 C 0.35981 0.78967 0.03866 0.0
C685 C 0.36702 0.80964 0.02857 0.0
C686 C 0.35756 0.81157 0.01135 0.0
C687 C 0.34158 0.79358 0.0042 0.0
H688 H 0.13008 0.61244 0.97524 0.0
H689 H 0.09154 0.67828 0.99237 0.0
H690 H 0.16868 0.6301 0.98607 0.0
H691 H 0.13078 0.69636 0.00259 0.0
H692 H 0.20863 0.72651 0.98431 0.0
H693 H 0.16693 0.70974 0.98417 0.0
H694 H 0.19333 0.64664 0.0125 0.0
H695 H 0.23516 0.6634 0.01272 0.0
C696 C 0.1296 0.63037 0.98179 0.0
C697 C 0.10753 0.64396 0.98276 0.0
C698 C 0.15188 0.64054 0.98796 0.0
C699 C 0.15274 0.66465 0.99506 0.0
C700 C 0.13062 0.67779 0.99699 0.0
C701 C 0.1082 0.66747 0.99104 0.0
C702 C 0.20549 0.70929 0.99081 0.0
C703 C 0.22525 0.69611 0.99831 0.0
C704 C 0.18156 0.69979 0.99086 0.0
C705 C 0.17695 0.67683 0.99824 0.0
C706 C 0.19644 0.66431 0.00662 0.0
C707 C 0.22035 0.67395 0.00676 0.0
H708 H 0.39375 0.64684 0.19642 0.0
H709 H 0.37978 0.61437 0.24639 0.0
H710 H 0.37962 0.6866 0.20768 0.0
H711 H 0.36609 0.65439 0.25789 0.0
H712 H 0.31645 0.72157 0.26555 0.0
H713 H 0.33203 0.68213 0.25465 0.0
H714 H 0.38941 0.71996 0.22752 0.0
H715 H 0.37331 0.75943 0.23794 0.0
C716 C 0.38813 0.64835 0.20995 0.0
C717 C 0.38794 0.62752 0.22055 0.0
C718 C 0.38002 0.67115 0.21642 0.0
C719 C 0.37164 0.67372 0.23368 0.0
C720 C 0.37199 0.65297 0.24442 0.0
C721 C 0.37995 0.63008 0.23789 0.0
C722 C 0.33232 0.72148 0.25719 0.0
C723 C 0.34358 0.74365 0.25256 0.0
C724 C 0.34141 0.69884 0.25107 0.0
C725 C 0.36207 0.69783 0.24028 0.0
C726 C 0.37327 0.72004 0.23561 0.0
C727 C 0.36406 0.74269 0.24163 0.0
H728 H 0.37277 0.93684 0.484 0.0
H729 H 0.4161 0.87966 0.50863 0.0
H730 H 0.33527 0.91661 0.49256 0.0
H731 H 0.37809 0.85871 0.51629 0.0
H732 H 0.27058 0.87994 0.51655 0.0
H733 H 0.31028 0.90124 0.51891 0.0
H734 H 0.34552 0.83851 0.49421 0.0
H735 H 0.30585 0.81728 0.49158 0.0
C736 C 0.37448 0.92039 0.49169 0.0
C737 C 0.3977 0.90984 0.49541 0.0
C738 C 0.35284 0.9087 0.49652 0.0
C739 C 0.35382 0.88601 0.50494 0.0
C740 C 0.37689 0.8761 0.50963 0.0
C741 C 0.39862 0.88805 0.50511 0.0
C742 C 0.28687 0.87045 0.51197 0.0
C743 C 0.28504 0.84704 0.50367 0.0
C744 C 0.30956 0.88269 0.51331 0.0
C745 C 0.33089 0.87154 0.50669 0.0
C746 C 0.32938 0.84744 0.49955 0.0
C747 C 0.30664 0.83536 0.49794 0.0
H748 H 0.10791 0.87585 0.73838 0.0
H749 H 0.1622 0.92526 0.76254 0.0
H750 H 0.12758 0.84133 0.75249 0.0
H751 H 0.18256 0.89009 0.77614 0.0
H752 H 0.22752 0.81688 0.75985 0.0
H753 H 0.2055 0.85597 0.75984 0.0
H754 H 0.14149 0.82041 0.78044 0.0
H755 H 0.16363 0.78112 0.78053 0.0
C756 C 0.12354 0.87959 0.74715 0.0
C757 C 0.1336 0.90346 0.74907 0.0
C758 C 0.13488 0.85965 0.75526 0.0
C759 C 0.15671 0.86299 0.76532 0.0
C760 C 0.16585 0.887 0.76831 0.0
C761 C 0.15429 0.90707 0.76039 0.0
C762 C 0.20901 0.81754 0.76488 0.0
C763 C 0.19715 0.79589 0.7699 0.0
C764 C 0.19645 0.83999 0.76501 0.0
C765 C 0.17169 0.84115 0.76996 0.0
C766 C 0.16052 0.81994 0.77644 0.0
C767 C 0.17323 0.7975 0.77654 0.0
H768 H 0.66361 0.44398 0.75272 0.0
H769 H 0.63717 0.38424 0.78346 0.0
H770 H 0.69049 0.41542 0.73692 0.0
H771 H 0.66484 0.35602 0.76876 0.0
H772 H 0.71828 0.30695 0.74637 0.0
H773 H 0.6815 0.33275 0.74666 0.0
H774 H 0.72761 0.39768 0.74409 0.0
H775 H 0.76382 0.37168 0.74242 0.0
C776 C 0.66324 0.42459 0.7558 0.0
C777 C 0.64852 0.41627 0.76935 0.0
C778 C 0.6788 0.40823 0.74691 0.0
C779 C 0.68046 0.38337 0.75176 0.0
C780 C 0.6641 0.37483 0.76437 0.0
C781 C 0.64819 0.39106 0.77294 0.0
C782 C 0.72032 0.32672 0.74524 0.0
C783 C 0.74385 0.33739 0.74464 0.0
C784 C 0.69929 0.34158 0.7456 0.0
C785 C 0.70144 0.36748 0.74603 0.0
C786 C 0.72493 0.3779 0.74373 0.0
C787 C 0.74587 0.36297 0.74285 0.0
H788 H 0.59992 0.13395 -0.00069 0.0
H789 H 0.67084 0.11319 0.02106 0.0
H790 H 0.61711 0.17343 0.99067 0.0
H791 H 0.68765 0.15268 0.01379 0.0
H792 H 0.71877 0.22256 -0.00036 0.0
H793 H 0.70174 0.18121 0.99556 0.0
H794 H 0.62836 0.21072 0.0028 0.0
H795 H 0.64552 0.2521 0.00509 0.0
C796 C 0.61925 0.1378 0.00205 0.0
C797 C 0.63411 0.12052 0.01072 0.0
C798 C 0.62912 0.16051 0.99729 0.0
C799 C 0.65388 0.16666 0.00158 0.0
C800 C 0.66876 0.14877 0.00975 0.0
C801 C 0.65908 0.12599 0.01407 0.0
C802 C 0.69895 0.22011 -0.00024 0.0
C803 C 0.68342 0.24033 0.00274 0.0
C804 C 0.68911 0.19637 0.99769 0.0
C805 C 0.66361 0.19221 -0.00058 0.0
C806 C 0.64801 0.21287 0.00124 0.0
C807 C 0.65782 0.23671 0.00265 0.0
H808 H 0.88188 0.12848 0.31387 0.0
H809 H 0.91595 0.14486 0.26488 0.0
H810 H 0.84212 0.14205 0.30201 0.0
H811 H 0.87609 0.15787 0.25279 0.0
H812 H 0.81147 0.20957 0.24537 0.0
H813 H 0.84965 0.19253 0.25705 0.0
H814 H 0.80874 0.13454 0.28118 0.0
H815 H 0.77023 0.15214 0.26986 0.0
C816 C 0.88071 0.13442 0.3004 0.0
C817 C 0.90199 0.13576 0.2903 0.0
C818 C 0.85793 0.14221 0.29361 0.0
C819 C 0.85595 0.15137 0.27653 0.0
C820 C 0.87708 0.15151 0.26615 0.0
C821 C 0.89987 0.14392 0.273 0.0
C822 C 0.81055 0.19324 0.25323 0.0
C823 C 0.78779 0.18219 0.25666 0.0
C824 C 0.83251 0.18331 0.2598 0.0
C825 C 0.83234 0.16193 0.26984 0.0
C826 C 0.80953 0.1511 0.27357 0.0
C827 C 0.78746 0.16117 0.26708 0.0
H828 H 0.88063 0.40405 0.53811 0.0
H829 H 0.94528 0.36395 0.52117 0.0
H830 H 0.85517 0.36983 0.52877 0.0
H831 H 0.91937 0.33186 0.50898 0.0
H832 H 0.87728 0.26155 0.51867 0.0
H833 H 0.90147 0.29889 0.51924 0.0
H834 H 0.83447 0.34179 0.5128 0.0
H835 H 0.81038 0.30401 0.51424 0.0
C836 C 0.88959 0.38822 0.53218 0.0
C837 C 0.91549 0.38657 0.53159 0.0
C838 C 0.87467 0.36855 0.5263 0.0
C839 C 0.88508 0.34709 0.51877 0.0
C840 C 0.91057 0.34719 0.51569 0.0
C841 C 0.9256 0.36627 0.52236 0.0
C842 C 0.86785 0.27903 0.51725 0.0
C843 C 0.84207 0.28006 0.51666 0.0
C844 C 0.88174 0.30066 0.51734 0.0
C845 C 0.87021 0.32393 0.51616 0.0
C846 C 0.84425 0.32458 0.51433 0.0
C847 C 0.83032 0.30291 0.51497 0.0
H848 H 0.64931 0.10742 0.46519 0.0
H849 H 0.62297 0.18063 0.45351 0.0
H850 H 0.68678 0.12519 0.47852 0.0
H851 H 0.66013 0.1983 0.46749 0.0
H852 H 0.7183 0.21645 0.51266 0.0
H853 H 0.68051 0.20018 0.49859 0.0
H854 H 0.72361 0.14977 0.46711 0.0
H855 H 0.76145 0.16608 0.48103 0.0
C856 C 0.6515 0.12728 0.4654 0.0
C857 C 0.63314 0.14257 0.45816 0.0
C858 C 0.67293 0.13741 0.47308 0.0
C859 C 0.67633 0.16306 0.47392 0.0
C860 C 0.65783 0.17844 0.46709 0.0
C861 C 0.63651 0.1683 0.45919 0.0
C862 C 0.71972 0.202 0.50266 0.0
C863 C 0.74284 0.19249 0.49798 0.0
C864 C 0.69812 0.19279 0.49459 0.0
C865 C 0.69922 0.17366 0.48187 0.0
C866 C 0.7223 0.16437 0.47702 0.0
C867 C 0.74393 0.17381 0.4849 0.0
H868 H 0.88364 0.11102 0.74189 0.0
H869 H 0.90244 0.14468 0.69326 0.0
H870 H 0.8635 0.1492 0.75148 0.0
H871 H 0.88162 0.18239 0.70238 0.0
H872 H 0.86467 0.25445 0.7307 0.0
H873 H 0.88519 0.21647 0.72185 0.0
H874 H 0.82833 0.17416 0.7462 0.0
H875 H 0.80843 0.21231 0.75574 0.0
C876 C 0.88335 0.12659 0.73326 0.0
C877 C 0.89479 0.12507 0.71695 0.0
C878 C 0.87169 0.1484 0.73866 0.0
C879 C 0.87094 0.16896 0.72772 0.0
C880 C 0.88228 0.1672 0.71133 0.0
C881 C 0.89418 0.14557 0.70607 0.0
C882 C 0.85648 0.23704 0.73409 0.0
C883 C 0.83492 0.23637 0.7439 0.0
C884 C 0.8682 0.21521 0.72896 0.0
C885 C 0.85844 0.19217 0.73329 0.0
C886 C 0.83664 0.19154 0.74291 0.0
C887 C 0.82509 0.21341 0.74824 0.0
H888 H 0.89053 0.36883 0.97502 0.0
H889 H 0.85655 0.43957 0.9858 0.0
H890 H 0.85528 0.34818 0.98723 0.0
H891 H 0.82087 0.41865 0.99753 0.0
H892 H 0.75063 0.36874 0.99337 0.0
H893 H 0.78717 0.39095 0.98432 0.0
H894 H 0.83331 0.34347 0.01575 0.0
H895 H 0.79683 0.32121 0.02485 0.0
C896 C 0.87581 0.38006 0.98029 0.0
C897 C 0.87648 0.40594 0.9794 0.0
C898 C 0.85552 0.36815 0.9872 0.0
C899 C 0.83529 0.3818 0.99323 0.0
C900 C 0.83609 0.40766 0.99274 0.0
C901 C 0.85652 0.41961 0.98599 0.0
C902 C 0.76855 0.36305 0.99838 0.0
C903 C 0.77082 0.34314 0.00979 0.0
C904 C 0.78945 0.3759 0.99331 0.0
C905 C 0.81306 0.36895 -0.00064 0.0
C906 C 0.81534 0.34912 0.0108 0.0
C907 C 0.79443 0.33644 0.01604 0.0
H908 H 0.57451 0.34246 0.24867 0.0
H909 H 0.63297 0.38861 0.22974 0.0
H910 H 0.60446 0.3132 0.25822 0.0
H911 H 0.66232 0.35704 0.23641 0.0
H912 H 0.71438 0.29569 0.24632 0.0
H913 H 0.6872 0.33107 0.25026 0.0
H914 H 0.62404 0.28205 0.24567 0.0
H915 H 0.65138 0.24716 0.24366 0.0
C916 C 0.59358 0.34675 0.24641 0.0
C917 C 0.60062 0.3679 0.23734 0.0
C918 C 0.61099 0.32925 0.25158 0.0
C919 C 0.6359 0.33157 0.24712 0.0
C920 C 0.64337 0.3539 0.23984 0.0
C921 C 0.62611 0.37202 0.23548 0.0
C922 C 0.69464 0.2927 0.24655 0.0
C923 C 0.68491 0.26881 0.24462 0.0
C924 C 0.67893 0.313 0.24863 0.0
C925 C 0.65306 0.30992 0.24809 0.0
C926 C 0.64363 0.28567 0.24665 0.0
C927 C 0.65936 0.26542 0.24526 0.0
H928 H 0.16144 0.97555 0.40308 0.0
H929 H 0.12589 0.91635 0.37309 0.0
H930 H 0.17114 0.94711 0.42663 0.0
H931 H 0.13503 0.88811 0.3968 0.0
H932 H 0.18931 0.84157 0.43036 0.0
H933 H 0.17351 0.8696 0.40834 0.0
H934 H 0.1523 0.92125 0.44933 0.0
H935 H 0.16835 0.89323 0.47149 0.0
C936 C 0.15552 0.95652 0.4016 0.0
C937 C 0.14302 0.94816 0.3862 0.0
C938 C 0.16084 0.94031 0.41515 0.0
C939 C 0.15391 0.91537 0.41353 0.0
C940 C 0.1408 0.90718 0.39835 0.0
C941 C 0.13536 0.92341 0.38485 0.0
C942 C 0.18108 0.85879 0.43473 0.0
C943 C 0.18022 0.86521 0.45269 0.0
C944 C 0.17188 0.87479 0.42209 0.0
C945 C 0.16172 0.89765 0.42711 0.0
C946 C 0.16026 0.90384 0.44508 0.0
C947 C 0.16931 0.88773 0.45776 0.0
H948 H 0.12233 0.58853 0.66728 0.0
H949 H 0.10988 0.65515 0.63835 0.0
H950 H 0.14054 0.61301 0.69162 0.0
H951 H 0.1268 0.67951 0.66292 0.0
H952 H 0.19319 0.70768 0.69557 0.0
H953 H 0.16886 0.68438 0.6738 0.0
H954 H 0.13416 0.6446 0.71498 0.0
H955 H 0.15901 0.66778 0.73698 0.0
C956 C 0.12309 0.60838 0.66622 0.0
C957 C 0.11488 0.61981 0.65076 0.0
C958 C 0.13328 0.62242 0.68024 0.0
C959 C 0.13541 0.64816 0.67908 0.0
C960 C 0.12582 0.65967 0.66408 0.0
C961 C 0.11578 0.64568 0.65007 0.0
C962 C 0.18032 0.69406 0.70006 0.0
C963 C 0.1781 0.68956 0.71803 0.0
C964 C 0.1662 0.68083 0.68755 0.0
C965 C 0.14943 0.66277 0.69267 0.0
C966 C 0.14703 0.65832 0.71065 0.0
C967 C 0.16119 0.67164 0.72323 0.0
H968 H 0.42403 0.66355 0.88543 0.0
H969 H 0.42902 0.59366 0.91134 0.0
H970 H 0.39341 0.67748 0.90601 0.0
H971 H 0.3972 0.6074 0.93168 0.0
H972 H 0.36071 0.65585 0.97598 0.0
H973 H 0.39035 0.63742 0.95592 0.0
H974 H 0.35086 0.66912 0.91201 0.0
H975 H 0.3217 0.68803 0.93201 0.0
C976 C 0.41878 0.65119 0.89565 0.0
C977 C 0.42921 0.62755 0.89683 0.0
C978 C 0.40083 0.65905 0.90727 0.0
C979 C 0.39261 0.64344 0.92034 0.0
C980 C 0.4032 0.61987 0.92175 0.0
C981 C 0.42129 0.61196 0.91006 0.0
C982 C 0.3582 0.65863 0.96202 0.0
C983 C 0.33905 0.67369 0.9556 0.0
C984 C 0.37514 0.64799 0.95053 0.0
C985 C 0.37318 0.65214 0.93241 0.0
C986 C 0.35323 0.66608 0.92595 0.0
C987 C 0.33643 0.67681 0.93741 0.0
H988 H 0.42157 0.92776 0.14745 0.0
H989 H 0.48467 0.8932 0.1723 0.0
H990 H 0.39677 0.91849 0.17272 0.0
H991 H 0.45977 0.88379 0.19753 0.0
H992 H 0.39825 0.83879 0.22289 0.0
H993 H 0.42563 0.85439 0.20093 0.0
H994 H 0.39043 0.9257 0.20469 0.0
H995 H 0.36272 0.90999 0.22668 0.0
C996 C 0.43033 0.91875 0.15849 0.0
C997 C 0.45504 0.91099 0.15778 0.0
C998 C 0.41608 0.91339 0.17297 0.0
C999 C 0.42623 0.90012 0.18701 0.0
C1000 C 0.45131 0.89361 0.18674 0.0
C1001 C 0.46556 0.89902 0.17231 0.0
C1002 C 0.39637 0.85783 0.21912 0.0
C1003 C 0.37822 0.87311 0.22649 0.0
C1004 C 0.41223 0.86684 0.20663 0.0
C1005 C 0.41028 0.89132 0.20114 0.0
C1006 C 0.39229 0.90672 0.20861 0.0
C1007 C 0.37648 0.89773 0.22123 0.0
H1008 H 0.06414 0.6742 0.87227 0.0
H1009 H 0.1042 0.60568 0.86675 0.0
H1010 H 0.08718 0.69123 0.84836 0.0
H1011 H 0.12739 0.62285 0.84286 0.0
H1012 H 0.18309 0.67302 0.81596 0.0
H1013 H 0.15892 0.65466 0.83887 0.0
H1014 H 0.09265 0.68676 0.81667 0.0
H1015 H 0.1168 0.70541 0.79393 0.0
C1016 C 0.07758 0.66262 0.86578 0.0
C1017 C 0.08229 0.63855 0.87145 0.0
C1018 C 0.09084 0.67242 0.85209 0.0
C1019 C 0.10918 0.65843 0.84374 0.0
C1020 C 0.11366 0.63424 0.84921 0.0
C1021 C 0.10035 0.6244 0.86289 0.0
C1022 C 0.16336 0.67615 0.81596 0.0
C1023 C 0.1519 0.69074 0.80314 0.0
C1024 C 0.14949 0.66549 0.82903 0.0
C1025 C 0.12385 0.66924 0.82959 0.0
C1026 C 0.1124 0.68375 0.81672 0.0
C1027 C 0.12625 0.69434 0.80364 0.0
H1028 H 0.40598 0.56486 0.09964 0.0
H1029 H 0.34829 0.60121 0.12861 0.0
H1030 H 0.39507 0.58906 0.07392 0.0
H1031 H 0.33748 0.6253 0.10307 0.0
H1032 H 0.3081 0.64675 0.04958 0.0
H1033 H 0.31919 0.62037 0.0739 0.0
H1034 H 0.39644 0.63171 0.06405 0.0
H1035 H 0.38535 0.65775 0.03941 0.0
C1036 C 0.39102 0.57803 0.10052 0.0
C1037 C 0.37787 0.58097 0.11611 0.0
C1038 C 0.3848 0.59191 0.08582 0.0
C1039 C 0.36533 0.60902 0.08643 0.0
C1040 C 0.35224 0.61193 0.10204 0.0
C1041 C 0.35843 0.59808 0.11668 0.0
C1042 C 0.32747 0.64359 0.05255 0.0
C1043 C 0.34584 0.65447 0.0426 0.0
C1044 C 0.33382 0.62855 0.06655 0.0
C1045 C 0.3587 0.62405 0.07098 0.0
C1046 C 0.3771 0.63461 0.06086 0.0
C1047 C 0.37074 0.64966 0.04682 0.0
H1048 H 0.41458 0.9327 0.37558 0.0
H1049 H 0.44261 0.8622 0.392 0.0
H1050 H 0.39395 0.91262 0.35013 0.0
H1051 H 0.42196 0.84208 0.36652 0.0
H1052 H 0.35222 0.81645 0.33348 0.0
H1053 H 0.37636 0.83567 0.3576 0.0
H1054 H 0.40526 0.88859 0.32203 0.0
H1055 H 0.38127 0.86936 0.29782 0.0
C1056 C 0.41642 0.91293 0.37365 0.0
C1057 C 0.43012 0.89895 0.38571 0.0
C1058 C 0.40478 0.90149 0.35907 0.0
C1059 C 0.40635 0.87582 0.35643 0.0
C1060 C 0.42036 0.86188 0.36835 0.0
C1061 C 0.43229 0.87338 0.38281 0.0
C1062 C 0.36379 0.83213 0.33078 0.0
C1063 C 0.3648 0.84143 0.31376 0.0
C1064 C 0.37771 0.843 0.34456 0.0
C1065 C 0.39264 0.86358 0.34163 0.0
C1066 C 0.39377 0.87282 0.32462 0.0
C1067 C 0.38011 0.86175 0.31078 0.0
H1068 H 0.15312 0.89134 0.64478 0.0
H1069 H 0.13202 0.95529 0.61521 0.0
H1070 H 0.16945 0.87202 0.61838 0.0
H1071 H 0.14955 0.93643 0.58893 0.0
H1072 H 0.15878 0.88302 0.54163 0.0
H1073 H 0.14213 0.90322 0.56775 0.0
H1074 H 0.20322 0.87549 0.59895 0.0
H1075 H 0.21944 0.85478 0.573 0.0
C1076 C 0.15194 0.90129 0.63264 0.0
C1077 C 0.14115 0.92484 0.63212 0.0
C1078 C 0.16162 0.89034 0.61753 0.0
C1079 C 0.16091 0.9027 0.60152 0.0
C1080 C 0.15019 0.92629 0.60099 0.0
C1081 C 0.14041 0.93723 0.61612 0.0
C1082 C 0.16866 0.88128 0.55407 0.0
C1083 C 0.19036 0.86719 0.55525 0.0
C1084 C 0.1592 0.89298 0.56903 0.0
C1085 C 0.17128 0.89091 0.58548 0.0
C1086 C 0.19319 0.87711 0.58656 0.0
C1087 C 0.20258 0.86534 0.57164 0.0
H1088 H 0.62056 0.44964 0.90729 0.0
H1089 H 0.62239 0.38242 0.87569 0.0
H1090 H 0.62767 0.42592 0.93373 0.0
H1091 H 0.62941 0.35872 0.90211 0.0
H1092 H 0.62242 0.32129 0.95461 0.0
H1093 H 0.61036 0.34579 0.92932 0.0
H1094 H 0.6618 0.4027 0.94664 0.0
H1095 H 0.67354 0.37854 0.97196 0.0
C1096 C 0.62254 0.42981 0.90598 0.0
C1097 C 0.62104 0.41794 0.88937 0.0
C1098 C 0.62657 0.41622 0.92113 0.0
C1099 C 0.62917 0.39044 0.92001 0.0
C1100 C 0.62713 0.37851 0.90345 0.0
C1101 C 0.62313 0.39211 0.8883 0.0
C1102 C 0.63098 0.33913 0.95309 0.0
C1103 C 0.64901 0.3479 0.96527 0.0
C1104 C 0.62418 0.35309 0.93856 0.0
C1105 C 0.63518 0.37616 0.93595 0.0
C1106 C 0.65276 0.38515 0.94837 0.0
C1107 C 0.6596 0.3712 0.96284 0.0
H1108 H 0.61956 0.11741 0.11892 0.0
H1109 H 0.68411 0.07047 0.12081 0.0
H1110 H 0.63534 0.14053 0.14461 0.0
H1111 H 0.70038 0.09485 0.14586 0.0
H1112 H 0.72843 0.16971 0.17425 0.0
H1113 H 0.71257 0.14415 0.14952 0.0
H1114 H 0.64743 0.12792 0.17851 0.0
H1115 H 0.66346 0.15293 0.20347 0.0
C1116 C 0.63696 0.11179 0.12483 0.0
C1117 C 0.65045 0.09188 0.11772 0.0
C1118 C 0.64603 0.12522 0.13947 0.0
C1119 C 0.66901 0.11941 0.1471 0.0
C1120 C 0.68265 0.09972 0.14006 0.0
C1121 C 0.67336 0.08591 0.12564 0.0
C1122 C 0.71075 0.16064 0.17535 0.0
C1123 C 0.69715 0.1633 0.19076 0.0
C1124 C 0.7018 0.14596 0.16127 0.0
C1125 C 0.67886 0.13417 0.16222 0.0
C1126 C 0.66516 0.13692 0.17753 0.0
C1127 C 0.67436 0.15114 0.19177 0.0
H1128 H 0.96603 0.18281 0.40335 0.0
H1129 H 0.91825 0.12038 0.39171 0.0
H1130 H 0.93946 0.19557 0.42731 0.0
H1131 H 0.89219 0.13285 0.41599 0.0
H1132 H 0.86474 0.15335 0.47176 0.0
H1133 H 0.89313 0.13862 0.44933 0.0
H1134 H 0.89562 0.21168 0.42819 0.0
H1135 H 0.8673 0.22642 0.45048 0.0
C1136 C 0.94994 0.17175 0.40592 0.0
C1137 C 0.94421 0.15066 0.39549 0.0
C1138 C 0.93478 0.17905 0.41966 0.0
C1139 C 0.9137 0.16528 0.42341 0.0
C1140 C 0.90845 0.14369 0.41347 0.0
C1141 C 0.92347 0.13651 0.3996 0.0
C1142 C 0.87134 0.16624 0.46231 0.0
C1143 C 0.86376 0.19104 0.46287 0.0
C1144 C 0.88752 0.15779 0.44946 0.0
C1145 C 0.89666 0.17406 0.43711 0.0
C1146 C 0.8891 0.19882 0.4377 0.0
C1147 C 0.87273 0.2072 0.45038 0.0
H1148 H 0.96401 0.38798 0.65891 0.0
H1149 H 0.90363 0.4333 0.64055 0.0
H1150 H 0.93906 0.37442 0.68307 0.0
H1151 H 0.87878 0.41985 0.66477 0.0
H1152 H 0.84808 0.40437 0.71908 0.0
H1153 H 0.87498 0.42121 0.69705 0.0
H1154 H 0.90255 0.34804 0.6854 0.0
H1155 H 0.87601 0.33128 0.70746 0.0
C1156 C 0.94546 0.39512 0.66006 0.0
C1157 C 0.93579 0.41161 0.64773 0.0
C1158 C 0.93116 0.38734 0.6739 0.0
C1159 C 0.90687 0.3959 0.67575 0.0
C1160 C 0.89751 0.4131 0.66381 0.0
C1161 C 0.91179 0.42085 0.64994 0.0
C1162 C 0.85993 0.3919 0.71184 0.0
C1163 C 0.85987 0.36648 0.71502 0.0
C1164 C 0.87527 0.40154 0.69919 0.0
C1165 C 0.89097 0.38598 0.68953 0.0
C1166 C 0.89097 0.36059 0.6928 0.0
C1167 C 0.87559 0.35095 0.70537 0.0
H1168 H 0.61753 0.09883 0.35755 0.0
H1169 H 0.55686 0.14571 0.34172 0.0
H1170 H 0.64145 0.11342 0.33324 0.0
H1171 H 0.58131 0.16088 0.31777 0.0
H1172 H 0.64813 0.20678 0.29879 0.0
H1173 H 0.62046 0.18733 0.31901 0.0
H1174 H 0.64246 0.11549 0.29938 0.0
H1175 H 0.67016 0.13501 0.27887 0.0
C1176 C 0.60901 0.11179 0.34869 0.0
C1177 C 0.58526 0.12122 0.35175 0.0
C1178 C 0.62282 0.12022 0.33479 0.0
C1179 C 0.61332 0.13844 0.32376 0.0
C1180 C 0.5892 0.14706 0.32626 0.0
C1181 C 0.57526 0.13842 0.34002 0.0
C1182 C 0.64705 0.18684 0.29871 0.0
C1183 C 0.66141 0.17243 0.28728 0.0
C1184 C 0.63103 0.17572 0.31019 0.0
C1185 C 0.62923 0.14992 0.31069 0.0
C1186 C 0.64354 0.13543 0.29926 0.0
C1187 C 0.65933 0.14659 0.28753 0.0
H1188 H 0.87895 0.05704 0.60542 0.0
H1189 H 0.91189 0.12075 0.63184 0.0
H1190 H 0.85899 0.084 0.58398 0.0
H1191 H 0.89219 0.14754 0.61043 0.0
H1192 H 0.8517 0.14103 0.53917 0.0
H1193 H 0.87144 0.11313 0.55988 0.0
H1194 H 0.84814 0.15977 0.60314 0.0
H1195 H 0.82833 0.18771 0.5825 0.0
C1196 C 0.88202 0.07675 0.60656 0.0
C1197 C 0.89706 0.0868 0.62021 0.0
C1198 C 0.87072 0.09214 0.59428 0.0
C1199 C 0.87397 0.11784 0.59563 0.0
C1200 C 0.88918 0.12781 0.60919 0.0
C1201 C 0.90068 0.11246 0.62131 0.0
C1202 C 0.85074 0.14533 0.5531 0.0
C1203 C 0.8385 0.16664 0.5592 0.0
C1204 C 0.86193 0.12927 0.56494 0.0
C1205 C 0.86138 0.13435 0.58308 0.0
C1206 C 0.84905 0.15556 0.58919 0.0
C1207 C 0.8376 0.17147 0.57738 0.0
H1208 H 0.94206 0.38503 0.86148 0.0
H1209 H 0.87319 0.41535 0.87941 0.0
H1210 H 0.92012 0.36428 0.83683 0.0
H1211 H 0.85136 0.39487 0.85472 0.0
H1212 H 0.87337 0.35332 0.7854 0.0
H1213 H 0.89569 0.37525 0.80926 0.0
H1214 H 0.8421 0.35061 0.84598 0.0
H1215 H 0.81974 0.32869 0.82221 0.0
C1216 C 0.92227 0.38732 0.86009 0.0
C1217 C 0.90932 0.40179 0.87233 0.0
C1218 C 0.90976 0.37561 0.84595 0.0
C1219 C 0.88405 0.37792 0.84393 0.0
C1220 C 0.87116 0.3926 0.85607 0.0
C1221 C 0.88368 0.40451 0.87008 0.0
C1222 C 0.86634 0.35258 0.79856 0.0
C1223 C 0.84478 0.33925 0.80191 0.0
C1224 C 0.87919 0.36504 0.81221 0.0
C1225 C 0.87058 0.36465 0.82943 0.0
C1226 C 0.849 0.35142 0.83278 0.0
C1227 C 0.83629 0.33875 0.81918 0.0
H1228 H 0.56702 0.40275 0.10972 0.0
H1229 H 0.58854 0.33892 0.13931 0.0
H1230 H 0.59595 0.39086 0.08704 0.0
H1231 H 0.61617 0.32627 0.1162 0.0
H1232 H 0.68386 0.32501 0.08295 0.0
H1233 H 0.65473 0.33836 0.10501 0.0
H1234 H 0.60386 0.36133 0.06402 0.0
H1235 H 0.63342 0.34874 0.04194 0.0
C1236 C 0.57774 0.38608 0.11133 0.0
C1237 C 0.57546 0.37187 0.1264 0.0
C1238 C 0.59415 0.37911 0.09822 0.0
C1239 C 0.60857 0.3577 0.09984 0.0
C1240 C 0.60573 0.34313 0.11466 0.0
C1241 C 0.5895 0.35018 0.1278 0.0
C1242 C 0.66652 0.33303 0.07864 0.0
C1243 C 0.66095 0.33575 0.06068 0.0
C1244 C 0.64971 0.34052 0.09129 0.0
C1245 C 0.62679 0.35067 0.08631 0.0
C1246 C 0.62141 0.3538 0.06835 0.0
C1247 C 0.63834 0.3465 0.05568 0.0
loop_
_geom_bond_atom_site_label_1
_geom_bond_atom_site_label_2
_geom_bond_distance
_geom_bond_site_symmetry_2
_ccdc_geom_bond_type
H0 C27 0.929 . S
N1 C26 1.433 . S
N1 C32 1.435 . S
N1 C38 1.423 . S
H2 C28 0.930 . S
H3 C31 0.931 . S
H4 C30 0.929 . S
H5 C33 0.930 . S
H6 C34 0.932 . S
H7 C37 0.929 . S
H8 C36 0.931 . S
H9 C39 0.929 . S
H10 C43 0.932 . S
H11 C40 0.931 . S
H12 C42 0.929 . S
H13 C45 0.929 . S
H14 C46 0.930 . S
H15 C48 0.929 . S
H16 C49 0.931 . S
H17 C51 0.930 . S
H18 C52 0.932 . S
H19 C54 0.931 . S
H20 C55 0.929 . S
H21 C57 0.929 . S
H22 C58 0.931 . S
H23 C60 0.929 . S
N24 C44 1.433 . S
N24 C50 1.435 . S
N24 C56 1.423 . S
H25 C61 0.932 . S
C26 N1 1.433 . S
C26 C27 1.363 . S
C26 C31 1.370 . S
C27 H0 0.929 . S
C27 C26 1.363 . S
C27 C28 1.385 . S
C28 H2 0.930 . S
C28 C27 1.385 . S
C28 C29 1.357 . S
C29 C28 1.357 . S
C29 C30 1.406 . S
C30 H4 0.929 . S
C30 C29 1.406 . S
C30 C31 1.391 . S
C31 H3 0.931 . S
C31 C26 1.370 . S
C31 C30 1.391 . S
C32 N1 1.435 . S
C32 C33 1.358 . S
C32 C37 1.371 . S
C33 H5 0.930 . S
C33 C32 1.358 . S
C33 C34 1.405 . S
C34 H6 0.932 . S
C34 C33 1.405 . S
C34 C35 1.383 . S
C35 C34 1.383 . S
C35 C36 1.393 . S
C36 H8 0.931 . S
C36 C35 1.393 . S
C36 C37 1.382 . S
C37 H7 0.929 . S
C37 C32 1.371 . S
C37 C36 1.382 . S
C38 N1 1.423 . S
C38 C39 1.362 1_565 S
C38 C43 1.388 . S
C39 H9 0.929 . S
C39 C38 1.362 1_545 S
C39 C40 1.376 . S
C40 H11 0.931 . S
C40 C39 1.376 . S
C40 C41 1.396 . S
C41 C40 1.396 . S
C41 C42 1.348 1_545 S
C41 C59 1.472 . S
C42 H12 0.929 . S
C42 C41 1.348 1_565 S
C42 C43 1.443 . S
C43 H10 0.932 . S
C43 C38 1.388 . S
C43 C42 1.443 . S
C44 N24 1.433 . S
C44 C45 1.363 . S
C44 C49 1.370 . S
C45 H13 0.929 . S
C45 C44 1.363 . S
C45 C46 1.385 . S
C46 H14 0.930 . S
C46 C45 1.385 . S
C46 C47 1.357 . S
C47 C46 1.357 . S
C47 C48 1.406 . S
C48 H15 0.929 . S
C48 C47 1.406 . S
C48 C49 1.391 . S
C49 H16 0.931 . S
C49 C44 1.370 . S
C49 C48 1.391 . S
C50 N24 1.435 . S
C50 C51 1.358 . S
C50 C55 1.371 . S
C51 H17 0.930 . S
C51 C50 1.358 . S
C51 C52 1.405 . S
C52 H18 0.932 . S
C52 C51 1.405 . S
C52 C53 1.383 . S
C53 C52 1.383 . S
C53 C54 1.393 . S
C54 H19 0.931 . S
C54 C53 1.393 . S
C54 C55 1.382 . S
C55 H20 0.929 . S
C55 C50 1.371 . S
C55 C54 1.382 . S
C56 N24 1.423 . S
C56 C57 1.362 1_655 S
C56 C61 1.388 . S
C57 H21 0.929 . S
C57 C56 1.362 1_455 S
C57 C58 1.376 . S
C58 H22 0.931 . S
C58 C57 1.376 . S
C58 C59 1.396 . S
C59 C41 1.472 . S
C59 C58 1.396 . S
C59 C60 1.348 . S
C60 H23 0.929 . S
C60 C59 1.348 . S
C60 C61 1.443 1_455 S
C61 H25 0.932 . S
C61 C56 1.388 . S
C61 C60 1.443 1_655 S
H62 C89 0.929 . S
N63 C88 1.433 . S
N63 C94 1.435 . S
N63 C100 1.423 . S
H64 C90 0.930 . S
H65 C93 0.931 . S
H66 C92 0.929 . S
H67 C95 0.930 . S
H68 C96 0.932 . S
H69 C99 0.929 . S
H70 C98 0.931 . S
H71 C101 0.927 1_455 S
H72 C105 0.932 . S
H73 C102 0.931 . S
H74 C104 0.929 . S
H75 C107 0.929 . S
H76 C108 0.930 . S
H77 C110 0.929 . S
H78 C111 0.931 . S
H79 C113 0.930 . S
H80 C114 0.932 . S
H81 C116 0.931 . S
H82 C117 0.929 . S
H83 C119 0.929 . S
H84 C120 0.931 . S
H85 C122 0.929 . S
N86 C106 1.433 . S
N86 C112 1.435 . S
N86 C118 1.423 . S
H87 C123 0.932 . S
C88 N63 1.433 . S
C88 C89 1.363 . S
C88 C93 1.370 . S
C89 H62 0.929 . S
C89 C88 1.363 . S
C89 C90 1.385 . S
C90 H64 0.930 . S
C90 C89 1.385 . S
C90 C91 1.357 . S
C91 C90 1.357 . S
C91 C92 1.406 . S
C92 H66 0.929 . S
C92 C91 1.406 . S
C92 C93 1.391 . S
C93 H65 0.931 . S
C93 C88 1.370 . S
C93 C92 1.391 . S
C94 N63 1.435 . S
C94 C95 1.358 . S
C94 C99 1.371 . S
C95 H67 0.930 . S
C95 C94 1.358 . S
C95 C96 1.405 . S
C96 H68 0.932 . S
C96 C95 1.405 . S
C96 C97 1.383 . S
C97 C96 1.383 . S
C97 C98 1.393 . S
C98 H70 0.931 . S
C98 C97 1.393 . S
C98 C99 1.382 . S
C99 H69 0.929 . S
C99 C94 1.371 . S
C99 C98 1.382 . S
C100 N63 1.423 . S
C100 C101 1.385 . S
C100 C105 1.388 . S
C101 H71 0.927 1_655 S
C101 C100 1.385 . S
C101 C102 1.356 1_655 S
C102 H73 0.931 . S
C102 C101 1.356 1_455 S
C102 C103 1.396 . S
C103 C102 1.396 . S
C103 C104 1.348 1_455 S
C103 C121 1.472 . S
C104 H74 0.929 . S
C104 C103 1.348 1_655 S
C104 C105 1.443 . S
C105 H72 0.932 . S
C105 C100 1.388 . S
C105 C104 1.443 . S
C106 N86 1.433 . S
C106 C107 1.363 . S
C106 C111 1.370 . S
C107 H75 0.929 . S
C107 C106 1.363 . S
C107 C108 1.385 . S
C108 H76 0.930 . S
C108 C107 1.385 . S
C108 C109 1.357 . S
C109 C108 1.357 . S
C109 C110 1.406 . S
C110 H77 0.929 . S
C110 C109 1.406 . S
C110 C111 1.391 . S
C111 H78 0.931 . S
C111 C106 1.370 . S
C111 C110 1.391 . S
C112 N86 1.435 . S
C112 C113 1.358 . S
C112 C117 1.371 . S
C113 H79 0.930 . S
C113 C112 1.358 . S
C113 C114 1.405 . S
C114 H80 0.932 . S
C114 C113 1.405 . S
C114 C115 1.383 . S
C115 C114 1.383 . S
C115 C116 1.393 . S
C116 H81 0.931 . S
C116 C115 1.393 . S
C116 C117 1.382 . S
C117 H82 0.929 . S
C117 C112 1.371 . S
C117 C116 1.382 . S
C118 N86 1.423 . S
C118 C119 1.362 . S
C118 C123 1.388 . S
C119 H83 0.929 . S
C119 C118 1.362 . S
C119 C120 1.376 . S
C120 H84 0.931 . S
C120 C119 1.376 . S
C120 C121 1.396 . S
C121 C103 1.472 . S
C121 C120 1.396 . S
C121 C122 1.348 . S
C122 H85 0.929 . S
C122 C121 1.348 . S
C122 C123 1.443 . S
C123 H87 0.932 . S
C123 C118 1.388 . S
C123 C122 1.443 . S
H124 C151 0.929 . S
N125 C150 1.433 . S
N125 C156 1.435 . S
N125 C162 1.423 . S
H126 C152 0.930 . S
H127 C155 0.931 . S
H128 C154 0.929 . S
H129 C157 0.930 . S
H130 C158 0.932 . S
H131 C161 0.929 . S
H132 C160 0.931 . S
H133 C163 0.929 . S
H134 C167 0.932 . S
H135 C164 0.931 . S
H136 C166 0.929 . S
H137 C169 0.929 . S
H138 C170 0.930 . S
H139 C172 0.929 . S
H140 C173 0.931 . S
H141 C175 0.930 . S
H142 C176 0.932 . S
H143 C178 0.931 . S
H144 C179 0.929 . S
H145 C181 0.929 . S
H146 C182 0.931 . S
H147 C184 0.929 . S
N148 C168 1.433 . S
N148 C174 1.435 . S
N148 C180 1.423 . S
H149 C185 0.932 . S
C150 N125 1.433 . S
C150 C151 1.363 . S
C150 C155 1.370 . S
C151 H124 0.929 . S
C151 C150 1.363 . S
C151 C152 1.385 . S
C152 H126 0.930 . S
C152 C151 1.385 . S
C152 C153 1.357 . S
C153 C152 1.357 . S
C153 C154 1.406 . S
C154 H128 0.929 . S
C154 C153 1.406 . S
C154 C155 1.391 . S
C155 H127 0.931 . S
C155 C150 1.370 . S
C155 C154 1.391 . S
C156 N125 1.435 . S
C156 C157 1.358 . S
C156 C161 1.371 . S
C157 H129 0.930 . S
C157 C156 1.358 . S
C157 C158 1.405 . S
C158 H130 0.932 . S
C158 C157 1.405 . S
C158 C159 1.383 . S
C159 C158 1.383 . S
C159 C160 1.393 . S
C160 H132 0.931 . S
C160 C159 1.393 . S
C160 C161 1.382 . S
C161 H131 0.929 . S
C161 C156 1.371 . S
C161 C160 1.382 . S
C162 N125 1.423 . S
C162 C163 1.362 . S
C162 C167 1.388 . S
C163 H133 0.929 . S
C163 C162 1.362 . S
C163 C164 1.376 . S
C164 H135 0.931 . S
C164 C163 1.376 . S
C164 C165 1.396 . S
C165 C164 1.396 . S
C165 C166 1.348 . S
C165 C183 1.472 . S
C166 H136 0.929 . S
C166 C165 1.348 . S
C166 C167 1.443 . S
C167 H134 0.932 . S
C167 C162 1.388 . S
C167 C166 1.443 . S
C168 N148 1.433 . S
C168 C169 1.363 . S
C168 C173 1.370 . S
C169 H137 0.929 . S
C169 C168 1.363 . S
C169 C170 1.385 . S
C170 H138 0.930 . S
C170 C169 1.385 . S
C170 C171 1.357 . S
C171 C170 1.357 . S
C171 C172 1.406 . S
C172 H139 0.929 . S
C172 C171 1.406 . S
C172 C173 1.391 . S
C173 H140 0.931 . S
C173 C168 1.370 . S
C173 C172 1.391 . S
C174 N148 1.435 . S
C174 C175 1.358 . S
C174 C179 1.371 . S
C175 H141 0.930 . S
C175 C174 1.358 . S
C175 C176 1.405 . S
C176 H142 0.932 . S
C176 C175 1.405 . S
C176 C177 1.383 . S
C177 C176 1.383 . S
C177 C178 1.393 . S
C178 H143 0.931 . S
C178 C177 1.393 . S
C178 C179 1.382 . S
C179 H144 0.929 . S
C179 C174 1.371 . S
C179 C178 1.382 . S
C180 N148 1.423 . S
C180 C181 1.362 . S
C180 C185 1.388 . S
C181 H145 0.929 . S
C181 C180 1.362 . S
C181 C182 1.376 . S
C182 H146 0.931 . S
C182 C181 1.376 . S
C182 C183 1.396 . S
C183 C165 1.472 . S
C183 C182 1.396 . S
C183 C184 1.348 . S
C184 H147 0.929 . S
C184 C183 1.348 . S
C184 C185 1.443 . S
C185 H149 0.932 . S
C185 C180 1.388 . S
C185 C184 1.443 . S
H186 C213 0.929 . S
N187 C212 1.433 . S
N187 C218 1.435 . S
N187 C224 1.423 . S
H188 C214 0.930 . S
H189 C217 0.931 . S
H190 C216 0.929 . S
H191 C219 0.930 . S
H192 C220 0.932 . S
H193 C223 0.929 . S
H194 C222 0.931 . S
H195 C225 0.929 . S
H196 C229 0.932 . S
H197 C226 0.931 . S
H198 C228 0.929 . S
H199 C231 0.929 . S
H200 C232 0.930 . S
H201 C234 0.929 . S
H202 C235 0.931 . S
H203 C237 0.930 . S
H204 C238 0.932 . S
H205 C240 0.931 . S
H206 C241 0.929 . S
H207 C243 0.929 . S
H208 C244 0.898 1_565 S
H209 C246 0.929 . S
N210 C230 1.433 . S
N210 C236 1.435 . S
N210 C242 1.423 . S
H211 C247 0.932 . S
C212 N187 1.433 . S
C212 C213 1.363 . S
C212 C217 1.370 . S
C213 H186 0.929 . S
C213 C212 1.363 . S
C213 C214 1.385 . S
C214 H188 0.930 . S
C214 C213 1.385 . S
C214 C215 1.357 . S
C215 C214 1.357 . S
C215 C216 1.406 . S
C216 H190 0.929 . S
C216 C215 1.406 . S
C216 C217 1.391 . S
C217 H189 0.931 . S
C217 C212 1.370 . S
C217 C216 1.391 . S
C218 N187 1.435 . S
C218 C219 1.358 . S
C218 C223 1.371 . S
C219 H191 0.930 . S
C219 C218 1.358 . S
C219 C220 1.405 . S
C220 H192 0.932 . S
C220 C219 1.405 . S
C220 C221 1.383 . S
C221 C220 1.383 . S
C221 C222 1.393 . S
C222 H194 0.931 . S
C222 C221 1.393 . S
C222 C223 1.382 . S
C223 H193 0.929 . S
C223 C218 1.371 . S
C223 C222 1.382 . S
C224 N187 1.423 . S
C224 C225 1.362 . S
C224 C229 1.388 . S
C225 H195 0.929 . S
C225 C224 1.362 . S
C225 C226 1.376 . S
C226 H197 0.931 . S
C226 C225 1.376 . S
C226 C227 1.396 . S
C227 C226 1.396 . S
C227 C228 1.348 . S
C227 C245 1.472 1_565 S
C228 H198 0.929 . S
C228 C227 1.348 . S
C228 C229 1.443 . S
C229 H196 0.932 . S
C229 C224 1.388 . S
C229 C228 1.443 . S
C230 N210 1.433 . S
C230 C231 1.363 . S
C230 C235 1.370 . S
C231 H199 0.929 . S
C231 C230 1.363 . S
C231 C232 1.385 . S
C232 H200 0.930 . S
C232 C231 1.385 . S
C232 C233 1.357 . S
C233 C232 1.357 . S
C233 C234 1.406 . S
C234 H201 0.929 . S
C234 C233 1.406 . S
C234 C235 1.391 . S
C235 H202 0.931 . S
C235 C230 1.370 . S
C235 C234 1.391 . S
C236 N210 1.435 . S
C236 C237 1.358 . S
C236 C241 1.371 . S
C237 H203 0.930 . S
C237 C236 1.358 . S
C237 C238 1.405 . S
C238 H204 0.932 . S
C238 C237 1.405 . S
C238 C239 1.383 . S
C239 C238 1.383 . S
C239 C240 1.393 . S
C240 H205 0.931 . S
C240 C239 1.393 . S
C240 C241 1.382 . S
C241 H206 0.929 . S
C241 C236 1.371 . S
C241 C240 1.382 . S
C242 N210 1.423 . S
C242 C243 1.362 . S
C242 C247 1.388 . S
C243 H207 0.929 . S
C243 C242 1.362 . S
C243 C244 1.376 . S
C244 H208 0.898 1_545 S
C244 C243 1.376 . S
C244 C245 1.396 . S
C245 C227 1.472 1_545 S
C245 C244 1.396 . S
C245 C246 1.348 . S
C246 H209 0.929 . S
C246 C245 1.348 . S
C246 C247 1.443 . S
C247 H211 0.932 . S
C247 C242 1.388 . S
C247 C246 1.443 . S
H248 C275 0.929 . S
N249 C274 1.433 . S
N249 C280 1.435 . S
N249 C286 1.423 . S
H250 C276 0.930 . S
H251 C279 0.931 . S
H252 C278 0.929 . S
H253 C281 0.930 . S
H254 C282 0.932 . S
H255 C285 0.929 . S
H256 C284 0.931 1_554 S
H257 C287 0.929 . S
H258 C291 0.932 . S
H259 C288 0.931 . S
H260 C290 0.929 . S
H261 C293 0.929 . S
H262 C294 0.930 . S
H263 C296 0.929 . S
H264 C297 0.931 . S
H265 C299 0.930 . S
H266 C300 0.932 . S
H267 C302 0.931 . S
H268 C303 0.929 . S
H269 C305 0.929 . S
H270 C306 0.931 1_455 S
H271 C308 0.929 . S
N272 C292 1.433 . S
N272 C298 1.435 . S
N272 C304 1.423 . S
H273 C309 0.932 . S
C274 N249 1.433 . S
C274 C275 1.363 . S
C274 C279 1.370 . S
C275 H248 0.929 . S
C275 C274 1.363 . S
C275 C276 1.385 . S
C276 H250 0.930 . S
C276 C275 1.385 . S
C276 C277 1.357 . S
C277 C276 1.357 . S
C277 C278 1.406 . S
C278 H252 0.929 . S
C278 C277 1.406 . S
C278 C279 1.391 . S
C279 H251 0.931 . S
C279 C274 1.370 . S
C279 C278 1.391 . S
C280 N249 1.435 . S
C280 C281 1.358 . S
C280 C285 1.371 . S
C281 H253 0.930 . S
C281 C280 1.358 . S
C281 C282 1.405 . S
C282 H254 0.932 . S
C282 C281 1.405 . S
C282 C283 1.383 . S
C283 C282 1.383 . S
C283 C284 1.393 . S
C284 H256 0.931 1_556 S
C284 C283 1.393 . S
C284 C285 1.382 . S
C285 H255 0.929 . S
C285 C280 1.371 . S
C285 C284 1.382 . S
C286 N249 1.423 . S
C286 C287 1.362 . S
C286 C291 1.388 . S
C287 H257 0.929 . S
C287 C286 1.362 . S
C287 C288 1.376 . S
C288 H259 0.931 . S
C288 C287 1.376 . S
C288 C289 1.396 . S
C289 C288 1.396 . S
C289 C290 1.348 . S
C289 C307 1.510 . S
C290 H260 0.929 . S
C290 C289 1.348 . S
C290 C291 1.443 . S
C291 H258 0.932 . S
C291 C286 1.388 . S
C291 C290 1.443 . S
C292 N272 1.433 . S
C292 C293 1.363 . S
C292 C297 1.370 . S
C293 H261 0.929 . S
C293 C292 1.363 . S
C293 C294 1.385 . S
C294 H262 0.930 . S
C294 C293 1.385 . S
C294 C295 1.357 . S
C295 C294 1.357 . S
C295 C296 1.406 . S
C296 H263 0.929 . S
C296 C295 1.406 . S
C296 C297 1.391 . S
C297 H264 0.931 . S
C297 C292 1.370 . S
C297 C296 1.391 . S
C298 N272 1.435 . S
C298 C299 1.358 . S
C298 C303 1.371 . S
C299 H265 0.930 . S
C299 C298 1.358 . S
C299 C300 1.405 . S
C300 H266 0.932 . S
C300 C299 1.405 . S
C300 C301 1.383 . S
C301 C300 1.383 . S
C301 C302 1.393 . S
C302 H267 0.931 . S
C302 C301 1.393 . S
C302 C303 1.382 . S
C303 H268 0.929 . S
C303 C298 1.371 . S
C303 C302 1.382 . S
C304 N272 1.423 . S
C304 C305 1.362 . S
C304 C309 1.388 . S
C305 H269 0.929 . S
C305 C304 1.362 . S
C305 C306 1.376 . S
C306 H270 0.931 1_655 S
C306 C305 1.376 . S
C306 C307 1.392 1_655 S
C307 C289 1.510 . S
C307 C306 1.392 1_455 S
C307 C308 1.313 1_455 S
C308 H271 0.929 . S
C308 C307 1.313 1_655 S
C308 C309 1.443 . S
C309 H273 0.932 . S
C309 C304 1.388 . S
C309 C308 1.443 . S
H310 C337 0.929 . S
N311 C336 1.433 . S
N311 C342 1.435 . S
N311 C348 1.423 . S
H312 C338 0.930 . S
H313 C341 0.931 . S
H314 C340 0.929 . S
H315 C343 0.930 . S
H316 C344 0.932 . S
H317 C347 0.929 . S
H318 C346 0.931 . S
H319 C349 0.929 . S
H320 C353 0.932 . S
H321 C350 0.931 . S
H322 C352 0.929 . S
H323 C355 0.929 . S
H324 C356 0.930 . S
H325 C358 0.929 . S
H326 C359 0.931 . S
H327 C361 0.930 . S
H328 C362 0.932 . S
H329 C364 0.931 . S
H330 C365 0.929 . S
H331 C367 0.929 . S
H332 C368 0.931 . S
H333 C370 0.929 . S
N334 C354 1.433 . S
N334 C360 1.435 . S
N334 C366 1.423 . S
H335 C371 0.932 . S
C336 N311 1.433 . S
C336 C337 1.363 . S
C336 C341 1.370 . S
C337 H310 0.929 . S
C337 C336 1.363 . S
C337 C338 1.385 . S
C338 H312 0.930 . S
C338 C337 1.385 . S
C338 C339 1.357 . S
C339 C338 1.357 . S
C339 C340 1.406 . S
C340 H314 0.929 . S
C340 C339 1.406 . S
C340 C341 1.391 . S
C341 H313 0.931 . S
C341 C336 1.370 . S
C341 C340 1.391 . S
C342 N311 1.435 . S
C342 C343 1.358 . S
C342 C347 1.371 . S
C343 H315 0.930 . S
C343 C342 1.358 . S
C343 C344 1.405 . S
C344 H316 0.932 . S
C344 C343 1.405 . S
C344 C345 1.383 . S
C345 C344 1.383 . S
C345 C346 1.393 . S
C346 H318 0.931 . S
C346 C345 1.393 . S
C346 C347 1.382 . S
C347 H317 0.929 . S
C347 C342 1.371 . S
C347 C346 1.382 . S
C348 N311 1.423 . S
C348 C349 1.362 . S
C348 C353 1.388 . S
C349 H319 0.929 . S
C349 C348 1.362 . S
C349 C350 1.376 . S
C350 H321 0.931 . S
C350 C349 1.376 . S
C350 C351 1.396 . S
C351 C350 1.396 . S
C351 C352 1.348 . S
C351 C369 1.472 . S
C352 H322 0.929 . S
C352 C351 1.348 . S
C352 C353 1.443 . S
C353 H320 0.932 . S
C353 C348 1.388 . S
C353 C352 1.443 . S
C354 N334 1.433 . S
C354 C355 1.363 . S
C354 C359 1.370 . S
C355 H323 0.929 . S
C355 C354 1.363 . S
C355 C356 1.385 . S
C356 H324 0.930 . S
C356 C355 1.385 . S
C356 C357 1.357 . S
C357 C356 1.357 . S
C357 C358 1.406 . S
C358 H325 0.929 . S
C358 C357 1.406 . S
C358 C359 1.391 . S
C359 H326 0.931 . S
C359 C354 1.370 . S
C359 C358 1.391 . S
C360 N334 1.435 . S
C360 C361 1.358 . S
C360 C365 1.371 . S
C361 H327 0.930 . S
C361 C360 1.358 . S
C361 C362 1.405 . S
C362 H328 0.932 . S
C362 C361 1.405 . S
C362 C363 1.383 . S
C363 C362 1.383 . S
C363 C364 1.393 . S
C364 H329 0.931 . S
C364 C363 1.393 . S
C364 C365 1.382 . S
C365 H330 0.929 . S
C365 C360 1.371 . S
C365 C364 1.382 . S
C366 N334 1.423 . S
C366 C367 1.362 . S
C366 C371 1.388 . S
C367 H331 0.929 . S
C367 C366 1.362 . S
C367 C368 1.376 . S
C368 H332 0.931 . S
C368 C367 1.376 . S
C368 C369 1.396 . S
C369 C351 1.472 . S
C369 C368 1.396 . S
C369 C370 1.348 . S
C370 H333 0.929 . S
C370 C369 1.348 . S
C370 C371 1.443 . S
C371 H335 0.932 . S
C371 C366 1.388 . S
C371 C370 1.443 . S
H372 C399 0.929 . S
N373 C398 1.433 . S
N373 C404 1.435 . S
N373 C410 1.423 . S
H374 C400 0.930 . S
H375 C403 0.931 . S
H376 C402 0.929 . S
H377 C405 0.930 . S
H378 C406 0.932 . S
H379 C409 0.929 . S
H380 C408 0.931 . S
H381 C411 0.929 . S
H382 C415 0.932 . S
H383 C412 0.931 . S
H384 C414 0.929 . S
H385 C417 0.929 . S
H386 C418 0.930 . S
H387 C420 0.929 . S
H388 C421 0.931 . S
H389 C423 0.930 . S
H390 C424 0.932 . S
H391 C426 0.931 . S
H392 C427 0.929 . S
H393 C429 0.929 . S
H394 C430 0.931 . S
H395 C432 0.929 . S
N396 C416 1.433 . S
N396 C422 1.435 . S
N396 C428 1.423 . S
H397 C433 0.932 . S
C398 N373 1.433 . S
C398 C399 1.363 . S
C398 C403 1.370 . S
C399 H372 0.929 . S
C399 C398 1.363 . S
C399 C400 1.385 . S
C400 H374 0.930 . S
C400 C399 1.385 . S
C400 C401 1.357 . S
C401 C400 1.357 . S
C401 C402 1.406 . S
C402 H376 0.929 . S
C402 C401 1.406 . S
C402 C403 1.391 . S
C403 H375 0.931 . S
C403 C398 1.370 . S
C403 C402 1.391 . S
C404 N373 1.435 . S
C404 C405 1.358 . S
C404 C409 1.371 . S
C405 H377 0.930 . S
C405 C404 1.358 . S
C405 C406 1.405 . S
C406 H378 0.932 . S
C406 C405 1.405 . S
C406 C407 1.383 . S
C407 C406 1.383 . S
C407 C408 1.393 . S
C408 H380 0.931 . S
C408 C407 1.393 . S
C408 C409 1.382 . S
C409 H379 0.929 . S
C409 C404 1.371 . S
C409 C408 1.382 . S
C410 N373 1.423 . S
C410 C411 1.362 1_565 S
C410 C415 1.388 . S
C411 H381 0.929 . S
C411 C410 1.362 1_545 S
C411 C412 1.376 . S
C412 H383 0.931 . S
C412 C411 1.376 . S
C412 C413 1.396 . S
C413 C412 1.396 . S
C413 C414 1.348 1_545 S
C413 C431 1.472 . S
C414 H384 0.929 . S
C414 C413 1.348 1_565 S
C414 C415 1.443 . S
C415 H382 0.932 . S
C415 C410 1.388 . S
C415 C414 1.443 . S
C416 N396 1.433 . S
C416 C417 1.363 . S
C416 C421 1.370 . S
C417 H385 0.929 . S
C417 C416 1.363 . S
C417 C418 1.385 . S
C418 H386 0.930 . S
C418 C417 1.385 . S
C418 C419 1.357 . S
C419 C418 1.357 . S
C419 C420 1.406 . S
C420 H387 0.929 . S
C420 C419 1.406 . S
C420 C421 1.391 . S
C421 H388 0.931 . S
C421 C416 1.370 . S
C421 C420 1.391 . S
C422 N396 1.435 . S
C422 C423 1.358 . S
C422 C427 1.371 . S
C423 H389 0.930 . S
C423 C422 1.358 . S
C423 C424 1.405 . S
C424 H390 0.932 . S
C424 C423 1.405 . S
C424 C425 1.383 . S
C425 C424 1.383 . S
C425 C426 1.393 . S
C426 H391 0.931 . S
C426 C425 1.393 . S
C426 C427 1.382 . S
C427 H392 0.929 . S
C427 C422 1.371 . S
C427 C426 1.382 . S
C428 N396 1.423 . S
C428 C429 1.362 . S
C428 C433 1.388 . S
C429 H393 0.929 . S
C429 C428 1.362 . S
C429 C430 1.376 . S
C430 H394 0.931 . S
C430 C429 1.376 . S
C430 C431 1.396 . S
C431 C413 1.472 . S
C431 C430 1.396 . S
C431 C432 1.348 . S
C432 H395 0.929 . S
C432 C431 1.348 . S
C432 C433 1.443 . S
C433 H397 0.932 . S
C433 C428 1.388 . S
C433 C432 1.443 . S
H434 C461 0.929 . S
N435 C460 1.433 . S
N435 C466 1.435 . S
N435 C472 1.423 . S
H436 C462 0.930 . S
H437 C465 0.931 . S
H438 C464 0.929 . S
H439 C467 0.930 . S
H440 C468 0.932 . S
H441 C471 0.929 . S
H442 C470 0.931 . S
H443 C473 0.929 . S
H444 C477 0.932 . S
H445 C474 0.931 . S
H446 C476 0.929 . S
H447 C479 0.929 . S
H448 C480 0.930 . S
H449 C482 0.929 . S
H450 C483 0.931 . S
H451 C485 0.930 . S
H452 C486 0.932 . S
H453 C488 0.931 . S
H454 C489 0.929 . S
H455 C491 0.929 . S
H456 C492 0.931 . S
H457 C494 0.929 . S
N458 C478 1.433 . S
N458 C484 1.435 . S
N458 C490 1.423 . S
H459 C495 0.932 . S
C460 N435 1.433 . S
C460 C461 1.363 . S
C460 C465 1.370 . S
C461 H434 0.929 . S
C461 C460 1.363 . S
C461 C462 1.385 . S
C462 H436 0.930 . S
C462 C461 1.385 . S
C462 C463 1.357 . S
C463 C462 1.357 . S
C463 C464 1.406 . S
C464 H438 0.929 . S
C464 C463 1.406 . S
C464 C465 1.391 . S
C465 H437 0.931 . S
C465 C460 1.370 . S
C465 C464 1.391 . S
C466 N435 1.435 . S
C466 C467 1.358 . S
C466 C471 1.371 . S
C467 H439 0.930 . S
C467 C466 1.358 . S
C467 C468 1.405 . S
C468 H440 0.932 . S
C468 C467 1.405 . S
C468 C469 1.383 . S
C469 C468 1.383 . S
C469 C470 1.393 . S
C470 H442 0.931 . S
C470 C469 1.393 . S
C470 C471 1.382 . S
C471 H441 0.929 . S
C471 C466 1.371 . S
C471 C470 1.382 . S
C472 N435 1.423 . S
C472 C473 1.362 . S
C472 C477 1.388 . S
C473 H443 0.929 . S
C473 C472 1.362 . S
C473 C474 1.376 . S
C474 H445 0.931 . S
C474 C473 1.376 . S
C474 C475 1.396 1_565 S
C475 C474 1.396 1_545 S
C475 C476 1.348 . S
C475 C493 1.472 1_455 S
C476 H446 0.929 . S
C476 C475 1.348 . S
C476 C477 1.443 1_545 S
C477 H444 0.932 . S
C477 C472 1.388 . S
C477 C476 1.443 1_565 S
C478 N458 1.433 . S
C478 C479 1.363 . S
C478 C483 1.370 . S
C479 H447 0.929 . S
C479 C478 1.363 . S
C479 C480 1.385 . S
C480 H448 0.930 . S
C480 C479 1.385 . S
C480 C481 1.357 . S
C481 C480 1.357 . S
C481 C482 1.406 . S
C482 H449 0.929 . S
C482 C481 1.406 . S
C482 C483 1.391 . S
C483 H450 0.931 . S
C483 C478 1.370 . S
C483 C482 1.391 . S
C484 N458 1.435 . S
C484 C485 1.358 . S
C484 C489 1.371 . S
C485 H451 0.930 . S
C485 C484 1.358 . S
C485 C486 1.405 . S
C486 H452 0.932 . S
C486 C485 1.405 . S
C486 C487 1.383 . S
C487 C486 1.383 . S
C487 C488 1.393 . S
C488 H453 0.931 . S
C488 C487 1.393 . S
C488 C489 1.382 . S
C489 H454 0.929 . S
C489 C484 1.371 . S
C489 C488 1.382 . S
C490 N458 1.423 . S
C490 C491 1.362 . S
C490 C495 1.388 . S
C491 H455 0.929 . S
C491 C490 1.362 . S
C491 C492 1.376 . S
C492 H456 0.931 . S
C492 C491 1.376 . S
C492 C493 1.396 . S
C493 C475 1.472 1_655 S
C493 C492 1.396 . S
C493 C494 1.348 1_655 S
C494 H457 0.929 . S
C494 C493 1.348 1_455 S
C494 C495 1.443 1_455 S
C495 H459 0.932 . S
C495 C490 1.388 . S
C495 C494 1.443 1_655 S
Zn496 O499 2.031 . S
Zn496 O501 2.049 . S
Zn496 O506 2.067 . S
Zn497 O498 1.962 . S
Zn497 O500 1.986 . S
Zn497 O502 1.996 . S
Zn497 O505 1.943 . S
O498 Zn497 1.962 . S
O498 C503 1.254 . S
O499 Zn496 2.031 . S
O499 C503 1.269 1_556 S
O500 Zn497 1.986 . S
O500 C507 1.262 . S
O501 Zn496 2.049 . S
O501 C509 1.260 1_556 S
O502 Zn497 1.996 . S
O502 C509 1.257 . S
C503 O498 1.254 . S
C503 O499 1.269 1_554 S
C504 O505 1.249 1_556 S
C504 O506 1.270 . S
O505 Zn497 1.943 . S
O505 C504 1.249 1_554 S
O506 Zn496 2.067 . S
O506 C504 1.270 . S
C507 O500 1.262 . S
C507 O508 1.232 . S
O508 C507 1.232 . S
C509 O501 1.260 1_554 S
C509 O502 1.257 . S
Zn510 O513 2.031 . S
Zn510 O515 2.049 . S
Zn510 O520 2.067 . S
Zn511 O512 1.962 . S
Zn511 O514 1.986 . S
Zn511 O516 1.996 . S
Zn511 O519 1.943 . S
O512 Zn511 1.962 . S
O512 C517 1.254 . S
O513 Zn510 2.031 . S
O513 C517 1.269 . S
O514 Zn511 1.986 . S
O514 C521 1.262 . S
O515 Zn510 2.049 . S
O515 C523 1.260 . S
O516 Zn511 1.996 . S
O516 C523 1.257 . S
C517 O512 1.254 . S
C517 O513 1.269 . S
C518 O519 1.249 . S
C518 O520 1.270 . S
O519 Zn511 1.943 . S
O519 C518 1.249 . S
O520 Zn510 2.067 . S
O520 C518 1.270 . S
C521 O514 1.262 . S
C521 O522 1.232 . S
O522 C521 1.232 . S
C523 O515 1.260 . S
C523 O516 1.257 . S
Zn524 O527 2.031 . S
Zn524 O529 2.049 . S
Zn524 O534 2.067 . S
Zn525 O526 1.962 . S
Zn525 O528 1.986 . S
Zn525 O530 1.996 . S
Zn525 O533 1.943 . S
O526 Zn525 1.962 . S
O526 C531 1.254 . S
O527 Zn524 2.031 . S
O527 C531 1.269 . S
O528 Zn525 1.986 . S
O528 C535 1.262 . S
O529 Zn524 2.049 . S
O529 C537 1.260 . S
O530 Zn525 1.996 . S
O530 C537 1.257 . S
C531 O526 1.254 . S
C531 O527 1.269 . S
C532 O533 1.249 . S
C532 O534 1.270 . S
O533 Zn525 1.943 . S
O533 C532 1.249 . S
O534 Zn524 2.067 . S
O534 C532 1.270 . S
C535 O528 1.262 . S
C535 O536 1.232 . S
O536 C535 1.232 . S
C537 O529 1.260 . S
C537 O530 1.257 . S
Zn538 O541 2.031 . S
Zn538 O543 2.049 . S
Zn538 O548 2.067 . S
Zn539 O540 1.962 . S
Zn539 O542 1.986 . S
Zn539 O544 1.996 . S
Zn539 O547 1.943 . S
O540 Zn539 1.962 . S
O540 C545 1.254 . S
O541 Zn538 2.031 . S
O541 C545 1.269 . S
O542 Zn539 1.986 . S
O542 C549 1.262 . S
O543 Zn538 2.049 . S
O543 C551 1.260 . S
O544 Zn539 1.996 . S
O544 C551 1.257 . S
C545 O540 1.254 . S
C545 O541 1.269 . S
C546 O547 1.249 . S
C546 O548 1.270 . S
O547 Zn539 1.943 . S
O547 C546 1.249 . S
O548 Zn538 2.067 . S
O548 C546 1.270 . S
C549 O542 1.262 . S
C549 O550 1.232 . S
O550 C549 1.232 . S
C551 O543 1.260 . S
C551 O544 1.257 . S
Zn552 O555 2.031 . S
Zn552 O557 2.049 . S
Zn552 O562 2.067 . S
Zn553 O554 1.962 . S
Zn553 O556 1.986 . S
Zn553 O558 1.996 . S
Zn553 O561 1.943 . S
O554 Zn553 1.962 . S
O554 C559 1.254 . S
O555 Zn552 2.031 . S
O555 C559 1.269 . S
O556 Zn553 1.986 . S
O556 C563 1.262 . S
O557 Zn552 2.049 . S
O557 C565 1.260 . S
O558 Zn553 1.996 . S
O558 C565 1.257 . S
C559 O554 1.254 . S
C559 O555 1.269 . S
C560 O561 1.249 . S
C560 O562 1.270 . S
O561 Zn553 1.943 . S
O561 C560 1.249 . S
O562 Zn552 2.067 . S
O562 C560 1.270 . S
C563 O556 1.262 . S
C563 O564 1.232 . S
O564 C563 1.232 . S
C565 O557 1.260 . S
C565 O558 1.257 . S
Zn566 O569 2.031 . S
Zn566 O571 2.049 . S
Zn566 O576 2.067 . S
Zn567 O568 1.962 . S
Zn567 O570 1.986 . S
Zn567 O572 1.996 . S
Zn567 O575 1.943 . S
O568 Zn567 1.962 . S
O568 C573 1.254 . S
O569 Zn566 2.031 . S
O569 C573 1.269 . S
O570 Zn567 1.986 . S
O570 C577 1.262 . S
O571 Zn566 2.049 . S
O571 C579 1.260 . S
O572 Zn567 1.996 . S
O572 C579 1.257 . S
C573 O568 1.254 . S
C573 O569 1.269 . S
C574 O575 1.249 . S
C574 O576 1.270 . S
O575 Zn567 1.943 . S
O575 C574 1.249 . S
O576 Zn566 2.067 . S
O576 C574 1.270 . S
C577 O570 1.262 . S
C577 O578 1.232 . S
O578 C577 1.232 . S
C579 O571 1.260 . S
C579 O572 1.257 . S
Zn580 O583 2.031 . S
Zn580 O585 2.049 . S
Zn580 O590 2.067 . S
Zn581 O582 1.962 . S
Zn581 O584 1.986 . S
Zn581 O586 1.996 . S
Zn581 O589 1.943 1_556 S
O582 Zn581 1.962 . S
O582 C587 1.254 1_556 S
O583 Zn580 2.031 . S
O583 C587 1.269 . S
O584 Zn581 1.986 . S
O584 C591 1.262 . S
O585 Zn580 2.049 . S
O585 C593 1.260 . S
O586 Zn581 1.996 . S
O586 C593 1.257 1_556 S
C587 O582 1.254 1_554 S
C587 O583 1.269 . S
C588 O589 1.249 . S
C588 O590 1.270 . S
O589 Zn581 1.943 1_554 S
O589 C588 1.249 . S
O590 Zn580 2.067 . S
O590 C588 1.270 . S
C591 O584 1.262 . S
C591 O592 1.232 . S
O592 C591 1.232 . S
C593 O585 1.260 . S
C593 O586 1.257 1_554 S
Zn594 O597 2.031 . S
Zn594 O599 2.049 . S
Zn594 O604 2.067 . S
Zn595 O596 1.962 . S
Zn595 O598 1.986 . S
Zn595 O600 1.996 . S
Zn595 O603 1.943 . S
O596 Zn595 1.962 . S
O596 C601 1.254 . S
O597 Zn594 2.031 . S
O597 C601 1.269 . S
O598 Zn595 1.986 . S
O598 C605 1.262 . S
O599 Zn594 2.049 . S
O599 C607 1.260 . S
O600 Zn595 1.996 . S
O600 C607 1.257 . S
C601 O596 1.254 . S
C601 O597 1.269 . S
C602 O603 1.249 . S
C602 O604 1.270 . S
O603 Zn595 1.943 . S
O603 C602 1.249 . S
O604 Zn594 2.067 . S
O604 C602 1.270 . S
C605 O598 1.262 . S
C605 O606 1.232 . S
O606 C605 1.232 . S
C607 O599 1.260 . S
C607 O600 1.257 . S
H608 C616 0.950 . S
H609 C621 0.950 . S
H610 C618 0.950 . S
H611 C620 0.950 . S
H612 C622 0.950 . S
H613 C624 0.950 . S
H614 C626 0.950 . S
H615 C627 0.950 . S
C616 H608 0.950 . S
C616 C617 1.386 . S
C616 C618 1.391 . S
C617 C616 1.386 . S
C617 C621 1.393 . S
C618 H610 0.950 . S
C618 C616 1.391 . S
C618 C619 1.400 . S
C619 C618 1.400 . S
C619 C620 1.398 . S
C619 C625 1.491 . S
C620 H611 0.950 . S
C620 C619 1.398 . S
C620 C621 1.391 . S
C621 H609 0.950 . S
C621 C617 1.393 . S
C621 C620 1.391 . S
C622 H612 0.950 . S
C622 C623 1.386 . S
C622 C624 1.391 . S
C623 C622 1.386 . S
C623 C627 1.393 . S
C624 H613 0.950 . S
C624 C622 1.391 . S
C624 C625 1.400 . S
C625 C619 1.491 . S
C625 C624 1.400 . S
C625 C626 1.398 . S
C626 H614 0.950 . S
C626 C625 1.398 . S
C626 C627 1.391 . S
C627 H615 0.950 . S
C627 C623 1.393 . S
C627 C626 1.391 . S
H628 C636 0.950 . S
H629 C641 0.950 . S
H630 C638 0.950 . S
H631 C640 0.950 . S
H632 C642 0.950 . S
H633 C644 0.950 . S
H634 C646 0.950 . S
H635 C647 0.950 . S
C636 H628 0.950 . S
C636 C637 1.386 . S
C636 C638 1.391 . S
C637 C636 1.386 . S
C637 C641 1.393 . S
C638 H630 0.950 . S
C638 C636 1.391 . S
C638 C639 1.400 . S
C639 C638 1.400 . S
C639 C640 1.398 . S
C639 C645 1.491 . S
C640 H631 0.950 . S
C640 C639 1.398 . S
C640 C641 1.391 . S
C641 H629 0.950 . S
C641 C637 1.393 . S
C641 C640 1.391 . S
C642 H632 0.950 . S
C642 C643 1.386 . S
C642 C644 1.391 . S
C643 C642 1.386 . S
C643 C647 1.393 . S
C644 H633 0.950 . S
C644 C642 1.391 . S
C644 C645 1.400 . S
C645 C639 1.491 . S
C645 C644 1.400 . S
C645 C646 1.398 . S
C646 H634 0.950 . S
C646 C645 1.398 . S
C646 C647 1.391 . S
C647 H635 0.950 . S
C647 C643 1.393 . S
C647 C646 1.391 . S
H648 C656 0.950 . S
H649 C661 0.950 . S
H650 C658 0.950 . S
H651 C660 0.950 . S
H652 C662 0.950 . S
H653 C664 0.950 . S
H654 C666 0.950 . S
H655 C667 0.950 . S
C656 H648 0.950 . S
C656 C657 1.386 . S
C656 C658 1.391 . S
C657 C656 1.386 . S
C657 C661 1.393 . S
C658 H650 0.950 . S
C658 C656 1.391 . S
C658 C659 1.400 . S
C659 C658 1.400 . S
C659 C660 1.398 . S
C659 C665 1.491 . S
C660 H651 0.950 . S
C660 C659 1.398 . S
C660 C661 1.391 . S
C661 H649 0.950 . S
C661 C657 1.393 . S
C661 C660 1.391 . S
C662 H652 0.950 . S
C662 C663 1.386 . S
C662 C664 1.391 . S
C663 C662 1.386 . S
C663 C667 1.393 . S
C664 H653 0.950 . S
C664 C662 1.391 . S
C664 C665 1.400 . S
C665 C659 1.491 . S
C665 C664 1.400 . S
C665 C666 1.398 . S
C666 H654 0.950 . S
C666 C665 1.398 . S
C666 C667 1.391 . S
C667 H655 0.950 . S
C667 C663 1.393 . S
C667 C666 1.391 . S
H668 C676 0.950 1_556 S
H669 C681 0.950 . S
H670 C678 0.950 1_556 S
H671 C680 0.950 . S
H672 C682 0.950 . S
H673 C684 0.950 . S
H674 C686 0.950 1_556 S
H675 C687 0.950 1_556 S
C676 H668 0.950 1_554 S
C676 C677 1.386 . S
C676 C678 1.391 . S
C677 C676 1.386 . S
C677 C681 1.393 . S
C678 H670 0.950 1_554 S
C678 C676 1.391 . S
C678 C679 1.400 . S
C679 C678 1.400 . S
C679 C680 1.398 . S
C679 C685 1.491 . S
C680 H671 0.950 . S
C680 C679 1.398 . S
C680 C681 1.391 . S
C681 H669 0.950 . S
C681 C677 1.393 . S
C681 C680 1.391 . S
C682 H672 0.950 . S
C682 C683 1.386 . S
C682 C684 1.391 . S
C683 C682 1.386 . S
C683 C687 1.393 . S
C684 H673 0.950 . S
C684 C682 1.391 . S
C684 C685 1.400 . S
C685 C679 1.491 . S
C685 C684 1.400 . S
C685 C686 1.398 . S
C686 H674 0.950 1_554 S
C686 C685 1.398 . S
C686 C687 1.391 . S
C687 H675 0.950 1_554 S
C687 C683 1.393 . S
C687 C686 1.391 . S
H688 C696 0.950 . S
H689 C701 0.950 . S
H690 C698 0.950 . S
H691 C700 0.950 1_556 S
H692 C702 0.950 . S
H693 C704 0.951 . S
H694 C706 0.950 . S
H695 C707 0.950 . S
C696 H688 0.950 . S
C696 C697 1.386 . S
C696 C698 1.391 . S
C697 C696 1.386 . S
C697 C701 1.393 1_554 S
C698 H690 0.950 . S
C698 C696 1.391 . S
C698 C699 1.400 . S
C699 C698 1.400 . S
C699 C700 1.399 . S
C699 C705 1.491 . S
C700 H691 0.950 1_554 S
C700 C699 1.399 . S
C700 C701 1.391 1_554 S
C701 H689 0.950 . S
C701 C697 1.393 1_556 S
C701 C700 1.391 1_556 S
C702 H692 0.950 . S
C702 C703 1.386 . S
C702 C704 1.391 . S
C703 C702 1.386 . S
C703 C707 1.393 . S
C704 H693 0.951 . S
C704 C702 1.391 . S
C704 C705 1.400 . S
C705 C699 1.491 . S
C705 C704 1.400 . S
C705 C706 1.398 . S
C706 H694 0.950 . S
C706 C705 1.398 . S
C706 C707 1.391 . S
C707 H695 0.950 . S
C707 C703 1.393 . S
C707 C706 1.391 . S
H708 C716 0.950 . S
H709 C721 0.950 . S
H710 C718 0.950 . S
H711 C720 0.950 . S
H712 C722 0.950 . S
H713 C724 0.950 . S
H714 C726 0.950 . S
H715 C727 0.950 . S
C716 H708 0.950 . S
C716 C717 1.386 . S
C716 C718 1.391 . S
C717 C716 1.386 . S
C717 C721 1.393 . S
C718 H710 0.950 . S
C718 C716 1.391 . S
C718 C719 1.400 . S
C719 C718 1.400 . S
C719 C720 1.398 . S
C719 C725 1.491 . S
C720 H711 0.950 . S
C720 C719 1.398 . S
C720 C721 1.391 . S
C721 H709 0.950 . S
C721 C717 1.393 . S
C721 C720 1.391 . S
C722 H712 0.950 . S
C722 C723 1.386 . S
C722 C724 1.391 . S
C723 C722 1.386 . S
C723 C727 1.393 . S
C724 H713 0.950 . S
C724 C722 1.391 . S
C724 C725 1.400 . S
C725 C719 1.491 . S
C725 C724 1.400 . S
C725 C726 1.398 . S
C726 H714 0.950 . S
C726 C725 1.398 . S
C726 C727 1.391 . S
C727 H715 0.950 . S
C727 C723 1.393 . S
C727 C726 1.391 . S
H728 C736 0.950 . S
H729 C741 0.950 . S
H730 C738 0.950 . S
H731 C740 0.950 . S
H732 C742 0.950 . S
H733 C744 0.950 . S
H734 C746 0.950 . S
H735 C747 0.950 . S
C736 H728 0.950 . S
C736 C737 1.386 . S
C736 C738 1.391 . S
C737 C736 1.386 . S
C737 C741 1.393 . S
C738 H730 0.950 . S
C738 C736 1.391 . S
C738 C739 1.400 . S
C739 C738 1.400 . S
C739 C740 1.398 . S
C739 C745 1.491 . S
C740 H731 0.950 . S
C740 C739 1.398 . S
C740 C741 1.391 . S
C741 H729 0.950 . S
C741 C737 1.393 . S
C741 C740 1.391 . S
C742 H732 0.950 . S
C742 C743 1.386 . S
C742 C744 1.391 . S
C743 C742 1.386 . S
C743 C747 1.393 . S
C744 H733 0.950 . S
C744 C742 1.391 . S
C744 C745 1.400 . S
C745 C739 1.491 . S
C745 C744 1.400 . S
C745 C746 1.398 . S
C746 H734 0.950 . S
C746 C745 1.398 . S
C746 C747 1.391 . S
C747 H735 0.950 . S
C747 C743 1.393 . S
C747 C746 1.391 . S
H748 C756 0.950 . S
H749 C761 0.950 . S
H750 C758 0.950 . S
H751 C760 0.950 . S
H752 C762 0.950 . S
H753 C764 0.950 . S
H754 C766 0.950 . S
H755 C767 0.950 . S
C756 H748 0.950 . S
C756 C757 1.386 . S
C756 C758 1.391 . S
C757 C756 1.386 . S
C757 C761 1.393 . S
C758 H750 0.950 . S
C758 C756 1.391 . S
C758 C759 1.400 . S
C759 C758 1.400 . S
C759 C760 1.398 . S
C759 C765 1.491 . S
C760 H751 0.950 . S
C760 C759 1.398 . S
C760 C761 1.391 . S
C761 H749 0.950 . S
C761 C757 1.393 . S
C761 C760 1.391 . S
C762 H752 0.950 . S
C762 C763 1.386 . S
C762 C764 1.391 . S
C763 C762 1.386 . S
C763 C767 1.393 . S
C764 H753 0.950 . S
C764 C762 1.391 . S
C764 C765 1.400 . S
C765 C759 1.491 . S
C765 C764 1.400 . S
C765 C766 1.398 . S
C766 H754 0.950 . S
C766 C765 1.398 . S
C766 C767 1.391 . S
C767 H755 0.950 . S
C767 C763 1.393 . S
C767 C766 1.391 . S
H768 C776 0.950 . S
H769 C781 0.950 . S
H770 C778 0.950 . S
H771 C780 0.950 . S
H772 C782 0.950 . S
H773 C784 0.950 . S
H774 C786 0.950 . S
H775 C787 0.950 . S
C776 H768 0.950 . S
C776 C777 1.386 . S
C776 C778 1.391 . S
C777 C776 1.386 . S
C777 C781 1.393 . S
C778 H770 0.950 . S
C778 C776 1.391 . S
C778 C779 1.400 . S
C779 C778 1.400 . S
C779 C780 1.398 . S
C779 C785 1.491 . S
C780 H771 0.950 . S
C780 C779 1.398 . S
C780 C781 1.391 . S
C781 H769 0.950 . S
C781 C777 1.393 . S
C781 C780 1.391 . S
C782 H772 0.950 . S
C782 C783 1.386 . S
C782 C784 1.391 . S
C783 C782 1.386 . S
C783 C787 1.393 . S
C784 H773 0.950 . S
C784 C782 1.391 . S
C784 C785 1.400 . S
C785 C779 1.491 . S
C785 C784 1.400 . S
C785 C786 1.398 . S
C786 H774 0.950 . S
C786 C785 1.398 . S
C786 C787 1.391 . S
C787 H775 0.950 . S
C787 C783 1.393 . S
C787 C786 1.391 . S
H788 C796 0.950 . S
H789 C801 0.950 . S
H790 C798 0.950 . S
H791 C800 0.950 . S
H792 C802 0.950 . S
H793 C804 0.950 . S
H794 C806 0.950 . S
H795 C807 0.950 . S
C796 H788 0.950 . S
C796 C797 1.386 . S
C796 C798 1.391 . S
C797 C796 1.386 . S
C797 C801 1.393 . S
C798 H790 0.950 . S
C798 C796 1.391 . S
C798 C799 1.400 . S
C799 C798 1.400 . S
C799 C800 1.398 . S
C799 C805 1.491 . S
C800 H791 0.950 . S
C800 C799 1.398 . S
C800 C801 1.391 . S
C801 H789 0.950 . S
C801 C797 1.393 . S
C801 C800 1.391 . S
C802 H792 0.950 . S
C802 C803 1.386 . S
C802 C804 1.391 . S
C803 C802 1.386 . S
C803 C807 1.393 . S
C804 H793 0.950 . S
C804 C802 1.391 . S
C804 C805 1.400 . S
C805 C799 1.491 . S
C805 C804 1.400 . S
C805 C806 1.398 . S
C806 H794 0.950 . S
C806 C805 1.398 . S
C806 C807 1.391 . S
C807 H795 0.950 . S
C807 C803 1.393 . S
C807 C806 1.391 . S
H808 C816 0.950 . S
H809 C821 0.950 . S
H810 C818 0.950 . S
H811 C820 0.950 . S
H812 C822 0.950 . S
H813 C824 0.950 . S
H814 C826 0.950 . S
H815 C827 0.950 . S
C816 H808 0.950 . S
C816 C817 1.386 . S
C816 C818 1.391 . S
C817 C816 1.386 . S
C817 C821 1.393 . S
C818 H810 0.950 . S
C818 C816 1.391 . S
C818 C819 1.400 . S
C819 C818 1.400 . S
C819 C820 1.398 . S
C819 C825 1.491 . S
C820 H811 0.950 . S
C820 C819 1.398 . S
C820 C821 1.391 . S
C821 H809 0.950 . S
C821 C817 1.393 . S
C821 C820 1.391 . S
C822 H812 0.950 . S
C822 C823 1.386 . S
C822 C824 1.391 . S
C823 C822 1.386 . S
C823 C827 1.393 . S
C824 H813 0.950 . S
C824 C822 1.391 . S
C824 C825 1.400 . S
C825 C819 1.491 . S
C825 C824 1.400 . S
C825 C826 1.398 . S
C826 H814 0.950 . S
C826 C825 1.398 . S
C826 C827 1.391 . S
C827 H815 0.950 . S
C827 C823 1.393 . S
C827 C826 1.391 . S
H828 C836 0.950 . S
H829 C841 0.950 . S
H830 C838 0.950 . S
H831 C840 0.950 . S
H832 C842 0.950 . S
H833 C844 0.950 . S
H834 C846 0.950 . S
H835 C847 0.950 . S
C836 H828 0.950 . S
C836 C837 1.386 . S
C836 C838 1.391 . S
C837 C836 1.386 . S
C837 C841 1.393 . S
C838 H830 0.950 . S
C838 C836 1.391 . S
C838 C839 1.400 . S
C839 C838 1.400 . S
C839 C840 1.398 . S
C839 C845 1.491 . S
C840 H831 0.950 . S
C840 C839 1.398 . S
C840 C841 1.391 . S
C841 H829 0.950 . S
C841 C837 1.393 . S
C841 C840 1.391 . S
C842 H832 0.950 . S
C842 C843 1.386 . S
C842 C844 1.391 . S
C843 C842 1.386 . S
C843 C847 1.393 . S
C844 H833 0.950 . S
C844 C842 1.391 . S
C844 C845 1.400 . S
C845 C839 1.491 . S
C845 C844 1.400 . S
C845 C846 1.398 . S
C846 H834 0.950 . S
C846 C845 1.398 . S
C846 C847 1.391 . S
C847 H835 0.950 . S
C847 C843 1.393 . S
C847 C846 1.391 . S
H848 C856 0.950 . S
H849 C861 0.950 . S
H850 C858 0.950 . S
H851 C860 0.950 . S
H852 C862 0.950 . S
H853 C864 0.950 . S
H854 C866 0.950 . S
H855 C867 0.950 . S
C856 H848 0.950 . S
C856 C857 1.386 . S
C856 C858 1.391 . S
C857 C856 1.386 . S
C857 C861 1.393 . S
C858 H850 0.950 . S
C858 C856 1.391 . S
C858 C859 1.400 . S
C859 C858 1.400 . S
C859 C860 1.398 . S
C859 C865 1.491 . S
C860 H851 0.950 . S
C860 C859 1.398 . S
C860 C861 1.391 . S
C861 H849 0.950 . S
C861 C857 1.393 . S
C861 C860 1.391 . S
C862 H852 0.950 . S
C862 C863 1.386 . S
C862 C864 1.391 . S
C863 C862 1.386 . S
C863 C867 1.393 . S
C864 H853 0.950 . S
C864 C862 1.391 . S
C864 C865 1.400 . S
C865 C859 1.491 . S
C865 C864 1.400 . S
C865 C866 1.398 . S
C866 H854 0.950 . S
C866 C865 1.398 . S
C866 C867 1.391 . S
C867 H855 0.950 . S
C867 C863 1.393 . S
C867 C866 1.391 . S
H868 C876 0.950 . S
H869 C881 0.950 . S
H870 C878 0.950 . S
H871 C880 0.950 . S
H872 C882 0.950 . S
H873 C884 0.950 . S
H874 C886 0.950 . S
H875 C887 0.950 . S
C876 H868 0.950 . S
C876 C877 1.386 . S
C876 C878 1.391 . S
C877 C876 1.386 . S
C877 C881 1.393 . S
C878 H870 0.950 . S
C878 C876 1.391 . S
C878 C879 1.400 . S
C879 C878 1.400 . S
C879 C880 1.398 . S
C879 C885 1.491 . S
C880 H871 0.950 . S
C880 C879 1.398 . S
C880 C881 1.391 . S
C881 H869 0.950 . S
C881 C877 1.393 . S
C881 C880 1.391 . S
C882 H872 0.950 . S
C882 C883 1.386 . S
C882 C884 1.391 . S
C883 C882 1.386 . S
C883 C887 1.393 . S
C884 H873 0.950 . S
C884 C882 1.391 . S
C884 C885 1.400 . S
C885 C879 1.491 . S
C885 C884 1.400 . S
C885 C886 1.398 . S
C886 H874 0.950 . S
C886 C885 1.398 . S
C886 C887 1.391 . S
C887 H875 0.950 . S
C887 C883 1.393 . S
C887 C886 1.391 . S
H888 C896 0.950 . S
H889 C901 0.950 . S
H890 C898 0.950 . S
H891 C900 0.950 . S
H892 C902 0.950 . S
H893 C904 0.950 . S
H894 C906 0.950 . S
H895 C907 0.950 . S
C896 H888 0.950 . S
C896 C897 1.386 . S
C896 C898 1.391 . S
C897 C896 1.386 . S
C897 C901 1.393 . S
C898 H890 0.950 . S
C898 C896 1.391 . S
C898 C899 1.400 . S
C899 C898 1.400 . S
C899 C900 1.398 . S
C899 C905 1.491 . S
C900 H891 0.950 . S
C900 C899 1.398 . S
C900 C901 1.391 . S
C901 H889 0.950 . S
C901 C897 1.393 . S
C901 C900 1.391 . S
C902 H892 0.950 . S
C902 C903 1.386 . S
C902 C904 1.391 . S
C903 C902 1.386 . S
C903 C907 1.393 . S
C904 H893 0.950 . S
C904 C902 1.391 . S
C904 C905 1.400 . S
C905 C899 1.491 . S
C905 C904 1.400 . S
C905 C906 1.398 . S
C906 H894 0.950 . S
C906 C905 1.398 . S
C906 C907 1.391 . S
C907 H895 0.950 . S
C907 C903 1.393 . S
C907 C906 1.391 . S
H908 C916 0.950 . S
H909 C921 0.950 . S
H910 C918 0.950 . S
H911 C920 0.950 . S
H912 C922 0.950 . S
H913 C924 0.950 . S
H914 C926 0.950 . S
H915 C927 0.950 . S
C916 H908 0.950 . S
C916 C917 1.386 . S
C916 C918 1.391 . S
C917 C916 1.386 . S
C917 C921 1.393 . S
C918 H910 0.950 . S
C918 C916 1.391 . S
C918 C919 1.400 . S
C919 C918 1.400 . S
C919 C920 1.398 . S
C919 C925 1.491 . S
C920 H911 0.950 . S
C920 C919 1.398 . S
C920 C921 1.391 . S
C921 H909 0.950 . S
C921 C917 1.393 . S
C921 C920 1.391 . S
C922 H912 0.950 . S
C922 C923 1.386 . S
C922 C924 1.391 . S
C923 C922 1.386 . S
C923 C927 1.393 . S
C924 H913 0.950 . S
C924 C922 1.391 . S
C924 C925 1.400 . S
C925 C919 1.491 . S
C925 C924 1.400 . S
C925 C926 1.398 . S
C926 H914 0.950 . S
C926 C925 1.398 . S
C926 C927 1.391 . S
C927 H915 0.950 . S
C927 C923 1.393 . S
C927 C926 1.391 . S
H928 C936 0.950 . S
H929 C941 0.950 . S
H930 C938 0.950 . S
H931 C940 0.950 . S
H932 C942 0.950 . S
H933 C944 0.950 . S
H934 C946 0.950 . S
H935 C947 0.950 . S
C936 H928 0.950 . S
C936 C937 1.386 . S
C936 C938 1.391 . S
C937 C936 1.386 . S
C937 C941 1.393 . S
C938 H930 0.950 . S
C938 C936 1.391 . S
C938 C939 1.400 . S
C939 C938 1.400 . S
C939 C940 1.398 . S
C939 C945 1.491 . S
C940 H931 0.950 . S
C940 C939 1.398 . S
C940 C941 1.391 . S
C941 H929 0.950 . S
C941 C937 1.393 . S
C941 C940 1.391 . S
C942 H932 0.950 . S
C942 C943 1.386 . S
C942 C944 1.391 . S
C943 C942 1.386 . S
C943 C947 1.393 . S
C944 H933 0.950 . S
C944 C942 1.391 . S
C944 C945 1.400 . S
C945 C939 1.491 . S
C945 C944 1.400 . S
C945 C946 1.398 . S
C946 H934 0.950 . S
C946 C945 1.398 . S
C946 C947 1.391 . S
C947 H935 0.950 . S
C947 C943 1.393 . S
C947 C946 1.391 . S
H948 C956 0.950 . S
H949 C961 0.950 . S
H950 C958 0.950 . S
H951 C960 0.950 . S
H952 C962 0.950 . S
H953 C964 0.950 . S
H954 C966 0.950 . S
H955 C967 0.950 . S
C956 H948 0.950 . S
C956 C957 1.386 . S
C956 C958 1.391 . S
C957 C956 1.386 . S
C957 C961 1.393 . S
C958 H950 0.950 . S
C958 C956 1.391 . S
C958 C959 1.400 . S
C959 C958 1.400 . S
C959 C960 1.398 . S
C959 C965 1.491 . S
C960 H951 0.950 . S
C960 C959 1.398 . S
C960 C961 1.391 . S
C961 H949 0.950 . S
C961 C957 1.393 . S
C961 C960 1.391 . S
C962 H952 0.950 . S
C962 C963 1.386 . S
C962 C964 1.391 . S
C963 C962 1.386 . S
C963 C967 1.393 . S
C964 H953 0.950 . S
C964 C962 1.391 . S
C964 C965 1.400 . S
C965 C959 1.491 . S
C965 C964 1.400 . S
C965 C966 1.398 . S
C966 H954 0.950 . S
C966 C965 1.398 . S
C966 C967 1.391 . S
C967 H955 0.950 . S
C967 C963 1.393 . S
C967 C966 1.391 . S
H968 C976 0.950 . S
H969 C981 0.950 . S
H970 C978 0.950 . S
H971 C980 0.950 . S
H972 C982 0.950 . S
H973 C984 0.950 . S
H974 C986 0.950 . S
H975 C987 0.950 . S
C976 H968 0.950 . S
C976 C977 1.386 . S
C976 C978 1.391 . S
C977 C976 1.386 . S
C977 C981 1.393 . S
C978 H970 0.950 . S
C978 C976 1.391 . S
C978 C979 1.400 . S
C979 C978 1.400 . S
C979 C980 1.398 . S
C979 C985 1.491 . S
C980 H971 0.950 . S
C980 C979 1.398 . S
C980 C981 1.391 . S
C981 H969 0.950 . S
C981 C977 1.393 . S
C981 C980 1.391 . S
C982 H972 0.950 . S
C982 C983 1.386 . S
C982 C984 1.391 . S
C983 C982 1.386 . S
C983 C987 1.393 . S
C984 H973 0.950 . S
C984 C982 1.391 . S
C984 C985 1.400 . S
C985 C979 1.491 . S
C985 C984 1.400 . S
C985 C986 1.398 . S
C986 H974 0.950 . S
C986 C985 1.398 . S
C986 C987 1.391 . S
C987 H975 0.950 . S
C987 C983 1.393 . S
C987 C986 1.391 . S
H988 C996 0.950 . S
H989 C1001 0.950 . S
H990 C998 0.950 . S
H991 C1000 0.950 . S
H992 C1002 0.950 . S
H993 C1004 0.950 . S
H994 C1006 0.950 . S
H995 C1007 0.950 . S
C996 H988 0.950 . S
C996 C997 1.386 . S
C996 C998 1.391 . S
C997 C996 1.386 . S
C997 C1001 1.393 . S
C998 H990 0.950 . S
C998 C996 1.391 . S
C998 C999 1.400 . S
C999 C998 1.400 . S
C999 C1000 1.398 . S
C999 C1005 1.491 . S
C1000 H991 0.950 . S
C1000 C999 1.398 . S
C1000 C1001 1.391 . S
C1001 H989 0.950 . S
C1001 C997 1.393 . S
C1001 C1000 1.391 . S
C1002 H992 0.950 . S
C1002 C1003 1.386 . S
C1002 C1004 1.391 . S
C1003 C1002 1.386 . S
C1003 C1007 1.393 . S
C1004 H993 0.950 . S
C1004 C1002 1.391 . S
C1004 C1005 1.400 . S
C1005 C999 1.491 . S
C1005 C1004 1.400 . S
C1005 C1006 1.398 . S
C1006 H994 0.950 . S
C1006 C1005 1.398 . S
C1006 C1007 1.391 . S
C1007 H995 0.950 . S
C1007 C1003 1.393 . S
C1007 C1006 1.391 . S
H1008 C1016 0.950 . S
H1009 C1021 0.950 . S
H1010 C1018 0.950 . S
H1011 C1020 0.950 . S
H1012 C1022 0.950 . S
H1013 C1024 0.950 . S
H1014 C1026 0.950 . S
H1015 C1027 0.950 . S
C1016 H1008 0.950 . S
C1016 C1017 1.386 . S
C1016 C1018 1.391 . S
C1017 C1016 1.386 . S
C1017 C1021 1.393 . S
C1018 H1010 0.950 . S
C1018 C1016 1.391 . S
C1018 C1019 1.400 . S
C1019 C1018 1.400 . S
C1019 C1020 1.398 . S
C1019 C1025 1.491 . S
C1020 H1011 0.950 . S
C1020 C1019 1.398 . S
C1020 C1021 1.391 . S
C1021 H1009 0.950 . S
C1021 C1017 1.393 . S
C1021 C1020 1.391 . S
C1022 H1012 0.950 . S
C1022 C1023 1.386 . S
C1022 C1024 1.391 . S
C1023 C1022 1.386 . S
C1023 C1027 1.393 . S
C1024 H1013 0.950 . S
C1024 C1022 1.391 . S
C1024 C1025 1.400 . S
C1025 C1019 1.491 . S
C1025 C1024 1.400 . S
C1025 C1026 1.398 . S
C1026 H1014 0.950 . S
C1026 C1025 1.398 . S
C1026 C1027 1.391 . S
C1027 H1015 0.950 . S
C1027 C1023 1.393 . S
C1027 C1026 1.391 . S
H1028 C1036 0.950 . S
H1029 C1041 0.950 . S
H1030 C1038 0.950 . S
H1031 C1040 0.950 . S
H1032 C1042 0.950 . S
H1033 C1044 0.950 . S
H1034 C1046 0.950 . S
H1035 C1047 0.950 . S
C1036 H1028 0.950 . S
C1036 C1037 1.386 . S
C1036 C1038 1.391 . S
C1037 C1036 1.386 . S
C1037 C1041 1.393 . S
C1038 H1030 0.950 . S
C1038 C1036 1.391 . S
C1038 C1039 1.400 . S
C1039 C1038 1.400 . S
C1039 C1040 1.398 . S
C1039 C1045 1.491 . S
C1040 H1031 0.950 . S
C1040 C1039 1.398 . S
C1040 C1041 1.391 . S
C1041 H1029 0.950 . S
C1041 C1037 1.393 . S
C1041 C1040 1.391 . S
C1042 H1032 0.950 . S
C1042 C1043 1.386 . S
C1042 C1044 1.391 . S
C1043 C1042 1.386 . S
C1043 C1047 1.393 . S
C1044 H1033 0.950 . S
C1044 C1042 1.391 . S
C1044 C1045 1.400 . S
C1045 C1039 1.491 . S
C1045 C1044 1.400 . S
C1045 C1046 1.398 . S
C1046 H1034 0.950 . S
C1046 C1045 1.398 . S
C1046 C1047 1.391 . S
C1047 H1035 0.950 . S
C1047 C1043 1.393 . S
C1047 C1046 1.391 . S
H1048 C1056 0.950 . S
H1049 C1061 0.950 . S
H1050 C1058 0.950 . S
H1051 C1060 0.950 . S
H1052 C1062 0.950 . S
H1053 C1064 0.950 . S
H1054 C1066 0.950 . S
H1055 C1067 0.950 . S
C1056 H1048 0.950 . S
C1056 C1057 1.386 . S
C1056 C1058 1.391 . S
C1057 C1056 1.386 . S
C1057 C1061 1.393 . S
C1058 H1050 0.950 . S
C1058 C1056 1.391 . S
C1058 C1059 1.400 . S
C1059 C1058 1.400 . S
C1059 C1060 1.398 . S
C1059 C1065 1.491 . S
C1060 H1051 0.950 . S
C1060 C1059 1.398 . S
C1060 C1061 1.391 . S
C1061 H1049 0.950 . S
C1061 C1057 1.393 . S
C1061 C1060 1.391 . S
C1062 H1052 0.950 . S
C1062 C1063 1.386 . S
C1062 C1064 1.391 . S
C1063 C1062 1.386 . S
C1063 C1067 1.393 . S
C1064 H1053 0.950 . S
C1064 C1062 1.391 . S
C1064 C1065 1.400 . S
C1065 C1059 1.491 . S
C1065 C1064 1.400 . S
C1065 C1066 1.398 . S
C1066 H1054 0.950 . S
C1066 C1065 1.398 . S
C1066 C1067 1.391 . S
C1067 H1055 0.950 . S
C1067 C1063 1.393 . S
C1067 C1066 1.391 . S
H1068 C1076 0.950 . S
H1069 C1081 0.950 . S
H1070 C1078 0.950 . S
H1071 C1080 0.950 . S
H1072 C1082 0.950 . S
H1073 C1084 0.950 . S
H1074 C1086 0.950 . S
H1075 C1087 0.950 . S
C1076 H1068 0.950 . S
C1076 C1077 1.386 . S
C1076 C1078 1.391 . S
C1077 C1076 1.386 . S
C1077 C1081 1.393 . S
C1078 H1070 0.950 . S
C1078 C1076 1.391 . S
C1078 C1079 1.400 . S
C1079 C1078 1.400 . S
C1079 C1080 1.398 . S
C1079 C1085 1.491 . S
C1080 H1071 0.950 . S
C1080 C1079 1.398 . S
C1080 C1081 1.391 . S
C1081 H1069 0.950 . S
C1081 C1077 1.393 . S
C1081 C1080 1.391 . S
C1082 H1072 0.950 . S
C1082 C1083 1.386 . S
C1082 C1084 1.391 . S
C1083 C1082 1.386 . S
C1083 C1087 1.393 . S
C1084 H1073 0.950 . S
C1084 C1082 1.391 . S
C1084 C1085 1.400 . S
C1085 C1079 1.491 . S
C1085 C1084 1.400 . S
C1085 C1086 1.398 . S
C1086 H1074 0.950 . S
C1086 C1085 1.398 . S
C1086 C1087 1.391 . S
C1087 H1075 0.950 . S
C1087 C1083 1.393 . S
C1087 C1086 1.391 . S
H1088 C1096 0.950 . S
H1089 C1101 0.950 . S
H1090 C1098 0.950 . S
H1091 C1100 0.950 . S
H1092 C1102 0.950 . S
H1093 C1104 0.950 . S
H1094 C1106 0.950 . S
H1095 C1107 0.950 . S
C1096 H1088 0.950 . S
C1096 C1097 1.386 . S
C1096 C1098 1.391 . S
C1097 C1096 1.386 . S
C1097 C1101 1.393 . S
C1098 H1090 0.950 . S
C1098 C1096 1.391 . S
C1098 C1099 1.400 . S
C1099 C1098 1.400 . S
C1099 C1100 1.398 . S
C1099 C1105 1.491 . S
C1100 H1091 0.950 . S
C1100 C1099 1.398 . S
C1100 C1101 1.391 . S
C1101 H1089 0.950 . S
C1101 C1097 1.393 . S
C1101 C1100 1.391 . S
C1102 H1092 0.950 . S
C1102 C1103 1.386 . S
C1102 C1104 1.391 . S
C1103 C1102 1.386 . S
C1103 C1107 1.393 . S
C1104 H1093 0.950 . S
C1104 C1102 1.391 . S
C1104 C1105 1.400 . S
C1105 C1099 1.491 . S
C1105 C1104 1.400 . S
C1105 C1106 1.398 . S
C1106 H1094 0.950 . S
C1106 C1105 1.398 . S
C1106 C1107 1.391 . S
C1107 H1095 0.950 . S
C1107 C1103 1.393 . S
C1107 C1106 1.391 . S
H1108 C1116 0.950 . S
H1109 C1121 0.950 . S
H1110 C1118 0.950 . S
H1111 C1120 0.950 . S
H1112 C1122 0.950 . S
H1113 C1124 0.950 . S
H1114 C1126 0.950 . S
H1115 C1127 0.950 . S
C1116 H1108 0.950 . S
C1116 C1117 1.386 . S
C1116 C1118 1.391 . S
C1117 C1116 1.386 . S
C1117 C1121 1.393 . S
C1118 H1110 0.950 . S
C1118 C1116 1.391 . S
C1118 C1119 1.400 . S
C1119 C1118 1.400 . S
C1119 C1120 1.398 . S
C1119 C1125 1.491 . S
C1120 H1111 0.950 . S
C1120 C1119 1.398 . S
C1120 C1121 1.391 . S
C1121 H1109 0.950 . S
C1121 C1117 1.393 . S
C1121 C1120 1.391 . S
C1122 H1112 0.950 . S
C1122 C1123 1.386 . S
C1122 C1124 1.391 . S
C1123 C1122 1.386 . S
C1123 C1127 1.393 . S
C1124 H1113 0.950 . S
C1124 C1122 1.391 . S
C1124 C1125 1.400 . S
C1125 C1119 1.491 . S
C1125 C1124 1.400 . S
C1125 C1126 1.398 . S
C1126 H1114 0.950 . S
C1126 C1125 1.398 . S
C1126 C1127 1.391 . S
C1127 H1115 0.950 . S
C1127 C1123 1.393 . S
C1127 C1126 1.391 . S
H1128 C1136 0.950 . S
H1129 C1141 0.950 . S
H1130 C1138 0.950 . S
H1131 C1140 0.950 . S
H1132 C1142 0.950 . S
H1133 C1144 0.950 . S
H1134 C1146 0.950 . S
H1135 C1147 0.950 . S
C1136 H1128 0.950 . S
C1136 C1137 1.386 . S
C1136 C1138 1.391 . S
C1137 C1136 1.386 . S
C1137 C1141 1.393 . S
C1138 H1130 0.950 . S
C1138 C1136 1.391 . S
C1138 C1139 1.400 . S
C1139 C1138 1.400 . S
C1139 C1140 1.398 . S
C1139 C1145 1.491 . S
C1140 H1131 0.950 . S
C1140 C1139 1.398 . S
C1140 C1141 1.391 . S
C1141 H1129 0.950 . S
C1141 C1137 1.393 . S
C1141 C1140 1.391 . S
C1142 H1132 0.950 . S
C1142 C1143 1.386 . S
C1142 C1144 1.391 . S
C1143 C1142 1.386 . S
C1143 C1147 1.393 . S
C1144 H1133 0.950 . S
C1144 C1142 1.391 . S
C1144 C1145 1.400 . S
C1145 C1139 1.491 . S
C1145 C1144 1.400 . S
C1145 C1146 1.398 . S
C1146 H1134 0.950 . S
C1146 C1145 1.398 . S
C1146 C1147 1.391 . S
C1147 H1135 0.950 . S
C1147 C1143 1.393 . S
C1147 C1146 1.391 . S
H1148 C1156 0.950 . S
H1149 C1161 0.950 . S
H1150 C1158 0.950 . S
H1151 C1160 0.950 . S
H1152 C1162 0.950 . S
H1153 C1164 0.950 . S
H1154 C1166 0.950 . S
H1155 C1167 0.950 . S
C1156 H1148 0.950 . S
C1156 C1157 1.386 . S
C1156 C1158 1.391 . S
C1157 C1156 1.386 . S
C1157 C1161 1.393 . S
C1158 H1150 0.950 . S
C1158 C1156 1.391 . S
C1158 C1159 1.400 . S
C1159 C1158 1.400 . S
C1159 C1160 1.398 . S
C1159 C1165 1.491 . S
C1160 H1151 0.950 . S
C1160 C1159 1.398 . S
C1160 C1161 1.391 . S
C1161 H1149 0.950 . S
C1161 C1157 1.393 . S
C1161 C1160 1.391 . S
C1162 H1152 0.950 . S
C1162 C1163 1.386 . S
C1162 C1164 1.391 . S
C1163 C1162 1.386 . S
C1163 C1167 1.393 . S
C1164 H1153 0.950 . S
C1164 C1162 1.391 . S
C1164 C1165 1.400 . S
C1165 C1159 1.491 . S
C1165 C1164 1.400 . S
C1165 C1166 1.398 . S
C1166 H1154 0.950 . S
C1166 C1165 1.398 . S
C1166 C1167 1.391 . S
C1167 H1155 0.950 . S
C1167 C1163 1.393 . S
C1167 C1166 1.391 . S
H1168 C1176 0.950 . S
H1169 C1181 0.950 . S
H1170 C1178 0.950 . S
H1171 C1180 0.950 . S
H1172 C1182 0.950 . S
H1173 C1184 0.950 . S
H1174 C1186 0.950 . S
H1175 C1187 0.950 . S
C1176 H1168 0.950 . S
C1176 C1177 1.386 . S
C1176 C1178 1.391 . S
C1177 C1176 1.386 . S
C1177 C1181 1.393 . S
C1178 H1170 0.950 . S
C1178 C1176 1.391 . S
C1178 C1179 1.400 . S
C1179 C1178 1.400 . S
C1179 C1180 1.398 . S
C1179 C1185 1.491 . S
C1180 H1171 0.950 . S
C1180 C1179 1.398 . S
C1180 C1181 1.391 . S
C1181 H1169 0.950 . S
C1181 C1177 1.393 . S
C1181 C1180 1.391 . S
C1182 H1172 0.950 . S
C1182 C1183 1.386 . S
C1182 C1184 1.391 . S
C1183 C1182 1.386 . S
C1183 C1187 1.393 . S
C1184 H1173 0.950 . S
C1184 C1182 1.391 . S
C1184 C1185 1.400 . S
C1185 C1179 1.491 . S
C1185 C1184 1.400 . S
C1185 C1186 1.398 . S
C1186 H1174 0.950 . S
C1186 C1185 1.398 . S
C1186 C1187 1.391 . S
C1187 H1175 0.950 . S
C1187 C1183 1.393 . S
C1187 C1186 1.391 . S
H1188 C1196 0.950 . S
H1189 C1201 0.950 . S
H1190 C1198 0.950 . S
H1191 C1200 0.950 . S
H1192 C1202 0.950 . S
H1193 C1204 0.950 . S
H1194 C1206 0.950 . S
H1195 C1207 0.950 . S
C1196 H1188 0.950 . S
C1196 C1197 1.386 . S
C1196 C1198 1.391 . S
C1197 C1196 1.386 . S
C1197 C1201 1.393 . S
C1198 H1190 0.950 . S
C1198 C1196 1.391 . S
C1198 C1199 1.400 . S
C1199 C1198 1.400 . S
C1199 C1200 1.398 . S
C1199 C1205 1.491 . S
C1200 H1191 0.950 . S
C1200 C1199 1.398 . S
C1200 C1201 1.391 . S
C1201 H1189 0.950 . S
C1201 C1197 1.393 . S
C1201 C1200 1.391 . S
C1202 H1192 0.950 . S
C1202 C1203 1.386 . S
C1202 C1204 1.391 . S
C1203 C1202 1.386 . S
C1203 C1207 1.393 . S
C1204 H1193 0.950 . S
C1204 C1202 1.391 . S
C1204 C1205 1.400 . S
C1205 C1199 1.491 . S
C1205 C1204 1.400 . S
C1205 C1206 1.398 . S
C1206 H1194 0.950 . S
C1206 C1205 1.398 . S
C1206 C1207 1.391 . S
C1207 H1195 0.950 . S
C1207 C1203 1.393 . S
C1207 C1206 1.391 . S
H1208 C1216 0.950 . S
H1209 C1221 0.950 . S
H1210 C1218 0.950 . S
H1211 C1220 0.950 . S
H1212 C1222 0.950 . S
H1213 C1224 0.950 . S
H1214 C1226 0.950 . S
H1215 C1227 0.950 . S
C1216 H1208 0.950 . S
C1216 C1217 1.386 . S
C1216 C1218 1.391 . S
C1217 C1216 1.386 . S
C1217 C1221 1.393 . S
C1218 H1210 0.950 . S
C1218 C1216 1.391 . S
C1218 C1219 1.400 . S
C1219 C1218 1.400 . S
C1219 C1220 1.398 . S
C1219 C1225 1.491 . S
C1220 H1211 0.950 . S
C1220 C1219 1.398 . S
C1220 C1221 1.391 . S
C1221 H1209 0.950 . S
C1221 C1217 1.393 . S
C1221 C1220 1.391 . S
C1222 H1212 0.950 . S
C1222 C1223 1.386 . S
C1222 C1224 1.391 . S
C1223 C1222 1.386 . S
C1223 C1227 1.393 . S
C1224 H1213 0.950 . S
C1224 C1222 1.391 . S
C1224 C1225 1.400 . S
C1225 C1219 1.491 . S
C1225 C1224 1.400 . S
C1225 C1226 1.398 . S
C1226 H1214 0.950 . S
C1226 C1225 1.398 . S
C1226 C1227 1.391 . S
C1227 H1215 0.950 . S
C1227 C1223 1.393 . S
C1227 C1226 1.391 . S
H1228 C1236 0.950 . S
H1229 C1241 0.950 . S
H1230 C1238 0.950 . S
H1231 C1240 0.950 . S
H1232 C1242 0.950 . S
H1233 C1244 0.950 . S
H1234 C1246 0.950 . S
H1235 C1247 0.950 . S
C1236 H1228 0.950 . S
C1236 C1237 1.386 . S
C1236 C1238 1.391 . S
C1237 C1236 1.386 . S
C1237 C1241 1.393 . S
C1238 H1230 0.950 . S
C1238 C1236 1.391 . S
C1238 C1239 1.400 . S
C1239 C1238 1.400 . S
C1239 C1240 1.398 . S
C1239 C1245 1.491 . S
C1240 H1231 0.950 . S
C1240 C1239 1.398 . S
C1240 C1241 1.391 . S
C1241 H1229 0.950 . S
C1241 C1237 1.393 . S
C1241 C1240 1.391 . S
C1242 H1232 0.950 . S
C1242 C1243 1.386 . S
C1242 C1244 1.391 . S
C1243 C1242 1.386 . S
C1243 C1247 1.393 . S
C1244 H1233 0.950 . S
C1244 C1242 1.391 . S
C1244 C1245 1.400 . S
C1245 C1239 1.491 . S
C1245 C1244 1.400 . S
C1245 C1246 1.398 . S
C1246 H1234 0.950 . S
C1246 C1245 1.398 . S
C1246 C1247 1.391 . S
C1247 H1235 0.950 . S
C1247 C1243 1.393 . S
C1247 C1246 1.391 . S
C623 C517 1.427 . S
C617 C35 1.292 . S
C643 C537 1.375 . S
C637 C115 1.306 . S
C663 C551 1.379 . S
C657 C177 1.305 . S
C677 C221 1.360 . S
C683 C509 1.457 . S
C697 C283 1.422 1_554 S
C703 C503 1.638 . S
C717 C363 1.406 . S
C723 C523 1.504 . S
C743 C531 1.454 . S
C737 C407 1.308 . S
C763 C545 1.583 . S
C757 C469 1.382 . S
C777 C159 1.390 . S
C783 C573 1.581 . S
C803 C587 1.456 . S
C797 C239 1.305 . S
C817 C53 1.408 . S
C823 C607 1.505 . S
C843 C559 1.641 . S
C837 C97 1.458 . S
C857 C425 1.371 . S
C863 C565 1.465 . S
C877 C487 1.327 . S
C883 C579 1.394 . S
C903 C593 1.375 1_556 S
C897 C301 1.310 . S
C917 C345 1.270 . S
C923 C601 1.421 . S
C943 C532 1.878 . S
C937 C29 1.877 . S
C963 C546 1.886 . S
C957 C109 1.808 . S
C977 C171 1.756 . S
C983 C504 1.804 . S
C997 C215 1.587 . S
C1003 C521 1.624 . S
C1017 C277 1.526 . S
C1023 C549 1.558 . S
C1043 C507 1.541 . S
C1037 C357 1.479 . S
C1063 C518 1.791 . S
C1057 C401 1.791 . S
C1083 C535 1.627 . S
C1077 C463 1.598 . S
C1103 C591 1.627 . S
C1097 C153 1.610 . S
C1123 C602 1.794 . S
C1117 C233 1.751 . S
C1137 C47 1.482 . S
C1143 C563 1.541 . S
C1163 C577 1.560 . S
C1157 C91 1.540 . S
C1183 C605 1.624 . S
C1177 C419 1.560 . S
C1197 C481 1.747 . S
C1203 C560 1.809 . S
C1223 C574 1.885 . S
C1217 C295 1.811 . S
C1243 C588 1.882 . S
C1237 C339 1.873 . S
