# Generated by pormake.
# Topology bpr, (3,3)-cn, num edge types: 1
# Building blocks:
#     Node 0, Type 0, BuildingBlock: WUSLED_clean_sbu_0, # of connection points: 3
#     Node 1, Type 0, BuildingBlock: WUSLED_clean_sbu_0, # of connection points: 3
#     Node 2, Type 0, BuildingBlock: WUSLED_clean_sbu_0, # of connection points: 3
#     Node 3, Type 0, BuildingBlock: WUSLED_clean_sbu_0, # of connection points: 3
#     Node 4, Type 0, BuildingBlock: WUSLED_clean_sbu_0, # of connection points: 3
#     Node 5, Type 0, BuildingBlock: WUSLED_clean_sbu_0, # of connection points: 3
#     Node 6, Type 0, BuildingBlock: WUSLED_clean_sbu_0, # of connection points: 3
#     Node 7, Type 0, BuildingBlock: WUSLED_clean_sbu_0, # of connection points: 3
#     Node 8, Type 0, BuildingBlock: WUSLED_clean_sbu_0, # of connection points: 3
#     Node 9, Type 0, BuildingBlock: WUSLED_clean_sbu_0, # of connection points: 3
#     Node 10, Type 0, BuildingBlock: WUSLED_clean_sbu_0, # of connection points: 3
#     Node 11, Type 0, BuildingBlock: WUSLED_clean_sbu_0, # of connection points: 3
#     Node 12, Type 0, BuildingBlock: WUSLED_clean_sbu_0, # of connection points: 3
#     Node 13, Type 0, BuildingBlock: WUSLED_clean_sbu_0, # of connection points: 3
#     Node 14, Type 0, BuildingBlock: WUSLED_clean_sbu_0, # of connection points: 3
#     Node 15, Type 0, BuildingBlock: WUSLED_clean_sbu_0, # of connection points: 3
#     Node 16, Type 0, BuildingBlock: WUSLED_clean_sbu_0, # of connection points: 3
#     Node 17, Type 0, BuildingBlock: WUSLED_clean_sbu_0, # of connection points: 3
#     Node 18, Type 0, BuildingBlock: WUSLED_clean_sbu_0, # of connection points: 3
#     Node 19, Type 0, BuildingBlock: WUSLED_clean_sbu_0, # of connection points: 3
#     Node 20, Type 0, BuildingBlock: WUSLED_clean_sbu_0, # of connection points: 3
#     Node 21, Type 0, BuildingBlock: WUSLED_clean_sbu_0, # of connection points: 3
#     Node 22, Type 0, BuildingBlock: WUSLED_clean_sbu_0, # of connection points: 3
#     Node 23, Type 0, BuildingBlock: WUSLED_clean_sbu_0, # of connection points: 3
#     Node 24, Type 0, BuildingBlock: WUSLED_clean_sbu_0, # of connection points: 3
#     Node 25, Type 0, BuildingBlock: WUSLED_clean_sbu_0, # of connection points: 3
#     Node 26, Type 0, BuildingBlock: WUSLED_clean_sbu_0, # of connection points: 3
#     Node 27, Type 0, BuildingBlock: WUSLED_clean_sbu_0, # of connection points: 3
#     Node 28, Type 0, BuildingBlock: WUSLED_clean_sbu_0, # of connection points: 3
#     Node 29, Type 0, BuildingBlock: WUSLED_clean_sbu_0, # of connection points: 3
#     Node 30, Type 0, BuildingBlock: WUSLED_clean_sbu_0, # of connection points: 3
#     Node 31, Type 0, BuildingBlock: WUSLED_clean_sbu_0, # of connection points: 3
#     Node 32, Type 0, BuildingBlock: WUSLED_clean_sbu_0, # of connection points: 3
#     Node 33, Type 0, BuildingBlock: WUSLED_clean_sbu_0, # of connection points: 3
#     Node 34, Type 0, BuildingBlock: WUSLED_clean_sbu_0, # of connection points: 3
#     Node 35, Type 0, BuildingBlock: WUSLED_clean_sbu_0, # of connection points: 3
#     Node 36, Type 0, BuildingBlock: WUSLED_clean_sbu_0, # of connection points: 3
#     Node 37, Type 0, BuildingBlock: WUSLED_clean_sbu_0, # of connection points: 3
#     Node 38, Type 0, BuildingBlock: WUSLED_clean_sbu_0, # of connection points: 3
#     Node 39, Type 0, BuildingBlock: WUSLED_clean_sbu_0, # of connection points: 3
#     Node 40, Type 0, BuildingBlock: WUSLED_clean_sbu_0, # of connection points: 3
#     Node 41, Type 0, BuildingBlock: WUSLED_clean_sbu_0, # of connection points: 3
#     Node 42, Type 0, BuildingBlock: WUSLED_clean_sbu_0, # of connection points: 3
#     Node 43, Type 0, BuildingBlock: WUSLED_clean_sbu_0, # of connection points: 3
#     Node 44, Type 0, BuildingBlock: WUSLED_clean_sbu_0, # of connection points: 3
#     Node 45, Type 0, BuildingBlock: WUSLED_clean_sbu_0, # of connection points: 3
#     Node 46, Type 0, BuildingBlock: WUSLED_clean_sbu_0, # of connection points: 3
#     Node 47, Type 0, BuildingBlock: WUSLED_clean_sbu_0, # of connection points: 3
#     Node 48, Type 1, BuildingBlock: BETDIP_clean_linker_0, # of connection points: 3
#     Node 49, Type 1, BuildingBlock: BETDIP_clean_linker_0, # of connection points: 3
#     Node 50, Type 1, BuildingBlock: BETDIP_clean_linker_0, # of connection points: 3
#     Node 51, Type 1, BuildingBlock: BETDIP_clean_linker_0, # of connection points: 3
#     Node 52, Type 1, BuildingBlock: BETDIP_clean_linker_0, # of connection points: 3
#     Node 53, Type 1, BuildingBlock: BETDIP_clean_linker_0, # of connection points: 3
#     Node 54, Type 1, BuildingBlock: BETDIP_clean_linker_0, # of connection points: 3
#     Node 55, Type 1, BuildingBlock: BETDIP_clean_linker_0, # of connection points: 3
#     Node 56, Type 1, BuildingBlock: BETDIP_clean_linker_0, # of connection points: 3
#     Node 57, Type 1, BuildingBlock: BETDIP_clean_linker_0, # of connection points: 3
#     Node 58, Type 1, BuildingBlock: BETDIP_clean_linker_0, # of connection points: 3
#     Node 59, Type 1, BuildingBlock: BETDIP_clean_linker_0, # of connection points: 3
#     Node 60, Type 1, BuildingBlock: BETDIP_clean_linker_0, # of connection points: 3
#     Node 61, Type 1, BuildingBlock: BETDIP_clean_linker_0, # of connection points: 3
#     Node 62, Type 1, BuildingBlock: BETDIP_clean_linker_0, # of connection points: 3
#     Node 63, Type 1, BuildingBlock: BETDIP_clean_linker_0, # of connection points: 3
#     Node 64, Type 1, BuildingBlock: BETDIP_clean_linker_0, # of connection points: 3
#     Node 65, Type 1, BuildingBlock: BETDIP_clean_linker_0, # of connection points: 3
#     Node 66, Type 1, BuildingBlock: BETDIP_clean_linker_0, # of connection points: 3
#     Node 67, Type 1, BuildingBlock: BETDIP_clean_linker_0, # of connection points: 3
#     Node 68, Type 1, BuildingBlock: BETDIP_clean_linker_0, # of connection points: 3
#     Node 69, Type 1, BuildingBlock: BETDIP_clean_linker_0, # of connection points: 3
#     Node 70, Type 1, BuildingBlock: BETDIP_clean_linker_0, # of connection points: 3
#     Node 71, Type 1, BuildingBlock: BETDIP_clean_linker_0, # of connection points: 3
#     Node 72, Type 1, BuildingBlock: BETDIP_clean_linker_0, # of connection points: 3
#     Node 73, Type 1, BuildingBlock: BETDIP_clean_linker_0, # of connection points: 3
#     Node 74, Type 1, BuildingBlock: BETDIP_clean_linker_0, # of connection points: 3
#     Node 75, Type 1, BuildingBlock: BETDIP_clean_linker_0, # of connection points: 3
#     Node 76, Type 1, BuildingBlock: BETDIP_clean_linker_0, # of connection points: 3
#     Node 77, Type 1, BuildingBlock: BETDIP_clean_linker_0, # of connection points: 3
#     Node 78, Type 1, BuildingBlock: BETDIP_clean_linker_0, # of connection points: 3
#     Node 79, Type 1, BuildingBlock: BETDIP_clean_linker_0, # of connection points: 3
#     Node 80, Type 1, BuildingBlock: BETDIP_clean_linker_0, # of connection points: 3
#     Node 81, Type 1, BuildingBlock: BETDIP_clean_linker_0, # of connection points: 3
#     Node 82, Type 1, BuildingBlock: BETDIP_clean_linker_0, # of connection points: 3
#     Node 83, Type 1, BuildingBlock: BETDIP_clean_linker_0, # of connection points: 3
#     Node 84, Type 1, BuildingBlock: BETDIP_clean_linker_0, # of connection points: 3
#     Node 85, Type 1, BuildingBlock: BETDIP_clean_linker_0, # of connection points: 3
#     Node 86, Type 1, BuildingBlock: BETDIP_clean_linker_0, # of connection points: 3
#     Node 87, Type 1, BuildingBlock: BETDIP_clean_linker_0, # of connection points: 3
#     Node 88, Type 1, BuildingBlock: BETDIP_clean_linker_0, # of connection points: 3
#     Node 89, Type 1, BuildingBlock: BETDIP_clean_linker_0, # of connection points: 3
#     Node 90, Type 1, BuildingBlock: BETDIP_clean_linker_0, # of connection points: 3
#     Node 91, Type 1, BuildingBlock: BETDIP_clean_linker_0, # of connection points: 3
#     Node 92, Type 1, BuildingBlock: BETDIP_clean_linker_0, # of connection points: 3
#     Node 93, Type 1, BuildingBlock: BETDIP_clean_linker_0, # of connection points: 3
#     Node 94, Type 1, BuildingBlock: BETDIP_clean_linker_0, # of connection points: 3
#     Node 95, Type 1, BuildingBlock: BETDIP_clean_linker_0, # of connection points: 3
#     Edge 96, Type (0, 1), None
#     Edge 97, Type (0, 1), None
#     Edge 98, Type (0, 1), None
#     Edge 99, Type (0, 1), None
#     Edge 100, Type (0, 1), None
#     Edge 101, Type (0, 1), None
#     Edge 102, Type (0, 1), None
#     Edge 103, Type (0, 1), None
#     Edge 104, Type (0, 1), None
#     Edge 105, Type (0, 1), None
#     Edge 106, Type (0, 1), None
#     Edge 107, Type (0, 1), None
#     Edge 108, Type (0, 1), None
#     Edge 109, Type (0, 1), None
#     Edge 110, Type (0, 1), None
#     Edge 111, Type (0, 1), None
#     Edge 112, Type (0, 1), None
#     Edge 113, Type (0, 1), None
#     Edge 114, Type (0, 1), None
#     Edge 115, Type (0, 1), None
#     Edge 116, Type (0, 1), None
#     Edge 117, Type (0, 1), None
#     Edge 118, Type (0, 1), None
#     Edge 119, Type (0, 1), None
#     Edge 120, Type (0, 1), None
#     Edge 121, Type (0, 1), None
#     Edge 122, Type (0, 1), None
#     Edge 123, Type (0, 1), None
#     Edge 124, Type (0, 1), None
#     Edge 125, Type (0, 1), None
#     Edge 126, Type (0, 1), None
#     Edge 127, Type (0, 1), None
#     Edge 128, Type (0, 1), None
#     Edge 129, Type (0, 1), None
#     Edge 130, Type (0, 1), None
#     Edge 131, Type (0, 1), None
#     Edge 132, Type (0, 1), None
#     Edge 133, Type (0, 1), None
#     Edge 134, Type (0, 1), None
#     Edge 135, Type (0, 1), None
#     Edge 136, Type (0, 1), None
#     Edge 137, Type (0, 1), None
#     Edge 138, Type (0, 1), None
#     Edge 139, Type (0, 1), None
#     Edge 140, Type (0, 1), None
#     Edge 141, Type (0, 1), None
#     Edge 142, Type (0, 1), None
#     Edge 143, Type (0, 1), None
#     Edge 144, Type (0, 1), None
#     Edge 145, Type (0, 1), None
#     Edge 146, Type (0, 1), None
#     Edge 147, Type (0, 1), None
#     Edge 148, Type (0, 1), None
#     Edge 149, Type (0, 1), None
#     Edge 150, Type (0, 1), None
#     Edge 151, Type (0, 1), None
#     Edge 152, Type (0, 1), None
#     Edge 153, Type (0, 1), None
#     Edge 154, Type (0, 1), None
#     Edge 155, Type (0, 1), None
#     Edge 156, Type (0, 1), None
#     Edge 157, Type (0, 1), None
#     Edge 158, Type (0, 1), None
#     Edge 159, Type (0, 1), None
#     Edge 160, Type (0, 1), None
#     Edge 161, Type (0, 1), None
#     Edge 162, Type (0, 1), None
#     Edge 163, Type (0, 1), None
#     Edge 164, Type (0, 1), None
#     Edge 165, Type (0, 1), None
#     Edge 166, Type (0, 1), None
#     Edge 167, Type (0, 1), None
#     Edge 168, Type (0, 1), None
#     Edge 169, Type (0, 1), None
#     Edge 170, Type (0, 1), None
#     Edge 171, Type (0, 1), None
#     Edge 172, Type (0, 1), None
#     Edge 173, Type (0, 1), None
#     Edge 174, Type (0, 1), None
#     Edge 175, Type (0, 1), None
#     Edge 176, Type (0, 1), None
#     Edge 177, Type (0, 1), None
#     Edge 178, Type (0, 1), None
#     Edge 179, Type (0, 1), None
#     Edge 180, Type (0, 1), None
#     Edge 181, Type (0, 1), None
#     Edge 182, Type (0, 1), None
#     Edge 183, Type (0, 1), None
#     Edge 184, Type (0, 1), None
#     Edge 185, Type (0, 1), None
#     Edge 186, Type (0, 1), None
#     Edge 187, Type (0, 1), None
#     Edge 188, Type (0, 1), None
#     Edge 189, Type (0, 1), None
#     Edge 190, Type (0, 1), None
#     Edge 191, Type (0, 1), None
#     Edge 192, Type (0, 1), None
#     Edge 193, Type (0, 1), None
#     Edge 194, Type (0, 1), None
#     Edge 195, Type (0, 1), None
#     Edge 196, Type (0, 1), None
#     Edge 197, Type (0, 1), None
#     Edge 198, Type (0, 1), None
#     Edge 199, Type (0, 1), None
#     Edge 200, Type (0, 1), None
#     Edge 201, Type (0, 1), None
#     Edge 202, Type (0, 1), None
#     Edge 203, Type (0, 1), None
#     Edge 204, Type (0, 1), None
#     Edge 205, Type (0, 1), None
#     Edge 206, Type (0, 1), None
#     Edge 207, Type (0, 1), None
#     Edge 208, Type (0, 1), None
#     Edge 209, Type (0, 1), None
#     Edge 210, Type (0, 1), None
#     Edge 211, Type (0, 1), None
#     Edge 212, Type (0, 1), None
#     Edge 213, Type (0, 1), None
#     Edge 214, Type (0, 1), None
#     Edge 215, Type (0, 1), None
#     Edge 216, Type (0, 1), None
#     Edge 217, Type (0, 1), None
#     Edge 218, Type (0, 1), None
#     Edge 219, Type (0, 1), None
#     Edge 220, Type (0, 1), None
#     Edge 221, Type (0, 1), None
#     Edge 222, Type (0, 1), None
#     Edge 223, Type (0, 1), None
#     Edge 224, Type (0, 1), None
#     Edge 225, Type (0, 1), None
#     Edge 226, Type (0, 1), None
#     Edge 227, Type (0, 1), None
#     Edge 228, Type (0, 1), None
#     Edge 229, Type (0, 1), None
#     Edge 230, Type (0, 1), None
#     Edge 231, Type (0, 1), None
#     Edge 232, Type (0, 1), None
#     Edge 233, Type (0, 1), None
#     Edge 234, Type (0, 1), None
#     Edge 235, Type (0, 1), None
#     Edge 236, Type (0, 1), None
#     Edge 237, Type (0, 1), None
#     Edge 238, Type (0, 1), None
#     Edge 239, Type (0, 1), None
# Relax obj value: 0.042
# Max RMSD: 0.110
# Mean RMSD: 0.057
data_MOF--net-bpr--node1-WUSLED_clean_sbu_0--node2-BETDIP_clean_linker_0--edge1-none
_symmetry_space_group_name_H-M    P1
_symmetry_Int_Tables_number       1
_symmetry_cell_setting            triclinic
loop_
_symmetry_equiv_pos_as_xyz
'x, y, z'
_cell_length_a     57.311472
_cell_length_b     59.473176
_cell_length_c     61.679846
_cell_angle_alpha  96.073568
_cell_angle_beta   93.277293
_cell_angle_gamma 98.086046
loop_
_atom_site_label
_atom_site_type_symbol
_atom_site_fract_x
_atom_site_fract_y
_atom_site_fract_z
_atom_type_partial_charge
C0 C 0.94745 0.38765 0.26592 0.0
C1 C 0.95243 0.38242 0.2872 0.0
C2 C 0.91918 0.40022 0.29985 0.0
C3 C 0.93847 0.38872 0.30401 0.0
C4 C 0.91387 0.40503 0.27844 0.0
C5 C 0.92802 0.39887 0.2616 0.0
U6 U 1.00217 0.36386 0.25005 0.0
O7 O 1.01184 0.34462 0.22001 0.0
O8 O 0.03236 0.3783 0.23275 0.0
C9 C 0.03009 0.36023 0.21813 0.0
C10 C 0.96338 0.38257 0.24871 0.0
C11 C 0.04061 0.36202 0.19702 0.0
C12 C 0.04153 0.37201 0.15965 0.0
C13 C 0.02933 0.36927 0.17868 0.0
C14 C 0.07587 0.36017 0.17733 0.0
C15 C 0.06511 0.36784 0.15908 0.0
C16 C 0.06372 0.35715 0.19595 0.0
C17 C 0.03575 0.34164 0.29745 0.0
C18 C 0.07761 0.33871 0.29878 0.0
C19 C 0.05569 0.333 0.3307 0.0
C20 C 0.03507 0.33636 0.31904 0.0
C21 C 0.07731 0.3351 0.32093 0.0
C22 C 0.05692 0.34191 0.28707 0.0
C23 C 0.01536 0.35021 0.28744 0.0
O24 O 0.98463 0.3945 0.25197 0.0
O25 O 0.96368 0.36075 0.24256 0.0
O26 O 1.00233 0.33661 0.27178 0.0
O27 O 0.01963 0.37147 0.28308 0.0
H28 H 0.96739 0.37383 0.2909 0.0
H29 H 0.94288 0.38474 0.32036 0.0
H30 H 0.89915 0.41394 0.27478 0.0
H31 H 0.92401 0.40316 0.2453 0.0
H32 H 0.0329 0.37813 0.14582 0.0
H33 H 1.01147 0.3732 0.17922 0.0
H34 H 0.09395 0.35677 0.17732 0.0
H35 H 0.0727 0.35148 0.20987 0.0
H36 H 0.09412 0.34042 0.29095 0.0
H37 H 0.05506 0.33058 0.34784 0.0
H38 H 0.0189 0.33626 0.32734 0.0
H39 H 0.05777 0.34601 0.2704 0.0
C40 C 0.95633 0.81015 0.58465 0.0
C41 C 0.96001 0.81442 0.60747 0.0
C42 C 0.94754 0.77392 0.61067 0.0
C43 C 0.95569 0.79639 0.62037 0.0
C44 C 0.94424 0.76973 0.58779 0.0
C45 C 0.94862 0.78769 0.57495 0.0
U46 U 0.96502 0.86641 0.55199 0.0
O47 O 0.95179 0.85935 0.51759 0.0
O48 O 0.98989 0.86846 0.52593 0.0
C49 C 0.97274 0.86414 0.51029 0.0
C50 C 0.95999 0.82849 0.57032 0.0
C51 C 0.97362 0.87915 0.4928 0.0
C52 C 0.97443 0.88251 0.45393 0.0
C53 C 0.97657 0.86976 0.47152 0.0
C54 C 0.96683 0.91458 0.4788 0.0
C55 C 0.96922 0.90495 0.45734 0.0
C56 C 0.96901 0.90177 0.49644 0.0
C57 C 0.9524 0.91831 0.59182 0.0
C58 C 0.93974 0.95231 0.61011 0.0
C59 C 0.94063 0.91853 0.62884 0.0
C60 C 0.94883 0.90716 0.61048 0.0
C61 C 0.93575 0.94111 0.6287 0.0
C62 C 0.94814 0.94099 0.59182 0.0
C63 C 0.9589 0.9064 0.57154 0.0
O64 O 0.94204 0.83615 0.56088 0.0
O65 O 0.98031 0.84215 0.57137 0.0
O66 O 0.97944 0.89892 0.57198 0.0
O67 O 0.94187 0.89193 0.56045 0.0
H68 H 0.96598 0.83161 0.61527 0.0
H69 H 0.95846 0.80005 0.63799 0.0
H70 H 0.93828 0.75263 0.57978 0.0
H71 H 0.94586 0.78404 0.55732 0.0
H72 H 0.97626 0.87454 0.43763 0.0
H73 H 0.97982 0.85224 0.4684 0.0
H74 H 0.96281 0.93185 0.48186 0.0
H75 H 0.96642 0.90924 0.51277 0.0
H76 H 0.93634 0.96974 0.60974 0.0
H77 H 0.93753 0.90949 0.643 0.0
H78 H 0.9519 0.88962 0.61068 0.0
H79 H 0.95085 0.94978 0.57745 0.0
C80 C 0.46834 0.64501 0.69921 0.0
C81 C 0.44688 0.65072 0.70627 0.0
C82 C 0.43052 0.6456 0.66854 0.0
C83 C 0.428 0.65097 0.69095 0.0
C84 C 0.45262 0.64183 0.6615 0.0
C85 C 0.47141 0.64148 0.6768 0.0
U86 U 0.49515 0.63512 0.75595 0.0
O87 O 0.50909 0.60336 0.76128 0.0
O88 O 0.53287 0.63628 0.76556 0.0
C89 C 0.53085 0.61393 0.76555 0.0
C90 C 0.48599 0.63833 0.71434 0.0
C91 C 0.54617 0.60463 0.78114 0.0
C92 C 0.56644 0.57296 0.7898 0.0
C93 C 0.55078 0.58212 0.77619 0.0
C94 C 0.5738 0.60915 0.81295 0.0
C95 C 0.57775 0.58625 0.80859 0.0
C96 C 0.55803 0.6182 0.79947 0.0
C97 C 0.45651 0.65575 0.80477 0.0
C98 C 0.44455 0.64444 0.83966 0.0
C99 C 0.42562 0.67287 0.82283 0.0
C100 C 0.44025 0.67132 0.80559 0.0
C101 C 0.42694 0.65875 0.83954 0.0
C102 C 0.45927 0.6429 0.82231 0.0
C103 C 0.46689 0.6509 0.78381 0.0
O104 O 0.49923 0.65459 0.72749 0.0
O105 O 0.4785 0.62026 0.72393 0.0
O106 O 0.46348 0.62974 0.77427 0.0
O107 O 0.48658 0.66322 0.77936 0.0
H108 H 0.44419 0.65325 0.72355 0.0
H109 H 0.41094 0.65357 0.69663 0.0
H110 H 0.45473 0.63708 0.64436 0.0
H111 H 0.48779 0.63669 0.67116 0.0
H112 H 0.56922 0.55539 0.78593 0.0
H113 H 0.54225 0.5716 0.7617 0.0
H114 H 0.58285 0.62011 0.82694 0.0
H115 H 0.55527 0.63578 0.80332 0.0
H116 H 0.446 0.63354 0.85252 0.0
H117 H 0.41204 0.6838 0.82218 0.0
H118 H 0.4377 0.6812 0.79207 0.0
H119 H 0.47175 0.63081 0.82197 0.0
C120 C 0.61762 0.23059 0.09566 0.0
C121 C 0.61528 0.23011 0.11807 0.0
C122 C 0.61826 0.27158 0.12327 0.0
C123 C 0.6157 0.25045 0.13178 0.0
C124 C 0.62067 0.27206 0.10076 0.0
C125 C 0.62041 0.25165 0.08704 0.0
U126 U 0.6134 0.17081 0.05578 0.0
O127 O 0.62407 0.17561 0.0228 0.0
O128 O 0.58645 0.16711 0.02826 0.0
C129 C 0.6023 0.17074 0.01397 0.0
C130 C 0.6161 0.20904 0.08128 0.0
C131 C 0.59897 0.15537 0.9935 0.0
C132 C 0.59357 0.15157 0.95402 0.0
C133 C 0.59535 0.16498 0.97411 0.0
C134 C 0.5984 0.11833 0.97249 0.0
C135 C 0.59522 0.1281 0.95286 0.0
C136 C 0.6003 0.13191 0.99273 0.0
C137 C 0.62689 0.12218 0.09028 0.0
C138 C 0.62601 0.08812 0.10904 0.0
C139 C 0.64168 0.12539 0.12822 0.0
C140 C 0.63722 0.13566 0.10935 0.0
C141 C 0.63592 0.1016 0.12819 0.0
C142 C 0.62157 0.09839 0.09016 0.0
C143 C 0.62106 0.1323 0.07032 0.0
O144 O 0.6345 0.20294 0.07165 0.0
O145 O 0.59657 0.19426 0.07801 0.0
O146 O 0.60004 0.13863 0.06859 0.0
O147 O 0.63778 0.14687 0.06359 0.0
H148 H 0.61306 0.21398 0.12495 0.0
H149 H 0.61384 0.24964 0.14907 0.0
H150 H 0.62248 0.28809 0.09371 0.0
H151 H 0.62196 0.25228 0.06969 0.0
H152 H 0.59184 0.1599 0.93936 0.0
H153 H 0.59448 0.1831 0.97447 0.0
H154 H 0.59972 0.10031 0.97218 0.0
H155 H 0.60318 0.12426 0.00766 0.0
H156 H 0.62073 0.06989 0.10897 0.0
H157 H 0.64871 0.13608 0.14313 0.0
H158 H 0.64128 0.15406 0.1098 0.0
H159 H 0.61342 0.08779 0.07558 0.0
C160 C 0.96996 0.6332 0.21105 0.0
C161 C 0.96822 0.63812 0.18943 0.0
C162 C 0.92658 0.6225 0.18583 0.0
C163 C 0.94682 0.63273 0.17691 0.0
C164 C 0.92799 0.61813 0.20783 0.0
C165 C 0.94973 0.62331 0.2204 0.0
U166 U 0.03156 0.64202 0.24876 0.0
O167 O 0.02848 0.61972 0.2748 0.0
O168 O 0.02944 0.65676 0.28284 0.0
C169 C 0.02928 0.63682 0.29027 0.0
C170 C 0.99362 0.63722 0.22237 0.0
C171 C 0.04527 0.63588 0.30948 0.0
C172 C 0.04879 0.62861 0.34731 0.0
C173 C 0.03538 0.63379 0.32948 0.0
C174 C 0.08288 0.629 0.32576 0.0
C175 C 0.07252 0.62554 0.34557 0.0
C176 C 0.0693 0.63408 0.30778 0.0
C177 C 0.08439 0.65378 0.21267 0.0
C178 C 0.12068 0.66098 0.19437 0.0
C179 C 0.08281 0.65439 0.17332 0.0
C180 C 0.07121 0.65169 0.19248 0.0
C181 C 0.10764 0.65887 0.17418 0.0
C182 C 0.1091 0.65859 0.21348 0.0
C183 C 0.07322 0.65047 0.23317 0.0
O184 O 1.00453 0.61993 0.22635 0.0
O185 O 1.00263 0.65714 0.23309 0.0
O186 O 0.0615 0.66663 0.241 0.0
O187 O 0.06252 0.62975 0.2348 0.0
H188 H 0.98369 0.64563 0.18198 0.0
H189 H 0.94619 0.63633 0.16005 0.0
H190 H 0.91257 0.61025 0.21508 0.0
H191 H 0.95083 0.61929 0.23712 0.0
H192 H 0.0401 0.62581 0.36213 0.0
H193 H 0.01683 0.63498 0.331 0.0
H194 H 0.10125 0.6272 0.324 0.0
H195 H 0.07723 0.63568 0.29238 0.0
H196 H 0.13978 0.66477 0.19538 0.0
H197 H 0.07248 0.65279 0.15781 0.0
H198 H 0.05209 0.64794 0.19154 0.0
H199 H 0.1195 0.66035 0.22896 0.0
C200 C 0.63466 0.74018 0.4357 0.0
C201 C 0.63633 0.74442 0.41386 0.0
C202 C 0.64316 0.70512 0.40392 0.0
C203 C 0.64049 0.72696 0.39805 0.0
C204 C 0.64223 0.70134 0.42596 0.0
C205 C 0.63797 0.7187 0.44165 0.0
U206 U 0.62413 0.80067 0.46107 0.0
O207 O 0.63591 0.8149 0.49489 0.0
O208 O 0.59778 0.8077 0.48483 0.0
C209 C 0.61421 0.81407 0.50094 0.0
C210 C 0.62896 0.75735 0.45275 0.0
C211 C 0.6099 0.83003 0.51966 0.0
C212 C 0.60365 0.83544 0.55845 0.0
C213 C 0.60472 0.82101 0.53924 0.0
C214 C 0.6117 0.86825 0.53844 0.0
C215 C 0.6077 0.8593 0.55847 0.0
C216 C 0.61296 0.85373 0.51921 0.0
C217 C 0.6331 0.84656 0.41722 0.0
C218 C 0.62553 0.88455 0.4105 0.0
C219 C 0.64406 0.86167 0.38354 0.0
C220 C 0.64298 0.84417 0.39698 0.0
C221 C 0.63514 0.88186 0.39006 0.0
C222 C 0.62457 0.86696 0.42411 0.0
C223 C 0.63097 0.82669 0.42967 0.0
O224 O 0.64635 0.77336 0.46074 0.0
O225 O 0.60872 0.76501 0.44983 0.0
O226 O 0.60992 0.81651 0.43341 0.0
O227 O 0.64808 0.82417 0.44394 0.0
H228 H 0.63392 0.76097 0.409 0.0
H229 H 0.64103 0.73031 0.38115 0.0
H230 H 0.64367 0.68462 0.43092 0.0
H231 H 0.63668 0.71515 0.45846 0.0
H232 H 0.6009 0.82788 0.57349 0.0
H233 H 0.60249 0.80269 0.5399 0.0
H234 H 0.61456 0.88655 0.53777 0.0
H235 H 0.617 0.86099 0.50424 0.0
H236 H 0.6185 0.90006 0.41572 0.0
H237 H 0.65124 0.85916 0.36773 0.0
H238 H 0.64942 0.82846 0.3913 0.0
H239 H 0.61684 0.86908 0.43968 0.0
C240 C 0.5623 0.43794 0.71131 0.0
C241 C 0.55661 0.43938 0.68913 0.0
C242 C 0.59852 0.44798 0.683 0.0
C243 C 0.57455 0.44441 0.67513 0.0
C244 C 0.60408 0.44795 0.70545 0.0
C245 C 0.58608 0.44292 0.71948 0.0
U246 U 0.49957 0.40993 0.72117 0.0
O247 O 0.4882 0.38507 0.74405 0.0
O248 O 0.47626 0.41881 0.74691 0.0
C249 C 0.47533 0.39881 0.75433 0.0
C250 C 0.54394 0.42989 0.72578 0.0
C251 C 0.47295 0.39784 0.7779 0.0
C252 C 0.48494 0.40962 0.81645 0.0
C253 C 0.49001 0.40888 0.79432 0.0
C254 C 0.44645 0.38749 0.80574 0.0
C255 C 0.46281 0.3994 0.82219 0.0
C256 C 0.4515 0.38669 0.78388 0.0
C257 C 0.45331 0.39106 0.67235 0.0
C258 C 0.4109 0.38253 0.67545 0.0
C259 C 0.42649 0.37922 0.63976 0.0
C260 C 0.44945 0.38576 0.64959 0.0
C261 C 0.40694 0.37814 0.65255 0.0
C262 C 0.4339 0.38884 0.68528 0.0
C263 C 0.47734 0.4006 0.68197 0.0
O264 O 0.52583 0.44119 0.72698 0.0
O265 O 0.53764 0.40761 0.72418 0.0
O266 O 0.48964 0.38641 0.69082 0.0
O267 O 0.47921 0.42059 0.69376 0.0
H268 H 0.5384 0.43563 0.68245 0.0
H269 H 0.56981 0.44408 0.65782 0.0
H270 H 0.62235 0.45017 0.71186 0.0
H271 H 0.59083 0.4419 0.73657 0.0
H272 H 0.49764 0.41927 0.8289 0.0
H273 H 0.50668 0.41765 0.79001 0.0
H274 H 0.42914 0.37988 0.80974 0.0
H275 H 0.43807 0.37819 0.77147 0.0
H276 H 0.39613 0.3816 0.68569 0.0
H277 H 0.42394 0.37607 0.62211 0.0
H278 H 0.46417 0.38743 0.63932 0.0
H279 H 0.43647 0.39272 0.7029 0.0
C280 C 0.86536 0.19067 0.03933 0.0
C281 C 0.86138 0.16677 0.03458 0.0
C282 C 0.87907 0.16287 0.07062 0.0
C283 C 0.86808 0.15297 0.05019 0.0
C284 C 0.88297 0.18679 0.07526 0.0
C285 C 0.87615 0.20055 0.05973 0.0
U286 U 0.85432 0.20185 0.98004 0.0
O287 O 0.83216 0.22443 0.96494 0.0
O288 O 0.87129 0.23155 0.96529 0.0
C289 C 0.85092 0.23832 0.9607 0.0
C290 C 0.86005 0.2057 0.02285 0.0
C291 C 0.8492 0.25554 0.94553 0.0
C292 C 0.85595 0.29579 0.94006 0.0
C293 C 0.85503 0.27864 0.95395 0.0
C294 C 0.8449 0.26691 0.90904 0.0
C295 C 0.85126 0.29005 0.91743 0.0
C296 C 0.84374 0.24971 0.92302 0.0
C297 C 0.85698 0.15035 0.93652 0.0
C298 C 0.84318 0.1432 0.89816 0.0
C299 C 0.86833 0.11858 0.91383 0.0
C300 C 0.86933 0.13167 0.93398 0.0
C301 C 0.85476 0.12388 0.89602 0.0
C302 C 0.84442 0.15657 0.9184 0.0
C303 C 0.85673 0.16194 0.9586 0.0
O304 O 0.87729 0.21072 0.01029 0.0
O305 O 0.83915 0.2009 0.01204 0.0
O306 O 0.83668 0.1684 0.96429 0.0
O307 O 0.87543 0.17693 0.96545 0.0
H308 H 0.85338 0.15884 0.01877 0.0
H309 H 0.8649 0.13456 0.04622 0.0
H310 H 0.89135 0.19494 0.09084 0.0
H311 H 0.8796 0.21897 0.06354 0.0
H312 H 0.86107 0.31344 0.94698 0.0
H313 H 0.85947 0.28338 0.9713 0.0
H314 H 0.84108 0.26214 0.89163 0.0
H315 H 0.8392 0.23196 0.91625 0.0
H316 H 0.83237 0.14725 0.88453 0.0
H317 H 0.87695 0.10344 0.91246 0.0
H318 H 0.87903 0.12665 0.94784 0.0
H319 H 0.83491 0.17109 0.92012 0.0
C320 C 0.22406 0.01349 0.35442 0.0
C321 C 0.23111 0.03716 0.35893 0.0
C322 C 0.19261 0.04369 0.34444 0.0
C323 C 0.21538 0.05217 0.35407 0.0
C324 C 0.18584 0.01999 0.33955 0.0
C325 C 0.20149 1.005 0.34457 0.0
U326 U 0.28489 0.99745 0.36927 0.0
O327 O 0.29707 0.96486 0.35905 0.0
O328 O 0.29364 0.97532 0.39418 0.0
C329 C 0.29776 0.95929 0.37912 0.0
C330 C 0.23963 0.99732 0.36038 0.0
C331 C 0.31269 0.94255 0.38471 0.0
C332 C 0.31437 0.90301 0.38987 0.0
C333 C 0.30135 0.92074 0.38748 0.0
C334 C 0.35053 0.92919 0.38808 0.0
C335 C 0.33909 0.90686 0.38968 0.0
C336 C 0.33736 0.94694 0.3854 0.0
C337 C 0.33526 0.05159 0.36916 0.0
C338 C 0.37017 0.07135 0.39103 0.0
C339 C 0.35399 0.08846 0.36064 0.0
C340 C 0.33658 0.06944 0.35594 0.0
C341 C 0.37028 0.08994 0.37873 0.0
C342 C 0.35272 0.05215 0.38622 0.0
C343 C 0.31304 0.03564 0.36723 0.0
O344 O 0.25392 0.99155 0.34555 0.0
O345 O 0.24985 1.0014 0.3803 0.0
O346 O 0.30363 0.03017 0.38528 0.0
O347 O 0.30816 0.01981 0.35039 0.0
H348 H 0.24857 0.04397 0.36648 0.0
H349 H 0.22092 0.0704 0.35806 0.0
H350 H 0.16832 0.01298 0.3323 0.0
H351 H 0.19586 0.98674 0.34104 0.0
H352 H 0.30491 0.88607 0.39069 0.0
H353 H 0.28222 0.91715 0.38683 0.0
H354 H 0.3696 0.93281 0.38829 0.0
H355 H 0.34629 0.96378 0.38326 0.0
H356 H 0.38271 0.07228 0.40504 0.0
H357 H 0.35361 0.10277 0.35118 0.0
H358 H 0.32304 0.06948 0.34293 0.0
H359 H 0.35195 0.03854 0.39664 0.0
C360 C 0.17013 0.94105 0.65401 0.0
C361 C 0.14594 0.9419 0.65536 0.0
C362 C 0.13885 0.9006 0.65646 0.0
C363 C 0.13038 0.92177 0.6566 0.0
C364 C 0.16298 0.89988 0.65442 0.0
C365 C 0.17846 0.91996 0.65326 0.0
U366 U 0.19239 1.0054 0.64952 0.0
O367 O 0.22485 0.01726 0.63428 0.0
O368 O 0.22246 0.02625 0.66972 0.0
C369 C 0.23579 0.02661 0.65307 0.0
C370 C 0.18749 0.96167 0.65417 0.0
C371 C 0.25533 0.04524 0.65286 0.0
C372 C 0.29781 0.05694 0.65676 0.0
C373 C 0.27807 0.04102 0.65907 0.0
C374 C 0.27213 0.08197 0.64267 0.0
C375 C 0.29512 0.07744 0.64819 0.0
C376 C 0.25232 0.06589 0.6449 0.0
C377 C 0.14091 0.0422 0.63681 0.0
C378 C 0.13652 0.07963 0.62595 0.0
C379 C 0.10224 0.05414 0.63445 0.0
C380 C 0.11652 0.03785 0.63869 0.0
C381 C 0.11204 0.07522 0.62824 0.0
C382 C 0.15099 0.06313 0.63029 0.0
C383 C 0.15442 0.02376 0.64123 0.0
O384 O 0.19042 0.96962 0.6353 0.0
O385 O 0.18767 0.97773 0.67056 0.0
O386 O 0.16355 0.02336 0.66122 0.0
O387 O 0.16666 0.01531 0.62577 0.0
H388 H 0.1392 0.95808 0.65585 0.0
H389 H 0.11178 0.92277 0.65798 0.0
H390 H 0.17004 0.88393 0.65457 0.0
H391 H 0.19714 0.91909 0.65227 0.0
H392 H 0.3152 0.05276 0.66083 0.0
H393 H 0.28064 0.02496 0.66501 0.0
H394 H 0.2695 0.09776 0.63626 0.0
H395 H 0.23484 0.06931 0.63996 0.0
H396 H 0.14443 0.09591 0.62135 0.0
H397 H 0.08343 0.05032 0.63619 0.0
H398 H 0.10844 0.02171 0.64349 0.0
H399 H 0.16983 0.06671 0.62869 0.0
C400 C 0.1931 0.04293 0.88443 0.0
C401 C 0.17425 0.05298 0.89271 0.0
C402 C 0.18629 0.08709 0.87532 0.0
C403 C 0.17093 0.07491 0.88833 0.0
C404 C 0.20557 0.07729 0.86746 0.0
C405 C 0.20908 0.05536 0.87212 0.0
U406 U 0.22059 0.9861 0.88468 0.0
O407 O 0.25892 0.99648 0.8919 0.0
O408 O 0.2445 0.98666 0.858 0.0
C409 C 0.26361 0.99177 0.87143 0.0
C410 C 0.19424 0.01894 0.88772 0.0
C411 C 0.28183 0.97681 0.86791 0.0
C412 C 0.32255 0.97224 0.86148 0.0
C413 C 0.30479 0.98614 0.86371 0.0
C414 C 0.29429 0.93936 0.86685 0.0
C415 C 0.31763 0.94875 0.8635 0.0
C416 C 0.27663 0.95325 0.86917 0.0
C417 C 0.17949 0.93538 0.90149 0.0
C418 C 0.15486 0.90152 0.91067 0.0
C419 C 0.13732 0.93514 0.90389 0.0
C420 C 0.1596 0.94666 0.9005 0.0
C421 C 0.1347 0.91226 0.90843 0.0
C422 C 0.17708 0.91299 0.90713 0.0
C423 C 0.20237 0.94584 0.89483 0.0
O424 O 0.20855 0.01516 0.90392 0.0
O425 O 0.19413 1.00449 0.87003 0.0
O426 O 0.21481 0.96165 0.90905 0.0
O427 O 0.20202 0.95135 0.87475 0.0
H428 H 0.16164 0.04355 0.90211 0.0
H429 H 0.15578 0.08193 0.8944 0.0
H430 H 0.2177 0.08648 0.85749 0.0
H431 H 0.2238 0.04791 0.86565 0.0
H432 H 0.3403 0.98004 0.859 0.0
H433 H 0.30909 1.0043 0.86261 0.0
H434 H 0.28973 0.92125 0.86804 0.0
H435 H 0.25898 0.94566 0.87226 0.0
H436 H 0.15324 0.88383 0.91387 0.0
H437 H 0.12201 0.94379 0.90214 0.0
H438 H 0.16115 0.964 0.89623 0.0
H439 H 0.19225 0.90403 0.90789 0.0
C440 C 0.2555 0.99783 0.12743 0.0
C441 C 0.25645 0.97433 0.12404 0.0
C442 C 0.21851 0.96644 0.14009 0.0
C443 C 0.23803 0.95875 0.1303 0.0
C444 C 0.2175 0.98998 0.14311 0.0
C445 C 0.23586 1.00549 0.13683 0.0
U446 U 0.31791 0.02991 0.11304 0.0
O447 O 0.32814 0.06591 0.12611 0.0
O448 O 0.321 0.05674 0.09075 0.0
C449 C 0.32798 0.07315 0.10674 0.0
C450 C 0.27433 0.01514 0.12151 0.0
C451 C 0.34828 0.09019 0.10338 0.0
C452 C 0.36321 0.13012 0.10096 0.0
C453 C 0.34427 0.11243 0.10054 0.0
C454 C 0.39056 0.10319 0.10583 0.0
C455 C 0.38657 0.12586 0.10432 0.0
C456 C 0.37155 0.08548 0.10543 0.0
C457 C 0.36261 0.98427 0.11364 0.0
C458 C 0.39453 0.96251 0.10538 0.0
C459 C 0.36262 0.94687 0.12607 0.0
C460 C 0.35198 0.96658 0.12475 0.0
C461 C 0.38392 0.94474 0.11633 0.0
C462 C 0.384 0.98216 0.10416 0.0
C463 C 0.35279 1.00562 0.11204 0.0
O464 O 0.29102 0.02403 0.13673 0.0
O465 O 0.28179 0.01301 0.1017 0.0
O466 O 0.33881 1.00694 0.0947 0.0
O467 O 0.34698 0.01666 0.13008 0.0
H468 H 0.27138 0.96807 0.1167 0.0
H469 H 0.23911 0.94064 0.12762 0.0
H470 H 0.20264 0.99644 0.15038 0.0
H471 H 0.23475 0.02361 0.13941 0.0
H472 H 0.35946 0.14736 0.10005 0.0
H473 H 0.32639 0.11637 0.09909 0.0
H474 H 0.40838 0.09933 0.10825 0.0
H475 H 0.375 0.06839 0.10767 0.0
H476 H 0.41064 0.96093 0.09734 0.0
H477 H 0.35387 0.93297 0.13403 0.0
H478 H 0.33545 0.96789 0.13213 0.0
H479 H 0.39249 0.9957 0.09558 0.0
C480 C 0.44436 0.28265 0.06385 0.0
C481 C 0.44715 0.28668 0.08672 0.0
C482 C 0.43772 0.24567 0.08916 0.0
C483 C 0.44385 0.26828 0.09928 0.0
C484 C 0.43503 0.24179 0.06625 0.0
C485 C 0.43833 0.26012 0.05376 0.0
U486 U 0.45175 0.34029 0.03347 0.0
O487 O 0.43952 0.3348 0.99875 0.0
O488 O 0.47738 0.34424 0.00824 0.0
C489 C 0.46071 0.34033 0.99218 0.0
C490 C 0.44786 0.30119 0.04978 0.0
C491 C 0.46202 0.35621 0.97544 0.0
C492 C 0.46411 0.36154 0.93706 0.0
C493 C 0.46536 0.34776 0.95395 0.0
C494 C 0.45664 0.39274 0.96308 0.0
C495 C 0.45947 0.38408 0.9414 0.0
C496 C 0.45787 0.37888 0.98002 0.0
C497 C 0.43757 0.39128 0.07441 0.0
C498 C 0.42699 0.42628 0.09278 0.0
C499 C 0.4252 0.39214 0.11129 0.0
C500 C 0.43281 0.38018 0.09292 0.0
C501 C 0.42207 0.41523 0.11129 0.0
C502 C 0.43482 0.41438 0.0745 0.0
C503 C 0.44429 0.37924 0.05427 0.0
O504 O 0.42967 0.30872 0.0406 0.0
O505 O 0.46771 0.31563 0.0518 0.0
O506 O 0.46509 0.37228 0.05471 0.0
O507 O 0.42758 0.3646 0.04291 0.0
H508 H 0.45184 0.30394 0.0948 0.0
H509 H 0.44608 0.27171 0.11694 0.0
H510 H 0.43052 0.22462 0.05793 0.0
H511 H 0.43628 0.25667 0.03609 0.0
H512 H 0.46631 0.35433 0.92057 0.0
H513 H 0.46833 0.33023 0.95013 0.0
H514 H 0.45302 0.41006 0.96685 0.0
H515 H 0.45502 0.38562 0.99653 0.0
H516 H 0.425 0.44411 0.09254 0.0
H517 H 0.42144 0.38328 0.12546 0.0
H518 H 0.43474 0.36234 0.09307 0.0
H519 H 0.43848 0.42317 0.06027 0.0
C520 C 0.07064 0.92841 0.22533 0.0
C521 C 0.06476 0.92972 0.20316 0.0
C522 C 0.10639 0.93328 0.19583 0.0
C523 C 0.08249 0.93221 0.18857 0.0
C524 C 0.11236 0.93329 0.21821 0.0
C525 C 0.09457 0.93082 0.23286 0.0
U526 U 1.00701 0.90536 0.23553 0.0
O527 O 0.99311 0.88394 0.26036 0.0
O528 O 0.98323 0.91825 0.25904 0.0
C529 C 0.98097 0.89949 0.26873 0.0
C530 C 0.05201 0.92307 0.24035 0.0
C531 C 0.97898 0.90202 0.29252 0.0
C532 C 0.99214 0.91872 0.32978 0.0
C533 C 0.99674 0.91433 0.30765 0.0
C534 C 0.95268 0.89768 0.3217 0.0
C535 C 0.96975 0.911 0.33673 0.0
C536 C 0.95728 0.89322 0.29988 0.0
C537 C 0.96226 0.88453 0.18603 0.0
C538 C 0.91963 0.87843 0.18822 0.0
C539 C 0.93606 0.87216 0.15315 0.0
C540 C 0.95889 0.87807 0.16339 0.0
C541 C 0.91621 0.87289 0.16538 0.0
C542 C 0.94247 0.88411 0.19849 0.0
C543 C 0.98628 0.89344 0.19596 0.0
O544 O 0.03474 0.93545 0.23999 0.0
O545 O 0.04446 0.90118 0.24064 0.0
O546 O 0.99697 0.87951 0.20686 0.0
O547 O 0.98899 0.91437 0.20596 0.0
H548 H 0.04643 0.92786 0.19696 0.0
H549 H 0.07745 0.93192 0.17132 0.0
H550 H 0.1306 0.93364 0.22412 0.0
H551 H 0.09943 0.92982 0.24993 0.0
H552 H 1.00549 0.92916 0.34112 0.0
H553 H 1.01364 0.92125 0.30224 0.0
H554 H 0.93529 0.89162 0.32667 0.0
H555 H 0.94336 0.88373 0.28847 0.0
H556 H 0.90458 0.87897 0.19803 0.0
H557 H 0.9339 0.86814 0.13554 0.0
H558 H 0.97393 0.87837 0.1535 0.0
H559 H 0.94468 0.88896 0.216 0.0
C560 C 0.09579 0.73021 0.60766 0.0
C561 C 0.09076 0.73243 0.62965 0.0
C562 C 0.09918 0.77386 0.63186 0.0
C563 C 0.09246 0.75389 0.64158 0.0
C564 C 0.10391 0.77187 0.6096 0.0
C565 C 0.10232 0.75009 0.59754 0.0
U566 U 0.0935 0.67142 0.5673 0.0
O567 O 0.1084 0.6787 0.53634 0.0
O568 O 0.06999 0.6701 0.53745 0.0
C569 C 0.0878 0.67382 0.52511 0.0
C570 C 0.0955 0.70672 0.597 0.0
C571 C 0.08722 0.65804 0.50492 0.0
C572 C 0.08515 0.65265 0.46529 0.0
C573 C 0.08373 0.6664 0.48482 0.0
C574 C 0.09308 0.62154 0.48564 0.0
C575 C 0.09019 0.63019 0.46546 0.0
C576 C 0.09159 0.63538 0.50529 0.0
C577 C 0.10226 0.62253 0.60165 0.0
C578 C 0.1058 0.58993 0.62174 0.0
C579 C 0.11123 0.62825 0.64091 0.0
C580 C 0.10716 0.63718 0.62121 0.0
C581 C 0.11054 0.60455 0.64137 0.0
C582 C 0.10156 0.59889 0.60202 0.0
C583 C 0.09826 0.63165 0.58071 0.0
O584 O 0.11417 0.70114 0.58751 0.0
O585 O 0.07547 0.69382 0.58968 0.0
O586 O 0.07769 0.63851 0.57732 0.0
O587 O 0.11596 0.64584 0.57504 0.0
H588 H 0.08592 0.71737 0.63783 0.0
H589 H 0.08871 0.75483 0.65865 0.0
H590 H 0.10902 0.78701 0.60164 0.0
H591 H 0.10639 0.74876 0.58057 0.0
H592 H 0.08278 0.65992 0.45008 0.0
H593 H 0.0804 0.68382 0.48421 0.0
H594 H 0.09683 0.60425 0.48622 0.0
H595 H 0.09434 0.62861 0.52071 0.0
H596 H 0.10494 0.57161 0.62173 0.0
H597 H 0.11499 0.63989 0.65584 0.0
H598 H 0.10784 0.65549 0.62123 0.0
H599 H 0.09774 0.58735 0.58703 0.0
C600 C 0.97227 0.65546 0.81261 0.0
C601 C 0.9554 0.66777 0.82181 0.0
C602 C 0.95124 0.64305 0.85075 0.0
C603 C 0.945 0.66169 0.84072 0.0
C604 C 0.96917 0.63154 0.84228 0.0
C605 C 0.97966 0.6377 0.82331 0.0
U606 U 1.00833 0.65178 0.76024 0.0
O607 O 0.02173 0.6188 0.76006 0.0
O608 O 0.04534 0.65071 0.77131 0.0
C609 C 0.04362 0.6286 0.76527 0.0
C610 C 0.97904 0.6597 0.79052 0.0
C611 C 0.06106 0.6214 0.75018 0.0
C612 C 0.08301 0.59195 0.73487 0.0
C613 C 0.06803 0.5997 0.75032 0.0
C614 C 0.08488 0.62786 0.71942 0.0
C615 C 0.09128 0.6058 0.71897 0.0
C616 C 0.06977 0.63547 0.73466 0.0
C617 C 0.98587 0.67682 0.708 0.0
C618 C 0.97903 0.6915 0.67327 0.0
C619 C 0.94646 0.68326 0.69599 0.0
C620 C 0.96192 0.67673 0.71181 0.0
C621 C 0.95482 0.69006 0.6763 0.0
C622 C 0.99437 0.68487 0.68897 0.0
C623 C 1.00169 0.66568 0.72161 0.0
O624 O 0.97533 0.64195 0.77548 0.0
O625 O 0.99874 0.67349 0.78878 0.0
O626 O 0.01468 0.67838 0.73789 0.0
O627 O 0.99307 0.6453 0.72639 0.0
H628 H 0.94938 0.68145 0.81373 0.0
H629 H 0.93127 0.67092 0.8468 0.0
H630 H 0.97445 0.61724 0.84986 0.0
H631 H 0.99269 0.62799 0.8165 0.0
H632 H 0.0874 0.57482 0.7349 0.0
H633 H 0.06139 0.5885 0.76204 0.0
H634 H 0.09126 0.63921 0.70773 0.0
H635 H 0.06458 0.65223 0.73404 0.0
H636 H 0.98585 0.6964 0.65816 0.0
H637 H 0.92784 0.68215 0.69871 0.0
H638 H 0.955 0.67056 0.72642 0.0
H639 H 1.01274 0.68483 0.68566 0.0
C640 C 0.10653 0.24942 0.43474 0.0
C641 C 0.11648 0.24536 0.41462 0.0
C642 C 0.10975 0.28305 0.40572 0.0
C643 C 0.11822 0.26225 0.40018 0.0
C644 C 0.10033 0.28704 0.42598 0.0
C645 C 0.09896 0.27048 0.44041 0.0
U646 U 0.10151 0.18904 0.45603 0.0
O647 O 0.07535 0.17669 0.47859 0.0
O648 O 0.11327 0.18369 0.48942 0.0
C649 C 0.09157 0.17781 0.49478 0.0
C650 C 0.10298 0.23233 0.45028 0.0
C651 C 0.0878 0.16181 0.51122 0.0
C652 C 0.07976 0.15689 0.54878 0.0
C653 C 0.08233 0.17072 0.53194 0.0
C654 C 0.08775 0.1247 0.52426 0.0
C655 C 0.08265 0.13379 0.5452 0.0
C656 C 0.09032 0.13866 0.5073 0.0
C657 C 0.11372 0.1372 0.41396 0.0
C658 C 0.09653 0.09905 0.39754 0.0
C659 C 0.13445 0.11646 0.38715 0.0
C660 C 0.1335 0.13566 0.40185 0.0
C661 C 0.11549 0.09851 0.38411 0.0
C662 C 0.09569 0.11831 0.41254 0.0
C663 C 0.11057 0.16017 0.42366 0.0
O664 O 0.08358 0.21739 0.44687 0.0
O665 O 0.12151 0.22362 0.45711 0.0
O666 O 0.12708 0.17145 0.43801 0.0
O667 O 0.08908 0.16444 0.42713 0.0
H668 H 0.12234 0.22911 0.40993 0.0
H669 H 0.12508 0.25868 0.38438 0.0
H670 H 0.0935 0.30284 0.43046 0.0
H671 H 0.09135 0.27393 0.45589 0.0
H672 H 0.0759 0.16448 0.56467 0.0
H673 H 0.08039 0.18861 0.53523 0.0
H674 H 0.09001 0.1069 0.52112 0.0
H675 H 0.09455 0.13153 0.49136 0.0
H676 H 0.0816 0.08545 0.39518 0.0
H677 H 0.14889 0.11672 0.37652 0.0
H678 H 0.14735 0.15018 0.40233 0.0
H679 H 0.08019 0.11914 0.42168 0.0
C680 C 0.45229 0.41829 0.22957 0.0
C681 C 0.45017 0.40308 0.2104 0.0
C682 C 0.42799 0.4282 0.19153 0.0
C683 C 0.43781 0.40776 0.19176 0.0
C684 C 0.43006 0.44341 0.21084 0.0
C685 C 0.4421 0.43842 0.22977 0.0
U686 U 0.50137 0.39166 0.25599 0.0
O687 O 0.49998 0.37135 0.28393 0.0
O688 O 0.52384 0.40425 0.28609 0.0
C689 C 0.51499 0.38695 0.29623 0.0
C690 C 0.46515 0.41315 0.24928 0.0
C691 C 0.5298 0.37988 0.31362 0.0
C692 C 0.53687 0.37884 0.35265 0.0
C693 C 0.52223 0.38228 0.33484 0.0
C694 C 0.56658 0.36964 0.32806 0.0
C695 C 0.5594 0.37306 0.34947 0.0
C696 C 0.55181 0.373 0.31015 0.0
C697 C 0.53944 0.3656 0.21041 0.0
C698 C 0.58048 0.36015 0.20852 0.0
C699 C 0.55379 0.3522 0.1758 0.0
C700 C 0.53535 0.35803 0.18801 0.0
C701 C 0.57661 0.354 0.18582 0.0
C702 C 0.56192 0.36587 0.22083 0.0
C703 C 0.52106 0.37664 0.22103 0.0
O704 O 0.46307 0.39138 0.25209 0.0
O705 O 0.48695 0.42373 0.25297 0.0
O706 O 0.5276 0.39704 0.23183 0.0
O707 O 0.50423 0.36398 0.22977 0.0
H708 H 0.45798 0.38747 0.20981 0.0
H709 H 0.43604 0.39523 0.17747 0.0
H710 H 0.42286 0.45932 0.21122 0.0
H711 H 0.44366 0.45036 0.2445 0.0
H712 H 0.53114 0.38208 0.36898 0.0
H713 H 0.50534 0.38784 0.33776 0.0
H714 H 0.58399 0.36529 0.32531 0.0
H715 H 0.55788 0.37112 0.29384 0.0
H716 H 0.5981 0.36178 0.21645 0.0
H717 H 0.5506 0.34797 0.15825 0.0
H718 H 0.51821 0.35808 0.17965 0.0
H719 H 0.56542 0.37181 0.23808 0.0
C720 C 0.36407 0.75313 0.95634 0.0
C721 C 0.3593 0.75291 0.93364 0.0
C722 C 0.37285 0.71579 0.92725 0.0
C723 C 0.36358 0.73424 0.91913 0.0
C724 C 0.3771 0.71611 0.94991 0.0
C725 C 0.37268 0.73449 0.96426 0.0
U726 U 0.35892 0.81638 0.96946 0.0
O727 O 0.34347 0.8356 0.99632 0.0
O728 O 0.3816 0.84254 0.9921 0.0
C729 C 0.36414 0.84711 1.00396 0.0
C730 C 0.36291 0.77337 0.97205 0.0
C731 C 0.36911 0.85155 0.02801 0.0
C732 C 0.39672 0.8565 0.06051 0.0
C733 C 0.38997 0.8469 0.0388 0.0
C734 C 0.36084 0.87357 0.06136 0.0
C735 C 0.38273 0.87092 0.07164 0.0
C736 C 0.35429 0.86425 0.03982 0.0
C737 C 0.35032 0.84795 0.91811 0.0
C738 C 0.3526 0.88872 0.91587 0.0
C739 C 0.3489 0.86208 0.8828 0.0
C740 C 0.34827 0.84393 0.89529 0.0
C741 C 0.35142 0.88459 0.89294 0.0
C742 C 0.35222 0.8704 0.92849 0.0
C743 C 0.35207 0.82829 0.93016 0.0
O744 O 0.38109 0.78958 0.97266 0.0
O745 O 0.34255 0.78115 0.97281 0.0
O746 O 0.33466 0.82218 0.94228 0.0
O747 O 0.37307 0.82727 0.93936 0.0
H748 H 0.35288 0.76733 0.92717 0.0
H749 H 0.36017 0.73449 0.90171 0.0
H750 H 0.38425 0.70217 0.95659 0.0
H751 H 0.37669 0.73445 0.98163 0.0
H752 H 0.41354 0.8539 0.06798 0.0
H753 H 0.40172 0.837 0.03012 0.0
H754 H 0.34923 0.884 0.0696 0.0
H755 H 0.33817 0.86816 0.03195 0.0
H756 H 0.35456 0.90605 0.92393 0.0
H757 H 0.34771 0.85857 0.86513 0.0
H758 H 0.34679 0.82669 0.88709 0.0
H759 H 0.35392 0.87373 0.94616 0.0
C760 C 0.04129 0.40846 0.79332 0.0
C761 C 0.04038 0.40804 0.81599 0.0
C762 C 0.08332 0.40974 0.82025 0.0
C763 C 0.0612 0.40875 0.82934 0.0
C764 C 0.08398 0.41023 0.79752 0.0
C765 C 0.06322 0.40965 0.78426 0.0
U766 U 0.97393 0.39672 0.7812 0.0
O767 O 0.95031 0.41554 0.76312 0.0
O768 O 0.95255 0.37978 0.75149 0.0
C769 C 0.94349 0.39828 0.7479 0.0
C770 C 0.01973 0.40743 0.77871 0.0
C771 C 0.94143 0.40357 0.72497 0.0
C772 C 0.95357 0.42608 0.69561 0.0
C773 C 0.95779 0.41981 0.71669 0.0
C774 C 0.91731 0.39922 0.69049 0.0
C775 C 0.93314 0.41601 0.68241 0.0
C776 C 0.92136 0.39318 0.71157 0.0
C777 C 0.93758 0.37755 0.82941 0.0
C778 C 0.89516 0.37468 0.83222 0.0
C779 C 0.92026 0.3665 0.86247 0.0
C780 C 0.93999 0.37085 0.85043 0.0
C781 C 0.89767 0.36884 0.85372 0.0
C782 C 0.91499 0.37904 0.82015 0.0
C783 C 0.95916 0.38437 0.81841 0.0
O784 O 1.00814 0.38687 0.77246 0.0
O785 O 1.00579 0.42258 0.78404 0.0
O786 O 0.96285 0.40571 0.81415 0.0
O787 O 0.96441 0.36982 0.80253 0.0
H788 H 0.02359 0.4071 0.82333 0.0
H789 H 0.05996 0.40858 0.84677 0.0
H790 H 0.10048 0.41049 0.78978 0.0
H791 H 0.06428 0.40989 0.7668 0.0
H792 H 0.96613 0.43898 0.68971 0.0
H793 H 0.97346 0.42801 0.72667 0.0
H794 H 0.90132 0.3913 0.68084 0.0
H795 H 0.90841 0.38076 0.71766 0.0
H796 H 0.87793 0.37629 0.8249 0.0
H797 H 0.92287 0.36228 0.87901 0.0
H798 H 0.95732 0.36968 0.85785 0.0
H799 H 0.91278 0.38411 0.80389 0.0
C800 C 0.33719 0.2523 0.55824 0.0
C801 C 0.32733 0.26015 0.57738 0.0
C802 C 0.34634 0.2989 0.57498 0.0
C803 C 0.33176 0.28325 0.58566 0.0
C804 C 0.355 0.29129 0.55505 0.0
C805 C 0.35043 0.2681 0.54667 0.0
U806 U 0.34449 0.1945 0.52391 0.0
O807 O 0.37198 0.20508 0.50215 0.0
O808 O 0.33494 0.19679 0.48917 0.0
C809 C 0.35714 0.20161 0.48468 0.0
C810 C 0.33655 0.22748 0.55315 0.0
C811 C 0.36455 0.18751 0.46598 0.0
C812 C 0.37864 0.18483 0.42954 0.0
C813 C 0.37078 0.19764 0.44725 0.0
C814 C 0.37438 0.1515 0.44921 0.0
C815 C 0.38061 0.16159 0.43026 0.0
C816 C 0.36635 0.16433 0.46688 0.0
C817 C 0.33858 0.14442 0.55733 0.0
C818 C 0.33454 0.11198 0.57827 0.0
C819 C 0.33882 0.15049 0.59694 0.0
C820 C 0.33968 0.15926 0.57679 0.0
C821 C 0.33653 0.12681 0.59778 0.0
C822 C 0.33572 0.12076 0.55816 0.0
C823 C 0.34231 0.15352 0.53639 0.0
O824 O 0.35716 0.22046 0.55147 0.0
O825 O 0.31995 0.2162 0.53886 0.0
O826 O 0.32407 0.16078 0.52694 0.0
O827 O 0.36214 0.16754 0.53626 0.0
H828 H 0.31723 0.24817 0.58662 0.0
H829 H 0.32481 0.28855 0.60104 0.0
H830 H 0.36604 0.30312 0.54638 0.0
H831 H 0.3582 0.26236 0.53185 0.0
H832 H 0.3828 0.19313 0.41516 0.0
H833 H 0.36956 0.21553 0.44631 0.0
H834 H 0.37593 0.13375 0.45053 0.0
H835 H 0.36176 0.15625 0.48131 0.0
H836 H 0.33273 0.09365 0.57865 0.0
H837 H 0.34008 0.16214 0.61184 0.0
H838 H 0.34181 0.1776 0.57642 0.0
H839 H 0.33495 0.10911 0.5433 0.0
C840 C 0.45015 0.61552 0.27627 0.0
C841 C 0.4563 0.62142 0.29875 0.0
C842 C 0.41599 0.60788 0.30697 0.0
C843 C 0.43933 0.61767 0.31396 0.0
C844 C 0.40997 0.60187 0.28447 0.0
C845 C 0.42691 0.60568 0.26928 0.0
U846 U 0.51388 0.63118 0.26416 0.0
O847 O 0.53563 0.61655 0.23983 0.0
O848 O 0.53091 0.65282 0.24076 0.0
C849 C 0.54082 0.63596 0.23153 0.0
C850 C 0.46786 0.61932 0.26009 0.0
C851 C 0.54418 0.63472 0.208 0.0
C852 C 0.53743 0.61447 0.17131 0.0
C853 C 0.5299 0.61899 0.19239 0.0
C854 C 0.5725 0.64243 0.18097 0.0
C855 C 0.55923 0.62561 0.16583 0.0
C856 C 0.56497 0.64701 0.20184 0.0
C857 C 0.55732 0.64414 0.31601 0.0
C858 C 0.60033 0.6511 0.31838 0.0
C859 C 0.57913 0.6536 0.35128 0.0
C860 C 0.55776 0.64808 0.33877 0.0
C861 C 0.60056 0.65522 0.34127 0.0
C862 C 0.57869 0.64568 0.30572 0.0
C863 C 0.53412 0.63803 0.30396 0.0
O864 O 0.47819 0.64056 0.26039 0.0
O865 O 0.48276 0.60442 0.25853 0.0
O866 O 0.53007 0.61788 0.29235 0.0
O867 O 0.526 0.65423 0.29418 0.0
H868 H 0.47421 0.62893 0.3045 0.0
H869 H 0.44445 0.62245 0.3312 0.0
H870 H 0.39214 0.59432 0.27855 0.0
H871 H 0.42187 0.60095 0.25203 0.0
H872 H 0.52714 0.6012 0.15985 0.0
H873 H 0.51385 0.60922 0.19688 0.0
H874 H 0.58955 0.65085 0.17716 0.0
H875 H 0.57635 0.65899 0.21374 0.0
H876 H 0.61675 0.65229 0.31041 0.0
H877 H 0.57896 0.65646 0.36892 0.0
H878 H 0.54145 0.6468 0.34694 0.0
H879 H 0.5786 0.64264 0.28808 0.0
C880 C 0.07184 0.80749 1.00325 0.0
C881 C 0.07513 0.83072 0.01135 0.0
C882 C 0.07853 0.84102 0.97444 0.0
C883 C 0.07859 0.84737 0.99701 0.0
C884 C 0.07398 0.81774 0.96625 0.0
C885 C 0.0708 0.80107 0.98063 0.0
U886 U 0.08944 0.79008 0.05897 0.0
O887 O 0.113 0.76457 0.06302 0.0
O888 O 0.07714 0.75951 0.07502 0.0
C889 C 0.0968 0.75102 0.07154 0.0
C890 C 0.07412 0.7901 0.01804 0.0
C891 C 0.10458 0.73469 0.08542 0.0
C892 C 0.11361 0.69631 0.08724 0.0
C893 C 0.10608 0.71281 0.07525 0.0
C894 C 0.11854 0.72356 0.11993 0.0
C895 C 0.11975 0.7014 0.10973 0.0
C896 C 0.11103 0.7402 0.10779 0.0
C897 C 0.10906 0.8479 0.09993 0.0
C898 C 0.12335 0.86184 0.13741 0.0
C899 C 0.11973 0.88856 0.11071 0.0
C900 C 0.11131 0.87044 0.09483 0.0
C901 C 0.12586 0.88443 0.13205 0.0
C902 C 0.11509 0.84352 0.1213 0.0
C903 C 0.10046 0.8299 0.08211 0.0
O904 O 0.09612 0.78913 0.02441 0.0
O905 O 0.0599 0.78902 0.03403 0.0
O906 O 0.07987 0.8171 0.08271 0.0
O907 O 0.11565 0.82041 0.07035 0.0
H908 H 0.07629 0.83595 0.02879 0.0
H909 H 0.08192 0.86524 1.0036 0.0
H910 H 0.07406 0.81239 0.94891 0.0
H911 H 0.06876 0.78317 0.97419 0.0
H912 H 0.11399 0.67937 0.079 0.0
H913 H 0.10124 0.7084 0.05791 0.0
H914 H 0.12336 0.72796 0.13725 0.0
H915 H 0.11019 0.75716 0.11578 0.0
H916 H 0.12784 0.85845 0.15394 0.0
H917 H 0.12109 0.90588 0.10641 0.0
H918 H 0.1065 0.87407 0.07844 0.0
H919 H 0.1134 0.82615 0.12546 0.0
C920 C 0.80178 0.01829 0.63699 0.0
C921 C 0.80192 0.99809 0.64709 0.0
C922 C 0.84452 1.00039 0.64413 0.0
C923 C 0.82322 0.98928 0.65077 0.0
C924 C 0.84409 0.02019 0.6337 0.0
C925 C 0.82306 0.0291 0.63032 0.0
U926 U 0.73459 0.01735 0.62361 0.0
O927 O 0.71015 0.03912 0.63793 0.0
O928 O 0.7164 0.03892 0.6031 0.0
C929 C 0.70516 0.04715 0.61943 0.0
C930 C 0.78024 0.02914 0.63366 0.0
C931 C 0.70135 0.07133 0.6207 0.0
C932 C 0.7091 0.11061 0.63804 0.0
C933 C 0.7159 0.08883 0.63429 0.0
C934 C 0.67402 0.09808 0.61361 0.0
C935 C 0.68782 0.11526 0.62814 0.0
C936 C 0.6807 0.07631 0.61003 0.0
C937 C 0.69531 0.95774 0.61281 0.0
C938 C 0.65276 0.94757 0.61393 0.0
C939 C 0.67659 0.91877 0.60164 0.0
C940 C 0.69679 0.93509 0.60491 0.0
C941 C 0.65442 0.92476 0.60627 0.0
C942 C 0.67312 0.96406 0.61709 0.0
C943 C 0.71755 0.97362 0.61781 0.0
O944 O 0.77063 0.02696 0.61353 0.0
O945 O 0.76457 0.02718 0.64837 0.0
O946 O 0.72008 0.98598 0.63697 0.0
O947 O 0.72557 0.98493 0.60193 0.0
H948 H 0.78568 0.98925 0.6522 0.0
H949 H 0.82298 0.97372 0.65849 0.0
H950 H 0.8602 0.02902 0.62832 0.0
H951 H 0.82346 0.04464 0.62255 0.0
H952 H 0.72013 0.12368 0.64916 0.0
H953 H 0.73193 0.08541 0.64267 0.0
H954 H 0.65747 0.10107 0.60586 0.0
H955 H 0.66911 0.063 0.59964 0.0
H956 H 0.63577 0.95258 0.6174 0.0
H957 H 0.67835 0.90128 0.59588 0.0
H958 H 0.71376 0.92988 0.60168 0.0
H959 H 0.67163 0.98152 0.62318 0.0
C960 C 0.7602 0.98725 0.34969 0.0
C961 C 0.76303 0.96463 0.35251 0.0
C962 C 0.72024 0.95371 0.35055 0.0
C963 C 0.74317 0.94799 0.35295 0.0
C964 C 0.71754 0.97622 0.3471 0.0
C965 C 0.73737 0.99283 0.34672 0.0
U966 U 0.82662 1.00787 0.35863 0.0
O967 O 0.84581 0.0373 0.3801 0.0
O968 O 0.84973 0.0347 0.3446 0.0
C969 C 0.856 0.04635 0.36389 0.0
C970 C 0.78068 1.00555 0.35138 0.0
C971 C 0.86104 0.07143 0.3655 0.0
C972 C 0.85056 0.10957 0.36378 0.0
C973 C 0.84389 0.08566 0.36198 0.0
C974 C 0.89104 0.10475 0.37323 0.0
C975 C 0.87437 0.11924 0.36907 0.0
C976 C 0.88447 0.08121 0.37132 0.0
C977 C 0.86752 0.96313 0.3683 0.0
C978 C 0.9105 0.96932 0.37007 0.0
C979 C 0.88956 0.93389 0.37979 0.0
C980 C 0.86805 0.9416 0.37544 0.0
C981 C 0.91092 0.94754 0.37689 0.0
C982 C 0.88889 0.97719 0.36599 0.0
C983 C 0.8444 0.97012 0.36314 0.0
O984 O 0.79177 0.0104 0.37091 0.0
O985 O 0.79512 1.00464 0.33558 0.0
O986 O 0.8414 0.97798 0.34419 0.0
O987 O 0.83579 0.98191 0.3792 0.0
H988 H 0.78054 0.96 0.35488 0.0
H989 H 0.74574 0.93075 0.35555 0.0
H990 H 0.70015 0.9812 0.3452 0.0
H991 H 0.73485 0.0102 0.34461 0.0
H992 H 0.83738 0.12037 0.36038 0.0
H993 H 0.82561 0.07836 0.35763 0.0
H994 H 0.90943 0.11164 0.3776 0.0
H995 H 0.8979 0.07052 0.3743 0.0
H996 H 0.92683 0.97998 0.36752 0.0
H997 H 0.88949 0.91686 0.38456 0.0
H998 H 0.85174 0.93052 0.37725 0.0
H999 H 0.88884 0.99395 0.36062 0.0
C1000 C 0.81371 0.94032 0.16038 0.0
C1001 C 0.83791 0.94539 0.1574 0.0
C1002 C 0.84096 0.90468 0.15213 0.0
C1003 C 0.85142 0.92773 0.15331 0.0
C1004 C 0.81666 0.89979 0.15498 0.0
C1005 C 0.80319 0.91745 0.15906 0.0
U1006 U 0.80716 1.00319 0.16456 0.0
O1007 O 0.77891 0.02098 0.15267 0.0
O1008 O 0.78927 0.02455 0.18792 0.0
C1009 C 0.77512 0.02989 0.17235 0.0
C1010 C 0.79924 0.95867 0.1647 0.0
C1011 C 0.75033 0.03084 0.1768 0.0
C1012 C 0.70846 0.01749 0.16817 0.0
C1013 C 0.73199 0.01362 0.16778 0.0
C1014 C 0.72131 0.055 0.188 0.0
C1015 C 0.70303 0.03848 0.17767 0.0
C1016 C 0.74478 0.0512 0.18748 0.0
C1017 C 0.86014 0.04539 0.15238 0.0
C1018 C 0.85845 0.08495 0.14644 0.0
C1019 C 0.8962 0.0711 0.14951 0.0
C1020 C 0.88475 0.04948 0.15236 0.0
C1021 C 0.88321 0.08905 0.14661 0.0
C1022 C 0.84694 0.06321 0.14945 0.0
C1023 C 0.84878 0.02226 0.15503 0.0
O1024 O 0.80598 0.97297 0.18243 0.0
O1025 O 0.79377 0.96894 0.14767 0.0
O1026 O 0.83176 0.01332 0.14016 0.0
O1027 O 0.84381 0.01861 0.17502 0.0
H1028 H 0.84632 0.96299 0.1582 0.0
H1029 H 0.87 0.93213 0.15085 0.0
H1030 H 0.80808 0.88229 0.15443 0.0
H1031 H 0.78454 0.91323 0.16129 0.0
H1032 H 0.69459 1.00445 0.16026 0.0
H1033 H 0.73591 0.99776 0.15947 0.0
H1034 H 0.71769 0.07136 0.19541 0.0
H1035 H 0.75871 0.06474 0.19438 0.0
H1036 H 0.84811 0.0986 0.14441 0.0
H1037 H 0.91529 0.07379 0.1495 0.0
H1038 H 0.89514 0.0359 0.15451 0.0
H1039 H 0.82785 0.0603 0.14948 0.0
C1040 C 0.67549 0.945 0.90619 0.0
C1041 C 0.65571 0.93588 0.91647 0.0
C1042 C 0.65824 0.89808 0.89862 0.0
C1043 C 0.64711 0.91257 0.91272 0.0
C1044 C 0.67922 0.90681 0.88979 0.0
C1045 C 0.6879 0.93021 0.89363 0.0
U1046 U 0.71037 1.00393 0.89623 0.0
O1047 O 0.73418 0.99476 0.87104 0.0
O1048 O 0.74796 1.00315 0.90526 0.0
C1049 C 0.75306 0.99999 0.88472 0.0
C1050 C 0.67968 0.96985 0.90551 0.0
C1051 C 0.7713 0.0175 0.87811 0.0
C1052 C 0.80812 0.02836 0.8614 0.0
C1053 C 0.79088 0.01142 0.86749 0.0
C1054 C 0.78542 0.05742 0.87526 0.0
C1055 C 0.8059 0.05169 0.86562 0.0
C1056 C 0.76858 0.04061 0.8817 0.0
C1057 C 0.67646 0.05574 0.89923 0.0
C1058 C 0.65772 0.08952 0.8965 0.0
C1059 C 0.63578 0.05567 0.90845 0.0
C1060 C 0.65551 0.04432 0.90613 0.0
C1061 C 0.63683 0.07832 0.90355 0.0
C1062 C 0.67741 0.07832 0.89444 0.0
C1063 C 0.69742 0.04452 0.89611 0.0
O1064 O 0.68096 0.97653 0.88592 0.0
O1065 O 0.69488 0.9823 0.92036 0.0
O1066 O 0.69602 0.02969 0.87858 0.0
O1067 O 0.70732 0.03765 0.9135 0.0
H1068 H 0.64579 0.94706 0.92604 0.0
H1069 H 0.63068 0.90618 0.91936 0.0
H1070 H 0.68786 0.89584 0.8787 0.0
H1071 H 0.70318 0.93698 0.8855 0.0
H1072 H 0.82354 0.02316 0.85413 0.0
H1073 H 0.79303 0.99361 0.86423 0.0
H1074 H 0.78241 0.07502 0.87819 0.0
H1075 H 0.75337 0.04568 0.88952 0.0
H1076 H 0.65888 0.10706 0.89288 0.0
H1077 H 0.61976 0.04685 0.91399 0.0
H1078 H 0.65446 0.02678 0.90971 0.0
H1079 H 0.69343 0.08731 0.88903 0.0
C1080 C 0.60754 0.74273 0.9397 0.0
C1081 C 0.60786 0.73628 0.91717 0.0
C1082 C 0.61674 0.77635 0.91126 0.0
C1083 C 0.61233 0.75307 0.903 0.0
C1084 C 0.61672 0.78257 0.93387 0.0
C1085 C 0.61212 0.76588 0.94792 0.0
U1086 U 0.59963 0.682 0.95799 0.0
O1087 O 0.5742 0.66843 0.98068 0.0
O1088 O 0.61266 0.67397 0.99004 0.0
C1089 C 0.59114 0.66849 0.99601 0.0
C1090 C 0.60247 0.72598 0.9552 0.0
C1091 C 0.58751 0.65356 0.01323 0.0
C1092 C 0.58136 0.65108 0.05148 0.0
C1093 C 0.58334 0.66381 0.03385 0.0
C1094 C 0.58741 0.61734 0.028 0.0
C1095 C 0.58356 0.62776 0.04881 0.0
C1096 C 0.5894 0.63021 0.01022 0.0
C1097 C 0.61024 0.63307 0.91204 0.0
C1098 C 0.59518 0.59344 0.8987 0.0
C1099 C 0.62788 0.61374 0.88202 0.0
C1100 C 0.62718 0.63309 0.89657 0.0
C1101 C 0.61146 0.59402 0.8825 0.0
C1102 C 0.59467 0.6129 0.9136 0.0
C1103 C 0.60745 0.65539 0.92343 0.0
O1104 O 0.58264 0.71169 0.95118 0.0
O1105 O 0.62043 0.71631 0.96175 0.0
O1106 O 0.62441 0.66555 0.9379 0.0
O1107 O 0.58615 0.65933 0.92806 0.0
H1108 H 0.60451 0.71841 0.9106 0.0
H1109 H 0.61232 0.7479 0.88562 0.0
H1110 H 0.61994 0.80034 0.94075 0.0
H1111 H 0.612 0.77108 0.9653 0.0
H1112 H 0.57854 0.6597 0.06727 0.0
H1113 H 0.58204 0.6819 0.03643 0.0
H1114 H 0.58914 0.59936 0.02558 0.0
H1115 H 0.59273 0.62212 0.99435 0.0
H1116 H 0.58194 0.57855 0.89886 0.0
H1117 H 0.63986 0.61489 0.86905 0.0
H1118 H 0.63893 0.64863 0.89475 0.0
H1119 H 0.58131 0.61262 0.92533 0.0
C1120 C 0.94835 0.09885 0.77743 0.0
C1121 C 0.95602 0.1015 0.79969 0.0
C1122 C 0.91521 0.09486 0.80944 0.0
C1123 C 0.93955 0.09969 0.81553 0.0
C1124 C 0.90755 0.09102 0.78717 0.0
C1125 C 0.92406 0.09317 0.77126 0.0
U1126 U 1.0113 0.11564 0.76099 0.0
O1127 O 0.02947 0.10233 0.73307 0.0
O1128 O 0.02487 0.13883 0.73724 0.0
C1129 C 0.03376 0.12247 0.72593 0.0
C1130 C 0.9653 0.10333 0.76067 0.0
C1131 C 0.03781 0.12367 0.70268 0.0
C1132 C 0.03285 0.10719 0.66456 0.0
C1133 C 0.0247 0.10877 0.68567 0.0
C1134 C 0.06627 0.13622 0.67714 0.0
C1135 C 0.05413 0.12042 0.66041 0.0
C1136 C 0.05811 0.1379 0.69802 0.0
C1137 C 0.05973 0.12727 0.81021 0.0
C1138 C 0.10195 0.14152 0.8123 0.0
C1139 C 0.08292 0.13189 0.84489 0.0
C1140 C 0.06142 0.12556 0.83266 0.0
C1141 C 0.10327 0.1401 0.83494 0.0
C1142 C 0.08015 0.13505 0.79989 0.0
C1143 C 0.03601 0.12129 0.79886 0.0
O1144 O 0.97536 0.12469 0.76131 0.0
O1145 O 0.98029 0.08866 0.75767 0.0
O1146 O 0.03142 0.10159 0.78651 0.0
O1147 O 0.02661 0.13779 0.79073 0.0
H1148 H 0.97465 0.10583 0.80484 0.0
H1149 H 0.94579 0.10288 0.83265 0.0
H1150 H 0.88885 0.08777 0.78211 0.0
H1151 H 0.91782 0.09118 0.75416 0.0
H1152 H 0.02351 0.09456 0.65193 0.0
H1153 H 1.00907 0.09749 0.68894 0.0
H1154 H 0.08303 0.14608 0.67445 0.0
H1155 H 0.06866 0.14922 0.71099 0.0
H1156 H 0.1175 0.14804 0.80442 0.0
H1157 H 0.08356 0.13092 0.86236 0.0
H1158 H 0.04589 0.11968 0.8409 0.0
H1159 H 0.07916 0.13648 0.78251 0.0
C1160 C 0.86355 0.28102 0.43324 0.0
C1161 C 0.85389 0.26959 0.41292 0.0
C1162 C 0.87495 0.23759 0.41821 0.0
C1163 C 0.85945 0.24805 0.40547 0.0
C1164 C 0.88366 0.24851 0.43904 0.0
C1165 C 0.87797 0.27005 0.44654 0.0
U1166 U 0.86253 0.34155 0.46708 0.0
O1167 O 0.88557 0.34224 0.49699 0.0
O1168 O 0.84709 0.33711 0.49861 0.0
C1169 C 0.86786 0.34091 0.50965 0.0
C1170 C 0.86141 0.30549 0.43809 0.0
C1171 C 0.87056 0.35804 0.52924 0.0
C1172 C 0.87567 0.36632 0.56885 0.0
C1173 C 0.87195 0.3506 0.54999 0.0
C1174 C 0.87661 0.39749 0.54656 0.0
C1175 C 0.87845 0.39007 0.56754 0.0
C1176 C 0.87264 0.38164 0.52762 0.0
C1177 C 0.85901 0.38934 0.43061 0.0
C1178 C 0.85787 0.42143 0.40966 0.0
C1179 C 0.85862 0.38358 0.39098 0.0
C1180 C 0.85915 0.37477 0.41116 0.0
C1181 C 0.85786 0.40701 0.39009 0.0
C1182 C 0.85846 0.41265 0.42973 0.0
C1183 C 0.86031 0.38089 0.45207 0.0
O1184 O 0.88082 0.31935 0.44541 0.0
O1185 O 0.84236 0.31118 0.44686 0.0
O1186 O 0.88026 0.37375 0.45748 0.0
O1187 O 0.84155 0.36741 0.45682 0.0
H1188 H 0.84296 0.27787 0.40226 0.0
H1189 H 0.85253 0.24014 0.38933 0.0
H1190 H 0.8955 0.24071 0.44923 0.0
H1191 H 0.8857 0.27855 0.46223 0.0
H1192 H 0.87624 0.35968 0.58451 0.0
H1193 H 0.87031 0.3325 0.55163 0.0
H1194 H 0.87882 0.41553 0.54464 0.0
H1195 H 0.8716 0.3878 0.51173 0.0
H1196 H 0.85747 0.43956 0.40944 0.0
H1197 H 0.85835 0.37207 0.3761 0.0
H1198 H 0.85965 0.35667 0.4116 0.0
H1199 H 0.85855 0.42412 0.44461 0.0
C1200 C 0.46018 0.89976 0.78988 0.0
C1201 C 0.46479 0.89516 0.81141 0.0
C1202 C 0.42879 0.90972 0.82195 0.0
C1203 C 0.44918 0.90011 0.82732 0.0
C1204 C 0.4241 0.91396 0.8003 0.0
C1205 C 0.43973 0.90905 0.78443 0.0
U1206 U 0.51817 0.88297 0.76722 0.0
O1207 O 0.53776 0.90029 0.74258 0.0
O1208 O 0.52134 0.86428 0.73474 0.0
C1209 C 0.53283 0.88248 0.72765 0.0
C1210 C 0.47652 0.89567 0.77283 0.0
C1211 C 0.5491 0.87984 0.7102 0.0
C1212 C 0.5546 0.8783 0.67121 0.0
C1213 C 0.53975 0.8781 0.68844 0.0
C1214 C 0.5885 0.88153 0.69726 0.0
C1215 C 0.57918 0.8803 0.67546 0.0
C1216 C 0.57357 0.88132 0.71455 0.0
C1217 C 0.56017 0.86579 0.81585 0.0
C1218 C 0.60035 0.85896 0.82436 0.0
C1219 C 0.57242 0.85826 0.85243 0.0
C1220 C 0.55509 0.86292 0.83744 0.0
C1221 C 0.59524 0.85651 0.8461 0.0
C1222 C 0.58282 0.86346 0.80921 0.0
C1223 C 0.54156 0.87257 0.80157 0.0
O1224 O 0.4963 0.91005 0.77429 0.0
O1225 O 0.47952 0.87436 0.76742 0.0
O1226 O 0.52761 0.85711 0.78812 0.0
O1227 O 0.54422 0.89326 0.79547 0.0
H1228 H 0.48048 0.88795 0.81592 0.0
H1229 H 0.45309 0.89651 0.84389 0.0
H1230 H 0.40853 0.92124 0.79565 0.0
H1231 H 0.43593 0.91271 0.76786 0.0
H1232 H 0.54686 0.8775 0.65467 0.0
H1233 H 0.52091 0.87728 0.68478 0.0
H1234 H 0.6074 0.88306 0.70097 0.0
H1235 H 0.58114 0.88286 0.73123 0.0
H1236 H 0.618 0.85792 0.81931 0.0
H1237 H 0.56828 0.85697 0.86922 0.0
H1238 H 0.53778 0.86493 0.84292 0.0
H1239 H 0.58707 0.86569 0.79261 0.0
C1240 C 0.98514 0.14828 0.20646 0.0
C1241 C 0.96377 0.15584 0.21165 0.0
C1242 C 0.94962 0.14927 0.17324 0.0
C1243 C 0.94609 0.15622 0.19514 0.0
C1244 C 0.97166 0.14343 0.16794 0.0
C1245 C 0.98931 0.14289 0.18447 0.0
U1246 U 1.00223 0.14737 0.26665 0.0
O1247 O 1.01261 0.11943 0.28394 0.0
O1248 O 0.03665 0.15201 0.28567 0.0
C1249 C 0.03334 0.13105 0.29112 0.0
C1250 C 1.00156 0.14296 0.22381 0.0
C1251 C 0.05396 0.1186 0.29204 0.0
C1252 C 0.0685 0.08232 0.29523 0.0
C1253 C 0.05154 0.09467 0.28685 0.0
C1254 C 0.09184 0.11786 0.31139 0.0
C1255 C 0.08794 0.09384 0.30875 0.0
C1256 C 0.07494 0.13011 0.30326 0.0
C1257 C 0.9601 0.17384 0.30624 0.0
C1258 C 0.9516 0.16448 0.34259 0.0
C1259 C 0.92947 0.19041 0.3253 0.0
C1260 C 0.94303 0.18858 0.30723 0.0
C1261 C 0.93274 0.17737 0.34259 0.0
C1262 C 0.96517 0.16265 0.32448 0.0
C1263 C 0.96939 0.16794 0.28494 0.0
O1264 O 0.01376 0.1605 0.23623 0.0
O1265 O 0.99255 0.12664 0.235 0.0
O1266 O 0.96642 0.14605 0.27773 0.0
O1267 O 0.99009 0.17884 0.28124 0.0
H1268 H 0.96018 0.15995 0.22856 0.0
H1269 H 0.92902 0.16028 0.19961 0.0
H1270 H 0.97451 0.13742 0.15123 0.0
H1271 H 1.0056 0.13685 0.18018 0.0
H1272 H 0.0652 0.06381 0.29297 0.0
H1273 H 0.03562 0.0853 0.27809 0.0
H1274 H 0.10674 0.12708 0.32185 0.0
H1275 H 0.07727 0.14845 0.30766 0.0
H1276 H 0.95452 0.15432 0.35581 0.0
H1277 H 0.91496 0.20025 0.32473 0.0
H1278 H 0.93891 0.19735 0.29329 0.0
H1279 H 0.97839 0.15128 0.32408 0.0
C1280 C 0.45493 0.13905 0.71803 0.0
C1281 C 0.45943 0.14607 0.69741 0.0
C1282 C 0.41849 0.13205 0.68407 0.0
C1283 C 0.4413 0.14262 0.68057 0.0
C1284 C 0.41411 0.12522 0.70476 0.0
C1285 C 0.43217 0.12869 0.72153 0.0
U1286 U 0.52022 0.14989 0.73881 0.0
O1287 O 0.53858 0.16688 0.77017 0.0
O1288 O 0.53951 0.13015 0.75991 0.0
C1289 C 0.54676 0.14805 0.77429 0.0
C1290 C 0.47383 0.14118 0.73576 0.0
C1291 C 0.55497 0.14459 0.79656 0.0
C1292 C 0.55068 0.1273 0.8305 0.0
C1293 C 0.54062 0.13284 0.81073 0.0
C1294 C 0.5891 0.14536 0.82191 0.0
C1295 C 0.57517 0.13308 0.83591 0.0
C1296 C 0.57907 0.1512 0.80258 0.0
C1297 C 0.56225 0.16316 0.69172 0.0
C1298 C 0.605 0.17021 0.68972 0.0
C1299 C 0.57878 0.16791 0.65703 0.0
C1300 C 0.55932 0.16397 0.6692 0.0
C1301 C 0.60176 0.17124 0.66708 0.0
C1302 C 0.5852 0.1662 0.7021 0.0
C1303 C 0.54048 0.15858 0.70296 0.0
O1304 O 0.48749 0.1252 0.73418 0.0
O1305 O 0.48562 0.16176 0.74164 0.0
O1306 O 0.53518 0.17472 0.71729 0.0
O1307 O 0.53476 0.13782 0.70825 0.0
H1308 H 0.47695 0.15395 0.69428 0.0
H1309 H 0.44515 0.14805 0.66476 0.0
H1310 H 0.39678 0.11702 0.70803 0.0
H1311 H 0.4284 0.12301 0.73725 0.0
H1312 H 0.53956 0.1178 0.84104 0.0
H1313 H 0.52197 0.12743 0.80627 0.0
H1314 H 0.60796 0.15008 0.82571 0.0
H1315 H 0.59043 0.16012 0.79179 0.0
H1316 H 0.62264 0.17288 0.69776 0.0
H1317 H 0.57587 0.16854 0.63959 0.0
H1318 H 0.5418 0.16155 0.66093 0.0
H1319 H 0.58775 0.16555 0.71954 0.0
C1320 C 0.12586 0.23208 0.92573 0.0
C1321 C 0.12839 0.235 0.90367 0.0
C1322 C 0.13683 0.19588 0.89671 0.0
C1323 C 0.13379 0.21694 0.88921 0.0
C1324 C 0.13469 0.1934 0.91895 0.0
C1325 C 0.12927 0.21134 0.93327 0.0
U1326 U 0.11414 0.29328 0.9468 0.0
O1327 O 0.12497 0.30965 0.98013 0.0
O1328 O 0.08695 0.30146 0.96929 0.0
C1329 C 0.10304 0.30871 0.98554 0.0
C1330 C 0.11942 0.24997 0.94148 0.0
C1331 C 0.09792 0.32421 1.00419 0.0
C1332 C 0.09011 0.32884 0.04263 0.0
C1333 C 0.09176 0.31475 0.02334 0.0
C1334 C 0.09959 0.36211 0.02347 0.0
C1335 C 0.09457 0.35272 0.04307 0.0
C1336 C 0.10141 0.34795 1.00419 0.0
C1337 C 0.12393 0.33807 0.90282 0.0
C1338 C 0.11536 0.37616 0.89766 0.0
C1339 C 0.13649 0.35579 0.8709 0.0
C1340 C 0.13515 0.33739 0.88322 0.0
C1341 C 0.12646 0.37523 0.87787 0.0
C1342 C 0.1142 0.35765 0.9102 0.0
C1343 C 0.12194 0.31729 0.91397 0.0
O1344 O 0.13652 0.26641 0.94916 0.0
O1345 O 0.09919 0.25721 0.93725 0.0
O1346 O 0.1008 0.3072 0.91757 0.0
O1347 O 0.1386 0.31533 0.92892 0.0
H1348 H 0.12591 0.25102 0.89763 0.0
H1349 H 0.13535 0.21932 0.87216 0.0
H1350 H 0.13637 0.17731 0.92518 0.0
H1351 H 0.12733 0.20885 0.95027 0.0
H1352 H 0.08663 0.32102 0.05742 0.0
H1353 H 0.08928 0.29637 0.02363 0.0
H1354 H 0.10293 0.38047 0.02325 0.0
H1355 H 0.10629 0.3555 0.98956 0.0
H1356 H 0.10743 0.39103 0.90322 0.0
H1357 H 0.14477 0.35458 0.85554 0.0
H1358 H 0.14252 0.32232 0.87715 0.0
H1359 H 0.10542 0.35843 0.92529 0.0
C1360 C 0.35116 0.68159 0.53154 0.0
C1361 C 0.34688 0.65768 0.52724 0.0
C1362 C 0.3623 0.65458 0.56427 0.0
C1363 C 0.35234 0.64422 0.54362 0.0
C1364 C 0.3663 0.67852 0.56843 0.0
C1365 C 0.36074 0.69186 0.55219 0.0
U1366 U 0.34144 0.6972 0.47239 0.0
O1367 O 0.35949 0.72881 0.46208 0.0
O1368 O 0.32052 0.72317 0.46172 0.0
C1369 C 0.33974 0.73731 0.45916 0.0
C1370 C 0.34707 0.6966 0.51482 0.0
C1371 C 0.33917 0.75394 0.44338 0.0
C1372 C 0.342 0.79406 0.43809 0.0
C1373 C 0.33898 0.77677 0.4517 0.0
C1374 C 0.34469 0.76575 0.40737 0.0
C1375 C 0.34528 0.78875 0.41586 0.0
C1376 C 0.34172 0.74837 0.42109 0.0
C1377 C 0.33894 0.64638 0.42476 0.0
C1378 C 0.34072 0.64402 0.38528 0.0
C1379 C 0.33505 0.6094 0.40305 0.0
C1380 C 0.33582 0.62248 0.42325 0.0
C1381 C 0.33749 0.61998 0.38388 0.0
C1382 C 0.34133 0.65721 0.40567 0.0
C1383 C 0.34054 0.65889 0.44677 0.0
O1384 O 0.36464 0.70099 0.50246 0.0
O1385 O 0.3262 0.69318 0.50401 0.0
O1386 O 0.32134 0.66611 0.4538 0.0
O1387 O 0.36011 0.67291 0.45328 0.0
H1388 H 0.33963 0.6495 0.51128 0.0
H1389 H 0.34907 0.62577 0.5401 0.0
H1390 H 0.3738 0.68703 0.58418 0.0
H1391 H 0.36421 0.71033 0.55568 0.0
H1392 H 0.34246 0.81159 0.44517 0.0
H1393 H 0.33737 0.78135 0.46898 0.0
H1394 H 0.34711 0.76128 0.39024 0.0
H1395 H 0.34213 0.73082 0.41451 0.0
H1396 H 0.34254 0.6525 0.37064 0.0
H1397 H 0.33282 0.59094 0.40243 0.0
H1398 H 0.33418 0.61384 0.43784 0.0
H1399 H 0.3438 0.67569 0.40657 0.0
C1400 C 0.72162 0.51398 0.85041 0.0
C1401 C 0.71648 0.5349 0.84427 0.0
C1402 C 0.67443 0.52086 0.84156 0.0
C1403 C 0.69316 0.53831 0.83978 0.0
C1404 C 0.67953 0.49969 0.84736 0.0
C1405 C 0.70303 0.49619 0.85165 0.0
U1406 U 0.78104 0.48975 0.86658 0.0
O1407 O 0.77926 0.45475 0.85024 0.0
O1408 O 0.77259 0.46012 0.88492 0.0
C1409 C 0.7765 0.44545 0.86852 0.0
C1410 C 0.74652 0.51244 0.85657 0.0
C1411 C 0.79359 0.42999 0.87361 0.0
C1412 C 0.80163 0.39211 0.88025 0.0
C1413 C 0.78553 0.40727 0.87671 0.0
C1414 C 0.83412 0.42246 0.87836 0.0
C1415 C 0.82612 0.39939 0.88066 0.0
C1416 C 0.81802 0.43761 0.87488 0.0
C1417 C 0.83526 0.53706 0.87794 0.0
C1418 C 0.87132 0.56384 0.88757 0.0
C1419 C 0.83417 0.57798 0.88108 0.0
C1420 C 0.82255 0.55545 0.87646 0.0
C1421 C 0.85861 0.58229 0.88699 0.0
C1422 C 0.8597 0.54142 0.8832 0.0
C1423 C 0.82346 0.51325 0.87572 0.0
O1424 O 0.7591 0.50321 0.84184 0.0
O1425 O 0.75216 0.50846 0.87664 0.0
O1426 O 0.80868 0.5083 0.89062 0.0
O1427 O 0.81556 0.50398 0.85591 0.0
H1428 H 0.7306 0.5489 0.84345 0.0
H1429 H 0.68981 0.5549 0.83573 0.0
H1430 H 0.66531 0.48599 0.84884 0.0
H1431 H 0.70661 0.47991 0.85636 0.0
H1432 H 0.79485 0.37445 0.88179 0.0
H1433 H 0.76676 0.4011 0.87591 0.0
H1434 H 0.85286 0.42873 0.87894 0.0
H1435 H 0.82463 0.45517 0.87277 0.0
H1436 H 0.8901 0.56677 0.89225 0.0
H1437 H 0.82408 0.59202 0.8804 0.0
H1438 H 0.80365 0.55238 0.87235 0.0
H1439 H 0.86972 0.52741 0.88454 0.0
C1440 C 0.67382 0.44001 0.15797 0.0
C1441 C 0.64926 0.43947 0.15706 0.0
C1442 C 0.64409 0.39786 0.15486 0.0
C1443 C 0.63445 0.41846 0.15553 0.0
C1444 C 0.66867 0.39865 0.15516 0.0
C1445 C 0.68339 0.41957 0.15673 0.0
U1446 U 0.69253 0.50549 0.15878 0.0
O1447 O 0.72515 0.52044 0.14551 0.0
O1448 O 0.72061 0.5268 0.1811 0.0
C1449 C 0.73469 0.52883 0.16509 0.0
C1450 C 0.69021 0.46143 0.16056 0.0
C1451 C 0.75587 0.54583 0.16727 0.0
C1452 C 0.79873 0.55326 0.16986 0.0
C1453 C 0.77779 0.53857 0.17136 0.0
C1454 C 0.77581 0.58298 0.1614 0.0
C1455 C 0.79787 0.57536 0.16417 0.0
C1456 C 0.75489 0.56822 0.16281 0.0
C1457 C 0.641 0.54116 0.14508 0.0
C1458 C 0.63885 0.58026 0.13785 0.0
C1459 C 0.60292 0.55343 0.1384 0.0
C1460 C 0.6163 0.53649 0.14292 0.0
C1461 C 0.61403 0.57538 0.13583 0.0
C1462 C 0.65237 0.56315 0.14252 0.0
C1463 C 0.65365 0.52209 0.14933 0.0
O1464 O 0.69395 0.47106 0.14265 0.0
O1465 O 0.68827 0.47604 0.17766 0.0
O1466 O 0.66172 0.52094 0.16952 0.0
O1467 O 0.66723 0.51493 0.1344 0.0
H1468 H 0.64164 0.45519 0.15785 0.0
H1469 H 0.61551 0.41832 0.15512 0.0
H1470 H 0.67659 0.38314 0.15498 0.0
H1471 H 0.70236 0.41982 0.1574 0.0
H1472 H 0.81545 0.5469 0.17181 0.0
H1473 H 0.7787 0.52114 0.17462 0.0
H1474 H 0.77477 0.60005 0.15719 0.0
H1475 H 0.73805 0.57396 0.15953 0.0
H1476 H 0.64765 0.59728 0.13617 0.0
H1477 H 0.58381 0.54943 0.13699 0.0
H1478 H 0.60726 0.51959 0.14473 0.0
H1479 H 0.67148 0.56702 0.14414 0.0
C1480 C 0.70673 0.55565 0.3686 0.0
C1481 C 0.68213 0.54976 0.36879 0.0
C1482 C 0.6774 0.59004 0.37333 0.0
C1483 C 0.66762 0.5668 0.37102 0.0
C1484 C 0.70207 0.59592 0.37383 0.0
C1485 C 0.7166 0.57884 0.37143 0.0
U1486 U 0.71592 0.49365 0.36783 0.0
O1487 O 0.73016 0.47065 0.34312 0.0
O1488 O 0.74663 0.4773 0.3768 0.0
C1489 C 0.74687 0.46659 0.35703 0.0
C1490 C 0.722 0.53777 0.36471 0.0
C1491 C 0.76996 0.46329 0.34878 0.0
C1492 C 0.8129 0.47142 0.35203 0.0
C1493 C 0.79087 0.47834 0.35564 0.0
C1494 C 0.79328 0.43546 0.33295 0.0
C1495 C 0.81418 0.44954 0.34141 0.0
C1496 C 0.77139 0.44228 0.33663 0.0
C1497 C 0.66203 0.45438 0.38631 0.0
C1498 C 0.65246 0.41291 0.38097 0.0
C1499 C 0.62583 0.43572 0.3991 0.0
C1500 C 0.64116 0.45557 0.39684 0.0
C1501 C 0.63112 0.41433 0.39082 0.0
C1502 C 0.66799 0.43291 0.37882 0.0
C1503 C 0.67572 0.476 0.38185 0.0
O1504 O 0.72937 0.52905 0.38212 0.0
O1505 O 0.71469 0.52218 0.34807 0.0
O1506 O 0.67867 0.47842 0.36121 0.0
O1507 O 0.69459 0.48407 0.39496 0.0
H1508 H 0.67412 0.53197 0.36679 0.0
H1509 H 0.64866 0.56179 0.37066 0.0
H1510 H 0.71012 0.61368 0.37558 0.0
H1511 H 0.73553 0.58373 0.37141 0.0
H1512 H 0.82885 0.48234 0.35908 0.0
H1513 H 0.79022 0.49462 0.3651 0.0
H1514 H 0.79383 0.41827 0.32535 0.0
H1515 H 0.7555 0.43028 0.33147 0.0
H1516 H 0.65656 0.3965 0.37415 0.0
H1517 H 0.60918 0.43716 0.40625 0.0
H1518 H 0.6362 0.472 0.40252 0.0
H1519 H 0.68403 0.43168 0.37058 0.0
C1520 C 0.75166 0.52471 0.62871 0.0
C1521 C 0.75262 0.50162 0.62209 0.0
C1522 C 0.71355 0.49097 0.63532 0.0
C1523 C 0.73369 0.4849 0.62537 0.0
C1524 C 0.71256 0.51416 0.64163 0.0
C1525 C 0.73147 0.53083 0.63836 0.0
U1526 U 0.8153 0.55806 0.61957 0.0
O1527 O 0.82698 0.59196 0.63767 0.0
O1528 O 0.82017 0.5888 0.60208 0.0
C1529 C 0.82725 0.60256 0.62005 0.0
C1530 C 0.771 0.54309 0.62583 0.0
C1531 C 0.84765 0.62048 0.61921 0.0
C1532 C 0.86233 0.66119 0.62146 0.0
C1533 C 0.84352 0.64314 0.61879 0.0
C1534 C 0.88984 0.63402 0.624 0.0
C1535 C 0.88565 0.65689 0.62479 0.0
C1536 C 0.87099 0.61593 0.62124 0.0
C1537 C 0.8555 0.50886 0.6128 0.0
C1538 C 0.88721 0.48589 0.60809 0.0
C1539 C 0.84767 0.4676 0.61308 0.0
C1540 C 0.83968 0.48897 0.61463 0.0
C1541 C 0.87152 0.46597 0.60988 0.0
C1542 C 0.87922 0.5071 0.60943 0.0
C1543 C 0.84841 0.53184 0.6144 0.0
O1544 O 0.78761 0.54894 0.64181 0.0
O1545 O 0.77888 0.54431 0.60629 0.0
O1546 O 0.83507 0.53682 0.59804 0.0
O1547 O 0.8432 0.54075 0.63364 0.0
H1548 H 0.76795 0.49653 0.61451 0.0
H1549 H 0.73484 0.46713 0.6202 0.0
H1550 H 0.69731 0.51944 0.64918 0.0
H1551 H 0.73035 0.54864 0.64345 0.0
H1552 H 0.85852 0.67858 0.62222 0.0
H1553 H 0.8256 0.64698 0.6174 0.0
H1554 H 0.90769 0.6302 0.62633 0.0
H1555 H 0.87455 0.59856 0.6216 0.0
H1556 H 0.90563 0.485 0.60556 0.0
H1557 H 0.83533 0.45238 0.61458 0.0
H1558 H 0.82131 0.48999 0.61727 0.0
H1559 H 0.89168 0.52225 0.60792 0.0
C1560 C 0.49133 0.15221 0.30803 0.0
C1561 C 0.46903 0.15936 0.30716 0.0
C1562 C 0.46394 0.1493 0.34405 0.0
C1563 C 0.4554 0.15816 0.32534 0.0
C1564 C 0.48657 0.14305 0.3449 0.0
C1565 C 0.50021 0.1447 0.32712 0.0
U1566 U 0.51337 0.14592 0.2478 0.0
O1567 O 0.52952 0.11514 0.23879 0.0
O1568 O 0.55137 0.14919 0.24344 0.0
C1569 C 0.55079 0.12691 0.23954 0.0
C1570 C 0.50462 0.14854 0.28889 0.0
C1571 C 0.56732 0.11838 0.22475 0.0
C1572 C 0.59358 0.09053 0.21631 0.0
C1573 C 0.57652 0.09854 0.22907 0.0
C1574 C 0.59299 0.12281 0.19541 0.0
C1575 C 0.60192 0.10249 0.19919 0.0
C1576 C 0.5756 0.1305 0.20788 0.0
C1577 C 0.47459 0.16159 0.19692 0.0
C1578 C 0.47606 0.16148 0.15755 0.0
C1579 C 0.44024 0.16785 0.17484 0.0
C1580 C 0.45126 0.16605 0.19512 0.0
C1581 C 0.45239 0.16531 0.1559 0.0
C1582 C 0.48719 0.15957 0.17808 0.0
C1583 C 0.48416 0.15857 0.21885 0.0
O1584 O 0.4967 0.13064 0.27478 0.0
O1585 O 0.51596 0.16594 0.28043 0.0
O1586 O 0.50317 0.17214 0.22779 0.0
O1587 O 0.48185 0.13781 0.22473 0.0
H1588 H 0.46186 0.16488 0.29231 0.0
H1589 H 0.43785 0.16292 0.32431 0.0
H1590 H 0.49344 0.13613 0.3591 0.0
H1591 H 0.5173 0.13884 0.32786 0.0
H1592 H 0.59992 0.07485 0.21969 0.0
H1593 H 0.57055 0.08927 0.24243 0.0
H1594 H 0.59954 0.13302 0.18293 0.0
H1595 H 0.56898 0.14608 0.20459 0.0
H1596 H 0.48559 0.15929 0.14299 0.0
H1597 H 0.42195 0.17067 0.17385 0.0
H1598 H 0.4413 0.16768 0.20949 0.0
H1599 H 0.50525 0.15611 0.17919 0.0
C1600 C 0.95977 0.93828 0.74597 0.0
C1601 C 0.95754 0.92363 0.72643 0.0
C1602 C 0.93623 0.94994 0.70838 0.0
C1603 C 0.94557 0.9292 0.70799 0.0
C1604 C 0.93823 0.96451 0.72807 0.0
C1605 C 0.94993 0.95866 0.74679 0.0
U1606 U 1.00605 0.90821 0.77318 0.0
O1607 O 1.0015 0.88787 0.80091 0.0
O1608 O 0.02738 0.91952 0.80413 0.0
C1609 C 0.01673 0.90268 0.81383 0.0
C1610 C 0.97196 0.93214 0.76554 0.0
C1611 C 0.03001 0.89448 0.83152 0.0
C1612 C 0.03535 0.8929 0.87059 0.0
C1613 C 0.02193 0.89753 0.8525 0.0
C1614 C 0.06478 0.88126 0.84671 0.0
C1615 C 0.05715 0.8853 0.86788 0.0
C1616 C 0.05122 0.88581 0.82853 0.0
C1617 C 0.04216 0.87967 0.72599 0.0
C1618 C 0.08121 0.87006 0.71957 0.0
C1619 C 0.05124 0.86564 0.68946 0.0
C1620 C 0.03525 0.87316 0.70377 0.0
C1621 C 0.07447 0.86457 0.69713 0.0
C1622 C 0.06507 0.87754 0.734 0.0
C1623 C 0.02598 0.89157 0.73911 0.0
O1624 O 0.96832 0.9103 0.76809 0.0
O1625 O 0.9942 0.94138 0.76945 0.0
O1626 O 0.03415 0.9114 0.75043 0.0
O1627 O 1.00783 0.87997 0.7471 0.0
H1628 H 0.96499 0.90781 0.72542 0.0
H1629 H 0.94388 0.91727 0.69324 0.0
H1630 H 0.93134 0.98059 0.72885 0.0
H1631 H 0.95151 0.97011 0.76185 0.0
H1632 H 0.02935 0.89646 0.88677 0.0
H1633 H 1.00563 0.90443 0.85501 0.0
H1634 H 0.08161 0.87539 0.84438 0.0
H1635 H 0.05765 0.8834 0.81239 0.0
H1636 H 0.0992 0.86954 0.7257 0.0
H1637 H 0.0459 0.86203 0.67215 0.0
H1638 H 0.01778 0.87511 0.69722 0.0
H1639 H 0.07078 0.88263 0.75108 0.0
C1640 C 0.54905 0.90767 0.3028 0.0
C1641 C 0.54745 0.90776 0.32546 0.0
C1642 C 0.59056 0.91338 0.33127 0.0
C1643 C 0.56803 0.91062 0.33958 0.0
C1644 C 0.59189 0.9136 0.30857 0.0
C1645 C 0.57138 0.9108 0.29455 0.0
U1646 U 0.48227 0.89099 0.2893 0.0
O1647 O 0.45758 0.9052 0.2677 0.0
O1648 O 0.46256 0.86928 0.26101 0.0
C1649 C 0.45216 0.88602 0.25457 0.0
C1650 C 0.52784 0.90372 0.28734 0.0
C1651 C 0.45035 0.88785 0.23079 0.0
C1652 C 0.46381 0.90453 0.19847 0.0
C1653 C 0.46739 0.90169 0.22069 0.0
C1654 C 0.42669 0.87901 0.19596 0.0
C1655 C 0.44331 0.89339 0.18594 0.0
C1656 C 0.43016 0.87637 0.21817 0.0
C1657 C 0.44481 0.87611 0.33752 0.0
C1658 C 0.40231 0.87401 0.3385 0.0
C1659 C 0.42558 0.86491 0.36959 0.0
C1660 C 0.44602 0.8691 0.3585 0.0
C1661 C 0.40365 0.86787 0.3599 0.0
C1662 C 0.42278 0.87804 0.32732 0.0
C1663 C 0.46696 0.88284 0.32747 0.0
O1664 O 0.51759 0.88237 0.28312 0.0
O1665 O 0.5127 0.91826 0.29021 0.0
O1666 O 0.46958 0.90322 0.32071 0.0
O1667 O 0.47404 0.86716 0.3138 0.0
H1668 H 0.53033 0.90537 0.33219 0.0
H1669 H 0.5663 0.91055 0.35697 0.0
H1670 H 0.60881 0.91521 0.30147 0.0
H1671 H 0.57298 0.91067 0.27712 0.0
H1672 H 0.47692 0.91571 0.19113 0.0
H1673 H 0.48314 0.91069 0.23005 0.0
H1674 H 0.41062 0.8704 0.18686 0.0
H1675 H 0.41672 0.86572 0.22567 0.0
H1676 H 0.38551 0.87633 0.33071 0.0
H1677 H 0.42708 0.86051 0.38617 0.0
H1678 H 0.46292 0.86763 0.36662 0.0
H1679 H 0.42153 0.88336 0.31109 0.0
C1680 C 0.84017 0.74767 0.07219 0.0
C1681 C 0.83219 0.75589 0.09217 0.0
C1682 C 0.85148 0.79429 0.08863 0.0
C1683 C 0.83769 0.77899 0.10031 0.0
C1684 C 0.85833 0.78631 0.068 0.0
C1685 C 0.85267 0.76313 0.05978 0.0
U1686 U 0.8419 0.68888 0.03664 0.0
O1687 O 0.86695 0.69778 0.01216 0.0
O1688 O 0.8289 0.69105 1.00268 0.0
C1689 C 0.85038 0.69483 0.99607 0.0
C1690 C 0.83832 0.72273 0.06678 0.0
C1691 C 0.8552 0.68038 0.97635 0.0
C1692 C 0.86646 0.67771 0.93886 0.0
C1693 C 0.8603 0.6906 0.95739 0.0
C1694 C 0.86203 0.6439 0.95782 0.0
C1695 C 0.8676 0.65425 0.93886 0.0
C1696 C 0.85595 0.65687 0.97645 0.0
C1697 C 0.83724 0.63917 0.07057 0.0
C1698 C 0.83338 0.6069 0.09169 0.0
C1699 C 0.8409 0.64553 0.11026 0.0
C1700 C 0.8406 0.65417 0.09005 0.0
C1701 C 0.83751 0.62184 0.11116 0.0
C1702 C 0.8334 0.61553 0.0715 0.0
C1703 C 0.83935 0.64797 0.04932 0.0
O1704 O 0.85818 0.71485 0.06305 0.0
O1705 O 0.82014 0.71195 0.05399 0.0
O1706 O 0.82081 0.65602 0.04143 0.0
O1707 O 0.85939 0.66114 0.04755 0.0
H1708 H 0.8227 0.74418 0.10207 0.0
H1709 H 0.83216 0.78457 0.11624 0.0
H1710 H 0.86873 0.79785 0.05858 0.0
H1711 H 0.859 0.75711 0.04432 0.0
H1712 H 0.87032 0.68614 0.92447 0.0
H1713 H 0.85983 0.7087 0.95702 0.0
H1714 H 0.86296 0.62591 0.95845 0.0
H1715 H 0.85221 0.64868 0.991 0.0
H1716 H 0.83075 0.58855 0.09213 0.0
H1717 H 0.84385 0.65727 0.12516 0.0
H1718 H 0.84352 0.67251 0.08959 0.0
H1719 H 0.83087 0.60376 0.05662 0.0
C1720 C 0.58091 0.31405 0.49479 0.0
C1721 C 0.58297 0.33775 0.50042 0.0
C1722 C 0.58483 0.34367 0.46207 0.0
C1723 C 0.58503 0.35245 0.48414 0.0
C1724 C 0.58162 0.31987 0.45639 0.0
C1725 C 0.57979 0.30518 0.4727 0.0
U1726 U 0.59827 0.30207 0.55313 0.0
O1727 O 0.62257 0.27783 0.55999 0.0
O1728 O 0.58616 0.27253 0.57074 0.0
C1729 C 0.60627 0.26448 0.56861 0.0
C1730 C 0.58395 0.29872 0.51152 0.0
C1731 C 0.61364 0.24848 0.58317 0.0
C1732 C 0.622 0.21008 0.58665 0.0
C1733 C 0.61466 0.22613 0.57389 0.0
C1734 C 0.62758 0.23868 0.6183 0.0
C1735 C 0.6284 0.2161 0.60903 0.0
C1736 C 0.62033 0.25485 0.6054 0.0
C1737 C 0.61435 0.36266 0.59094 0.0
C1738 C 0.62423 0.37985 0.62838 0.0
C1739 C 0.62258 0.40393 0.59911 0.0
C1740 C 0.61656 0.38452 0.58406 0.0
C1741 C 0.62633 0.40178 0.62137 0.0
C1742 C 0.61835 0.3603 0.61318 0.0
C1743 C 0.60726 0.34315 0.57417 0.0
O1744 O 0.606 0.29935 0.51874 0.0
O1745 O 0.56929 0.29835 0.52717 0.0
O1746 O 0.58694 0.32988 0.57472 0.0
O1747 O 0.62332 0.33357 0.56369 0.0
H1748 H 0.5841 0.34489 0.51742 0.0
H1749 H 0.58735 0.37074 0.48884 0.0
H1750 H 0.5816 0.31264 0.43952 0.0
H1751 H 0.57861 0.28692 0.46814 0.0
H1752 H 0.62189 0.19275 0.57914 0.0
H1753 H 0.60959 0.221 0.55668 0.0
H1754 H 0.63234 0.24373 0.63555 0.0
H1755 H 0.61981 0.27213 0.61273 0.0
H1756 H 0.62698 0.37793 0.64557 0.0
H1757 H 0.62366 0.42066 0.59344 0.0
H1758 H 0.61328 0.3866 0.56696 0.0
H1759 H 0.61669 0.34351 0.61875 0.0
C1760 C 0.29458 0.50108 0.12557 0.0
C1761 C 0.29387 0.47997 0.13417 0.0
C1762 C 0.3362 0.48089 0.13048 0.0
C1763 C 0.31463 0.47002 0.13678 0.0
C1764 C 0.33665 0.5017 0.1216 0.0
C1765 C 0.31616 0.51175 0.11936 0.0
U1766 U 0.22766 0.50278 0.11386 0.0
O1767 O 0.20445 0.52504 0.12949 0.0
O1768 O 0.21011 0.52584 0.0946 0.0
C1769 C 0.19958 0.534 0.11147 0.0
C1770 C 0.27357 0.51286 0.1232 0.0
C1771 C 0.19694 0.55848 0.11374 0.0
C1772 C 0.20549 0.59679 0.13329 0.0
C1773 C 0.21153 0.57482 0.12853 0.0
C1774 C 0.17119 0.58681 0.10749 0.0
C1775 C 0.18493 0.60276 0.12324 0.0
C1776 C 0.17713 0.56486 0.10287 0.0
C1777 C 0.18574 0.44499 0.10162 0.0
C1778 C 0.14289 0.43751 0.10215 0.0
C1779 C 0.16453 0.40726 0.08891 0.0
C1780 C 0.18567 0.42227 0.09294 0.0
C1781 C 0.14294 0.41465 0.09352 0.0
C1782 C 0.1642 0.45267 0.10608 0.0
C1783 C 0.20877 0.45956 0.10682 0.0
O1784 O 0.26359 0.51164 0.1033 0.0
O1785 O 0.2582 0.51085 0.13817 0.0
O1786 O 0.21213 0.47121 0.12633 0.0
O1787 O 0.21717 0.4712 0.09129 0.0
H1788 H 0.27737 0.47124 0.13889 0.0
H1789 H 0.31373 0.45374 0.1433 0.0
H1790 H 0.35301 0.51038 0.11656 0.0
H1791 H 0.31719 0.528 0.11274 0.0
H1792 H 0.21647 0.60889 0.14535 0.0
H1793 H 0.22693 0.5703 0.13709 0.0
H1794 H 0.15519 0.59083 0.09955 0.0
H1795 H 0.16552 0.55246 0.09154 0.0
H1796 H 0.12641 0.44362 0.10566 0.0
H1797 H 0.16511 0.3897 0.08247 0.0
H1798 H 0.20211 0.41601 0.08954 0.0
H1799 H 0.16391 0.47021 0.11278 0.0
C1800 C 0.33091 0.56547 0.85913 0.0
C1801 C 0.35557 0.56726 0.86268 0.0
C1802 C 0.35931 0.60895 0.86535 0.0
C1803 C 0.36965 0.5888 0.86575 0.0
C1804 C 0.33458 0.60693 0.862 0.0
C1805 C 0.32058 0.58543 0.85891 0.0
U1806 U 0.32232 0.50015 0.85452 0.0
O1807 O 0.29626 0.4756 0.86775 0.0
O1808 O 0.29791 0.47459 0.83221 0.0
C1809 C 0.28663 0.46653 0.84838 0.0
C1810 C 0.31565 0.54306 0.8556 0.0
C1811 C 0.26051 0.46323 0.84601 0.0
C1812 C 0.22323 0.47382 0.85746 0.0
C1813 C 0.24772 0.47911 0.85658 0.0
C1814 C 0.22362 0.43756 0.83565 0.0
C1815 C 0.21105 0.45282 0.84742 0.0
C1816 C 0.24821 0.44267 0.83511 0.0
C1817 C 0.38065 0.4743 0.86319 0.0
C1818 C 0.38623 0.43474 0.86494 0.0
C1819 C 0.42017 0.46447 0.86692 0.0
C1820 C 0.40518 0.48078 0.86526 0.0
C1821 C 0.41085 0.44138 0.86663 0.0
C1822 C 0.3711 0.4512 0.86323 0.0
C1823 C 0.36595 0.49235 0.86114 0.0
O1824 O 0.31809 0.53018 0.83744 0.0
O1825 O 0.31409 0.53161 0.87268 0.0
O1826 O 0.35215 0.49605 0.87701 0.0
O1827 O 0.35603 0.49347 0.8416 0.0
H1828 H 0.36391 0.55201 0.86296 0.0
H1829 H 0.38862 0.5897 0.86839 0.0
H1830 H 0.32605 0.62198 0.86115 0.0
H1831 H 0.3016 0.58439 0.85612 0.0
H1832 H 0.21387 0.48591 0.86648 0.0
H1833 H 0.25679 0.49515 0.86498 0.0
H1834 H 0.21467 0.42118 0.82788 0.0
H1835 H 0.25775 0.43014 0.82695 0.0
H1836 H 0.37882 0.41687 0.86434 0.0
H1837 H 0.43911 0.46979 0.86793 0.0
H1838 H 0.41279 0.49854 0.8653 0.0
H1839 H 0.35214 0.44594 0.86165 0.0
C1840 C 0.29744 0.43707 0.65375 0.0
C1841 C 0.32142 0.44425 0.65107 0.0
C1842 C 0.32792 0.40459 0.64334 0.0
C1843 C 0.33652 0.42817 0.64592 0.0
C1844 C 0.30382 0.39757 0.64594 0.0
C1845 C 0.28876 0.41366 0.65107 0.0
U1846 U 0.28712 0.49855 0.66066 0.0
O1847 O 0.25786 0.51583 0.64992 0.0
O1848 O 0.26904 0.51867 0.68498 0.0
C1849 C 0.25462 0.52444 0.66986 0.0
C1850 C 0.28136 0.45387 0.65904 0.0
C1851 C 0.23017 0.52675 0.675 0.0
C1852 C 0.18769 0.51662 0.66702 0.0
C1853 C 0.21064 0.51119 0.66548 0.0
C1854 C 0.20344 0.55245 0.68871 0.0
C1855 C 0.18396 0.53756 0.67817 0.0
C1856 C 0.22631 0.5471 0.68706 0.0
C1857 C 0.33995 0.54195 0.64955 0.0
C1858 C 0.33864 0.58166 0.64418 0.0
C1859 C 0.37622 0.56743 0.64696 0.0
C1860 C 0.36458 0.54584 0.64957 0.0
C1861 C 0.36338 0.58549 0.64421 0.0
C1862 C 0.32694 0.55996 0.64698 0.0
C1863 C 0.32842 0.51875 0.6515 0.0
O1864 O 0.28728 0.46759 0.67728 0.0
O1865 O 0.27484 0.46458 0.64265 0.0
O1866 O 0.31129 0.51039 0.63654 0.0
O1867 O 0.32359 0.51437 0.67132 0.0
H1868 H 0.32844 0.4623 0.65289 0.0
H1869 H 0.35485 0.43423 0.64368 0.0
H1870 H 0.29662 0.37959 0.64431 0.0
H1871 H 0.27032 0.40779 0.65301 0.0
H1872 H 0.17291 0.50479 0.65887 0.0
H1873 H 0.21318 0.4954 0.65605 0.0
H1874 H 0.20118 0.56877 0.69729 0.0
H1875 H 0.24115 0.55948 0.69428 0.0
H1876 H 0.32847 0.59545 0.64222 0.0
H1877 H 0.39531 0.56998 0.64684 0.0
H1878 H 0.37482 0.53207 0.65144 0.0
H1879 H 0.30785 0.55719 0.64699 0.0
C1880 C 0.25928 0.51678 0.33155 0.0
C1881 C 0.25472 0.53948 0.33391 0.0
C1882 C 0.29676 0.55348 0.33334 0.0
C1883 C 0.2733 0.55766 0.33481 0.0
C1884 C 0.30107 0.53073 0.32979 0.0
C1885 C 0.28249 0.51255 0.32902 0.0
U1886 U 0.19705 0.49678 0.34579 0.0
O1887 O 0.18366 0.47181 0.36777 0.0
O1888 O 0.17005 0.46734 0.33314 0.0
C1889 C 0.16889 0.45974 0.35238 0.0
C1890 C 0.24048 0.49772 0.33405 0.0
C1891 C 0.16244 0.43501 0.35353 0.0
C1892 C 0.16888 0.39512 0.34865 0.0
C1893 C 0.1772 0.41855 0.3481 0.0
C1894 C 0.13175 0.40488 0.36081 0.0
C1895 C 0.14587 0.38816 0.35467 0.0
C1896 C 0.13992 0.42794 0.3602 0.0
C1897 C 0.16359 0.5495 0.35973 0.0
C1898 C 0.12421 0.55258 0.37151 0.0
C1899 C 0.15129 0.58675 0.36726 0.0
C1900 C 0.16833 0.57336 0.36096 0.0
C1901 C 0.12915 0.57654 0.37256 0.0
C1902 C 0.14143 0.53903 0.36509 0.0
C1903 C 0.18257 0.53672 0.35283 0.0
O1904 O 0.23475 0.49642 0.35425 0.0
O1905 O 0.22195 0.49484 0.31989 0.0
O1906 O 0.17925 0.52408 0.33379 0.0
O1907 O 0.19379 0.5275 0.36795 0.0
H1908 H 0.23693 0.54316 0.33593 0.0
H1909 H 0.26943 0.57502 0.33739 0.0
H1910 H 0.31896 0.52698 0.32884 0.0
H1911 H 0.28638 0.49517 0.32733 0.0
H1912 H 0.17994 0.38247 0.34354 0.0
H1913 H 0.19473 0.4237 0.34297 0.0
H1914 H 0.11388 0.39996 0.36526 0.0
H1915 H 0.12829 0.44034 0.36448 0.0
H1916 H 0.10703 0.54443 0.37526 0.0
H1917 H 0.15529 0.60516 0.36776 0.0
H1918 H 0.1853 0.5817 0.35687 0.0
H1919 H 0.13746 0.52058 0.36417 0.0
H1920 H 0.06658 0.34997 0.07804 0.0
H1921 H 0.10849 0.40442 0.12106 0.0
H1922 H 0.12899 0.38771 0.05625 0.0
H1923 H 0.09896 0.37495 0.14403 0.0
C1924 C 0.07988 0.37275 0.14067 0.0
C1925 C 0.08145 0.36361 0.08089 0.0
C1926 C 0.09697 0.36763 0.06429 0.0
C1927 C 0.08556 0.37666 0.1015 0.0
C1928 C 0.10508 0.39426 0.10526 0.0
C1929 C 0.12076 0.39824 0.08895 0.0
C1930 C 0.11648 0.38497 0.06859 0.0
N1931 N 0.07064 0.37126 0.11857 0.0
H1932 H 0.9849 0.9017 0.37757 0.0
H1933 H 0.93248 0.93336 0.41224 0.0
H1934 H 0.93671 0.93758 0.34364 0.0
H1935 H 0.95967 0.93472 0.44169 0.0
C1936 C 0.96532 0.91806 0.43862 0.0
C1937 C 0.97095 0.91225 0.37785 0.0
C1938 C 0.9623 0.9194 0.35833 0.0
C1939 C 0.96087 0.91788 0.39765 0.0
C1940 C 0.94155 0.9302 0.39755 0.0
C1941 C 0.93309 0.9376 0.37812 0.0
C1942 C 0.94383 0.93255 0.35878 0.0
N1943 N 0.96914 0.90928 0.41691 0.0
H1944 H 0.41641 0.66408 0.6319 0.0
H1945 H 0.35658 0.61187 0.61188 0.0
H1946 H 0.39901 0.60909 0.67078 0.0
H1947 H 0.36413 0.62197 0.57827 0.0
C1948 C 0.36857 0.64044 0.58137 0.0
C1949 C 0.40493 0.64876 0.63481 0.0
C1950 C 0.40938 0.63802 0.65347 0.0
C1951 C 0.38593 0.63945 0.61964 0.0
C1952 C 0.37135 0.61929 0.62333 0.0
C1953 C 0.37624 0.60821 0.64165 0.0
C1954 C 0.39501 0.61784 0.65675 0.0
N1955 N 0.38189 0.65078 0.60094 0.0
H1956 H 0.56912 0.13094 0.91489 0.0
H1957 H 0.60797 0.09076 0.87226 0.0
H1958 H 0.62372 0.09647 0.94161 0.0
H1959 H 0.60633 0.12726 0.85627 0.0
C1960 C 0.58714 0.12567 0.85526 0.0
C1961 C 0.58223 0.11957 0.91281 0.0
C1962 C 0.59584 0.11481 0.9311 0.0
C1963 C 0.58673 0.11132 0.89159 0.0
C1964 C 0.60408 0.09698 0.88862 0.0
C1965 C 0.61675 0.09097 0.90673 0.0
C1966 C 0.61259 0.09986 0.92788 0.0
N1967 N 0.57489 0.11893 0.87345 0.0
H1968 H 0.07123 0.63816 0.38913 0.0
H1969 H 0.1158 0.59211 0.41237 0.0
H1970 H 0.1034 0.59442 0.34333 0.0
H1971 H 0.09819 0.59934 0.44483 0.0
C1972 C 0.093 0.61619 0.44463 0.0
C1973 C 0.08202 0.62482 0.38566 0.0
C1974 C 0.08551 0.61715 0.36394 0.0
C1975 C 0.09219 0.61557 0.40318 0.0
C1976 C 0.10687 0.59872 0.39903 0.0
C1977 C 0.11107 0.59134 0.37735 0.0
C1978 C 0.10027 0.60047 0.35996 0.0
N1979 N 0.08806 0.62487 0.42455 0.0
H1980 H 0.58206 0.85574 0.59499 0.0
H1981 H 0.62277 0.91273 0.6357 0.0
H1982 H 0.6405 0.89643 0.56987 0.0
H1983 H 0.61423 0.88625 0.66174 0.0
C1984 C 0.59533 0.88212 0.65751 0.0
C1985 C 0.59629 0.87002 0.59704 0.0
C1986 C 0.61043 0.87463 0.57955 0.0
C1987 C 0.60084 0.88341 0.61747 0.0
C1988 C 0.61918 0.90213 0.62015 0.0
C1989 C 0.63337 0.90688 0.60291 0.0
C1990 C 0.6289 0.89311 0.58281 0.0
N1991 N 0.5868 0.87779 0.63505 0.0
H1992 H 0.47487 0.3839 0.86151 0.0
H1993 H 0.42626 0.41849 0.89905 0.0
H1994 H 0.43167 0.42727 0.83143 0.0
H1995 H 0.45251 0.41555 0.92737 0.0
C1996 C 0.4567 0.3984 0.92343 0.0
C1997 C 0.46177 0.39537 0.86267 0.0
C1998 C 0.45437 0.40501 0.84405 0.0
C1999 C 0.452 0.40035 0.8828 0.0
C2000 C 0.43439 0.41472 0.88394 0.0
C2001 C 0.42721 0.42441 0.86541 0.0
C2002 C 0.43725 0.41958 0.84569 0.0
N2003 N 0.45954 0.39011 0.90133 0.0
H2004 H 0.93485 0.16969 0.13765 0.0
H2005 H 0.87565 0.11723 0.11577 0.0
H2006 H 0.91915 0.11182 0.17332 0.0
H2007 H 0.88214 0.12967 0.08298 0.0
C2008 C 0.8863 0.14809 0.08689 0.0
C2009 C 0.92384 0.1538 0.13972 0.0
C2010 C 0.92892 0.14186 0.15747 0.0
C2011 C 0.90467 0.14503 0.12442 0.0
C2012 C 0.89057 0.12422 0.12719 0.0
C2013 C 0.896 0.11205 0.14464 0.0
C2014 C 0.91492 0.12117 0.15978 0.0
N2015 N 0.89986 0.15757 0.10666 0.0
H2016 H 0.12097 0.06451 0.30207 0.0
H2017 H 0.14364 0.06768 0.3703 0.0
H2018 H 0.08418 0.0991 0.3512 0.0
H2019 H 0.18016 0.07735 0.34821 0.0
C2020 C 0.17577 0.05972 0.34079 0.0
C2021 C 0.118 0.06881 0.3191 0.0
C2022 C 0.10031 0.08201 0.32479 0.0
C2023 C 0.13347 0.06325 0.3356 0.0
C2024 C 0.13089 0.07065 0.35764 0.0
C2025 C 0.11307 0.0835 0.36329 0.0
C2026 C 0.09718 0.08808 0.3469 0.0
N2027 N 0.15301 0.05224 0.32995 0.0
H2028 H 0.13503 0.8573 0.6346 0.0
H2029 H 0.07929 0.82634 0.67076 0.0
H2030 H 0.10757 0.897 0.68718 0.0
H2031 H 0.0974 0.79551 0.66288 0.0
C2032 C 0.10098 0.79609 0.64582 0.0
C2033 C 0.12317 0.85852 0.6476 0.0
C2034 C 0.12295 0.87967 0.66026 0.0
C2035 C 0.10803 0.83888 0.65159 0.0
C2036 C 0.09213 0.84079 0.66814 0.0
C2037 C 0.09226 0.86165 0.68112 0.0
C2038 C 0.10775 0.88087 0.6772 0.0
N2039 N 0.10866 0.81766 0.63852 0.0
H2040 H 0.3553 0.94792 0.83717 0.0
H2041 H 0.38351 0.89269 0.86416 0.0
H2042 H 0.32343 0.91712 0.89088 0.0
H2043 H 0.41815 0.91248 0.85587 0.0
C2044 C 0.41281 0.91504 0.83923 0.0
C2045 C 0.35494 0.93579 0.84911 0.0
C2046 C 0.33686 0.93426 0.86385 0.0
C2047 C 0.37249 0.92139 0.84966 0.0
C2048 C 0.37116 0.9049 0.86439 0.0
C2049 C 0.35356 0.90342 0.87916 0.0
C2050 C 0.33689 0.9184 0.87923 0.0
N2051 N 0.39074 0.92285 0.83483 0.0
H2052 H 0.39568 0.16502 0.08391 0.0
H2053 H 0.4538 0.19834 0.12877 0.0
H2054 H 0.42022 0.13124 0.13739 0.0
H2055 H 0.43805 0.23008 0.12028 0.0
C2056 C 0.43452 0.22639 0.10267 0.0
C2057 C 0.40792 0.16469 0.09789 0.0
C2058 C 0.40623 0.1453 0.10939 0.0
C2059 C 0.42485 0.18405 0.10481 0.0
C2060 C 0.44065 0.18367 0.12311 0.0
C2061 C 0.43908 0.16449 0.13461 0.0
C2062 C 0.422 0.14548 0.12768 0.0
N2063 N 0.42546 0.20366 0.09329 0.0
H2064 H 0.14799 0.96065 0.18802 0.0
H2065 H 0.16361 0.91663 0.13216 0.0
H2066 H 0.10347 0.8964 0.16724 0.0
H2067 H 0.20132 0.93159 0.1439 0.0
C2068 C 0.1995 0.94956 0.14689 0.0
C2069 C 0.14411 0.94482 0.17719 0.0
C2070 C 0.12377 0.92907 0.17953 0.0
C2071 C 0.15925 0.9401 0.16052 0.0
C2072 C 0.15328 0.91993 0.14599 0.0
C2073 C 0.13347 0.9041 0.14867 0.0
C2074 C 0.11908 0.90856 0.16557 0.0
N2075 N 0.17974 0.95602 0.15789 0.0
H2076 H 0.33167 0.86892 0.4116 0.0
H2077 H 0.38528 0.83403 0.38319 0.0
H2078 H 0.37606 0.9003 0.36568 0.0
H2079 H 0.35453 0.80271 0.38495 0.0
C2080 C 0.35029 0.8071 0.40167 0.0
C2081 C 0.34583 0.86856 0.40071 0.0
C2082 C 0.35245 0.88718 0.38894 0.0
C2083 C 0.35693 0.84903 0.39808 0.0
C2084 C 0.37588 0.84863 0.3846 0.0
C2085 C 0.38291 0.86726 0.37307 0.0
C2086 C 0.37089 0.88622 0.37504 0.0
N2087 N 0.34892 0.83021 0.40944 0.0
H2088 H 0.33652 0.0908 0.67377 0.0
H2089 H 0.37129 0.1342 0.63003 0.0
H2090 H 0.30154 0.09857 0.61186 0.0
H2091 H 0.40381 0.13301 0.65019 0.0
C2092 C 0.39952 0.12805 0.66607 0.0
C2093 C 0.33642 0.09817 0.65843 0.0
C2094 C 0.31625 0.09325 0.64362 0.0
C2095 C 0.35659 0.11263 0.6537 0.0
C2096 C 0.35627 0.12263 0.634 0.0
C2097 C 0.33641 0.11747 0.61897 0.0
C2098 C 0.31662 0.10276 0.62377 0.0
N2099 N 0.37652 0.11681 0.66928 0.0
H2100 H 0.16622 0.16423 0.90251 0.0
H2101 H 0.13905 0.1172 0.84623 0.0
H2102 H 0.11233 0.18095 0.85807 0.0
H2103 H 0.18748 0.11478 0.85358 0.0
C2104 C 0.1813 0.10924 0.86875 0.0
C2105 C 0.15519 0.16045 0.88733 0.0
C2106 C 0.14008 0.1758 0.88131 0.0
C2107 C 0.15566 0.13978 0.87429 0.0
C2108 C 0.14036 0.13405 0.85524 0.0
C2109 C 0.12474 0.14897 0.84935 0.0
C2110 C 0.12531 0.1701 0.862 0.0
N2111 N 0.16893 0.12359 0.8823 0.0
H2112 H 0.82616 0.36475 0.90683 0.0
H2113 H 0.88559 0.33685 0.88144 0.0
H2114 H 0.86408 0.39643 0.857 0.0
H2115 H 0.85578 0.30269 0.88515 0.0
C2116 C 0.85389 0.30785 0.90232 0.0
C2117 C 0.84027 0.36542 0.89584 0.0
C2118 C 0.84309 0.38262 0.88177 0.0
C2119 C 0.8552 0.34862 0.89544 0.0
C2120 C 0.87377 0.34955 0.88145 0.0
C2121 C 0.87724 0.36691 0.86763 0.0
C2122 C 0.86167 0.38319 0.8678 0.0
N2123 N 0.85126 0.33091 0.90919 0.0
H2124 H 0.84158 0.58507 0.18674 0.0
H2125 H 0.87417 0.62794 0.14129 0.0
H2126 H 0.80273 0.59555 0.12762 0.0
H2127 H 0.90642 0.61638 0.15386 0.0
C2128 C 0.90476 0.61606 0.17128 0.0
C2129 C 0.84068 0.59281 0.17163 0.0
C2130 C 0.81942 0.58941 0.1583 0.0
C2131 C 0.86083 0.60625 0.16549 0.0
C2132 C 0.8593 0.61672 0.14607 0.0
C2133 C 0.83848 0.61256 0.13234 0.0
C2134 C 0.81873 0.59886 0.13845 0.0
N2135 N 0.88228 0.60913 0.17905 0.0
H2136 H 0.6718 0.67149 0.40301 0.0
H2137 H 0.63507 0.62923 0.3469 0.0
H2138 H 0.61335 0.69351 0.36827 0.0
H2139 H 0.64249 0.60205 0.37167 0.0
C2140 C 0.66143 0.60765 0.37425 0.0
C2141 C 0.65851 0.66898 0.38941 0.0
C2142 C 0.64342 0.68549 0.38693 0.0
C2143 C 0.65564 0.6486 0.37505 0.0
C2144 C 0.63786 0.64504 0.3578 0.0
C2145 C 0.62267 0.66126 0.35538 0.0
C2146 C 0.62587 0.68155 0.36965 0.0
N2147 N 0.67001 0.63148 0.37873 0.0
H2148 H 0.84766 0.43977 0.31268 0.0
H2149 H 0.88343 0.40013 0.35512 0.0
H2150 H 0.82672 0.43379 0.37787 0.0
H2151 H 0.91276 0.4064 0.33467 0.0
C2152 C 0.90538 0.40738 0.31826 0.0
C2153 C 0.85028 0.43363 0.32843 0.0
C2154 C 0.83543 0.43866 0.3451 0.0
C2155 C 0.8684 0.42043 0.33207 0.0
C2156 C 0.87057 0.41133 0.35221 0.0
C2157 C 0.85587 0.41645 0.36889 0.0
C2158 C 0.83866 0.43039 0.36528 0.0
N2159 N 0.88357 0.41594 0.31505 0.0
H2160 H 0.61175 0.55798 0.80091 0.0
H2161 H 0.63794 0.5614 0.86805 0.0
H2162 H 0.57759 0.59304 0.852 0.0
H2163 H 0.63623 0.51522 0.84729 0.0
C2164 C 0.64966 0.52523 0.8391 0.0
C2165 C 0.60982 0.56273 0.8181 0.0
C2166 C 0.59256 0.57631 0.82453 0.0
C2167 C 0.62519 0.55592 0.83396 0.0
C2168 C 0.62437 0.56421 0.85609 0.0
C2169 C 0.60742 0.57793 0.86242 0.0
C2170 C 0.59063 0.5824 0.84683 0.0
N2171 N 0.64328 0.54314 0.82745 0.0
H2172 H 0.90367 0.66695 0.91348 0.0
H2173 H 0.89621 0.60485 0.8696 0.0
H2174 H 0.8482 0.61164 0.92016 0.0
H2175 H 0.94006 0.6177 0.87364 0.0
C2176 C 0.93788 0.63438 0.86882 0.0
C2177 C 0.89433 0.64996 0.90811 0.0
C2178 C 0.87508 0.64085 0.91932 0.0
C2179 C 0.90232 0.63701 0.89045 0.0
C2180 C 0.89049 0.61485 0.88349 0.0
C2181 C 0.87072 0.60582 0.89396 0.0
C2182 C 0.86321 0.61881 0.91189 0.0
N2183 N 0.92151 0.64702 0.8793 0.0
H2184 H 0.05209 0.13603 0.61996 0.0
H2185 H 0.10482 0.09813 0.59302 0.0
H2186 H 0.08472 0.09108 0.65819 0.0
H2187 H 0.08465 0.10189 0.56056 0.0
C2188 C 0.08111 0.11938 0.56339 0.0
C2189 C 0.06429 0.12382 0.62148 0.0
C2190 C 0.06675 0.11401 0.64104 0.0
C2191 C 0.0776 0.11787 0.60382 0.0
C2192 C 0.09404 0.10257 0.60622 0.0
C2193 C 0.09647 0.09273 0.62576 0.0
C2194 C 0.08275 0.09853 0.64299 0.0
N2195 N 0.07468 0.12815 0.58424 0.0
H2196 H 0.55485 0.35051 0.38586 0.0
H2197 H 0.61853 0.38632 0.42166 0.0
H2198 H 0.60116 0.39991 0.35627 0.0
H2199 H 0.59743 0.37703 0.45068 0.0
C2200 C 0.58921 0.35958 0.44538 0.0
C2201 C 0.57107 0.36249 0.38659 0.0
C2202 C 0.57652 0.37436 0.36857 0.0
C2203 C 0.58623 0.3663 0.40574 0.0
C2204 C 0.60678 0.38268 0.40695 0.0
C2205 C 0.61225 0.39453 0.38896 0.0
C2206 C 0.59735 0.38999 0.36978 0.0
N2207 N 0.58051 0.35316 0.42322 0.0
H2208 H 0.40689 0.86021 0.10903 0.0
H2209 H 0.40825 0.92562 0.14717 0.0
H2210 H 0.37894 0.91521 0.08095 0.0
H2211 H 0.44873 0.91331 0.15764 0.0
C2212 C 0.43877 0.89822 0.16301 0.0
C2213 C 0.40339 0.87771 0.11025 0.0
C2214 C 0.39164 0.88569 0.09244 0.0
C2215 C 0.41029 0.89235 0.12986 0.0
C2216 C 0.40436 0.91465 0.13183 0.0
C2217 C 0.39268 0.92255 0.11425 0.0
C2218 C 0.38738 0.90847 0.09454 0.0
N2219 N 0.42151 0.88406 0.14802 0.0
H2220 H 0.90346 0.38517 0.60579 0.0
H2221 H 0.89717 0.44976 0.64126 0.0
H2222 H 0.86471 0.43265 0.57595 0.0
H2223 H 0.93607 0.44053 0.65734 0.0
C2224 C 0.92776 0.42385 0.6608 0.0
C2225 C 0.89672 0.40131 0.6063 0.0
C2226 C 0.88362 0.40678 0.58795 0.0
C2227 C 0.90173 0.4166 0.62549 0.0
C2228 C 0.89374 0.43794 0.62643 0.0
C2229 C 0.88028 0.44363 0.60857 0.0
C2230 C 0.8753 0.4281 0.58947 0.0
N2231 N 0.91305 0.40922 0.64412 0.0
H2232 H 0.41391 0.1753 0.40205 0.0
H2233 H 0.40572 0.1128 0.35889 0.0
H2234 H 0.36435 0.11721 0.41456 0.0
H2235 H 0.4537 0.13161 0.37253 0.0
C2236 C 0.44911 0.14423 0.3621 0.0
C2237 C 0.40536 0.15782 0.39784 0.0
C2238 C 0.38847 0.14786 0.41109 0.0
C2239 C 0.41185 0.1451 0.37934 0.0
C2240 C 0.40126 0.12237 0.37365 0.0
C2241 C 0.38438 0.11227 0.38653 0.0
C2242 C 0.37823 0.12492 0.40529 0.0
N2243 N 0.42919 0.15512 0.36643 0.0
H2244 H 0.55571 0.63668 0.12393 0.0
H2245 H 0.60611 0.59484 0.09883 0.0
H2246 H 0.58869 0.59483 0.16553 0.0
H2247 H 0.58599 0.59704 0.06598 0.0
C2248 C 0.58254 0.61461 0.06784 0.0
C2249 C 0.56761 0.62434 0.12623 0.0
C2250 C 0.57071 0.61658 0.14671 0.0
C2251 C 0.57995 0.6163 0.10868 0.0
C2252 C 0.59607 0.60092 0.112 0.0
C2253 C 0.59916 0.59317 0.13251 0.0
C2254 C 0.58635 0.60092 0.14969 0.0
N2255 N 0.57649 0.6248 0.08827 0.0
H2256 H 0.04939 0.86043 0.9022 0.0
H2257 H 0.11679 0.88432 0.9378 0.0
H2258 H 0.10035 0.90886 0.87654 0.0
H2259 H 0.09428 0.8752 0.96684 0.0
C2260 C 0.0845 0.8588 0.95987 0.0
C2261 C 0.06652 0.87108 0.90375 0.0
C2262 C 0.07321 0.88462 0.88723 0.0
C2263 C 0.082 0.87093 0.92215 0.0
C2264 C 0.10433 0.88473 0.92403 0.0
C2265 C 0.1109 0.89868 0.9077 0.0
C2266 C 0.09524 0.89844 0.88939 0.0
N2267 N 0.07516 0.85578 0.93777 0.0
H2268 H 0.89588 0.96996 0.70078 0.0
H2269 H 0.89689 0.96278 0.63057 0.0
H2270 H 0.95394 0.94466 0.66954 0.0
H2271 H 0.88128 0.99754 0.63666 0.0
C2272 C 0.86738 0.99153 0.64685 0.0
C2273 C 0.90476 0.96577 0.68617 0.0
C2274 C 0.92603 0.95641 0.68767 0.0
C2275 C 0.89465 0.96924 0.6656 0.0
C2276 C 0.90541 0.96206 0.64656 0.0
C2277 C 0.92638 0.95249 0.64809 0.0
C2278 C 0.9372 0.95118 0.66859 0.0
N2279 N 0.8731 0.9787 0.66416 0.0
H2280 H 0.85664 0.15719 0.38786 0.0
H2281 H 0.91038 0.20776 0.36822 0.0
H2282 H 0.91072 0.13643 0.34802 0.0
H2283 H 0.89902 0.21127 0.41754 0.0
C2284 C 0.88349 0.21622 0.40944 0.0
C2285 C 0.8723 0.16142 0.37921 0.0
C2286 C 0.88298 0.14392 0.36843 0.0
C2287 C 0.88253 0.18444 0.37966 0.0
C2288 C 0.90295 0.19 0.36845 0.0
C2289 C 0.91329 0.17261 0.35709 0.0
C2290 C 0.90318 0.14982 0.3573 0.0
N2291 N 0.87184 0.20199 0.39087 0.0
H2292 H 0.639 0.07934 0.20962 0.0
H2293 H 0.66656 0.07567 0.14616 0.0
H2294 H 0.60394 0.10579 0.15615 0.0
H2295 H 0.66623 0.03334 0.16264 0.0
C2296 C 0.67869 0.04379 0.17489 0.0
C2297 C 0.63738 0.08229 0.1926 0.0
C2298 C 0.61926 0.09371 0.18476 0.0
C2299 C 0.65371 0.07469 0.17846 0.0
C2300 C 0.65301 0.08001 0.15674 0.0
C2301 C 0.63549 0.09211 0.14921 0.0
C2302 C 0.61807 0.0976 0.16279 0.0
N2303 N 0.67183 0.0633 0.18673 0.0
H2304 H 0.65597 0.8572 0.9154 0.0
H2305 H 0.60106 0.82078 0.86884 0.0
H2306 H 0.62938 0.8903 0.86252 0.0
H2307 H 0.61815 0.78929 0.87876 0.0
C2308 C 0.62087 0.7941 0.89631 0.0
C2309 C 0.64476 0.85644 0.9005 0.0
C2310 C 0.64498 0.87581 0.8894 0.0
C2311 C 0.62971 0.83615 0.89267 0.0
C2312 C 0.61398 0.83574 0.87415 0.0
C2313 C 0.61407 0.8552 0.86308 0.0
C2314 C 0.62992 0.87497 0.87053 0.0
N2315 N 0.62948 0.81712 0.90478 0.0
H2316 H 0.8392 0.05297 0.83396 0.0
H2317 H 0.88026 0.11717 0.86209 0.0
H2318 H 0.8186 0.09159 0.89122 0.0
H2319 H 0.90439 0.11212 0.839 0.0
C2320 C 0.89857 0.09795 0.82655 0.0
C2321 C 0.84183 0.0679 0.84599 0.0
C2322 C 0.82573 0.07013 0.86247 0.0
C2323 C 0.86157 0.08494 0.8451 0.0
C2324 C 0.8651 0.10408 0.86117 0.0
C2325 C 0.84913 0.10649 0.87712 0.0
C2326 C 0.82966 0.0898 0.87765 0.0
N2327 N 0.87755 0.08232 0.82823 0.0
H2328 H 0.6563 0.18243 0.60135 0.0
H2329 H 0.63634 0.14581 0.65548 0.0
H2330 H 0.60885 0.20796 0.6462 0.0
H2331 H 0.68643 0.14744 0.6497 0.0
C2332 C 0.67934 0.13733 0.63444 0.0
C2333 C 0.64722 0.18141 0.61623 0.0
C2334 C 0.63322 0.19817 0.62296 0.0
C2335 C 0.64944 0.16318 0.62857 0.0
C2336 C 0.63641 0.16095 0.64711 0.0
C2337 C 0.62146 0.17697 0.65324 0.0
C2338 C 0.62095 0.19602 0.64177 0.0
N2339 N 0.66262 0.14584 0.62076 0.0
H2340 H 0.63356 0.9398 0.32931 0.0
H2341 H 0.67176 0.91128 0.37916 0.0
H2342 H 0.59743 0.88891 0.36547 0.0
H2343 H 0.7022 0.9195 0.35645 0.0
C2344 C 0.69939 0.93632 0.35246 0.0
C2345 C 0.63364 0.92836 0.34187 0.0
C2346 C 0.61259 0.9145 0.3458 0.0
C2347 C 0.65511 0.92715 0.35351 0.0
C2348 C 0.65541 0.91242 0.36991 0.0
C2349 C 0.63446 0.89912 0.37458 0.0
C2350 C 0.6132 0.90021 0.36255 0.0
N2351 N 0.67596 0.94113 0.34851 0.0
H2352 H 0.82848 0.86385 0.12644 0.0
H2353 H 0.89355 0.83709 0.13647 0.0
H2354 H 0.88532 0.90277 0.16931 0.0
H2355 H 0.8746 0.82808 0.09157 0.0
C2356 C 0.86016 0.81803 0.09852 0.0
C2357 C 0.84618 0.86581 0.13425 0.0
C2358 C 0.85534 0.88583 0.14807 0.0
C2359 C 0.85992 0.84841 0.12979 0.0
C2360 C 0.88307 0.85075 0.13956 0.0
C2361 C 0.89215 0.87022 0.15423 0.0
C2362 C 0.87824 0.88769 0.1582 0.0
N2363 N 0.8495 0.82802 0.11666 0.0
H2364 H 0.14849 0.66934 0.09918 0.0
H2365 H 0.1389 0.63352 0.15574 0.0
H2366 H 0.10327 0.69143 0.14814 0.0
H2367 H 0.1841 0.63405 0.14626 0.0
C2368 C 0.17696 0.6248 0.1306 0.0
C2369 C 0.1407 0.66761 0.11464 0.0
C2370 C 0.12586 0.6831 0.12258 0.0
C2371 C 0.14588 0.65 0.12669 0.0
C2372 C 0.1356 0.64751 0.14663 0.0
C2373 C 0.11991 0.66225 0.15415 0.0
C2374 C 0.11541 0.68013 0.14226 0.0
N2375 N 0.16 0.63398 0.11777 0.0
H2376 H 0.12808 0.43201 0.81615 0.0
H2377 H 0.16415 0.40365 0.86715 0.0
H2378 H 0.08904 0.38517 0.85466 0.0
H2379 H 0.1788 0.4541 0.86557 0.0
C2380 C 0.18577 0.44635 0.85103 0.0
C2381 C 0.12731 0.4213 0.82932 0.0
C2382 C 0.10551 0.40931 0.83415 0.0
C2383 C 0.14831 0.41977 0.84153 0.0
C2384 C 0.14776 0.40576 0.85846 0.0
C2385 C 0.12634 0.39341 0.86331 0.0
C2386 C 0.1053 0.39555 0.85141 0.0
N2387 N 0.17021 0.43099 0.83568 0.0
H2388 H 0.3181 0.36508 0.61538 0.0
H2389 H 0.38604 0.34302 0.62211 0.0
H2390 H 0.37339 0.40501 0.65933 0.0
H2391 H 0.36893 0.33303 0.57949 0.0
C2392 C 0.35398 0.32264 0.58536 0.0
C2393 C 0.33597 0.36786 0.62291 0.0
C2394 C 0.34391 0.38738 0.63782 0.0
C2395 C 0.35107 0.35206 0.61697 0.0
C2396 C 0.37447 0.35549 0.62633 0.0
C2397 C 0.38249 0.37442 0.64198 0.0
C2398 C 0.36715 0.39031 0.64746 0.0
N2399 N 0.34177 0.33208 0.6027 0.0
H2400 H 0.12719 0.57936 0.72112 0.0
H2401 H 0.14136 0.57594 0.65316 0.0
H2402 H 0.08676 0.61262 0.67649 0.0
H2403 H 0.14678 0.5357 0.6647 0.0
C2404 C 0.16008 0.54449 0.67717 0.0
C2405 C 0.12296 0.58341 0.70477 0.0
C2406 C 0.10516 0.59696 0.70103 0.0
C2407 C 0.13559 0.57518 0.68747 0.0
C2408 C 0.13089 0.58121 0.66634 0.0
C2409 C 0.11381 0.59543 0.66261 0.0
C2410 C 0.10062 0.60251 0.67979 0.0
N2411 N 0.15428 0.56255 0.69198 0.0
H2412 H 0.38834 0.44945 0.18485 0.0
H2413 H 0.3848 0.4391 0.11449 0.0
H2414 H 0.44236 0.41918 0.15133 0.0
H2415 H 0.37193 0.47597 0.12112 0.0
C2416 C 0.35835 0.47067 0.1319 0.0
C2417 C 0.39601 0.44396 0.1699 0.0
C2418 C 0.41665 0.43351 0.17073 0.0
C2419 C 0.38495 0.44701 0.14963 0.0
C2420 C 0.39404 0.43841 0.13016 0.0
C2421 C 0.41424 0.42759 0.13098 0.0
C2422 C 0.42607 0.4265 0.1511 0.0
N2423 N 0.36413 0.45765 0.14902 0.0
H2424 H 0.64586 0.35649 0.13109 0.0
H2425 H 0.58821 0.31832 0.15954 0.0
H2426 H 0.60849 0.3897 0.18087 0.0
H2427 H 0.6143 0.29104 0.15513 0.0
C2428 C 0.61769 0.29266 0.13817 0.0
C2429 C 0.63219 0.35582 0.14254 0.0
C2430 C 0.62878 0.37578 0.15568 0.0
C2431 C 0.61818 0.33484 0.14432 0.0
C2432 C 0.59999 0.33408 0.15875 0.0
C2433 C 0.59666 0.35384 0.17198 0.0
C2434 C 0.61118 0.37449 0.17053 0.0
N2435 N 0.62239 0.31482 0.13127 0.0
H2436 H 0.89732 0.69676 0.60614 0.0
H2437 H 0.95652 0.72536 0.65172 0.0
H2438 H 0.91714 0.66019 0.65929 0.0
H2439 H 0.94701 0.75893 0.64208 0.0
C2440 C 0.94259 0.75514 0.6246 0.0
C2441 C 0.90863 0.69567 0.62056 0.0
C2442 C 0.90509 0.67611 0.63175 0.0
C2443 C 0.92683 0.71385 0.62787 0.0
C2444 C 0.9418 0.71209 0.64636 0.0
C2445 C 0.93819 0.69286 0.65783 0.0
C2446 C 0.91979 0.6751 0.6505 0.0
N2447 N 0.93021 0.73321 0.61592 0.0
H2448 H 0.63879 0.4787 0.67728 0.0
H2449 H 0.66106 0.43746 0.6225 0.0
H2450 H 0.59989 0.4123 0.65403 0.0
H2451 H 0.69675 0.45517 0.63452 0.0
C2452 C 0.69409 0.47272 0.639 0.0
C2453 C 0.63656 0.4631 0.66611 0.0
C2454 C 0.61697 0.44598 0.66722 0.0
C2455 C 0.65321 0.45997 0.65035 0.0
C2456 C 0.6495 0.43984 0.63554 0.0
C2457 C 0.63063 0.42254 0.63722 0.0
C2458 C 0.61466 0.42566 0.65307 0.0
N2459 N 0.67316 0.47718 0.64928 0.0
H2460 H 0.35174 0.64969 0.88762 0.0
H2461 H 0.40971 0.69252 0.8647 0.0
H2462 H 0.39988 0.61989 0.84595 0.0
H2463 H 0.38794 0.68366 0.92054 0.0
C2464 C 0.37889 0.69606 0.91297 0.0
C2465 C 0.36722 0.65138 0.87829 0.0
C2466 C 0.37419 0.63187 0.86686 0.0
C2467 C 0.38015 0.67321 0.87764 0.0
C2468 C 0.40002 0.67562 0.86543 0.0
C2469 C 0.40758 0.65633 0.85443 0.0
C2470 C 0.39472 0.63458 0.8554 0.0
N2471 N 0.37384 0.69271 0.88997 0.0
H2472 H 0.15319 0.35239 0.37841 0.0
H2473 H 0.09169 0.30662 0.34905 0.0
H2474 H 0.11127 0.37106 0.32495 0.0
H2475 H 0.08994 0.30499 0.38779 0.0
C2476 C 0.10711 0.29933 0.38961 0.0
C2477 C 0.13888 0.34801 0.36575 0.0
C2478 C 0.13438 0.36398 0.35128 0.0
C2479 C 0.12349 0.32716 0.36508 0.0
C2480 C 0.10391 0.32235 0.34953 0.0
C2481 C 0.09969 0.33796 0.33482 0.0
C2482 C 0.11522 0.35843 0.33555 0.0
N2483 N 0.12677 0.31188 0.38096 0.0
H2484 H 0.33616 0.56249 0.31048 0.0
H2485 H 0.37022 0.621 0.35386 0.0
H2486 H 0.30275 0.58639 0.36747 0.0
H2487 H 0.40337 0.60979 0.34039 0.0
C2488 C 0.39812 0.60436 0.32323 0.0
C2489 C 0.33611 0.57453 0.32495 0.0
C2490 C 0.31677 0.57259 0.33805 0.0
C2491 C 0.3556 0.59179 0.33053 0.0
C2492 C 0.35549 0.60749 0.34931 0.0
C2493 C 0.33647 0.60551 0.36268 0.0
C2494 C 0.3172 0.58817 0.35687 0.0
N2495 N 0.37478 0.59303 0.31678 0.0
loop_
_geom_bond_atom_site_label_1
_geom_bond_atom_site_label_2
_geom_bond_distance
_geom_bond_site_symmetry_2
_ccdc_geom_bond_type
C0 C1 1.264 . S
C0 C5 1.479 . S
C0 C10 1.465 . S
C1 C0 1.264 . S
C1 C3 1.339 . S
C1 H28 0.931 . S
C2 C3 1.395 . S
C2 C4 1.320 . S
C3 C1 1.339 . S
C3 C2 1.395 . S
C3 H29 0.929 . S
C4 C2 1.320 . S
C4 C5 1.405 . S
C4 H30 0.930 . S
C5 C0 1.479 . S
C5 C4 1.405 . S
C5 H31 0.931 . S
U6 O7 2.454 . S
U6 O8 2.458 1_655 S
U6 C9 2.984 1_655 S
U6 C10 2.847 . S
U6 C23 2.882 1_655 S
U6 O24 2.441 . S
U6 O25 2.420 . S
U6 O26 2.455 1_655 S
U6 O27 2.448 . S
O7 U6 2.454 . S
O7 C9 1.353 1_655 S
O8 U6 2.458 1_455 S
O8 C9 1.286 . S
C9 U6 2.984 1_455 S
C9 O7 1.353 1_455 S
C9 O8 1.286 . S
C9 C11 1.363 . S
C10 C0 1.465 . S
C10 U6 2.847 . S
C10 O24 1.249 . S
C10 O25 1.202 . S
C11 C9 1.363 . S
C11 C13 1.408 . S
C11 C16 1.342 . S
C12 C13 1.310 . S
C12 C15 1.461 . S
C12 H32 0.905 1_455 S
C13 C11 1.408 . S
C13 C12 1.310 . S
C13 H33 0.930 1_455 S
C14 C15 1.474 . S
C14 C16 1.285 . S
C14 H34 0.929 . S
C15 C12 1.461 . S
C15 C14 1.474 . S
C16 C11 1.342 . S
C16 C14 1.285 . S
C16 H35 0.930 . S
C17 C20 1.424 . S
C17 C22 1.245 . S
C17 C23 1.428 . S
C18 C21 1.260 . S
C18 C22 1.477 . S
C18 H36 0.932 . S
C19 C20 1.384 . S
C19 C21 1.479 . S
C19 H37 0.929 . S
C20 C17 1.424 . S
C20 C19 1.384 . S
C20 H38 0.928 . S
C21 C18 1.260 . S
C21 C19 1.479 . S
C22 C17 1.245 . S
C22 C18 1.477 . S
C22 H39 0.932 . S
C23 U6 2.882 1_455 S
C23 C17 1.428 . S
C23 O26 1.301 . S
C23 O27 1.287 1_455 S
O24 U6 2.441 . S
O24 C10 1.249 . S
O25 U6 2.420 . S
O25 C10 1.202 . S
O26 U6 2.455 1_455 S
O26 C23 1.301 . S
O27 U6 2.448 . S
O27 C23 1.287 1_655 S
H28 C1 0.931 . S
H29 C3 0.929 . S
H30 C4 0.930 . S
H31 C5 0.931 . S
H32 C12 0.905 1_655 S
H33 C13 0.930 1_655 S
H34 C14 0.929 . S
H35 C16 0.930 . S
H36 C18 0.932 . S
H37 C19 0.929 . S
H38 C20 0.928 . S
H39 C22 0.932 . S
C40 C41 1.264 . S
C40 C45 1.479 . S
C40 C50 1.465 . S
C41 C40 1.264 . S
C41 C43 1.339 . S
C41 H68 0.931 . S
C42 C43 1.395 . S
C42 C44 1.320 . S
C43 C41 1.339 . S
C43 C42 1.395 . S
C43 H69 0.929 . S
C44 C42 1.320 . S
C44 C45 1.405 . S
C44 H70 0.930 . S
C45 C40 1.479 . S
C45 C44 1.405 . S
C45 H71 0.931 . S
U46 O47 2.454 . S
U46 O48 2.458 . S
U46 C49 2.984 . S
U46 C50 2.847 . S
U46 C63 2.882 . S
U46 O64 2.441 . S
U46 O65 2.420 . S
U46 O66 2.455 . S
U46 O67 2.449 . S
O47 U46 2.454 . S
O47 C49 1.353 . S
O48 U46 2.458 . S
O48 C49 1.286 . S
C49 U46 2.984 . S
C49 O47 1.353 . S
C49 O48 1.286 . S
C49 C51 1.363 . S
C50 C40 1.465 . S
C50 U46 2.847 . S
C50 O64 1.249 . S
C50 O65 1.202 . S
C51 C49 1.363 . S
C51 C53 1.408 . S
C51 C56 1.342 . S
C52 C53 1.310 . S
C52 C55 1.461 . S
C52 H72 0.932 . S
C53 C51 1.408 . S
C53 C52 1.310 . S
C53 H73 0.930 . S
C54 C55 1.474 . S
C54 C56 1.285 . S
C54 H74 0.929 . S
C55 C52 1.461 . S
C55 C54 1.474 . S
C56 C51 1.342 . S
C56 C54 1.285 . S
C56 H75 0.930 . S
C57 C60 1.424 . S
C57 C62 1.245 . S
C57 C63 1.428 . S
C58 C61 1.260 . S
C58 C62 1.477 . S
C58 H76 0.932 . S
C59 C60 1.384 . S
C59 C61 1.479 . S
C59 H77 0.929 . S
C60 C57 1.424 . S
C60 C59 1.384 . S
C60 H78 0.928 . S
C61 C58 1.260 . S
C61 C59 1.479 . S
C62 C57 1.245 . S
C62 C58 1.477 . S
C62 H79 0.932 . S
C63 U46 2.882 . S
C63 C57 1.428 . S
C63 O66 1.301 . S
C63 O67 1.282 . S
O64 U46 2.441 . S
O64 C50 1.249 . S
O65 U46 2.420 . S
O65 C50 1.202 . S
O66 U46 2.455 . S
O66 C63 1.301 . S
O67 U46 2.449 . S
O67 C63 1.282 . S
H68 C41 0.931 . S
H69 C43 0.929 . S
H70 C44 0.930 . S
H71 C45 0.931 . S
H72 C52 0.932 . S
H73 C53 0.930 . S
H74 C54 0.929 . S
H75 C56 0.930 . S
H76 C58 0.932 . S
H77 C59 0.929 . S
H78 C60 0.928 . S
H79 C62 0.932 . S
C80 C81 1.264 . S
C80 C85 1.479 . S
C80 C90 1.465 . S
C81 C80 1.264 . S
C81 C83 1.339 . S
C81 H108 0.931 . S
C82 C83 1.395 . S
C82 C84 1.320 . S
C83 C81 1.339 . S
C83 C82 1.395 . S
C83 H109 0.929 . S
C84 C82 1.320 . S
C84 C85 1.405 . S
C84 H110 0.930 . S
C85 C80 1.479 . S
C85 C84 1.405 . S
C85 H111 0.931 . S
U86 O87 2.454 . S
U86 O88 2.458 . S
U86 C89 2.984 . S
U86 C90 2.847 . S
U86 C103 2.882 . S
U86 O104 2.441 . S
U86 O105 2.420 . S
U86 O106 2.455 . S
U86 O107 2.449 . S
O87 U86 2.454 . S
O87 C89 1.353 . S
O88 U86 2.458 . S
O88 C89 1.286 . S
C89 U86 2.984 . S
C89 O87 1.353 . S
C89 O88 1.286 . S
C89 C91 1.363 . S
C90 C80 1.465 . S
C90 U86 2.847 . S
C90 O104 1.249 . S
C90 O105 1.202 . S
C91 C89 1.363 . S
C91 C93 1.408 . S
C91 C96 1.342 . S
C92 C93 1.310 . S
C92 C95 1.461 . S
C92 H112 0.932 . S
C93 C91 1.408 . S
C93 C92 1.310 . S
C93 H113 0.930 . S
C94 C95 1.474 . S
C94 C96 1.285 . S
C94 H114 0.929 . S
C95 C92 1.461 . S
C95 C94 1.474 . S
C96 C91 1.342 . S
C96 C94 1.285 . S
C96 H115 0.930 . S
C97 C100 1.424 . S
C97 C102 1.245 . S
C97 C103 1.428 . S
C98 C101 1.260 . S
C98 C102 1.477 . S
C98 H116 0.932 . S
C99 C100 1.384 . S
C99 C101 1.479 . S
C99 H117 0.929 . S
C100 C97 1.424 . S
C100 C99 1.384 . S
C100 H118 0.928 . S
C101 C98 1.260 . S
C101 C99 1.479 . S
C102 C97 1.245 . S
C102 C98 1.477 . S
C102 H119 0.932 . S
C103 U86 2.882 . S
C103 C97 1.428 . S
C103 O106 1.301 . S
C103 O107 1.282 . S
O104 U86 2.441 . S
O104 C90 1.249 . S
O105 U86 2.420 . S
O105 C90 1.202 . S
O106 U86 2.455 . S
O106 C103 1.301 . S
O107 U86 2.449 . S
O107 C103 1.282 . S
H108 C81 0.931 . S
H109 C83 0.929 . S
H110 C84 0.930 . S
H111 C85 0.931 . S
H112 C92 0.932 . S
H113 C93 0.930 . S
H114 C94 0.929 . S
H115 C96 0.930 . S
H116 C98 0.932 . S
H117 C99 0.929 . S
H118 C100 0.928 . S
H119 C102 0.932 . S
C120 C121 1.264 . S
C120 C125 1.479 . S
C120 C130 1.465 . S
C121 C120 1.264 . S
C121 C123 1.339 . S
C121 H148 0.931 . S
C122 C123 1.395 . S
C122 C124 1.320 . S
C123 C121 1.339 . S
C123 C122 1.395 . S
C123 H149 0.929 . S
C124 C122 1.320 . S
C124 C125 1.405 . S
C124 H150 0.930 . S
C125 C120 1.479 . S
C125 C124 1.405 . S
C125 H151 0.931 . S
U126 O127 2.454 . S
U126 O128 2.458 . S
U126 C129 2.984 . S
U126 C130 2.847 . S
U126 C143 2.882 . S
U126 O144 2.441 . S
U126 O145 2.420 . S
U126 O146 2.455 . S
U126 O147 2.449 . S
O127 U126 2.454 . S
O127 C129 1.353 . S
O128 U126 2.458 . S
O128 C129 1.286 . S
C129 U126 2.984 . S
C129 O127 1.353 . S
C129 O128 1.286 . S
C129 C131 1.363 1_554 S
C130 C120 1.465 . S
C130 U126 2.847 . S
C130 O144 1.249 . S
C130 O145 1.202 . S
C131 C129 1.363 1_556 S
C131 C133 1.408 . S
C131 C136 1.342 . S
C132 C133 1.310 . S
C132 C135 1.461 . S
C132 H152 0.932 . S
C133 C131 1.408 . S
C133 C132 1.310 . S
C133 H153 0.930 . S
C134 C135 1.474 . S
C134 C136 1.285 . S
C134 H154 0.929 . S
C135 C132 1.461 . S
C135 C134 1.474 . S
C136 C131 1.342 . S
C136 C134 1.285 . S
C136 H155 0.930 . S
C137 C140 1.424 . S
C137 C142 1.245 . S
C137 C143 1.428 . S
C138 C141 1.260 . S
C138 C142 1.477 . S
C138 H156 0.932 . S
C139 C140 1.384 . S
C139 C141 1.479 . S
C139 H157 0.929 . S
C140 C137 1.424 . S
C140 C139 1.384 . S
C140 H158 0.928 . S
C141 C138 1.260 . S
C141 C139 1.479 . S
C142 C137 1.245 . S
C142 C138 1.477 . S
C142 H159 0.932 . S
C143 U126 2.882 . S
C143 C137 1.428 . S
C143 O146 1.301 . S
C143 O147 1.282 . S
O144 U126 2.441 . S
O144 C130 1.249 . S
O145 U126 2.420 . S
O145 C130 1.202 . S
O146 U126 2.455 . S
O146 C143 1.301 . S
O147 U126 2.449 . S
O147 C143 1.282 . S
H148 C121 0.931 . S
H149 C123 0.929 . S
H150 C124 0.930 . S
H151 C125 0.931 . S
H152 C132 0.932 . S
H153 C133 0.930 . S
H154 C134 0.929 . S
H155 C136 0.930 . S
H156 C138 0.932 . S
H157 C139 0.929 . S
H158 C140 0.928 . S
H159 C142 0.932 . S
C160 C161 1.264 . S
C160 C165 1.479 . S
C160 C170 1.465 . S
C161 C160 1.264 . S
C161 C163 1.339 . S
C161 H188 0.931 . S
C162 C163 1.395 . S
C162 C164 1.320 . S
C163 C161 1.339 . S
C163 C162 1.395 . S
C163 H189 0.929 . S
C164 C162 1.320 . S
C164 C165 1.405 . S
C164 H190 0.930 . S
C165 C160 1.479 . S
C165 C164 1.405 . S
C165 H191 0.931 . S
U166 O167 2.454 . S
U166 O168 2.458 . S
U166 C169 2.984 . S
U166 C170 2.847 1_455 S
U166 C183 2.882 . S
U166 O184 2.441 1_455 S
U166 O185 2.420 1_455 S
U166 O186 2.455 . S
U166 O187 2.449 . S
O167 U166 2.454 . S
O167 C169 1.353 . S
O168 U166 2.458 . S
O168 C169 1.286 . S
C169 U166 2.984 . S
C169 O167 1.353 . S
C169 O168 1.286 . S
C169 C171 1.363 . S
C170 C160 1.465 . S
C170 U166 2.847 1_655 S
C170 O184 1.249 . S
C170 O185 1.202 . S
C171 C169 1.363 . S
C171 C173 1.408 . S
C171 C176 1.342 . S
C172 C173 1.310 . S
C172 C175 1.461 . S
C172 H192 0.932 . S
C173 C171 1.408 . S
C173 C172 1.310 . S
C173 H193 0.930 . S
C174 C175 1.474 . S
C174 C176 1.285 . S
C174 H194 0.929 . S
C175 C172 1.461 . S
C175 C174 1.474 . S
C176 C171 1.342 . S
C176 C174 1.285 . S
C176 H195 0.930 . S
C177 C180 1.424 . S
C177 C182 1.245 . S
C177 C183 1.428 . S
C178 C181 1.260 . S
C178 C182 1.477 . S
C178 H196 0.932 . S
C179 C180 1.384 . S
C179 C181 1.479 . S
C179 H197 0.929 . S
C180 C177 1.424 . S
C180 C179 1.384 . S
C180 H198 0.928 . S
C181 C178 1.260 . S
C181 C179 1.479 . S
C182 C177 1.245 . S
C182 C178 1.477 . S
C182 H199 0.932 . S
C183 U166 2.882 . S
C183 C177 1.428 . S
C183 O186 1.301 . S
C183 O187 1.282 . S
O184 U166 2.441 1_655 S
O184 C170 1.249 . S
O185 U166 2.420 1_655 S
O185 C170 1.202 . S
O186 U166 2.455 . S
O186 C183 1.301 . S
O187 U166 2.449 . S
O187 C183 1.282 . S
H188 C161 0.931 . S
H189 C163 0.929 . S
H190 C164 0.930 . S
H191 C165 0.931 . S
H192 C172 0.932 . S
H193 C173 0.930 . S
H194 C174 0.929 . S
H195 C176 0.930 . S
H196 C178 0.932 . S
H197 C179 0.929 . S
H198 C180 0.928 . S
H199 C182 0.932 . S
C200 C201 1.264 . S
C200 C205 1.479 . S
C200 C210 1.465 . S
C201 C200 1.264 . S
C201 C203 1.339 . S
C201 H228 0.931 . S
C202 C203 1.395 . S
C202 C204 1.320 . S
C203 C201 1.339 . S
C203 C202 1.395 . S
C203 H229 0.929 . S
C204 C202 1.320 . S
C204 C205 1.405 . S
C204 H230 0.930 . S
C205 C200 1.479 . S
C205 C204 1.405 . S
C205 H231 0.931 . S
U206 O207 2.454 . S
U206 O208 2.458 . S
U206 C209 2.984 . S
U206 C210 2.847 . S
U206 C223 2.882 . S
U206 O224 2.441 . S
U206 O225 2.420 . S
U206 O226 2.455 . S
U206 O227 2.449 . S
O207 U206 2.454 . S
O207 C209 1.353 . S
O208 U206 2.458 . S
O208 C209 1.286 . S
C209 U206 2.984 . S
C209 O207 1.353 . S
C209 O208 1.286 . S
C209 C211 1.363 . S
C210 C200 1.465 . S
C210 U206 2.847 . S
C210 O224 1.249 . S
C210 O225 1.202 . S
C211 C209 1.363 . S
C211 C213 1.408 . S
C211 C216 1.342 . S
C212 C213 1.310 . S
C212 C215 1.461 . S
C212 H232 0.932 . S
C213 C211 1.408 . S
C213 C212 1.310 . S
C213 H233 0.930 . S
C214 C215 1.474 . S
C214 C216 1.285 . S
C214 H234 0.929 . S
C215 C212 1.461 . S
C215 C214 1.474 . S
C216 C211 1.342 . S
C216 C214 1.285 . S
C216 H235 0.930 . S
C217 C220 1.424 . S
C217 C222 1.245 . S
C217 C223 1.428 . S
C218 C221 1.260 . S
C218 C222 1.477 . S
C218 H236 0.932 . S
C219 C220 1.384 . S
C219 C221 1.479 . S
C219 H237 0.929 . S
C220 C217 1.424 . S
C220 C219 1.384 . S
C220 H238 0.928 . S
C221 C218 1.260 . S
C221 C219 1.479 . S
C222 C217 1.245 . S
C222 C218 1.477 . S
C222 H239 0.932 . S
C223 U206 2.882 . S
C223 C217 1.428 . S
C223 O226 1.301 . S
C223 O227 1.282 . S
O224 U206 2.441 . S
O224 C210 1.249 . S
O225 U206 2.420 . S
O225 C210 1.202 . S
O226 U206 2.455 . S
O226 C223 1.301 . S
O227 U206 2.449 . S
O227 C223 1.282 . S
H228 C201 0.931 . S
H229 C203 0.929 . S
H230 C204 0.930 . S
H231 C205 0.931 . S
H232 C212 0.932 . S
H233 C213 0.930 . S
H234 C214 0.929 . S
H235 C216 0.930 . S
H236 C218 0.932 . S
H237 C219 0.929 . S
H238 C220 0.928 . S
H239 C222 0.932 . S
C240 C241 1.264 . S
C240 C245 1.479 . S
C240 C250 1.465 . S
C241 C240 1.264 . S
C241 C243 1.339 . S
C241 H268 0.931 . S
C242 C243 1.395 . S
C242 C244 1.320 . S
C243 C241 1.339 . S
C243 C242 1.395 . S
C243 H269 0.929 . S
C244 C242 1.320 . S
C244 C245 1.405 . S
C244 H270 0.930 . S
C245 C240 1.479 . S
C245 C244 1.405 . S
C245 H271 0.931 . S
U246 O247 2.454 . S
U246 O248 2.458 . S
U246 C249 2.984 . S
U246 C250 2.847 . S
U246 C263 2.882 . S
U246 O264 2.441 . S
U246 O265 2.420 . S
U246 O266 2.455 . S
U246 O267 2.449 . S
O247 U246 2.454 . S
O247 C249 1.353 . S
O248 U246 2.458 . S
O248 C249 1.286 . S
C249 U246 2.984 . S
C249 O247 1.353 . S
C249 O248 1.286 . S
C249 C251 1.363 . S
C250 C240 1.465 . S
C250 U246 2.847 . S
C250 O264 1.249 . S
C250 O265 1.202 . S
C251 C249 1.363 . S
C251 C253 1.408 . S
C251 C256 1.342 . S
C252 C253 1.310 . S
C252 C255 1.461 . S
C252 H272 0.932 . S
C253 C251 1.408 . S
C253 C252 1.310 . S
C253 H273 0.930 . S
C254 C255 1.474 . S
C254 C256 1.285 . S
C254 H274 0.929 . S
C255 C252 1.461 . S
C255 C254 1.474 . S
C256 C251 1.342 . S
C256 C254 1.285 . S
C256 H275 0.930 . S
C257 C260 1.424 . S
C257 C262 1.245 . S
C257 C263 1.428 . S
C258 C261 1.260 . S
C258 C262 1.477 . S
C258 H276 0.932 . S
C259 C260 1.384 . S
C259 C261 1.479 . S
C259 H277 0.929 . S
C260 C257 1.424 . S
C260 C259 1.384 . S
C260 H278 0.928 . S
C261 C258 1.260 . S
C261 C259 1.479 . S
C262 C257 1.245 . S
C262 C258 1.477 . S
C262 H279 0.932 . S
C263 U246 2.882 . S
C263 C257 1.428 . S
C263 O266 1.301 . S
C263 O267 1.282 . S
O264 U246 2.441 . S
O264 C250 1.249 . S
O265 U246 2.420 . S
O265 C250 1.202 . S
O266 U246 2.455 . S
O266 C263 1.301 . S
O267 U246 2.449 . S
O267 C263 1.282 . S
H268 C241 0.931 . S
H269 C243 0.929 . S
H270 C244 0.930 . S
H271 C245 0.931 . S
H272 C252 0.932 . S
H273 C253 0.930 . S
H274 C254 0.929 . S
H275 C256 0.930 . S
H276 C258 0.932 . S
H277 C259 0.929 . S
H278 C260 0.928 . S
H279 C262 0.932 . S
C280 C281 1.264 . S
C280 C285 1.479 . S
C280 C290 1.465 . S
C281 C280 1.264 . S
C281 C283 1.339 . S
C281 H308 0.931 . S
C282 C283 1.395 . S
C282 C284 1.320 . S
C283 C281 1.339 . S
C283 C282 1.395 . S
C283 H309 0.929 . S
C284 C282 1.320 . S
C284 C285 1.405 . S
C284 H310 0.930 . S
C285 C280 1.479 . S
C285 C284 1.405 . S
C285 H311 0.931 . S
U286 O287 2.454 . S
U286 O288 2.458 . S
U286 C289 2.984 . S
U286 C290 2.847 1_556 S
U286 C303 2.882 . S
U286 O304 2.441 1_556 S
U286 O305 2.420 . S
U286 O306 2.455 . S
U286 O307 2.449 . S
O287 U286 2.454 . S
O287 C289 1.353 . S
O288 U286 2.458 . S
O288 C289 1.286 . S
C289 U286 2.984 . S
C289 O287 1.353 . S
C289 O288 1.286 . S
C289 C291 1.363 . S
C290 C280 1.465 . S
C290 U286 2.847 1_554 S
C290 O304 1.249 . S
C290 O305 1.202 1_554 S
C291 C289 1.363 . S
C291 C293 1.408 . S
C291 C296 1.342 . S
C292 C293 1.310 . S
C292 C295 1.461 . S
C292 H312 0.932 . S
C293 C291 1.408 . S
C293 C292 1.310 . S
C293 H313 0.930 . S
C294 C295 1.474 . S
C294 C296 1.285 . S
C294 H314 0.929 . S
C295 C292 1.461 . S
C295 C294 1.474 . S
C296 C291 1.342 . S
C296 C294 1.285 . S
C296 H315 0.930 . S
C297 C300 1.424 . S
C297 C302 1.245 . S
C297 C303 1.428 . S
C298 C301 1.260 . S
C298 C302 1.477 . S
C298 H316 0.932 . S
C299 C300 1.384 . S
C299 C301 1.479 . S
C299 H317 0.929 . S
C300 C297 1.424 . S
C300 C299 1.384 . S
C300 H318 0.928 . S
C301 C298 1.260 . S
C301 C299 1.479 . S
C302 C297 1.245 . S
C302 C298 1.477 . S
C302 H319 0.932 . S
C303 U286 2.882 . S
C303 C297 1.428 . S
C303 O306 1.301 . S
C303 O307 1.282 . S
O304 U286 2.441 1_554 S
O304 C290 1.249 . S
O305 U286 2.420 . S
O305 C290 1.202 1_556 S
O306 U286 2.455 . S
O306 C303 1.301 . S
O307 U286 2.449 . S
O307 C303 1.282 . S
H308 C281 0.931 . S
H309 C283 0.929 . S
H310 C284 0.930 . S
H311 C285 0.931 . S
H312 C292 0.932 . S
H313 C293 0.930 . S
H314 C294 0.929 . S
H315 C296 0.930 . S
H316 C298 0.932 . S
H317 C299 0.929 . S
H318 C300 0.928 . S
H319 C302 0.932 . S
C320 C321 1.264 . S
C320 C325 1.479 1_545 S
C320 C330 1.465 . S
C321 C320 1.264 . S
C321 C323 1.339 . S
C321 H348 0.931 . S
C322 C323 1.395 . S
C322 C324 1.320 1_545 S
C323 C321 1.339 . S
C323 C322 1.395 . S
C323 H349 0.929 . S
C324 C322 1.320 1_565 S
C324 C325 1.405 . S
C324 H350 0.930 . S
C325 C320 1.479 1_565 S
C325 C324 1.405 . S
C325 H351 0.931 . S
U326 O327 2.457 . S
U326 O328 2.461 . S
U326 C329 2.988 . S
U326 C330 2.846 1_565 S
U326 C343 2.880 1_565 S
U326 O344 2.441 . S
U326 O345 2.418 1_565 S
U326 O346 2.454 1_565 S
U326 O347 2.446 1_565 S
O327 U326 2.457 . S
O327 C329 1.353 . S
O328 U326 2.461 . S
O328 C329 1.286 . S
C329 U326 2.988 . S
C329 O327 1.353 . S
C329 O328 1.286 . S
C329 C331 1.363 . S
C330 C320 1.465 . S
C330 U326 2.846 1_545 S
C330 O344 1.249 1_545 S
C330 O345 1.202 . S
C331 C329 1.363 . S
C331 C333 1.408 . S
C331 C336 1.342 . S
C332 C333 1.310 . S
C332 C335 1.461 . S
C332 H352 0.932 . S
C333 C331 1.408 . S
C333 C332 1.310 . S
C333 H353 0.930 . S
C334 C335 1.474 . S
C334 C336 1.285 . S
C334 H354 0.929 . S
C335 C332 1.461 . S
C335 C334 1.474 . S
C336 C331 1.342 . S
C336 C334 1.285 . S
C336 H355 0.930 . S
C337 C340 1.424 . S
C337 C342 1.245 . S
C337 C343 1.428 . S
C338 C341 1.260 . S
C338 C342 1.477 . S
C338 H356 0.932 . S
C339 C340 1.384 . S
C339 C341 1.479 . S
C339 H357 0.929 . S
C340 C337 1.424 . S
C340 C339 1.384 . S
C340 H358 0.928 . S
C341 C338 1.260 . S
C341 C339 1.479 . S
C342 C337 1.245 . S
C342 C338 1.477 . S
C342 H359 0.932 . S
C343 U326 2.880 1_545 S
C343 C337 1.428 . S
C343 O346 1.301 . S
C343 O347 1.282 . S
O344 U326 2.441 . S
O344 C330 1.249 1_565 S
O345 U326 2.418 1_545 S
O345 C330 1.202 . S
O346 U326 2.454 1_545 S
O346 C343 1.301 . S
O347 U326 2.446 1_545 S
O347 C343 1.282 . S
H348 C321 0.931 . S
H349 C323 0.929 . S
H350 C324 0.930 . S
H351 C325 0.931 . S
H352 C332 0.932 . S
H353 C333 0.930 . S
H354 C334 0.929 . S
H355 C336 0.930 . S
H356 C338 0.932 . S
H357 C339 0.929 . S
H358 C340 0.928 . S
H359 C342 0.932 . S
C360 C361 1.264 . S
C360 C365 1.479 . S
C360 C370 1.465 . S
C361 C360 1.264 . S
C361 C363 1.339 . S
C361 H388 0.931 . S
C362 C363 1.395 . S
C362 C364 1.320 . S
C363 C361 1.339 . S
C363 C362 1.395 . S
C363 H389 0.929 . S
C364 C362 1.320 . S
C364 C365 1.405 . S
C364 H390 0.930 . S
C365 C360 1.479 . S
C365 C364 1.405 . S
C365 H391 0.931 . S
U366 O367 2.454 . S
U366 O368 2.458 . S
U366 C369 2.984 . S
U366 C370 2.847 1_545 S
U366 C383 2.882 . S
U366 O384 2.441 1_545 S
U366 O385 2.420 1_545 S
U366 O386 2.455 . S
U366 O387 2.449 . S
O367 U366 2.454 . S
O367 C369 1.353 . S
O368 U366 2.458 . S
O368 C369 1.286 . S
C369 U366 2.984 . S
C369 O367 1.353 . S
C369 O368 1.286 . S
C369 C371 1.363 . S
C370 C360 1.465 . S
C370 U366 2.847 1_565 S
C370 O384 1.249 . S
C370 O385 1.202 . S
C371 C369 1.363 . S
C371 C373 1.408 . S
C371 C376 1.342 . S
C372 C373 1.310 . S
C372 C375 1.461 . S
C372 H392 0.932 . S
C373 C371 1.408 . S
C373 C372 1.310 . S
C373 H393 0.930 . S
C374 C375 1.474 . S
C374 C376 1.285 . S
C374 H394 0.929 . S
C375 C372 1.461 . S
C375 C374 1.474 . S
C376 C371 1.342 . S
C376 C374 1.285 . S
C376 H395 0.930 . S
C377 C380 1.424 . S
C377 C382 1.245 . S
C377 C383 1.428 . S
C378 C381 1.260 . S
C378 C382 1.477 . S
C378 H396 0.932 . S
C379 C380 1.384 . S
C379 C381 1.479 . S
C379 H397 0.929 . S
C380 C377 1.424 . S
C380 C379 1.384 . S
C380 H398 0.928 . S
C381 C378 1.260 . S
C381 C379 1.479 . S
C382 C377 1.245 . S
C382 C378 1.477 . S
C382 H399 0.932 . S
C383 U366 2.882 . S
C383 C377 1.428 . S
C383 O386 1.301 . S
C383 O387 1.282 . S
O384 U366 2.441 1_565 S
O384 C370 1.249 . S
O385 U366 2.420 1_565 S
O385 C370 1.202 . S
O386 U366 2.455 . S
O386 C383 1.301 . S
O387 U366 2.449 . S
O387 C383 1.282 . S
H388 C361 0.931 . S
H389 C363 0.929 . S
H390 C364 0.930 . S
H391 C365 0.931 . S
H392 C372 0.932 . S
H393 C373 0.930 . S
H394 C374 0.929 . S
H395 C376 0.930 . S
H396 C378 0.932 . S
H397 C379 0.929 . S
H398 C380 0.928 . S
H399 C382 0.932 . S
C400 C401 1.264 . S
C400 C405 1.479 . S
C400 C410 1.465 . S
C401 C400 1.264 . S
C401 C403 1.339 . S
C401 H428 0.931 . S
C402 C403 1.395 . S
C402 C404 1.320 . S
C403 C401 1.339 . S
C403 C402 1.395 . S
C403 H429 0.929 . S
C404 C402 1.320 . S
C404 C405 1.405 . S
C404 H430 0.930 . S
C405 C400 1.479 . S
C405 C404 1.405 . S
C405 H431 0.931 . S
U406 O407 2.454 . S
U406 O408 2.458 . S
U406 C409 2.984 . S
U406 C410 2.847 1_565 S
U406 C423 2.882 . S
U406 O424 2.441 1_565 S
U406 O425 2.420 1_565 S
U406 O426 2.455 . S
U406 O427 2.449 . S
O407 U406 2.454 . S
O407 C409 1.353 . S
O408 U406 2.458 . S
O408 C409 1.286 . S
C409 U406 2.984 . S
C409 O407 1.353 . S
C409 O408 1.286 . S
C409 C411 1.363 . S
C410 C400 1.465 . S
C410 U406 2.847 1_545 S
C410 O424 1.249 . S
C410 O425 1.202 . S
C411 C409 1.363 . S
C411 C413 1.408 . S
C411 C416 1.342 . S
C412 C413 1.310 . S
C412 C415 1.461 . S
C412 H432 0.932 . S
C413 C411 1.408 . S
C413 C412 1.310 . S
C413 H433 0.930 . S
C414 C415 1.474 . S
C414 C416 1.285 . S
C414 H434 0.929 . S
C415 C412 1.461 . S
C415 C414 1.474 . S
C416 C411 1.342 . S
C416 C414 1.285 . S
C416 H435 0.930 . S
C417 C420 1.424 . S
C417 C422 1.245 . S
C417 C423 1.428 . S
C418 C421 1.260 . S
C418 C422 1.477 . S
C418 H436 0.932 . S
C419 C420 1.384 . S
C419 C421 1.479 . S
C419 H437 0.929 . S
C420 C417 1.424 . S
C420 C419 1.384 . S
C420 H438 0.928 . S
C421 C418 1.260 . S
C421 C419 1.479 . S
C422 C417 1.245 . S
C422 C418 1.477 . S
C422 H439 0.932 . S
C423 U406 2.882 . S
C423 C417 1.428 . S
C423 O426 1.301 . S
C423 O427 1.282 . S
O424 U406 2.441 1_545 S
O424 C410 1.249 . S
O425 U406 2.420 1_545 S
O425 C410 1.202 . S
O426 U406 2.455 . S
O426 C423 1.301 . S
O427 U406 2.449 . S
O427 C423 1.282 . S
H428 C401 0.931 . S
H429 C403 0.929 . S
H430 C404 0.930 . S
H431 C405 0.931 . S
H432 C412 0.932 . S
H433 C413 0.930 . S
H434 C414 0.929 . S
H435 C416 0.930 . S
H436 C418 0.932 . S
H437 C419 0.929 . S
H438 C420 0.928 . S
H439 C422 0.932 . S
C440 C441 1.264 . S
C440 C445 1.479 . S
C440 C450 1.465 . S
C441 C440 1.264 . S
C441 C443 1.339 . S
C441 H468 0.931 . S
C442 C443 1.395 . S
C442 C444 1.320 . S
C443 C441 1.339 . S
C443 C442 1.395 . S
C443 H469 0.929 . S
C444 C442 1.320 . S
C444 C445 1.405 . S
C444 H470 0.930 . S
C445 C440 1.479 . S
C445 C444 1.405 . S
C445 H471 0.931 1_565 S
U446 O447 2.455 1_565 S
U446 O448 2.458 1_565 S
U446 C449 2.985 1_565 S
U446 C450 2.847 . S
U446 C463 2.882 . S
U446 O464 2.441 1_565 S
U446 O465 2.420 . S
U446 O466 2.455 . S
U446 O467 2.448 . S
O447 U446 2.455 1_545 S
O447 C449 1.353 . S
O448 U446 2.458 1_545 S
O448 C449 1.286 . S
C449 U446 2.985 1_545 S
C449 O447 1.353 . S
C449 O448 1.286 . S
C449 C451 1.363 . S
C450 C440 1.465 . S
C450 U446 2.847 . S
C450 O464 1.249 1_565 S
C450 O465 1.202 . S
C451 C449 1.363 . S
C451 C453 1.408 . S
C451 C456 1.342 . S
C452 C453 1.310 . S
C452 C455 1.461 . S
C452 H472 0.932 . S
C453 C451 1.408 . S
C453 C452 1.310 . S
C453 H473 0.930 . S
C454 C455 1.474 . S
C454 C456 1.285 . S
C454 H474 0.929 . S
C455 C452 1.461 . S
C455 C454 1.474 . S
C456 C451 1.342 . S
C456 C454 1.285 . S
C456 H475 0.930 . S
C457 C460 1.424 . S
C457 C462 1.245 . S
C457 C463 1.428 . S
C458 C461 1.260 . S
C458 C462 1.477 . S
C458 H476 0.932 . S
C459 C460 1.384 . S
C459 C461 1.479 . S
C459 H477 0.929 . S
C460 C457 1.424 . S
C460 C459 1.384 . S
C460 H478 0.928 . S
C461 C458 1.260 . S
C461 C459 1.479 . S
C462 C457 1.245 . S
C462 C458 1.477 . S
C462 H479 0.932 . S
C463 U446 2.882 . S
C463 C457 1.428 . S
C463 O466 1.301 . S
C463 O467 1.282 . S
O464 U446 2.441 1_545 S
O464 C450 1.249 1_545 S
O465 U446 2.420 . S
O465 C450 1.202 . S
O466 U446 2.455 . S
O466 C463 1.301 . S
O467 U446 2.448 . S
O467 C463 1.282 . S
H468 C441 0.931 . S
H469 C443 0.929 . S
H470 C444 0.930 . S
H471 C445 0.931 1_545 S
H472 C452 0.932 . S
H473 C453 0.930 . S
H474 C454 0.929 . S
H475 C456 0.930 . S
H476 C458 0.932 . S
H477 C459 0.929 . S
H478 C460 0.928 . S
H479 C462 0.932 . S
C480 C481 1.264 . S
C480 C485 1.479 . S
C480 C490 1.465 . S
C481 C480 1.264 . S
C481 C483 1.339 . S
C481 H508 0.931 . S
C482 C483 1.395 . S
C482 C484 1.320 . S
C483 C481 1.339 . S
C483 C482 1.395 . S
C483 H509 0.929 . S
C484 C482 1.320 . S
C484 C485 1.405 . S
C484 H510 0.930 . S
C485 C480 1.479 . S
C485 C484 1.405 . S
C485 H511 0.931 . S
U486 O487 2.454 . S
U486 O488 2.458 . S
U486 C489 2.984 1_554 S
U486 C490 2.847 . S
U486 C503 2.882 . S
U486 O504 2.441 . S
U486 O505 2.420 . S
U486 O506 2.455 . S
U486 O507 2.449 . S
O487 U486 2.454 . S
O487 C489 1.353 1_554 S
O488 U486 2.458 . S
O488 C489 1.286 1_554 S
C489 U486 2.984 1_556 S
C489 O487 1.353 1_556 S
C489 O488 1.286 1_556 S
C489 C491 1.363 . S
C490 C480 1.465 . S
C490 U486 2.847 . S
C490 O504 1.249 . S
C490 O505 1.202 . S
C491 C489 1.363 . S
C491 C493 1.408 . S
C491 C496 1.342 . S
C492 C493 1.310 . S
C492 C495 1.461 . S
C492 H512 0.932 . S
C493 C491 1.408 . S
C493 C492 1.310 . S
C493 H513 0.930 . S
C494 C495 1.474 . S
C494 C496 1.285 . S
C494 H514 0.929 . S
C495 C492 1.461 . S
C495 C494 1.474 . S
C496 C491 1.342 . S
C496 C494 1.285 . S
C496 H515 0.930 . S
C497 C500 1.424 . S
C497 C502 1.245 . S
C497 C503 1.428 . S
C498 C501 1.260 . S
C498 C502 1.477 . S
C498 H516 0.932 . S
C499 C500 1.384 . S
C499 C501 1.479 . S
C499 H517 0.929 . S
C500 C497 1.424 . S
C500 C499 1.384 . S
C500 H518 0.928 . S
C501 C498 1.260 . S
C501 C499 1.479 . S
C502 C497 1.245 . S
C502 C498 1.477 . S
C502 H519 0.932 . S
C503 U486 2.882 . S
C503 C497 1.428 . S
C503 O506 1.301 . S
C503 O507 1.282 . S
O504 U486 2.441 . S
O504 C490 1.249 . S
O505 U486 2.420 . S
O505 C490 1.202 . S
O506 U486 2.455 . S
O506 C503 1.301 . S
O507 U486 2.449 . S
O507 C503 1.282 . S
H508 C481 0.931 . S
H509 C483 0.929 . S
H510 C484 0.930 . S
H511 C485 0.931 . S
H512 C492 0.932 . S
H513 C493 0.930 . S
H514 C494 0.929 . S
H515 C496 0.930 . S
H516 C498 0.932 . S
H517 C499 0.929 . S
H518 C500 0.928 . S
H519 C502 0.932 . S
C520 C521 1.264 . S
C520 C525 1.479 . S
C520 C530 1.465 . S
C521 C520 1.264 . S
C521 C523 1.339 . S
C521 H548 0.931 . S
C522 C523 1.395 . S
C522 C524 1.320 . S
C523 C521 1.339 . S
C523 C522 1.395 . S
C523 H549 0.929 . S
C524 C522 1.320 . S
C524 C525 1.405 . S
C524 H550 0.930 . S
C525 C520 1.479 . S
C525 C524 1.405 . S
C525 H551 0.931 . S
U526 O527 2.454 1_655 S
U526 O528 2.458 . S
U526 C529 2.984 . S
U526 C530 2.847 1_655 S
U526 C543 2.882 . S
U526 O544 2.441 1_655 S
U526 O545 2.420 1_655 S
U526 O546 2.455 . S
U526 O547 2.449 . S
O527 U526 2.454 1_455 S
O527 C529 1.353 1_455 S
O528 U526 2.458 . S
O528 C529 1.286 . S
C529 U526 2.984 . S
C529 O527 1.353 1_655 S
C529 O528 1.286 . S
C529 C531 1.363 . S
C530 C520 1.465 . S
C530 U526 2.847 1_455 S
C530 O544 1.249 . S
C530 O545 1.202 . S
C531 C529 1.363 . S
C531 C533 1.408 . S
C531 C536 1.342 . S
C532 C533 1.310 . S
C532 C535 1.461 . S
C532 H552 0.932 1_655 S
C533 C531 1.408 . S
C533 C532 1.310 . S
C533 H553 0.930 1_655 S
C534 C535 1.474 . S
C534 C536 1.285 . S
C534 H554 0.929 . S
C535 C532 1.461 . S
C535 C534 1.474 . S
C536 C531 1.342 . S
C536 C534 1.285 . S
C536 H555 0.930 . S
C537 C540 1.424 . S
C537 C542 1.245 . S
C537 C543 1.428 . S
C538 C541 1.260 . S
C538 C542 1.477 . S
C538 H556 0.932 . S
C539 C540 1.384 . S
C539 C541 1.479 . S
C539 H557 0.929 . S
C540 C537 1.424 . S
C540 C539 1.384 . S
C540 H558 0.928 . S
C541 C538 1.260 . S
C541 C539 1.479 . S
C542 C537 1.245 . S
C542 C538 1.477 . S
C542 H559 0.932 . S
C543 U526 2.882 . S
C543 C537 1.428 . S
C543 O546 1.301 . S
C543 O547 1.282 . S
O544 U526 2.441 1_455 S
O544 C530 1.249 . S
O545 U526 2.420 1_455 S
O545 C530 1.202 . S
O546 U526 2.455 . S
O546 C543 1.301 . S
O547 U526 2.449 . S
O547 C543 1.282 . S
H548 C521 0.931 . S
H549 C523 0.929 . S
H550 C524 0.930 . S
H551 C525 0.931 . S
H552 C532 0.932 1_455 S
H553 C533 0.930 1_455 S
H554 C534 0.929 . S
H555 C536 0.930 . S
H556 C538 0.932 . S
H557 C539 0.929 . S
H558 C540 0.928 . S
H559 C542 0.932 . S
C560 C561 1.264 . S
C560 C565 1.479 . S
C560 C570 1.465 . S
C561 C560 1.264 . S
C561 C563 1.339 . S
C561 H588 0.931 . S
C562 C563 1.395 . S
C562 C564 1.320 . S
C563 C561 1.339 . S
C563 C562 1.395 . S
C563 H589 0.929 . S
C564 C562 1.320 . S
C564 C565 1.405 . S
C564 H590 0.930 . S
C565 C560 1.479 . S
C565 C564 1.405 . S
C565 H591 0.931 . S
U566 O567 2.454 . S
U566 O568 2.458 . S
U566 C569 2.984 . S
U566 C570 2.847 . S
U566 C583 2.882 . S
U566 O584 2.441 . S
U566 O585 2.420 . S
U566 O586 2.455 . S
U566 O587 2.449 . S
O567 U566 2.454 . S
O567 C569 1.353 . S
O568 U566 2.458 . S
O568 C569 1.286 . S
C569 U566 2.984 . S
C569 O567 1.353 . S
C569 O568 1.286 . S
C569 C571 1.363 . S
C570 C560 1.465 . S
C570 U566 2.847 . S
C570 O584 1.249 . S
C570 O585 1.202 . S
C571 C569 1.363 . S
C571 C573 1.408 . S
C571 C576 1.342 . S
C572 C573 1.310 . S
C572 C575 1.461 . S
C572 H592 0.932 . S
C573 C571 1.408 . S
C573 C572 1.310 . S
C573 H593 0.930 . S
C574 C575 1.474 . S
C574 C576 1.285 . S
C574 H594 0.929 . S
C575 C572 1.461 . S
C575 C574 1.474 . S
C576 C571 1.342 . S
C576 C574 1.285 . S
C576 H595 0.930 . S
C577 C580 1.424 . S
C577 C582 1.245 . S
C577 C583 1.428 . S
C578 C581 1.260 . S
C578 C582 1.477 . S
C578 H596 0.932 . S
C579 C580 1.384 . S
C579 C581 1.479 . S
C579 H597 0.929 . S
C580 C577 1.424 . S
C580 C579 1.384 . S
C580 H598 0.928 . S
C581 C578 1.260 . S
C581 C579 1.479 . S
C582 C577 1.245 . S
C582 C578 1.477 . S
C582 H599 0.932 . S
C583 U566 2.882 . S
C583 C577 1.428 . S
C583 O586 1.301 . S
C583 O587 1.282 . S
O584 U566 2.441 . S
O584 C570 1.249 . S
O585 U566 2.420 . S
O585 C570 1.202 . S
O586 U566 2.455 . S
O586 C583 1.301 . S
O587 U566 2.449 . S
O587 C583 1.282 . S
H588 C561 0.931 . S
H589 C563 0.929 . S
H590 C564 0.930 . S
H591 C565 0.931 . S
H592 C572 0.932 . S
H593 C573 0.930 . S
H594 C574 0.929 . S
H595 C576 0.930 . S
H596 C578 0.932 . S
H597 C579 0.929 . S
H598 C580 0.928 . S
H599 C582 0.932 . S
C600 C601 1.264 . S
C600 C605 1.479 . S
C600 C610 1.465 . S
C601 C600 1.264 . S
C601 C603 1.339 . S
C601 H628 0.931 . S
C602 C603 1.395 . S
C602 C604 1.320 . S
C603 C601 1.339 . S
C603 C602 1.395 . S
C603 H629 0.929 . S
C604 C602 1.320 . S
C604 C605 1.405 . S
C604 H630 0.930 . S
C605 C600 1.479 . S
C605 C604 1.405 . S
C605 H631 0.931 1_655 S
U606 O607 2.454 . S
U606 O608 2.458 . S
U606 C609 2.984 . S
U606 C610 2.847 1_455 S
U606 C623 2.882 1_455 S
U606 O624 2.441 . S
U606 O625 2.420 1_455 S
U606 O626 2.455 . S
U606 O627 2.449 1_455 S
O607 U606 2.454 . S
O607 C609 1.353 . S
O608 U606 2.458 . S
O608 C609 1.286 . S
C609 U606 2.984 . S
C609 O607 1.353 . S
C609 O608 1.286 . S
C609 C611 1.363 . S
C610 C600 1.465 . S
C610 U606 2.847 1_655 S
C610 O624 1.249 1_655 S
C610 O625 1.202 . S
C611 C609 1.363 . S
C611 C613 1.408 . S
C611 C616 1.342 . S
C612 C613 1.310 . S
C612 C615 1.461 . S
C612 H632 0.932 . S
C613 C611 1.408 . S
C613 C612 1.310 . S
C613 H633 0.930 . S
C614 C615 1.474 . S
C614 C616 1.285 . S
C614 H634 0.929 . S
C615 C612 1.461 . S
C615 C614 1.474 . S
C616 C611 1.342 . S
C616 C614 1.285 . S
C616 H635 0.930 . S
C617 C620 1.424 . S
C617 C622 1.245 . S
C617 C623 1.428 . S
C618 C621 1.260 . S
C618 C622 1.477 . S
C618 H636 0.932 . S
C619 C620 1.384 . S
C619 C621 1.479 . S
C619 H637 0.929 . S
C620 C617 1.424 . S
C620 C619 1.384 . S
C620 H638 0.928 . S
C621 C618 1.260 . S
C621 C619 1.479 . S
C622 C617 1.245 . S
C622 C618 1.477 . S
C622 H639 0.932 . S
C623 U606 2.882 1_655 S
C623 C617 1.428 . S
C623 O626 1.301 1_655 S
C623 O627 1.282 . S
O624 U606 2.441 . S
O624 C610 1.249 1_455 S
O625 U606 2.420 1_655 S
O625 C610 1.202 . S
O626 U606 2.455 . S
O626 C623 1.301 1_455 S
O627 U606 2.449 1_655 S
O627 C623 1.282 . S
H628 C601 0.931 . S
H629 C603 0.929 . S
H630 C604 0.930 . S
H631 C605 0.931 1_455 S
H632 C612 0.932 . S
H633 C613 0.930 . S
H634 C614 0.929 . S
H635 C616 0.930 . S
H636 C618 0.932 . S
H637 C619 0.929 . S
H638 C620 0.928 . S
H639 C622 0.932 . S
C640 C641 1.264 . S
C640 C645 1.479 . S
C640 C650 1.465 . S
C641 C640 1.264 . S
C641 C643 1.339 . S
C641 H668 0.931 . S
C642 C643 1.395 . S
C642 C644 1.320 . S
C643 C641 1.339 . S
C643 C642 1.395 . S
C643 H669 0.929 . S
C644 C642 1.320 . S
C644 C645 1.405 . S
C644 H670 0.930 . S
C645 C640 1.479 . S
C645 C644 1.405 . S
C645 H671 0.931 . S
U646 O647 2.454 . S
U646 O648 2.458 . S
U646 C649 2.984 . S
U646 C650 2.847 . S
U646 C663 2.882 . S
U646 O664 2.441 . S
U646 O665 2.420 . S
U646 O666 2.455 . S
U646 O667 2.449 . S
O647 U646 2.454 . S
O647 C649 1.353 . S
O648 U646 2.458 . S
O648 C649 1.286 . S
C649 U646 2.984 . S
C649 O647 1.353 . S
C649 O648 1.286 . S
C649 C651 1.363 . S
C650 C640 1.465 . S
C650 U646 2.847 . S
C650 O664 1.249 . S
C650 O665 1.202 . S
C651 C649 1.363 . S
C651 C653 1.408 . S
C651 C656 1.342 . S
C652 C653 1.310 . S
C652 C655 1.461 . S
C652 H672 0.932 . S
C653 C651 1.408 . S
C653 C652 1.310 . S
C653 H673 0.930 . S
C654 C655 1.474 . S
C654 C656 1.285 . S
C654 H674 0.929 . S
C655 C652 1.461 . S
C655 C654 1.474 . S
C656 C651 1.342 . S
C656 C654 1.285 . S
C656 H675 0.930 . S
C657 C660 1.424 . S
C657 C662 1.245 . S
C657 C663 1.428 . S
C658 C661 1.260 . S
C658 C662 1.477 . S
C658 H676 0.932 . S
C659 C660 1.384 . S
C659 C661 1.479 . S
C659 H677 0.929 . S
C660 C657 1.424 . S
C660 C659 1.384 . S
C660 H678 0.928 . S
C661 C658 1.260 . S
C661 C659 1.479 . S
C662 C657 1.245 . S
C662 C658 1.477 . S
C662 H679 0.932 . S
C663 U646 2.882 . S
C663 C657 1.428 . S
C663 O666 1.301 . S
C663 O667 1.282 . S
O664 U646 2.441 . S
O664 C650 1.249 . S
O665 U646 2.420 . S
O665 C650 1.202 . S
O666 U646 2.455 . S
O666 C663 1.301 . S
O667 U646 2.449 . S
O667 C663 1.282 . S
H668 C641 0.931 . S
H669 C643 0.929 . S
H670 C644 0.930 . S
H671 C645 0.931 . S
H672 C652 0.932 . S
H673 C653 0.930 . S
H674 C654 0.929 . S
H675 C656 0.930 . S
H676 C658 0.932 . S
H677 C659 0.929 . S
H678 C660 0.928 . S
H679 C662 0.932 . S
C680 C681 1.264 . S
C680 C685 1.479 . S
C680 C690 1.465 . S
C681 C680 1.264 . S
C681 C683 1.339 . S
C681 H708 0.931 . S
C682 C683 1.395 . S
C682 C684 1.320 . S
C683 C681 1.339 . S
C683 C682 1.395 . S
C683 H709 0.929 . S
C684 C682 1.320 . S
C684 C685 1.405 . S
C684 H710 0.930 . S
C685 C680 1.479 . S
C685 C684 1.405 . S
C685 H711 0.931 . S
U686 O687 2.454 . S
U686 O688 2.458 . S
U686 C689 2.984 . S
U686 C690 2.847 . S
U686 C703 2.882 . S
U686 O704 2.441 . S
U686 O705 2.420 . S
U686 O706 2.455 . S
U686 O707 2.449 . S
O687 U686 2.454 . S
O687 C689 1.353 . S
O688 U686 2.458 . S
O688 C689 1.286 . S
C689 U686 2.984 . S
C689 O687 1.353 . S
C689 O688 1.286 . S
C689 C691 1.363 . S
C690 C680 1.465 . S
C690 U686 2.847 . S
C690 O704 1.249 . S
C690 O705 1.202 . S
C691 C689 1.363 . S
C691 C693 1.408 . S
C691 C696 1.342 . S
C692 C693 1.310 . S
C692 C695 1.461 . S
C692 H712 0.932 . S
C693 C691 1.408 . S
C693 C692 1.310 . S
C693 H713 0.930 . S
C694 C695 1.474 . S
C694 C696 1.285 . S
C694 H714 0.929 . S
C695 C692 1.461 . S
C695 C694 1.474 . S
C696 C691 1.342 . S
C696 C694 1.285 . S
C696 H715 0.930 . S
C697 C700 1.424 . S
C697 C702 1.245 . S
C697 C703 1.428 . S
C698 C701 1.260 . S
C698 C702 1.477 . S
C698 H716 0.932 . S
C699 C700 1.384 . S
C699 C701 1.479 . S
C699 H717 0.929 . S
C700 C697 1.424 . S
C700 C699 1.384 . S
C700 H718 0.928 . S
C701 C698 1.260 . S
C701 C699 1.479 . S
C702 C697 1.245 . S
C702 C698 1.477 . S
C702 H719 0.932 . S
C703 U686 2.882 . S
C703 C697 1.428 . S
C703 O706 1.301 . S
C703 O707 1.282 . S
O704 U686 2.441 . S
O704 C690 1.249 . S
O705 U686 2.420 . S
O705 C690 1.202 . S
O706 U686 2.455 . S
O706 C703 1.301 . S
O707 U686 2.449 . S
O707 C703 1.282 . S
H708 C681 0.931 . S
H709 C683 0.929 . S
H710 C684 0.930 . S
H711 C685 0.931 . S
H712 C692 0.932 . S
H713 C693 0.930 . S
H714 C694 0.929 . S
H715 C696 0.930 . S
H716 C698 0.932 . S
H717 C699 0.929 . S
H718 C700 0.928 . S
H719 C702 0.932 . S
C720 C721 1.264 . S
C720 C725 1.479 . S
C720 C730 1.465 . S
C721 C720 1.264 . S
C721 C723 1.339 . S
C721 H748 0.931 . S
C722 C723 1.395 . S
C722 C724 1.320 . S
C723 C721 1.339 . S
C723 C722 1.395 . S
C723 H749 0.929 . S
C724 C722 1.320 . S
C724 C725 1.405 . S
C724 H750 0.930 . S
C725 C720 1.479 . S
C725 C724 1.405 . S
C725 H751 0.931 . S
U726 O727 2.454 1_556 S
U726 O728 2.458 . S
U726 C729 2.984 1_556 S
U726 C730 2.847 . S
U726 C743 2.882 . S
U726 O744 2.441 . S
U726 O745 2.420 . S
U726 O746 2.455 . S
U726 O747 2.449 . S
O727 U726 2.454 1_554 S
O727 C729 1.353 . S
O728 U726 2.458 . S
O728 C729 1.286 1_556 S
C729 U726 2.984 1_554 S
C729 O727 1.353 . S
C729 O728 1.286 1_554 S
C729 C731 1.363 . S
C730 C720 1.465 . S
C730 U726 2.847 . S
C730 O744 1.249 . S
C730 O745 1.202 . S
C731 C729 1.363 . S
C731 C733 1.408 . S
C731 C736 1.342 . S
C732 C733 1.310 . S
C732 C735 1.461 . S
C732 H752 0.932 . S
C733 C731 1.408 . S
C733 C732 1.310 . S
C733 H753 0.930 . S
C734 C735 1.474 . S
C734 C736 1.285 . S
C734 H754 0.929 . S
C735 C732 1.461 . S
C735 C734 1.474 . S
C736 C731 1.342 . S
C736 C734 1.285 . S
C736 H755 0.930 . S
C737 C740 1.424 . S
C737 C742 1.245 . S
C737 C743 1.428 . S
C738 C741 1.260 . S
C738 C742 1.477 . S
C738 H756 0.932 . S
C739 C740 1.384 . S
C739 C741 1.479 . S
C739 H757 0.929 . S
C740 C737 1.424 . S
C740 C739 1.384 . S
C740 H758 0.928 . S
C741 C738 1.260 . S
C741 C739 1.479 . S
C742 C737 1.245 . S
C742 C738 1.477 . S
C742 H759 0.932 . S
C743 U726 2.882 . S
C743 C737 1.428 . S
C743 O746 1.301 . S
C743 O747 1.282 . S
O744 U726 2.441 . S
O744 C730 1.249 . S
O745 U726 2.420 . S
O745 C730 1.202 . S
O746 U726 2.455 . S
O746 C743 1.301 . S
O747 U726 2.449 . S
O747 C743 1.282 . S
H748 C721 0.931 . S
H749 C723 0.929 . S
H750 C724 0.930 . S
H751 C725 0.931 . S
H752 C732 0.932 . S
H753 C733 0.930 . S
H754 C734 0.929 . S
H755 C736 0.930 . S
H756 C738 0.932 . S
H757 C739 0.929 . S
H758 C740 0.928 . S
H759 C742 0.932 . S
C760 C761 1.264 . S
C760 C765 1.479 . S
C760 C770 1.465 . S
C761 C760 1.264 . S
C761 C763 1.339 . S
C761 H788 0.931 . S
C762 C763 1.395 . S
C762 C764 1.320 . S
C763 C761 1.339 . S
C763 C762 1.395 . S
C763 H789 0.929 . S
C764 C762 1.320 . S
C764 C765 1.405 . S
C764 H790 0.930 . S
C765 C760 1.479 . S
C765 C764 1.405 . S
C765 H791 0.931 . S
U766 O767 2.454 . S
U766 O768 2.458 . S
U766 C769 2.984 . S
U766 C770 2.847 1_655 S
U766 C783 2.882 . S
U766 O784 2.441 1_655 S
U766 O785 2.420 . S
U766 O786 2.455 . S
U766 O787 2.449 . S
O767 U766 2.454 . S
O767 C769 1.353 . S
O768 U766 2.458 . S
O768 C769 1.286 . S
C769 U766 2.984 . S
C769 O767 1.353 . S
C769 O768 1.286 . S
C769 C771 1.363 . S
C770 C760 1.465 . S
C770 U766 2.847 1_455 S
C770 O784 1.249 . S
C770 O785 1.202 1_455 S
C771 C769 1.363 . S
C771 C773 1.408 . S
C771 C776 1.342 . S
C772 C773 1.310 . S
C772 C775 1.461 . S
C772 H792 0.932 . S
C773 C771 1.408 . S
C773 C772 1.310 . S
C773 H793 0.930 . S
C774 C775 1.474 . S
C774 C776 1.285 . S
C774 H794 0.929 . S
C775 C772 1.461 . S
C775 C774 1.474 . S
C776 C771 1.342 . S
C776 C774 1.285 . S
C776 H795 0.930 . S
C777 C780 1.424 . S
C777 C782 1.245 . S
C777 C783 1.428 . S
C778 C781 1.260 . S
C778 C782 1.477 . S
C778 H796 0.932 . S
C779 C780 1.384 . S
C779 C781 1.479 . S
C779 H797 0.929 . S
C780 C777 1.424 . S
C780 C779 1.384 . S
C780 H798 0.928 . S
C781 C778 1.260 . S
C781 C779 1.479 . S
C782 C777 1.245 . S
C782 C778 1.477 . S
C782 H799 0.932 . S
C783 U766 2.882 . S
C783 C777 1.428 . S
C783 O786 1.301 . S
C783 O787 1.282 . S
O784 U766 2.441 1_455 S
O784 C770 1.249 . S
O785 U766 2.420 . S
O785 C770 1.202 1_655 S
O786 U766 2.455 . S
O786 C783 1.301 . S
O787 U766 2.449 . S
O787 C783 1.282 . S
H788 C761 0.931 . S
H789 C763 0.929 . S
H790 C764 0.930 . S
H791 C765 0.931 . S
H792 C772 0.932 . S
H793 C773 0.930 . S
H794 C774 0.929 . S
H795 C776 0.930 . S
H796 C778 0.932 . S
H797 C779 0.929 . S
H798 C780 0.928 . S
H799 C782 0.932 . S
C800 C801 1.264 . S
C800 C805 1.479 . S
C800 C810 1.465 . S
C801 C800 1.264 . S
C801 C803 1.339 . S
C801 H828 0.931 . S
C802 C803 1.395 . S
C802 C804 1.320 . S
C803 C801 1.339 . S
C803 C802 1.395 . S
C803 H829 0.929 . S
C804 C802 1.320 . S
C804 C805 1.405 . S
C804 H830 0.930 . S
C805 C800 1.479 . S
C805 C804 1.405 . S
C805 H831 0.931 . S
U806 O807 2.454 . S
U806 O808 2.458 . S
U806 C809 2.984 . S
U806 C810 2.847 . S
U806 C823 2.882 . S
U806 O824 2.441 . S
U806 O825 2.420 . S
U806 O826 2.455 . S
U806 O827 2.449 . S
O807 U806 2.454 . S
O807 C809 1.353 . S
O808 U806 2.458 . S
O808 C809 1.286 . S
C809 U806 2.984 . S
C809 O807 1.353 . S
C809 O808 1.286 . S
C809 C811 1.363 . S
C810 C800 1.465 . S
C810 U806 2.847 . S
C810 O824 1.249 . S
C810 O825 1.202 . S
C811 C809 1.363 . S
C811 C813 1.408 . S
C811 C816 1.342 . S
C812 C813 1.310 . S
C812 C815 1.461 . S
C812 H832 0.932 . S
C813 C811 1.408 . S
C813 C812 1.310 . S
C813 H833 0.930 . S
C814 C815 1.474 . S
C814 C816 1.285 . S
C814 H834 0.929 . S
C815 C812 1.461 . S
C815 C814 1.474 . S
C816 C811 1.342 . S
C816 C814 1.285 . S
C816 H835 0.930 . S
C817 C820 1.424 . S
C817 C822 1.245 . S
C817 C823 1.428 . S
C818 C821 1.260 . S
C818 C822 1.477 . S
C818 H836 0.932 . S
C819 C820 1.384 . S
C819 C821 1.479 . S
C819 H837 0.929 . S
C820 C817 1.424 . S
C820 C819 1.384 . S
C820 H838 0.928 . S
C821 C818 1.260 . S
C821 C819 1.479 . S
C822 C817 1.245 . S
C822 C818 1.477 . S
C822 H839 0.932 . S
C823 U806 2.882 . S
C823 C817 1.428 . S
C823 O826 1.301 . S
C823 O827 1.282 . S
O824 U806 2.441 . S
O824 C810 1.249 . S
O825 U806 2.420 . S
O825 C810 1.202 . S
O826 U806 2.455 . S
O826 C823 1.301 . S
O827 U806 2.449 . S
O827 C823 1.282 . S
H828 C801 0.931 . S
H829 C803 0.929 . S
H830 C804 0.930 . S
H831 C805 0.931 . S
H832 C812 0.932 . S
H833 C813 0.930 . S
H834 C814 0.929 . S
H835 C816 0.930 . S
H836 C818 0.932 . S
H837 C819 0.929 . S
H838 C820 0.928 . S
H839 C822 0.932 . S
C840 C841 1.264 . S
C840 C845 1.479 . S
C840 C850 1.465 . S
C841 C840 1.264 . S
C841 C843 1.339 . S
C841 H868 0.931 . S
C842 C843 1.395 . S
C842 C844 1.320 . S
C843 C841 1.339 . S
C843 C842 1.395 . S
C843 H869 0.929 . S
C844 C842 1.320 . S
C844 C845 1.405 . S
C844 H870 0.930 . S
C845 C840 1.479 . S
C845 C844 1.405 . S
C845 H871 0.931 . S
U846 O847 2.454 . S
U846 O848 2.458 . S
U846 C849 2.984 . S
U846 C850 2.847 . S
U846 C863 2.882 . S
U846 O864 2.441 . S
U846 O865 2.420 . S
U846 O866 2.455 . S
U846 O867 2.449 . S
O847 U846 2.454 . S
O847 C849 1.353 . S
O848 U846 2.458 . S
O848 C849 1.286 . S
C849 U846 2.984 . S
C849 O847 1.353 . S
C849 O848 1.286 . S
C849 C851 1.363 . S
C850 C840 1.465 . S
C850 U846 2.847 . S
C850 O864 1.249 . S
C850 O865 1.202 . S
C851 C849 1.363 . S
C851 C853 1.408 . S
C851 C856 1.342 . S
C852 C853 1.310 . S
C852 C855 1.461 . S
C852 H872 0.932 . S
C853 C851 1.408 . S
C853 C852 1.310 . S
C853 H873 0.930 . S
C854 C855 1.474 . S
C854 C856 1.285 . S
C854 H874 0.929 . S
C855 C852 1.461 . S
C855 C854 1.474 . S
C856 C851 1.342 . S
C856 C854 1.285 . S
C856 H875 0.930 . S
C857 C860 1.424 . S
C857 C862 1.245 . S
C857 C863 1.428 . S
C858 C861 1.260 . S
C858 C862 1.477 . S
C858 H876 0.932 . S
C859 C860 1.384 . S
C859 C861 1.479 . S
C859 H877 0.929 . S
C860 C857 1.424 . S
C860 C859 1.384 . S
C860 H878 0.928 . S
C861 C858 1.260 . S
C861 C859 1.479 . S
C862 C857 1.245 . S
C862 C858 1.477 . S
C862 H879 0.932 . S
C863 U846 2.882 . S
C863 C857 1.428 . S
C863 O866 1.301 . S
C863 O867 1.282 . S
O864 U846 2.441 . S
O864 C850 1.249 . S
O865 U846 2.420 . S
O865 C850 1.202 . S
O866 U846 2.455 . S
O866 C863 1.301 . S
O867 U846 2.449 . S
O867 C863 1.282 . S
H868 C841 0.931 . S
H869 C843 0.929 . S
H870 C844 0.930 . S
H871 C845 0.931 . S
H872 C852 0.932 . S
H873 C853 0.930 . S
H874 C854 0.929 . S
H875 C856 0.930 . S
H876 C858 0.932 . S
H877 C859 0.929 . S
H878 C860 0.928 . S
H879 C862 0.932 . S
C880 C881 1.264 . S
C880 C885 1.479 1_554 S
C880 C890 1.465 . S
C881 C880 1.264 . S
C881 C883 1.339 1_554 S
C881 H908 0.931 . S
C882 C883 1.395 . S
C882 C884 1.320 . S
C883 C881 1.339 1_556 S
C883 C882 1.395 . S
C883 H909 0.929 . S
C884 C882 1.320 . S
C884 C885 1.405 . S
C884 H910 0.930 . S
C885 C880 1.479 1_556 S
C885 C884 1.405 . S
C885 H911 0.931 . S
U886 O887 2.454 . S
U886 O888 2.458 . S
U886 C889 2.984 . S
U886 C890 2.847 . S
U886 C903 2.882 . S
U886 O904 2.441 . S
U886 O905 2.420 . S
U886 O906 2.455 . S
U886 O907 2.449 . S
O887 U886 2.454 . S
O887 C889 1.353 . S
O888 U886 2.458 . S
O888 C889 1.286 . S
C889 U886 2.984 . S
C889 O887 1.353 . S
C889 O888 1.286 . S
C889 C891 1.363 . S
C890 C880 1.465 . S
C890 U886 2.847 . S
C890 O904 1.249 . S
C890 O905 1.202 . S
C891 C889 1.363 . S
C891 C893 1.408 . S
C891 C896 1.342 . S
C892 C893 1.310 . S
C892 C895 1.461 . S
C892 H912 0.932 . S
C893 C891 1.408 . S
C893 C892 1.310 . S
C893 H913 0.930 . S
C894 C895 1.474 . S
C894 C896 1.285 . S
C894 H914 0.929 . S
C895 C892 1.461 . S
C895 C894 1.474 . S
C896 C891 1.342 . S
C896 C894 1.285 . S
C896 H915 0.930 . S
C897 C900 1.424 . S
C897 C902 1.245 . S
C897 C903 1.428 . S
C898 C901 1.260 . S
C898 C902 1.477 . S
C898 H916 0.932 . S
C899 C900 1.384 . S
C899 C901 1.479 . S
C899 H917 0.929 . S
C900 C897 1.424 . S
C900 C899 1.384 . S
C900 H918 0.928 . S
C901 C898 1.260 . S
C901 C899 1.479 . S
C902 C897 1.245 . S
C902 C898 1.477 . S
C902 H919 0.932 . S
C903 U886 2.882 . S
C903 C897 1.428 . S
C903 O906 1.301 . S
C903 O907 1.282 . S
O904 U886 2.441 . S
O904 C890 1.249 . S
O905 U886 2.420 . S
O905 C890 1.202 . S
O906 U886 2.455 . S
O906 C903 1.301 . S
O907 U886 2.449 . S
O907 C903 1.282 . S
H908 C881 0.931 . S
H909 C883 0.929 . S
H910 C884 0.930 . S
H911 C885 0.931 . S
H912 C892 0.932 . S
H913 C893 0.930 . S
H914 C894 0.929 . S
H915 C896 0.930 . S
H916 C898 0.932 . S
H917 C899 0.929 . S
H918 C900 0.928 . S
H919 C902 0.932 . S
C920 C921 1.264 . S
C920 C925 1.479 1_565 S
C920 C930 1.459 1_565 S
C921 C920 1.264 . S
C921 C923 1.339 . S
C921 H948 0.931 . S
C922 C923 1.395 . S
C922 C924 1.320 1_565 S
C923 C921 1.339 . S
C923 C922 1.395 . S
C923 H949 0.929 . S
C924 C922 1.320 1_545 S
C924 C925 1.405 . S
C924 H950 0.930 . S
C925 C920 1.479 1_545 S
C925 C924 1.405 . S
C925 H951 0.931 . S
U926 O927 2.454 . S
U926 O928 2.458 . S
U926 C929 2.984 . S
U926 C930 2.851 . S
U926 C943 2.882 1_545 S
U926 O944 2.441 . S
U926 O945 2.420 1_545 S
U926 O946 2.455 1_545 S
U926 O947 2.449 1_545 S
O927 U926 2.454 . S
O927 C929 1.353 . S
O928 U926 2.458 . S
O928 C929 1.286 . S
C929 U926 2.984 . S
C929 O927 1.353 . S
C929 O928 1.286 . S
C929 C931 1.363 . S
C930 C920 1.459 1_545 S
C930 U926 2.851 . S
C930 O944 1.264 . S
C930 O945 1.192 1_545 S
C931 C929 1.363 . S
C931 C933 1.408 . S
C931 C936 1.342 . S
C932 C933 1.310 . S
C932 C935 1.461 . S
C932 H952 0.932 . S
C933 C931 1.408 . S
C933 C932 1.310 . S
C933 H953 0.930 . S
C934 C935 1.474 . S
C934 C936 1.285 . S
C934 H954 0.929 . S
C935 C932 1.461 . S
C935 C934 1.474 . S
C936 C931 1.342 . S
C936 C934 1.285 . S
C936 H955 0.930 . S
C937 C940 1.424 . S
C937 C942 1.245 . S
C937 C943 1.428 . S
C938 C941 1.260 . S
C938 C942 1.477 . S
C938 H956 0.932 . S
C939 C940 1.384 . S
C939 C941 1.479 . S
C939 H957 0.929 . S
C940 C937 1.424 . S
C940 C939 1.384 . S
C940 H958 0.928 . S
C941 C938 1.260 . S
C941 C939 1.479 . S
C942 C937 1.245 . S
C942 C938 1.477 . S
C942 H959 0.932 . S
C943 U926 2.882 1_565 S
C943 C937 1.428 . S
C943 O946 1.301 . S
C943 O947 1.282 . S
O944 U926 2.441 . S
O944 C930 1.264 . S
O945 U926 2.420 1_565 S
O945 C930 1.192 1_565 S
O946 U926 2.455 1_565 S
O946 C943 1.301 . S
O947 U926 2.449 1_565 S
O947 C943 1.282 . S
H948 C921 0.931 . S
H949 C923 0.929 . S
H950 C924 0.930 . S
H951 C925 0.931 . S
H952 C932 0.932 . S
H953 C933 0.930 . S
H954 C934 0.929 . S
H955 C936 0.930 . S
H956 C938 0.932 . S
H957 C939 0.929 . S
H958 C940 0.928 . S
H959 C942 0.932 . S
C960 C961 1.264 . S
C960 C965 1.479 . S
C960 C970 1.465 . S
C961 C960 1.264 . S
C961 C963 1.339 . S
C961 H988 0.931 . S
C962 C963 1.395 . S
C962 C964 1.320 . S
C963 C961 1.339 . S
C963 C962 1.395 . S
C963 H989 0.929 . S
C964 C962 1.320 . S
C964 C965 1.405 . S
C964 H990 0.930 . S
C965 C960 1.479 . S
C965 C964 1.405 . S
C965 H991 0.931 1_565 S
U966 O967 2.506 . S
U966 O968 2.497 . S
U966 C969 3.035 . S
U966 C970 2.835 1_545 S
U966 C983 2.844 1_545 S
U966 O984 2.453 . S
U966 O985 2.389 1_545 S
U966 O986 2.438 1_545 S
U966 O987 2.398 1_545 S
O967 U966 2.506 . S
O967 C969 1.353 . S
O968 U966 2.497 . S
O968 C969 1.286 . S
C969 U966 3.035 . S
C969 O967 1.353 . S
C969 O968 1.286 . S
C969 C971 1.363 . S
C970 C960 1.465 . S
C970 U966 2.835 1_565 S
C970 O984 1.249 1_565 S
C970 O985 1.202 . S
C971 C969 1.363 . S
C971 C973 1.408 . S
C971 C976 1.342 . S
C972 C973 1.310 . S
C972 C975 1.461 . S
C972 H992 0.932 . S
C973 C971 1.408 . S
C973 C972 1.310 . S
C973 H993 0.930 . S
C974 C975 1.474 . S
C974 C976 1.285 . S
C974 H994 0.929 . S
C975 C972 1.461 . S
C975 C974 1.474 . S
C976 C971 1.342 . S
C976 C974 1.285 . S
C976 H995 0.930 . S
C977 C980 1.424 . S
C977 C982 1.245 . S
C977 C983 1.428 . S
C978 C981 1.260 . S
C978 C982 1.477 . S
C978 H996 0.932 . S
C979 C980 1.384 . S
C979 C981 1.479 . S
C979 H997 0.929 . S
C980 C977 1.424 . S
C980 C979 1.384 . S
C980 H998 0.928 . S
C981 C978 1.260 . S
C981 C979 1.479 . S
C982 C977 1.245 . S
C982 C978 1.477 . S
C982 H999 0.932 . S
C983 U966 2.844 1_565 S
C983 C977 1.428 . S
C983 O986 1.301 . S
C983 O987 1.282 . S
O984 U966 2.453 . S
O984 C970 1.249 1_545 S
O985 U966 2.389 1_565 S
O985 C970 1.202 . S
O986 U966 2.438 1_565 S
O986 C983 1.301 . S
O987 U966 2.398 1_565 S
O987 C983 1.282 . S
H988 C961 0.931 . S
H989 C963 0.929 . S
H990 C964 0.930 . S
H991 C965 0.931 1_545 S
H992 C972 0.932 . S
H993 C973 0.930 . S
H994 C974 0.929 . S
H995 C976 0.930 . S
H996 C978 0.932 . S
H997 C979 0.929 . S
H998 C980 0.928 . S
H999 C982 0.932 . S
C1000 C1001 1.264 . S
C1000 C1005 1.479 . S
C1000 C1010 1.465 . S
C1001 C1000 1.264 . S
C1001 C1003 1.339 . S
C1001 H1028 0.931 . S
C1002 C1003 1.395 . S
C1002 C1004 1.320 . S
C1003 C1001 1.339 . S
C1003 C1002 1.395 . S
C1003 H1029 0.929 . S
C1004 C1002 1.320 . S
C1004 C1005 1.405 . S
C1004 H1030 0.930 . S
C1005 C1000 1.479 . S
C1005 C1004 1.405 . S
C1005 H1031 0.931 . S
U1006 O1007 2.454 . S
U1006 O1008 2.458 1_565 S
U1006 C1009 2.984 1_565 S
U1006 C1010 2.847 . S
U1006 C1023 2.882 1_565 S
U1006 O1024 2.441 . S
U1006 O1025 2.420 . S
U1006 O1026 2.455 1_565 S
U1006 O1027 2.449 1_565 S
O1007 U1006 2.454 . S
O1007 C1009 1.353 1_565 S
O1008 U1006 2.458 1_545 S
O1008 C1009 1.286 . S
C1009 U1006 2.984 1_545 S
C1009 O1007 1.353 1_545 S
C1009 O1008 1.286 . S
C1009 C1011 1.363 . S
C1010 C1000 1.465 . S
C1010 U1006 2.847 . S
C1010 O1024 1.249 . S
C1010 O1025 1.202 . S
C1011 C1009 1.363 . S
C1011 C1013 1.408 1_545 S
C1011 C1016 1.342 . S
C1012 C1013 1.310 . S
C1012 C1015 1.461 1_565 S
C1012 H1032 0.932 . S
C1013 C1011 1.408 1_565 S
C1013 C1012 1.310 . S
C1013 H1033 0.930 . S
C1014 C1015 1.474 . S
C1014 C1016 1.285 . S
C1014 H1034 0.929 . S
C1015 C1012 1.461 1_545 S
C1015 C1014 1.474 . S
C1016 C1011 1.342 . S
C1016 C1014 1.285 . S
C1016 H1035 0.930 . S
C1017 C1020 1.424 . S
C1017 C1022 1.245 . S
C1017 C1023 1.428 . S
C1018 C1021 1.260 . S
C1018 C1022 1.477 . S
C1018 H1036 0.932 . S
C1019 C1020 1.384 . S
C1019 C1021 1.479 . S
C1019 H1037 0.929 . S
C1020 C1017 1.424 . S
C1020 C1019 1.384 . S
C1020 H1038 0.928 . S
C1021 C1018 1.260 . S
C1021 C1019 1.479 . S
C1022 C1017 1.245 . S
C1022 C1018 1.477 . S
C1022 H1039 0.932 . S
C1023 U1006 2.882 1_545 S
C1023 C1017 1.428 . S
C1023 O1026 1.301 . S
C1023 O1027 1.282 . S
O1024 U1006 2.441 . S
O1024 C1010 1.249 . S
O1025 U1006 2.420 . S
O1025 C1010 1.202 . S
O1026 U1006 2.455 1_545 S
O1026 C1023 1.301 . S
O1027 U1006 2.449 1_545 S
O1027 C1023 1.282 . S
H1028 C1001 0.931 . S
H1029 C1003 0.929 . S
H1030 C1004 0.930 . S
H1031 C1005 0.931 . S
H1032 C1012 0.932 . S
H1033 C1013 0.930 . S
H1034 C1014 0.929 . S
H1035 C1016 0.930 . S
H1036 C1018 0.932 . S
H1037 C1019 0.929 . S
H1038 C1020 0.928 . S
H1039 C1022 0.932 . S
C1040 C1041 1.264 . S
C1040 C1045 1.479 . S
C1040 C1050 1.465 . S
C1041 C1040 1.264 . S
C1041 C1043 1.339 . S
C1041 H1068 0.931 . S
C1042 C1043 1.395 . S
C1042 C1044 1.320 . S
C1043 C1041 1.339 . S
C1043 C1042 1.395 . S
C1043 H1069 0.929 . S
C1044 C1042 1.320 . S
C1044 C1045 1.405 . S
C1044 H1070 0.930 . S
C1045 C1040 1.479 . S
C1045 C1044 1.405 . S
C1045 H1071 0.931 . S
U1046 O1047 2.449 1_545 S
U1046 O1048 2.474 . S
U1046 C1049 2.991 . S
U1046 C1050 2.823 1_545 S
U1046 C1063 2.901 . S
U1046 O1064 2.416 1_545 S
U1046 O1065 2.402 1_545 S
U1046 O1066 2.479 . S
U1046 O1067 2.458 . S
O1047 U1046 2.449 1_565 S
O1047 C1049 1.353 1_565 S
O1048 U1046 2.474 . S
O1048 C1049 1.286 . S
C1049 U1046 2.991 . S
C1049 O1047 1.353 1_545 S
C1049 O1048 1.286 . S
C1049 C1051 1.363 . S
C1050 C1040 1.465 . S
C1050 U1046 2.823 1_565 S
C1050 O1064 1.249 . S
C1050 O1065 1.202 . S
C1051 C1049 1.363 . S
C1051 C1053 1.408 . S
C1051 C1056 1.342 . S
C1052 C1053 1.310 . S
C1052 C1055 1.461 . S
C1052 H1072 0.932 . S
C1053 C1051 1.408 . S
C1053 C1052 1.310 . S
C1053 H1073 0.930 1_545 S
C1054 C1055 1.474 . S
C1054 C1056 1.285 . S
C1054 H1074 0.929 . S
C1055 C1052 1.461 . S
C1055 C1054 1.474 . S
C1056 C1051 1.342 . S
C1056 C1054 1.285 . S
C1056 H1075 0.930 . S
C1057 C1060 1.424 . S
C1057 C1062 1.245 . S
C1057 C1063 1.428 . S
C1058 C1061 1.260 . S
C1058 C1062 1.477 . S
C1058 H1076 0.932 . S
C1059 C1060 1.384 . S
C1059 C1061 1.479 . S
C1059 H1077 0.929 . S
C1060 C1057 1.424 . S
C1060 C1059 1.384 . S
C1060 H1078 0.928 . S
C1061 C1058 1.260 . S
C1061 C1059 1.479 . S
C1062 C1057 1.245 . S
C1062 C1058 1.477 . S
C1062 H1079 0.932 . S
C1063 U1046 2.901 . S
C1063 C1057 1.428 . S
C1063 O1066 1.301 . S
C1063 O1067 1.282 . S
O1064 U1046 2.416 1_565 S
O1064 C1050 1.249 . S
O1065 U1046 2.402 1_565 S
O1065 C1050 1.202 . S
O1066 U1046 2.479 . S
O1066 C1063 1.301 . S
O1067 U1046 2.458 . S
O1067 C1063 1.282 . S
H1068 C1041 0.931 . S
H1069 C1043 0.929 . S
H1070 C1044 0.930 . S
H1071 C1045 0.931 . S
H1072 C1052 0.932 . S
H1073 C1053 0.930 1_565 S
H1074 C1054 0.929 . S
H1075 C1056 0.930 . S
H1076 C1058 0.932 . S
H1077 C1059 0.929 . S
H1078 C1060 0.928 . S
H1079 C1062 0.932 . S
C1080 C1081 1.264 . S
C1080 C1085 1.479 . S
C1080 C1090 1.465 . S
C1081 C1080 1.264 . S
C1081 C1083 1.339 . S
C1081 H1108 0.931 . S
C1082 C1083 1.395 . S
C1082 C1084 1.320 . S
C1083 C1081 1.339 . S
C1083 C1082 1.395 . S
C1083 H1109 0.929 . S
C1084 C1082 1.320 . S
C1084 C1085 1.405 . S
C1084 H1110 0.930 . S
C1085 C1080 1.479 . S
C1085 C1084 1.405 . S
C1085 H1111 0.931 . S
U1086 O1087 2.454 . S
U1086 O1088 2.458 . S
U1086 C1089 2.984 . S
U1086 C1090 2.847 . S
U1086 C1103 2.882 . S
U1086 O1104 2.441 . S
U1086 O1105 2.420 . S
U1086 O1106 2.455 . S
U1086 O1107 2.449 . S
O1087 U1086 2.454 . S
O1087 C1089 1.353 . S
O1088 U1086 2.458 . S
O1088 C1089 1.286 . S
C1089 U1086 2.984 . S
C1089 O1087 1.353 . S
C1089 O1088 1.286 . S
C1089 C1091 1.363 1_556 S
C1090 C1080 1.465 . S
C1090 U1086 2.847 . S
C1090 O1104 1.249 . S
C1090 O1105 1.202 . S
C1091 C1089 1.363 1_554 S
C1091 C1093 1.408 . S
C1091 C1096 1.342 . S
C1092 C1093 1.310 . S
C1092 C1095 1.461 . S
C1092 H1112 0.932 . S
C1093 C1091 1.408 . S
C1093 C1092 1.310 . S
C1093 H1113 0.930 . S
C1094 C1095 1.474 . S
C1094 C1096 1.285 . S
C1094 H1114 0.929 . S
C1095 C1092 1.461 . S
C1095 C1094 1.474 . S
C1096 C1091 1.342 . S
C1096 C1094 1.285 . S
C1096 H1115 0.930 1_554 S
C1097 C1100 1.424 . S
C1097 C1102 1.245 . S
C1097 C1103 1.428 . S
C1098 C1101 1.260 . S
C1098 C1102 1.477 . S
C1098 H1116 0.932 . S
C1099 C1100 1.384 . S
C1099 C1101 1.479 . S
C1099 H1117 0.929 . S
C1100 C1097 1.424 . S
C1100 C1099 1.384 . S
C1100 H1118 0.928 . S
C1101 C1098 1.260 . S
C1101 C1099 1.479 . S
C1102 C1097 1.245 . S
C1102 C1098 1.477 . S
C1102 H1119 0.932 . S
C1103 U1086 2.882 . S
C1103 C1097 1.428 . S
C1103 O1106 1.301 . S
C1103 O1107 1.282 . S
O1104 U1086 2.441 . S
O1104 C1090 1.249 . S
O1105 U1086 2.420 . S
O1105 C1090 1.202 . S
O1106 U1086 2.455 . S
O1106 C1103 1.301 . S
O1107 U1086 2.449 . S
O1107 C1103 1.282 . S
H1108 C1081 0.931 . S
H1109 C1083 0.929 . S
H1110 C1084 0.930 . S
H1111 C1085 0.931 . S
H1112 C1092 0.932 . S
H1113 C1093 0.930 . S
H1114 C1094 0.929 . S
H1115 C1096 0.930 1_556 S
H1116 C1098 0.932 . S
H1117 C1099 0.929 . S
H1118 C1100 0.928 . S
H1119 C1102 0.932 . S
C1120 C1121 1.264 . S
C1120 C1125 1.479 . S
C1120 C1130 1.465 . S
C1121 C1120 1.264 . S
C1121 C1123 1.339 . S
C1121 H1148 0.931 . S
C1122 C1123 1.395 . S
C1122 C1124 1.320 . S
C1123 C1121 1.339 . S
C1123 C1122 1.395 . S
C1123 H1149 0.929 . S
C1124 C1122 1.320 . S
C1124 C1125 1.405 . S
C1124 H1150 0.930 . S
C1125 C1120 1.479 . S
C1125 C1124 1.405 . S
C1125 H1151 0.931 . S
U1126 O1127 2.454 1_455 S
U1126 O1128 2.458 . S
U1126 C1129 2.984 . S
U1126 C1130 2.847 1_455 S
U1126 C1143 2.882 . S
U1126 O1144 2.441 1_455 S
U1126 O1145 2.420 1_455 S
U1126 O1146 2.455 . S
U1126 O1147 2.449 . S
O1127 U1126 2.454 1_655 S
O1127 C1129 1.353 1_655 S
O1128 U1126 2.458 . S
O1128 C1129 1.286 . S
C1129 U1126 2.984 . S
C1129 O1127 1.353 1_455 S
C1129 O1128 1.286 . S
C1129 C1131 1.363 . S
C1130 C1120 1.465 . S
C1130 U1126 2.847 1_655 S
C1130 O1144 1.249 . S
C1130 O1145 1.202 . S
C1131 C1129 1.363 . S
C1131 C1133 1.393 1_455 S
C1131 C1136 1.342 . S
C1132 C1133 1.307 1_455 S
C1132 C1135 1.461 . S
C1132 H1152 0.932 1_455 S
C1133 C1131 1.393 1_655 S
C1133 C1132 1.307 1_655 S
C1133 H1153 0.948 . S
C1134 C1135 1.474 . S
C1134 C1136 1.285 . S
C1134 H1154 0.929 . S
C1135 C1132 1.461 . S
C1135 C1134 1.474 . S
C1136 C1131 1.342 . S
C1136 C1134 1.285 . S
C1136 H1155 0.930 . S
C1137 C1140 1.424 . S
C1137 C1142 1.245 . S
C1137 C1143 1.428 . S
C1138 C1141 1.260 . S
C1138 C1142 1.477 . S
C1138 H1156 0.932 . S
C1139 C1140 1.384 . S
C1139 C1141 1.479 . S
C1139 H1157 0.929 . S
C1140 C1137 1.424 . S
C1140 C1139 1.384 . S
C1140 H1158 0.928 . S
C1141 C1138 1.260 . S
C1141 C1139 1.479 . S
C1142 C1137 1.245 . S
C1142 C1138 1.477 . S
C1142 H1159 0.932 . S
C1143 U1126 2.882 . S
C1143 C1137 1.428 . S
C1143 O1146 1.301 . S
C1143 O1147 1.282 . S
O1144 U1126 2.441 1_655 S
O1144 C1130 1.249 . S
O1145 U1126 2.420 1_655 S
O1145 C1130 1.202 . S
O1146 U1126 2.455 . S
O1146 C1143 1.301 . S
O1147 U1126 2.449 . S
O1147 C1143 1.282 . S
H1148 C1121 0.931 . S
H1149 C1123 0.929 . S
H1150 C1124 0.930 . S
H1151 C1125 0.931 . S
H1152 C1132 0.932 1_655 S
H1153 C1133 0.948 . S
H1154 C1134 0.929 . S
H1155 C1136 0.930 . S
H1156 C1138 0.932 . S
H1157 C1139 0.929 . S
H1158 C1140 0.928 . S
H1159 C1142 0.932 . S
C1160 C1161 1.264 . S
C1160 C1165 1.479 . S
C1160 C1170 1.465 . S
C1161 C1160 1.264 . S
C1161 C1163 1.339 . S
C1161 H1188 0.931 . S
C1162 C1163 1.395 . S
C1162 C1164 1.320 . S
C1163 C1161 1.339 . S
C1163 C1162 1.395 . S
C1163 H1189 0.929 . S
C1164 C1162 1.320 . S
C1164 C1165 1.405 . S
C1164 H1190 0.930 . S
C1165 C1160 1.479 . S
C1165 C1164 1.405 . S
C1165 H1191 0.931 . S
U1166 O1167 2.454 . S
U1166 O1168 2.458 . S
U1166 C1169 2.984 . S
U1166 C1170 2.847 . S
U1166 C1183 2.882 . S
U1166 O1184 2.441 . S
U1166 O1185 2.420 . S
U1166 O1186 2.455 . S
U1166 O1187 2.449 . S
O1167 U1166 2.454 . S
O1167 C1169 1.353 . S
O1168 U1166 2.458 . S
O1168 C1169 1.286 . S
C1169 U1166 2.984 . S
C1169 O1167 1.353 . S
C1169 O1168 1.286 . S
C1169 C1171 1.363 . S
C1170 C1160 1.465 . S
C1170 U1166 2.847 . S
C1170 O1184 1.249 . S
C1170 O1185 1.202 . S
C1171 C1169 1.363 . S
C1171 C1173 1.408 . S
C1171 C1176 1.342 . S
C1172 C1173 1.310 . S
C1172 C1175 1.461 . S
C1172 H1192 0.932 . S
C1173 C1171 1.408 . S
C1173 C1172 1.310 . S
C1173 H1193 0.930 . S
C1174 C1175 1.474 . S
C1174 C1176 1.285 . S
C1174 H1194 0.929 . S
C1175 C1172 1.461 . S
C1175 C1174 1.474 . S
C1176 C1171 1.342 . S
C1176 C1174 1.285 . S
C1176 H1195 0.930 . S
C1177 C1180 1.424 . S
C1177 C1182 1.245 . S
C1177 C1183 1.428 . S
C1178 C1181 1.260 . S
C1178 C1182 1.477 . S
C1178 H1196 0.932 . S
C1179 C1180 1.384 . S
C1179 C1181 1.479 . S
C1179 H1197 0.929 . S
C1180 C1177 1.424 . S
C1180 C1179 1.384 . S
C1180 H1198 0.928 . S
C1181 C1178 1.260 . S
C1181 C1179 1.479 . S
C1182 C1177 1.245 . S
C1182 C1178 1.477 . S
C1182 H1199 0.932 . S
C1183 U1166 2.882 . S
C1183 C1177 1.428 . S
C1183 O1186 1.301 . S
C1183 O1187 1.282 . S
O1184 U1166 2.441 . S
O1184 C1170 1.249 . S
O1185 U1166 2.420 . S
O1185 C1170 1.202 . S
O1186 U1166 2.455 . S
O1186 C1183 1.301 . S
O1187 U1166 2.449 . S
O1187 C1183 1.282 . S
H1188 C1161 0.931 . S
H1189 C1163 0.929 . S
H1190 C1164 0.930 . S
H1191 C1165 0.931 . S
H1192 C1172 0.932 . S
H1193 C1173 0.930 . S
H1194 C1174 0.929 . S
H1195 C1176 0.930 . S
H1196 C1178 0.932 . S
H1197 C1179 0.929 . S
H1198 C1180 0.928 . S
H1199 C1182 0.932 . S
C1200 C1201 1.264 . S
C1200 C1205 1.479 . S
C1200 C1210 1.465 . S
C1201 C1200 1.264 . S
C1201 C1203 1.339 . S
C1201 H1228 0.931 . S
C1202 C1203 1.395 . S
C1202 C1204 1.320 . S
C1203 C1201 1.339 . S
C1203 C1202 1.395 . S
C1203 H1229 0.929 . S
C1204 C1202 1.320 . S
C1204 C1205 1.405 . S
C1204 H1230 0.930 . S
C1205 C1200 1.479 . S
C1205 C1204 1.405 . S
C1205 H1231 0.931 . S
U1206 O1207 2.454 . S
U1206 O1208 2.458 . S
U1206 C1209 2.984 . S
U1206 C1210 2.847 . S
U1206 C1223 2.882 . S
U1206 O1224 2.441 . S
U1206 O1225 2.420 . S
U1206 O1226 2.455 . S
U1206 O1227 2.449 . S
O1207 U1206 2.454 . S
O1207 C1209 1.353 . S
O1208 U1206 2.458 . S
O1208 C1209 1.286 . S
C1209 U1206 2.984 . S
C1209 O1207 1.353 . S
C1209 O1208 1.286 . S
C1209 C1211 1.363 . S
C1210 C1200 1.465 . S
C1210 U1206 2.847 . S
C1210 O1224 1.249 . S
C1210 O1225 1.202 . S
C1211 C1209 1.363 . S
C1211 C1213 1.408 . S
C1211 C1216 1.342 . S
C1212 C1213 1.310 . S
C1212 C1215 1.461 . S
C1212 H1232 0.932 . S
C1213 C1211 1.408 . S
C1213 C1212 1.310 . S
C1213 H1233 0.930 . S
C1214 C1215 1.474 . S
C1214 C1216 1.285 . S
C1214 H1234 0.929 . S
C1215 C1212 1.461 . S
C1215 C1214 1.474 . S
C1216 C1211 1.342 . S
C1216 C1214 1.285 . S
C1216 H1235 0.930 . S
C1217 C1220 1.424 . S
C1217 C1222 1.245 . S
C1217 C1223 1.428 . S
C1218 C1221 1.260 . S
C1218 C1222 1.477 . S
C1218 H1236 0.932 . S
C1219 C1220 1.384 . S
C1219 C1221 1.479 . S
C1219 H1237 0.929 . S
C1220 C1217 1.424 . S
C1220 C1219 1.384 . S
C1220 H1238 0.928 . S
C1221 C1218 1.260 . S
C1221 C1219 1.479 . S
C1222 C1217 1.245 . S
C1222 C1218 1.477 . S
C1222 H1239 0.932 . S
C1223 U1206 2.882 . S
C1223 C1217 1.428 . S
C1223 O1226 1.301 . S
C1223 O1227 1.282 . S
O1224 U1206 2.441 . S
O1224 C1210 1.249 . S
O1225 U1206 2.420 . S
O1225 C1210 1.202 . S
O1226 U1206 2.455 . S
O1226 C1223 1.301 . S
O1227 U1206 2.449 . S
O1227 C1223 1.282 . S
H1228 C1201 0.931 . S
H1229 C1203 0.929 . S
H1230 C1204 0.930 . S
H1231 C1205 0.931 . S
H1232 C1212 0.932 . S
H1233 C1213 0.930 . S
H1234 C1214 0.929 . S
H1235 C1216 0.930 . S
H1236 C1218 0.932 . S
H1237 C1219 0.929 . S
H1238 C1220 0.928 . S
H1239 C1222 0.932 . S
C1240 C1241 1.264 . S
C1240 C1245 1.479 . S
C1240 C1250 1.465 . S
C1241 C1240 1.264 . S
C1241 C1243 1.339 . S
C1241 H1268 0.931 . S
C1242 C1243 1.395 . S
C1242 C1244 1.320 . S
C1243 C1241 1.339 . S
C1243 C1242 1.395 . S
C1243 H1269 0.929 . S
C1244 C1242 1.320 . S
C1244 C1245 1.405 . S
C1244 H1270 0.930 . S
C1245 C1240 1.479 . S
C1245 C1244 1.405 . S
C1245 H1271 0.931 . S
U1246 O1247 2.454 1_655 S
U1246 O1248 2.458 1_655 S
U1246 C1249 2.984 1_655 S
U1246 C1250 2.847 . S
U1246 C1263 2.882 . S
U1246 O1264 2.441 . S
U1246 O1265 2.420 . S
U1246 O1266 2.455 . S
U1246 O1267 2.449 . S
O1247 U1246 2.454 1_455 S
O1247 C1249 1.353 . S
O1248 U1246 2.458 1_455 S
O1248 C1249 1.286 . S
C1249 U1246 2.984 1_455 S
C1249 O1247 1.353 . S
C1249 O1248 1.286 . S
C1249 C1251 1.363 . S
C1250 C1240 1.465 . S
C1250 U1246 2.847 . S
C1250 O1264 1.249 . S
C1250 O1265 1.202 . S
C1251 C1249 1.363 . S
C1251 C1253 1.408 . S
C1251 C1256 1.342 . S
C1252 C1253 1.310 . S
C1252 C1255 1.461 . S
C1252 H1272 0.932 . S
C1253 C1251 1.408 . S
C1253 C1252 1.310 . S
C1253 H1273 0.930 . S
C1254 C1255 1.474 . S
C1254 C1256 1.285 . S
C1254 H1274 0.929 . S
C1255 C1252 1.461 . S
C1255 C1254 1.474 . S
C1256 C1251 1.342 . S
C1256 C1254 1.285 . S
C1256 H1275 0.930 . S
C1257 C1260 1.424 . S
C1257 C1262 1.245 . S
C1257 C1263 1.428 . S
C1258 C1261 1.260 . S
C1258 C1262 1.477 . S
C1258 H1276 0.932 . S
C1259 C1260 1.384 . S
C1259 C1261 1.479 . S
C1259 H1277 0.929 . S
C1260 C1257 1.424 . S
C1260 C1259 1.384 . S
C1260 H1278 0.928 . S
C1261 C1258 1.260 . S
C1261 C1259 1.479 . S
C1262 C1257 1.245 . S
C1262 C1258 1.477 . S
C1262 H1279 0.932 . S
C1263 U1246 2.882 . S
C1263 C1257 1.428 . S
C1263 O1266 1.301 . S
C1263 O1267 1.282 . S
O1264 U1246 2.441 . S
O1264 C1250 1.249 . S
O1265 U1246 2.420 . S
O1265 C1250 1.202 . S
O1266 U1246 2.455 . S
O1266 C1263 1.301 . S
O1267 U1246 2.449 . S
O1267 C1263 1.282 . S
H1268 C1241 0.931 . S
H1269 C1243 0.929 . S
H1270 C1244 0.930 . S
H1271 C1245 0.931 . S
H1272 C1252 0.932 . S
H1273 C1253 0.930 . S
H1274 C1254 0.929 . S
H1275 C1256 0.930 . S
H1276 C1258 0.932 . S
H1277 C1259 0.929 . S
H1278 C1260 0.928 . S
H1279 C1262 0.932 . S
C1280 C1281 1.264 . S
C1280 C1285 1.479 . S
C1280 C1290 1.465 . S
C1281 C1280 1.264 . S
C1281 C1283 1.339 . S
C1281 H1308 0.931 . S
C1282 C1283 1.395 . S
C1282 C1284 1.320 . S
C1283 C1281 1.339 . S
C1283 C1282 1.395 . S
C1283 H1309 0.929 . S
C1284 C1282 1.320 . S
C1284 C1285 1.405 . S
C1284 H1310 0.930 . S
C1285 C1280 1.479 . S
C1285 C1284 1.405 . S
C1285 H1311 0.931 . S
U1286 O1287 2.454 . S
U1286 O1288 2.458 . S
U1286 C1289 2.984 . S
U1286 C1290 2.847 . S
U1286 C1303 2.882 . S
U1286 O1304 2.441 . S
U1286 O1305 2.420 . S
U1286 O1306 2.455 . S
U1286 O1307 2.449 . S
O1287 U1286 2.454 . S
O1287 C1289 1.353 . S
O1288 U1286 2.458 . S
O1288 C1289 1.286 . S
C1289 U1286 2.984 . S
C1289 O1287 1.353 . S
C1289 O1288 1.286 . S
C1289 C1291 1.363 . S
C1290 C1280 1.465 . S
C1290 U1286 2.847 . S
C1290 O1304 1.249 . S
C1290 O1305 1.202 . S
C1291 C1289 1.363 . S
C1291 C1293 1.408 . S
C1291 C1296 1.342 . S
C1292 C1293 1.310 . S
C1292 C1295 1.461 . S
C1292 H1312 0.932 . S
C1293 C1291 1.408 . S
C1293 C1292 1.310 . S
C1293 H1313 0.930 . S
C1294 C1295 1.474 . S
C1294 C1296 1.285 . S
C1294 H1314 0.929 . S
C1295 C1292 1.461 . S
C1295 C1294 1.474 . S
C1296 C1291 1.342 . S
C1296 C1294 1.285 . S
C1296 H1315 0.930 . S
C1297 C1300 1.424 . S
C1297 C1302 1.245 . S
C1297 C1303 1.428 . S
C1298 C1301 1.260 . S
C1298 C1302 1.477 . S
C1298 H1316 0.932 . S
C1299 C1300 1.384 . S
C1299 C1301 1.479 . S
C1299 H1317 0.929 . S
C1300 C1297 1.424 . S
C1300 C1299 1.384 . S
C1300 H1318 0.928 . S
C1301 C1298 1.260 . S
C1301 C1299 1.479 . S
C1302 C1297 1.245 . S
C1302 C1298 1.477 . S
C1302 H1319 0.932 . S
C1303 U1286 2.882 . S
C1303 C1297 1.428 . S
C1303 O1306 1.301 . S
C1303 O1307 1.282 . S
O1304 U1286 2.441 . S
O1304 C1290 1.249 . S
O1305 U1286 2.420 . S
O1305 C1290 1.202 . S
O1306 U1286 2.455 . S
O1306 C1303 1.301 . S
O1307 U1286 2.449 . S
O1307 C1303 1.282 . S
H1308 C1281 0.931 . S
H1309 C1283 0.929 . S
H1310 C1284 0.930 . S
H1311 C1285 0.931 . S
H1312 C1292 0.932 . S
H1313 C1293 0.930 . S
H1314 C1294 0.929 . S
H1315 C1296 0.930 . S
H1316 C1298 0.932 . S
H1317 C1299 0.929 . S
H1318 C1300 0.928 . S
H1319 C1302 0.932 . S
C1320 C1321 1.264 . S
C1320 C1325 1.479 . S
C1320 C1330 1.465 . S
C1321 C1320 1.264 . S
C1321 C1323 1.339 . S
C1321 H1348 0.931 . S
C1322 C1323 1.395 . S
C1322 C1324 1.320 . S
C1323 C1321 1.339 . S
C1323 C1322 1.395 . S
C1323 H1349 0.929 . S
C1324 C1322 1.320 . S
C1324 C1325 1.405 . S
C1324 H1350 0.930 . S
C1325 C1320 1.479 . S
C1325 C1324 1.405 . S
C1325 H1351 0.931 . S
U1326 O1327 2.454 . S
U1326 O1328 2.458 . S
U1326 C1329 2.984 . S
U1326 C1330 2.847 . S
U1326 C1343 2.882 . S
U1326 O1344 2.441 . S
U1326 O1345 2.420 . S
U1326 O1346 2.455 . S
U1326 O1347 2.449 . S
O1327 U1326 2.454 . S
O1327 C1329 1.353 . S
O1328 U1326 2.458 . S
O1328 C1329 1.286 . S
C1329 U1326 2.984 . S
C1329 O1327 1.353 . S
C1329 O1328 1.286 . S
C1329 C1331 1.313 1_556 S
C1330 C1320 1.465 . S
C1330 U1326 2.847 . S
C1330 O1344 1.249 . S
C1330 O1345 1.202 . S
C1331 C1329 1.313 1_554 S
C1331 C1333 1.446 . S
C1331 C1336 1.353 . S
C1332 C1333 1.310 . S
C1332 C1335 1.461 . S
C1332 H1352 0.932 . S
C1333 C1331 1.446 . S
C1333 C1332 1.310 . S
C1333 H1353 0.930 . S
C1334 C1335 1.474 . S
C1334 C1336 1.285 . S
C1334 H1354 0.929 . S
C1335 C1332 1.461 . S
C1335 C1334 1.474 . S
C1336 C1331 1.353 . S
C1336 C1334 1.285 . S
C1336 H1355 0.930 1_554 S
C1337 C1340 1.424 . S
C1337 C1342 1.245 . S
C1337 C1343 1.428 . S
C1338 C1341 1.260 . S
C1338 C1342 1.477 . S
C1338 H1356 0.932 . S
C1339 C1340 1.384 . S
C1339 C1341 1.479 . S
C1339 H1357 0.929 . S
C1340 C1337 1.424 . S
C1340 C1339 1.384 . S
C1340 H1358 0.928 . S
C1341 C1338 1.260 . S
C1341 C1339 1.479 . S
C1342 C1337 1.245 . S
C1342 C1338 1.477 . S
C1342 H1359 0.932 . S
C1343 U1326 2.882 . S
C1343 C1337 1.428 . S
C1343 O1346 1.301 . S
C1343 O1347 1.282 . S
O1344 U1326 2.441 . S
O1344 C1330 1.249 . S
O1345 U1326 2.420 . S
O1345 C1330 1.202 . S
O1346 U1326 2.455 . S
O1346 C1343 1.301 . S
O1347 U1326 2.449 . S
O1347 C1343 1.282 . S
H1348 C1321 0.931 . S
H1349 C1323 0.929 . S
H1350 C1324 0.930 . S
H1351 C1325 0.931 . S
H1352 C1332 0.932 . S
H1353 C1333 0.930 . S
H1354 C1334 0.929 . S
H1355 C1336 0.930 1_556 S
H1356 C1338 0.932 . S
H1357 C1339 0.929 . S
H1358 C1340 0.928 . S
H1359 C1342 0.932 . S
C1360 C1361 1.264 . S
C1360 C1365 1.479 . S
C1360 C1370 1.465 . S
C1361 C1360 1.264 . S
C1361 C1363 1.339 . S
C1361 H1388 0.931 . S
C1362 C1363 1.395 . S
C1362 C1364 1.320 . S
C1363 C1361 1.339 . S
C1363 C1362 1.395 . S
C1363 H1389 0.929 . S
C1364 C1362 1.320 . S
C1364 C1365 1.405 . S
C1364 H1390 0.930 . S
C1365 C1360 1.479 . S
C1365 C1364 1.405 . S
C1365 H1391 0.931 . S
U1366 O1367 2.454 . S
U1366 O1368 2.458 . S
U1366 C1369 2.984 . S
U1366 C1370 2.847 . S
U1366 C1383 2.882 . S
U1366 O1384 2.441 . S
U1366 O1385 2.420 . S
U1366 O1386 2.455 . S
U1366 O1387 2.449 . S
O1367 U1366 2.454 . S
O1367 C1369 1.353 . S
O1368 U1366 2.458 . S
O1368 C1369 1.286 . S
C1369 U1366 2.984 . S
C1369 O1367 1.353 . S
C1369 O1368 1.286 . S
C1369 C1371 1.363 . S
C1370 C1360 1.465 . S
C1370 U1366 2.847 . S
C1370 O1384 1.249 . S
C1370 O1385 1.202 . S
C1371 C1369 1.363 . S
C1371 C1373 1.408 . S
C1371 C1376 1.342 . S
C1372 C1373 1.310 . S
C1372 C1375 1.461 . S
C1372 H1392 0.932 . S
C1373 C1371 1.408 . S
C1373 C1372 1.310 . S
C1373 H1393 0.930 . S
C1374 C1375 1.474 . S
C1374 C1376 1.285 . S
C1374 H1394 0.929 . S
C1375 C1372 1.461 . S
C1375 C1374 1.474 . S
C1376 C1371 1.342 . S
C1376 C1374 1.285 . S
C1376 H1395 0.930 . S
C1377 C1380 1.424 . S
C1377 C1382 1.245 . S
C1377 C1383 1.428 . S
C1378 C1381 1.260 . S
C1378 C1382 1.477 . S
C1378 H1396 0.932 . S
C1379 C1380 1.384 . S
C1379 C1381 1.479 . S
C1379 H1397 0.929 . S
C1380 C1377 1.424 . S
C1380 C1379 1.384 . S
C1380 H1398 0.928 . S
C1381 C1378 1.260 . S
C1381 C1379 1.479 . S
C1382 C1377 1.245 . S
C1382 C1378 1.477 . S
C1382 H1399 0.932 . S
C1383 U1366 2.882 . S
C1383 C1377 1.428 . S
C1383 O1386 1.301 . S
C1383 O1387 1.282 . S
O1384 U1366 2.441 . S
O1384 C1370 1.249 . S
O1385 U1366 2.420 . S
O1385 C1370 1.202 . S
O1386 U1366 2.455 . S
O1386 C1383 1.301 . S
O1387 U1366 2.449 . S
O1387 C1383 1.282 . S
H1388 C1361 0.931 . S
H1389 C1363 0.929 . S
H1390 C1364 0.930 . S
H1391 C1365 0.931 . S
H1392 C1372 0.932 . S
H1393 C1373 0.930 . S
H1394 C1374 0.929 . S
H1395 C1376 0.930 . S
H1396 C1378 0.932 . S
H1397 C1379 0.929 . S
H1398 C1380 0.928 . S
H1399 C1382 0.932 . S
C1400 C1401 1.264 . S
C1400 C1405 1.479 . S
C1400 C1410 1.465 . S
C1401 C1400 1.264 . S
C1401 C1403 1.339 . S
C1401 H1428 0.931 . S
C1402 C1403 1.395 . S
C1402 C1404 1.320 . S
C1403 C1401 1.339 . S
C1403 C1402 1.395 . S
C1403 H1429 0.929 . S
C1404 C1402 1.320 . S
C1404 C1405 1.405 . S
C1404 H1430 0.930 . S
C1405 C1400 1.479 . S
C1405 C1404 1.405 . S
C1405 H1431 0.931 . S
U1406 O1407 2.454 . S
U1406 O1408 2.458 . S
U1406 C1409 2.984 . S
U1406 C1410 2.847 . S
U1406 C1423 2.882 . S
U1406 O1424 2.441 . S
U1406 O1425 2.420 . S
U1406 O1426 2.455 . S
U1406 O1427 2.449 . S
O1407 U1406 2.454 . S
O1407 C1409 1.353 . S
O1408 U1406 2.458 . S
O1408 C1409 1.286 . S
C1409 U1406 2.984 . S
C1409 O1407 1.353 . S
C1409 O1408 1.286 . S
C1409 C1411 1.363 . S
C1410 C1400 1.465 . S
C1410 U1406 2.847 . S
C1410 O1424 1.249 . S
C1410 O1425 1.202 . S
C1411 C1409 1.363 . S
C1411 C1413 1.408 . S
C1411 C1416 1.342 . S
C1412 C1413 1.310 . S
C1412 C1415 1.461 . S
C1412 H1432 0.932 . S
C1413 C1411 1.408 . S
C1413 C1412 1.310 . S
C1413 H1433 0.930 . S
C1414 C1415 1.474 . S
C1414 C1416 1.285 . S
C1414 H1434 0.929 . S
C1415 C1412 1.461 . S
C1415 C1414 1.474 . S
C1416 C1411 1.342 . S
C1416 C1414 1.285 . S
C1416 H1435 0.930 . S
C1417 C1420 1.424 . S
C1417 C1422 1.245 . S
C1417 C1423 1.428 . S
C1418 C1421 1.260 . S
C1418 C1422 1.477 . S
C1418 H1436 0.932 . S
C1419 C1420 1.384 . S
C1419 C1421 1.479 . S
C1419 H1437 0.929 . S
C1420 C1417 1.424 . S
C1420 C1419 1.384 . S
C1420 H1438 0.928 . S
C1421 C1418 1.260 . S
C1421 C1419 1.479 . S
C1422 C1417 1.245 . S
C1422 C1418 1.477 . S
C1422 H1439 0.932 . S
C1423 U1406 2.882 . S
C1423 C1417 1.428 . S
C1423 O1426 1.301 . S
C1423 O1427 1.282 . S
O1424 U1406 2.441 . S
O1424 C1410 1.249 . S
O1425 U1406 2.420 . S
O1425 C1410 1.202 . S
O1426 U1406 2.455 . S
O1426 C1423 1.301 . S
O1427 U1406 2.449 . S
O1427 C1423 1.282 . S
H1428 C1401 0.931 . S
H1429 C1403 0.929 . S
H1430 C1404 0.930 . S
H1431 C1405 0.931 . S
H1432 C1412 0.932 . S
H1433 C1413 0.930 . S
H1434 C1414 0.929 . S
H1435 C1416 0.930 . S
H1436 C1418 0.932 . S
H1437 C1419 0.929 . S
H1438 C1420 0.928 . S
H1439 C1422 0.932 . S
C1440 C1441 1.264 . S
C1440 C1445 1.479 . S
C1440 C1450 1.465 . S
C1441 C1440 1.264 . S
C1441 C1443 1.339 . S
C1441 H1468 0.931 . S
C1442 C1443 1.395 . S
C1442 C1444 1.320 . S
C1443 C1441 1.339 . S
C1443 C1442 1.395 . S
C1443 H1469 0.929 . S
C1444 C1442 1.320 . S
C1444 C1445 1.405 . S
C1444 H1470 0.930 . S
C1445 C1440 1.479 . S
C1445 C1444 1.405 . S
C1445 H1471 0.931 . S
U1446 O1447 2.454 . S
U1446 O1448 2.458 . S
U1446 C1449 2.984 . S
U1446 C1450 2.847 . S
U1446 C1463 2.882 . S
U1446 O1464 2.441 . S
U1446 O1465 2.420 . S
U1446 O1466 2.455 . S
U1446 O1467 2.449 . S
O1447 U1446 2.454 . S
O1447 C1449 1.353 . S
O1448 U1446 2.458 . S
O1448 C1449 1.286 . S
C1449 U1446 2.984 . S
C1449 O1447 1.353 . S
C1449 O1448 1.286 . S
C1449 C1451 1.363 . S
C1450 C1440 1.465 . S
C1450 U1446 2.847 . S
C1450 O1464 1.249 . S
C1450 O1465 1.202 . S
C1451 C1449 1.363 . S
C1451 C1453 1.408 . S
C1451 C1456 1.342 . S
C1452 C1453 1.310 . S
C1452 C1455 1.461 . S
C1452 H1472 0.932 . S
C1453 C1451 1.408 . S
C1453 C1452 1.310 . S
C1453 H1473 0.930 . S
C1454 C1455 1.474 . S
C1454 C1456 1.285 . S
C1454 H1474 0.929 . S
C1455 C1452 1.461 . S
C1455 C1454 1.474 . S
C1456 C1451 1.342 . S
C1456 C1454 1.285 . S
C1456 H1475 0.930 . S
C1457 C1460 1.424 . S
C1457 C1462 1.245 . S
C1457 C1463 1.428 . S
C1458 C1461 1.260 . S
C1458 C1462 1.477 . S
C1458 H1476 0.932 . S
C1459 C1460 1.384 . S
C1459 C1461 1.479 . S
C1459 H1477 0.929 . S
C1460 C1457 1.424 . S
C1460 C1459 1.384 . S
C1460 H1478 0.928 . S
C1461 C1458 1.260 . S
C1461 C1459 1.479 . S
C1462 C1457 1.245 . S
C1462 C1458 1.477 . S
C1462 H1479 0.932 . S
C1463 U1446 2.882 . S
C1463 C1457 1.428 . S
C1463 O1466 1.301 . S
C1463 O1467 1.282 . S
O1464 U1446 2.441 . S
O1464 C1450 1.249 . S
O1465 U1446 2.420 . S
O1465 C1450 1.202 . S
O1466 U1446 2.455 . S
O1466 C1463 1.301 . S
O1467 U1446 2.449 . S
O1467 C1463 1.282 . S
H1468 C1441 0.931 . S
H1469 C1443 0.929 . S
H1470 C1444 0.930 . S
H1471 C1445 0.931 . S
H1472 C1452 0.932 . S
H1473 C1453 0.930 . S
H1474 C1454 0.929 . S
H1475 C1456 0.930 . S
H1476 C1458 0.932 . S
H1477 C1459 0.929 . S
H1478 C1460 0.928 . S
H1479 C1462 0.932 . S
C1480 C1481 1.264 . S
C1480 C1485 1.479 . S
C1480 C1490 1.465 . S
C1481 C1480 1.264 . S
C1481 C1483 1.339 . S
C1481 H1508 0.931 . S
C1482 C1483 1.395 . S
C1482 C1484 1.320 . S
C1483 C1481 1.339 . S
C1483 C1482 1.395 . S
C1483 H1509 0.929 . S
C1484 C1482 1.320 . S
C1484 C1485 1.405 . S
C1484 H1510 0.930 . S
C1485 C1480 1.479 . S
C1485 C1484 1.405 . S
C1485 H1511 0.931 . S
U1486 O1487 2.454 . S
U1486 O1488 2.458 . S
U1486 C1489 2.984 . S
U1486 C1490 2.847 . S
U1486 C1503 2.882 . S
U1486 O1504 2.441 . S
U1486 O1505 2.420 . S
U1486 O1506 2.455 . S
U1486 O1507 2.449 . S
O1487 U1486 2.454 . S
O1487 C1489 1.353 . S
O1488 U1486 2.458 . S
O1488 C1489 1.286 . S
C1489 U1486 2.984 . S
C1489 O1487 1.353 . S
C1489 O1488 1.286 . S
C1489 C1491 1.363 . S
C1490 C1480 1.465 . S
C1490 U1486 2.847 . S
C1490 O1504 1.249 . S
C1490 O1505 1.202 . S
C1491 C1489 1.363 . S
C1491 C1493 1.408 . S
C1491 C1496 1.342 . S
C1492 C1493 1.310 . S
C1492 C1495 1.461 . S
C1492 H1512 0.932 . S
C1493 C1491 1.408 . S
C1493 C1492 1.310 . S
C1493 H1513 0.930 . S
C1494 C1495 1.474 . S
C1494 C1496 1.285 . S
C1494 H1514 0.929 . S
C1495 C1492 1.461 . S
C1495 C1494 1.474 . S
C1496 C1491 1.342 . S
C1496 C1494 1.285 . S
C1496 H1515 0.930 . S
C1497 C1500 1.424 . S
C1497 C1502 1.245 . S
C1497 C1503 1.428 . S
C1498 C1501 1.260 . S
C1498 C1502 1.477 . S
C1498 H1516 0.932 . S
C1499 C1500 1.384 . S
C1499 C1501 1.479 . S
C1499 H1517 0.929 . S
C1500 C1497 1.424 . S
C1500 C1499 1.384 . S
C1500 H1518 0.928 . S
C1501 C1498 1.260 . S
C1501 C1499 1.479 . S
C1502 C1497 1.245 . S
C1502 C1498 1.477 . S
C1502 H1519 0.932 . S
C1503 U1486 2.882 . S
C1503 C1497 1.428 . S
C1503 O1506 1.301 . S
C1503 O1507 1.282 . S
O1504 U1486 2.441 . S
O1504 C1490 1.249 . S
O1505 U1486 2.420 . S
O1505 C1490 1.202 . S
O1506 U1486 2.455 . S
O1506 C1503 1.301 . S
O1507 U1486 2.449 . S
O1507 C1503 1.282 . S
H1508 C1481 0.931 . S
H1509 C1483 0.929 . S
H1510 C1484 0.930 . S
H1511 C1485 0.931 . S
H1512 C1492 0.932 . S
H1513 C1493 0.930 . S
H1514 C1494 0.929 . S
H1515 C1496 0.930 . S
H1516 C1498 0.932 . S
H1517 C1499 0.929 . S
H1518 C1500 0.928 . S
H1519 C1502 0.932 . S
C1520 C1521 1.264 . S
C1520 C1525 1.479 . S
C1520 C1530 1.465 . S
C1521 C1520 1.264 . S
C1521 C1523 1.339 . S
C1521 H1548 0.931 . S
C1522 C1523 1.395 . S
C1522 C1524 1.320 . S
C1523 C1521 1.339 . S
C1523 C1522 1.395 . S
C1523 H1549 0.929 . S
C1524 C1522 1.320 . S
C1524 C1525 1.405 . S
C1524 H1550 0.930 . S
C1525 C1520 1.479 . S
C1525 C1524 1.405 . S
C1525 H1551 0.931 . S
U1526 O1527 2.454 . S
U1526 O1528 2.458 . S
U1526 C1529 2.984 . S
U1526 C1530 2.847 . S
U1526 C1543 2.882 . S
U1526 O1544 2.441 . S
U1526 O1545 2.420 . S
U1526 O1546 2.455 . S
U1526 O1547 2.449 . S
O1527 U1526 2.454 . S
O1527 C1529 1.353 . S
O1528 U1526 2.458 . S
O1528 C1529 1.286 . S
C1529 U1526 2.984 . S
C1529 O1527 1.353 . S
C1529 O1528 1.286 . S
C1529 C1531 1.363 . S
C1530 C1520 1.465 . S
C1530 U1526 2.847 . S
C1530 O1544 1.249 . S
C1530 O1545 1.202 . S
C1531 C1529 1.363 . S
C1531 C1533 1.408 . S
C1531 C1536 1.342 . S
C1532 C1533 1.310 . S
C1532 C1535 1.461 . S
C1532 H1552 0.932 . S
C1533 C1531 1.408 . S
C1533 C1532 1.310 . S
C1533 H1553 0.930 . S
C1534 C1535 1.474 . S
C1534 C1536 1.285 . S
C1534 H1554 0.929 . S
C1535 C1532 1.461 . S
C1535 C1534 1.474 . S
C1536 C1531 1.342 . S
C1536 C1534 1.285 . S
C1536 H1555 0.930 . S
C1537 C1540 1.424 . S
C1537 C1542 1.245 . S
C1537 C1543 1.428 . S
C1538 C1541 1.260 . S
C1538 C1542 1.477 . S
C1538 H1556 0.932 . S
C1539 C1540 1.384 . S
C1539 C1541 1.479 . S
C1539 H1557 0.929 . S
C1540 C1537 1.424 . S
C1540 C1539 1.384 . S
C1540 H1558 0.928 . S
C1541 C1538 1.260 . S
C1541 C1539 1.479 . S
C1542 C1537 1.245 . S
C1542 C1538 1.477 . S
C1542 H1559 0.932 . S
C1543 U1526 2.882 . S
C1543 C1537 1.428 . S
C1543 O1546 1.301 . S
C1543 O1547 1.282 . S
O1544 U1526 2.441 . S
O1544 C1530 1.249 . S
O1545 U1526 2.420 . S
O1545 C1530 1.202 . S
O1546 U1526 2.455 . S
O1546 C1543 1.301 . S
O1547 U1526 2.449 . S
O1547 C1543 1.282 . S
H1548 C1521 0.931 . S
H1549 C1523 0.929 . S
H1550 C1524 0.930 . S
H1551 C1525 0.931 . S
H1552 C1532 0.932 . S
H1553 C1533 0.930 . S
H1554 C1534 0.929 . S
H1555 C1536 0.930 . S
H1556 C1538 0.932 . S
H1557 C1539 0.929 . S
H1558 C1540 0.928 . S
H1559 C1542 0.932 . S
C1560 C1561 1.264 . S
C1560 C1565 1.479 . S
C1560 C1570 1.465 . S
C1561 C1560 1.264 . S
C1561 C1563 1.339 . S
C1561 H1588 0.931 . S
C1562 C1563 1.395 . S
C1562 C1564 1.320 . S
C1563 C1561 1.339 . S
C1563 C1562 1.395 . S
C1563 H1589 0.929 . S
C1564 C1562 1.320 . S
C1564 C1565 1.405 . S
C1564 H1590 0.930 . S
C1565 C1560 1.479 . S
C1565 C1564 1.405 . S
C1565 H1591 0.931 . S
U1566 O1567 2.454 . S
U1566 O1568 2.458 . S
U1566 C1569 2.984 . S
U1566 C1570 2.847 . S
U1566 C1583 2.882 . S
U1566 O1584 2.441 . S
U1566 O1585 2.420 . S
U1566 O1586 2.455 . S
U1566 O1587 2.449 . S
O1567 U1566 2.454 . S
O1567 C1569 1.353 . S
O1568 U1566 2.458 . S
O1568 C1569 1.286 . S
C1569 U1566 2.984 . S
C1569 O1567 1.353 . S
C1569 O1568 1.286 . S
C1569 C1571 1.363 . S
C1570 C1560 1.465 . S
C1570 U1566 2.847 . S
C1570 O1584 1.249 . S
C1570 O1585 1.202 . S
C1571 C1569 1.363 . S
C1571 C1573 1.408 . S
C1571 C1576 1.342 . S
C1572 C1573 1.310 . S
C1572 C1575 1.461 . S
C1572 H1592 0.932 . S
C1573 C1571 1.408 . S
C1573 C1572 1.310 . S
C1573 H1593 0.930 . S
C1574 C1575 1.474 . S
C1574 C1576 1.285 . S
C1574 H1594 0.929 . S
C1575 C1572 1.461 . S
C1575 C1574 1.474 . S
C1576 C1571 1.342 . S
C1576 C1574 1.285 . S
C1576 H1595 0.930 . S
C1577 C1580 1.424 . S
C1577 C1582 1.245 . S
C1577 C1583 1.428 . S
C1578 C1581 1.260 . S
C1578 C1582 1.477 . S
C1578 H1596 0.932 . S
C1579 C1580 1.384 . S
C1579 C1581 1.479 . S
C1579 H1597 0.929 . S
C1580 C1577 1.424 . S
C1580 C1579 1.384 . S
C1580 H1598 0.928 . S
C1581 C1578 1.260 . S
C1581 C1579 1.479 . S
C1582 C1577 1.245 . S
C1582 C1578 1.477 . S
C1582 H1599 0.932 . S
C1583 U1566 2.882 . S
C1583 C1577 1.428 . S
C1583 O1586 1.301 . S
C1583 O1587 1.282 . S
O1584 U1566 2.441 . S
O1584 C1570 1.249 . S
O1585 U1566 2.420 . S
O1585 C1570 1.202 . S
O1586 U1566 2.455 . S
O1586 C1583 1.301 . S
O1587 U1566 2.449 . S
O1587 C1583 1.282 . S
H1588 C1561 0.931 . S
H1589 C1563 0.929 . S
H1590 C1564 0.930 . S
H1591 C1565 0.931 . S
H1592 C1572 0.932 . S
H1593 C1573 0.930 . S
H1594 C1574 0.929 . S
H1595 C1576 0.930 . S
H1596 C1578 0.932 . S
H1597 C1579 0.929 . S
H1598 C1580 0.928 . S
H1599 C1582 0.932 . S
C1600 C1601 1.264 . S
C1600 C1605 1.479 . S
C1600 C1610 1.465 . S
C1601 C1600 1.264 . S
C1601 C1603 1.339 . S
C1601 H1628 0.931 . S
C1602 C1603 1.395 . S
C1602 C1604 1.320 . S
C1603 C1601 1.339 . S
C1603 C1602 1.395 . S
C1603 H1629 0.929 . S
C1604 C1602 1.320 . S
C1604 C1605 1.405 . S
C1604 H1630 0.930 . S
C1605 C1600 1.479 . S
C1605 C1604 1.405 . S
C1605 H1631 0.931 . S
U1606 O1607 2.454 1_455 S
U1606 O1608 2.458 . S
U1606 C1609 2.984 . S
U1606 C1610 2.847 1_455 S
U1606 C1623 2.882 . S
U1606 O1624 2.441 1_455 S
U1606 O1625 2.420 1_455 S
U1606 O1626 2.455 . S
U1606 O1627 2.449 . S
O1607 U1606 2.454 1_655 S
O1607 C1609 1.353 1_655 S
O1608 U1606 2.458 . S
O1608 C1609 1.286 . S
C1609 U1606 2.984 . S
C1609 O1607 1.353 1_455 S
C1609 O1608 1.286 . S
C1609 C1611 1.363 . S
C1610 C1600 1.465 . S
C1610 U1606 2.847 1_655 S
C1610 O1624 1.249 . S
C1610 O1625 1.202 . S
C1611 C1609 1.363 . S
C1611 C1613 1.437 . S
C1611 C1616 1.342 . S
C1612 C1613 1.315 . S
C1612 C1615 1.461 . S
C1612 H1632 0.932 1_455 S
C1613 C1611 1.437 . S
C1613 C1612 1.315 . S
C1613 H1633 0.898 1_455 S
C1614 C1615 1.474 . S
C1614 C1616 1.285 . S
C1614 H1634 0.929 . S
C1615 C1612 1.461 . S
C1615 C1614 1.474 . S
C1616 C1611 1.342 . S
C1616 C1614 1.285 . S
C1616 H1635 0.930 . S
C1617 C1620 1.424 . S
C1617 C1622 1.245 . S
C1617 C1623 1.428 . S
C1618 C1621 1.260 . S
C1618 C1622 1.477 . S
C1618 H1636 0.932 . S
C1619 C1620 1.384 . S
C1619 C1621 1.479 . S
C1619 H1637 0.929 . S
C1620 C1617 1.424 . S
C1620 C1619 1.384 . S
C1620 H1638 0.928 . S
C1621 C1618 1.260 . S
C1621 C1619 1.479 . S
C1622 C1617 1.245 . S
C1622 C1618 1.477 . S
C1622 H1639 0.932 . S
C1623 U1606 2.882 . S
C1623 C1617 1.428 . S
C1623 O1626 1.301 . S
C1623 O1627 1.282 . S
O1624 U1606 2.441 1_655 S
O1624 C1610 1.249 . S
O1625 U1606 2.420 1_655 S
O1625 C1610 1.202 . S
O1626 U1606 2.455 . S
O1626 C1623 1.301 . S
O1627 U1606 2.449 . S
O1627 C1623 1.282 . S
H1628 C1601 0.931 . S
H1629 C1603 0.929 . S
H1630 C1604 0.930 . S
H1631 C1605 0.931 . S
H1632 C1612 0.932 1_655 S
H1633 C1613 0.898 1_655 S
H1634 C1614 0.929 . S
H1635 C1616 0.930 . S
H1636 C1618 0.932 . S
H1637 C1619 0.929 . S
H1638 C1620 0.928 . S
H1639 C1622 0.932 . S
C1640 C1641 1.264 . S
C1640 C1645 1.479 . S
C1640 C1650 1.465 . S
C1641 C1640 1.264 . S
C1641 C1643 1.339 . S
C1641 H1668 0.931 . S
C1642 C1643 1.395 . S
C1642 C1644 1.320 . S
C1643 C1641 1.339 . S
C1643 C1642 1.395 . S
C1643 H1669 0.929 . S
C1644 C1642 1.320 . S
C1644 C1645 1.405 . S
C1644 H1670 0.930 . S
C1645 C1640 1.479 . S
C1645 C1644 1.405 . S
C1645 H1671 0.931 . S
U1646 O1647 2.454 . S
U1646 O1648 2.458 . S
U1646 C1649 2.984 . S
U1646 C1650 2.847 . S
U1646 C1663 2.882 . S
U1646 O1664 2.441 . S
U1646 O1665 2.420 . S
U1646 O1666 2.455 . S
U1646 O1667 2.449 . S
O1647 U1646 2.454 . S
O1647 C1649 1.353 . S
O1648 U1646 2.458 . S
O1648 C1649 1.286 . S
C1649 U1646 2.984 . S
C1649 O1647 1.353 . S
C1649 O1648 1.286 . S
C1649 C1651 1.363 . S
C1650 C1640 1.465 . S
C1650 U1646 2.847 . S
C1650 O1664 1.249 . S
C1650 O1665 1.202 . S
C1651 C1649 1.363 . S
C1651 C1653 1.408 . S
C1651 C1656 1.342 . S
C1652 C1653 1.310 . S
C1652 C1655 1.461 . S
C1652 H1672 0.932 . S
C1653 C1651 1.408 . S
C1653 C1652 1.310 . S
C1653 H1673 0.930 . S
C1654 C1655 1.474 . S
C1654 C1656 1.285 . S
C1654 H1674 0.929 . S
C1655 C1652 1.461 . S
C1655 C1654 1.474 . S
C1656 C1651 1.342 . S
C1656 C1654 1.285 . S
C1656 H1675 0.930 . S
C1657 C1660 1.424 . S
C1657 C1662 1.245 . S
C1657 C1663 1.428 . S
C1658 C1661 1.260 . S
C1658 C1662 1.477 . S
C1658 H1676 0.932 . S
C1659 C1660 1.384 . S
C1659 C1661 1.479 . S
C1659 H1677 0.929 . S
C1660 C1657 1.424 . S
C1660 C1659 1.384 . S
C1660 H1678 0.928 . S
C1661 C1658 1.260 . S
C1661 C1659 1.479 . S
C1662 C1657 1.245 . S
C1662 C1658 1.477 . S
C1662 H1679 0.932 . S
C1663 U1646 2.882 . S
C1663 C1657 1.428 . S
C1663 O1666 1.301 . S
C1663 O1667 1.282 . S
O1664 U1646 2.441 . S
O1664 C1650 1.249 . S
O1665 U1646 2.420 . S
O1665 C1650 1.202 . S
O1666 U1646 2.455 . S
O1666 C1663 1.301 . S
O1667 U1646 2.449 . S
O1667 C1663 1.282 . S
H1668 C1641 0.931 . S
H1669 C1643 0.929 . S
H1670 C1644 0.930 . S
H1671 C1645 0.931 . S
H1672 C1652 0.932 . S
H1673 C1653 0.930 . S
H1674 C1654 0.929 . S
H1675 C1656 0.930 . S
H1676 C1658 0.932 . S
H1677 C1659 0.929 . S
H1678 C1660 0.928 . S
H1679 C1662 0.932 . S
C1680 C1681 1.264 . S
C1680 C1685 1.479 . S
C1680 C1690 1.465 . S
C1681 C1680 1.264 . S
C1681 C1683 1.339 . S
C1681 H1708 0.931 . S
C1682 C1683 1.395 . S
C1682 C1684 1.320 . S
C1683 C1681 1.339 . S
C1683 C1682 1.395 . S
C1683 H1709 0.929 . S
C1684 C1682 1.320 . S
C1684 C1685 1.405 . S
C1684 H1710 0.930 . S
C1685 C1680 1.479 . S
C1685 C1684 1.405 . S
C1685 H1711 0.931 . S
U1686 O1687 2.454 1_554 S
U1686 O1688 2.458 1_554 S
U1686 C1689 2.984 1_554 S
U1686 C1690 2.847 . S
U1686 C1703 2.882 . S
U1686 O1704 2.441 . S
U1686 O1705 2.420 . S
U1686 O1706 2.455 . S
U1686 O1707 2.449 . S
O1687 U1686 2.454 1_556 S
O1687 C1689 1.353 . S
O1688 U1686 2.458 1_556 S
O1688 C1689 1.286 . S
C1689 U1686 2.984 1_556 S
C1689 O1687 1.353 . S
C1689 O1688 1.286 . S
C1689 C1691 1.363 . S
C1690 C1680 1.465 . S
C1690 U1686 2.847 . S
C1690 O1704 1.249 . S
C1690 O1705 1.202 . S
C1691 C1689 1.363 . S
C1691 C1693 1.408 . S
C1691 C1696 1.342 . S
C1692 C1693 1.310 . S
C1692 C1695 1.461 . S
C1692 H1712 0.932 . S
C1693 C1691 1.408 . S
C1693 C1692 1.310 . S
C1693 H1713 0.930 . S
C1694 C1695 1.474 . S
C1694 C1696 1.285 . S
C1694 H1714 0.929 . S
C1695 C1692 1.461 . S
C1695 C1694 1.474 . S
C1696 C1691 1.342 . S
C1696 C1694 1.285 . S
C1696 H1715 0.930 . S
C1697 C1700 1.424 . S
C1697 C1702 1.245 . S
C1697 C1703 1.428 . S
C1698 C1701 1.260 . S
C1698 C1702 1.477 . S
C1698 H1716 0.932 . S
C1699 C1700 1.384 . S
C1699 C1701 1.479 . S
C1699 H1717 0.929 . S
C1700 C1697 1.424 . S
C1700 C1699 1.384 . S
C1700 H1718 0.928 . S
C1701 C1698 1.260 . S
C1701 C1699 1.479 . S
C1702 C1697 1.245 . S
C1702 C1698 1.477 . S
C1702 H1719 0.932 . S
C1703 U1686 2.882 . S
C1703 C1697 1.428 . S
C1703 O1706 1.301 . S
C1703 O1707 1.282 . S
O1704 U1686 2.441 . S
O1704 C1690 1.249 . S
O1705 U1686 2.420 . S
O1705 C1690 1.202 . S
O1706 U1686 2.455 . S
O1706 C1703 1.301 . S
O1707 U1686 2.449 . S
O1707 C1703 1.282 . S
H1708 C1681 0.931 . S
H1709 C1683 0.929 . S
H1710 C1684 0.930 . S
H1711 C1685 0.931 . S
H1712 C1692 0.932 . S
H1713 C1693 0.930 . S
H1714 C1694 0.929 . S
H1715 C1696 0.930 . S
H1716 C1698 0.932 . S
H1717 C1699 0.929 . S
H1718 C1700 0.928 . S
H1719 C1702 0.932 . S
C1720 C1721 1.264 . S
C1720 C1725 1.479 . S
C1720 C1730 1.465 . S
C1721 C1720 1.264 . S
C1721 C1723 1.339 . S
C1721 H1748 0.931 . S
C1722 C1723 1.395 . S
C1722 C1724 1.320 . S
C1723 C1721 1.339 . S
C1723 C1722 1.395 . S
C1723 H1749 0.929 . S
C1724 C1722 1.320 . S
C1724 C1725 1.405 . S
C1724 H1750 0.930 . S
C1725 C1720 1.479 . S
C1725 C1724 1.405 . S
C1725 H1751 0.931 . S
U1726 O1727 2.454 . S
U1726 O1728 2.458 . S
U1726 C1729 2.984 . S
U1726 C1730 2.847 . S
U1726 C1743 2.882 . S
U1726 O1744 2.441 . S
U1726 O1745 2.420 . S
U1726 O1746 2.455 . S
U1726 O1747 2.449 . S
O1727 U1726 2.454 . S
O1727 C1729 1.353 . S
O1728 U1726 2.458 . S
O1728 C1729 1.286 . S
C1729 U1726 2.984 . S
C1729 O1727 1.353 . S
C1729 O1728 1.286 . S
C1729 C1731 1.363 . S
C1730 C1720 1.465 . S
C1730 U1726 2.847 . S
C1730 O1744 1.249 . S
C1730 O1745 1.202 . S
C1731 C1729 1.363 . S
C1731 C1733 1.408 . S
C1731 C1736 1.342 . S
C1732 C1733 1.310 . S
C1732 C1735 1.461 . S
C1732 H1752 0.932 . S
C1733 C1731 1.408 . S
C1733 C1732 1.310 . S
C1733 H1753 0.930 . S
C1734 C1735 1.474 . S
C1734 C1736 1.285 . S
C1734 H1754 0.929 . S
C1735 C1732 1.461 . S
C1735 C1734 1.474 . S
C1736 C1731 1.342 . S
C1736 C1734 1.285 . S
C1736 H1755 0.930 . S
C1737 C1740 1.424 . S
C1737 C1742 1.245 . S
C1737 C1743 1.428 . S
C1738 C1741 1.260 . S
C1738 C1742 1.477 . S
C1738 H1756 0.932 . S
C1739 C1740 1.384 . S
C1739 C1741 1.479 . S
C1739 H1757 0.929 . S
C1740 C1737 1.424 . S
C1740 C1739 1.384 . S
C1740 H1758 0.928 . S
C1741 C1738 1.260 . S
C1741 C1739 1.479 . S
C1742 C1737 1.245 . S
C1742 C1738 1.477 . S
C1742 H1759 0.932 . S
C1743 U1726 2.882 . S
C1743 C1737 1.428 . S
C1743 O1746 1.301 . S
C1743 O1747 1.282 . S
O1744 U1726 2.441 . S
O1744 C1730 1.249 . S
O1745 U1726 2.420 . S
O1745 C1730 1.202 . S
O1746 U1726 2.455 . S
O1746 C1743 1.301 . S
O1747 U1726 2.449 . S
O1747 C1743 1.282 . S
H1748 C1721 0.931 . S
H1749 C1723 0.929 . S
H1750 C1724 0.930 . S
H1751 C1725 0.931 . S
H1752 C1732 0.932 . S
H1753 C1733 0.930 . S
H1754 C1734 0.929 . S
H1755 C1736 0.930 . S
H1756 C1738 0.932 . S
H1757 C1739 0.929 . S
H1758 C1740 0.928 . S
H1759 C1742 0.932 . S
C1760 C1761 1.264 . S
C1760 C1765 1.479 . S
C1760 C1770 1.465 . S
C1761 C1760 1.264 . S
C1761 C1763 1.339 . S
C1761 H1788 0.931 . S
C1762 C1763 1.395 . S
C1762 C1764 1.320 . S
C1763 C1761 1.339 . S
C1763 C1762 1.395 . S
C1763 H1789 0.929 . S
C1764 C1762 1.320 . S
C1764 C1765 1.405 . S
C1764 H1790 0.930 . S
C1765 C1760 1.479 . S
C1765 C1764 1.405 . S
C1765 H1791 0.931 . S
U1766 O1767 2.454 . S
U1766 O1768 2.458 . S
U1766 C1769 2.984 . S
U1766 C1770 2.847 . S
U1766 C1783 2.882 . S
U1766 O1784 2.441 . S
U1766 O1785 2.420 . S
U1766 O1786 2.455 . S
U1766 O1787 2.449 . S
O1767 U1766 2.454 . S
O1767 C1769 1.353 . S
O1768 U1766 2.458 . S
O1768 C1769 1.286 . S
C1769 U1766 2.984 . S
C1769 O1767 1.353 . S
C1769 O1768 1.286 . S
C1769 C1771 1.363 . S
C1770 C1760 1.465 . S
C1770 U1766 2.847 . S
C1770 O1784 1.249 . S
C1770 O1785 1.202 . S
C1771 C1769 1.363 . S
C1771 C1773 1.408 . S
C1771 C1776 1.342 . S
C1772 C1773 1.310 . S
C1772 C1775 1.461 . S
C1772 H1792 0.932 . S
C1773 C1771 1.408 . S
C1773 C1772 1.310 . S
C1773 H1793 0.930 . S
C1774 C1775 1.474 . S
C1774 C1776 1.285 . S
C1774 H1794 0.929 . S
C1775 C1772 1.461 . S
C1775 C1774 1.474 . S
C1776 C1771 1.342 . S
C1776 C1774 1.285 . S
C1776 H1795 0.930 . S
C1777 C1780 1.424 . S
C1777 C1782 1.245 . S
C1777 C1783 1.428 . S
C1778 C1781 1.260 . S
C1778 C1782 1.477 . S
C1778 H1796 0.932 . S
C1779 C1780 1.384 . S
C1779 C1781 1.479 . S
C1779 H1797 0.929 . S
C1780 C1777 1.424 . S
C1780 C1779 1.384 . S
C1780 H1798 0.928 . S
C1781 C1778 1.260 . S
C1781 C1779 1.479 . S
C1782 C1777 1.245 . S
C1782 C1778 1.477 . S
C1782 H1799 0.932 . S
C1783 U1766 2.882 . S
C1783 C1777 1.428 . S
C1783 O1786 1.301 . S
C1783 O1787 1.282 . S
O1784 U1766 2.441 . S
O1784 C1770 1.249 . S
O1785 U1766 2.420 . S
O1785 C1770 1.202 . S
O1786 U1766 2.455 . S
O1786 C1783 1.301 . S
O1787 U1766 2.449 . S
O1787 C1783 1.282 . S
H1788 C1761 0.931 . S
H1789 C1763 0.929 . S
H1790 C1764 0.930 . S
H1791 C1765 0.931 . S
H1792 C1772 0.932 . S
H1793 C1773 0.930 . S
H1794 C1774 0.929 . S
H1795 C1776 0.930 . S
H1796 C1778 0.932 . S
H1797 C1779 0.929 . S
H1798 C1780 0.928 . S
H1799 C1782 0.932 . S
C1800 C1801 1.264 . S
C1800 C1805 1.479 . S
C1800 C1810 1.465 . S
C1801 C1800 1.264 . S
C1801 C1803 1.339 . S
C1801 H1828 0.931 . S
C1802 C1803 1.395 . S
C1802 C1804 1.320 . S
C1803 C1801 1.339 . S
C1803 C1802 1.395 . S
C1803 H1829 0.929 . S
C1804 C1802 1.320 . S
C1804 C1805 1.405 . S
C1804 H1830 0.930 . S
C1805 C1800 1.479 . S
C1805 C1804 1.405 . S
C1805 H1831 0.931 . S
U1806 O1807 2.454 . S
U1806 O1808 2.458 . S
U1806 C1809 2.984 . S
U1806 C1810 2.847 . S
U1806 C1823 2.882 . S
U1806 O1824 2.441 . S
U1806 O1825 2.420 . S
U1806 O1826 2.455 . S
U1806 O1827 2.449 . S
O1807 U1806 2.454 . S
O1807 C1809 1.353 . S
O1808 U1806 2.458 . S
O1808 C1809 1.286 . S
C1809 U1806 2.984 . S
C1809 O1807 1.353 . S
C1809 O1808 1.286 . S
C1809 C1811 1.363 . S
C1810 C1800 1.465 . S
C1810 U1806 2.847 . S
C1810 O1824 1.249 . S
C1810 O1825 1.202 . S
C1811 C1809 1.363 . S
C1811 C1813 1.408 . S
C1811 C1816 1.342 . S
C1812 C1813 1.310 . S
C1812 C1815 1.461 . S
C1812 H1832 0.932 . S
C1813 C1811 1.408 . S
C1813 C1812 1.310 . S
C1813 H1833 0.930 . S
C1814 C1815 1.474 . S
C1814 C1816 1.285 . S
C1814 H1834 0.929 . S
C1815 C1812 1.461 . S
C1815 C1814 1.474 . S
C1816 C1811 1.342 . S
C1816 C1814 1.285 . S
C1816 H1835 0.930 . S
C1817 C1820 1.424 . S
C1817 C1822 1.245 . S
C1817 C1823 1.428 . S
C1818 C1821 1.260 . S
C1818 C1822 1.477 . S
C1818 H1836 0.932 . S
C1819 C1820 1.384 . S
C1819 C1821 1.479 . S
C1819 H1837 0.929 . S
C1820 C1817 1.424 . S
C1820 C1819 1.384 . S
C1820 H1838 0.928 . S
C1821 C1818 1.260 . S
C1821 C1819 1.479 . S
C1822 C1817 1.245 . S
C1822 C1818 1.477 . S
C1822 H1839 0.932 . S
C1823 U1806 2.882 . S
C1823 C1817 1.428 . S
C1823 O1826 1.301 . S
C1823 O1827 1.282 . S
O1824 U1806 2.441 . S
O1824 C1810 1.249 . S
O1825 U1806 2.420 . S
O1825 C1810 1.202 . S
O1826 U1806 2.455 . S
O1826 C1823 1.301 . S
O1827 U1806 2.449 . S
O1827 C1823 1.282 . S
H1828 C1801 0.931 . S
H1829 C1803 0.929 . S
H1830 C1804 0.930 . S
H1831 C1805 0.931 . S
H1832 C1812 0.932 . S
H1833 C1813 0.930 . S
H1834 C1814 0.929 . S
H1835 C1816 0.930 . S
H1836 C1818 0.932 . S
H1837 C1819 0.929 . S
H1838 C1820 0.928 . S
H1839 C1822 0.932 . S
C1840 C1841 1.264 . S
C1840 C1845 1.479 . S
C1840 C1850 1.465 . S
C1841 C1840 1.264 . S
C1841 C1843 1.339 . S
C1841 H1868 0.931 . S
C1842 C1843 1.395 . S
C1842 C1844 1.320 . S
C1843 C1841 1.339 . S
C1843 C1842 1.395 . S
C1843 H1869 0.929 . S
C1844 C1842 1.320 . S
C1844 C1845 1.405 . S
C1844 H1870 0.930 . S
C1845 C1840 1.479 . S
C1845 C1844 1.405 . S
C1845 H1871 0.931 . S
U1846 O1847 2.454 . S
U1846 O1848 2.458 . S
U1846 C1849 2.984 . S
U1846 C1850 2.847 . S
U1846 C1863 2.882 . S
U1846 O1864 2.441 . S
U1846 O1865 2.420 . S
U1846 O1866 2.455 . S
U1846 O1867 2.449 . S
O1847 U1846 2.454 . S
O1847 C1849 1.353 . S
O1848 U1846 2.458 . S
O1848 C1849 1.286 . S
C1849 U1846 2.984 . S
C1849 O1847 1.353 . S
C1849 O1848 1.286 . S
C1849 C1851 1.363 . S
C1850 C1840 1.465 . S
C1850 U1846 2.847 . S
C1850 O1864 1.249 . S
C1850 O1865 1.202 . S
C1851 C1849 1.363 . S
C1851 C1853 1.408 . S
C1851 C1856 1.342 . S
C1852 C1853 1.310 . S
C1852 C1855 1.461 . S
C1852 H1872 0.932 . S
C1853 C1851 1.408 . S
C1853 C1852 1.310 . S
C1853 H1873 0.930 . S
C1854 C1855 1.474 . S
C1854 C1856 1.285 . S
C1854 H1874 0.929 . S
C1855 C1852 1.461 . S
C1855 C1854 1.474 . S
C1856 C1851 1.342 . S
C1856 C1854 1.285 . S
C1856 H1875 0.930 . S
C1857 C1860 1.424 . S
C1857 C1862 1.245 . S
C1857 C1863 1.428 . S
C1858 C1861 1.260 . S
C1858 C1862 1.477 . S
C1858 H1876 0.932 . S
C1859 C1860 1.384 . S
C1859 C1861 1.479 . S
C1859 H1877 0.929 . S
C1860 C1857 1.424 . S
C1860 C1859 1.384 . S
C1860 H1878 0.928 . S
C1861 C1858 1.260 . S
C1861 C1859 1.479 . S
C1862 C1857 1.245 . S
C1862 C1858 1.477 . S
C1862 H1879 0.932 . S
C1863 U1846 2.882 . S
C1863 C1857 1.428 . S
C1863 O1866 1.301 . S
C1863 O1867 1.282 . S
O1864 U1846 2.441 . S
O1864 C1850 1.249 . S
O1865 U1846 2.420 . S
O1865 C1850 1.202 . S
O1866 U1846 2.455 . S
O1866 C1863 1.301 . S
O1867 U1846 2.449 . S
O1867 C1863 1.282 . S
H1868 C1841 0.931 . S
H1869 C1843 0.929 . S
H1870 C1844 0.930 . S
H1871 C1845 0.931 . S
H1872 C1852 0.932 . S
H1873 C1853 0.930 . S
H1874 C1854 0.929 . S
H1875 C1856 0.930 . S
H1876 C1858 0.932 . S
H1877 C1859 0.929 . S
H1878 C1860 0.928 . S
H1879 C1862 0.932 . S
C1880 C1881 1.264 . S
C1880 C1885 1.479 . S
C1880 C1890 1.465 . S
C1881 C1880 1.264 . S
C1881 C1883 1.339 . S
C1881 H1908 0.931 . S
C1882 C1883 1.395 . S
C1882 C1884 1.320 . S
C1883 C1881 1.339 . S
C1883 C1882 1.395 . S
C1883 H1909 0.929 . S
C1884 C1882 1.320 . S
C1884 C1885 1.405 . S
C1884 H1910 0.930 . S
C1885 C1880 1.479 . S
C1885 C1884 1.405 . S
C1885 H1911 0.931 . S
U1886 O1887 2.454 . S
U1886 O1888 2.458 . S
U1886 C1889 2.984 . S
U1886 C1890 2.847 . S
U1886 C1903 2.882 . S
U1886 O1904 2.441 . S
U1886 O1905 2.420 . S
U1886 O1906 2.455 . S
U1886 O1907 2.449 . S
O1887 U1886 2.454 . S
O1887 C1889 1.353 . S
O1888 U1886 2.458 . S
O1888 C1889 1.286 . S
C1889 U1886 2.984 . S
C1889 O1887 1.353 . S
C1889 O1888 1.286 . S
C1889 C1891 1.363 . S
C1890 C1880 1.465 . S
C1890 U1886 2.847 . S
C1890 O1904 1.249 . S
C1890 O1905 1.202 . S
C1891 C1889 1.363 . S
C1891 C1893 1.408 . S
C1891 C1896 1.342 . S
C1892 C1893 1.310 . S
C1892 C1895 1.461 . S
C1892 H1912 0.932 . S
C1893 C1891 1.408 . S
C1893 C1892 1.310 . S
C1893 H1913 0.930 . S
C1894 C1895 1.474 . S
C1894 C1896 1.285 . S
C1894 H1914 0.929 . S
C1895 C1892 1.461 . S
C1895 C1894 1.474 . S
C1896 C1891 1.342 . S
C1896 C1894 1.285 . S
C1896 H1915 0.930 . S
C1897 C1900 1.424 . S
C1897 C1902 1.245 . S
C1897 C1903 1.428 . S
C1898 C1901 1.260 . S
C1898 C1902 1.477 . S
C1898 H1916 0.932 . S
C1899 C1900 1.384 . S
C1899 C1901 1.479 . S
C1899 H1917 0.929 . S
C1900 C1897 1.424 . S
C1900 C1899 1.384 . S
C1900 H1918 0.928 . S
C1901 C1898 1.260 . S
C1901 C1899 1.479 . S
C1902 C1897 1.245 . S
C1902 C1898 1.477 . S
C1902 H1919 0.932 . S
C1903 U1886 2.882 . S
C1903 C1897 1.428 . S
C1903 O1906 1.301 . S
C1903 O1907 1.282 . S
O1904 U1886 2.441 . S
O1904 C1890 1.249 . S
O1905 U1886 2.420 . S
O1905 C1890 1.202 . S
O1906 U1886 2.455 . S
O1906 C1903 1.301 . S
O1907 U1886 2.449 . S
O1907 C1903 1.282 . S
H1908 C1881 0.931 . S
H1909 C1883 0.929 . S
H1910 C1884 0.930 . S
H1911 C1885 0.931 . S
H1912 C1892 0.932 . S
H1913 C1893 0.930 . S
H1914 C1894 0.929 . S
H1915 C1896 0.930 . S
H1916 C1898 0.932 . S
H1917 C1899 0.929 . S
H1918 C1900 0.928 . S
H1919 C1902 0.932 . S
H1920 C1925 0.930 . S
H1921 C1928 0.930 . S
H1922 C1930 0.930 . S
H1923 C1924 1.016 . S
C1924 H1923 1.016 . S
C1924 N1931 1.286 . S
C1925 H1920 0.930 . S
C1925 C1926 1.397 . S
C1925 C1927 1.361 . S
C1926 C1925 1.397 . S
C1926 C1930 1.390 . S
C1927 C1925 1.361 . S
C1927 C1928 1.393 . S
C1927 N1931 1.413 . S
C1928 H1921 0.930 . S
C1928 C1927 1.393 . S
C1928 C1929 1.399 . S
C1929 C1928 1.399 . S
C1929 C1930 1.381 . S
C1930 H1922 0.930 . S
C1930 C1926 1.390 . S
C1930 C1929 1.381 . S
N1931 C1924 1.286 . S
N1931 C1927 1.413 . S
H1932 C1937 0.930 . S
H1933 C1940 0.930 . S
H1934 C1942 0.930 . S
H1935 C1936 1.016 . S
C1936 H1935 1.016 . S
C1936 N1943 1.286 . S
C1937 H1932 0.930 . S
C1937 C1938 1.397 . S
C1937 C1939 1.361 . S
C1938 C1937 1.397 . S
C1938 C1942 1.390 . S
C1939 C1937 1.361 . S
C1939 C1940 1.393 . S
C1939 N1943 1.413 . S
C1940 H1933 0.930 . S
C1940 C1939 1.393 . S
C1940 C1941 1.399 . S
C1941 C1940 1.399 . S
C1941 C1942 1.381 . S
C1942 H1934 0.930 . S
C1942 C1938 1.390 . S
C1942 C1941 1.381 . S
N1943 C1936 1.286 . S
N1943 C1939 1.413 . S
H1944 C1949 0.930 . S
H1945 C1952 0.930 . S
H1946 C1954 0.930 . S
H1947 C1948 1.016 . S
C1948 H1947 1.016 . S
C1948 N1955 1.286 . S
C1949 H1944 0.930 . S
C1949 C1950 1.397 . S
C1949 C1951 1.361 . S
C1950 C1949 1.397 . S
C1950 C1954 1.390 . S
C1951 C1949 1.361 . S
C1951 C1952 1.393 . S
C1951 N1955 1.413 . S
C1952 H1945 0.930 . S
C1952 C1951 1.393 . S
C1952 C1953 1.399 . S
C1953 C1952 1.399 . S
C1953 C1954 1.381 . S
C1954 H1946 0.930 . S
C1954 C1950 1.390 . S
C1954 C1953 1.381 . S
N1955 C1948 1.286 . S
N1955 C1951 1.413 . S
H1956 C1961 0.930 . S
H1957 C1964 0.930 . S
H1958 C1966 0.930 . S
H1959 C1960 1.016 . S
C1960 H1959 1.016 . S
C1960 N1967 1.286 . S
C1961 H1956 0.930 . S
C1961 C1962 1.397 . S
C1961 C1963 1.361 . S
C1962 C1961 1.397 . S
C1962 C1966 1.390 . S
C1963 C1961 1.361 . S
C1963 C1964 1.393 . S
C1963 N1967 1.413 . S
C1964 H1957 0.930 . S
C1964 C1963 1.393 . S
C1964 C1965 1.399 . S
C1965 C1964 1.399 . S
C1965 C1966 1.381 . S
C1966 H1958 0.930 . S
C1966 C1962 1.390 . S
C1966 C1965 1.381 . S
N1967 C1960 1.286 . S
N1967 C1963 1.413 . S
H1968 C1973 0.930 . S
H1969 C1976 0.930 . S
H1970 C1978 0.930 . S
H1971 C1972 1.016 . S
C1972 H1971 1.016 . S
C1972 N1979 1.286 . S
C1973 H1968 0.930 . S
C1973 C1974 1.397 . S
C1973 C1975 1.361 . S
C1974 C1973 1.397 . S
C1974 C1978 1.390 . S
C1975 C1973 1.361 . S
C1975 C1976 1.393 . S
C1975 N1979 1.413 . S
C1976 H1969 0.930 . S
C1976 C1975 1.393 . S
C1976 C1977 1.399 . S
C1977 C1976 1.399 . S
C1977 C1978 1.381 . S
C1978 H1970 0.930 . S
C1978 C1974 1.390 . S
C1978 C1977 1.381 . S
N1979 C1972 1.286 . S
N1979 C1975 1.413 . S
H1980 C1985 0.930 . S
H1981 C1988 0.930 . S
H1982 C1990 0.930 . S
H1983 C1984 1.016 . S
C1984 H1983 1.016 . S
C1984 N1991 1.286 . S
C1985 H1980 0.930 . S
C1985 C1986 1.397 . S
C1985 C1987 1.361 . S
C1986 C1985 1.397 . S
C1986 C1990 1.390 . S
C1987 C1985 1.361 . S
C1987 C1988 1.393 . S
C1987 N1991 1.413 . S
C1988 H1981 0.930 . S
C1988 C1987 1.393 . S
C1988 C1989 1.399 . S
C1989 C1988 1.399 . S
C1989 C1990 1.381 . S
C1990 H1982 0.930 . S
C1990 C1986 1.390 . S
C1990 C1989 1.381 . S
N1991 C1984 1.286 . S
N1991 C1987 1.413 . S
H1992 C1997 0.930 . S
H1993 C2000 0.930 . S
H1994 C2002 0.930 . S
H1995 C1996 1.016 . S
C1996 H1995 1.016 . S
C1996 N2003 1.286 . S
C1997 H1992 0.930 . S
C1997 C1998 1.397 . S
C1997 C1999 1.361 . S
C1998 C1997 1.397 . S
C1998 C2002 1.390 . S
C1999 C1997 1.361 . S
C1999 C2000 1.393 . S
C1999 N2003 1.413 . S
C2000 H1993 0.930 . S
C2000 C1999 1.393 . S
C2000 C2001 1.399 . S
C2001 C2000 1.399 . S
C2001 C2002 1.381 . S
C2002 H1994 0.930 . S
C2002 C1998 1.390 . S
C2002 C2001 1.381 . S
N2003 C1996 1.286 . S
N2003 C1999 1.413 . S
H2004 C2009 0.930 . S
H2005 C2012 0.930 . S
H2006 C2014 0.930 . S
H2007 C2008 1.016 . S
C2008 H2007 1.016 . S
C2008 N2015 1.286 . S
C2009 H2004 0.930 . S
C2009 C2010 1.397 . S
C2009 C2011 1.361 . S
C2010 C2009 1.397 . S
C2010 C2014 1.390 . S
C2011 C2009 1.361 . S
C2011 C2012 1.393 . S
C2011 N2015 1.413 . S
C2012 H2005 0.930 . S
C2012 C2011 1.393 . S
C2012 C2013 1.399 . S
C2013 C2012 1.399 . S
C2013 C2014 1.381 . S
C2014 H2006 0.930 . S
C2014 C2010 1.390 . S
C2014 C2013 1.381 . S
N2015 C2008 1.286 . S
N2015 C2011 1.413 . S
H2016 C2021 0.930 . S
H2017 C2024 0.930 . S
H2018 C2026 0.930 . S
H2019 C2020 1.016 . S
C2020 H2019 1.016 . S
C2020 N2027 1.286 . S
C2021 H2016 0.930 . S
C2021 C2022 1.397 . S
C2021 C2023 1.361 . S
C2022 C2021 1.397 . S
C2022 C2026 1.390 . S
C2023 C2021 1.361 . S
C2023 C2024 1.393 . S
C2023 N2027 1.413 . S
C2024 H2017 0.930 . S
C2024 C2023 1.393 . S
C2024 C2025 1.399 . S
C2025 C2024 1.399 . S
C2025 C2026 1.381 . S
C2026 H2018 0.930 . S
C2026 C2022 1.390 . S
C2026 C2025 1.381 . S
N2027 C2020 1.286 . S
N2027 C2023 1.413 . S
H2028 C2033 0.930 . S
H2029 C2036 0.930 . S
H2030 C2038 0.930 . S
H2031 C2032 1.016 . S
C2032 H2031 1.016 . S
C2032 N2039 1.286 . S
C2033 H2028 0.930 . S
C2033 C2034 1.397 . S
C2033 C2035 1.361 . S
C2034 C2033 1.397 . S
C2034 C2038 1.390 . S
C2035 C2033 1.361 . S
C2035 C2036 1.393 . S
C2035 N2039 1.413 . S
C2036 H2029 0.930 . S
C2036 C2035 1.393 . S
C2036 C2037 1.399 . S
C2037 C2036 1.399 . S
C2037 C2038 1.381 . S
C2038 H2030 0.930 . S
C2038 C2034 1.390 . S
C2038 C2037 1.381 . S
N2039 C2032 1.286 . S
N2039 C2035 1.413 . S
H2040 C2045 0.930 . S
H2041 C2048 0.930 . S
H2042 C2050 0.930 . S
H2043 C2044 1.016 . S
C2044 H2043 1.016 . S
C2044 N2051 1.286 . S
C2045 H2040 0.930 . S
C2045 C2046 1.397 . S
C2045 C2047 1.361 . S
C2046 C2045 1.397 . S
C2046 C2050 1.390 . S
C2047 C2045 1.361 . S
C2047 C2048 1.393 . S
C2047 N2051 1.413 . S
C2048 H2041 0.930 . S
C2048 C2047 1.393 . S
C2048 C2049 1.399 . S
C2049 C2048 1.399 . S
C2049 C2050 1.381 . S
C2050 H2042 0.930 . S
C2050 C2046 1.390 . S
C2050 C2049 1.381 . S
N2051 C2044 1.286 . S
N2051 C2047 1.413 . S
H2052 C2057 0.930 . S
H2053 C2060 0.930 . S
H2054 C2062 0.930 . S
H2055 C2056 1.016 . S
C2056 H2055 1.016 . S
C2056 N2063 1.286 . S
C2057 H2052 0.930 . S
C2057 C2058 1.397 . S
C2057 C2059 1.361 . S
C2058 C2057 1.397 . S
C2058 C2062 1.390 . S
C2059 C2057 1.361 . S
C2059 C2060 1.393 . S
C2059 N2063 1.413 . S
C2060 H2053 0.930 . S
C2060 C2059 1.393 . S
C2060 C2061 1.399 . S
C2061 C2060 1.399 . S
C2061 C2062 1.381 . S
C2062 H2054 0.930 . S
C2062 C2058 1.390 . S
C2062 C2061 1.381 . S
N2063 C2056 1.286 . S
N2063 C2059 1.413 . S
H2064 C2069 0.930 . S
H2065 C2072 0.930 . S
H2066 C2074 0.930 . S
H2067 C2068 1.016 . S
C2068 H2067 1.016 . S
C2068 N2075 1.286 . S
C2069 H2064 0.930 . S
C2069 C2070 1.397 . S
C2069 C2071 1.361 . S
C2070 C2069 1.397 . S
C2070 C2074 1.390 . S
C2071 C2069 1.361 . S
C2071 C2072 1.393 . S
C2071 N2075 1.413 . S
C2072 H2065 0.930 . S
C2072 C2071 1.393 . S
C2072 C2073 1.399 . S
C2073 C2072 1.399 . S
C2073 C2074 1.381 . S
C2074 H2066 0.930 . S
C2074 C2070 1.390 . S
C2074 C2073 1.381 . S
N2075 C2068 1.286 . S
N2075 C2071 1.413 . S
H2076 C2081 0.930 . S
H2077 C2084 0.930 . S
H2078 C2086 0.930 . S
H2079 C2080 1.016 . S
C2080 H2079 1.016 . S
C2080 N2087 1.286 . S
C2081 H2076 0.930 . S
C2081 C2082 1.397 . S
C2081 C2083 1.361 . S
C2082 C2081 1.397 . S
C2082 C2086 1.390 . S
C2083 C2081 1.361 . S
C2083 C2084 1.393 . S
C2083 N2087 1.413 . S
C2084 H2077 0.930 . S
C2084 C2083 1.393 . S
C2084 C2085 1.399 . S
C2085 C2084 1.399 . S
C2085 C2086 1.381 . S
C2086 H2078 0.930 . S
C2086 C2082 1.390 . S
C2086 C2085 1.381 . S
N2087 C2080 1.286 . S
N2087 C2083 1.413 . S
H2088 C2093 0.930 . S
H2089 C2096 0.930 . S
H2090 C2098 0.930 . S
H2091 C2092 1.016 . S
C2092 H2091 1.016 . S
C2092 N2099 1.286 . S
C2093 H2088 0.930 . S
C2093 C2094 1.397 . S
C2093 C2095 1.361 . S
C2094 C2093 1.397 . S
C2094 C2098 1.390 . S
C2095 C2093 1.361 . S
C2095 C2096 1.393 . S
C2095 N2099 1.413 . S
C2096 H2089 0.930 . S
C2096 C2095 1.393 . S
C2096 C2097 1.399 . S
C2097 C2096 1.399 . S
C2097 C2098 1.381 . S
C2098 H2090 0.930 . S
C2098 C2094 1.390 . S
C2098 C2097 1.381 . S
N2099 C2092 1.286 . S
N2099 C2095 1.413 . S
H2100 C2105 0.930 . S
H2101 C2108 0.930 . S
H2102 C2110 0.930 . S
H2103 C2104 1.016 . S
C2104 H2103 1.016 . S
C2104 N2111 1.286 . S
C2105 H2100 0.930 . S
C2105 C2106 1.397 . S
C2105 C2107 1.361 . S
C2106 C2105 1.397 . S
C2106 C2110 1.390 . S
C2107 C2105 1.361 . S
C2107 C2108 1.393 . S
C2107 N2111 1.413 . S
C2108 H2101 0.930 . S
C2108 C2107 1.393 . S
C2108 C2109 1.399 . S
C2109 C2108 1.399 . S
C2109 C2110 1.381 . S
C2110 H2102 0.930 . S
C2110 C2106 1.390 . S
C2110 C2109 1.381 . S
N2111 C2104 1.286 . S
N2111 C2107 1.413 . S
H2112 C2117 0.930 . S
H2113 C2120 0.930 . S
H2114 C2122 0.930 . S
H2115 C2116 1.016 . S
C2116 H2115 1.016 . S
C2116 N2123 1.286 . S
C2117 H2112 0.930 . S
C2117 C2118 1.397 . S
C2117 C2119 1.361 . S
C2118 C2117 1.397 . S
C2118 C2122 1.390 . S
C2119 C2117 1.361 . S
C2119 C2120 1.393 . S
C2119 N2123 1.413 . S
C2120 H2113 0.930 . S
C2120 C2119 1.393 . S
C2120 C2121 1.399 . S
C2121 C2120 1.399 . S
C2121 C2122 1.381 . S
C2122 H2114 0.930 . S
C2122 C2118 1.390 . S
C2122 C2121 1.381 . S
N2123 C2116 1.286 . S
N2123 C2119 1.413 . S
H2124 C2129 0.930 . S
H2125 C2132 0.930 . S
H2126 C2134 0.930 . S
H2127 C2128 1.016 . S
C2128 H2127 1.016 . S
C2128 N2135 1.286 . S
C2129 H2124 0.930 . S
C2129 C2130 1.397 . S
C2129 C2131 1.361 . S
C2130 C2129 1.397 . S
C2130 C2134 1.390 . S
C2131 C2129 1.361 . S
C2131 C2132 1.393 . S
C2131 N2135 1.413 . S
C2132 H2125 0.930 . S
C2132 C2131 1.393 . S
C2132 C2133 1.399 . S
C2133 C2132 1.399 . S
C2133 C2134 1.381 . S
C2134 H2126 0.930 . S
C2134 C2130 1.390 . S
C2134 C2133 1.381 . S
N2135 C2128 1.286 . S
N2135 C2131 1.413 . S
H2136 C2141 0.930 . S
H2137 C2144 0.930 . S
H2138 C2146 0.930 . S
H2139 C2140 1.016 . S
C2140 H2139 1.016 . S
C2140 N2147 1.286 . S
C2141 H2136 0.930 . S
C2141 C2142 1.397 . S
C2141 C2143 1.361 . S
C2142 C2141 1.397 . S
C2142 C2146 1.390 . S
C2143 C2141 1.361 . S
C2143 C2144 1.393 . S
C2143 N2147 1.413 . S
C2144 H2137 0.930 . S
C2144 C2143 1.393 . S
C2144 C2145 1.399 . S
C2145 C2144 1.399 . S
C2145 C2146 1.381 . S
C2146 H2138 0.930 . S
C2146 C2142 1.390 . S
C2146 C2145 1.381 . S
N2147 C2140 1.286 . S
N2147 C2143 1.413 . S
H2148 C2153 0.930 . S
H2149 C2156 0.930 . S
H2150 C2158 0.930 . S
H2151 C2152 1.016 . S
C2152 H2151 1.016 . S
C2152 N2159 1.286 . S
C2153 H2148 0.930 . S
C2153 C2154 1.397 . S
C2153 C2155 1.361 . S
C2154 C2153 1.397 . S
C2154 C2158 1.390 . S
C2155 C2153 1.361 . S
C2155 C2156 1.393 . S
C2155 N2159 1.413 . S
C2156 H2149 0.930 . S
C2156 C2155 1.393 . S
C2156 C2157 1.399 . S
C2157 C2156 1.399 . S
C2157 C2158 1.381 . S
C2158 H2150 0.930 . S
C2158 C2154 1.390 . S
C2158 C2157 1.381 . S
N2159 C2152 1.286 . S
N2159 C2155 1.413 . S
H2160 C2165 0.930 . S
H2161 C2168 0.930 . S
H2162 C2170 0.930 . S
H2163 C2164 1.016 . S
C2164 H2163 1.016 . S
C2164 N2171 1.286 . S
C2165 H2160 0.930 . S
C2165 C2166 1.397 . S
C2165 C2167 1.361 . S
C2166 C2165 1.397 . S
C2166 C2170 1.390 . S
C2167 C2165 1.361 . S
C2167 C2168 1.393 . S
C2167 N2171 1.413 . S
C2168 H2161 0.930 . S
C2168 C2167 1.393 . S
C2168 C2169 1.399 . S
C2169 C2168 1.399 . S
C2169 C2170 1.381 . S
C2170 H2162 0.930 . S
C2170 C2166 1.390 . S
C2170 C2169 1.381 . S
N2171 C2164 1.286 . S
N2171 C2167 1.413 . S
H2172 C2177 0.930 . S
H2173 C2180 0.930 . S
H2174 C2182 0.930 . S
H2175 C2176 1.016 . S
C2176 H2175 1.016 . S
C2176 N2183 1.286 . S
C2177 H2172 0.930 . S
C2177 C2178 1.397 . S
C2177 C2179 1.361 . S
C2178 C2177 1.397 . S
C2178 C2182 1.390 . S
C2179 C2177 1.361 . S
C2179 C2180 1.393 . S
C2179 N2183 1.413 . S
C2180 H2173 0.930 . S
C2180 C2179 1.393 . S
C2180 C2181 1.399 . S
C2181 C2180 1.399 . S
C2181 C2182 1.381 . S
C2182 H2174 0.930 . S
C2182 C2178 1.390 . S
C2182 C2181 1.381 . S
N2183 C2176 1.286 . S
N2183 C2179 1.413 . S
H2184 C2189 0.930 . S
H2185 C2192 0.930 . S
H2186 C2194 0.930 . S
H2187 C2188 1.016 . S
C2188 H2187 1.016 . S
C2188 N2195 1.286 . S
C2189 H2184 0.930 . S
C2189 C2190 1.397 . S
C2189 C2191 1.361 . S
C2190 C2189 1.397 . S
C2190 C2194 1.390 . S
C2191 C2189 1.361 . S
C2191 C2192 1.393 . S
C2191 N2195 1.413 . S
C2192 H2185 0.930 . S
C2192 C2191 1.393 . S
C2192 C2193 1.399 . S
C2193 C2192 1.399 . S
C2193 C2194 1.381 . S
C2194 H2186 0.930 . S
C2194 C2190 1.390 . S
C2194 C2193 1.381 . S
N2195 C2188 1.286 . S
N2195 C2191 1.413 . S
H2196 C2201 0.930 . S
H2197 C2204 0.930 . S
H2198 C2206 0.930 . S
H2199 C2200 1.016 . S
C2200 H2199 1.016 . S
C2200 N2207 1.286 . S
C2201 H2196 0.930 . S
C2201 C2202 1.397 . S
C2201 C2203 1.361 . S
C2202 C2201 1.397 . S
C2202 C2206 1.390 . S
C2203 C2201 1.361 . S
C2203 C2204 1.393 . S
C2203 N2207 1.413 . S
C2204 H2197 0.930 . S
C2204 C2203 1.393 . S
C2204 C2205 1.399 . S
C2205 C2204 1.399 . S
C2205 C2206 1.381 . S
C2206 H2198 0.930 . S
C2206 C2202 1.390 . S
C2206 C2205 1.381 . S
N2207 C2200 1.286 . S
N2207 C2203 1.413 . S
H2208 C2213 0.930 . S
H2209 C2216 0.930 . S
H2210 C2218 0.930 . S
H2211 C2212 1.016 . S
C2212 H2211 1.016 . S
C2212 N2219 1.286 . S
C2213 H2208 0.930 . S
C2213 C2214 1.397 . S
C2213 C2215 1.361 . S
C2214 C2213 1.397 . S
C2214 C2218 1.390 . S
C2215 C2213 1.361 . S
C2215 C2216 1.393 . S
C2215 N2219 1.413 . S
C2216 H2209 0.930 . S
C2216 C2215 1.393 . S
C2216 C2217 1.399 . S
C2217 C2216 1.399 . S
C2217 C2218 1.381 . S
C2218 H2210 0.930 . S
C2218 C2214 1.390 . S
C2218 C2217 1.381 . S
N2219 C2212 1.286 . S
N2219 C2215 1.413 . S
H2220 C2225 0.930 . S
H2221 C2228 0.930 . S
H2222 C2230 0.930 . S
H2223 C2224 1.016 . S
C2224 H2223 1.016 . S
C2224 N2231 1.286 . S
C2225 H2220 0.930 . S
C2225 C2226 1.397 . S
C2225 C2227 1.361 . S
C2226 C2225 1.397 . S
C2226 C2230 1.390 . S
C2227 C2225 1.361 . S
C2227 C2228 1.393 . S
C2227 N2231 1.413 . S
C2228 H2221 0.930 . S
C2228 C2227 1.393 . S
C2228 C2229 1.399 . S
C2229 C2228 1.399 . S
C2229 C2230 1.381 . S
C2230 H2222 0.930 . S
C2230 C2226 1.390 . S
C2230 C2229 1.381 . S
N2231 C2224 1.286 . S
N2231 C2227 1.413 . S
H2232 C2237 0.930 . S
H2233 C2240 0.930 . S
H2234 C2242 0.930 . S
H2235 C2236 1.016 . S
C2236 H2235 1.016 . S
C2236 N2243 1.286 . S
C2237 H2232 0.930 . S
C2237 C2238 1.397 . S
C2237 C2239 1.361 . S
C2238 C2237 1.397 . S
C2238 C2242 1.390 . S
C2239 C2237 1.361 . S
C2239 C2240 1.393 . S
C2239 N2243 1.413 . S
C2240 H2233 0.930 . S
C2240 C2239 1.393 . S
C2240 C2241 1.399 . S
C2241 C2240 1.399 . S
C2241 C2242 1.381 . S
C2242 H2234 0.930 . S
C2242 C2238 1.390 . S
C2242 C2241 1.381 . S
N2243 C2236 1.286 . S
N2243 C2239 1.413 . S
H2244 C2249 0.930 . S
H2245 C2252 0.930 . S
H2246 C2254 0.930 . S
H2247 C2248 1.016 . S
C2248 H2247 1.016 . S
C2248 N2255 1.286 . S
C2249 H2244 0.930 . S
C2249 C2250 1.397 . S
C2249 C2251 1.361 . S
C2250 C2249 1.397 . S
C2250 C2254 1.390 . S
C2251 C2249 1.361 . S
C2251 C2252 1.393 . S
C2251 N2255 1.413 . S
C2252 H2245 0.930 . S
C2252 C2251 1.393 . S
C2252 C2253 1.399 . S
C2253 C2252 1.399 . S
C2253 C2254 1.381 . S
C2254 H2246 0.930 . S
C2254 C2250 1.390 . S
C2254 C2253 1.381 . S
N2255 C2248 1.286 . S
N2255 C2251 1.413 . S
H2256 C2261 0.930 . S
H2257 C2264 0.930 . S
H2258 C2266 0.930 . S
H2259 C2260 1.016 . S
C2260 H2259 1.016 . S
C2260 N2267 1.286 . S
C2261 H2256 0.930 . S
C2261 C2262 1.397 . S
C2261 C2263 1.361 . S
C2262 C2261 1.397 . S
C2262 C2266 1.390 . S
C2263 C2261 1.361 . S
C2263 C2264 1.393 . S
C2263 N2267 1.413 . S
C2264 H2257 0.930 . S
C2264 C2263 1.393 . S
C2264 C2265 1.399 . S
C2265 C2264 1.399 . S
C2265 C2266 1.381 . S
C2266 H2258 0.930 . S
C2266 C2262 1.390 . S
C2266 C2265 1.381 . S
N2267 C2260 1.286 . S
N2267 C2263 1.413 . S
H2268 C2273 0.930 . S
H2269 C2276 0.930 . S
H2270 C2278 0.930 . S
H2271 C2272 1.016 . S
C2272 H2271 1.016 . S
C2272 N2279 1.286 . S
C2273 H2268 0.930 . S
C2273 C2274 1.397 . S
C2273 C2275 1.361 . S
C2274 C2273 1.397 . S
C2274 C2278 1.390 . S
C2275 C2273 1.361 . S
C2275 C2276 1.393 . S
C2275 N2279 1.413 . S
C2276 H2269 0.930 . S
C2276 C2275 1.393 . S
C2276 C2277 1.399 . S
C2277 C2276 1.399 . S
C2277 C2278 1.381 . S
C2278 H2270 0.930 . S
C2278 C2274 1.390 . S
C2278 C2277 1.381 . S
N2279 C2272 1.286 . S
N2279 C2275 1.413 . S
H2280 C2285 0.930 . S
H2281 C2288 0.930 . S
H2282 C2290 0.930 . S
H2283 C2284 1.016 . S
C2284 H2283 1.016 . S
C2284 N2291 1.286 . S
C2285 H2280 0.930 . S
C2285 C2286 1.397 . S
C2285 C2287 1.361 . S
C2286 C2285 1.397 . S
C2286 C2290 1.390 . S
C2287 C2285 1.361 . S
C2287 C2288 1.393 . S
C2287 N2291 1.413 . S
C2288 H2281 0.930 . S
C2288 C2287 1.393 . S
C2288 C2289 1.399 . S
C2289 C2288 1.399 . S
C2289 C2290 1.381 . S
C2290 H2282 0.930 . S
C2290 C2286 1.390 . S
C2290 C2289 1.381 . S
N2291 C2284 1.286 . S
N2291 C2287 1.413 . S
H2292 C2297 0.930 . S
H2293 C2300 0.930 . S
H2294 C2302 0.930 . S
H2295 C2296 1.016 . S
C2296 H2295 1.016 . S
C2296 N2303 1.286 . S
C2297 H2292 0.930 . S
C2297 C2298 1.397 . S
C2297 C2299 1.361 . S
C2298 C2297 1.397 . S
C2298 C2302 1.390 . S
C2299 C2297 1.361 . S
C2299 C2300 1.393 . S
C2299 N2303 1.413 . S
C2300 H2293 0.930 . S
C2300 C2299 1.393 . S
C2300 C2301 1.399 . S
C2301 C2300 1.399 . S
C2301 C2302 1.381 . S
C2302 H2294 0.930 . S
C2302 C2298 1.390 . S
C2302 C2301 1.381 . S
N2303 C2296 1.286 . S
N2303 C2299 1.413 . S
H2304 C2309 0.930 . S
H2305 C2312 0.930 . S
H2306 C2314 0.930 . S
H2307 C2308 1.016 . S
C2308 H2307 1.016 . S
C2308 N2315 1.286 . S
C2309 H2304 0.930 . S
C2309 C2310 1.397 . S
C2309 C2311 1.361 . S
C2310 C2309 1.397 . S
C2310 C2314 1.390 . S
C2311 C2309 1.361 . S
C2311 C2312 1.393 . S
C2311 N2315 1.413 . S
C2312 H2305 0.930 . S
C2312 C2311 1.393 . S
C2312 C2313 1.399 . S
C2313 C2312 1.399 . S
C2313 C2314 1.381 . S
C2314 H2306 0.930 . S
C2314 C2310 1.390 . S
C2314 C2313 1.381 . S
N2315 C2308 1.286 . S
N2315 C2311 1.413 . S
H2316 C2321 0.930 . S
H2317 C2324 0.930 . S
H2318 C2326 0.930 . S
H2319 C2320 1.016 . S
C2320 H2319 1.016 . S
C2320 N2327 1.286 . S
C2321 H2316 0.930 . S
C2321 C2322 1.397 . S
C2321 C2323 1.361 . S
C2322 C2321 1.397 . S
C2322 C2326 1.390 . S
C2323 C2321 1.361 . S
C2323 C2324 1.393 . S
C2323 N2327 1.413 . S
C2324 H2317 0.930 . S
C2324 C2323 1.393 . S
C2324 C2325 1.399 . S
C2325 C2324 1.399 . S
C2325 C2326 1.381 . S
C2326 H2318 0.930 . S
C2326 C2322 1.390 . S
C2326 C2325 1.381 . S
N2327 C2320 1.286 . S
N2327 C2323 1.413 . S
H2328 C2333 0.930 . S
H2329 C2336 0.930 . S
H2330 C2338 0.930 . S
H2331 C2332 1.016 . S
C2332 H2331 1.016 . S
C2332 N2339 1.286 . S
C2333 H2328 0.930 . S
C2333 C2334 1.397 . S
C2333 C2335 1.361 . S
C2334 C2333 1.397 . S
C2334 C2338 1.390 . S
C2335 C2333 1.361 . S
C2335 C2336 1.393 . S
C2335 N2339 1.413 . S
C2336 H2329 0.930 . S
C2336 C2335 1.393 . S
C2336 C2337 1.399 . S
C2337 C2336 1.399 . S
C2337 C2338 1.381 . S
C2338 H2330 0.930 . S
C2338 C2334 1.390 . S
C2338 C2337 1.381 . S
N2339 C2332 1.286 . S
N2339 C2335 1.413 . S
H2340 C2345 0.930 . S
H2341 C2348 0.930 . S
H2342 C2350 0.930 . S
H2343 C2344 1.016 . S
C2344 H2343 1.016 . S
C2344 N2351 1.286 . S
C2345 H2340 0.930 . S
C2345 C2346 1.397 . S
C2345 C2347 1.361 . S
C2346 C2345 1.397 . S
C2346 C2350 1.390 . S
C2347 C2345 1.361 . S
C2347 C2348 1.393 . S
C2347 N2351 1.413 . S
C2348 H2341 0.930 . S
C2348 C2347 1.393 . S
C2348 C2349 1.399 . S
C2349 C2348 1.399 . S
C2349 C2350 1.381 . S
C2350 H2342 0.930 . S
C2350 C2346 1.390 . S
C2350 C2349 1.381 . S
N2351 C2344 1.286 . S
N2351 C2347 1.413 . S
H2352 C2357 0.930 . S
H2353 C2360 0.930 . S
H2354 C2362 0.930 . S
H2355 C2356 1.016 . S
C2356 H2355 1.016 . S
C2356 N2363 1.286 . S
C2357 H2352 0.930 . S
C2357 C2358 1.397 . S
C2357 C2359 1.361 . S
C2358 C2357 1.397 . S
C2358 C2362 1.390 . S
C2359 C2357 1.361 . S
C2359 C2360 1.393 . S
C2359 N2363 1.413 . S
C2360 H2353 0.930 . S
C2360 C2359 1.393 . S
C2360 C2361 1.399 . S
C2361 C2360 1.399 . S
C2361 C2362 1.381 . S
C2362 H2354 0.930 . S
C2362 C2358 1.390 . S
C2362 C2361 1.381 . S
N2363 C2356 1.286 . S
N2363 C2359 1.413 . S
H2364 C2369 0.930 . S
H2365 C2372 0.930 . S
H2366 C2374 0.930 . S
H2367 C2368 1.016 . S
C2368 H2367 1.016 . S
C2368 N2375 1.286 . S
C2369 H2364 0.930 . S
C2369 C2370 1.397 . S
C2369 C2371 1.361 . S
C2370 C2369 1.397 . S
C2370 C2374 1.390 . S
C2371 C2369 1.361 . S
C2371 C2372 1.393 . S
C2371 N2375 1.413 . S
C2372 H2365 0.930 . S
C2372 C2371 1.393 . S
C2372 C2373 1.399 . S
C2373 C2372 1.399 . S
C2373 C2374 1.381 . S
C2374 H2366 0.930 . S
C2374 C2370 1.390 . S
C2374 C2373 1.381 . S
N2375 C2368 1.286 . S
N2375 C2371 1.413 . S
H2376 C2381 0.930 . S
H2377 C2384 0.930 . S
H2378 C2386 0.930 . S
H2379 C2380 1.016 . S
C2380 H2379 1.016 . S
C2380 N2387 1.286 . S
C2381 H2376 0.930 . S
C2381 C2382 1.397 . S
C2381 C2383 1.361 . S
C2382 C2381 1.397 . S
C2382 C2386 1.390 . S
C2383 C2381 1.361 . S
C2383 C2384 1.393 . S
C2383 N2387 1.413 . S
C2384 H2377 0.930 . S
C2384 C2383 1.393 . S
C2384 C2385 1.399 . S
C2385 C2384 1.399 . S
C2385 C2386 1.381 . S
C2386 H2378 0.930 . S
C2386 C2382 1.390 . S
C2386 C2385 1.381 . S
N2387 C2380 1.286 . S
N2387 C2383 1.413 . S
H2388 C2393 0.930 . S
H2389 C2396 0.930 . S
H2390 C2398 0.930 . S
H2391 C2392 1.016 . S
C2392 H2391 1.016 . S
C2392 N2399 1.286 . S
C2393 H2388 0.930 . S
C2393 C2394 1.397 . S
C2393 C2395 1.361 . S
C2394 C2393 1.397 . S
C2394 C2398 1.390 . S
C2395 C2393 1.361 . S
C2395 C2396 1.393 . S
C2395 N2399 1.413 . S
C2396 H2389 0.930 . S
C2396 C2395 1.393 . S
C2396 C2397 1.399 . S
C2397 C2396 1.399 . S
C2397 C2398 1.381 . S
C2398 H2390 0.930 . S
C2398 C2394 1.390 . S
C2398 C2397 1.381 . S
N2399 C2392 1.286 . S
N2399 C2395 1.413 . S
H2400 C2405 0.930 . S
H2401 C2408 0.930 . S
H2402 C2410 0.930 . S
H2403 C2404 1.016 . S
C2404 H2403 1.016 . S
C2404 N2411 1.286 . S
C2405 H2400 0.930 . S
C2405 C2406 1.397 . S
C2405 C2407 1.361 . S
C2406 C2405 1.397 . S
C2406 C2410 1.390 . S
C2407 C2405 1.361 . S
C2407 C2408 1.393 . S
C2407 N2411 1.413 . S
C2408 H2401 0.930 . S
C2408 C2407 1.393 . S
C2408 C2409 1.399 . S
C2409 C2408 1.399 . S
C2409 C2410 1.381 . S
C2410 H2402 0.930 . S
C2410 C2406 1.390 . S
C2410 C2409 1.381 . S
N2411 C2404 1.286 . S
N2411 C2407 1.413 . S
H2412 C2417 0.930 . S
H2413 C2420 0.930 . S
H2414 C2422 0.930 . S
H2415 C2416 1.016 . S
C2416 H2415 1.016 . S
C2416 N2423 1.286 . S
C2417 H2412 0.930 . S
C2417 C2418 1.397 . S
C2417 C2419 1.361 . S
C2418 C2417 1.397 . S
C2418 C2422 1.390 . S
C2419 C2417 1.361 . S
C2419 C2420 1.393 . S
C2419 N2423 1.413 . S
C2420 H2413 0.930 . S
C2420 C2419 1.393 . S
C2420 C2421 1.399 . S
C2421 C2420 1.399 . S
C2421 C2422 1.381 . S
C2422 H2414 0.930 . S
C2422 C2418 1.390 . S
C2422 C2421 1.381 . S
N2423 C2416 1.286 . S
N2423 C2419 1.413 . S
H2424 C2429 0.930 . S
H2425 C2432 0.930 . S
H2426 C2434 0.930 . S
H2427 C2428 1.016 . S
C2428 H2427 1.016 . S
C2428 N2435 1.286 . S
C2429 H2424 0.930 . S
C2429 C2430 1.397 . S
C2429 C2431 1.361 . S
C2430 C2429 1.397 . S
C2430 C2434 1.390 . S
C2431 C2429 1.361 . S
C2431 C2432 1.393 . S
C2431 N2435 1.413 . S
C2432 H2425 0.930 . S
C2432 C2431 1.393 . S
C2432 C2433 1.399 . S
C2433 C2432 1.399 . S
C2433 C2434 1.381 . S
C2434 H2426 0.930 . S
C2434 C2430 1.390 . S
C2434 C2433 1.381 . S
N2435 C2428 1.286 . S
N2435 C2431 1.413 . S
H2436 C2441 0.930 . S
H2437 C2444 0.930 . S
H2438 C2446 0.930 . S
H2439 C2440 1.016 . S
C2440 H2439 1.016 . S
C2440 N2447 1.286 . S
C2441 H2436 0.930 . S
C2441 C2442 1.397 . S
C2441 C2443 1.361 . S
C2442 C2441 1.397 . S
C2442 C2446 1.390 . S
C2443 C2441 1.361 . S
C2443 C2444 1.393 . S
C2443 N2447 1.413 . S
C2444 H2437 0.930 . S
C2444 C2443 1.393 . S
C2444 C2445 1.399 . S
C2445 C2444 1.399 . S
C2445 C2446 1.381 . S
C2446 H2438 0.930 . S
C2446 C2442 1.390 . S
C2446 C2445 1.381 . S
N2447 C2440 1.286 . S
N2447 C2443 1.413 . S
H2448 C2453 0.930 . S
H2449 C2456 0.930 . S
H2450 C2458 0.930 . S
H2451 C2452 1.016 . S
C2452 H2451 1.016 . S
C2452 N2459 1.286 . S
C2453 H2448 0.930 . S
C2453 C2454 1.397 . S
C2453 C2455 1.361 . S
C2454 C2453 1.397 . S
C2454 C2458 1.390 . S
C2455 C2453 1.361 . S
C2455 C2456 1.393 . S
C2455 N2459 1.413 . S
C2456 H2449 0.930 . S
C2456 C2455 1.393 . S
C2456 C2457 1.399 . S
C2457 C2456 1.399 . S
C2457 C2458 1.381 . S
C2458 H2450 0.930 . S
C2458 C2454 1.390 . S
C2458 C2457 1.381 . S
N2459 C2452 1.286 . S
N2459 C2455 1.413 . S
H2460 C2465 0.930 . S
H2461 C2468 0.930 . S
H2462 C2470 0.930 . S
H2463 C2464 1.016 . S
C2464 H2463 1.016 . S
C2464 N2471 1.286 . S
C2465 H2460 0.930 . S
C2465 C2466 1.397 . S
C2465 C2467 1.361 . S
C2466 C2465 1.397 . S
C2466 C2470 1.390 . S
C2467 C2465 1.361 . S
C2467 C2468 1.393 . S
C2467 N2471 1.413 . S
C2468 H2461 0.930 . S
C2468 C2467 1.393 . S
C2468 C2469 1.399 . S
C2469 C2468 1.399 . S
C2469 C2470 1.381 . S
C2470 H2462 0.930 . S
C2470 C2466 1.390 . S
C2470 C2469 1.381 . S
N2471 C2464 1.286 . S
N2471 C2467 1.413 . S
H2472 C2477 0.930 . S
H2473 C2480 0.930 . S
H2474 C2482 0.930 . S
H2475 C2476 1.016 . S
C2476 H2475 1.016 . S
C2476 N2483 1.286 . S
C2477 H2472 0.930 . S
C2477 C2478 1.397 . S
C2477 C2479 1.361 . S
C2478 C2477 1.397 . S
C2478 C2482 1.390 . S
C2479 C2477 1.361 . S
C2479 C2480 1.393 . S
C2479 N2483 1.413 . S
C2480 H2473 0.930 . S
C2480 C2479 1.393 . S
C2480 C2481 1.399 . S
C2481 C2480 1.399 . S
C2481 C2482 1.381 . S
C2482 H2474 0.930 . S
C2482 C2478 1.390 . S
C2482 C2481 1.381 . S
N2483 C2476 1.286 . S
N2483 C2479 1.413 . S
H2484 C2489 0.930 . S
H2485 C2492 0.930 . S
H2486 C2494 0.930 . S
H2487 C2488 1.016 . S
C2488 H2487 1.016 . S
C2488 N2495 1.286 . S
C2489 H2484 0.930 . S
C2489 C2490 1.397 . S
C2489 C2491 1.361 . S
C2490 C2489 1.397 . S
C2490 C2494 1.390 . S
C2491 C2489 1.361 . S
C2491 C2492 1.393 . S
C2491 N2495 1.413 . S
C2492 H2485 0.930 . S
C2492 C2491 1.393 . S
C2492 C2493 1.399 . S
C2493 C2492 1.399 . S
C2493 C2494 1.381 . S
C2494 H2486 0.930 . S
C2494 C2490 1.390 . S
C2494 C2493 1.381 . S
N2495 C2488 1.286 . S
N2495 C2491 1.413 . S
C1781 C1929 2.204 . S
C981 C1941 2.145 . S
C1953 C1861 2.103 . S
C1061 C1965 2.139 . S
C1901 C1977 1.938 . S
C941 C1989 2.184 . S
C1821 C2001 1.904 . S
C1021 C2013 2.241 . S
C661 C2025 1.190 . S
C1621 C2037 1.680 . S
C741 C2049 2.720 . S
C1581 C2061 2.652 . S
C901 C2073 2.633 . S
C2085 C1661 1.936 . S
C2097 C821 2.864 . S
C1141 C2109 1.664 . S
C2121 C781 1.886 . S
C2133 C1701 2.819 . S
C861 C2145 1.907 . S
C1181 C2157 2.718 . S
C2169 C1101 1.415 . S
C1421 C2181 1.418 . S
C2193 C381 1.797 . S
C2205 C1501 1.680 . S
C2217 C461 1.865 . S
C2229 C1541 1.979 . S
C341 C2241 1.132 . S
C2253 C1461 2.043 . S
C421 C2265 1.954 . S
C2277 C61 2.338 . S
C2289 C1261 2.476 . S
C141 C2301 1.596 . S
C2313 C1221 1.578 . S
C2325 C301 2.054 . S
C1301 C2337 2.529 . S
C2349 C221 1.671 . S
C2361 C541 1.590 . S
C181 C2373 2.046 . S
C2385 C1341 1.714 . S
C261 C2397 1.660 . S
C2409 C581 1.670 . S
C501 C2421 2.017 . S
C701 C2433 1.729 . S
C2445 C621 2.867 . S
C1741 C2457 2.441 . S
C101 C2469 2.369 . S
C2481 C21 2.140 . S
C2493 C1381 2.551 . S
C1335 C1926 2.108 . S
C535 C1938 1.572 . S
C1362 C1948 3.029 . S
C1960 C1295 2.449 . S
C575 C1972 1.524 . S
C1215 C1984 1.738 . S
C1996 C495 1.991 . S
C1242 C2010 2.086 . S
C1255 C2022 2.897 . S
C2032 C562 2.036 . S
C1202 C2044 1.717 . S
C2056 C482 2.630 . S
C522 C2070 1.296 . S
C1375 C2080 2.467 . S
C2092 C1282 3.062 . S
C2106 C1322 2.564 . S
C455 C2058 2.289 . S
C1415 C2118 2.017 . S
C1455 C2130 2.060 . S
C2140 C1482 1.469 . S
C2068 C442 2.701 . S
C362 C2034 1.819 . S
C1495 C2154 1.357 . S
C2164 C1402 1.644 . S
C2178 C1695 3.058 . S
C1135 C2190 1.892 . S
C2200 C1722 2.510 . S
C2212 C1655 1.615 . S
C1175 C2226 3.003 . S
C1562 C2236 1.884 . S
C1095 C2248 1.617 . S
C2262 C1615 2.443 . S
C2274 C1602 2.482 . S
C1162 C2284 2.918 . S
C2298 C1575 2.677 . S
C1082 C2308 1.833 . S
C2320 C1122 2.066 . S
C1735 C2334 2.858 . S
C2346 C1642 1.451 . S
C1682 C2356 2.856 . S
C1042 C2310 2.173 . S
C1775 C2368 2.267 . S
C1815 C2380 1.948 . S
C2394 C1842 2.671 . S
C1055 C2322 2.198 . S
C975 C2286 2.256 . S
C2404 C1855 2.439 . S
C1762 C2416 2.578 . S
C1986 C215 2.083 . S
C1998 C255 1.543 . S
C2008 C282 2.798 . S
C1974 C175 2.116 . S
C1962 C135 1.538 . S
C15 C1924 1.911 . S
C55 C1936 2.325 . S
C82 C1950 2.198 . S
C95 C2166 2.919 . S
C122 C2428 1.445 . S
C2 C2152 2.586 . S
C42 C2440 2.998 . S
C242 C2454 1.336 . S
C2116 C295 2.212 . S
C162 C2128 2.564 . S
C202 C2142 2.487 . S
C2442 C1535 2.282 . S
C335 C2082 1.903 . S
C375 C2094 1.946 . S
C402 C2104 1.543 . S
C2452 C1522 2.679 . S
C2430 C1442 2.128 . S
C2046 C415 1.719 . S
C322 C2020 1.609 . S
C815 C2238 3.228 . S
C855 C2250 2.355 . S
C882 C2260 2.835 . S
C775 C2224 1.731 . S
C2214 C735 3.069 . S
C2176 C602 2.107 . S
C2188 C655 1.653 . S
C695 C2202 2.459 . S
C2418 C682 2.482 . S
C722 C2464 2.887 . S
C615 C2406 2.843 . S
C2476 C642 1.843 . S
C842 C2488 2.484 . S
C2370 C895 3.276 . S
C762 C2382 1.364 . S
C802 C2392 2.856 . S
C1895 C2478 2.148 . S
C2332 C935 2.370 . S
C962 C2344 2.143 . S
C1002 C2358 2.616 . S
C1882 C2490 2.070 . S
C1802 C2466 2.055 . S
C2296 C1015 2.431 . S
C2272 C922 2.689 . S
