# Generated by pormake.
# Topology eea, (3,6)-cn, num edge types: 1
# Building blocks:
#     Node 0, Type 0, BuildingBlock: BETDAH_clean_linker_0, # of connection points: 3
#     Node 1, Type 0, BuildingBlock: BETDAH_clean_linker_0, # of connection points: 3
#     Node 2, Type 0, BuildingBlock: BETDAH_clean_linker_0, # of connection points: 3
#     Node 3, Type 0, BuildingBlock: BETDAH_clean_linker_0, # of connection points: 3
#     Node 4, Type 0, BuildingBlock: BETDAH_clean_linker_0, # of connection points: 3
#     Node 5, Type 0, BuildingBlock: BETDAH_clean_linker_0, # of connection points: 3
#     Node 6, Type 0, BuildingBlock: BETDAH_clean_linker_0, # of connection points: 3
#     Node 7, Type 0, BuildingBlock: BETDAH_clean_linker_0, # of connection points: 3
#     Node 8, Type 0, BuildingBlock: BETDAH_clean_linker_0, # of connection points: 3
#     Node 9, Type 0, BuildingBlock: BETDAH_clean_linker_0, # of connection points: 3
#     Node 10, Type 0, BuildingBlock: BETDAH_clean_linker_0, # of connection points: 3
#     Node 11, Type 0, BuildingBlock: BETDAH_clean_linker_0, # of connection points: 3
#     Node 12, Type 0, BuildingBlock: BETDAH_clean_linker_0, # of connection points: 3
#     Node 13, Type 0, BuildingBlock: BETDAH_clean_linker_0, # of connection points: 3
#     Node 14, Type 0, BuildingBlock: BETDAH_clean_linker_0, # of connection points: 3
#     Node 15, Type 0, BuildingBlock: BETDAH_clean_linker_0, # of connection points: 3
#     Node 16, Type 0, BuildingBlock: BETDAH_clean_linker_0, # of connection points: 3
#     Node 17, Type 0, BuildingBlock: BETDAH_clean_linker_0, # of connection points: 3
#     Node 18, Type 1, BuildingBlock: KUMBOL_clean_sbu_0, # of connection points: 6
#     Node 19, Type 1, BuildingBlock: KUMBOL_clean_sbu_0, # of connection points: 6
#     Node 20, Type 1, BuildingBlock: KUMBOL_clean_sbu_0, # of connection points: 6
#     Node 21, Type 1, BuildingBlock: KUMBOL_clean_sbu_0, # of connection points: 6
#     Node 22, Type 1, BuildingBlock: KUMBOL_clean_sbu_0, # of connection points: 6
#     Node 23, Type 1, BuildingBlock: KUMBOL_clean_sbu_0, # of connection points: 6
#     Node 24, Type 1, BuildingBlock: KUMBOL_clean_sbu_0, # of connection points: 6
#     Node 25, Type 1, BuildingBlock: KUMBOL_clean_sbu_0, # of connection points: 6
#     Node 26, Type 1, BuildingBlock: KUMBOL_clean_sbu_0, # of connection points: 6
#     Edge 27, Type (0, 1), BuildingBlock: CIFDUS_clean_linker_0, # of connection points: 2
#     Edge 28, Type (0, 1), BuildingBlock: CIFDUS_clean_linker_0, # of connection points: 2
#     Edge 29, Type (0, 1), BuildingBlock: CIFDUS_clean_linker_0, # of connection points: 2
#     Edge 30, Type (0, 1), BuildingBlock: CIFDUS_clean_linker_0, # of connection points: 2
#     Edge 31, Type (0, 1), BuildingBlock: CIFDUS_clean_linker_0, # of connection points: 2
#     Edge 32, Type (0, 1), BuildingBlock: CIFDUS_clean_linker_0, # of connection points: 2
#     Edge 33, Type (0, 1), BuildingBlock: CIFDUS_clean_linker_0, # of connection points: 2
#     Edge 34, Type (0, 1), BuildingBlock: CIFDUS_clean_linker_0, # of connection points: 2
#     Edge 35, Type (0, 1), BuildingBlock: CIFDUS_clean_linker_0, # of connection points: 2
#     Edge 36, Type (0, 1), BuildingBlock: CIFDUS_clean_linker_0, # of connection points: 2
#     Edge 37, Type (0, 1), BuildingBlock: CIFDUS_clean_linker_0, # of connection points: 2
#     Edge 38, Type (0, 1), BuildingBlock: CIFDUS_clean_linker_0, # of connection points: 2
#     Edge 39, Type (0, 1), BuildingBlock: CIFDUS_clean_linker_0, # of connection points: 2
#     Edge 40, Type (0, 1), BuildingBlock: CIFDUS_clean_linker_0, # of connection points: 2
#     Edge 41, Type (0, 1), BuildingBlock: CIFDUS_clean_linker_0, # of connection points: 2
#     Edge 42, Type (0, 1), BuildingBlock: CIFDUS_clean_linker_0, # of connection points: 2
#     Edge 43, Type (0, 1), BuildingBlock: CIFDUS_clean_linker_0, # of connection points: 2
#     Edge 44, Type (0, 1), BuildingBlock: CIFDUS_clean_linker_0, # of connection points: 2
#     Edge 45, Type (0, 1), BuildingBlock: CIFDUS_clean_linker_0, # of connection points: 2
#     Edge 46, Type (0, 1), BuildingBlock: CIFDUS_clean_linker_0, # of connection points: 2
#     Edge 47, Type (0, 1), BuildingBlock: CIFDUS_clean_linker_0, # of connection points: 2
#     Edge 48, Type (0, 1), BuildingBlock: CIFDUS_clean_linker_0, # of connection points: 2
#     Edge 49, Type (0, 1), BuildingBlock: CIFDUS_clean_linker_0, # of connection points: 2
#     Edge 50, Type (0, 1), BuildingBlock: CIFDUS_clean_linker_0, # of connection points: 2
#     Edge 51, Type (0, 1), BuildingBlock: CIFDUS_clean_linker_0, # of connection points: 2
#     Edge 52, Type (0, 1), BuildingBlock: CIFDUS_clean_linker_0, # of connection points: 2
#     Edge 53, Type (0, 1), BuildingBlock: CIFDUS_clean_linker_0, # of connection points: 2
#     Edge 54, Type (0, 1), BuildingBlock: CIFDUS_clean_linker_0, # of connection points: 2
#     Edge 55, Type (0, 1), BuildingBlock: CIFDUS_clean_linker_0, # of connection points: 2
#     Edge 56, Type (0, 1), BuildingBlock: CIFDUS_clean_linker_0, # of connection points: 2
#     Edge 57, Type (0, 1), BuildingBlock: CIFDUS_clean_linker_0, # of connection points: 2
#     Edge 58, Type (0, 1), BuildingBlock: CIFDUS_clean_linker_0, # of connection points: 2
#     Edge 59, Type (0, 1), BuildingBlock: CIFDUS_clean_linker_0, # of connection points: 2
#     Edge 60, Type (0, 1), BuildingBlock: CIFDUS_clean_linker_0, # of connection points: 2
#     Edge 61, Type (0, 1), BuildingBlock: CIFDUS_clean_linker_0, # of connection points: 2
#     Edge 62, Type (0, 1), BuildingBlock: CIFDUS_clean_linker_0, # of connection points: 2
#     Edge 63, Type (0, 1), BuildingBlock: CIFDUS_clean_linker_0, # of connection points: 2
#     Edge 64, Type (0, 1), BuildingBlock: CIFDUS_clean_linker_0, # of connection points: 2
#     Edge 65, Type (0, 1), BuildingBlock: CIFDUS_clean_linker_0, # of connection points: 2
#     Edge 66, Type (0, 1), BuildingBlock: CIFDUS_clean_linker_0, # of connection points: 2
#     Edge 67, Type (0, 1), BuildingBlock: CIFDUS_clean_linker_0, # of connection points: 2
#     Edge 68, Type (0, 1), BuildingBlock: CIFDUS_clean_linker_0, # of connection points: 2
#     Edge 69, Type (0, 1), BuildingBlock: CIFDUS_clean_linker_0, # of connection points: 2
#     Edge 70, Type (0, 1), BuildingBlock: CIFDUS_clean_linker_0, # of connection points: 2
#     Edge 71, Type (0, 1), BuildingBlock: CIFDUS_clean_linker_0, # of connection points: 2
#     Edge 72, Type (0, 1), BuildingBlock: CIFDUS_clean_linker_0, # of connection points: 2
#     Edge 73, Type (0, 1), BuildingBlock: CIFDUS_clean_linker_0, # of connection points: 2
#     Edge 74, Type (0, 1), BuildingBlock: CIFDUS_clean_linker_0, # of connection points: 2
#     Edge 75, Type (0, 1), BuildingBlock: CIFDUS_clean_linker_0, # of connection points: 2
#     Edge 76, Type (0, 1), BuildingBlock: CIFDUS_clean_linker_0, # of connection points: 2
#     Edge 77, Type (0, 1), BuildingBlock: CIFDUS_clean_linker_0, # of connection points: 2
#     Edge 78, Type (0, 1), BuildingBlock: CIFDUS_clean_linker_0, # of connection points: 2
#     Edge 79, Type (0, 1), BuildingBlock: CIFDUS_clean_linker_0, # of connection points: 2
#     Edge 80, Type (0, 1), BuildingBlock: CIFDUS_clean_linker_0, # of connection points: 2
# Relax obj value: 0.023
# Max RMSD: 0.171
# Mean RMSD: 0.122
data_MOF--net-eea--node1-KUMBOL_clean_sbu_0--node2-BETDAH_clean_linker_0--edge1-CIFDUS_clean_linker_0
_symmetry_space_group_name_H-M    P1
_symmetry_Int_Tables_number       1
_symmetry_cell_setting            triclinic
loop_
_symmetry_equiv_pos_as_xyz
'x, y, z'
_cell_length_a     47.655697
_cell_length_b     48.867772
_cell_length_c     59.469969
_cell_angle_alpha  89.971257
_cell_angle_beta   89.936667
_cell_angle_gamma 119.9219
loop_
_atom_site_label
_atom_site_type_symbol
_atom_site_fract_x
_atom_site_fract_y
_atom_site_fract_z
_atom_type_partial_charge
H0 H 0.24872 0.06107 0.42896 0.0
H1 H 0.2884 0.16028 0.41628 0.0
H2 H 0.2387 0.09322 0.36367 0.0
C3 C 0.25232 0.08005 0.41774 0.0
C4 C 0.24114 0.07306 0.39548 0.0
C5 C 0.26974 0.11135 0.42541 0.0
C6 C 0.27399 0.13592 0.41095 0.0
C7 C 0.26202 0.1292 0.38883 0.0
C8 C 0.24587 0.09789 0.38117 0.0
N9 N 0.2714 0.15396 0.37307 0.0
C10 C 0.25477 0.17035 0.37043 0.0
H11 H 0.96329 0.18554 0.44708 0.0
H12 H 0.87094 0.10335 0.43171 0.0
H13 H 0.94304 0.14758 0.38022 0.0
C14 C 0.94702 0.16756 0.43545 0.0
C15 C 0.95719 0.16865 0.41308 0.0
C16 C 0.91555 0.14459 0.44245 0.0
C17 C 0.89498 0.12155 0.42676 0.0
C18 C 0.90493 0.12272 0.40432 0.0
C19 C 0.93563 0.14665 0.39758 0.0
N20 N 0.88403 0.10162 0.38764 0.0
C21 C 0.8617 0.06979 0.39096 0.0
H22 H 0.82685 0.7557 0.44281 0.0
H23 H 0.92433 0.77551 0.42915 0.0
H24 H 0.87588 0.80584 0.38292 0.0
C25 C 0.84803 0.76545 0.43205 0.0
C26 C 0.84776 0.78063 0.41198 0.0
C27 C 0.87536 0.76327 0.43864 0.0
C28 C 0.90323 0.77718 0.42463 0.0
C29 C 0.9034 0.79269 0.40451 0.0
C30 C 0.87574 0.79436 0.39855 0.0
N31 N 0.93026 0.80672 0.38936 0.0
C32 C 0.95995 0.80751 0.3907 0.0
H33 H 0.06145 0.24325 0.59881 0.0
H34 H 0.14158 0.22608 0.60671 0.0
H35 H 0.07139 0.20188 0.65969 0.0
C36 C 0.07443 0.23438 0.60856 0.0
C37 C 0.06292 0.22202 0.63009 0.0
C38 C 0.1026 0.23567 0.59964 0.0
C39 C 0.11983 0.2251 0.61315 0.0
C40 C 0.10853 0.21288 0.6349 0.0
C41 C 0.07998 0.21116 0.64297 0.0
N42 N 0.12481 0.20226 0.64957 0.0
C43 C 0.15309 0.20113 0.64555 0.0
H44 H 0.73841 0.80513 0.61252 0.0
H45 H 0.7474 0.89747 0.61475 0.0
H46 H 0.79001 0.86883 0.66658 0.0
C47 C 0.74699 0.8277 0.62075 0.0
C48 C 0.76463 0.83405 0.64089 0.0
C49 C 0.74053 0.8504 0.61113 0.0
C50 C 0.75221 0.87984 0.6219 0.0
C51 C 0.76986 0.88618 0.64206 0.0
C52 C 0.77584 0.86333 0.65128 0.0
N53 N 0.78276 0.91528 0.65368 0.0
C54 C 0.77731 0.94006 0.64898 0.0
H55 H 0.18588 0.93879 0.59253 0.0
H56 H 0.09915 0.85378 0.61276 0.0
H57 H 0.14543 0.9317 0.65837 0.0
C58 C 0.1671 0.92566 0.60482 0.0
C59 C 0.16823 0.93966 0.62575 0.0
C60 C 0.14256 0.89452 0.5999 0.0
C61 C 0.1182 0.87769 0.61616 0.0
C62 C 0.11925 0.89139 0.63719 0.0
C63 C 0.14437 0.92194 0.64183 0.0
N64 N 0.09708 0.87468 0.65485 0.0
C65 C 0.06511 0.85066 0.65234 0.0
H66 H 0.94904 0.40685 0.77524 0.0
H67 H 0.9458 0.49295 0.76743 0.0
H68 H 0.90308 0.42009 0.71746 0.0
C69 C 0.94189 0.42121 0.76563 0.0
C70 C 0.92494 0.40945 0.74539 0.0
C71 C 0.95012 0.45146 0.77362 0.0
C72 C 0.93947 0.46957 0.76162 0.0
C73 C 0.92207 0.45776 0.74139 0.0
C74 C 0.91535 0.42815 0.73346 0.0
N75 N 0.91193 0.47494 0.72758 0.0
C76 C 0.91286 0.50321 0.73238 0.0
H77 H 0.60931 0.53235 0.76867 0.0
H78 H 0.53843 0.43326 0.76482 0.0
H79 H 0.61714 0.47391 0.71773 0.0
C80 C 0.60021 0.50951 0.76074 0.0
C81 C 0.61677 0.5065 0.7421 0.0
C82 C 0.57189 0.48321 0.76917 0.0
C83 C 0.55997 0.45374 0.75843 0.0
C84 C 0.57654 0.45047 0.73999 0.0
C85 C 0.60488 0.47671 0.73217 0.0
N86 N 0.56598 0.42114 0.72903 0.0
C87 C 0.53478 0.39532 0.72995 0.0
H88 H 0.4806 0.09143 0.77032 0.0
H89 H 0.57781 0.10851 0.76156 0.0
H90 H 0.5357 0.14205 0.71227 0.0
C91 C 0.50286 0.10162 0.76064 0.0
C92 C 0.50485 0.11729 0.74041 0.0
C93 C 0.52875 0.09807 0.76843 0.0
C94 C 0.55798 0.11168 0.75601 0.0
C95 C 0.56048 0.12777 0.73565 0.0
C96 C 0.53392 0.13046 0.72818 0.0
N97 N 0.58801 0.13998 0.72118 0.0
C98 C 0.61851 0.14364 0.72543 0.0
H99 H 0.73054 0.56762 0.93478 0.0
H100 H 0.81367 0.55584 0.9455 0.0
H101 H 0.73562 0.51844 0.99324 0.0
C102 C 0.7432 0.55847 0.94461 0.0
C103 C 0.72897 0.54182 0.96468 0.0
C104 C 0.77382 0.56372 0.93734 0.0
C105 C 0.79019 0.55201 0.95068 0.0
C106 C 0.77642 0.53575 0.97089 0.0
C107 C 0.74594 0.53072 0.97756 0.0
N108 N 0.79256 0.52506 0.98567 0.0
C109 C 0.82003 0.52254 0.98134 0.0
H110 H 0.43401 0.16204 0.92003 0.0
H111 H 0.43156 0.24735 0.93507 0.0
H112 H 0.4516 0.19923 0.98722 0.0
C113 C 0.43682 0.18016 0.93175 0.0
C114 C 0.44498 0.1783 0.95426 0.0
C115 C 0.43135 0.20468 0.92448 0.0
C116 C 0.43535 0.22814 0.94013 0.0
C117 C 0.44276 0.226 0.96271 0.0
C118 C 0.44702 0.20101 0.96958 0.0
N119 N 0.44329 0.2468 0.97952 0.0
C120 C 0.4561 0.27912 0.97692 0.0
H121 H 0.86427 0.26163 0.93236 0.0
H122 H 0.76945 0.17994 0.94045 0.0
H123 H 0.80473 0.25553 0.98857 0.0
C124 C 0.84199 0.2488 0.94187 0.0
C125 C 0.83788 0.2623 0.96156 0.0
C126 C 0.81782 0.21897 0.93418 0.0
C127 C 0.78823 0.20291 0.94609 0.0
C128 C 0.78358 0.21655 0.96566 0.0
C129 C 0.80839 0.24592 0.97314 0.0
N130 N 0.75476 0.20195 0.97877 0.0
C131 C 0.72843 0.17161 0.97654 0.0
H132 H 0.57817 0.72844 0.11286 0.0
H133 H 0.56521 0.80967 0.10994 0.0
H134 H 0.5146 0.73348 0.06367 0.0
C135 C 0.56708 0.74086 0.10524 0.0
C136 C 0.54537 0.72696 0.0872 0.0
C137 C 0.5746 0.77083 0.11351 0.0
C138 C 0.56009 0.7869 0.1035 0.0
C139 C 0.538 0.7729 0.08577 0.0
C140 C 0.53104 0.74335 0.07777 0.0
N141 N 0.52121 0.78694 0.0758 0.0
C142 C 0.52969 0.81851 0.07706 0.0
H143 H 0.28408 0.8586 0.10142 0.0
H144 H 0.20348 0.76466 0.0906 0.0
H145 H 0.285 0.80261 0.04593 0.0
C146 C 0.27257 0.83681 0.0919 0.0
C147 C 0.28854 0.83357 0.07298 0.0
C148 C 0.24176 0.81206 0.09851 0.0
C149 C 0.22695 0.78398 0.0857 0.0
C150 C 0.24274 0.78068 0.06678 0.0
C151 C 0.2733 0.80536 0.06071 0.0
N152 N 0.22914 0.7531 0.05323 0.0
C153 C 0.19856 0.72661 0.05543 0.0
H154 H 0.15051 0.42101 0.10583 0.0
H155 H 0.24592 0.43073 0.103 0.0
H156 H 0.21902 0.48103 0.05635 0.0
C157 C 0.17415 0.43048 0.09808 0.0
C158 C 0.18173 0.45126 0.07979 0.0
C159 C 0.19709 0.42296 0.10699 0.0
C160 C 0.22809 0.43637 0.0967 0.0
C161 C 0.2359 0.4572 0.07824 0.0
C162 C 0.21278 0.46473 0.07032 0.0
N163 N 0.26676 0.47231 0.06736 0.0
C164 C 0.29141 0.46472 0.06821 0.0
H165 H 0.40951 0.91325 0.26815 0.0
H166 H 0.48386 0.8894 0.28119 0.0
H167 H 0.40497 0.86133 0.32767 0.0
C168 C 0.41948 0.90193 0.27849 0.0
C169 C 0.40339 0.88692 0.29857 0.0
C170 C 0.44848 0.903 0.27183 0.0
C171 C 0.46166 0.88887 0.28594 0.0
C172 C 0.4459 0.87374 0.3061 0.0
C173 C 0.41676 0.87265 0.31203 0.0
N174 N 0.45828 0.85951 0.32115 0.0
C175 C 0.48732 0.85903 0.31948 0.0
H176 H 0.07665 0.47643 0.26456 0.0
H177 H 0.07716 0.56307 0.2788 0.0
H178 H 0.10752 0.52069 0.32933 0.0
C179 C 0.08165 0.49555 0.27604 0.0
C180 C 0.09401 0.49601 0.29757 0.0
C181 C 0.07536 0.51952 0.26916 0.0
C182 C 0.08261 0.54488 0.28375 0.0
C183 C 0.09428 0.5451 0.30551 0.0
C184 C 0.0995 0.52062 0.31227 0.0
N185 N 0.09795 0.56766 0.3219 0.0
C186 C 0.11062 0.59967 0.31786 0.0
H187 H 0.52515 0.6159 0.26823 0.0
H188 H 0.45179 0.51825 0.27567 0.0
H189 H 0.46993 0.5834 0.32949 0.0
C190 C 0.50607 0.5972 0.27809 0.0
C191 C 0.49929 0.60388 0.29979 0.0
C192 C 0.48931 0.56643 0.26916 0.0
C193 C 0.46405 0.54232 0.28183 0.0
C194 C 0.45671 0.54866 0.30347 0.0
C195 C 0.47449 0.57927 0.31232 0.0
N196 N 0.4366 0.52358 0.31818 0.0
C197 C 0.40296 0.50655 0.31694 0.0
Gd198 Gd 0.51491 0.02617 0.05031 0.0
Gd199 Gd 0.48855 0.99208 0.99307 0.0
C200 C 0.38863 0.90443 0.98561 0.0
C201 C 0.40224 0.86463 0.97439 0.0
C202 C 0.44473 0.91884 0.98064 0.0
C203 C 0.42189 0.92708 0.98638 0.0
C204 C 0.43516 0.88783 0.9737 0.0
C205 C 0.37899 0.87291 0.98041 0.0
C206 C 0.36611 0.91445 0.98904 0.0
C207 C 0.37699 0.94656 0.99191 0.0
N208 N 0.43212 0.95786 0.99079 0.0
C209 C 0.41027 0.96814 0.99234 0.0
H210 H 0.41831 0.99284 0.99473 0.0
C211 C 0.49885 0.93662 0.96988 0.0
N212 N 0.47618 0.94196 0.97984 0.0
C213 C 0.49065 0.9062 0.96286 0.0
C214 C 0.45878 0.88152 0.96524 0.0
H215 H 0.5235 0.95569 0.96807 0.0
H216 H 0.35358 0.85507 0.98006 0.0
H217 H 0.58306 0.02122 0.04706 0.0
H218 H 0.34034 0.8978 0.98866 0.0
H219 H 0.35979 0.95472 0.99392 0.0
H220 H 0.39442 0.84053 0.96946 0.0
H221 H 0.48176 0.06751 0.06977 0.0
H222 H 0.66412 0.11222 0.06065 0.0
H223 H 0.64174 0.05601 0.05069 0.0
H224 H 0.61524 0.17411 0.08039 0.0
H225 H 0.5089 0.90182 0.95565 0.0
H226 H 0.45244 0.85802 0.95968 0.0
H227 H 0.65401 0.15623 0.07157 0.0
H228 H 0.49909 0.12158 0.08302 0.0
N229 N 0.57162 0.05727 0.05439 0.0
C230 C 0.63816 0.09699 0.05912 0.0
C231 C 0.62562 0.06528 0.05354 0.0
C232 C 0.61701 0.1085 0.06317 0.0
C233 C 0.58344 0.08772 0.06079 0.0
C234 C 0.59213 0.04555 0.05154 0.0
N235 N 0.52974 0.0768 0.06384 0.0
C236 C 0.56177 0.09782 0.06561 0.0
C237 C 0.51699 0.11526 0.0781 0.0
C238 C 0.54993 0.13761 0.07911 0.0
C239 C 0.50726 0.08467 0.07064 0.0
C240 C 0.57282 0.12892 0.07312 0.0
H241 H 0.55742 0.16128 0.08495 0.0
O242 O 0.48884 0.01509 0.0822 0.0
O243 O 0.47514 0.98925 0.02949 0.0
O244 O 0.47576 0.03017 1.00058 0.0
O245 O 0.51056 0.06227 0.02893 0.0
O246 O 0.46268 0.01288 0.05279 0.0
O247 O 0.52607 0.00281 0.0771 0.0
O248 O 0.51694 0.01024 0.96241 0.0
O249 O 0.52729 0.02882 0.01415 0.0
O250 O 0.52635 0.98691 0.04372 0.0
O251 O 0.49752 0.95745 0.01217 0.0
O252 O 0.54215 0.00934 0.98949 0.0
O253 O 0.46995 0.00616 0.96442 0.0
C254 C 0.45149 0.99051 0.03815 0.0
C255 C 0.60624 0.15004 0.07483 0.0
C256 C 0.6283 0.13985 0.06983 0.0
C257 C 0.50512 0.00295 0.09116 0.0
C258 C 0.51605 0.01197 0.11462 0.0
C259 C 0.5417 0.0422 0.1195 0.0
C260 C 0.50087 0.9901 0.13232 0.0
C261 C 0.51124 0.99839 0.15487 0.0
C262 C 0.55206 0.05064 0.14165 0.0
C263 C 0.53702 0.02906 0.15917 0.0
C264 C 0.49082 0.05725 0.01172 0.0
C265 C 0.55207 0.03052 1.00505 0.0
C266 C 0.49484 0.01309 0.95163 0.0
C267 C 0.4883 1.00052 0.92843 0.0
C268 C 0.47101 0.96785 0.9249 0.0
C269 C 0.50074 0.02105 0.90971 0.0
C270 C 0.49644 0.00888 0.88754 0.0
C271 C 0.46725 0.95562 0.90328 0.0
C272 C 0.48013 0.97579 0.88484 0.0
C273 C 0.51534 0.96195 0.03035 0.0
H274 H 0.55368 0.05928 0.1062 0.0
H275 H 0.48127 0.96661 0.12844 0.0
H276 H 0.57177 0.07412 0.14529 0.0
H277 H 0.54528 0.03672 0.17617 0.0
H278 H 0.46072 0.95172 0.93887 0.0
H279 H 0.51342 0.04631 0.9125 0.0
H280 H 0.45444 0.9303 0.9008 0.0
H281 H 0.47736 0.96519 0.86842 0.0
Gd282 Gd 0.99392 0.49532 0.04359 0.0
Gd283 Gd 0.02715 0.49327 0.9881 0.0
C284 C 0.02293 0.40609 0.95597 0.0
C285 C 0.07363 0.41054 0.96832 0.0
C286 C 0.05995 0.45063 0.97869 0.0
C287 C 0.03094 0.43426 0.96751 0.0
C288 C 0.08212 0.43946 0.97871 0.0
C289 C 0.04405 0.39387 0.95694 0.0
C290 C 0.99447 0.39166 0.94324 0.0
C291 C 0.9755 0.406 0.94159 0.0
N292 N 0.01129 0.4469 0.96689 0.0
C293 C 0.98459 0.43404 0.95327 0.0
H294 H 0.96968 0.44483 0.95191 0.0
C295 C 0.0978 0.4979 0.9965 0.0
N296 N 0.06741 0.47861 0.98826 0.0
C297 C 0.12066 0.48788 0.99697 0.0
C298 C 0.11257 0.45824 0.98845 0.0
H299 H 0.10441 0.5208 1.00326 0.0
H300 H 0.03818 0.37207 0.94842 0.0
H301 H 0.9921 0.56268 0.03877 0.0
H302 H 0.9874 0.36996 0.93417 0.0
H303 H 0.95383 0.39542 0.93139 0.0
H304 H 0.09017 0.40138 0.96838 0.0
H305 H 0.95596 0.42327 0.06723 0.0
H306 H 0.89414 0.54223 0.04542 0.0
H307 H 0.9522 0.58072 0.03955 0.0
H308 H 0.83683 0.43224 0.06441 0.0
H309 H 0.14441 0.50295 1.00407 0.0
H310 H 0.13028 0.45052 0.98886 0.0
H311 H 0.85097 0.4864 0.05392 0.0
H312 H 0.90059 0.38282 0.07826 0.0
N313 N 0.95716 0.51435 0.04421 0.0
C314 C 0.91161 0.53419 0.04528 0.0
C315 C 0.94436 0.55599 0.04204 0.0
C316 C 0.90196 0.50245 0.04906 0.0
C317 C 0.92572 0.49328 0.04875 0.0
C318 C 0.96694 0.54562 0.0416 0.0
N319 N 0.94202 0.45614 0.05595 0.0
C320 C 0.91784 0.46307 0.05477 0.0
C321 C 0.90506 0.40522 0.07153 0.0
C322 C 0.87956 0.41133 0.06904 0.0
C323 C 0.93642 0.42824 0.06531 0.0
C324 C 0.88588 0.44081 0.06105 0.0
H325 H 0.85532 0.39354 0.074 0.0
O326 O 0.00983 0.48908 0.07659 0.0
O327 O 0.0332 0.49183 0.02515 0.0
O328 O 0.99032 0.4436 0.99874 0.0
O329 O 0.95763 0.45186 0.02402 0.0
O330 O 0.01013 0.4601 0.05102 0.0
O331 O 0.0097 0.53201 0.06903 0.0
O332 O 0.06841 0.52793 0.96875 0.0
O333 O 0.99809 0.50967 1.00781 0.0
O334 O 0.03149 0.54512 0.03285 0.0
O335 O 0.06324 0.53557 1.00816 0.0
O336 O 0.97963 0.48845 0.977 0.0
O337 O 0.0202 0.51331 0.95728 0.0
C338 C 0.03243 0.46912 0.03602 0.0
C339 C 0.86163 0.44912 0.05994 0.0
C340 C 0.86967 0.47995 0.05397 0.0
C341 C 0.0138 0.51554 0.08448 0.0
C342 C 0.99885 0.51387 0.10649 0.0
C343 C 0.96618 0.50565 0.10791 0.0
C344 C 0.01709 0.51988 0.12633 0.0
C345 C 1.00261 0.51725 0.1475 0.0
C346 C 0.9518 0.50326 0.12879 0.0
C347 C 0.96979 0.50891 0.14848 0.0
C348 C 0.96275 0.43387 1.00977 0.0
C349 C 0.97478 0.50144 0.99418 0.0
C350 C 0.05085 0.52943 0.95262 0.0
C351 C 0.06111 0.52863 0.92915 0.0
C352 C 0.09422 0.5415 0.92447 0.0
C353 C 0.03873 0.51739 0.91114 0.0
C354 C 0.04945 0.519 0.88872 0.0
C355 C 0.10493 0.54322 0.90244 0.0
C356 C 0.08289 0.5323 0.88473 0.0
C357 C 0.05889 0.55457 0.02173 0.0
H358 H 0.95179 0.50106 0.09289 0.0
H359 H 0.04225 0.52593 0.12529 0.0
H360 H 0.92659 0.49693 0.12973 0.0
H361 H 0.95809 0.50697 0.1645 0.0
H362 H 0.112 0.55077 0.93783 0.0
H363 H 0.01313 0.50737 0.91454 0.0
H364 H 0.13055 0.55346 0.89904 0.0
H365 H 0.09226 0.53481 0.8678 0.0
Gd366 Gd 0.50277 0.5226 0.99099 0.0
Gd367 Gd 0.52768 0.50337 0.04472 0.0
C368 C 0.62178 0.50082 0.05152 0.0
C369 C 0.60202 0.44479 0.05685 0.0
C370 C 0.56413 0.46414 0.05307 0.0
C371 C 0.58954 0.49455 0.05043 0.0
C372 C 0.57001 0.43894 0.05673 0.0
C373 C 0.62787 0.47569 0.05424 0.0
C374 C 0.64687 0.53221 0.05042 0.0
C375 C 0.63944 0.55641 0.04908 0.0
N376 N 0.58273 0.5182 0.04788 0.0
C377 C 0.60705 0.54897 0.04813 0.0
H378 H 0.60174 0.56793 0.04695 0.0
C379 C 0.50779 0.43034 0.0578 0.0
N380 N 0.53359 0.4594 0.0529 0.0
C381 C 0.51235 0.40454 0.06142 0.0
C382 C 0.54358 0.40877 0.06062 0.0
H383 H 0.48357 0.42688 0.05816 0.0
H384 H 0.65247 0.47999 0.05486 0.0
H385 H 0.42917 0.45689 0.9909 0.0
H386 H 0.67197 0.53803 0.05111 0.0
H387 H 0.65864 0.58082 0.04864 0.0
H388 H 0.60706 0.4257 0.05942 0.0
H389 H 0.54535 0.59933 0.97798 0.0
H390 H 0.35737 0.48397 0.98254 0.0
H391 H 0.37207 0.44252 0.98806 0.0
H392 H 0.41991 0.59596 0.9716 0.0
H393 H 0.49179 0.38141 0.06473 0.0
H394 H 0.54705 0.38875 0.06343 0.0
H395 H 0.37545 0.54131 0.97655 0.0
H396 H 0.53568 0.64345 0.96979 0.0
N397 N 0.44728 0.50632 0.98747 0.0
C398 C 0.38264 0.49048 0.98373 0.0
C399 C 0.39084 0.46703 0.9868 0.0
C400 C 0.40718 0.522 0.98179 0.0
C401 C 0.43968 0.52921 0.9836 0.0
C402 C 0.42343 0.47536 0.98837 0.0
N403 N 0.4954 0.56555 0.98209 0.0
C404 C 0.46456 0.55983 0.98086 0.0
C405 C 0.51544 0.62007 0.97295 0.0
C406 C 0.48382 0.61477 0.97248 0.0
C407 C 0.52081 0.59498 0.97753 0.0
C408 C 0.45786 0.5843 0.97619 0.0
H409 H 0.4797 0.63422 0.96887 0.0
O410 O 0.52858 0.53732 0.95913 0.0
O411 O 0.54125 0.51772 1.00894 0.0
O412 O 0.54643 0.5561 0.04074 0.0
O413 O 0.51044 0.56017 0.01624 0.0
O414 O 0.55644 0.55622 0.98801 0.0
O415 O 0.48582 0.49116 0.96216 0.0
O416 O 0.50282 0.4889 0.07692 0.0
O417 O 0.49003 0.50875 0.02664 0.0
O418 O 0.48425 0.46999 0.99522 0.0
O419 O 0.52022 0.46589 0.01954 0.0
O420 O 0.47312 0.47172 0.04867 0.0
O421 O 0.54586 0.53481 0.07353 0.0
C422 C 0.56615 0.54149 1.00095 0.0
C423 C 0.42556 0.57746 0.97501 0.0
C424 C 0.40026 0.54636 0.97782 0.0
C425 C 0.50845 0.51134 0.94882 0.0
C426 C 0.4986 0.51474 0.92602 0.0
C427 C 0.47338 0.52121 0.92267 0.0
C428 C 0.51475 0.51138 0.90731 0.0
C429 C 0.5057 0.51423 0.88523 0.0
C430 C 0.46427 0.5241 0.90087 0.0
C431 C 0.4802 0.5206 0.88228 0.0
C432 C 0.5322 0.57139 0.03258 0.0
C433 C 0.46438 0.48671 0.03518 0.0
C434 C 0.52343 0.51483 0.0871 0.0
C435 C 0.5338 0.51133 0.10971 0.0
C436 C 0.55673 0.50163 0.11245 0.0
C437 C 0.52064 0.51793 0.12881 0.0
C438 C 0.53064 0.51526 0.15064 0.0
C439 C 0.5666 0.49873 0.13398 0.0
C440 C 0.55378 0.50554 0.15293 0.0
C441 C 0.4981 0.45442 1.00349 0.0
H442 H 0.46077 0.52398 0.93687 0.0
H443 H 0.53408 0.50614 0.90999 0.0
H444 H 0.44481 0.52915 0.89837 0.0
H445 H 0.47288 0.52337 0.86559 0.0
H446 H 0.567 0.49637 0.09797 0.0
H447 H 0.50308 0.52565 0.12664 0.0
H448 H 0.58429 0.49118 0.13601 0.0
H449 H 0.56173 0.50285 0.16942 0.0
Gd450 Gd 0.18422 0.35242 0.38215 0.0
Gd451 Gd 0.16266 0.32424 0.324 0.0
C452 C 0.06607 0.29536 0.28988 0.0
C453 C 0.03296 0.24083 0.30193 0.0
C454 C 0.08901 0.27174 0.31415 0.0
C455 C 0.0921 0.29767 0.30265 0.0
C456 C 0.05939 0.24293 0.31385 0.0
C457 C 0.03633 0.26697 0.2899 0.0
C458 C 0.07103 0.32134 0.27694 0.0
C459 C 0.10168 0.34826 0.27628 0.0
N460 N 0.12103 0.32479 0.30311 0.0
C461 C 0.12674 0.34931 0.28913 0.0
H462 H 0.15054 0.37009 0.28849 0.0
C463 C 0.11319 0.24919 0.33654 0.0
N464 N 0.11502 0.27457 0.3255 0.0
C465 C 0.08428 0.22023 0.33685 0.0
C466 C 0.05721 0.2171 0.32554 0.0
H467 H 0.1336 0.25115 0.34567 0.0
H468 H 0.01596 0.26481 0.28037 0.0
H469 H 0.25668 0.35713 0.38135 0.0
H470 H 0.05165 0.3205 0.2669 0.0
H471 H 0.10605 0.36816 0.26584 0.0
H472 H 0.00997 0.21898 0.30164 0.0
H473 H 0.14333 0.38556 0.40367 0.0
H474 H 0.32997 0.45361 0.3905 0.0
H475 H 0.31433 0.39772 0.38427 0.0
H476 H 0.26877 0.5048 0.40695 0.0
H477 H 0.08287 0.20038 0.34594 0.0
H478 H 0.03483 0.19465 0.32586 0.0
H479 H 0.31269 0.49366 0.39843 0.0
H480 H 0.15369 0.43838 0.41535 0.0
N481 N 0.2397 0.38961 0.38568 0.0
C482 C 0.30459 0.43584 0.38934 0.0
C483 C 0.29585 0.40431 0.38592 0.0
C484 C 0.28041 0.44386 0.39207 0.0
C485 C 0.24777 0.4198 0.39034 0.0
C486 C 0.26309 0.38133 0.38431 0.0
N487 N 0.19237 0.40166 0.39474 0.0
C488 C 0.22324 0.42607 0.39505 0.0
C489 C 0.17345 0.4353 0.40952 0.0
C490 C 0.20488 0.4611 0.40854 0.0
C491 C 0.16768 0.40544 0.40296 0.0
C492 C 0.23038 0.45655 0.40171 0.0
H493 H 0.20934 0.48416 0.41377 0.0
O494 O 0.15627 0.33478 0.41321 0.0
O495 O 0.14756 0.31409 0.36003 0.0
O496 O 0.14177 0.3556 0.33269 0.0
O497 O 0.17482 0.38662 0.36212 0.0
O498 O 0.13079 0.33378 0.38372 0.0
O499 O 0.2026 0.33785 0.41053 0.0
O500 O 0.16962 0.29431 0.30017 0.0
O501 O 0.20329 0.35311 0.34773 0.0
O502 O 0.1997 0.31649 0.37558 0.0
O503 O 0.18521 0.29689 0.33903 0.0
O504 O 0.20153 0.37462 0.31818 0.0
O505 O 0.18815 0.34338 0.29228 0.0
C506 C 0.12227 0.31288 0.36816 0.0
C507 C 0.26276 0.4811 0.40216 0.0
C508 C 0.28777 0.47476 0.39732 0.0
C509 C 0.17828 0.33146 0.42368 0.0
C510 C 0.18636 0.34428 0.4468 0.0
C511 C 0.20556 0.37694 0.45 0.0
C512 C 0.17563 0.32404 0.46578 0.0
C513 C 0.18466 0.33655 0.48775 0.0
C514 C 0.21404 0.38941 0.4716 0.0
C515 C 0.20381 0.36949 0.49029 0.0
C516 C 0.1541 0.38114 0.34552 0.0
C517 C 0.21816 0.37803 0.33604 0.0
C518 C 0.1821 0.31611 0.28465 0.0
C519 C 0.16871 0.30771 0.26136 0.0
C520 C 0.14539 0.27637 0.25634 0.0
C521 C 0.17968 0.33055 0.24379 0.0
C522 C 0.16758 0.32201 0.22151 0.0
C523 C 0.13366 0.26773 0.23455 0.0
C524 C 0.14476 0.29007 0.21732 0.0
C525 C 0.19768 0.29746 0.35909 0.0
H526 H 0.2142 0.39283 0.43578 0.0
H527 H 0.161 0.29874 0.46342 0.0
H528 H 0.2288 0.41469 0.47387 0.0
H529 H 0.21076 0.37994 0.50686 0.0
H530 H 0.13634 0.25827 0.26923 0.0
H531 H 0.19738 0.35485 0.24755 0.0
H532 H 0.11603 0.24338 0.23091 0.0
H533 H 0.13563 0.28194 0.20055 0.0
Gd534 Gd 0.65506 0.82477 0.3846 0.0
Gd535 Gd 0.69879 0.84303 0.33042 0.0
C536 C 0.7955 0.84612 0.32053 0.0
C537 C 0.83208 0.90175 0.31286 0.0
C538 C 0.77477 0.88233 0.31923 0.0
C539 C 0.7696 0.8522 0.32243 0.0
C540 C 0.80598 0.90741 0.31405 0.0
C541 C 0.82685 0.87114 0.31609 0.0
C542 C 0.78903 0.81501 0.32281 0.0
C543 C 0.75724 0.79083 0.3263 0.0
N544 N 0.73903 0.82865 0.32678 0.0
C545 C 0.73237 0.79805 0.32797 0.0
H546 H 0.70805 0.77908 0.33083 0.0
C547 C 0.75238 0.91567 0.31528 0.0
N548 N 0.749 0.88689 0.32042 0.0
C549 C 0.78288 0.94135 0.31023 0.0
C550 C 0.80987 0.93729 0.30984 0.0
H551 H 0.73173 0.91912 0.31568 0.0
H552 H 0.84709 0.86698 0.31476 0.0
H553 H 0.6468 0.88901 0.38765 0.0
H554 H 0.80826 0.80936 0.32156 0.0
H555 H 0.75188 0.76662 0.32781 0.0
H556 H 0.85628 0.92075 0.30907 0.0
H557 H 0.62132 0.74841 0.39855 0.0
H558 H 0.54587 0.85879 0.39214 0.0
H559 H 0.60294 0.90174 0.39006 0.0
H560 H 0.4962 0.74638 0.39939 0.0
H561 H 0.78555 0.96425 0.30669 0.0
H562 H 0.83347 0.9572 0.30588 0.0
H563 H 0.5061 0.80063 0.39518 0.0
H564 H 0.56668 0.70276 0.40521 0.0
N565 N 0.61499 0.83929 0.38789 0.0
C566 C 0.56506 0.85305 0.39116 0.0
C567 C 0.59724 0.87735 0.39005 0.0
C568 C 0.55811 0.82166 0.39173 0.0
C569 C 0.584 0.81551 0.39031 0.0
C570 C 0.62207 0.87002 0.3887 0.0
N571 N 0.60424 0.78054 0.39269 0.0
C572 C 0.57843 0.7851 0.39278 0.0
C573 C 0.56963 0.72578 0.40165 0.0
C574 C 0.5426 0.72977 0.40063 0.0
C575 C 0.60052 0.75166 0.39797 0.0
C576 C 0.54683 0.75983 0.39656 0.0
H577 H 0.51871 0.70971 0.40356 0.0
O578 O 0.6656 0.81085 0.41679 0.0
O579 O 0.69842 0.83056 0.36637 0.0
O580 O 0.66489 0.79051 0.336 0.0
O581 O 0.62414 0.7862 0.35977 0.0
O582 O 0.67775 0.79379 0.38884 0.0
O583 O 0.66747 0.85586 0.41356 0.0
O584 O 0.68499 0.85449 0.29855 0.0
O585 O 0.65587 0.83832 0.34886 0.0
O586 O 0.69088 0.87776 0.38025 0.0
O587 O 0.72997 0.88166 0.35466 0.0
O588 O 0.67799 0.87549 0.32664 0.0
O589 O 0.68475 0.8103 0.30233 0.0
C590 C 0.70165 0.80874 0.37516 0.0
C591 C 0.52072 0.76553 0.39677 0.0
C592 C 0.52635 0.79642 0.39436 0.0
C593 C 0.66976 0.83609 0.42714 0.0
C594 C 0.65403 0.83108 0.44927 0.0
C595 C 0.62038 0.8178 0.45096 0.0
C596 C 0.67282 0.83891 0.46898 0.0
C597 C 0.65808 0.83323 0.49036 0.0
C598 C 0.60562 0.81225 0.47205 0.0
C599 C 0.62424 0.8198 0.49162 0.0
C600 C 0.63494 0.7747 0.34395 0.0
C601 C 0.65422 0.86128 0.34049 0.0
C602 C 0.68028 0.82872 0.28874 0.0
C603 C 0.69305 0.83219 0.26577 0.0
C604 C 0.72637 0.84979 0.26147 0.0
C605 C 0.67131 0.81853 0.24779 0.0
C606 C 0.68265 0.8227 0.22546 0.0
C607 C 0.73783 0.85392 0.23939 0.0
C608 C 0.71618 0.84062 0.22147 0.0
C609 C 0.72019 0.89345 0.37095 0.0
H610 H 0.60556 0.81163 0.43602 0.0
H611 H 0.69881 0.84887 0.46764 0.0
H612 H 0.57962 0.802 0.47324 0.0
H613 H 0.61217 0.81546 0.50775 0.0
H614 H 0.74343 0.86048 0.27513 0.0
H615 H 0.64552 0.8052 0.25116 0.0
H616 H 0.76359 0.86756 0.23613 0.0
H617 H 0.72567 0.84403 0.20451 0.0
Gd618 Gd 0.16714 0.84763 0.32067 0.0
Gd619 Gd 0.1877 0.82836 0.37619 0.0
C620 C 0.28078 0.82541 0.38896 0.0
C621 C 0.26016 0.76969 0.39644 0.0
C622 C 0.22301 0.7891 0.38885 0.0
C623 C 0.24876 0.81928 0.38618 0.0
C624 C 0.22833 0.76398 0.39439 0.0
C625 C 0.28636 0.80037 0.39373 0.0
C626 C 0.30618 0.85658 0.38722 0.0
C627 C 0.29924 0.88077 0.38342 0.0
N628 N 0.24244 0.84285 0.38152 0.0
C629 C 0.26707 0.87349 0.38087 0.0
H630 H 0.26227 0.89247 0.37776 0.0
C631 C 0.16636 0.75568 0.39156 0.0
N632 N 0.19265 0.78451 0.38685 0.0
C633 C 0.17036 0.72997 0.39695 0.0
C634 C 0.20148 0.73405 0.39813 0.0
H635 H 0.1422 0.75223 0.39054 0.0
H636 H 0.31079 0.80456 0.39573 0.0
H637 H 0.09238 0.7849 0.31629 0.0
H638 H 0.33112 0.86227 0.38915 0.0
H639 H 0.31867 0.90502 0.38232 0.0
H640 H 0.26477 0.75067 0.40052 0.0
H641 H 0.21442 0.92355 0.30638 0.0
H642 H 0.02515 0.81807 0.30847 0.0
H643 H 0.03624 0.77393 0.31225 0.0
H644 H 0.09399 0.9299 0.29991 0.0
H645 H 0.14944 0.70702 0.40013 0.0
H646 H 0.20452 0.71411 0.40235 0.0
H647 H 0.04695 0.87647 0.30414 0.0
H648 H 0.20879 0.97006 0.2978 0.0
N649 N 0.11296 0.83479 0.31553 0.0
C650 C 0.04987 0.82303 0.31025 0.0
C651 C 0.05605 0.79806 0.3123 0.0
C652 C 0.0758 0.85406 0.30964 0.0
C653 C 0.10749 0.85918 0.31212 0.0
C654 C 0.08796 0.8044 0.31459 0.0
N655 N 0.16386 0.89266 0.31091 0.0
C656 C 0.13383 0.88911 0.30963 0.0
C657 C 0.1875 0.94744 0.30116 0.0
C658 C 0.1568 0.94449 0.30086 0.0
C659 C 0.1906 0.92104 0.30595 0.0
C660 C 0.12942 0.91495 0.30477 0.0
H661 H 0.15446 0.96496 0.29712 0.0
O662 O 0.19496 0.86056 0.28959 0.0
O663 O 0.20278 0.84102 0.34063 0.0
O664 O 0.20785 0.88093 0.37069 0.0
O665 O 0.17419 0.88608 0.34481 0.0
O666 O 0.22182 0.87822 0.31852 0.0
O667 O 0.14911 0.81694 0.29143 0.0
O668 O 0.15972 0.81612 0.40715 0.0
O669 O 0.15111 0.83365 0.35615 0.0
O670 O 0.14706 0.79472 0.32524 0.0
O671 O 0.1799 0.7896 0.35212 0.0
O672 O 0.1337 0.7958 0.37801 0.0
O673 O 0.20476 0.86035 0.40483 0.0
C674 C 0.22911 0.86281 0.33268 0.0
C675 C 0.0979 0.9103 0.30341 0.0
C676 C 0.07112 0.87989 0.30585 0.0
C677 C 0.17349 0.83585 0.2787 0.0
C678 C 0.16604 0.84142 0.25567 0.0
C679 C 0.14352 0.85139 0.25186 0.0
C680 C 0.18203 0.83704 0.23726 0.0
C681 C 0.1755 0.8424 0.21502 0.0
C682 C 0.13692 0.85679 0.22996 0.0
C683 C 0.1527 0.85235 0.21168 0.0
C684 C 0.19541 0.8972 0.36141 0.0
C685 C 0.12544 0.8103 0.36374 0.0
C686 C 0.18052 0.84158 0.41768 0.0
C687 C 0.18819 0.8373 0.44097 0.0
C688 C 0.20497 0.82114 0.44537 0.0
C689 C 0.17791 0.84885 0.45903 0.0
C690 C 0.18416 0.84412 0.48149 0.0
C691 C 0.21132 0.81642 0.46751 0.0
C692 C 0.20102 0.82775 0.48543 0.0
C693 C 0.15902 0.77843 0.33524 0.0
H694 H 0.13112 0.85504 0.2658 0.0
H695 H 0.19929 0.82913 0.24028 0.0
H696 H 0.11958 0.86459 0.22712 0.0
H697 H 0.14741 0.85722 0.19493 0.0
H698 H 0.21304 0.81211 0.43173 0.0
H699 H 0.16468 0.8611 0.45556 0.0
H700 H 0.22437 0.80398 0.4708 0.0
H701 H 0.20677 0.82413 0.5024 0.0
Gd702 Gd 0.8474 0.68152 0.71393 0.0
Gd703 Gd 0.83331 0.65375 0.65519 0.0
C704 C 0.72765 0.57394 0.64956 0.0
C705 C 0.73309 0.52723 0.65172 0.0
C706 C 0.78104 0.57961 0.65172 0.0
C707 C 0.7617 0.59323 0.65062 0.0
C708 C 0.7669 0.54639 0.65139 0.0
C709 C 0.71348 0.54099 0.65084 0.0
C710 C 0.70882 0.58825 0.6467 0.0
C711 C 0.72402 0.6208 0.64372 0.0
N712 N 0.77615 0.6252 0.64954 0.0
C713 C 0.75777 0.63889 0.64467 0.0
H714 H 0.7685 0.66372 0.64113 0.0
C715 C 0.83309 0.58602 0.6473 0.0
N716 N 0.81364 0.59874 0.65136 0.0
C717 C 0.82033 0.55334 0.6471 0.0
C718 C 0.78713 0.53339 0.64977 0.0
H719 H 0.85862 0.60092 0.64408 0.0
H720 H 0.6874 0.52591 0.65045 0.0
H721 H 0.91645 0.67941 0.71634 0.0
H722 H 0.68265 0.57429 0.6459 0.0
H723 H 0.70975 0.63201 0.64045 0.0
H724 H 0.72186 0.50173 0.65187 0.0
H725 H 0.81043 0.71894 0.73453 0.0
H726 H 0.99472 0.7731 0.72764 0.0
H727 H 0.97481 0.71626 0.72141 0.0
H728 H 0.94062 0.832 0.74115 0.0
H729 H 0.83611 0.54358 0.64461 0.0
H730 H 0.77723 0.50804 0.64943 0.0
H731 H 0.98175 0.81647 0.73432 0.0
H732 H 0.82455 0.77288 0.74647 0.0
N733 N 0.90334 0.71494 0.7193 0.0
C734 C 0.96903 0.75698 0.72549 0.0
C735 C 0.95788 0.7249 0.72205 0.0
C736 C 0.94674 0.76761 0.72703 0.0
C737 C 0.91359 0.74561 0.72412 0.0
C738 C 0.92472 0.70406 0.71911 0.0
N739 N 0.85901 0.73173 0.7267 0.0
C740 C 0.8906 0.75434 0.72788 0.0
C741 C 0.84337 0.76806 0.74112 0.0
C742 C 0.87571 0.79219 0.74089 0.0
C743 C 0.83547 0.7376 0.73443 0.0
C744 C 0.8999 0.78532 0.73475 0.0
H745 H 0.88182 0.81571 0.74626 0.0
O746 O 0.81619 0.66581 0.74366 0.0
O747 O 0.8136 0.64368 0.69035 0.0
O748 O 0.81599 0.68833 0.66036 0.0
O749 O 0.83793 0.71589 0.69384 0.0
O750 O 0.79446 0.66457 0.71106 0.0
O751 O 0.86052 0.66454 0.74379 0.0
O752 O 0.86059 0.65086 0.62671 0.0
O753 O 0.87064 0.68452 0.68064 0.0
O754 O 0.85709 0.64083 0.70985 0.0
O755 O 0.86693 0.63921 0.6717 0.0
O756 O 0.87161 0.7044 0.64985 0.0
O757 O 0.82774 0.66878 0.62185 0.0
C758 C 0.78747 0.64222 0.69678 0.0
C759 C 0.93295 0.80794 0.73622 0.0
C760 C 0.95637 0.79909 0.73234 0.0
C761 C 0.83529 0.6596 0.75541 0.0
C762 C 0.84098 0.67036 0.77911 0.0
C763 C 0.86182 0.70228 0.78409 0.0
C764 C 0.82602 0.64858 0.79695 0.0
C765 C 0.83215 0.65867 0.81967 0.0
C766 C 0.86772 0.71246 0.80638 0.0
C767 C 0.85312 0.69097 0.82399 0.0
C768 C 0.8231 0.71196 0.67424 0.0
C769 C 0.88574 0.70943 0.66898 0.0
C770 C 0.84813 0.66202 0.61232 0.0
C771 C 0.83934 0.64751 0.58971 0.0
C772 C 0.82525 0.61476 0.58715 0.0
C773 C 0.84466 0.66662 0.57044 0.0
C774 C 0.83552 0.65291 0.54882 0.0
C775 C 0.81677 0.60117 0.56584 0.0
C776 C 0.82177 0.61996 0.54688 0.0
C777 C 0.86763 0.63096 0.69285 0.0
H778 H 0.87364 0.71931 0.77074 0.0
H779 H 0.81014 0.62384 0.79313 0.0
H780 H 0.88375 0.7372 0.81004 0.0
H781 H 0.85796 0.69982 0.84106 0.0
H782 H 0.82072 0.59966 0.60162 0.0
H783 H 0.85507 0.69191 0.57235 0.0
H784 H 0.806 0.57586 0.564 0.0
H785 H 0.81474 0.60863 0.53059 0.0
Gd786 Gd 0.32154 0.17025 0.70748 0.0
Gd787 Gd 0.35898 0.17652 0.65158 0.0
C788 C 0.4468 0.16224 0.6472 0.0
C789 C 0.48928 0.21403 0.63511 0.0
C790 C 0.43424 0.20373 0.64034 0.0
C791 C 0.42448 0.17324 0.6469 0.0
C792 C 0.46648 0.2242 0.6336 0.0
C793 C 0.47945 0.18308 0.64194 0.0
C794 C 0.43542 0.13039 0.65201 0.0
C795 C 0.40235 0.11017 0.6554 0.0
N796 N 0.39267 0.15373 0.65151 0.0
C797 C 0.38115 0.12218 0.65476 0.0
H798 H 0.35577 0.10614 0.65759 0.0
C799 C 0.41849 0.24013 0.62837 0.0
N800 N 0.41145 0.21245 0.6387 0.0
C801 C 0.45019 0.26146 0.62163 0.0
C802 C 0.47446 0.2537 0.62464 0.0
H803 H 0.39971 0.24613 0.62601 0.0
H804 H 0.49703 0.17519 0.64236 0.0
H805 H 0.32249 0.23951 0.70539 0.0
H806 H 0.45177 0.12102 0.6525 0.0
H807 H 0.39315 0.08533 0.65864 0.0
H808 H 0.51428 0.22954 0.63029 0.0
H809 H 0.28174 0.0962 0.72698 0.0
H810 H 0.22532 0.22108 0.71284 0.0
H811 H 0.28361 0.25875 0.70707 0.0
H812 H 0.16542 0.11019 0.72883 0.0
H813 H 0.45586 0.28381 0.6141 0.0
H814 H 0.49896 0.27013 0.61925 0.0
H815 H 0.18122 0.1654 0.72049 0.0
H816 H 0.22576 0.05616 0.73751 0.0
N817 N 0.28662 0.19122 0.70974 0.0
C818 C 0.24231 0.21248 0.7122 0.0
C819 C 0.2752 0.23381 0.709 0.0
C820 C 0.23189 0.18041 0.71521 0.0
C821 C 0.25499 0.17044 0.7141 0.0
C822 C 0.29721 0.22277 0.70807 0.0
N823 N 0.26939 0.13125 0.7188 0.0
C824 C 0.24606 0.13943 0.71875 0.0
C825 C 0.23112 0.07944 0.73216 0.0
C826 C 0.20645 0.08697 0.73104 0.0
C827 C 0.26275 0.10215 0.72628 0.0
C828 C 0.21386 0.11744 0.72464 0.0
H829 H 0.18198 0.06938 0.73567 0.0
O830 O 0.3325 0.15777 0.74011 0.0
O831 O 0.36156 0.17004 0.68839 0.0
O832 O 0.31954 0.12622 0.65983 0.0
O833 O 0.28526 0.13033 0.68582 0.0
O834 O 0.33962 0.1358 0.71273 0.0
O835 O 0.33864 0.20427 0.73487 0.0
O836 O 0.34759 0.18765 0.61861 0.0
O837 O 0.32027 0.17869 0.67092 0.0
O838 O 0.361 0.22104 0.7004 0.0
O839 O 0.39307 0.22075 0.67042 0.0
O840 O 0.34144 0.21125 0.64541 0.0
O841 O 0.33982 0.14092 0.62531 0.0
C842 C 0.36296 0.14794 0.69833 0.0
C843 C 0.19039 0.12683 0.72462 0.0
C844 C 0.19939 0.15827 0.71989 0.0
C845 C 0.33961 0.18466 0.74934 0.0
C846 C 0.32506 0.18278 0.7716 0.0
C847 C 0.29182 0.17182 0.77344 0.0
C848 C 0.34427 0.19138 0.7912 0.0
C849 C 0.33021 0.18896 0.8126 0.0
C850 C 0.27769 0.16902 0.79445 0.0
C851 C 0.29658 0.17733 0.81386 0.0
C852 C 0.29114 0.1147 0.67007 0.0
C853 C 0.31943 0.20101 0.66079 0.0
C854 C 0.33985 0.16024 0.61016 0.0
C855 C 0.35483 0.1608 0.58838 0.0
C856 C 0.38635 0.16556 0.5875 0.0
C857 C 0.33769 0.15687 0.56826 0.0
C858 C 0.35193 0.15745 0.54733 0.0
C859 C 0.40076 0.16663 0.56687 0.0
C860 C 0.38376 0.16263 0.54692 0.0
C861 C 0.38732 0.23467 0.68753 0.0
H862 H 0.27673 0.16526 0.75867 0.0
H863 H 0.37005 0.20021 0.78971 0.0
H864 H 0.25192 0.1602 0.79572 0.0
H865 H 0.28464 0.17424 0.82992 0.0
H866 H 0.39982 0.1684 0.60273 0.0
H867 H 0.31316 0.15279 0.56896 0.0
H868 H 0.42518 0.17049 0.56633 0.0
H869 H 0.39561 0.16372 0.53112 0.0
Gd870 Gd 0.82916 0.1788 0.65768 0.0
Gd871 Gd 0.85206 0.17266 0.71535 0.0
C872 C 0.95021 0.24403 0.74503 0.0
C873 C 0.98414 0.22234 0.73365 0.0
C874 C 0.92691 0.19512 0.72408 0.0
C875 C 0.92363 0.21874 0.73419 0.0
C876 C 0.957 0.1961 0.72432 0.0
C877 C 0.98075 0.24628 0.74403 0.0
C878 C 0.94493 0.26542 0.75742 0.0
C879 C 0.9135 0.26034 0.75966 0.0
N880 N 0.89374 0.21554 0.73506 0.0
C881 C 0.88792 0.23474 0.74869 0.0
H882 H 0.86364 0.23102 0.75024 0.0
C883 C 0.90099 0.14368 0.7089 0.0
N884 N 0.90005 0.16993 0.71562 0.0
C885 C 0.93023 0.14342 0.70889 0.0
C886 C 0.95853 0.17005 0.71612 0.0
H887 H 0.87946 0.12303 0.70302 0.0
H888 H 1.00158 0.26576 0.75197 0.0
H889 H 0.7548 0.11542 0.65883 0.0
H890 H 0.9647 0.28519 0.76598 0.0
H891 H 0.90898 0.2762 0.76972 0.0
H892 H 0.00756 0.22373 0.73372 0.0
H893 H 0.87317 0.25113 0.63548 0.0
H894 H 0.68556 0.14601 0.65026 0.0
H895 H 0.69805 0.10309 0.65622 0.0
H896 H 0.75175 0.25616 0.63338 0.0
H897 H 0.93096 0.12281 0.70305 0.0
H898 H 0.98115 0.16983 0.71602 0.0
H899 H 0.7059 0.20348 0.6423 0.0
H900 H 0.86574 0.29571 0.62379 0.0
N901 N 0.7744 0.16488 0.65458 0.0
C902 C 0.71055 0.15155 0.65129 0.0
C903 C 0.71751 0.12726 0.65456 0.0
C904 C 0.73597 0.18253 0.64846 0.0
C905 C 0.76804 0.18842 0.64996 0.0
C906 C 0.74977 0.13436 0.65602 0.0
N907 N 0.82392 0.22182 0.64504 0.0
C908 C 0.79368 0.21793 0.64498 0.0
C909 C 0.8453 0.27404 0.62988 0.0
C910 C 0.81465 0.27112 0.6312 0.0
C911 C 0.84943 0.24878 0.63644 0.0
C912 C 0.7882 0.24255 0.63833 0.0
H913 H 0.81147 0.29064 0.62597 0.0
O914 O 0.85676 0.18633 0.62674 0.0
O915 O 0.86492 0.17347 0.67912 0.0
O916 O 0.87514 0.22407 0.70506 0.0
O917 O 0.8403 0.22298 0.67721 0.0
O918 O 0.88321 0.20972 0.6557 0.0
O919 O 0.80824 0.14724 0.62903 0.0
O920 O 0.8424 0.13316 0.73703 0.0
O921 O 0.81061 0.16273 0.69255 0.0
O922 O 0.81062 0.12698 0.66442 0.0
O923 O 0.82966 0.12409 0.70001 0.0
O924 O 0.81476 0.18703 0.72208 0.0
O925 O 0.8286 0.16683 0.74794 0.0
C926 C 0.89086 0.19522 0.67039 0.0
C927 C 0.75646 0.23743 0.63816 0.0
C928 C 0.73036 0.20744 0.64324 0.0
C929 C 0.83322 0.16308 0.61604 0.0
C930 C 0.82664 0.1701 0.59312 0.0
C931 C 0.80921 0.18598 0.5902 0.0
C932 C 0.83767 0.16099 0.57401 0.0
C933 C 0.83094 0.16749 0.55212 0.0
C934 C 0.80305 0.193 0.56871 0.0
C935 C 0.8138 0.18392 0.54984 0.0
C936 C 0.86235 0.23784 0.69298 0.0
C937 C 0.79716 0.1744 0.70457 0.0
C938 C 0.83152 0.14269 0.75359 0.0
C939 C 0.84383 0.14263 0.77652 0.0
C940 C 0.86488 0.13069 0.78005 0.0
C941 C 0.83321 0.15289 0.79527 0.0
C942 C 0.84329 0.151 0.81733 0.0
C943 C 0.87468 0.12849 0.80169 0.0
C944 C 0.86382 0.13821 0.82015 0.0
C945 C 0.81447 0.1111 0.681 0.0
H946 H 0.80027 0.19288 0.60454 0.0
H947 H 0.85083 0.14838 0.5762 0.0
H948 H 0.78978 0.20548 0.56665 0.0
H949 H 0.80878 0.18994 0.53337 0.0
H950 H 0.87348 0.12257 0.76612 0.0
H951 H 0.81729 0.16245 0.79259 0.0
H952 H 0.89054 0.11884 0.80422 0.0
H953 H 0.87131 0.13525 0.83672 0.0
H954 H 0.30829 0.89611 0.06826 0.0
H955 H 0.34121 0.82896 0.06029 0.0
H956 H 0.39358 0.87075 0.04652 0.0
H957 H 0.43124 0.92722 0.03838 0.0
H958 H 0.39819 0.99414 0.04695 0.0
H959 H 0.3449 0.95183 0.05869 0.0
C960 C 0.32704 0.8907 0.06371 0.0
C961 C 0.32087 0.85949 0.0655 0.0
C962 C 0.35711 0.91484 0.05572 0.0
C963 C 0.34527 0.85278 0.05907 0.0
C964 C 0.37526 0.87667 0.05119 0.0
C965 C 0.4121 0.93231 0.04238 0.0
C966 C 0.41839 0.96363 0.0415 0.0
C967 C 0.38157 0.90786 0.04953 0.0
C968 C 0.3937 0.9701 0.04729 0.0
C969 C 0.3633 0.94597 0.05412 0.0
H970 H 0.12186 0.41239 0.06171 0.0
H971 H 0.18809 0.50978 0.07776 0.0
H972 H 0.14894 0.52464 0.06424 0.0
H973 H 0.09438 0.50948 0.04948 0.0
H974 H 0.02915 0.41255 0.03184 0.0
H975 H 0.06912 0.39798 0.04398 0.0
C976 C 0.12765 0.43684 0.0622 0.0
C977 C 0.15773 0.45991 0.071 0.0
C978 C 0.1052 0.44533 0.05391 0.0
C979 C 0.16509 0.49158 0.07119 0.0
C980 C 0.14269 0.50008 0.06345 0.0
C981 C 0.08936 0.48535 0.04778 0.0
C982 C 0.05921 0.46224 0.03914 0.0
C983 C 0.11253 0.47716 0.05491 0.0
C984 C 0.0525 0.43085 0.03785 0.0
C985 C 0.07527 0.42249 0.04498 0.0
H986 H 0.58615 0.70304 0.08117 0.0
H987 H 0.48681 0.67997 0.0719 0.0
H988 H 0.47493 0.63148 0.05266 0.0
H989 H 0.49249 0.59551 0.03813 0.0
H990 H 0.58992 0.61521 0.05063 0.0
H991 H 0.60271 0.66493 0.06902 0.0
C992 C 0.56176 0.68721 0.07531 0.0
C993 C 0.53765 0.69567 0.0777 0.0
C994 C 0.55475 0.65877 0.06466 0.0
C995 C 0.50621 0.67472 0.06979 0.0
C996 C 0.49926 0.64679 0.05885 0.0
C997 C 0.51656 0.61079 0.04478 0.0
C998 C 0.54032 0.60194 0.04286 0.0
C999 C 0.5234 0.63873 0.05598 0.0
C1000 C 0.57125 0.62164 0.05188 0.0
C1001 C 0.57855 0.65001 0.06243 0.0
H1002 H 0.83375 0.31027 0.98257 0.0
H1003 H 0.903 0.28312 0.9609 0.0
H1004 H 0.94721 0.33299 0.97457 0.0
H1005 H 0.96655 0.38449 0.99237 0.0
H1006 H 0.89779 0.41153 0.01503 0.0
H1007 H 0.8531 0.36092 1.00227 0.0
C1008 C 0.85844 0.31498 0.98107 0.0
C1009 C 0.86479 0.29284 0.97039 0.0
C1010 C 0.88392 0.34359 0.98941 0.0
C1011 C 0.89717 0.29983 0.96846 0.0
C1012 C 0.92257 0.32828 0.97651 0.0
C1013 C 0.94179 0.37935 0.9945 0.0
C1014 C 0.93559 0.40197 1.00436 0.0
C1015 C 0.91626 0.35038 0.9869 0.0
C1016 C 0.90331 0.39459 1.00748 0.0
C1017 C 0.87772 0.36571 1.00003 0.0
H1018 H 0.70953 0.58529 0.97071 0.0
H1019 H 0.67619 0.48598 0.97749 0.0
H1020 H 0.62353 0.47666 0.99111 0.0
H1021 H 0.58556 0.49661 0.99926 0.0
H1022 H 0.62061 0.59648 0.99383 0.0
H1023 H 0.67354 0.60564 0.98174 0.0
C1024 C 0.69066 0.56159 0.97504 0.0
C1025 C 0.69671 0.53633 0.97271 0.0
C1026 C 0.66059 0.55648 0.98327 0.0
C1027 C 0.67216 0.50585 0.97895 0.0
C1028 C 0.642 0.50049 0.98676 0.0
C1029 C 0.60504 0.5204 0.99594 0.0
C1030 C 0.59916 0.5459 0.99769 0.0
C1031 C 0.63576 0.5256 0.98886 0.0
C1032 C 0.62453 0.5765 0.99279 0.0
C1033 C 0.65482 0.58177 0.98574 0.0
H1034 H 0.48955 0.18177 0.98473 0.0
H1035 H 0.41195 0.11576 0.94203 0.0
H1036 H 0.41936 0.07288 0.95608 0.0
H1037 H 0.44699 0.05387 0.9809 0.0
H1038 H 0.52335 0.1194 0.02462 0.0
H1039 H 0.51643 0.1625 1.01025 0.0
C1040 C 0.47398 0.15797 0.97862 0.0
C1041 C 0.45021 0.15219 0.96225 0.0
C1042 C 0.47786 0.13323 0.98715 0.0
C1043 C 0.4308 0.12118 0.95429 0.0
C1044 C 0.43479 0.09652 0.9625 0.0
C1045 C 0.46212 0.07754 0.98739 0.0
C1046 C 0.4856 0.08325 1.00394 0.0
C1047 C 0.45814 0.10225 0.97899 0.0
C1048 C 0.50488 0.11415 0.01208 0.0
C1049 C 0.50108 0.13889 1.00376 0.0
H1050 H 0.67404 0.16658 0.99266 0.0
H1051 H 0.71557 0.11182 0.96786 0.0
H1052 H 0.66463 0.06273 0.97579 0.0
H1053 H 0.60808 0.03568 0.98983 0.0
H1054 H 0.56677 0.09145 0.01315 0.0
H1055 H 0.61778 0.13975 1.00629 0.0
C1056 C 0.67172 0.14382 0.98883 0.0
C1057 C 0.69806 0.14252 0.97946 0.0
C1058 C 0.64258 0.11596 0.99356 0.0
C1059 C 0.69526 0.11315 0.97482 0.0
C1060 C 0.66627 0.0852 0.97948 0.0
C1061 C 0.61044 0.05845 0.99359 0.0
C1062 C 0.58387 0.05984 1.00269 0.0
C1063 C 0.63977 0.08632 0.98892 0.0
C1064 C 0.58698 0.08951 1.00692 0.0
C1065 C 0.61613 0.11725 1.00271 0.0
H1066 H 0.88539 0.56232 0.9814 0.0
H1067 H 0.81146 0.46428 0.98419 0.0
H1068 H 0.85266 0.44896 0.9898 0.0
H1069 H 0.9099 0.46335 0.99405 0.0
H1070 H 0.98436 0.56095 0.99038 0.0
H1071 H 0.94326 0.57664 0.98471 0.0
C1072 C 0.87849 0.53762 0.9829 0.0
C1073 C 0.84552 0.51435 0.98205 0.0
C1074 C 0.90245 0.52897 0.98618 0.0
C1075 C 0.83674 0.4825 0.98443 0.0
C1076 C 0.86028 0.47375 0.98778 0.0
C1077 C 0.91696 0.48807 0.99243 0.0
C1078 C 0.94991 0.51114 0.99376 0.0
C1079 C 0.89319 0.49676 0.98884 0.0
C1080 C 0.95899 0.54295 0.99042 0.0
C1081 C 0.93551 0.55185 0.98692 0.0
H1082 H 0.4297 0.3148 0.96581 0.0
H1083 H 0.51367 0.31792 0.99541 0.0
H1084 H 0.53494 0.37327 1.00597 0.0
H1085 H 0.52801 0.41969 1.00861 0.0
H1086 H 0.44383 0.41662 0.97895 0.0
H1087 H 0.42447 0.36262 0.96641 0.0
C1088 C 0.45294 0.32794 0.97416 0.0
C1089 C 0.4704 0.31278 0.97969 0.0
C1090 C 0.4648 0.35962 0.98035 0.0
C1091 C 0.50018 0.32953 0.9908 0.0
C1092 C 0.51219 0.36103 0.99695 0.0
C1093 C 0.50541 0.40722 0.99942 0.0
C1094 C 0.48721 0.42212 0.99504 0.0
C1095 C 0.49442 0.37615 0.99216 0.0
C1096 C 0.45829 0.40576 0.98271 0.0
C1097 C 0.44714 0.37481 0.97551 0.0
H1098 H 0.18916 0.68528 0.02367 0.0
H1099 H 0.1434 0.70073 0.08085 0.0
H1100 H 0.09489 0.64859 0.07515 0.0
H1101 H 0.06622 0.59813 0.05389 0.0
H1102 H 0.11403 0.58407 0.99693 0.0
H1103 H 0.16085 0.63607 1.00248 0.0
C1104 C 0.16846 0.67715 0.03484 0.0
C1105 C 0.16951 0.69641 0.05261 0.0
C1106 C 0.14107 0.64742 0.03146 0.0
C1107 C 0.14285 0.686 0.06706 0.0
C1108 C 0.11523 0.65629 0.06377 0.0
C1109 C 0.08681 0.60655 0.04264 0.0
C1110 C 0.08648 0.58703 0.02504 0.0
C1111 C 0.1141 0.6367 0.04601 0.0
C1112 C 0.1135 0.59834 0.01068 0.0
C1113 C 0.14041 0.62817 0.01381 0.0
H1114 H 0.34827 0.51233 0.05414 0.0
H1115 H 0.3002 0.4139 0.07219 0.0
H1116 H 0.34925 0.41167 0.06255 0.0
H1117 H 0.40616 0.43808 0.04884 0.0
H1118 H 0.45402 0.53702 0.03211 0.0
H1119 H 0.40497 0.53871 0.04093 0.0
C1120 C 0.3487 0.49046 0.05613 0.0
C1121 C 0.32088 0.46338 0.06411 0.0
C1122 C 0.3769 0.48942 0.05044 0.0
C1123 C 0.32148 0.4351 0.06634 0.0
C1124 C 0.34948 0.43384 0.06071 0.0
C1125 C 0.4057 0.45993 0.04696 0.0
C1126 C 0.43365 0.4872 0.0391 0.0
C1127 C 0.37736 0.46085 0.05266 0.0
C1128 C 0.43282 0.51547 0.03734 0.0
C1129 C 0.40473 0.51651 0.04266 0.0
H1130 H 0.54188 0.84841 0.03804 0.0
H1131 H 0.52279 0.85561 0.1079 0.0
H1132 H 0.51892 0.90298 0.09981 0.0
H1133 H 0.5161 0.93926 0.07194 0.0
H1134 H 0.53428 0.93058 1.00208 0.0
H1135 H 0.54307 0.88674 0.01085 0.0
C1136 C 0.53758 0.86086 0.05151 0.0
C1137 C 0.53296 0.84912 0.0735 0.0
C1138 C 0.53455 0.88734 0.04658 0.0
C1139 C 0.52682 0.86477 0.09089 0.0
C1140 C 0.52437 0.8916 0.08621 0.0
C1141 C 0.52233 0.92792 0.05873 0.0
C1142 C 0.52352 0.93742 0.03624 0.0
C1143 C 0.52745 0.90267 0.06401 0.0
C1144 C 0.53177 0.92274 0.01929 0.0
C1145 C 0.53727 0.89795 0.02437 0.0
H1146 H 0.97432 0.21303 0.38014 0.0
H1147 H 0.0143 0.17775 0.42967 0.0
H1148 H 0.06925 0.21648 0.41759 0.0
H1149 H 0.10602 0.26236 0.39434 0.0
H1150 H 0.0663 0.30238 0.3486 0.0
H1151 H 0.0113 0.2597 0.35723 0.0
C1152 C 0.99514 0.21385 0.38818 0.0
C1153 C 0.99038 0.19265 0.40578 0.0
C1154 C 0.02667 0.2368 0.38155 0.0
C1155 C 0.01746 0.19402 0.41622 0.0
C1156 C 0.04883 0.21604 0.40924 0.0
C1157 C 0.08525 0.2611 0.38586 0.0
C1158 C 0.09007 0.28438 0.36999 0.0
C1159 C 0.05375 0.23769 0.39204 0.0
C1160 C 0.06308 0.28381 0.36009 0.0
C1161 C 0.03168 0.25968 0.36528 0.0
H1162 H 0.84234 0.83003 0.39439 0.0
H1163 H 0.78543 0.73181 0.413 0.0
H1164 H 0.73601 0.73155 0.40194 0.0
H1165 H 0.70836 0.75935 0.38803 0.0
H1166 H 0.76431 0.85817 0.37142 0.0
H1167 H 0.8144 0.85793 0.38005 0.0
C1168 C 0.81915 0.80851 0.39587 0.0
C1169 C 0.81778 0.78101 0.40472 0.0
C1170 C 0.79053 0.80857 0.38962 0.0
C1171 C 0.78734 0.75345 0.40664 0.0
C1172 C 0.759 0.75322 0.40017 0.0
C1173 C 0.73158 0.78076 0.38608 0.0
C1174 C 0.73254 0.8085 0.37843 0.0
C1175 C 0.76023 0.78065 0.39181 0.0
C1176 C 0.76279 0.83623 0.37654 0.0
C1177 C 0.79149 0.83617 0.38175 0.0
H1178 H 0.264 0.03331 0.40378 0.0
H1179 H 0.18957 0.03973 0.36694 0.0
H1180 H 0.16893 0.98592 0.35273 0.0
H1181 H 0.17152 0.9366 0.35169 0.0
H1182 H 0.24612 0.93139 0.38951 0.0
H1183 H 0.26652 0.98489 0.40291 0.0
C1184 C 0.2429 0.02284 0.39295 0.0
C1185 C 0.22806 0.0404 0.38673 0.0
C1186 C 0.23109 0.99202 0.38508 0.0
C1187 C 0.20144 0.02674 0.37202 0.0
C1188 C 0.18957 0.99594 0.36397 0.0
C1189 C 0.1924 0.94725 0.36271 0.0
C1190 C 0.20735 0.9299 0.36939 0.0
C1191 C 0.20416 0.9783 0.37047 0.0
C1192 C 0.23407 0.944 0.38399 0.0
C1193 C 0.24585 0.97471 0.3917 0.0
H1194 H 0.56469 0.64148 0.29643 0.0
H1195 H 0.4806 0.63789 0.32668 0.0
H1196 H 0.51493 0.68977 0.34376 0.0
H1197 H 0.56907 0.73696 0.34931 0.0
H1198 H 0.65224 0.73975 0.31787 0.0
H1199 H 0.61793 0.68785 0.3018 0.0
C1200 C 0.55367 0.65215 0.30646 0.0
C1201 C 0.51996 0.63577 0.31001 0.0
C1202 C 0.57346 0.68202 0.31605 0.0
C1203 C 0.50645 0.6498 0.32368 0.0
C1204 C 0.52608 0.67956 0.33339 0.0
C1205 C 0.57972 0.7261 0.3391 0.0
C1206 C 0.61336 0.74243 0.33495 0.0
C1207 C 0.55967 0.69598 0.32965 0.0
C1208 C 0.62655 0.728 0.32142 0.0
C1209 C 0.6069 0.69818 0.31216 0.0
H1210 H 0.34648 0.83828 0.31574 0.0
H1211 H 0.39293 0.93697 0.29793 0.0
H1212 H 0.3442 0.93848 0.30837 0.0
H1213 H 0.28756 0.91158 0.32117 0.0
H1214 H 0.23957 0.8124 0.33706 0.0
H1215 H 0.28954 0.8114 0.32938 0.0
C1216 C 0.34602 0.86018 0.31433 0.0
C1217 C 0.37345 0.88742 0.30581 0.0
C1218 C 0.31758 0.86085 0.32021 0.0
C1219 C 0.37217 0.9155 0.304 0.0
C1220 C 0.3443 0.91645 0.31011 0.0
C1221 C 0.28817 0.88982 0.32319 0.0
C1222 C 0.26001 0.86231 0.33029 0.0
C1223 C 0.31675 0.88924 0.31801 0.0
C1224 C 0.26104 0.83415 0.33232 0.0
C1225 C 0.28961 0.83351 0.32766 0.0
H1226 H 0.1445 0.50215 0.32279 0.0
H1227 H 0.0577 0.4324 0.28934 0.0
H1228 H 0.06818 0.39072 0.3018 0.0
H1229 H 0.10165 0.37403 0.32249 0.0
H1230 H 0.18839 0.44382 0.3559 0.0
H1231 H 0.1773 0.48534 0.34413 0.0
C1232 C 0.12762 0.4778 0.31843 0.0
C1233 C 0.10038 0.47053 0.30507 0.0
C1234 C 0.1335 0.45389 0.32593 0.0
C1235 C 0.07914 0.43883 0.29927 0.0
C1236 C 0.08493 0.41491 0.30657 0.0
C1237 C 0.11827 0.39835 0.32704 0.0
C1238 C 0.14596 0.40582 0.33987 0.0
C1239 C 0.11205 0.42219 0.31988 0.0
C1240 C 0.16678 0.43736 0.34616 0.0
C1241 C 0.1606 0.46117 0.33927 0.0
H1242 H 0.36918 0.44362 0.32133 0.0
H1243 H 0.35944 0.52655 0.31914 0.0
H1244 H 0.30104 0.49413 0.32632 0.0
H1245 H 0.25253 0.44173 0.33291 0.0
H1246 H 0.2625 0.35888 0.33434 0.0
H1247 H 0.32087 0.39142 0.32782 0.0
C1248 C 0.35409 0.45442 0.32221 0.0
C1249 C 0.36819 0.4872 0.31942 0.0
C1250 C 0.32069 0.43564 0.32645 0.0
C1251 C 0.34879 0.50122 0.32094 0.0
C1252 C 0.31551 0.48273 0.32516 0.0
C1253 C 0.26772 0.43103 0.33211 0.0
C1254 C 0.25365 0.39821 0.33489 0.0
C1255 C 0.30118 0.4499 0.328 0.0
C1256 C 0.27314 0.38426 0.333 0.0
C1257 C 0.3064 0.40282 0.32907 0.0
H1258 H 0.55054 0.90396 0.32312 0.0
H1259 H 0.48577 0.80345 0.32347 0.0
H1260 H 0.53107 0.79456 0.3316 0.0
H1261 H 0.58981 0.81556 0.33812 0.0
H1262 H 0.65442 0.91619 0.33699 0.0
H1263 H 0.60897 0.92488 0.32973 0.0
C1264 C 0.54652 0.88015 0.32471 0.0
C1265 C 0.51504 0.85436 0.32232 0.0
C1266 C 0.57275 0.87525 0.32945 0.0
C1267 C 0.50996 0.82364 0.32485 0.0
C1268 C 0.53583 0.81855 0.32963 0.0
C1269 C 0.59375 0.83935 0.33663 0.0
C1270 C 0.62537 0.86527 0.33863 0.0
C1271 C 0.56741 0.84418 0.33199 0.0
C1272 C 0.63024 0.89592 0.3359 0.0
C1273 C 0.60427 0.9009 0.33164 0.0
H1274 H 0.08637 0.63601 0.30344 0.0
H1275 H 0.16825 0.63841 0.33601 0.0
H1276 H 0.19147 0.69483 0.34375 0.0
H1277 H 0.18674 0.74248 0.34325 0.0
H1278 H 0.10482 0.74046 0.31067 0.0
H1279 H 0.08354 0.68512 0.3007 0.0
C1280 C 0.10958 0.64919 0.31182 0.0
C1281 C 0.12587 0.63355 0.31904 0.0
C1282 C 0.1226 0.68155 0.31635 0.0
C1283 C 0.15564 0.65037 0.33014 0.0
C1284 C 0.16878 0.68249 0.33468 0.0
C1285 C 0.16425 0.72997 0.33393 0.0
C1286 C 0.14722 0.74551 0.32797 0.0
C1287 C 0.15218 0.69818 0.32822 0.0
C1288 C 0.1184 0.72907 0.31556 0.0
C1289 C 0.10616 0.69737 0.30986 0.0
H1290 H 0.79858 0.03602 0.40338 0.0
H1291 H 0.87677 0.0286 0.37327 0.0
H1292 H 0.83996 0.97282 0.36485 0.0
H1293 H 0.78525 0.92704 0.36437 0.0
H1294 H 0.70641 0.93358 0.39456 0.0
H1295 H 0.74367 0.98854 0.40487 0.0
C1296 C 0.80749 0.0219 0.39535 0.0
C1297 C 0.84023 0.03605 0.38908 0.0
C1298 C 0.78606 0.9898 0.39046 0.0
C1299 C 0.85165 0.01791 0.37842 0.0
C1300 C 0.8306 0.98612 0.37351 0.0
C1301 C 0.77613 0.94042 0.37323 0.0
C1302 C 0.74295 0.92621 0.37845 0.0
C1303 C 0.79768 0.97194 0.37915 0.0
C1304 C 0.73178 0.94386 0.39027 0.0
C1305 C 0.75309 0.97536 0.39614 0.0
H1306 H 0.97775 0.764 0.38163 0.0
H1307 H 0.01493 0.86379 0.38949 0.0
H1308 H 0.06938 0.87456 0.37912 0.0
H1309 H 0.10713 0.85525 0.36877 0.0
H1310 H 0.06977 0.75509 0.36289 0.0
H1311 H 0.01508 0.74482 0.37105 0.0
C1312 C 0.99792 0.78803 0.38134 0.0
C1313 C 0.99258 0.81304 0.38676 0.0
C1314 C 0.02918 0.79401 0.37532 0.0
C1315 C 0.01868 0.84412 0.38583 0.0
C1316 C 0.04977 0.8503 0.37971 0.0
C1317 C 0.08684 0.83129 0.36883 0.0
C1318 C 0.09234 0.80596 0.36473 0.0
C1319 C 0.05541 0.82544 0.37441 0.0
C1320 C 0.066 0.77496 0.36562 0.0
C1321 C 0.03475 0.76905 0.37046 0.0
H1322 H 0.26114 0.21893 0.39492 0.0
H1323 H 0.21661 0.16474 0.33528 0.0
H1324 H 0.19502 0.19967 0.32589 0.0
H1325 H 0.1897 0.24642 0.33458 0.0
H1326 H 0.23478 0.30005 0.39472 0.0
H1327 H 0.25523 0.26483 0.40386 0.0
C1328 C 0.24644 0.21473 0.38 0.0
C1329 C 0.24011 0.18943 0.36586 0.0
C1330 C 0.23442 0.23499 0.3747 0.0
C1331 C 0.22141 0.18411 0.34645 0.0
C1332 C 0.20924 0.20413 0.34105 0.0
C1333 C 0.20412 0.25048 0.34961 0.0
C1334 C 0.21069 0.27603 0.36382 0.0
C1335 C 0.21578 0.22983 0.35499 0.0
C1336 C 0.22923 0.28068 0.38337 0.0
C1337 C 0.24099 0.26048 0.38871 0.0
H1338 H 0.67334 0.51029 0.72828 0.0
H1339 H 0.62564 0.56534 0.734 0.0
H1340 H 0.67301 0.61102 0.71781 0.0
H1341 H 0.7289 0.6361 0.70359 0.0
H1342 H 0.77807 0.58237 0.70042 0.0
H1343 H 0.7289 0.53509 0.71313 0.0
C1344 C 0.6732 0.53221 0.72581 0.0
C1345 C 0.64597 0.53439 0.7325 0.0
C1346 C 0.70063 0.55847 0.71657 0.0
C1347 C 0.64641 0.56312 0.72939 0.0
C1348 C 0.67339 0.58918 0.71993 0.0
C1349 C 0.72854 0.61382 0.70527 0.0
C1350 C 0.75668 0.61243 0.70038 0.0
C1351 C 0.70071 0.5872 0.71363 0.0
C1352 C 0.75636 0.58374 0.70329 0.0
C1353 C 0.72839 0.55684 0.7109 0.0
H1354 H 0.50158 0.16676 0.72089 0.0
H1355 H 0.44238 0.06889 0.73983 0.0
H1356 H 0.39393 0.06957 0.7277 0.0
H1357 H 0.36768 0.09823 0.7131 0.0
H1358 H 0.4259 0.19612 0.69451 0.0
H1359 H 0.47517 0.19508 0.70469 0.0
C1360 C 0.47811 0.14552 0.72215 0.0
C1361 C 0.47575 0.11795 0.73163 0.0
C1362 C 0.45006 0.14604 0.71513 0.0
C1363 C 0.445 0.09067 0.73314 0.0
C1364 C 0.41721 0.09095 0.72606 0.0
C1365 C 0.39122 0.11924 0.71111 0.0
C1366 C 0.39317 0.147 0.70264 0.0
C1367 C 0.41936 0.11856 0.71731 0.0
C1368 C 0.42377 0.17423 0.7005 0.0
C1369 C 0.45195 0.17369 0.70648 0.0
H1370 H 0.87136 0.36576 0.72244 0.0
H1371 H 0.96392 0.38292 0.74732 0.0
H1372 H 0.95324 0.33211 0.73258 0.0
H1373 H 0.91775 0.28272 0.7126 0.0
H1374 H 0.82593 0.26608 0.68692 0.0
H1375 H 0.83712 0.31759 0.70085 0.0
C1376 C 0.88949 0.35872 0.7244 0.0
C1377 C 0.91833 0.3783 0.73622 0.0
C1378 C 0.88358 0.32973 0.71539 0.0
C1379 C 0.94116 0.36823 0.73881 0.0
C1380 C 0.93527 0.33926 0.73014 0.0
C1381 C 0.90016 0.29035 0.71013 0.0
C1382 C 0.87089 0.27044 0.69903 0.0
C1383 C 0.90654 0.3198 0.71847 0.0
C1384 C 0.8487 0.28099 0.69537 0.0
C1385 C 0.85496 0.31033 0.70351 0.0
H1386 H 0.16391 0.98536 0.64943 0.0
H1387 H 0.23279 0.96737 0.61486 0.0
H1388 H 0.27648 0.01985 0.62504 0.0
H1389 H 0.29553 0.0704 0.64464 0.0
H1390 H 0.22671 0.08761 0.6801 0.0
H1391 H 0.18292 0.03565 0.66919 0.0
C1392 C 0.1885 0.99273 0.64425 0.0
C1393 C 0.19485 0.97221 0.63134 0.0
C1394 C 0.21368 0.02277 0.65054 0.0
C1395 C 0.22691 0.98265 0.62448 0.0
C1396 C 0.25204 0.01263 0.63048 0.0
C1397 C 0.27097 0.06284 0.65001 0.0
C1398 C 0.26462 0.08292 0.66342 0.0
C1399 C 0.24575 0.03284 0.64361 0.0
C1400 C 0.23253 0.07259 0.67011 0.0
C1401 C 0.20736 0.04288 0.66375 0.0
H1402 H 1.0033 0.17104 0.63822 0.0
H1403 H 0.05753 0.27242 0.64313 0.0
H1404 H 0.01002 0.27277 0.65869 0.0
H1405 H 0.95207 0.24437 0.66913 0.0
H1406 H 0.89624 0.14369 0.66015 0.0
H1407 H 0.94495 0.14264 0.64825 0.0
C1408 C 1.00461 0.19312 0.6428 0.0
C1409 C 0.0338 0.2217 0.63956 0.0
C1410 C 0.97688 0.19315 0.65121 0.0
C1411 C 0.03525 0.2502 0.6454 0.0
C1412 C 0.00812 0.25037 0.65434 0.0
C1413 C 0.95084 0.22216 0.66505 0.0
C1414 C 0.92095 0.19392 0.66665 0.0
C1415 C 0.97871 0.22202 0.65717 0.0
C1416 C 0.91927 0.1655 0.66016 0.0
C1417 C 0.94706 0.16499 0.65304 0.0
H1418 H 0.78873 0.8014 0.61931 0.0
H1419 H 0.75982 0.81579 0.68492 0.0
H1420 H 0.7772 0.78089 0.70168 0.0
H1421 H 0.80026 0.74551 0.69747 0.0
H1422 H 0.82852 0.7316 0.63142 0.0
H1423 H 0.81193 0.76696 0.61516 0.0
C1424 C 0.78584 0.79655 0.63722 0.0
C1425 C 0.77286 0.811 0.65079 0.0
C1426 C 0.79607 0.77671 0.64675 0.0
C1427 C 0.76986 0.80498 0.67409 0.0
C1428 C 0.77981 0.78507 0.6837 0.0
C1429 C 0.8032 0.75067 0.67963 0.0
C1430 C 0.81562 0.73599 0.66571 0.0
C1431 C 0.79314 0.77087 0.67021 0.0
C1432 C 0.81881 0.74246 0.6425 0.0
C1433 C 0.80929 0.76266 0.63313 0.0
H1434 H 0.03754 0.78771 0.65833 0.0
H1435 H 0.01665 0.86353 0.65198 0.0
H1436 H 0.95908 0.82677 0.65904 0.0
H1437 H 0.91443 0.77266 0.66633 0.0
H1438 H 0.93466 0.69628 0.67057 0.0
H1439 H 0.9926 0.73333 0.66536 0.0
C1440 C 0.0202 0.79595 0.65826 0.0
C1441 C 0.03092 0.828 0.65431 0.0
C1442 C 0.98717 0.77464 0.66238 0.0
C1443 C 0.00861 0.83875 0.65461 0.0
C1444 C 0.97581 0.81781 0.65882 0.0
C1445 C 0.93176 0.7644 0.66662 0.0
C1446 C 0.92072 0.73216 0.66995 0.0
C1447 C 0.96481 0.78572 0.66279 0.0
C1448 C 0.94296 0.72128 0.66912 0.0
C1449 C 0.97597 0.74238 0.66581 0.0
H1450 H 0.21684 0.24496 0.64286 0.0
H1451 H 0.15056 0.14581 0.65292 0.0
H1452 H 0.19594 0.13666 0.6598 0.0
H1453 H 0.25482 0.15699 0.66297 0.0
H1454 H 0.32118 0.25602 0.65226 0.0
H1455 H 0.27583 0.26516 0.64554 0.0
C1456 C 0.2125 0.22133 0.6462 0.0
C1457 C 0.18056 0.19597 0.64699 0.0
C1458 C 0.23878 0.2163 0.65023 0.0
C1459 C 0.17506 0.16556 0.65181 0.0
C1460 C 0.20098 0.16036 0.65588 0.0
C1461 C 0.25926 0.1806 0.6595 0.0
C1462 C 0.29128 0.20599 0.65875 0.0
C1463 C 0.23298 0.18556 0.65525 0.0
C1464 C 0.2967 0.23625 0.65336 0.0
C1465 C 0.27078 0.24146 0.64942 0.0
H1466 H 0.77458 0.96776 0.68625 0.0
H1467 H 0.78151 0.97823 0.61427 0.0
H1468 H 0.79067 0.03227 0.61773 0.0
H1469 H 0.80205 0.07802 0.64179 0.0
H1470 H 0.79844 0.06735 0.714 0.0
H1471 H 0.78245 0.01186 0.70999 0.0
C1472 C 0.77741 0.98175 0.67134 0.0
C1473 C 0.77714 0.96938 0.65007 0.0
C1474 C 0.78363 0.01281 0.67358 0.0
C1475 C 0.78132 0.98749 0.63078 0.0
C1476 C 0.78676 0.01835 0.6328 0.0
C1477 C 0.79729 0.06339 0.65661 0.0
C1478 C 0.80167 0.07685 0.67817 0.0
C1479 C 0.78877 0.03153 0.65418 0.0
C1480 C 0.79561 0.05768 0.69723 0.0
C1481 C 0.7864 0.02592 0.69496 0.0
H1482 H 0.50403 0.37404 0.69118 0.0
H1483 H 0.49802 0.35257 0.76182 0.0
H1484 H 0.44938 0.301 0.75522 0.0
H1485 H 0.41111 0.26049 0.72854 0.0
H1486 H 0.41871 0.28267 0.6579 0.0
H1487 H 0.46411 0.33536 0.66511 0.0
C1488 C 0.49166 0.35817 0.70512 0.0
C1489 C 0.50412 0.36677 0.72691 0.0
C1490 C 0.4643 0.32858 0.70109 0.0
C1491 C 0.48844 0.34622 0.74493 0.0
C1492 C 0.46081 0.31678 0.74112 0.0
C1493 C 0.42254 0.27709 0.71484 0.0
C1494 C 0.41219 0.26753 0.69261 0.0
C1495 C 0.44885 0.30746 0.71918 0.0
C1496 C 0.42705 0.28913 0.67498 0.0
C1497 C 0.4528 0.31939 0.67914 0.0
H1498 H 0.64521 0.10629 0.71917 0.0
H1499 H 0.66809 0.20284 0.72717 0.0
H1500 H 0.72531 0.22124 0.71964 0.0
H1501 H 0.76905 0.20999 0.71041 0.0
H1502 H 0.7473 0.11362 0.70446 0.0
H1503 H 0.68974 0.09492 0.71139 0.0
C1504 C 0.66291 0.13128 0.71964 0.0
C1505 C 0.65268 0.15323 0.72409 0.0
C1506 C 0.6959 0.1417 0.71522 0.0
C1507 C 0.6756 0.18556 0.72419 0.0
C1508 C 0.70826 0.19609 0.71969 0.0
C1509 C 0.75151 0.18493 0.71027 0.0
C1510 C 0.76204 0.16323 0.70585 0.0
C1511 C 0.71868 0.17443 0.71499 0.0
C1512 C 0.73946 0.13077 0.70681 0.0
C1513 C 0.70663 0.1201 0.71106 0.0
H1514 H 0.92944 0.54285 0.69781 0.0
H1515 H 0.88437 0.52246 0.76311 0.0
H1516 H 0.86762 0.562 0.75704 0.0
H1517 H 0.86186 0.5988 0.73166 0.0
H1518 H 0.90661 0.61845 0.66602 0.0
H1519 H 0.9272 0.58259 0.67358 0.0
C1520 C 0.91663 0.54772 0.71088 0.0
C1521 C 0.90846 0.53034 0.73098 0.0
C1522 C 0.90647 0.56981 0.70698 0.0
C1523 C 0.8913 0.53609 0.74768 0.0
C1524 C 0.8815 0.55843 0.74409 0.0
C1525 C 0.87635 0.59548 0.71906 0.0
C1526 C 0.88199 0.61079 0.69805 0.0
C1527 C 0.88831 0.57489 0.72358 0.0
C1528 C 0.90104 0.60632 0.68205 0.0
C1529 C 0.9131 0.586 0.68643 0.0
H1530 H 0.42142 0.90412 0.23123 0.0
H1531 H 0.5138 0.94073 0.2644 0.0
H1532 H 0.54118 0.97137 0.2309 0.0
H1533 H 0.53897 0.99009 0.19287 0.0
H1534 H 0.44641 0.95576 0.16042 0.0
H1535 H 0.41932 0.92198 0.1928 0.0
C1536 C 0.44755 0.9189 0.23125 0.0
C1537 C 0.46534 0.92005 0.25059 0.0
C1538 C 0.46323 0.93701 0.21196 0.0
C1539 C 0.49931 0.93891 0.24986 0.0
C1540 C 0.51505 0.95673 0.2307 0.0
C1541 C 0.51283 0.97538 0.19284 0.0
C1542 C 0.4949 0.97586 0.17406 0.0
C1543 C 0.49725 0.95632 0.21176 0.0
C1544 C 0.46107 0.95587 0.17435 0.0
C1545 C 0.44545 0.93665 0.19302 0.0
H1546 H 0.09511 0.55898 0.23267 0.0
H1547 H 0.01675 0.47121 0.2578 0.0
H1548 H 0.98738 0.46276 0.2225 0.0
H1549 H 0.98408 0.47984 0.18442 0.0
H1550 H 0.06284 0.56633 0.158 0.0
H1551 H 0.0922 0.57563 0.1936 0.0
C1552 C 0.07154 0.53816 0.23033 0.0
C1553 C 0.05797 0.51577 0.24773 0.0
C1554 C 0.05503 0.53312 0.20973 0.0
C1555 C 0.0276 0.48868 0.24455 0.0
C1556 C 0.01084 0.48384 0.2244 0.0
C1557 C 0.00762 0.50081 0.1865 0.0
C1558 C 0.02118 0.52246 0.16868 0.0
C1559 C 0.02434 0.50582 0.20687 0.0
C1560 C 0.05196 0.54923 0.17146 0.0
C1561 C 0.06866 0.55463 0.19184 0.0
H1562 H 0.45429 0.53241 0.23232 0.0
H1563 H 0.55144 0.5841 0.25861 0.0
H1564 H 0.5726 0.57338 0.22448 0.0
H1565 H 0.56396 0.54937 0.18719 0.0
H1566 H 0.46744 0.49804 0.15996 0.0
H1567 H 0.44574 0.50881 0.1941 0.0
C1568 C 0.48005 0.54122 0.23053 0.0
C1569 C 0.50124 0.55922 0.24799 0.0
C1570 C 0.49225 0.53515 0.21061 0.0
C1571 C 0.53461 0.57059 0.24536 0.0
C1572 C 0.54676 0.56436 0.22586 0.0
C1573 C 0.53813 0.54036 0.18875 0.0
C1574 C 0.51739 0.52275 0.17104 0.0
C1575 C 0.52587 0.5467 0.20838 0.0
C1576 C 0.48403 0.51183 0.17324 0.0
C1577 C 0.47158 0.51783 0.19284 0.0
H1578 H 0.94434 0.48171 0.81109 0.0
H1579 H 0.00535 0.44989 0.78073 0.0
H1580 H 0.03987 0.46625 0.81379 0.0
H1581 H 0.05245 0.48834 0.85144 0.0
H1582 H 0.99425 0.52314 0.88213 0.0
H1583 H 0.95857 0.5061 0.84926 0.0
C1584 C 0.96538 0.47869 0.81169 0.0
C1585 C 0.97198 0.46424 0.7935 0.0
C1586 C 0.98543 0.48825 0.83096 0.0
C1587 C 0.99933 0.46042 0.79459 0.0
C1588 C 0.01917 0.46982 0.8135 0.0
C1589 C 0.03226 0.49267 0.85093 0.0
C1590 C 0.02638 0.50729 0.86931 0.0
C1591 C 0.01235 0.48352 0.83183 0.0
C1592 C 0.99935 0.51169 0.86842 0.0
C1593 C 0.97906 0.50221 0.84948 0.0
H1594 H 0.59837 0.51417 0.80853 0.0
H1595 H 0.50681 0.45915 0.77482 0.0
H1596 H 0.47838 0.46355 0.80762 0.0
H1597 H 0.4794 0.48297 0.84593 0.0
H1598 H 0.57091 0.5381 0.87971 0.0
H1599 H 0.59936 0.53355 0.84697 0.0
C1600 C 0.57221 0.50337 0.8083 0.0
C1601 C 0.55479 0.4864 0.78917 0.0
C1602 C 0.55596 0.50588 0.8273 0.0
C1603 C 0.52083 0.47211 0.78934 0.0
C1604 C 0.50455 0.47472 0.80808 0.0
C1605 C 0.50559 0.4942 0.84609 0.0
C1606 C 0.52293 0.51091 0.86532 0.0
C1607 C 0.52184 0.49153 0.82716 0.0
C1608 C 0.55686 0.52481 0.86529 0.0
C1609 C 0.57319 0.52239 0.8465 0.0
H1610 H 0.56162 0.11135 0.80892 0.0
H1611 H 0.48123 0.03764 0.77251 0.0
H1612 H 0.46395 0.00439 0.80592 0.0
H1613 H 0.46903 0.99737 0.84574 0.0
H1614 H 0.55068 0.0685 0.8829 0.0
H1615 H 0.56927 0.10193 0.84931 0.0
C1616 C 0.54074 0.08778 0.80829 0.0
C1617 C 0.52266 0.07703 0.78823 0.0
C1618 C 0.53065 0.06857 0.82784 0.0
C1619 C 0.49546 0.04651 0.78772 0.0
C1620 C 0.48545 0.02752 0.80687 0.0
C1621 C 0.49138 0.0198 0.8466 0.0
C1622 C 0.50834 0.02997 0.86712 0.0
C1623 C 0.50248 0.03848 0.82709 0.0
C1624 C 0.53663 0.0599 0.86763 0.0
C1625 C 0.54754 0.079 0.84827 0.0
H1626 H 0.16449 0.27578 0.58476 0.0
H1627 H 0.06551 0.22448 0.5619 0.0
H1628 H 0.08209 0.24901 0.52488 0.0
H1629 H 0.12434 0.2881 0.49948 0.0
H1630 H 0.22314 0.33947 0.52258 0.0
H1631 H 0.20716 0.31168 0.55854 0.0
C1632 C 0.1466 0.26955 0.57159 0.0
C1633 C 0.11369 0.2485 0.57637 0.0
C1634 C 0.15629 0.28395 0.55022 0.0
C1635 C 0.09092 0.24102 0.55898 0.0
C1636 C 0.1004 0.25497 0.53769 0.0
C1637 C 0.14242 0.29278 0.51225 0.0
C1638 C 0.17488 0.3161 0.50832 0.0
C1639 C 0.13296 0.27694 0.53318 0.0
C1640 C 0.19793 0.32197 0.52519 0.0
C1641 C 0.18881 0.30606 0.54581 0.0
H1642 H 0.75409 0.887 0.57343 0.0
H1643 H 0.68392 0.79693 0.6013 0.0
H1644 H 0.65256 0.78363 0.56655 0.0
H1645 H 0.64503 0.79734 0.52816 0.0
H1646 H 0.71532 0.88697 0.49977 0.0
H1647 H 0.74674 0.90055 0.53462 0.0
C1648 C 0.73181 0.86457 0.57191 0.0
C1649 C 0.72136 0.843 0.58997 0.0
C1650 C 0.714 0.85691 0.55173 0.0
C1651 C 0.69265 0.81385 0.58763 0.0
C1652 C 0.67464 0.80625 0.56777 0.0
C1653 C 0.66713 0.81994 0.52964 0.0
C1654 C 0.6777 0.84114 0.51137 0.0
C1655 C 0.68509 0.82756 0.5497 0.0
C1656 C 0.70673 0.87009 0.51347 0.0
C1657 C 0.72462 0.87795 0.53345 0.0
H1658 H 0.15858 0.92011 0.5575 0.0
H1659 H 0.13084 0.83411 0.59428 0.0
H1660 H 0.13913 0.81038 0.56069 0.0
H1661 H 0.15784 0.8151 0.52157 0.0
H1662 H 0.18759 0.90167 0.48508 0.0
H1663 H 0.17492 0.92394 0.51774 0.0
C1664 C 0.15431 0.89615 0.55819 0.0
C1665 C 0.14421 0.87907 0.57858 0.0
C1666 C 0.15968 0.88274 0.53884 0.0
C1667 C 0.13823 0.84781 0.5789 0.0
C1668 C 0.14327 0.83426 0.55969 0.0
C1669 C 0.16161 0.83888 0.52074 0.0
C1670 C 0.17395 0.85672 0.50086 0.0
C1671 C 0.15458 0.85169 0.53969 0.0
C1672 C 0.17796 0.88725 0.50003 0.0
C1673 C 0.1709 0.9001 0.51878 0.0
H1674 H 0.5752 0.74289 0.15302 0.0
H1675 H 0.62508 0.83119 0.11705 0.0
H1676 H 0.66291 0.85499 0.14834 0.0
H1677 H 0.68197 0.85066 0.18596 0.0
H1678 H 0.63143 0.76265 0.22224 0.0
H1679 H 0.59374 0.73881 0.19089 0.0
C1680 C 0.59449 0.76728 0.152 0.0
C1681 C 0.5974 0.78521 0.13269 0.0
C1682 C 0.616 0.78088 0.17014 0.0
C1683 C 0.62219 0.81695 0.13177 0.0
C1684 C 0.6439 0.83053 0.14962 0.0
C1685 C 0.66282 0.82621 0.18693 0.0
C1686 C 0.6596 0.80844 0.20639 0.0
C1687 C 0.64108 0.81272 0.16889 0.0
C1688 C 0.63431 0.77692 0.20754 0.0
C1689 C 0.61283 0.76323 0.18957 0.0
H1690 H 0.26735 0.83697 0.13976 0.0
H1691 H 0.17787 0.79486 0.10242 0.0
H1692 H 0.14959 0.79978 0.13505 0.0
H1693 H 0.15007 0.81618 0.17415 0.0
H1694 H 0.23953 0.85908 0.21152 0.0
H1695 H 0.2678 0.85348 0.17907 0.0
C1696 C 0.24172 0.82909 0.1387 0.0
C1697 C 0.22484 0.81553 0.11857 0.0
C1698 C 0.22549 0.83199 0.15761 0.0
C1699 C 0.19148 0.80504 0.1177 0.0
C1700 C 0.17527 0.80798 0.13635 0.0
C1701 C 0.17581 0.82454 0.17519 0.0
C1702 C 0.19256 0.83811 0.19536 0.0
C1703 C 0.192 0.82143 0.15639 0.0
C1704 C 0.22584 0.84822 0.1964 0.0
C1705 C 0.24211 0.84522 0.17775 0.0
H1706 H 0.2342 0.42609 0.14398 0.0
H1707 H 0.13902 0.36982 0.11513 0.0
H1708 H 0.12141 0.33617 0.14822 0.0
H1709 H 0.13201 0.32261 0.18541 0.0
H1710 H 0.22786 0.37484 0.21386 0.0
H1711 H 0.24565 0.41039 0.18135 0.0
C1712 C 0.20972 0.40626 0.14479 0.0
C1713 C 0.18795 0.40105 0.12693 0.0
C1714 C 0.19959 0.38636 0.16403 0.0
C1715 C 0.15625 0.37515 0.12861 0.0
C1716 C 0.1461 0.35566 0.14758 0.0
C1717 C 0.15703 0.34135 0.18453 0.0
C1718 C 0.17848 0.34544 0.20231 0.0
C1719 C 0.16743 0.36109 0.16543 0.0
C1720 C 0.21047 0.37093 0.20079 0.0
C1721 C 0.22083 0.39119 0.18198 0.0
H1722 H 0.74602 0.56108 0.8961 0.0
H1723 H 0.83704 0.60947 0.9315 0.0
H1724 H 0.86304 0.64147 0.89827 0.0
H1725 H 0.86008 0.65702 0.85947 0.0
H1726 H 0.7694 0.60964 0.82372 0.0
H1727 H 0.74346 0.57591 0.85649 0.0
C1728 C 0.77153 0.57869 0.89658 0.0
C1729 C 0.78943 0.58266 0.91647 0.0
C1730 C 0.78653 0.59723 0.87724 0.0
C1731 C 0.82261 0.60543 0.9165 0.0
C1732 C 0.83754 0.62395 0.89748 0.0
C1733 C 0.83459 0.6394 0.8588 0.0
C1734 C 0.81678 0.6362 0.83904 0.0
C1735 C 0.81975 0.62021 0.8778 0.0
C1736 C 0.7839 0.61264 0.83851 0.0
C1737 C 0.76895 0.59344 0.85737 0.0
H1738 H 0.38729 0.22176 0.91101 0.0
H1739 H 0.44764 0.18624 0.88502 0.0
H1740 H 0.42276 0.17925 0.84807 0.0
H1741 H 0.38113 0.1799 0.82364 0.0
H1742 H 0.32383 0.21897 0.84941 0.0
H1743 H 0.35066 0.22825 0.88566 0.0
C1744 C 0.3957 0.21319 0.89723 0.0
C1745 C 0.41916 0.20419 0.90114 0.0
C1746 C 0.38158 0.20958 0.87586 0.0
C1747 C 0.42912 0.19268 0.88287 0.0
C1748 C 0.41501 0.18883 0.8616 0.0
C1749 C 0.37489 0.19097 0.83702 0.0
C1750 C 0.34985 0.19802 0.83376 0.0
C1751 C 0.39076 0.19665 0.85797 0.0
C1752 C 0.34223 0.21234 0.85148 0.0
C1753 C 0.35774 0.21789 0.87227 0.0
H1754 H 0.77992 0.18969 0.89696 0.0
H1755 H 0.87261 0.21649 0.92683 0.0
H1756 H 0.8888 0.19938 0.89333 0.0
H1757 H 0.87811 0.17907 0.8552 0.0
H1758 H 0.78462 0.14831 0.82519 0.0
H1759 H 0.76781 0.16557 0.85868 0.0
C1760 C 0.80345 0.19135 0.8962 0.0
C1761 C 0.82515 0.2048 0.91435 0.0
C1762 C 0.81277 0.18128 0.87668 0.0
C1763 C 0.85562 0.20682 0.91302 0.0
C1764 C 0.86494 0.197 0.89384 0.0
C1765 C 0.85377 0.17545 0.85597 0.0
C1766 C 0.83274 0.16212 0.8375 0.0
C1767 C 0.84392 0.18456 0.87549 0.0
C1768 C 0.80167 0.15883 0.83887 0.0
C1769 C 0.79186 0.16842 0.85818 0.0
H1770 H 0.27105 0.14921 0.46009 0.0
H1771 H 0.30772 0.08824 0.43954 0.0
H1772 H 0.33555 0.09661 0.47533 0.0
H1773 H 0.34927 0.12058 0.51251 0.0
H1774 H 0.31348 0.18179 0.53406 0.0
H1775 H 0.28517 0.17365 0.49814 0.0
C1776 C 0.28526 0.13794 0.4635 0.0
C1777 C 0.28708 0.11792 0.44725 0.0
C1778 C 0.30119 0.1427 0.48435 0.0
C1779 C 0.30553 0.10337 0.45189 0.0
C1780 C 0.32155 0.10821 0.47233 0.0
C1781 C 0.33551 0.13239 0.50931 0.0
C1782 C 0.33372 0.15195 0.5259 0.0
C1783 C 0.31948 0.1277 0.48869 0.0
C1784 C 0.31512 0.16646 0.52163 0.0
C1785 C 0.29909 0.16196 0.50103 0.0
H1786 H 0.85499 0.13233 0.4546 0.0
H1787 H 0.9492 0.16092 0.48254 0.0
H1788 H 0.93118 0.16898 0.51915 0.0
H1789 H 0.88937 0.17109 0.54286 0.0
H1790 H 0.79495 0.14057 0.51459 0.0
H1791 H 0.8122 0.12952 0.47884 0.0
C1792 C 0.8715 0.13962 0.46874 0.0
C1793 C 0.9036 0.14619 0.46552 0.0
C1794 C 0.86094 0.14406 0.48984 0.0
C1795 C 0.92456 0.15622 0.4842 0.0
C1796 C 0.91421 0.16069 0.50527 0.0
C1797 C 0.87244 0.16153 0.52899 0.0
C1798 C 0.84102 0.1572 0.53141 0.0
C1799 C 0.88257 0.1552 0.50824 0.0
C1800 C 0.81947 0.14483 0.51315 0.0
C1801 C 0.82928 0.13838 0.49265 0.0
H1802 H 0.82428 0.70925 0.45555 0.0
H1803 H 0.92344 0.77849 0.47026 0.0
H1804 H 0.91999 0.75164 0.50585 0.0
H1805 H 0.88825 0.70808 0.53325 0.0
H1806 H 0.78893 0.64013 0.51779 0.0
H1807 H 0.79282 0.66731 0.48259 0.0
C1808 C 0.84515 0.71884 0.46658 0.0
C1809 C 0.87405 0.74617 0.46006 0.0
C1810 C 0.84287 0.70352 0.48715 0.0
C1811 C 0.90093 0.75743 0.47455 0.0
C1812 C 0.89888 0.74218 0.49507 0.0
C1813 C 0.86742 0.69947 0.52225 0.0
C1814 C 0.83834 0.67189 0.52823 0.0
C1815 C 0.86989 0.71521 0.50166 0.0
C1816 C 0.81169 0.661 0.51361 0.0
C1817 C 0.81387 0.67657 0.49341 0.0
loop_
_geom_bond_atom_site_label_1
_geom_bond_atom_site_label_2
_geom_bond_distance
_geom_bond_site_symmetry_2
_ccdc_geom_bond_type
H0 C3 0.929 . S
H1 C6 0.929 . S
H2 C8 0.930 . S
C3 H0 0.929 . S
C3 C4 1.398 . S
C3 C5 1.396 . S
C4 C3 1.398 . S
C4 C8 1.407 . S
C5 C3 1.396 . S
C5 C6 1.394 . S
C6 H1 0.929 . S
C6 C5 1.394 . S
C6 C7 1.382 . S
C7 C6 1.382 . S
C7 C8 1.392 . S
C7 N9 1.420 . S
C8 H2 0.930 . S
C8 C4 1.407 . S
C8 C7 1.392 . S
N9 C7 1.420 . S
N9 C10 1.244 . S
C10 N9 1.244 . S
H11 C14 0.929 . S
H12 C17 0.929 . S
H13 C19 0.930 . S
C14 H11 0.929 . S
C14 C15 1.398 . S
C14 C16 1.396 . S
C15 C14 1.398 . S
C15 C19 1.407 . S
C16 C14 1.396 . S
C16 C17 1.394 . S
C17 H12 0.929 . S
C17 C16 1.394 . S
C17 C18 1.382 . S
C18 C17 1.382 . S
C18 C19 1.392 . S
C18 N20 1.420 . S
C19 H13 0.930 . S
C19 C15 1.407 . S
C19 C18 1.392 . S
N20 C18 1.420 . S
N20 C21 1.244 . S
C21 N20 1.244 . S
H22 C25 0.929 . S
H23 C28 0.929 . S
H24 C30 0.930 . S
C25 H22 0.929 . S
C25 C26 1.398 . S
C25 C27 1.396 . S
C26 C25 1.398 . S
C26 C30 1.407 . S
C27 C25 1.396 . S
C27 C28 1.394 . S
C28 H23 0.929 . S
C28 C27 1.394 . S
C28 C29 1.382 . S
C29 C28 1.382 . S
C29 C30 1.392 . S
C29 N31 1.420 . S
C30 H24 0.930 . S
C30 C26 1.407 . S
C30 C29 1.392 . S
N31 C29 1.420 . S
N31 C32 1.244 . S
C32 N31 1.244 . S
H33 C36 0.929 . S
H34 C39 0.929 . S
H35 C41 0.930 . S
C36 H33 0.929 . S
C36 C37 1.398 . S
C36 C38 1.396 . S
C37 C36 1.398 . S
C37 C41 1.407 . S
C38 C36 1.396 . S
C38 C39 1.394 . S
C39 H34 0.929 . S
C39 C38 1.394 . S
C39 C40 1.382 . S
C40 C39 1.382 . S
C40 C41 1.392 . S
C40 N42 1.420 . S
C41 H35 0.930 . S
C41 C37 1.407 . S
C41 C40 1.392 . S
N42 C40 1.420 . S
N42 C43 1.244 . S
C43 N42 1.244 . S
H44 C47 0.929 . S
H45 C50 0.929 . S
H46 C52 0.930 . S
C47 H44 0.929 . S
C47 C48 1.398 . S
C47 C49 1.396 . S
C48 C47 1.398 . S
C48 C52 1.407 . S
C49 C47 1.396 . S
C49 C50 1.394 . S
C50 H45 0.929 . S
C50 C49 1.394 . S
C50 C51 1.382 . S
C51 C50 1.382 . S
C51 C52 1.392 . S
C51 N53 1.420 . S
C52 H46 0.930 . S
C52 C48 1.407 . S
C52 C51 1.392 . S
N53 C51 1.420 . S
N53 C54 1.244 . S
C54 N53 1.244 . S
H55 C58 0.929 . S
H56 C61 0.929 . S
H57 C63 0.930 . S
C58 H55 0.929 . S
C58 C59 1.398 . S
C58 C60 1.396 . S
C59 C58 1.398 . S
C59 C63 1.407 . S
C60 C58 1.396 . S
C60 C61 1.394 . S
C61 H56 0.929 . S
C61 C60 1.394 . S
C61 C62 1.382 . S
C62 C61 1.382 . S
C62 C63 1.392 . S
C62 N64 1.420 . S
C63 H57 0.930 . S
C63 C59 1.407 . S
C63 C62 1.392 . S
N64 C62 1.420 . S
N64 C65 1.244 . S
C65 N64 1.244 . S
H66 C69 0.929 . S
H67 C72 0.929 . S
H68 C74 0.930 . S
C69 H66 0.929 . S
C69 C70 1.398 . S
C69 C71 1.396 . S
C70 C69 1.398 . S
C70 C74 1.407 . S
C71 C69 1.396 . S
C71 C72 1.394 . S
C72 H67 0.929 . S
C72 C71 1.394 . S
C72 C73 1.382 . S
C73 C72 1.382 . S
C73 C74 1.392 . S
C73 N75 1.420 . S
C74 H68 0.930 . S
C74 C70 1.407 . S
C74 C73 1.392 . S
N75 C73 1.420 . S
N75 C76 1.244 . S
C76 N75 1.244 . S
H77 C80 0.929 . S
H78 C83 0.929 . S
H79 C85 0.930 . S
C80 H77 0.929 . S
C80 C81 1.398 . S
C80 C82 1.396 . S
C81 C80 1.398 . S
C81 C85 1.407 . S
C82 C80 1.396 . S
C82 C83 1.394 . S
C83 H78 0.929 . S
C83 C82 1.394 . S
C83 C84 1.382 . S
C84 C83 1.382 . S
C84 C85 1.392 . S
C84 N86 1.420 . S
C85 H79 0.930 . S
C85 C81 1.407 . S
C85 C84 1.392 . S
N86 C84 1.420 . S
N86 C87 1.244 . S
C87 N86 1.244 . S
H88 C91 0.929 . S
H89 C94 0.929 . S
H90 C96 0.930 . S
C91 H88 0.929 . S
C91 C92 1.398 . S
C91 C93 1.396 . S
C92 C91 1.398 . S
C92 C96 1.407 . S
C93 C91 1.396 . S
C93 C94 1.394 . S
C94 H89 0.929 . S
C94 C93 1.394 . S
C94 C95 1.382 . S
C95 C94 1.382 . S
C95 C96 1.392 . S
C95 N97 1.420 . S
C96 H90 0.930 . S
C96 C92 1.407 . S
C96 C95 1.392 . S
N97 C95 1.420 . S
N97 C98 1.244 . S
C98 N97 1.244 . S
H99 C102 0.929 . S
H100 C105 0.929 . S
H101 C107 0.930 . S
C102 H99 0.929 . S
C102 C103 1.398 . S
C102 C104 1.396 . S
C103 C102 1.398 . S
C103 C107 1.407 . S
C104 C102 1.396 . S
C104 C105 1.394 . S
C105 H100 0.929 . S
C105 C104 1.394 . S
C105 C106 1.382 . S
C106 C105 1.382 . S
C106 C107 1.392 . S
C106 N108 1.420 . S
C107 H101 0.930 . S
C107 C103 1.407 . S
C107 C106 1.392 . S
N108 C106 1.420 . S
N108 C109 1.244 . S
C109 N108 1.244 . S
H110 C113 0.929 . S
H111 C116 0.929 . S
H112 C118 0.930 . S
C113 H110 0.929 . S
C113 C114 1.398 . S
C113 C115 1.396 . S
C114 C113 1.398 . S
C114 C118 1.407 . S
C115 C113 1.396 . S
C115 C116 1.394 . S
C116 H111 0.929 . S
C116 C115 1.394 . S
C116 C117 1.382 . S
C117 C116 1.382 . S
C117 C118 1.392 . S
C117 N119 1.420 . S
C118 H112 0.930 . S
C118 C114 1.407 . S
C118 C117 1.392 . S
N119 C117 1.420 . S
N119 C120 1.244 . S
C120 N119 1.244 . S
H121 C124 0.929 . S
H122 C127 0.929 . S
H123 C129 0.930 . S
C124 H121 0.929 . S
C124 C125 1.398 . S
C124 C126 1.396 . S
C125 C124 1.398 . S
C125 C129 1.407 . S
C126 C124 1.396 . S
C126 C127 1.394 . S
C127 H122 0.929 . S
C127 C126 1.394 . S
C127 C128 1.382 . S
C128 C127 1.382 . S
C128 C129 1.392 . S
C128 N130 1.420 . S
C129 H123 0.930 . S
C129 C125 1.407 . S
C129 C128 1.392 . S
N130 C128 1.420 . S
N130 C131 1.244 . S
C131 N130 1.244 . S
H132 C135 0.929 . S
H133 C138 0.929 . S
H134 C140 0.930 . S
C135 H132 0.929 . S
C135 C136 1.398 . S
C135 C137 1.396 . S
C136 C135 1.398 . S
C136 C140 1.407 . S
C137 C135 1.396 . S
C137 C138 1.394 . S
C138 H133 0.929 . S
C138 C137 1.394 . S
C138 C139 1.382 . S
C139 C138 1.382 . S
C139 C140 1.392 . S
C139 N141 1.420 . S
C140 H134 0.930 . S
C140 C136 1.407 . S
C140 C139 1.392 . S
N141 C139 1.420 . S
N141 C142 1.244 . S
C142 N141 1.244 . S
H143 C146 0.929 . S
H144 C149 0.929 . S
H145 C151 0.930 . S
C146 H143 0.929 . S
C146 C147 1.398 . S
C146 C148 1.396 . S
C147 C146 1.398 . S
C147 C151 1.407 . S
C148 C146 1.396 . S
C148 C149 1.394 . S
C149 H144 0.929 . S
C149 C148 1.394 . S
C149 C150 1.382 . S
C150 C149 1.382 . S
C150 C151 1.392 . S
C150 N152 1.420 . S
C151 H145 0.930 . S
C151 C147 1.407 . S
C151 C150 1.392 . S
N152 C150 1.420 . S
N152 C153 1.244 . S
C153 N152 1.244 . S
H154 C157 0.929 . S
H155 C160 0.929 . S
H156 C162 0.930 . S
C157 H154 0.929 . S
C157 C158 1.398 . S
C157 C159 1.396 . S
C158 C157 1.398 . S
C158 C162 1.407 . S
C159 C157 1.396 . S
C159 C160 1.394 . S
C160 H155 0.929 . S
C160 C159 1.394 . S
C160 C161 1.382 . S
C161 C160 1.382 . S
C161 C162 1.392 . S
C161 N163 1.420 . S
C162 H156 0.930 . S
C162 C158 1.407 . S
C162 C161 1.392 . S
N163 C161 1.420 . S
N163 C164 1.244 . S
C164 N163 1.244 . S
H165 C168 0.929 . S
H166 C171 0.929 . S
H167 C173 0.930 . S
C168 H165 0.929 . S
C168 C169 1.398 . S
C168 C170 1.396 . S
C169 C168 1.398 . S
C169 C173 1.407 . S
C170 C168 1.396 . S
C170 C171 1.394 . S
C171 H166 0.929 . S
C171 C170 1.394 . S
C171 C172 1.382 . S
C172 C171 1.382 . S
C172 C173 1.392 . S
C172 N174 1.420 . S
C173 H167 0.930 . S
C173 C169 1.407 . S
C173 C172 1.392 . S
N174 C172 1.420 . S
N174 C175 1.244 . S
C175 N174 1.244 . S
H176 C179 0.929 . S
H177 C182 0.929 . S
H178 C184 0.930 . S
C179 H176 0.929 . S
C179 C180 1.398 . S
C179 C181 1.396 . S
C180 C179 1.398 . S
C180 C184 1.407 . S
C181 C179 1.396 . S
C181 C182 1.394 . S
C182 H177 0.929 . S
C182 C181 1.394 . S
C182 C183 1.382 . S
C183 C182 1.382 . S
C183 C184 1.392 . S
C183 N185 1.420 . S
C184 H178 0.930 . S
C184 C180 1.407 . S
C184 C183 1.392 . S
N185 C183 1.420 . S
N185 C186 1.244 . S
C186 N185 1.244 . S
H187 C190 0.929 . S
H188 C193 0.929 . S
H189 C195 0.930 . S
C190 H187 0.929 . S
C190 C191 1.398 . S
C190 C192 1.396 . S
C191 C190 1.398 . S
C191 C195 1.407 . S
C192 C190 1.396 . S
C192 C193 1.394 . S
C193 H188 0.929 . S
C193 C192 1.394 . S
C193 C194 1.382 . S
C194 C193 1.382 . S
C194 C195 1.392 . S
C194 N196 1.420 . S
C195 H189 0.930 . S
C195 C191 1.407 . S
C195 C194 1.392 . S
N196 C194 1.420 . S
N196 C197 1.244 . S
C197 N196 1.244 . S
Gd198 N229 2.661 . S
Gd198 N235 2.601 . S
Gd198 O242 2.545 . S
Gd198 O243 2.606 1_545 S
Gd198 O245 2.429 . S
Gd198 O246 2.545 1_545 S
Gd198 O247 2.412 1_545 S
Gd198 O249 2.362 . S
Gd198 O250 2.324 1_545 S
Gd198 C257 2.828 . S
Gd199 N208 2.661 . S
Gd199 N212 2.601 . S
Gd199 O243 2.362 1_556 S
Gd199 O244 2.324 1_565 S
Gd199 O248 2.545 . S
Gd199 O249 2.606 1_566 S
Gd199 O251 2.429 . S
Gd199 O252 2.545 1_565 S
Gd199 O253 2.412 1_565 S
Gd199 C266 2.828 . S
C200 C203 1.417 . S
C200 C205 1.431 . S
C200 C206 1.412 . S
C201 C204 1.437 . S
C201 C205 1.317 . S
C201 H220 0.929 . S
C202 C203 1.426 . S
C202 C204 1.413 . S
C202 N212 1.359 . S
C203 C200 1.417 . S
C203 C202 1.426 . S
C203 N208 1.350 . S
C204 C201 1.437 . S
C204 C202 1.413 . S
C204 C214 1.391 . S
C205 C200 1.431 . S
C205 C201 1.317 . S
C205 H216 0.930 . S
C206 C200 1.412 . S
C206 C207 1.355 . S
C206 H218 0.930 . S
C207 C206 1.355 . S
C207 C209 1.402 . S
C207 H219 0.930 . S
N208 Gd199 2.661 . S
N208 C203 1.350 . S
N208 C209 1.307 . S
C209 C207 1.402 . S
C209 N208 1.307 . S
C209 H210 0.930 . S
H210 C209 0.930 . S
C211 N212 1.334 . S
C211 C213 1.394 . S
C211 H215 0.930 . S
N212 Gd199 2.601 . S
N212 C202 1.359 . S
N212 C211 1.334 . S
C213 C211 1.394 . S
C213 C214 1.359 . S
C213 H225 0.930 . S
C214 C204 1.391 . S
C214 C213 1.359 . S
C214 H226 0.929 . S
H215 C211 0.930 . S
H216 C205 0.930 . S
H217 C234 0.930 . S
H218 C206 0.930 . S
H219 C207 0.930 . S
H220 C201 0.929 . S
H221 C239 0.930 . S
H222 C230 0.930 . S
H223 C231 0.930 . S
H224 C255 0.929 . S
H225 C213 0.930 . S
H226 C214 0.929 . S
H227 C256 0.930 . S
H228 C237 0.930 . S
N229 Gd198 2.661 . S
N229 C233 1.350 . S
N229 C234 1.307 . S
C230 H222 0.930 . S
C230 C231 1.355 . S
C230 C232 1.412 . S
C231 H223 0.930 . S
C231 C230 1.355 . S
C231 C234 1.402 . S
C232 C230 1.412 . S
C232 C233 1.417 . S
C232 C256 1.431 . S
C233 N229 1.350 . S
C233 C232 1.417 . S
C233 C236 1.426 . S
C234 H217 0.930 . S
C234 N229 1.307 . S
C234 C231 1.402 . S
N235 Gd198 2.601 . S
N235 C236 1.359 . S
N235 C239 1.334 . S
C236 C233 1.426 . S
C236 N235 1.359 . S
C236 C240 1.413 . S
C237 H228 0.930 . S
C237 C238 1.359 . S
C237 C239 1.394 . S
C238 C237 1.359 . S
C238 C240 1.391 . S
C238 H241 0.929 . S
C239 H221 0.930 . S
C239 N235 1.334 . S
C239 C237 1.394 . S
C240 C236 1.413 . S
C240 C238 1.391 . S
C240 C255 1.437 . S
H241 C238 0.929 . S
O242 Gd198 2.545 . S
O242 C257 1.258 . S
O243 Gd198 2.606 1_565 S
O243 Gd199 2.362 1_554 S
O243 C254 1.284 . S
O244 Gd199 2.324 1_545 S
O244 C264 1.286 . S
O245 Gd198 2.429 . S
O245 C264 1.221 1_554 S
O246 Gd198 2.545 1_565 S
O246 C254 1.250 . S
O247 Gd198 2.412 1_565 S
O247 C257 1.252 1_565 S
O248 Gd199 2.545 . S
O248 C266 1.258 . S
O249 Gd198 2.362 . S
O249 Gd199 2.606 1_544 S
O249 C265 1.284 1_554 S
O250 Gd198 2.324 1_565 S
O250 C273 1.254 . S
O251 Gd199 2.429 . S
O251 C273 1.268 1_556 S
O252 Gd199 2.545 1_545 S
O252 C265 1.250 . S
O253 Gd199 2.412 1_545 S
O253 C266 1.252 1_545 S
C254 O243 1.284 . S
C254 O246 1.250 . S
C255 H224 0.929 . S
C255 C240 1.437 . S
C255 C256 1.317 . S
C256 H227 0.930 . S
C256 C232 1.431 . S
C256 C255 1.317 . S
C257 Gd198 2.828 . S
C257 O242 1.258 . S
C257 O247 1.252 1_545 S
C257 C258 1.497 1_545 S
C258 C257 1.497 1_565 S
C258 C259 1.392 1_565 S
C258 C260 1.383 . S
C259 C258 1.392 1_545 S
C259 C262 1.398 . S
C259 H274 0.930 . S
C260 C258 1.383 . S
C260 C261 1.391 . S
C260 H275 0.930 . S
C261 C260 1.391 . S
C261 C263 1.387 . S
C262 C259 1.398 . S
C262 C263 1.380 1_545 S
C262 H276 0.930 . S
C263 C261 1.387 . S
C263 C262 1.380 1_565 S
C263 H277 0.930 . S
C264 O244 1.286 . S
C264 O245 1.221 1_556 S
C265 O249 1.284 1_556 S
C265 O252 1.250 . S
C266 Gd199 2.828 . S
C266 O248 1.258 . S
C266 O253 1.252 1_565 S
C266 C267 1.497 1_565 S
C267 C266 1.497 1_545 S
C267 C268 1.395 1_545 S
C267 C269 1.380 . S
C268 C267 1.395 1_565 S
C268 C271 1.398 . S
C268 H278 0.930 . S
C269 C267 1.380 . S
C269 C270 1.391 . S
C269 H279 0.930 . S
C270 C269 1.391 . S
C270 C272 1.387 . S
C271 C268 1.398 . S
C271 C272 1.380 1_565 S
C271 H280 0.930 . S
C272 C270 1.387 . S
C272 C271 1.380 1_545 S
C272 H281 0.930 . S
C273 O250 1.254 . S
C273 O251 1.268 1_554 S
H274 C259 0.930 . S
H275 C260 0.930 . S
H276 C262 0.930 . S
H277 C263 0.930 . S
H278 C268 0.930 . S
H279 C269 0.930 . S
H280 C271 0.930 . S
H281 C272 0.930 . S
Gd282 N313 2.661 . S
Gd282 N319 2.601 . S
Gd282 O326 2.545 . S
Gd282 O327 2.606 1_655 S
Gd282 O329 2.429 . S
Gd282 O330 2.545 1_655 S
Gd282 O331 2.412 1_655 S
Gd282 O333 2.362 . S
Gd282 O334 2.324 1_655 S
Gd282 C341 2.828 . S
Gd283 N292 2.661 . S
Gd283 N296 2.601 . S
Gd283 O327 2.362 1_556 S
Gd283 O328 2.324 1_455 S
Gd283 O332 2.545 . S
Gd283 O333 2.606 1_456 S
Gd283 O335 2.429 . S
Gd283 O336 2.545 1_455 S
Gd283 O337 2.407 1_455 S
Gd283 C350 2.828 . S
C284 C287 1.417 . S
C284 C289 1.431 . S
C284 C290 1.412 . S
C285 C288 1.437 . S
C285 C289 1.317 . S
C285 H304 0.929 . S
C286 C287 1.426 . S
C286 C288 1.413 . S
C286 N296 1.359 . S
C287 C284 1.417 . S
C287 C286 1.426 . S
C287 N292 1.350 . S
C288 C285 1.437 . S
C288 C286 1.413 . S
C288 C298 1.391 . S
C289 C284 1.431 . S
C289 C285 1.317 . S
C289 H300 0.930 . S
C290 C284 1.412 . S
C290 C291 1.355 . S
C290 H302 0.930 . S
C291 C290 1.355 . S
C291 C293 1.402 . S
C291 H303 0.930 . S
N292 Gd283 2.661 . S
N292 C287 1.350 . S
N292 C293 1.307 . S
C293 C291 1.402 . S
C293 N292 1.307 . S
C293 H294 0.930 . S
H294 C293 0.930 . S
C295 N296 1.334 . S
C295 C297 1.394 . S
C295 H299 0.930 . S
N296 Gd283 2.601 . S
N296 C286 1.359 . S
N296 C295 1.334 . S
C297 C295 1.394 . S
C297 C298 1.359 . S
C297 H309 0.930 . S
C298 C288 1.391 . S
C298 C297 1.359 . S
C298 H310 0.929 . S
H299 C295 0.930 . S
H300 C289 0.930 . S
H301 C318 0.930 . S
H302 C290 0.930 . S
H303 C291 0.930 . S
H304 C285 0.929 . S
H305 C323 0.930 . S
H306 C314 0.930 . S
H307 C315 0.930 . S
H308 C339 0.929 . S
H309 C297 0.930 . S
H310 C298 0.929 . S
H311 C340 0.930 . S
H312 C321 0.930 . S
N313 Gd282 2.661 . S
N313 C317 1.350 . S
N313 C318 1.307 . S
C314 H306 0.930 . S
C314 C315 1.355 . S
C314 C316 1.412 . S
C315 H307 0.930 . S
C315 C314 1.355 . S
C315 C318 1.402 . S
C316 C314 1.412 . S
C316 C317 1.417 . S
C316 C340 1.431 . S
C317 N313 1.350 . S
C317 C316 1.417 . S
C317 C320 1.426 . S
C318 H301 0.930 . S
C318 N313 1.307 . S
C318 C315 1.402 . S
N319 Gd282 2.601 . S
N319 C320 1.359 . S
N319 C323 1.334 . S
C320 C317 1.426 . S
C320 N319 1.359 . S
C320 C324 1.413 . S
C321 H312 0.930 . S
C321 C322 1.359 . S
C321 C323 1.394 . S
C322 C321 1.359 . S
C322 C324 1.391 . S
C322 H325 0.929 . S
C323 H305 0.930 . S
C323 N319 1.334 . S
C323 C321 1.394 . S
C324 C320 1.413 . S
C324 C322 1.391 . S
C324 C339 1.437 . S
H325 C322 0.929 . S
O326 Gd282 2.545 . S
O326 C341 1.258 . S
O327 Gd282 2.606 1_455 S
O327 Gd283 2.362 1_554 S
O327 C338 1.284 . S
O328 Gd283 2.324 1_655 S
O328 C348 1.254 . S
O329 Gd282 2.429 . S
O329 C348 1.268 1_554 S
O330 Gd282 2.545 1_455 S
O330 C338 1.250 . S
O331 Gd282 2.412 1_455 S
O331 C341 1.252 1_455 S
O332 Gd283 2.545 . S
O332 C350 1.258 . S
O333 Gd282 2.362 . S
O333 Gd283 2.606 1_654 S
O333 C349 1.284 1_554 S
O334 Gd282 2.324 1_455 S
O334 C357 1.254 . S
O335 Gd283 2.429 . S
O335 C357 1.268 1_556 S
O336 Gd283 2.545 1_655 S
O336 C349 1.250 . S
O337 Gd283 2.407 1_655 S
O337 C350 1.254 1_655 S
C338 O327 1.284 . S
C338 O330 1.250 . S
C339 H308 0.929 . S
C339 C324 1.437 . S
C339 C340 1.317 . S
C340 H311 0.930 . S
C340 C316 1.431 . S
C340 C339 1.317 . S
C341 Gd282 2.828 . S
C341 O326 1.258 . S
C341 O331 1.252 1_655 S
C341 C342 1.497 1_655 S
C342 C341 1.497 1_455 S
C342 C343 1.395 1_455 S
C342 C344 1.380 . S
C343 C342 1.395 1_655 S
C343 C346 1.398 . S
C343 H358 0.930 . S
C344 C342 1.380 . S
C344 C345 1.391 . S
C344 H359 0.930 . S
C345 C344 1.391 . S
C345 C347 1.387 . S
C346 C343 1.398 . S
C346 C347 1.380 1_655 S
C346 H360 0.930 . S
C347 C345 1.387 . S
C347 C346 1.380 1_455 S
C347 H361 0.930 . S
C348 O328 1.254 . S
C348 O329 1.268 1_556 S
C349 O333 1.284 1_556 S
C349 O336 1.250 . S
C350 Gd283 2.828 . S
C350 O332 1.258 . S
C350 O337 1.254 1_455 S
C350 C351 1.497 . S
C351 C350 1.497 . S
C351 C352 1.395 . S
C351 C353 1.380 1_455 S
C352 C351 1.395 . S
C352 C355 1.398 . S
C352 H362 0.930 . S
C353 C351 1.380 1_655 S
C353 C354 1.391 . S
C353 H363 0.930 . S
C354 C353 1.391 . S
C354 C356 1.387 . S
C355 C352 1.398 . S
C355 C356 1.380 1_455 S
C355 H364 0.930 . S
C356 C354 1.387 . S
C356 C355 1.380 1_655 S
C356 H365 0.930 . S
C357 O334 1.254 . S
C357 O335 1.268 1_554 S
H358 C343 0.930 . S
H359 C344 0.930 . S
H360 C346 0.930 . S
H361 C347 0.930 . S
H362 C352 0.930 . S
H363 C353 0.930 . S
H364 C355 0.930 . S
H365 C356 0.930 . S
Gd366 N397 2.661 . S
Gd366 N403 2.601 . S
Gd366 O410 2.545 . S
Gd366 O411 2.606 1_556 S
Gd366 O413 2.429 . S
Gd366 O414 2.545 . S
Gd366 O415 2.412 . S
Gd366 O417 2.362 1_556 S
Gd366 O418 2.324 . S
Gd366 C425 2.828 . S
Gd367 N376 2.661 . S
Gd367 N380 2.601 . S
Gd367 O411 2.362 . S
Gd367 O412 2.324 . S
Gd367 O416 2.545 . S
Gd367 O417 2.606 . S
Gd367 O419 2.429 . S
Gd367 O420 2.545 . S
Gd367 O421 2.412 . S
Gd367 C434 2.828 . S
C368 C371 1.417 . S
C368 C373 1.431 . S
C368 C374 1.412 . S
C369 C372 1.437 . S
C369 C373 1.317 . S
C369 H388 0.929 . S
C370 C371 1.426 . S
C370 C372 1.413 . S
C370 N380 1.359 . S
C371 C368 1.417 . S
C371 C370 1.426 . S
C371 N376 1.350 . S
C372 C369 1.437 . S
C372 C370 1.413 . S
C372 C382 1.391 . S
C373 C368 1.431 . S
C373 C369 1.317 . S
C373 H384 0.930 . S
C374 C368 1.412 . S
C374 C375 1.355 . S
C374 H386 0.930 . S
C375 C374 1.355 . S
C375 C377 1.402 . S
C375 H387 0.930 . S
N376 Gd367 2.661 . S
N376 C371 1.350 . S
N376 C377 1.307 . S
C377 C375 1.402 . S
C377 N376 1.307 . S
C377 H378 0.930 . S
H378 C377 0.930 . S
C379 N380 1.334 . S
C379 C381 1.394 . S
C379 H383 0.930 . S
N380 Gd367 2.601 . S
N380 C370 1.359 . S
N380 C379 1.334 . S
C381 C379 1.394 . S
C381 C382 1.359 . S
C381 H393 0.930 . S
C382 C372 1.391 . S
C382 C381 1.359 . S
C382 H394 0.929 . S
H383 C379 0.930 . S
H384 C373 0.930 . S
H385 C402 0.930 . S
H386 C374 0.930 . S
H387 C375 0.930 . S
H388 C369 0.929 . S
H389 C407 0.930 . S
H390 C398 0.930 . S
H391 C399 0.930 . S
H392 C423 0.929 . S
H393 C381 0.930 . S
H394 C382 0.929 . S
H395 C424 0.930 . S
H396 C405 0.930 . S
N397 Gd366 2.661 . S
N397 C401 1.350 . S
N397 C402 1.307 . S
C398 H390 0.930 . S
C398 C399 1.355 . S
C398 C400 1.412 . S
C399 H391 0.930 . S
C399 C398 1.355 . S
C399 C402 1.402 . S
C400 C398 1.412 . S
C400 C401 1.417 . S
C400 C424 1.431 . S
C401 N397 1.350 . S
C401 C400 1.417 . S
C401 C404 1.426 . S
C402 H385 0.930 . S
C402 N397 1.307 . S
C402 C399 1.402 . S
N403 Gd366 2.601 . S
N403 C404 1.359 . S
N403 C407 1.334 . S
C404 C401 1.426 . S
C404 N403 1.359 . S
C404 C408 1.413 . S
C405 H396 0.930 . S
C405 C406 1.359 . S
C405 C407 1.394 . S
C406 C405 1.359 . S
C406 C408 1.391 . S
C406 H409 0.929 . S
C407 H389 0.930 . S
C407 N403 1.334 . S
C407 C405 1.394 . S
C408 C404 1.413 . S
C408 C406 1.391 . S
C408 C423 1.437 . S
H409 C406 0.929 . S
O410 Gd366 2.545 . S
O410 C425 1.258 . S
O411 Gd366 2.606 1_554 S
O411 Gd367 2.362 . S
O411 C422 1.284 1_554 S
O412 Gd367 2.324 . S
O412 C432 1.254 . S
O413 Gd366 2.429 . S
O413 C432 1.268 1_556 S
O414 Gd366 2.545 . S
O414 C422 1.250 . S
O415 Gd366 2.412 . S
O415 C425 1.252 . S
O416 Gd367 2.545 . S
O416 C434 1.258 . S
O417 Gd366 2.362 1_554 S
O417 Gd367 2.606 . S
O417 C433 1.284 . S
O418 Gd366 2.324 . S
O418 C441 1.268 . S
O419 Gd367 2.429 . S
O419 C441 1.247 1_554 S
O420 Gd367 2.545 . S
O420 C433 1.250 . S
O421 Gd367 2.412 . S
O421 C434 1.252 . S
C422 O411 1.284 1_556 S
C422 O414 1.250 . S
C423 H392 0.929 . S
C423 C408 1.437 . S
C423 C424 1.317 . S
C424 H395 0.930 . S
C424 C400 1.431 . S
C424 C423 1.317 . S
C425 Gd366 2.828 . S
C425 O410 1.258 . S
C425 O415 1.252 . S
C425 C426 1.497 . S
C426 C425 1.497 . S
C426 C427 1.395 . S
C426 C428 1.380 . S
C427 C426 1.395 . S
C427 C430 1.398 . S
C427 H442 0.930 . S
C428 C426 1.380 . S
C428 C429 1.391 . S
C428 H443 0.930 . S
C429 C428 1.391 . S
C429 C431 1.387 . S
C430 C427 1.398 . S
C430 C431 1.380 . S
C430 H444 0.930 . S
C431 C429 1.387 . S
C431 C430 1.380 . S
C431 H445 0.930 . S
C432 O412 1.254 . S
C432 O413 1.268 1_554 S
C433 O417 1.284 . S
C433 O420 1.250 . S
C434 Gd367 2.828 . S
C434 O416 1.258 . S
C434 O421 1.252 . S
C434 C435 1.497 . S
C435 C434 1.497 . S
C435 C436 1.395 . S
C435 C437 1.380 . S
C436 C435 1.395 . S
C436 C439 1.398 . S
C436 H446 0.930 . S
C437 C435 1.380 . S
C437 C438 1.391 . S
C437 H447 0.930 . S
C438 C437 1.391 . S
C438 C440 1.387 . S
C439 C436 1.398 . S
C439 C440 1.380 . S
C439 H448 0.930 . S
C440 C438 1.387 . S
C440 C439 1.380 . S
C440 H449 0.930 . S
C441 O418 1.268 . S
C441 O419 1.247 1_556 S
H442 C427 0.930 . S
H443 C428 0.930 . S
H444 C430 0.930 . S
H445 C431 0.930 . S
H446 C436 0.930 . S
H447 C437 0.930 . S
H448 C439 0.930 . S
H449 C440 0.930 . S
Gd450 N481 2.661 . S
Gd450 N487 2.601 . S
Gd450 O494 2.545 . S
Gd450 O495 2.606 . S
Gd450 O497 2.429 . S
Gd450 O498 2.545 . S
Gd450 O499 2.412 . S
Gd450 O501 2.362 . S
Gd450 O502 2.324 . S
Gd450 C509 2.828 . S
Gd451 N460 2.661 . S
Gd451 N464 2.601 . S
Gd451 O495 2.362 . S
Gd451 O496 2.324 . S
Gd451 O500 2.545 . S
Gd451 O501 2.606 . S
Gd451 O503 2.429 . S
Gd451 O504 2.545 . S
Gd451 O505 2.412 . S
Gd451 C518 2.828 . S
C452 C455 1.417 . S
C452 C457 1.430 . S
C452 C458 1.390 1_455 S
C453 C456 1.437 . S
C453 C457 1.354 . S
C453 H472 0.929 . S
C454 C455 1.426 . S
C454 C456 1.413 . S
C454 N464 1.359 . S
C455 C452 1.417 . S
C455 C454 1.426 . S
C455 N460 1.350 . S
C456 C453 1.437 . S
C456 C454 1.413 . S
C456 C466 1.391 . S
C457 C452 1.430 . S
C457 C453 1.354 . S
C457 H468 0.894 1_455 S
C458 C452 1.390 1_655 S
C458 C459 1.354 1_655 S
C458 H470 0.952 . S
C459 C458 1.354 1_455 S
C459 C461 1.402 . S
C459 H471 0.930 . S
N460 Gd451 2.661 . S
N460 C455 1.350 . S
N460 C461 1.307 . S
C461 C459 1.402 . S
C461 N460 1.307 . S
C461 H462 0.930 . S
H462 C461 0.930 . S
C463 N464 1.334 . S
C463 C465 1.394 . S
C463 H467 0.930 . S
N464 Gd451 2.601 . S
N464 C454 1.359 . S
N464 C463 1.334 . S
C465 C463 1.394 . S
C465 C466 1.359 . S
C465 H477 0.930 . S
C466 C456 1.391 . S
C466 C465 1.359 . S
C466 H478 0.929 . S
H467 C463 0.930 . S
H468 C457 0.894 1_655 S
H469 C486 0.930 . S
H470 C458 0.952 . S
H471 C459 0.930 . S
H472 C453 0.929 . S
H473 C491 0.930 . S
H474 C482 0.930 . S
H475 C483 0.930 . S
H476 C507 0.929 . S
H477 C465 0.930 . S
H478 C466 0.929 . S
H479 C508 0.930 . S
H480 C489 0.930 . S
N481 Gd450 2.661 . S
N481 C485 1.350 . S
N481 C486 1.307 . S
C482 H474 0.930 . S
C482 C483 1.355 . S
C482 C484 1.412 . S
C483 H475 0.930 . S
C483 C482 1.355 . S
C483 C486 1.402 . S
C484 C482 1.412 . S
C484 C485 1.417 . S
C484 C508 1.431 . S
C485 N481 1.350 . S
C485 C484 1.417 . S
C485 C488 1.426 . S
C486 H469 0.930 . S
C486 N481 1.307 . S
C486 C483 1.402 . S
N487 Gd450 2.601 . S
N487 C488 1.359 . S
N487 C491 1.334 . S
C488 C485 1.426 . S
C488 N487 1.359 . S
C488 C492 1.413 . S
C489 H480 0.930 . S
C489 C490 1.359 . S
C489 C491 1.394 . S
C490 C489 1.359 . S
C490 C492 1.391 . S
C490 H493 0.929 . S
C491 H473 0.930 . S
C491 N487 1.334 . S
C491 C489 1.394 . S
C492 C488 1.413 . S
C492 C490 1.391 . S
C492 C507 1.437 . S
H493 C490 0.929 . S
O494 Gd450 2.545 . S
O494 C509 1.258 . S
O495 Gd450 2.606 . S
O495 Gd451 2.362 . S
O495 C506 1.284 . S
O496 Gd451 2.324 . S
O496 C516 1.254 . S
O497 Gd450 2.429 . S
O497 C516 1.268 . S
O498 Gd450 2.545 . S
O498 C506 1.250 . S
O499 Gd450 2.412 . S
O499 C509 1.252 . S
O500 Gd451 2.545 . S
O500 C518 1.258 . S
O501 Gd450 2.362 . S
O501 Gd451 2.606 . S
O501 C517 1.284 . S
O502 Gd450 2.324 . S
O502 C525 1.254 . S
O503 Gd451 2.429 . S
O503 C525 1.268 . S
O504 Gd451 2.545 . S
O504 C517 1.250 . S
O505 Gd451 2.412 . S
O505 C518 1.252 . S
C506 O495 1.284 . S
C506 O498 1.250 . S
C507 H476 0.929 . S
C507 C492 1.437 . S
C507 C508 1.317 . S
C508 H479 0.930 . S
C508 C484 1.431 . S
C508 C507 1.317 . S
C509 Gd450 2.828 . S
C509 O494 1.258 . S
C509 O499 1.252 . S
C509 C510 1.497 . S
C510 C509 1.497 . S
C510 C511 1.395 . S
C510 C512 1.380 . S
C511 C510 1.395 . S
C511 C514 1.398 . S
C511 H526 0.930 . S
C512 C510 1.380 . S
C512 C513 1.391 . S
C512 H527 0.930 . S
C513 C512 1.391 . S
C513 C515 1.387 . S
C514 C511 1.398 . S
C514 C515 1.380 . S
C514 H528 0.930 . S
C515 C513 1.387 . S
C515 C514 1.380 . S
C515 H529 0.930 . S
C516 O496 1.254 . S
C516 O497 1.268 . S
C517 O501 1.284 . S
C517 O504 1.250 . S
C518 Gd451 2.828 . S
C518 O500 1.258 . S
C518 O505 1.252 . S
C518 C519 1.497 . S
C519 C518 1.497 . S
C519 C520 1.395 . S
C519 C521 1.380 . S
C520 C519 1.395 . S
C520 C523 1.398 . S
C520 H530 0.930 . S
C521 C519 1.380 . S
C521 C522 1.391 . S
C521 H531 0.930 . S
C522 C521 1.391 . S
C522 C524 1.387 . S
C523 C520 1.398 . S
C523 C524 1.380 . S
C523 H532 0.930 . S
C524 C522 1.387 . S
C524 C523 1.380 . S
C524 H533 0.930 . S
C525 O502 1.254 . S
C525 O503 1.268 . S
H526 C511 0.930 . S
H527 C512 0.930 . S
H528 C514 0.930 . S
H529 C515 0.930 . S
H530 C520 0.930 . S
H531 C521 0.930 . S
H532 C523 0.930 . S
H533 C524 0.930 . S
Gd534 N565 2.661 . S
Gd534 N571 2.601 . S
Gd534 O578 2.545 . S
Gd534 O579 2.606 . S
Gd534 O581 2.429 . S
Gd534 O582 2.545 . S
Gd534 O583 2.412 . S
Gd534 O585 2.362 . S
Gd534 O586 2.324 . S
Gd534 C593 2.828 . S
Gd535 N544 2.661 . S
Gd535 N548 2.601 . S
Gd535 O579 2.362 . S
Gd535 O580 2.324 . S
Gd535 O584 2.545 . S
Gd535 O585 2.606 . S
Gd535 O587 2.429 . S
Gd535 O588 2.545 . S
Gd535 O589 2.412 . S
Gd535 C602 2.828 . S
C536 C539 1.417 . S
C536 C541 1.431 . S
C536 C542 1.412 . S
C537 C540 1.437 . S
C537 C541 1.317 . S
C537 H556 0.929 . S
C538 C539 1.426 . S
C538 C540 1.413 . S
C538 N548 1.359 . S
C539 C536 1.417 . S
C539 C538 1.426 . S
C539 N544 1.350 . S
C540 C537 1.437 . S
C540 C538 1.413 . S
C540 C550 1.391 . S
C541 C536 1.431 . S
C541 C537 1.317 . S
C541 H552 0.930 . S
C542 C536 1.412 . S
C542 C543 1.355 . S
C542 H554 0.930 . S
C543 C542 1.355 . S
C543 C545 1.402 . S
C543 H555 0.930 . S
N544 Gd535 2.661 . S
N544 C539 1.350 . S
N544 C545 1.307 . S
C545 C543 1.402 . S
C545 N544 1.307 . S
C545 H546 0.930 . S
H546 C545 0.930 . S
C547 N548 1.334 . S
C547 C549 1.394 . S
C547 H551 0.930 . S
N548 Gd535 2.601 . S
N548 C538 1.359 . S
N548 C547 1.334 . S
C549 C547 1.394 . S
C549 C550 1.359 . S
C549 H561 0.930 . S
C550 C540 1.391 . S
C550 C549 1.359 . S
C550 H562 0.929 . S
H551 C547 0.930 . S
H552 C541 0.930 . S
H553 C570 0.930 . S
H554 C542 0.930 . S
H555 C543 0.930 . S
H556 C537 0.929 . S
H557 C575 0.930 . S
H558 C566 0.930 . S
H559 C567 0.930 . S
H560 C591 0.929 . S
H561 C549 0.930 . S
H562 C550 0.929 . S
H563 C592 0.930 . S
H564 C573 0.930 . S
N565 Gd534 2.661 . S
N565 C569 1.350 . S
N565 C570 1.307 . S
C566 H558 0.930 . S
C566 C567 1.355 . S
C566 C568 1.412 . S
C567 H559 0.930 . S
C567 C566 1.355 . S
C567 C570 1.402 . S
C568 C566 1.412 . S
C568 C569 1.417 . S
C568 C592 1.431 . S
C569 N565 1.350 . S
C569 C568 1.417 . S
C569 C572 1.426 . S
C570 H553 0.930 . S
C570 N565 1.307 . S
C570 C567 1.402 . S
N571 Gd534 2.601 . S
N571 C572 1.359 . S
N571 C575 1.334 . S
C572 C569 1.426 . S
C572 N571 1.359 . S
C572 C576 1.413 . S
C573 H564 0.930 . S
C573 C574 1.359 . S
C573 C575 1.394 . S
C574 C573 1.359 . S
C574 C576 1.391 . S
C574 H577 0.929 . S
C575 H557 0.930 . S
C575 N571 1.334 . S
C575 C573 1.394 . S
C576 C572 1.413 . S
C576 C574 1.391 . S
C576 C591 1.437 . S
H577 C574 0.929 . S
O578 Gd534 2.545 . S
O578 C593 1.258 . S
O579 Gd534 2.606 . S
O579 Gd535 2.362 . S
O579 C590 1.284 . S
O580 Gd535 2.324 . S
O580 C600 1.254 . S
O581 Gd534 2.429 . S
O581 C600 1.268 . S
O582 Gd534 2.545 . S
O582 C590 1.250 . S
O583 Gd534 2.412 . S
O583 C593 1.252 . S
O584 Gd535 2.545 . S
O584 C602 1.258 . S
O585 Gd534 2.362 . S
O585 Gd535 2.606 . S
O585 C601 1.284 . S
O586 Gd534 2.324 . S
O586 C609 1.254 . S
O587 Gd535 2.429 . S
O587 C609 1.268 . S
O588 Gd535 2.545 . S
O588 C601 1.250 . S
O589 Gd535 2.412 . S
O589 C602 1.252 . S
C590 O579 1.284 . S
C590 O582 1.250 . S
C591 H560 0.929 . S
C591 C576 1.437 . S
C591 C592 1.317 . S
C592 H563 0.930 . S
C592 C568 1.431 . S
C592 C591 1.317 . S
C593 Gd534 2.828 . S
C593 O578 1.258 . S
C593 O583 1.252 . S
C593 C594 1.497 . S
C594 C593 1.497 . S
C594 C595 1.395 . S
C594 C596 1.380 . S
C595 C594 1.395 . S
C595 C598 1.398 . S
C595 H610 0.930 . S
C596 C594 1.380 . S
C596 C597 1.391 . S
C596 H611 0.930 . S
C597 C596 1.391 . S
C597 C599 1.387 . S
C598 C595 1.398 . S
C598 C599 1.380 . S
C598 H612 0.930 . S
C599 C597 1.387 . S
C599 C598 1.380 . S
C599 H613 0.930 . S
C600 O580 1.254 . S
C600 O581 1.268 . S
C601 O585 1.284 . S
C601 O588 1.250 . S
C602 Gd535 2.828 . S
C602 O584 1.258 . S
C602 O589 1.252 . S
C602 C603 1.497 . S
C603 C602 1.497 . S
C603 C604 1.395 . S
C603 C605 1.380 . S
C604 C603 1.395 . S
C604 C607 1.398 . S
C604 H614 0.930 . S
C605 C603 1.380 . S
C605 C606 1.391 . S
C605 H615 0.930 . S
C606 C605 1.391 . S
C606 C608 1.387 . S
C607 C604 1.398 . S
C607 C608 1.380 . S
C607 H616 0.930 . S
C608 C606 1.387 . S
C608 C607 1.380 . S
C608 H617 0.930 . S
C609 O586 1.254 . S
C609 O587 1.268 . S
H610 C595 0.930 . S
H611 C596 0.930 . S
H612 C598 0.930 . S
H613 C599 0.930 . S
H614 C604 0.930 . S
H615 C605 0.930 . S
H616 C607 0.930 . S
H617 C608 0.930 . S
Gd618 N649 2.661 . S
Gd618 N655 2.601 . S
Gd618 O662 2.545 . S
Gd618 O663 2.606 . S
Gd618 O665 2.429 . S
Gd618 O666 2.545 . S
Gd618 O667 2.412 . S
Gd618 O669 2.362 . S
Gd618 O670 2.324 . S
Gd618 C677 2.828 . S
Gd619 N628 2.661 . S
Gd619 N632 2.601 . S
Gd619 O663 2.362 . S
Gd619 O664 2.324 . S
Gd619 O668 2.545 . S
Gd619 O669 2.606 . S
Gd619 O671 2.429 . S
Gd619 O672 2.545 . S
Gd619 O673 2.412 . S
Gd619 C686 2.828 . S
C620 C623 1.417 . S
C620 C625 1.431 . S
C620 C626 1.412 . S
C621 C624 1.437 . S
C621 C625 1.317 . S
C621 H640 0.929 . S
C622 C623 1.426 . S
C622 C624 1.413 . S
C622 N632 1.359 . S
C623 C620 1.417 . S
C623 C622 1.426 . S
C623 N628 1.350 . S
C624 C621 1.437 . S
C624 C622 1.413 . S
C624 C634 1.391 . S
C625 C620 1.431 . S
C625 C621 1.317 . S
C625 H636 0.930 . S
C626 C620 1.412 . S
C626 C627 1.355 . S
C626 H638 0.930 . S
C627 C626 1.355 . S
C627 C629 1.402 . S
C627 H639 0.930 . S
N628 Gd619 2.661 . S
N628 C623 1.350 . S
N628 C629 1.307 . S
C629 C627 1.402 . S
C629 N628 1.307 . S
C629 H630 0.930 . S
H630 C629 0.930 . S
C631 N632 1.334 . S
C631 C633 1.394 . S
C631 H635 0.930 . S
N632 Gd619 2.601 . S
N632 C622 1.359 . S
N632 C631 1.334 . S
C633 C631 1.394 . S
C633 C634 1.359 . S
C633 H645 0.930 . S
C634 C624 1.391 . S
C634 C633 1.359 . S
C634 H646 0.929 . S
H635 C631 0.930 . S
H636 C625 0.930 . S
H637 C654 0.930 . S
H638 C626 0.930 . S
H639 C627 0.930 . S
H640 C621 0.929 . S
H641 C659 0.930 . S
H642 C650 0.930 . S
H643 C651 0.930 . S
H644 C675 0.929 . S
H645 C633 0.930 . S
H646 C634 0.929 . S
H647 C676 0.930 . S
H648 C657 0.930 . S
N649 Gd618 2.661 . S
N649 C653 1.350 . S
N649 C654 1.307 . S
C650 H642 0.930 . S
C650 C651 1.355 . S
C650 C652 1.412 . S
C651 H643 0.930 . S
C651 C650 1.355 . S
C651 C654 1.402 . S
C652 C650 1.412 . S
C652 C653 1.417 . S
C652 C676 1.431 . S
C653 N649 1.350 . S
C653 C652 1.417 . S
C653 C656 1.426 . S
C654 H637 0.930 . S
C654 N649 1.307 . S
C654 C651 1.402 . S
N655 Gd618 2.601 . S
N655 C656 1.359 . S
N655 C659 1.334 . S
C656 C653 1.426 . S
C656 N655 1.359 . S
C656 C660 1.413 . S
C657 H648 0.930 . S
C657 C658 1.359 . S
C657 C659 1.394 . S
C658 C657 1.359 . S
C658 C660 1.391 . S
C658 H661 0.929 . S
C659 H641 0.930 . S
C659 N655 1.334 . S
C659 C657 1.394 . S
C660 C656 1.413 . S
C660 C658 1.391 . S
C660 C675 1.437 . S
H661 C658 0.929 . S
O662 Gd618 2.545 . S
O662 C677 1.258 . S
O663 Gd618 2.606 . S
O663 Gd619 2.362 . S
O663 C674 1.284 . S
O664 Gd619 2.324 . S
O664 C684 1.254 . S
O665 Gd618 2.429 . S
O665 C684 1.268 . S
O666 Gd618 2.545 . S
O666 C674 1.250 . S
O667 Gd618 2.412 . S
O667 C677 1.252 . S
O668 Gd619 2.545 . S
O668 C686 1.258 . S
O669 Gd618 2.362 . S
O669 Gd619 2.606 . S
O669 C685 1.284 . S
O670 Gd618 2.324 . S
O670 C693 1.254 . S
O671 Gd619 2.429 . S
O671 C693 1.268 . S
O672 Gd619 2.545 . S
O672 C685 1.250 . S
O673 Gd619 2.412 . S
O673 C686 1.252 . S
C674 O663 1.284 . S
C674 O666 1.250 . S
C675 H644 0.929 . S
C675 C660 1.437 . S
C675 C676 1.317 . S
C676 H647 0.930 . S
C676 C652 1.431 . S
C676 C675 1.317 . S
C677 Gd618 2.828 . S
C677 O662 1.258 . S
C677 O667 1.252 . S
C677 C678 1.497 . S
C678 C677 1.497 . S
C678 C679 1.395 . S
C678 C680 1.380 . S
C679 C678 1.395 . S
C679 C682 1.398 . S
C679 H694 0.930 . S
C680 C678 1.380 . S
C680 C681 1.391 . S
C680 H695 0.930 . S
C681 C680 1.391 . S
C681 C683 1.387 . S
C682 C679 1.398 . S
C682 C683 1.380 . S
C682 H696 0.930 . S
C683 C681 1.387 . S
C683 C682 1.380 . S
C683 H697 0.930 . S
C684 O664 1.254 . S
C684 O665 1.268 . S
C685 O669 1.284 . S
C685 O672 1.250 . S
C686 Gd619 2.828 . S
C686 O668 1.258 . S
C686 O673 1.252 . S
C686 C687 1.497 . S
C687 C686 1.497 . S
C687 C688 1.395 . S
C687 C689 1.380 . S
C688 C687 1.395 . S
C688 C691 1.398 . S
C688 H698 0.930 . S
C689 C687 1.380 . S
C689 C690 1.391 . S
C689 H699 0.930 . S
C690 C689 1.391 . S
C690 C692 1.387 . S
C691 C688 1.398 . S
C691 C692 1.380 . S
C691 H700 0.930 . S
C692 C690 1.387 . S
C692 C691 1.380 . S
C692 H701 0.930 . S
C693 O670 1.254 . S
C693 O671 1.268 . S
H694 C679 0.930 . S
H695 C680 0.930 . S
H696 C682 0.930 . S
H697 C683 0.930 . S
H698 C688 0.930 . S
H699 C689 0.930 . S
H700 C691 0.930 . S
H701 C692 0.930 . S
Gd702 N733 2.661 . S
Gd702 N739 2.601 . S
Gd702 O746 2.545 . S
Gd702 O747 2.606 . S
Gd702 O749 2.429 . S
Gd702 O750 2.545 . S
Gd702 O751 2.412 . S
Gd702 O753 2.362 . S
Gd702 O754 2.324 . S
Gd702 C761 2.828 . S
Gd703 N712 2.661 . S
Gd703 N716 2.601 . S
Gd703 O747 2.362 . S
Gd703 O748 2.324 . S
Gd703 O752 2.545 . S
Gd703 O753 2.606 . S
Gd703 O755 2.429 . S
Gd703 O756 2.545 . S
Gd703 O757 2.412 . S
Gd703 C770 2.828 . S
C704 C707 1.417 . S
C704 C709 1.431 . S
C704 C710 1.412 . S
C705 C708 1.437 . S
C705 C709 1.317 . S
C705 H724 0.929 . S
C706 C707 1.426 . S
C706 C708 1.413 . S
C706 N716 1.359 . S
C707 C704 1.417 . S
C707 C706 1.426 . S
C707 N712 1.350 . S
C708 C705 1.437 . S
C708 C706 1.413 . S
C708 C718 1.391 . S
C709 C704 1.431 . S
C709 C705 1.317 . S
C709 H720 0.930 . S
C710 C704 1.412 . S
C710 C711 1.355 . S
C710 H722 0.930 . S
C711 C710 1.355 . S
C711 C713 1.402 . S
C711 H723 0.930 . S
N712 Gd703 2.661 . S
N712 C707 1.350 . S
N712 C713 1.307 . S
C713 C711 1.402 . S
C713 N712 1.307 . S
C713 H714 0.930 . S
H714 C713 0.930 . S
C715 N716 1.334 . S
C715 C717 1.394 . S
C715 H719 0.930 . S
N716 Gd703 2.601 . S
N716 C706 1.359 . S
N716 C715 1.334 . S
C717 C715 1.394 . S
C717 C718 1.359 . S
C717 H729 0.930 . S
C718 C708 1.391 . S
C718 C717 1.359 . S
C718 H730 0.929 . S
H719 C715 0.930 . S
H720 C709 0.930 . S
H721 C738 0.930 . S
H722 C710 0.930 . S
H723 C711 0.930 . S
H724 C705 0.929 . S
H725 C743 0.930 . S
H726 C734 0.930 . S
H727 C735 0.930 . S
H728 C759 0.929 . S
H729 C717 0.930 . S
H730 C718 0.929 . S
H731 C760 0.930 . S
H732 C741 0.930 . S
N733 Gd702 2.661 . S
N733 C737 1.350 . S
N733 C738 1.307 . S
C734 H726 0.930 . S
C734 C735 1.355 . S
C734 C736 1.412 . S
C735 H727 0.930 . S
C735 C734 1.355 . S
C735 C738 1.402 . S
C736 C734 1.412 . S
C736 C737 1.417 . S
C736 C760 1.431 . S
C737 N733 1.350 . S
C737 C736 1.417 . S
C737 C740 1.426 . S
C738 H721 0.930 . S
C738 N733 1.307 . S
C738 C735 1.402 . S
N739 Gd702 2.601 . S
N739 C740 1.359 . S
N739 C743 1.334 . S
C740 C737 1.426 . S
C740 N739 1.359 . S
C740 C744 1.413 . S
C741 H732 0.930 . S
C741 C742 1.359 . S
C741 C743 1.394 . S
C742 C741 1.359 . S
C742 C744 1.391 . S
C742 H745 0.929 . S
C743 H725 0.930 . S
C743 N739 1.334 . S
C743 C741 1.394 . S
C744 C740 1.413 . S
C744 C742 1.391 . S
C744 C759 1.437 . S
H745 C742 0.929 . S
O746 Gd702 2.545 . S
O746 C761 1.258 . S
O747 Gd702 2.606 . S
O747 Gd703 2.362 . S
O747 C758 1.284 . S
O748 Gd703 2.324 . S
O748 C768 1.254 . S
O749 Gd702 2.429 . S
O749 C768 1.268 . S
O750 Gd702 2.545 . S
O750 C758 1.250 . S
O751 Gd702 2.412 . S
O751 C761 1.252 . S
O752 Gd703 2.545 . S
O752 C770 1.258 . S
O753 Gd702 2.362 . S
O753 Gd703 2.606 . S
O753 C769 1.284 . S
O754 Gd702 2.324 . S
O754 C777 1.254 . S
O755 Gd703 2.429 . S
O755 C777 1.268 . S
O756 Gd703 2.545 . S
O756 C769 1.250 . S
O757 Gd703 2.412 . S
O757 C770 1.252 . S
C758 O747 1.284 . S
C758 O750 1.250 . S
C759 H728 0.929 . S
C759 C744 1.437 . S
C759 C760 1.317 . S
C760 H731 0.930 . S
C760 C736 1.431 . S
C760 C759 1.317 . S
C761 Gd702 2.828 . S
C761 O746 1.258 . S
C761 O751 1.252 . S
C761 C762 1.497 . S
C762 C761 1.497 . S
C762 C763 1.395 . S
C762 C764 1.380 . S
C763 C762 1.395 . S
C763 C766 1.398 . S
C763 H778 0.930 . S
C764 C762 1.380 . S
C764 C765 1.391 . S
C764 H779 0.930 . S
C765 C764 1.391 . S
C765 C767 1.387 . S
C766 C763 1.398 . S
C766 C767 1.380 . S
C766 H780 0.930 . S
C767 C765 1.387 . S
C767 C766 1.380 . S
C767 H781 0.930 . S
C768 O748 1.254 . S
C768 O749 1.268 . S
C769 O753 1.284 . S
C769 O756 1.250 . S
C770 Gd703 2.828 . S
C770 O752 1.258 . S
C770 O757 1.252 . S
C770 C771 1.497 . S
C771 C770 1.497 . S
C771 C772 1.395 . S
C771 C773 1.380 . S
C772 C771 1.395 . S
C772 C775 1.398 . S
C772 H782 0.930 . S
C773 C771 1.380 . S
C773 C774 1.391 . S
C773 H783 0.930 . S
C774 C773 1.391 . S
C774 C776 1.387 . S
C775 C772 1.398 . S
C775 C776 1.380 . S
C775 H784 0.930 . S
C776 C774 1.387 . S
C776 C775 1.380 . S
C776 H785 0.930 . S
C777 O754 1.254 . S
C777 O755 1.268 . S
H778 C763 0.930 . S
H779 C764 0.930 . S
H780 C766 0.930 . S
H781 C767 0.930 . S
H782 C772 0.930 . S
H783 C773 0.930 . S
H784 C775 0.930 . S
H785 C776 0.930 . S
Gd786 N817 2.661 . S
Gd786 N823 2.601 . S
Gd786 O830 2.545 . S
Gd786 O831 2.606 . S
Gd786 O833 2.429 . S
Gd786 O834 2.545 . S
Gd786 O835 2.412 . S
Gd786 O837 2.362 . S
Gd786 O838 2.324 . S
Gd786 C845 2.828 . S
Gd787 N796 2.661 . S
Gd787 N800 2.601 . S
Gd787 O831 2.362 . S
Gd787 O832 2.324 . S
Gd787 O836 2.545 . S
Gd787 O837 2.606 . S
Gd787 O839 2.429 . S
Gd787 O840 2.545 . S
Gd787 O841 2.412 . S
Gd787 C854 2.828 . S
C788 C791 1.417 . S
C788 C793 1.431 . S
C788 C794 1.412 . S
C789 C792 1.437 . S
C789 C793 1.317 . S
C789 H808 0.929 . S
C790 C791 1.426 . S
C790 C792 1.413 . S
C790 N800 1.359 . S
C791 C788 1.417 . S
C791 C790 1.426 . S
C791 N796 1.350 . S
C792 C789 1.437 . S
C792 C790 1.413 . S
C792 C802 1.391 . S
C793 C788 1.431 . S
C793 C789 1.317 . S
C793 H804 0.930 . S
C794 C788 1.412 . S
C794 C795 1.355 . S
C794 H806 0.930 . S
C795 C794 1.355 . S
C795 C797 1.402 . S
C795 H807 0.930 . S
N796 Gd787 2.661 . S
N796 C791 1.350 . S
N796 C797 1.307 . S
C797 C795 1.402 . S
C797 N796 1.307 . S
C797 H798 0.930 . S
H798 C797 0.930 . S
C799 N800 1.334 . S
C799 C801 1.394 . S
C799 H803 0.930 . S
N800 Gd787 2.601 . S
N800 C790 1.359 . S
N800 C799 1.334 . S
C801 C799 1.394 . S
C801 C802 1.359 . S
C801 H813 0.930 . S
C802 C792 1.391 . S
C802 C801 1.359 . S
C802 H814 0.929 . S
H803 C799 0.930 . S
H804 C793 0.930 . S
H805 C822 0.930 . S
H806 C794 0.930 . S
H807 C795 0.930 . S
H808 C789 0.929 . S
H809 C827 0.930 . S
H810 C818 0.930 . S
H811 C819 0.930 . S
H812 C843 0.929 . S
H813 C801 0.930 . S
H814 C802 0.929 . S
H815 C844 0.930 . S
H816 C825 0.930 . S
N817 Gd786 2.661 . S
N817 C821 1.350 . S
N817 C822 1.307 . S
C818 H810 0.930 . S
C818 C819 1.355 . S
C818 C820 1.412 . S
C819 H811 0.930 . S
C819 C818 1.355 . S
C819 C822 1.402 . S
C820 C818 1.412 . S
C820 C821 1.417 . S
C820 C844 1.431 . S
C821 N817 1.350 . S
C821 C820 1.417 . S
C821 C824 1.426 . S
C822 H805 0.930 . S
C822 N817 1.307 . S
C822 C819 1.402 . S
N823 Gd786 2.601 . S
N823 C824 1.359 . S
N823 C827 1.334 . S
C824 C821 1.426 . S
C824 N823 1.359 . S
C824 C828 1.413 . S
C825 H816 0.930 . S
C825 C826 1.359 . S
C825 C827 1.394 . S
C826 C825 1.359 . S
C826 C828 1.391 . S
C826 H829 0.929 . S
C827 H809 0.930 . S
C827 N823 1.334 . S
C827 C825 1.394 . S
C828 C824 1.413 . S
C828 C826 1.391 . S
C828 C843 1.437 . S
H829 C826 0.929 . S
O830 Gd786 2.545 . S
O830 C845 1.258 . S
O831 Gd786 2.606 . S
O831 Gd787 2.362 . S
O831 C842 1.284 . S
O832 Gd787 2.324 . S
O832 C852 1.254 . S
O833 Gd786 2.429 . S
O833 C852 1.268 . S
O834 Gd786 2.545 . S
O834 C842 1.250 . S
O835 Gd786 2.412 . S
O835 C845 1.252 . S
O836 Gd787 2.545 . S
O836 C854 1.258 . S
O837 Gd786 2.362 . S
O837 Gd787 2.606 . S
O837 C853 1.284 . S
O838 Gd786 2.324 . S
O838 C861 1.254 . S
O839 Gd787 2.429 . S
O839 C861 1.268 . S
O840 Gd787 2.545 . S
O840 C853 1.250 . S
O841 Gd787 2.412 . S
O841 C854 1.252 . S
C842 O831 1.284 . S
C842 O834 1.250 . S
C843 H812 0.929 . S
C843 C828 1.437 . S
C843 C844 1.317 . S
C844 H815 0.930 . S
C844 C820 1.431 . S
C844 C843 1.317 . S
C845 Gd786 2.828 . S
C845 O830 1.258 . S
C845 O835 1.252 . S
C845 C846 1.497 . S
C846 C845 1.497 . S
C846 C847 1.395 . S
C846 C848 1.380 . S
C847 C846 1.395 . S
C847 C850 1.398 . S
C847 H862 0.930 . S
C848 C846 1.380 . S
C848 C849 1.391 . S
C848 H863 0.930 . S
C849 C848 1.391 . S
C849 C851 1.387 . S
C850 C847 1.398 . S
C850 C851 1.380 . S
C850 H864 0.930 . S
C851 C849 1.387 . S
C851 C850 1.380 . S
C851 H865 0.930 . S
C852 O832 1.254 . S
C852 O833 1.268 . S
C853 O837 1.284 . S
C853 O840 1.250 . S
C854 Gd787 2.828 . S
C854 O836 1.258 . S
C854 O841 1.252 . S
C854 C855 1.497 . S
C855 C854 1.497 . S
C855 C856 1.395 . S
C855 C857 1.380 . S
C856 C855 1.395 . S
C856 C859 1.398 . S
C856 H866 0.930 . S
C857 C855 1.380 . S
C857 C858 1.391 . S
C857 H867 0.930 . S
C858 C857 1.391 . S
C858 C860 1.387 . S
C859 C856 1.398 . S
C859 C860 1.380 . S
C859 H868 0.930 . S
C860 C858 1.387 . S
C860 C859 1.380 . S
C860 H869 0.930 . S
C861 O838 1.254 . S
C861 O839 1.268 . S
H862 C847 0.930 . S
H863 C848 0.930 . S
H864 C850 0.930 . S
H865 C851 0.930 . S
H866 C856 0.930 . S
H867 C857 0.930 . S
H868 C859 0.930 . S
H869 C860 0.930 . S
Gd870 N901 2.661 . S
Gd870 N907 2.601 . S
Gd870 O914 2.545 . S
Gd870 O915 2.606 . S
Gd870 O917 2.429 . S
Gd870 O918 2.545 . S
Gd870 O919 2.412 . S
Gd870 O921 2.362 . S
Gd870 O922 2.324 . S
Gd870 C929 2.828 . S
Gd871 N880 2.661 . S
Gd871 N884 2.601 . S
Gd871 O915 2.362 . S
Gd871 O916 2.324 . S
Gd871 O920 2.545 . S
Gd871 O921 2.606 . S
Gd871 O923 2.429 . S
Gd871 O924 2.545 . S
Gd871 O925 2.412 . S
Gd871 C938 2.828 . S
C872 C875 1.417 . S
C872 C877 1.431 1_655 S
C872 C878 1.412 1_655 S
C873 C876 1.437 . S
C873 C877 1.317 1_655 S
C873 H892 0.928 . S
C874 C875 1.426 . S
C874 C876 1.413 . S
C874 N884 1.359 . S
C875 C872 1.417 . S
C875 C874 1.426 . S
C875 N880 1.350 . S
C876 C873 1.437 . S
C876 C874 1.413 . S
C876 C886 1.391 . S
C877 C872 1.431 1_455 S
C877 C873 1.317 1_455 S
C877 H888 0.930 . S
C878 C872 1.412 1_455 S
C878 C879 1.355 1_455 S
C878 H890 0.930 . S
C879 C878 1.355 1_655 S
C879 C881 1.402 . S
C879 H891 0.930 1_655 S
N880 Gd871 2.661 . S
N880 C875 1.350 . S
N880 C881 1.307 . S
C881 C879 1.402 . S
C881 N880 1.307 . S
C881 H882 0.930 . S
H882 C881 0.930 . S
C883 N884 1.334 . S
C883 C885 1.394 . S
C883 H887 0.930 . S
N884 Gd871 2.601 . S
N884 C874 1.359 . S
N884 C883 1.334 . S
C885 C883 1.394 . S
C885 C886 1.359 . S
C885 H897 0.930 . S
C886 C876 1.391 . S
C886 C885 1.359 . S
C886 H898 0.929 . S
H887 C883 0.930 . S
H888 C877 0.930 . S
H889 C906 0.930 . S
H890 C878 0.930 . S
H891 C879 0.930 1_455 S
H892 C873 0.928 . S
H893 C911 0.930 . S
H894 C902 0.930 . S
H895 C903 0.930 . S
H896 C927 0.929 . S
H897 C885 0.930 . S
H898 C886 0.929 . S
H899 C928 0.930 . S
H900 C909 0.930 . S
N901 Gd870 2.661 . S
N901 C905 1.350 . S
N901 C906 1.307 . S
C902 H894 0.930 . S
C902 C903 1.355 . S
C902 C904 1.412 . S
C903 H895 0.930 . S
C903 C902 1.355 . S
C903 C906 1.402 . S
C904 C902 1.412 . S
C904 C905 1.417 . S
C904 C928 1.431 . S
C905 N901 1.350 . S
C905 C904 1.417 . S
C905 C908 1.426 . S
C906 H889 0.930 . S
C906 N901 1.307 . S
C906 C903 1.402 . S
N907 Gd870 2.601 . S
N907 C908 1.359 . S
N907 C911 1.334 . S
C908 C905 1.426 . S
C908 N907 1.359 . S
C908 C912 1.413 . S
C909 H900 0.930 . S
C909 C910 1.359 . S
C909 C911 1.394 . S
C910 C909 1.359 . S
C910 C912 1.391 . S
C910 H913 0.929 . S
C911 H893 0.930 . S
C911 N907 1.334 . S
C911 C909 1.394 . S
C912 C908 1.413 . S
C912 C910 1.391 . S
C912 C927 1.437 . S
H913 C910 0.929 . S
O914 Gd870 2.545 . S
O914 C929 1.258 . S
O915 Gd870 2.606 . S
O915 Gd871 2.362 . S
O915 C926 1.284 . S
O916 Gd871 2.324 . S
O916 C936 1.254 . S
O917 Gd870 2.429 . S
O917 C936 1.268 . S
O918 Gd870 2.545 . S
O918 C926 1.250 . S
O919 Gd870 2.412 . S
O919 C929 1.252 . S
O920 Gd871 2.545 . S
O920 C938 1.258 . S
O921 Gd870 2.362 . S
O921 Gd871 2.606 . S
O921 C937 1.284 . S
O922 Gd870 2.324 . S
O922 C945 1.254 . S
O923 Gd871 2.429 . S
O923 C945 1.268 . S
O924 Gd871 2.545 . S
O924 C937 1.250 . S
O925 Gd871 2.412 . S
O925 C938 1.252 . S
C926 O915 1.284 . S
C926 O918 1.250 . S
C927 H896 0.929 . S
C927 C912 1.437 . S
C927 C928 1.317 . S
C928 H899 0.930 . S
C928 C904 1.431 . S
C928 C927 1.317 . S
C929 Gd870 2.828 . S
C929 O914 1.258 . S
C929 O919 1.252 . S
C929 C930 1.497 . S
C930 C929 1.497 . S
C930 C931 1.395 . S
C930 C932 1.380 . S
C931 C930 1.395 . S
C931 C934 1.398 . S
C931 H946 0.930 . S
C932 C930 1.380 . S
C932 C933 1.391 . S
C932 H947 0.930 . S
C933 C932 1.391 . S
C933 C935 1.387 . S
C934 C931 1.398 . S
C934 C935 1.380 . S
C934 H948 0.930 . S
C935 C933 1.387 . S
C935 C934 1.380 . S
C935 H949 0.930 . S
C936 O916 1.254 . S
C936 O917 1.268 . S
C937 O921 1.284 . S
C937 O924 1.250 . S
C938 Gd871 2.828 . S
C938 O920 1.258 . S
C938 O925 1.252 . S
C938 C939 1.497 . S
C939 C938 1.497 . S
C939 C940 1.395 . S
C939 C941 1.380 . S
C940 C939 1.395 . S
C940 C943 1.398 . S
C940 H950 0.930 . S
C941 C939 1.380 . S
C941 C942 1.391 . S
C941 H951 0.930 . S
C942 C941 1.391 . S
C942 C944 1.387 . S
C943 C940 1.398 . S
C943 C944 1.380 . S
C943 H952 0.930 . S
C944 C942 1.387 . S
C944 C943 1.380 . S
C944 H953 0.930 . S
C945 O922 1.254 . S
C945 O923 1.268 . S
H946 C931 0.930 . S
H947 C932 0.930 . S
H948 C934 0.930 . S
H949 C935 0.930 . S
H950 C940 0.930 . S
H951 C941 0.930 . S
H952 C943 0.930 . S
H953 C944 0.930 . S
H954 C960 0.930 . S
H955 C963 0.930 . S
H956 C964 0.930 . S
H957 C965 0.930 . S
H958 C968 0.930 . S
H959 C969 0.930 . S
C960 H954 0.930 . S
C960 C961 1.355 . S
C960 C962 1.415 . S
C961 C960 1.355 . S
C961 C963 1.419 . S
C962 C960 1.415 . S
C962 C967 1.425 . S
C962 C969 1.409 . S
C963 H955 0.930 . S
C963 C961 1.419 . S
C963 C964 1.362 . S
C964 H956 0.930 . S
C964 C963 1.362 . S
C964 C967 1.409 . S
C965 H957 0.930 . S
C965 C966 1.355 . S
C965 C967 1.415 . S
C966 C965 1.355 . S
C966 C968 1.419 . S
C967 C962 1.425 . S
C967 C964 1.409 . S
C967 C965 1.415 . S
C968 H958 0.930 . S
C968 C966 1.419 . S
C968 C969 1.362 . S
C969 H959 0.930 . S
C969 C962 1.409 . S
C969 C968 1.362 . S
H970 C976 0.930 . S
H971 C979 0.930 . S
H972 C980 0.930 . S
H973 C981 0.930 . S
H974 C984 0.887 1_556 S
H975 C985 0.930 . S
C976 H970 0.930 . S
C976 C977 1.355 . S
C976 C978 1.415 . S
C977 C976 1.355 . S
C977 C979 1.419 . S
C978 C976 1.415 . S
C978 C983 1.425 . S
C978 C985 1.409 . S
C979 H971 0.930 . S
C979 C977 1.419 . S
C979 C980 1.362 . S
C980 H972 0.930 . S
C980 C979 1.362 . S
C980 C983 1.409 . S
C981 H973 0.930 . S
C981 C982 1.355 . S
C981 C983 1.415 . S
C982 C981 1.355 . S
C982 C984 1.419 . S
C983 C978 1.425 . S
C983 C980 1.409 . S
C983 C981 1.415 . S
C984 H974 0.887 1_554 S
C984 C982 1.419 . S
C984 C985 1.362 . S
C985 H975 0.930 . S
C985 C978 1.409 . S
C985 C984 1.362 . S
H986 C992 0.930 . S
H987 C995 0.930 . S
H988 C996 0.930 . S
H989 C997 0.930 . S
H990 C1000 0.930 . S
H991 C1001 0.930 . S
C992 H986 0.930 . S
C992 C993 1.355 . S
C992 C994 1.415 . S
C993 C992 1.355 . S
C993 C995 1.419 . S
C994 C992 1.415 . S
C994 C999 1.425 . S
C994 C1001 1.409 . S
C995 H987 0.930 . S
C995 C993 1.419 . S
C995 C996 1.362 . S
C996 H988 0.930 . S
C996 C995 1.362 . S
C996 C999 1.409 . S
C997 H989 0.930 . S
C997 C998 1.355 . S
C997 C999 1.415 . S
C998 C997 1.355 . S
C998 C1000 1.419 . S
C999 C994 1.425 . S
C999 C996 1.409 . S
C999 C997 1.415 . S
C1000 H990 0.930 . S
C1000 C998 1.419 . S
C1000 C1001 1.362 . S
C1001 H991 0.930 . S
C1001 C994 1.409 . S
C1001 C1000 1.362 . S
H1002 C1008 0.930 . S
H1003 C1011 0.930 . S
H1004 C1012 0.930 . S
H1005 C1013 0.930 . S
H1006 C1016 0.930 . S
H1007 C1017 0.930 . S
C1008 H1002 0.930 . S
C1008 C1009 1.355 . S
C1008 C1010 1.415 . S
C1009 C1008 1.355 . S
C1009 C1011 1.419 . S
C1010 C1008 1.415 . S
C1010 C1015 1.425 . S
C1010 C1017 1.409 . S
C1011 H1003 0.930 . S
C1011 C1009 1.419 . S
C1011 C1012 1.362 . S
C1012 H1004 0.930 . S
C1012 C1011 1.362 . S
C1012 C1015 1.409 . S
C1013 H1005 0.930 . S
C1013 C1014 1.355 . S
C1013 C1015 1.415 . S
C1014 C1013 1.355 . S
C1014 C1016 1.419 . S
C1015 C1010 1.425 . S
C1015 C1012 1.409 . S
C1015 C1013 1.415 . S
C1016 H1006 0.930 . S
C1016 C1014 1.419 . S
C1016 C1017 1.362 . S
C1017 H1007 0.930 . S
C1017 C1010 1.409 . S
C1017 C1016 1.362 . S
H1018 C1024 0.930 . S
H1019 C1027 0.930 . S
H1020 C1028 0.930 1_554 S
H1021 C1029 0.930 1_554 S
H1022 C1032 0.930 . S
H1023 C1033 0.930 . S
C1024 H1018 0.930 . S
C1024 C1025 1.355 . S
C1024 C1026 1.415 . S
C1025 C1024 1.355 . S
C1025 C1027 1.419 . S
C1026 C1024 1.415 . S
C1026 C1031 1.425 . S
C1026 C1033 1.409 . S
C1027 H1019 0.930 . S
C1027 C1025 1.419 . S
C1027 C1028 1.362 . S
C1028 H1020 0.930 1_556 S
C1028 C1027 1.362 . S
C1028 C1031 1.409 . S
C1029 H1021 0.930 1_556 S
C1029 C1030 1.355 . S
C1029 C1031 1.415 . S
C1030 C1029 1.355 . S
C1030 C1032 1.419 . S
C1031 C1026 1.425 . S
C1031 C1028 1.409 . S
C1031 C1029 1.415 . S
C1032 H1022 0.930 . S
C1032 C1030 1.419 . S
C1032 C1033 1.362 . S
C1033 H1023 0.930 . S
C1033 C1026 1.409 . S
C1033 C1032 1.362 . S
H1034 C1040 0.930 . S
H1035 C1043 0.930 . S
H1036 C1044 0.930 . S
H1037 C1045 0.930 . S
H1038 C1048 0.930 . S
H1039 C1049 0.930 . S
C1040 H1034 0.930 . S
C1040 C1041 1.355 . S
C1040 C1042 1.415 . S
C1041 C1040 1.355 . S
C1041 C1043 1.419 . S
C1042 C1040 1.415 . S
C1042 C1047 1.425 . S
C1042 C1049 1.409 . S
C1043 H1035 0.930 . S
C1043 C1041 1.419 . S
C1043 C1044 1.362 . S
C1044 H1036 0.930 . S
C1044 C1043 1.362 . S
C1044 C1047 1.409 . S
C1045 H1037 0.930 . S
C1045 C1046 1.355 . S
C1045 C1047 1.415 . S
C1046 C1045 1.355 . S
C1046 C1048 1.419 . S
C1047 C1042 1.425 . S
C1047 C1044 1.409 . S
C1047 C1045 1.415 . S
C1048 H1038 0.930 . S
C1048 C1046 1.419 . S
C1048 C1049 1.362 . S
C1049 H1039 0.930 . S
C1049 C1042 1.409 . S
C1049 C1048 1.362 . S
H1050 C1056 0.930 . S
H1051 C1059 0.930 . S
H1052 C1060 0.911 1_554 S
H1053 C1061 0.930 1_554 S
H1054 C1064 0.930 . S
H1055 C1065 0.930 . S
C1056 H1050 0.930 . S
C1056 C1057 1.355 . S
C1056 C1058 1.415 . S
C1057 C1056 1.355 . S
C1057 C1059 1.419 . S
C1058 C1056 1.415 . S
C1058 C1063 1.425 . S
C1058 C1065 1.409 . S
C1059 H1051 0.930 . S
C1059 C1057 1.419 . S
C1059 C1060 1.371 . S
C1060 H1052 0.911 1_556 S
C1060 C1059 1.371 . S
C1060 C1063 1.419 . S
C1061 H1053 0.930 1_556 S
C1061 C1062 1.355 . S
C1061 C1063 1.415 . S
C1062 C1061 1.355 . S
C1062 C1064 1.419 . S
C1063 C1058 1.425 . S
C1063 C1060 1.419 . S
C1063 C1061 1.415 . S
C1064 H1054 0.930 . S
C1064 C1062 1.419 . S
C1064 C1065 1.362 . S
C1065 H1055 0.930 . S
C1065 C1058 1.409 . S
C1065 C1064 1.362 . S
H1066 C1072 0.930 . S
H1067 C1075 0.930 . S
H1068 C1076 0.930 . S
H1069 C1077 0.930 . S
H1070 C1080 0.930 . S
H1071 C1081 0.930 . S
C1072 H1066 0.930 . S
C1072 C1073 1.355 . S
C1072 C1074 1.415 . S
C1073 C1072 1.355 . S
C1073 C1075 1.419 . S
C1074 C1072 1.415 . S
C1074 C1079 1.425 . S
C1074 C1081 1.409 . S
C1075 H1067 0.930 . S
C1075 C1073 1.419 . S
C1075 C1076 1.362 . S
C1076 H1068 0.930 . S
C1076 C1075 1.362 . S
C1076 C1079 1.409 . S
C1077 H1069 0.930 . S
C1077 C1078 1.355 . S
C1077 C1079 1.415 . S
C1078 C1077 1.355 . S
C1078 C1080 1.419 . S
C1079 C1074 1.425 . S
C1079 C1076 1.409 . S
C1079 C1077 1.415 . S
C1080 H1070 0.930 . S
C1080 C1078 1.419 . S
C1080 C1081 1.362 . S
C1081 H1071 0.930 . S
C1081 C1074 1.409 . S
C1081 C1080 1.362 . S
H1082 C1088 0.930 . S
H1083 C1091 0.930 . S
H1084 C1092 0.930 . S
H1085 C1093 0.930 . S
H1086 C1096 0.930 . S
H1087 C1097 0.930 . S
C1088 H1082 0.930 . S
C1088 C1089 1.355 . S
C1088 C1090 1.415 . S
C1089 C1088 1.355 . S
C1089 C1091 1.419 . S
C1090 C1088 1.415 . S
C1090 C1095 1.425 . S
C1090 C1097 1.409 . S
C1091 H1083 0.930 . S
C1091 C1089 1.419 . S
C1091 C1092 1.362 . S
C1092 H1084 0.930 . S
C1092 C1091 1.362 . S
C1092 C1095 1.409 . S
C1093 H1085 0.930 . S
C1093 C1094 1.355 . S
C1093 C1095 1.415 . S
C1094 C1093 1.355 . S
C1094 C1096 1.419 . S
C1095 C1090 1.425 . S
C1095 C1092 1.409 . S
C1095 C1093 1.415 . S
C1096 H1086 0.930 . S
C1096 C1094 1.419 . S
C1096 C1097 1.362 . S
C1097 H1087 0.930 . S
C1097 C1090 1.409 . S
C1097 C1096 1.362 . S
H1098 C1104 0.930 . S
H1099 C1107 0.930 . S
H1100 C1108 0.930 . S
H1101 C1109 0.930 . S
H1102 C1112 0.909 1_556 S
H1103 C1113 0.930 . S
C1104 H1098 0.930 . S
C1104 C1105 1.355 . S
C1104 C1106 1.415 . S
C1105 C1104 1.355 . S
C1105 C1107 1.419 . S
C1106 C1104 1.415 . S
C1106 C1111 1.425 . S
C1106 C1113 1.409 . S
C1107 H1099 0.930 . S
C1107 C1105 1.419 . S
C1107 C1108 1.362 . S
C1108 H1100 0.930 . S
C1108 C1107 1.362 . S
C1108 C1111 1.409 . S
C1109 H1101 0.930 . S
C1109 C1110 1.355 . S
C1109 C1111 1.415 . S
C1110 C1109 1.355 . S
C1110 C1112 1.419 . S
C1111 C1106 1.425 . S
C1111 C1108 1.409 . S
C1111 C1109 1.415 . S
C1112 H1102 0.909 1_554 S
C1112 C1110 1.419 . S
C1112 C1113 1.362 . S
C1113 H1103 0.930 . S
C1113 C1106 1.409 . S
C1113 C1112 1.362 . S
H1114 C1120 0.930 . S
H1115 C1123 0.930 . S
H1116 C1124 0.930 . S
H1117 C1125 0.930 . S
H1118 C1128 0.930 . S
H1119 C1129 0.930 . S
C1120 H1114 0.930 . S
C1120 C1121 1.355 . S
C1120 C1122 1.415 . S
C1121 C1120 1.355 . S
C1121 C1123 1.419 . S
C1122 C1120 1.415 . S
C1122 C1127 1.425 . S
C1122 C1129 1.409 . S
C1123 H1115 0.930 . S
C1123 C1121 1.419 . S
C1123 C1124 1.362 . S
C1124 H1116 0.930 . S
C1124 C1123 1.362 . S
C1124 C1127 1.409 . S
C1125 H1117 0.930 . S
C1125 C1126 1.355 . S
C1125 C1127 1.415 . S
C1126 C1125 1.355 . S
C1126 C1128 1.419 . S
C1127 C1122 1.425 . S
C1127 C1124 1.409 . S
C1127 C1125 1.415 . S
C1128 H1118 0.930 . S
C1128 C1126 1.419 . S
C1128 C1129 1.362 . S
C1129 H1119 0.930 . S
C1129 C1122 1.409 . S
C1129 C1128 1.362 . S
H1130 C1136 0.930 . S
H1131 C1139 0.930 . S
H1132 C1140 0.930 . S
H1133 C1141 0.930 . S
H1134 C1144 0.930 1_556 S
H1135 C1145 0.930 1_556 S
C1136 H1130 0.930 . S
C1136 C1137 1.355 . S
C1136 C1138 1.415 . S
C1137 C1136 1.355 . S
C1137 C1139 1.419 . S
C1138 C1136 1.415 . S
C1138 C1143 1.425 . S
C1138 C1145 1.409 . S
C1139 H1131 0.930 . S
C1139 C1137 1.419 . S
C1139 C1140 1.362 . S
C1140 H1132 0.930 . S
C1140 C1139 1.362 . S
C1140 C1143 1.409 . S
C1141 H1133 0.930 . S
C1141 C1142 1.355 . S
C1141 C1143 1.415 . S
C1142 C1141 1.355 . S
C1142 C1144 1.419 . S
C1143 C1138 1.425 . S
C1143 C1140 1.409 . S
C1143 C1141 1.415 . S
C1144 H1134 0.930 1_554 S
C1144 C1142 1.419 . S
C1144 C1145 1.362 . S
C1145 H1135 0.930 1_554 S
C1145 C1138 1.409 . S
C1145 C1144 1.362 . S
H1146 C1152 0.930 . S
H1147 C1155 0.930 . S
H1148 C1156 0.930 . S
H1149 C1157 0.930 . S
H1150 C1160 0.930 . S
H1151 C1161 0.930 . S
C1152 H1146 0.930 . S
C1152 C1153 1.355 . S
C1152 C1154 1.415 . S
C1153 C1152 1.355 . S
C1153 C1155 1.419 . S
C1154 C1152 1.415 . S
C1154 C1159 1.425 1_655 S
C1154 C1161 1.409 . S
C1155 H1147 0.930 . S
C1155 C1153 1.419 . S
C1155 C1156 1.362 1_655 S
C1156 H1148 0.930 . S
C1156 C1155 1.362 1_455 S
C1156 C1159 1.409 . S
C1157 H1149 0.930 . S
C1157 C1158 1.355 . S
C1157 C1159 1.415 . S
C1158 C1157 1.355 . S
C1158 C1160 1.419 . S
C1159 C1154 1.425 1_455 S
C1159 C1156 1.409 . S
C1159 C1157 1.415 . S
C1160 H1150 0.930 . S
C1160 C1158 1.419 . S
C1160 C1161 1.362 1_455 S
C1161 H1151 0.930 . S
C1161 C1154 1.409 . S
C1161 C1160 1.362 1_655 S
H1162 C1168 0.930 . S
H1163 C1171 0.930 . S
H1164 C1172 0.930 . S
H1165 C1173 0.930 . S
H1166 C1176 0.930 . S
H1167 C1177 0.930 . S
C1168 H1162 0.930 . S
C1168 C1169 1.355 . S
C1168 C1170 1.415 . S
C1169 C1168 1.355 . S
C1169 C1171 1.419 . S
C1170 C1168 1.415 . S
C1170 C1175 1.425 . S
C1170 C1177 1.409 . S
C1171 H1163 0.930 . S
C1171 C1169 1.419 . S
C1171 C1172 1.362 . S
C1172 H1164 0.930 . S
C1172 C1171 1.362 . S
C1172 C1175 1.409 . S
C1173 H1165 0.930 . S
C1173 C1174 1.355 . S
C1173 C1175 1.415 . S
C1174 C1173 1.355 . S
C1174 C1176 1.419 . S
C1175 C1170 1.425 . S
C1175 C1172 1.409 . S
C1175 C1173 1.415 . S
C1176 H1166 0.930 . S
C1176 C1174 1.419 . S
C1176 C1177 1.362 . S
C1177 H1167 0.930 . S
C1177 C1170 1.409 . S
C1177 C1176 1.362 . S
H1178 C1184 0.930 . S
H1179 C1187 0.930 . S
H1180 C1188 0.930 . S
H1181 C1189 0.930 . S
H1182 C1192 0.930 . S
H1183 C1193 0.930 . S
C1184 H1178 0.930 . S
C1184 C1185 1.355 . S
C1184 C1186 1.415 . S
C1185 C1184 1.355 . S
C1185 C1187 1.419 . S
C1186 C1184 1.415 . S
C1186 C1191 1.425 . S
C1186 C1193 1.409 1_545 S
C1187 H1179 0.930 . S
C1187 C1185 1.419 . S
C1187 C1188 1.362 . S
C1188 H1180 0.930 . S
C1188 C1187 1.362 . S
C1188 C1191 1.409 . S
C1189 H1181 0.930 . S
C1189 C1190 1.355 . S
C1189 C1191 1.415 1_565 S
C1190 C1189 1.355 . S
C1190 C1192 1.419 . S
C1191 C1186 1.425 . S
C1191 C1188 1.409 . S
C1191 C1189 1.415 1_545 S
C1192 H1182 0.930 . S
C1192 C1190 1.419 . S
C1192 C1193 1.362 . S
C1193 H1183 0.930 . S
C1193 C1186 1.409 1_565 S
C1193 C1192 1.362 . S
H1194 C1200 0.930 . S
H1195 C1203 0.930 . S
H1196 C1204 0.930 . S
H1197 C1205 0.930 . S
H1198 C1208 0.930 . S
H1199 C1209 0.930 . S
C1200 H1194 0.930 . S
C1200 C1201 1.355 . S
C1200 C1202 1.415 . S
C1201 C1200 1.355 . S
C1201 C1203 1.419 . S
C1202 C1200 1.415 . S
C1202 C1207 1.425 . S
C1202 C1209 1.409 . S
C1203 H1195 0.930 . S
C1203 C1201 1.419 . S
C1203 C1204 1.362 . S
C1204 H1196 0.930 . S
C1204 C1203 1.362 . S
C1204 C1207 1.409 . S
C1205 H1197 0.930 . S
C1205 C1206 1.355 . S
C1205 C1207 1.415 . S
C1206 C1205 1.355 . S
C1206 C1208 1.419 . S
C1207 C1202 1.425 . S
C1207 C1204 1.409 . S
C1207 C1205 1.415 . S
C1208 H1198 0.930 . S
C1208 C1206 1.419 . S
C1208 C1209 1.362 . S
C1209 H1199 0.930 . S
C1209 C1202 1.409 . S
C1209 C1208 1.362 . S
H1210 C1216 0.930 . S
H1211 C1219 0.930 . S
H1212 C1220 0.930 . S
H1213 C1221 0.930 . S
H1214 C1224 0.930 . S
H1215 C1225 0.930 . S
C1216 H1210 0.930 . S
C1216 C1217 1.355 . S
C1216 C1218 1.415 . S
C1217 C1216 1.355 . S
C1217 C1219 1.419 . S
C1218 C1216 1.415 . S
C1218 C1223 1.425 . S
C1218 C1225 1.409 . S
C1219 H1211 0.930 . S
C1219 C1217 1.419 . S
C1219 C1220 1.362 . S
C1220 H1212 0.930 . S
C1220 C1219 1.362 . S
C1220 C1223 1.409 . S
C1221 H1213 0.930 . S
C1221 C1222 1.355 . S
C1221 C1223 1.415 . S
C1222 C1221 1.355 . S
C1222 C1224 1.419 . S
C1223 C1218 1.425 . S
C1223 C1220 1.409 . S
C1223 C1221 1.415 . S
C1224 H1214 0.930 . S
C1224 C1222 1.419 . S
C1224 C1225 1.362 . S
C1225 H1215 0.930 . S
C1225 C1218 1.409 . S
C1225 C1224 1.362 . S
H1226 C1232 0.930 . S
H1227 C1235 0.930 . S
H1228 C1236 0.930 . S
H1229 C1237 0.930 . S
H1230 C1240 0.930 . S
H1231 C1241 0.930 . S
C1232 H1226 0.930 . S
C1232 C1233 1.355 . S
C1232 C1234 1.415 . S
C1233 C1232 1.355 . S
C1233 C1235 1.419 . S
C1234 C1232 1.415 . S
C1234 C1239 1.425 . S
C1234 C1241 1.409 . S
C1235 H1227 0.930 . S
C1235 C1233 1.419 . S
C1235 C1236 1.362 . S
C1236 H1228 0.930 . S
C1236 C1235 1.362 . S
C1236 C1239 1.409 . S
C1237 H1229 0.930 . S
C1237 C1238 1.355 . S
C1237 C1239 1.415 . S
C1238 C1237 1.355 . S
C1238 C1240 1.419 . S
C1239 C1234 1.425 . S
C1239 C1236 1.409 . S
C1239 C1237 1.415 . S
C1240 H1230 0.930 . S
C1240 C1238 1.419 . S
C1240 C1241 1.362 . S
C1241 H1231 0.930 . S
C1241 C1234 1.409 . S
C1241 C1240 1.362 . S
H1242 C1248 0.930 . S
H1243 C1251 0.930 . S
H1244 C1252 0.930 . S
H1245 C1253 0.930 . S
H1246 C1256 0.930 . S
H1247 C1257 0.930 . S
C1248 H1242 0.930 . S
C1248 C1249 1.355 . S
C1248 C1250 1.415 . S
C1249 C1248 1.355 . S
C1249 C1251 1.419 . S
C1250 C1248 1.415 . S
C1250 C1255 1.425 . S
C1250 C1257 1.409 . S
C1251 H1243 0.930 . S
C1251 C1249 1.419 . S
C1251 C1252 1.362 . S
C1252 H1244 0.930 . S
C1252 C1251 1.362 . S
C1252 C1255 1.409 . S
C1253 H1245 0.930 . S
C1253 C1254 1.355 . S
C1253 C1255 1.415 . S
C1254 C1253 1.355 . S
C1254 C1256 1.419 . S
C1255 C1250 1.425 . S
C1255 C1252 1.409 . S
C1255 C1253 1.415 . S
C1256 H1246 0.930 . S
C1256 C1254 1.419 . S
C1256 C1257 1.362 . S
C1257 H1247 0.930 . S
C1257 C1250 1.409 . S
C1257 C1256 1.362 . S
H1258 C1264 0.930 . S
H1259 C1267 0.930 . S
H1260 C1268 0.930 . S
H1261 C1269 0.930 . S
H1262 C1272 0.930 . S
H1263 C1273 0.930 . S
C1264 H1258 0.930 . S
C1264 C1265 1.355 . S
C1264 C1266 1.415 . S
C1265 C1264 1.355 . S
C1265 C1267 1.419 . S
C1266 C1264 1.415 . S
C1266 C1271 1.425 . S
C1266 C1273 1.409 . S
C1267 H1259 0.930 . S
C1267 C1265 1.419 . S
C1267 C1268 1.362 . S
C1268 H1260 0.930 . S
C1268 C1267 1.362 . S
C1268 C1271 1.409 . S
C1269 H1261 0.930 . S
C1269 C1270 1.355 . S
C1269 C1271 1.415 . S
C1270 C1269 1.355 . S
C1270 C1272 1.419 . S
C1271 C1266 1.425 . S
C1271 C1268 1.409 . S
C1271 C1269 1.415 . S
C1272 H1262 0.930 . S
C1272 C1270 1.419 . S
C1272 C1273 1.362 . S
C1273 H1263 0.930 . S
C1273 C1266 1.409 . S
C1273 C1272 1.362 . S
H1274 C1280 0.930 . S
H1275 C1283 0.930 . S
H1276 C1284 0.930 . S
H1277 C1285 0.930 . S
H1278 C1288 0.930 . S
H1279 C1289 0.930 . S
C1280 H1274 0.930 . S
C1280 C1281 1.355 . S
C1280 C1282 1.415 . S
C1281 C1280 1.355 . S
C1281 C1283 1.419 . S
C1282 C1280 1.415 . S
C1282 C1287 1.425 . S
C1282 C1289 1.409 . S
C1283 H1275 0.930 . S
C1283 C1281 1.419 . S
C1283 C1284 1.362 . S
C1284 H1276 0.930 . S
C1284 C1283 1.362 . S
C1284 C1287 1.409 . S
C1285 H1277 0.930 . S
C1285 C1286 1.355 . S
C1285 C1287 1.415 . S
C1286 C1285 1.355 . S
C1286 C1288 1.419 . S
C1287 C1282 1.425 . S
C1287 C1284 1.409 . S
C1287 C1285 1.415 . S
C1288 H1278 0.930 . S
C1288 C1286 1.419 . S
C1288 C1289 1.362 . S
C1289 H1279 0.930 . S
C1289 C1282 1.409 . S
C1289 C1288 1.362 . S
H1290 C1296 0.930 . S
H1291 C1299 0.916 1_545 S
H1292 C1300 0.930 . S
H1293 C1301 0.930 . S
H1294 C1304 0.930 . S
H1295 C1305 0.930 . S
C1296 H1290 0.930 . S
C1296 C1297 1.355 1_565 S
C1296 C1298 1.415 . S
C1297 C1296 1.355 1_545 S
C1297 C1299 1.403 1_545 S
C1298 C1296 1.415 . S
C1298 C1303 1.425 . S
C1298 C1305 1.409 . S
C1299 H1291 0.916 1_565 S
C1299 C1297 1.403 1_565 S
C1299 C1300 1.394 . S
C1300 H1292 0.930 . S
C1300 C1299 1.394 . S
C1300 C1303 1.409 . S
C1301 H1293 0.930 . S
C1301 C1302 1.355 . S
C1301 C1303 1.415 . S
C1302 C1301 1.355 . S
C1302 C1304 1.419 . S
C1303 C1298 1.425 . S
C1303 C1300 1.409 . S
C1303 C1301 1.415 . S
C1304 H1294 0.930 . S
C1304 C1302 1.419 . S
C1304 C1305 1.362 . S
C1305 H1295 0.930 . S
C1305 C1298 1.409 . S
C1305 C1304 1.362 . S
H1306 C1312 0.930 . S
H1307 C1315 0.930 . S
H1308 C1316 0.930 . S
H1309 C1317 0.930 . S
H1310 C1320 0.930 . S
H1311 C1321 0.930 . S
C1312 H1306 0.930 . S
C1312 C1313 1.355 . S
C1312 C1314 1.415 . S
C1313 C1312 1.355 . S
C1313 C1315 1.419 . S
C1314 C1312 1.415 . S
C1314 C1319 1.425 . S
C1314 C1321 1.409 . S
C1315 H1307 0.930 . S
C1315 C1313 1.419 . S
C1315 C1316 1.362 . S
C1316 H1308 0.930 . S
C1316 C1315 1.362 . S
C1316 C1319 1.409 . S
C1317 H1309 0.930 . S
C1317 C1318 1.355 . S
C1317 C1319 1.415 . S
C1318 C1317 1.355 . S
C1318 C1320 1.419 . S
C1319 C1314 1.425 . S
C1319 C1316 1.409 . S
C1319 C1317 1.415 . S
C1320 H1310 0.930 . S
C1320 C1318 1.419 . S
C1320 C1321 1.362 . S
C1321 H1311 0.930 . S
C1321 C1314 1.409 . S
C1321 C1320 1.362 . S
H1322 C1328 0.930 . S
H1323 C1331 0.930 . S
H1324 C1332 0.930 . S
H1325 C1333 0.930 . S
H1326 C1336 0.930 . S
H1327 C1337 0.930 . S
C1328 H1322 0.930 . S
C1328 C1329 1.355 . S
C1328 C1330 1.415 . S
C1329 C1328 1.355 . S
C1329 C1331 1.419 . S
C1330 C1328 1.415 . S
C1330 C1335 1.425 . S
C1330 C1337 1.409 . S
C1331 H1323 0.930 . S
C1331 C1329 1.419 . S
C1331 C1332 1.362 . S
C1332 H1324 0.930 . S
C1332 C1331 1.362 . S
C1332 C1335 1.409 . S
C1333 H1325 0.930 . S
C1333 C1334 1.355 . S
C1333 C1335 1.415 . S
C1334 C1333 1.355 . S
C1334 C1336 1.419 . S
C1335 C1330 1.425 . S
C1335 C1332 1.409 . S
C1335 C1333 1.415 . S
C1336 H1326 0.930 . S
C1336 C1334 1.419 . S
C1336 C1337 1.362 . S
C1337 H1327 0.930 . S
C1337 C1330 1.409 . S
C1337 C1336 1.362 . S
H1338 C1344 0.930 . S
H1339 C1347 0.930 . S
H1340 C1348 0.930 . S
H1341 C1349 0.930 . S
H1342 C1352 0.930 . S
H1343 C1353 0.930 . S
C1344 H1338 0.930 . S
C1344 C1345 1.355 . S
C1344 C1346 1.415 . S
C1345 C1344 1.355 . S
C1345 C1347 1.419 . S
C1346 C1344 1.415 . S
C1346 C1351 1.425 . S
C1346 C1353 1.409 . S
C1347 H1339 0.930 . S
C1347 C1345 1.419 . S
C1347 C1348 1.362 . S
C1348 H1340 0.930 . S
C1348 C1347 1.362 . S
C1348 C1351 1.409 . S
C1349 H1341 0.930 . S
C1349 C1350 1.355 . S
C1349 C1351 1.415 . S
C1350 C1349 1.355 . S
C1350 C1352 1.419 . S
C1351 C1346 1.425 . S
C1351 C1348 1.409 . S
C1351 C1349 1.415 . S
C1352 H1342 0.930 . S
C1352 C1350 1.419 . S
C1352 C1353 1.362 . S
C1353 H1343 0.930 . S
C1353 C1346 1.409 . S
C1353 C1352 1.362 . S
H1354 C1360 0.930 . S
H1355 C1363 0.930 . S
H1356 C1364 0.930 . S
H1357 C1365 0.930 . S
H1358 C1368 0.930 . S
H1359 C1369 0.930 . S
C1360 H1354 0.930 . S
C1360 C1361 1.355 . S
C1360 C1362 1.415 . S
C1361 C1360 1.355 . S
C1361 C1363 1.419 . S
C1362 C1360 1.415 . S
C1362 C1367 1.425 . S
C1362 C1369 1.409 . S
C1363 H1355 0.930 . S
C1363 C1361 1.419 . S
C1363 C1364 1.362 . S
C1364 H1356 0.930 . S
C1364 C1363 1.362 . S
C1364 C1367 1.409 . S
C1365 H1357 0.930 . S
C1365 C1366 1.355 . S
C1365 C1367 1.415 . S
C1366 C1365 1.355 . S
C1366 C1368 1.419 . S
C1367 C1362 1.425 . S
C1367 C1364 1.409 . S
C1367 C1365 1.415 . S
C1368 H1358 0.930 . S
C1368 C1366 1.419 . S
C1368 C1369 1.362 . S
C1369 H1359 0.930 . S
C1369 C1362 1.409 . S
C1369 C1368 1.362 . S
H1370 C1376 0.930 . S
H1371 C1379 0.930 . S
H1372 C1380 0.930 . S
H1373 C1381 0.930 . S
H1374 C1384 0.930 . S
H1375 C1385 0.930 . S
C1376 H1370 0.930 . S
C1376 C1377 1.355 . S
C1376 C1378 1.415 . S
C1377 C1376 1.355 . S
C1377 C1379 1.419 . S
C1378 C1376 1.415 . S
C1378 C1383 1.425 . S
C1378 C1385 1.409 . S
C1379 H1371 0.930 . S
C1379 C1377 1.419 . S
C1379 C1380 1.362 . S
C1380 H1372 0.930 . S
C1380 C1379 1.362 . S
C1380 C1383 1.409 . S
C1381 H1373 0.930 . S
C1381 C1382 1.355 . S
C1381 C1383 1.415 . S
C1382 C1381 1.355 . S
C1382 C1384 1.419 . S
C1383 C1378 1.425 . S
C1383 C1380 1.409 . S
C1383 C1381 1.415 . S
C1384 H1374 0.930 . S
C1384 C1382 1.419 . S
C1384 C1385 1.362 . S
C1385 H1375 0.930 . S
C1385 C1378 1.409 . S
C1385 C1384 1.362 . S
H1386 C1392 0.930 . S
H1387 C1395 0.930 . S
H1388 C1396 0.930 . S
H1389 C1397 0.930 . S
H1390 C1400 0.930 . S
H1391 C1401 0.930 . S
C1392 H1386 0.930 . S
C1392 C1393 1.355 . S
C1392 C1394 1.415 1_565 S
C1393 C1392 1.355 . S
C1393 C1395 1.419 . S
C1394 C1392 1.415 1_545 S
C1394 C1399 1.433 . S
C1394 C1401 1.409 . S
C1395 H1387 0.930 . S
C1395 C1393 1.419 . S
C1395 C1396 1.362 . S
C1396 H1388 0.930 . S
C1396 C1395 1.362 . S
C1396 C1399 1.397 1_565 S
C1397 H1389 0.930 . S
C1397 C1398 1.355 . S
C1397 C1399 1.419 . S
C1398 C1397 1.355 . S
C1398 C1400 1.419 . S
C1399 C1394 1.433 . S
C1399 C1396 1.397 1_545 S
C1399 C1397 1.419 . S
C1400 H1390 0.930 . S
C1400 C1398 1.419 . S
C1400 C1401 1.362 . S
C1401 H1391 0.930 . S
C1401 C1394 1.409 . S
C1401 C1400 1.362 . S
H1402 C1408 0.930 . S
H1403 C1411 0.930 . S
H1404 C1412 0.930 . S
H1405 C1413 0.930 . S
H1406 C1416 0.930 . S
H1407 C1417 0.930 . S
C1408 H1402 0.930 . S
C1408 C1409 1.355 . S
C1408 C1410 1.410 1_455 S
C1409 C1408 1.355 . S
C1409 C1411 1.419 . S
C1410 C1408 1.410 1_655 S
C1410 C1415 1.425 . S
C1410 C1417 1.414 . S
C1411 H1403 0.930 . S
C1411 C1409 1.419 . S
C1411 C1412 1.362 . S
C1412 H1404 0.930 . S
C1412 C1411 1.362 . S
C1412 C1415 1.409 1_455 S
C1413 H1405 0.930 . S
C1413 C1414 1.355 . S
C1413 C1415 1.415 . S
C1414 C1413 1.355 . S
C1414 C1416 1.419 . S
C1415 C1410 1.425 . S
C1415 C1412 1.409 1_655 S
C1415 C1413 1.415 . S
C1416 H1406 0.930 . S
C1416 C1414 1.419 . S
C1416 C1417 1.362 . S
C1417 H1407 0.930 . S
C1417 C1410 1.414 . S
C1417 C1416 1.362 . S
H1418 C1424 0.930 . S
H1419 C1427 0.930 . S
H1420 C1428 0.930 . S
H1421 C1429 0.930 . S
H1422 C1432 0.930 . S
H1423 C1433 0.930 . S
C1424 H1418 0.930 . S
C1424 C1425 1.355 . S
C1424 C1426 1.415 . S
C1425 C1424 1.355 . S
C1425 C1427 1.419 . S
C1426 C1424 1.415 . S
C1426 C1431 1.425 . S
C1426 C1433 1.409 . S
C1427 H1419 0.930 . S
C1427 C1425 1.419 . S
C1427 C1428 1.362 . S
C1428 H1420 0.930 . S
C1428 C1427 1.362 . S
C1428 C1431 1.409 . S
C1429 H1421 0.930 . S
C1429 C1430 1.355 . S
C1429 C1431 1.415 . S
C1430 C1429 1.355 . S
C1430 C1432 1.419 . S
C1431 C1426 1.425 . S
C1431 C1428 1.409 . S
C1431 C1429 1.415 . S
C1432 H1422 0.930 . S
C1432 C1430 1.419 . S
C1432 C1433 1.362 . S
C1433 H1423 0.930 . S
C1433 C1426 1.409 . S
C1433 C1432 1.362 . S
H1434 C1440 0.930 1_455 S
H1435 C1443 0.930 . S
H1436 C1444 0.930 . S
H1437 C1445 0.930 . S
H1438 C1448 0.930 . S
H1439 C1449 0.930 . S
C1440 H1434 0.930 1_655 S
C1440 C1441 1.355 1_655 S
C1440 C1442 1.415 . S
C1441 C1440 1.355 1_455 S
C1441 C1443 1.412 1_455 S
C1442 C1440 1.415 . S
C1442 C1447 1.425 . S
C1442 C1449 1.409 . S
C1443 H1435 0.930 . S
C1443 C1441 1.412 1_655 S
C1443 C1444 1.362 . S
C1444 H1436 0.930 . S
C1444 C1443 1.362 . S
C1444 C1447 1.409 . S
C1445 H1437 0.930 . S
C1445 C1446 1.355 . S
C1445 C1447 1.415 . S
C1446 C1445 1.355 . S
C1446 C1448 1.419 . S
C1447 C1442 1.425 . S
C1447 C1444 1.409 . S
C1447 C1445 1.415 . S
C1448 H1438 0.930 . S
C1448 C1446 1.419 . S
C1448 C1449 1.362 . S
C1449 H1439 0.930 . S
C1449 C1442 1.409 . S
C1449 C1448 1.362 . S
H1450 C1456 0.930 . S
H1451 C1459 0.930 . S
H1452 C1460 0.930 . S
H1453 C1461 0.930 . S
H1454 C1464 0.930 . S
H1455 C1465 0.930 . S
C1456 H1450 0.930 . S
C1456 C1457 1.355 . S
C1456 C1458 1.415 . S
C1457 C1456 1.355 . S
C1457 C1459 1.419 . S
C1458 C1456 1.415 . S
C1458 C1463 1.425 . S
C1458 C1465 1.409 . S
C1459 H1451 0.930 . S
C1459 C1457 1.419 . S
C1459 C1460 1.362 . S
C1460 H1452 0.930 . S
C1460 C1459 1.362 . S
C1460 C1463 1.409 . S
C1461 H1453 0.930 . S
C1461 C1462 1.355 . S
C1461 C1463 1.415 . S
C1462 C1461 1.355 . S
C1462 C1464 1.419 . S
C1463 C1458 1.425 . S
C1463 C1460 1.409 . S
C1463 C1461 1.415 . S
C1464 H1454 0.930 . S
C1464 C1462 1.419 . S
C1464 C1465 1.362 . S
C1465 H1455 0.930 . S
C1465 C1458 1.409 . S
C1465 C1464 1.362 . S
H1466 C1472 0.929 . S
H1467 C1475 0.930 . S
H1468 C1476 0.930 . S
H1469 C1477 0.930 . S
H1470 C1480 0.930 . S
H1471 C1481 0.930 . S
C1472 H1466 0.929 . S
C1472 C1473 1.355 1_545 S
C1472 C1474 1.415 . S
C1473 C1472 1.355 1_565 S
C1473 C1475 1.419 1_565 S
C1474 C1472 1.415 . S
C1474 C1479 1.425 . S
C1474 C1481 1.409 . S
C1475 H1467 0.930 . S
C1475 C1473 1.419 1_545 S
C1475 C1476 1.362 . S
C1476 H1468 0.930 . S
C1476 C1475 1.362 . S
C1476 C1479 1.409 . S
C1477 H1469 0.930 . S
C1477 C1478 1.355 . S
C1477 C1479 1.415 . S
C1478 C1477 1.355 . S
C1478 C1480 1.419 . S
C1479 C1474 1.425 . S
C1479 C1476 1.409 . S
C1479 C1477 1.415 . S
C1480 H1470 0.930 . S
C1480 C1478 1.419 . S
C1480 C1481 1.362 . S
C1481 H1471 0.930 . S
C1481 C1474 1.409 . S
C1481 C1480 1.362 . S
H1482 C1488 0.930 . S
H1483 C1491 0.930 . S
H1484 C1492 0.930 . S
H1485 C1493 0.930 . S
H1486 C1496 0.930 . S
H1487 C1497 0.930 . S
C1488 H1482 0.930 . S
C1488 C1489 1.355 . S
C1488 C1490 1.415 . S
C1489 C1488 1.355 . S
C1489 C1491 1.419 . S
C1490 C1488 1.415 . S
C1490 C1495 1.425 . S
C1490 C1497 1.409 . S
C1491 H1483 0.930 . S
C1491 C1489 1.419 . S
C1491 C1492 1.362 . S
C1492 H1484 0.930 . S
C1492 C1491 1.362 . S
C1492 C1495 1.409 . S
C1493 H1485 0.930 . S
C1493 C1494 1.355 . S
C1493 C1495 1.415 . S
C1494 C1493 1.355 . S
C1494 C1496 1.419 . S
C1495 C1490 1.425 . S
C1495 C1492 1.409 . S
C1495 C1493 1.415 . S
C1496 H1486 0.930 . S
C1496 C1494 1.419 . S
C1496 C1497 1.362 . S
C1497 H1487 0.930 . S
C1497 C1490 1.409 . S
C1497 C1496 1.362 . S
H1498 C1504 0.930 . S
H1499 C1507 0.930 . S
H1500 C1508 0.930 . S
H1501 C1509 0.930 . S
H1502 C1512 0.930 . S
H1503 C1513 0.930 . S
C1504 H1498 0.930 . S
C1504 C1505 1.355 . S
C1504 C1506 1.415 . S
C1505 C1504 1.355 . S
C1505 C1507 1.419 . S
C1506 C1504 1.415 . S
C1506 C1511 1.425 . S
C1506 C1513 1.409 . S
C1507 H1499 0.930 . S
C1507 C1505 1.419 . S
C1507 C1508 1.362 . S
C1508 H1500 0.930 . S
C1508 C1507 1.362 . S
C1508 C1511 1.409 . S
C1509 H1501 0.930 . S
C1509 C1510 1.355 . S
C1509 C1511 1.415 . S
C1510 C1509 1.355 . S
C1510 C1512 1.419 . S
C1511 C1506 1.425 . S
C1511 C1508 1.409 . S
C1511 C1509 1.415 . S
C1512 H1502 0.930 . S
C1512 C1510 1.419 . S
C1512 C1513 1.362 . S
C1513 H1503 0.930 . S
C1513 C1506 1.409 . S
C1513 C1512 1.362 . S
H1514 C1520 0.930 . S
H1515 C1523 0.930 . S
H1516 C1524 0.930 . S
H1517 C1525 0.930 . S
H1518 C1528 0.930 . S
H1519 C1529 0.930 . S
C1520 H1514 0.930 . S
C1520 C1521 1.355 . S
C1520 C1522 1.415 . S
C1521 C1520 1.355 . S
C1521 C1523 1.419 . S
C1522 C1520 1.415 . S
C1522 C1527 1.425 . S
C1522 C1529 1.409 . S
C1523 H1515 0.930 . S
C1523 C1521 1.419 . S
C1523 C1524 1.362 . S
C1524 H1516 0.930 . S
C1524 C1523 1.362 . S
C1524 C1527 1.409 . S
C1525 H1517 0.930 . S
C1525 C1526 1.355 . S
C1525 C1527 1.415 . S
C1526 C1525 1.355 . S
C1526 C1528 1.419 . S
C1527 C1522 1.425 . S
C1527 C1524 1.409 . S
C1527 C1525 1.415 . S
C1528 H1518 0.930 . S
C1528 C1526 1.419 . S
C1528 C1529 1.362 . S
C1529 H1519 0.930 . S
C1529 C1522 1.409 . S
C1529 C1528 1.362 . S
H1530 C1536 0.930 . S
H1531 C1539 0.930 . S
H1532 C1540 0.930 . S
H1533 C1541 0.930 . S
H1534 C1544 0.930 . S
H1535 C1545 0.930 . S
C1536 H1530 0.930 . S
C1536 C1537 1.355 . S
C1536 C1538 1.415 . S
C1537 C1536 1.355 . S
C1537 C1539 1.419 . S
C1538 C1536 1.415 . S
C1538 C1543 1.425 . S
C1538 C1545 1.409 . S
C1539 H1531 0.930 . S
C1539 C1537 1.419 . S
C1539 C1540 1.362 . S
C1540 H1532 0.930 . S
C1540 C1539 1.362 . S
C1540 C1543 1.409 . S
C1541 H1533 0.930 . S
C1541 C1542 1.355 . S
C1541 C1543 1.415 . S
C1542 C1541 1.355 . S
C1542 C1544 1.419 . S
C1543 C1538 1.425 . S
C1543 C1540 1.409 . S
C1543 C1541 1.415 . S
C1544 H1534 0.930 . S
C1544 C1542 1.419 . S
C1544 C1545 1.362 . S
C1545 H1535 0.930 . S
C1545 C1538 1.409 . S
C1545 C1544 1.362 . S
H1546 C1552 0.930 . S
H1547 C1555 0.930 . S
H1548 C1556 0.930 . S
H1549 C1557 0.930 . S
H1550 C1560 0.930 . S
H1551 C1561 0.930 . S
C1552 H1546 0.930 . S
C1552 C1553 1.355 . S
C1552 C1554 1.415 . S
C1553 C1552 1.355 . S
C1553 C1555 1.419 . S
C1554 C1552 1.415 . S
C1554 C1559 1.425 . S
C1554 C1561 1.409 . S
C1555 H1547 0.930 . S
C1555 C1553 1.419 . S
C1555 C1556 1.362 . S
C1556 H1548 0.930 . S
C1556 C1555 1.362 . S
C1556 C1559 1.409 . S
C1557 H1549 0.930 . S
C1557 C1558 1.355 . S
C1557 C1559 1.415 . S
C1558 C1557 1.355 . S
C1558 C1560 1.419 . S
C1559 C1554 1.425 . S
C1559 C1556 1.409 . S
C1559 C1557 1.415 . S
C1560 H1550 0.930 . S
C1560 C1558 1.419 . S
C1560 C1561 1.362 . S
C1561 H1551 0.930 . S
C1561 C1554 1.409 . S
C1561 C1560 1.362 . S
H1562 C1568 0.930 . S
H1563 C1571 0.930 . S
H1564 C1572 0.930 . S
H1565 C1573 0.930 . S
H1566 C1576 0.930 . S
H1567 C1577 0.930 . S
C1568 H1562 0.930 . S
C1568 C1569 1.355 . S
C1568 C1570 1.415 . S
C1569 C1568 1.355 . S
C1569 C1571 1.419 . S
C1570 C1568 1.415 . S
C1570 C1575 1.425 . S
C1570 C1577 1.409 . S
C1571 H1563 0.930 . S
C1571 C1569 1.419 . S
C1571 C1572 1.362 . S
C1572 H1564 0.930 . S
C1572 C1571 1.362 . S
C1572 C1575 1.409 . S
C1573 H1565 0.930 . S
C1573 C1574 1.355 . S
C1573 C1575 1.415 . S
C1574 C1573 1.355 . S
C1574 C1576 1.419 . S
C1575 C1570 1.425 . S
C1575 C1572 1.409 . S
C1575 C1573 1.415 . S
C1576 H1566 0.930 . S
C1576 C1574 1.419 . S
C1576 C1577 1.362 . S
C1577 H1567 0.930 . S
C1577 C1570 1.409 . S
C1577 C1576 1.362 . S
H1578 C1584 0.930 . S
H1579 C1587 0.930 . S
H1580 C1588 0.930 . S
H1581 C1589 0.930 . S
H1582 C1592 0.930 . S
H1583 C1593 0.930 . S
C1584 H1578 0.930 . S
C1584 C1585 1.355 . S
C1584 C1586 1.415 . S
C1585 C1584 1.355 . S
C1585 C1587 1.419 . S
C1586 C1584 1.415 . S
C1586 C1591 1.425 . S
C1586 C1593 1.409 . S
C1587 H1579 0.930 . S
C1587 C1585 1.419 . S
C1587 C1588 1.362 . S
C1588 H1580 0.930 . S
C1588 C1587 1.362 . S
C1588 C1591 1.409 . S
C1589 H1581 0.930 . S
C1589 C1590 1.355 . S
C1589 C1591 1.415 . S
C1590 C1589 1.355 . S
C1590 C1592 1.419 . S
C1591 C1586 1.425 . S
C1591 C1588 1.409 . S
C1591 C1589 1.415 . S
C1592 H1582 0.930 . S
C1592 C1590 1.419 . S
C1592 C1593 1.362 . S
C1593 H1583 0.930 . S
C1593 C1586 1.409 . S
C1593 C1592 1.362 . S
H1594 C1600 0.930 . S
H1595 C1603 0.930 . S
H1596 C1604 0.930 . S
H1597 C1605 0.930 . S
H1598 C1608 0.930 . S
H1599 C1609 0.930 . S
C1600 H1594 0.930 . S
C1600 C1601 1.355 . S
C1600 C1602 1.415 . S
C1601 C1600 1.355 . S
C1601 C1603 1.419 . S
C1602 C1600 1.415 . S
C1602 C1607 1.425 . S
C1602 C1609 1.409 . S
C1603 H1595 0.930 . S
C1603 C1601 1.419 . S
C1603 C1604 1.362 . S
C1604 H1596 0.930 . S
C1604 C1603 1.362 . S
C1604 C1607 1.409 . S
C1605 H1597 0.930 . S
C1605 C1606 1.355 . S
C1605 C1607 1.415 . S
C1606 C1605 1.355 . S
C1606 C1608 1.419 . S
C1607 C1602 1.425 . S
C1607 C1604 1.409 . S
C1607 C1605 1.415 . S
C1608 H1598 0.930 . S
C1608 C1606 1.419 . S
C1608 C1609 1.362 . S
C1609 H1599 0.930 . S
C1609 C1602 1.409 . S
C1609 C1608 1.362 . S
H1610 C1616 0.930 . S
H1611 C1619 0.930 . S
H1612 C1620 0.930 . S
H1613 C1621 0.930 . S
H1614 C1624 0.930 . S
H1615 C1625 0.930 . S
C1616 H1610 0.930 . S
C1616 C1617 1.355 . S
C1616 C1618 1.415 . S
C1617 C1616 1.355 . S
C1617 C1619 1.419 . S
C1618 C1616 1.415 . S
C1618 C1623 1.425 . S
C1618 C1625 1.409 . S
C1619 H1611 0.930 . S
C1619 C1617 1.419 . S
C1619 C1620 1.362 . S
C1620 H1612 0.930 . S
C1620 C1619 1.362 . S
C1620 C1623 1.409 . S
C1621 H1613 0.930 . S
C1621 C1622 1.355 . S
C1621 C1623 1.415 . S
C1622 C1621 1.355 . S
C1622 C1624 1.419 . S
C1623 C1618 1.425 . S
C1623 C1620 1.409 . S
C1623 C1621 1.415 . S
C1624 H1614 0.930 . S
C1624 C1622 1.419 . S
C1624 C1625 1.362 . S
C1625 H1615 0.930 . S
C1625 C1618 1.409 . S
C1625 C1624 1.362 . S
H1626 C1632 0.930 . S
H1627 C1635 0.930 . S
H1628 C1636 0.930 . S
H1629 C1637 0.930 . S
H1630 C1640 0.930 . S
H1631 C1641 0.930 . S
C1632 H1626 0.930 . S
C1632 C1633 1.355 . S
C1632 C1634 1.415 . S
C1633 C1632 1.355 . S
C1633 C1635 1.419 . S
C1634 C1632 1.415 . S
C1634 C1639 1.425 . S
C1634 C1641 1.409 . S
C1635 H1627 0.930 . S
C1635 C1633 1.419 . S
C1635 C1636 1.362 . S
C1636 H1628 0.930 . S
C1636 C1635 1.362 . S
C1636 C1639 1.409 . S
C1637 H1629 0.930 . S
C1637 C1638 1.355 . S
C1637 C1639 1.415 . S
C1638 C1637 1.355 . S
C1638 C1640 1.419 . S
C1639 C1634 1.425 . S
C1639 C1636 1.409 . S
C1639 C1637 1.415 . S
C1640 H1630 0.930 . S
C1640 C1638 1.419 . S
C1640 C1641 1.362 . S
C1641 H1631 0.930 . S
C1641 C1634 1.409 . S
C1641 C1640 1.362 . S
H1642 C1648 0.930 . S
H1643 C1651 0.930 . S
H1644 C1652 0.930 . S
H1645 C1653 0.930 . S
H1646 C1656 0.930 . S
H1647 C1657 0.930 . S
C1648 H1642 0.930 . S
C1648 C1649 1.355 . S
C1648 C1650 1.415 . S
C1649 C1648 1.355 . S
C1649 C1651 1.419 . S
C1650 C1648 1.415 . S
C1650 C1655 1.425 . S
C1650 C1657 1.409 . S
C1651 H1643 0.930 . S
C1651 C1649 1.419 . S
C1651 C1652 1.362 . S
C1652 H1644 0.930 . S
C1652 C1651 1.362 . S
C1652 C1655 1.409 . S
C1653 H1645 0.930 . S
C1653 C1654 1.355 . S
C1653 C1655 1.415 . S
C1654 C1653 1.355 . S
C1654 C1656 1.419 . S
C1655 C1650 1.425 . S
C1655 C1652 1.409 . S
C1655 C1653 1.415 . S
C1656 H1646 0.930 . S
C1656 C1654 1.419 . S
C1656 C1657 1.362 . S
C1657 H1647 0.930 . S
C1657 C1650 1.409 . S
C1657 C1656 1.362 . S
H1658 C1664 0.930 . S
H1659 C1667 0.930 . S
H1660 C1668 0.930 . S
H1661 C1669 0.930 . S
H1662 C1672 0.930 . S
H1663 C1673 0.930 . S
C1664 H1658 0.930 . S
C1664 C1665 1.355 . S
C1664 C1666 1.415 . S
C1665 C1664 1.355 . S
C1665 C1667 1.419 . S
C1666 C1664 1.415 . S
C1666 C1671 1.425 . S
C1666 C1673 1.409 . S
C1667 H1659 0.930 . S
C1667 C1665 1.419 . S
C1667 C1668 1.362 . S
C1668 H1660 0.930 . S
C1668 C1667 1.362 . S
C1668 C1671 1.409 . S
C1669 H1661 0.930 . S
C1669 C1670 1.355 . S
C1669 C1671 1.415 . S
C1670 C1669 1.355 . S
C1670 C1672 1.419 . S
C1671 C1666 1.425 . S
C1671 C1668 1.409 . S
C1671 C1669 1.415 . S
C1672 H1662 0.930 . S
C1672 C1670 1.419 . S
C1672 C1673 1.362 . S
C1673 H1663 0.930 . S
C1673 C1666 1.409 . S
C1673 C1672 1.362 . S
H1674 C1680 0.930 . S
H1675 C1683 0.930 . S
H1676 C1684 0.930 . S
H1677 C1685 0.930 . S
H1678 C1688 0.930 . S
H1679 C1689 0.930 . S
C1680 H1674 0.930 . S
C1680 C1681 1.355 . S
C1680 C1682 1.415 . S
C1681 C1680 1.355 . S
C1681 C1683 1.419 . S
C1682 C1680 1.415 . S
C1682 C1687 1.425 . S
C1682 C1689 1.409 . S
C1683 H1675 0.930 . S
C1683 C1681 1.419 . S
C1683 C1684 1.362 . S
C1684 H1676 0.930 . S
C1684 C1683 1.362 . S
C1684 C1687 1.409 . S
C1685 H1677 0.930 . S
C1685 C1686 1.355 . S
C1685 C1687 1.415 . S
C1686 C1685 1.355 . S
C1686 C1688 1.419 . S
C1687 C1682 1.425 . S
C1687 C1684 1.409 . S
C1687 C1685 1.415 . S
C1688 H1678 0.930 . S
C1688 C1686 1.419 . S
C1688 C1689 1.362 . S
C1689 H1679 0.930 . S
C1689 C1682 1.409 . S
C1689 C1688 1.362 . S
H1690 C1696 0.930 . S
H1691 C1699 0.930 . S
H1692 C1700 0.930 . S
H1693 C1701 0.930 . S
H1694 C1704 0.930 . S
H1695 C1705 0.930 . S
C1696 H1690 0.930 . S
C1696 C1697 1.355 . S
C1696 C1698 1.415 . S
C1697 C1696 1.355 . S
C1697 C1699 1.419 . S
C1698 C1696 1.415 . S
C1698 C1703 1.425 . S
C1698 C1705 1.409 . S
C1699 H1691 0.930 . S
C1699 C1697 1.419 . S
C1699 C1700 1.362 . S
C1700 H1692 0.930 . S
C1700 C1699 1.362 . S
C1700 C1703 1.409 . S
C1701 H1693 0.930 . S
C1701 C1702 1.355 . S
C1701 C1703 1.415 . S
C1702 C1701 1.355 . S
C1702 C1704 1.419 . S
C1703 C1698 1.425 . S
C1703 C1700 1.409 . S
C1703 C1701 1.415 . S
C1704 H1694 0.930 . S
C1704 C1702 1.419 . S
C1704 C1705 1.362 . S
C1705 H1695 0.930 . S
C1705 C1698 1.409 . S
C1705 C1704 1.362 . S
H1706 C1712 0.930 . S
H1707 C1715 0.930 . S
H1708 C1716 0.930 . S
H1709 C1717 0.930 . S
H1710 C1720 0.930 . S
H1711 C1721 0.930 . S
C1712 H1706 0.930 . S
C1712 C1713 1.355 . S
C1712 C1714 1.415 . S
C1713 C1712 1.355 . S
C1713 C1715 1.419 . S
C1714 C1712 1.415 . S
C1714 C1719 1.425 . S
C1714 C1721 1.409 . S
C1715 H1707 0.930 . S
C1715 C1713 1.419 . S
C1715 C1716 1.362 . S
C1716 H1708 0.930 . S
C1716 C1715 1.362 . S
C1716 C1719 1.409 . S
C1717 H1709 0.930 . S
C1717 C1718 1.355 . S
C1717 C1719 1.415 . S
C1718 C1717 1.355 . S
C1718 C1720 1.419 . S
C1719 C1714 1.425 . S
C1719 C1716 1.409 . S
C1719 C1717 1.415 . S
C1720 H1710 0.930 . S
C1720 C1718 1.419 . S
C1720 C1721 1.362 . S
C1721 H1711 0.930 . S
C1721 C1714 1.409 . S
C1721 C1720 1.362 . S
H1722 C1728 0.930 . S
H1723 C1731 0.930 . S
H1724 C1732 0.930 . S
H1725 C1733 0.930 . S
H1726 C1736 0.930 . S
H1727 C1737 0.930 . S
C1728 H1722 0.930 . S
C1728 C1729 1.355 . S
C1728 C1730 1.415 . S
C1729 C1728 1.355 . S
C1729 C1731 1.419 . S
C1730 C1728 1.415 . S
C1730 C1735 1.425 . S
C1730 C1737 1.409 . S
C1731 H1723 0.930 . S
C1731 C1729 1.419 . S
C1731 C1732 1.362 . S
C1732 H1724 0.930 . S
C1732 C1731 1.362 . S
C1732 C1735 1.409 . S
C1733 H1725 0.930 . S
C1733 C1734 1.355 . S
C1733 C1735 1.415 . S
C1734 C1733 1.355 . S
C1734 C1736 1.419 . S
C1735 C1730 1.425 . S
C1735 C1732 1.409 . S
C1735 C1733 1.415 . S
C1736 H1726 0.930 . S
C1736 C1734 1.419 . S
C1736 C1737 1.362 . S
C1737 H1727 0.930 . S
C1737 C1730 1.409 . S
C1737 C1736 1.362 . S
H1738 C1744 0.930 . S
H1739 C1747 0.930 . S
H1740 C1748 0.930 . S
H1741 C1749 0.930 . S
H1742 C1752 0.930 . S
H1743 C1753 0.930 . S
C1744 H1738 0.930 . S
C1744 C1745 1.355 . S
C1744 C1746 1.415 . S
C1745 C1744 1.355 . S
C1745 C1747 1.419 . S
C1746 C1744 1.415 . S
C1746 C1751 1.425 . S
C1746 C1753 1.409 . S
C1747 H1739 0.930 . S
C1747 C1745 1.419 . S
C1747 C1748 1.362 . S
C1748 H1740 0.930 . S
C1748 C1747 1.362 . S
C1748 C1751 1.409 . S
C1749 H1741 0.930 . S
C1749 C1750 1.355 . S
C1749 C1751 1.415 . S
C1750 C1749 1.355 . S
C1750 C1752 1.419 . S
C1751 C1746 1.425 . S
C1751 C1748 1.409 . S
C1751 C1749 1.415 . S
C1752 H1742 0.930 . S
C1752 C1750 1.419 . S
C1752 C1753 1.362 . S
C1753 H1743 0.930 . S
C1753 C1746 1.409 . S
C1753 C1752 1.362 . S
H1754 C1760 0.930 . S
H1755 C1763 0.930 . S
H1756 C1764 0.930 . S
H1757 C1765 0.930 . S
H1758 C1768 0.930 . S
H1759 C1769 0.930 . S
C1760 H1754 0.930 . S
C1760 C1761 1.355 . S
C1760 C1762 1.415 . S
C1761 C1760 1.355 . S
C1761 C1763 1.419 . S
C1762 C1760 1.415 . S
C1762 C1767 1.425 . S
C1762 C1769 1.409 . S
C1763 H1755 0.930 . S
C1763 C1761 1.419 . S
C1763 C1764 1.362 . S
C1764 H1756 0.930 . S
C1764 C1763 1.362 . S
C1764 C1767 1.409 . S
C1765 H1757 0.930 . S
C1765 C1766 1.355 . S
C1765 C1767 1.415 . S
C1766 C1765 1.355 . S
C1766 C1768 1.419 . S
C1767 C1762 1.425 . S
C1767 C1764 1.409 . S
C1767 C1765 1.415 . S
C1768 H1758 0.930 . S
C1768 C1766 1.419 . S
C1768 C1769 1.362 . S
C1769 H1759 0.930 . S
C1769 C1762 1.409 . S
C1769 C1768 1.362 . S
H1770 C1776 0.930 . S
H1771 C1779 0.930 . S
H1772 C1780 0.930 . S
H1773 C1781 0.930 . S
H1774 C1784 0.930 . S
H1775 C1785 0.930 . S
C1776 H1770 0.930 . S
C1776 C1777 1.355 . S
C1776 C1778 1.415 . S
C1777 C1776 1.355 . S
C1777 C1779 1.419 . S
C1778 C1776 1.415 . S
C1778 C1783 1.425 . S
C1778 C1785 1.409 . S
C1779 H1771 0.930 . S
C1779 C1777 1.419 . S
C1779 C1780 1.362 . S
C1780 H1772 0.930 . S
C1780 C1779 1.362 . S
C1780 C1783 1.409 . S
C1781 H1773 0.930 . S
C1781 C1782 1.355 . S
C1781 C1783 1.415 . S
C1782 C1781 1.355 . S
C1782 C1784 1.419 . S
C1783 C1778 1.425 . S
C1783 C1780 1.409 . S
C1783 C1781 1.415 . S
C1784 H1774 0.930 . S
C1784 C1782 1.419 . S
C1784 C1785 1.362 . S
C1785 H1775 0.930 . S
C1785 C1778 1.409 . S
C1785 C1784 1.362 . S
H1786 C1792 0.930 . S
H1787 C1795 0.930 . S
H1788 C1796 0.930 . S
H1789 C1797 0.930 . S
H1790 C1800 0.930 . S
H1791 C1801 0.930 . S
C1792 H1786 0.930 . S
C1792 C1793 1.355 . S
C1792 C1794 1.415 . S
C1793 C1792 1.355 . S
C1793 C1795 1.419 . S
C1794 C1792 1.415 . S
C1794 C1799 1.425 . S
C1794 C1801 1.409 . S
C1795 H1787 0.930 . S
C1795 C1793 1.419 . S
C1795 C1796 1.362 . S
C1796 H1788 0.930 . S
C1796 C1795 1.362 . S
C1796 C1799 1.409 . S
C1797 H1789 0.930 . S
C1797 C1798 1.355 . S
C1797 C1799 1.415 . S
C1798 C1797 1.355 . S
C1798 C1800 1.419 . S
C1799 C1794 1.425 . S
C1799 C1796 1.409 . S
C1799 C1797 1.415 . S
C1800 H1790 0.930 . S
C1800 C1798 1.419 . S
C1800 C1801 1.362 . S
C1801 H1791 0.930 . S
C1801 C1794 1.409 . S
C1801 C1800 1.362 . S
H1802 C1808 0.930 . S
H1803 C1811 0.930 . S
H1804 C1812 0.930 . S
H1805 C1813 0.930 . S
H1806 C1816 0.930 . S
H1807 C1817 0.930 . S
C1808 H1802 0.930 . S
C1808 C1809 1.355 . S
C1808 C1810 1.415 . S
C1809 C1808 1.355 . S
C1809 C1811 1.419 . S
C1810 C1808 1.415 . S
C1810 C1815 1.425 . S
C1810 C1817 1.409 . S
C1811 H1803 0.930 . S
C1811 C1809 1.419 . S
C1811 C1812 1.362 . S
C1812 H1804 0.930 . S
C1812 C1811 1.362 . S
C1812 C1815 1.409 . S
C1813 H1805 0.930 . S
C1813 C1814 1.355 . S
C1813 C1815 1.415 . S
C1814 C1813 1.355 . S
C1814 C1816 1.419 . S
C1815 C1810 1.425 . S
C1815 C1812 1.409 . S
C1815 C1813 1.415 . S
C1816 H1806 0.930 . S
C1816 C1814 1.419 . S
C1816 C1817 1.362 . S
C1817 H1807 0.930 . S
C1817 C1810 1.409 . S
C1817 C1816 1.362 . S
C961 C147 1.465 . S
C966 C254 1.373 . S
C977 C158 1.481 . S
C982 C338 1.447 . S
C993 C136 1.465 . S
C998 C432 1.446 . S
C1009 C125 1.428 . S
C1014 C348 1.448 . S
C1030 C422 1.344 . S
C1025 C103 1.455 . S
C1041 C114 1.406 . S
C1046 C264 1.439 . S
C1062 C265 1.421 . S
C1057 C131 1.521 . S
C1078 C349 1.446 . S
C1073 C109 1.520 . S
C1089 C120 1.500 . S
C1094 C441 1.443 . S
C1105 C153 1.483 . S
C1110 C357 1.474 . S
C1121 C164 1.474 . S
C1126 C433 1.453 . S
C1142 C273 1.417 . S
C1137 C142 1.449 . S
C1158 C506 1.411 . S
C1153 C15 1.455 . S
C1169 C26 1.472 . S
C1174 C590 1.462 . S
C1185 C4 1.464 . S
C1190 C684 1.455 . S
C1201 C191 1.446 . S
C1206 C600 1.446 . S
C1217 C169 1.431 . S
C1222 C674 1.425 . S
C1233 C180 1.403 . S
C1238 C516 1.420 . S
C1249 C197 1.508 . S
C1254 C517 1.404 . S
C1265 C175 1.519 . S
C1270 C601 1.448 . S
C1286 C693 1.437 . S
C1281 C186 1.501 . S
C1297 C21 1.502 . S
C1302 C609 1.436 . S
C1318 C685 1.446 . S
C1313 C32 1.460 1_455 S
C1329 C10 1.489 . S
C1334 C525 1.429 . S
C1350 C758 1.432 . S
C1345 C81 1.442 . S
C1361 C92 1.470 . S
C1366 C842 1.463 . S
C1382 C936 1.449 . S
C1377 C70 1.437 . S
C1398 C852 1.440 . S
C1393 C59 1.423 . S
C1414 C926 1.344 . S
C1409 C37 1.449 . S
C1425 C48 1.424 . S
C1430 C768 1.424 . S
C1441 C65 1.488 . S
C1446 C769 1.455 . S
C1457 C43 1.539 . S
C1462 C853 1.427 . S
C1478 C945 1.442 . S
C1473 C54 1.494 . S
C1489 C87 1.476 . S
C1494 C861 1.416 . S
C1505 C98 1.491 . S
C1510 C937 1.377 . S
C1521 C76 1.457 . S
C1526 C777 1.393 . S
C1537 C170 1.575 . S
C1542 C261 1.449 . S
C1558 C345 1.489 . S
C1553 C181 1.585 . S
C1569 C192 1.539 . S
C1574 C438 1.369 . S
C1585 C71 1.563 . S
C1590 C354 1.407 . S
C1601 C82 1.564 . S
C1606 C429 1.494 . S
C1622 C270 1.408 . S
C1617 C93 1.517 . S
C1633 C38 1.539 . S
C1638 C513 1.435 . S
C1649 C49 1.592 . S
C1654 C597 1.514 . S
C1665 C60 1.579 . S
C1670 C690 1.412 . S
C1681 C137 1.591 . S
C1686 C606 1.438 . S
C1702 C681 1.458 . S
C1697 C148 1.585 . S
C1713 C159 1.530 . S
C1718 C522 1.425 . S
C1729 C104 1.577 . S
C1734 C765 1.422 . S
C1745 C115 1.601 . S
C1750 C849 1.414 . S
C1766 C942 1.441 . S
C1761 C126 1.565 . S
C1777 C5 1.557 . S
C1782 C858 1.369 . S
C1793 C16 1.551 . S
C1798 C933 1.442 . S
C1809 C27 1.547 . S
C1814 C774 1.356 . S
