# Generated by pormake.
# Topology tsx, (6,3)-cn, num edge types: 1
# Building blocks:
#     Node 0, Type 0, BuildingBlock: MIDCAF_clean_sbu_0, # of connection points: 6
#     Node 1, Type 0, BuildingBlock: MIDCAF_clean_sbu_0, # of connection points: 6
#     Node 2, Type 1, BuildingBlock: KAKCAD_clean_linker_0, # of connection points: 3
#     Node 3, Type 1, BuildingBlock: KAKCAD_clean_linker_0, # of connection points: 3
#     Node 4, Type 1, BuildingBlock: KAKCAD_clean_linker_0, # of connection points: 3
#     Node 5, Type 1, BuildingBlock: KAKCAD_clean_linker_0, # of connection points: 3
#     Edge 6, Type (0, 1), BuildingBlock: XIVTED_clean_linker_0, # of connection points: 2
#     Edge 7, Type (0, 1), BuildingBlock: XIVTED_clean_linker_0, # of connection points: 2
#     Edge 8, Type (0, 1), BuildingBlock: XIVTED_clean_linker_0, # of connection points: 2
#     Edge 9, Type (0, 1), BuildingBlock: XIVTED_clean_linker_0, # of connection points: 2
#     Edge 10, Type (0, 1), BuildingBlock: XIVTED_clean_linker_0, # of connection points: 2
#     Edge 11, Type (0, 1), BuildingBlock: XIVTED_clean_linker_0, # of connection points: 2
#     Edge 12, Type (0, 1), BuildingBlock: XIVTED_clean_linker_0, # of connection points: 2
#     Edge 13, Type (0, 1), BuildingBlock: XIVTED_clean_linker_0, # of connection points: 2
#     Edge 14, Type (0, 1), BuildingBlock: XIVTED_clean_linker_0, # of connection points: 2
#     Edge 15, Type (0, 1), BuildingBlock: XIVTED_clean_linker_0, # of connection points: 2
#     Edge 16, Type (0, 1), BuildingBlock: XIVTED_clean_linker_0, # of connection points: 2
#     Edge 17, Type (0, 1), BuildingBlock: XIVTED_clean_linker_0, # of connection points: 2
# Relax obj value: 0.118
# Max RMSD: 0.182
# Mean RMSD: 0.113
data_MOF--net-tsx--node1-MIDCAF_clean_sbu_0--node2-KAKCAD_clean_linker_0--edge1-XIVTED_clean_linker_0
_symmetry_space_group_name_H-M    P1
_symmetry_Int_Tables_number       1
_symmetry_cell_setting            triclinic
loop_
_symmetry_equiv_pos_as_xyz
'x, y, z'
_cell_length_a     23.736956
_cell_length_b     24.92533
_cell_length_c     46.988403
_cell_angle_alpha  90.285725
_cell_angle_beta   96.797397
_cell_angle_gamma 90.137358
loop_
_atom_site_label
_atom_site_type_symbol
_atom_site_fract_x
_atom_site_fract_y
_atom_site_fract_z
_atom_type_partial_charge
Zn0 Zn 0.9026 0.95791 0.97728 0.0
Zn1 Zn 0.02548 0.91723 0.0556 0.0
Zn2 Zn 0.97697 0.96129 0.01743 0.0
C3 C 0.09993 0.99381 0.0372 0.0
C4 C 0.06156 0.87644 0.00684 0.0
O5 O 0.9358 0.88575 0.02169 0.0
O6 O 0.87911 0.88038 0.98142 0.0
C7 C 0.88284 0.0468 0.01347 0.0
O8 O 0.06627 0.98361 0.01413 0.0
O9 O 0.08878 0.97366 0.0606 0.0
O10 O 0.04187 0.8561 0.02837 0.0
O11 O 0.05136 0.92618 0.00088 0.0
O12 O 0.85818 0.01683 0.99398 0.0
O13 O 0.93266 0.03495 0.0252 0.0
O14 O 0.03048 0.97701 0.98369 0.0
O15 O 0.95755 0.98027 0.94962 0.0
C16 C 0.01013 0.98587 0.95751 0.0
O17 O 0.96577 0.00752 0.0549 0.0
O18 O 0.95837 0.93166 0.07771 0.0
C19 C 0.89975 0.85944 0.00482 0.0
C20 C 0.95214 0.98222 0.07677 0.0
Zn21 Zn 0.63328 0.55964 0.55163 0.0
Zn22 Zn 0.46183 0.55688 0.47195 0.0
Zn23 Zn 0.54866 0.55712 0.51225 0.0
C24 C 0.54763 0.49898 0.45031 0.0
C25 C 0.48841 0.66346 0.48233 0.0
O26 O 0.52376 0.51616 0.55102 0.0
O27 O 0.6052 0.5093 0.5789 0.0
C28 C 0.67505 0.51495 0.50496 0.0
O29 O 0.57534 0.51459 0.4742 0.0
O30 O 0.49582 0.51036 0.44444 0.0
O31 O 0.45721 0.63509 0.46455 0.0
O32 O 0.52329 0.6412 0.50184 0.0
O33 O 0.69309 0.53477 0.52907 0.0
O34 O 0.62184 0.51736 0.49552 0.0
O35 O 0.56983 0.64267 0.52299 0.0
O36 O 0.63247 0.63667 0.56156 0.0
C37 C 0.60221 0.66509 0.54367 0.0
O38 O 0.47879 0.51069 0.52813 0.0
O39 O 0.4065 0.52227 0.49447 0.0
C40 C 0.55267 0.49992 0.57436 0.0
C41 C 0.42647 0.5023 0.51817 0.0
C42 C 0.05437 0.06194 0.29316 0.0
C43 C 0.0416 0.1056 0.27465 0.0
C44 C 0.07722 0.07037 0.32162 0.0
C45 C 0.08798 0.12265 0.33221 0.0
C46 C 0.07685 0.1662 0.31347 0.0
C47 C 0.05381 0.1578 0.28506 0.0
C48 C 0.10689 0.13209 0.3631 0.0
C49 C 0.14737 0.09897 0.3785 0.0
C50 C 0.16283 0.10714 0.40801 0.0
C51 C 0.13707 0.14828 0.42234 0.0
C52 C 0.09626 0.1813 0.40716 0.0
C53 C 0.08185 0.17319 0.37766 0.0
C54 C 0.06442 0.22178 0.42177 0.0
C55 C 0.03271 0.20632 0.44376 0.0
C56 C 0.05851 0.27397 0.41075 0.0
C57 C 0.0193 0.30923 0.42042 0.0
C58 C 0.98486 0.29272 0.4411 0.0
C59 C 0.20482 0.07132 0.42379 0.0
C60 C 0.19227 0.01669 0.42632 0.0
C61 C 0.25859 0.09071 0.43484 0.0
C62 C 0.30008 0.05537 0.44731 0.0
C63 C 0.28782 0.00044 0.44947 0.0
C64 C 0.23322 0.98163 0.43931 0.0
C65 C 0.99295 0.24145 0.45325 0.0
H66 H 0.04656 0.02113 0.28568 0.0
H67 H 0.08486 0.03599 0.33553 0.0
H68 H 0.0853 0.20697 0.32089 0.0
H69 H 0.04434 0.19234 0.27146 0.0
H70 H 0.16727 0.06705 0.36756 0.0
H71 H 0.04875 0.19749 0.36628 0.0
H72 H 0.14803 0.15398 0.44522 0.0
H73 H 0.03622 0.16607 0.45237 0.0
H74 H 0.08248 0.28662 0.3937 0.0
H75 H 0.01385 0.34839 0.4106 0.0
H76 H 0.15102 0.00104 0.41783 0.0
H77 H 0.26902 0.13277 0.43293 0.0
H78 H 0.96742 0.22801 0.4695 0.0
H79 H 0.22291 0.93938 0.44038 0.0
H80 H 0.34189 0.07076 0.45495 0.0
C81 C 0.01537 0.06643 0.74849 0.0
C82 C 0.06828 0.04754 0.76097 0.0
C83 C 1.00397 0.07154 0.71882 0.0
C84 C 0.04552 0.05851 0.70106 0.0
C85 C 0.0982 0.0388 0.71346 0.0
C86 C 0.1093 0.03285 0.74319 0.0
C87 C 0.0349 0.06908 0.66991 0.0
C88 C 0.07367 0.09974 0.65663 0.0
C89 C 0.06167 0.11563 0.62786 0.0
C90 C 0.01148 0.09684 0.61177 0.0
C91 C 0.97275 0.06511 0.62478 0.0
C92 C 0.98439 0.05213 0.65392 0.0
C93 C 0.91962 0.04519 0.60843 0.0
C94 C 0.86729 0.05566 0.61839 0.0
C95 C 0.92138 0.01074 0.58487 0.0
C96 C 0.8722 0.98404 0.57282 0.0
C97 C 0.82018 0.99185 0.58393 0.0
C98 C 0.10024 0.15433 0.61565 0.0
C99 C 0.12665 0.19553 0.63307 0.0
C100 C 0.11117 0.1509 0.5869 0.0
C101 C 0.14818 0.18741 0.57606 0.0
C102 C 0.17548 0.2274 0.59389 0.0
C103 C 0.16423 0.23114 0.62242 0.0
C104 C 0.81802 0.02977 0.60609 0.0
H105 H 0.98276 0.07735 0.76174 0.0
H106 H 0.96324 0.08726 0.70983 0.0
H107 H 0.13085 0.02836 0.70015 0.0
H108 H 0.15035 0.01811 0.75234 0.0
H109 H 0.11257 0.11282 0.66919 0.0
H110 H 0.95435 0.02812 0.66409 0.0
H111 H 1.00124 0.10852 0.58959 0.0
H112 H 0.86489 0.08257 0.63639 0.0
H113 H 0.96141 0.00188 0.57694 0.0
H114 H 0.87586 0.95488 0.55599 0.0
H115 H 0.11794 0.20082 0.65501 0.0
H116 H 0.09191 0.11962 0.57289 0.0
H117 H 0.77861 0.038 0.61472 0.0
H118 H 0.1838 0.26235 0.63642 0.0
H119 H 0.15624 0.18384 0.55391 0.0
C120 C 0.49275 0.41988 0.79251 0.0
C121 C 0.48819 0.46329 0.77337 0.0
C122 C 0.50028 0.42882 0.82216 0.0
C123 C 0.50356 0.48136 0.83332 0.0
C124 C 0.49899 0.52467 0.81414 0.0
C125 C 0.49134 0.51576 0.78457 0.0
C126 C 0.51067 0.49129 0.86481 0.0
C127 C 0.54737 0.45964 0.88341 0.0
C128 C 0.55325 0.4687 0.9132 0.0
C129 C 0.52236 0.51023 0.92433 0.0
C130 C 0.48465 0.54167 0.90609 0.0
C131 C 0.4794 0.53199 0.87641 0.0
C132 C 0.44707 0.58162 0.91788 0.0
C133 C 0.41996 0.56923 0.94204 0.0
C134 C 0.4344 0.63054 0.90376 0.0
C135 C 0.39361 0.66505 0.91277 0.0
C136 C 0.36468 0.65144 0.93616 0.0
C137 C 0.5887 0.43236 0.93275 0.0
C138 C 0.58211 0.37662 0.92953 0.0
C139 C 0.6283 0.45261 0.95489 0.0
C140 C 0.66135 0.41753 0.97316 0.0
C141 C 0.65434 0.36174 0.96992 0.0
C142 C 0.6143 0.34176 0.94797 0.0
C143 C 0.37938 0.60378 0.95111 0.0
H144 H 0.49007 0.37897 0.78458 0.0
H145 H 0.50273 0.39456 0.83633 0.0
H146 H 0.50221 0.56563 0.82198 0.0
H147 H 0.4893 0.55011 0.77046 0.0
H148 H 0.57176 0.42808 0.87475 0.0
H149 H 0.44888 0.55467 0.86233 0.0
H150 H 0.52638 0.51691 0.94729 0.0
H151 H 0.42832 0.53175 0.9533 0.0
H152 H 0.45513 0.6416 0.8853 0.0
H153 H 0.38326 0.70135 0.90073 0.0
H154 H 0.55153 0.35992 0.91287 0.0
H155 H 0.63418 0.49548 0.9578 0.0
H156 H 0.3587 0.59261 0.96956 0.0
H157 H 0.60853 0.29894 0.94474 0.0
H158 H 0.69196 0.4339 0.9899 0.0
C159 C 0.62685 0.43585 0.24179 0.0
C160 C 0.62788 0.38968 0.25887 0.0
C161 C 0.62082 0.43172 0.21195 0.0
C162 C 0.61597 0.38126 0.19831 0.0
C163 C 0.61734 0.33495 0.21536 0.0
C164 C 0.62316 0.33912 0.24532 0.0
C165 C 0.60915 0.37759 0.16641 0.0
C166 C 0.63945 0.41258 0.15054 0.0
C167 C 0.63046 0.4133 0.12046 0.0
C168 C 0.59256 0.37603 0.10603 0.0
C169 C 0.56241 0.33958 0.12145 0.0
C170 C 0.57077 0.34115 0.15169 0.0
C171 C 0.52081 0.301 0.10626 0.0
C172 C 0.48606 0.31579 0.08116 0.0
C173 C 0.51435 0.24933 0.11731 0.0
C174 C 0.47327 0.21406 0.10422 0.0
C175 C 0.43785 0.22899 0.07936 0.0
C176 C 0.65932 0.45485 0.10467 0.0
C177 C 0.66528 0.50727 0.11585 0.0
C178 C 0.68222 0.44285 0.07907 0.0
C179 C 0.71226 0.48204 0.06565 0.0
C180 C 0.72026 0.53357 0.07779 0.0
C181 C 0.69564 0.54593 0.10271 0.0
C182 C 0.44532 0.28018 0.06782 0.0
H183 H 0.62899 0.47546 0.25145 0.0
H184 H 0.61871 0.46831 0.19954 0.0
H185 H 0.61434 0.29546 0.20557 0.0
H186 H 0.62414 0.30274 0.25787 0.0
H187 H 0.67032 0.4397 0.16176 0.0
H188 H 0.54583 0.31532 0.16384 0.0
H189 H 0.586 0.37597 0.08283 0.0
H190 H 0.48926 0.35539 0.07211 0.0
H191 H 0.54087 0.23603 0.13629 0.0
H192 H 0.46848 0.1755 0.11416 0.0
H193 H 0.64665 0.51852 0.13497 0.0
H194 H 0.6784 0.40288 0.06988 0.0
H195 H 0.41952 0.29301 0.04852 0.0
H196 H 0.69993 0.58573 0.11212 0.0
H197 H 0.7307 0.47162 0.04635 0.0
H198 H 0.1196 0.08096 0.00427 0.0
H199 H 0.43951 0.1186 0.07613 0.0
H200 H 0.20076 0.97604 0.06928 0.0
H201 H 0.33103 0.25433 0.0529 0.0
H202 H 0.36014 0.0587 0.06078 0.0
H203 H 0.20566 0.13767 0.00924 0.0
C204 C 0.15588 0.06941 0.01914 0.0
C205 C 0.15315 0.02422 0.03661 0.0
C206 C 0.35409 0.10164 0.0588 0.0
C207 C 0.25107 0.08776 0.042 0.0
C208 C 0.39923 0.13602 0.06777 0.0
C209 C 0.392 0.19197 0.06649 0.0
C210 C 0.30137 0.12305 0.04795 0.0
C211 C 0.33902 0.21166 0.05432 0.0
C212 C 0.20461 0.10179 0.02207 0.0
C213 C 0.20104 0.01092 0.05565 0.0
N214 N 0.29563 0.17726 0.04569 0.0
N215 N 0.24802 0.0425 0.05782 0.0
H216 H 0.14422 0.91321 0.97562 0.0
H217 H 0.26337 0.61798 0.95214 0.0
H218 H 0.06979 0.7679 0.00416 0.0
H219 H 0.3574 0.76179 0.93763 0.0
H220 H 0.18638 0.6731 0.96581 0.0
H221 H 0.21621 0.85904 0.95538 0.0
C222 C 0.14253 0.8699 0.97721 0.0
C223 C 0.10117 0.84489 0.99161 0.0
C224 C 0.22382 0.69271 0.95964 0.0
C225 C 0.18335 0.78301 0.96892 0.0
C226 C 0.26808 0.66121 0.95204 0.0
C227 C 0.31739 0.68521 0.94411 0.0
C228 C 0.22853 0.74884 0.95927 0.0
C229 C 0.32015 0.74154 0.94354 0.0
C230 C 0.18381 0.83909 0.96588 0.0
C231 C 0.10119 0.78877 0.99339 0.0
N232 N 0.27641 0.77149 0.95115 0.0
N233 N 0.14173 0.75979 0.98228 0.0
H234 H 0.82458 0.79141 0.97376 0.0
H235 H 0.80464 0.59485 0.10554 0.0
H236 H 0.93002 0.80553 0.05489 0.0
H237 H 0.71433 0.5661 0.0217 0.0
H238 H 0.85465 0.66938 0.08623 0.0
H239 H 0.78725 0.70652 0.98963 0.0
C240 C 0.84022 0.77651 0.99483 0.0
C241 C 0.88013 0.80596 0.01313 0.0
C242 C 0.82431 0.64662 0.07191 0.0
C243 C 0.83738 0.70887 0.03143 0.0
C244 C 0.79563 0.60417 0.08296 0.0
C245 C 0.75488 0.57476 0.06523 0.0
C246 C 0.81181 0.66032 0.04291 0.0
C247 C 0.74544 0.58789 0.03606 0.0
C248 C 0.81891 0.72797 0.00384 0.0
C249 C 0.89904 0.78447 0.04011 0.0
N250 N 0.77322 0.63022 0.02585 0.0
N251 N 0.87715 0.73752 0.04851 0.0
H252 H 0.92832 0.14736 0.02392 0.0
H253 H 0.61851 0.2751 0.99808 0.0
H254 H 0.77116 0.05887 0.01825 0.0
H255 H 0.77012 0.36106 0.98338 0.0
H256 H 0.67711 0.20257 0.02005 0.0
H257 H 0.87416 0.23163 0.0233 0.0
C258 C 0.88262 0.14573 0.02348 0.0
C259 C 0.85391 0.09638 0.02077 0.0
C260 C 0.69774 0.23759 0.01243 0.0
C261 C 0.79209 0.19179 0.01994 0.0
C262 C 0.66427 0.27896 0.99989 0.0
C263 C 0.68956 0.3235 0.98837 0.0
C264 C 0.75702 0.24036 0.01318 0.0
C265 C 0.74902 0.3271 0.9918 0.0
C266 C 0.85175 0.19369 0.0229 0.0
C267 C 0.79474 0.09622 0.02002 0.0
N268 N 0.78086 0.2855 0.00342 0.0
N269 N 0.7658 0.14313 0.01931 0.0
H270 H 0.61431 0.73708 0.50084 0.0
H271 H 0.74369 0.95099 0.61752 0.0
H272 H 0.60882 0.72532 0.59193 0.0
H273 H 0.78352 0.94984 0.53016 0.0
H274 H 0.67157 0.88322 0.6048 0.0
H275 H 0.65314 0.82852 0.50792 0.0
C276 C 0.61945 0.7545 0.52216 0.0
C277 C 0.60901 0.72376 0.54592 0.0
C278 C 0.69551 0.89823 0.58826 0.0
C279 C 0.6537 0.82723 0.55419 0.0
C280 C 0.7366 0.93753 0.59545 0.0
C281 C 0.77055 0.95615 0.57499 0.0
C282 C 0.68834 0.87651 0.56046 0.0
C283 C 0.75942 0.93593 0.54685 0.0
C284 C 0.64209 0.80634 0.52623 0.0
C285 C 0.61687 0.7477 0.57312 0.0
N286 N 0.71981 0.89667 0.5405 0.0
N287 N 0.63928 0.79772 0.57655 0.0
H288 H 0.65951 0.42168 0.4739 0.0
H289 H 0.98876 0.40046 0.45269 0.0
H290 H 0.78394 0.54339 0.50114 0.0
H291 H 0.87477 0.26468 0.4455 0.0
H292 H 0.91031 0.45795 0.46305 0.0
H293 H 0.7339 0.36867 0.45484 0.0
C294 C 0.70217 0.43774 0.4752 0.0
C295 C 0.71583 0.48686 0.48896 0.0
C296 C 0.90244 0.41557 0.45919 0.0
C297 C 0.80088 0.42642 0.46799 0.0
C298 C 0.94717 0.3828 0.45328 0.0
C299 C 0.93832 0.3277 0.44851 0.0
C300 C 0.84832 0.39318 0.46012 0.0
C301 C 0.8836 0.30683 0.44957 0.0
C302 C 0.74467 0.40731 0.46467 0.0
C303 C 0.77188 0.50554 0.49071 0.0
N304 N 0.8406 0.33961 0.45525 0.0
N305 N 0.81241 0.47521 0.48048 0.0
H306 H 0.31104 0.49938 0.5123 0.0
H307 H 0.28276 0.25391 0.61731 0.0
H308 H 0.45819 0.41982 0.55524 0.0
H309 H 0.15707 0.28962 0.54602 0.0
H310 H 0.34499 0.32292 0.60066 0.0
H311 H 0.25054 0.43188 0.53096 0.0
C312 C 0.33063 0.46825 0.52609 0.0
C313 C 0.38983 0.46585 0.53266 0.0
C314 C 0.30391 0.31541 0.58862 0.0
C315 C 0.32071 0.3883 0.55392 0.0
C316 C 0.26846 0.27623 0.5981 0.0
C317 C 0.21487 0.26618 0.58293 0.0
C318 C 0.28508 0.34537 0.56416 0.0
C319 C 0.19827 0.29594 0.55814 0.0
C320 C 0.29606 0.4296 0.53657 0.0
C321 C 0.4128 0.42434 0.55045 0.0
N322 N 0.23307 0.33459 0.54965 0.0
N323 N 0.37817 0.38715 0.56052 0.0
H324 H 0.48866 0.72776 0.43608 0.0
H325 H 0.3931 0.98944 0.4323 0.0
H326 H 0.4677 0.73052 0.52589 0.0
H327 H 0.28368 0.92288 0.49018 0.0
H328 H 0.45989 0.91549 0.44397 0.0
H329 H 0.45471 0.82032 0.43191 0.0
C330 C 0.4784 0.74862 0.45508 0.0
C331 C 0.48104 0.72197 0.48136 0.0
C332 C 0.4216 0.9176 0.45437 0.0
C333 C 0.441 0.827 0.4767 0.0
C334 C 0.38379 0.95987 0.44792 0.0
C335 C 0.33258 0.96169 0.46005 0.0
C336 C 0.40818 0.87729 0.47324 0.0
C337 C 0.32238 0.92234 0.48009 0.0
C338 C 0.45927 0.80141 0.45275 0.0
C339 C 0.46659 0.75016 0.50533 0.0
N340 N 0.35973 0.88149 0.48597 0.0
N341 N 0.44557 0.80085 0.50227 0.0
H342 H 0.90331 0.94342 0.12219 0.0
H343 H 0.06409 0.15836 0.22599 0.0
H344 H 0.98042 0.08583 0.09188 0.0
H345 H 0.95928 0.03269 0.25485 0.0
H346 H 0.02496 0.13885 0.17662 0.0
H347 H 0.91184 0.98219 0.17025 0.0
C348 C 0.92081 0.98346 0.12554 0.0
C349 C 0.94214 0.01107 0.10317 0.0
C350 C 0.01 0.11596 0.19378 0.0
C351 C 0.95349 0.05512 0.15827 0.0
C352 C 0.03231 0.12712 0.22202 0.0
C353 C 0.01563 0.09658 0.24464 0.0
C354 C 0.97107 0.07364 0.18805 0.0
C355 C 0.97459 0.05632 0.23808 0.0
C356 C 0.92591 0.00553 0.15303 0.0
C357 C 0.96389 0.06299 0.1086 0.0
N358 N 0.95422 0.04566 0.2104 0.0
N359 N 0.97023 0.08288 0.13579 0.0
H360 H 0.0703 0.91724 0.92791 0.0
H361 H 0.05241 0.12452 0.80048 0.0
H362 H 0.02717 0.08381 0.93594 0.0
H363 H 0.11078 0.96198 0.79303 0.0
H364 H 0.06012 0.11444 0.85242 0.0
H365 H 0.10432 0.93642 0.88174 0.0
C366 C 0.07038 0.95827 0.92044 0.0
C367 C 0.04675 -0.00075 0.93564 0.0
C368 C 0.07203 0.08109 0.83956 0.0
C369 C 0.08276 0.02116 0.88254 0.0
C370 C 0.06733 0.08681 0.80991 0.0
C371 C 0.08002 0.0437 0.79252 0.0
C372 C 0.0886 0.03153 0.85195 0.0
C373 C 0.10025 0.99604 0.80575 0.0
C374 C 0.08909 0.96917 0.89396 0.0
C375 C 0.04574 0.0514 0.9248 0.0
N376 N 0.10296 0.99086 0.8347 0.0
N377 N 0.06266 0.06078 0.89867 0.0
H378 H 0.45101 0.52701 0.59257 0.0
H379 H 0.54366 0.38904 0.74374 0.0
H380 H 0.59418 0.42143 0.61064 0.0
H381 H 0.42155 0.51728 0.73105 0.0
H382 H 0.54433 0.38278 0.69193 0.0
H383 H 0.42145 0.50535 0.63957 0.0
C384 C 0.4751 0.49796 0.60605 0.0
C385 C 0.52536 0.47634 0.59798 0.0
C386 C 0.51679 0.41184 0.70044 0.0
C387 C 0.49268 0.45222 0.65167 0.0
C388 C 0.51617 0.41525 0.73006 0.0
C389 C 0.4832 0.45436 0.74184 0.0
C390 C 0.48435 0.44786 0.68239 0.0
C391 C 0.44869 0.48742 0.72294 0.0
C392 C 0.45859 0.48599 0.63294 0.0
C393 C 0.55543 0.43931 0.61627 0.0
N394 N 0.45065 0.48386 0.69419 0.0
N395 N 0.53906 0.42895 0.6424 0.0
H396 H 0.50881 0.40898 0.42236 0.0
H397 H 0.6934 0.45851 0.29493 0.0
H398 H 0.6462 0.5232 0.42796 0.0
H399 H 0.56759 0.33329 0.2951 0.0
H400 H 0.68662 0.47492 0.3458 0.0
H401 H 0.54035 0.37164 0.37888 0.0
C402 C 0.54655 0.42532 0.41469 0.0
C403 C 0.57498 0.46915 0.4286 0.0
C404 C 0.66115 0.44331 0.33482 0.0
C405 C 0.61034 0.42798 0.37825 0.0
C406 C 0.66472 0.43412 0.30572 0.0
C407 C 0.63038 0.39496 0.29057 0.0
C408 C 0.62258 0.41345 0.34887 0.0
C409 C 0.59492 0.36384 0.30583 0.0
C410 C 0.56446 0.40418 0.3898 0.0
C411 C 0.6234 0.48916 0.41783 0.0
N412 N 0.5914 0.37427 0.33398 0.0
N413 N 0.63905 0.46903 0.39292 0.0
loop_
_geom_bond_atom_site_label_1
_geom_bond_atom_site_label_2
_geom_bond_distance
_geom_bond_site_symmetry_2
_ccdc_geom_bond_type
Zn0 O6 1.907 1_546 S
Zn0 O12 1.898 . S
Zn0 O15 1.905 1_545 S
Zn1 O9 1.905 . S
Zn1 O10 1.898 1_545 S
Zn1 O18 1.920 1_545 S
Zn2 O5 2.080 1_445 S
Zn2 O8 2.114 . S
Zn2 O11 2.120 1_545 S
Zn2 O13 2.120 1_455 S
Zn2 O14 2.114 1_554 S
Zn2 O17 2.080 . S
C3 O8 1.166 . S
C3 O9 1.182 . S
C4 O10 1.167 . S
C4 O11 1.299 . S
O5 Zn2 2.080 1_665 S
O5 C19 1.305 . S
O6 Zn0 1.907 1_564 S
O6 C19 1.244 . S
C7 O12 1.169 . S
C7 O13 1.297 1_556 S
O8 Zn2 2.114 . S
O8 C3 1.166 . S
O9 Zn1 1.905 . S
O9 C3 1.182 . S
O10 Zn1 1.898 1_565 S
O10 C4 1.167 . S
O11 Zn2 2.120 1_565 S
O11 C4 1.299 . S
O12 Zn0 1.898 . S
O12 C7 1.169 . S
O13 Zn2 2.120 1_655 S
O13 C7 1.297 1_554 S
O14 Zn2 2.114 1_556 S
O14 C16 1.166 1_545 S
O15 Zn0 1.905 1_565 S
O15 C16 1.182 1_655 S
C16 O14 1.166 1_565 S
C16 O15 1.182 1_455 S
O17 Zn2 2.080 . S
O17 C20 1.305 1_545 S
O18 Zn1 1.920 1_565 S
O18 C20 1.234 . S
C19 O5 1.305 . S
C19 O6 1.244 . S
C20 O17 1.305 1_565 S
C20 O18 1.234 . S
Zn21 O27 1.920 . S
Zn21 O33 1.898 . S
Zn21 O36 1.905 . S
Zn22 O30 1.905 . S
Zn22 O31 1.898 . S
Zn22 O39 1.920 . S
Zn23 O26 2.080 . S
Zn23 O29 2.114 . S
Zn23 O32 2.120 . S
Zn23 O34 2.120 . S
Zn23 O35 2.114 . S
Zn23 O38 2.080 . S
C24 O29 1.166 . S
C24 O30 1.182 . S
C25 O31 1.167 . S
C25 O32 1.299 . S
O26 Zn23 2.080 . S
O26 C40 1.305 . S
O27 Zn21 1.920 . S
O27 C40 1.234 . S
C28 O33 1.167 . S
C28 O34 1.299 . S
O29 Zn23 2.114 . S
O29 C24 1.166 . S
O30 Zn22 1.905 . S
O30 C24 1.182 . S
O31 Zn22 1.898 . S
O31 C25 1.167 . S
O32 Zn23 2.120 . S
O32 C25 1.299 . S
O33 Zn21 1.898 . S
O33 C28 1.167 . S
O34 Zn23 2.120 . S
O34 C28 1.299 . S
O35 Zn23 2.114 . S
O35 C37 1.166 . S
O36 Zn21 1.905 . S
O36 C37 1.182 . S
C37 O35 1.166 . S
C37 O36 1.182 . S
O38 Zn23 2.080 . S
O38 C41 1.305 . S
O39 Zn22 1.920 . S
O39 C41 1.234 . S
C40 O26 1.305 . S
C40 O27 1.234 . S
C41 O38 1.305 . S
C41 O39 1.234 . S
C42 C43 1.386 1_565 S
C42 C44 1.397 . S
C42 H66 0.931 . S
C43 C42 1.386 1_545 S
C43 C47 1.397 . S
C44 C42 1.397 . S
C44 C45 1.384 1_565 S
C44 H67 0.930 . S
C45 C44 1.384 1_545 S
C45 C46 1.377 . S
C45 C48 1.481 . S
C46 C45 1.377 . S
C46 C47 1.389 . S
C46 H68 0.929 . S
C47 C43 1.397 . S
C47 C46 1.389 . S
C47 H69 0.931 . S
C48 C45 1.481 . S
C48 C49 1.387 1_545 S
C48 C53 1.390 . S
C49 C48 1.387 1_565 S
C49 C50 1.401 . S
C49 H70 0.930 . S
C50 C49 1.401 . S
C50 C51 1.376 1_565 S
C50 C59 1.511 . S
C51 C50 1.376 1_545 S
C51 C52 1.392 . S
C51 H72 0.931 . S
C52 C51 1.392 . S
C52 C53 1.361 . S
C52 C54 1.500 . S
C53 C48 1.390 . S
C53 C52 1.361 . S
C53 H71 0.931 . S
C54 C52 1.500 . S
C54 C55 1.371 1_455 S
C54 C56 1.365 1_455 S
C55 C54 1.371 1_655 S
C55 C65 1.386 . S
C55 H73 0.931 . S
C56 C54 1.365 1_655 S
C56 C57 1.409 . S
C56 H74 0.929 1_655 S
C57 C56 1.409 . S
C57 C58 1.380 . S
C57 H75 0.930 . S
C58 C57 1.380 . S
C58 C65 1.357 . S
C59 C50 1.511 . S
C59 C60 1.341 . S
C59 C61 1.371 . S
C60 C59 1.341 . S
C60 C64 1.394 . S
C60 H76 0.930 . S
C61 C59 1.371 . S
C61 C62 1.392 . S
C61 H77 0.931 . S
C62 C61 1.392 . S
C62 C63 1.331 . S
C62 H80 0.932 . S
C63 C62 1.331 . S
C63 C64 1.336 . S
C64 C60 1.394 . S
C64 C63 1.336 . S
C64 H79 0.929 . S
C65 C55 1.386 . S
C65 C58 1.357 . S
C65 H78 0.928 . S
H66 C42 0.931 . S
H67 C44 0.930 . S
H68 C46 0.929 . S
H69 C47 0.931 . S
H70 C49 0.930 . S
H71 C53 0.931 . S
H72 C51 0.931 . S
H73 C55 0.931 . S
H74 C56 0.929 1_455 S
H75 C57 0.930 . S
H76 C60 0.930 . S
H77 C61 0.931 . S
H78 C65 0.928 . S
H79 C64 0.929 . S
H80 C62 0.932 . S
C81 C82 1.386 . S
C81 C83 1.397 . S
C81 H105 0.931 . S
C82 C81 1.386 . S
C82 C86 1.397 1_545 S
C83 C81 1.397 . S
C83 C84 1.384 . S
C83 H106 0.930 . S
C84 C83 1.384 . S
C84 C85 1.377 1_545 S
C84 C87 1.481 . S
C85 C84 1.377 1_565 S
C85 C86 1.389 . S
C85 H107 0.929 . S
C86 C82 1.397 1_565 S
C86 C85 1.389 . S
C86 H108 0.931 . S
C87 C84 1.481 . S
C87 C88 1.387 . S
C87 C92 1.390 1_445 S
C88 C87 1.387 . S
C88 C89 1.401 . S
C88 H109 0.930 . S
C89 C88 1.401 . S
C89 C90 1.376 1_455 S
C89 C98 1.511 . S
C90 C89 1.376 1_655 S
C90 C91 1.392 1_545 S
C90 H111 0.931 . S
C91 C90 1.392 1_565 S
C91 C92 1.361 . S
C91 C93 1.500 . S
C92 C87 1.390 1_665 S
C92 C91 1.361 . S
C92 H110 0.931 . S
C93 C91 1.500 . S
C93 C94 1.371 . S
C93 C95 1.365 . S
C94 C93 1.371 . S
C94 C104 1.386 . S
C94 H112 0.931 . S
C95 C93 1.365 . S
C95 C96 1.409 . S
C95 H113 0.929 . S
C96 C95 1.409 . S
C96 C97 1.380 . S
C96 H114 0.930 . S
C97 C96 1.380 . S
C97 C104 1.357 . S
C98 C89 1.511 . S
C98 C99 1.341 . S
C98 C100 1.371 . S
C99 C98 1.341 . S
C99 C103 1.394 . S
C99 H115 0.930 . S
C100 C98 1.371 . S
C100 C101 1.392 . S
C100 H116 0.931 . S
C101 C100 1.392 . S
C101 C102 1.331 . S
C101 H119 0.932 . S
C102 C101 1.331 . S
C102 C103 1.336 . S
C103 C99 1.394 . S
C103 C102 1.336 . S
C103 H118 0.929 . S
C104 C94 1.386 . S
C104 C97 1.357 . S
C104 H117 0.928 . S
H105 C81 0.931 . S
H106 C83 0.930 . S
H107 C85 0.929 . S
H108 C86 0.931 . S
H109 C88 0.930 . S
H110 C92 0.931 . S
H111 C90 0.931 . S
H112 C94 0.931 . S
H113 C95 0.929 . S
H114 C96 0.930 . S
H115 C99 0.930 . S
H116 C100 0.931 . S
H117 C104 0.928 . S
H118 C103 0.929 . S
H119 C101 0.932 . S
C120 C121 1.386 . S
C120 C122 1.397 . S
C120 H144 0.931 . S
C121 C120 1.386 . S
C121 C125 1.397 . S
C122 C120 1.397 . S
C122 C123 1.384 . S
C122 H145 0.930 . S
C123 C122 1.384 . S
C123 C124 1.377 . S
C123 C126 1.481 . S
C124 C123 1.377 . S
C124 C125 1.389 . S
C124 H146 0.929 . S
C125 C121 1.397 . S
C125 C124 1.389 . S
C125 H147 0.931 . S
C126 C123 1.481 . S
C126 C127 1.387 . S
C126 C131 1.390 . S
C127 C126 1.387 . S
C127 C128 1.401 . S
C127 H148 0.930 . S
C128 C127 1.401 . S
C128 C129 1.376 . S
C128 C137 1.511 . S
C129 C128 1.376 . S
C129 C130 1.392 . S
C129 H150 0.931 . S
C130 C129 1.392 . S
C130 C131 1.361 . S
C130 C132 1.500 . S
C131 C126 1.390 . S
C131 C130 1.361 . S
C131 H149 0.931 . S
C132 C130 1.500 . S
C132 C133 1.371 . S
C132 C134 1.365 . S
C133 C132 1.371 . S
C133 C143 1.386 . S
C133 H151 0.931 . S
C134 C132 1.365 . S
C134 C135 1.409 . S
C134 H152 0.929 . S
C135 C134 1.409 . S
C135 C136 1.380 . S
C135 H153 0.930 . S
C136 C135 1.380 . S
C136 C143 1.357 . S
C137 C128 1.511 . S
C137 C138 1.341 . S
C137 C139 1.371 . S
C138 C137 1.341 . S
C138 C142 1.394 . S
C138 H154 0.930 . S
C139 C137 1.371 . S
C139 C140 1.392 . S
C139 H155 0.931 . S
C140 C139 1.392 . S
C140 C141 1.331 . S
C140 H158 0.948 . S
C141 C140 1.331 . S
C141 C142 1.336 . S
C142 C138 1.394 . S
C142 C141 1.336 . S
C142 H157 0.929 . S
C143 C133 1.386 . S
C143 C136 1.357 . S
C143 H156 0.928 . S
H144 C120 0.931 . S
H145 C122 0.930 . S
H146 C124 0.929 . S
H147 C125 0.931 . S
H148 C127 0.930 . S
H149 C131 0.931 . S
H150 C129 0.931 . S
H151 C133 0.931 . S
H152 C134 0.929 . S
H153 C135 0.930 . S
H154 C138 0.930 . S
H155 C139 0.931 . S
H156 C143 0.928 . S
H157 C142 0.929 . S
H158 C140 0.948 . S
C159 C160 1.386 . S
C159 C161 1.397 . S
C159 H183 0.931 . S
C160 C159 1.386 . S
C160 C164 1.397 . S
C161 C159 1.397 . S
C161 C162 1.384 . S
C161 H184 0.930 . S
C162 C161 1.384 . S
C162 C163 1.377 . S
C162 C165 1.481 . S
C163 C162 1.377 . S
C163 C164 1.389 . S
C163 H185 0.929 . S
C164 C160 1.397 . S
C164 C163 1.389 . S
C164 H186 0.931 . S
C165 C162 1.481 . S
C165 C166 1.387 . S
C165 C170 1.390 . S
C166 C165 1.387 . S
C166 C167 1.401 . S
C166 H187 0.930 . S
C167 C166 1.401 . S
C167 C168 1.376 . S
C167 C176 1.511 . S
C168 C167 1.376 . S
C168 C169 1.392 . S
C168 H189 0.931 . S
C169 C168 1.392 . S
C169 C170 1.361 . S
C169 C171 1.500 . S
C170 C165 1.390 . S
C170 C169 1.361 . S
C170 H188 0.931 . S
C171 C169 1.500 . S
C171 C172 1.371 . S
C171 C173 1.365 . S
C172 C171 1.371 . S
C172 C182 1.386 . S
C172 H190 0.931 . S
C173 C171 1.365 . S
C173 C174 1.409 . S
C173 H191 0.929 . S
C174 C173 1.409 . S
C174 C175 1.380 . S
C174 H192 0.930 . S
C175 C174 1.380 . S
C175 C182 1.357 . S
C176 C167 1.511 . S
C176 C177 1.341 . S
C176 C178 1.371 . S
C177 C176 1.341 . S
C177 C181 1.394 . S
C177 H193 0.930 . S
C178 C176 1.371 . S
C178 C179 1.392 . S
C178 H194 0.931 . S
C179 C178 1.392 . S
C179 C180 1.331 . S
C179 H197 0.932 . S
C180 C179 1.331 . S
C180 C181 1.336 . S
C181 C177 1.394 . S
C181 C180 1.336 . S
C181 H196 0.929 . S
C182 C172 1.386 . S
C182 C175 1.357 . S
C182 H195 0.928 . S
H183 C159 0.931 . S
H184 C161 0.930 . S
H185 C163 0.929 . S
H186 C164 0.931 . S
H187 C166 0.930 . S
H188 C170 0.931 . S
H189 C168 0.931 . S
H190 C172 0.931 . S
H191 C173 0.929 . S
H192 C174 0.930 . S
H193 C177 0.930 . S
H194 C178 0.931 . S
H195 C182 0.928 . S
H196 C181 0.929 . S
H197 C179 0.932 . S
H198 C204 0.951 . S
H199 C208 0.930 . S
H200 C213 0.929 . S
H201 C211 0.929 . S
H202 C206 0.929 . S
H203 C212 0.929 . S
C204 H198 0.951 . S
C204 C205 1.367 . S
C204 C212 1.378 . S
C205 C204 1.367 . S
C205 C213 1.433 . S
C206 H202 0.929 . S
C206 C208 1.378 . S
C206 C210 1.350 . S
C207 C210 1.463 . S
C207 C212 1.350 . S
C207 N215 1.427 . S
C208 H199 0.930 . S
C208 C206 1.378 . S
C208 C209 1.367 . S
C209 C208 1.367 . S
C209 C211 1.433 . S
C210 C206 1.350 . S
C210 C207 1.463 . S
C210 N214 1.427 . S
C211 H201 0.929 . S
C211 C209 1.433 . S
C211 N214 1.384 . S
C212 H203 0.929 . S
C212 C204 1.378 . S
C212 C207 1.350 . S
C213 H200 0.929 . S
C213 C205 1.433 . S
C213 N215 1.384 . S
N214 C210 1.427 . S
N214 C211 1.384 . S
N215 C207 1.427 . S
N215 C213 1.384 . S
H216 C222 0.930 . S
H217 C226 0.930 . S
H218 C231 0.929 . S
H219 C229 0.929 . S
H220 C224 0.929 . S
H221 C230 0.929 . S
C222 H216 0.930 . S
C222 C223 1.367 . S
C222 C230 1.378 . S
C223 C222 1.367 . S
C223 C231 1.433 1_556 S
C224 H220 0.929 . S
C224 C226 1.378 . S
C224 C228 1.350 . S
C225 C228 1.463 . S
C225 C230 1.350 . S
C225 N233 1.427 1_556 S
C226 H217 0.930 . S
C226 C224 1.378 . S
C226 C227 1.367 . S
C227 C226 1.367 . S
C227 C229 1.433 . S
C228 C224 1.350 . S
C228 C225 1.463 . S
C228 N232 1.427 . S
C229 H219 0.929 . S
C229 C227 1.433 . S
C229 N232 1.384 . S
C230 H221 0.929 . S
C230 C222 1.378 . S
C230 C225 1.350 . S
C231 H218 0.929 . S
C231 C223 1.433 1_554 S
C231 N233 1.384 . S
N232 C228 1.427 . S
N232 C229 1.384 . S
N233 C225 1.427 1_554 S
N233 C231 1.384 . S
H234 C240 0.930 1_556 S
H235 C244 0.930 . S
H236 C249 0.929 . S
H237 C247 0.929 . S
H238 C242 0.929 . S
H239 C248 0.929 1_556 S
C240 H234 0.930 1_554 S
C240 C241 1.367 . S
C240 C248 1.378 . S
C241 C240 1.367 . S
C241 C249 1.433 . S
C242 H238 0.929 . S
C242 C244 1.378 . S
C242 C246 1.350 . S
C243 C246 1.463 . S
C243 C248 1.350 . S
C243 N251 1.427 . S
C244 H235 0.930 . S
C244 C242 1.378 . S
C244 C245 1.367 . S
C245 C244 1.367 . S
C245 C247 1.433 . S
C246 C242 1.350 . S
C246 C243 1.463 . S
C246 N250 1.427 . S
C247 H237 0.929 . S
C247 C245 1.433 . S
C247 N250 1.384 . S
C248 H239 0.929 1_554 S
C248 C240 1.378 . S
C248 C243 1.350 . S
C249 H236 0.929 . S
C249 C241 1.433 . S
C249 N251 1.384 . S
N250 C246 1.427 . S
N250 C247 1.384 . S
N251 C243 1.427 . S
N251 C249 1.384 . S
H252 C258 0.930 . S
H253 C262 0.930 . S
H254 C267 0.929 . S
H255 C265 0.929 . S
H256 C260 0.929 . S
H257 C266 0.929 . S
C258 H252 0.930 . S
C258 C259 1.367 . S
C258 C266 1.378 . S
C259 C258 1.367 . S
C259 C267 1.433 1_554 S
C260 H256 0.929 . S
C260 C262 1.378 . S
C260 C264 1.350 . S
C261 C264 1.463 . S
C261 C266 1.350 1_556 S
C261 N269 1.427 . S
C262 H253 0.930 . S
C262 C260 1.378 . S
C262 C263 1.367 . S
C263 C262 1.367 . S
C263 C265 1.433 . S
C264 C260 1.350 . S
C264 C261 1.463 . S
C264 N268 1.427 . S
C265 H255 0.929 . S
C265 C263 1.433 . S
C265 N268 1.384 . S
C266 H257 0.929 . S
C266 C258 1.378 . S
C266 C261 1.350 1_554 S
C267 H254 0.929 . S
C267 C259 1.433 1_556 S
C267 N269 1.384 . S
N268 C264 1.427 . S
N268 C265 1.384 . S
N269 C261 1.427 . S
N269 C267 1.384 . S
H270 C276 0.930 . S
H271 C280 0.930 . S
H272 C285 0.929 . S
H273 C283 0.929 . S
H274 C278 0.929 . S
H275 C284 0.929 . S
C276 H270 0.930 . S
C276 C277 1.367 . S
C276 C284 1.378 . S
C277 C276 1.367 . S
C277 C285 1.433 . S
C278 H274 0.929 . S
C278 C280 1.378 . S
C278 C282 1.350 . S
C279 C282 1.463 . S
C279 C284 1.350 . S
C279 N287 1.427 . S
C280 H271 0.930 . S
C280 C278 1.378 . S
C280 C281 1.367 . S
C281 C280 1.367 . S
C281 C283 1.433 . S
C282 C278 1.350 . S
C282 C279 1.463 . S
C282 N286 1.427 . S
C283 H273 0.929 . S
C283 C281 1.433 . S
C283 N286 1.384 . S
C284 H275 0.929 . S
C284 C276 1.378 . S
C284 C279 1.350 . S
C285 H272 0.929 . S
C285 C277 1.433 . S
C285 N287 1.384 . S
N286 C282 1.427 . S
N286 C283 1.384 . S
N287 C279 1.427 . S
N287 C285 1.384 . S
H288 C294 0.930 . S
H289 C298 0.930 . S
H290 C303 0.929 . S
H291 C301 0.929 . S
H292 C296 0.929 . S
H293 C302 0.929 . S
C294 H288 0.930 . S
C294 C295 1.367 . S
C294 C302 1.378 . S
C295 C294 1.367 . S
C295 C303 1.433 . S
C296 H292 0.929 . S
C296 C298 1.378 . S
C296 C300 1.350 . S
C297 C300 1.463 . S
C297 C302 1.350 . S
C297 N305 1.427 . S
C298 H289 0.930 . S
C298 C296 1.378 . S
C298 C299 1.367 . S
C299 C298 1.367 . S
C299 C301 1.433 . S
C300 C296 1.350 . S
C300 C297 1.463 . S
C300 N304 1.427 . S
C301 H291 0.929 . S
C301 C299 1.433 . S
C301 N304 1.384 . S
C302 H293 0.929 . S
C302 C294 1.378 . S
C302 C297 1.350 . S
C303 H290 0.929 . S
C303 C295 1.433 . S
C303 N305 1.384 . S
N304 C300 1.427 . S
N304 C301 1.384 . S
N305 C297 1.427 . S
N305 C303 1.384 . S
H306 C312 0.930 . S
H307 C316 0.930 . S
H308 C321 0.929 . S
H309 C319 0.929 . S
H310 C314 0.929 . S
H311 C320 0.929 . S
C312 H306 0.930 . S
C312 C313 1.367 . S
C312 C320 1.378 . S
C313 C312 1.367 . S
C313 C321 1.433 . S
C314 H310 0.929 . S
C314 C316 1.378 . S
C314 C318 1.350 . S
C315 C318 1.463 . S
C315 C320 1.350 . S
C315 N323 1.427 . S
C316 H307 0.930 . S
C316 C314 1.378 . S
C316 C317 1.367 . S
C317 C316 1.367 . S
C317 C319 1.433 . S
C318 C314 1.350 . S
C318 C315 1.463 . S
C318 N322 1.427 . S
C319 H309 0.929 . S
C319 C317 1.433 . S
C319 N322 1.384 . S
C320 H311 0.929 . S
C320 C312 1.378 . S
C320 C315 1.350 . S
C321 H308 0.929 . S
C321 C313 1.433 . S
C321 N323 1.384 . S
N322 C318 1.427 . S
N322 C319 1.384 . S
N323 C315 1.427 . S
N323 C321 1.384 . S
H324 C330 0.930 . S
H325 C334 0.930 . S
H326 C339 0.929 . S
H327 C337 0.929 . S
H328 C332 0.929 . S
H329 C338 0.929 . S
C330 H324 0.930 . S
C330 C331 1.367 . S
C330 C338 1.378 . S
C331 C330 1.367 . S
C331 C339 1.433 . S
C332 H328 0.929 . S
C332 C334 1.378 . S
C332 C336 1.350 . S
C333 C336 1.463 . S
C333 C338 1.350 . S
C333 N341 1.427 . S
C334 H325 0.930 . S
C334 C332 1.378 . S
C334 C335 1.367 . S
C335 C334 1.367 . S
C335 C337 1.433 . S
C336 C332 1.350 . S
C336 C333 1.463 . S
C336 N340 1.427 . S
C337 H327 0.929 . S
C337 C335 1.433 . S
C337 N340 1.384 . S
C338 H329 0.929 . S
C338 C330 1.378 . S
C338 C333 1.350 . S
C339 H326 0.929 . S
C339 C331 1.433 . S
C339 N341 1.384 . S
N340 C336 1.427 . S
N340 C337 1.384 . S
N341 C333 1.427 . S
N341 C339 1.384 . S
H342 C348 0.930 1_655 S
H343 C352 0.930 . S
H344 C357 0.929 . S
H345 C355 0.929 . S
H346 C350 0.929 . S
H347 C356 0.929 1_655 S
C348 H342 0.930 1_455 S
C348 C349 1.367 . S
C348 C356 1.378 . S
C349 C348 1.367 . S
C349 C357 1.433 1_565 S
C350 H346 0.929 . S
C350 C352 1.378 . S
C350 C354 1.350 . S
C351 C354 1.463 . S
C351 C356 1.350 1_545 S
C351 N359 1.427 . S
C352 H343 0.930 . S
C352 C350 1.378 . S
C352 C353 1.367 . S
C353 C352 1.367 . S
C353 C355 1.433 1_545 S
C354 C350 1.350 . S
C354 C351 1.463 . S
C354 N358 1.427 1_545 S
C355 H345 0.929 . S
C355 C353 1.433 1_565 S
C355 N358 1.384 . S
C356 H347 0.929 1_455 S
C356 C348 1.378 . S
C356 C351 1.350 1_565 S
C357 H344 0.929 . S
C357 C349 1.433 1_545 S
C357 N359 1.384 . S
N358 C354 1.427 1_565 S
N358 C355 1.384 . S
N359 C351 1.427 . S
N359 C357 1.384 . S
H360 C366 0.930 . S
H361 C370 0.930 . S
H362 C375 0.929 . S
H363 C373 0.929 . S
H364 C368 0.929 . S
H365 C374 0.929 . S
C366 H360 0.930 . S
C366 C367 1.367 1_655 S
C366 C374 1.378 . S
C367 C366 1.367 1_455 S
C367 C375 1.433 1_565 S
C368 H364 0.929 . S
C368 C370 1.378 . S
C368 C372 1.350 . S
C369 C372 1.463 . S
C369 C374 1.348 1_445 S
C369 N377 1.429 . S
C370 H361 0.930 . S
C370 C368 1.378 . S
C370 C371 1.367 . S
C371 C370 1.367 . S
C371 C373 1.433 1_445 S
C372 C368 1.350 . S
C372 C369 1.463 . S
C372 N376 1.427 1_445 S
C373 H363 0.929 . S
C373 C371 1.433 1_665 S
C373 N376 1.384 . S
C374 H365 0.929 . S
C374 C366 1.378 . S
C374 C369 1.348 1_665 S
C375 H362 0.929 . S
C375 C367 1.433 1_545 S
C375 N377 1.384 . S
N376 C372 1.427 1_665 S
N376 C373 1.384 . S
N377 C369 1.429 . S
N377 C375 1.384 . S
H378 C384 0.930 . S
H379 C388 0.930 . S
H380 C393 0.929 . S
H381 C391 0.929 . S
H382 C386 0.929 . S
H383 C392 0.929 . S
C384 H378 0.930 . S
C384 C385 1.367 . S
C384 C392 1.378 . S
C385 C384 1.367 . S
C385 C393 1.433 . S
C386 H382 0.929 . S
C386 C388 1.378 . S
C386 C390 1.350 . S
C387 C390 1.463 . S
C387 C392 1.350 . S
C387 N395 1.427 . S
C388 H379 0.930 . S
C388 C386 1.378 . S
C388 C389 1.367 . S
C389 C388 1.367 . S
C389 C391 1.433 . S
C390 C386 1.350 . S
C390 C387 1.463 . S
C390 N394 1.427 . S
C391 H381 0.929 . S
C391 C389 1.433 . S
C391 N394 1.384 . S
C392 H383 0.929 . S
C392 C384 1.378 . S
C392 C387 1.350 . S
C393 H380 0.929 . S
C393 C385 1.433 . S
C393 N395 1.384 . S
N394 C390 1.427 . S
N394 C391 1.384 . S
N395 C387 1.427 . S
N395 C393 1.384 . S
H396 C402 0.930 . S
H397 C406 0.930 . S
H398 C411 0.929 . S
H399 C409 0.929 . S
H400 C404 0.929 . S
H401 C410 0.929 . S
C402 H396 0.930 . S
C402 C403 1.367 . S
C402 C410 1.378 . S
C403 C402 1.367 . S
C403 C411 1.433 . S
C404 H400 0.929 . S
C404 C406 1.378 . S
C404 C408 1.350 . S
C405 C408 1.463 . S
C405 C410 1.350 . S
C405 N413 1.427 . S
C406 H397 0.930 . S
C406 C404 1.378 . S
C406 C407 1.367 . S
C407 C406 1.367 . S
C407 C409 1.433 . S
C408 C404 1.350 . S
C408 C405 1.463 . S
C408 N412 1.427 . S
C409 H399 0.929 . S
C409 C407 1.433 . S
C409 N412 1.384 . S
C410 H401 0.929 . S
C410 C402 1.378 . S
C410 C405 1.350 . S
C411 H398 0.929 . S
C411 C403 1.433 . S
C411 N413 1.384 . S
N412 C408 1.427 . S
N412 C409 1.384 . S
N413 C405 1.427 . S
N413 C411 1.384 . S
C209 C175 1.231 . S
C205 C3 1.144 . S
C223 C4 1.501 1_556 S
C227 C136 1.614 . S
C241 C19 1.521 . S
C245 C180 1.629 . S
C259 C7 1.144 1_554 S
C263 C141 1.239 . S
C277 C37 1.129 . S
C281 C97 1.230 . S
C295 C28 1.501 . S
C299 C58 1.611 . S
C317 C102 1.629 . S
C313 C41 1.521 . S
C335 C63 1.246 . S
C331 C25 1.115 . S
C349 C20 1.310 . S
C353 C43 1.460 . S
C367 C16 1.342 . S
C371 C82 1.509 . S
C389 C121 1.455 . S
C385 C40 1.297 . S
C403 C24 1.342 . S
C407 C160 1.509 . S
