# Generated by pormake.
# Topology anh, (6,3)-cn, num edge types: 1
# Building blocks:
#     Node 0, Type 0, BuildingBlock: HISSIN_clean_sbu_0, # of connection points: 6
#     Node 1, Type 0, BuildingBlock: HISSIN_clean_sbu_0, # of connection points: 6
#     Node 2, Type 0, BuildingBlock: HISSIN_clean_sbu_0, # of connection points: 6
#     Node 3, Type 1, BuildingBlock: ESEHIV_clean_linker_0, # of connection points: 3
#     Node 4, Type 1, BuildingBlock: ESEHIV_clean_linker_0, # of connection points: 3
#     Node 5, Type 1, BuildingBlock: ESEHIV_clean_linker_0, # of connection points: 3
#     Node 6, Type 1, BuildingBlock: ESEHIV_clean_linker_0, # of connection points: 3
#     Node 7, Type 1, BuildingBlock: ESEHIV_clean_linker_0, # of connection points: 3
#     Node 8, Type 1, BuildingBlock: ESEHIV_clean_linker_0, # of connection points: 3
#     Edge 9, Type (0, 1), BuildingBlock: OJICUG_clean_linker_0, # of connection points: 2
#     Edge 10, Type (0, 1), BuildingBlock: OJICUG_clean_linker_0, # of connection points: 2
#     Edge 11, Type (0, 1), BuildingBlock: OJICUG_clean_linker_0, # of connection points: 2
#     Edge 12, Type (0, 1), BuildingBlock: OJICUG_clean_linker_0, # of connection points: 2
#     Edge 13, Type (0, 1), BuildingBlock: OJICUG_clean_linker_0, # of connection points: 2
#     Edge 14, Type (0, 1), BuildingBlock: OJICUG_clean_linker_0, # of connection points: 2
#     Edge 15, Type (0, 1), BuildingBlock: OJICUG_clean_linker_0, # of connection points: 2
#     Edge 16, Type (0, 1), BuildingBlock: OJICUG_clean_linker_0, # of connection points: 2
#     Edge 17, Type (0, 1), BuildingBlock: OJICUG_clean_linker_0, # of connection points: 2
#     Edge 18, Type (0, 1), BuildingBlock: OJICUG_clean_linker_0, # of connection points: 2
#     Edge 19, Type (0, 1), BuildingBlock: OJICUG_clean_linker_0, # of connection points: 2
#     Edge 20, Type (0, 1), BuildingBlock: OJICUG_clean_linker_0, # of connection points: 2
#     Edge 21, Type (0, 1), BuildingBlock: OJICUG_clean_linker_0, # of connection points: 2
#     Edge 22, Type (0, 1), BuildingBlock: OJICUG_clean_linker_0, # of connection points: 2
#     Edge 23, Type (0, 1), BuildingBlock: OJICUG_clean_linker_0, # of connection points: 2
#     Edge 24, Type (0, 1), BuildingBlock: OJICUG_clean_linker_0, # of connection points: 2
#     Edge 25, Type (0, 1), BuildingBlock: OJICUG_clean_linker_0, # of connection points: 2
#     Edge 26, Type (0, 1), BuildingBlock: OJICUG_clean_linker_0, # of connection points: 2
# Relax obj value: 0.443
# Max RMSD: 0.219
# Mean RMSD: 0.179
data_MOF--net-anh--node1-HISSIN_clean_sbu_0--node2-ESEHIV_clean_linker_0--edge1-OJICUG_clean_linker_0
_symmetry_space_group_name_H-M    P1
_symmetry_Int_Tables_number       1
_symmetry_cell_setting            triclinic
loop_
_symmetry_equiv_pos_as_xyz
'x, y, z'
_cell_length_a     19.89521
_cell_length_b     19.855838
_cell_length_c     37.503156
_cell_angle_alpha  91.289845
_cell_angle_beta   90.114685
_cell_angle_gamma 119.86707
loop_
_atom_site_label
_atom_site_type_symbol
_atom_site_fract_x
_atom_site_fract_y
_atom_site_fract_z
_atom_type_partial_charge
Eu0 Eu 1.15165 0.50562 0.13905 0.0
Eu1 Eu 0.23258 0.68506 0.15899 0.0
C2 C 1.17138 0.56609 0.22232 0.0
C3 C 0.98686 0.31021 0.12424 0.0
C4 C 0.95939 0.27337 0.15684 0.0
C5 C 0.86149 0.29979 0.11279 0.0
C6 C 0.88651 0.25676 0.16863 0.0
C7 C 0.93473 0.31689 0.101 0.0
C8 C 0.83971 0.27506 0.14763 0.0
C9 C 1.07136 0.36014 0.11954 0.0
O10 O 0.3351 0.66436 0.14343 0.0
O11 O 0.27683 0.53228 0.14791 0.0
C12 C 0.34033 0.60001 0.14373 0.0
O13 O 0.21738 0.57716 0.09122 0.0
O14 O 0.26013 0.78326 0.19461 0.0
O15 O 0.309 0.80337 0.14144 0.0
O16 O 1.18158 0.66431 0.10454 0.0
C17 C 0.2095 0.63579 0.08142 0.0
O18 O 1.05068 0.53071 0.13287 0.0
O19 O 1.10269 0.65145 0.15961 0.0
O20 O 0.22872 0.63176 0.21148 0.0
O21 O 1.09152 0.41674 0.09746 0.0
O22 O 1.1133 0.38383 0.14892 0.0
O23 O 1.12673 0.51116 0.1988 0.0
C24 C 0.27562 0.89411 0.16527 0.0
C25 C 0.20544 0.88516 0.17826 0.0
C26 C 0.32011 1.02961 0.15516 0.0
C27 C 1.19553 0.94984 0.18232 0.0
C28 C 0.33017 0.96522 0.15136 0.0
C29 C 0.25605 1.02402 0.17379 0.0
C30 C 0.29728 0.83409 0.17018 0.0
C31 C 1.04224 0.58929 0.14486 0.0
H32 H 0.99734 0.26577 0.17503 0.0
H33 H 0.82555 0.31348 0.09614 0.0
H34 H 0.86968 0.23637 0.19548 0.0
H35 H 0.95344 0.34351 0.07533 0.0
H36 H 1.16118 0.82991 0.18815 0.0
H37 H 0.36795 1.08546 0.14791 0.0
H38 H 1.14501 0.94344 0.19615 0.0
H39 H 0.38388 0.9728 0.1405 0.0
Eu40 Eu 0.66683 1.01849 0.47071 0.0
Eu41 Eu 0.57913 1.10683 0.50004 0.0
C42 C 0.65786 1.04882 0.55776 0.0
C43 C 0.82935 0.97943 0.45686 0.0
C44 C 0.87255 1.04034 0.4816 0.0
C45 C 0.92312 0.93657 0.4623 0.0
C46 C 0.93868 1.04685 0.49801 0.0
C47 C 0.85702 0.93012 0.44597 0.0
C48 C 0.96189 0.992 0.4901 0.0
C49 C 0.75096 0.96118 0.44647 0.0
O50 O 0.70585 0.21146 0.49353 0.0
O51 O 0.76388 0.14551 0.47045 0.0
C52 C 0.76812 0.21186 0.48005 0.0
O53 O 0.60536 1.03694 0.42373 0.0
O54 O 0.55343 0.18143 0.53411 0.0
O55 O 0.4796 1.12079 0.48816 0.0
O56 O 0.62345 0.15087 0.44655 0.0
C57 C 0.61122 1.10493 0.41927 0.0
O58 O 0.54377 0.91492 0.4714 0.0
O59 O 0.47948 0.97982 0.48691 0.0
O60 O 0.61013 1.07507 0.55208 0.0
O61 O 0.69904 0.92847 0.4711 0.0
O62 O 0.74588 1.01662 0.43102 0.0
O63 O 0.68859 1.0285 0.53135 0.0
C64 C 0.51538 0.25159 0.49823 0.0
C65 C 0.54796 0.27399 0.46427 0.0
C66 C 0.55869 0.38586 0.51385 0.0
C67 C 0.5911 0.35243 0.45637 0.0
C68 C 0.51593 0.30736 0.52185 0.0
C69 C 0.60208 0.40901 0.48236 0.0
C70 C 0.50027 0.17682 0.51198 0.0
C71 C 0.4781 0.91432 0.47713 0.0
H72 H 0.85195 1.07925 0.49019 0.0
H73 H 0.93849 0.8926 0.45572 0.0
H74 H 0.96738 1.09023 0.51914 0.0
H75 H 0.82437 0.88299 0.42685 0.0
H76 H 0.54746 0.23184 0.44529 0.0
H77 H 0.56604 0.42819 0.53447 0.0
H78 H 0.62329 0.36882 0.43178 0.0
H79 H 0.49094 0.29114 0.54807 0.0
Eu80 Eu 0.65153 0.51464 0.80704 0.0
Eu81 Eu 0.82906 0.60838 0.83023 0.0
C82 C 0.70389 0.55143 0.88963 0.0
C83 C 0.462 0.49258 0.80137 0.0
C84 C 0.43904 0.49171 0.83686 0.0
C85 C 0.46962 0.61771 0.79448 0.0
C86 C 0.4402 0.55701 0.85192 0.0
C87 C 0.4692 0.55252 0.77942 0.0
C88 C 0.46173 0.62276 0.8314 0.0
C89 C 0.50527 0.45197 0.79222 0.0
O90 O 0.81027 0.48614 0.8134 0.0
O91 O 0.67758 0.41518 0.81307 0.0
C92 C 0.74513 0.41777 0.81108 0.0
O93 O 0.7191 0.52754 0.75641 0.0
O94 O 0.91368 0.68148 0.87081 0.0
O95 O 0.95106 0.64382 0.82363 0.0
O96 O 0.83094 0.63722 0.77343 0.0
C97 C 0.78606 0.58831 0.74866 0.0
O98 O 0.67967 0.63968 0.79803 0.0
O99 O 0.798 0.70713 0.8261 0.0
O100 O 0.76383 0.54715 0.87875 0.0
O101 O 0.55853 0.48557 0.76823 0.0
O102 O 0.53133 0.43105 0.81939 0.0
O103 O 0.65693 0.55387 0.86566 0.0
C104 C 1.03923 0.76775 0.84916 0.0
C105 C 1.04079 0.83287 0.86568 0.0
C106 C 1.17532 0.8467 0.83592 0.0
C107 C 1.11046 0.90351 0.86891 0.0
C108 C 1.10605 0.77654 0.83276 0.0
C109 C 1.17968 0.9098 0.85601 0.0
C110 C 0.97229 0.68889 0.85221 0.0
C111 C 0.73851 0.70648 0.80953 0.0
H112 H 0.43046 0.44534 0.85427 0.0
H113 H 0.48365 0.66687 0.77791 0.0
H114 H 0.43018 0.55839 0.88025 0.0
H115 H 0.48469 0.55399 0.75166 0.0
H116 H 0.9895 0.82818 0.87802 0.0
H117 H 0.22669 0.84797 0.82562 0.0
H118 H 1.1111 0.95115 0.88384 0.0
H119 H 1.10619 0.72741 0.81964 0.0
H120 H 0.44351 0.20314 0.30454 0.0
H121 H 0.67213 0.26033 0.27414 0.0
H122 H 0.52138 0.27149 0.19656 0.0
C123 C 0.48734 0.22361 0.28425 0.0
C124 C 0.47121 0.23785 0.24935 0.0
C125 C 0.55906 0.23027 0.29282 0.0
C126 C 0.61776 0.258 0.26773 0.0
C127 C 0.60422 0.274 0.23325 0.0
C128 C 0.5315 0.26411 0.22416 0.0
H129 H 0.98079 0.79151 0.62089 0.0
H130 H 0.80656 0.56655 0.57977 0.0
H131 H 0.93126 0.75066 0.50816 0.0
C132 C 0.95178 0.75143 0.59863 0.0
C133 C 0.96827 0.77892 0.56361 0.0
C134 C 0.89273 0.67463 0.60488 0.0
C135 C 0.85266 0.62554 0.57563 0.0
C136 C 0.86641 0.6535 0.54106 0.0
C137 C 0.92487 0.72894 0.53495 0.0
H138 H 0.33504 0.90316 0.97025 0.0
H139 H 0.45663 0.77824 0.95778 0.0
H140 H 0.50266 0.96054 0.8867 0.0
C141 C 0.38141 0.8986 0.95771 0.0
C142 C 0.41873 0.94344 0.92759 0.0
C143 C 0.39573 0.83991 0.96934 0.0
C144 C 0.44824 0.82597 0.95041 0.0
C145 C 0.4821 0.86598 0.91925 0.0
C146 C 0.4734 0.9293 0.91017 0.0
H147 H 1.01898 0.44837 0.38062 0.0
H148 H 0.23934 0.65969 0.38528 0.0
H149 H 1.11553 0.56524 0.48234 0.0
C150 C 1.06488 0.49568 0.39613 0.0
C151 C 1.05786 0.497 0.43381 0.0
C152 C 1.12874 0.55475 0.37806 0.0
C153 C 1.18845 0.61594 0.39858 0.0
C154 C 1.18556 0.62258 0.43594 0.0
C155 C 1.11872 0.56254 0.45358 0.0
H156 H 0.72343 0.16292 0.7184 0.0
H157 H 0.72109 0.94508 0.71284 0.0
H158 H 0.74979 1.06338 0.81476 0.0
C159 C 0.72846 1.1174 0.73138 0.0
C160 C 0.7394 1.12337 0.76868 0.0
C161 C 0.72186 1.05393 0.71074 0.0
C162 C 0.72498 0.99339 0.72851 0.0
C163 C 0.73458 0.99413 0.76604 0.0
C164 C 0.74271 1.06089 0.78606 0.0
H165 H 0.58557 0.59332 0.04811 0.0
H166 H 0.78801 0.56782 0.05238 0.0
H167 H 0.68988 0.59645 0.14994 0.0
C168 C 0.62981 0.5898 0.06348 0.0
C169 C 0.62795 0.59434 0.1012 0.0
C170 C 0.68742 0.58103 0.04535 0.0
C171 C 0.7449 0.57681 0.06585 0.0
C172 C 0.74911 0.58391 0.10336 0.0
C173 C 0.68916 0.59216 0.1211 0.0
C174 C 0.42902 0.53861 0.14408 0.0
C175 C 0.41804 0.60236 0.13669 0.0
H176 H 0.50232 0.48668 0.14031 0.0
C177 C 0.48105 0.6661 0.12039 0.0
H178 H 0.38291 0.48781 0.15636 0.0
C179 C 0.54977 0.66488 0.11076 0.0
C180 C 0.56038 0.60088 0.11779 0.0
H181 H 0.47619 0.71628 0.11368 0.0
H182 H 0.59435 0.71385 0.09678 0.0
C183 C 0.49853 0.53812 0.1351 0.0
C184 C 0.90263 0.2832 0.45181 0.0
C185 C 0.84444 0.28746 0.47186 0.0
H186 H 1.01194 0.34221 0.425 0.0
C187 C 0.86087 0.3637 0.48184 0.0
H188 H 0.89444 0.22716 0.44318 0.0
C189 C 0.93121 0.43152 0.47163 0.0
C190 C 0.98773 0.42637 0.45053 0.0
H191 H 0.81895 0.37122 0.4972 0.0
H192 H 0.94017 0.48829 0.47918 0.0
C193 C 0.9714 0.35024 0.44127 0.0
C194 C 0.79492 0.85735 0.81367 0.0
C195 C 0.73684 0.7819 0.80187 0.0
H196 H 0.83994 0.98208 0.81291 0.0
C197 C 0.67604 0.77884 0.78097 0.0
H198 H 0.8431 0.86378 0.82977 0.0
C199 C 0.67421 0.84661 0.77139 0.0
C200 C 0.73284 0.9222 0.7822 0.0
H201 H 0.62993 0.72339 0.7709 0.0
H202 H 0.62681 0.83966 0.75451 0.0
C203 C 0.79279 0.92589 0.80418 0.0
C204 C 0.89941 0.51916 0.12363 0.0
C205 C 0.96366 0.58601 0.1391 0.0
H206 H 0.7834 0.46533 0.10154 0.0
C207 C 0.95182 0.64965 0.14686 0.0
H208 H 0.90429 0.46843 0.11705 0.0
C209 C 0.88057 0.64738 0.13818 0.0
C210 C 0.81758 0.58128 0.12144 0.0
H211 H 0.99876 0.70267 0.15859 0.0
H212 H 0.87637 0.69913 0.14293 0.0
C213 C 0.82881 0.51704 0.11492 0.0
C214 C 0.40018 0.76826 0.46018 0.0
C215 C 0.40077 0.83738 0.47101 0.0
H216 H 0.3344 0.64855 0.44193 0.0
C217 C 0.32682 0.83126 0.47421 0.0
H218 H 0.45445 0.76862 0.45707 0.0
C219 C 0.25651 0.76047 0.46582 0.0
C220 C 0.25664 0.69217 0.45408 0.0
H221 H 0.32315 0.88205 0.4822 0.0
H222 H 0.20208 0.76036 0.46691 0.0
C223 C 0.33037 0.6981 0.45178 0.0
C224 C 0.81483 0.33936 0.79636 0.0
C225 C 0.74634 0.34123 0.80469 0.0
H226 H 0.86701 0.27104 0.77932 0.0
C227 C 0.67725 0.26802 0.80505 0.0
H228 H 0.86946 0.39328 0.79533 0.0
C229 C 0.67623 0.19728 0.79645 0.0
C230 C 0.74424 0.19558 0.78724 0.0
H231 H 0.62273 0.26523 0.81105 0.0
H232 H 0.62102 0.14375 0.7954 0.0
C233 C 0.81362 0.26844 0.7875 0.0
C234 C 0.9844 0.96742 0.55218 0.0
C235 C 1.00814 0.97669 0.51643 0.0
H236 H 0.95535 0.89465 0.59707 0.0
C237 C 1.0531 0.94407 0.50482 0.0
H238 H 0.95148 0.99338 0.5625 0.0
C239 C 1.05594 0.88734 0.5251 0.0
C240 C 1.01302 0.86303 0.55662 0.0
H241 H 1.07479 0.95259 0.47786 0.0
H242 H 1.07909 0.85319 0.51305 0.0
C243 C 0.98687 0.91047 0.5723 0.0
C244 C 0.26373 0.98871 0.90754 0.0
C245 C 0.25652 0.97009 0.8708 0.0
H246 H 0.32929 1.00552 0.95522 0.0
C247 C 0.32402 0.98562 0.85251 0.0
H248 H 0.2151 0.98324 0.92269 0.0
C249 C 0.3873 0.99186 0.87151 0.0
C250 C 0.38437 0.9862 0.90906 0.0
H251 H 0.32288 0.97877 0.82373 0.0
H252 H 0.4318 0.98976 0.85597 0.0
C253 C 0.329 0.9993 0.92647 0.0
C254 C 0.26687 1.08622 0.23235 0.0
C255 C 0.26818 1.09318 0.19513 0.0
H256 H 0.33255 1.12748 0.28009 0.0
C257 C 0.31388 0.16755 0.18134 0.0
H258 H 0.22889 1.03127 0.24455 0.0
C259 C 0.37395 0.22531 0.20239 0.0
C260 C 0.38917 0.20726 0.23661 0.0
H261 H 0.31267 0.17652 0.15302 0.0
H262 H 0.41473 0.27872 0.18985 0.0
C263 C 0.32825 0.14244 0.25303 0.0
C264 C 0.67313 0.55139 0.49644 0.0
C265 C 0.67374 0.48539 0.48268 0.0
H266 H 0.73723 0.65921 0.52573 0.0
C267 C 0.745 0.4868 0.47959 0.0
H268 H 0.61906 0.55173 0.49899 0.0
C269 C 0.81196 0.54752 0.4953 0.0
C270 C 0.80856 0.60802 0.51329 0.0
H271 H 0.74728 0.43659 0.46928 0.0
H272 H 0.86404 0.54331 0.49666 0.0
C273 C 0.74049 0.6126 0.51171 0.0
C274 C 0.45147 0.74294 0.83757 0.0
C275 C 0.48264 0.69765 0.84931 0.0
H276 H 0.42904 0.83486 0.85066 0.0
C277 C 0.53121 0.72203 0.87976 0.0
H278 H 0.41497 0.72596 0.81383 0.0
C279 C 0.54075 0.7853 0.90057 0.0
C280 C 0.50124 0.8246 0.89136 0.0
H281 H 0.55832 0.68945 0.88855 0.0
H282 H 0.57306 0.79896 0.92551 0.0
C283 C 0.46067 0.80606 0.85847 0.0
C284 C 0.69969 0.23398 0.15552 0.0
C285 C 0.77781 0.2832 0.16478 0.0
H286 H 0.58184 0.19317 0.17036 0.0
C287 C 0.79788 0.33866 0.19257 0.0
H288 H 0.68352 0.1914 0.13389 0.0
C289 C 0.74053 0.34062 0.21293 0.0
C290 C 0.66223 0.28691 0.20584 0.0
H291 H 0.85819 0.37819 0.19953 0.0
H292 H 0.75738 0.3808 0.23561 0.0
C293 C 0.64193 0.23568 0.17609 0.0
C294 C 0.27916 0.65673 0.02327 0.0
C295 C 0.25358 0.68519 0.05149 0.0
H296 H 0.34067 0.68157 0.97436 0.0
C297 C 0.27481 0.76429 0.05248 0.0
H298 H 0.26353 0.59609 0.02177 0.0
C299 C 0.32228 0.81431 0.02652 0.0
C300 C 0.3478 0.78636 0.99796 0.0
H301 H 0.25649 0.78862 0.07393 0.0
H302 H 0.33939 0.87522 0.02912 0.0
C303 C 0.32468 0.70644 0.99644 0.0
C304 C 0.64898 0.21188 0.3777 0.0
C305 C 0.60211 0.13251 0.38465 0.0
H306 H 0.67118 0.30518 0.34331 0.0
C307 C 0.53982 1.08543 0.36159 0.0
H308 H 0.69684 0.2495 0.39548 0.0
C309 C 0.52375 1.11807 0.33234 0.0
C310 C 0.57043 0.19772 0.32571 0.0
H311 H 0.50203 1.02454 0.36696 0.0
H312 H 0.47557 1.08108 0.31462 0.0
C313 C 0.63377 0.24402 0.34832 0.0
C314 C 0.89248 0.65015 0.70488 0.0
C315 C 0.81278 0.60422 0.7116 0.0
H316 H 0.98044 0.70676 0.66597 0.0
C317 C 0.7598 0.57883 0.683 0.0
H318 H 0.93479 0.67013 0.72651 0.0
C319 C 0.7859 0.60132 0.6484 0.0
C320 C 0.86575 0.64824 0.64159 0.0
H321 H 0.69809 0.54428 0.68752 0.0
H322 H 0.74298 0.58375 0.62719 0.0
C323 C 0.91872 0.67158 0.67024 0.0
C324 C 0.72717 1.11849 0.61432 0.0
C325 C 0.68115 1.04799 0.59553 0.0
H326 H 0.77918 0.1759 0.66405 0.0
C327 C 0.65131 0.97863 0.6143 0.0
H328 H 0.75071 0.17294 0.60061 0.0
C329 C 0.66539 0.98007 0.6513 0.0
C330 C 0.71042 1.05102 0.67055 0.0
H331 H 0.61456 0.92343 0.60064 0.0
H332 H 0.63853 0.92549 0.66493 0.0
C333 C 0.74247 1.12001 0.65101 0.0
C334 C 0.76418 0.59789 0.95034 0.0
C335 C 0.69655 0.56176 0.92892 0.0
H336 H 0.81504 0.6363 0.00215 0.0
C337 C 0.62487 0.53555 0.94577 0.0
H338 H 0.82067 0.6205 0.9384 0.0
C339 C 0.62122 0.54228 0.98331 0.0
C340 C 0.68932 0.57685 0.0049 0.0
H341 H 0.57158 0.50768 0.93013 0.0
H342 H 0.56482 0.51849 0.99537 0.0
C343 C 0.76077 0.60631 0.98735 0.0
C344 C 1.1161 0.48777 0.27903 0.0
C345 C 1.1556 0.55928 0.26172 0.0
H346 H 1.07796 0.42943 0.32895 0.0
C347 C 1.18181 0.62768 0.28275 0.0
H348 H 1.09467 0.4338 0.2638 0.0
C349 C 1.17071 0.62536 0.31967 0.0
C350 C 1.13442 0.55451 0.33763 0.0
H351 H 0.21084 0.68402 0.27058 0.0
H352 H 1.19086 0.68003 0.3341 0.0
C353 C 1.10616 0.48541 0.31651 0.0
loop_
_geom_bond_atom_site_label_1
_geom_bond_atom_site_label_2
_geom_bond_distance
_geom_bond_site_symmetry_2
_ccdc_geom_bond_type
Eu0 C9 2.828 . S
Eu0 O11 2.392 1_655 S
Eu0 O13 2.418 . S
Eu0 O18 2.373 . S
Eu0 O21 2.488 . S
Eu0 O22 2.471 . S
Eu0 O23 2.349 . S
Eu1 O10 2.373 . S
Eu1 O14 2.488 . S
Eu1 O15 2.471 . S
Eu1 O16 2.349 . S
Eu1 O19 2.392 1_455 S
Eu1 O20 2.418 . S
Eu1 C30 2.828 . S
C2 O20 1.244 . S
C2 O23 1.265 1_455 S
C3 C4 1.379 . S
C3 C7 1.373 . S
C3 C9 1.505 . S
C4 C3 1.379 . S
C4 C6 1.369 . S
C4 H32 0.930 . S
C5 C7 1.383 . S
C5 C8 1.382 . S
C5 H33 0.930 . S
C6 C4 1.369 . S
C6 C8 1.392 . S
C6 H34 0.930 . S
C7 C3 1.373 . S
C7 C5 1.383 . S
C7 H35 0.931 . S
C8 C5 1.382 . S
C8 C6 1.392 . S
C9 Eu0 2.828 . S
C9 C3 1.505 . S
C9 O21 1.249 . S
C9 O22 1.244 . S
O10 Eu1 2.373 . S
O10 C12 1.258 . S
O11 Eu0 2.392 1_455 S
O11 C12 1.242 . S
C12 O10 1.258 . S
C12 O11 1.242 . S
O13 Eu0 2.418 . S
O13 C17 1.244 . S
O14 Eu1 2.488 . S
O14 C30 1.249 . S
O15 Eu1 2.471 . S
O15 C30 1.244 . S
O16 Eu1 2.349 . S
O16 C17 1.265 1_455 S
C17 O13 1.244 . S
C17 O16 1.265 1_655 S
O18 Eu0 2.373 . S
O18 C31 1.258 . S
O19 Eu1 2.392 1_655 S
O19 C31 1.242 . S
O20 Eu1 2.418 . S
O20 C2 1.244 . S
O21 Eu0 2.488 . S
O21 C9 1.249 . S
O22 Eu0 2.471 . S
O22 C9 1.244 . S
O23 Eu0 2.349 . S
O23 C2 1.265 1_655 S
C24 C25 1.379 . S
C24 C28 1.373 . S
C24 C30 1.505 . S
C25 C24 1.379 . S
C25 C27 1.369 . S
C25 H36 0.930 . S
C26 C28 1.383 . S
C26 C29 1.382 . S
C26 H37 0.930 . S
C27 C25 1.369 . S
C27 C29 1.392 . S
C27 H38 0.930 . S
C28 C24 1.373 . S
C28 C26 1.383 . S
C28 H39 0.931 . S
C29 C26 1.382 . S
C29 C27 1.392 . S
C30 Eu1 2.828 . S
C30 O14 1.249 . S
C30 O15 1.244 . S
C30 C24 1.505 . S
C31 O18 1.258 . S
C31 O19 1.242 . S
H32 C4 0.930 . S
H33 C5 0.930 . S
H34 C6 0.930 . S
H35 C7 0.931 . S
H36 C25 0.930 . S
H37 C26 0.930 . S
H38 C27 0.930 . S
H39 C28 0.931 . S
Eu40 C49 2.828 . S
Eu40 O51 2.392 1_565 S
Eu40 O53 2.418 . S
Eu40 O58 2.373 . S
Eu40 O61 2.488 . S
Eu40 O62 2.471 . S
Eu40 O63 2.349 . S
Eu41 O50 2.373 . S
Eu41 O54 2.488 . S
Eu41 O55 2.471 . S
Eu41 O56 2.349 . S
Eu41 O59 2.392 1_545 S
Eu41 O60 2.418 . S
Eu41 C70 2.828 . S
C42 O60 1.244 . S
C42 O63 1.265 1_545 S
C43 C44 1.379 . S
C43 C47 1.373 . S
C43 C49 1.505 . S
C44 C43 1.379 . S
C44 C46 1.369 . S
C44 H72 0.930 . S
C45 C47 1.383 . S
C45 C48 1.382 . S
C45 H73 0.930 . S
C46 C44 1.369 . S
C46 C48 1.392 . S
C46 H74 0.930 . S
C47 C43 1.373 . S
C47 C45 1.383 . S
C47 H75 0.931 . S
C48 C45 1.382 . S
C48 C46 1.392 . S
C49 Eu40 2.828 . S
C49 C43 1.505 . S
C49 O61 1.249 . S
C49 O62 1.244 . S
O50 Eu41 2.373 . S
O50 C52 1.258 . S
O51 Eu40 2.392 1_545 S
O51 C52 1.242 . S
C52 O50 1.258 . S
C52 O51 1.242 . S
O53 Eu40 2.418 . S
O53 C57 1.244 . S
O54 Eu41 2.488 . S
O54 C70 1.249 . S
O55 Eu41 2.471 . S
O55 C70 1.244 . S
O56 Eu41 2.349 . S
O56 C57 1.265 1_545 S
C57 O53 1.244 . S
C57 O56 1.265 1_565 S
O58 Eu40 2.373 . S
O58 C71 1.258 . S
O59 Eu41 2.392 1_565 S
O59 C71 1.242 . S
O60 Eu41 2.418 . S
O60 C42 1.244 . S
O61 Eu40 2.488 . S
O61 C49 1.249 . S
O62 Eu40 2.471 . S
O62 C49 1.244 . S
O63 Eu40 2.349 . S
O63 C42 1.265 1_565 S
C64 C65 1.379 . S
C64 C68 1.373 . S
C64 C70 1.505 . S
C65 C64 1.379 . S
C65 C67 1.369 . S
C65 H76 0.930 . S
C66 C68 1.383 . S
C66 C69 1.382 . S
C66 H77 0.930 . S
C67 C65 1.369 . S
C67 C69 1.392 . S
C67 H78 0.930 . S
C68 C64 1.373 . S
C68 C66 1.383 . S
C68 H79 0.931 . S
C69 C66 1.382 . S
C69 C67 1.392 . S
C70 Eu41 2.828 . S
C70 O54 1.249 . S
C70 O55 1.244 . S
C70 C64 1.505 . S
C71 O58 1.258 . S
C71 O59 1.242 . S
H72 C44 0.930 . S
H73 C45 0.930 . S
H74 C46 0.930 . S
H75 C47 0.931 . S
H76 C65 0.930 . S
H77 C66 0.930 . S
H78 C67 0.930 . S
H79 C68 0.931 . S
Eu80 C89 2.828 . S
Eu80 O91 2.392 . S
Eu80 O93 2.418 . S
Eu80 O98 2.373 . S
Eu80 O101 2.488 . S
Eu80 O102 2.471 . S
Eu80 O103 2.349 . S
Eu81 O90 2.373 . S
Eu81 O94 2.488 . S
Eu81 O95 2.471 . S
Eu81 O96 2.349 . S
Eu81 O99 2.392 . S
Eu81 O100 2.418 . S
Eu81 C110 2.828 . S
C82 O100 1.244 . S
C82 O103 1.265 . S
C83 C84 1.379 . S
C83 C87 1.373 . S
C83 C89 1.505 . S
C84 C83 1.379 . S
C84 C86 1.369 . S
C84 H112 0.930 . S
C85 C87 1.383 . S
C85 C88 1.382 . S
C85 H113 0.930 . S
C86 C84 1.369 . S
C86 C88 1.392 . S
C86 H114 0.930 . S
C87 C83 1.373 . S
C87 C85 1.383 . S
C87 H115 0.931 . S
C88 C85 1.382 . S
C88 C86 1.392 . S
C89 Eu80 2.828 . S
C89 C83 1.505 . S
C89 O101 1.249 . S
C89 O102 1.244 . S
O90 Eu81 2.373 . S
O90 C92 1.258 . S
O91 Eu80 2.392 . S
O91 C92 1.242 . S
C92 O90 1.258 . S
C92 O91 1.242 . S
O93 Eu80 2.418 . S
O93 C97 1.244 . S
O94 Eu81 2.488 . S
O94 C110 1.249 . S
O95 Eu81 2.471 . S
O95 C110 1.244 . S
O96 Eu81 2.349 . S
O96 C97 1.265 . S
C97 O93 1.244 . S
C97 O96 1.265 . S
O98 Eu80 2.373 . S
O98 C111 1.258 . S
O99 Eu81 2.392 . S
O99 C111 1.242 . S
O100 Eu81 2.418 . S
O100 C82 1.244 . S
O101 Eu80 2.488 . S
O101 C89 1.249 . S
O102 Eu80 2.471 . S
O102 C89 1.244 . S
O103 Eu80 2.349 . S
O103 C82 1.265 . S
C104 C105 1.379 . S
C104 C108 1.373 . S
C104 C110 1.505 . S
C105 C104 1.379 . S
C105 C107 1.369 . S
C105 H116 0.930 . S
C106 C108 1.383 . S
C106 C109 1.382 . S
C106 H117 0.930 . S
C107 C105 1.369 . S
C107 C109 1.392 . S
C107 H118 0.930 . S
C108 C104 1.373 . S
C108 C106 1.383 . S
C108 H119 0.931 . S
C109 C106 1.382 . S
C109 C107 1.392 . S
C110 Eu81 2.828 . S
C110 O94 1.249 . S
C110 O95 1.244 . S
C110 C104 1.505 . S
C111 O98 1.258 . S
C111 O99 1.242 . S
H112 C84 0.930 . S
H113 C85 0.930 . S
H114 C86 0.930 . S
H115 C87 0.931 . S
H116 C105 0.930 . S
H117 C106 0.930 . S
H118 C107 0.930 . S
H119 C108 0.931 . S
H120 C123 0.931 . S
H121 C126 0.928 . S
H122 C128 0.930 . S
C123 H120 0.931 . S
C123 C124 1.413 . S
C123 C125 1.360 1_565 S
C124 C123 1.413 . S
C124 C128 1.429 1_565 S
C125 C123 1.360 1_545 S
C125 C126 1.372 . S
C126 H121 0.928 . S
C126 C125 1.372 . S
C126 C127 1.404 . S
C127 C126 1.404 . S
C127 C128 1.391 . S
C128 H122 0.930 . S
C128 C124 1.429 1_545 S
C128 C127 1.391 . S
H129 C132 0.931 . S
H130 C135 0.928 . S
H131 C137 0.930 . S
C132 H129 0.931 . S
C132 C133 1.413 . S
C132 C134 1.360 . S
C133 C132 1.413 . S
C133 C137 1.429 . S
C134 C132 1.360 . S
C134 C135 1.372 . S
C135 H130 0.928 . S
C135 C134 1.372 . S
C135 C136 1.404 . S
C136 C135 1.404 . S
C136 C137 1.391 . S
C137 H131 0.930 . S
C137 C133 1.429 . S
C137 C136 1.391 . S
H138 C141 0.931 . S
H139 C144 0.928 . S
H140 C146 0.930 . S
C141 H138 0.931 . S
C141 C142 1.413 . S
C141 C143 1.360 1_655 S
C142 C141 1.413 . S
C142 C146 1.429 1_655 S
C143 C141 1.360 1_455 S
C143 C144 1.372 . S
C144 H139 0.928 . S
C144 C143 1.372 . S
C144 C145 1.404 . S
C145 C144 1.404 . S
C145 C146 1.391 . S
C146 H140 0.930 . S
C146 C142 1.429 1_455 S
C146 C145 1.391 . S
H147 C150 0.931 . S
H148 C153 0.928 . S
H149 C155 0.930 . S
C150 H147 0.931 . S
C150 C151 1.413 . S
C150 C152 1.360 1_655 S
C151 C150 1.413 . S
C151 C155 1.429 1_655 S
C152 C150 1.360 1_455 S
C152 C153 1.372 . S
C153 H148 0.928 . S
C153 C152 1.372 . S
C153 C154 1.404 . S
C154 C153 1.404 . S
C154 C155 1.391 . S
C155 H149 0.930 . S
C155 C151 1.429 1_455 S
C155 C154 1.391 . S
H156 C159 0.931 . S
H157 C162 0.928 . S
H158 C164 0.930 . S
C159 H156 0.931 . S
C159 C160 1.413 . S
C159 C161 1.360 . S
C160 C159 1.413 . S
C160 C164 1.429 . S
C161 C159 1.360 . S
C161 C162 1.372 1_545 S
C162 H157 0.928 . S
C162 C161 1.372 1_565 S
C162 C163 1.404 . S
C163 C162 1.404 . S
C163 C164 1.391 1_565 S
C164 H158 0.930 . S
C164 C160 1.429 . S
C164 C163 1.391 1_545 S
H165 C168 0.931 . S
H166 C171 0.928 . S
H167 C173 0.930 . S
C168 H165 0.931 . S
C168 C169 1.413 . S
C168 C170 1.360 . S
C169 C168 1.413 . S
C169 C173 1.429 . S
C170 C168 1.360 . S
C170 C171 1.372 . S
C171 H166 0.928 . S
C171 C170 1.372 . S
C171 C172 1.404 . S
C172 C171 1.404 . S
C172 C173 1.391 . S
C173 H167 0.930 . S
C173 C169 1.429 . S
C173 C172 1.391 . S
C174 C175 1.387 . S
C174 H178 0.950 . S
C174 C183 1.390 . S
C175 C174 1.387 . S
C175 C177 1.387 . S
H176 C183 0.950 . S
C177 C175 1.387 . S
C177 C179 1.390 . S
C177 H181 0.950 . S
H178 C174 0.950 . S
C179 C177 1.390 . S
C179 C180 1.387 . S
C179 H182 0.950 . S
C180 C179 1.387 . S
C180 C183 1.387 . S
H181 C177 0.950 . S
H182 C179 0.950 . S
C183 C174 1.390 . S
C183 H176 0.950 . S
C183 C180 1.387 . S
C184 C185 1.387 . S
C184 H188 0.950 . S
C184 C193 1.390 . S
C185 C184 1.387 . S
C185 C187 1.387 . S
H186 C193 0.950 . S
C187 C185 1.387 . S
C187 C189 1.390 . S
C187 H191 0.950 . S
H188 C184 0.950 . S
C189 C187 1.390 . S
C189 C190 1.387 . S
C189 H192 0.950 . S
C190 C189 1.387 . S
C190 C193 1.387 . S
H191 C187 0.950 . S
H192 C189 0.950 . S
C193 C184 1.390 . S
C193 H186 0.950 . S
C193 C190 1.387 . S
C194 C195 1.387 . S
C194 H198 0.950 . S
C194 C203 1.390 . S
C195 C194 1.387 . S
C195 C197 1.387 . S
H196 C203 0.950 . S
C197 C195 1.387 . S
C197 C199 1.390 . S
C197 H201 0.950 . S
H198 C194 0.950 . S
C199 C197 1.390 . S
C199 C200 1.387 . S
C199 H202 0.950 . S
C200 C199 1.387 . S
C200 C203 1.387 . S
H201 C197 0.950 . S
H202 C199 0.950 . S
C203 C194 1.390 . S
C203 H196 0.950 . S
C203 C200 1.387 . S
C204 C205 1.387 . S
C204 H208 0.950 . S
C204 C213 1.390 . S
C205 C204 1.387 . S
C205 C207 1.387 . S
H206 C213 0.950 . S
C207 C205 1.387 . S
C207 C209 1.390 . S
C207 H211 0.950 . S
H208 C204 0.950 . S
C209 C207 1.390 . S
C209 C210 1.387 . S
C209 H212 0.950 . S
C210 C209 1.387 . S
C210 C213 1.387 . S
H211 C207 0.950 . S
H212 C209 0.950 . S
C213 C204 1.390 . S
C213 H206 0.950 . S
C213 C210 1.387 . S
C214 C215 1.387 . S
C214 H218 0.950 . S
C214 C223 1.390 . S
C215 C214 1.387 . S
C215 C217 1.387 . S
H216 C223 0.950 . S
C217 C215 1.387 . S
C217 C219 1.390 . S
C217 H221 0.950 . S
H218 C214 0.950 . S
C219 C217 1.390 . S
C219 C220 1.387 . S
C219 H222 0.950 . S
C220 C219 1.387 . S
C220 C223 1.387 . S
H221 C217 0.950 . S
H222 C219 0.950 . S
C223 C214 1.390 . S
C223 H216 0.950 . S
C223 C220 1.387 . S
C224 C225 1.387 . S
C224 H228 0.950 . S
C224 C233 1.390 . S
C225 C224 1.387 . S
C225 C227 1.387 . S
H226 C233 0.950 . S
C227 C225 1.387 . S
C227 C229 1.390 . S
C227 H231 0.950 . S
H228 C224 0.950 . S
C229 C227 1.390 . S
C229 C230 1.387 . S
C229 H232 0.950 . S
C230 C229 1.387 . S
C230 C233 1.387 . S
H231 C227 0.950 . S
H232 C229 0.950 . S
C233 C224 1.390 . S
C233 H226 0.950 . S
C233 C230 1.387 . S
C234 C235 1.387 . S
C234 H238 0.950 . S
C234 C243 1.390 . S
C235 C234 1.387 . S
C235 C237 1.387 . S
H236 C243 0.950 . S
C237 C235 1.387 . S
C237 C239 1.390 . S
C237 H241 0.950 . S
H238 C234 0.950 . S
C239 C237 1.390 . S
C239 C240 1.387 . S
C239 H242 0.950 . S
C240 C239 1.387 . S
C240 C243 1.387 . S
H241 C237 0.950 . S
H242 C239 0.950 . S
C243 C234 1.390 . S
C243 H236 0.950 . S
C243 C240 1.387 . S
C244 C245 1.387 . S
C244 H248 0.950 . S
C244 C253 1.390 . S
C245 C244 1.387 . S
C245 C247 1.387 . S
H246 C253 0.950 1_455 S
C247 C245 1.387 . S
C247 C249 1.390 . S
C247 H251 0.950 . S
H248 C244 0.950 . S
C249 C247 1.390 . S
C249 C250 1.387 . S
C249 H252 0.950 . S
C250 C249 1.387 . S
C250 C253 1.387 . S
H251 C247 0.950 . S
H252 C249 0.950 . S
C253 C244 1.390 . S
C253 H246 0.950 1_655 S
C253 C250 1.387 . S
C254 C255 1.387 . S
C254 H258 0.950 . S
C254 C263 1.390 . S
C255 C254 1.387 . S
C255 C257 1.387 . S
H256 C263 0.950 . S
C257 C255 1.387 . S
C257 C259 1.390 . S
C257 H261 0.950 . S
H258 C254 0.950 . S
C259 C257 1.390 . S
C259 C260 1.387 . S
C259 H262 0.950 . S
C260 C259 1.387 . S
C260 C263 1.387 . S
H261 C257 0.950 . S
H262 C259 0.950 . S
C263 C254 1.390 . S
C263 H256 0.950 . S
C263 C260 1.387 . S
C264 C265 1.387 . S
C264 H268 0.950 . S
C264 C273 1.390 . S
C265 C264 1.387 . S
C265 C267 1.387 . S
H266 C273 0.950 . S
C267 C265 1.387 . S
C267 C269 1.390 . S
C267 H271 0.950 . S
H268 C264 0.950 . S
C269 C267 1.390 . S
C269 C270 1.387 . S
C269 H272 0.950 . S
C270 C269 1.387 . S
C270 C273 1.387 . S
H271 C267 0.950 . S
H272 C269 0.950 . S
C273 C264 1.390 . S
C273 H266 0.950 . S
C273 C270 1.387 . S
C274 C275 1.387 . S
C274 H278 0.950 . S
C274 C283 1.390 . S
C275 C274 1.387 . S
C275 C277 1.387 . S
H276 C283 0.950 . S
C277 C275 1.387 . S
C277 C279 1.390 . S
C277 H281 0.950 . S
H278 C274 0.950 . S
C279 C277 1.390 . S
C279 C280 1.387 . S
C279 H282 0.950 . S
C280 C279 1.387 . S
C280 C283 1.387 . S
H281 C277 0.950 . S
H282 C279 0.950 . S
C283 C274 1.390 . S
C283 H276 0.950 . S
C283 C280 1.387 . S
C284 C285 1.387 . S
C284 H288 0.950 . S
C284 C293 1.390 . S
C285 C284 1.387 . S
C285 C287 1.387 . S
H286 C293 0.950 . S
C287 C285 1.387 . S
C287 C289 1.390 . S
C287 H291 0.950 . S
H288 C284 0.950 . S
C289 C287 1.390 . S
C289 C290 1.387 . S
C289 H292 0.950 . S
C290 C289 1.387 . S
C290 C293 1.387 . S
H291 C287 0.950 . S
H292 C289 0.950 . S
C293 C284 1.390 . S
C293 H286 0.950 . S
C293 C290 1.387 . S
C294 C295 1.387 . S
C294 H298 0.950 1_455 S
C294 C303 1.390 1_554 S
C295 C294 1.387 . S
C295 C297 1.387 . S
H296 C303 0.950 . S
C297 C295 1.387 . S
C297 C299 1.390 . S
C297 H301 0.950 . S
H298 C294 0.950 1_655 S
C299 C297 1.390 . S
C299 C300 1.387 1_554 S
C299 H302 0.950 . S
C300 C299 1.387 1_556 S
C300 C303 1.387 . S
H301 C297 0.950 . S
H302 C299 0.950 . S
C303 C294 1.390 1_556 S
C303 H296 0.950 . S
C303 C300 1.387 . S
C304 C305 1.387 . S
C304 H308 0.950 . S
C304 C313 1.390 . S
C305 C304 1.387 . S
C305 C307 1.387 1_545 S
H306 C313 0.950 . S
C307 C305 1.387 1_565 S
C307 C309 1.390 . S
C307 H311 0.950 . S
H308 C304 0.950 . S
C309 C307 1.390 . S
C309 C310 1.387 1_565 S
C309 H312 0.950 . S
C310 C309 1.387 1_545 S
C310 C313 1.387 . S
H311 C307 0.950 . S
H312 C309 0.950 . S
C313 C304 1.390 . S
C313 H306 0.950 . S
C313 C310 1.387 . S
C314 C315 1.387 . S
C314 H318 0.950 . S
C314 C323 1.390 . S
C315 C314 1.387 . S
C315 C317 1.387 . S
H316 C323 0.950 . S
C317 C315 1.387 . S
C317 C319 1.390 . S
C317 H321 0.950 . S
H318 C314 0.950 . S
C319 C317 1.390 . S
C319 C320 1.387 . S
C319 H322 0.950 . S
C320 C319 1.387 . S
C320 C323 1.387 . S
H321 C317 0.950 . S
H322 C319 0.950 . S
C323 C314 1.390 . S
C323 H316 0.950 . S
C323 C320 1.387 . S
C324 C325 1.387 . S
C324 H328 0.950 . S
C324 C333 1.390 . S
C325 C324 1.387 . S
C325 C327 1.387 1_545 S
H326 C333 0.950 . S
C327 C325 1.387 1_565 S
C327 C329 1.390 . S
C327 H331 0.950 . S
H328 C324 0.950 . S
C329 C327 1.390 . S
C329 C330 1.387 1_565 S
C329 H332 0.950 . S
C330 C329 1.387 1_545 S
C330 C333 1.387 . S
H331 C327 0.950 . S
H332 C329 0.950 . S
C333 C324 1.390 . S
C333 H326 0.950 . S
C333 C330 1.387 . S
C334 C335 1.387 . S
C334 H338 0.950 . S
C334 C343 1.390 . S
C335 C334 1.387 . S
C335 C337 1.387 . S
H336 C343 0.950 . S
C337 C335 1.387 . S
C337 C339 1.390 . S
C337 H341 0.950 . S
H338 C334 0.950 . S
C339 C337 1.390 . S
C339 C340 1.387 1_556 S
C339 H342 0.950 1_556 S
C340 C339 1.387 1_554 S
C340 C343 1.387 1_554 S
H341 C337 0.950 . S
H342 C339 0.950 1_554 S
C343 C334 1.390 . S
C343 H336 0.950 . S
C343 C340 1.387 1_556 S
C344 C345 1.387 . S
C344 H348 0.950 . S
C344 C353 1.390 . S
C345 C344 1.387 . S
C345 C347 1.387 1_655 S
H346 C353 0.950 . S
C347 C345 1.387 1_455 S
C347 C349 1.390 . S
C347 H351 0.950 . S
H348 C344 0.950 . S
C349 C347 1.390 . S
C349 C350 1.387 . S
C349 H352 0.950 . S
C350 C349 1.387 . S
C350 C353 1.387 1_455 S
H351 C347 0.950 . S
H352 C349 0.950 . S
C353 C344 1.390 . S
C353 H346 0.950 . S
C353 C350 1.387 1_655 S
C175 C12 2.938 . S
C180 C169 2.919 . S
C185 C52 2.955 . S
C190 C151 2.948 . S
C195 C111 2.971 . S
C200 C163 2.942 . S
C205 C31 3.041 . S
C210 C172 3.002 . S
C220 C154 2.976 . S
C215 C71 3.024 . S
C230 C160 2.973 . S
C225 C92 3.003 . S
C235 C48 0.968 . S
C240 C133 1.076 . S
C245 C109 1.015 . S
C250 C142 1.215 . S
C255 C29 0.975 . S
C260 C124 1.150 . S
C270 C136 1.111 . S
C265 C69 0.964 . S
C280 C145 0.991 . S
C275 C88 0.930 . S
C285 C8 0.929 . S
C290 C127 1.001 . S
C300 C143 0.917 . S
C295 C17 0.921 1_455 S
C305 C57 0.902 1_545 S
C310 C125 0.898 . S
C315 C97 0.917 . S
C320 C134 0.916 . S
C330 C161 1.838 . S
C325 C42 1.759 . S
C340 C170 1.830 . S
C335 C82 1.766 . S
C345 C2 1.772 1_655 S
C350 C152 1.836 . S
