# Generated by pormake.
# Topology zzz, (3,6)-cn, num edge types: 1
# Building blocks:
#     Node 0, Type 0, BuildingBlock: VETTIZ_charged_linker_0, # of connection points: 3
#     Node 1, Type 0, BuildingBlock: VETTIZ_charged_linker_0, # of connection points: 3
#     Node 2, Type 0, BuildingBlock: VETTIZ_charged_linker_0, # of connection points: 3
#     Node 3, Type 0, BuildingBlock: VETTIZ_charged_linker_0, # of connection points: 3
#     Node 4, Type 0, BuildingBlock: VETTIZ_charged_linker_0, # of connection points: 3
#     Node 5, Type 0, BuildingBlock: VETTIZ_charged_linker_0, # of connection points: 3
#     Node 6, Type 0, BuildingBlock: VETTIZ_charged_linker_0, # of connection points: 3
#     Node 7, Type 0, BuildingBlock: VETTIZ_charged_linker_0, # of connection points: 3
#     Node 8, Type 1, BuildingBlock: BETFAJ_clean_sbu_0, # of connection points: 6
#     Node 9, Type 1, BuildingBlock: BETFAJ_clean_sbu_0, # of connection points: 6
#     Node 10, Type 1, BuildingBlock: BETFAJ_clean_sbu_0, # of connection points: 6
#     Node 11, Type 1, BuildingBlock: BETFAJ_clean_sbu_0, # of connection points: 6
#     Edge 12, Type (0, 1), BuildingBlock: EZIPEK_clean_linker_0, # of connection points: 2
#     Edge 13, Type (0, 1), BuildingBlock: EZIPEK_clean_linker_0, # of connection points: 2
#     Edge 14, Type (0, 1), BuildingBlock: EZIPEK_clean_linker_0, # of connection points: 2
#     Edge 15, Type (0, 1), BuildingBlock: EZIPEK_clean_linker_0, # of connection points: 2
#     Edge 16, Type (0, 1), BuildingBlock: EZIPEK_clean_linker_0, # of connection points: 2
#     Edge 17, Type (0, 1), BuildingBlock: EZIPEK_clean_linker_0, # of connection points: 2
#     Edge 18, Type (0, 1), BuildingBlock: EZIPEK_clean_linker_0, # of connection points: 2
#     Edge 19, Type (0, 1), BuildingBlock: EZIPEK_clean_linker_0, # of connection points: 2
#     Edge 20, Type (0, 1), BuildingBlock: EZIPEK_clean_linker_0, # of connection points: 2
#     Edge 21, Type (0, 1), BuildingBlock: EZIPEK_clean_linker_0, # of connection points: 2
#     Edge 22, Type (0, 1), BuildingBlock: EZIPEK_clean_linker_0, # of connection points: 2
#     Edge 23, Type (0, 1), BuildingBlock: EZIPEK_clean_linker_0, # of connection points: 2
#     Edge 24, Type (0, 1), BuildingBlock: EZIPEK_clean_linker_0, # of connection points: 2
#     Edge 25, Type (0, 1), BuildingBlock: EZIPEK_clean_linker_0, # of connection points: 2
#     Edge 26, Type (0, 1), BuildingBlock: EZIPEK_clean_linker_0, # of connection points: 2
#     Edge 27, Type (0, 1), BuildingBlock: EZIPEK_clean_linker_0, # of connection points: 2
#     Edge 28, Type (0, 1), BuildingBlock: EZIPEK_clean_linker_0, # of connection points: 2
#     Edge 29, Type (0, 1), BuildingBlock: EZIPEK_clean_linker_0, # of connection points: 2
#     Edge 30, Type (0, 1), BuildingBlock: EZIPEK_clean_linker_0, # of connection points: 2
#     Edge 31, Type (0, 1), BuildingBlock: EZIPEK_clean_linker_0, # of connection points: 2
#     Edge 32, Type (0, 1), BuildingBlock: EZIPEK_clean_linker_0, # of connection points: 2
#     Edge 33, Type (0, 1), BuildingBlock: EZIPEK_clean_linker_0, # of connection points: 2
#     Edge 34, Type (0, 1), BuildingBlock: EZIPEK_clean_linker_0, # of connection points: 2
#     Edge 35, Type (0, 1), BuildingBlock: EZIPEK_clean_linker_0, # of connection points: 2
# Relax obj value: 0.515
# Max RMSD: 0.268
# Mean RMSD: 0.258
data_MOF--net-zzz--node1-BETFAJ_clean_sbu_0--node2-VETTIZ_charged_linker_0--edge1-EZIPEK_clean_linker_0
_symmetry_space_group_name_H-M    P1
_symmetry_Int_Tables_number       1
_symmetry_cell_setting            triclinic
loop_
_symmetry_equiv_pos_as_xyz
'x, y, z'
_cell_length_a     45.201915
_cell_length_b     45.365081
_cell_length_c     14.301892
_cell_angle_alpha  89.89849
_cell_angle_beta   89.811868
_cell_angle_gamma 89.894577
loop_
_atom_site_label
_atom_site_type_symbol
_atom_site_fract_x
_atom_site_fract_y
_atom_site_fract_z
_atom_type_partial_charge
C0 C 0.82993 0.51501 0.39612 0.0
C1 C 0.85942 0.50496 0.41061 0.0
C2 C 0.87074 0.48285 0.35221 0.0
C3 C 0.82456 0.48044 0.26711 0.0
C4 C 0.8128 0.50234 0.32307 0.0
C5 C 0.78114 0.50957 0.29324 0.0
H6 H 0.66821 0.48029 0.97974 0.0
C7 C 0.80204 0.47126 0.19838 0.0
C8 C 0.77612 0.48795 0.21204 0.0
H9 H 0.66621 0.54579 0.19741 0.0
H10 H 0.71559 0.53055 0.24887 0.0
H11 H 0.73394 0.49232 0.91389 0.0
H12 H 0.69622 0.42893 0.10397 0.0
H13 H 0.72435 0.41057 0.04214 0.0
H14 H 0.693 0.42534 0.9795 0.0
H15 H 0.71127 0.46218 0.87604 0.0
H16 H 0.75059 0.45814 0.89028 0.0
C17 C 0.78019 0.5419 0.26012 0.0
C18 C 0.76013 0.50335 0.37595 0.0
C19 C 0.83271 0.39568 0.95884 0.0
C20 C 0.81873 0.38241 0.88225 0.0
C21 C 0.78819 0.38712 0.86932 0.0
C22 C 0.77255 0.40661 0.92826 0.0
C23 C 0.78765 0.4212 1.00107 0.0
C24 C 0.81697 0.41467 0.01663 0.0
C25 C 0.82977 0.43108 0.09748 0.0
C26 C 0.80357 0.44973 0.12687 0.0
C27 C 0.77906 0.44416 0.07009 0.0
C28 C 0.85585 0.45019 0.06019 0.0
C29 C 0.83824 0.40803 0.17347 0.0
C30 C 0.67834 0.49129 0.03872 0.0
C31 C 0.66348 0.51424 0.0842 0.0
C32 C 0.67738 0.52803 0.16107 0.0
C33 C 0.70602 0.51929 0.19043 0.0
C34 C 0.72094 0.49654 0.14242 0.0
C35 C 0.70664 0.48288 0.06847 0.0
C36 C 0.725 0.4593 0.02396 0.0
C37 C 0.7529 0.46099 0.08181 0.0
C38 C 0.751 0.48286 0.1521 0.0
C39 C 0.73047 0.46812 0.92046 0.0
C40 C 0.70889 0.42941 0.03712 0.0
H41 H 0.86422 0.45397 0.24041 0.0
H42 H 0.82063 0.53205 0.44023 0.0
H43 H 0.76442 0.48103 0.40524 0.0
H44 H 0.73667 0.50386 0.35503 0.0
H45 H 0.76343 0.51972 0.43266 0.0
H46 H 0.79843 0.54628 0.20959 0.0
H47 H 0.78281 0.55718 0.32017 0.0
H48 H 0.75942 0.54741 0.22384 0.0
H49 H 0.85609 0.3924 0.9717 0.0
H50 H 0.7766 0.37636 0.8128 0.0
H51 H 0.74954 0.41012 0.91345 0.0
H52 H 0.85217 0.45703 0.98635 0.0
H53 H 0.87709 0.43788 0.0626 0.0
H54 H 0.85842 0.47121 0.09828 0.0
H55 H 0.83461 0.41622 0.24546 0.0
H56 H 0.86161 0.4008 0.16574 0.0
H57 H 0.82417 0.38797 0.16914 0.0
H58 H 0.89315 0.47483 0.36181 0.0
C59 C 0.85368 0.47063 0.28151 0.0
C60 C 0.88713 0.8241 0.96081 0.0
C61 C 0.8722 0.84854 1.00236 0.0
C62 C 0.86076 0.84425 0.09409 0.0
C63 C 0.89482 0.80453 0.11381 0.0
C64 C 0.89792 0.80172 0.0194 0.0
C65 C 0.91713 0.77531 0.9967 0.0
H66 H 1.01915 0.67657 0.15513 0.0
C67 C 0.91833 0.78821 0.15906 0.0
C68 C 0.9298 0.76844 0.094 0.0
H69 H 0.96456 0.67209 0.9077 0.0
H70 H 0.94262 0.71892 0.9462 0.0
H71 H 0.02803 0.75899 0.13467 0.0
H72 H 0.96987 0.70493 0.3076 0.0
H73 H 0.99195 0.7315 0.36738 0.0
H74 H 1.00939 0.70013 0.31393 0.0
H75 H 0.0432 0.72982 0.20549 0.0
H76 H 0.03099 0.76344 0.25839 0.0
C77 C 0.94168 0.78418 0.92674 0.0
C78 C 0.89668 0.75047 0.95955 0.0
C79 C 0.97483 0.85193 0.38248 0.0
C80 C 0.9974 0.84731 0.4474 0.0
C81 C 1.01078 0.81899 0.45102 0.0
C82 C 1.00172 0.79613 0.38938 0.0
C83 C 0.97848 0.80139 0.32584 0.0
C84 C 0.96468 0.82868 0.32752 0.0
C85 C 0.93734 0.82985 0.26945 0.0
C86 C 0.93686 0.79854 0.23117 0.0
C87 C 0.96237 0.78254 0.25687 0.0
C88 C 0.94206 0.85307 0.19133 0.0
C89 C 0.91031 0.83723 0.33253 0.0
C90 C 1.00249 0.68593 0.10964 0.0
C91 C 0.99316 0.67043 0.02859 0.0
C92 C 0.97172 0.68333 0.97049 0.0
C93 C 0.95876 0.7103 0.99313 0.0
C94 C 0.96726 0.72495 0.0746 0.0
C95 C 0.98926 0.71355 0.13105 0.0
C96 C 0.99495 0.73394 0.21404 0.0
C97 C 0.97047 0.75712 0.20218 0.0
C98 C 0.9548 0.7513 0.11908 0.0
C99 C 0.02602 0.74737 0.20293 0.0
C100 C 0.99142 0.71669 0.30612 0.0
H101 H 0.8659 0.82032 0.2233 0.0
H102 H 0.89375 0.82409 0.88826 0.0
H103 H 0.89723 0.73074 1.00564 0.0
H104 H 0.90293 0.74373 0.88749 0.0
H105 H 0.87305 0.75731 0.95593 0.0
H106 H 0.95386 0.80383 0.95247 0.0
H107 H 0.93214 0.78955 0.85727 0.0
H108 H 0.958 0.76626 0.91662 0.0
H109 H 0.96372 0.87311 0.37926 0.0
H110 H 0.02781 0.8145 0.5022 0.0
H111 H 1.01199 0.77481 0.3957 0.0
H112 H 0.94619 0.87522 0.22144 0.0
H113 H 0.92253 0.85527 0.14572 0.0
H114 H 0.9613 0.84707 0.14654 0.0
H115 H 0.89834 0.81691 0.35392 0.0
H116 H 0.8948 0.85253 0.29709 0.0
H117 H 0.91652 0.84872 0.39805 0.0
H118 H 0.84597 0.85989 0.12654 0.0
C119 C 0.8727 0.82227 0.15123 0.0
C120 C 0.84864 0.02055 0.09793 0.0
C121 C 0.86551 0.03113 0.02114 0.0
C122 C 0.85524 0.05573 0.97114 0.0
C123 C 0.81304 0.06021 0.07494 0.0
C124 C 0.82211 0.03533 0.12296 0.0
C125 C 0.80029 0.02756 0.20049 0.0
H126 H 0.67073 0.06547 0.42734 0.0
C127 C 0.78598 0.07184 0.11983 0.0
C128 C 0.77795 0.05294 0.19406 0.0
H129 H 0.72287 0.98764 0.47995 0.0
H130 H 0.75934 1.00371 0.36338 0.0
H131 H 0.72297 0.10894 0.42476 0.0
H132 H 0.67584 0.06455 0.20694 0.0
H133 H 0.67993 0.10131 0.17115 0.0
H134 H 0.6604 0.0934 0.27775 0.0
H135 H 0.68888 0.12322 0.3798 0.0
H136 H 0.72421 0.13342 0.32971 0.0
C137 C 0.81665 0.0274 0.29487 0.0
C138 C 0.78609 0.99764 0.17642 0.0
C139 C 0.73654 0.16256 0.98093 0.0
C140 C 0.70999 0.17751 1.00319 0.0
C141 C 0.69715 0.17194 0.09219 0.0
C142 C 0.708 0.14968 0.15042 0.0
C143 C 0.73194 0.13244 0.12046 0.0
C144 C 0.74681 0.14004 0.03979 0.0
C145 C 0.77239 0.11964 0.02064 0.0
C146 C 0.76932 0.09771 0.10079 0.0
C147 C 0.74525 0.10507 0.15769 0.0
C148 C 0.80128 0.13794 0.02762 0.0
C149 C 0.7672 0.10479 0.92432 0.0
C150 C 0.68995 0.05179 0.41365 0.0
C151 C 0.69369 0.02516 0.46152 0.0
C152 C 0.7193 1.00814 0.44273 0.0
C153 C 0.74031 1.01743 0.37493 0.0
C154 C 0.73569 0.04403 0.32574 0.0
C155 C 0.71087 0.06071 0.34724 0.0
C156 C 0.70887 0.08844 0.2912 0.0
C157 C 0.73606 0.08567 0.22986 0.0
C158 C 0.75211 0.05963 0.24908 0.0
C159 C 0.71113 0.11498 0.35934 0.0
C160 C 0.67976 0.0872 0.23389 0.0
H161 H 0.82328 0.08915 0.95679 0.0
H162 H 0.85605 1.00154 0.13734 0.0
H163 H 0.77875 0.99738 0.10226 0.0
H164 H 0.76627 0.99296 0.21893 0.0
H165 H 0.80221 0.97937 0.18619 0.0
H166 H 0.83004 0.04779 0.30261 0.0
H167 H 0.83182 1.00816 0.29978 0.0
H168 H 0.80128 0.02673 0.35492 0.0
H169 H 0.74818 0.16657 0.91626 0.0
H170 H 0.67711 0.1829 0.11479 0.0
H171 H 0.69603 0.14562 0.2139 0.0
H172 H 0.79863 0.15687 0.07637 0.0
H173 H 0.80781 0.14706 0.95847 0.0
H174 H 0.81996 0.12516 0.05685 0.0
H175 H 0.74322 0.1008 0.91241 0.0
H176 H 0.77751 0.08276 0.91865 0.0
H177 H 0.77537 0.11889 0.86619 0.0
H178 H 0.86782 0.06416 0.91224 0.0
C179 C 0.82939 0.07033 0.99769 0.0
C180 C 0.50129 0.71541 0.47233 0.0
C181 C 0.48417 0.69314 0.5171 0.0
C182 C 0.45314 0.69623 0.51992 0.0
C183 C 0.45624 0.73681 0.41227 0.0
C184 C 0.4864 0.73794 0.42206 0.0
C185 C 0.49837 0.76548 0.37344 0.0
H186 H 0.47017 0.87302 0.04315 0.0
C187 C 0.4469 0.75827 0.34269 0.0
C188 C 0.47066 0.77712 0.32286 0.0
H189 H 0.54874 0.86567 0.21148 0.0
H190 H 0.52763 0.82316 0.29349 0.0
H191 H 0.4617 0.81887 0.98422 0.0
H192 H 0.42142 0.85958 0.21154 0.0
H193 H 0.39491 0.8375 0.15325 0.0
H194 H 0.41604 0.86416 0.08777 0.0
H195 H 0.42272 0.82163 0.98252 0.0
H196 H 0.44072 0.78818 0.02136 0.0
C197 C 0.523 0.75659 0.30428 0.0
C198 C 0.50902 0.78703 0.44958 0.0
C199 C 0.37785 0.71935 0.09968 0.0
C200 C 0.36796 0.73122 1.0145 0.0
C201 C 0.36817 0.76206 1.00252 0.0
C202 C 0.38258 0.78007 0.068 0.0
C203 C 0.39663 0.76692 0.14511 0.0
C204 C 0.39184 0.73756 0.16441 0.0
C205 C 0.40613 0.7279 0.2541 0.0
C206 C 0.42295 0.756 0.27992 0.0
C207 C 0.41873 0.77797 0.21211 0.0
C208 C 0.42725 0.70169 0.23413 0.0
C209 C 0.3815 0.71951 0.32475 0.0
C210 C 0.4827 0.86241 0.09829 0.0
C211 C 0.51094 0.87264 0.1213 0.0
C212 C 0.52681 0.85816 0.19301 0.0
C213 C 0.51453 0.83367 0.24059 0.0
C214 C 0.48612 0.82363 0.21626 0.0
C215 C 0.47085 0.83806 0.14576 0.0
C216 C 0.44135 0.82441 0.12611 0.0
C217 C 0.44062 0.80009 0.19938 0.0
C218 C 0.46696 0.79941 0.25246 0.0
C219 C 0.44143 0.81262 0.02377 0.0
C220 C 0.417 0.84764 0.14514 0.0
H221 H 0.41558 0.72132 0.47464 0.0
H222 H 0.52521 0.7146 0.47386 0.0
H223 H 0.49355 0.78705 0.51022 0.0
H224 H 0.50979 0.81004 0.42475 0.0
H225 H 0.53123 0.78059 0.47574 0.0
H226 H 0.51481 0.73945 0.2553 0.0
H227 H 0.5424 0.74747 0.34212 0.0
H228 H 0.53064 0.77543 0.26173 0.0
H229 H 0.37665 0.69584 0.11239 0.0
H230 H 0.3586 0.77201 0.94077 0.0
H231 H 0.38305 0.80337 0.05558 0.0
H232 H 0.44427 0.70796 0.18145 0.0
H233 H 0.41494 0.6823 0.20752 0.0
H234 H 0.43877 0.69413 0.29789 0.0
H235 H 0.36106 0.71195 0.28904 0.0
H236 H 0.37531 0.73858 0.36952 0.0
H237 H 0.38817 0.70068 0.36948 0.0
H238 H 0.43971 0.68055 0.55835 0.0
C239 C 0.43913 0.71852 0.46905 0.0
C240 C 0.35179 0.51775 0.34812 0.0
C241 C 0.37129 0.52959 0.41615 0.0
C242 C 0.36578 0.55797 0.45096 0.0
C243 C 0.32108 0.56178 0.35852 0.0
C244 C 0.32674 0.53446 0.31976 0.0
C245 C 0.30303 0.52643 0.24849 0.0
H246 H 0.16914 0.56594 0.0499 0.0
C247 C 0.29305 0.57331 0.3201 0.0
C248 C 0.28212 0.55307 0.25367 0.0
H249 H 0.21938 0.48808 0.98172 0.0
H250 H 0.25802 0.50282 0.09262 0.0
H251 H 0.1764 0.56325 0.25872 0.0
H252 H 0.22322 0.60913 0.04345 0.0
H253 H 0.22198 0.63398 0.13721 0.0
H254 H 0.18785 0.62078 0.08696 0.0
H255 H 0.16324 0.59731 0.21079 0.0
H256 H 0.18674 0.59619 0.31236 0.0
C257 C 0.28767 0.49781 0.2802 0.0
C258 C 0.31772 0.52377 0.1515 0.0
C259 C 0.24448 0.66129 0.479 0.0
C260 C 0.21622 0.67414 0.46811 0.0
C261 C 0.20057 0.66799 0.38467 0.0
C262 C 0.21089 0.64719 0.3208 0.0
C263 C 0.23705 0.63175 0.33976 0.0
C264 C 0.25422 0.63995 0.41471 0.0
C265 C 0.28162 0.62116 0.42241 0.0
C266 C 0.2766 0.59895 0.34393 0.0
C267 C 0.25031 0.60522 0.29689 0.0
C268 C 0.28138 0.60628 0.5202 0.0
C269 C 0.30888 0.64111 0.40322 0.0
C270 C 0.18841 0.55195 0.05863 0.0
C271 C 0.19103 0.52582 1.00764 0.0
C272 C 0.21671 0.50833 0.02085 0.0
C273 C 0.23909 0.51694 0.08494 0.0
C274 C 0.23593 0.54345 0.13571 0.0
C275 C 0.21079 0.56032 0.12047 0.0
C276 C 0.21023 0.58789 0.17699 0.0
C277 C 0.23907 0.5853 0.22965 0.0
C278 C 0.25456 0.5592 0.20689 0.0
C279 C 0.18276 0.58643 0.24286 0.0
C280 C 0.2106 0.61446 0.10825 0.0
H281 H 0.3382 0.59534 0.45319 0.0
H282 H 0.35574 0.49605 0.31933 0.0
H283 H 0.33181 0.54335 0.13703 0.0
H284 H 0.30133 0.52269 0.09466 0.0
H285 H 0.33197 0.50381 0.14792 0.0
H286 H 0.28039 0.49964 0.35433 0.0
H287 H 0.303 0.47872 0.27453 0.0
H288 H 0.26777 0.49298 0.23857 0.0
H289 H 0.25811 0.66619 0.53861 0.0
H290 H 0.17892 0.67727 0.3714 0.0
H291 H 0.19691 0.6426 0.26231 0.0
H292 H 0.29588 0.58681 0.52508 0.0
H293 H 0.25882 0.59812 0.53767 0.0
H294 H 0.28798 0.62213 0.57542 0.0
H295 H 0.32536 0.63025 0.35707 0.0
H296 H 0.31984 0.64776 0.46929 0.0
H297 H 0.30274 0.6617 0.3655 0.0
H298 H 0.38049 0.56754 0.50235 0.0
C299 C 0.34109 0.57407 0.42236 0.0
C300 C 0.13097 0.24416 0.60571 0.0
C301 C 0.13107 0.21368 0.62438 0.0
C302 C 0.14045 0.19463 0.55152 0.0
C303 C 0.13289 0.2336 0.4403 0.0
C304 C 0.13059 0.25362 0.51225 0.0
C305 C 0.12194 0.28369 0.47743 0.0
H306 H 0.02569 0.35835 0.2733 0.0
C307 C 0.12073 0.24704 0.35503 0.0
C308 C 0.11633 0.27695 0.37354 0.0
H309 H 0.10241 0.39055 0.42267 0.0
H310 H 0.12937 0.34576 0.37875 0.0
H311 H 0.08154 0.32481 0.10389 0.0
H312 H 0.02416 0.28433 0.31304 0.0
H313 H 1.02094 0.27107 0.19531 0.0
H314 H 1.00868 0.30763 0.22339 0.0
H315 H 0.04204 0.32935 0.09713 0.0
H316 H 0.05925 0.29526 0.06402 0.0
C317 C 0.14811 0.30491 0.49482 0.0
C318 C 0.09341 0.29383 0.52874 0.0
C319 C 0.07534 0.17529 0.12712 0.0
C320 C 0.05715 0.17767 0.04842 0.0
C321 C 0.04562 0.20589 0.02573 0.0
C322 C 0.05228 0.23099 0.08129 0.0
C323 C 0.07135 0.22809 0.15865 0.0
C324 C 0.0826 0.20039 0.17901 0.0
C325 C 0.10427 0.20065 0.25766 0.0
C326 C 0.10509 0.23331 0.28079 0.0
C327 C 0.08522 0.24968 0.22463 0.0
C328 C 0.1346 0.19 0.21943 0.0
C329 C 0.0916 0.18127 0.33865 0.0
C330 C 0.04789 0.3553 0.29971 0.0
C331 C 0.06115 0.37699 0.3585 0.0
C332 C 0.09108 0.37354 0.38362 0.0
C333 C 0.10623 0.34761 0.36278 0.0
C334 C 0.09085 0.32452 0.32156 0.0
C335 C 0.06391 0.329 0.28027 0.0
C336 C 0.0569 0.30282 0.21646 0.0
C337 C 0.08153 0.2807 0.24289 0.0
C338 C 0.09982 0.29409 0.30976 0.0
C339 C 0.05998 0.31349 0.11458 0.0
C340 C 0.02587 0.29073 0.23814 0.0
H341 H 0.14726 0.18919 0.40578 0.0
H342 H 0.12726 0.25986 0.66121 0.0
H343 H 0.07529 0.27761 0.51852 0.0
H344 H 0.08553 0.31553 0.50398 0.0
H345 H 0.09728 0.29635 0.60489 0.0
H346 H 0.16189 0.29769 0.55497 0.0
H347 H 0.14034 0.32729 0.51406 0.0
H348 H 0.16285 0.30627 0.43263 0.0
H349 H 0.08474 0.15414 0.14634 0.0
H350 H 0.03162 0.20849 0.96495 0.0
H351 H 0.04271 0.25177 0.06206 0.0
H352 H 0.13848 0.19837 0.14723 0.0
H353 H 0.13567 0.16554 0.2171 0.0
H354 H 0.1534 0.19837 0.26088 0.0
H355 H 0.07111 0.16931 0.31879 0.0
H356 H 0.08535 0.19469 0.40051 0.0
H357 H 0.10739 0.16386 0.36063 0.0
H358 H 0.1429 0.17115 0.56241 0.0
C359 C 0.14183 0.20474 0.4594 0.0
C360 C 0.33978 1.00095 0.09403 0.0
C361 C 0.36783 0.99023 0.06429 0.0
C362 C 0.3794 0.96485 0.10688 0.0
C363 C 0.33635 0.9609 0.20713 0.0
C364 C 0.32439 0.98585 0.1665 0.0
C365 C 0.29464 0.99344 0.21118 0.0
H366 H 0.19136 0.95775 0.55074 0.0
C367 C 0.31587 0.95007 0.28008 0.0
C368 C 0.29102 0.96874 0.28396 0.0
H369 H 0.18668 0.03136 0.36066 0.0
H370 H 0.23313 1.01592 0.28697 0.0
H371 H 0.21226 0.91004 0.40154 0.0
H372 H 0.25991 0.96455 0.59549 0.0
H373 H 0.27561 0.9292 0.60063 0.0
H374 H 0.23733 0.93412 0.63209 0.0
H375 H 0.21263 0.90263 0.52483 0.0
H376 H 0.24085 0.88821 0.44772 0.0
C377 C 0.27054 0.99208 0.13535 0.0
C378 C 0.29721 0.024 0.25751 0.0
C379 C 0.35075 0.86549 0.48148 0.0
C380 C 0.33945 0.85154 0.56207 0.0
C381 C 0.30972 0.85713 0.58718 0.0
C382 C 0.29288 0.87832 0.53873 0.0
C383 C 0.3058 0.89402 0.46398 0.0
C384 C 0.33382 0.88646 0.43453 0.0
C385 C 0.34431 0.90477 0.35384 0.0
C386 C 0.31853 0.92581 0.34209 0.0
C387 C 0.29607 0.91959 0.40662 0.0
C388 C 0.3477 0.88391 0.26854 0.0
C389 C 0.37308 0.921 0.38377 0.0
C390 C 0.20032 0.97048 0.49309 0.0
C391 C 0.18554 0.99569 0.46148 0.0
C392 C 0.19784 1.01181 0.38618 0.0
C393 C 0.22477 1.00288 0.34383 0.0
C394 C 0.23959 0.97764 0.37741 0.0
C395 C 0.22698 0.96195 0.45073 0.0
C396 C 0.24527 0.936 0.47968 0.0
C397 C 0.27095 0.93826 0.41201 0.0
C398 C 0.26804 0.96277 0.35139 0.0
C399 C 0.22691 0.90763 0.4635 0.0
C400 C 0.25501 0.94089 0.58241 0.0
H401 H 0.37452 0.93115 0.20569 0.0
H402 H 0.33031 0.02045 0.06215 0.0
H403 H 0.31759 0.02519 0.30073 0.0
H404 H 0.27855 0.02883 0.30487 0.0
H405 H 0.2984 0.04167 0.20374 0.0
H406 H 0.2726 0.97135 0.09441 0.0
H407 H 0.27264 1.01093 0.08606 0.0
H408 H 0.24801 0.99222 0.16518 0.0
H409 H 0.37334 0.862 0.45864 0.0
H410 H 0.29958 0.84586 0.64551 0.0
H411 H 0.2708 0.8824 0.56347 0.0
H412 H 0.33093 0.86598 0.2704 0.0
H413 H 0.36983 0.8733 0.26791 0.0
H414 H 0.34389 0.89508 0.20087 0.0
H415 H 0.37462 0.94366 0.35562 0.0
H416 H 0.39312 0.9085 0.36231 0.0
H417 H 0.37404 0.92408 0.46087 0.0
H418 H 0.40076 0.95624 0.08545 0.0
C419 C 0.36393 0.95019 0.17702 0.0
C420 C 0.52855 0.331 0.10045 0.0
C421 C 0.53516 0.36161 0.09313 0.0
C422 C 0.55179 0.37484 0.16432 0.0
C423 C 0.55924 0.32768 0.23949 0.0
C424 C 0.54026 0.31455 0.17674 0.0
C425 C 0.53465 0.28248 0.2045 0.0
H426 H 0.56684 0.1721 0.52362 0.0
C427 C 0.57039 0.30515 0.30479 0.0
C428 C 0.55563 0.27841 0.28803 0.0
H429 H 0.50181 0.16677 0.30465 0.0
H430 H 0.51612 0.21597 0.24892 0.0
H431 H 0.61683 0.19854 0.39023 0.0
H432 H 0.55581 0.23711 0.58653 0.0
H433 H 0.59038 0.25372 0.60479 0.0
H434 H 0.5866 0.21458 0.6211 0.0
H435 H 0.62268 0.19665 0.51407 0.0
H436 H 0.63601 0.2273 0.44503 0.0
C437 C 0.54301 0.26212 0.1225 0.0
C438 C 0.50192 0.27975 0.23384 0.0
C439 C 0.6529 0.33477 0.52222 0.0
C440 C 0.66611 0.32113 0.59977 0.0
C441 C 0.66148 0.29075 0.61417 0.0
C442 C 0.64173 0.27506 0.55695 0.0
C443 C 0.62617 0.29012 0.48594 0.0
C444 C 0.63261 0.31928 0.46848 0.0
C445 C 0.61258 0.33292 0.39731 0.0
C446 C 0.59355 0.30673 0.37114 0.0
C447 C 0.60123 0.28191 0.42389 0.0
C448 C 0.63222 0.34365 0.31502 0.0
C449 C 0.59422 0.3576 0.44644 0.0
C450 C 0.55538 0.18158 0.46424 0.0
C451 C 0.53271 0.16591 0.42025 0.0
C452 C 0.51889 0.17877 0.34133 0.0
C453 C 0.52704 0.20731 0.3096 0.0
C454 C 0.5493 0.22306 0.35704 0.0
C455 C 0.56338 0.20952 0.43169 0.0
C456 C 0.58749 0.22792 0.47239 0.0
C457 C 0.58484 0.25555 0.41396 0.0
C458 C 0.56234 0.25322 0.34578 0.0
C459 C 0.61738 0.21186 0.4555 0.0
C460 C 0.58 0.23361 0.57681 0.0
H461 H 0.57753 0.36985 0.2843 0.0
H462 H 0.51506 0.32031 0.04816 0.0
H463 H 0.49589 0.29747 0.2841 0.0
H464 H 0.49706 0.25872 0.26918 0.0
H465 H 0.48722 0.28181 0.17202 0.0
H466 H 0.5657 0.26723 0.09699 0.0
H467 H 0.52741 0.26508 0.06332 0.0
H468 H 0.54287 0.23866 0.14319 0.0
H469 H 0.65541 0.35822 0.51022 0.0
H470 H 0.67165 0.27963 0.6729 0.0
H471 H 0.63805 0.25229 0.57383 0.0
H472 H 0.61983 0.34786 0.25012 0.0
H473 H 0.64898 0.32662 0.29644 0.0
H474 H 0.64424 0.3641 0.3342 0.0
H475 H 0.57032 0.35625 0.4295 0.0
H476 H 0.60247 0.37985 0.42734 0.0
H477 H 0.59495 0.35595 0.52407 0.0
H478 H 0.55661 0.39824 0.16181 0.0
C479 C 0.56408 0.35816 0.23584 0.0
Sm480 Sm 0.04184 0.99404 0.83445 0.0
Sm481 Sm 1.01258 0.0258 0.68205 0.0
C482 C 0.04616 0.95638 0.97374 0.0
C483 C 1.01951 0.94273 1.01572 0.0
C484 C 0.99529 0.96088 0.03852 0.0
C485 C 0.96663 0.94969 0.0384 0.0
C486 C 0.96161 0.91984 0.01957 0.0
C487 C 0.9861 0.90078 1.01101 0.0
C488 C 1.01487 0.91223 1.00751 0.0
C489 C 0.08208 1.01096 0.69664 0.0
C490 C 1.01259 0.95625 0.65834 0.0
C491 C 1.00039 0.067 0.55868 0.0
C492 C 1.0075 0.0984 0.5735 0.0
C493 C 0.02968 0.11134 0.51817 0.0
C494 C 0.04629 0.13474 0.55314 0.0
C495 C 0.04076 0.14558 0.64342 0.0
C496 C 1.01626 0.13529 0.69363 0.0
C497 C 0.99949 0.11201 0.65848 0.0
C498 C 0.97334 1.00816 0.8222 0.0
C499 C 0.04138 0.06448 0.857 0.0
O500 O 0.04915 0.98477 0.98585 0.0
O501 O 0.05117 0.94871 0.8872 0.0
O502 O 0.05629 1.0011 0.68398 0.0
O503 O 0.08817 1.00946 0.78547 0.0
O504 O 1.01801 0.95695 0.74922 0.0
O505 O 1.01159 0.9808 0.60933 0.0
O506 O 0.02371 0.05006 0.55177 0.0
O507 O 0.98001 0.05559 0.61281 0.0
O508 O 0.9987 1.01921 0.83308 0.0
O509 O 0.96794 1.00627 0.73301 0.0
O510 O 0.03341 0.06407 0.76834 0.0
O511 O 0.04432 0.03971 0.90417 0.0
H512 H 0.99808 0.98432 0.04763 0.0
H513 H 0.94826 0.96474 0.0477 0.0
H514 H 0.98276 0.87751 0.99798 0.0
H515 H 0.03308 0.89769 0.9898 0.0
H516 H 0.03632 0.1013 0.45265 0.0
H517 H 0.06503 0.14276 0.51308 0.0
H518 H 1.01142 0.1439 0.76253 0.0
H519 H 0.98235 0.10276 0.70261 0.0
Sm520 Sm 0.53548 0.03407 0.81845 0.0
Sm521 Sm 0.5193 0.99264 0.69468 0.0
C522 C 0.56062 0.07079 0.93769 0.0
C523 C 0.57878 0.0973 0.92461 0.0
C524 C 0.60075 0.10396 0.98989 0.0
C525 C 0.61961 0.12782 0.97481 0.0
C526 C 0.6167 0.14538 0.89437 0.0
C527 C 0.59417 0.13931 0.83012 0.0
C528 C 0.57548 0.11517 0.84469 0.0
C529 C 0.51817 0.06233 0.65353 0.0
C530 C 0.58633 1.01006 0.67841 0.0
C531 C 0.49525 0.95424 0.57836 0.0
C532 C 0.47799 0.92717 0.59399 0.0
C533 C 0.45443 0.92062 0.53438 0.0
C534 C 0.43596 0.89677 0.55389 0.0
C535 C 0.44067 0.87911 0.63321 0.0
C536 C 0.46517 0.88465 0.69042 0.0
C537 C 0.48355 0.90878 0.67154 0.0
C538 C 0.53841 0.96612 0.86204 0.0
C539 C 0.46839 1.01585 0.83502 0.0
O540 O 0.57285 0.04599 0.91192 0.0
O541 O 0.53305 0.07293 0.91195 0.0
O542 O 0.53389 0.03928 0.65743 0.0
O543 O 0.50937 0.06927 0.73653 0.0
O544 O 0.58119 1.01609 0.76701 0.0
O545 O 0.5634 1.005 0.62459 0.0
O546 O 0.48227 0.97889 0.60208 0.0
O547 O 0.52292 0.95329 0.60357 0.0
O548 O 0.52106 0.98778 0.855 0.0
O549 O 0.54642 0.95851 0.77883 0.0
O550 O 0.47341 1.01001 0.7462 0.0
O551 O 0.4913 0.02159 0.88814 0.0
H552 H 0.60374 0.09033 0.05146 0.0
H553 H 0.63697 0.13222 0.02499 0.0
H554 H 0.59168 0.15266 0.76775 0.0
H555 H 0.55882 0.11016 0.7928 0.0
H556 H 0.44976 0.93447 0.4744 0.0
H557 H 0.41729 0.89262 0.50874 0.0
H558 H 0.46924 0.87117 0.75164 0.0
H559 H 0.50155 0.91353 0.71895 0.0
Sm560 Sm 0.48984 0.52584 0.82267 0.0
Sm561 Sm 0.53497 0.51263 0.7008 0.0
C562 C 0.45148 0.55042 0.93931 0.0
C563 C 0.42939 0.57399 0.92851 0.0
C564 C 0.41577 0.57925 0.84168 0.0
C565 C 0.39767 0.604 0.82915 0.0
C566 C 0.39355 0.62398 0.90283 0.0
C567 C 0.40615 0.618 0.99045 0.0
C568 C 0.42393 0.59315 1.00324 0.0
C569 C 0.46656 0.502 0.65792 0.0
C570 C 0.51009 0.57775 0.67624 0.0
C571 C 0.57564 0.48949 0.58928 0.0
C572 C 0.60084 0.47004 0.61021 0.0
C573 C 0.61019 0.44929 0.54404 0.0
C574 C 0.63073 0.42763 0.56879 0.0
C575 C 0.64195 0.42631 0.66014 0.0
C576 C 0.6342 0.44827 0.72463 0.0
C577 C 0.61363 0.46998 0.69987 0.0
C578 C 0.55809 0.53456 0.86816 0.0
C579 C 0.5141 0.46077 0.84853 0.0
O580 O 0.47904 0.55879 0.93254 0.0
O581 O 0.44628 0.52589 0.89482 0.0
O582 O 0.48689 0.52121 0.66213 0.0
O583 O 0.45906 0.49477 0.74221 0.0
O584 O 0.4999 0.57242 0.76098 0.0
O585 O 0.52148 0.55587 0.62764 0.0
O586 O 0.54951 0.47775 0.60136 0.0
O587 O 0.57728 0.51618 0.62254 0.0
O588 O 0.53773 0.51564 0.86056 0.0
O589 O 0.56503 0.54363 0.78522 0.0
O590 O 0.52498 0.466 0.76425 0.0
O591 O 0.50186 0.48243 0.8956 0.0
H592 H 0.41996 0.56483 0.78275 0.0
H593 H 0.38816 0.60838 0.7611 0.0
H594 H 0.40318 0.63327 0.04795 0.0
H595 H 0.43436 0.58952 0.07042 0.0
H596 H 0.60056 0.44897 0.47476 0.0
H597 H 0.63657 0.41083 0.51828 0.0
H598 H 0.64251 0.44744 0.79556 0.0
H599 H 0.60663 0.4858 0.75217 0.0
Sm600 Sm 1.01457 0.49795 0.77203 0.0
Sm601 Sm 0.03191 0.53987 0.65009 0.0
C602 C 0.98754 0.46027 0.88521 0.0
C603 C 0.96591 0.43639 0.86836 0.0
C604 C 0.93635 0.44052 0.89534 0.0
C605 C 0.91482 0.4202 0.86958 0.0
C606 C 0.92234 0.39515 0.81706 0.0
C607 C 0.95198 0.39017 0.79291 0.0
C608 C 0.9737 0.41059 0.81895 0.0
C609 C 0.03412 0.47171 0.60565 0.0
C610 C 0.96455 0.5224 0.6299 0.0
C611 C 0.05864 0.57705 0.5344 0.0
C612 C 0.07865 0.60225 0.54792 0.0
C613 C 0.10328 0.60533 0.48915 0.0
C614 C 0.12405 0.62738 0.50599 0.0
C615 C 0.12055 0.64664 0.58197 0.0
C616 C 0.09557 0.64417 0.63971 0.0
C617 C 0.07467 0.62207 0.62266 0.0
C618 C 1.01219 0.56647 0.81479 0.0
C619 C 0.08161 0.51504 0.79475 0.0
O620 O 0.97803 0.4871 0.87057 0.0
O621 O 1.01438 0.45623 0.85383 0.0
O622 O 1.01724 0.49382 0.6108 0.0
O623 O 0.04186 0.46374 0.68876 0.0
O624 O 0.96922 0.51582 0.71833 0.0
O625 O 0.9878 0.52833 0.57758 0.0
O626 O 0.06951 0.55126 0.55598 0.0
O627 O 0.03139 0.58038 0.56281 0.0
O628 O 0.02909 0.5443 0.8107 0.0
O629 O 1.0045 0.5742 0.73154 0.0
O630 O 0.07713 0.52174 0.70613 0.0
O631 O 0.05822 0.50928 0.84641 0.0
H632 H 0.92969 0.46004 0.93365 0.0
H633 H 0.89199 0.42447 0.88846 0.0
H634 H 0.95816 0.37098 0.75232 0.0
H635 H 0.99636 0.40662 0.79765 0.0
H636 H 0.10682 0.59022 0.43156 0.0
H637 H 0.14334 0.62896 0.461 0.0
H638 H 0.09265 0.65879 0.69884 0.0
H639 H 0.05577 0.62009 0.66888 0.0
C640 C 0.15887 0.02312 0.59039 0.0
C641 C 0.1575 1.00493 0.5098 0.0
C642 C 0.10374 0.99928 0.53369 0.0
C643 C 0.10599 1.0135 0.62222 0.0
N644 N 0.13219 0.04985 0.71123 0.0
N645 N 0.12908 0.97439 0.40613 0.0
C646 C 0.13265 0.02859 0.64378 0.0
C647 C 0.12998 0.99289 0.4814 0.0
N648 N 0.18556 0.03412 0.61825 0.0
N649 N 0.07663 0.99395 0.49567 0.0
H650 H 0.14743 0.97032 0.36357 0.0
H651 H 0.11075 0.96157 0.38954 0.0
H652 H 0.05721 1.00237 0.52394 0.0
H653 H 0.07356 0.98543 0.42889 0.0
H654 H 0.18901 0.04427 0.68248 0.0
H655 H 0.20489 0.03165 0.57894 0.0
H656 H 0.14996 0.06354 0.72648 0.0
H657 H 0.11258 0.05634 0.7437 0.0
C658 C 0.4986 0.1306 0.50834 0.0
C659 C 0.52525 0.13582 0.45803 0.0
C660 C 0.54732 0.09198 0.53076 0.0
C661 C 0.52018 0.08556 0.57796 0.0
N662 N 0.46778 0.09507 0.59017 0.0
N663 N 0.57082 0.11586 0.39827 0.0
C664 C 0.49508 0.10367 0.55945 0.0
C665 C 0.54797 0.11431 0.46078 0.0
N666 N 0.47727 0.15192 0.51194 0.0
N667 N 0.57326 0.07935 0.55856 0.0
H668 H 0.5718 0.13204 0.34632 0.0
H669 H 0.5868 0.09937 0.39195 0.0
H670 H 0.57504 0.06619 0.61752 0.0
H671 H 0.59379 0.08537 0.53127 0.0
H672 H 0.45902 0.15079 0.5565 0.0
H673 H 0.47883 0.17172 0.47523 0.0
H674 H 0.44833 0.10597 0.57174 0.0
H675 H 0.46428 0.07533 0.62607 0.0
C676 C 0.39251 0.49428 0.53524 0.0
C677 C 0.39708 0.51305 0.45692 0.0
C678 C 0.45073 0.51271 0.48949 0.0
C679 C 0.44505 0.49918 0.57721 0.0
N680 N 0.41469 0.46255 0.65258 0.0
N681 N 0.43076 0.53764 0.35238 0.0
C682 C 0.41715 0.48539 0.59077 0.0
C683 C 0.42643 0.52098 0.43086 0.0
N684 N 0.36441 0.48636 0.56001 0.0
N685 N 0.47933 0.51598 0.46044 0.0
H686 H 0.41359 0.54269 0.30639 0.0
H687 H 0.45092 0.54714 0.33424 0.0
H688 H 0.49707 0.5079 0.49938 0.0
H689 H 0.48537 0.52381 0.39469 0.0
H690 H 0.35924 0.47611 0.62318 0.0
H691 H 0.34598 0.49146 0.51934 0.0
H692 H 0.39551 0.45013 0.66092 0.0
H693 H 0.43309 0.45333 0.68544 0.0
C694 C 0.02613 0.39866 0.47885 0.0
C695 C 0.04508 0.40288 0.40041 0.0
C696 C 0.05143 0.45503 0.44496 0.0
C697 C 0.03395 0.45018 0.5261 0.0
N698 N 0.99591 0.4213 0.59974 0.0
N699 N 0.0685 0.4366 0.29408 0.0
C700 C 1.01842 0.42322 0.53619 0.0
C701 C 0.0551 0.43177 0.37842 0.0
N702 N 1.01711 0.37092 0.50282 0.0
N703 N 0.06558 0.48137 0.43383 0.0
H704 H 0.07109 0.41981 0.24484 0.0
H705 H 0.07452 0.45737 0.26965 0.0
H706 H 0.06241 0.49894 0.47967 0.0
H707 H 0.08131 0.48541 0.38208 0.0
H708 H 1.00658 0.36606 0.56586 0.0
H709 H 0.02165 0.35241 0.46224 0.0
H710 H 0.98175 0.40326 0.60406 0.0
H711 H 0.9894 0.43918 0.64084 0.0
C712 C 0.89701 0.99437 0.93253 0.0
C713 C 0.89512 1.01886 0.99372 0.0
C714 C 0.94843 0.0279 0.97183 0.0
C715 C 0.94884 1.00784 0.89511 0.0
N716 N 0.92634 0.96609 0.82113 0.0
N717 N 0.91895 0.05861 0.0751 0.0
C718 C 0.92385 0.98921 0.88149 0.0
C719 C 0.92094 0.03524 1.01516 0.0
N720 N 0.87306 0.97625 0.92341 0.0
N721 N 0.97417 0.03886 1.00718 0.0
H722 H 0.89989 0.06323 0.11382 0.0
H723 H 0.93557 0.0743 0.08268 0.0
H724 H 0.99491 0.03173 0.98594 0.0
H725 H 0.97524 0.05173 0.06725 0.0
H726 H 0.8728 0.95705 0.88391 0.0
H727 H 0.85341 0.97967 0.96026 0.0
H728 H 0.90883 0.95317 0.79835 0.0
H729 H 0.9469 0.95918 0.7964 0.0
C730 C 0.54366 0.89307 0.99289 0.0
C731 C 0.52357 0.89818 0.06779 0.0
C732 C 0.52229 0.951 0.02653 0.0
C733 C 0.53865 0.9449 0.94377 0.0
N734 N 0.57704 0.91433 0.87818 0.0
N735 N 0.49392 0.93198 0.15813 0.0
C736 C 0.55302 0.91713 0.9357 0.0
C737 C 0.51322 0.92726 0.08588 0.0
N738 N 0.55257 0.86496 0.973 0.0
N739 N 0.51756 0.97961 0.05214 0.0
H740 H 0.48823 0.91558 0.20612 0.0
H741 H 0.4824 0.95163 0.1679 0.0
H742 H 0.5275 0.99717 0.017 0.0
H743 H 0.50748 0.9859 0.11452 0.0
H744 H 0.564 0.85932 0.91226 0.0
H745 H 0.54675 0.84682 1.01397 0.0
H746 H 0.58997 0.89535 0.87448 0.0
H747 H 0.58659 0.93236 0.84441 0.0
C748 C 0.60836 0.50623 0.06359 0.0
C749 C 0.63386 0.52392 0.04743 0.0
C750 C 0.6047 0.55525 0.94095 0.0
C751 C 0.58085 0.53494 0.94579 0.0
N752 N 0.55524 0.50058 0.04546 0.0
N753 N 0.65673 0.56502 0.96846 0.0
C754 C 0.5812 0.5131 0.01715 0.0
C755 C 0.63196 0.54873 0.98686 0.0
N756 N 0.61041 0.48223 0.1211 0.0
N757 N 0.6006 0.58162 0.89657 0.0
H758 H 0.6769 0.56142 1.00176 0.0
H759 H 0.65789 0.58087 0.91583 0.0
H760 H 0.58012 0.58788 0.8696 0.0
H761 H 0.61602 0.59864 0.89683 0.0
H762 H 0.59414 0.46608 0.12608 0.0
H763 H 0.62926 0.4776 0.16048 0.0
H764 H 0.5535 0.48565 0.10053 0.0
H765 H 0.5348 0.50846 0.023 0.0
C766 C 0.02988 0.637 0.94649 0.0
C767 C 1.00395 0.64025 1.00179 0.0
C768 C 0.98713 0.59105 0.952 0.0
C769 C 1.01218 0.58857 0.89253 0.0
N770 N 0.06147 0.60472 0.85414 0.0
N771 N 0.96239 0.61758 0.07799 0.0
C772 C 0.03499 0.61006 0.89721 0.0
C773 C 0.98418 0.61613 1.01174 0.0
N774 N 0.04868 0.66035 0.93655 0.0
N775 N 0.96558 0.57 0.94834 0.0
H776 H 0.96006 0.63568 0.1224 0.0
H777 H 0.94847 0.60008 0.09469 0.0
H778 H 0.96782 0.55084 0.90862 0.0
H779 H 0.94511 0.57196 0.98126 0.0
H780 H 0.06591 0.66096 0.8881 0.0
H781 H 0.04611 0.67985 0.97426 0.0
H782 H 0.07997 0.61814 0.86153 0.0
H783 H 0.0657 0.58542 0.81702 0.0
C784 C 0.08358 0.21346 0.71207 0.0
C785 C 0.1121 0.20122 0.70117 0.0
C786 C 0.09119 0.15202 0.712 0.0
C787 C 0.06321 0.16445 0.68877 0.0
N788 N 0.03123 0.20701 0.681 0.0
N789 N 0.14332 0.16139 0.74604 0.0
C790 C 0.05859 0.19523 0.69658 0.0
C791 C 0.11576 0.17119 0.72315 0.0
N792 N 0.08131 0.24233 0.73622 0.0
N793 N 0.09443 0.12213 0.71626 0.0
H794 H 0.16099 0.17613 0.75092 0.0
H795 H 0.14827 0.13975 0.7645 0.0
H796 H 0.0765 0.10778 0.71057 0.0
H797 H 0.11464 0.11156 0.72513 0.0
H798 H 0.06139 0.25301 0.75105 0.0
H799 H 0.06139 0.25301 0.75105 0.0
H800 H 0.02739 0.22952 0.67329 0.0
H801 H 1.0125 0.19404 0.67076 0.0
C802 C 0.38484 0.82174 0.58267 0.0
C803 C 0.36088 0.83647 0.62609 0.0
C804 C 0.3952 0.86424 0.72202 0.0
C805 C 0.41794 0.85676 0.65747 0.0
N806 N 0.4369 0.82178 0.54553 0.0
N807 N 0.34566 0.85295 0.77799 0.0
C808 C 0.41378 0.83259 0.59635 0.0
C809 C 0.36688 0.85131 0.71048 0.0
N810 N 0.37984 0.80061 0.51757 0.0
N811 N 0.39999 0.88495 0.78928 0.0
H812 H 0.32579 0.84151 0.77182 0.0
H813 H 0.34925 0.86228 0.84349 0.0
H814 H 0.42086 0.89368 0.80231 0.0
H815 H 0.38313 0.89386 0.83033 0.0
H816 H 0.35858 0.79306 0.50226 0.0
H817 H 0.35858 0.79306 0.50226 0.0
H818 H 0.43435 0.80466 0.4975 0.0
H819 H 0.45839 0.82971 0.55415 0.0
C820 C 0.69605 0.36362 0.64794 0.0
C821 C 0.67644 0.34096 0.67544 0.0
C822 C 0.64125 0.37636 0.73471 0.0
C823 C 0.65757 0.39918 0.69029 0.0
N824 N 0.70452 0.41654 0.63305 0.0
N825 N 0.6428 0.32664 0.79677 0.0
C826 C 0.68677 0.39354 0.65802 0.0
C827 C 0.65393 0.34794 0.7396 0.0
N828 N 0.72129 0.35597 0.60171 0.0
N829 N 0.61268 0.38073 0.76249 0.0
H830 H 0.65214 0.30559 0.79896 0.0
H831 H 0.62681 0.33099 0.84768 0.0
H832 H 0.60209 0.40111 0.75881 0.0
H833 H 0.59895 0.36345 0.78329 0.0
H834 H 0.73579 0.371 0.57129 0.0
H835 H 0.7271 0.3338 0.59362 0.0
H836 H 0.72643 0.41411 0.61186 0.0
H837 H 0.69755 0.43839 0.64005 0.0
C838 C 0.17486 0.70518 0.52601 0.0
C839 C 0.19993 0.68799 0.5488 0.0
C840 C 0.16973 0.65783 0.65168 0.0
C841 C 0.14461 0.66779 0.60174 0.0
N842 N 0.12167 0.70701 0.5139 0.0
N843 N 0.22151 0.66697 0.68667 0.0
C844 C 0.14652 0.69407 0.54863 0.0
C845 C 0.19759 0.67056 0.63029 0.0
N846 N 0.1776 0.72926 0.47029 0.0
N847 N 0.16708 0.63551 0.71497 0.0
H848 H 0.24094 0.67882 0.67488 0.0
H849 H 0.22076 0.65544 0.7497 0.0
H850 H 0.14644 0.6273 0.73478 0.0
H851 H 0.18518 0.62512 0.74583 0.0
H852 H 0.19823 0.73707 0.44832 0.0
H853 H 0.19823 0.73707 0.44832 0.0
H854 H 0.12253 0.72584 0.47189 0.0
H855 H 0.10058 0.69901 0.52957 0.0
C856 C 0.8975 0.88296 0.89173 0.0
C857 C 0.87806 0.87952 0.96789 0.0
C858 C 0.90727 0.91331 0.06046 0.0
C859 C 0.93118 0.90949 0.99653 0.0
N860 N 0.9464 0.89727 0.83841 0.0
N861 N 0.85383 0.91203 0.07545 0.0
C862 C 0.92535 0.89677 0.90701 0.0
C863 C 0.87927 0.9019 0.03589 0.0
N864 N 0.8887 0.87332 0.80616 0.0
N865 N 0.9114 0.92545 0.14662 0.0
H866 H 0.83329 0.90397 0.05401 0.0
H867 H 0.85335 0.92989 0.12131 0.0
H868 H 0.93204 0.93197 0.17122 0.0
H869 H 0.89462 0.92625 0.19676 0.0
H870 H 0.90058 0.87687 0.74477 0.0
H871 H 0.86799 0.86346 0.79772 0.0
H872 H 0.94487 0.88497 0.77741 0.0
H873 H 0.96567 0.90977 0.84313 0.0
C874 C 0.69039 0.17842 0.84225 0.0
C875 C 0.69225 0.19306 0.92873 0.0
C876 C 0.63864 0.19401 0.93753 0.0
C877 C 0.63869 0.16898 0.87798 0.0
N878 N 0.66343 0.14157 0.75546 0.0
N879 N 0.66869 0.23188 1.01311 0.0
C880 C 0.664 0.16299 0.82211 0.0
C881 C 0.66624 0.20759 0.95802 0.0
N882 N 0.71336 0.17982 0.78078 0.0
N883 N 0.61294 0.20285 0.97912 0.0
H884 H 0.68953 0.24017 0.03033 0.0
H885 H 0.65069 0.2442 0.03652 0.0
H886 H 0.59271 0.19309 0.96264 0.0
H887 H 0.61172 0.21943 0.02919 0.0
H888 H 0.71251 0.17073 0.71395 0.0
H889 H 0.73179 0.19294 0.79476 0.0
H890 H 0.68239 0.1344 0.72049 0.0
H891 H 0.64407 0.13053 0.73753 0.0
C892 C 0.38528 0.70594 0.8713 0.0
C893 C 0.36219 0.71012 0.93703 0.0
C894 C 0.35044 0.65756 0.92905 0.0
C895 C 0.37867 0.65278 0.88844 0.0
N896 N 0.42178 0.67199 0.80918 0.0
N897 N 0.31747 0.69253 1.00662 0.0
C898 C 0.39533 0.67686 0.85317 0.0
C899 C 0.34238 0.68672 0.95575 0.0
N900 N 0.39807 0.72972 0.82908 0.0
N901 N 0.33234 0.63404 0.94537 0.0
H902 H 0.31178 0.71413 0.02472 0.0
H903 H 0.30283 0.67656 0.03078 0.0
H904 H 0.33829 0.61268 0.92562 0.0
H905 H 0.31104 0.63571 0.97256 0.0
H906 H 0.41372 0.72803 0.77575 0.0
H907 H 0.39045 0.75111 0.83962 0.0
H908 H 0.43673 0.68866 0.79267 0.0
H909 H 0.42949 0.65098 0.79253 0.0
C910 C 0.8472 0.38333 0.73484 0.0
C911 C 0.83806 0.36678 0.81384 0.0
C912 C 0.88894 0.35226 0.84402 0.0
C913 C 0.89807 0.37565 0.78558 0.0
N914 N 0.8889 0.40305 0.64569 0.0
N915 N 0.84889 0.32532 0.91322 0.0
C916 C 0.87806 0.38728 0.71938 0.0
C917 C 0.85839 0.34664 0.85361 0.0
N918 N 0.82652 0.39735 0.68167 0.0
N919 N 0.90907 0.33712 0.89605 0.0
H920 H 0.82644 0.32148 0.92582 0.0
H921 H 0.82644 0.32148 0.92582 0.0
H922 H 0.93174 0.34111 0.89033 0.0
H923 H 0.90285 0.32042 0.94244 0.0
H924 H 0.83151 0.41224 0.62857 0.0
H925 H 0.80399 0.3934 0.69062 0.0
H926 H 0.87592 0.41158 0.59213 0.0
H927 H 0.91167 0.40565 0.63589 0.0
C928 C 0.077 0.13442 0.95566 0.0
C929 C 0.05206 0.15033 0.9901 0.0
C930 C 1.01978 0.11084 0.92976 0.0
C931 C 0.04504 0.09364 0.90537 0.0
N932 N 0.09774 0.08677 0.91493 0.0
N933 N 0.99974 0.15065 0.02413 0.0
C934 C 0.07366 0.10473 0.92461 0.0
C935 C 0.02338 0.13782 0.9804 0.0
N936 N 0.10391 0.14802 0.95044 0.0
N937 N 0.99223 0.10142 0.90472 0.0
H938 H 1.0014 0.16995 0.06314 0.0
H939 H 0.97898 0.14082 0.02869 0.0
H940 H 0.98852 0.08138 0.87117 0.0
H941 H 0.97333 0.11444 0.91076 0.0
H942 H 0.12251 0.13833 0.92028 0.0
H943 H 0.10687 0.17019 0.96731 0.0
H944 H 0.11893 0.09269 0.93612 0.0
H945 H 0.09602 0.06482 0.8943 0.0
C946 C 0.40483 0.02821 1.00719 0.0
C947 C 0.38631 1.00376 0.98811 0.0
C948 C 0.4192 0.98909 0.85903 0.0
C949 C 0.43802 1.01357 0.87794 0.0
N950 N 0.44293 0.06135 0.94993 0.0
N951 N 0.37043 0.96733 0.87785 0.0
C952 C 0.42891 0.03475 0.94559 0.0
C953 C 0.39157 0.98671 0.90681 0.0
N954 N 0.40046 0.04425 0.08672 0.0
N955 N 0.42856 0.96663 0.80254 0.0
H956 H 0.35021 0.96518 0.91275 0.0
H957 H 0.37166 0.95595 0.81472 0.0
H958 H 0.44948 0.9656 0.77232 0.0
H959 H 0.41665 0.94725 0.79338 0.0
H960 H 0.41543 0.05995 0.11062 0.0
H961 H 0.38257 0.04069 0.1315 0.0
H962 H 0.43575 0.07859 0.99237 0.0
H963 H 0.45977 0.06729 0.90353 0.0
C964 C 0.55232 0.39444 0.96325 0.0
C965 C 0.5281 0.38082 1.01002 0.0
C966 C 0.49429 0.41517 0.92967 0.0
C967 C 0.51889 0.43161 0.89583 0.0
N968 N 0.57177 0.43901 0.89236 0.0
N969 N 0.47584 0.37965 0.04312 0.0
C970 C 0.54809 0.42161 0.91477 0.0
C971 C 0.49893 0.39127 0.99356 0.0
N972 N 0.57967 0.38162 0.96852 0.0
N973 N 0.46648 0.42228 0.9 0.0
H974 H 0.47832 0.36196 0.08905 0.0
H975 H 0.45464 0.38867 0.04307 0.0
H976 H 0.46242 0.43951 0.85327 0.0
H977 H 0.44789 0.40956 0.91477 0.0
H978 H 0.59857 0.39006 0.93685 0.0
H979 H 0.58302 0.36107 0.99974 0.0
H980 H 0.59331 0.4347 0.914 0.0
H981 H 0.56973 0.45937 0.8592 0.0
C982 C 0.1456 0.49606 0.96133 0.0
C983 C 0.16664 0.51833 0.93986 0.0
C984 C 0.13333 0.53725 0.8167 0.0
C985 C 0.11218 0.51488 0.83777 0.0
N986 N 0.10357 0.46735 0.90901 0.0
N987 N 0.18195 0.55716 0.83363 0.0
C988 C 0.11994 0.4926 0.9039 0.0
C989 C 0.16117 0.53744 0.86281 0.0
N990 N 0.1492 0.47908 0.03946 0.0
N991 N 0.12703 0.55932 0.75471 0.0
H992 H 0.2032 0.55858 0.86166 0.0
H993 H 0.2032 0.55858 0.86166 0.0
H994 H 0.10634 0.56278 0.72521 0.0
H995 H 0.1425 0.57532 0.73605 0.0
H996 H 0.13281 0.46513 0.06539 0.0
H997 H 0.16775 0.48048 0.08235 0.0
H998 H 0.10965 0.44921 0.94941 0.0
H999 H 0.08587 0.46309 0.86445 0.0
C1000 C 0.97958 0.88425 0.56624 0.0
C1001 C 1.00374 0.87203 0.51514 0.0
C1002 C 0.03493 0.9129 0.57126 0.0
C1003 C 1.00958 0.92711 0.6098 0.0
N1004 N 0.95661 0.9289 0.62488 0.0
N1005 N 0.05384 0.87737 0.45898 0.0
C1006 C 0.98155 0.91345 0.60224 0.0
C1007 C 0.03142 0.8869 0.51565 0.0
N1008 N 0.9546 0.86784 0.5797 0.0
N1009 N 0.06241 0.92423 0.58757 0.0
H1010 H 0.05216 0.8587 0.41703 0.0
H1011 H 0.07324 0.88925 0.44803 0.0
H1012 H 0.06578 0.94343 0.62608 0.0
H1013 H 0.08191 0.91337 0.56937 0.0
H1014 H 0.93653 0.87498 0.61878 0.0
H1015 H 0.9531 0.84587 0.55868 0.0
H1016 H 0.93529 0.92104 0.61366 0.0
H1017 H 0.95732 0.95096 0.64486 0.0
C1018 C 0.66526 0.03448 0.61009 0.0
C1019 C 0.67027 1.01631 0.53092 0.0
C1020 C 0.62514 0.98869 0.5705 0.0
C1021 C 0.617 1.01059 0.63701 0.0
N1022 N 0.62918 0.05684 0.71298 0.0
N1023 N 0.65329 0.97716 0.43072 0.0
C1024 C 0.63722 0.03393 0.65628 0.0
C1025 C 0.64993 0.99344 0.5103 0.0
N1026 N 0.68739 0.05249 0.64069 0.0
N1027 N 0.60964 0.9629 0.56647 0.0
H1028 H 0.67115 0.97969 0.38517 0.0
H1029 H 0.6372 0.96267 0.40646 0.0
H1030 H 0.59233 0.95803 0.6124 0.0
H1031 H 0.6161 0.9451 0.52521 0.0
H1032 H 0.68627 0.06422 0.70318 0.0
H1033 H 0.70812 0.05322 0.60836 0.0
H1034 H 0.64183 0.07584 0.72029 0.0
H1035 H 0.60876 0.05854 0.74608 0.0
C1036 C 0.50887 0.66218 0.64358 0.0
C1037 C 0.49691 0.66464 0.55226 0.0
C1038 C 0.49233 0.61077 0.54475 0.0
C1039 C 0.50634 0.60783 0.63309 0.0
N1040 N 0.53311 0.63102 0.75869 0.0
N1041 N 0.48431 0.64095 0.40725 0.0
C1042 C 0.51616 0.63367 0.68028 0.0
C1043 C 0.49124 0.63875 0.49995 0.0
N1044 N 0.51229 0.68695 0.69649 0.0
N1045 N 0.47767 0.5874 0.50697 0.0
H1046 H 0.48334 0.66113 0.3722 0.0
H1047 H 0.48257 0.62269 0.3635 0.0
H1048 H 0.4754 0.56743 0.542 0.0
H1049 H 0.46457 0.58903 0.44737 0.0
H1050 H 0.51754 0.68643 0.76733 0.0
H1051 H 0.50809 0.70805 0.67051 0.0
H1052 H 0.5433 0.64884 0.79109 0.0
H1053 H 0.53921 0.61066 0.78653 0.0
C1054 C 0.8863 0.49642 0.56156 0.0
C1055 C 0.87975 0.51577 0.48627 0.0
C1056 C 0.92472 0.54408 0.52469 0.0
C1057 C 0.93393 0.52152 0.58784 0.0
N1058 N 0.92179 0.47566 0.66746 0.0
N1059 N 0.89317 0.55813 0.39445 0.0
C1060 C 0.91406 0.4979 0.60772 0.0
C1061 C 0.89888 0.53994 0.46843 0.0
N1062 N 0.86697 0.47483 0.58699 0.0
N1063 N 0.94003 0.57 0.521 0.0
H1064 H 0.87386 0.55651 0.355 0.0
H1065 H 0.90812 0.57373 0.36951 0.0
H1066 H 0.95806 0.57437 0.56412 0.0
H1067 H 0.93301 0.58829 0.48294 0.0
H1068 H 0.84607 0.47224 0.55724 0.0
H1069 H 0.84607 0.47224 0.55724 0.0
H1070 H 0.90718 0.45887 0.68606 0.0
H1071 H 0.9429 0.47288 0.69474 0.0
loop_
_geom_bond_atom_site_label_1
_geom_bond_atom_site_label_2
_geom_bond_distance
_geom_bond_site_symmetry_2
_ccdc_geom_bond_type
C0 C1 1.391 . S
C0 C4 1.391 . S
C0 H42 0.948 . S
C1 C0 1.391 . S
C1 C2 1.391 . S
C2 C1 1.391 . S
C2 H58 0.947 . S
C2 C59 1.392 . S
C3 C4 1.391 . S
C3 C7 1.397 . S
C3 C59 1.419 . S
C4 C0 1.391 . S
C4 C3 1.391 . S
C4 C5 1.399 . S
C5 C4 1.399 . S
C5 C8 1.396 . S
C5 C17 1.453 . S
C5 C18 1.684 . S
H6 C30 0.948 . S
C7 C3 1.397 . S
C7 C8 1.394 . S
C7 C26 1.723 . S
C8 C5 1.396 . S
C8 C7 1.394 . S
C8 C38 1.723 . S
H9 C32 0.947 . S
H10 C33 0.948 . S
H11 C39 0.982 . S
H12 C40 0.979 . S
H13 C40 0.980 . S
H14 C40 0.983 . S
H15 C39 0.979 . S
H16 C39 0.977 . S
C17 C5 1.453 . S
C17 H46 0.982 . S
C17 H47 0.979 . S
C17 H48 0.977 . S
C18 C5 1.684 . S
C18 H43 0.979 . S
C18 H44 0.980 . S
C18 H45 0.983 . S
C19 C20 1.391 . S
C19 C24 1.391 . S
C19 H49 0.948 . S
C20 C19 1.391 . S
C20 C21 1.391 . S
C21 C20 1.391 . S
C21 C22 1.392 . S
C21 H50 0.947 . S
C22 C21 1.392 . S
C22 C23 1.419 . S
C22 H51 0.948 . S
C23 C22 1.419 . S
C23 C24 1.391 . S
C23 C27 1.397 . S
C24 C19 1.391 . S
C24 C23 1.391 . S
C24 C25 1.399 . S
C25 C24 1.399 . S
C25 C26 1.396 . S
C25 C28 1.453 . S
C25 C29 1.684 . S
C26 C7 1.723 . S
C26 C25 1.396 . S
C26 C27 1.394 . S
C27 C23 1.397 . S
C27 C26 1.394 . S
C27 C37 1.723 . S
C28 C25 1.453 . S
C28 H52 0.982 . S
C28 H53 0.979 . S
C28 H54 0.977 . S
C29 C25 1.684 . S
C29 H55 0.979 . S
C29 H56 0.980 . S
C29 H57 0.983 . S
C30 H6 0.948 . S
C30 C31 1.391 . S
C30 C35 1.391 . S
C31 C30 1.391 . S
C31 C32 1.391 . S
C32 H9 0.947 . S
C32 C31 1.391 . S
C32 C33 1.392 . S
C33 H10 0.948 . S
C33 C32 1.392 . S
C33 C34 1.419 . S
C34 C33 1.419 . S
C34 C35 1.391 . S
C34 C38 1.397 . S
C35 C30 1.391 . S
C35 C34 1.391 . S
C35 C36 1.399 . S
C36 C35 1.399 . S
C36 C37 1.396 . S
C36 C39 1.453 . S
C36 C40 1.684 . S
C37 C27 1.723 . S
C37 C36 1.396 . S
C37 C38 1.394 . S
C38 C8 1.723 . S
C38 C34 1.397 . S
C38 C37 1.394 . S
C39 H11 0.982 . S
C39 H15 0.979 . S
C39 H16 0.977 . S
C39 C36 1.453 . S
C40 H12 0.979 . S
C40 H13 0.980 . S
C40 H14 0.983 . S
C40 C36 1.684 . S
H41 C59 0.948 . S
H42 C0 0.948 . S
H43 C18 0.979 . S
H44 C18 0.980 . S
H45 C18 0.983 . S
H46 C17 0.982 . S
H47 C17 0.979 . S
H48 C17 0.977 . S
H49 C19 0.948 . S
H50 C21 0.947 . S
H51 C22 0.948 . S
H52 C28 0.982 . S
H53 C28 0.979 . S
H54 C28 0.977 . S
H55 C29 0.979 . S
H56 C29 0.980 . S
H57 C29 0.983 . S
H58 C2 0.947 . S
C59 C2 1.392 . S
C59 C3 1.419 . S
C59 H41 0.948 . S
C60 C61 1.391 . S
C60 C64 1.391 . S
C60 H102 0.948 . S
C61 C60 1.391 . S
C61 C62 1.391 . S
C62 C61 1.391 . S
C62 H118 0.947 . S
C62 C119 1.392 . S
C63 C64 1.391 . S
C63 C67 1.397 1_655 S
C63 C119 1.419 . S
C64 C60 1.391 . S
C64 C63 1.391 . S
C64 C65 1.399 . S
C65 C64 1.399 . S
C65 C68 1.396 1_655 S
C65 C77 1.453 1_655 S
C65 C78 1.684 . S
H66 C90 0.948 . S
C67 C63 1.397 1_455 S
C67 C68 1.394 . S
C67 C86 1.723 . S
C68 C65 1.396 1_455 S
C68 C67 1.394 . S
C68 C98 1.723 . S
H69 C92 0.947 . S
H70 C93 0.948 . S
H71 C99 0.982 . S
H72 C100 0.979 . S
H73 C100 0.980 . S
H74 C100 0.983 . S
H75 C99 0.979 . S
H76 C99 0.977 . S
C77 C65 1.453 1_455 S
C77 H106 0.982 . S
C77 H107 0.979 . S
C77 H108 0.977 . S
C78 C65 1.684 . S
C78 H103 0.979 . S
C78 H104 0.980 . S
C78 H105 0.983 . S
C79 C80 1.391 . S
C79 C84 1.391 . S
C79 H109 0.948 . S
C80 C79 1.391 . S
C80 C81 1.391 . S
C81 C80 1.391 . S
C81 C82 1.392 . S
C81 H110 0.947 . S
C82 C81 1.392 . S
C82 C83 1.419 . S
C82 H111 0.948 . S
C83 C82 1.419 . S
C83 C84 1.391 . S
C83 C87 1.397 1_655 S
C84 C79 1.391 . S
C84 C83 1.391 . S
C84 C85 1.399 . S
C85 C84 1.399 . S
C85 C86 1.396 1_655 S
C85 C88 1.453 1_655 S
C85 C89 1.684 . S
C86 C67 1.723 . S
C86 C85 1.396 1_455 S
C86 C87 1.394 . S
C87 C83 1.397 1_455 S
C87 C86 1.394 . S
C87 C97 1.723 . S
C88 C85 1.453 1_455 S
C88 H112 0.982 . S
C88 H113 0.979 . S
C88 H114 0.977 . S
C89 C85 1.684 . S
C89 H115 0.979 . S
C89 H116 0.980 . S
C89 H117 0.983 . S
C90 H66 0.948 . S
C90 C91 1.391 . S
C90 C95 1.391 . S
C91 C90 1.391 . S
C91 C92 1.391 . S
C92 H69 0.947 . S
C92 C91 1.391 . S
C92 C93 1.392 . S
C93 H70 0.948 . S
C93 C92 1.392 . S
C93 C94 1.419 . S
C94 C93 1.419 . S
C94 C95 1.391 . S
C94 C98 1.397 1_655 S
C95 C90 1.391 . S
C95 C94 1.391 . S
C95 C96 1.399 . S
C96 C95 1.399 . S
C96 C97 1.396 1_655 S
C96 C99 1.453 1_655 S
C96 C100 1.684 . S
C97 C87 1.723 . S
C97 C96 1.396 1_455 S
C97 C98 1.394 . S
C98 C68 1.723 . S
C98 C94 1.397 1_455 S
C98 C97 1.394 . S
C99 H71 0.982 . S
C99 H75 0.979 . S
C99 H76 0.977 . S
C99 C96 1.453 1_455 S
C100 H72 0.979 . S
C100 H73 0.980 . S
C100 H74 0.983 . S
C100 C96 1.684 . S
H101 C119 0.948 . S
H102 C60 0.948 . S
H103 C78 0.979 . S
H104 C78 0.980 . S
H105 C78 0.983 . S
H106 C77 0.982 . S
H107 C77 0.979 . S
H108 C77 0.977 . S
H109 C79 0.948 . S
H110 C81 0.947 . S
H111 C82 0.948 . S
H112 C88 0.982 . S
H113 C88 0.979 . S
H114 C88 0.977 . S
H115 C89 0.979 . S
H116 C89 0.980 . S
H117 C89 0.983 . S
H118 C62 0.947 . S
C119 C62 1.392 . S
C119 C63 1.419 . S
C119 H101 0.948 . S
C120 C121 1.391 . S
C120 C124 1.391 . S
C120 H162 0.948 . S
C121 C120 1.391 . S
C121 C122 1.391 . S
C122 C121 1.391 . S
C122 H178 0.947 . S
C122 C179 1.392 . S
C123 C124 1.391 . S
C123 C127 1.397 1_565 S
C123 C179 1.419 . S
C124 C120 1.391 . S
C124 C123 1.391 . S
C124 C125 1.399 . S
C125 C124 1.399 . S
C125 C128 1.396 1_565 S
C125 C137 1.453 1_565 S
C125 C138 1.684 . S
H126 C150 0.948 . S
C127 C123 1.397 1_545 S
C127 C128 1.394 . S
C127 C146 1.723 . S
C128 C125 1.396 1_545 S
C128 C127 1.394 . S
C128 C158 1.723 . S
H129 C152 0.947 . S
H130 C153 0.948 . S
H131 C159 0.982 . S
H132 C160 0.979 . S
H133 C160 0.980 . S
H134 C160 0.983 . S
H135 C159 0.979 . S
H136 C159 0.977 . S
C137 C125 1.453 1_545 S
C137 H166 0.982 . S
C137 H167 0.979 . S
C137 H168 0.977 . S
C138 C125 1.684 . S
C138 H163 0.979 . S
C138 H164 0.980 . S
C138 H165 0.983 . S
C139 C140 1.391 . S
C139 C144 1.391 . S
C139 H169 0.948 . S
C140 C139 1.391 . S
C140 C141 1.391 . S
C141 C140 1.391 . S
C141 C142 1.392 . S
C141 H170 0.947 . S
C142 C141 1.392 . S
C142 C143 1.419 . S
C142 H171 0.948 . S
C143 C142 1.419 . S
C143 C144 1.391 . S
C143 C147 1.397 1_565 S
C144 C139 1.391 . S
C144 C143 1.391 . S
C144 C145 1.399 . S
C145 C144 1.399 . S
C145 C146 1.396 1_565 S
C145 C148 1.453 1_565 S
C145 C149 1.684 . S
C146 C127 1.723 . S
C146 C145 1.396 1_545 S
C146 C147 1.394 . S
C147 C143 1.397 1_545 S
C147 C146 1.394 . S
C147 C157 1.723 . S
C148 C145 1.453 1_545 S
C148 H172 0.982 . S
C148 H173 0.979 . S
C148 H174 0.977 . S
C149 C145 1.684 . S
C149 H175 0.979 . S
C149 H176 0.980 . S
C149 H177 0.983 . S
C150 H126 0.948 . S
C150 C151 1.391 . S
C150 C155 1.391 . S
C151 C150 1.391 . S
C151 C152 1.391 . S
C152 H129 0.947 . S
C152 C151 1.391 . S
C152 C153 1.392 . S
C153 H130 0.948 . S
C153 C152 1.392 . S
C153 C154 1.419 . S
C154 C153 1.419 . S
C154 C155 1.391 . S
C154 C158 1.397 1_565 S
C155 C150 1.391 . S
C155 C154 1.391 . S
C155 C156 1.399 . S
C156 C155 1.399 . S
C156 C157 1.396 1_565 S
C156 C159 1.453 1_565 S
C156 C160 1.684 . S
C157 C147 1.723 . S
C157 C156 1.396 1_545 S
C157 C158 1.394 . S
C158 C128 1.723 . S
C158 C154 1.397 1_545 S
C158 C157 1.394 . S
C159 H131 0.982 . S
C159 H135 0.979 . S
C159 H136 0.977 . S
C159 C156 1.453 1_545 S
C160 H132 0.979 . S
C160 H133 0.980 . S
C160 H134 0.983 . S
C160 C156 1.684 . S
H161 C179 0.948 . S
H162 C120 0.948 . S
H163 C138 0.979 . S
H164 C138 0.980 . S
H165 C138 0.983 . S
H166 C137 0.982 . S
H167 C137 0.979 . S
H168 C137 0.977 . S
H169 C139 0.948 . S
H170 C141 0.947 . S
H171 C142 0.948 . S
H172 C148 0.982 . S
H173 C148 0.979 . S
H174 C148 0.977 . S
H175 C149 0.979 . S
H176 C149 0.980 . S
H177 C149 0.983 . S
H178 C122 0.947 . S
C179 C122 1.392 . S
C179 C123 1.419 . S
C179 H161 0.948 . S
C180 C181 1.391 . S
C180 C184 1.391 . S
C180 H222 0.948 . S
C181 C180 1.391 . S
C181 C182 1.391 . S
C182 C181 1.391 . S
C182 H238 0.947 . S
C182 C239 1.392 . S
C183 C184 1.391 . S
C183 C187 1.397 . S
C183 C239 1.419 . S
C184 C180 1.391 . S
C184 C183 1.391 . S
C184 C185 1.399 . S
C185 C184 1.399 . S
C185 C188 1.396 . S
C185 C197 1.453 . S
C185 C198 1.684 . S
H186 C210 0.948 . S
C187 C183 1.397 . S
C187 C188 1.394 . S
C187 C206 1.723 . S
C188 C185 1.396 . S
C188 C187 1.394 . S
C188 C218 1.723 . S
H189 C212 0.947 . S
H190 C213 0.948 . S
H191 C219 0.982 . S
H192 C220 0.979 . S
H193 C220 0.980 . S
H194 C220 0.983 . S
H195 C219 0.979 . S
H196 C219 0.977 . S
C197 C185 1.453 . S
C197 H226 0.982 . S
C197 H227 0.979 . S
C197 H228 0.977 . S
C198 C185 1.684 . S
C198 H223 0.979 . S
C198 H224 0.980 . S
C198 H225 0.983 . S
C199 C200 1.391 . S
C199 C204 1.391 . S
C199 H229 0.948 . S
C200 C199 1.391 . S
C200 C201 1.391 . S
C201 C200 1.391 . S
C201 C202 1.392 . S
C201 H230 0.947 . S
C202 C201 1.392 . S
C202 C203 1.419 . S
C202 H231 0.948 . S
C203 C202 1.419 . S
C203 C204 1.391 . S
C203 C207 1.397 . S
C204 C199 1.391 . S
C204 C203 1.391 . S
C204 C205 1.399 . S
C205 C204 1.399 . S
C205 C206 1.396 . S
C205 C208 1.453 . S
C205 C209 1.684 . S
C206 C187 1.723 . S
C206 C205 1.396 . S
C206 C207 1.394 . S
C207 C203 1.397 . S
C207 C206 1.394 . S
C207 C217 1.723 . S
C208 C205 1.453 . S
C208 H232 0.982 . S
C208 H233 0.979 . S
C208 H234 0.977 . S
C209 C205 1.684 . S
C209 H235 0.979 . S
C209 H236 0.980 . S
C209 H237 0.983 . S
C210 H186 0.948 . S
C210 C211 1.391 . S
C210 C215 1.391 . S
C211 C210 1.391 . S
C211 C212 1.391 . S
C212 H189 0.947 . S
C212 C211 1.391 . S
C212 C213 1.392 . S
C213 H190 0.948 . S
C213 C212 1.392 . S
C213 C214 1.419 . S
C214 C213 1.419 . S
C214 C215 1.391 . S
C214 C218 1.397 . S
C215 C210 1.391 . S
C215 C214 1.391 . S
C215 C216 1.399 . S
C216 C215 1.399 . S
C216 C217 1.396 . S
C216 C219 1.453 . S
C216 C220 1.684 . S
C217 C207 1.723 . S
C217 C216 1.396 . S
C217 C218 1.394 . S
C218 C188 1.723 . S
C218 C214 1.397 . S
C218 C217 1.394 . S
C219 H191 0.982 . S
C219 H195 0.979 . S
C219 H196 0.977 . S
C219 C216 1.453 . S
C220 H192 0.979 . S
C220 H193 0.980 . S
C220 H194 0.983 . S
C220 C216 1.684 . S
H221 C239 0.948 . S
H222 C180 0.948 . S
H223 C198 0.979 . S
H224 C198 0.980 . S
H225 C198 0.983 . S
H226 C197 0.982 . S
H227 C197 0.979 . S
H228 C197 0.977 . S
H229 C199 0.948 . S
H230 C201 0.947 . S
H231 C202 0.948 . S
H232 C208 0.982 . S
H233 C208 0.979 . S
H234 C208 0.977 . S
H235 C209 0.979 . S
H236 C209 0.980 . S
H237 C209 0.983 . S
H238 C182 0.947 . S
C239 C182 1.392 . S
C239 C183 1.419 . S
C239 H221 0.948 . S
C240 C241 1.391 . S
C240 C244 1.391 . S
C240 H282 0.948 . S
C241 C240 1.391 . S
C241 C242 1.391 . S
C242 C241 1.391 . S
C242 H298 0.947 . S
C242 C299 1.392 . S
C243 C244 1.391 . S
C243 C247 1.397 . S
C243 C299 1.419 . S
C244 C240 1.391 . S
C244 C243 1.391 . S
C244 C245 1.399 1_554 S
C245 C244 1.399 1_556 S
C245 C248 1.396 . S
C245 C257 1.453 . S
C245 C258 1.684 . S
H246 C270 0.948 . S
C247 C243 1.397 . S
C247 C248 1.394 1_554 S
C247 C266 1.723 . S
C248 C245 1.396 . S
C248 C247 1.394 1_556 S
C248 C278 1.723 . S
H249 C272 0.947 . S
H250 C273 0.948 . S
H251 C279 0.982 . S
H252 C280 0.979 . S
H253 C280 0.980 1_554 S
H254 C280 0.983 . S
H255 C279 0.979 . S
H256 C279 0.977 1_554 S
C257 C245 1.453 . S
C257 H286 0.982 . S
C257 H287 0.979 . S
C257 H288 0.977 . S
C258 C245 1.684 . S
C258 H283 0.979 . S
C258 H284 0.980 . S
C258 H285 0.983 . S
C259 C260 1.391 . S
C259 C264 1.391 . S
C259 H289 0.948 . S
C260 C259 1.391 . S
C260 C261 1.391 . S
C261 C260 1.391 . S
C261 C262 1.392 . S
C261 H290 0.947 . S
C262 C261 1.392 . S
C262 C263 1.419 . S
C262 H291 0.948 . S
C263 C262 1.419 . S
C263 C264 1.391 . S
C263 C267 1.397 . S
C264 C259 1.391 . S
C264 C263 1.391 . S
C264 C265 1.399 . S
C265 C264 1.399 . S
C265 C266 1.396 . S
C265 C268 1.453 . S
C265 C269 1.684 . S
C266 C247 1.723 . S
C266 C265 1.396 . S
C266 C267 1.394 . S
C267 C263 1.397 . S
C267 C266 1.394 . S
C267 C277 1.723 1_554 S
C268 C265 1.453 . S
C268 H292 0.982 . S
C268 H293 0.979 . S
C268 H294 0.977 . S
C269 C265 1.684 . S
C269 H295 0.979 . S
C269 H296 0.980 . S
C269 H297 0.983 . S
C270 H246 0.948 . S
C270 C271 1.391 . S
C270 C275 1.391 . S
C271 C270 1.391 . S
C271 C272 1.391 . S
C272 H249 0.947 . S
C272 C271 1.391 . S
C272 C273 1.392 . S
C273 H250 0.948 . S
C273 C272 1.392 . S
C273 C274 1.419 . S
C274 C273 1.419 . S
C274 C275 1.391 . S
C274 C278 1.397 . S
C275 C270 1.391 . S
C275 C274 1.391 . S
C275 C276 1.399 . S
C276 C275 1.399 . S
C276 C277 1.396 . S
C276 C279 1.453 . S
C276 C280 1.684 . S
C277 C267 1.723 1_556 S
C277 C276 1.396 . S
C277 C278 1.394 . S
C278 C248 1.723 . S
C278 C274 1.397 . S
C278 C277 1.394 . S
C279 H251 0.982 . S
C279 H255 0.979 . S
C279 H256 0.977 1_556 S
C279 C276 1.453 . S
C280 H252 0.979 . S
C280 H253 0.980 1_556 S
C280 H254 0.983 . S
C280 C276 1.684 . S
H281 C299 0.948 . S
H282 C240 0.948 . S
H283 C258 0.979 . S
H284 C258 0.980 . S
H285 C258 0.983 . S
H286 C257 0.982 . S
H287 C257 0.979 . S
H288 C257 0.977 . S
H289 C259 0.948 . S
H290 C261 0.947 . S
H291 C262 0.948 . S
H292 C268 0.982 . S
H293 C268 0.979 . S
H294 C268 0.977 . S
H295 C269 0.979 . S
H296 C269 0.980 . S
H297 C269 0.983 . S
H298 C242 0.947 . S
C299 C242 1.392 . S
C299 C243 1.419 . S
C299 H281 0.948 . S
C300 C301 1.391 . S
C300 C304 1.391 . S
C300 H342 0.948 . S
C301 C300 1.391 . S
C301 C302 1.391 . S
C302 C301 1.391 . S
C302 H358 0.947 . S
C302 C359 1.392 . S
C303 C304 1.391 . S
C303 C307 1.396 1_655 S
C303 C359 1.419 . S
C304 C300 1.391 . S
C304 C303 1.391 . S
C304 C305 1.399 . S
C305 C304 1.399 . S
C305 C308 1.396 1_655 S
C305 C317 1.453 1_655 S
C305 C318 1.684 . S
H306 C330 0.948 . S
C307 C303 1.396 1_455 S
C307 C308 1.395 . S
C307 C326 1.723 1_554 S
C308 C305 1.396 1_455 S
C308 C307 1.395 . S
C308 C338 1.723 . S
H309 C332 0.947 . S
H310 C333 0.948 . S
H311 C339 0.982 . S
H312 C340 0.979 . S
H313 C340 0.980 . S
H314 C340 0.983 . S
H315 C339 0.979 . S
H316 C339 0.977 . S
C317 C305 1.453 1_455 S
C317 H346 0.982 . S
C317 H347 0.979 . S
C317 H348 0.977 . S
C318 C305 1.684 . S
C318 H343 0.979 . S
C318 H344 0.980 . S
C318 H345 0.983 . S
C319 C320 1.391 . S
C319 C324 1.391 . S
C319 H349 0.948 . S
C320 C319 1.391 . S
C320 C321 1.391 . S
C321 C320 1.391 . S
C321 C322 1.392 . S
C321 H350 0.947 . S
C322 C321 1.392 . S
C322 C323 1.419 . S
C322 H351 0.948 . S
C323 C322 1.419 . S
C323 C324 1.391 . S
C323 C327 1.396 1_655 S
C324 C319 1.391 . S
C324 C323 1.391 . S
C324 C325 1.399 . S
C325 C324 1.399 . S
C325 C326 1.396 1_655 S
C325 C328 1.453 1_655 S
C325 C329 1.684 . S
C326 C307 1.723 1_556 S
C326 C325 1.396 1_455 S
C326 C327 1.395 . S
C327 C323 1.396 1_455 S
C327 C326 1.395 . S
C327 C337 1.723 . S
C328 C325 1.453 1_455 S
C328 H352 0.982 . S
C328 H353 0.979 . S
C328 H354 0.977 1_556 S
C329 C325 1.684 . S
C329 H355 0.979 . S
C329 H356 0.980 1_556 S
C329 H357 0.983 . S
C330 H306 0.948 . S
C330 C331 1.391 . S
C330 C335 1.391 . S
C331 C330 1.391 . S
C331 C332 1.391 . S
C332 H309 0.947 . S
C332 C331 1.391 . S
C332 C333 1.392 . S
C333 H310 0.948 . S
C333 C332 1.392 . S
C333 C334 1.419 . S
C334 C333 1.419 . S
C334 C335 1.391 . S
C334 C338 1.396 1_655 S
C335 C330 1.391 . S
C335 C334 1.391 . S
C335 C336 1.399 1_554 S
C336 C335 1.399 1_556 S
C336 C337 1.396 1_655 S
C336 C339 1.453 1_655 S
C336 C340 1.684 . S
C337 C327 1.723 . S
C337 C336 1.396 1_455 S
C337 C338 1.395 1_556 S
C338 C308 1.723 . S
C338 C334 1.396 1_455 S
C338 C337 1.395 1_554 S
C339 H311 0.982 . S
C339 H315 0.979 . S
C339 H316 0.977 . S
C339 C336 1.453 1_455 S
C340 H312 0.979 . S
C340 H313 0.980 . S
C340 H314 0.983 . S
C340 C336 1.684 . S
H341 C359 0.948 . S
H342 C300 0.948 . S
H343 C318 0.979 . S
H344 C318 0.980 . S
H345 C318 0.983 . S
H346 C317 0.982 . S
H347 C317 0.979 . S
H348 C317 0.977 . S
H349 C319 0.948 . S
H350 C321 0.947 . S
H351 C322 0.948 . S
H352 C328 0.982 . S
H353 C328 0.979 . S
H354 C328 0.977 1_554 S
H355 C329 0.979 . S
H356 C329 0.980 1_554 S
H357 C329 0.983 . S
H358 C302 0.947 . S
C359 C302 1.392 . S
C359 C303 1.419 . S
C359 H341 0.948 . S
C360 C361 1.391 . S
C360 C364 1.391 . S
C360 H402 0.948 . S
C361 C360 1.391 . S
C361 C362 1.391 . S
C362 C361 1.391 . S
C362 H418 0.947 . S
C362 C419 1.392 . S
C363 C364 1.391 . S
C363 C367 1.397 1_545 S
C363 C419 1.419 . S
C364 C360 1.391 . S
C364 C363 1.391 . S
C364 C365 1.399 . S
C365 C364 1.399 . S
C365 C368 1.396 1_545 S
C365 C377 1.453 1_545 S
C365 C378 1.684 . S
H366 C390 0.948 . S
C367 C363 1.397 1_565 S
C367 C368 1.394 . S
C367 C386 1.723 1_556 S
C368 C365 1.396 1_565 S
C368 C367 1.394 . S
C368 C398 1.723 1_556 S
H369 C392 0.947 1_556 S
H370 C393 0.948 . S
H371 C399 0.982 . S
H372 C400 0.979 . S
H373 C400 0.980 . S
H374 C400 0.983 . S
H375 C399 0.979 . S
H376 C399 0.977 . S
C377 C365 1.453 1_565 S
C377 H406 0.982 . S
C377 H407 0.979 . S
C377 H408 0.977 . S
C378 C365 1.684 . S
C378 H403 0.979 . S
C378 H404 0.980 . S
C378 H405 0.983 . S
C379 C380 1.391 . S
C379 C384 1.391 . S
C379 H409 0.948 . S
C380 C379 1.391 . S
C380 C381 1.391 . S
C381 C380 1.391 . S
C381 C382 1.392 . S
C381 H410 0.947 . S
C382 C381 1.392 . S
C382 C383 1.419 . S
C382 H411 0.948 . S
C383 C382 1.419 . S
C383 C384 1.391 . S
C383 C387 1.397 1_545 S
C384 C379 1.391 . S
C384 C383 1.391 . S
C384 C385 1.399 . S
C385 C384 1.399 . S
C385 C386 1.396 1_545 S
C385 C388 1.453 1_545 S
C385 C389 1.684 . S
C386 C367 1.723 1_554 S
C386 C385 1.396 1_565 S
C386 C387 1.394 . S
C387 C383 1.397 1_565 S
C387 C386 1.394 . S
C387 C397 1.723 . S
C388 C385 1.453 1_565 S
C388 H412 0.982 . S
C388 H413 0.979 . S
C388 H414 0.977 1_554 S
C389 C385 1.684 . S
C389 H415 0.979 . S
C389 H416 0.980 1_554 S
C389 H417 0.983 . S
C390 H366 0.948 . S
C390 C391 1.391 . S
C390 C395 1.391 . S
C391 C390 1.391 . S
C391 C392 1.391 . S
C392 H369 0.947 1_554 S
C392 C391 1.391 . S
C392 C393 1.392 1_554 S
C393 H370 0.948 . S
C393 C392 1.392 1_556 S
C393 C394 1.419 1_556 S
C394 C393 1.419 1_554 S
C394 C395 1.391 . S
C394 C398 1.397 1_545 S
C395 C390 1.391 . S
C395 C394 1.391 . S
C395 C396 1.399 . S
C396 C395 1.399 . S
C396 C397 1.396 1_545 S
C396 C399 1.453 1_545 S
C396 C400 1.684 . S
C397 C387 1.723 . S
C397 C396 1.396 1_565 S
C397 C398 1.394 . S
C398 C368 1.723 1_554 S
C398 C394 1.397 1_565 S
C398 C397 1.394 . S
C399 H371 0.982 . S
C399 H375 0.979 . S
C399 H376 0.977 . S
C399 C396 1.453 1_565 S
C400 H372 0.979 . S
C400 H373 0.980 . S
C400 H374 0.983 . S
C400 C396 1.684 . S
H401 C419 0.948 . S
H402 C360 0.948 . S
H403 C378 0.979 . S
H404 C378 0.980 . S
H405 C378 0.983 . S
H406 C377 0.982 . S
H407 C377 0.979 . S
H408 C377 0.977 . S
H409 C379 0.948 . S
H410 C381 0.947 . S
H411 C382 0.948 . S
H412 C388 0.982 . S
H413 C388 0.979 . S
H414 C388 0.977 1_556 S
H415 C389 0.979 . S
H416 C389 0.980 1_556 S
H417 C389 0.983 . S
H418 C362 0.947 . S
C419 C362 1.392 . S
C419 C363 1.419 . S
C419 H401 0.948 . S
C420 C421 1.391 . S
C420 C424 1.391 . S
C420 H462 0.948 . S
C421 C420 1.391 . S
C421 C422 1.391 . S
C422 C421 1.391 . S
C422 H478 0.947 . S
C422 C479 1.392 . S
C423 C424 1.391 . S
C423 C427 1.397 . S
C423 C479 1.419 . S
C424 C420 1.391 . S
C424 C423 1.391 . S
C424 C425 1.399 . S
C425 C424 1.399 . S
C425 C428 1.396 . S
C425 C437 1.453 . S
C425 C438 1.684 . S
H426 C450 0.948 . S
C427 C423 1.397 . S
C427 C428 1.394 . S
C427 C446 1.723 1_556 S
C428 C425 1.396 . S
C428 C427 1.394 . S
C428 C458 1.723 1_556 S
H429 C452 0.947 1_556 S
H430 C453 0.948 . S
H431 C459 0.982 . S
H432 C460 0.979 . S
H433 C460 0.980 . S
H434 C460 0.983 . S
H435 C459 0.979 . S
H436 C459 0.977 . S
C437 C425 1.453 . S
C437 H466 0.982 . S
C437 H467 0.979 . S
C437 H468 0.977 . S
C438 C425 1.684 . S
C438 H463 0.979 . S
C438 H464 0.980 . S
C438 H465 0.983 . S
C439 C440 1.391 . S
C439 C444 1.391 . S
C439 H469 0.948 . S
C440 C439 1.391 . S
C440 C441 1.391 . S
C441 C440 1.391 . S
C441 C442 1.392 . S
C441 H470 0.947 . S
C442 C441 1.392 . S
C442 C443 1.419 . S
C442 H471 0.948 . S
C443 C442 1.419 . S
C443 C444 1.391 . S
C443 C447 1.397 . S
C444 C439 1.391 . S
C444 C443 1.391 . S
C444 C445 1.399 . S
C445 C444 1.399 . S
C445 C446 1.396 . S
C445 C448 1.453 . S
C445 C449 1.684 . S
C446 C427 1.723 1_554 S
C446 C445 1.396 . S
C446 C447 1.394 . S
C447 C443 1.397 . S
C447 C446 1.394 . S
C447 C457 1.723 . S
C448 C445 1.453 . S
C448 H472 0.982 . S
C448 H473 0.979 . S
C448 H474 0.977 1_554 S
C449 C445 1.684 . S
C449 H475 0.979 . S
C449 H476 0.980 1_554 S
C449 H477 0.983 . S
C450 H426 0.948 . S
C450 C451 1.391 . S
C450 C455 1.391 . S
C451 C450 1.391 . S
C451 C452 1.391 . S
C452 H429 0.947 1_554 S
C452 C451 1.391 . S
C452 C453 1.392 1_554 S
C453 H430 0.948 . S
C453 C452 1.392 1_556 S
C453 C454 1.419 1_556 S
C454 C453 1.419 1_554 S
C454 C455 1.391 . S
C454 C458 1.397 . S
C455 C450 1.391 . S
C455 C454 1.391 . S
C455 C456 1.399 . S
C456 C455 1.399 . S
C456 C457 1.396 . S
C456 C459 1.453 . S
C456 C460 1.684 . S
C457 C447 1.723 . S
C457 C456 1.396 . S
C457 C458 1.394 . S
C458 C428 1.723 1_554 S
C458 C454 1.397 . S
C458 C457 1.394 . S
C459 H431 0.982 . S
C459 H435 0.979 . S
C459 H436 0.977 . S
C459 C456 1.453 . S
C460 H432 0.979 . S
C460 H433 0.980 . S
C460 H434 0.983 . S
C460 C456 1.684 . S
H461 C479 0.948 . S
H462 C420 0.948 . S
H463 C438 0.979 . S
H464 C438 0.980 . S
H465 C438 0.983 . S
H466 C437 0.982 . S
H467 C437 0.979 . S
H468 C437 0.977 . S
H469 C439 0.948 . S
H470 C441 0.947 . S
H471 C442 0.948 . S
H472 C448 0.982 . S
H473 C448 0.979 . S
H474 C448 0.977 1_556 S
H475 C449 0.979 . S
H476 C449 0.980 1_556 S
H477 C449 0.983 . S
H478 C422 0.947 . S
C479 C422 1.392 . S
C479 C423 1.419 . S
C479 H461 0.948 . S
Sm480 C482 2.846 . S
Sm480 O500 2.543 . S
Sm480 O501 2.450 . S
Sm480 O502 2.681 1_565 S
Sm480 O503 2.464 . S
Sm480 O504 2.396 . S
Sm480 O508 2.386 1_455 S
Sm480 O511 2.408 1_565 S
Sm481 C491 2.846 . S
Sm481 O502 2.386 1_655 S
Sm481 O505 2.408 1_545 S
Sm481 O506 2.543 . S
Sm481 O507 2.450 . S
Sm481 O508 2.681 1_545 S
Sm481 O509 2.464 . S
Sm481 O510 2.396 . S
C482 Sm480 2.846 . S
C482 C483 1.506 . S
C482 O500 1.261 . S
C482 O501 1.242 . S
C483 C482 1.506 . S
C483 C484 1.358 1_556 S
C483 C488 1.382 . S
C484 C483 1.358 1_554 S
C484 C485 1.385 . S
C484 H512 0.929 1_454 S
C485 C484 1.385 . S
C485 C486 1.395 . S
C485 H513 0.929 . S
C486 C485 1.395 . S
C486 C487 1.335 . S
C487 C486 1.335 . S
C487 C488 1.398 1_554 S
C487 H514 0.930 . S
C488 C483 1.382 . S
C488 C487 1.398 1_556 S
C488 H515 0.929 . S
C489 O502 1.271 1_565 S
C489 O503 1.251 . S
C490 O504 1.252 1_655 S
C490 O505 1.272 . S
C491 Sm481 2.846 . S
C491 C492 1.506 . S
C491 O506 1.261 . S
C491 O507 1.242 . S
C492 C491 1.506 . S
C492 C493 1.358 . S
C492 C497 1.382 . S
C493 C492 1.358 . S
C493 C494 1.385 . S
C493 H516 0.930 1_655 S
C494 C493 1.385 . S
C494 C495 1.395 . S
C494 H517 0.929 . S
C495 C494 1.395 . S
C495 C496 1.335 . S
C496 C495 1.335 . S
C496 C497 1.398 . S
C496 H518 0.930 . S
C497 C492 1.382 . S
C497 C496 1.398 . S
C497 H519 0.929 . S
C498 O508 1.271 1_545 S
C498 O509 1.251 . S
C499 O510 1.252 1_455 S
C499 O511 1.272 . S
O500 Sm480 2.543 . S
O500 C482 1.261 . S
O501 Sm480 2.450 . S
O501 C482 1.242 . S
O502 Sm480 2.681 1_545 S
O502 Sm481 2.386 1_455 S
O502 C489 1.271 1_545 S
O503 Sm480 2.464 . S
O503 C489 1.251 . S
O504 Sm480 2.396 . S
O504 C490 1.252 1_455 S
O505 Sm481 2.408 1_565 S
O505 C490 1.272 . S
O506 Sm481 2.543 . S
O506 C491 1.261 . S
O507 Sm481 2.450 . S
O507 C491 1.242 . S
O508 Sm480 2.386 1_655 S
O508 Sm481 2.681 1_565 S
O508 C498 1.271 1_565 S
O509 Sm481 2.464 . S
O509 C498 1.251 . S
O510 Sm481 2.396 . S
O510 C499 1.252 1_655 S
O511 Sm480 2.408 1_545 S
O511 C499 1.272 . S
H512 C484 0.929 1_656 S
H513 C485 0.929 . S
H514 C487 0.930 . S
H515 C488 0.929 . S
H516 C493 0.930 1_455 S
H517 C494 0.929 . S
H518 C496 0.930 . S
H519 C497 0.929 . S
Sm520 C522 2.846 . S
Sm520 O540 2.543 . S
Sm520 O541 2.450 . S
Sm520 O542 2.681 . S
Sm520 O543 2.464 . S
Sm520 O544 2.396 . S
Sm520 O548 2.386 1_545 S
Sm520 O551 2.408 . S
Sm521 C531 2.846 . S
Sm521 O542 2.386 1_565 S
Sm521 O545 2.408 . S
Sm521 O546 2.543 . S
Sm521 O547 2.450 . S
Sm521 O548 2.681 . S
Sm521 O549 2.464 . S
Sm521 O550 2.396 . S
C522 Sm520 2.846 . S
C522 C523 1.506 . S
C522 O540 1.261 . S
C522 O541 1.242 . S
C523 C522 1.506 . S
C523 C524 1.358 1_556 S
C523 C528 1.382 . S
C524 C523 1.358 1_554 S
C524 C525 1.385 . S
C524 H552 0.930 1_545 S
C525 C524 1.385 . S
C525 C526 1.395 . S
C525 H553 0.929 . S
C526 C525 1.395 . S
C526 C527 1.335 . S
C527 C526 1.335 . S
C527 C528 1.398 1_554 S
C527 H554 0.930 . S
C528 C523 1.382 . S
C528 C527 1.398 1_556 S
C528 H555 0.929 . S
C529 O542 1.271 . S
C529 O543 1.251 . S
C530 O544 1.252 1_565 S
C530 O545 1.272 . S
C531 Sm521 2.846 . S
C531 C532 1.506 . S
C531 O546 1.261 . S
C531 O547 1.242 . S
C532 C531 1.506 . S
C532 C533 1.358 . S
C532 C537 1.382 . S
C533 C532 1.358 . S
C533 C534 1.385 . S
C533 H556 0.930 1_565 S
C534 C533 1.385 . S
C534 C535 1.395 . S
C534 H557 0.929 . S
C535 C534 1.395 . S
C535 C536 1.335 . S
C536 C535 1.335 . S
C536 C537 1.398 . S
C536 H558 0.930 . S
C537 C532 1.382 . S
C537 C536 1.398 . S
C537 H559 0.929 . S
C538 O548 1.271 . S
C538 O549 1.251 . S
C539 O550 1.252 1_545 S
C539 O551 1.272 . S
O540 Sm520 2.543 . S
O540 C522 1.261 . S
O541 Sm520 2.450 . S
O541 C522 1.242 . S
O542 Sm520 2.681 . S
O542 Sm521 2.386 1_545 S
O542 C529 1.271 . S
O543 Sm520 2.464 . S
O543 C529 1.251 . S
O544 Sm520 2.396 . S
O544 C530 1.252 1_545 S
O545 Sm521 2.408 . S
O545 C530 1.272 . S
O546 Sm521 2.543 . S
O546 C531 1.261 . S
O547 Sm521 2.450 . S
O547 C531 1.242 . S
O548 Sm520 2.386 1_565 S
O548 Sm521 2.681 . S
O548 C538 1.271 . S
O549 Sm521 2.464 . S
O549 C538 1.251 . S
O550 Sm521 2.396 . S
O550 C539 1.252 1_565 S
O551 Sm520 2.408 . S
O551 C539 1.272 . S
H552 C524 0.930 1_565 S
H553 C525 0.929 . S
H554 C527 0.930 . S
H555 C528 0.929 . S
H556 C533 0.930 1_545 S
H557 C534 0.929 . S
H558 C536 0.930 . S
H559 C537 0.929 . S
Sm560 C562 2.846 . S
Sm560 O580 2.543 . S
Sm560 O581 2.450 . S
Sm560 O582 2.681 . S
Sm560 O583 2.464 . S
Sm560 O584 2.396 . S
Sm560 O588 2.386 . S
Sm560 O591 2.408 . S
Sm561 C571 2.846 . S
Sm561 O582 2.386 . S
Sm561 O585 2.408 . S
Sm561 O586 2.543 . S
Sm561 O587 2.450 . S
Sm561 O588 2.681 . S
Sm561 O589 2.464 . S
Sm561 O590 2.396 . S
C562 Sm560 2.846 . S
C562 C563 1.506 . S
C562 O580 1.261 . S
C562 O581 1.242 . S
C563 C562 1.506 . S
C563 C564 1.358 1_556 S
C563 C568 1.382 . S
C564 C563 1.358 1_554 S
C564 C565 1.385 . S
C564 H592 0.930 . S
C565 C564 1.385 . S
C565 C566 1.395 . S
C565 H593 0.929 . S
C566 C565 1.395 . S
C566 C567 1.335 . S
C567 C566 1.335 . S
C567 C568 1.398 1_554 S
C567 H594 0.930 . S
C568 C563 1.382 . S
C568 C567 1.398 1_556 S
C568 H595 0.929 . S
C569 O582 1.271 . S
C569 O583 1.251 . S
C570 O584 1.252 . S
C570 O585 1.272 . S
C571 Sm561 2.846 . S
C571 C572 1.506 . S
C571 O586 1.261 . S
C571 O587 1.242 . S
C572 C571 1.506 . S
C572 C573 1.358 . S
C572 C577 1.382 . S
C573 C572 1.358 . S
C573 C574 1.385 . S
C573 H596 0.930 . S
C574 C573 1.385 . S
C574 C575 1.395 . S
C574 H597 0.929 . S
C575 C574 1.395 . S
C575 C576 1.335 . S
C576 C575 1.335 . S
C576 C577 1.398 . S
C576 H598 0.930 . S
C577 C572 1.382 . S
C577 C576 1.398 . S
C577 H599 0.929 . S
C578 O588 1.271 . S
C578 O589 1.251 . S
C579 O590 1.252 . S
C579 O591 1.272 . S
O580 Sm560 2.543 . S
O580 C562 1.261 . S
O581 Sm560 2.450 . S
O581 C562 1.242 . S
O582 Sm560 2.681 . S
O582 Sm561 2.386 . S
O582 C569 1.271 . S
O583 Sm560 2.464 . S
O583 C569 1.251 . S
O584 Sm560 2.396 . S
O584 C570 1.252 . S
O585 Sm561 2.408 . S
O585 C570 1.272 . S
O586 Sm561 2.543 . S
O586 C571 1.261 . S
O587 Sm561 2.450 . S
O587 C571 1.242 . S
O588 Sm560 2.386 . S
O588 Sm561 2.681 . S
O588 C578 1.271 . S
O589 Sm561 2.464 . S
O589 C578 1.251 . S
O590 Sm561 2.396 . S
O590 C579 1.252 . S
O591 Sm560 2.408 . S
O591 C579 1.272 . S
H592 C564 0.930 . S
H593 C565 0.929 . S
H594 C567 0.930 . S
H595 C568 0.929 . S
H596 C573 0.930 . S
H597 C574 0.929 . S
H598 C576 0.930 . S
H599 C577 0.929 . S
Sm600 C602 2.846 . S
Sm600 O620 2.543 . S
Sm600 O621 2.450 . S
Sm600 O622 2.681 1_655 S
Sm600 O623 2.464 . S
Sm600 O624 2.396 . S
Sm600 O628 2.386 . S
Sm600 O631 2.408 1_655 S
Sm601 C611 2.846 . S
Sm601 O622 2.386 . S
Sm601 O625 2.408 1_455 S
Sm601 O626 2.543 . S
Sm601 O627 2.450 . S
Sm601 O628 2.681 1_455 S
Sm601 O629 2.464 . S
Sm601 O630 2.396 . S
C602 Sm600 2.846 . S
C602 C603 1.506 . S
C602 O620 1.261 . S
C602 O621 1.242 . S
C603 C602 1.506 . S
C603 C604 1.358 1_556 S
C603 C608 1.382 . S
C604 C603 1.358 1_554 S
C604 C605 1.385 . S
C604 H632 0.930 . S
C605 C604 1.385 . S
C605 C606 1.395 . S
C605 H633 0.929 . S
C606 C605 1.395 . S
C606 C607 1.335 . S
C607 C606 1.335 . S
C607 C608 1.398 1_554 S
C607 H634 0.930 . S
C608 C603 1.382 . S
C608 C607 1.398 1_556 S
C608 H635 0.929 . S
C609 O622 1.267 1_655 S
C609 O623 1.259 . S
C610 O624 1.252 . S
C610 O625 1.272 . S
C611 Sm601 2.846 . S
C611 C612 1.506 . S
C611 O626 1.261 . S
C611 O627 1.242 . S
C612 C611 1.506 . S
C612 C613 1.358 . S
C612 C617 1.382 . S
C613 C612 1.358 . S
C613 C614 1.385 . S
C613 H636 0.930 . S
C614 C613 1.385 . S
C614 C615 1.395 . S
C614 H637 0.929 . S
C615 C614 1.395 . S
C615 C616 1.335 . S
C616 C615 1.335 . S
C616 C617 1.398 . S
C616 H638 0.930 . S
C617 C612 1.382 . S
C617 C616 1.398 . S
C617 H639 0.929 . S
C618 O628 1.264 1_455 S
C618 O629 1.263 . S
C619 O630 1.252 . S
C619 O631 1.272 . S
O620 Sm600 2.543 . S
O620 C602 1.261 . S
O621 Sm600 2.450 . S
O621 C602 1.242 . S
O622 Sm600 2.681 1_455 S
O622 Sm601 2.386 . S
O622 C609 1.267 1_455 S
O623 Sm600 2.464 . S
O623 C609 1.259 . S
O624 Sm600 2.396 . S
O624 C610 1.252 . S
O625 Sm601 2.408 1_655 S
O625 C610 1.272 . S
O626 Sm601 2.543 . S
O626 C611 1.261 . S
O627 Sm601 2.450 . S
O627 C611 1.242 . S
O628 Sm600 2.386 . S
O628 Sm601 2.681 1_655 S
O628 C618 1.264 1_655 S
O629 Sm601 2.464 . S
O629 C618 1.263 . S
O630 Sm601 2.396 . S
O630 C619 1.252 . S
O631 Sm600 2.408 1_455 S
O631 C619 1.272 . S
H632 C604 0.930 . S
H633 C605 0.929 . S
H634 C607 0.930 . S
H635 C608 0.929 . S
H636 C613 0.930 . S
H637 C614 0.929 . S
H638 C616 0.930 . S
H639 C617 0.929 . S
C640 C641 1.373 . S
C640 C646 1.379 . S
C640 N648 1.356 . S
C641 C640 1.373 . S
C641 C647 1.353 1_545 S
C642 C643 1.340 1_565 S
C642 C647 1.379 . S
C642 N649 1.356 . S
C643 C642 1.340 1_545 S
C643 C646 1.386 . S
N644 C646 1.356 . S
N644 H656 0.984 . S
N644 H657 0.985 . S
N645 C647 1.356 . S
N645 H650 0.984 . S
N645 H651 0.985 . S
C646 C640 1.379 . S
C646 C643 1.386 . S
C646 N644 1.356 . S
C647 C641 1.353 1_565 S
C647 C642 1.379 . S
C647 N645 1.356 . S
N648 C640 1.356 . S
N648 H654 0.984 . S
N648 H655 0.984 . S
N649 C642 1.356 . S
N649 H652 0.984 . S
N649 H653 0.985 . S
H650 N645 0.984 . S
H651 N645 0.985 . S
H652 N649 0.984 . S
H653 N649 0.985 . S
H654 N648 0.984 . S
H655 N648 0.984 . S
H656 N644 0.984 . S
H657 N644 0.985 . S
C658 C659 1.363 . S
C658 C664 1.379 . S
C658 N666 1.356 . S
C659 C658 1.363 . S
C659 C665 1.363 . S
C660 C661 1.363 . S
C660 C665 1.379 . S
C660 N667 1.356 . S
C661 C660 1.363 . S
C661 C664 1.363 . S
N662 C664 1.356 . S
N662 H674 0.984 . S
N662 H675 0.985 . S
N663 C665 1.356 . S
N663 H668 0.984 . S
N663 H669 0.985 . S
C664 C658 1.379 . S
C664 C661 1.363 . S
C664 N662 1.356 . S
C665 C659 1.363 . S
C665 C660 1.379 . S
C665 N663 1.356 . S
N666 C658 1.356 . S
N666 H672 0.984 . S
N666 H673 0.984 . S
N667 C660 1.356 . S
N667 H670 0.984 . S
N667 H671 0.985 . S
H668 N663 0.984 . S
H669 N663 0.985 . S
H670 N667 0.984 . S
H671 N667 0.985 . S
H672 N666 0.984 . S
H673 N666 0.984 . S
H674 N662 0.984 . S
H675 N662 0.985 . S
C676 C677 1.363 . S
C676 C682 1.379 . S
C676 N684 1.356 . S
C677 C676 1.363 . S
C677 C683 1.363 . S
C678 C679 1.363 . S
C678 C683 1.379 . S
C678 N685 1.356 . S
C679 C678 1.363 . S
C679 C682 1.363 . S
N680 C682 1.356 . S
N680 H692 0.984 . S
N680 H693 0.985 . S
N681 C683 1.356 . S
N681 H686 0.984 . S
N681 H687 0.985 . S
C682 C676 1.379 . S
C682 C679 1.363 . S
C682 N680 1.356 . S
C683 C677 1.363 . S
C683 C678 1.379 . S
C683 N681 1.356 . S
N684 C676 1.356 . S
N684 H690 0.984 . S
N684 H691 0.984 . S
N685 C678 1.356 . S
N685 H688 0.984 . S
N685 H689 0.985 . S
H686 N681 0.984 . S
H687 N681 0.985 . S
H688 N685 0.984 . S
H689 N685 0.985 . S
H690 N684 0.984 . S
H691 N684 0.984 . S
H692 N680 0.984 . S
H693 N680 0.985 . S
C694 C695 1.348 1_655 S
C694 C700 1.379 . S
C694 N702 1.356 . S
C695 C694 1.348 1_455 S
C695 C701 1.379 . S
C696 C697 1.363 . S
C696 C701 1.379 . S
C696 N703 1.356 . S
C697 C696 1.363 . S
C697 C700 1.363 1_455 S
N698 C700 1.356 . S
N698 H710 0.984 . S
N698 H711 0.985 . S
N699 C701 1.356 . S
N699 H704 0.984 . S
N699 H705 0.985 . S
C700 C694 1.379 . S
C700 C697 1.363 1_655 S
C700 N698 1.356 . S
C701 C695 1.379 . S
C701 C696 1.379 . S
C701 N699 1.356 . S
N702 C694 1.356 . S
N702 H708 0.984 . S
N702 H709 0.984 . S
N703 C696 1.356 . S
N703 H706 0.984 . S
N703 H707 0.985 . S
H704 N699 0.984 . S
H705 N699 0.985 . S
H706 N703 0.984 . S
H707 N703 0.985 . S
H708 N702 0.984 . S
H709 N702 0.984 . S
H710 N698 0.984 . S
H711 N698 0.985 . S
C712 C713 1.367 . S
C712 C718 1.379 . S
C712 N720 1.356 . S
C713 C712 1.367 . S
C713 C719 1.359 1_565 S
C714 C715 1.343 1_545 S
C714 C719 1.379 . S
C714 N721 1.356 1_554 S
C715 C714 1.343 1_565 S
C715 C718 1.383 . S
N716 C718 1.356 1_556 S
N716 H728 0.984 1_556 S
N716 H729 0.985 . S
N717 C719 1.356 . S
N717 H722 0.984 . S
N717 H723 0.985 . S
C718 C712 1.379 . S
C718 C715 1.383 . S
C718 N716 1.356 1_554 S
C719 C713 1.359 1_545 S
C719 C714 1.379 . S
C719 N717 1.356 . S
N720 C712 1.356 . S
N720 H726 0.984 . S
N720 H727 0.984 . S
N721 C714 1.356 1_556 S
N721 H724 0.984 . S
N721 H725 0.985 . S
H722 N717 0.984 . S
H723 N717 0.985 . S
H724 N721 0.984 . S
H725 N721 0.985 . S
H726 N720 0.984 . S
H727 N720 0.984 . S
H728 N716 0.984 1_554 S
H729 N716 0.985 . S
C730 C731 1.363 . S
C730 C736 1.379 . S
C730 N738 1.356 . S
C731 C730 1.363 . S
C731 C737 1.363 . S
C732 C733 1.363 . S
C732 C737 1.379 . S
C732 N739 1.356 1_554 S
C733 C732 1.363 . S
C733 C736 1.363 . S
N734 C736 1.356 1_556 S
N734 H746 0.984 1_556 S
N734 H747 0.985 . S
N735 C737 1.356 . S
N735 H740 0.984 . S
N735 H741 0.985 . S
C736 C730 1.379 . S
C736 C733 1.363 . S
C736 N734 1.356 1_554 S
C737 C731 1.363 . S
C737 C732 1.379 . S
C737 N735 1.356 . S
N738 C730 1.356 . S
N738 H744 0.984 . S
N738 H745 0.984 . S
N739 C732 1.356 1_556 S
N739 H742 0.984 . S
N739 H743 0.985 . S
H740 N735 0.984 . S
H741 N735 0.985 . S
H742 N739 0.984 . S
H743 N739 0.985 . S
H744 N738 0.984 . S
H745 N738 0.984 . S
H746 N734 0.984 1_554 S
H747 N734 0.985 . S
C748 C749 1.363 . S
C748 C754 1.379 . S
C748 N756 1.356 . S
C749 C748 1.363 . S
C749 C755 1.363 . S
C750 C751 1.363 . S
C750 C755 1.379 . S
C750 N757 1.356 . S
C751 C750 1.363 . S
C751 C754 1.363 . S
N752 C754 1.356 1_556 S
N752 H764 0.984 . S
N752 H765 0.985 . S
N753 C755 1.356 . S
N753 H758 0.984 . S
N753 H759 0.985 . S
C754 C748 1.379 . S
C754 C751 1.363 . S
C754 N752 1.356 1_554 S
C755 C749 1.363 . S
C755 C750 1.379 . S
C755 N753 1.356 . S
N756 C748 1.356 . S
N756 H762 0.984 . S
N756 H763 0.984 . S
N757 C750 1.356 . S
N757 H760 0.984 1_554 S
N757 H761 0.985 . S
H758 N753 0.984 . S
H759 N753 0.985 . S
H760 N757 0.984 1_556 S
H761 N757 0.985 . S
H762 N756 0.984 . S
H763 N756 0.984 . S
H764 N752 0.984 . S
H765 N752 0.985 . S
C766 C767 1.344 1_455 S
C766 C772 1.379 . S
C766 N774 1.356 . S
C767 C766 1.344 1_655 S
C767 C773 1.383 . S
C768 C769 1.363 . S
C768 C773 1.379 . S
C768 N775 1.356 1_554 S
C769 C768 1.363 . S
C769 C772 1.363 1_655 S
N770 C772 1.356 1_556 S
N770 H782 0.984 1_556 S
N770 H783 0.985 . S
N771 C773 1.356 . S
N771 H776 0.984 . S
N771 H777 0.985 . S
C772 C766 1.379 . S
C772 C769 1.363 1_455 S
C772 N770 1.356 1_554 S
C773 C767 1.383 . S
C773 C768 1.379 . S
C773 N771 1.356 . S
N774 C766 1.356 . S
N774 H780 0.984 . S
N774 H781 0.984 . S
N775 C768 1.356 1_556 S
N775 H778 0.984 . S
N775 H779 0.985 . S
H776 N771 0.984 . S
H777 N771 0.985 . S
H778 N775 0.984 . S
H779 N775 0.985 . S
H780 N774 0.984 . S
H781 N774 0.984 . S
H782 N770 0.984 1_554 S
H783 N770 0.985 . S
C784 C785 1.363 . S
C784 C790 1.379 . S
C784 N792 1.356 . S
C785 C784 1.363 . S
C785 C791 1.363 . S
C786 C787 1.363 . S
C786 C791 1.379 . S
C786 N793 1.356 . S
C787 C786 1.363 . S
C787 C790 1.363 . S
N788 C790 1.356 . S
N788 H800 0.984 . S
N788 H801 0.985 . S
N789 C791 1.356 1_455 S
N789 H794 0.984 . S
N789 H795 0.985 . S
C790 C784 1.379 . S
C790 C787 1.363 . S
C790 N788 1.356 . S
C791 C785 1.363 . S
C791 C786 1.379 . S
C791 N789 1.356 1_655 S
N792 C784 1.356 . S
N792 H798 0.984 . S
N792 H799 1.020 . S
N793 C786 1.356 . S
N793 H796 0.984 . S
N793 H797 0.985 . S
H794 N789 0.984 . S
H795 N789 0.985 . S
H796 N793 0.984 . S
H797 N793 0.985 . S
H798 N792 0.984 . S
H799 N792 1.020 . S
H800 N788 0.984 . S
H801 N788 0.985 . S
C802 C803 1.363 . S
C802 C808 1.379 . S
C802 N810 1.356 . S
C803 C802 1.363 . S
C803 C809 1.363 1_565 S
C804 C805 1.363 . S
C804 C809 1.379 1_565 S
C804 N811 1.356 . S
C805 C804 1.363 . S
C805 C808 1.363 . S
N806 C808 1.356 . S
N806 H818 0.984 . S
N806 H819 0.985 . S
N807 C809 1.356 . S
N807 H812 0.984 . S
N807 H813 0.985 . S
C808 C802 1.379 . S
C808 C805 1.363 . S
C808 N806 1.356 . S
C809 C803 1.363 1_545 S
C809 C804 1.379 1_545 S
C809 N807 1.356 . S
N810 C802 1.356 . S
N810 H816 0.984 . S
N810 H817 0.984 . S
N811 C804 1.356 . S
N811 H814 0.984 . S
N811 H815 0.985 . S
H812 N807 0.984 . S
H813 N807 0.985 . S
H814 N811 0.984 . S
H815 N811 0.985 . S
H816 N810 0.984 . S
H817 N810 0.984 . S
H818 N806 0.984 . S
H819 N806 0.985 . S
C820 C821 1.363 . S
C820 C826 1.379 . S
C820 N828 1.356 . S
C821 C820 1.363 . S
C821 C827 1.363 . S
C822 C823 1.363 . S
C822 C827 1.379 . S
C822 N829 1.356 . S
C823 C822 1.363 . S
C823 C826 1.363 . S
N824 C826 1.356 . S
N824 H836 0.984 . S
N824 H837 0.985 . S
N825 C827 1.356 . S
N825 H830 0.984 . S
N825 H831 0.985 . S
C826 C820 1.379 . S
C826 C823 1.363 . S
C826 N824 1.356 . S
C827 C821 1.363 . S
C827 C822 1.379 . S
C827 N825 1.356 . S
N828 C820 1.356 . S
N828 H834 0.984 . S
N828 H835 0.984 . S
N829 C822 1.356 . S
N829 H832 0.984 . S
N829 H833 0.985 . S
H830 N825 0.984 . S
H831 N825 0.985 . S
H832 N829 0.984 . S
H833 N829 0.985 . S
H834 N828 0.984 . S
H835 N828 0.984 . S
H836 N824 0.984 . S
H837 N824 0.985 . S
C838 C839 1.363 . S
C838 C844 1.379 . S
C838 N846 1.356 . S
C839 C838 1.363 . S
C839 C845 1.363 . S
C840 C841 1.363 . S
C840 C845 1.379 . S
C840 N847 1.356 . S
C841 C840 1.363 . S
C841 C844 1.363 . S
N842 C844 1.356 . S
N842 H854 0.984 . S
N842 H855 0.985 . S
N843 C845 1.356 . S
N843 H848 0.984 . S
N843 H849 0.985 . S
C844 C838 1.379 . S
C844 C841 1.363 . S
C844 N842 1.356 . S
C845 C839 1.363 . S
C845 C840 1.379 . S
C845 N843 1.356 . S
N846 C838 1.356 . S
N846 H852 0.984 . S
N846 H853 0.984 . S
N847 C840 1.356 . S
N847 H850 0.984 . S
N847 H851 0.985 . S
H848 N843 0.984 . S
H849 N843 0.985 . S
H850 N847 0.984 . S
H851 N847 0.985 . S
H852 N846 0.984 . S
H853 N846 0.984 . S
H854 N842 0.984 . S
H855 N842 0.985 . S
C856 C857 1.363 . S
C856 C862 1.379 . S
C856 N864 1.356 . S
C857 C856 1.363 . S
C857 C863 1.363 . S
C858 C859 1.363 . S
C858 C863 1.379 . S
C858 N865 1.356 . S
C859 C858 1.363 . S
C859 C862 1.363 . S
N860 C862 1.356 1_556 S
N860 H872 0.984 . S
N860 H873 0.985 . S
N861 C863 1.356 1_655 S
N861 H866 0.984 . S
N861 H867 0.985 . S
C862 C856 1.379 . S
C862 C859 1.363 . S
C862 N860 1.356 1_554 S
C863 C857 1.363 . S
C863 C858 1.379 . S
C863 N861 1.356 1_455 S
N864 C856 1.356 . S
N864 H870 0.984 1_554 S
N864 H871 0.984 1_455 S
N865 C858 1.356 . S
N865 H868 0.984 . S
N865 H869 0.985 . S
H866 N861 0.984 . S
H867 N861 0.985 . S
H868 N865 0.984 . S
H869 N865 0.985 . S
H870 N864 0.984 1_556 S
H871 N864 0.984 1_655 S
H872 N860 0.984 . S
H873 N860 0.985 . S
C874 C875 1.363 . S
C874 C880 1.379 . S
C874 N882 1.356 . S
C875 C874 1.363 . S
C875 C881 1.363 . S
C876 C877 1.363 . S
C876 C881 1.379 . S
C876 N883 1.356 . S
C877 C876 1.363 . S
C877 C880 1.363 . S
N878 C880 1.356 1_556 S
N878 H890 0.984 . S
N878 H891 0.985 . S
N879 C881 1.356 1_565 S
N879 H884 0.984 . S
N879 H885 0.985 . S
C880 C874 1.379 . S
C880 C877 1.363 . S
C880 N878 1.356 1_554 S
C881 C875 1.363 . S
C881 C876 1.379 . S
C881 N879 1.356 1_545 S
N882 C874 1.356 . S
N882 H888 0.984 1_554 S
N882 H889 0.984 1_545 S
N883 C876 1.356 . S
N883 H886 0.984 . S
N883 H887 0.985 . S
H884 N879 0.984 . S
H885 N879 0.985 . S
H886 N883 0.984 . S
H887 N883 0.985 . S
H888 N882 0.984 1_556 S
H889 N882 0.984 1_565 S
H890 N878 0.984 . S
H891 N878 0.985 . S
C892 C893 1.363 . S
C892 C898 1.379 . S
C892 N900 1.356 . S
C893 C892 1.363 . S
C893 C899 1.363 . S
C894 C895 1.363 . S
C894 C899 1.379 . S
C894 N901 1.356 1_554 S
C895 C894 1.363 . S
C895 C898 1.363 . S
N896 C898 1.356 . S
N896 H908 0.984 . S
N896 H909 0.985 . S
N897 C899 1.356 . S
N897 H902 0.984 . S
N897 H903 0.985 1_554 S
C898 C892 1.379 . S
C898 C895 1.363 . S
C898 N896 1.356 . S
C899 C893 1.363 . S
C899 C894 1.379 . S
C899 N897 1.356 . S
N900 C892 1.356 . S
N900 H906 0.984 . S
N900 H907 0.984 . S
N901 C894 1.356 1_556 S
N901 H904 0.984 . S
N901 H905 0.985 . S
H902 N897 0.984 . S
H903 N897 0.985 1_556 S
H904 N901 0.984 . S
H905 N901 0.985 . S
H906 N900 0.984 . S
H907 N900 0.984 . S
H908 N896 0.984 . S
H909 N896 0.985 . S
C910 C911 1.363 . S
C910 C916 1.379 . S
C910 N918 1.356 1_554 S
C911 C910 1.363 . S
C911 C917 1.363 . S
C912 C913 1.363 . S
C912 C917 1.379 . S
C912 N919 1.356 . S
C913 C912 1.363 . S
C913 C916 1.363 . S
N914 C916 1.356 1_556 S
N914 H926 0.984 . S
N914 H927 0.985 . S
N915 C917 1.356 . S
N915 H920 0.984 . S
N915 H921 0.985 . S
C916 C910 1.379 . S
C916 C913 1.363 . S
C916 N914 1.356 1_554 S
C917 C911 1.363 . S
C917 C912 1.379 . S
C917 N915 1.356 . S
N918 C910 1.356 1_556 S
N918 H924 0.984 . S
N918 H925 0.984 1_556 S
N919 C912 1.356 . S
N919 H922 0.984 . S
N919 H923 0.985 . S
H920 N915 0.984 . S
H921 N915 0.985 . S
H922 N919 0.984 . S
H923 N919 0.985 . S
H924 N918 0.984 . S
H925 N918 0.984 1_554 S
H926 N914 0.984 . S
H927 N914 0.985 . S
C928 C929 1.363 . S
C928 C934 1.379 . S
C928 N936 1.356 . S
C929 C928 1.363 . S
C929 C935 1.363 1_455 S
C930 C931 1.363 1_655 S
C930 C935 1.379 . S
C930 N937 1.356 . S
C931 C930 1.363 1_455 S
C931 C934 1.363 . S
N932 C934 1.356 . S
N932 H944 0.984 . S
N932 H945 0.985 . S
N933 C935 1.356 . S
N933 H938 0.984 . S
N933 H939 0.985 . S
C934 C928 1.379 . S
C934 C931 1.363 . S
C934 N932 1.356 . S
C935 C929 1.363 1_655 S
C935 C930 1.379 . S
C935 N933 1.356 . S
N936 C928 1.356 . S
N936 H942 0.984 . S
N936 H943 0.984 . S
N937 C930 1.356 . S
N937 H940 0.984 . S
N937 H941 0.985 . S
H938 N933 0.984 . S
H939 N933 0.985 . S
H940 N937 0.984 . S
H941 N937 0.985 . S
H942 N936 0.984 . S
H943 N936 0.984 . S
H944 N932 0.984 . S
H945 N932 0.985 . S
C946 C947 1.363 . S
C946 C952 1.379 . S
C946 N954 1.356 . S
C947 C946 1.363 . S
C947 C953 1.363 1_545 S
C948 C949 1.363 1_565 S
C948 C953 1.379 . S
C948 N955 1.356 . S
C949 C948 1.363 1_545 S
C949 C952 1.363 . S
N950 C952 1.356 . S
N950 H962 0.984 . S
N950 H963 0.985 . S
N951 C953 1.356 . S
N951 H956 0.984 . S
N951 H957 0.985 . S
C952 C946 1.379 . S
C952 C949 1.363 . S
C952 N950 1.356 . S
C953 C947 1.363 1_565 S
C953 C948 1.379 . S
C953 N951 1.356 . S
N954 C946 1.356 . S
N954 H960 0.984 . S
N954 H961 0.984 . S
N955 C948 1.356 . S
N955 H958 0.984 . S
N955 H959 0.985 . S
H956 N951 0.984 . S
H957 N951 0.985 . S
H958 N955 0.984 . S
H959 N955 0.985 . S
H960 N954 0.984 . S
H961 N954 0.984 . S
H962 N950 0.984 . S
H963 N950 0.985 . S
C964 C965 1.363 . S
C964 C970 1.379 . S
C964 N972 1.356 . S
C965 C964 1.363 . S
C965 C971 1.363 . S
C966 C967 1.363 . S
C966 C971 1.379 . S
C966 N973 1.356 . S
C967 C966 1.363 . S
C967 C970 1.363 . S
N968 C970 1.356 . S
N968 H980 0.984 . S
N968 H981 0.985 . S
N969 C971 1.356 . S
N969 H974 0.984 . S
N969 H975 0.985 . S
C970 C964 1.379 . S
C970 C967 1.363 . S
C970 N968 1.356 . S
C971 C965 1.363 . S
C971 C966 1.379 . S
C971 N969 1.356 . S
N972 C964 1.356 . S
N972 H978 0.984 . S
N972 H979 0.984 . S
N973 C966 1.356 . S
N973 H976 0.984 . S
N973 H977 0.985 . S
H974 N969 0.984 . S
H975 N969 0.985 . S
H976 N973 0.984 . S
H977 N973 0.985 . S
H978 N972 0.984 . S
H979 N972 0.984 . S
H980 N968 0.984 . S
H981 N968 0.985 . S
C982 C983 1.363 . S
C982 C988 1.379 . S
C982 N990 1.356 . S
C983 C982 1.363 . S
C983 C989 1.363 . S
C984 C985 1.363 . S
C984 C989 1.379 . S
C984 N991 1.356 . S
C985 C984 1.363 . S
C985 C988 1.363 . S
N986 C988 1.356 . S
N986 H998 0.984 . S
N986 H999 0.985 . S
N987 C989 1.356 . S
N987 H992 0.984 . S
N987 H993 0.985 . S
C988 C982 1.379 . S
C988 C985 1.363 . S
C988 N986 1.356 . S
C989 C983 1.363 . S
C989 C984 1.379 . S
C989 N987 1.356 . S
N990 C982 1.356 . S
N990 H996 0.984 . S
N990 H997 0.984 . S
N991 C984 1.356 . S
N991 H994 0.984 . S
N991 H995 0.985 . S
H992 N987 0.984 . S
H993 N987 0.985 . S
H994 N991 0.984 . S
H995 N991 0.985 . S
H996 N990 0.984 . S
H997 N990 0.984 . S
H998 N986 0.984 . S
H999 N986 0.985 . S
C1000 C1001 1.363 . S
C1000 C1006 1.379 . S
C1000 N1008 1.356 . S
C1001 C1000 1.363 . S
C1001 C1007 1.363 1_655 S
C1002 C1003 1.363 1_455 S
C1002 C1007 1.379 . S
C1002 N1009 1.356 . S
C1003 C1002 1.363 1_655 S
C1003 C1006 1.363 . S
N1004 C1006 1.356 . S
N1004 H1016 0.984 . S
N1004 H1017 0.985 . S
N1005 C1007 1.356 . S
N1005 H1010 0.984 . S
N1005 H1011 0.985 . S
C1006 C1000 1.379 . S
C1006 C1003 1.363 . S
C1006 N1004 1.356 . S
C1007 C1001 1.363 1_455 S
C1007 C1002 1.379 . S
C1007 N1005 1.356 . S
N1008 C1000 1.356 . S
N1008 H1014 0.984 . S
N1008 H1015 0.984 . S
N1009 C1002 1.356 . S
N1009 H1012 0.984 . S
N1009 H1013 0.985 . S
H1010 N1005 0.984 . S
H1011 N1005 0.985 . S
H1012 N1009 0.984 . S
H1013 N1009 0.985 . S
H1014 N1008 0.984 . S
H1015 N1008 0.984 . S
H1016 N1004 0.984 . S
H1017 N1004 0.985 . S
C1018 C1019 1.363 1_545 S
C1018 C1024 1.379 . S
C1018 N1026 1.356 . S
C1019 C1018 1.363 1_565 S
C1019 C1025 1.363 . S
C1020 C1021 1.363 . S
C1020 C1025 1.379 . S
C1020 N1027 1.356 . S
C1021 C1020 1.363 . S
C1021 C1024 1.363 1_565 S
N1022 C1024 1.356 . S
N1022 H1034 0.984 . S
N1022 H1035 0.985 . S
N1023 C1025 1.356 . S
N1023 H1028 0.984 . S
N1023 H1029 0.985 . S
C1024 C1018 1.379 . S
C1024 C1021 1.363 1_545 S
C1024 N1022 1.356 . S
C1025 C1019 1.363 . S
C1025 C1020 1.379 . S
C1025 N1023 1.356 . S
N1026 C1018 1.356 . S
N1026 H1032 0.984 . S
N1026 H1033 0.984 . S
N1027 C1020 1.356 . S
N1027 H1030 0.984 . S
N1027 H1031 0.985 . S
H1028 N1023 0.984 . S
H1029 N1023 0.985 . S
H1030 N1027 0.984 . S
H1031 N1027 0.985 . S
H1032 N1026 0.984 . S
H1033 N1026 0.984 . S
H1034 N1022 0.984 . S
H1035 N1022 0.985 . S
C1036 C1037 1.363 . S
C1036 C1042 1.379 . S
C1036 N1044 1.356 . S
C1037 C1036 1.363 . S
C1037 C1043 1.363 . S
C1038 C1039 1.363 . S
C1038 C1043 1.379 . S
C1038 N1045 1.356 . S
C1039 C1038 1.363 . S
C1039 C1042 1.363 . S
N1040 C1042 1.356 . S
N1040 H1052 0.984 . S
N1040 H1053 0.985 . S
N1041 C1043 1.356 . S
N1041 H1046 0.984 . S
N1041 H1047 0.985 . S
C1042 C1036 1.379 . S
C1042 C1039 1.363 . S
C1042 N1040 1.356 . S
C1043 C1037 1.363 . S
C1043 C1038 1.379 . S
C1043 N1041 1.356 . S
N1044 C1036 1.356 . S
N1044 H1050 0.984 . S
N1044 H1051 0.984 . S
N1045 C1038 1.356 . S
N1045 H1048 0.984 . S
N1045 H1049 0.985 . S
H1046 N1041 0.984 . S
H1047 N1041 0.985 . S
H1048 N1045 0.984 . S
H1049 N1045 0.985 . S
H1050 N1044 0.984 . S
H1051 N1044 0.984 . S
H1052 N1040 0.984 . S
H1053 N1040 0.985 . S
C1054 C1055 1.363 . S
C1054 C1060 1.379 . S
C1054 N1062 1.356 . S
C1055 C1054 1.363 . S
C1055 C1061 1.363 . S
C1056 C1057 1.363 . S
C1056 C1061 1.379 . S
C1056 N1063 1.356 . S
C1057 C1056 1.363 . S
C1057 C1060 1.363 . S
N1058 C1060 1.356 . S
N1058 H1070 0.984 . S
N1058 H1071 0.985 . S
N1059 C1061 1.356 . S
N1059 H1064 0.984 . S
N1059 H1065 0.985 . S
C1060 C1054 1.379 . S
C1060 C1057 1.363 . S
C1060 N1058 1.356 . S
C1061 C1055 1.363 . S
C1061 C1056 1.379 . S
C1061 N1059 1.356 . S
N1062 C1054 1.356 . S
N1062 H1068 0.984 . S
N1062 H1069 0.984 . S
N1063 C1056 1.356 . S
N1063 H1066 0.984 . S
N1063 H1067 0.985 . S
H1064 N1059 0.984 . S
H1065 N1059 0.985 . S
H1066 N1063 0.984 . S
H1067 N1063 0.985 . S
H1068 N1062 0.984 . S
H1069 N1062 0.984 . S
H1070 N1058 0.984 . S
H1071 N1058 0.985 . S
C641 C391 2.660 . S
C643 C489 2.843 1_545 S
C661 C529 2.863 . S
C659 C451 2.672 . S
C679 C569 2.868 . S
C677 C241 2.333 . S
C697 C609 2.849 1_455 S
C695 C331 2.299 1_455 S
C715 C498 2.844 1_564 S
C713 C121 2.294 . S
C731 C211 2.690 . S
C733 C538 2.864 1_554 S
C749 C31 2.698 . S
C751 C578 2.869 1_554 S
C767 C91 2.299 . S
C769 C618 2.849 1_654 S
C787 C495 0.810 . S
C785 C301 0.787 . S
C805 C535 0.806 . S
C803 C380 0.832 1_565 S
C823 C575 0.774 . S
C821 C440 0.785 . S
C839 C260 0.768 . S
C841 C615 0.773 . S
C857 C61 0.820 1_455 S
C859 C486 0.814 . S
C877 C526 0.806 . S
C875 C140 0.815 1_545 S
C895 C566 0.774 . S
C893 C200 0.775 . S
C911 C20 0.779 . S
C913 C606 0.781 . S
C929 C320 3.433 1_455 S
C931 C499 3.747 . S
C947 C361 2.945 . S
C949 C539 3.719 . S
C967 C579 3.711 . S
C965 C421 2.931 . S
C985 C619 3.744 . S
C983 C271 3.426 . S
C1001 C80 3.412 . S
C1003 C490 3.756 . S
C1021 C530 3.719 . S
C1019 C151 3.378 . S
C1039 C570 3.711 . S
C1037 C181 2.971 . S
C1055 C1 3.005 . S
C1057 C610 3.748 . S
