# Generated by pormake.
# Topology ssb, (4,4)-cn, num edge types: 1
# Building blocks:
#     Node 0, Type 0, BuildingBlock: AZAVOO_clean_linker_0, # of connection points: 4
#     Node 1, Type 0, BuildingBlock: AZAVOO_clean_linker_0, # of connection points: 4
#     Node 2, Type 0, BuildingBlock: AZAVOO_clean_linker_0, # of connection points: 4
#     Node 3, Type 0, BuildingBlock: AZAVOO_clean_linker_0, # of connection points: 4
#     Node 4, Type 0, BuildingBlock: AZAVOO_clean_linker_0, # of connection points: 4
#     Node 5, Type 0, BuildingBlock: AZAVOO_clean_linker_0, # of connection points: 4
#     Node 6, Type 0, BuildingBlock: AZAVOO_clean_linker_0, # of connection points: 4
#     Node 7, Type 0, BuildingBlock: AZAVOO_clean_linker_0, # of connection points: 4
#     Node 8, Type 1, BuildingBlock: KOZSID_clean_sbu_0, # of connection points: 4
#     Node 9, Type 1, BuildingBlock: KOZSID_clean_sbu_0, # of connection points: 4
#     Node 10, Type 1, BuildingBlock: KOZSID_clean_sbu_0, # of connection points: 4
#     Node 11, Type 1, BuildingBlock: KOZSID_clean_sbu_0, # of connection points: 4
#     Node 12, Type 1, BuildingBlock: KOZSID_clean_sbu_0, # of connection points: 4
#     Node 13, Type 1, BuildingBlock: KOZSID_clean_sbu_0, # of connection points: 4
#     Node 14, Type 1, BuildingBlock: KOZSID_clean_sbu_0, # of connection points: 4
#     Node 15, Type 1, BuildingBlock: KOZSID_clean_sbu_0, # of connection points: 4
#     Edge 16, Type (0, 1), None
#     Edge 17, Type (0, 1), None
#     Edge 18, Type (0, 1), None
#     Edge 19, Type (0, 1), None
#     Edge 20, Type (0, 1), None
#     Edge 21, Type (0, 1), None
#     Edge 22, Type (0, 1), None
#     Edge 23, Type (0, 1), None
#     Edge 24, Type (0, 1), None
#     Edge 25, Type (0, 1), None
#     Edge 26, Type (0, 1), None
#     Edge 27, Type (0, 1), None
#     Edge 28, Type (0, 1), None
#     Edge 29, Type (0, 1), None
#     Edge 30, Type (0, 1), None
#     Edge 31, Type (0, 1), None
#     Edge 32, Type (0, 1), None
#     Edge 33, Type (0, 1), None
#     Edge 34, Type (0, 1), None
#     Edge 35, Type (0, 1), None
#     Edge 36, Type (0, 1), None
#     Edge 37, Type (0, 1), None
#     Edge 38, Type (0, 1), None
#     Edge 39, Type (0, 1), None
#     Edge 40, Type (0, 1), None
#     Edge 41, Type (0, 1), None
#     Edge 42, Type (0, 1), None
#     Edge 43, Type (0, 1), None
#     Edge 44, Type (0, 1), None
#     Edge 45, Type (0, 1), None
#     Edge 46, Type (0, 1), None
#     Edge 47, Type (0, 1), None
# Relax obj value: 0.067
# Max RMSD: 0.317
# Mean RMSD: 0.120
data_MOF--net-ssb--node1-KOZSID_clean_sbu_0--node2-AZAVOO_clean_linker_0--edge1-none
_symmetry_space_group_name_H-M    P1
_symmetry_Int_Tables_number       1
_symmetry_cell_setting            triclinic
loop_
_symmetry_equiv_pos_as_xyz
'x, y, z'
_cell_length_a     34.424357
_cell_length_b     35.281073
_cell_length_c     25.347464
_cell_angle_alpha  97.953646
_cell_angle_beta   98.11351
_cell_angle_gamma 90.500961
loop_
_atom_site_label
_atom_site_type_symbol
_atom_site_fract_x
_atom_site_fract_y
_atom_site_fract_z
_atom_type_partial_charge
H0 H 0.07452 0.57314 0.3042 0.0
H1 H 0.39635 0.45536 0.00741 0.0
H2 H 0.21874 0.43848 0.38226 0.0
H3 H 0.16733 0.43271 0.43835 0.0
H4 H 0.12429 0.32777 0.33717 0.0
H5 H 0.17586 0.3339 0.28102 0.0
H6 H 0.22504 0.49706 0.31007 0.0
H7 H 0.1685 0.53819 0.31584 0.0
H8 H 0.09279 0.44649 0.22433 0.0
H9 H 0.14971 0.40582 0.21839 0.0
H10 H 0.28694 0.50191 0.25746 0.0
H11 H 0.28792 0.55478 0.20491 0.0
H12 H 0.21701 0.48618 0.07048 0.0
H13 H 0.21462 0.43416 0.125 0.0
H14 H 0.35589 0.44234 0.25287 0.0
H15 H 0.40215 0.45943 0.19431 0.0
H16 H 0.32413 0.40512 0.0552 0.0
H17 H 0.27872 0.38706 0.11438 0.0
H18 H 0.36053 0.38086 0.3137 0.0
H19 H 0.42139 0.36406 0.27748 0.0
H20 H 0.35366 0.29851 0.13742 0.0
H21 H 0.29352 0.31524 0.17399 0.0
H22 H 0.27072 0.36866 0.39827 0.0
H23 H 0.27285 0.31488 0.45076 0.0
H24 H 0.26489 0.23525 0.30452 0.0
H25 H 0.26129 0.28897 0.25169 0.0
O26 O 0.09653 0.5565 0.30106 0.0
O27 O 0.05887 0.50844 0.25394 0.0
O28 O 0.42686 0.45728 0.10226 0.0
O29 O 0.37994 0.44655 0.03151 0.0
C30 C 0.22991 0.39225 0.29141 0.0
C31 C 0.22565 0.42349 0.26084 0.0
C32 C 0.25331 0.43039 0.22689 0.0
C33 C 0.28483 0.40544 0.22315 0.0
C34 C 0.28882 0.37378 0.25286 0.0
C35 C 0.26155 0.36676 0.28772 0.0
C36 C 0.20076 0.38674 0.3275 0.0
C37 C 0.19823 0.41422 0.37234 0.0
C38 C 0.1688 0.41099 0.40407 0.0
C39 C 0.14158 0.38004 0.39166 0.0
C40 C 0.14497 0.35185 0.34768 0.0
C41 C 0.17431 0.35527 0.31566 0.0
C42 C 0.19146 0.44862 0.26349 0.0
C43 C 0.19627 0.48607 0.29086 0.0
C44 C 0.16389 0.50942 0.29431 0.0
C45 C 0.1261 0.49564 0.27051 0.0
C46 C 0.12147 0.45802 0.24306 0.0
C47 C 0.1539 0.43474 0.23958 0.0
C48 C 0.25031 0.46406 0.19571 0.0
C49 C 0.27096 0.49853 0.21702 0.0
C50 C 0.27197 0.52868 0.18625 0.0
C51 C 0.25293 0.52522 0.13252 0.0
C52 C 0.23169 0.49065 0.1116 0.0
C53 C 0.2303 0.46063 0.14281 0.0
C54 C 0.31418 0.41319 0.18786 0.0
C55 C 0.34921 0.43354 0.20983 0.0
C56 C 0.37548 0.44338 0.17631 0.0
C57 C 0.36667 0.43376 0.12012 0.0
C58 C 0.33167 0.41305 0.0983 0.0
C59 C 0.30576 0.40263 0.13196 0.0
C60 C 0.32273 0.34925 0.24637 0.0
C61 C 0.35912 0.36097 0.27682 0.0
C62 C 0.39375 0.35204 0.25554 0.0
C63 C 0.39215 0.33086 0.20402 0.0
C64 C 0.35592 0.31488 0.17722 0.0
C65 C 0.32143 0.32398 0.19836 0.0
C66 C 0.26594 0.33347 0.32041 0.0
C67 C 0.2694 0.33972 0.37715 0.0
C68 C 0.27072 0.30886 0.40735 0.0
C69 C 0.26925 0.27065 0.382 0.0
C70 C 0.2664 0.26427 0.32543 0.0
C71 C 0.26461 0.29514 0.29514 0.0
C72 C 0.09173 0.52044 0.27454 0.0
C73 C 0.39318 0.44636 0.08423 0.0
H74 H 0.55427 0.08657 0.29234 0.0
H75 H 0.92907 0.25512 0.66 0.0
H76 H 0.70852 0.25888 0.23116 0.0
H77 H 0.65283 0.26995 0.16381 0.0
H78 H 0.58361 0.30524 0.29029 0.0
H79 H 0.63983 0.295 0.35794 0.0
H80 H 0.69487 0.18097 0.29234 0.0
H81 H 0.63896 0.13552 0.27847 0.0
H82 H 0.59599 0.1962 0.41798 0.0
H83 H 0.65195 0.24152 0.4311 0.0
H84 H 0.77645 0.16828 0.38764 0.0
H85 H 0.77967 0.11594 0.44235 0.0
H86 H 0.71606 0.18322 0.55586 0.0
H87 H 0.71358 0.23581 0.5014 0.0
H88 H 0.8462 0.22267 0.40275 0.0
H89 H 0.90151 0.21515 0.47235 0.0
H90 H 0.84103 0.28032 0.59163 0.0
H91 H 0.78565 0.28693 0.52183 0.0
H92 H 0.8369 0.27919 0.31711 0.0
H93 H 0.90423 0.30619 0.33736 0.0
H94 H 0.87421 0.37345 0.48084 0.0
H95 H 0.80689 0.34803 0.45891 0.0
H96 H 0.78117 0.30447 0.25909 0.0
H97 H 0.78649 0.36421 0.22131 0.0
H98 H 0.71339 0.41961 0.33258 0.0
H99 H 0.70902 0.35984 0.37135 0.0
O100 O 0.57594 0.10504 0.29827 0.0
O101 O 0.55452 0.13786 0.36938 0.0
O102 O 0.93862 0.22652 0.56836 0.0
O103 O 0.90771 0.25783 0.63168 0.0
C104 C 0.71248 0.27093 0.3397 0.0
C105 C 0.71172 0.24138 0.37129 0.0
C106 C 0.74447 0.23663 0.40946 0.0
C107 C 0.77847 0.26008 0.41527 0.0
C108 C 0.78003 0.28857 0.38203 0.0
C109 C 0.74647 0.2947 0.34567 0.0
C110 C 0.67817 0.27628 0.29929 0.0
C111 C 0.68128 0.26875 0.24433 0.0
C112 C 0.64947 0.27459 0.20607 0.0
C113 C 0.614 0.28763 0.22228 0.0
C114 C 0.61056 0.29445 0.27721 0.0
C115 C 0.64256 0.28884 0.31559 0.0
C116 C 0.67746 0.2143 0.36284 0.0
C117 C 0.67329 0.18436 0.31977 0.0
C118 C 0.64136 0.15846 0.312 0.0
C119 C 0.61305 0.16215 0.34722 0.0
C120 C 0.6173 0.19247 0.39019 0.0
C121 C 0.64924 0.21833 0.39788 0.0
C122 C 0.7445 0.20513 0.44088 0.0
C123 C 0.7631 0.17144 0.4242 0.0
C124 C 0.76501 0.14195 0.45522 0.0
C125 C 0.74794 0.1461 0.50257 0.0
C126 C 0.72895 0.17974 0.51893 0.0
C127 C 0.7275 0.20945 0.48819 0.0
C128 C 0.81206 0.25536 0.45736 0.0
C129 C 0.84503 0.23527 0.44395 0.0
C130 C 0.87661 0.23119 0.48374 0.0
C131 C 0.8759 0.24751 0.5375 0.0
C132 C 0.84266 0.26757 0.55063 0.0
C133 C 0.81097 0.27133 0.51091 0.0
C134 C 0.81699 0.31167 0.38658 0.0
C135 C 0.84453 0.30095 0.35172 0.0
C136 C 0.88306 0.31594 0.36369 0.0
C137 C 0.89496 0.34061 0.4118 0.0
C138 C 0.86635 0.35373 0.44411 0.0
C139 C 0.82771 0.33947 0.4315 0.0
C140 C 0.74552 0.32855 0.3184 0.0
C141 C 0.76636 0.3295 0.27516 0.0
C142 C 0.76927 0.36334 0.25379 0.0
C143 C 0.75087 0.39611 0.27516 0.0
C144 C 0.72791 0.39447 0.31616 0.0
C145 C 0.72545 0.36067 0.33806 0.0
C146 C 0.57935 0.1344 0.33912 0.0
C147 C 0.90941 0.24336 0.57989 0.0
H148 H 0.61161 0.01421 0.3144 0.0
H149 H 0.6276 0.61486 0.05229 0.0
H150 H 0.78604 0.89436 0.35215 0.0
H151 H 0.78787 0.95141 0.42058 0.0
H152 H 0.74459 0.88256 0.5289 0.0
H153 H 0.74089 0.82627 0.45979 0.0
H154 H 0.71771 0.88995 0.26408 0.0
H155 H 0.67786 0.94697 0.27364 0.0
H156 H 0.6263 0.90325 0.39996 0.0
H157 H 0.6665 0.84649 0.39013 0.0
H158 H 0.71018 0.81766 0.17506 0.0
H159 H 0.65535 0.83479 0.11034 0.0
H160 H 0.57465 0.81767 0.22116 0.0
H161 H 0.62946 0.79999 0.2857 0.0
H162 H 0.76099 0.7475 0.1767 0.0
H163 H 0.73947 0.69707 0.10173 0.0
H164 H 0.63834 0.67268 0.17623 0.0
H165 H 0.66238 0.72059 0.25374 0.0
H166 H 0.81678 0.73676 0.24136 0.0
H167 H 0.82727 0.66941 0.20843 0.0
H168 H 0.76143 0.6344 0.32694 0.0
H169 H 0.74838 0.70162 0.35694 0.0
H170 H 0.84298 0.79725 0.31062 0.0
H171 H 0.9092 0.80021 0.36148 0.0
H172 H 0.86067 0.78545 0.50539 0.0
H173 H 0.7941 0.78079 0.45376 0.0
O174 O 0.62712 0.99147 0.31131 0.0
O175 O 0.60262 0.96839 0.37743 0.0
O176 O 0.69382 0.64213 0.05159 0.0
O177 O 0.63727 0.63429 0.08221 0.0
C178 C 0.75238 0.82463 0.35585 0.0
C179 C 0.71835 0.82911 0.31943 0.0
C180 C 0.70686 0.80073 0.27506 0.0
C181 C 0.72787 0.76681 0.26799 0.0
C182 C 0.76148 0.76162 0.30507 0.0
C183 C 0.77444 0.79106 0.34799 0.0
C184 C 0.76402 0.8559 0.40129 0.0
C185 C 0.77798 0.89142 0.39121 0.0
C186 C 0.77855 0.92399 0.42987 0.0
C187 C 0.76562 0.92136 0.47935 0.0
C188 C 0.75416 0.88534 0.49066 0.0
C189 C 0.75284 0.85303 0.4517 0.0
C190 C 0.69508 0.86429 0.32661 0.0
C191 C 0.69791 0.89289 0.29394 0.0
C192 C 0.67509 0.92537 0.29946 0.0
C193 C 0.64899 0.92974 0.33771 0.0
C194 C 0.64621 0.90086 0.37025 0.0
C195 C 0.6692 0.86849 0.36487 0.0
C196 C 0.67349 0.80757 0.23466 0.0
C197 C 0.6806 0.81716 0.185 0.0
C198 C 0.64961 0.82717 0.14855 0.0
C199 C 0.61143 0.82762 0.16166 0.0
C200 C 0.60417 0.8175 0.21094 0.0
C201 C 0.63515 0.80733 0.24734 0.0
C202 C 0.71412 0.73672 0.2217 0.0
C203 C 0.73489 0.73042 0.17765 0.0
C204 C 0.7222 0.702 0.13443 0.0
C205 C 0.68717 0.68085 0.13296 0.0
C206 C 0.6655 0.68836 0.17616 0.0
C207 C 0.67918 0.71568 0.22049 0.0
C208 C 0.78076 0.72399 0.30035 0.0
C209 C 0.80554 0.71463 0.26126 0.0
C210 C 0.81163 0.67623 0.24259 0.0
C211 C 0.79413 0.64696 0.26426 0.0
C212 C 0.77458 0.65662 0.30909 0.0
C213 C 0.76732 0.69494 0.32643 0.0
C214 C 0.81386 0.78928 0.37876 0.0
C215 C 0.84663 0.79379 0.35283 0.0
C216 C 0.88423 0.7954 0.38164 0.0
C217 C 0.88943 0.79294 0.43684 0.0
C218 C 0.85689 0.78718 0.46264 0.0
C219 C 0.81911 0.78498 0.43349 0.0
C220 C 0.62479 0.96428 0.34351 0.0
C221 C 0.67311 0.65127 0.08644 0.0
H222 H 0.39757 0.08522 0.3938 0.0
H223 H 0.34242 0.84218 0.94414 0.0
H224 H 0.25075 0.923 0.39053 0.0
H225 H 0.25013 0.98671 0.44242 0.0
H226 H 0.17299 0.02435 0.31132 0.0
H227 H 0.17317 0.96042 0.26018 0.0
H228 H 0.32545 0.93126 0.34087 0.0
H229 H 0.36434 0.99062 0.37248 0.0
H230 H 0.28808 0.04876 0.26086 0.0
H231 H 0.2497 0.98911 0.22943 0.0
H232 H 0.34532 0.86692 0.25475 0.0
H233 H 0.40328 0.86219 0.2084 0.0
H234 H 0.34972 0.93537 0.0973 0.0
H235 H 0.29133 0.93944 0.14341 0.0
H236 H 0.30535 0.8069 0.1828 0.0
H237 H 0.34136 0.79243 0.10599 0.0
H238 H 0.26481 0.8646 0.01671 0.0
H239 H 0.22965 0.87967 0.09401 0.0
H240 H 0.22061 0.78491 0.26265 0.0
H241 H 0.21786 0.72103 0.21055 0.0
H242 H 0.18156 0.77037 0.06548 0.0
H243 H 0.17701 0.83241 0.11868 0.0
H244 H 0.22221 0.83349 0.34695 0.0
H245 H 0.17738 0.81964 0.40863 0.0
H246 H 0.08425 0.87392 0.31598 0.0
H247 H 0.1294 0.88624 0.253 0.0
O248 O 0.38249 0.06182 0.37976 0.0
O249 O 0.34413 0.08968 0.31907 0.0
O250 O 0.35415 0.79622 0.00949 0.0
O251 O 0.32654 0.84503 0.97298 0.0
C252 C 0.22835 0.90924 0.28245 0.0
C253 C 0.26256 0.91965 0.26204 0.0
C254 C 0.27552 0.89579 0.21973 0.0
C255 C 0.25266 0.86323 0.19459 0.0
C256 C 0.21995 0.851 0.21743 0.0
C257 C 0.20865 0.87364 0.26326 0.0
C258 C 0.21256 0.93759 0.3215 0.0
C259 C 0.2317 0.94426 0.37455 0.0
C260 C 0.23163 0.9807 0.40377 0.0
C261 C 0.21255 0.01045 0.37981 0.0
C262 C 0.18806 0.00188 0.33038 0.0
C263 C 0.18801 0.96533 0.30127 0.0
C264 C 0.28457 0.95614 0.28342 0.0
C265 C 0.31713 0.95694 0.32358 0.0
C266 C 0.33941 0.9908 0.34127 0.0
C267 C 0.32946 0.02441 0.31897 0.0
C268 C 0.29668 0.02337 0.27867 0.0
C269 C 0.27454 0.98947 0.26095 0.0
C270 C 0.31407 0.90333 0.20224 0.0
C271 C 0.34666 0.88305 0.22161 0.0
C272 C 0.37948 0.87999 0.19477 0.0
C273 C 0.38059 0.89793 0.14887 0.0
C274 C 0.34951 0.92127 0.13261 0.0
C275 C 0.31634 0.92385 0.15907 0.0
C276 C 0.26418 0.84345 0.14361 0.0
C277 C 0.29499 0.8178 0.1456 0.0
C278 C 0.31579 0.80993 0.10194 0.0
C279 C 0.30581 0.8271 0.0553 0.0
C280 C 0.27332 0.85091 0.05213 0.0
C281 C 0.25265 0.85893 0.09584 0.0
C282 C 0.20036 0.81365 0.19413 0.0
C283 C 0.20872 0.78151 0.22037 0.0
C284 C 0.20784 0.74503 0.19034 0.0
C285 C 0.20181 0.74118 0.13388 0.0
C286 C 0.18705 0.77233 0.10892 0.0
C287 C 0.18471 0.80806 0.13939 0.0
C288 C 0.17898 0.86001 0.29453 0.0
C289 C 0.19181 0.84138 0.339 0.0
C290 C 0.16618 0.83412 0.3749 0.0
C291 C 0.12702 0.846 0.36803 0.0
C292 C 0.11394 0.86389 0.32249 0.0
C293 C 0.13969 0.8709 0.28623 0.0
C294 C 0.35245 0.06062 0.33896 0.0
C295 C 0.33028 0.82167 0.01125 0.0
H296 H 0.49338 0.07615 0.75414 0.0
H297 H 0.06975 0.99299 0.51855 0.0
H298 H 0.37725 0.90125 0.74377 0.0
H299 H 0.43788 0.88467 0.79814 0.0
H300 H 0.38407 0.91067 0.9421 0.0
H301 H 0.32334 0.92776 0.88774 0.0
H302 H 0.36082 0.96811 0.67941 0.0
H303 H 0.41892 0.01078 0.69542 0.0
H304 H 0.39648 0.04663 0.85825 0.0
H305 H 0.33803 0.00432 0.8414 0.0
H306 H 0.28534 0.96294 0.60459 0.0
H307 H 0.28444 0.01718 0.55299 0.0
H308 H 0.27104 0.09478 0.69576 0.0
H309 H 0.27133 0.04037 0.74723 0.0
H310 H 0.23348 0.9045 0.59872 0.0
H311 H 0.17998 0.91421 0.52796 0.0
H312 H 0.12934 0.99519 0.64141 0.0
H313 H 0.18272 0.9845 0.71224 0.0
H314 H 0.22911 0.84935 0.65149 0.0
H315 H 0.1647 0.82103 0.61367 0.0
H316 H 0.11722 0.87323 0.75429 0.0
H317 H 0.18036 0.90694 0.78747 0.0
H318 H 0.32051 0.83516 0.76754 0.0
H319 H 0.32032 0.78244 0.82006 0.0
H320 H 0.22698 0.83567 0.89915 0.0
H321 H 0.23106 0.88982 0.85088 0.0
O322 O 0.47007 0.05972 0.74853 0.0
O323 O 0.45741 0.07695 0.83202 0.0
O324 O 0.11553 0.94288 0.49137 0.0
O325 O 0.09115 0.98852 0.54592 0.0
C326 C 0.3097 0.92499 0.77846 0.0
C327 C 0.31007 0.95701 0.74962 0.0
C328 C 0.27761 0.96367 0.71144 0.0
C329 C 0.24482 0.93802 0.70295 0.0
C330 C 0.24372 0.90711 0.73374 0.0
C331 C 0.27607 0.90029 0.77214 0.0
C332 C 0.34608 0.91572 0.81198 0.0
C333 C 0.37866 0.90372 0.78709 0.0
C334 C 0.41306 0.89432 0.81786 0.0
C335 C 0.41509 0.89671 0.87373 0.0
C336 C 0.38274 0.90896 0.89886 0.0
C337 C 0.34827 0.91848 0.86805 0.0
C338 C 0.34505 0.98333 0.75911 0.0
C339 C 0.36828 0.98549 0.71833 0.0
C340 C 0.40157 0.00975 0.72768 0.0
C341 C 0.41236 0.03213 0.77813 0.0
C342 C 0.38899 0.02982 0.81893 0.0
C343 C 0.35561 0.00567 0.80944 0.0
C344 C 0.27797 0.99721 0.67998 0.0
C345 C 0.28188 0.99153 0.62486 0.0
C346 C 0.28157 0.02262 0.59537 0.0
C347 C 0.27746 0.06035 0.62013 0.0
C348 C 0.27399 0.0661 0.67538 0.0
C349 C 0.27425 0.03497 0.70488 0.0
C350 C 0.21159 0.94336 0.66073 0.0
C351 C 0.21049 0.92391 0.60838 0.0
C352 C 0.17998 0.92962 0.56799 0.0
C353 C 0.15025 0.95535 0.57907 0.0
C354 C 0.1517 0.97509 0.63155 0.0
C355 C 0.18206 0.96901 0.67211 0.0
C356 C 0.20929 0.88046 0.72186 0.0
C357 C 0.20502 0.85407 0.67468 0.0
C358 C 0.1683 0.83755 0.65346 0.0
C359 C 0.13591 0.84529 0.68102 0.0
C360 C 0.14174 0.86718 0.73225 0.0
C361 C 0.17786 0.88605 0.75153 0.0
C362 C 0.27522 0.86669 0.80387 0.0
C363 C 0.30016 0.83557 0.79652 0.0
C364 C 0.2995 0.80473 0.82658 0.0
C365 C 0.27312 0.80315 0.86452 0.0
C366 C 0.24822 0.83469 0.8715 0.0
C367 C 0.24979 0.86593 0.84257 0.0
C368 C 0.44791 0.05766 0.78806 0.0
C369 C 0.11801 0.96175 0.53603 0.0
H370 H 0.11056 0.58973 0.90081 0.0
H371 H 0.14048 0.28966 0.52321 0.0
H372 H 0.33263 0.48051 0.81876 0.0
H373 H 0.33845 0.54976 0.84603 0.0
H374 H 0.29451 0.53643 0.9936 0.0
H375 H 0.28965 0.46671 0.96699 0.0
H376 H 0.21767 0.49322 0.78649 0.0
H377 H 0.16881 0.53665 0.8192 0.0
H378 H 0.17843 0.48569 0.96581 0.0
H379 H 0.22362 0.43915 0.9298 0.0
H380 H 0.22635 0.43821 0.69073 0.0
H381 H 0.16597 0.42903 0.6255 0.0
H382 H 0.10681 0.3827 0.74247 0.0
H383 H 0.16801 0.38949 0.80647 0.0
H384 H 0.28919 0.39022 0.67185 0.0
H385 H 0.25801 0.36125 0.58248 0.0
H386 H 0.18382 0.29086 0.65589 0.0
H387 H 0.21476 0.32052 0.7452 0.0
H388 H 0.35655 0.37508 0.7318 0.0
H389 H 0.36396 0.31921 0.66608 0.0
H390 H 0.30599 0.24845 0.75908 0.0
H391 H 0.29785 0.30466 0.82392 0.0
H392 H 0.39068 0.40554 0.8298 0.0
H393 H 0.44861 0.38389 0.88494 0.0
H394 H 0.37592 0.356 1.00025 0.0
H395 H 0.31788 0.3774 0.94489 0.0
O396 O 0.12835 0.57082 0.88754 0.0
O397 O 0.13333 0.54285 0.96153 0.0
O398 O 0.20508 0.31938 0.51796 0.0
O399 O 0.15826 0.29495 0.55659 0.0
C400 C 0.29071 0.43242 0.86235 0.0
C401 C 0.25212 0.4345 0.83464 0.0
C402 C 0.24038 0.40998 0.78607 0.0
C403 C 0.26601 0.38178 0.7677 0.0
C404 C 0.30212 0.37646 0.79952 0.0
C405 C 0.3143 0.40139 0.84746 0.0
C406 C 0.30983 0.46873 0.89037 0.0
C407 C 0.32637 0.49221 0.85841 0.0
C408 C 0.32943 0.53171 0.87367 0.0
C409 C 0.31626 0.54794 0.9212 0.0
C410 C 0.30464 0.52416 0.95658 0.0
C411 C 0.30185 0.48447 0.94146 0.0
C412 C 0.22453 0.46305 0.85583 0.0
C413 C 0.20887 0.49106 0.82535 0.0
C414 C 0.18137 0.5163 0.84452 0.0
C415 C 0.17057 0.51546 0.89578 0.0
C416 C 0.18643 0.48747 0.92639 0.0
C417 C 0.21257 0.46108 0.90611 0.0
C418 C 0.20175 0.41366 0.75284 0.0
C419 C 0.20024 0.4264 0.70246 0.0
C420 C 0.16594 0.42117 0.66532 0.0
C421 C 0.13246 0.40408 0.67869 0.0
C422 C 0.13279 0.39501 0.73105 0.0
C423 C 0.16744 0.39926 0.7677 0.0
C424 C 0.25408 0.35757 0.71491 0.0
C425 C 0.26699 0.36773 0.66856 0.0
C426 C 0.24893 0.35137 0.61757 0.0
C427 C 0.21752 0.32475 0.61231 0.0
C428 C 0.20692 0.31237 0.65881 0.0
C429 C 0.22497 0.32876 0.70979 0.0
C430 C 0.32575 0.34383 0.78155 0.0
C431 C 0.34788 0.3471 0.73991 0.0
C432 C 0.352 0.31513 0.70226 0.0
C433 C 0.33421 0.28002 0.70679 0.0
C434 C 0.31917 0.27557 0.75438 0.0
C435 C 0.3148 0.30755 0.7917 0.0
C436 C 0.35013 0.39334 0.88355 0.0
C437 C 0.38729 0.39514 0.86718 0.0
C438 C 0.42018 0.38262 0.89839 0.0
C439 C 0.41637 0.36841 0.94656 0.0
C440 C 0.37933 0.36684 0.96315 0.0
C441 C 0.34642 0.37944 0.93198 0.0
C442 C 0.14293 0.54373 0.91707 0.0
C443 C 0.1937 0.31238 0.55924 0.0
H444 H 0.93922 0.49319 0.00895 0.0
H445 H 0.88263 0.14523 0.55661 0.0
H446 H 0.79508 0.31034 0.9811 0.0
H447 H 0.7921 0.36247 0.0557 0.0
H448 H 0.75692 0.43982 0.94114 0.0
H449 H 0.75747 0.38733 0.8671 0.0
H450 H 0.87422 0.33785 0.93886 0.0
H451 H 0.9091 0.39788 0.97934 0.0
H452 H 0.85328 0.45325 0.84771 0.0
H453 H 0.8182 0.39321 0.8081 0.0
H454 H 0.90854 0.29293 0.81145 0.0
H455 H 0.95096 0.31644 0.75221 0.0
H456 H 0.8499 0.36383 0.66488 0.0
H457 H 0.80798 0.33868 0.7225 0.0
H458 H 0.85931 0.20673 0.81012 0.0
H459 H 0.88637 0.16053 0.74461 0.0
H460 H 0.8213 0.21144 0.61494 0.0
H461 H 0.79514 0.25817 0.6809 0.0
H462 H 0.78508 0.19614 0.87424 0.0
H463 H 0.77572 0.12797 0.83843 0.0
H464 H 0.72535 0.15732 0.68433 0.0
H465 H 0.73264 0.22559 0.72108 0.0
H466 H 0.7422 0.23901 0.92695 0.0
H467 H 0.68324 0.24764 0.97015 0.0
H468 H 0.64441 0.33268 0.86791 0.0
H469 H 0.70166 0.32129 0.82232 0.0
O470 O 0.92636 0.4694 0.99113 0.0
O471 O 0.89917 0.49594 0.9207 0.0
O472 O 0.89106 0.12777 0.64864 0.0
O473 O 0.87098 0.1621 0.58314 0.0
C474 C 0.78747 0.31686 0.87411 0.0
C475 C 0.81994 0.32555 0.84938 0.0
C476 C 0.82932 0.30049 0.80533 0.0
C477 C 0.8103 0.26435 0.79056 0.0
C478 C 0.77795 0.25501 0.81555 0.0
C479 C 0.76509 0.28254 0.85506 0.0
C480 C 0.77672 0.3451 0.91868 0.0
C481 C 0.78542 0.3382 0.97222 0.0
C482 C 0.7843 0.36802 0.01462 0.0
C483 C 0.77522 0.40521 0.00387 0.0
C484 C 0.76438 0.41146 0.95035 0.0
C485 C 0.76449 0.38152 0.90818 0.0
C486 C 0.84416 0.36101 0.87015 0.0
C487 C 0.87005 0.36284 0.91843 0.0
C488 C 0.88976 0.39722 0.94159 0.0
C489 C 0.8839 0.4304 0.91684 0.0
C490 C 0.85853 0.42821 0.86777 0.0
C491 C 0.83877 0.39383 0.84473 0.0
C492 C 0.85551 0.31413 0.7707 0.0
C493 C 0.89587 0.30834 0.77936 0.0
C494 C 0.91993 0.32221 0.74602 0.0
C495 C 0.90371 0.34213 0.70403 0.0
C496 C 0.86318 0.34818 0.69633 0.0
C497 C 0.83925 0.33397 0.72917 0.0
C498 C 0.82554 0.23589 0.75021 0.0
C499 C 0.85101 0.2079 0.76754 0.0
C500 C 0.8663 0.1815 0.73008 0.0
C501 C 0.85629 0.18265 0.6746 0.0
C502 C 0.83013 0.21032 0.65739 0.0
C503 C 0.81505 0.2369 0.69492 0.0
C504 C 0.75945 0.21602 0.80044 0.0
C505 C 0.77006 0.18799 0.83366 0.0
C506 C 0.76545 0.14909 0.81288 0.0
C507 C 0.75115 0.13772 0.75824 0.0
C508 C 0.73693 0.16553 0.72644 0.0
C509 C 0.74078 0.20445 0.74754 0.0
C510 C 0.72596 0.27931 0.87138 0.0
C511 C 0.72 0.25807 0.9123 0.0
C512 C 0.68667 0.26381 0.9377 0.0
C513 C 0.65954 0.29178 0.92364 0.0
C514 C 0.66436 0.31084 0.87979 0.0
C515 C 0.69713 0.30435 0.85361 0.0
C516 C 0.9036 0.46725 0.94275 0.0
C517 C 0.87372 0.15567 0.63482 0.0
H518 H 0.04846 0.6473 0.84609 0.0
H519 H 0.60508 0.70832 0.01547 0.0
H520 H 0.89225 0.82218 0.84016 0.0
H521 H 0.93335 0.83752 0.77388 0.0
H522 H 0.8847 0.73806 0.66497 0.0
H523 H 0.84341 0.72334 0.73097 0.0
H524 H 0.9226 0.75162 0.89212 0.0
H525 H 0.98261 0.71673 0.88058 0.0
H526 H 0.91292 0.62096 0.78863 0.0
H527 H 0.85312 0.65636 0.80005 0.0
H528 H 0.86891 0.70733 0.97841 0.0
H529 H 0.86463 0.65524 0.03202 0.0
H530 H 0.78075 0.59456 0.90469 0.0
H531 H 0.78548 0.64671 0.85117 0.0
H532 H 0.78912 0.7631 0.00344 0.0
H533 H 0.73407 0.76167 0.05453 0.0
H534 H 0.66885 0.68617 0.92217 0.0
H535 H 0.72376 0.68864 0.87103 0.0
H536 H 0.76925 0.82981 0.95118 0.0
H537 H 0.7066 0.85345 0.9754 0.0
H538 H 0.64506 0.77929 0.83846 0.0
H539 H 0.70789 0.75507 0.81584 0.0
H540 H 0.83512 0.85438 0.87802 0.0
H541 H 0.81786 0.91218 0.8372 0.0
H542 H 0.73458 0.84463 0.71561 0.0
H543 H 0.75447 0.78697 0.754 0.0
O544 O 0.02435 0.6607 0.8497 0.0
O545 O 0.98728 0.61256 0.80167 0.0
O546 O 0.66167 0.74934 0.06155 0.0
O547 O 0.62847 0.70658 0.9982 0.0
C548 C 0.83979 0.76143 0.83082 0.0
C549 C 0.84738 0.72788 0.85471 0.0
C550 C 0.82098 0.71557 0.88721 0.0
C551 C 0.78777 0.73694 0.89747 0.0
C552 C 0.78018 0.77031 0.87406 0.0
C553 C 0.80645 0.78266 0.84174 0.0
C554 C 0.86437 0.77182 0.79039 0.0
C555 C 0.88996 0.80408 0.80165 0.0
C556 C 0.91354 0.81275 0.76372 0.0
C557 C 0.91246 0.789 0.71401 0.0
C558 C 0.8867 0.75676 0.70298 0.0
C559 C 0.86291 0.74838 0.74061 0.0
C560 C 0.88354 0.70644 0.84715 0.0
C561 C 0.92038 0.72313 0.86939 0.0
C562 C 0.9546 0.70311 0.86281 0.0
C563 C 0.95258 0.666 0.8338 0.0
C564 C 0.91553 0.64945 0.81131 0.0
C565 C 0.88132 0.66953 0.81791 0.0
C566 C 0.8274 0.68046 0.91142 0.0
C567 C 0.85094 0.68202 0.96136 0.0
C568 C 0.84836 0.65243 0.99177 0.0
C569 C 0.82195 0.62142 0.97239 0.0
C570 C 0.80095 0.6185 0.92037 0.0
C571 C 0.80384 0.64793 0.88982 0.0
C572 C 0.76057 0.72574 0.93371 0.0
C573 C 0.76349 0.74515 0.98634 0.0
C574 C 0.73176 0.74472 0.01512 0.0
C575 C 0.69677 0.72435 0.99199 0.0
C576 C 0.69523 0.70239 0.94098 0.0
C577 C 0.72681 0.70323 0.91197 0.0
C578 C 0.74316 0.79083 0.88169 0.0
C579 C 0.74226 0.81946 0.92569 0.0
C580 C 0.70632 0.83287 0.93945 0.0
C581 C 0.67055 0.81805 0.90919 0.0
C582 C 0.67185 0.79087 0.8633 0.0
C583 C 0.70777 0.77738 0.84978 0.0
C584 C 0.79708 0.81687 0.81718 0.0
C585 C 0.81372 0.85232 0.84197 0.0
C586 C 0.80316 0.88518 0.81958 0.0
C587 C 0.77524 0.88254 0.77314 0.0
C588 C 0.75683 0.84711 0.75079 0.0
C589 C 0.76824 0.8143 0.77219 0.0
C590 C 0.989 0.64471 0.82727 0.0
C591 C 0.66141 0.72748 0.01962 0.0
C592 C 0.07254 0.42501 0.61991 0.0
C593 C 0.07836 0.46316 0.64245 0.0
C594 C 0.04718 0.48236 0.62057 0.0
C595 C 0.02411 0.45497 0.58624 0.0
N596 N 0.0388 0.41962 0.58466 0.0
Co597 Co 0.0141 0.37174 0.54093 0.0
N598 N 0.97576 0.4013 0.49692 0.0
C599 C 0.96937 0.4391 0.50709 0.0
C600 C 0.94156 0.45182 0.46984 0.0
C601 C 0.92875 0.41995 0.43441 0.0
C602 C 0.94932 0.38946 0.45248 0.0
N603 N 0.98932 0.32384 0.49688 0.0
C604 C 0.96148 0.31881 0.4525 0.0
C605 C 0.95278 0.28007 0.43555 0.0
C606 C 0.97489 0.26039 0.47102 0.0
C607 C 0.99573 0.28786 0.50769 0.0
N608 N 0.05207 0.34222 0.5852 0.0
C609 C 0.04989 0.30431 0.58727 0.0
C610 C 0.0794 0.29188 0.62232 0.0
C611 C 0.10149 0.32398 0.64428 0.0
C612 C 0.08415 0.35434 0.62128 0.0
N613 N 0.97761 0.36938 0.59267 0.0
C614 C 0.92851 0.3544 0.6662 0.0
C615 C 0.96691 0.36835 0.68409 0.0
C616 C 0.99092 0.37574 0.6467 0.0
C617 C 0.9145 0.35035 0.61114 0.0
C618 C 0.93945 0.3581 0.5753 0.0
N619 N 0.05136 0.3737 0.48999 0.0
C620 C 0.10006 0.34287 0.4409 0.0
C621 C 0.10959 0.37754 0.42438 0.0
C622 C 0.08869 0.41003 0.44014 0.0
C623 C 0.05968 0.40748 0.47279 0.0
C624 C 0.07092 0.34158 0.47363 0.0
H625 H 0.04457 0.43306 0.4848 0.0
H626 H 0.06497 0.31466 0.48653 0.0
H627 H 0.02065 0.38521 0.66174 0.0
H628 H 0.92815 0.35331 0.53352 0.0
C629 C 0.99165 0.46217 0.54997 0.0
C630 C 0.09756 0.39441 0.63716 0.0
C631 C 0.93754 0.34951 0.43203 0.0
C632 C 0.02295 0.28073 0.55099 0.0
H633 H 0.10229 0.47571 0.67226 0.0
H634 H 0.04238 0.5128 0.6279 0.0
H635 H 0.93156 0.48074 0.46878 0.0
H636 H 0.90542 0.41879 0.40071 0.0
H637 H 0.93154 0.26693 0.40253 0.0
H638 H 0.97531 0.22967 0.47052 0.0
H639 H 0.0848 0.26282 0.63001 0.0
H640 H 0.12712 0.32482 0.67435 0.0
H641 H 0.97862 0.37281 0.72651 0.0
H642 H 0.88502 0.33964 0.5953 0.0
H643 H 0.11571 0.31713 0.42988 0.0
H644 H 0.09476 0.4373 0.42743 0.0
C645 C 0.7191 0.07282 0.71493 0.0
C646 C 0.68319 0.07939 0.73276 0.0
C647 C 0.65862 0.04925 0.70811 0.0
C648 C 0.68094 0.02603 0.67686 0.0
N649 N 0.71795 0.0397 0.68059 0.0
Co650 Co 0.75976 0.0165 0.64109 0.0
N651 N 0.72086 0.98546 0.58631 0.0
C652 C 0.68294 0.97887 0.59102 0.0
C653 C 0.66289 0.95654 0.54679 0.0
C654 C 0.69006 0.94784 0.5127 0.0
C655 C 0.72548 0.96506 0.53825 0.0
N656 N 0.80215 0.99315 0.6022 0.0
C657 C 0.80009 0.97134 0.55332 0.0
C658 C 0.83713 0.95931 0.54361 0.0
C659 C 0.86298 0.97351 0.5882 0.0
C660 C 0.84053 0.99331 0.62266 0.0
N661 N 0.79827 0.04782 0.69591 0.0
C662 C 0.83697 0.04194 0.70637 0.0
C663 C 0.85629 0.06968 0.74462 0.0
C664 C 0.82793 0.09448 0.7591 0.0
C665 C 0.79269 0.08031 0.72893 0.0
N666 N 0.76321 0.97541 0.68418 0.0
C667 C 0.76936 0.91507 0.74332 0.0
C668 C 0.76634 0.95241 0.76916 0.0
C669 C 0.76328 0.98243 0.73856 0.0
C670 C 0.76923 0.90859 0.68784 0.0
C671 C 0.76581 0.93895 0.65916 0.0
N672 N 0.75607 0.05726 0.5978 0.0
C673 C 0.7873 0.10238 0.55448 0.0
C674 C 0.75063 0.11548 0.53547 0.0
C675 C 0.71664 0.09914 0.5477 0.0
C676 C 0.72001 0.06951 0.57843 0.0
C677 C 0.78945 0.0736 0.5866 0.0
H678 H 0.69346 0.05659 0.58648 0.0
H679 H 0.81804 0.06451 0.60217 0.0
H680 H 0.76119 0.01121 0.75869 0.0
H681 H 0.7658 0.93261 0.61667 0.0
C682 C 0.66636 0.99715 0.63494 0.0
C683 C 0.75423 0.09742 0.73287 0.0
C684 C 0.76352 0.95613 0.51958 0.0
C685 C 0.85486 0.01546 0.67184 0.0
H686 H 0.67556 0.1036 0.76015 0.0
H687 H 0.62761 0.04596 0.71019 0.0
H688 H 0.63217 0.94781 0.53993 0.0
H689 H 0.68486 0.92954 0.4744 0.0
H690 H 0.84461 0.94091 0.50891 0.0
H691 H 0.89441 0.96987 0.59459 0.0
H692 H 0.88757 0.07287 0.758 0.0
H693 H 0.83307 0.12024 0.78788 0.0
H694 H 0.76647 0.9583 0.81227 0.0
H695 H 0.77269 0.88027 0.66655 0.0
H696 H 0.81391 0.11447 0.5448 0.0
H697 H 0.68785 0.10871 0.5328 0.0
C698 C 0.07292 0.86904 0.63431 0.0
C699 C 0.08217 0.90731 0.65482 0.0
C700 C 0.05935 0.92907 0.623 0.0
C701 C 0.03771 0.90338 0.58454 0.0
N702 N 0.04457 0.86659 0.59096 0.0
Co703 Co 0.0197 0.82101 0.54293 0.0
N704 N 0.97793 0.85225 0.50994 0.0
C705 C 0.97868 0.89049 0.51141 0.0
C706 C 0.94455 0.9039 0.48653 0.0
C707 C 0.92092 0.87202 0.46816 0.0
C708 C 0.94219 0.84091 0.48293 0.0
N709 N 0.99476 0.77576 0.49447 0.0
C710 C 0.95781 0.77106 0.4678 0.0
C711 C 0.95181 0.73481 0.43828 0.0
C712 C 0.98646 0.71623 0.44714 0.0
C713 C 0.01153 0.74212 0.48138 0.0
N714 N 0.0613 0.78945 0.57591 0.0
C715 C 0.0699 0.75347 0.55631 0.0
C716 C 0.09883 0.73814 0.58921 0.0
C717 C 0.10966 0.76643 0.6316 0.0
C718 C 0.08705 0.79783 0.62174 0.0
N719 N 0.98685 0.8116 0.59767 0.0
C720 C 0.93856 0.79714 0.67414 0.0
C721 C 0.95769 0.76739 0.64646 0.0
C722 C 0.98167 0.77519 0.6088 0.0
C723 C 0.94451 0.83445 0.6629 0.0
C724 C 0.96852 0.84101 0.62447 0.0
N725 N 0.05264 0.83023 0.48799 0.0
C726 C 0.11614 0.84453 0.46429 0.0
C727 C 0.10081 0.84095 0.40941 0.0
C728 C 0.0604 0.83252 0.39508 0.0
C729 C 0.03695 0.82732 0.43478 0.0
C730 C 0.09182 0.83904 0.50255 0.0
H731 H 0.00611 0.82055 0.42228 0.0
H732 H 0.10499 0.84179 0.54403 0.0
H733 H 0.99588 0.75156 0.58849 0.0
H734 H 0.97196 0.8699 0.61615 0.0
C735 C 0.0078 0.91289 0.54581 0.0
C736 C 0.0956 0.83647 0.65165 0.0
C737 C 0.92865 0.80093 0.46824 0.0
C738 C 0.04694 0.73342 0.51087 0.0
H739 H 0.10387 0.91908 0.68812 0.0
H740 H 0.05848 0.95999 0.62769 0.0
H741 H 0.93688 0.93342 0.48465 0.0
H742 H 0.89137 0.87178 0.44678 0.0
H743 H 0.92511 0.72295 0.41351 0.0
H744 H 0.99193 0.68668 0.43281 0.0
H745 H 0.11025 0.7096 0.58357 0.0
H746 H 0.13274 0.76475 0.66488 0.0
H747 H 0.95453 0.73817 0.65418 0.0
H748 H 0.93011 0.85835 0.68286 0.0
H749 H 0.14684 0.85184 0.47802 0.0
H750 H 0.04698 0.8292 0.35337 0.0
C751 C 0.31208 0.1042 0.56587 0.0
C752 C 0.34791 0.08702 0.57658 0.0
C753 C 0.37304 0.10253 0.54768 0.0
C754 C 0.35145 0.12852 0.52137 0.0
N755 N 0.31403 0.13074 0.53186 0.0
Co756 Co 0.27316 0.16553 0.50147 0.0
N757 N 0.30905 0.18559 0.45468 0.0
C758 C 0.34574 0.17372 0.44957 0.0
C759 C 0.36376 0.19241 0.41527 0.0
C760 C 0.33714 0.21798 0.39753 0.0
C761 C 0.30416 0.2135 0.42205 0.0
N762 N 0.23294 0.20152 0.47274 0.0
C763 C 0.23507 0.22824 0.43892 0.0
C764 C 0.19946 0.24582 0.42858 0.0
C765 C 0.17425 0.23029 0.45731 0.0
C766 C 0.19585 0.20464 0.48424 0.0
N767 N 0.23665 0.14427 0.54644 0.0
C768 C 0.19862 0.15333 0.54726 0.0
C769 C 0.17958 0.13245 0.57806 0.0
C770 C 0.20683 0.10809 0.59756 0.0
C771 C 0.24129 0.11565 0.57782 0.0
N772 N 0.29266 0.20578 0.56157 0.0
C773 C 0.32117 0.25296 0.65766 0.0
C774 C 0.28126 0.24337 0.64415 0.0
C775 C 0.26761 0.22075 0.59576 0.0
C776 C 0.34646 0.24031 0.62099 0.0
C777 C 0.33166 0.21658 0.57342 0.0
N778 N 0.25358 0.1241 0.44292 0.0
C779 C 0.19949 0.07994 0.40572 0.0
C780 C 0.2257 0.05032 0.39954 0.0
C781 C 0.26579 0.05934 0.40825 0.0
C782 C 0.27891 0.09664 0.42724 0.0
C783 C 0.21411 0.11676 0.42726 0.0
H784 H 0.3098 0.10205 0.43239 0.0
H785 H 0.19297 0.13825 0.43297 0.0
H786 H 0.23673 0.2153 0.58713 0.0
H787 H 0.35233 0.20709 0.54722 0.0
C788 C 0.36398 0.14818 0.48221 0.0
C789 C 0.277 0.09366 0.5882 0.0
C790 C 0.26965 0.23754 0.4146 0.0
C791 C 0.18165 0.18147 0.51826 0.0
H792 H 0.35498 0.06502 0.60193 0.0
H793 H 0.40314 0.09489 0.54489 0.0
H794 H 0.39333 0.18887 0.40582 0.0
H795 H 0.34187 0.2383 0.37061 0.0
H796 H 0.19233 0.26738 0.40251 0.0
H797 H 0.14359 0.23657 0.45786 0.0
H798 H 0.14924 0.13423 0.58475 0.0
H799 H 0.20158 0.08662 0.62255 0.0
H800 H 0.26038 0.25386 0.67049 0.0
H801 H 0.37741 0.24829 0.62923 0.0
H802 H 0.16809 0.07445 0.39627 0.0
H803 H 0.28702 0.03751 0.40139 0.0
C804 C 0.57543 0.87814 0.11435 0.0
C805 C 0.59625 0.90813 0.14811 0.0
C806 C 0.58775 0.94046 0.12528 0.0
C807 C 0.56221 0.92843 0.07928 0.0
N808 N 0.55364 0.89039 0.07164 0.0
Co809 Co 0.51735 0.86075 0.0111 0.0
N810 N 0.50721 0.90766 0.9753 0.0
C811 C 0.52431 0.94287 0.99078 0.0
C812 C 0.51005 0.96947 0.95888 0.0
C813 C 0.48163 0.95028 0.92146 0.0
C814 C 0.48022 0.91302 0.93297 0.0
N815 N 0.47978 0.83142 0.9515 0.0
C816 C 0.4545 0.84459 0.91275 0.0
C817 C 0.43039 0.81548 0.88218 0.0
C818 C 0.44038 0.7827 0.90297 0.0
C819 C 0.46976 0.79372 0.94488 0.0
N820 N 0.52835 0.81341 0.04577 0.0
C821 C 0.51398 0.77745 0.02724 0.0
C822 C 0.52886 0.75049 0.05797 0.0
C823 C 0.55471 0.77026 0.09823 0.0
C824 C 0.55381 0.80835 0.08976 0.0
N825 N 0.47295 0.87276 0.05254 0.0
C826 C 0.41244 0.88957 0.11564 0.0
C827 C 0.42091 0.85177 0.09753 0.0
C828 C 0.4505 0.84406 0.06543 0.0
C829 C 0.4342 0.91888 0.10093 0.0
C830 C 0.46446 0.90992 0.07022 0.0
N831 N 0.56242 0.84888 0.97052 0.0
C832 C 0.60135 0.80245 0.92308 0.0
C833 C 0.63224 0.82929 0.92725 0.0
C834 C 0.62655 0.86661 0.95101 0.0
C835 C 0.5918 0.87569 0.972 0.0
C836 C 0.5669 0.81286 0.94427 0.0
H837 H 0.58986 0.90445 0.99037 0.0
H838 H 0.54475 0.79097 0.94018 0.0
H839 H 0.45472 0.81466 0.05163 0.0
H840 H 0.4807 0.9336 0.06163 0.0
C841 C 0.54867 0.95136 0.04015 0.0
C842 C 0.57893 0.83834 0.12301 0.0
C843 C 0.45061 0.88464 0.90587 0.0
C844 C 0.48655 0.76992 0.98082 0.0
H845 H 0.61622 0.90657 0.18475 0.0
H846 H 0.59973 0.9691 0.13962 0.0
H847 H 0.51766 0.99973 0.96423 0.0
H848 H 0.46282 0.96265 0.89075 0.0
H849 H 0.40712 0.81791 0.8494 0.0
H850 H 0.42679 0.75451 0.8904 0.0
H851 H 0.52217 0.72002 0.05139 0.0
H852 H 0.57266 0.75787 0.12968 0.0
H853 H 0.40435 0.82817 0.10746 0.0
H854 H 0.42848 0.94859 0.11407 0.0
H855 H 0.60411 0.77306 0.90523 0.0
H856 H 0.64902 0.8888 0.95406 0.0
C857 C 0.19612 0.69129 0.0503 0.0
C858 C 0.15566 0.694 0.03834 0.0
C859 C 0.14578 0.68103 0.98449 0.0
C860 C 0.18049 0.67063 0.96662 0.0
N861 N 0.21143 0.67561 0.00625 0.0
Co862 Co 0.26627 0.66277 0.99815 0.0
N863 N 0.2493 0.62973 0.92961 0.0
C864 C 0.21591 0.63204 0.89604 0.0
C865 C 0.21406 0.60627 0.84977 0.0
C866 C 0.24813 0.58611 0.85569 0.0
C867 C 0.26874 0.60107 0.90521 0.0
N868 N 0.32096 0.64947 0.98925 0.0
C869 C 0.33348 0.6176 0.96161 0.0
C870 C 0.37401 0.61688 0.9678 0.0
C871 C 0.38725 0.64983 0.00148 0.0
C872 C 0.35398 0.66854 0.01364 0.0
N873 N 0.28364 0.69579 0.067 0.0
C874 C 0.32096 0.70765 0.0863 0.0
C875 C 0.32505 0.72512 0.13847 0.0
C876 C 0.28797 0.72587 0.15196 0.0
C877 C 0.26278 0.70834 0.10715 0.0
N878 N 0.26217 0.61853 0.03802 0.0
C879 C 0.25606 0.55716 0.09873 0.0
C880 C 0.28968 0.58141 0.10714 0.0
C881 C 0.29206 0.61162 0.07691 0.0
C882 C 0.22589 0.56416 0.05778 0.0
C883 C 0.22956 0.59467 0.02799 0.0
N884 N 0.27026 0.70712 0.95802 0.0
C885 C 0.25485 0.77245 0.94477 0.0
C886 C 0.27198 0.76954 0.89691 0.0
C887 C 0.2881 0.73379 0.88098 0.0
C888 C 0.28702 0.70341 0.91171 0.0
C889 C 0.25472 0.74156 0.97462 0.0
H890 H 0.29939 0.67657 0.89738 0.0
H891 H 0.24166 0.74561 0.01118 0.0
H892 H 0.31835 0.62943 0.08529 0.0
H893 H 0.20577 0.59914 0.99708 0.0
C894 C 0.18447 0.652 0.915 0.0
C895 C 0.2193 0.70901 0.10124 0.0
C896 C 0.30693 0.58875 0.92844 0.0
C897 C 0.35224 0.69605 0.05844 0.0
H898 H 0.1356 0.70551 0.06535 0.0
H899 H 0.11669 0.67888 0.96141 0.0
H900 H 0.18992 0.60126 0.81709 0.0
H901 H 0.25665 0.56301 0.82727 0.0
H902 H 0.39185 0.59459 0.95077 0.0
H903 H 0.41737 0.6575 0.01852 0.0
H904 H 0.3519 0.73564 0.16409 0.0
H905 H 0.28113 0.7387 0.19052 0.0
H906 H 0.31456 0.57705 0.13667 0.0
H907 H 0.19914 0.54671 0.04922 0.0
H908 H 0.242 0.79863 0.96044 0.0
H909 H 0.30095 0.72846 0.84425 0.0
C910 C 0.48121 0.38401 0.0083 0.0
C911 C 0.48166 0.42245 0.00178 0.0
C912 C 0.51514 0.4387 0.03251 0.0
C913 C 0.53311 0.40945 0.05608 0.0
N914 N 0.51296 0.37585 0.04229 0.0
Co915 Co 0.52847 0.32642 0.06692 0.0
N916 N 0.5648 0.35292 0.12921 0.0
C917 C 0.57893 0.38921 0.13451 0.0
C918 C 0.60441 0.39958 0.18104 0.0
C919 C 0.60692 0.36771 0.20638 0.0
C920 C 0.58269 0.33945 0.17365 0.0
N921 N 0.5445 0.27691 0.09072 0.0
C922 C 0.56462 0.26965 0.13795 0.0
C923 C 0.57018 0.23062 0.13717 0.0
C924 C 0.55379 0.21313 0.0872 0.0
C925 C 0.53898 0.24225 0.06036 0.0
N926 N 0.49165 0.30053 0.00477 0.0
C927 C 0.49191 0.2635 0.98321 0.0
C928 C 0.46261 0.25397 0.94047 0.0
C929 C 0.44285 0.28716 0.9348 0.0
C930 C 0.46126 0.3151 0.97461 0.0
N931 N 0.57086 0.32287 0.023 0.0
C932 C 0.62866 0.30339 0.95763 0.0
C933 C 0.59197 0.31581 0.93581 0.0
C934 C 0.56368 0.32598 0.96936 0.0
C935 C 0.6364 0.30339 0.01331 0.0
C936 C 0.60721 0.31282 0.04496 0.0
N937 N 0.48636 0.32863 0.11094 0.0
C938 C 0.43444 0.29598 0.14232 0.0
C939 C 0.42668 0.32942 0.17507 0.0
C940 C 0.44975 0.36252 0.17552 0.0
C941 C 0.47949 0.36151 0.14313 0.0
C942 C 0.46416 0.29625 0.11052 0.0
H943 H 0.49673 0.38728 0.14374 0.0
H944 H 0.46898 0.27009 0.08536 0.0
H945 H 0.53551 0.33489 0.95157 0.0
H946 H 0.6139 0.31048 0.08703 0.0
C947 C 0.56425 0.41386 0.09833 0.0
C948 C 0.45137 0.35569 0.98007 0.0
C949 C 0.58267 0.29899 0.18167 0.0
C950 C 0.51534 0.23777 0.00995 0.0
H951 H 0.46014 0.43732 0.97754 0.0
H952 H 0.52428 0.46862 0.03882 0.0
H953 H 0.61911 0.42712 0.19517 0.0
H954 H 0.62569 0.36527 0.2437 0.0
H955 H 0.58527 0.21638 0.169 0.0
H956 H 0.55215 0.18275 0.07266 0.0
H957 H 0.45546 0.22598 0.91749 0.0
H958 H 0.41798 0.29051 0.90469 0.0
H959 H 0.58463 0.31674 0.89306 0.0
H960 H 0.66477 0.2958 0.03268 0.0
H961 H 0.41737 0.26981 0.14077 0.0
H962 H 0.44415 0.38927 0.19942 0.0
C963 C 0.75238 0.59279 0.20564 0.0
C964 C 0.7175 0.61138 0.2117 0.0
C965 C 0.68855 0.59084 0.1772 0.0
C966 C 0.70716 0.56129 0.15143 0.0
N967 N 0.74626 0.56107 0.16823 0.0
Co968 Co 0.78391 0.5217 0.14331 0.0
N969 N 0.74114 0.49253 0.0906 0.0
C970 C 0.70274 0.50126 0.0823 0.0
C971 C 0.67996 0.47512 0.04564 0.0
C972 C 0.70525 0.44805 0.02912 0.0
C973 C 0.74228 0.4595 0.05644 0.0
N974 N 0.82143 0.48192 0.11871 0.0
C975 C 0.81531 0.45058 0.08048 0.0
C976 C 0.84997 0.43153 0.07484 0.0
C977 C 0.87871 0.45096 0.11135 0.0
C978 C 0.86028 0.48085 0.13696 0.0
N979 N 0.82667 0.55113 0.19576 0.0
C980 C 0.86495 0.54206 0.20484 0.0
C981 C 0.88741 0.56797 0.24239 0.0
C982 C 0.8621 0.59545 0.25806 0.0
C983 C 0.82554 0.5847 0.22893 0.0
N984 N 0.7725 0.49105 0.19874 0.0
C985 C 0.75755 0.43216 0.25569 0.0
C986 C 0.7958 0.4455 0.25702 0.0
C987 C 0.80254 0.47531 0.229 0.0
C988 C 0.7265 0.45152 0.23148 0.0
C989 C 0.73469 0.48122 0.20359 0.0
N990 N 0.79553 0.55188 0.08749 0.0
C991 C 0.84273 0.57904 0.0406 0.0
C992 C 0.81277 0.59509 0.00904 0.0
C993 C 0.77394 0.58878 0.01636 0.0
C994 C 0.76602 0.56727 0.05583 0.0
C995 C 0.8335 0.55757 0.07922 0.0
H996 H 0.73598 0.56388 0.06057 0.0
H997 H 0.85768 0.5463 0.10215 0.0
H998 H 0.83234 0.48364 0.23026 0.0
H999 H 0.71005 0.49438 0.18428 0.0
C1000 C 0.68859 0.53335 0.11133 0.0
C1001 C 0.79065 0.60728 0.23454 0.0
C1002 C 0.77749 0.43799 0.04825 0.0
C1003 C 0.87897 0.50922 0.17677 0.0
H1004 H 0.71304 0.63738 0.23773 0.0
H1005 H 0.65762 0.59697 0.1712 0.0
H1006 H 0.64858 0.47541 0.03308 0.0
H1007 H 0.69721 0.42258 0.00042 0.0
H1008 H 0.8543 0.40632 0.04703 0.0
H1009 H 0.90952 0.44434 0.11793 0.0
H1010 H 0.91853 0.56711 0.25646 0.0
H1011 H 0.86964 0.6206 0.28756 0.0
H1012 H 0.82047 0.43177 0.27744 0.0
H1013 H 0.69634 0.44232 0.23121 0.0
H1014 H 0.8732 0.58344 0.03594 0.0
H1015 H 0.74993 0.60145 0.99304 0.0
loop_
_geom_bond_atom_site_label_1
_geom_bond_atom_site_label_2
_geom_bond_distance
_geom_bond_site_symmetry_2
_ccdc_geom_bond_type
H0 O26 0.856 . S
H1 O29 0.854 1_556 S
H2 C37 0.930 . S
H3 C38 0.930 . S
H4 C40 0.930 . S
H5 C41 0.930 . S
H6 C43 0.931 . S
H7 C44 0.930 . S
H8 C46 0.930 . S
H9 C47 0.929 . S
H10 C49 0.930 . S
H11 C50 0.931 . S
H12 C52 0.930 . S
H13 C53 0.929 . S
H14 C55 0.931 . S
H15 C56 0.930 . S
H16 C58 0.930 . S
H17 C59 0.932 . S
H18 C61 0.930 . S
H19 C62 0.929 . S
H20 C64 0.931 . S
H21 C65 0.930 . S
H22 C67 0.929 . S
H23 C68 0.931 . S
H24 C70 0.930 . S
H25 C71 0.929 . S
O26 H0 0.856 . S
O26 C72 1.300 . S
O27 C72 1.209 . S
O28 C73 1.199 . S
O29 H1 0.854 1_554 S
O29 C73 1.297 . S
C30 C31 1.404 . S
C30 C35 1.397 . S
C30 C36 1.492 . S
C31 C30 1.404 . S
C31 C32 1.396 . S
C31 C42 1.492 . S
C32 C31 1.396 . S
C32 C33 1.397 . S
C32 C48 1.509 . S
C33 C32 1.397 . S
C33 C34 1.412 . S
C33 C54 1.485 . S
C34 C33 1.412 . S
C34 C35 1.388 . S
C34 C60 1.490 . S
C35 C30 1.397 . S
C35 C34 1.388 . S
C35 C66 1.519 . S
C36 C30 1.492 . S
C36 C37 1.363 . S
C36 C41 1.390 . S
C37 H2 0.930 . S
C37 C36 1.363 . S
C37 C38 1.372 . S
C38 H3 0.930 . S
C38 C37 1.372 . S
C38 C39 1.383 . S
C39 C38 1.383 . S
C39 C40 1.395 . S
C40 H4 0.930 . S
C40 C39 1.395 . S
C40 C41 1.362 . S
C41 H5 0.930 . S
C41 C36 1.390 . S
C41 C40 1.362 . S
C42 C31 1.492 . S
C42 C43 1.377 . S
C42 C47 1.397 . S
C43 H6 0.931 . S
C43 C42 1.377 . S
C43 C44 1.376 . S
C44 H7 0.930 . S
C44 C43 1.376 . S
C44 C45 1.376 . S
C45 C44 1.376 . S
C45 C46 1.378 . S
C45 C72 1.486 . S
C46 H8 0.930 . S
C46 C45 1.378 . S
C46 C47 1.376 . S
C47 H9 0.929 . S
C47 C42 1.397 . S
C47 C46 1.376 . S
C48 C32 1.509 . S
C48 C49 1.391 . S
C48 C53 1.386 . S
C49 H10 0.930 . S
C49 C48 1.391 . S
C49 C50 1.375 . S
C50 H11 0.931 . S
C50 C49 1.375 . S
C50 C51 1.375 . S
C51 C50 1.375 . S
C51 C52 1.361 . S
C52 H12 0.930 . S
C52 C51 1.361 . S
C52 C53 1.399 . S
C53 H13 0.929 . S
C53 C48 1.386 . S
C53 C52 1.399 . S
C54 C33 1.485 . S
C54 C55 1.394 . S
C54 C59 1.360 . S
C55 H14 0.931 . S
C55 C54 1.394 . S
C55 C56 1.372 . S
C56 H15 0.930 . S
C56 C55 1.372 . S
C56 C57 1.397 . S
C57 C56 1.397 . S
C57 C58 1.390 . S
C57 C73 1.476 . S
C58 H16 0.930 . S
C58 C57 1.390 . S
C58 C59 1.366 . S
C59 H17 0.932 . S
C59 C54 1.360 . S
C59 C58 1.366 . S
C60 C34 1.490 . S
C60 C61 1.380 . S
C60 C65 1.386 . S
C61 H18 0.930 . S
C61 C60 1.380 . S
C61 C62 1.381 . S
C62 H19 0.929 . S
C62 C61 1.381 . S
C62 C63 1.371 . S
C63 C62 1.371 . S
C63 C64 1.380 . S
C64 H20 0.931 . S
C64 C63 1.380 . S
C64 C65 1.387 . S
C65 H21 0.930 . S
C65 C60 1.386 . S
C65 C64 1.387 . S
C66 C35 1.519 . S
C66 C67 1.377 . S
C66 C71 1.361 . S
C67 H22 0.929 . S
C67 C66 1.377 . S
C67 C68 1.386 . S
C68 H23 0.931 . S
C68 C67 1.386 . S
C68 C69 1.363 . S
C69 C68 1.363 . S
C69 C70 1.385 . S
C70 H24 0.930 . S
C70 C69 1.385 . S
C70 C71 1.396 . S
C71 H25 0.929 . S
C71 C66 1.361 . S
C71 C70 1.396 . S
C72 O26 1.300 . S
C72 O27 1.209 . S
C72 C45 1.486 . S
C73 O28 1.199 . S
C73 O29 1.297 . S
C73 C57 1.476 . S
H74 O100 0.856 . S
H75 O103 0.854 . S
H76 C111 0.930 . S
H77 C112 0.930 . S
H78 C114 0.930 . S
H79 C115 0.930 . S
H80 C117 0.931 . S
H81 C118 0.930 . S
H82 C120 0.930 . S
H83 C121 0.929 . S
H84 C123 0.930 . S
H85 C124 0.931 . S
H86 C126 0.930 . S
H87 C127 0.929 . S
H88 C129 0.931 . S
H89 C130 0.930 . S
H90 C132 0.930 . S
H91 C133 0.932 . S
H92 C135 0.930 . S
H93 C136 0.929 . S
H94 C138 0.931 . S
H95 C139 0.930 . S
H96 C141 0.929 . S
H97 C142 0.931 . S
H98 C144 0.930 . S
H99 C145 0.929 . S
O100 H74 0.856 . S
O100 C146 1.300 . S
O101 C146 1.209 . S
O102 C147 1.199 . S
O103 H75 0.854 . S
O103 C147 1.297 . S
C104 C105 1.404 . S
C104 C109 1.397 . S
C104 C110 1.492 . S
C105 C104 1.404 . S
C105 C106 1.396 . S
C105 C116 1.492 . S
C106 C105 1.396 . S
C106 C107 1.397 . S
C106 C122 1.509 . S
C107 C106 1.397 . S
C107 C108 1.412 . S
C107 C128 1.485 . S
C108 C107 1.412 . S
C108 C109 1.388 . S
C108 C134 1.490 . S
C109 C104 1.397 . S
C109 C108 1.388 . S
C109 C140 1.519 . S
C110 C104 1.492 . S
C110 C111 1.363 . S
C110 C115 1.390 . S
C111 H76 0.930 . S
C111 C110 1.363 . S
C111 C112 1.372 . S
C112 H77 0.930 . S
C112 C111 1.372 . S
C112 C113 1.383 . S
C113 C112 1.383 . S
C113 C114 1.395 . S
C114 H78 0.930 . S
C114 C113 1.395 . S
C114 C115 1.362 . S
C115 H79 0.930 . S
C115 C110 1.390 . S
C115 C114 1.362 . S
C116 C105 1.492 . S
C116 C117 1.377 . S
C116 C121 1.397 . S
C117 H80 0.931 . S
C117 C116 1.377 . S
C117 C118 1.376 . S
C118 H81 0.930 . S
C118 C117 1.376 . S
C118 C119 1.376 . S
C119 C118 1.376 . S
C119 C120 1.378 . S
C119 C146 1.486 . S
C120 H82 0.930 . S
C120 C119 1.378 . S
C120 C121 1.376 . S
C121 H83 0.929 . S
C121 C116 1.397 . S
C121 C120 1.376 . S
C122 C106 1.509 . S
C122 C123 1.391 . S
C122 C127 1.386 . S
C123 H84 0.930 . S
C123 C122 1.391 . S
C123 C124 1.375 . S
C124 H85 0.931 . S
C124 C123 1.375 . S
C124 C125 1.375 . S
C125 C124 1.375 . S
C125 C126 1.361 . S
C126 H86 0.930 . S
C126 C125 1.361 . S
C126 C127 1.399 . S
C127 H87 0.929 . S
C127 C122 1.386 . S
C127 C126 1.399 . S
C128 C107 1.485 . S
C128 C129 1.394 . S
C128 C133 1.360 . S
C129 H88 0.931 . S
C129 C128 1.394 . S
C129 C130 1.372 . S
C130 H89 0.930 . S
C130 C129 1.372 . S
C130 C131 1.397 . S
C131 C130 1.397 . S
C131 C132 1.390 . S
C131 C147 1.476 . S
C132 H90 0.930 . S
C132 C131 1.390 . S
C132 C133 1.366 . S
C133 H91 0.932 . S
C133 C128 1.360 . S
C133 C132 1.366 . S
C134 C108 1.490 . S
C134 C135 1.380 . S
C134 C139 1.386 . S
C135 H92 0.930 . S
C135 C134 1.380 . S
C135 C136 1.381 . S
C136 H93 0.929 . S
C136 C135 1.381 . S
C136 C137 1.371 . S
C137 C136 1.371 . S
C137 C138 1.380 . S
C138 H94 0.931 . S
C138 C137 1.380 . S
C138 C139 1.387 . S
C139 H95 0.930 . S
C139 C134 1.386 . S
C139 C138 1.387 . S
C140 C109 1.519 . S
C140 C141 1.377 . S
C140 C145 1.361 . S
C141 H96 0.929 . S
C141 C140 1.377 . S
C141 C142 1.386 . S
C142 H97 0.931 . S
C142 C141 1.386 . S
C142 C143 1.363 . S
C143 C142 1.363 . S
C143 C144 1.385 . S
C144 H98 0.930 . S
C144 C143 1.385 . S
C144 C145 1.396 . S
C145 H99 0.929 . S
C145 C140 1.361 . S
C145 C144 1.396 . S
C146 O100 1.300 . S
C146 O101 1.209 . S
C146 C119 1.486 . S
C147 O102 1.199 . S
C147 O103 1.297 . S
C147 C131 1.476 . S
H148 O174 0.856 . S
H149 O177 0.854 . S
H150 C185 0.930 . S
H151 C186 0.930 . S
H152 C188 0.930 . S
H153 C189 0.930 . S
H154 C191 0.931 . S
H155 C192 0.930 . S
H156 C194 0.930 . S
H157 C195 0.929 . S
H158 C197 0.930 . S
H159 C198 0.931 . S
H160 C200 0.930 . S
H161 C201 0.929 . S
H162 C203 0.931 . S
H163 C204 0.930 . S
H164 C206 0.930 . S
H165 C207 0.932 . S
H166 C209 0.930 . S
H167 C210 0.929 . S
H168 C212 0.931 . S
H169 C213 0.930 . S
H170 C215 0.929 . S
H171 C216 0.931 . S
H172 C218 0.930 . S
H173 C219 0.929 . S
O174 H148 0.856 . S
O174 C220 1.300 . S
O175 C220 1.209 . S
O176 C221 1.199 . S
O177 H149 0.854 . S
O177 C221 1.297 . S
C178 C179 1.404 . S
C178 C183 1.397 . S
C178 C184 1.492 . S
C179 C178 1.404 . S
C179 C180 1.396 . S
C179 C190 1.492 . S
C180 C179 1.396 . S
C180 C181 1.397 . S
C180 C196 1.509 . S
C181 C180 1.397 . S
C181 C182 1.412 . S
C181 C202 1.485 . S
C182 C181 1.412 . S
C182 C183 1.388 . S
C182 C208 1.490 . S
C183 C178 1.397 . S
C183 C182 1.388 . S
C183 C214 1.519 . S
C184 C178 1.492 . S
C184 C185 1.363 . S
C184 C189 1.390 . S
C185 H150 0.930 . S
C185 C184 1.363 . S
C185 C186 1.372 . S
C186 H151 0.930 . S
C186 C185 1.372 . S
C186 C187 1.383 . S
C187 C186 1.383 . S
C187 C188 1.395 . S
C188 H152 0.930 . S
C188 C187 1.395 . S
C188 C189 1.362 . S
C189 H153 0.930 . S
C189 C184 1.390 . S
C189 C188 1.362 . S
C190 C179 1.492 . S
C190 C191 1.377 . S
C190 C195 1.397 . S
C191 H154 0.931 . S
C191 C190 1.377 . S
C191 C192 1.376 . S
C192 H155 0.930 . S
C192 C191 1.376 . S
C192 C193 1.376 . S
C193 C192 1.376 . S
C193 C194 1.378 . S
C193 C220 1.486 . S
C194 H156 0.930 . S
C194 C193 1.378 . S
C194 C195 1.376 . S
C195 H157 0.929 . S
C195 C190 1.397 . S
C195 C194 1.376 . S
C196 C180 1.509 . S
C196 C197 1.391 . S
C196 C201 1.386 . S
C197 H158 0.930 . S
C197 C196 1.391 . S
C197 C198 1.375 . S
C198 H159 0.931 . S
C198 C197 1.375 . S
C198 C199 1.375 . S
C199 C198 1.375 . S
C199 C200 1.361 . S
C200 H160 0.930 . S
C200 C199 1.361 . S
C200 C201 1.399 . S
C201 H161 0.929 . S
C201 C196 1.386 . S
C201 C200 1.399 . S
C202 C181 1.485 . S
C202 C203 1.394 . S
C202 C207 1.360 . S
C203 H162 0.931 . S
C203 C202 1.394 . S
C203 C204 1.372 . S
C204 H163 0.930 . S
C204 C203 1.372 . S
C204 C205 1.397 . S
C205 C204 1.397 . S
C205 C206 1.390 . S
C205 C221 1.476 . S
C206 H164 0.930 . S
C206 C205 1.390 . S
C206 C207 1.366 . S
C207 H165 0.932 . S
C207 C202 1.360 . S
C207 C206 1.366 . S
C208 C182 1.490 . S
C208 C209 1.380 . S
C208 C213 1.386 . S
C209 H166 0.930 . S
C209 C208 1.380 . S
C209 C210 1.381 . S
C210 H167 0.929 . S
C210 C209 1.381 . S
C210 C211 1.371 . S
C211 C210 1.371 . S
C211 C212 1.380 . S
C212 H168 0.931 . S
C212 C211 1.380 . S
C212 C213 1.387 . S
C213 H169 0.930 . S
C213 C208 1.386 . S
C213 C212 1.387 . S
C214 C183 1.519 . S
C214 C215 1.377 . S
C214 C219 1.361 . S
C215 H170 0.929 . S
C215 C214 1.377 . S
C215 C216 1.386 . S
C216 H171 0.931 . S
C216 C215 1.386 . S
C216 C217 1.363 . S
C217 C216 1.363 . S
C217 C218 1.385 . S
C218 H172 0.930 . S
C218 C217 1.385 . S
C218 C219 1.396 . S
C219 H173 0.929 . S
C219 C214 1.361 . S
C219 C218 1.396 . S
C220 O174 1.300 . S
C220 O175 1.209 . S
C220 C193 1.486 . S
C221 O176 1.199 . S
C221 O177 1.297 . S
C221 C205 1.476 . S
H222 O248 0.856 . S
H223 O251 0.854 . S
H224 C259 0.930 . S
H225 C260 0.930 . S
H226 C262 0.930 . S
H227 C263 0.930 . S
H228 C265 0.931 . S
H229 C266 0.930 . S
H230 C268 0.930 . S
H231 C269 0.929 . S
H232 C271 0.930 . S
H233 C272 0.931 . S
H234 C274 0.930 . S
H235 C275 0.929 . S
H236 C277 0.931 . S
H237 C278 0.930 . S
H238 C280 0.930 1_556 S
H239 C281 0.932 . S
H240 C283 0.930 . S
H241 C284 0.929 . S
H242 C286 0.931 . S
H243 C287 0.930 . S
H244 C289 0.929 . S
H245 C290 0.931 . S
H246 C292 0.930 . S
H247 C293 0.929 . S
O248 H222 0.856 . S
O248 C294 1.300 . S
O249 C294 1.209 . S
O250 C295 1.199 . S
O251 H223 0.854 . S
O251 C295 1.297 . S
C252 C253 1.404 . S
C252 C257 1.397 . S
C252 C258 1.492 . S
C253 C252 1.404 . S
C253 C254 1.396 . S
C253 C264 1.492 . S
C254 C253 1.396 . S
C254 C255 1.397 . S
C254 C270 1.509 . S
C255 C254 1.397 . S
C255 C256 1.412 . S
C255 C276 1.485 . S
C256 C255 1.412 . S
C256 C257 1.388 . S
C256 C282 1.490 . S
C257 C252 1.397 . S
C257 C256 1.388 . S
C257 C288 1.519 . S
C258 C252 1.492 . S
C258 C259 1.363 . S
C258 C263 1.390 . S
C259 H224 0.930 . S
C259 C258 1.363 . S
C259 C260 1.372 . S
C260 H225 0.930 . S
C260 C259 1.372 . S
C260 C261 1.383 1_565 S
C261 C260 1.383 1_545 S
C261 C262 1.395 . S
C262 H226 0.930 . S
C262 C261 1.395 . S
C262 C263 1.362 1_545 S
C263 H227 0.930 . S
C263 C258 1.390 . S
C263 C262 1.362 1_565 S
C264 C253 1.492 . S
C264 C265 1.377 . S
C264 C269 1.397 1_565 S
C265 H228 0.931 . S
C265 C264 1.377 . S
C265 C266 1.376 1_565 S
C266 H229 0.930 . S
C266 C265 1.376 1_545 S
C266 C267 1.376 . S
C267 C266 1.376 . S
C267 C268 1.378 . S
C267 C294 1.486 . S
C268 H230 0.930 . S
C268 C267 1.378 . S
C268 C269 1.376 . S
C269 H231 0.929 . S
C269 C264 1.397 1_545 S
C269 C268 1.376 . S
C270 C254 1.509 . S
C270 C271 1.391 . S
C270 C275 1.386 . S
C271 H232 0.930 . S
C271 C270 1.391 . S
C271 C272 1.375 . S
C272 H233 0.931 . S
C272 C271 1.375 . S
C272 C273 1.375 . S
C273 C272 1.375 . S
C273 C274 1.361 . S
C274 H234 0.930 . S
C274 C273 1.361 . S
C274 C275 1.399 . S
C275 H235 0.929 . S
C275 C270 1.386 . S
C275 C274 1.399 . S
C276 C255 1.485 . S
C276 C277 1.394 . S
C276 C281 1.360 . S
C277 H236 0.931 . S
C277 C276 1.394 . S
C277 C278 1.372 . S
C278 H237 0.930 . S
C278 C277 1.372 . S
C278 C279 1.397 . S
C279 C278 1.397 . S
C279 C280 1.390 . S
C279 C295 1.476 1_554 S
C280 H238 0.930 1_554 S
C280 C279 1.390 . S
C280 C281 1.366 . S
C281 H239 0.932 . S
C281 C276 1.360 . S
C281 C280 1.366 . S
C282 C256 1.490 . S
C282 C283 1.380 . S
C282 C287 1.386 . S
C283 H240 0.930 . S
C283 C282 1.380 . S
C283 C284 1.381 . S
C284 H241 0.929 . S
C284 C283 1.381 . S
C284 C285 1.371 . S
C285 C284 1.371 . S
C285 C286 1.380 . S
C286 H242 0.931 . S
C286 C285 1.380 . S
C286 C287 1.387 . S
C287 H243 0.930 . S
C287 C282 1.386 . S
C287 C286 1.387 . S
C288 C257 1.519 . S
C288 C289 1.377 . S
C288 C293 1.361 . S
C289 H244 0.929 . S
C289 C288 1.377 . S
C289 C290 1.386 . S
C290 H245 0.931 . S
C290 C289 1.386 . S
C290 C291 1.363 . S
C291 C290 1.363 . S
C291 C292 1.385 . S
C292 H246 0.930 . S
C292 C291 1.385 . S
C292 C293 1.396 . S
C293 H247 0.929 . S
C293 C288 1.361 . S
C293 C292 1.396 . S
C294 O248 1.300 . S
C294 O249 1.209 . S
C294 C267 1.486 . S
C295 O250 1.199 . S
C295 O251 1.297 . S
C295 C279 1.476 1_556 S
H296 O322 0.856 . S
H297 O325 0.859 . S
H298 C333 0.930 . S
H299 C334 0.930 . S
H300 C336 0.930 . S
H301 C337 0.930 . S
H302 C339 0.931 . S
H303 C340 0.930 . S
H304 C342 0.930 . S
H305 C343 0.929 . S
H306 C345 0.930 . S
H307 C346 0.931 . S
H308 C348 0.930 . S
H309 C349 0.929 . S
H310 C351 0.931 . S
H311 C352 0.930 . S
H312 C354 0.930 1_545 S
H313 C355 0.932 . S
H314 C357 0.930 . S
H315 C358 0.929 . S
H316 C360 0.931 . S
H317 C361 0.930 . S
H318 C363 0.929 . S
H319 C364 0.931 . S
H320 C366 0.930 . S
H321 C367 0.929 . S
O322 H296 0.856 . S
O322 C368 1.300 . S
O323 C368 1.209 . S
O324 C369 1.199 . S
O325 H297 0.859 . S
O325 C369 1.297 . S
C326 C327 1.404 . S
C326 C331 1.397 . S
C326 C332 1.492 . S
C327 C326 1.404 . S
C327 C328 1.396 . S
C327 C338 1.492 . S
C328 C327 1.396 . S
C328 C329 1.397 . S
C328 C344 1.509 . S
C329 C328 1.397 . S
C329 C330 1.412 . S
C329 C350 1.485 . S
C330 C329 1.412 . S
C330 C331 1.388 . S
C330 C356 1.490 . S
C331 C326 1.397 . S
C331 C330 1.388 . S
C331 C362 1.519 . S
C332 C326 1.492 . S
C332 C333 1.363 . S
C332 C337 1.390 . S
C333 H298 0.930 . S
C333 C332 1.363 . S
C333 C334 1.372 . S
C334 H299 0.930 . S
C334 C333 1.372 . S
C334 C335 1.383 . S
C335 C334 1.383 . S
C335 C336 1.395 . S
C336 H300 0.930 . S
C336 C335 1.395 . S
C336 C337 1.362 . S
C337 H301 0.930 . S
C337 C332 1.390 . S
C337 C336 1.362 . S
C338 C327 1.492 . S
C338 C339 1.377 . S
C338 C343 1.397 . S
C339 H302 0.931 . S
C339 C338 1.377 . S
C339 C340 1.376 . S
C340 H303 0.930 . S
C340 C339 1.376 . S
C340 C341 1.376 1_565 S
C341 C340 1.376 1_545 S
C341 C342 1.378 . S
C341 C368 1.486 . S
C342 H304 0.930 . S
C342 C341 1.378 . S
C342 C343 1.376 1_545 S
C343 H305 0.929 . S
C343 C338 1.397 . S
C343 C342 1.376 1_565 S
C344 C328 1.509 . S
C344 C345 1.391 . S
C344 C349 1.386 1_565 S
C345 H306 0.930 . S
C345 C344 1.391 . S
C345 C346 1.375 1_565 S
C346 H307 0.931 . S
C346 C345 1.375 1_545 S
C346 C347 1.375 . S
C347 C346 1.375 . S
C347 C348 1.361 . S
C348 H308 0.930 . S
C348 C347 1.361 . S
C348 C349 1.399 . S
C349 H309 0.929 . S
C349 C344 1.386 1_545 S
C349 C348 1.399 . S
C350 C329 1.485 . S
C350 C351 1.394 . S
C350 C355 1.360 . S
C351 H310 0.931 . S
C351 C350 1.394 . S
C351 C352 1.372 . S
C352 H311 0.930 . S
C352 C351 1.372 . S
C352 C353 1.397 . S
C353 C352 1.397 . S
C353 C354 1.390 . S
C353 C369 1.476 . S
C354 H312 0.930 1_565 S
C354 C353 1.390 . S
C354 C355 1.366 . S
C355 H313 0.932 . S
C355 C350 1.360 . S
C355 C354 1.366 . S
C356 C330 1.490 . S
C356 C357 1.380 . S
C356 C361 1.386 . S
C357 H314 0.930 . S
C357 C356 1.380 . S
C357 C358 1.381 . S
C358 H315 0.929 . S
C358 C357 1.381 . S
C358 C359 1.371 . S
C359 C358 1.371 . S
C359 C360 1.380 . S
C360 H316 0.931 . S
C360 C359 1.380 . S
C360 C361 1.387 . S
C361 H317 0.930 . S
C361 C356 1.386 . S
C361 C360 1.387 . S
C362 C331 1.519 . S
C362 C363 1.377 . S
C362 C367 1.361 . S
C363 H318 0.929 . S
C363 C362 1.377 . S
C363 C364 1.386 . S
C364 H319 0.931 . S
C364 C363 1.386 . S
C364 C365 1.363 . S
C365 C364 1.363 . S
C365 C366 1.385 . S
C366 H320 0.930 . S
C366 C365 1.385 . S
C366 C367 1.396 . S
C367 H321 0.929 . S
C367 C362 1.361 . S
C367 C366 1.396 . S
C368 O322 1.300 . S
C368 O323 1.209 . S
C368 C341 1.486 . S
C369 O324 1.199 . S
C369 O325 1.297 . S
C369 C353 1.476 . S
H370 O396 0.856 . S
H371 O399 0.854 . S
H372 C407 0.930 . S
H373 C408 0.930 . S
H374 C410 0.930 1_554 S
H375 C411 0.930 . S
H376 C413 0.931 . S
H377 C414 0.930 . S
H378 C416 0.930 . S
H379 C417 0.929 . S
H380 C419 0.930 . S
H381 C420 0.931 . S
H382 C422 0.930 . S
H383 C423 0.929 . S
H384 C425 0.931 . S
H385 C426 0.930 . S
H386 C428 0.930 . S
H387 C429 0.932 . S
H388 C431 0.930 . S
H389 C432 0.929 . S
H390 C434 0.931 . S
H391 C435 0.930 . S
H392 C437 0.929 . S
H393 C438 0.931 . S
H394 C440 0.930 . S
H395 C441 0.929 . S
O396 H370 0.856 . S
O396 C442 1.300 . S
O397 C442 1.209 . S
O398 C443 1.199 . S
O399 H371 0.854 . S
O399 C443 1.297 . S
C400 C401 1.404 . S
C400 C405 1.397 . S
C400 C406 1.492 . S
C401 C400 1.404 . S
C401 C402 1.396 . S
C401 C412 1.492 . S
C402 C401 1.396 . S
C402 C403 1.397 . S
C402 C418 1.509 . S
C403 C402 1.397 . S
C403 C404 1.412 . S
C403 C424 1.485 . S
C404 C403 1.412 . S
C404 C405 1.388 . S
C404 C430 1.490 . S
C405 C400 1.397 . S
C405 C404 1.388 . S
C405 C436 1.519 . S
C406 C400 1.492 . S
C406 C407 1.363 . S
C406 C411 1.390 . S
C407 H372 0.930 . S
C407 C406 1.363 . S
C407 C408 1.372 . S
C408 H373 0.930 . S
C408 C407 1.372 . S
C408 C409 1.383 . S
C409 C408 1.383 . S
C409 C410 1.395 . S
C410 H374 0.930 1_556 S
C410 C409 1.395 . S
C410 C411 1.362 . S
C411 H375 0.930 . S
C411 C406 1.390 . S
C411 C410 1.362 . S
C412 C401 1.492 . S
C412 C413 1.377 . S
C412 C417 1.397 . S
C413 H376 0.931 . S
C413 C412 1.377 . S
C413 C414 1.376 . S
C414 H377 0.930 . S
C414 C413 1.376 . S
C414 C415 1.376 . S
C415 C414 1.376 . S
C415 C416 1.378 . S
C415 C442 1.486 . S
C416 H378 0.930 . S
C416 C415 1.378 . S
C416 C417 1.376 . S
C417 H379 0.929 . S
C417 C412 1.397 . S
C417 C416 1.376 . S
C418 C402 1.509 . S
C418 C419 1.391 . S
C418 C423 1.386 . S
C419 H380 0.930 . S
C419 C418 1.391 . S
C419 C420 1.375 . S
C420 H381 0.931 . S
C420 C419 1.375 . S
C420 C421 1.375 . S
C421 C420 1.375 . S
C421 C422 1.361 . S
C422 H382 0.930 . S
C422 C421 1.361 . S
C422 C423 1.399 . S
C423 H383 0.929 . S
C423 C418 1.386 . S
C423 C422 1.399 . S
C424 C403 1.485 . S
C424 C425 1.394 . S
C424 C429 1.360 . S
C425 H384 0.931 . S
C425 C424 1.394 . S
C425 C426 1.372 . S
C426 H385 0.930 . S
C426 C425 1.372 . S
C426 C427 1.397 . S
C427 C426 1.397 . S
C427 C428 1.390 . S
C427 C443 1.476 . S
C428 H386 0.930 . S
C428 C427 1.390 . S
C428 C429 1.366 . S
C429 H387 0.932 . S
C429 C424 1.360 . S
C429 C428 1.366 . S
C430 C404 1.490 . S
C430 C431 1.380 . S
C430 C435 1.386 . S
C431 H388 0.930 . S
C431 C430 1.380 . S
C431 C432 1.381 . S
C432 H389 0.929 . S
C432 C431 1.381 . S
C432 C433 1.371 . S
C433 C432 1.371 . S
C433 C434 1.380 . S
C434 H390 0.931 . S
C434 C433 1.380 . S
C434 C435 1.387 . S
C435 H391 0.930 . S
C435 C430 1.386 . S
C435 C434 1.387 . S
C436 C405 1.519 . S
C436 C437 1.377 . S
C436 C441 1.361 . S
C437 H392 0.929 . S
C437 C436 1.377 . S
C437 C438 1.386 . S
C438 H393 0.931 . S
C438 C437 1.386 . S
C438 C439 1.363 . S
C439 C438 1.363 . S
C439 C440 1.385 . S
C440 H394 0.930 . S
C440 C439 1.385 . S
C440 C441 1.396 . S
C441 H395 0.929 . S
C441 C436 1.361 . S
C441 C440 1.396 . S
C442 O396 1.300 . S
C442 O397 1.209 . S
C442 C415 1.486 . S
C443 O398 1.199 . S
C443 O399 1.297 . S
C443 C427 1.476 . S
H444 O470 0.856 . S
H445 O473 0.854 . S
H446 C481 0.930 . S
H447 C482 0.930 . S
H448 C484 0.930 . S
H449 C485 0.930 . S
H450 C487 0.931 . S
H451 C488 0.930 . S
H452 C490 0.930 . S
H453 C491 0.929 . S
H454 C493 0.930 . S
H455 C494 0.931 . S
H456 C496 0.930 . S
H457 C497 0.929 . S
H458 C499 0.931 . S
H459 C500 0.930 . S
H460 C502 0.930 . S
H461 C503 0.932 . S
H462 C505 0.930 . S
H463 C506 0.929 . S
H464 C508 0.931 . S
H465 C509 0.930 . S
H466 C511 0.929 . S
H467 C512 0.931 1_554 S
H468 C514 0.930 . S
H469 C515 0.929 . S
O470 H444 0.856 . S
O470 C516 1.300 . S
O471 C516 1.209 . S
O472 C517 1.199 . S
O473 H445 0.854 . S
O473 C517 1.297 . S
C474 C475 1.404 . S
C474 C479 1.397 . S
C474 C480 1.492 . S
C475 C474 1.404 . S
C475 C476 1.396 . S
C475 C486 1.492 . S
C476 C475 1.396 . S
C476 C477 1.397 . S
C476 C492 1.509 . S
C477 C476 1.397 . S
C477 C478 1.412 . S
C477 C498 1.485 . S
C478 C477 1.412 . S
C478 C479 1.388 . S
C478 C504 1.490 . S
C479 C474 1.397 . S
C479 C478 1.388 . S
C479 C510 1.519 . S
C480 C474 1.492 . S
C480 C481 1.363 . S
C480 C485 1.390 . S
C481 H446 0.930 . S
C481 C480 1.363 . S
C481 C482 1.372 1_556 S
C482 H447 0.930 . S
C482 C481 1.372 1_554 S
C482 C483 1.383 . S
C483 C482 1.383 . S
C483 C484 1.395 1_554 S
C484 H448 0.930 . S
C484 C483 1.395 1_556 S
C484 C485 1.362 . S
C485 H449 0.930 . S
C485 C480 1.390 . S
C485 C484 1.362 . S
C486 C475 1.492 . S
C486 C487 1.377 . S
C486 C491 1.397 . S
C487 H450 0.931 . S
C487 C486 1.377 . S
C487 C488 1.376 . S
C488 H451 0.930 . S
C488 C487 1.376 . S
C488 C489 1.376 . S
C489 C488 1.376 . S
C489 C490 1.378 . S
C489 C516 1.486 . S
C490 H452 0.930 . S
C490 C489 1.378 . S
C490 C491 1.376 . S
C491 H453 0.929 . S
C491 C486 1.397 . S
C491 C490 1.376 . S
C492 C476 1.509 . S
C492 C493 1.391 . S
C492 C497 1.386 . S
C493 H454 0.930 . S
C493 C492 1.391 . S
C493 C494 1.375 . S
C494 H455 0.931 . S
C494 C493 1.375 . S
C494 C495 1.375 . S
C495 C494 1.375 . S
C495 C496 1.361 . S
C496 H456 0.930 . S
C496 C495 1.361 . S
C496 C497 1.399 . S
C497 H457 0.929 . S
C497 C492 1.386 . S
C497 C496 1.399 . S
C498 C477 1.485 . S
C498 C499 1.394 . S
C498 C503 1.360 . S
C499 H458 0.931 . S
C499 C498 1.394 . S
C499 C500 1.372 . S
C500 H459 0.930 . S
C500 C499 1.372 . S
C500 C501 1.397 . S
C501 C500 1.397 . S
C501 C502 1.390 . S
C501 C517 1.476 . S
C502 H460 0.930 . S
C502 C501 1.390 . S
C502 C503 1.366 . S
C503 H461 0.932 . S
C503 C498 1.360 . S
C503 C502 1.366 . S
C504 C478 1.490 . S
C504 C505 1.380 . S
C504 C509 1.386 . S
C505 H462 0.930 . S
C505 C504 1.380 . S
C505 C506 1.381 . S
C506 H463 0.929 . S
C506 C505 1.381 . S
C506 C507 1.371 . S
C507 C506 1.371 . S
C507 C508 1.380 . S
C508 H464 0.931 . S
C508 C507 1.380 . S
C508 C509 1.387 . S
C509 H465 0.930 . S
C509 C504 1.386 . S
C509 C508 1.387 . S
C510 C479 1.519 . S
C510 C511 1.377 . S
C510 C515 1.361 . S
C511 H466 0.929 . S
C511 C510 1.377 . S
C511 C512 1.386 . S
C512 H467 0.931 1_556 S
C512 C511 1.386 . S
C512 C513 1.363 . S
C513 C512 1.363 . S
C513 C514 1.385 . S
C514 H468 0.930 . S
C514 C513 1.385 . S
C514 C515 1.396 . S
C515 H469 0.929 . S
C515 C510 1.361 . S
C515 C514 1.396 . S
C516 O470 1.300 . S
C516 O471 1.209 . S
C516 C489 1.486 . S
C517 O472 1.199 . S
C517 O473 1.297 . S
C517 C501 1.476 . S
H518 O544 0.856 . S
H519 O547 0.854 . S
H520 C555 0.930 . S
H521 C556 0.930 . S
H522 C558 0.930 . S
H523 C559 0.930 . S
H524 C561 0.931 . S
H525 C562 0.930 . S
H526 C564 0.930 . S
H527 C565 0.929 . S
H528 C567 0.930 1_554 S
H529 C568 0.931 . S
H530 C570 0.930 . S
H531 C571 0.929 . S
H532 C573 0.932 1_554 S
H533 C574 0.930 . S
H534 C576 0.930 . S
H535 C577 0.932 . S
H536 C579 0.930 . S
H537 C580 0.929 . S
H538 C582 0.931 . S
H539 C583 0.930 . S
H540 C585 0.929 . S
H541 C586 0.931 . S
H542 C588 0.930 . S
H543 C589 0.929 . S
O544 H518 0.856 . S
O544 C590 1.300 1_455 S
O545 C590 1.209 . S
O546 C591 1.199 . S
O547 H519 0.854 . S
O547 C591 1.297 . S
C548 C549 1.404 . S
C548 C553 1.397 . S
C548 C554 1.492 . S
C549 C548 1.404 . S
C549 C550 1.396 . S
C549 C560 1.492 . S
C550 C549 1.396 . S
C550 C551 1.397 . S
C550 C566 1.509 . S
C551 C550 1.397 . S
C551 C552 1.412 . S
C551 C572 1.485 . S
C552 C551 1.412 . S
C552 C553 1.388 . S
C552 C578 1.490 . S
C553 C548 1.397 . S
C553 C552 1.388 . S
C553 C584 1.519 . S
C554 C548 1.492 . S
C554 C555 1.363 . S
C554 C559 1.390 . S
C555 H520 0.930 . S
C555 C554 1.363 . S
C555 C556 1.372 . S
C556 H521 0.930 . S
C556 C555 1.372 . S
C556 C557 1.383 . S
C557 C556 1.383 . S
C557 C558 1.395 . S
C558 H522 0.930 . S
C558 C557 1.395 . S
C558 C559 1.362 . S
C559 H523 0.930 . S
C559 C554 1.390 . S
C559 C558 1.362 . S
C560 C549 1.492 . S
C560 C561 1.377 . S
C560 C565 1.397 . S
C561 H524 0.931 . S
C561 C560 1.377 . S
C561 C562 1.376 . S
C562 H525 0.930 . S
C562 C561 1.376 . S
C562 C563 1.376 . S
C563 C562 1.376 . S
C563 C564 1.378 . S
C563 C590 1.486 . S
C564 H526 0.930 . S
C564 C563 1.378 . S
C564 C565 1.376 . S
C565 H527 0.929 . S
C565 C560 1.397 . S
C565 C564 1.376 . S
C566 C550 1.509 . S
C566 C567 1.391 . S
C566 C571 1.386 . S
C567 H528 0.930 1_556 S
C567 C566 1.391 . S
C567 C568 1.375 1_556 S
C568 H529 0.931 . S
C568 C567 1.375 1_554 S
C568 C569 1.375 1_554 S
C569 C568 1.375 1_556 S
C569 C570 1.361 . S
C570 H530 0.930 . S
C570 C569 1.361 . S
C570 C571 1.399 . S
C571 H531 0.929 . S
C571 C566 1.386 . S
C571 C570 1.399 . S
C572 C551 1.485 . S
C572 C573 1.411 . S
C572 C577 1.360 . S
C573 H532 0.932 1_556 S
C573 C572 1.411 . S
C573 C574 1.354 1_556 S
C574 H533 0.930 . S
C574 C573 1.354 1_554 S
C574 C575 1.397 . S
C575 C574 1.397 . S
C575 C576 1.390 1_554 S
C575 C591 1.476 . S
C576 H534 0.930 . S
C576 C575 1.390 1_556 S
C576 C577 1.366 . S
C577 H535 0.932 . S
C577 C572 1.360 . S
C577 C576 1.366 . S
C578 C552 1.490 . S
C578 C579 1.380 . S
C578 C583 1.386 . S
C579 H536 0.930 . S
C579 C578 1.380 . S
C579 C580 1.381 . S
C580 H537 0.929 . S
C580 C579 1.381 . S
C580 C581 1.371 . S
C581 C580 1.371 . S
C581 C582 1.380 . S
C582 H538 0.931 . S
C582 C581 1.380 . S
C582 C583 1.387 . S
C583 H539 0.930 . S
C583 C578 1.386 . S
C583 C582 1.387 . S
C584 C553 1.519 . S
C584 C585 1.377 . S
C584 C589 1.361 . S
C585 H540 0.929 . S
C585 C584 1.377 . S
C585 C586 1.386 . S
C586 H541 0.931 . S
C586 C585 1.386 . S
C586 C587 1.363 . S
C587 C586 1.363 . S
C587 C588 1.385 . S
C588 H542 0.930 . S
C588 C587 1.385 . S
C588 C589 1.396 . S
C589 H543 0.929 . S
C589 C584 1.361 . S
C589 C588 1.396 . S
C590 O544 1.300 1_655 S
C590 O545 1.209 . S
C590 C563 1.486 . S
C591 O546 1.199 . S
C591 O547 1.297 . S
C591 C575 1.476 . S
C592 C593 1.443 . S
C592 N596 1.376 . S
C592 C630 1.389 . S
C593 C592 1.443 . S
C593 C594 1.340 . S
C593 H633 0.951 . S
C594 C593 1.340 . S
C594 C595 1.439 . S
C594 H634 0.950 . S
C595 C594 1.439 . S
C595 N596 1.374 . S
C595 C629 1.395 1_455 S
N596 C592 1.376 . S
N596 C595 1.374 . S
N596 Co597 2.008 . S
Co597 N596 2.008 . S
Co597 N598 1.995 1_455 S
Co597 N603 2.008 1_455 S
Co597 N608 1.995 . S
Co597 N613 2.282 1_455 S
Co597 N619 2.282 . S
N598 Co597 1.995 1_655 S
N598 C599 1.376 . S
N598 C602 1.383 . S
C599 N598 1.376 . S
C599 C600 1.446 . S
C599 C629 1.391 . S
C600 C599 1.446 . S
C600 C601 1.339 . S
C600 H635 0.949 . S
C601 C600 1.339 . S
C601 C602 1.439 . S
C601 H636 0.950 . S
C602 N598 1.383 . S
C602 C601 1.439 . S
C602 C631 1.392 . S
N603 Co597 2.008 1_655 S
N603 C604 1.376 . S
N603 C607 1.374 . S
C604 N603 1.376 . S
C604 C605 1.443 . S
C604 C631 1.389 . S
C605 C604 1.443 . S
C605 C606 1.340 . S
C605 H637 0.951 . S
C606 C605 1.340 . S
C606 C607 1.439 . S
C606 H638 0.950 . S
C607 N603 1.374 . S
C607 C606 1.439 . S
C607 C632 1.395 1_655 S
N608 Co597 1.995 . S
N608 C609 1.376 . S
N608 C612 1.383 . S
C609 N608 1.376 . S
C609 C610 1.446 . S
C609 C632 1.391 . S
C610 C609 1.446 . S
C610 C611 1.339 . S
C610 H639 0.949 . S
C611 C610 1.339 . S
C611 C612 1.439 . S
C611 H640 0.950 . S
C612 N608 1.383 . S
C612 C611 1.439 . S
C612 C630 1.392 . S
N613 Co597 2.282 1_655 S
N613 C616 1.332 . S
N613 C618 1.332 . S
C614 C615 1.386 . S
C614 C617 1.388 . S
C615 C614 1.386 . S
C615 C616 1.382 . S
C615 H641 0.950 . S
C616 N613 1.332 . S
C616 C615 1.382 . S
C616 H627 0.952 . S
C617 C614 1.388 . S
C617 C618 1.382 . S
C617 H642 0.950 . S
C618 N613 1.332 . S
C618 C617 1.382 . S
C618 H628 0.948 . S
N619 Co597 2.282 . S
N619 C623 1.332 . S
N619 C624 1.332 . S
C620 C621 1.388 . S
C620 C624 1.382 . S
C620 H643 0.950 . S
C621 C620 1.388 . S
C621 C622 1.386 . S
C622 C621 1.386 . S
C622 C623 1.382 . S
C622 H644 0.950 . S
C623 N619 1.332 . S
C623 C622 1.382 . S
C623 H625 0.952 . S
C624 N619 1.332 . S
C624 C620 1.382 . S
C624 H626 0.948 . S
H625 C623 0.952 . S
H626 C624 0.948 . S
H627 C616 0.952 . S
H628 C618 0.948 . S
C629 C595 1.395 1_655 S
C629 C599 1.391 . S
C630 C592 1.389 . S
C630 C612 1.392 . S
C631 C602 1.392 . S
C631 C604 1.389 . S
C632 C607 1.395 1_455 S
C632 C609 1.391 . S
H633 C593 0.951 . S
H634 C594 0.950 . S
H635 C600 0.949 . S
H636 C601 0.950 . S
H637 C605 0.951 . S
H638 C606 0.950 . S
H639 C610 0.949 . S
H640 C611 0.950 . S
H641 C615 0.950 . S
H642 C617 0.950 . S
H643 C620 0.950 . S
H644 C622 0.950 . S
C645 C646 1.443 . S
C645 N649 1.376 . S
C645 C683 1.389 . S
C646 C645 1.443 . S
C646 C647 1.340 . S
C646 H686 0.951 . S
C647 C646 1.340 . S
C647 C648 1.439 . S
C647 H687 0.950 . S
C648 C647 1.439 . S
C648 N649 1.374 . S
C648 C682 1.413 . S
N649 C645 1.376 . S
N649 C648 1.374 . S
N649 Co650 2.008 . S
Co650 N649 2.008 . S
Co650 N651 1.995 1_545 S
Co650 N656 2.008 1_545 S
Co650 N661 1.995 . S
Co650 N666 2.282 1_545 S
Co650 N672 2.282 . S
N651 Co650 1.995 1_565 S
N651 C652 1.376 . S
N651 C655 1.383 . S
C652 N651 1.376 . S
C652 C653 1.446 . S
C652 C682 1.374 1_565 S
C653 C652 1.446 . S
C653 C654 1.339 . S
C653 H688 0.949 . S
C654 C653 1.339 . S
C654 C655 1.439 . S
C654 H689 0.950 . S
C655 N651 1.383 . S
C655 C654 1.439 . S
C655 C684 1.392 . S
N656 Co650 2.008 1_565 S
N656 C657 1.376 . S
N656 C660 1.374 . S
C657 N656 1.376 . S
C657 C658 1.443 . S
C657 C684 1.389 . S
C658 C657 1.443 . S
C658 C659 1.340 . S
C658 H690 0.951 . S
C659 C658 1.340 . S
C659 C660 1.439 . S
C659 H691 0.950 . S
C660 N656 1.374 . S
C660 C659 1.439 . S
C660 C685 1.395 1_565 S
N661 Co650 1.995 . S
N661 C662 1.376 . S
N661 C665 1.383 . S
C662 N661 1.376 . S
C662 C663 1.446 . S
C662 C685 1.391 . S
C663 C662 1.446 . S
C663 C664 1.339 . S
C663 H692 0.949 . S
C664 C663 1.339 . S
C664 C665 1.439 . S
C664 H693 0.950 . S
C665 N661 1.383 . S
C665 C664 1.439 . S
C665 C683 1.392 . S
N666 Co650 2.282 1_565 S
N666 C669 1.332 . S
N666 C671 1.332 . S
C667 C668 1.386 . S
C667 C670 1.388 . S
C668 C667 1.386 . S
C668 C669 1.382 . S
C668 H694 0.950 . S
C669 N666 1.332 . S
C669 C668 1.382 . S
C669 H680 0.952 . S
C670 C667 1.388 . S
C670 C671 1.382 . S
C670 H695 0.950 . S
C671 N666 1.332 . S
C671 C670 1.382 . S
C671 H681 0.948 . S
N672 Co650 2.282 . S
N672 C676 1.332 . S
N672 C677 1.332 . S
C673 C674 1.388 . S
C673 C677 1.382 . S
C673 H696 0.950 . S
C674 C673 1.388 . S
C674 C675 1.386 . S
C675 C674 1.386 . S
C675 C676 1.382 . S
C675 H697 0.950 . S
C676 N672 1.332 . S
C676 C675 1.382 . S
C676 H678 0.952 . S
C677 N672 1.332 . S
C677 C673 1.382 . S
C677 H679 0.948 . S
H678 C676 0.952 . S
H679 C677 0.948 . S
H680 C669 0.952 . S
H681 C671 0.948 . S
C682 C648 1.413 . S
C682 C652 1.374 1_545 S
C683 C645 1.389 . S
C683 C665 1.392 . S
C684 C655 1.392 . S
C684 C657 1.389 . S
C685 C660 1.395 1_545 S
C685 C662 1.391 . S
H686 C646 0.951 . S
H687 C647 0.950 . S
H688 C653 0.949 . S
H689 C654 0.950 . S
H690 C658 0.951 . S
H691 C659 0.950 . S
H692 C663 0.949 . S
H693 C664 0.950 . S
H694 C668 0.950 . S
H695 C670 0.950 . S
H696 C673 0.950 . S
H697 C675 0.950 . S
C698 C699 1.443 . S
C698 N702 1.376 . S
C698 C736 1.389 . S
C699 C698 1.443 . S
C699 C700 1.340 . S
C699 H739 0.951 . S
C700 C699 1.340 . S
C700 C701 1.439 . S
C700 H740 0.950 . S
C701 C700 1.439 . S
C701 N702 1.374 . S
C701 C735 1.395 . S
N702 C698 1.376 . S
N702 C701 1.374 . S
N702 Co703 2.008 . S
Co703 N702 2.008 . S
Co703 N704 1.995 1_455 S
Co703 N709 2.008 . S
Co703 N714 1.995 . S
Co703 N719 2.282 . S
Co703 N725 2.282 . S
N704 Co703 1.995 1_655 S
N704 C705 1.376 . S
N704 C708 1.383 . S
C705 N704 1.376 . S
C705 C706 1.446 . S
C705 C735 1.391 1_655 S
C706 C705 1.446 . S
C706 C707 1.339 . S
C706 H741 0.949 . S
C707 C706 1.339 . S
C707 C708 1.439 . S
C707 H742 0.950 . S
C708 N704 1.383 . S
C708 C707 1.439 . S
C708 C737 1.392 . S
N709 Co703 2.008 . S
N709 C710 1.376 1_455 S
N709 C713 1.374 . S
C710 N709 1.376 1_655 S
C710 C711 1.443 . S
C710 C737 1.389 . S
C711 C710 1.443 . S
C711 C712 1.340 . S
C711 H743 0.951 . S
C712 C711 1.340 . S
C712 C713 1.439 1_655 S
C712 H744 0.950 . S
C713 N709 1.374 . S
C713 C712 1.439 1_455 S
C713 C738 1.395 . S
N714 Co703 1.995 . S
N714 C715 1.376 . S
N714 C718 1.383 . S
C715 N714 1.376 . S
C715 C716 1.446 . S
C715 C738 1.391 . S
C716 C715 1.446 . S
C716 C717 1.339 . S
C716 H745 0.949 . S
C717 C716 1.339 . S
C717 C718 1.439 . S
C717 H746 0.950 . S
C718 N714 1.383 . S
C718 C717 1.439 . S
C718 C736 1.392 . S
N719 Co703 2.282 . S
N719 C722 1.332 . S
N719 C724 1.332 1_455 S
C720 C721 1.386 . S
C720 C723 1.388 . S
C721 C720 1.386 . S
C721 C722 1.382 1_655 S
C721 H747 0.950 . S
C722 N719 1.332 . S
C722 C721 1.382 1_455 S
C722 H733 0.952 . S
C723 C720 1.388 . S
C723 C724 1.382 . S
C723 H748 0.950 . S
C724 N719 1.332 1_655 S
C724 C723 1.382 . S
C724 H734 0.948 . S
N725 Co703 2.282 . S
N725 C729 1.332 . S
N725 C730 1.332 . S
C726 C727 1.388 . S
C726 C730 1.382 . S
C726 H749 0.950 . S
C727 C726 1.388 . S
C727 C728 1.386 . S
C728 C727 1.386 . S
C728 C729 1.382 . S
C728 H750 0.950 . S
C729 N725 1.332 . S
C729 C728 1.382 . S
C729 H731 0.952 . S
C730 N725 1.332 . S
C730 C726 1.382 . S
C730 H732 0.948 . S
H731 C729 0.952 . S
H732 C730 0.948 . S
H733 C722 0.952 . S
H734 C724 0.948 . S
C735 C701 1.395 . S
C735 C705 1.391 1_455 S
C736 C698 1.389 . S
C736 C718 1.392 . S
C737 C708 1.392 . S
C737 C710 1.389 . S
C738 C713 1.395 . S
C738 C715 1.391 . S
H739 C699 0.951 . S
H740 C700 0.950 . S
H741 C706 0.949 . S
H742 C707 0.950 . S
H743 C711 0.951 . S
H744 C712 0.950 . S
H745 C716 0.949 . S
H746 C717 0.950 . S
H747 C721 0.950 . S
H748 C723 0.950 . S
H749 C726 0.950 . S
H750 C728 0.950 . S
C751 C752 1.443 . S
C751 N755 1.376 . S
C751 C789 1.389 . S
C752 C751 1.443 . S
C752 C753 1.340 . S
C752 H792 0.951 . S
C753 C752 1.340 . S
C753 C754 1.439 . S
C753 H793 0.950 . S
C754 C753 1.439 . S
C754 N755 1.374 . S
C754 C788 1.395 . S
N755 C751 1.376 . S
N755 C754 1.374 . S
N755 Co756 2.008 . S
Co756 N755 2.008 . S
Co756 N757 1.995 . S
Co756 N762 2.008 . S
Co756 N767 1.995 . S
Co756 N772 2.282 . S
Co756 N778 2.282 . S
N757 Co756 1.995 . S
N757 C758 1.376 . S
N757 C761 1.383 . S
C758 N757 1.376 . S
C758 C759 1.446 . S
C758 C788 1.391 . S
C759 C758 1.446 . S
C759 C760 1.339 . S
C759 H794 0.949 . S
C760 C759 1.339 . S
C760 C761 1.439 . S
C760 H795 0.950 . S
C761 N757 1.383 . S
C761 C760 1.439 . S
C761 C790 1.392 . S
N762 Co756 2.008 . S
N762 C763 1.376 . S
N762 C766 1.374 . S
C763 N762 1.376 . S
C763 C764 1.443 . S
C763 C790 1.389 . S
C764 C763 1.443 . S
C764 C765 1.340 . S
C764 H796 0.951 . S
C765 C764 1.340 . S
C765 C766 1.439 . S
C765 H797 0.950 . S
C766 N762 1.374 . S
C766 C765 1.439 . S
C766 C791 1.395 . S
N767 Co756 1.995 . S
N767 C768 1.376 . S
N767 C771 1.383 . S
C768 N767 1.376 . S
C768 C769 1.446 . S
C768 C791 1.391 . S
C769 C768 1.446 . S
C769 C770 1.339 . S
C769 H798 0.949 . S
C770 C769 1.339 . S
C770 C771 1.439 . S
C770 H799 0.950 . S
C771 N767 1.383 . S
C771 C770 1.439 . S
C771 C789 1.392 . S
N772 Co756 2.282 . S
N772 C775 1.332 . S
N772 C777 1.332 . S
C773 C774 1.386 . S
C773 C776 1.388 . S
C774 C773 1.386 . S
C774 C775 1.382 . S
C774 H800 0.950 . S
C775 N772 1.332 . S
C775 C774 1.382 . S
C775 H786 0.952 . S
C776 C773 1.388 . S
C776 C777 1.382 . S
C776 H801 0.950 . S
C777 N772 1.332 . S
C777 C776 1.382 . S
C777 H787 0.948 . S
N778 Co756 2.282 . S
N778 C782 1.332 . S
N778 C783 1.332 . S
C779 C780 1.388 . S
C779 C783 1.382 . S
C779 H802 0.950 . S
C780 C779 1.388 . S
C780 C781 1.386 . S
C781 C780 1.386 . S
C781 C782 1.382 . S
C781 H803 0.950 . S
C782 N778 1.332 . S
C782 C781 1.382 . S
C782 H784 0.952 . S
C783 N778 1.332 . S
C783 C779 1.382 . S
C783 H785 0.948 . S
H784 C782 0.952 . S
H785 C783 0.948 . S
H786 C775 0.952 . S
H787 C777 0.948 . S
C788 C754 1.395 . S
C788 C758 1.391 . S
C789 C751 1.389 . S
C789 C771 1.392 . S
C790 C761 1.392 . S
C790 C763 1.389 . S
C791 C766 1.395 . S
C791 C768 1.391 . S
H792 C752 0.951 . S
H793 C753 0.950 . S
H794 C759 0.949 . S
H795 C760 0.950 . S
H796 C764 0.951 . S
H797 C765 0.950 . S
H798 C769 0.949 . S
H799 C770 0.950 . S
H800 C774 0.950 . S
H801 C776 0.950 . S
H802 C779 0.950 . S
H803 C781 0.950 . S
C804 C805 1.443 . S
C804 N808 1.376 . S
C804 C842 1.389 . S
C805 C804 1.443 . S
C805 C806 1.340 . S
C805 H845 0.951 . S
C806 C805 1.340 . S
C806 C807 1.439 . S
C806 H846 0.950 1_565 S
C807 C806 1.439 . S
C807 N808 1.374 . S
C807 C841 1.395 . S
N808 C804 1.376 . S
N808 C807 1.374 . S
N808 Co809 2.008 . S
Co809 N808 2.008 . S
Co809 N810 1.995 1_554 S
Co809 N815 2.008 1_554 S
Co809 N820 1.995 . S
Co809 N825 2.282 . S
Co809 N831 2.282 1_554 S
N810 Co809 1.995 1_556 S
N810 C811 1.376 . S
N810 C814 1.383 . S
C811 N810 1.376 . S
C811 C812 1.446 1_565 S
C811 C841 1.391 1_556 S
C812 C811 1.446 1_545 S
C812 C813 1.339 1_545 S
C812 H847 0.949 . S
C813 C812 1.339 1_565 S
C813 C814 1.439 . S
C813 H848 0.950 . S
C814 N810 1.383 . S
C814 C813 1.439 . S
C814 C843 1.392 . S
N815 Co809 2.008 1_556 S
N815 C816 1.376 . S
N815 C819 1.374 . S
C816 N815 1.376 . S
C816 C817 1.443 . S
C816 C843 1.389 . S
C817 C816 1.443 . S
C817 C818 1.340 . S
C817 H849 0.951 . S
C818 C817 1.340 . S
C818 C819 1.439 . S
C818 H850 0.950 . S
C819 N815 1.374 . S
C819 C818 1.439 . S
C819 C844 1.395 . S
N820 Co809 1.995 . S
N820 C821 1.376 . S
N820 C824 1.383 . S
C821 N820 1.376 . S
C821 C822 1.446 . S
C821 C844 1.391 1_554 S
C822 C821 1.446 . S
C822 C823 1.339 . S
C822 H851 0.949 . S
C823 C822 1.339 . S
C823 C824 1.439 . S
C823 H852 0.950 . S
C824 N820 1.383 . S
C824 C823 1.439 . S
C824 C842 1.392 . S
N825 Co809 2.282 . S
N825 C828 1.332 . S
N825 C830 1.332 . S
C826 C827 1.386 . S
C826 C829 1.388 . S
C827 C826 1.386 . S
C827 C828 1.382 . S
C827 H853 0.950 . S
C828 N825 1.332 . S
C828 C827 1.382 . S
C828 H839 0.952 . S
C829 C826 1.388 . S
C829 C830 1.382 . S
C829 H854 0.950 . S
C830 N825 1.332 . S
C830 C829 1.382 . S
C830 H840 0.948 . S
N831 Co809 2.282 1_556 S
N831 C835 1.332 . S
N831 C836 1.332 . S
C832 C833 1.388 . S
C832 C836 1.382 . S
C832 H855 0.950 . S
C833 C832 1.388 . S
C833 C834 1.386 . S
C834 C833 1.386 . S
C834 C835 1.382 . S
C834 H856 0.950 . S
C835 N831 1.332 . S
C835 C834 1.382 . S
C835 H837 0.952 . S
C836 N831 1.332 . S
C836 C832 1.382 . S
C836 H838 0.948 . S
H837 C835 0.952 . S
H838 C836 0.948 . S
H839 C828 0.952 . S
H840 C830 0.948 . S
C841 C807 1.395 . S
C841 C811 1.391 1_554 S
C842 C804 1.389 . S
C842 C824 1.392 . S
C843 C814 1.392 . S
C843 C816 1.389 . S
C844 C819 1.395 . S
C844 C821 1.391 1_556 S
H845 C805 0.951 . S
H846 C806 0.950 1_545 S
H847 C812 0.949 . S
H848 C813 0.950 . S
H849 C817 0.951 . S
H850 C818 0.950 . S
H851 C822 0.949 . S
H852 C823 0.950 . S
H853 C827 0.950 . S
H854 C829 0.950 . S
H855 C832 0.950 . S
H856 C834 0.950 . S
C857 C858 1.443 . S
C857 N861 1.376 . S
C857 C895 1.389 . S
C858 C857 1.443 . S
C858 C859 1.340 . S
C858 H898 0.951 . S
C859 C858 1.340 . S
C859 C860 1.439 . S
C859 H899 0.950 . S
C860 C859 1.439 . S
C860 N861 1.374 . S
C860 C894 1.395 1_554 S
N861 C857 1.376 . S
N861 C860 1.374 . S
N861 Co862 2.008 . S
Co862 N861 2.008 . S
Co862 N863 1.995 1_554 S
Co862 N868 2.008 . S
Co862 N873 1.995 . S
Co862 N878 2.282 . S
Co862 N884 2.282 1_554 S
N863 Co862 1.995 1_556 S
N863 C864 1.376 . S
N863 C867 1.383 . S
C864 N863 1.376 . S
C864 C865 1.446 . S
C864 C894 1.391 . S
C865 C864 1.446 . S
C865 C866 1.339 . S
C865 H900 0.949 . S
C866 C865 1.339 . S
C866 C867 1.439 . S
C866 H901 0.950 . S
C867 N863 1.383 . S
C867 C866 1.439 . S
C867 C896 1.392 . S
N868 Co862 2.008 . S
N868 C869 1.376 1_554 S
N868 C872 1.374 . S
C869 N868 1.376 1_556 S
C869 C870 1.443 . S
C869 C896 1.389 . S
C870 C869 1.443 . S
C870 C871 1.340 1_556 S
C870 H902 0.951 . S
C871 C870 1.340 1_554 S
C871 C872 1.439 . S
C871 H903 0.950 . S
C872 N868 1.374 . S
C872 C871 1.439 . S
C872 C897 1.395 . S
N873 Co862 1.995 . S
N873 C874 1.376 . S
N873 C877 1.383 . S
C874 N873 1.376 . S
C874 C875 1.446 . S
C874 C897 1.391 . S
C875 C874 1.446 . S
C875 C876 1.339 . S
C875 H904 0.949 . S
C876 C875 1.339 . S
C876 C877 1.439 . S
C876 H905 0.950 . S
C877 N873 1.383 . S
C877 C876 1.439 . S
C877 C895 1.392 . S
N878 Co862 2.282 . S
N878 C881 1.332 . S
N878 C883 1.332 . S
C879 C880 1.386 . S
C879 C882 1.388 . S
C880 C879 1.386 . S
C880 C881 1.382 . S
C880 H906 0.950 . S
C881 N878 1.332 . S
C881 C880 1.382 . S
C881 H892 0.952 . S
C882 C879 1.388 . S
C882 C883 1.382 . S
C882 H907 0.950 . S
C883 N878 1.332 . S
C883 C882 1.382 . S
C883 H893 0.948 . S
N884 Co862 2.282 1_556 S
N884 C888 1.332 . S
N884 C889 1.332 . S
C885 C886 1.388 . S
C885 C889 1.382 . S
C885 H908 0.950 . S
C886 C885 1.388 . S
C886 C887 1.386 . S
C887 C886 1.386 . S
C887 C888 1.382 . S
C887 H909 0.950 . S
C888 N884 1.332 . S
C888 C887 1.382 . S
C888 H890 0.952 . S
C889 N884 1.332 . S
C889 C885 1.382 . S
C889 H891 0.948 . S
H890 C888 0.952 . S
H891 C889 0.948 . S
H892 C881 0.952 . S
H893 C883 0.948 . S
C894 C860 1.395 1_556 S
C894 C864 1.391 . S
C895 C857 1.389 . S
C895 C877 1.392 . S
C896 C867 1.392 . S
C896 C869 1.389 . S
C897 C872 1.395 . S
C897 C874 1.391 . S
H898 C858 0.951 . S
H899 C859 0.950 . S
H900 C865 0.949 . S
H901 C866 0.950 . S
H902 C870 0.951 . S
H903 C871 0.950 . S
H904 C875 0.949 . S
H905 C876 0.950 . S
H906 C880 0.950 . S
H907 C882 0.950 . S
H908 C885 0.950 . S
H909 C887 0.950 . S
C910 C911 1.443 . S
C910 N914 1.376 . S
C910 C948 1.389 1_554 S
C911 C910 1.443 . S
C911 C912 1.340 . S
C911 H951 0.951 1_554 S
C912 C911 1.340 . S
C912 C913 1.439 . S
C912 H952 0.950 . S
C913 C912 1.439 . S
C913 N914 1.374 . S
C913 C947 1.395 . S
N914 C910 1.376 . S
N914 C913 1.374 . S
N914 Co915 2.008 . S
Co915 N914 2.008 . S
Co915 N916 1.995 . S
Co915 N921 2.008 . S
Co915 N926 1.995 . S
Co915 N931 2.282 . S
Co915 N937 2.282 . S
N916 Co915 1.995 . S
N916 C917 1.376 . S
N916 C920 1.383 . S
C917 N916 1.376 . S
C917 C918 1.446 . S
C917 C947 1.391 . S
C918 C917 1.446 . S
C918 C919 1.339 . S
C918 H953 0.949 . S
C919 C918 1.339 . S
C919 C920 1.439 . S
C919 H954 0.950 . S
C920 N916 1.383 . S
C920 C919 1.439 . S
C920 C949 1.392 . S
N921 Co915 2.008 . S
N921 C922 1.376 . S
N921 C925 1.374 . S
C922 N921 1.376 . S
C922 C923 1.443 . S
C922 C949 1.389 . S
C923 C922 1.443 . S
C923 C924 1.340 . S
C923 H955 0.951 . S
C924 C923 1.340 . S
C924 C925 1.439 . S
C924 H956 0.950 . S
C925 N921 1.374 . S
C925 C924 1.439 . S
C925 C950 1.395 . S
N926 Co915 1.995 . S
N926 C927 1.376 1_554 S
N926 C930 1.383 1_554 S
C927 N926 1.376 1_556 S
C927 C928 1.449 . S
C927 C950 1.389 1_556 S
C928 C927 1.449 . S
C928 C929 1.339 . S
C928 H957 0.949 . S
C929 C928 1.339 . S
C929 C930 1.439 . S
C929 H958 0.950 . S
C930 N926 1.383 1_556 S
C930 C929 1.439 . S
C930 C948 1.392 . S
N931 Co915 2.282 . S
N931 C934 1.332 1_554 S
N931 C936 1.332 . S
C932 C933 1.386 . S
C932 C935 1.388 1_556 S
C933 C932 1.386 . S
C933 C934 1.382 . S
C933 H959 0.950 . S
C934 N931 1.332 1_556 S
C934 C933 1.382 . S
C934 H945 0.952 . S
C935 C932 1.388 1_554 S
C935 C936 1.382 . S
C935 H960 0.950 . S
C936 N931 1.332 . S
C936 C935 1.382 . S
C936 H946 0.948 . S
N937 Co915 2.282 . S
N937 C941 1.332 . S
N937 C942 1.332 . S
C938 C939 1.388 . S
C938 C942 1.382 . S
C938 H961 0.950 . S
C939 C938 1.388 . S
C939 C940 1.386 . S
C940 C939 1.386 . S
C940 C941 1.382 . S
C940 H962 0.950 . S
C941 N937 1.332 . S
C941 C940 1.382 . S
C941 H943 0.952 . S
C942 N937 1.332 . S
C942 C938 1.382 . S
C942 H944 0.948 . S
H943 C941 0.952 . S
H944 C942 0.948 . S
H945 C934 0.952 . S
H946 C936 0.948 . S
C947 C913 1.395 . S
C947 C917 1.391 . S
C948 C910 1.389 1_556 S
C948 C930 1.392 . S
C949 C920 1.392 . S
C949 C922 1.389 . S
C950 C925 1.395 . S
C950 C927 1.389 1_554 S
H951 C911 0.951 1_556 S
H952 C912 0.950 . S
H953 C918 0.949 . S
H954 C919 0.950 . S
H955 C923 0.951 . S
H956 C924 0.950 . S
H957 C928 0.949 . S
H958 C929 0.950 . S
H959 C933 0.950 . S
H960 C935 0.950 . S
H961 C938 0.950 . S
H962 C940 0.950 . S
C963 C964 1.443 . S
C963 N967 1.376 . S
C963 C1001 1.389 . S
C964 C963 1.443 . S
C964 C965 1.340 . S
C964 H1004 0.951 . S
C965 C964 1.340 . S
C965 C966 1.439 . S
C965 H1005 0.950 . S
C966 C965 1.439 . S
C966 N967 1.374 . S
C966 C1000 1.395 . S
N967 C963 1.376 . S
N967 C966 1.374 . S
N967 Co968 2.008 . S
Co968 N967 2.008 . S
Co968 N969 1.995 . S
Co968 N974 2.008 . S
Co968 N979 1.995 . S
Co968 N984 2.282 . S
Co968 N990 2.282 . S
N969 Co968 1.995 . S
N969 C970 1.376 . S
N969 C973 1.383 . S
C970 N969 1.376 . S
C970 C971 1.446 . S
C970 C1000 1.391 . S
C971 C970 1.446 . S
C971 C972 1.339 . S
C971 H1006 0.949 . S
C972 C971 1.339 . S
C972 C973 1.439 . S
C972 H1007 0.950 . S
C973 N969 1.383 . S
C973 C972 1.439 . S
C973 C1002 1.392 . S
N974 Co968 2.008 . S
N974 C975 1.376 . S
N974 C978 1.374 . S
C975 N974 1.376 . S
C975 C976 1.443 . S
C975 C1002 1.389 . S
C976 C975 1.443 . S
C976 C977 1.340 . S
C976 H1008 0.951 . S
C977 C976 1.340 . S
C977 C978 1.439 . S
C977 H1009 0.950 . S
C978 N974 1.374 . S
C978 C977 1.439 . S
C978 C1003 1.395 . S
N979 Co968 1.995 . S
N979 C980 1.376 . S
N979 C983 1.383 . S
C980 N979 1.376 . S
C980 C981 1.446 . S
C980 C1003 1.391 . S
C981 C980 1.446 . S
C981 C982 1.339 . S
C981 H1010 0.949 . S
C982 C981 1.339 . S
C982 C983 1.439 . S
C982 H1011 0.950 . S
C983 N979 1.383 . S
C983 C982 1.439 . S
C983 C1001 1.392 . S
N984 Co968 2.282 . S
N984 C987 1.332 . S
N984 C989 1.332 . S
C985 C986 1.386 . S
C985 C988 1.388 . S
C986 C985 1.386 . S
C986 C987 1.382 . S
C986 H1012 0.950 . S
C987 N984 1.332 . S
C987 C986 1.382 . S
C987 H998 0.952 . S
C988 C985 1.388 . S
C988 C989 1.382 . S
C988 H1013 0.950 . S
C989 N984 1.332 . S
C989 C988 1.382 . S
C989 H999 0.948 . S
N990 Co968 2.282 . S
N990 C994 1.332 . S
N990 C995 1.332 . S
C991 C992 1.388 . S
C991 C995 1.382 . S
C991 H1014 0.950 . S
C992 C991 1.388 . S
C992 C993 1.386 . S
C993 C992 1.386 . S
C993 C994 1.382 . S
C993 H1015 0.950 . S
C994 N990 1.332 . S
C994 C993 1.382 . S
C994 H996 0.952 . S
C995 N990 1.332 . S
C995 C991 1.382 . S
C995 H997 0.948 . S
H996 C994 0.952 . S
H997 C995 0.948 . S
H998 C987 0.952 . S
H999 C989 0.948 . S
C1000 C966 1.395 . S
C1000 C970 1.391 . S
C1001 C963 1.389 . S
C1001 C983 1.392 . S
C1002 C973 1.392 . S
C1002 C975 1.389 . S
C1003 C978 1.395 . S
C1003 C980 1.391 . S
H1004 C964 0.951 . S
H1005 C965 0.950 . S
H1006 C971 0.949 . S
H1007 C972 0.950 . S
H1008 C976 0.951 . S
H1009 C977 0.950 . S
H1010 C981 0.949 . S
H1011 C982 0.950 . S
H1012 C986 0.950 . S
H1013 C988 0.950 . S
H1014 C991 0.950 . S
H1015 C993 0.950 . S
C621 C39 2.688 . S
C674 C125 1.403 . S
C737 C217 3.071 . S
C780 C261 2.751 . S
C359 C736 1.553 . S
C773 C433 1.511 . S
C614 C495 2.426 . S
C667 C587 2.040 . S
C720 C557 2.057 . S
C789 C347 1.511 . S
C630 C421 1.236 . S
C683 C507 2.179 . S
C631 C137 1.705 . S
C684 C187 3.047 . S
C727 C291 3.747 . S
C790 C69 2.934 . S
C833 C581 1.602 . S
C365 C886 2.835 . S
C439 C948 3.965 . S
C483 C1002 2.295 . S
C113 C949 2.143 . S
C211 C1001 2.427 . S
C273 C826 2.150 . S
C879 C51 1.332 . S
C939 C63 1.994 . S
C143 C985 2.302 . S
C199 C842 3.452 . S
C285 C895 1.703 . S
C843 C335 2.169 . S
C896 C409 3.512 . S
C513 C932 2.260 . S
C992 C569 1.610 1_554 S
