# Generated by pormake.
# Topology llk, (3,12)-cn, num edge types: 1
# Building blocks:
#     Node 0, Type 0, BuildingBlock: CUQRIR_clean_linker_1, # of connection points: 3
#     Node 1, Type 0, BuildingBlock: CUQRIR_clean_linker_1, # of connection points: 3
#     Node 2, Type 0, BuildingBlock: CUQRIR_clean_linker_1, # of connection points: 3
#     Node 3, Type 0, BuildingBlock: CUQRIR_clean_linker_1, # of connection points: 3
#     Node 4, Type 0, BuildingBlock: CUQRIR_clean_linker_1, # of connection points: 3
#     Node 5, Type 0, BuildingBlock: CUQRIR_clean_linker_1, # of connection points: 3
#     Node 6, Type 0, BuildingBlock: CUQRIR_clean_linker_1, # of connection points: 3
#     Node 7, Type 0, BuildingBlock: CUQRIR_clean_linker_1, # of connection points: 3
#     Node 8, Type 0, BuildingBlock: CUQRIR_clean_linker_1, # of connection points: 3
#     Node 9, Type 0, BuildingBlock: CUQRIR_clean_linker_1, # of connection points: 3
#     Node 10, Type 0, BuildingBlock: CUQRIR_clean_linker_1, # of connection points: 3
#     Node 11, Type 0, BuildingBlock: CUQRIR_clean_linker_1, # of connection points: 3
#     Node 12, Type 0, BuildingBlock: CUQRIR_clean_linker_1, # of connection points: 3
#     Node 13, Type 0, BuildingBlock: CUQRIR_clean_linker_1, # of connection points: 3
#     Node 14, Type 0, BuildingBlock: CUQRIR_clean_linker_1, # of connection points: 3
#     Node 15, Type 0, BuildingBlock: CUQRIR_clean_linker_1, # of connection points: 3
#     Node 16, Type 0, BuildingBlock: CUQRIR_clean_linker_1, # of connection points: 3
#     Node 17, Type 0, BuildingBlock: CUQRIR_clean_linker_1, # of connection points: 3
#     Node 18, Type 0, BuildingBlock: CUQRIR_clean_linker_1, # of connection points: 3
#     Node 19, Type 0, BuildingBlock: CUQRIR_clean_linker_1, # of connection points: 3
#     Node 20, Type 0, BuildingBlock: CUQRIR_clean_linker_1, # of connection points: 3
#     Node 21, Type 0, BuildingBlock: CUQRIR_clean_linker_1, # of connection points: 3
#     Node 22, Type 0, BuildingBlock: CUQRIR_clean_linker_1, # of connection points: 3
#     Node 23, Type 0, BuildingBlock: CUQRIR_clean_linker_1, # of connection points: 3
#     Node 24, Type 1, BuildingBlock: EZIPEK_clean_sbu_0, # of connection points: 12
#     Node 25, Type 1, BuildingBlock: EZIPEK_clean_sbu_0, # of connection points: 12
#     Node 26, Type 1, BuildingBlock: EZIPEK_clean_sbu_0, # of connection points: 12
#     Node 27, Type 1, BuildingBlock: EZIPEK_clean_sbu_0, # of connection points: 12
#     Node 28, Type 1, BuildingBlock: EZIPEK_clean_sbu_0, # of connection points: 12
#     Node 29, Type 1, BuildingBlock: EZIPEK_clean_sbu_0, # of connection points: 12
#     Edge 30, Type (0, 1), BuildingBlock: UVAHIK_clean_linker_0, # of connection points: 2
#     Edge 31, Type (0, 1), BuildingBlock: UVAHIK_clean_linker_0, # of connection points: 2
#     Edge 32, Type (0, 1), BuildingBlock: UVAHIK_clean_linker_0, # of connection points: 2
#     Edge 33, Type (0, 1), BuildingBlock: UVAHIK_clean_linker_0, # of connection points: 2
#     Edge 34, Type (0, 1), BuildingBlock: UVAHIK_clean_linker_0, # of connection points: 2
#     Edge 35, Type (0, 1), BuildingBlock: UVAHIK_clean_linker_0, # of connection points: 2
#     Edge 36, Type (0, 1), BuildingBlock: UVAHIK_clean_linker_0, # of connection points: 2
#     Edge 37, Type (0, 1), BuildingBlock: UVAHIK_clean_linker_0, # of connection points: 2
#     Edge 38, Type (0, 1), BuildingBlock: UVAHIK_clean_linker_0, # of connection points: 2
#     Edge 39, Type (0, 1), BuildingBlock: UVAHIK_clean_linker_0, # of connection points: 2
#     Edge 40, Type (0, 1), BuildingBlock: UVAHIK_clean_linker_0, # of connection points: 2
#     Edge 41, Type (0, 1), BuildingBlock: UVAHIK_clean_linker_0, # of connection points: 2
#     Edge 42, Type (0, 1), BuildingBlock: UVAHIK_clean_linker_0, # of connection points: 2
#     Edge 43, Type (0, 1), BuildingBlock: UVAHIK_clean_linker_0, # of connection points: 2
#     Edge 44, Type (0, 1), BuildingBlock: UVAHIK_clean_linker_0, # of connection points: 2
#     Edge 45, Type (0, 1), BuildingBlock: UVAHIK_clean_linker_0, # of connection points: 2
#     Edge 46, Type (0, 1), BuildingBlock: UVAHIK_clean_linker_0, # of connection points: 2
#     Edge 47, Type (0, 1), BuildingBlock: UVAHIK_clean_linker_0, # of connection points: 2
#     Edge 48, Type (0, 1), BuildingBlock: UVAHIK_clean_linker_0, # of connection points: 2
#     Edge 49, Type (0, 1), BuildingBlock: UVAHIK_clean_linker_0, # of connection points: 2
#     Edge 50, Type (0, 1), BuildingBlock: UVAHIK_clean_linker_0, # of connection points: 2
#     Edge 51, Type (0, 1), BuildingBlock: UVAHIK_clean_linker_0, # of connection points: 2
#     Edge 52, Type (0, 1), BuildingBlock: UVAHIK_clean_linker_0, # of connection points: 2
#     Edge 53, Type (0, 1), BuildingBlock: UVAHIK_clean_linker_0, # of connection points: 2
#     Edge 54, Type (0, 1), BuildingBlock: UVAHIK_clean_linker_0, # of connection points: 2
#     Edge 55, Type (0, 1), BuildingBlock: UVAHIK_clean_linker_0, # of connection points: 2
#     Edge 56, Type (0, 1), BuildingBlock: UVAHIK_clean_linker_0, # of connection points: 2
#     Edge 57, Type (0, 1), BuildingBlock: UVAHIK_clean_linker_0, # of connection points: 2
#     Edge 58, Type (0, 1), BuildingBlock: UVAHIK_clean_linker_0, # of connection points: 2
#     Edge 59, Type (0, 1), BuildingBlock: UVAHIK_clean_linker_0, # of connection points: 2
#     Edge 60, Type (0, 1), BuildingBlock: UVAHIK_clean_linker_0, # of connection points: 2
#     Edge 61, Type (0, 1), BuildingBlock: UVAHIK_clean_linker_0, # of connection points: 2
#     Edge 62, Type (0, 1), BuildingBlock: UVAHIK_clean_linker_0, # of connection points: 2
#     Edge 63, Type (0, 1), BuildingBlock: UVAHIK_clean_linker_0, # of connection points: 2
#     Edge 64, Type (0, 1), BuildingBlock: UVAHIK_clean_linker_0, # of connection points: 2
#     Edge 65, Type (0, 1), BuildingBlock: UVAHIK_clean_linker_0, # of connection points: 2
#     Edge 66, Type (0, 1), BuildingBlock: UVAHIK_clean_linker_0, # of connection points: 2
#     Edge 67, Type (0, 1), BuildingBlock: UVAHIK_clean_linker_0, # of connection points: 2
#     Edge 68, Type (0, 1), BuildingBlock: UVAHIK_clean_linker_0, # of connection points: 2
#     Edge 69, Type (0, 1), BuildingBlock: UVAHIK_clean_linker_0, # of connection points: 2
#     Edge 70, Type (0, 1), BuildingBlock: UVAHIK_clean_linker_0, # of connection points: 2
#     Edge 71, Type (0, 1), BuildingBlock: UVAHIK_clean_linker_0, # of connection points: 2
#     Edge 72, Type (0, 1), BuildingBlock: UVAHIK_clean_linker_0, # of connection points: 2
#     Edge 73, Type (0, 1), BuildingBlock: UVAHIK_clean_linker_0, # of connection points: 2
#     Edge 74, Type (0, 1), BuildingBlock: UVAHIK_clean_linker_0, # of connection points: 2
#     Edge 75, Type (0, 1), BuildingBlock: UVAHIK_clean_linker_0, # of connection points: 2
#     Edge 76, Type (0, 1), BuildingBlock: UVAHIK_clean_linker_0, # of connection points: 2
#     Edge 77, Type (0, 1), BuildingBlock: UVAHIK_clean_linker_0, # of connection points: 2
#     Edge 78, Type (0, 1), BuildingBlock: UVAHIK_clean_linker_0, # of connection points: 2
#     Edge 79, Type (0, 1), BuildingBlock: UVAHIK_clean_linker_0, # of connection points: 2
#     Edge 80, Type (0, 1), BuildingBlock: UVAHIK_clean_linker_0, # of connection points: 2
#     Edge 81, Type (0, 1), BuildingBlock: UVAHIK_clean_linker_0, # of connection points: 2
#     Edge 82, Type (0, 1), BuildingBlock: UVAHIK_clean_linker_0, # of connection points: 2
#     Edge 83, Type (0, 1), BuildingBlock: UVAHIK_clean_linker_0, # of connection points: 2
#     Edge 84, Type (0, 1), BuildingBlock: UVAHIK_clean_linker_0, # of connection points: 2
#     Edge 85, Type (0, 1), BuildingBlock: UVAHIK_clean_linker_0, # of connection points: 2
#     Edge 86, Type (0, 1), BuildingBlock: UVAHIK_clean_linker_0, # of connection points: 2
#     Edge 87, Type (0, 1), BuildingBlock: UVAHIK_clean_linker_0, # of connection points: 2
#     Edge 88, Type (0, 1), BuildingBlock: UVAHIK_clean_linker_0, # of connection points: 2
#     Edge 89, Type (0, 1), BuildingBlock: UVAHIK_clean_linker_0, # of connection points: 2
#     Edge 90, Type (0, 1), BuildingBlock: UVAHIK_clean_linker_0, # of connection points: 2
#     Edge 91, Type (0, 1), BuildingBlock: UVAHIK_clean_linker_0, # of connection points: 2
#     Edge 92, Type (0, 1), BuildingBlock: UVAHIK_clean_linker_0, # of connection points: 2
#     Edge 93, Type (0, 1), BuildingBlock: UVAHIK_clean_linker_0, # of connection points: 2
#     Edge 94, Type (0, 1), BuildingBlock: UVAHIK_clean_linker_0, # of connection points: 2
#     Edge 95, Type (0, 1), BuildingBlock: UVAHIK_clean_linker_0, # of connection points: 2
#     Edge 96, Type (0, 1), BuildingBlock: UVAHIK_clean_linker_0, # of connection points: 2
#     Edge 97, Type (0, 1), BuildingBlock: UVAHIK_clean_linker_0, # of connection points: 2
#     Edge 98, Type (0, 1), BuildingBlock: UVAHIK_clean_linker_0, # of connection points: 2
#     Edge 99, Type (0, 1), BuildingBlock: UVAHIK_clean_linker_0, # of connection points: 2
#     Edge 100, Type (0, 1), BuildingBlock: UVAHIK_clean_linker_0, # of connection points: 2
#     Edge 101, Type (0, 1), BuildingBlock: UVAHIK_clean_linker_0, # of connection points: 2
# Relax obj value: 0.088
# Max RMSD: 0.207
# Mean RMSD: 0.156
data_MOF--net-llk--node1-EZIPEK_clean_sbu_0--node2-CUQRIR_clean_linker_1--edge1-UVAHIK_clean_linker_0
_symmetry_space_group_name_H-M    P1
_symmetry_Int_Tables_number       1
_symmetry_cell_setting            triclinic
loop_
_symmetry_equiv_pos_as_xyz
'x, y, z'
_cell_length_a     57.258636
_cell_length_b     56.311408
_cell_length_c     55.438983
_cell_angle_alpha  89.989532
_cell_angle_beta   90.004854
_cell_angle_gamma 90.00815
loop_
_atom_site_label
_atom_site_type_symbol
_atom_site_fract_x
_atom_site_fract_y
_atom_site_fract_z
_atom_type_partial_charge
C0 C 0.0415 0.24268 0.23926 0.0
N1 N 0.03937 0.26665 0.24051 0.0
N2 N 0.04394 0.23342 0.26167 0.0
C3 C 0.0424 0.22848 0.21638 0.0
C4 C 0.04292 0.25241 0.27652 0.0
N5 N 0.04037 0.27255 0.26368 0.0
C6 C 0.04295 0.25109 0.30367 0.0
H7 H 0.0243 0.22432 0.21062 0.0
H8 H 0.05187 0.2115 0.2192 0.0
H9 H 0.05098 0.23879 0.2018 0.0
H10 H 0.06123 0.25237 0.3102 0.0
H11 H 0.03551 0.23401 0.31003 0.0
H12 H 0.03281 0.26592 0.31165 0.0
C13 C 0.77763 0.99965 0.24443 0.0
N14 N 0.755 0.99238 0.24384 0.0
N15 N 0.78703 0.99566 0.2665 0.0
C16 C 0.79052 0.01081 0.22377 0.0
C17 C 0.76945 0.98574 0.27926 0.0
N18 N 0.75006 0.98358 0.26551 0.0
C19 C 0.7706 0.97991 0.30581 0.0
H20 H 0.80959 0.0077 0.22546 0.0
H21 H 0.7874 0.03025 0.22401 0.0
H22 H 0.78419 0.00365 0.20631 0.0
H23 H 0.75594 0.98866 0.31543 0.0
H24 H 0.78731 0.98537 0.3142 0.0
H25 H 0.76868 0.96046 0.30825 0.0
C26 C 0.02937 0.76454 0.23904 0.0
N27 N 0.0355 0.76453 0.26264 0.0
N28 N 0.03446 0.74335 0.22886 0.0
C29 C 0.01751 0.78462 0.22613 0.0
C30 C 0.04374 0.73046 0.24708 0.0
N31 N 0.04449 0.74335 0.26761 0.0
C32 C 0.04889 0.70426 0.24571 0.0
H33 H 0.99833 0.78276 0.22831 0.0
H34 H 0.02158 0.78408 0.20657 0.0
H35 H 0.02294 0.80197 0.23377 0.0
H36 H 0.04932 0.69781 0.22682 0.0
H37 H 0.03524 0.69438 0.25579 0.0
H38 H 0.06595 0.70041 0.25432 0.0
C39 C 0.26254 1.00046 0.24078 0.0
N40 N 0.28509 0.00789 0.24041 0.0
N41 N 0.25258 0.00554 0.2623 0.0
C42 C 0.25028 0.98793 0.22052 0.0
C43 C 0.26976 0.01621 0.27501 0.0
N44 N 0.28948 0.01781 0.2617 0.0
C45 C 0.26804 0.02283 0.30133 0.0
H46 H 0.23117 0.99114 0.22139 0.0
H47 H 0.25334 0.96855 0.22222 0.0
H48 H 0.25712 0.99393 0.20281 0.0
H49 H 0.25096 0.01799 0.30936 0.0
H50 H 0.27037 0.04228 0.30329 0.0
H51 H 0.28221 0.01398 0.31163 0.0
C52 C 0.02901 0.76452 0.76279 0.0
N53 N 0.03388 0.74096 0.76166 0.0
N54 N 0.0318 0.77468 0.74088 0.0
C55 C 0.02151 0.77773 0.78499 0.0
C56 C 0.03843 0.75662 0.72638 0.0
N57 N 0.03988 0.73616 0.73901 0.0
C58 C 0.04148 0.7585 0.69942 0.0
H59 H 1.00217 0.7773 0.78623 0.0
H60 H 0.02705 0.79659 0.78396 0.0
H61 H 0.02893 0.76945 0.80146 0.0
H62 H 0.03636 0.77614 0.69232 0.0
H63 H 0.03102 0.74455 0.69029 0.0
H64 H 0.06009 0.75545 0.69482 0.0
C65 C 0.26343 0.00665 0.75981 0.0
N66 N 0.286 0.99929 0.76017 0.0
N67 N 0.25352 1.00164 0.73826 0.0
C68 C 0.25112 0.01906 0.78011 0.0
C69 C 0.27074 0.99106 0.72552 0.0
N70 N 0.29045 0.98947 0.73885 0.0
C71 C 0.26906 0.98455 0.69917 0.0
H72 H 0.23202 0.0158 0.77919 0.0
H73 H 0.25412 0.03846 0.77849 0.0
H74 H 0.25795 0.01302 0.79781 0.0
H75 H 0.25193 0.98923 0.69118 0.0
H76 H 0.2716 0.96514 0.69711 0.0
H77 H 0.28312 0.99362 0.68892 0.0
C78 C 1.00521 0.24359 0.76161 0.0
N79 N 0.00665 0.24458 0.73719 0.0
N80 N 1.00215 0.26564 0.77085 0.0
C81 C 0.00546 0.22121 0.77633 0.0
C82 C 1.00208 0.28005 0.75134 0.0
N83 N 1.00454 0.26726 0.73097 0.0
C84 C 1.00151 0.3068 0.75234 0.0
H85 H 0.99758 0.20628 0.76611 0.0
H86 H 0.9959 0.22372 0.79355 0.0
H87 H 0.02383 0.21654 0.78062 0.0
H88 H 0.00958 0.31346 0.76923 0.0
H89 H 0.98306 0.3128 0.7518 0.0
H90 H 0.01081 0.31473 0.73674 0.0
C91 C 0.77747 0.00921 0.75695 0.0
N92 N 0.7547 0.01602 0.7572 0.0
N93 N 0.78706 0.01326 0.73499 0.0
C94 C 0.79032 0.99846 0.77786 0.0
C95 C 0.76945 0.02274 0.72192 0.0
N96 N 0.74986 0.0246 0.73541 0.0
C97 C 0.77083 0.02847 0.69537 0.0
H98 H 0.80935 1.00191 0.77637 0.0
H99 H 0.78755 0.97896 0.77774 0.0
H100 H 0.78367 0.00564 0.79518 0.0
H101 H 0.75636 0.01952 0.68561 0.0
H102 H 0.78769 0.02314 0.6872 0.0
H103 H 0.76876 0.04788 0.69281 0.0
C104 C 0.2662 0.24879 0.00274 0.0
N105 N 0.28943 0.24773 0.99745 0.0
N106 N 0.25761 0.27087 0.99822 0.0
C107 C 0.25176 0.22834 0.01155 0.0
C108 C 0.2763 0.28315 0.99019 0.0
N109 N 0.29547 0.26914 0.98944 0.0
C110 C 0.2762 0.30942 0.98482 0.0
H111 H 0.23307 0.23097 0.00699 0.0
H112 H 0.25339 0.22716 0.03145 0.0
H113 H 0.25808 0.21142 0.00364 0.0
H114 H 0.26088 0.31847 0.99288 0.0
H115 H 0.27565 0.31201 0.965 0.0
H116 H 0.29234 0.31794 0.99177 0.0
C117 C 0.26476 0.75889 0.99852 0.0
N118 N 0.28803 0.7599 0.00365 0.0
N119 N 0.25618 0.73678 0.00291 0.0
C120 C 0.25029 0.77942 0.98996 0.0
C121 C 0.27492 0.72443 0.0107 0.0
N122 N 0.2941 0.73843 0.01143 0.0
C123 C 0.27484 0.69813 0.01589 0.0
H124 H 0.23161 0.77676 0.9946 0.0
H125 H 0.2518 0.78076 0.97005 0.0
H126 H 0.25667 0.79627 0.99797 0.0
H127 H 0.25946 0.68914 0.00787 0.0
H128 H 0.27441 0.6954 0.0357 0.0
H129 H 0.29092 0.68965 0.00878 0.0
C130 C 0.74246 0.25717 0.99035 0.0
N131 N 0.75661 0.27628 0.98853 0.0
N132 N 0.75436 0.23815 0.99861 0.0
C133 C 0.7165 0.25761 0.9856 0.0
C134 C 0.77643 0.24638 0.00184 0.0
N135 N 0.77781 0.26983 0.99587 0.0
C136 C 0.79638 0.23137 0.0105 0.0
H137 H 0.70821 0.27169 0.9967 0.0
H138 H 0.70793 0.24038 0.98945 0.0
H139 H 0.71334 0.26201 0.96639 0.0
H140 H 0.7934 0.21241 0.00597 0.0
H141 H 0.79768 0.2329 0.03041 0.0
H142 H 0.81308 0.23739 0.00241 0.0
C143 C 0.74301 0.74985 0.01273 0.0
N144 N 0.75716 0.7307 0.01453 0.0
N145 N 0.75428 0.7682 0.00219 0.0
C146 C 0.71744 0.74992 0.01937 0.0
C147 C 0.77592 0.7595 0.9975 0.0
N148 N 0.77766 0.73654 0.00493 0.0
C149 C 0.79501 0.77337 0.98548 0.0
H150 H 0.7083 0.7354 0.00965 0.0
H151 H 0.70876 0.76702 0.01525 0.0
H152 H 0.71557 0.74654 0.03898 0.0
H153 H 0.79261 0.7927 0.9885 0.0
H154 H 0.79439 0.76998 0.96577 0.0
H155 H 0.81236 0.76777 0.99233 0.0
C156 C 0.53975 0.7427 0.73721 0.0
N157 N 0.54008 0.76674 0.73875 0.0
N158 N 0.54358 0.73291 0.75916 0.0
C159 C 0.53634 0.7287 0.71444 0.0
C160 C 0.54592 0.7517 0.77413 0.0
N161 N 0.54402 0.77221 0.76171 0.0
C162 C 0.54778 0.74998 0.8012 0.0
H163 H 0.51737 0.72598 0.71147 0.0
H164 H 0.54475 0.711 0.71592 0.0
H165 H 0.54361 0.73838 0.69871 0.0
H166 H 0.56649 0.75073 0.80635 0.0
H167 H 0.54034 0.73309 0.80804 0.0
H168 H 0.53865 0.76499 0.81008 0.0
C169 C 0.27714 0.49794 0.74308 0.0
N170 N 0.25441 0.49097 0.74276 0.0
N171 N 0.28672 0.49386 0.76505 0.0
C172 C 0.28995 0.50884 0.72223 0.0
C173 C 0.26916 0.48421 0.77804 0.0
N174 N 0.2496 0.48227 0.76451 0.0
C175 C 0.27053 0.47843 0.80458 0.0
H176 H 0.30901 0.50556 0.72377 0.0
H177 H 0.28702 0.52831 0.72238 0.0
H178 H 0.2834 0.50163 0.70488 0.0
H179 H 0.25599 0.48725 0.81433 0.0
H180 H 0.28733 0.48387 0.8128 0.0
H181 H 0.26859 0.459 0.80709 0.0
C182 C 0.5287 0.26492 0.73945 0.0
N183 N 0.5341 0.26387 0.76327 0.0
N184 N 0.53171 0.24344 0.72902 0.0
C185 C 0.52051 0.28663 0.72621 0.0
C186 C 0.53902 0.22927 0.74718 0.0
N187 N 0.54067 0.24169 0.76795 0.0
C188 C 0.54233 0.20277 0.74518 0.0
H189 H 0.50117 0.2875 0.72712 0.0
H190 H 0.52562 0.2857 0.70692 0.0
H191 H 0.52785 0.30298 0.73442 0.0
H192 H 0.56104 0.19845 0.74787 0.0
H193 H 0.53691 0.19573 0.72737 0.0
H194 H 0.53225 0.19364 0.75956 0.0
C195 C 0.76323 0.50031 0.74123 0.0
N196 N 0.78577 0.50777 0.74063 0.0
N197 N 0.7536 0.505 0.763 0.0
C198 C 0.75069 0.48808 0.72096 0.0
C199 C 0.77096 0.51552 0.7756 0.0
N200 N 0.79047 0.51736 0.762 0.0
C201 C 0.7696 0.52185 0.80201 0.0
H202 H 0.7316 0.49126 0.72217 0.0
H203 H 0.75379 0.46868 0.72231 0.0
H204 H 0.75728 0.49436 0.70324 0.0
H205 H 0.75247 0.51735 0.81012 0.0
H206 H 0.77243 0.5412 0.80423 0.0
H207 H 0.78363 0.5125 0.81205 0.0
C208 C 0.54003 0.26571 0.26194 0.0
N209 N 0.54031 0.24166 0.26053 0.0
N210 N 0.54372 0.27537 0.23991 0.0
C211 C 0.53682 0.27984 0.28466 0.0
C212 C 0.54592 0.2565 0.22503 0.0
N213 N 0.54408 0.23605 0.23758 0.0
C214 C 0.54764 0.25806 0.19794 0.0
H215 H 0.51787 0.28261 0.28776 0.0
H216 H 0.54526 0.29751 0.28302 0.0
H217 H 0.54417 0.27022 0.30039 0.0
H218 H 0.56632 0.2573 0.19269 0.0
H219 H 0.54015 0.27491 0.19105 0.0
H220 H 0.53846 0.24299 0.1892 0.0
C221 C 0.76265 0.50823 0.25869 0.0
N222 N 0.78512 0.50057 0.25922 0.0
N223 N 0.75273 0.5031 0.23716 0.0
C224 C 0.75045 0.52108 0.27877 0.0
C225 C 0.76986 0.49213 0.22462 0.0
N226 N 0.78951 0.49043 0.23803 0.0
C227 C 0.76818 0.48537 0.19833 0.0
H228 H 0.73132 0.51802 0.27787 0.0
H229 H 0.75367 0.54042 0.27685 0.0
H230 H 0.75718 0.51522 0.29657 0.0
H231 H 0.75105 0.48998 0.1903 0.0
H232 H 0.77072 0.46594 0.19645 0.0
H233 H 0.78226 0.49433 0.188 0.0
C234 C 0.52785 0.74218 0.26208 0.0
N235 N 0.53353 0.74312 0.23832 0.0
N236 N 0.53066 0.76373 0.27243 0.0
C237 C 0.51958 0.7205 0.27533 0.0
C238 C 0.53815 0.77783 0.25429 0.0
N239 N 0.54007 0.76531 0.23362 0.0
C240 C 0.54144 0.80434 0.2562 0.0
H241 H 0.50026 0.71953 0.27415 0.0
H242 H 0.52444 0.72155 0.29468 0.0
H243 H 0.52709 0.70415 0.2673 0.0
H244 H 0.56018 0.80865 0.25367 0.0
H245 H 0.53588 0.81147 0.27392 0.0
H246 H 0.53149 0.81341 0.24169 0.0
C247 C 0.27779 0.50977 0.25664 0.0
N248 N 0.25509 0.5168 0.25699 0.0
N249 N 0.28732 0.51376 0.23464 0.0
C250 C 0.29062 0.49886 0.27748 0.0
C251 C 0.26974 0.52341 0.22166 0.0
N252 N 0.25023 0.52545 0.23524 0.0
C253 C 0.27106 0.52912 0.1951 0.0
H254 H 0.30967 0.50215 0.27592 0.0
H255 H 0.28768 0.47938 0.27732 0.0
H256 H 0.28408 0.50605 0.29484 0.0
H257 H 0.25638 0.52045 0.18543 0.0
H258 H 0.28777 0.52347 0.18682 0.0
H259 H 0.26932 0.54857 0.19256 0.0
C260 C 0.76521 0.74962 0.50194 0.0
N261 N 0.78846 0.74874 0.49669 0.0
N262 N 0.75644 0.77159 0.49728 0.0
C263 C 0.75095 0.7291 0.51088 0.0
C264 C 0.77503 0.784 0.48922 0.0
N265 N 0.79432 0.77016 0.48857 0.0
C266 C 0.77472 0.81025 0.48377 0.0
H267 H 0.73224 0.73151 0.50626 0.0
H268 H 0.75254 0.72809 0.5308 0.0
H269 H 0.75745 0.71218 0.50313 0.0
H270 H 0.75931 0.8192 0.49177 0.0
H271 H 0.77417 0.81279 0.46393 0.0
H272 H 0.79076 0.81893 0.49072 0.0
C273 C 0.76592 0.25891 0.49775 0.0
N274 N 0.78918 0.26011 0.50291 0.0
N275 N 0.75749 0.23675 0.50222 0.0
C276 C 0.7513 0.27932 0.48917 0.0
C277 C 0.77631 0.22458 0.5101 0.0
N278 N 0.79539 0.23871 0.5108 0.0
C279 C 0.77637 0.19831 0.51545 0.0
H280 H 0.73265 0.27652 0.49382 0.0
H281 H 0.7528 0.28064 0.46926 0.0
H282 H 0.75755 0.29623 0.49716 0.0
H283 H 0.76118 0.18915 0.50724 0.0
H284 H 0.77567 0.19569 0.53527 0.0
H285 H 0.79262 0.18992 0.50863 0.0
C286 C 0.24287 0.75698 0.48668 0.0
N287 N 0.25685 0.77624 0.48477 0.0
N288 N 0.2543 0.73881 0.49735 0.0
C289 C 0.2173 0.75663 0.48005 0.0
C290 C 0.27584 0.74773 0.50203 0.0
N291 N 0.27738 0.77066 0.49445 0.0
C292 C 0.29504 0.73409 0.51415 0.0
H293 H 0.20805 0.77115 0.48965 0.0
H294 H 0.20876 0.73949 0.48433 0.0
H295 H 0.2154 0.75982 0.46041 0.0
H296 H 0.2928 0.71473 0.51123 0.0
H297 H 0.29438 0.73758 0.53383 0.0
H298 H 0.31236 0.7398 0.50727 0.0
C299 C 0.242 0.25046 0.51176 0.0
N300 N 0.25646 0.2316 0.5139 0.0
N301 N 0.25297 0.2688 0.50087 0.0
C302 C 0.21647 0.25025 0.51856 0.0
C303 C 0.27474 0.2604 0.49632 0.0
N304 N 0.27685 0.23759 0.50415 0.0
C305 C 0.29362 0.27439 0.48408 0.0
H306 H 0.20753 0.23534 0.50927 0.0
H307 H 0.20748 0.2671 0.51407 0.0
H308 H 0.21478 0.24732 0.53826 0.0
H309 H 0.29093 0.29372 0.4868 0.0
H310 H 0.29304 0.27069 0.46443 0.0
H311 H 0.31106 0.26916 0.49101 0.0
C312 C 0.02252 0.94949 0.56226 0.0
C313 C 0.021 0.94365 0.44539 0.0
C314 C 0.02467 0.06387 0.55637 0.0
C315 C 0.02519 0.05796 0.43945 0.0
C316 C 0.96852 0.06284 0.50033 0.0
C317 C 0.96627 0.94705 0.50193 0.0
C318 C 0.08154 0.05965 0.49944 0.0
C319 C 0.07935 0.94565 0.50252 0.0
C320 C 0.07879 0.99915 0.44171 0.0
C321 C 0.96619 0.00403 0.44272 0.0
C322 C 0.08005 0.00648 0.55894 0.0
C323 C 0.96732 0.00536 0.56003 0.0
Eu324 Eu 0.02279 0.95881 0.50318 0.0
O325 O 1.00196 0.98208 0.48102 0.0
O326 O 0.04421 0.98314 0.52331 0.0
Eu327 Eu 0.97884 0.0047 0.50125 0.0
Eu328 Eu 0.06762 0.00289 0.50047 0.0
O329 O 1.00237 0.98415 0.52327 0.0
O330 O 0.04351 0.98133 0.4804 0.0
Eu331 Eu 0.02369 0.00594 0.54614 0.0
Eu332 Eu 0.02266 1.00161 0.45565 0.0
O333 O 1.00323 0.02633 0.52113 0.0
O334 O 1.00266 0.02446 0.47878 0.0
O335 O 0.04445 0.02349 0.47817 0.0
O336 O 0.04469 0.02539 0.52088 0.0
Eu337 Eu 0.02452 0.04881 0.49858 0.0
O338 O 0.02194 0.94079 0.53985 0.0
O339 O 0.02119 0.93732 0.46861 0.0
O340 O 0.02372 0.07028 0.5332 0.0
O341 O 0.02679 0.06659 0.46185 0.0
O342 O 0.96069 0.04062 0.50311 0.0
O343 O 0.95917 0.96958 0.4997 0.0
O344 O 0.088 0.03698 0.49795 0.0
O345 O 0.08666 0.96808 0.50308 0.0
O346 O 0.0565 1.00029 0.43488 0.0
O347 O 0.98827 1.00132 0.43558 0.0
O348 O 0.05789 0.00603 0.56621 0.0
O349 O 0.9896 0.00735 0.56683 0.0
O350 O 0.05961 0.06768 0.5006 0.0
O351 O 0.99071 0.06929 0.49713 0.0
O352 O 0.05712 0.9384 0.50192 0.0
O353 O 0.98826 0.93971 0.50436 0.0
O354 O 0.02162 0.9659 0.43717 0.0
O355 O 0.02284 0.03517 0.43353 0.0
O356 O 0.02354 0.97237 0.56825 0.0
O357 O 0.02522 0.04165 0.56465 0.0
O358 O 0.95978 0.0035 0.53727 0.0
O359 O 0.95908 0.00634 0.46558 0.0
O360 O 0.08736 0.00599 0.53603 0.0
O361 O 0.08653 0.99935 0.46447 0.0
C362 C 0.52356 0.93932 0.05148 0.0
C363 C 0.52039 0.05332 0.06585 0.0
C364 C 0.52022 0.95323 0.93543 0.0
C365 C 0.52367 0.06724 0.94984 0.0
C366 C 0.57755 0.00777 0.94226 0.0
C367 C 0.5776 0.99873 0.05898 0.0
C368 C 0.46413 0.00972 0.9425 0.0
C369 C 0.46415 0.99707 0.05888 0.0
C370 C 0.46379 0.06111 0.00571 0.0
C371 C 0.5779 0.06032 0.00613 0.0
C372 C 0.4635 0.94565 0.99563 0.0
C373 C 0.57764 0.94594 0.99483 0.0
Eu374 Eu 0.52086 0.99794 0.04583 0.0
O375 O 0.54157 0.02186 0.02442 0.0
O376 O 0.49995 0.9797 0.01933 0.0
Eu377 Eu 0.56487 0.00315 0.00062 0.0
Eu378 Eu 0.47647 0.00335 0.00068 0.0
O379 O 0.54135 0.97968 0.01916 0.0
O380 O 0.50002 0.02187 0.02446 0.0
Eu381 Eu 0.52058 0.95829 0.99511 0.0
Eu382 Eu 0.5208 0.04822 0.00619 0.0
O383 O 0.54141 0.9846 0.97683 0.0
O384 O 0.54141 0.02672 0.9821 0.0
O385 O 0.50006 0.02688 0.98198 0.0
O386 O 0.49993 0.98477 0.97684 0.0
Eu387 Eu 0.52083 0.00861 0.95543 0.0
O388 O 0.52358 0.96091 0.06142 0.0
O389 O 0.52068 0.03004 0.07024 0.0
O390 O 0.52058 0.97651 0.93106 0.0
O391 O 0.52361 0.04566 0.93987 0.0
O392 O 0.58455 0.00555 0.96513 0.0
O393 O 0.58458 1.00082 0.03608 0.0
O394 O 0.45705 0.00649 0.96522 0.0
O395 O 0.45708 1.00031 0.03616 0.0
O396 O 0.48609 0.06816 0.00716 0.0
O397 O 0.55581 0.0677 0.00883 0.0
O398 O 0.48576 0.93849 0.99416 0.0
O399 O 0.55549 0.93866 0.99231 0.0
O400 O 0.48636 0.01145 0.93535 0.0
O401 O 0.55531 0.00925 0.93506 0.0
O402 O 0.48639 0.99525 0.06601 0.0
O403 O 0.55536 0.99732 0.0662 0.0
O404 O 0.52018 0.06341 0.04404 0.0
O405 O 0.52205 0.07205 0.97334 0.0
O406 O 0.52185 0.93449 0.02799 0.0
O407 O 0.51993 0.94311 0.95723 0.0
O408 O 0.58442 0.96833 0.99847 0.0
O409 O 0.58457 0.0379 0.00251 0.0
O410 O 0.45661 0.96827 0.99789 0.0
O411 O 0.45679 0.03852 0.00347 0.0
C412 C 0.01805 0.44956 0.06265 0.0
C413 C 0.01959 0.44125 0.94692 0.0
C414 C 0.017 0.5644 0.05424 0.0
C415 C 0.01799 0.55618 0.93824 0.0
C416 C 0.96114 0.5602 0.998 0.0
C417 C 0.96216 0.44475 0.00155 0.0
C418 C 0.07477 0.56145 0.99619 0.0
C419 C 0.07557 0.44537 0.00557 0.0
C420 C 0.07543 0.49799 0.94245 0.0
C421 C 0.96293 0.50221 0.94115 0.0
C422 C 0.07435 0.50917 0.05934 0.0
C423 C 0.96184 0.50295 0.05849 0.0
Eu424 Eu 0.01879 0.45838 0.00375 0.0
O425 O 0.99789 0.48018 0.98026 0.0
O426 O 0.0396 0.48359 0.02356 0.0
Eu427 Eu 0.97401 0.50253 -8e-05 0.0
Eu428 Eu 0.06331 0.50331 0.00081 0.0
O429 O 0.99764 0.4834 0.02304 0.0
O430 O 0.03975 0.48076 0.98094 0.0
Eu431 Eu 0.01817 0.50607 0.04584 0.0
Eu432 Eu 0.01901 0.49968 0.95499 0.0
O433 O 0.99723 0.52522 0.0201 0.0
O434 O 0.99785 0.52212 0.97747 0.0
O435 O 0.03955 0.52263 0.97776 0.0
O436 O 0.03906 0.52548 0.02032 0.0
Eu437 Eu 0.01812 0.54758 0.99722 0.0
O438 O 0.01743 0.44093 0.04029 0.0
O439 O 0.02042 0.43592 0.97028 0.0
O440 O 0.01838 0.56992 0.03092 0.0
O441 O 0.01671 0.56484 0.96057 0.0
O442 O 0.9542 0.53757 -0.0003 0.0
O443 O 0.95486 0.46715 0.99884 0.0
O444 O 0.08238 0.53897 0.99763 0.0
O445 O 0.0829 0.46795 0.00419 0.0
O446 O 0.05328 0.49828 0.93511 0.0
O447 O 0.98508 0.49953 0.93431 0.0
O448 O 0.0521 0.50841 0.06633 0.0
O449 O 0.98386 0.50578 0.06574 0.0
O450 O 0.05232 0.56799 0.99574 0.0
O451 O 0.98338 0.56737 0.99667 0.0
O452 O 0.05322 0.43853 0.00579 0.0
O453 O 0.98439 0.43798 0.0043 0.0
O454 O 0.01833 0.46308 0.93755 0.0
O455 O 0.01971 0.53327 0.93229 0.0
O456 O 0.01905 0.47251 0.06861 0.0
O457 O 0.01621 0.54247 0.06338 0.0
O458 O 0.95459 0.50095 0.03566 0.0
O459 O 0.95528 0.50406 0.96384 0.0
O460 O 0.08212 0.5079 0.03664 0.0
O461 O 0.08283 0.49923 0.96529 0.0
C462 C 0.52386 0.45291 0.06376 0.0
C463 C 0.52135 0.56685 0.05256 0.0
C464 C 0.52171 0.44205 0.94711 0.0
C465 C 0.52384 0.55604 0.93588 0.0
C466 C 0.57872 0.49841 0.94141 0.0
C467 C 0.57855 0.51081 0.0583 0.0
C468 C 0.46607 0.50221 0.94117 0.0
C469 C 0.46599 0.50635 0.05829 0.0
C470 C 0.46666 0.56219 0.99742 0.0
C471 C 0.5798 0.56147 0.99592 0.0
C472 C 0.46697 0.44639 0.00207 0.0
C473 C 0.58008 0.44779 0.00456 0.0
Eu474 Eu 0.52235 0.50857 0.04477 0.0
O475 O 0.54339 0.52747 0.01905 0.0
O476 O 0.50182 0.48507 0.02288 0.0
Eu477 Eu 0.56697 0.50458 -0.00015 0.0
Eu478 Eu 0.4782 0.50433 -0.00024 0.0
O479 O 0.54367 0.48536 0.02321 0.0
O480 O 0.50188 0.52744 0.01868 0.0
Eu481 Eu 0.52321 0.45948 0.00418 0.0
Eu482 Eu 0.52298 0.54945 0.99547 0.0
O483 O 0.54356 0.48154 0.98054 0.0
O484 O 0.5436 0.52368 0.97641 0.0
O485 O 0.50181 0.5237 0.97668 0.0
O486 O 0.5021 0.48141 0.98087 0.0
Eu487 Eu 0.52246 0.50035 0.95478 0.0
O488 O 0.52325 0.4761 0.06845 0.0
O489 O 0.52071 0.54497 0.06173 0.0
O490 O 0.52091 0.46391 0.93792 0.0
O491 O 0.52324 0.53285 0.93118 0.0
O492 O 0.58628 0.50008 0.96418 0.0
O493 O 0.58618 0.50919 0.03556 0.0
O494 O 0.45875 0.50484 0.96392 0.0
O495 O 0.45869 0.50366 0.03554 0.0
O496 O 0.4887 0.56908 0.99397 0.0
O497 O 0.55771 0.56914 0.99623 0.0
O498 O 0.48904 0.43965 0.00556 0.0
O499 O 0.55804 0.43999 0.00413 0.0
O500 O 0.48825 0.49956 0.9343 0.0
O501 O 0.55646 0.49834 0.93439 0.0
O502 O 0.48813 0.50917 0.06519 0.0
O503 O 0.55627 0.51075 0.06525 0.0
O504 O 0.52268 0.57238 0.02918 0.0
O505 O 0.52384 0.56578 0.95789 0.0
O506 O 0.52388 0.44318 0.04176 0.0
O507 O 0.52316 0.43654 0.97049 0.0
O508 O 0.58685 0.4704 0.0041 0.0
O509 O 0.58669 0.5389 0.996 0.0
O510 O 0.45949 0.46866 0.99875 0.0
O511 O 0.4593 0.53988 0.00072 0.0
C512 C 0.02068 0.43988 0.54908 0.0
C513 C 0.01853 0.4558 0.43334 0.0
C514 C 0.02295 0.554 0.56499 0.0
C515 C 0.0234 0.56958 0.44925 0.0
C516 C 0.96388 0.56306 0.50541 0.0
C517 C 0.96277 0.44767 0.49392 0.0
C518 C 0.07795 0.56123 0.50558 0.0
C519 C 0.07672 0.44709 0.49276 0.0
C520 C 0.07707 0.50962 0.44099 0.0
C521 C 0.96354 0.51202 0.44132 0.0
C522 C 0.0771 0.49864 0.55761 0.0
C523 C 0.96354 0.49889 0.55763 0.0
Eu524 Eu 0.01984 0.46016 0.49307 0.0
O525 O 0.99929 0.48698 0.47529 0.0
O526 O 0.04074 0.48078 0.51772 0.0
Eu527 Eu 0.97599 0.50529 0.49946 0.0
Eu528 Eu 0.0644 0.50426 0.49929 0.0
O529 O 0.99939 0.48133 0.51768 0.0
O530 O 0.04088 0.4864 0.47506 0.0
Eu531 Eu 0.02027 0.4988 0.54467 0.0
Eu532 Eu 0.02031 0.51086 0.45409 0.0
O533 O 0.99969 0.52333 0.52359 0.0
O534 O 0.99972 0.52887 0.48098 0.0
O535 O 0.0412 0.52831 0.48099 0.0
O536 O 0.04107 0.52263 0.52326 0.0
Eu537 Eu 0.02079 0.54956 0.50539 0.0
O538 O 0.02031 0.43585 0.52538 0.0
O539 O 0.01845 0.44545 0.45503 0.0
O540 O 0.02294 0.56419 0.54326 0.0
O541 O 0.02275 0.57381 0.47293 0.0
O542 O 0.9567 0.5406 0.5026 0.0
O543 O 0.95595 0.47028 0.49655 0.0
O544 O 0.08447 0.53876 0.50197 0.0
O545 O 0.08368 0.46936 0.4967 0.0
O546 O 0.05485 0.51151 0.43379 0.0
O547 O 0.98576 0.51379 0.43413 0.0
O548 O 0.05486 0.497 0.56483 0.0
O549 O 0.98575 0.49696 0.5648 0.0
O550 O 0.05589 0.56879 0.50794 0.0
O551 O 0.98625 0.56987 0.50717 0.0
O552 O 0.05451 0.44009 0.49006 0.0
O553 O 0.985 0.44051 0.49207 0.0
O554 O 0.01934 0.47912 0.42925 0.0
O555 O 0.02239 0.54817 0.43894 0.0
O556 O 0.02072 0.46124 0.55961 0.0
O557 O 0.02131 0.53078 0.5695 0.0
O558 O 0.95651 0.5021 0.53489 0.0
O559 O 0.95651 0.50872 0.46405 0.0
O560 O 0.08407 0.50134 0.53477 0.0
O561 O 0.08404 0.50695 0.46384 0.0
C562 C 0.51736 0.95029 0.56142 0.0
C563 C 0.5176 0.94351 0.44542 0.0
C564 C 0.51772 0.06533 0.55445 0.0
C565 C 0.51762 0.05858 0.43838 0.0
C566 C 0.4612 0.06228 0.49835 0.0
C567 C 0.461 0.94681 0.50137 0.0
C568 C 0.57485 0.06242 0.49583 0.0
C569 C 0.57457 0.94625 0.50412 0.0
C570 C 0.57442 0.9992 0.44147 0.0
C571 C 0.4619 0.00444 0.44124 0.0
C572 C 0.57442 0.00931 0.55845 0.0
C573 C 0.46189 0.0046 0.55857 0.0
Eu574 Eu 0.51788 0.95979 0.50258 0.0
O575 O 0.49703 0.9822 0.47967 0.0
O576 O 0.53904 0.9846 0.52257 0.0
Eu577 Eu 0.47357 0.00452 0.49991 0.0
Eu578 Eu 0.56281 0.00435 0.49994 0.0
O579 O 0.49722 0.98483 0.52246 0.0
O580 O 0.5389 0.98228 0.47992 0.0
Eu581 Eu 0.51811 0.00705 0.54539 0.0
Eu582 Eu 0.51812 1.0018 0.45445 0.0
O583 O 0.49715 0.02678 0.52012 0.0
O584 O 0.49735 0.02415 0.47741 0.0
O585 O 0.5391 0.02423 0.47731 0.0
O586 O 0.53896 0.02656 0.51992 0.0
Eu587 Eu 0.51807 0.04916 0.49725 0.0
O588 O 0.51639 0.94194 0.53896 0.0
O589 O 0.51882 0.93781 0.46869 0.0
O590 O 0.51898 0.07108 0.53119 0.0
O591 O 0.5167 0.06696 0.46084 0.0
O592 O 0.45409 0.0397 0.49991 0.0
O593 O 0.45396 0.9694 0.49986 0.0
O594 O 0.58224 0.03983 0.49693 0.0
O595 O 0.58208 0.96879 0.50299 0.0
O596 O 0.55223 0.99997 0.43427 0.0
O597 O 0.48401 1.00208 0.43415 0.0
O598 O 0.55221 0.00868 0.56562 0.0
O599 O 0.48401 0.0069 0.56567 0.0
O600 O 0.55247 0.0692 0.4957 0.0
O601 O 0.4835 0.0693 0.49706 0.0
O602 O 0.55216 0.93959 0.50423 0.0
O603 O 0.48328 0.93973 0.50267 0.0
O604 O 0.51658 0.96551 0.43645 0.0
O605 O 0.51893 0.0357 0.43216 0.0
O606 O 0.51877 0.97315 0.56767 0.0
O607 O 0.51668 0.04331 0.56339 0.0
O608 O 0.45441 0.00311 0.53579 0.0
O609 O 0.45443 0.00597 0.46402 0.0
O610 O 0.58198 0.00833 0.53566 0.0
O611 O 0.58198 1.0002 0.46426 0.0
C612 C 0.24785 0.19128 0.49983 0.0
C613 C 0.24868 0.20781 0.51873 0.0
C614 C 0.23353 0.17127 0.50164 0.0
C615 C 0.17706 0.16041 0.52415 0.0
H616 H 0.18622 0.09412 0.50806 0.0
C617 C 0.09921 0.09569 0.51802 0.0
C618 C 0.10065 0.07697 0.50144 0.0
C619 C 0.11859 0.11019 0.52228 0.0
C620 C 0.18328 0.11266 0.51222 0.0
H621 H 0.23791 0.21522 0.55529 0.0
H622 H 0.21218 0.18051 0.5583 0.0
H623 H 0.22009 0.12009 0.51303 0.0
H624 H 0.12291 0.05914 0.47559 0.0
H625 H 0.1562 0.08532 0.48172 0.0
H626 H 0.14049 0.15385 0.52175 0.0
C627 C 0.22254 0.183 0.54214 0.0
C628 C 0.20273 0.12737 0.51536 0.0
C629 C 0.23718 0.20274 0.54045 0.0
C630 C 0.12144 0.07347 0.48855 0.0
C631 C 0.14062 0.08829 0.49235 0.0
C632 C 0.15765 0.14591 0.52047 0.0
C633 C 0.21974 0.1678 0.52228 0.0
C634 C 0.19972 0.15135 0.52131 0.0
C635 C 0.13964 0.10659 0.50962 0.0
C636 C 0.16044 0.12184 0.5143 0.0
H637 H 0.25648 0.19504 0.48288 0.0
H638 H 0.23156 0.15981 0.48608 0.0
H639 H 0.17435 0.17902 0.52824 0.0
H640 H 0.08346 0.09845 0.5285 0.0
H641 H 0.11718 0.12376 0.53602 0.0
C642 C 0.83492 0.23013 0.49603 0.0
C643 C 0.81878 0.23049 0.51504 0.0
C644 C 0.85475 0.21569 0.49748 0.0
C645 C 0.86679 0.15818 0.51985 0.0
H646 H 0.93204 0.16922 0.50517 0.0
C647 C 0.93278 0.08102 0.51824 0.0
C648 C 0.95146 0.08233 0.50196 0.0
C649 C 0.918 0.1005 0.52149 0.0
C650 C 0.91381 0.16575 0.50893 0.0
H651 H 0.81161 0.21857 0.55132 0.0
H652 H 0.84608 0.19289 0.55379 0.0
H653 H 0.90538 0.20295 0.50882 0.0
H654 H 0.969 0.10454 0.47569 0.0
H655 H 0.94245 0.13799 0.48019 0.0
H656 H 0.87443 0.12118 0.51855 0.0
C657 C 0.84346 0.20365 0.53781 0.0
C658 C 0.89868 0.18512 0.51127 0.0
C659 C 0.82388 0.21831 0.53646 0.0
C660 C 0.95475 0.10316 0.48848 0.0
C661 C 0.93967 0.12243 0.4913 0.0
C662 C 0.88173 0.13884 0.517 0.0
C663 C 0.8584 0.20138 0.51789 0.0
C664 C 0.87508 0.18144 0.51682 0.0
C665 C 0.92126 0.12152 0.50809 0.0
C666 C 0.90547 0.1423 0.51149 0.0
H667 H 0.8311 0.23931 0.47932 0.0
H668 H 0.86604 0.21413 0.48188 0.0
H669 H 0.84851 0.15492 0.52365 0.0
H670 H 0.93012 0.06527 0.52913 0.0
H671 H 0.90435 0.09918 0.53493 0.0
C672 C 0.83358 0.77935 0.50365 0.0
C673 C 0.81759 0.77878 0.48451 0.0
C674 C 0.85317 0.79412 0.50242 0.0
C675 C 0.86466 0.85191 0.48013 0.0
H676 H 0.92958 0.84167 0.49679 0.0
C677 C 0.93031 0.92957 0.48379 0.0
C678 C 0.94861 0.92815 0.50052 0.0
C679 C 0.91545 0.91017 0.48027 0.0
C680 C 0.91142 0.84492 0.49248 0.0
H681 H 0.8105 0.7907 0.44822 0.0
H682 H 0.84456 0.817 0.44614 0.0
H683 H 0.90347 0.80762 0.49228 0.0
H684 H 0.96522 0.90605 0.5275 0.0
H685 H 0.93853 0.8728 0.52254 0.0
H686 H 0.87183 0.88902 0.48171 0.0
C687 C 0.84199 0.80614 0.46205 0.0
C688 C 0.89661 0.82537 0.48963 0.0
C689 C 0.82266 0.79113 0.46318 0.0
C690 C 0.95128 0.90747 0.51435 0.0
C691 C 0.93614 0.88831 0.51126 0.0
C692 C 0.87927 0.87144 0.48347 0.0
C693 C 0.85674 0.80859 0.48211 0.0
C694 C 0.87314 0.82875 0.48342 0.0
C695 C 0.91831 0.88917 0.49382 0.0
C696 C 0.90285 0.86826 0.48977 0.0
H697 H 0.8298 0.77005 0.5203 0.0
H698 H 0.86431 0.79581 0.51813 0.0
H699 H 0.84645 0.85494 0.4758 0.0
H700 H 0.92815 0.94523 0.47265 0.0
H701 H 0.90219 0.91146 0.46642 0.0
C702 C 0.23652 0.80502 0.45897 0.0
C703 C 0.24839 0.79989 0.48048 0.0
C704 C 0.22122 0.82428 0.45786 0.0
C705 C 0.20027 0.87876 0.48623 0.0
H706 H 0.13853 0.85128 0.47886 0.0
C707 C 0.11845 0.93066 0.51441 0.0
C708 C 0.0979 0.92769 0.501 0.0
C709 C 0.1376 0.91584 0.51054 0.0
C710 C 0.15556 0.85949 0.48046 0.0
H711 H 0.25611 0.81218 0.51652 0.0
H712 H 0.23008 0.84663 0.51431 0.0
H713 H 0.17291 0.82699 0.4716 0.0
H714 H 0.08095 0.907 0.47317 0.0
H715 H 0.11466 0.88161 0.46557 0.0
H716 H 0.18314 0.9114 0.49463 0.0
C717 C 0.23224 0.83554 0.49849 0.0
C718 C 0.17526 0.84551 0.47632 0.0
C719 C 0.2472 0.81599 0.49973 0.0
C720 C 0.09653 0.90932 0.48402 0.0
C721 C 0.11591 0.89481 0.47969 0.0
C722 C 0.18055 0.89295 0.48986 0.0
C723 C 0.21814 0.83897 0.47806 0.0
C724 C 0.19775 0.85492 0.4795 0.0
C725 C 0.13685 0.89811 0.49267 0.0
C726 C 0.15789 0.88337 0.48749 0.0
H727 H 0.2375 0.79288 0.44387 0.0
H728 H 0.21065 0.82677 0.44184 0.0
H729 H 0.21749 0.88633 0.48881 0.0
H730 H 0.11984 0.94472 0.52768 0.0
H731 H 0.15306 0.91851 0.52145 0.0
C732 C 0.52087 0.20035 0.22903 0.0
C733 C 0.542 0.21278 0.22725 0.0
C734 C 0.51757 0.17944 0.21594 0.0
C735 C 0.51049 0.15054 0.17021 0.0
H736 H 0.55833 0.10293 0.15958 0.0
C737 C 0.51519 0.09348 0.08448 0.0
C738 C 0.52067 0.06928 0.08701 0.0
C739 C 0.51606 0.10863 0.10437 0.0
C740 C 0.54468 0.11592 0.16259 0.0
H741 H 0.57662 0.21299 0.21188 0.0
H742 H 0.57103 0.17631 0.18885 0.0
H743 H 0.56364 0.13266 0.19125 0.0
H744 H 0.53125 0.04202 0.11252 0.0
H745 H 0.53288 0.06863 0.14717 0.0
H746 H 0.4918 0.13422 0.14117 0.0
C747 C 0.55704 0.18251 0.20038 0.0
C748 C 0.5478 0.13299 0.18057 0.0
C749 C 0.56024 0.20348 0.21336 0.0
C750 C 0.52684 0.06055 0.10993 0.0
C751 C 0.52791 0.07577 0.12977 0.0
C752 C 0.50746 0.1336 0.15213 0.0
C753 C 0.53543 0.17065 0.20101 0.0
C754 C 0.53092 0.15072 0.18426 0.0
C755 C 0.5226 0.09997 0.12715 0.0
C756 C 0.52473 0.11641 0.14784 0.0
H757 H 0.50662 0.20746 0.23963 0.0
H758 H 0.50082 0.17053 0.2169 0.0
H759 H 0.49729 0.16414 0.17248 0.0
H760 H 0.51029 0.10078 0.06712 0.0
H761 H 0.51214 0.12728 0.10179 0.0
C762 C 0.81665 0.46436 0.21611 0.0
C763 C 0.81232 0.48573 0.22831 0.0
C764 C 0.83583 0.46239 0.2007 0.0
C765 C 0.89153 0.48763 0.18146 0.0
H766 H 0.86759 0.48033 0.11642 0.0
C767 C 0.94689 0.5136 0.0992 0.0
C768 C 0.94436 0.50062 0.07777 0.0
C769 C 0.93172 0.50983 0.11851 0.0
C770 C 0.8748 0.48188 0.1344 0.0
H771 H 0.82558 0.52085 0.23608 0.0
H772 H 0.85983 0.51709 0.20994 0.0
H773 H 0.84164 0.47466 0.15064 0.0
H774 H 0.92422 0.47346 0.05958 0.0
H775 H 0.89825 0.46605 0.0936 0.0
H776 H 0.92478 0.49447 0.16546 0.0
C777 C 0.84823 0.50201 0.212 0.0
C778 C 0.85986 0.47866 0.15401 0.0
C779 C 0.82878 0.50414 0.22702 0.0
C780 C 0.92626 0.48396 0.07582 0.0
C781 C 0.91139 0.47976 0.09536 0.0
C782 C 0.90664 0.49035 0.16186 0.0
C783 C 0.85122 0.48158 0.19782 0.0
C784 C 0.86801 0.48189 0.17765 0.0
C785 C 0.91402 0.49254 0.11705 0.0
C786 C 0.89836 0.48801 0.13802 0.0
H787 H 0.80425 0.44989 0.21719 0.0
H788 H 0.83795 0.4464 0.19005 0.0
H789 H 0.89813 0.49021 0.19959 0.0
H790 H 0.96067 0.52667 0.10105 0.0
H791 H 0.93394 0.52053 0.13457 0.0
C792 C 0.52462 0.77465 0.1933 0.0
C793 C 0.54296 0.77559 0.21007 0.0
C794 C 0.52522 0.78888 0.17266 0.0
C795 C 0.54238 0.84712 0.15838 0.0
H796 H 0.53478 0.83231 0.09056 0.0
C797 C 0.54128 0.92152 0.08815 0.0
C798 C 0.52678 0.91909 0.06794 0.0
C799 C 0.54492 0.9024 0.10365 0.0
C800 C 0.53656 0.83677 0.10946 0.0
H801 H 0.57704 0.79018 0.21774 0.0
H802 H 0.5778 0.81586 0.18199 0.0
H803 H 0.53874 0.80006 0.11995 0.0
H804 H 0.50466 0.89492 0.04791 0.0
H805 H 0.50987 0.86175 0.07578 0.0
H806 H 0.53883 0.8835 0.14869 0.0
C807 C 0.5631 0.80404 0.18472 0.0
C808 C 0.53904 0.8183 0.12616 0.0
C809 C 0.56266 0.78952 0.20509 0.0
C810 C 0.51596 0.89718 0.06342 0.0
C811 C 0.51914 0.87814 0.07929 0.0
C812 C 0.53939 0.86549 0.14187 0.0
C813 C 0.54403 0.80441 0.16883 0.0
C814 C 0.54217 0.82343 0.15069 0.0
C815 C 0.53363 0.88053 0.09968 0.0
C816 C 0.53661 0.86065 0.11714 0.0
H817 H 0.5092 0.76414 0.19702 0.0
H818 H 0.51027 0.78907 0.16069 0.0
H819 H 0.54428 0.8514 0.17734 0.0
H820 H 0.55022 0.93812 0.09175 0.0
H821 H 0.55676 0.90481 0.11868 0.0
C822 C 0.22293 0.55071 0.21261 0.0
C823 C 0.22727 0.52991 0.22578 0.0
C824 C 0.20346 0.55219 0.19754 0.0
C825 C 0.1469 0.52821 0.1808 0.0
H826 H 0.17 0.52951 0.11503 0.0
C827 C 0.08826 0.50135 0.1011 0.0
C828 C 0.09168 0.51232 0.07865 0.0
C829 C 0.1038 0.50539 0.12004 0.0
C830 C 0.16304 0.52967 0.13318 0.0
H831 H 0.21376 0.49541 0.23568 0.0
H832 H 0.17897 0.49837 0.21007 0.0
H833 H 0.1969 0.53567 0.14835 0.0
H834 H 0.11368 0.53631 0.05831 0.0
H835 H 0.14028 0.54437 0.09164 0.0
H836 H 0.11294 0.52278 0.16584 0.0
C837 C 0.19081 0.51334 0.21111 0.0
C838 C 0.17853 0.53312 0.15227 0.0
C839 C 0.21057 0.51169 0.22581 0.0
C840 C 0.11091 0.52738 0.07539 0.0
C841 C 0.12616 0.53192 0.09453 0.0
C842 C 0.13124 0.52531 0.16167 0.0
C843 C 0.18778 0.5331 0.196 0.0
C844 C 0.17064 0.5321 0.17619 0.0
C845 C 0.12281 0.521 0.11716 0.0
C846 C 0.13917 0.52558 0.13757 0.0
H847 H 0.23551 0.56506 0.21268 0.0
H848 H 0.20132 0.56765 0.18612 0.0
H849 H 0.14051 0.52734 0.19917 0.0
H850 H 0.0736 0.48951 0.10396 0.0
H851 H 0.10092 0.4961 0.13687 0.0
C852 C 0.5603 0.80463 0.78606 0.0
C853 C 0.54198 0.79541 0.77221 0.0
C854 C 0.5571 0.82541 0.79935 0.0
C855 C 0.54774 0.87457 0.81999 0.0
H856 H 0.49205 0.87244 0.85981 0.0
C857 C 0.52662 0.94622 0.89132 0.0
C858 C 0.52057 0.93733 0.91422 0.0
C859 C 0.52774 0.9311 0.87141 0.0
C860 C 0.50762 0.8733 0.84875 0.0
H861 H 0.50647 0.8007 0.76021 0.0
H862 H 0.50069 0.8373 0.78349 0.0
H863 H 0.4975 0.84295 0.82807 0.0
H864 H 0.5105 0.90566 0.93399 0.0
H865 H 0.51246 0.87933 0.89917 0.0
H866 H 0.55822 0.90444 0.84129 0.0
C867 C 0.51749 0.82848 0.78417 0.0
C868 C 0.51063 0.85661 0.83041 0.0
C869 C 0.52079 0.80776 0.77077 0.0
C870 C 0.51529 0.91308 0.91665 0.0
C871 C 0.51623 0.89802 0.89668 0.0
C872 C 0.54465 0.89138 0.83823 0.0
C873 C 0.53543 0.83714 0.79909 0.0
C874 C 0.53094 0.85678 0.81619 0.0
C875 C 0.52264 0.90686 0.87392 0.0
C876 C 0.5248 0.89057 0.85311 0.0
H877 H 0.57672 0.79517 0.78729 0.0
H878 H 0.57116 0.83153 0.81086 0.0
H879 H 0.5635 0.87516 0.8092 0.0
H880 H 0.53088 0.96479 0.88879 0.0
H881 H 0.5326 0.93838 0.85403 0.0
C882 C 0.22229 0.45711 0.78723 0.0
C883 C 0.22666 0.47792 0.77409 0.0
C884 C 0.20307 0.45582 0.80266 0.0
C885 C 0.14712 0.4805 0.82052 0.0
H886 H 0.17116 0.47819 0.88592 0.0
C887 C 0.08971 0.507 0.90113 0.0
C888 C 0.09303 0.49549 0.92331 0.0
C889 C 0.10519 0.50325 0.8821 0.0
C890 C 0.16394 0.47834 0.86788 0.0
H891 H 0.21339 0.51261 0.76455 0.0
H892 H 0.17901 0.50997 0.79077 0.0
H893 H 0.19748 0.47197 0.85209 0.0
H894 H 0.11491 0.471 0.94315 0.0
H895 H 0.14147 0.46348 0.90961 0.0
H896 H 0.11348 0.48628 0.83606 0.0
C897 C 0.19066 0.49486 0.78947 0.0
C898 C 0.17909 0.47484 0.8485 0.0
C899 C 0.21016 0.49633 0.7744 0.0
C900 C 0.11221 0.48032 0.92627 0.0
C901 C 0.12742 0.47609 0.90701 0.0
C902 C 0.1318 0.48345 0.83993 0.0
C903 C 0.18767 0.47509 0.80459 0.0
C904 C 0.17087 0.47622 0.82471 0.0
C905 C 0.12404 0.4874 0.88458 0.0
C906 C 0.14007 0.48284 0.8639 0.0
H907 H 0.23472 0.44263 0.78691 0.0
H908 H 0.20095 0.44034 0.81406 0.0
H909 H 0.14047 0.48163 0.80227 0.0
H910 H 0.07508 0.51894 0.89851 0.0
H911 H 0.10232 0.51287 0.86546 0.0
C912 C 0.52487 0.23216 0.80808 0.0
C913 C 0.54335 0.23131 0.79148 0.0
C914 C 0.52531 0.21785 0.82868 0.0
C915 C 0.54226 0.15961 0.84298 0.0
H916 H 0.53484 0.17429 0.91085 0.0
C917 C 0.54125 0.08507 0.91309 0.0
C918 C 0.52685 0.08749 0.93338 0.0
C919 C 0.54484 0.10421 0.89759 0.0
C920 C 0.53656 0.16986 0.89194 0.0
H921 H 0.57751 0.21677 0.78408 0.0
H922 H 0.57798 0.19096 0.81974 0.0
H923 H 0.53882 0.20659 0.88152 0.0
H924 H 0.50486 0.11167 0.95354 0.0
H925 H 0.50997 0.14486 0.92568 0.0
H926 H 0.53864 0.12322 0.8526 0.0
C927 C 0.5633 0.20277 0.81691 0.0
C928 C 0.53906 0.18837 0.87526 0.0
C929 C 0.56301 0.21737 0.7966 0.0
C930 C 0.51608 0.10941 0.93797 0.0
C931 C 0.51921 0.12846 0.9221 0.0
C932 C 0.53925 0.1412 0.85945 0.0
C933 C 0.5441 0.20233 0.83263 0.0
C934 C 0.54213 0.18328 0.85072 0.0
C935 C 0.5336 0.12609 0.90164 0.0
C936 C 0.53655 0.146 0.88421 0.0
H937 H 0.50947 0.24265 0.80426 0.0
H938 H 0.51026 0.2176 0.84052 0.0
H939 H 0.54413 0.15536 0.82401 0.0
H940 H 0.55015 0.06847 0.90943 0.0
H941 H 0.55661 0.1018 0.88251 0.0
C942 C 0.81802 0.54289 0.78401 0.0
C943 C 0.81342 0.52175 0.77153 0.0
C944 C 0.83735 0.54447 0.79927 0.0
C945 C 0.89294 0.51873 0.81791 0.0
H946 H 0.86897 0.52464 0.88308 0.0
C947 C 0.94861 0.49219 0.89998 0.0
C948 C 0.94572 0.50473 0.92163 0.0
C949 C 0.93352 0.49608 0.88061 0.0
C950 C 0.8762 0.52349 0.86508 0.0
H951 H 0.82634 0.48667 0.76303 0.0
H952 H 0.86084 0.48974 0.78895 0.0
H953 H 0.843 0.53082 0.849 0.0
H954 H 0.9251 0.53132 0.94011 0.0
H955 H 0.89933 0.53897 0.90605 0.0
H956 H 0.92625 0.51183 0.83378 0.0
C957 C 0.84935 0.50494 0.78723 0.0
C958 C 0.86124 0.52699 0.84555 0.0
C959 C 0.82975 0.50321 0.77234 0.0
C960 C 0.92742 0.52113 0.9237 0.0
C961 C 0.91264 0.52546 0.90413 0.0
C962 C 0.90809 0.51574 0.83746 0.0
C963 C 0.8526 0.52511 0.80171 0.0
C964 C 0.8694 0.52431 0.82186 0.0
C965 C 0.91554 0.51306 0.88226 0.0
C966 C 0.89982 0.51764 0.86135 0.0
H967 H 0.80572 0.55747 0.78329 0.0
H968 H 0.83967 0.56026 0.81018 0.0
H969 H 0.89955 0.51655 0.79974 0.0
H970 H 0.96258 0.47934 0.89802 0.0
H971 H 0.93597 0.48569 0.86439 0.0
C972 C 0.74791 0.69098 -0.00074 0.0
C973 C 0.74891 0.70695 0.01864 0.0
C974 C 0.7331 0.67129 0.00031 0.0
C975 C 0.67611 0.6613 0.0214 0.0
H976 H 0.68402 0.59503 0.00461 0.0
C977 C 0.59716 0.598 0.01372 0.0
C978 C 0.59861 0.57915 0.99729 0.0
C979 C 0.61661 0.61239 0.01802 0.0
C980 C 0.68143 0.61358 0.00893 0.0
H981 H 0.7379 0.71358 0.05528 0.0
H982 H 0.71128 0.67947 0.05694 0.0
H983 H 0.71838 0.62007 0.01064 0.0
H984 H 0.62084 0.56109 0.9716 0.0
H985 H 0.65425 0.58714 0.97771 0.0
H986 H 0.63943 0.65568 0.01816 0.0
C987 C 0.7219 0.68215 0.04099 0.0
C988 C 0.70115 0.62776 0.0127 0.0
C989 C 0.73705 0.70154 0.04008 0.0
C990 C 0.61938 0.57555 0.98441 0.0
C991 C 0.63862 0.59028 0.98823 0.0
C992 C 0.65643 0.64735 0.0171 0.0
C993 C 0.71898 0.6676 0.02066 0.0
C994 C 0.69859 0.65171 0.01895 0.0
C995 C 0.63773 0.60854 0.00554 0.0
C996 C 0.65877 0.6233 0.01067 0.0
H997 H 0.75682 0.695 0.98252 0.0
H998 H 0.73105 0.66031 0.98439 0.0
H999 H 0.67377 0.67992 0.02573 0.0
H1000 H 0.58143 0.6008 0.02419 0.0
H1001 H 0.61524 0.62598 0.03175 0.0
C1002 C 0.32271 0.71755 0.03656 0.0
C1003 C 0.31746 0.72998 0.01533 0.0
C1004 C 0.34219 0.70274 0.03753 0.0
C1005 C 0.39689 0.6841 0.00971 0.0
H1006 H 0.37252 0.62026 0.01748 0.0
C1007 C 0.45206 0.60209 0.98522 0.0
C1008 C 0.44928 0.58137 0.999 0.0
C1009 C 0.43695 0.62129 0.9883 0.0
C1010 C 0.37985 0.6379 0.01577 0.0
H1011 H 0.32948 0.73909 0.97958 0.0
H1012 H 0.36424 0.71365 0.98146 0.0
H1013 H 0.34691 0.65413 0.02342 0.0
H1014 H 0.42873 0.56439 0.02687 0.0
H1015 H 0.40289 0.59818 0.03307 0.0
H1016 H 0.42998 0.66803 0.00257 0.0
C1017 C 0.35313 0.71512 0.99721 0.0
C1018 C 0.36511 0.65731 0.01912 0.0
C1019 C 0.3334 0.72971 0.99614 0.0
C1020 C 0.43098 0.58005 0.01575 0.0
C1021 C 0.41618 0.59946 0.01924 0.0
C1022 C 0.41184 0.66466 0.00685 0.0
C1023 C 0.3569 0.70056 0.01741 0.0
C1024 C 0.37344 0.68053 0.01592 0.0
C1025 C 0.41904 0.62043 0.00566 0.0
C1026 C 0.40344 0.64125 0.00955 0.0
H1027 H 0.31059 0.71775 0.05156 0.0
H1028 H 0.34491 0.69181 0.05337 0.0
H1029 H 0.40363 0.7019 0.00712 0.0
H1030 H 0.466 0.60347 0.97207 0.0
H1031 H 0.43938 0.6368 0.97704 0.0
C1032 C 0.32392 0.28982 0.96396 0.0
C1033 C 0.31881 0.27756 0.98533 0.0
C1034 C 0.34334 0.30472 0.96278 0.0
C1035 C 0.39802 0.32394 0.99034 0.0
H1036 H 0.37326 0.38755 0.98202 0.0
C1037 C 0.45259 0.40647 0.01442 0.0
C1038 C 0.44971 0.42709 0.00052 0.0
C1039 C 0.43762 0.38714 0.01139 0.0
C1040 C 0.3807 0.36998 0.98388 0.0
H1041 H 0.331 0.26881 0.02111 0.0
H1042 H 0.36565 0.2944 0.01886 0.0
H1043 H 0.34786 0.35346 0.97634 0.0
H1044 H 0.42913 0.44379 0.9725 0.0
H1045 H 0.40353 0.40978 0.9664 0.0
H1046 H 0.431 0.34028 0.99739 0.0
C1047 C 0.35449 0.29273 0.00317 0.0
C1048 C 0.36607 0.35044 0.98068 0.0
C1049 C 0.33483 0.27806 0.00444 0.0
C1050 C 0.43145 0.42821 0.98371 0.0
C1051 C 0.41678 0.40866 0.98028 0.0
C1052 C 0.41284 0.3435 0.99306 0.0
C1053 C 0.35811 0.30715 0.98282 0.0
C1054 C 0.37454 0.3273 0.98409 0.0
C1055 C 0.41975 0.38779 0.99398 0.0
C1056 C 0.40429 0.36683 0.99017 0.0
H1057 H 0.31173 0.28946 0.94903 0.0
H1058 H 0.34594 0.31553 0.94684 0.0
H1059 H 0.40486 0.3062 0.99309 0.0
H1060 H 0.4665 0.40525 0.02762 0.0
H1061 H 0.44011 0.37172 0.02276 0.0
C1062 C 0.74767 0.31551 0.00532 0.0
C1063 C 0.74833 0.30015 0.98543 0.0
C1064 C 0.73291 0.33528 0.00508 0.0
C1065 C 0.67579 0.34601 0.98585 0.0
H1066 H 0.68436 0.41307 0.99862 0.0
C1067 C 0.59752 0.41027 0.98902 0.0
C1068 C 0.59898 0.43015 0.00414 0.0
C1069 C 0.61688 0.39548 0.98591 0.0
C1070 C 0.6816 0.39431 0.99547 0.0
H1071 H 0.73668 0.29453 0.94884 0.0
H1072 H 0.71029 0.32884 0.94854 0.0
H1073 H 0.7185 0.38746 0.99349 0.0
H1074 H 0.62117 0.44969 0.02877 0.0
H1075 H 0.65444 0.42309 0.02468 0.0
H1076 H 0.6392 0.35207 0.98919 0.0
C1077 C 0.72113 0.32566 0.96423 0.0
C1078 C 0.70118 0.3798 0.99225 0.0
C1079 C 0.73616 0.30618 0.96437 0.0
C1080 C 0.61971 0.43446 0.01691 0.0
C1081 C 0.63886 0.41937 0.01428 0.0
C1082 C 0.65627 0.36032 0.9896 0.0
C1083 C 0.71859 0.33963 0.98501 0.0
C1084 C 0.69835 0.3556 0.98728 0.0
C1085 C 0.63792 0.39997 0.99832 0.0
C1086 C 0.65885 0.3847 0.99442 0.0
H1087 H 0.75686 0.31095 0.02175 0.0
H1088 H 0.7311 0.34584 0.02132 0.0
H1089 H 0.67329 0.32722 0.98248 0.0
H1090 H 0.58182 0.40685 0.97868 0.0
H1091 H 0.61549 0.38101 0.97315 0.0
C1092 C 0.06161 0.70747 0.71432 0.0
C1093 C 0.04212 0.71292 0.72856 0.0
C1094 C 0.06167 0.68713 0.7 0.0
C1095 C 0.03694 0.6294 0.68715 0.0
H1096 H 0.03765 0.64976 0.62033 0.0
C1097 C 0.01502 0.56583 0.60778 0.0
C1098 C 0.02628 0.56997 0.5857 0.0
C1099 C 0.01796 0.58169 0.627 0.0
C1100 C 0.03793 0.64356 0.63881 0.0
H1101 H 0.00824 0.70081 0.74066 0.0
H1102 H 0.0086 0.66456 0.71602 0.0
H1103 H 0.04281 0.67882 0.65217 0.0
H1104 H 0.05047 0.59286 0.56668 0.0
H1105 H 0.0566 0.61969 0.60027 0.0
H1106 H 0.03269 0.59396 0.67383 0.0
C1107 C 0.02371 0.67613 0.71586 0.0
C1108 C 0.04076 0.6603 0.65703 0.0
C1109 C 0.02351 0.69674 0.72991 0.0
C1110 C 0.04116 0.5896 0.58337 0.0
C1111 C 0.04455 0.60505 0.60265 0.0
C1112 C 0.0346 0.61244 0.66882 0.0
C1113 C 0.04239 0.67174 0.70009 0.0
C1114 C 0.04029 0.65338 0.68129 0.0
C1115 C 0.03263 0.60165 0.62458 0.0
C1116 C 0.0351 0.61934 0.64438 0.0
H1117 H 0.07621 0.71965 0.71337 0.0
H1118 H 0.07628 0.68396 0.688 0.0
H1119 H 0.03642 0.62378 0.70583 0.0
H1120 H 1.00348 0.55074 0.60997 0.0
H1121 H 0.00831 0.57858 0.64348 0.0
C1122 C 0.32958 0.00365 0.72794 0.0
C1123 C 0.31328 0.98508 0.72904 0.0
C1124 C 0.349 1.00189 0.71281 0.0
C1125 C 0.36039 0.9797 0.65444 0.0
H1126 H 0.42547 0.99496 0.66569 0.0
C1127 C 0.42621 0.98581 0.57586 0.0
C1128 C 0.44452 1.00222 0.57795 0.0
C1129 C 0.41145 0.98147 0.59544 0.0
C1130 C 0.40728 0.99102 0.66216 0.0
H1131 H 0.30549 0.94931 0.71749 0.0
H1132 H 0.33911 0.94648 0.69017 0.0
H1133 H 0.39904 0.9902 0.69995 0.0
H1134 H 0.46132 0.02767 0.60153 0.0
H1135 H 0.43475 0.02131 0.63516 0.0
H1136 H 0.36784 0.98206 0.61684 0.0
C1137 C 0.3369 0.96231 0.70105 0.0
C1138 C 0.3923 0.988 0.68182 0.0
C1139 C 0.31776 0.9639 0.71655 0.0
C1140 C 0.44736 0.01482 0.59957 0.0
C1141 C 0.43229 0.01091 0.61894 0.0
C1142 C 0.3752 0.98323 0.63479 0.0
C1143 C 0.3521 0.98167 0.69836 0.0
C1144 C 0.36873 0.98242 0.67807 0.0
C1145 C 0.41438 0.99386 0.61733 0.0
C1146 C 0.39882 0.98914 0.63834 0.0
H1147 H 0.32626 0.02022 0.73722 0.0
H1148 H 0.36045 0.01709 0.7109 0.0
H1149 H 0.34213 0.97583 0.65114 0.0
H1150 H 0.42393 0.9756 0.55946 0.0
H1151 H 0.39815 0.96793 0.59355 0.0
C1152 C 0.02783 0.27596 0.69481 0.0
C1153 C 0.00648 0.27686 0.7071 0.0
C1154 C 0.0309 0.28904 0.67361 0.0
C1155 C 0.036 0.3351 0.64504 0.0
H1156 H 0.98818 0.3437 0.59625 0.0
C1157 C 0.02627 0.42086 0.58958 0.0
C1158 C 0.02108 0.41872 0.5649 0.0
C1159 C 0.02657 0.40081 0.6044 0.0
C1160 C 1.00184 0.3413 0.60955 0.0
H1161 H 0.97129 0.29052 0.70679 0.0
H1162 H 0.97636 0.31326 0.66957 0.0
H1163 H 0.98465 0.31129 0.62532 0.0
H1164 H 0.01221 0.39373 0.53645 0.0
H1165 H 0.01265 0.35887 0.56241 0.0
H1166 H 0.05285 0.36552 0.62972 0.0
C1167 C 0.99074 0.30252 0.67606 0.0
C1168 C 0.99975 0.32284 0.62623 0.0
C1169 C 0.98781 0.28967 0.69732 0.0
C1170 C 0.01631 0.39607 0.55537 0.0
C1171 C 0.01646 0.37607 0.57023 0.0
C1172 C 0.038 0.35365 0.62847 0.0
C1173 C 0.01254 0.30294 0.66441 0.0
C1174 C 0.01655 0.31989 0.64445 0.0
C1175 C 0.02155 0.37825 0.59489 0.0
C1176 C 0.02069 0.35723 0.6109 0.0
H1177 H 0.04239 0.26618 0.70233 0.0
H1178 H 0.04782 0.28895 0.66487 0.0
H1179 H 0.04909 0.33339 0.65904 0.0
H1180 H 0.03011 0.43801 0.5975 0.0
H1181 H 0.03026 0.40304 0.62343 0.0
C1182 C 0.72245 0.04963 0.71267 0.0
C1183 C 0.7269 0.02885 0.72582 0.0
C1184 C 0.70311 0.05091 0.6974 0.0
C1185 C 0.64691 0.02647 0.68015 0.0
H1186 H 0.67032 0.02852 0.61451 0.0
C1187 C 0.58852 1.00057 0.59994 0.0
C1188 C 0.59191 0.01193 0.5777 0.0
C1189 C 0.6041 0.00425 0.61893 0.0
C1190 C 0.66327 0.02845 0.63262 0.0
H1191 H 0.7137 0.99417 0.7355 0.0
H1192 H 0.67911 0.99678 0.70955 0.0
H1193 H 0.69703 0.03452 0.64804 0.0
H1194 H 0.61396 0.03618 0.55773 0.0
H1195 H 0.64065 0.04359 0.59116 0.0
H1196 H 0.61306 0.02101 0.66497 0.0
C1197 C 0.69078 0.01188 0.71074 0.0
C1198 C 0.67866 0.03181 0.65183 0.0
C1199 C 0.71041 0.01043 0.72564 0.0
C1200 C 0.6112 0.02696 0.57465 0.0
C1201 C 0.6265 0.03112 0.59385 0.0
C1202 C 0.63136 0.02367 0.6609 0.0
C1203 C 0.68767 0.03164 0.69564 0.0
C1204 C 0.67066 0.03055 0.67571 0.0
C1205 C 0.62312 0.01987 0.61631 0.0
C1206 C 0.6394 0.02421 0.63685 0.0
H1207 H 0.73486 0.06413 0.7129 0.0
H1208 H 0.70089 0.06639 0.68601 0.0
H1209 H 0.64044 0.02543 0.69848 0.0
H1210 H 0.57382 0.98874 0.60264 0.0
H1211 H 0.6012 0.99469 0.6356 0.0
C1212 C 0.01647 0.30812 0.2708 0.0
C1213 C 0.03764 0.29595 0.27349 0.0
C1214 C 0.0127 0.32937 0.28325 0.0
C1215 C 1.00505 0.35948 0.32843 0.0
H1216 H 0.05291 0.40729 0.33812 0.0
C1217 C 0.01201 0.41602 0.41431 0.0
C1218 C 0.01788 0.44014 0.41195 0.0
C1219 C 0.01194 0.40115 0.39417 0.0
C1220 C 0.03922 0.39429 0.33535 0.0
H1221 H 0.07188 0.29644 0.28973 0.0
H1222 H 0.06555 0.3337 0.31147 0.0
H1223 H 0.05796 0.37731 0.30671 0.0
H1224 H 0.02801 0.46761 0.38647 0.0
H1225 H 0.02804 0.4415 0.3514 0.0
H1226 H 0.98667 0.37597 0.3576 0.0
C1227 C 0.05185 0.32705 0.29981 0.0
C1228 C 0.04218 0.37708 0.3175 0.0
C1229 C 0.05547 0.30576 0.28759 0.0
C1230 C 0.02338 0.44912 0.38895 0.0
C1231 C 0.02349 0.43419 0.36886 0.0
C1232 C 1.00217 0.37658 0.3464 0.0
C1233 C 0.03021 0.33874 0.29827 0.0
C1234 C 0.02539 0.35918 0.31427 0.0
C1235 C 0.01789 0.41004 0.3713 0.0
C1236 C 0.01949 0.39379 0.35041 0.0
H1237 H 1.00258 0.30061 0.25996 0.0
H1238 H 0.99592 0.33812 0.28168 0.0
H1239 H 0.99191 0.34576 0.32647 0.0
H1240 H 0.00757 0.40854 0.43172 0.0
H1241 H 0.00784 0.38253 0.39663 0.0
C1242 C 0.72271 0.9581 0.28782 0.0
C1243 C 0.72706 0.97899 0.2748 0.0
C1244 C 0.70326 0.95654 0.30289 0.0
C1245 C 0.64681 0.98074 0.31997 0.0
H1246 H 0.67011 0.97868 0.38565 0.0
C1247 C 0.58864 0.00758 0.39996 0.0
C1248 C 0.5919 0.9963 0.42227 0.0
C1249 C 0.60418 0.0036 0.381 0.0
C1250 C 0.66309 0.97873 0.36752 0.0
H1251 H 0.71356 0.01355 0.26511 0.0
H1252 H 0.6788 0.01046 0.29072 0.0
H1253 H 0.69684 0.97251 0.35219 0.0
H1254 H 0.61363 0.97189 0.44238 0.0
H1255 H 0.64024 0.96397 0.40902 0.0
H1256 H 0.61297 0.98642 0.33508 0.0
C1257 C 0.69062 0.99548 0.28957 0.0
C1258 C 0.67848 0.97527 0.34835 0.0
C1259 C 0.71036 0.99721 0.27487 0.0
C1260 C 0.611 0.98105 0.42541 0.0
C1261 C 0.62624 0.97659 0.40625 0.0
C1262 C 0.63125 0.98366 0.33917 0.0
C1263 C 0.68761 0.97564 0.30459 0.0
C1264 C 0.67053 0.97658 0.32446 0.0
C1265 C 0.62301 0.98776 0.38372 0.0
C1266 C 0.63925 0.98314 0.36324 0.0
H1267 H 0.7353 0.94376 0.28766 0.0
H1268 H 0.70112 0.94102 0.31422 0.0
H1269 H 0.64038 0.98183 0.30163 0.0
H1270 H 0.57408 0.01957 0.39718 0.0
H1271 H 0.6014 0.01309 0.36427 0.0
C1272 C 0.06715 0.72315 0.29926 0.0
C1273 C 0.04619 0.73331 0.29135 0.0
C1274 C 0.06754 0.70928 0.32015 0.0
C1275 C 0.05744 0.6652 0.34941 0.0
H1276 H 0.01762 0.67471 0.40515 0.0
C1277 C 0.02684 0.58732 0.40793 0.0
C1278 C 0.02642 0.59033 0.4331 0.0
C1279 C 0.03099 0.60662 0.39273 0.0
C1280 C 0.02905 0.6719 0.38985 0.0
H1281 H 0.00961 0.73835 0.29924 0.0
H1282 H 0.01003 0.71406 0.33571 0.0
H1283 H 0.02339 0.70712 0.37649 0.0
H1284 H 0.02975 0.61625 0.46195 0.0
H1285 H 0.03708 0.64985 0.43534 0.0
H1286 H 0.06305 0.63 0.36264 0.0
C1287 C 0.02629 0.71693 0.32617 0.0
C1288 C 0.03221 0.6904 0.37335 0.0
C1289 C 0.02597 0.7308 0.30533 0.0
C1290 C 0.02987 0.61323 0.44266 0.0
C1291 C 0.03403 0.63254 0.42742 0.0
C1292 C 0.0543 0.64675 0.36589 0.0
C1293 C 0.0469 0.70531 0.33335 0.0
C1294 C 0.04607 0.68708 0.35269 0.0
C1295 C 0.03485 0.6294 0.4023 0.0
C1296 C 0.03966 0.64971 0.386 0.0
H1297 H 0.0829 0.72509 0.28863 0.0
H1298 H 0.08378 0.7009 0.32545 0.0
H1299 H 0.068 0.66191 0.33356 0.0
H1300 H 0.02415 0.57003 0.39986 0.0
H1301 H 0.03104 0.6037 0.37342 0.0
C1302 C 0.32872 0.00393 0.27263 0.0
C1303 C 0.31229 0.02237 0.27151 0.0
C1304 C 0.34819 0.0059 0.28765 0.0
C1305 C 0.35981 0.02848 0.34583 0.0
H1306 H 0.42492 0.01371 0.33417 0.0
C1307 C 0.42614 0.02312 0.424 0.0
C1308 C 0.44451 0.0068 0.42187 0.0
C1309 C 0.41127 0.02735 0.40448 0.0
C1310 C 0.40673 0.01752 0.33782 0.0
H1311 H 0.30428 0.05813 0.28295 0.0
H1312 H 0.338 0.06133 0.3101 0.0
H1313 H 0.39822 0.01809 0.30009 0.0
H1314 H 0.46135 0.9814 0.39827 0.0
H1315 H 0.4346 0.98755 0.36475 0.0
H1316 H 0.36754 0.02636 0.38338 0.0
C1317 C 0.33585 0.04544 0.29931 0.0
C1318 C 0.39158 0.02031 0.31826 0.0
C1319 C 0.31666 0.04363 0.2839 0.0
C1320 C 0.44734 0.9942 0.40026 0.0
C1321 C 0.43217 0.99798 0.38095 0.0
C1322 C 0.37478 0.02517 0.36539 0.0
C1323 C 0.35122 0.02621 0.30199 0.0
C1324 C 0.368 0.02571 0.32216 0.0
C1325 C 0.41416 0.01492 0.38261 0.0
C1326 C 0.39843 0.01943 0.36169 0.0
H1327 H 0.32549 0.9873 0.26342 0.0
H1328 H 0.35978 0.99081 0.28956 0.0
H1329 H 0.34154 0.0322 0.34925 0.0
H1330 H 0.42387 0.03334 0.44039 0.0
H1331 H 0.39791 0.0408 0.40641 0.0
C1332 C 0.02746 0.19369 0.26788 0.0
C1333 C 0.04657 0.20921 0.26912 0.0
C1334 C 0.02694 0.17333 0.28236 0.0
C1335 C 0.04191 0.16099 0.34198 0.0
H1336 H 0.03438 0.09349 0.33094 0.0
C1337 C 0.04084 0.09518 0.42112 0.0
C1338 C 0.02687 0.07483 0.41922 0.0
C1339 C 0.04385 0.11013 0.40126 0.0
C1340 C 0.03609 0.11234 0.33434 0.0
H1341 H 0.08091 0.2149 0.2841 0.0
H1342 H 0.08005 0.17939 0.30958 0.0
H1343 H 0.03932 0.12035 0.29653 0.0
H1344 H 1.00449 0.05443 0.39544 0.0
H1345 H 0.00871 0.08112 0.36118 0.0
H1346 H 0.03761 0.15367 0.37942 0.0
C1347 C 0.06557 0.18281 0.29748 0.0
C1348 C 0.03912 0.12758 0.31464 0.0
C1349 C 0.06614 0.20294 0.2829 0.0
C1350 C 0.01551 0.06996 0.39732 0.0
C1351 C 0.01812 0.08515 0.3776 0.0
C1352 C 0.03844 0.14592 0.36157 0.0
C1353 C 0.04551 0.16855 0.29818 0.0
C1354 C 0.04231 0.15195 0.31842 0.0
C1355 C 0.03252 0.10533 0.37922 0.0
C1356 C 0.0357 0.12134 0.35809 0.0
H1357 H 0.01213 0.19852 0.25755 0.0
H1358 H 0.01125 0.16258 0.28281 0.0
H1359 H 0.04394 0.17986 0.34519 0.0
H1360 H 0.05007 0.09914 0.4377 0.0
H1361 H 0.05547 0.12518 0.40312 0.0
C1362 C 0.80978 0.02299 0.29152 0.0
C1363 C 0.80908 0.00322 0.27616 0.0
C1364 C 0.82865 0.02634 0.30715 0.0
C1365 C 0.88891 0.00935 0.32201 0.0
H1366 H 0.86749 0.01129 0.38834 0.0
C1367 C 0.95226 0.99316 0.40138 0.0
C1368 C 0.94832 0.00486 0.42339 0.0
C1369 C 0.93592 0.99451 0.38268 0.0
C1370 C 0.87394 0.01127 0.36999 0.0
H1371 H 0.82784 0.97233 0.26376 0.0
H1372 H 0.86154 0.9786 0.2905 0.0
H1373 H 0.83925 0.01297 0.35563 0.0
H1374 H 0.92425 0.0274 0.44297 0.0
H1375 H 0.89615 0.03062 0.4101 0.0
H1376 H 0.92361 0.00815 0.33617 0.0
C1377 C 0.84747 0.99145 0.29056 0.0
C1378 C 0.85767 0.01215 0.35121 0.0
C1379 C 0.82837 0.98793 0.27517 0.0
C1380 C 0.92765 0.01796 0.42631 0.0
C1381 C 0.91149 0.01971 0.40742 0.0
C1382 C 0.90527 0.00893 0.3408 0.0
C1383 C 0.84729 0.0101 0.30744 0.0
C1384 C 0.86495 0.01097 0.32704 0.0
C1385 C 0.91537 0.00799 0.38528 0.0
C1386 C 0.89802 0.00957 0.36512 0.0
H1387 H 0.79481 0.03468 0.29278 0.0
H1388 H 0.82815 0.04094 0.31986 0.0
H1389 H 0.89498 0.00851 0.30352 0.0
H1390 H 0.96792 0.98271 0.39865 0.0
H1391 H 0.93939 0.98471 0.36628 0.0
C1392 C 0.01047 0.79326 0.28419 0.0
C1393 C 0.03249 0.78316 0.28007 0.0
C1394 C 0.0075 0.81011 0.30246 0.0
C1395 C 0.03499 0.8315 0.35882 0.0
H1396 H 0.99722 0.88763 0.34803 0.0
C1397 C 0.01841 0.90053 0.43394 0.0
C1398 C 0.02016 0.9245 0.42707 0.0
C1399 C 0.01799 0.88259 0.41651 0.0
C1400 C 0.00789 0.87208 0.35129 0.0
H1401 H 0.06855 0.78237 0.29137 0.0
H1402 H 0.06367 0.81213 0.32306 0.0
H1403 H 1.00074 0.85793 0.31623 0.0
H1404 H 0.02268 0.94833 0.3963 0.0
H1405 H 0.02232 0.91714 0.36617 0.0
H1406 H 0.04282 0.84601 0.39353 0.0
C1407 C 0.04858 0.80693 0.31253 0.0
C1408 C 0.00969 0.85495 0.33317 0.0
C1409 C 0.05147 0.79011 0.29433 0.0
C1410 C 0.02126 0.9301 0.40236 0.0
C1411 C 0.02087 0.91219 0.38499 0.0
C1412 C 0.03322 0.84864 0.37692 0.0
C1413 C 0.02652 0.81701 0.31694 0.0
C1414 C 0.02352 0.83461 0.33662 0.0
C1415 C 0.01932 0.88824 0.39184 0.0
C1416 C 0.01988 0.86927 0.37325 0.0
H1417 H 0.99549 0.78761 0.27376 0.0
H1418 H 0.99023 0.8173 0.30563 0.0
H1419 H 0.04548 0.81584 0.3622 0.0
H1420 H 0.0174 0.89554 0.45278 0.0
H1421 H 0.01651 0.8643 0.42236 0.0
C1422 C 0.21114 0.01172 0.27131 0.0
C1423 C 0.23093 0.99712 0.27206 0.0
C1424 C 0.1924 0.00749 0.28694 0.0
C1425 C 0.18455 0.98758 0.34778 0.0
H1426 H 0.11811 0.98929 0.33469 0.0
C1427 C 0.11687 0.98443 0.42514 0.0
C1428 C 0.09615 0.99739 0.42209 0.0
C1429 C 0.13247 0.98169 0.40589 0.0
C1430 C 0.13661 0.98912 0.33873 0.0
H1431 H 0.24651 0.96612 0.28833 0.0
H1432 H 0.21379 0.95866 0.3159 0.0
H1433 H 0.14578 0.98839 0.30117 0.0
H1434 H 0.07581 0.01829 0.39687 0.0
H1435 H 0.1034 0.01464 0.36382 0.0
H1436 H 0.17581 0.98972 0.38513 0.0
C1437 C 0.2126 0.97321 0.30317 0.0
C1438 C 0.15239 0.98837 0.31948 0.0
C1439 C 0.23112 0.97725 0.2873 0.0
C1440 C 0.09155 0.00797 0.39966 0.0
C1441 C 0.10732 0.00566 0.3806 0.0
C1442 C 0.16884 0.98879 0.367 0.0
C1443 C 0.1935 0.98884 0.30377 0.0
C1444 C 0.17649 0.98768 0.32385 0.0
C1445 C 0.1279 0.99227 0.38331 0.0
C1446 C 0.14462 0.98978 0.36279 0.0
H1447 H 0.21102 0.02738 0.25997 0.0
H1448 H 0.17794 0.01989 0.28717 0.0
H1449 H 0.2031 0.98748 0.35162 0.0
H1450 H 0.1207 0.97584 0.44218 0.0
H1451 H 0.1479 0.97093 0.40866 0.0
C1452 C 1.00303 0.80015 0.72133 0.0
C1453 C 0.0246 0.79773 0.73301 0.0
C1454 C 0.99882 0.81969 0.70648 0.0
C1455 C 0.01696 0.87864 0.68707 0.0
H1456 H 0.01171 0.85347 0.62216 0.0
C1457 C 0.03367 0.93734 0.60386 0.0
C1458 C 0.02147 0.93256 0.58245 0.0
C1459 C 0.03187 0.92203 0.62356 0.0
C1460 C 0.0126 0.86099 0.6401 0.0
H1461 H 0.05789 0.81418 0.74027 0.0
H1462 H 0.05028 0.8491 0.71485 0.0
H1463 H 0.01018 0.82665 0.65641 0.0
H1464 H 0.99751 0.90843 0.56483 0.0
H1465 H 0.9934 0.88219 0.59954 0.0
H1466 H 0.01893 0.91305 0.67097 0.0
C1467 C 0.03669 0.83589 0.71709 0.0
C1468 C 0.01181 0.84554 0.65973 0.0
C1469 C 0.04103 0.81611 0.73165 0.0
C1470 C 0.00737 0.91227 0.58105 0.0
C1471 C 1.0051 0.89723 0.60098 0.0
C1472 C 0.01722 0.89423 0.66743 0.0
C1473 C 0.01604 0.83718 0.70347 0.0
C1474 C 0.0143 0.85419 0.68332 0.0
C1475 C 0.01737 0.90187 0.62252 0.0
C1476 C 0.01547 0.88556 0.64362 0.0
H1477 H 0.99041 0.78584 0.72197 0.0
H1478 H 0.98279 0.82036 0.69611 0.0
H1479 H 0.01893 0.88563 0.70516 0.0
H1480 H 0.04479 0.95284 0.60531 0.0
H1481 H 0.04209 0.92595 0.6395 0.0
C1482 C 0.23213 0.02993 0.71323 0.0
C1483 C 0.2319 0.01008 0.72851 0.0
C1484 C 0.21366 0.03393 0.6973 0.0
C1485 C 0.15359 0.01854 0.68073 0.0
H1486 H 0.1774 0.01651 0.61524 0.0
C1487 C 0.09331 0.99742 0.6007 0.0
C1488 C 0.09773 0.008 0.57823 0.0
C1489 C 0.1091 0.99995 0.61968 0.0
C1490 C 0.17033 0.01762 0.63332 0.0
H1491 H 0.21194 0.97987 0.74065 0.0
H1492 H 0.17894 0.98729 0.71334 0.0
H1493 H 0.2045 0.01931 0.64891 0.0
H1494 H 0.12203 0.02963 0.55793 0.0
H1495 H 0.14935 0.03487 0.59134 0.0
H1496 H 0.11942 0.01723 0.66531 0.0
C1497 C 0.1934 0.99969 0.71359 0.0
C1498 C 0.18592 0.01916 0.65263 0.0
C1499 C 0.2121 0.99551 0.72927 0.0
C1500 C 0.11837 0.02104 0.57501 0.0
C1501 C 0.13401 0.02399 0.59419 0.0
C1502 C 0.13794 0.01746 0.66139 0.0
C1503 C 0.19457 0.01829 0.69669 0.0
C1504 C 0.17771 0.01928 0.6765 0.0
C1505 C 0.12953 0.01356 0.61685 0.0
C1506 C 0.14611 0.0165 0.6374 0.0
H1507 H 0.24753 0.04104 0.71221 0.0
H1508 H 0.2149 0.04843 0.68452 0.0
H1509 H 0.14687 0.0187 0.69899 0.0
H1510 H 0.07761 0.98706 0.60361 0.0
H1511 H 0.10528 0.99105 0.63653 0.0
C1512 C 0.02662 0.20829 0.72295 0.0
C1513 C 0.00877 0.22518 0.72044 0.0
C1514 C 0.02942 0.19041 0.70566 0.0
C1515 C 0.01992 0.17817 0.64226 0.0
H1516 H 0.02024 0.1115 0.65961 0.0
C1517 C 0.01367 0.10462 0.57026 0.0
C1518 C 0.02493 0.08292 0.57463 0.0
C1519 C 0.0129 0.12209 0.58814 0.0
C1520 C 0.02067 0.13002 0.65441 0.0
H1521 H 0.97944 0.23635 0.6986 0.0
H1522 H 0.98484 0.20566 0.66788 0.0
H1523 H 0.01711 0.14154 0.69111 0.0
H1524 H 0.04507 0.06277 0.60067 0.0
H1525 H 0.04467 0.09355 0.63144 0.0
H1526 H 0.0241 0.16698 0.60571 0.0
C1527 C 0.99663 0.20622 0.68315 0.0
C1528 C 0.01874 0.14718 0.6725 0.0
C1529 C 0.99358 0.22374 0.70063 0.0
C1530 C 0.03598 0.07925 0.59693 0.0
C1531 C 0.03561 0.09686 0.61464 0.0
C1532 C 0.02228 0.16106 0.6242 0.0
C1533 C 0.01466 0.1895 0.68544 0.0
C1534 C 0.01804 0.17136 0.66653 0.0
C1535 C 0.02379 0.11841 0.61063 0.0
C1536 C 0.02239 0.13672 0.62998 0.0
H1537 H 0.0387 0.2093 0.73792 0.0
H1538 H 0.04349 0.17771 0.70772 0.0
H1539 H 0.01968 0.19677 0.63728 0.0
H1540 H 1.00483 0.10782 0.55328 0.0
H1541 H 1.00327 0.13823 0.58448 0.0
C1542 C 0.82837 0.02174 0.72685 0.0
C1543 C 0.80937 0.00608 0.72568 0.0
C1544 C 0.84774 0.01846 0.71176 0.0
C1545 C 0.8588 0.99813 0.65137 0.0
H1546 H 0.92466 1.00176 0.66691 0.0
C1547 C 0.9288 0.99185 0.57663 0.0
C1548 C 0.94965 0.00465 0.57954 0.0
C1549 C 0.91267 0.99026 0.59553 0.0
C1550 C 0.90634 1.0011 0.66214 0.0
H1551 H 0.7959 0.97423 0.70911 0.0
H1552 H 0.82968 0.96844 0.68252 0.0
H1553 H 0.89578 1.00138 0.69936 0.0
H1554 H 0.96972 0.02628 0.60435 0.0
H1555 H 0.94117 0.02462 0.63679 0.0
H1556 H 0.86883 0.99916 0.61434 0.0
C1557 C 0.82977 0.98311 0.69516 0.0
C1558 C 0.88985 1.00066 0.68082 0.0
C1559 C 0.81064 0.98621 0.7105 0.0
C1560 C 0.95387 0.01612 0.60162 0.0
C1561 C 0.93753 0.01496 0.62035 0.0
C1562 C 0.87519 0.99906 0.63272 0.0
C1563 C 0.8481 0.9997 0.69502 0.0
C1564 C 0.86592 0.99909 0.67558 0.0
C1565 C 0.91672 1.00186 0.61769 0.0
C1566 C 0.89925 1.00054 0.63776 0.0
H1567 H 0.82741 0.0374 0.73813 0.0
H1568 H 0.86159 0.03157 0.71191 0.0
H1569 H 0.84041 0.99738 0.64682 0.0
H1570 H 0.92521 0.98254 0.55994 0.0
H1571 H 0.89718 0.97957 0.5928 0.0
C1572 C 0.30643 0.98374 0.21031 0.0
C1573 C 0.30183 0.00578 0.22112 0.0
C1574 C 0.32386 0.98166 0.19273 0.0
C1575 C 0.37737 0.01151 0.17076 0.0
H1576 H 0.36794 0.97304 0.11359 0.0
C1577 C 0.45162 0.99425 0.10233 0.0
C1578 C 0.44572 0.99589 0.07774 0.0
C1579 C 0.43421 0.99408 0.12005 0.0
C1580 C 0.37081 0.98394 0.12941 0.0
H1581 H 0.31148 0.04284 0.22215 0.0
H1582 H 0.34182 0.03942 0.19129 0.0
H1583 H 0.33692 0.97598 0.14365 0.0
H1584 H 0.41665 0.99823 0.05265 0.0
H1585 H 0.3865 0.99815 0.08349 0.0
H1586 H 0.41101 0.01993 0.15631 0.0
C1587 C 0.33222 0.02365 0.19649 0.0
C1588 C 0.35312 0.98543 0.14676 0.0
C1589 C 0.31481 0.02569 0.214 0.0
C1590 C 0.42194 0.99696 0.07136 0.0
C1591 C 0.40457 0.99675 0.08907 0.0
C1592 C 0.39506 0.00999 0.15345 0.0
C1593 C 0.3371 1.00157 0.18574 0.0
C1594 C 0.35611 0.99939 0.16755 0.0
C1595 C 0.41048 0.99549 0.11364 0.0
C1596 C 0.39196 0.99631 0.13248 0.0
H1597 H 0.29701 0.96804 0.21599 0.0
H1598 H 0.32738 0.96433 0.18506 0.0
H1599 H 0.38039 0.02217 0.18672 0.0
H1600 H 0.46969 0.99333 0.10799 0.0
H1601 H 0.43936 0.99279 0.1388 0.0
C1602 C 0.02073 0.28148 0.20328 0.0
C1603 C 0.03813 0.28338 0.22095 0.0
C1604 C 0.01836 0.29911 0.18565 0.0
C1605 C 0.04945 0.35107 0.15871 0.0
H1606 H 0.98708 0.36914 0.13852 0.0
C1607 C 0.03024 0.43609 0.10379 0.0
C1608 C 0.01803 0.43188 0.08225 0.0
C1609 C 0.03195 0.41826 0.12127 0.0
C1610 C 1.00458 0.36421 0.14403 0.0
H1611 H 0.06715 0.30439 0.2338 0.0
H1612 H 0.0625 0.33571 0.20397 0.0
H1613 H 0.99213 0.33664 0.1672 0.0
H1614 H 0.99709 0.4063 0.06252 0.0
H1615 H 0.99962 0.37542 0.09334 0.0
H1616 H 0.06173 0.3792 0.13597 0.0
C1617 C 0.05092 0.32053 0.20313 0.0
C1618 C 0.00753 0.34547 0.16027 0.0
C1619 C 0.05346 0.30277 0.22043 0.0
C1620 C 0.00677 0.40995 0.07891 0.0
C1621 C 0.00809 0.39234 0.09655 0.0
C1622 C 0.04645 0.37005 0.14281 0.0
C1623 C 0.03322 0.31907 0.18559 0.0
C1624 C 0.03003 0.33862 0.16781 0.0
C1625 C 0.02104 0.39618 0.11767 0.0
C1626 C 0.02401 0.37674 0.1353 0.0
H1627 H 0.00862 0.26672 0.20353 0.0
H1628 H 1.00479 0.29715 0.1722 0.0
H1629 H 0.06706 0.34604 0.16365 0.0
H1630 H 0.03916 0.45281 0.10675 0.0
H1631 H 0.04194 0.42162 0.13751 0.0
C1632 C 0.73428 0.01457 0.21167 0.0
C1633 C 0.73881 0.99323 0.22389 0.0
C1634 C 0.71724 0.0155 0.19352 0.0
C1635 C 0.66463 0.98335 0.17164 0.0
H1636 H 0.67366 0.02102 0.11386 0.0
C1637 C 0.5902 0.99849 0.10255 0.0
C1638 C 0.59608 0.9982 0.0779 0.0
C1639 C 0.60763 0.9983 0.12029 0.0
C1640 C 0.67089 0.01026 0.1298 0.0
H1641 H 0.72949 0.95618 0.22669 0.0
H1642 H 0.69999 0.95752 0.19485 0.0
H1643 H 0.70436 0.01953 0.14433 0.0
H1644 H 0.62516 0.9973 0.05277 0.0
H1645 H 0.65537 0.99663 0.08362 0.0
H1646 H 0.63142 0.97363 0.15691 0.0
C1647 C 0.70923 0.97369 0.1994 0.0
C1648 C 0.68842 0.00963 0.14744 0.0
C1649 C 0.72621 0.97282 0.2175 0.0
C1650 C 0.61987 0.99765 0.07152 0.0
C1651 C 0.63728 0.99742 0.08926 0.0
C1652 C 0.64712 0.98397 0.15402 0.0
C1653 C 0.70433 0.99509 0.18729 0.0
C1654 C 0.68557 0.99609 0.16856 0.0
C1655 C 0.63142 0.99776 0.1139 0.0
C1656 C 0.65002 0.99737 0.13282 0.0
H1657 H 0.74343 0.03066 0.21667 0.0
H1658 H 0.71374 0.03236 0.18486 0.0
H1659 H 0.66163 0.97299 0.1878 0.0
H1660 H 0.57212 0.99906 0.10824 0.0
H1661 H 0.60242 0.9989 0.13906 0.0
C1662 C 1.00499 0.72014 0.20758 0.0
C1663 C 0.02545 0.73375 0.20686 0.0
C1664 C 0.99954 0.70489 0.18859 0.0
C1665 C 0.01217 0.68725 0.12641 0.0
H1666 H 0.011 0.6231 0.1519 0.0
C1667 C 0.02721 0.60593 0.06554 0.0
C1668 C 0.01594 0.5845 0.07118 0.0
C1669 C 0.02575 0.62532 0.08113 0.0
C1670 C 0.01074 0.64083 0.14436 0.0
H1671 H 0.05545 0.74371 0.18562 0.0
H1672 H 0.04567 0.71737 0.15172 0.0
H1673 H 0.01097 0.65662 0.17943 0.0
H1674 H 0.99388 0.56658 0.09718 0.0
H1675 H 0.99047 0.60069 0.124 0.0
H1676 H 0.01164 0.67158 0.09131 0.0
C1677 C 0.03383 0.71849 0.16693 0.0
C1678 C 0.01079 0.66005 0.1602 0.0
C1679 C 0.03941 0.73355 0.18613 0.0
C1680 C 1.00302 0.58282 0.0926 0.0
C1681 C 1.00113 0.60239 0.10797 0.0
C1682 C 0.01165 0.668 0.11049 0.0
C1683 C 0.01444 0.70325 0.16854 0.0
C1684 C 0.01184 0.68339 0.15138 0.0
C1685 C 0.01257 0.62389 0.1025 0.0
C1686 C 0.01135 0.6445 0.11928 0.0
H1687 H 0.9943 0.71996 0.2237 0.0
H1688 H 0.98447 0.69336 0.19016 0.0
H1689 H 0.01295 0.70514 0.11925 0.0
H1690 H 0.03746 0.60763 0.0492 0.0
H1691 H 0.03528 0.64129 0.07653 0.0
C1692 C 0.30718 0.0234 0.7904 0.0
C1693 C 0.30269 1.00138 0.7795 0.0
C1694 C 0.3245 0.02545 0.80811 0.0
C1695 C 0.37791 0.99567 0.83026 0.0
H1696 H 0.36798 0.03373 0.88762 0.0
C1697 C 0.4517 0.01291 0.89908 0.0
C1698 C 0.44573 0.011 0.92363 0.0
C1699 C 0.43435 0.01314 0.88131 0.0
C1700 C 0.37099 0.02295 0.87175 0.0
H1701 H 0.31241 0.96435 0.77836 0.0
H1702 H 0.34256 0.96771 0.80943 0.0
H1703 H 0.33714 0.03084 0.85734 0.0
H1704 H 0.41661 0.00826 0.94862 0.0
H1705 H 0.38654 0.00844 0.91766 0.0
H1706 H 0.4115 0.98732 0.84487 0.0
C1707 C 0.33296 0.98348 0.80423 0.0
C1708 C 0.3534 0.02149 0.85428 0.0
C1709 C 0.31566 0.98147 0.7866 0.0
C1710 C 0.42195 0.00974 0.92994 0.0
C1711 C 0.40463 0.01001 0.91217 0.0
C1712 C 0.39548 0.99717 0.84768 0.0
C1713 C 0.33772 0.00553 0.8151 0.0
C1714 C 0.35659 0.00768 0.83342 0.0
C1715 C 0.41062 0.01152 0.88763 0.0
C1716 C 0.3922 0.0107 0.86871 0.0
H1717 H 0.29777 0.0391 0.78474 0.0
H1718 H 0.32794 0.04275 0.81586 0.0
H1719 H 0.38106 0.98514 0.81425 0.0
H1720 H 0.46978 0.014 0.89348 0.0
H1721 H 0.43955 0.01464 0.86259 0.0
C1722 C 0.98179 0.28758 0.80251 0.0
C1723 C 1.00047 0.27312 0.79551 0.0
C1724 C 0.98312 0.30094 0.8236 0.0
C1725 C 0.02908 0.32795 0.86111 0.0
H1726 H 0.97549 0.35505 0.89383 0.0
C1727 C 0.03239 0.40044 0.93602 0.0
C1728 C 0.01939 0.42086 0.93035 0.0
C1729 C 0.03064 0.38012 0.92173 0.0
C1730 C 0.99056 0.34755 0.88481 0.0
H1731 H 0.03402 0.25897 0.80594 0.0
H1732 H 0.03606 0.28139 0.84377 0.0
H1733 H 0.97035 0.32014 0.86827 0.0
H1734 H 0.99455 0.43629 0.90539 0.0
H1735 H 0.99102 0.40031 0.88063 0.0
H1736 H 0.04923 0.35531 0.87818 0.0
C1737 C 0.0207 0.28323 0.83253 0.0
C1738 C 0.98768 0.32761 0.87015 0.0
C1739 C 0.01944 0.27008 0.81116 0.0
C1740 C 1.00488 0.4208 0.90996 0.0
C1741 C 1.0027 0.40025 0.896 0.0
C1742 C 0.03201 0.34757 0.87621 0.0
C1743 C 1.00311 0.29979 0.83834 0.0
C1744 C 0.00678 0.31799 0.85747 0.0
C1745 C 0.01544 0.37974 0.90193 0.0
C1746 C 0.01267 0.35789 0.88759 0.0
H1747 H 0.96702 0.29004 0.79055 0.0
H1748 H 0.96926 0.31351 0.82718 0.0
H1749 H 0.04417 0.32141 0.85141 0.0
H1750 H 0.04375 0.40011 0.95165 0.0
H1751 H 0.04064 0.36448 0.92654 0.0
C1752 C 0.72536 0.03522 0.78316 0.0
C1753 C 0.73832 0.01499 0.77697 0.0
C1754 C 0.70838 0.03419 0.80126 0.0
C1755 C 0.68831 0.99824 0.85356 0.0
H1756 H 0.63076 0.03331 0.84412 0.0
C1757 C 0.61979 0.00934 0.92964 0.0
C1758 C 0.596 0.00846 0.92331 0.0
C1759 C 0.63716 0.0098 0.91186 0.0
C1760 C 0.64662 0.02323 0.847 0.0
H1761 H 0.74355 0.97771 0.78448 0.0
H1762 H 0.71386 0.97571 0.81625 0.0
H1763 H 0.66083 0.03426 0.81311 0.0
H1764 H 0.57198 0.00719 0.89302 0.0
H1765 H 0.6022 0.00771 0.86214 0.0
H1766 H 0.67384 0.98678 0.88723 0.0
C1767 C 0.71708 0.99256 0.80746 0.0
C1768 C 0.66404 0.02403 0.82931 0.0
C1769 C 0.73412 0.99366 0.78933 0.0
C1770 C 0.59007 0.00803 0.89867 0.0
C1771 C 0.60745 0.00844 0.88089 0.0
C1772 C 0.67086 0.99742 0.87126 0.0
C1773 C 0.70385 0.0128 0.81356 0.0
C1774 C 0.68518 0.01163 0.83237 0.0
C1775 C 0.63124 0.00934 0.88723 0.0
C1776 C 0.64979 0.00996 0.86826 0.0
H1777 H 0.72839 0.05185 0.77387 0.0
H1778 H 0.69888 0.05023 0.80569 0.0
H1779 H 0.70441 0.98861 0.85666 0.0
H1780 H 0.62511 0.00982 0.94838 0.0
H1781 H 0.65524 0.01086 0.91746 0.0
C1782 C 0.01235 0.72178 0.79504 0.0
C1783 C 0.03247 0.72361 0.78069 0.0
C1784 C 0.01043 0.70373 0.81223 0.0
C1785 C 0.02802 0.64364 0.82452 0.0
H1786 H 0.01731 0.65783 0.89201 0.0
C1787 C 0.03168 0.57094 0.89814 0.0
C1788 C 0.01762 0.5738 0.91864 0.0
C1789 C 0.03284 0.58892 0.88075 0.0
C1790 C 0.01981 0.65343 0.87318 0.0
H1791 H 0.06633 0.70837 0.77302 0.0
H1792 H 0.06263 0.67615 0.80252 0.0
H1793 H 0.02029 0.69016 0.86299 0.0
H1794 H 0.99276 0.5968 0.93655 0.0
H1795 H 0.9937 0.62748 0.90574 0.0
H1796 H 0.02673 0.60695 0.83428 0.0
C1797 C 0.04852 0.68883 0.80062 0.0
C1798 C 0.0217 0.67202 0.85665 0.0
C1799 C 0.05064 0.70717 0.78384 0.0
C1800 C 1.004 0.59436 0.92102 0.0
C1801 C 1.00473 0.61204 0.90343 0.0
C1802 C 0.02565 0.62498 0.84096 0.0
C1803 C 0.02837 0.68694 0.81487 0.0
C1804 C 0.02597 0.66726 0.83225 0.0
C1805 C 0.01957 0.60985 0.88332 0.0
C1806 C 0.02162 0.62962 0.86557 0.0
H1807 H 0.99787 0.73386 0.79248 0.0
H1808 H 0.99467 0.70244 0.82295 0.0
H1809 H 0.03112 0.63962 0.80568 0.0
H1810 H 0.04247 0.55528 0.89603 0.0
H1811 H 0.04471 0.58665 0.86574 0.0
C1812 C 0.22778 0.28941 0.02407 0.0
C1813 C 0.23451 0.2805 0.00148 0.0
C1814 C 0.20878 0.30507 0.02607 0.0
C1815 C 0.15737 0.32987 0.9929 0.0
H1816 H 0.16821 0.38533 0.03284 0.0
C1817 C 0.08646 0.402 0.00661 0.0
C1818 C 0.09346 0.42601 0.00657 0.0
C1819 C 0.10295 0.38364 0.007 0.0
C1820 C 0.16493 0.37004 0.02149 0.0
H1821 H 0.22652 0.28036 0.96347 0.0
H1822 H 0.19305 0.30716 0.96678 0.0
H1823 H 0.19699 0.35336 0.03205 0.0
H1824 H 0.12369 0.44922 0.00705 0.0
H1825 H 0.15246 0.41714 0.00766 0.0
H1826 H 0.12561 0.34678 0.98187 0.0
C1827 C 0.20213 0.302 0.98309 0.0
C1828 C 0.18131 0.35149 0.0213 0.0
C1829 C 0.22118 0.28649 0.98114 0.0
C1830 C 0.11755 0.43103 0.00712 0.0
C1831 C 0.13409 0.41258 0.0076 0.0
C1832 C 0.14095 0.34835 0.99318 0.0
C1833 C 0.19611 0.31215 0.00547 0.0
C1834 C 0.17785 0.33119 0.00688 0.0
C1835 C 0.12702 0.3886 0.00741 0.0
C1836 C 0.14453 0.36879 0.00737 0.0
H1837 H 0.2382 0.28548 0.03987 0.0
H1838 H 0.20451 0.31225 0.04364 0.0
H1839 H 0.154 0.31452 0.98168 0.0
H1840 H 0.06815 0.39723 0.00623 0.0
H1841 H 0.09676 0.36547 0.0072 0.0
C1842 C 0.2262 0.71826 0.97721 0.0
C1843 C 0.23304 0.72716 -0.00023 0.0
C1844 C 0.2072 0.70257 0.97531 0.0
C1845 C 0.15598 0.67759 0.00874 0.0
H1846 H 0.16675 0.62223 0.96866 0.0
C1847 C 0.0853 0.60496 0.99541 0.0
C1848 C 0.09247 0.58101 0.99529 0.0
C1849 C 0.10165 0.62347 0.99499 0.0
C1850 C 0.16348 0.63749 0.98005 0.0
H1851 H 0.22524 0.72727 0.03782 0.0
H1852 H 0.19177 0.70044 0.03467 0.0
H1853 H 0.19543 0.6543 0.96931 0.0
H1854 H 0.1229 0.55807 0.99454 0.0
H1855 H 0.15141 0.59036 0.9939 0.0
H1856 H 0.12432 0.66055 0.01993 0.0
C1857 C 0.20076 0.70562 0.01831 0.0
C1858 C 0.17981 0.6561 0.98017 0.0
C1859 C 0.21981 0.72115 0.02017 0.0
C1860 C 0.1166 0.5762 0.9946 0.0
C1861 C 0.133 0.59478 0.99409 0.0
C1862 C 0.13961 0.65905 0.00853 0.0
C1863 C 0.19463 0.69547 0.99597 0.0
C1864 C 0.17639 0.67637 0.99463 0.0
C1865 C 0.12576 0.61871 0.99439 0.0
C1866 C 0.14316 0.63864 0.9943 0.0
H1867 H 0.23654 0.72219 0.96136 0.0
H1868 H 0.20285 0.69539 0.95776 0.0
H1869 H 0.15263 0.69292 0.02 0.0
H1870 H 0.06694 0.60956 0.99591 0.0
H1871 H 0.09533 0.64159 0.9949 0.0
C1872 C 0.31907 0.22176 0.97863 0.0
C1873 C 0.30502 0.22746 0.99856 0.0
C1874 C 0.33554 0.2034 0.97993 0.0
C1875 C 0.35282 0.14979 0.01532 0.0
H1876 H 0.41233 0.15954 0.98348 0.0
C1877 C 0.42145 0.07407 0.00434 0.0
C1878 C 0.44531 0.07995 0.00623 0.0
C1879 C 0.40419 0.0918 0.00418 0.0
C1880 C 0.39592 0.15651 0.99268 0.0
H1881 H 0.29719 0.21834 0.03555 0.0
H1882 H 0.32591 0.18607 0.03798 0.0
H1883 H 0.38278 0.19054 0.98208 0.0
H1884 H 0.4694 0.10952 0.00978 0.0
H1885 H 0.43946 0.1402 0.00975 0.0
H1886 H 0.36621 0.11587 0.02626 0.0
C1887 C 0.32403 0.19561 0.02113 0.0
C1888 C 0.37876 0.17425 0.9916 0.0
C1889 C 0.30751 0.21407 0.01979 0.0
C1890 C 0.4513 0.10414 0.0082 0.0
C1891 C 0.43405 0.12185 0.00802 0.0
C1892 C 0.37 0.13198 0.01635 0.0
C1893 C 0.3385 0.19018 0.00128 0.0
C1894 C 0.35689 0.17118 0.00282 0.0
C1895 C 0.41022 0.116 0.00588 0.0
C1896 C 0.39183 0.13505 0.00503 0.0
H1897 H 0.31735 0.23168 0.96199 0.0
H1898 H 0.34593 0.19955 0.96409 0.0
H1899 H 0.33619 0.14661 0.02404 0.0
H1900 H 0.41601 0.05572 0.00273 0.0
H1901 H 0.38611 0.08651 0.00222 0.0
C1902 C 0.8129 0.28627 0.0165 0.0
C1903 C 0.79797 0.2854 0.99641 0.0
C1904 C 0.83173 0.30223 0.01716 0.0
C1905 C 0.86639 0.34386 0.97746 0.0
H1906 H 0.88633 0.36997 0.03881 0.0
C1907 C 0.92353 0.42864 0.98765 0.0
C1908 C 0.94406 0.42584 0.0013 0.0
C1909 C 0.90657 0.41071 0.98711 0.0
C1910 C 0.881 0.3627 0.02157 0.0
H1911 H 0.79114 0.30055 0.9613 0.0
H1912 H 0.82271 0.32929 0.9629 0.0
H1913 H 0.85509 0.34051 0.03778 0.0
H1914 H 0.96262 0.40218 0.02548 0.0
H1915 H 0.93248 0.37118 0.02518 0.0
H1916 H 0.89166 0.36715 0.96134 0.0
C1917 C 0.82071 0.31717 0.9779 0.0
C1918 C 0.86316 0.34563 0.02092 0.0
C1919 C 0.80226 0.30089 0.97708 0.0
C1920 C 0.94706 0.40482 0.01468 0.0
C1921 C 0.92979 0.38713 0.01461 0.0
C1922 C 0.88381 0.36131 0.97811 0.0
C1923 C 0.83585 0.31815 0.99794 0.0
C1924 C 0.85546 0.33593 0.99882 0.0
C1925 C 0.90946 0.38983 0.00067 0.0
C1926 C 0.89128 0.37094 0.00015 0.0
H1927 H 0.80978 0.27492 0.03191 0.0
H1928 H 0.84302 0.302 0.0328 0.0
H1929 H 0.86163 0.33655 0.9601 0.0
H1930 H 0.92074 0.44456 0.97707 0.0
H1931 H 0.89102 0.41327 0.97629 0.0
C1932 C 0.74419 0.80998 0.00964 0.0
C1933 C 0.74359 0.79004 0.99451 0.0
C1934 C 0.72827 0.82863 0.00634 0.0
C1935 C 0.66841 0.8369 0.98614 0.0
H1936 H 0.6814 0.90429 0.98994 0.0
C1937 C 0.59401 0.90683 0.98043 0.0
C1938 C 0.59659 0.92793 0.99368 0.0
C1939 C 0.61256 0.89062 0.97861 0.0
C1940 C 0.67734 0.88554 0.98923 0.0
H1941 H 0.72682 0.77418 0.9636 0.0
H1942 H 0.6989 0.80671 0.95769 0.0
H1943 H 0.71366 0.87599 0.98957 0.0
H1944 H 0.62043 0.9481 0.01615 0.0
H1945 H 0.65212 0.91962 0.01394 0.0
H1946 H 0.6322 0.84607 0.98693 0.0
C1947 C 0.71168 0.80808 0.97202 0.0
C1948 C 0.69593 0.86934 0.98882 0.0
C1949 C 0.72782 0.78967 0.97513 0.0
C1950 C 0.61792 0.93217 0.00549 0.0
C1951 C 0.63626 0.91584 0.00404 0.0
C1952 C 0.64982 0.85303 0.98697 0.0
C1953 C 0.7112 0.82738 0.9881 0.0
C1954 C 0.69167 0.84484 0.9873 0.0
C1955 C 0.63403 0.8949 0.99036 0.0
C1956 C 0.65394 0.87764 0.98865 0.0
H1957 H 0.75588 0.81029 0.025 0.0
H1958 H 0.72825 0.84321 0.01909 0.0
H1959 H 0.66456 0.81808 0.98535 0.0
H1960 H 0.57787 0.90312 0.97095 0.0
H1961 H 0.61013 0.87494 0.96761 0.0
C1962 C 0.80946 0.71675 0.98196 0.0
C1963 C 0.79761 0.72082 0.00375 0.0
C1964 C 0.82764 0.70003 0.98078 0.0
C1965 C 0.85068 0.64697 0.01307 0.0
H1966 H 0.90598 0.65751 0.9742 0.0
C1967 C 0.91879 0.5726 0.99745 0.0
C1968 C 0.9426 0.57887 0.99767 0.0
C1969 C 0.90137 0.59007 0.99745 0.0
C1970 C 0.89073 0.65432 0.98529 0.0
H1971 H 0.7956 0.71102 0.04135 0.0
H1972 H 0.8274 0.68215 0.03956 0.0
H1973 H 0.87571 0.68801 0.97603 0.0
H1974 H 0.96651 0.6088 0.99785 0.0
H1975 H 0.93618 0.63914 0.99815 0.0
H1976 H 0.86583 0.61358 0.02277 0.0
C1977 C 0.82257 0.69147 0.02322 0.0
C1978 C 0.87321 0.67174 0.98612 0.0
C1979 C 0.80445 0.70811 0.02434 0.0
C1980 C 0.94843 0.60318 0.99765 0.0
C1981 C 0.93097 0.62066 0.99767 0.0
C1982 C 0.86816 0.62959 0.01223 0.0
C1983 C 0.83429 0.68696 0.00137 0.0
C1984 C 0.85296 0.66836 0.00011 0.0
C1985 C 0.90717 0.61437 0.9977 0.0
C1986 C 0.88847 0.63299 0.99836 0.0
H1987 H 0.80418 0.72593 0.9657 0.0
H1988 H 0.83601 0.69686 0.96357 0.0
H1989 H 0.83524 0.64351 0.02378 0.0
H1990 H 0.9135 0.55414 0.99726 0.0
H1991 H 0.88328 0.58448 0.99705 0.0
C1992 C 0.31783 0.7857 0.02249 0.0
C1993 C 0.30364 0.78017 0.0026 0.0
C1994 C 0.3344 0.80397 0.0212 0.0
C1995 C 0.35191 0.85765 0.98598 0.0
H1996 H 0.41145 0.84738 0.01759 0.0
C1997 C 0.42107 0.93291 0.99701 0.0
C1998 C 0.4449 0.9269 0.99509 0.0
C1999 C 0.40371 0.91528 0.99713 0.0
C2000 C 0.39504 0.85056 0.00845 0.0
H2001 H 0.29568 0.78955 0.96571 0.0
H2002 H 0.32457 0.82168 0.96331 0.0
H2003 H 0.38169 0.81657 0.01896 0.0
H2004 H 0.4688 0.89719 0.99148 0.0
H2005 H 0.43868 0.86668 0.99146 0.0
H2006 H 0.3655 0.89152 0.97512 0.0
C2007 C 0.32272 0.81206 0.98011 0.0
C2008 C 0.37775 0.83292 0.00952 0.0
C2009 C 0.3061 0.79369 0.98144 0.0
C2010 C 0.45074 0.90267 0.99308 0.0
C2011 C 0.43338 0.88506 0.99323 0.0
C2012 C 0.36922 0.87535 0.98495 0.0
C2013 C 0.33734 0.8173 -9e-05 0.0
C2014 C 0.35586 0.83619 0.99838 0.0
C2015 C 0.40958 0.89104 0.99538 0.0
C2016 C 0.39107 0.8721 0.99621 0.0
H2017 H 0.31615 0.77568 0.03907 0.0
H2018 H 0.34489 0.80767 0.03701 0.0
H2019 H 0.33528 0.86098 0.97731 0.0
H2020 H 0.41574 0.95129 0.99865 0.0
H2021 H 0.38566 0.92068 0.99912 0.0
C2022 C 0.74383 0.19689 0.98901 0.0
C2023 C 0.74416 0.2158 0.00546 0.0
C2024 C 0.72808 0.17804 0.99205 0.0
C2025 C 0.66945 0.16867 0.01471 0.0
H2026 H 0.68192 0.10145 0.00752 0.0
C2027 C 0.59493 0.09896 0.02091 0.0
C2028 C 0.59691 0.07824 0.00697 0.0
C2029 C 0.61362 0.11503 0.02245 0.0
C2030 C 0.67797 0.12017 0.00917 0.0
H2031 H 0.72933 0.22956 0.0384 0.0
H2032 H 0.70169 0.19669 0.04382 0.0
H2033 H 0.71431 0.12961 0.00758 0.0
H2034 H 0.61974 0.0586 0.98297 0.0
H2035 H 0.65162 0.08691 0.98464 0.0
H2036 H 0.63319 0.1597 0.01511 0.0
C2037 C 0.71362 0.19628 0.02867 0.0
C2038 C 0.69665 0.13627 0.00941 0.0
C2039 C 0.72961 0.21486 0.02581 0.0
C2040 C 0.61774 0.07424 0.99417 0.0
C2041 C 0.63619 0.09047 0.99531 0.0
C2042 C 0.65075 0.15266 0.01401 0.0
C2043 C 0.71214 0.17809 0.01138 0.0
C2044 C 0.69258 0.16069 0.01219 0.0
C2045 C 0.6346 0.11101 0.0097 0.0
C2046 C 0.65466 0.12812 0.01114 0.0
H2047 H 0.75456 0.19761 0.97295 0.0
H2048 H 0.72725 0.16432 0.97839 0.0
H2049 H 0.66575 0.18745 0.01649 0.0
H2050 H 0.57918 0.10244 0.03114 0.0
H2051 H 0.61168 0.13038 0.03402 0.0
C2052 C 0.56123 0.69776 0.77748 0.0
C2053 C 0.54198 0.70856 0.76643 0.0
C2054 C 0.55832 0.67712 0.79107 0.0
C2055 C 0.5481 0.62999 0.81569 0.0
H2056 H 0.49743 0.63824 0.86141 0.0
C2057 C 0.52914 0.56254 0.89157 0.0
C2058 C 0.52478 0.572 0.91465 0.0
C2059 C 0.53007 0.57727 0.87138 0.0
C2060 C 0.51165 0.63571 0.84879 0.0
H2061 H 0.50503 0.70588 0.75924 0.0
H2062 H 0.49973 0.6694 0.78288 0.0
H2063 H 0.50126 0.66557 0.82751 0.0
H2064 H 0.51789 0.60446 0.93447 0.0
H2065 H 0.51964 0.63027 0.89908 0.0
H2066 H 0.55896 0.60062 0.8375 0.0
C2067 C 0.51707 0.67691 0.78118 0.0
C2068 C 0.51366 0.65113 0.82917 0.0
C2069 C 0.52009 0.6975 0.76745 0.0
C2070 C 0.52131 0.59659 0.91701 0.0
C2071 C 0.52213 0.61134 0.89671 0.0
C2072 C 0.54602 0.61448 0.83525 0.0
C2073 C 0.53599 0.66711 0.79396 0.0
C2074 C 0.53213 0.64868 0.81264 0.0
C2075 C 0.52659 0.60181 0.87371 0.0
C2076 C 0.52801 0.61744 0.85223 0.0
H2077 H 0.57814 0.70638 0.77709 0.0
H2078 H 0.57319 0.67014 0.80083 0.0
H2079 H 0.56247 0.62764 0.80322 0.0
H2080 H 0.53198 0.54369 0.88899 0.0
H2081 H 0.53333 0.56939 0.85388 0.0
C2082 C 0.31015 0.52106 0.78954 0.0
C2083 C 0.30899 0.50111 0.77444 0.0
C2084 C 0.32914 0.5242 0.80507 0.0
C2085 C 0.38906 0.50623 0.8201 0.0
H2086 H 0.36765 0.50914 0.88639 0.0
C2087 C 0.45234 0.49078 0.89987 0.0
C2088 C 0.44833 0.50277 0.92171 0.0
C2089 C 0.43606 0.49191 0.88109 0.0
C2090 C 0.37412 0.50884 0.86805 0.0
H2091 H 0.32706 0.46967 0.76241 0.0
H2092 H 0.36098 0.47555 0.78895 0.0
H2093 H 0.33946 0.51087 0.85367 0.0
H2094 H 0.42426 0.52567 0.94084 0.0
H2095 H 0.39631 0.52852 0.90786 0.0
H2096 H 0.42375 0.50474 0.83429 0.0
C2097 C 0.34718 0.48871 0.78888 0.0
C2098 C 0.35786 0.50975 0.84926 0.0
C2099 C 0.32795 0.4854 0.77359 0.0
C2100 C 0.4277 0.51597 0.92434 0.0
C2101 C 0.41161 0.51751 0.90537 0.0
C2102 C 0.40542 0.50579 0.8389 0.0
C2103 C 0.34744 0.50756 0.80552 0.0
C2104 C 0.36512 0.50826 0.82511 0.0
C2105 C 0.41551 0.50547 0.88343 0.0
C2106 C 0.39818 0.50683 0.86322 0.0
H2107 H 0.29543 0.53308 0.79071 0.0
H2108 H 0.32897 0.53895 0.8176 0.0
H2109 H 0.39512 0.50512 0.80162 0.0
H2110 H 0.468 0.48027 0.89735 0.0
H2111 H 0.43956 0.48188 0.86483 0.0
C2112 C 0.51252 0.29658 0.78299 0.0
C2113 C 0.53271 0.28258 0.78093 0.0
C2114 C 0.51086 0.31382 0.80103 0.0
C2115 C 0.52921 0.32763 0.86133 0.0
H2116 H 0.5197 0.39382 0.84492 0.0
C2117 C 0.53464 0.40201 0.93301 0.0
C2118 C 0.52104 0.42243 0.9296 0.0
C2119 C 0.53541 0.38442 0.91521 0.0
C2120 C 0.52186 0.37538 0.84995 0.0
H2121 H 0.56687 0.27544 0.79594 0.0
H2122 H 0.56358 0.30501 0.82823 0.0
H2123 H 0.52186 0.36423 0.81297 0.0
H2124 H 0.4966 0.44007 0.90576 0.0
H2125 H 0.49681 0.40894 0.87541 0.0
H2126 H 0.52836 0.33836 0.89828 0.0
C2127 C 0.54925 0.30282 0.81567 0.0
C2128 C 0.52328 0.35851 0.83157 0.0
C2129 C 0.55112 0.28599 0.79729 0.0
C2130 C 0.5075 0.42459 0.90863 0.0
C2131 C 0.50781 0.4068 0.89114 0.0
C2132 C 0.52728 0.34442 0.87978 0.0
C2133 C 0.52911 0.31685 0.81765 0.0
C2134 C 0.52712 0.33456 0.83713 0.0
C2135 C 0.52216 0.38669 0.8939 0.0
C2136 C 0.5237 0.36858 0.87435 0.0
H2137 H 0.49784 0.29381 0.77104 0.0
H2138 H 0.49509 0.32436 0.80242 0.0
H2139 H 0.532 0.30915 0.86596 0.0
H2140 H 0.54537 0.40006 0.94898 0.0
H2141 H 0.54694 0.36942 0.91792 0.0
C2142 C 0.73255 0.4769 0.7886 0.0
C2143 C 0.73208 0.49645 0.77294 0.0
C2144 C 0.71403 0.47283 0.80445 0.0
C2145 C 0.65346 0.48679 0.82003 0.0
H2146 H 0.67637 0.4905 0.88578 0.0
C2147 C 0.59146 0.50635 0.89922 0.0
C2148 C 0.59625 0.49655 0.92198 0.0
C2149 C 0.60742 0.50406 0.88035 0.0
C2150 C 0.66955 0.4889 0.86764 0.0
H2151 H 0.71166 0.52604 0.76006 0.0
H2152 H 0.67856 0.51846 0.78724 0.0
H2153 H 0.70395 0.48828 0.85251 0.0
H2154 H 0.62133 0.47645 0.94287 0.0
H2155 H 0.64892 0.47151 0.90966 0.0
H2156 H 0.61907 0.48695 0.83497 0.0
C2157 C 0.69328 0.50636 0.78736 0.0
C2158 C 0.68542 0.48771 0.84855 0.0
C2159 C 0.71202 0.51064 0.77175 0.0
C2160 C 0.61735 0.4844 0.92555 0.0
C2161 C 0.63316 0.48165 0.90648 0.0
C2162 C 0.63752 0.48749 0.83915 0.0
C2163 C 0.69463 0.48809 0.80459 0.0
C2164 C 0.67753 0.48697 0.82458 0.0
C2165 C 0.62841 0.49145 0.88358 0.0
C2166 C 0.64535 0.48899 0.86324 0.0
H2167 H 0.74813 0.46608 0.78994 0.0
H2168 H 0.71542 0.45857 0.81749 0.0
H2169 H 0.64698 0.48614 0.80168 0.0
H2170 H 0.57542 0.51608 0.89604 0.0
H2171 H 0.60333 0.51246 0.8633 0.0
C2172 C 0.52035 0.31089 0.23173 0.0
C2173 C 0.54218 0.2997 0.23254 0.0
C2174 C 0.51735 0.33153 0.21806 0.0
C2175 C 0.51372 0.35755 0.17021 0.0
H2176 H 0.55921 0.4079 0.16186 0.0
C2177 C 0.52123 0.41236 0.08257 0.0
C2178 C 0.52479 0.43693 0.08497 0.0
C2179 C 0.52207 0.39755 0.10282 0.0
C2180 C 0.54622 0.39409 0.16412 0.0
H2181 H 0.57826 0.30167 0.22154 0.0
H2182 H 0.57333 0.338 0.19792 0.0
H2183 H 0.56283 0.38065 0.19595 0.0
H2184 H 0.53215 0.46516 0.11066 0.0
H2185 H 0.53355 0.43936 0.14572 0.0
H2186 H 0.49735 0.3707 0.13815 0.0
C2187 C 0.5585 0.33108 0.2078 0.0
C2188 C 0.54836 0.37845 0.18356 0.0
C2189 C 0.5614 0.31038 0.22131 0.0
C2190 C 0.52924 0.44633 0.10806 0.0
C2191 C 0.5302 0.43154 0.12821 0.0
C2192 C 0.51166 0.37309 0.15069 0.0
C2193 C 0.53622 0.34126 0.20516 0.0
C2194 C 0.53232 0.35981 0.18662 0.0
C2195 C 0.52663 0.40701 0.12583 0.0
C2196 C 0.52808 0.3913 0.14724 0.0
H2197 H 0.50531 0.3026 0.24007 0.0
H2198 H 0.50004 0.33916 0.21655 0.0
H2199 H 0.50127 0.34316 0.17187 0.0
H2200 H 0.51773 0.40453 0.06509 0.0
H2201 H 0.51951 0.37864 0.10041 0.0
C2202 C 0.71114 0.49791 0.22823 0.0
C2203 C 0.73134 0.5119 0.22718 0.0
C2204 C 0.69249 0.50244 0.21258 0.0
C2205 C 0.685 0.52144 0.15145 0.0
H2206 H 0.61861 0.52239 0.16484 0.0
C2207 C 0.61708 0.52497 0.07429 0.0
C2208 C 0.59601 0.51274 0.07779 0.0
C2209 C 0.63285 0.52774 0.0934 0.0
C2210 C 0.63708 0.52181 0.16071 0.0
H2211 H 0.74777 0.54215 0.21033 0.0
H2212 H 0.71521 0.5501 0.1827 0.0
H2213 H 0.64644 0.523 0.19822 0.0
H2214 H 0.57518 0.49312 0.10365 0.0
H2215 H 0.603 0.49679 0.13646 0.0
H2216 H 0.67601 0.51881 0.11419 0.0
C2217 C 0.71364 0.53581 0.19569 0.0
C2218 C 0.65296 0.5224 0.17988 0.0
C2219 C 0.73207 0.53149 0.21158 0.0
C2220 C 0.5912 0.5029 0.10052 0.0
C2221 C 0.6071 0.50523 0.11944 0.0
C2222 C 0.66917 0.52038 0.13231 0.0
C2223 C 0.69408 0.52077 0.19543 0.0
C2224 C 0.67705 0.52212 0.1754 0.0
C2225 C 0.62806 0.5179 0.11628 0.0
C2226 C 0.64495 0.52033 0.13665 0.0
H2227 H 0.71059 0.48248 0.23987 0.0
H2228 H 0.67765 0.49049 0.21261 0.0
H2229 H 0.70353 0.5208 0.14754 0.0
H2230 H 0.62109 0.53294 0.05699 0.0
H2231 H 0.64859 0.53792 0.09028 0.0
C2232 C 0.51246 0.71026 0.21828 0.0
C2233 C 0.53252 0.72433 0.22072 0.0
C2234 C 0.51103 0.69322 0.20001 0.0
C2235 C 0.54753 0.66097 0.15455 0.0
H2236 H 0.48723 0.64823 0.1254 0.0
C2237 C 0.53406 0.60713 0.06628 0.0
C2238 C 0.52081 0.58648 0.0701 0.0
C2239 C 0.53504 0.62475 0.08403 0.0
C2240 C 0.50415 0.65172 0.13341 0.0
H2241 H 0.56678 0.73173 0.20624 0.0
H2242 H 0.56394 0.70313 0.17348 0.0
H2243 H 0.49018 0.67727 0.15792 0.0
H2244 H 0.49742 0.56842 0.0948 0.0
H2245 H 0.49848 0.5997 0.12543 0.0
H2246 H 0.56143 0.63592 0.1292 0.0
C2247 C 0.54955 0.70443 0.18606 0.0
C2248 C 0.50587 0.66814 0.15222 0.0
C2249 C 0.55113 0.72105 0.20465 0.0
C2250 C 0.50787 0.58414 0.0915 0.0
C2251 C 0.50839 0.602 0.10893 0.0
C2252 C 0.54585 0.64497 0.13539 0.0
C2253 C 0.52944 0.69028 0.1834 0.0
C2254 C 0.52758 0.67288 0.16321 0.0
C2255 C 0.52228 0.62222 0.1055 0.0
C2256 C 0.52414 0.64012 0.12482 0.0
H2257 H 0.49766 0.71281 0.23013 0.0
H2258 H 0.49541 0.68244 0.1989 0.0
H2259 H 0.56447 0.66367 0.16278 0.0
H2260 H 0.54427 0.60927 0.04997 0.0
H2261 H 0.54584 0.64028 0.08108 0.0
C2262 C 0.31066 0.48643 0.21025 0.0
C2263 C 0.30954 0.50645 0.22525 0.0
C2264 C 0.32964 0.48321 0.19473 0.0
C2265 C 0.38949 0.50124 0.1795 0.0
H2266 H 0.36781 0.49836 0.11328 0.0
C2267 C 0.45219 0.51765 0.09957 0.0
C2268 C 0.44827 0.50561 0.07774 0.0
C2269 C 0.436 0.51628 0.11839 0.0
C2270 C 0.37435 0.49866 0.1316 0.0
H2271 H 0.32767 0.53791 0.23719 0.0
H2272 H 0.36155 0.53189 0.21065 0.0
H2273 H 0.33976 0.49643 0.14612 0.0
H2274 H 0.42444 0.48242 0.05864 0.0
H2275 H 0.39662 0.47917 0.09171 0.0
H2276 H 0.42411 0.50297 0.16516 0.0
C2277 C 0.34774 0.51875 0.21078 0.0
C2278 C 0.35818 0.49763 0.15045 0.0
C2279 C 0.32853 0.52213 0.22605 0.0
C2280 C 0.42779 0.49215 0.07514 0.0
C2281 C 0.41179 0.49038 0.09415 0.0
C2282 C 0.40576 0.50182 0.16063 0.0
C2283 C 0.34794 0.49984 0.19421 0.0
C2284 C 0.36554 0.49912 0.17457 0.0
C2285 C 0.41563 0.50244 0.11609 0.0
C2286 C 0.39841 0.50082 0.13635 0.0
H2287 H 0.29592 0.47444 0.20913 0.0
H2288 H 0.32944 0.46842 0.18224 0.0
H2289 H 0.39561 0.50236 0.19795 0.0
H2290 H 0.46774 0.52835 0.10205 0.0
H2291 H 0.43941 0.52633 0.13465 0.0
C2292 C 0.80672 0.48414 0.70983 0.0
C2293 C 0.80222 0.506 0.72105 0.0
C2294 C 0.82392 0.48237 0.69197 0.0
C2295 C 0.87715 0.51264 0.66994 0.0
H2296 H 0.86733 0.47496 0.6123 0.0
C2297 C 0.95104 0.49591 0.60106 0.0
C2298 C 0.94511 0.49779 0.5765 0.0
C2299 C 0.93367 0.49568 0.6188 0.0
C2300 C 0.8703 0.48564 0.62825 0.0
H2301 H 0.8118 0.54306 0.72253 0.0
H2302 H 0.84173 0.5402 0.6912 0.0
H2303 H 0.83651 0.47748 0.64263 0.0
H2304 H 0.91602 0.50054 0.55147 0.0
H2305 H 0.88591 0.50035 0.58239 0.0
H2306 H 0.9107 0.52125 0.65537 0.0
C2307 C 0.83224 0.52433 0.69627 0.0
C2308 C 0.85273 0.48689 0.64575 0.0
C2309 C 0.81505 0.52605 0.71406 0.0
C2310 C 0.92133 0.49907 0.57016 0.0
C2311 C 0.90399 0.49881 0.58791 0.0
C2312 C 0.89472 0.51136 0.65249 0.0
C2313 C 0.83703 0.50242 0.68513 0.0
C2314 C 0.85588 0.50055 0.66673 0.0
C2315 C 0.90994 0.49728 0.61246 0.0
C2316 C 0.89148 0.49795 0.63136 0.0
H2317 H 0.79742 0.46833 0.71539 0.0
H2318 H 0.82739 0.46517 0.68399 0.0
H2319 H 0.88028 0.52307 0.68603 0.0
H2320 H 0.96912 0.49481 0.60668 0.0
H2321 H 0.93885 0.49417 0.63753 0.0
C2322 C 0.51846 0.78278 0.7037 0.0
C2323 C 0.53748 0.78386 0.71964 0.0
C2324 C 0.5152 0.80057 0.6864 0.0
C2325 C 0.52639 0.86302 0.67544 0.0
H2326 H 0.5207 0.84823 0.60744 0.0
C2327 C 0.5297 0.93597 0.60222 0.0
C2328 C 0.51708 0.93239 0.58084 0.0
C2329 C 0.53091 0.918 0.61961 0.0
C2330 C 0.52176 0.85274 0.62638 0.0
H2331 H 0.56819 0.80383 0.72982 0.0
H2332 H 0.56211 0.8354 0.70012 0.0
H2333 H 0.52482 0.81614 0.63662 0.0
H2334 H 0.49483 0.90788 0.56134 0.0
H2335 H 0.49595 0.87708 0.59203 0.0
H2336 H 0.52272 0.8995 0.66556 0.0
C2337 C 0.5498 0.82081 0.70094 0.0
C2338 C 0.52427 0.8343 0.64304 0.0
C2339 C 0.55328 0.80282 0.71785 0.0
C2340 C 0.50497 0.91096 0.57754 0.0
C2341 C 0.50578 0.89322 0.59509 0.0
C2342 C 0.52344 0.88146 0.65886 0.0
C2343 C 0.53067 0.81991 0.68517 0.0
C2344 C 0.52686 0.83931 0.66765 0.0
C2345 C 0.51915 0.89627 0.61616 0.0
C2346 C 0.52133 0.87661 0.63405 0.0
H2347 H 0.5058 0.76857 0.70509 0.0
H2348 H 0.50025 0.79961 0.67447 0.0
H2349 H 0.52813 0.86726 0.69442 0.0
H2350 H 0.53934 0.95228 0.6051 0.0
H2351 H 0.54167 0.92094 0.63539 0.0
C2352 C 0.22523 0.47158 0.71672 0.0
C2353 C 0.23804 0.4919 0.72295 0.0
C2354 C 0.20827 0.47249 0.69859 0.0
C2355 C 0.18792 0.50837 0.64631 0.0
H2356 H 0.13072 0.47265 0.65558 0.0
C2357 C 0.11939 0.49715 0.57017 0.0
C2358 C 0.09559 0.49773 0.57653 0.0
C2359 C 0.13679 0.49669 0.58793 0.0
C2360 C 0.14647 0.48292 0.65274 0.0
H2361 H 0.24303 0.52922 0.71546 0.0
H2362 H 0.21336 0.53101 0.68364 0.0
H2363 H 0.16077 0.47192 0.6866 0.0
H2364 H 0.07162 0.49842 0.60687 0.0
H2365 H 0.10189 0.49789 0.6377 0.0
H2366 H 0.17333 0.51981 0.61267 0.0
C2367 C 0.21668 0.51417 0.69243 0.0
C2368 C 0.1639 0.48224 0.67044 0.0
C2369 C 0.23371 0.5132 0.71059 0.0
C2370 C 0.08971 0.49781 0.60119 0.0
C2371 C 0.10712 0.49741 0.61894 0.0
C2372 C 0.17046 0.50907 0.6286 0.0
C2373 C 0.20359 0.49384 0.68629 0.0
C2374 C 0.18492 0.49488 0.66745 0.0
C2375 C 0.13092 0.49685 0.61257 0.0
C2376 C 0.1495 0.4963 0.63153 0.0
H2377 H 0.22836 0.45496 0.72601 0.0
H2378 H 0.19889 0.45637 0.69414 0.0
H2379 H 0.20391 0.51818 0.64325 0.0
H2380 H 0.12468 0.49695 0.55141 0.0
H2381 H 0.15488 0.49589 0.58229 0.0
C2382 C 0.50206 0.22424 0.7042 0.0
C2383 C 0.52382 0.2355 0.70591 0.0
C2384 C 0.49719 0.20935 0.68474 0.0
C2385 C 0.51409 0.18906 0.62475 0.0
H2386 H 0.50782 0.12565 0.65135 0.0
C2387 C 0.52959 0.10613 0.56646 0.0
C2388 C 0.51702 0.08533 0.5715 0.0
C2389 C 0.52807 0.12572 0.58177 0.0
C2390 C 0.50899 0.14319 0.64344 0.0
H2391 H 0.55679 0.24191 0.68826 0.0
H2392 H 0.54802 0.21643 0.65344 0.0
H2393 H 0.50706 0.15982 0.67808 0.0
H2394 H 0.49275 0.06864 0.59617 0.0
H2395 H 0.48918 0.10318 0.62243 0.0
H2396 H 0.51562 0.17265 0.59006 0.0
C2397 C 0.53478 0.21903 0.66714 0.0
C2398 C 0.50863 0.16277 0.65883 0.0
C2399 C 0.53978 0.23363 0.68687 0.0
C2400 C 0.50287 0.0844 0.59211 0.0
C2401 C 0.5009 0.10422 0.60716 0.0
C2402 C 0.51394 0.16949 0.60924 0.0
C2403 C 0.51394 0.20586 0.6666 0.0
C2404 C 0.51153 0.1858 0.64966 0.0
C2405 C 0.51349 0.12519 0.60219 0.0
C2406 C 0.51186 0.14622 0.61843 0.0
H2407 H 0.48981 0.22527 0.71905 0.0
H2408 H 0.48102 0.19935 0.68464 0.0
H2409 H 0.51636 0.20672 0.61735 0.0
H2410 H 0.54078 0.1072 0.55073 0.0
H2411 H 0.53856 0.14119 0.57762 0.0
C2412 C 0.80649 0.52485 0.28918 0.0
C2413 C 0.80182 0.50275 0.27854 0.0
C2414 C 0.82382 0.52697 0.30688 0.0
C2415 C 0.87702 0.49708 0.32941 0.0
H2416 H 0.86738 0.53591 0.38629 0.0
C2417 C 0.95103 0.51485 0.39789 0.0
C2418 C 0.94511 0.51326 0.42248 0.0
C2419 C 0.93365 0.51494 0.38015 0.0
C2420 C 0.87031 0.52492 0.37055 0.0
H2421 H 0.81126 0.46563 0.27787 0.0
H2422 H 0.84144 0.46912 0.3089 0.0
H2423 H 0.8365 0.53283 0.35607 0.0
H2424 H 0.91602 0.51096 0.44755 0.0
H2425 H 0.88589 0.51091 0.41664 0.0
H2426 H 0.91059 0.48872 0.34409 0.0
C2427 C 0.83197 0.4849 0.30351 0.0
C2428 C 0.8527 0.52334 0.35312 0.0
C2429 C 0.81465 0.48282 0.2859 0.0
C2430 C 0.92133 0.51219 0.42884 0.0
C2431 C 0.90397 0.51232 0.4111 0.0
C2432 C 0.89463 0.49869 0.34679 0.0
C2433 C 0.83689 0.50703 0.31412 0.0
C2434 C 0.85578 0.50926 0.33242 0.0
C2435 C 0.90992 0.51349 0.38653 0.0
C2436 C 0.89145 0.51252 0.36765 0.0
H2437 H 0.79722 0.54056 0.28332 0.0
H2438 H 0.82739 0.54433 0.31442 0.0
H2439 H 0.8801 0.48632 0.31353 0.0
H2440 H 0.96911 0.51577 0.39224 0.0
H2441 H 0.93882 0.51618 0.3614 0.0
C2442 C 0.50107 0.78325 0.29707 0.0
C2443 C 0.52273 0.77177 0.2955 0.0
C2444 C 0.49633 0.79841 0.31636 0.0
C2445 C 0.51351 0.81925 0.37612 0.0
H2446 H 0.50745 0.8824 0.34884 0.0
C2447 C 0.52946 0.90265 0.43358 0.0
C2448 C 0.51692 0.92345 0.42842 0.0
C2449 C 0.52789 0.88296 0.41841 0.0
C2450 C 0.50857 0.86495 0.35694 0.0
H2451 H 0.55563 0.76527 0.31327 0.0
H2452 H 0.54706 0.7912 0.34779 0.0
H2453 H 0.50643 0.84795 0.3225 0.0
H2454 H 0.4927 0.94003 0.40363 0.0
H2455 H 0.48904 0.90531 0.37759 0.0
H2456 H 0.51524 0.83603 0.41062 0.0
C2457 C 0.5338 0.78857 0.3341 0.0
C2458 C 0.50805 0.8452 0.34178 0.0
C2459 C 0.53868 0.77369 0.31456 0.0
C2460 C 0.50279 0.92427 0.40779 0.0
C2461 C 0.50077 0.90435 0.39287 0.0
C2462 C 0.51351 0.839 0.39142 0.0
C2463 C 0.5131 0.80197 0.33447 0.0
C2464 C 0.51087 0.82224 0.35118 0.0
C2465 C 0.51329 0.88338 0.398 0.0
C2466 C 0.51151 0.86218 0.38198 0.0
H2467 H 0.48883 0.7822 0.28221 0.0
H2468 H 0.48026 0.80857 0.31631 0.0
H2469 H 0.5157 0.80167 0.38372 0.0
H2470 H 0.54065 0.90166 0.44932 0.0
H2471 H 0.53834 0.8675 0.42267 0.0
C2472 C 0.2343 0.49452 0.28901 0.0
C2473 C 0.23877 0.51588 0.2768 0.0
C2474 C 0.21716 0.49351 0.30704 0.0
C2475 C 0.16429 0.52537 0.32862 0.0
H2476 H 0.17329 0.48779 0.38645 0.0
C2477 C 0.08974 0.50994 0.39745 0.0
C2478 C 0.09557 0.51026 0.42211 0.0
C2479 C 0.1072 0.5102 0.37976 0.0
C2480 C 0.17054 0.49852 0.37049 0.0
H2481 H 0.22926 0.55287 0.27389 0.0
H2482 H 0.1996 0.55138 0.30556 0.0
H2483 H 0.20411 0.48944 0.35613 0.0
H2484 H 0.12458 0.51132 0.44733 0.0
H2485 H 0.15485 0.51212 0.41657 0.0
H2486 H 0.13099 0.53493 0.34319 0.0
C2487 C 0.20896 0.53527 0.30108 0.0
C2488 C 0.18813 0.49923 0.35295 0.0
C2489 C 0.22602 0.53622 0.28308 0.0
C2490 C 0.11934 0.51092 0.42857 0.0
C2491 C 0.13678 0.51124 0.41088 0.0
C2492 C 0.14673 0.52467 0.34615 0.0
C2493 C 0.20411 0.51384 0.31318 0.0
C2494 C 0.18529 0.51275 0.3318 0.0
C2495 C 0.13097 0.51085 0.38623 0.0
C2496 C 0.14961 0.5113 0.36738 0.0
H2497 H 0.24358 0.47849 0.28409 0.0
H2498 H 0.21371 0.47663 0.3157 0.0
H2499 H 0.1613 0.5357 0.31243 0.0
H2500 H 0.07167 0.50926 0.39173 0.0
H2501 H 0.10204 0.50955 0.36098 0.0
C2502 C 0.51887 0.22582 0.29579 0.0
C2503 C 0.53782 0.22466 0.27977 0.0
C2504 C 0.51568 0.20809 0.31318 0.0
C2505 C 0.52679 0.14566 0.32423 0.0
H2506 H 0.5213 0.16057 0.39222 0.0
C2507 C 0.52999 0.07281 0.39756 0.0
C2508 C 0.51741 0.07645 0.41895 0.0
C2509 C 0.53126 0.09075 0.38015 0.0
C2510 C 0.52231 0.15602 0.37328 0.0
H2511 H 0.56848 0.20463 0.26954 0.0
H2512 H 0.56249 0.17317 0.29938 0.0
H2513 H 0.52543 0.19261 0.36297 0.0
H2514 H 0.49527 0.10107 0.43844 0.0
H2515 H 0.49648 0.13183 0.40771 0.0
H2516 H 0.52305 0.1092 0.33418 0.0
C2517 C 0.5502 0.18777 0.29856 0.0
C2518 C 0.52482 0.17443 0.35658 0.0
C2519 C 0.55362 0.2057 0.28157 0.0
C2520 C 0.50539 0.09793 0.42223 0.0
C2521 C 0.50625 0.11564 0.40466 0.0
C2522 C 0.52384 0.12725 0.34085 0.0
C2523 C 0.53113 0.18874 0.31441 0.0
C2524 C 0.52734 0.16938 0.33197 0.0
C2525 C 0.51957 0.11252 0.38357 0.0
C2526 C 0.52179 0.13215 0.36566 0.0
H2527 H 0.50622 0.24002 0.29441 0.0
H2528 H 0.50077 0.2091 0.32517 0.0
H2529 H 0.52847 0.14138 0.30525 0.0
H2530 H 0.53957 0.05645 0.39469 0.0
H2531 H 0.54198 0.08774 0.36436 0.0
C2532 C 0.71992 0.78699 0.48016 0.0
C2533 C 0.73326 0.78107 0.50052 0.0
C2534 C 0.70083 0.80245 0.48206 0.0
C2535 C 0.67989 0.85196 0.5202 0.0
H2536 H 0.62436 0.84734 0.4805 0.0
C2537 C 0.61646 0.93168 0.50578 0.0
C2538 C 0.59235 0.92678 0.50505 0.0
C2539 C 0.63291 0.91315 0.50631 0.0
C2540 C 0.63965 0.84888 0.49189 0.0
H2541 H 0.73688 0.78611 0.53891 0.0
H2542 H 0.7031 0.81278 0.5426 0.0
H2543 H 0.65271 0.81502 0.48045 0.0
H2544 H 0.56691 0.89813 0.50442 0.0
H2545 H 0.59538 0.86621 0.50548 0.0
H2546 H 0.66678 0.88581 0.53168 0.0
C2547 C 0.70741 0.80559 0.52504 0.0
C2548 C 0.65605 0.83038 0.49169 0.0
C2549 C 0.72646 0.78998 0.52309 0.0
C2550 C 0.58525 0.9028 0.50494 0.0
C2551 C 0.60165 0.88436 0.50538 0.0
C2552 C 0.66353 0.87053 0.52031 0.0
C2553 C 0.69475 0.81262 0.50441 0.0
C2554 C 0.67648 0.83166 0.50577 0.0
C2555 C 0.62574 0.8892 0.506 0.0
C2556 C 0.64319 0.86932 0.50609 0.0
H2557 H 0.72532 0.78086 0.4625 0.0
H2558 H 0.69177 0.80757 0.46572 0.0
H2559 H 0.69552 0.85381 0.53103 0.0
H2560 H 0.6227 0.94983 0.50583 0.0
H2561 H 0.65131 0.91763 0.50651 0.0
C2562 C 0.72132 0.22088 0.51973 0.0
C2563 C 0.73437 0.22701 0.49924 0.0
C2564 C 0.70223 0.2054 0.51796 0.0
C2565 C 0.68063 0.15624 0.47966 0.0
H2566 H 0.62553 0.16083 0.51999 0.0
C2567 C 0.61683 0.07677 0.49396 0.0
C2568 C 0.59275 0.0818 0.49495 0.0
C2569 C 0.6334 0.09519 0.49346 0.0
C2570 C 0.6407 0.15929 0.50843 0.0
H2571 H 0.73754 0.22226 0.46077 0.0
H2572 H 0.70377 0.19553 0.45732 0.0
H2573 H 0.65408 0.19297 0.52004 0.0
H2574 H 0.5675 0.1106 0.49611 0.0
H2575 H 0.59617 0.14235 0.49511 0.0
H2576 H 0.66721 0.12257 0.46801 0.0
C2577 C 0.70829 0.20259 0.47487 0.0
C2578 C 0.65722 0.1777 0.50862 0.0
C2579 C 0.72733 0.21823 0.4767 0.0
C2580 C 0.58581 0.10582 0.49537 0.0
C2581 C 0.60233 0.12417 0.49496 0.0
C2582 C 0.66416 0.13777 0.47955 0.0
C2583 C 0.69586 0.19541 0.4956 0.0
C2584 C 0.67749 0.17643 0.49432 0.0
C2585 C 0.62639 0.11919 0.49407 0.0
C2586 C 0.64397 0.13896 0.494 0.0
H2587 H 0.7269 0.22691 0.53736 0.0
H2588 H 0.69336 0.20015 0.53436 0.0
H2589 H 0.69614 0.15441 0.46864 0.0
H2590 H 0.62294 0.05857 0.49367 0.0
H2591 H 0.65175 0.0906 0.49304 0.0
C2592 C 0.80682 0.71539 0.5193 0.0
C2593 C 0.80425 0.72864 0.49798 0.0
C2594 C 0.82355 0.69714 0.52083 0.0
C2595 C 0.87864 0.67617 0.49164 0.0
H2596 H 0.8664 0.61779 0.52643 0.0
C2597 C 0.95149 0.60617 0.50815 0.0
C2598 C 0.94547 0.58199 0.50615 0.0
C2599 C 0.93423 0.6239 0.50806 0.0
C2600 C 0.87012 0.63391 0.5165 0.0
H2601 H 0.81671 0.7328 0.46145 0.0
H2602 H 0.84567 0.70104 0.46388 0.0
H2603 H 0.83619 0.64831 0.52405 0.0
H2604 H 0.91611 0.5578 0.50268 0.0
H2605 H 0.88626 0.58858 0.50233 0.0
H2606 H 0.91235 0.66166 0.48365 0.0
C2607 C 0.83516 0.70485 0.47964 0.0
C2608 C 0.85282 0.65159 0.51537 0.0
C2609 C 0.81847 0.72299 0.47815 0.0
C2610 C 0.92159 0.57614 0.50432 0.0
C2611 C 0.90435 0.59387 0.50426 0.0
C2612 C 0.89594 0.65855 0.49282 0.0
C2613 C 0.83819 0.69177 0.50108 0.0
C2614 C 0.85675 0.67296 0.50279 0.0
C2615 C 0.91038 0.61806 0.50599 0.0
C2616 C 0.89195 0.63708 0.50519 0.0
H2617 H 0.79639 0.71963 0.53499 0.0
H2618 H 0.82546 0.68772 0.53773 0.0
H2619 H 0.88256 0.69246 0.48208 0.0
H2620 H 0.9696 0.61151 0.50966 0.0
H2621 H 0.93964 0.64225 0.50979 0.0
C2622 C 0.30404 0.79916 0.47494 0.0
C2623 C 0.29722 0.78654 0.49559 0.0
C2624 C 0.32219 0.81576 0.47597 0.0
C2625 C 0.37302 0.83532 0.51289 0.0
H2626 H 0.36581 0.89349 0.47622 0.0
C2627 C 0.44836 0.90379 0.50141 0.0
C2628 C 0.44251 0.92809 0.50155 0.0
C2629 C 0.43091 0.8863 0.5013 0.0
C2630 C 0.36809 0.87746 0.48675 0.0
H2631 H 0.30381 0.78157 0.53365 0.0
H2632 H 0.33571 0.81057 0.53563 0.0
H2633 H 0.3351 0.86368 0.47527 0.0
H2634 H 0.4134 0.9528 0.50213 0.0
H2635 H 0.3832 0.92245 0.50218 0.0
H2636 H 0.40586 0.84942 0.52475 0.0
C2637 C 0.32731 0.80735 0.51844 0.0
C2638 C 0.35054 0.86016 0.48596 0.0
C2639 C 0.30909 0.79069 0.51736 0.0
C2640 C 0.4187 0.93434 0.50181 0.0
C2641 C 0.40129 0.91687 0.50172 0.0
C2642 C 0.39062 0.85266 0.51368 0.0
C2643 C 0.33398 0.8203 0.49779 0.0
C2644 C 0.35275 0.83879 0.49895 0.0
C2645 C 0.40711 0.89258 0.50133 0.0
C2646 C 0.3884 0.874 0.50061 0.0
H2647 H 0.29517 0.79618 0.45795 0.0
H2648 H 0.32704 0.825 0.45959 0.0
H2649 H 0.37546 0.81904 0.52299 0.0
H2650 H 0.46645 0.8982 0.50118 0.0
H2651 H 0.43611 0.86782 0.50073 0.0
C2652 C 0.24279 0.31067 0.50778 0.0
C2653 C 0.24201 0.29046 0.49303 0.0
C2654 C 0.22683 0.32926 0.50433 0.0
C2655 C 0.16679 0.33739 0.48437 0.0
H2656 H 0.18011 0.40476 0.48736 0.0
C2657 C 0.09276 0.4078 0.47838 0.0
C2658 C 0.09553 0.42892 0.49155 0.0
C2659 C 0.11118 0.39143 0.47656 0.0
C2660 C 0.17596 0.38602 0.48686 0.0
H2661 H 0.22486 0.27403 0.46265 0.0
H2662 H 0.19689 0.30647 0.45646 0.0
H2663 H 0.21224 0.37631 0.48714 0.0
H2664 H 0.11959 0.44895 0.51391 0.0
H2665 H 0.15107 0.42026 0.51165 0.0
H2666 H 0.13061 0.34676 0.4852 0.0
C2667 C 0.20983 0.30808 0.47062 0.0
C2668 C 0.19446 0.36973 0.48655 0.0
C2669 C 0.22599 0.28972 0.47388 0.0
C2670 C 0.11693 0.43303 0.50329 0.0
C2671 C 0.13515 0.41657 0.50182 0.0
C2672 C 0.14827 0.35363 0.48509 0.0
C2673 C 0.20956 0.32769 0.48632 0.0
C2674 C 0.19009 0.34523 0.48535 0.0
C2675 C 0.13273 0.39561 0.48821 0.0
C2676 C 0.15253 0.37823 0.4865 0.0
H2677 H 0.25469 0.31127 0.52295 0.0
H2678 H 0.22699 0.34407 0.51679 0.0
H2679 H 0.16283 0.31859 0.48383 0.0
H2680 H 0.07655 0.40417 0.46898 0.0
H2681 H 0.10861 0.37572 0.46564 0.0
C2682 C 0.30416 0.20998 0.524 0.0
C2683 C 0.29705 0.22219 0.50319 0.0
C2684 C 0.32249 0.19358 0.52311 0.0
C2685 C 0.37317 0.17371 0.48614 0.0
H2686 H 0.36627 0.11597 0.52357 0.0
C2687 C 0.44862 0.10533 0.49794 0.0
C2688 C 0.44274 0.08103 0.49809 0.0
C2689 C 0.43118 0.12285 0.49796 0.0
C2690 C 0.36847 0.13188 0.51283 0.0
H2691 H 0.30339 0.22671 0.46503 0.0
H2692 H 0.33561 0.19805 0.4633 0.0
H2693 H 0.33553 0.14575 0.52436 0.0
H2694 H 0.41358 0.05637 0.49794 0.0
H2695 H 0.38343 0.08674 0.49775 0.0
H2696 H 0.40597 0.15951 0.47424 0.0
C2697 C 0.32727 0.20143 0.48049 0.0
C2698 C 0.35091 0.14917 0.51353 0.0
C2699 C 0.30887 0.2179 0.48143 0.0
C2700 C 0.41892 0.07482 0.49803 0.0
C2701 C 0.40153 0.09231 0.49804 0.0
C2702 C 0.39079 0.15639 0.48546 0.0
C2703 C 0.33417 0.18883 0.50128 0.0
C2704 C 0.353 0.17038 0.50026 0.0
C2705 C 0.40737 0.11659 0.49814 0.0
C2706 C 0.38868 0.1352 0.49879 0.0
H2707 H 0.29534 0.21307 0.54099 0.0
H2708 H 0.32751 0.18462 0.53959 0.0
H2709 H 0.37552 0.18986 0.47582 0.0
H2710 H 0.46672 0.1109 0.498 0.0
H2711 H 0.43641 0.14132 0.4983 0.0
C2712 C 0.80689 0.29406 0.48065 0.0
C2713 C 0.80463 0.28051 0.50181 0.0
C2714 C 0.82324 0.31268 0.4793 0.0
C2715 C 0.87801 0.33434 0.50859 0.0
H2716 H 0.86489 0.39277 0.47423 0.0
C2717 C 0.95019 0.40467 0.49139 0.0
C2718 C 0.94422 0.42886 0.49348 0.0
C2719 C 0.93295 0.38695 0.49172 0.0
C2720 C 0.86884 0.37665 0.48405 0.0
H2721 H 0.81721 0.27624 0.53829 0.0
H2722 H 0.84552 0.30862 0.53618 0.0
H2723 H 0.83506 0.36183 0.47657 0.0
H2724 H 0.91497 0.45308 0.49735 0.0
H2725 H 0.88506 0.42224 0.49809 0.0
H2726 H 0.91157 0.34922 0.51648 0.0
C2727 C 0.83507 0.30476 0.52038 0.0
C2728 C 0.85177 0.35872 0.48516 0.0
C2729 C 0.81875 0.28625 0.52169 0.0
C2730 C 0.92038 0.43473 0.49564 0.0
C2731 C 0.90312 0.41697 0.49593 0.0
C2732 C 0.89507 0.35219 0.50743 0.0
C2733 C 0.8378 0.31814 0.49909 0.0
C2734 C 0.85605 0.3373 0.49753 0.0
C2735 C 0.90913 0.39277 0.49414 0.0
C2736 C 0.89079 0.37366 0.49517 0.0
H2737 H 0.79651 0.28978 0.46493 0.0
H2738 H 0.82494 0.32233 0.4625 0.0
H2739 H 0.8822 0.31804 0.51801 0.0
H2740 H 0.96826 0.39929 0.48961 0.0
H2741 H 0.93835 0.36861 0.48989 0.0
C2742 C 0.22815 0.71738 0.52474 0.0
C2743 C 0.24379 0.71695 0.50526 0.0
C2744 C 0.21213 0.6989 0.52807 0.0
C2745 C 0.19647 0.63751 0.51181 0.0
H2746 H 0.13273 0.66075 0.51327 0.0
C2747 C 0.11845 0.57461 0.49529 0.0
C2748 C 0.09706 0.57903 0.5069 0.0
C2749 C 0.13685 0.59087 0.49678 0.0
C2750 C 0.15035 0.65379 0.51337 0.0
H2751 H 0.25603 0.69657 0.47485 0.0
H2752 H 0.22861 0.66354 0.48116 0.0
H2753 H 0.16505 0.68877 0.51469 0.0
H2754 H 0.07831 0.60404 0.52936 0.0
H2755 H 0.11065 0.63208 0.5328 0.0
H2756 H 0.18197 0.60253 0.51097 0.0
C2757 C 0.22864 0.6782 0.4938 0.0
C2758 C 0.16892 0.66995 0.51411 0.0
C2759 C 0.24444 0.69691 0.49027 0.0
C2760 C 0.0945 0.60019 0.52004 0.0
C2761 C 0.11309 0.61633 0.52191 0.0
C2762 C 0.17789 0.62129 0.5115 0.0
C2763 C 0.21167 0.67949 0.51213 0.0
C2764 C 0.19218 0.66201 0.51309 0.0
C2765 C 0.1346 0.61191 0.5103 0.0
C2766 C 0.1545 0.62918 0.51193 0.0
H2767 H 0.22713 0.73295 0.53615 0.0
H2768 H 0.19941 0.70029 0.54246 0.0
H2769 H 0.21421 0.63088 0.51116 0.0
H2770 H 0.12094 0.55862 0.48473 0.0
H2771 H 0.15275 0.58698 0.487 0.0
loop_
_geom_bond_atom_site_label_1
_geom_bond_atom_site_label_2
_geom_bond_distance
_geom_bond_site_symmetry_2
_ccdc_geom_bond_type
C0 N1 1.317 . S
C0 N2 1.348 . S
C0 C3 1.485 . S
N1 C0 1.317 . S
N1 N5 1.370 . S
N2 C0 1.348 . S
N2 C4 1.346 . S
C3 C0 1.485 . S
C3 H7 0.960 . S
C3 H8 0.961 . S
C3 H9 0.960 . S
C4 N2 1.346 . S
C4 N5 1.307 . S
C4 C6 1.486 . S
N5 N1 1.370 . S
N5 C4 1.307 . S
C6 C4 1.486 . S
C6 H10 0.960 . S
C6 H11 0.960 . S
C6 H12 0.959 . S
H7 C3 0.960 . S
H8 C3 0.961 . S
H9 C3 0.960 . S
H10 C6 0.960 . S
H11 C6 0.960 . S
H12 C6 0.959 . S
C13 N14 1.317 . S
C13 N15 1.348 . S
C13 C16 1.485 . S
N14 C13 1.317 . S
N14 N18 1.370 . S
N15 C13 1.348 . S
N15 C17 1.346 . S
C16 C13 1.485 . S
C16 H20 0.960 1_545 S
C16 H21 0.961 . S
C16 H22 0.960 . S
C17 N15 1.346 . S
C17 N18 1.307 . S
C17 C19 1.486 . S
N18 N14 1.370 . S
N18 C17 1.307 . S
C19 C17 1.486 . S
C19 H23 0.960 . S
C19 H24 0.960 1_545 S
C19 H25 0.959 1_545 S
H20 C16 0.960 1_565 S
H21 C16 0.961 . S
H22 C16 0.960 . S
H23 C19 0.960 . S
H24 C19 0.960 1_565 S
H25 C19 0.959 1_565 S
C26 N27 1.317 . S
C26 N28 1.348 . S
C26 C29 1.485 . S
N27 C26 1.317 . S
N27 N31 1.370 . S
N28 C26 1.348 . S
N28 C30 1.346 . S
C29 C26 1.485 . S
C29 H33 0.960 . S
C29 H34 0.961 . S
C29 H35 0.960 . S
C30 N28 1.346 . S
C30 N31 1.307 . S
C30 C32 1.486 . S
N31 N27 1.370 . S
N31 C30 1.307 . S
C32 C30 1.486 . S
C32 H36 0.960 . S
C32 H37 0.960 . S
C32 H38 0.959 . S
H33 C29 0.960 . S
H34 C29 0.961 . S
H35 C29 0.960 . S
H36 C32 0.960 . S
H37 C32 0.960 . S
H38 C32 0.959 . S
C39 N40 1.317 . S
C39 N41 1.350 . S
C39 C42 1.483 1_545 S
N40 C39 1.317 . S
N40 N44 1.373 . S
N41 C39 1.350 . S
N41 C43 1.346 . S
C42 C39 1.483 1_565 S
C42 H46 0.930 1_565 S
C42 H47 0.981 . S
C42 H48 0.973 . S
C43 N41 1.346 . S
C43 N44 1.307 . S
C43 C45 1.486 . S
N44 N40 1.373 . S
N44 C43 1.307 . S
C45 C43 1.486 . S
C45 H49 0.960 1_545 S
C45 H50 0.960 . S
C45 H51 0.959 . S
H46 C42 0.930 1_545 S
H47 C42 0.981 . S
H48 C42 0.973 . S
H49 C45 0.960 1_565 S
H50 C45 0.960 . S
H51 C45 0.959 . S
C52 N53 1.317 . S
C52 N54 1.348 . S
C52 C55 1.485 . S
N53 C52 1.317 . S
N53 N57 1.370 . S
N54 C52 1.348 . S
N54 C56 1.346 . S
C55 C52 1.485 . S
C55 H59 0.960 . S
C55 H60 0.961 . S
C55 H61 0.960 . S
C56 N54 1.346 . S
C56 N57 1.307 . S
C56 C58 1.486 . S
N57 N53 1.370 . S
N57 C56 1.307 . S
C58 C56 1.486 . S
C58 H62 0.960 . S
C58 H63 0.960 . S
C58 H64 0.959 . S
H59 C55 0.960 . S
H60 C55 0.961 . S
H61 C55 0.960 . S
H62 C58 0.960 . S
H63 C58 0.960 . S
H64 C58 0.959 . S
C65 N66 1.317 . S
C65 N67 1.350 . S
C65 C68 1.485 . S
N66 C65 1.317 . S
N66 N70 1.371 . S
N67 C65 1.350 . S
N67 C69 1.345 1_545 S
C68 C65 1.485 . S
C68 H72 0.960 1_545 S
C68 H73 0.961 . S
C68 H74 0.960 . S
C69 N67 1.345 1_565 S
C69 N70 1.307 1_565 S
C69 C71 1.485 . S
N70 N66 1.371 . S
N70 C69 1.307 1_545 S
C71 C69 1.485 . S
C71 H75 0.923 1_565 S
C71 H76 0.991 . S
C71 H77 0.967 . S
H72 C68 0.960 1_565 S
H73 C68 0.961 . S
H74 C68 0.960 . S
H75 C71 0.923 1_545 S
H76 C71 0.991 . S
H77 C71 0.967 . S
C78 N79 1.317 . S
C78 N80 1.348 . S
C78 C81 1.485 . S
N79 C78 1.317 . S
N79 N83 1.370 . S
N80 C78 1.348 . S
N80 C82 1.346 . S
C81 C78 1.485 . S
C81 H85 0.960 . S
C81 H86 0.961 . S
C81 H87 0.960 . S
C82 N80 1.346 . S
C82 N83 1.307 . S
C82 C84 1.486 . S
N83 N79 1.370 . S
N83 C82 1.307 . S
C84 C82 1.486 . S
C84 H88 0.960 . S
C84 H89 0.960 . S
C84 H90 0.959 . S
H85 C81 0.960 . S
H86 C81 0.961 . S
H87 C81 0.960 . S
H88 C84 0.960 . S
H89 C84 0.960 . S
H90 C84 0.959 . S
C91 N92 1.317 . S
C91 N93 1.350 . S
C91 C94 1.485 . S
N92 C91 1.317 . S
N92 N96 1.370 . S
N93 C91 1.350 . S
N93 C95 1.345 1_565 S
C94 C91 1.485 . S
C94 H98 0.960 1_565 S
C94 H99 0.961 . S
C94 H100 0.960 . S
C95 N93 1.345 1_545 S
C95 N96 1.307 1_545 S
C95 C97 1.486 . S
N96 N92 1.370 . S
N96 C95 1.307 1_565 S
C97 C95 1.486 . S
C97 H101 0.960 1_545 S
C97 H102 0.960 . S
C97 H103 0.959 . S
H98 C94 0.960 1_545 S
H99 C94 0.961 . S
H100 C94 0.960 . S
H101 C97 0.960 1_565 S
H102 C97 0.960 . S
H103 C97 0.959 . S
C104 N105 1.317 . S
C104 N106 1.350 . S
C104 C107 1.485 . S
N105 C104 1.317 . S
N105 N109 1.371 . S
N106 C104 1.350 . S
N106 C108 1.345 1_554 S
C107 C104 1.485 . S
C107 H111 0.960 1_554 S
C107 H112 0.961 . S
C107 H113 0.960 . S
C108 N106 1.345 1_556 S
C108 N109 1.307 1_556 S
C108 C110 1.485 . S
N109 N105 1.371 . S
N109 C108 1.307 1_554 S
C110 C108 1.485 . S
C110 H114 0.923 1_556 S
C110 H115 0.991 . S
C110 H116 0.967 . S
H111 C107 0.960 1_556 S
H112 C107 0.961 . S
H113 C107 0.960 . S
H114 C110 0.923 1_554 S
H115 C110 0.991 . S
H116 C110 0.967 . S
C117 N118 1.317 . S
C117 N119 1.349 . S
C117 C120 1.483 1_554 S
N118 C117 1.317 . S
N118 N122 1.373 . S
N119 C117 1.349 . S
N119 C121 1.346 . S
C120 C117 1.483 1_556 S
C120 H124 0.927 1_556 S
C120 H125 0.983 . S
C120 H126 0.975 . S
C121 N119 1.346 . S
C121 N122 1.307 . S
C121 C123 1.486 . S
N122 N118 1.373 . S
N122 C121 1.307 . S
C123 C121 1.486 . S
C123 H127 0.960 1_554 S
C123 H128 0.960 . S
C123 H129 0.959 . S
H124 C120 0.927 1_554 S
H125 C120 0.983 . S
H126 C120 0.975 . S
H127 C123 0.960 1_556 S
H128 C123 0.960 . S
H129 C123 0.959 . S
C130 N131 1.317 . S
C130 N132 1.350 . S
C130 C133 1.485 . S
N131 C130 1.317 . S
N131 N135 1.370 . S
N132 C130 1.350 . S
N132 C134 1.345 1_556 S
C133 C130 1.485 . S
C133 H137 0.960 1_556 S
C133 H138 0.961 . S
C133 H139 0.960 . S
C134 N132 1.345 1_554 S
C134 N135 1.307 1_554 S
C134 C136 1.486 . S
N135 N131 1.370 . S
N135 C134 1.307 1_556 S
C136 C134 1.486 . S
C136 H140 0.960 1_554 S
C136 H141 0.960 . S
C136 H142 0.959 . S
H137 C133 0.960 1_554 S
H138 C133 0.961 . S
H139 C133 0.960 . S
H140 C136 0.960 1_556 S
H141 C136 0.960 . S
H142 C136 0.959 . S
C143 N144 1.317 . S
C143 N145 1.348 . S
C143 C146 1.485 . S
N144 C143 1.317 . S
N144 N148 1.370 . S
N145 C143 1.348 . S
N145 C147 1.346 . S
C146 C143 1.485 . S
C146 H150 0.960 1_554 S
C146 H151 0.961 . S
C146 H152 0.960 . S
C147 N145 1.346 . S
C147 N148 1.307 . S
C147 C149 1.486 . S
N148 N144 1.370 . S
N148 C147 1.307 . S
C149 C147 1.486 . S
C149 H153 0.960 . S
C149 H154 0.960 1_554 S
C149 H155 0.959 1_554 S
H150 C146 0.960 1_556 S
H151 C146 0.961 . S
H152 C146 0.960 . S
H153 C149 0.960 . S
H154 C149 0.960 1_556 S
H155 C149 0.959 1_556 S
C156 N157 1.317 . S
C156 N158 1.348 . S
C156 C159 1.485 . S
N157 C156 1.317 . S
N157 N161 1.370 . S
N158 C156 1.348 . S
N158 C160 1.346 . S
C159 C156 1.485 . S
C159 H163 0.960 . S
C159 H164 0.961 . S
C159 H165 0.960 . S
C160 N158 1.346 . S
C160 N161 1.307 . S
C160 C162 1.486 . S
N161 N157 1.370 . S
N161 C160 1.307 . S
C162 C160 1.486 . S
C162 H166 0.960 . S
C162 H167 0.960 . S
C162 H168 0.959 . S
H163 C159 0.960 . S
H164 C159 0.961 . S
H165 C159 0.960 . S
H166 C162 0.960 . S
H167 C162 0.960 . S
H168 C162 0.959 . S
C169 N170 1.317 . S
C169 N171 1.348 . S
C169 C172 1.485 . S
N170 C169 1.317 . S
N170 N174 1.370 . S
N171 C169 1.348 . S
N171 C173 1.346 . S
C172 C169 1.485 . S
C172 H176 0.960 . S
C172 H177 0.961 . S
C172 H178 0.960 . S
C173 N171 1.346 . S
C173 N174 1.307 . S
C173 C175 1.486 . S
N174 N170 1.370 . S
N174 C173 1.307 . S
C175 C173 1.486 . S
C175 H179 0.960 . S
C175 H180 0.960 . S
C175 H181 0.959 . S
H176 C172 0.960 . S
H177 C172 0.961 . S
H178 C172 0.960 . S
H179 C175 0.960 . S
H180 C175 0.960 . S
H181 C175 0.959 . S
C182 N183 1.317 . S
C182 N184 1.348 . S
C182 C185 1.485 . S
N183 C182 1.317 . S
N183 N187 1.370 . S
N184 C182 1.348 . S
N184 C186 1.346 . S
C185 C182 1.485 . S
C185 H189 0.960 . S
C185 H190 0.961 . S
C185 H191 0.960 . S
C186 N184 1.346 . S
C186 N187 1.307 . S
C186 C188 1.486 . S
N187 N183 1.370 . S
N187 C186 1.307 . S
C188 C186 1.486 . S
C188 H192 0.960 . S
C188 H193 0.960 . S
C188 H194 0.959 . S
H189 C185 0.960 . S
H190 C185 0.961 . S
H191 C185 0.960 . S
H192 C188 0.960 . S
H193 C188 0.960 . S
H194 C188 0.959 . S
C195 N196 1.317 . S
C195 N197 1.348 . S
C195 C198 1.485 . S
N196 C195 1.317 . S
N196 N200 1.370 . S
N197 C195 1.348 . S
N197 C199 1.346 . S
C198 C195 1.485 . S
C198 H202 0.960 . S
C198 H203 0.961 . S
C198 H204 0.960 . S
C199 N197 1.346 . S
C199 N200 1.307 . S
C199 C201 1.486 . S
N200 N196 1.370 . S
N200 C199 1.307 . S
C201 C199 1.486 . S
C201 H205 0.960 . S
C201 H206 0.960 . S
C201 H207 0.959 . S
H202 C198 0.960 . S
H203 C198 0.961 . S
H204 C198 0.960 . S
H205 C201 0.960 . S
H206 C201 0.960 . S
H207 C201 0.959 . S
C208 N209 1.317 . S
C208 N210 1.348 . S
C208 C211 1.485 . S
N209 C208 1.317 . S
N209 N213 1.370 . S
N210 C208 1.348 . S
N210 C212 1.346 . S
C211 C208 1.485 . S
C211 H215 0.960 . S
C211 H216 0.961 . S
C211 H217 0.960 . S
C212 N210 1.346 . S
C212 N213 1.307 . S
C212 C214 1.486 . S
N213 N209 1.370 . S
N213 C212 1.307 . S
C214 C212 1.486 . S
C214 H218 0.960 . S
C214 H219 0.960 . S
C214 H220 0.959 . S
H215 C211 0.960 . S
H216 C211 0.961 . S
H217 C211 0.960 . S
H218 C214 0.960 . S
H219 C214 0.960 . S
H220 C214 0.959 . S
C221 N222 1.317 . S
C221 N223 1.348 . S
C221 C224 1.485 . S
N222 C221 1.317 . S
N222 N226 1.370 . S
N223 C221 1.348 . S
N223 C225 1.346 . S
C224 C221 1.485 . S
C224 H228 0.960 . S
C224 H229 0.961 . S
C224 H230 0.960 . S
C225 N223 1.346 . S
C225 N226 1.307 . S
C225 C227 1.486 . S
N226 N222 1.370 . S
N226 C225 1.307 . S
C227 C225 1.486 . S
C227 H231 0.960 . S
C227 H232 0.960 . S
C227 H233 0.959 . S
H228 C224 0.960 . S
H229 C224 0.961 . S
H230 C224 0.960 . S
H231 C227 0.960 . S
H232 C227 0.960 . S
H233 C227 0.959 . S
C234 N235 1.317 . S
C234 N236 1.348 . S
C234 C237 1.485 . S
N235 C234 1.317 . S
N235 N239 1.370 . S
N236 C234 1.348 . S
N236 C238 1.346 . S
C237 C234 1.485 . S
C237 H241 0.960 . S
C237 H242 0.961 . S
C237 H243 0.960 . S
C238 N236 1.346 . S
C238 N239 1.307 . S
C238 C240 1.486 . S
N239 N235 1.370 . S
N239 C238 1.307 . S
C240 C238 1.486 . S
C240 H244 0.960 . S
C240 H245 0.960 . S
C240 H246 0.959 . S
H241 C237 0.960 . S
H242 C237 0.961 . S
H243 C237 0.960 . S
H244 C240 0.960 . S
H245 C240 0.960 . S
H246 C240 0.959 . S
C247 N248 1.317 . S
C247 N249 1.348 . S
C247 C250 1.485 . S
N248 C247 1.317 . S
N248 N252 1.370 . S
N249 C247 1.348 . S
N249 C251 1.346 . S
C250 C247 1.485 . S
C250 H254 0.960 . S
C250 H255 0.961 . S
C250 H256 0.960 . S
C251 N249 1.346 . S
C251 N252 1.307 . S
C251 C253 1.486 . S
N252 N248 1.370 . S
N252 C251 1.307 . S
C253 C251 1.486 . S
C253 H257 0.960 . S
C253 H258 0.960 . S
C253 H259 0.959 . S
H254 C250 0.960 . S
H255 C250 0.961 . S
H256 C250 0.960 . S
H257 C253 0.960 . S
H258 C253 0.960 . S
H259 C253 0.959 . S
C260 N261 1.317 . S
C260 N262 1.348 . S
C260 C263 1.485 . S
N261 C260 1.317 . S
N261 N265 1.370 . S
N262 C260 1.348 . S
N262 C264 1.346 . S
C263 C260 1.485 . S
C263 H267 0.960 . S
C263 H268 0.961 . S
C263 H269 0.960 . S
C264 N262 1.346 . S
C264 N265 1.307 . S
C264 C266 1.486 . S
N265 N261 1.370 . S
N265 C264 1.307 . S
C266 C264 1.486 . S
C266 H270 0.960 . S
C266 H271 0.960 . S
C266 H272 0.959 . S
H267 C263 0.960 . S
H268 C263 0.961 . S
H269 C263 0.960 . S
H270 C266 0.960 . S
H271 C266 0.960 . S
H272 C266 0.959 . S
C273 N274 1.317 . S
C273 N275 1.348 . S
C273 C276 1.485 . S
N274 C273 1.317 . S
N274 N278 1.370 . S
N275 C273 1.348 . S
N275 C277 1.346 . S
C276 C273 1.485 . S
C276 H280 0.960 . S
C276 H281 0.961 . S
C276 H282 0.960 . S
C277 N275 1.346 . S
C277 N278 1.307 . S
C277 C279 1.486 . S
N278 N274 1.370 . S
N278 C277 1.307 . S
C279 C277 1.486 . S
C279 H283 0.960 . S
C279 H284 0.960 . S
C279 H285 0.959 . S
H280 C276 0.960 . S
H281 C276 0.961 . S
H282 C276 0.960 . S
H283 C279 0.960 . S
H284 C279 0.960 . S
H285 C279 0.959 . S
C286 N287 1.317 . S
C286 N288 1.348 . S
C286 C289 1.485 . S
N287 C286 1.317 . S
N287 N291 1.370 . S
N288 C286 1.348 . S
N288 C290 1.346 . S
C289 C286 1.485 . S
C289 H293 0.960 . S
C289 H294 0.961 . S
C289 H295 0.960 . S
C290 N288 1.346 . S
C290 N291 1.307 . S
C290 C292 1.486 . S
N291 N287 1.370 . S
N291 C290 1.307 . S
C292 C290 1.486 . S
C292 H296 0.960 . S
C292 H297 0.960 . S
C292 H298 0.959 . S
H293 C289 0.960 . S
H294 C289 0.961 . S
H295 C289 0.960 . S
H296 C292 0.960 . S
H297 C292 0.960 . S
H298 C292 0.959 . S
C299 N300 1.317 . S
C299 N301 1.348 . S
C299 C302 1.485 . S
N300 C299 1.317 . S
N300 N304 1.370 . S
N301 C299 1.348 . S
N301 C303 1.346 . S
C302 C299 1.485 . S
C302 H306 0.960 . S
C302 H307 0.961 . S
C302 H308 0.960 . S
C303 N301 1.346 . S
C303 N304 1.307 . S
C303 C305 1.486 . S
N304 N300 1.370 . S
N304 C303 1.307 . S
C305 C303 1.486 . S
C305 H309 0.960 . S
C305 H310 0.960 . S
C305 H311 0.959 . S
H306 C302 0.960 . S
H307 C302 0.961 . S
H308 C302 0.960 . S
H309 C305 0.960 . S
H310 C305 0.960 . S
H311 C305 0.959 . S
C312 O338 1.283 . S
C312 O356 1.283 . S
C313 O339 1.283 . S
C313 O354 1.283 . S
C314 O340 1.283 . S
C314 O357 1.283 . S
C315 O341 1.283 . S
C315 O355 1.283 . S
C316 O342 1.283 . S
C316 O351 1.283 . S
C317 O343 1.283 . S
C317 O353 1.283 . S
C318 O344 1.283 . S
C318 O350 1.283 . S
C319 O345 1.283 . S
C319 O352 1.283 . S
C320 O346 1.283 . S
C320 O361 1.283 . S
C321 O347 1.283 . S
C321 O359 1.283 . S
C322 O348 1.283 . S
C322 O360 1.284 . S
C323 O349 1.283 . S
C323 O358 1.283 . S
Eu324 O325 2.370 . S
Eu324 O326 2.370 . S
Eu324 O329 2.370 . S
Eu324 O330 2.370 . S
Eu324 O338 2.363 . S
Eu324 O339 2.363 . S
Eu324 O352 2.363 . S
Eu324 O353 2.363 1_455 S
O325 Eu324 2.370 . S
O325 Eu327 2.370 1_465 S
O325 Eu332 2.370 1_565 S
O326 Eu324 2.370 . S
O326 Eu328 2.370 1_565 S
O326 Eu331 2.344 1_565 S
Eu327 O325 2.370 1_645 S
Eu327 O329 2.370 1_645 S
Eu327 O333 2.370 1_655 S
Eu327 O334 2.370 1_655 S
Eu327 O342 2.363 . S
Eu327 O343 2.363 1_545 S
Eu327 O358 2.364 . S
Eu327 O359 2.363 . S
Eu328 O326 2.370 1_545 S
Eu328 O330 2.370 1_545 S
Eu328 O335 2.370 . S
Eu328 O336 2.370 . S
Eu328 O344 2.363 . S
Eu328 O345 2.363 1_545 S
Eu328 O360 2.363 . S
Eu328 O361 2.363 . S
O329 Eu324 2.370 . S
O329 Eu327 2.370 1_465 S
O329 Eu331 2.344 1_565 S
O330 Eu324 2.370 . S
O330 Eu328 2.370 1_565 S
O330 Eu332 2.370 1_565 S
Eu331 O326 2.344 1_545 S
Eu331 O329 2.344 1_545 S
Eu331 O333 2.397 . S
Eu331 O336 2.397 . S
Eu331 O348 2.363 . S
Eu331 O349 2.363 1_455 S
Eu331 O356 2.318 1_545 S
Eu331 O357 2.408 . S
Eu332 O325 2.370 1_545 S
Eu332 O330 2.370 1_545 S
Eu332 O334 2.370 . S
Eu332 O335 2.370 . S
Eu332 O346 2.363 . S
Eu332 O347 2.363 1_455 S
Eu332 O354 2.363 1_545 S
Eu332 O355 2.363 . S
O333 Eu327 2.370 1_455 S
O333 Eu331 2.397 . S
O333 Eu337 2.370 . S
O334 Eu327 2.370 1_455 S
O334 Eu332 2.370 . S
O334 Eu337 2.370 . S
O335 Eu328 2.370 . S
O335 Eu332 2.370 . S
O335 Eu337 2.370 . S
O336 Eu328 2.370 . S
O336 Eu331 2.397 . S
O336 Eu337 2.370 . S
Eu337 O333 2.370 . S
Eu337 O334 2.370 . S
Eu337 O335 2.370 . S
Eu337 O336 2.370 . S
Eu337 O340 2.363 . S
Eu337 O341 2.363 . S
Eu337 O350 2.363 . S
Eu337 O351 2.363 1_455 S
O338 C312 1.283 . S
O338 Eu324 2.363 . S
O339 C313 1.283 . S
O339 Eu324 2.363 . S
O340 C314 1.283 . S
O340 Eu337 2.363 . S
O341 C315 1.283 . S
O341 Eu337 2.363 . S
O342 C316 1.283 . S
O342 Eu327 2.363 . S
O343 C317 1.283 . S
O343 Eu327 2.363 1_565 S
O344 C318 1.283 . S
O344 Eu328 2.363 . S
O345 C319 1.283 . S
O345 Eu328 2.363 1_565 S
O346 C320 1.283 . S
O346 Eu332 2.363 . S
O347 C321 1.283 . S
O347 Eu332 2.363 1_655 S
O348 C322 1.283 . S
O348 Eu331 2.363 . S
O349 C323 1.283 . S
O349 Eu331 2.363 1_655 S
O350 C318 1.283 . S
O350 Eu337 2.363 . S
O351 C316 1.283 . S
O351 Eu337 2.363 1_655 S
O352 C319 1.283 . S
O352 Eu324 2.363 . S
O353 C317 1.283 . S
O353 Eu324 2.363 1_655 S
O354 C313 1.283 . S
O354 Eu332 2.363 1_565 S
O355 C315 1.283 . S
O355 Eu332 2.363 . S
O356 C312 1.283 . S
O356 Eu331 2.318 1_565 S
O357 C314 1.283 . S
O357 Eu331 2.408 . S
O358 C323 1.283 . S
O358 Eu327 2.364 . S
O359 C321 1.283 . S
O359 Eu327 2.363 . S
O360 C322 1.284 . S
O360 Eu328 2.363 . S
O361 C320 1.283 . S
O361 Eu328 2.363 . S
C362 O388 1.283 . S
C362 O406 1.283 . S
C363 O389 1.283 . S
C363 O404 1.283 . S
C364 O390 1.283 . S
C364 O407 1.283 . S
C365 O391 1.283 . S
C365 O405 1.283 . S
C366 O392 1.283 . S
C366 O401 1.283 . S
C367 O393 1.283 . S
C367 O403 1.283 . S
C368 O394 1.283 . S
C368 O400 1.283 . S
C369 O395 1.283 . S
C369 O402 1.283 . S
C370 O396 1.283 . S
C370 O411 1.283 . S
C371 O397 1.283 . S
C371 O409 1.283 . S
C372 O398 1.283 . S
C372 O410 1.283 . S
C373 O399 1.283 . S
C373 O408 1.283 . S
Eu374 O375 2.370 . S
Eu374 O376 2.370 1_545 S
Eu374 O379 2.370 1_545 S
Eu374 O380 2.370 . S
Eu374 O388 2.363 1_545 S
Eu374 O389 2.363 . S
Eu374 O402 2.363 . S
Eu374 O403 2.363 . S
O375 Eu374 2.370 . S
O375 Eu377 2.370 . S
O375 Eu382 2.387 . S
O376 Eu374 2.370 1_565 S
O376 Eu378 2.370 1_565 S
O376 Eu381 2.370 . S
Eu377 O375 2.370 . S
Eu377 O379 2.370 1_545 S
Eu377 O383 2.370 1_544 S
Eu377 O384 2.370 1_554 S
Eu377 O392 2.364 1_554 S
Eu377 O393 2.363 . S
Eu377 O408 2.363 1_545 S
Eu377 O409 2.364 . S
Eu378 O376 2.370 1_545 S
Eu378 O380 2.370 . S
Eu378 O385 2.370 1_554 S
Eu378 O386 2.370 1_544 S
Eu378 O394 2.364 1_554 S
Eu378 O395 2.363 . S
Eu378 O410 2.363 1_545 S
Eu378 O411 2.364 . S
O379 Eu374 2.370 1_565 S
O379 Eu377 2.370 1_565 S
O379 Eu381 2.370 . S
O380 Eu374 2.370 . S
O380 Eu378 2.370 . S
O380 Eu382 2.387 . S
Eu381 O376 2.370 . S
Eu381 O379 2.370 . S
Eu381 O383 2.370 1_554 S
Eu381 O386 2.370 1_554 S
Eu381 O398 2.363 . S
Eu381 O399 2.363 . S
Eu381 O406 2.363 . S
Eu381 O407 2.363 1_554 S
Eu382 O375 2.387 . S
Eu382 O380 2.387 . S
Eu382 O384 2.354 1_554 S
Eu382 O385 2.354 1_554 S
Eu382 O396 2.363 . S
Eu382 O397 2.363 . S
Eu382 O404 2.391 . S
Eu382 O405 2.334 1_554 S
O383 Eu377 2.370 1_566 S
O383 Eu381 2.370 1_556 S
O383 Eu387 2.353 1_565 S
O384 Eu377 2.370 1_556 S
O384 Eu382 2.354 1_556 S
O384 Eu387 2.388 . S
O385 Eu378 2.370 1_556 S
O385 Eu382 2.354 1_556 S
O385 Eu387 2.388 . S
O386 Eu378 2.370 1_566 S
O386 Eu381 2.370 1_556 S
O386 Eu387 2.353 1_565 S
Eu387 O383 2.353 1_545 S
Eu387 O384 2.388 . S
Eu387 O385 2.388 . S
Eu387 O386 2.353 1_545 S
Eu387 O390 2.333 1_545 S
Eu387 O391 2.392 . S
Eu387 O400 2.363 . S
Eu387 O401 2.363 . S
O388 C362 1.283 . S
O388 Eu374 2.363 1_565 S
O389 C363 1.283 . S
O389 Eu374 2.363 . S
O390 C364 1.283 . S
O390 Eu387 2.333 1_565 S
O391 C365 1.283 . S
O391 Eu387 2.392 . S
O392 C366 1.283 . S
O392 Eu377 2.364 1_556 S
O393 C367 1.283 . S
O393 Eu377 2.363 . S
O394 C368 1.283 . S
O394 Eu378 2.364 1_556 S
O395 C369 1.283 . S
O395 Eu378 2.363 . S
O396 C370 1.283 . S
O396 Eu382 2.363 . S
O397 C371 1.283 . S
O397 Eu382 2.363 . S
O398 C372 1.283 . S
O398 Eu381 2.363 . S
O399 C373 1.283 . S
O399 Eu381 2.363 . S
O400 C368 1.283 . S
O400 Eu387 2.363 . S
O401 C366 1.283 . S
O401 Eu387 2.363 . S
O402 C369 1.283 . S
O402 Eu374 2.363 . S
O403 C367 1.283 . S
O403 Eu374 2.363 . S
O404 C363 1.283 . S
O404 Eu382 2.391 . S
O405 C365 1.283 . S
O405 Eu382 2.334 1_556 S
O406 C362 1.283 . S
O406 Eu381 2.363 . S
O407 C364 1.283 . S
O407 Eu381 2.363 1_556 S
O408 C373 1.283 . S
O408 Eu377 2.363 1_565 S
O409 C371 1.283 . S
O409 Eu377 2.364 . S
O410 C372 1.283 . S
O410 Eu378 2.363 1_565 S
O411 C370 1.283 . S
O411 Eu378 2.364 . S
C412 O438 1.283 . S
C412 O456 1.283 . S
C413 O439 1.283 . S
C413 O454 1.283 . S
C414 O440 1.283 . S
C414 O457 1.283 . S
C415 O441 1.283 . S
C415 O455 1.283 . S
C416 O442 1.283 . S
C416 O451 1.283 . S
C417 O443 1.284 . S
C417 O453 1.283 . S
C418 O444 1.283 . S
C418 O450 1.283 . S
C419 O445 1.283 . S
C419 O452 1.283 . S
C420 O446 1.283 . S
C420 O461 1.283 . S
C421 O447 1.283 . S
C421 O459 1.283 . S
C422 O448 1.283 . S
C422 O460 1.283 . S
C423 O449 1.283 . S
C423 O458 1.283 . S
Eu424 O425 2.344 1_454 S
Eu424 O426 2.397 . S
Eu424 O429 2.397 1_455 S
Eu424 O430 2.344 1_554 S
Eu424 O438 2.407 . S
Eu424 O439 2.319 1_554 S
Eu424 O452 2.363 . S
Eu424 O453 2.363 1_455 S
O425 Eu424 2.344 1_656 S
O425 Eu427 2.370 1_556 S
O425 Eu432 2.370 1_655 S
O426 Eu424 2.397 . S
O426 Eu428 2.370 . S
O426 Eu431 2.370 . S
Eu427 O425 2.370 1_554 S
Eu427 O429 2.370 . S
Eu427 O433 2.370 . S
Eu427 O434 2.370 1_554 S
Eu427 O442 2.363 . S
Eu427 O443 2.363 . S
Eu427 O458 2.363 . S
Eu427 O459 2.363 1_554 S
Eu428 O426 2.370 . S
Eu428 O430 2.370 1_554 S
Eu428 O435 2.370 1_554 S
Eu428 O436 2.370 . S
Eu428 O444 2.363 . S
Eu428 O445 2.364 . S
Eu428 O460 2.363 . S
Eu428 O461 2.363 1_554 S
O429 Eu424 2.397 1_655 S
O429 Eu427 2.370 . S
O429 Eu431 2.370 1_655 S
O430 Eu424 2.344 1_556 S
O430 Eu428 2.370 1_556 S
O430 Eu432 2.370 . S
Eu431 O426 2.370 . S
Eu431 O429 2.370 1_455 S
Eu431 O433 2.370 1_455 S
Eu431 O436 2.370 . S
Eu431 O448 2.363 . S
Eu431 O449 2.363 1_455 S
Eu431 O456 2.363 . S
Eu431 O457 2.363 . S
Eu432 O425 2.370 1_455 S
Eu432 O430 2.370 . S
Eu432 O434 2.370 1_455 S
Eu432 O435 2.370 . S
Eu432 O446 2.363 . S
Eu432 O447 2.363 1_455 S
Eu432 O454 2.363 . S
Eu432 O455 2.363 . S
O433 Eu427 2.370 . S
O433 Eu431 2.370 1_655 S
O433 Eu437 2.370 1_655 S
O434 Eu427 2.370 1_556 S
O434 Eu432 2.370 1_655 S
O434 Eu437 2.370 1_656 S
O435 Eu428 2.370 1_556 S
O435 Eu432 2.370 . S
O435 Eu437 2.370 1_556 S
O436 Eu428 2.370 . S
O436 Eu431 2.370 . S
O436 Eu437 2.370 . S
Eu437 O433 2.370 1_455 S
Eu437 O434 2.370 1_454 S
Eu437 O435 2.370 1_554 S
Eu437 O436 2.370 . S
Eu437 O440 2.363 . S
Eu437 O441 2.363 1_554 S
Eu437 O450 2.363 . S
Eu437 O451 2.363 1_455 S
O438 C412 1.283 . S
O438 Eu424 2.407 . S
O439 C413 1.283 . S
O439 Eu424 2.319 1_556 S
O440 C414 1.283 . S
O440 Eu437 2.363 . S
O441 C415 1.283 . S
O441 Eu437 2.363 1_556 S
O442 C416 1.283 . S
O442 Eu427 2.363 . S
O443 C417 1.284 . S
O443 Eu427 2.363 . S
O444 C418 1.283 . S
O444 Eu428 2.363 . S
O445 C419 1.283 . S
O445 Eu428 2.364 . S
O446 C420 1.283 . S
O446 Eu432 2.363 . S
O447 C421 1.283 . S
O447 Eu432 2.363 1_655 S
O448 C422 1.283 . S
O448 Eu431 2.363 . S
O449 C423 1.283 . S
O449 Eu431 2.363 1_655 S
O450 C418 1.283 . S
O450 Eu437 2.363 . S
O451 C416 1.283 . S
O451 Eu437 2.363 1_655 S
O452 C419 1.283 . S
O452 Eu424 2.363 . S
O453 C417 1.283 . S
O453 Eu424 2.363 1_655 S
O454 C413 1.283 . S
O454 Eu432 2.363 . S
O455 C415 1.283 . S
O455 Eu432 2.363 . S
O456 C412 1.283 . S
O456 Eu431 2.363 . S
O457 C414 1.283 . S
O457 Eu431 2.363 . S
O458 C423 1.283 . S
O458 Eu427 2.363 . S
O459 C421 1.283 . S
O459 Eu427 2.363 1_556 S
O460 C422 1.283 . S
O460 Eu428 2.363 . S
O461 C420 1.283 . S
O461 Eu428 2.363 1_556 S
C462 O488 1.283 . S
C462 O506 1.283 . S
C463 O489 1.283 . S
C463 O504 1.283 . S
C464 O490 1.283 . S
C464 O507 1.283 . S
C465 O491 1.283 . S
C465 O505 1.283 . S
C466 O492 1.283 . S
C466 O501 1.283 . S
C467 O493 1.283 . S
C467 O503 1.283 . S
C468 O494 1.283 . S
C468 O500 1.283 . S
C469 O495 1.283 . S
C469 O502 1.283 . S
C470 O496 1.283 . S
C470 O511 1.283 . S
C471 O497 1.283 . S
C471 O509 1.283 . S
C472 O498 1.283 . S
C472 O510 1.283 . S
C473 O499 1.283 . S
C473 O508 1.283 . S
Eu474 O475 2.370 . S
Eu474 O476 2.370 . S
Eu474 O479 2.370 . S
Eu474 O480 2.370 . S
Eu474 O488 2.363 . S
Eu474 O489 2.363 . S
Eu474 O502 2.363 . S
Eu474 O503 2.363 . S
O475 Eu474 2.370 . S
O475 Eu477 2.370 . S
O475 Eu482 2.370 . S
O476 Eu474 2.370 . S
O476 Eu478 2.370 . S
O476 Eu481 2.396 . S
Eu477 O475 2.370 . S
Eu477 O479 2.370 . S
Eu477 O483 2.370 1_554 S
Eu477 O484 2.370 1_554 S
Eu477 O492 2.363 1_554 S
Eu477 O493 2.363 . S
Eu477 O508 2.364 . S
Eu477 O509 2.363 . S
Eu478 O476 2.370 . S
Eu478 O480 2.370 . S
Eu478 O485 2.370 1_554 S
Eu478 O486 2.370 1_554 S
Eu478 O494 2.363 1_554 S
Eu478 O495 2.363 . S
Eu478 O510 2.364 . S
Eu478 O511 2.363 . S
O479 Eu474 2.370 . S
O479 Eu477 2.370 . S
O479 Eu481 2.396 . S
O480 Eu474 2.370 . S
O480 Eu478 2.370 . S
O480 Eu482 2.370 . S
Eu481 O476 2.396 . S
Eu481 O479 2.396 . S
Eu481 O483 2.345 1_554 S
Eu481 O486 2.345 1_554 S
Eu481 O498 2.363 . S
Eu481 O499 2.363 . S
Eu481 O506 2.407 . S
Eu481 O507 2.319 1_554 S
Eu482 O475 2.370 . S
Eu482 O480 2.370 . S
Eu482 O484 2.370 1_554 S
Eu482 O485 2.370 1_554 S
Eu482 O496 2.363 . S
Eu482 O497 2.363 . S
Eu482 O504 2.363 . S
Eu482 O505 2.363 1_554 S
O483 Eu477 2.370 1_556 S
O483 Eu481 2.345 1_556 S
O483 Eu487 2.370 . S
O484 Eu477 2.370 1_556 S
O484 Eu482 2.370 1_556 S
O484 Eu487 2.370 . S
O485 Eu478 2.370 1_556 S
O485 Eu482 2.370 1_556 S
O485 Eu487 2.370 . S
O486 Eu478 2.370 1_556 S
O486 Eu481 2.345 1_556 S
O486 Eu487 2.370 . S
Eu487 O483 2.370 . S
Eu487 O484 2.370 . S
Eu487 O485 2.370 . S
Eu487 O486 2.370 . S
Eu487 O490 2.363 . S
Eu487 O491 2.363 . S
Eu487 O500 2.363 . S
Eu487 O501 2.363 . S
O488 C462 1.283 . S
O488 Eu474 2.363 . S
O489 C463 1.283 . S
O489 Eu474 2.363 . S
O490 C464 1.283 . S
O490 Eu487 2.363 . S
O491 C465 1.283 . S
O491 Eu487 2.363 . S
O492 C466 1.283 . S
O492 Eu477 2.363 1_556 S
O493 C467 1.283 . S
O493 Eu477 2.363 . S
O494 C468 1.283 . S
O494 Eu478 2.363 1_556 S
O495 C469 1.283 . S
O495 Eu478 2.363 . S
O496 C470 1.283 . S
O496 Eu482 2.363 . S
O497 C471 1.283 . S
O497 Eu482 2.363 . S
O498 C472 1.283 . S
O498 Eu481 2.363 . S
O499 C473 1.283 . S
O499 Eu481 2.363 . S
O500 C468 1.283 . S
O500 Eu487 2.363 . S
O501 C466 1.283 . S
O501 Eu487 2.363 . S
O502 C469 1.283 . S
O502 Eu474 2.363 . S
O503 C467 1.283 . S
O503 Eu474 2.363 . S
O504 C463 1.283 . S
O504 Eu482 2.363 . S
O505 C465 1.283 . S
O505 Eu482 2.363 1_556 S
O506 C462 1.283 . S
O506 Eu481 2.407 . S
O507 C464 1.283 . S
O507 Eu481 2.319 1_556 S
O508 C473 1.283 . S
O508 Eu477 2.364 . S
O509 C471 1.283 . S
O509 Eu477 2.363 . S
O510 C472 1.283 . S
O510 Eu478 2.364 . S
O511 C470 1.283 . S
O511 Eu478 2.363 . S
C512 O538 1.283 . S
C512 O556 1.283 . S
C513 O539 1.283 . S
C513 O554 1.283 . S
C514 O540 1.283 . S
C514 O557 1.283 . S
C515 O541 1.283 . S
C515 O555 1.283 . S
C516 O542 1.283 . S
C516 O551 1.283 . S
C517 O543 1.283 . S
C517 O553 1.283 . S
C518 O544 1.283 . S
C518 O550 1.283 . S
C519 O545 1.283 . S
C519 O552 1.283 . S
C520 O546 1.283 . S
C520 O561 1.283 . S
C521 O547 1.283 . S
C521 O559 1.283 . S
C522 O548 1.283 . S
C522 O560 1.283 . S
C523 O549 1.283 . S
C523 O558 1.283 . S
Eu524 O525 2.370 1_455 S
Eu524 O526 2.370 . S
Eu524 O529 2.370 1_455 S
Eu524 O530 2.370 . S
Eu524 O538 2.363 . S
Eu524 O539 2.363 . S
Eu524 O552 2.363 . S
Eu524 O553 2.363 1_455 S
O525 Eu524 2.370 1_655 S
O525 Eu527 2.370 . S
O525 Eu532 2.370 1_655 S
O526 Eu524 2.370 . S
O526 Eu528 2.370 . S
O526 Eu531 2.370 . S
Eu527 O525 2.370 . S
Eu527 O529 2.370 . S
Eu527 O533 2.370 . S
Eu527 O534 2.370 . S
Eu527 O542 2.363 . S
Eu527 O543 2.363 . S
Eu527 O558 2.363 . S
Eu527 O559 2.363 . S
Eu528 O526 2.370 . S
Eu528 O530 2.370 . S
Eu528 O535 2.370 . S
Eu528 O536 2.370 . S
Eu528 O544 2.363 . S
Eu528 O545 2.363 . S
Eu528 O560 2.363 . S
Eu528 O561 2.363 . S
O529 Eu524 2.370 1_655 S
O529 Eu527 2.370 . S
O529 Eu531 2.370 1_655 S
O530 Eu524 2.370 . S
O530 Eu528 2.370 . S
O530 Eu532 2.370 . S
Eu531 O526 2.370 . S
Eu531 O529 2.370 1_455 S
Eu531 O533 2.370 1_455 S
Eu531 O536 2.370 . S
Eu531 O548 2.363 . S
Eu531 O549 2.363 1_455 S
Eu531 O556 2.363 . S
Eu531 O557 2.363 . S
Eu532 O525 2.370 1_455 S
Eu532 O530 2.370 . S
Eu532 O534 2.370 1_455 S
Eu532 O535 2.370 . S
Eu532 O546 2.363 . S
Eu532 O547 2.363 1_455 S
Eu532 O554 2.363 . S
Eu532 O555 2.363 . S
O533 Eu527 2.370 . S
O533 Eu531 2.370 1_655 S
O533 Eu537 2.370 1_655 S
O534 Eu527 2.370 . S
O534 Eu532 2.370 1_655 S
O534 Eu537 2.370 1_655 S
O535 Eu528 2.370 . S
O535 Eu532 2.370 . S
O535 Eu537 2.370 . S
O536 Eu528 2.370 . S
O536 Eu531 2.370 . S
O536 Eu537 2.370 . S
Eu537 O533 2.370 1_455 S
Eu537 O534 2.370 1_455 S
Eu537 O535 2.370 . S
Eu537 O536 2.370 . S
Eu537 O540 2.363 . S
Eu537 O541 2.363 . S
Eu537 O550 2.363 . S
Eu537 O551 2.363 1_455 S
O538 C512 1.283 . S
O538 Eu524 2.363 . S
O539 C513 1.283 . S
O539 Eu524 2.363 . S
O540 C514 1.283 . S
O540 Eu537 2.363 . S
O541 C515 1.283 . S
O541 Eu537 2.363 . S
O542 C516 1.283 . S
O542 Eu527 2.363 . S
O543 C517 1.283 . S
O543 Eu527 2.363 . S
O544 C518 1.283 . S
O544 Eu528 2.363 . S
O545 C519 1.283 . S
O545 Eu528 2.363 . S
O546 C520 1.283 . S
O546 Eu532 2.363 . S
O547 C521 1.283 . S
O547 Eu532 2.363 1_655 S
O548 C522 1.283 . S
O548 Eu531 2.363 . S
O549 C523 1.283 . S
O549 Eu531 2.363 1_655 S
O550 C518 1.283 . S
O550 Eu537 2.363 . S
O551 C516 1.283 . S
O551 Eu537 2.363 1_655 S
O552 C519 1.283 . S
O552 Eu524 2.363 . S
O553 C517 1.283 . S
O553 Eu524 2.363 1_655 S
O554 C513 1.283 . S
O554 Eu532 2.363 . S
O555 C515 1.283 . S
O555 Eu532 2.363 . S
O556 C512 1.283 . S
O556 Eu531 2.363 . S
O557 C514 1.283 . S
O557 Eu531 2.363 . S
O558 C523 1.283 . S
O558 Eu527 2.363 . S
O559 C521 1.283 . S
O559 Eu527 2.363 . S
O560 C522 1.283 . S
O560 Eu528 2.363 . S
O561 C520 1.283 . S
O561 Eu528 2.363 . S
C562 O588 1.283 . S
C562 O606 1.283 . S
C563 O589 1.283 . S
C563 O604 1.283 . S
C564 O590 1.283 . S
C564 O607 1.283 . S
C565 O591 1.283 . S
C565 O605 1.283 . S
C566 O592 1.283 . S
C566 O601 1.283 . S
C567 O593 1.283 . S
C567 O603 1.283 . S
C568 O594 1.283 . S
C568 O600 1.283 . S
C569 O595 1.283 . S
C569 O602 1.283 . S
C570 O596 1.283 . S
C570 O611 1.283 . S
C571 O597 1.283 . S
C571 O609 1.283 . S
C572 O598 1.283 . S
C572 O610 1.284 . S
C573 O599 1.283 . S
C573 O608 1.284 . S
Eu574 O575 2.370 . S
Eu574 O576 2.370 . S
Eu574 O579 2.370 . S
Eu574 O580 2.370 . S
Eu574 O588 2.363 . S
Eu574 O589 2.363 . S
Eu574 O602 2.363 . S
Eu574 O603 2.363 . S
O575 Eu574 2.370 . S
O575 Eu577 2.370 1_565 S
O575 Eu582 2.370 1_565 S
O576 Eu574 2.370 . S
O576 Eu578 2.370 1_565 S
O576 Eu581 2.344 1_565 S
Eu577 O575 2.370 1_545 S
Eu577 O579 2.370 1_545 S
Eu577 O583 2.370 . S
Eu577 O584 2.370 . S
Eu577 O592 2.363 . S
Eu577 O593 2.363 1_545 S
Eu577 O608 2.363 . S
Eu577 O609 2.363 . S
Eu578 O576 2.370 1_545 S
Eu578 O580 2.370 1_545 S
Eu578 O585 2.370 . S
Eu578 O586 2.370 . S
Eu578 O594 2.363 . S
Eu578 O595 2.363 1_545 S
Eu578 O610 2.363 . S
Eu578 O611 2.363 . S
O579 Eu574 2.370 . S
O579 Eu577 2.370 1_565 S
O579 Eu581 2.344 1_565 S
O580 Eu574 2.370 . S
O580 Eu578 2.370 1_565 S
O580 Eu582 2.370 1_565 S
Eu581 O576 2.344 1_545 S
Eu581 O579 2.344 1_545 S
Eu581 O583 2.397 . S
Eu581 O586 2.397 . S
Eu581 O598 2.363 . S
Eu581 O599 2.363 . S
Eu581 O606 2.318 1_545 S
Eu581 O607 2.408 . S
Eu582 O575 2.370 1_545 S
Eu582 O580 2.370 1_545 S
Eu582 O584 2.370 . S
Eu582 O585 2.370 . S
Eu582 O596 2.363 . S
Eu582 O597 2.363 . S
Eu582 O604 2.363 1_545 S
Eu582 O605 2.363 . S
O583 Eu577 2.370 . S
O583 Eu581 2.397 . S
O583 Eu587 2.370 . S
O584 Eu577 2.370 . S
O584 Eu582 2.370 . S
O584 Eu587 2.370 . S
O585 Eu578 2.370 . S
O585 Eu582 2.370 . S
O585 Eu587 2.370 . S
O586 Eu578 2.370 . S
O586 Eu581 2.397 . S
O586 Eu587 2.370 . S
Eu587 O583 2.370 . S
Eu587 O584 2.370 . S
Eu587 O585 2.370 . S
Eu587 O586 2.370 . S
Eu587 O590 2.363 . S
Eu587 O591 2.363 . S
Eu587 O600 2.363 . S
Eu587 O601 2.363 . S
O588 C562 1.283 . S
O588 Eu574 2.363 . S
O589 C563 1.283 . S
O589 Eu574 2.363 . S
O590 C564 1.283 . S
O590 Eu587 2.363 . S
O591 C565 1.283 . S
O591 Eu587 2.363 . S
O592 C566 1.283 . S
O592 Eu577 2.363 . S
O593 C567 1.283 . S
O593 Eu577 2.363 1_565 S
O594 C568 1.283 . S
O594 Eu578 2.363 . S
O595 C569 1.283 . S
O595 Eu578 2.363 1_565 S
O596 C570 1.283 . S
O596 Eu582 2.363 . S
O597 C571 1.283 . S
O597 Eu582 2.363 . S
O598 C572 1.283 . S
O598 Eu581 2.363 . S
O599 C573 1.283 . S
O599 Eu581 2.363 . S
O600 C568 1.283 . S
O600 Eu587 2.363 . S
O601 C566 1.283 . S
O601 Eu587 2.363 . S
O602 C569 1.283 . S
O602 Eu574 2.363 . S
O603 C567 1.283 . S
O603 Eu574 2.363 . S
O604 C563 1.283 . S
O604 Eu582 2.363 1_565 S
O605 C565 1.283 . S
O605 Eu582 2.363 . S
O606 C562 1.283 . S
O606 Eu581 2.318 1_565 S
O607 C564 1.283 . S
O607 Eu581 2.408 . S
O608 C573 1.284 . S
O608 Eu577 2.363 . S
O609 C571 1.283 . S
O609 Eu577 2.363 . S
O610 C572 1.284 . S
O610 Eu578 2.363 . S
O611 C570 1.283 . S
O611 Eu578 2.363 . S
C612 C613 1.349 . S
C612 C614 1.327 . S
C612 H637 0.950 . S
C613 C612 1.349 . S
C613 C629 1.349 . S
C614 C612 1.327 . S
C614 C633 1.429 . S
C614 H638 0.950 . S
C615 C632 1.574 . S
C615 C634 1.368 . S
C615 H639 0.949 . S
H616 C620 0.949 . S
C617 C618 1.349 . S
C617 C619 1.327 . S
C617 H640 0.950 . S
C618 C617 1.349 . S
C618 C630 1.349 . S
C619 C617 1.327 . S
C619 C635 1.429 . S
C619 H641 0.950 . S
C620 H616 0.949 . S
C620 C628 1.574 . S
C620 C636 1.368 . S
H621 C629 0.950 . S
H622 C627 0.950 . S
H623 C628 0.949 . S
H624 C630 0.950 . S
H625 C631 0.950 . S
H626 C632 0.949 . S
C627 H622 0.950 . S
C627 C629 1.327 . S
C627 C633 1.429 . S
C628 C620 1.574 . S
C628 H623 0.949 . S
C628 C634 1.368 . S
C629 C613 1.349 . S
C629 H621 0.950 . S
C629 C627 1.327 . S
C630 C618 1.349 . S
C630 H624 0.950 . S
C630 C631 1.327 . S
C631 H625 0.950 . S
C631 C630 1.327 . S
C631 C635 1.429 . S
C632 C615 1.574 . S
C632 H626 0.949 . S
C632 C636 1.368 . S
C633 C614 1.429 . S
C633 C627 1.429 . S
C633 C634 1.523 . S
C634 C615 1.368 . S
C634 C628 1.368 . S
C634 C633 1.523 . S
C635 C619 1.429 . S
C635 C631 1.429 . S
C635 C636 1.523 . S
C636 C620 1.368 . S
C636 C632 1.368 . S
C636 C635 1.523 . S
H637 C612 0.950 . S
H638 C614 0.950 . S
H639 C615 0.949 . S
H640 C617 0.950 . S
H641 C619 0.950 . S
C642 C643 1.349 . S
C642 C644 1.327 . S
C642 H667 0.950 . S
C643 C642 1.349 . S
C643 C659 1.349 . S
C644 C642 1.327 . S
C644 C663 1.429 . S
C644 H668 0.950 . S
C645 C662 1.574 . S
C645 C664 1.368 . S
C645 H669 0.949 . S
H646 C650 0.949 . S
C647 C648 1.349 . S
C647 C649 1.327 . S
C647 H670 0.950 . S
C648 C647 1.349 . S
C648 C660 1.349 . S
C649 C647 1.327 . S
C649 C665 1.429 . S
C649 H671 0.950 . S
C650 H646 0.949 . S
C650 C658 1.574 . S
C650 C666 1.368 . S
H651 C659 0.950 . S
H652 C657 0.950 . S
H653 C658 0.949 . S
H654 C660 0.950 . S
H655 C661 0.950 . S
H656 C662 0.949 . S
C657 H652 0.950 . S
C657 C659 1.327 . S
C657 C663 1.429 . S
C658 C650 1.574 . S
C658 H653 0.949 . S
C658 C664 1.368 . S
C659 C643 1.349 . S
C659 H651 0.950 . S
C659 C657 1.327 . S
C660 C648 1.349 . S
C660 H654 0.950 . S
C660 C661 1.327 . S
C661 H655 0.950 . S
C661 C660 1.327 . S
C661 C665 1.429 . S
C662 C645 1.574 . S
C662 H656 0.949 . S
C662 C666 1.368 . S
C663 C644 1.429 . S
C663 C657 1.429 . S
C663 C664 1.523 . S
C664 C645 1.368 . S
C664 C658 1.368 . S
C664 C663 1.523 . S
C665 C649 1.429 . S
C665 C661 1.429 . S
C665 C666 1.523 . S
C666 C650 1.368 . S
C666 C662 1.368 . S
C666 C665 1.523 . S
H667 C642 0.950 . S
H668 C644 0.950 . S
H669 C645 0.949 . S
H670 C647 0.950 . S
H671 C649 0.950 . S
C672 C673 1.349 . S
C672 C674 1.327 . S
C672 H697 0.950 . S
C673 C672 1.349 . S
C673 C689 1.349 . S
C674 C672 1.327 . S
C674 C693 1.429 . S
C674 H698 0.950 . S
C675 C692 1.574 . S
C675 C694 1.368 . S
C675 H699 0.949 . S
H676 C680 0.949 . S
C677 C678 1.349 . S
C677 C679 1.327 . S
C677 H700 0.950 . S
C678 C677 1.349 . S
C678 C690 1.349 . S
C679 C677 1.327 . S
C679 C695 1.429 . S
C679 H701 0.950 . S
C680 H676 0.949 . S
C680 C688 1.574 . S
C680 C696 1.368 . S
H681 C689 0.950 . S
H682 C687 0.950 . S
H683 C688 0.949 . S
H684 C690 0.950 . S
H685 C691 0.950 . S
H686 C692 0.949 . S
C687 H682 0.950 . S
C687 C689 1.327 . S
C687 C693 1.429 . S
C688 C680 1.574 . S
C688 H683 0.949 . S
C688 C694 1.368 . S
C689 C673 1.349 . S
C689 H681 0.950 . S
C689 C687 1.327 . S
C690 C678 1.349 . S
C690 H684 0.950 . S
C690 C691 1.327 . S
C691 H685 0.950 . S
C691 C690 1.327 . S
C691 C695 1.429 . S
C692 C675 1.574 . S
C692 H686 0.949 . S
C692 C696 1.368 . S
C693 C674 1.429 . S
C693 C687 1.429 . S
C693 C694 1.523 . S
C694 C675 1.368 . S
C694 C688 1.368 . S
C694 C693 1.523 . S
C695 C679 1.429 . S
C695 C691 1.429 . S
C695 C696 1.523 . S
C696 C680 1.368 . S
C696 C692 1.368 . S
C696 C695 1.523 . S
H697 C672 0.950 . S
H698 C674 0.950 . S
H699 C675 0.949 . S
H700 C677 0.950 . S
H701 C679 0.950 . S
C702 C703 1.349 . S
C702 C704 1.327 . S
C702 H727 0.950 . S
C703 C702 1.349 . S
C703 C719 1.349 . S
C704 C702 1.327 . S
C704 C723 1.429 . S
C704 H728 0.950 . S
C705 C722 1.574 . S
C705 C724 1.368 . S
C705 H729 0.949 . S
H706 C710 0.949 . S
C707 C708 1.349 . S
C707 C709 1.327 . S
C707 H730 0.950 . S
C708 C707 1.349 . S
C708 C720 1.349 . S
C709 C707 1.327 . S
C709 C725 1.429 . S
C709 H731 0.950 . S
C710 H706 0.949 . S
C710 C718 1.574 . S
C710 C726 1.368 . S
H711 C719 0.950 . S
H712 C717 0.950 . S
H713 C718 0.949 . S
H714 C720 0.950 . S
H715 C721 0.950 . S
H716 C722 0.949 . S
C717 H712 0.950 . S
C717 C719 1.327 . S
C717 C723 1.429 . S
C718 C710 1.574 . S
C718 H713 0.949 . S
C718 C724 1.368 . S
C719 C703 1.349 . S
C719 H711 0.950 . S
C719 C717 1.327 . S
C720 C708 1.349 . S
C720 H714 0.950 . S
C720 C721 1.327 . S
C721 H715 0.950 . S
C721 C720 1.327 . S
C721 C725 1.429 . S
C722 C705 1.574 . S
C722 H716 0.949 . S
C722 C726 1.368 . S
C723 C704 1.429 . S
C723 C717 1.429 . S
C723 C724 1.523 . S
C724 C705 1.368 . S
C724 C718 1.368 . S
C724 C723 1.523 . S
C725 C709 1.429 . S
C725 C721 1.429 . S
C725 C726 1.523 . S
C726 C710 1.368 . S
C726 C722 1.368 . S
C726 C725 1.523 . S
H727 C702 0.950 . S
H728 C704 0.950 . S
H729 C705 0.949 . S
H730 C707 0.950 . S
H731 C709 0.950 . S
C732 C733 1.349 . S
C732 C734 1.327 . S
C732 H757 0.950 . S
C733 C732 1.349 . S
C733 C749 1.349 . S
C734 C732 1.327 . S
C734 C753 1.429 . S
C734 H758 0.950 . S
C735 C752 1.574 . S
C735 C754 1.368 . S
C735 H759 0.949 . S
H736 C740 0.949 . S
C737 C738 1.349 . S
C737 C739 1.327 . S
C737 H760 0.950 . S
C738 C737 1.349 . S
C738 C750 1.349 . S
C739 C737 1.327 . S
C739 C755 1.429 . S
C739 H761 0.950 . S
C740 H736 0.949 . S
C740 C748 1.574 . S
C740 C756 1.368 . S
H741 C749 0.950 . S
H742 C747 0.950 . S
H743 C748 0.949 . S
H744 C750 0.950 . S
H745 C751 0.950 . S
H746 C752 0.949 . S
C747 H742 0.950 . S
C747 C749 1.327 . S
C747 C753 1.429 . S
C748 C740 1.574 . S
C748 H743 0.949 . S
C748 C754 1.368 . S
C749 C733 1.349 . S
C749 H741 0.950 . S
C749 C747 1.327 . S
C750 C738 1.349 . S
C750 H744 0.950 . S
C750 C751 1.327 . S
C751 H745 0.950 . S
C751 C750 1.327 . S
C751 C755 1.429 . S
C752 C735 1.574 . S
C752 H746 0.949 . S
C752 C756 1.368 . S
C753 C734 1.429 . S
C753 C747 1.429 . S
C753 C754 1.523 . S
C754 C735 1.368 . S
C754 C748 1.368 . S
C754 C753 1.523 . S
C755 C739 1.429 . S
C755 C751 1.429 . S
C755 C756 1.523 . S
C756 C740 1.368 . S
C756 C752 1.368 . S
C756 C755 1.523 . S
H757 C732 0.950 . S
H758 C734 0.950 . S
H759 C735 0.949 . S
H760 C737 0.950 . S
H761 C739 0.950 . S
C762 C763 1.349 . S
C762 C764 1.327 . S
C762 H787 0.950 . S
C763 C762 1.349 . S
C763 C779 1.349 . S
C764 C762 1.327 . S
C764 C783 1.429 . S
C764 H788 0.950 . S
C765 C782 1.574 . S
C765 C784 1.368 . S
C765 H789 0.949 . S
H766 C770 0.949 . S
C767 C768 1.349 . S
C767 C769 1.327 . S
C767 H790 0.950 . S
C768 C767 1.349 . S
C768 C780 1.349 . S
C769 C767 1.327 . S
C769 C785 1.429 . S
C769 H791 0.950 . S
C770 H766 0.949 . S
C770 C778 1.574 . S
C770 C786 1.368 . S
H771 C779 0.950 . S
H772 C777 0.950 . S
H773 C778 0.949 . S
H774 C780 0.950 . S
H775 C781 0.950 . S
H776 C782 0.949 . S
C777 H772 0.950 . S
C777 C779 1.327 . S
C777 C783 1.429 . S
C778 C770 1.574 . S
C778 H773 0.949 . S
C778 C784 1.368 . S
C779 C763 1.349 . S
C779 H771 0.950 . S
C779 C777 1.327 . S
C780 C768 1.349 . S
C780 H774 0.950 . S
C780 C781 1.327 . S
C781 H775 0.950 . S
C781 C780 1.327 . S
C781 C785 1.429 . S
C782 C765 1.574 . S
C782 H776 0.949 . S
C782 C786 1.368 . S
C783 C764 1.429 . S
C783 C777 1.429 . S
C783 C784 1.523 . S
C784 C765 1.368 . S
C784 C778 1.368 . S
C784 C783 1.523 . S
C785 C769 1.429 . S
C785 C781 1.429 . S
C785 C786 1.523 . S
C786 C770 1.368 . S
C786 C782 1.368 . S
C786 C785 1.523 . S
H787 C762 0.950 . S
H788 C764 0.950 . S
H789 C765 0.949 . S
H790 C767 0.950 . S
H791 C769 0.950 . S
C792 C793 1.349 . S
C792 C794 1.327 . S
C792 H817 0.950 . S
C793 C792 1.349 . S
C793 C809 1.349 . S
C794 C792 1.327 . S
C794 C813 1.429 . S
C794 H818 0.950 . S
C795 C812 1.574 . S
C795 C814 1.368 . S
C795 H819 0.949 . S
H796 C800 0.949 . S
C797 C798 1.349 . S
C797 C799 1.327 . S
C797 H820 0.950 . S
C798 C797 1.349 . S
C798 C810 1.349 . S
C799 C797 1.327 . S
C799 C815 1.429 . S
C799 H821 0.950 . S
C800 H796 0.949 . S
C800 C808 1.574 . S
C800 C816 1.368 . S
H801 C809 0.950 . S
H802 C807 0.950 . S
H803 C808 0.949 . S
H804 C810 0.950 . S
H805 C811 0.950 . S
H806 C812 0.949 . S
C807 H802 0.950 . S
C807 C809 1.327 . S
C807 C813 1.429 . S
C808 C800 1.574 . S
C808 H803 0.949 . S
C808 C814 1.368 . S
C809 C793 1.349 . S
C809 H801 0.950 . S
C809 C807 1.327 . S
C810 C798 1.349 . S
C810 H804 0.950 . S
C810 C811 1.327 . S
C811 H805 0.950 . S
C811 C810 1.327 . S
C811 C815 1.429 . S
C812 C795 1.574 . S
C812 H806 0.949 . S
C812 C816 1.368 . S
C813 C794 1.429 . S
C813 C807 1.429 . S
C813 C814 1.523 . S
C814 C795 1.368 . S
C814 C808 1.368 . S
C814 C813 1.523 . S
C815 C799 1.429 . S
C815 C811 1.429 . S
C815 C816 1.523 . S
C816 C800 1.368 . S
C816 C812 1.368 . S
C816 C815 1.523 . S
H817 C792 0.950 . S
H818 C794 0.950 . S
H819 C795 0.949 . S
H820 C797 0.950 . S
H821 C799 0.950 . S
C822 C823 1.349 . S
C822 C824 1.327 . S
C822 H847 0.950 . S
C823 C822 1.349 . S
C823 C839 1.349 . S
C824 C822 1.327 . S
C824 C843 1.429 . S
C824 H848 0.950 . S
C825 C842 1.574 . S
C825 C844 1.368 . S
C825 H849 0.949 . S
H826 C830 0.949 . S
C827 C828 1.349 . S
C827 C829 1.327 . S
C827 H850 0.950 . S
C828 C827 1.349 . S
C828 C840 1.349 . S
C829 C827 1.327 . S
C829 C845 1.429 . S
C829 H851 0.950 . S
C830 H826 0.949 . S
C830 C838 1.574 . S
C830 C846 1.368 . S
H831 C839 0.950 . S
H832 C837 0.950 . S
H833 C838 0.949 . S
H834 C840 0.950 . S
H835 C841 0.950 . S
H836 C842 0.949 . S
C837 H832 0.950 . S
C837 C839 1.327 . S
C837 C843 1.429 . S
C838 C830 1.574 . S
C838 H833 0.949 . S
C838 C844 1.368 . S
C839 C823 1.349 . S
C839 H831 0.950 . S
C839 C837 1.327 . S
C840 C828 1.349 . S
C840 H834 0.950 . S
C840 C841 1.327 . S
C841 H835 0.950 . S
C841 C840 1.327 . S
C841 C845 1.429 . S
C842 C825 1.574 . S
C842 H836 0.949 . S
C842 C846 1.368 . S
C843 C824 1.429 . S
C843 C837 1.429 . S
C843 C844 1.523 . S
C844 C825 1.368 . S
C844 C838 1.368 . S
C844 C843 1.523 . S
C845 C829 1.429 . S
C845 C841 1.429 . S
C845 C846 1.523 . S
C846 C830 1.368 . S
C846 C842 1.368 . S
C846 C845 1.523 . S
H847 C822 0.950 . S
H848 C824 0.950 . S
H849 C825 0.949 . S
H850 C827 0.950 . S
H851 C829 0.950 . S
C852 C853 1.349 . S
C852 C854 1.327 . S
C852 H877 0.950 . S
C853 C852 1.349 . S
C853 C869 1.349 . S
C854 C852 1.327 . S
C854 C873 1.429 . S
C854 H878 0.950 . S
C855 C872 1.574 . S
C855 C874 1.368 . S
C855 H879 0.949 . S
H856 C860 0.949 . S
C857 C858 1.349 . S
C857 C859 1.327 . S
C857 H880 0.950 . S
C858 C857 1.349 . S
C858 C870 1.349 . S
C859 C857 1.327 . S
C859 C875 1.429 . S
C859 H881 0.950 . S
C860 H856 0.949 . S
C860 C868 1.574 . S
C860 C876 1.368 . S
H861 C869 0.950 . S
H862 C867 0.950 . S
H863 C868 0.949 . S
H864 C870 0.950 . S
H865 C871 0.950 . S
H866 C872 0.949 . S
C867 H862 0.950 . S
C867 C869 1.327 . S
C867 C873 1.429 . S
C868 C860 1.574 . S
C868 H863 0.949 . S
C868 C874 1.368 . S
C869 C853 1.349 . S
C869 H861 0.950 . S
C869 C867 1.327 . S
C870 C858 1.349 . S
C870 H864 0.950 . S
C870 C871 1.327 . S
C871 H865 0.950 . S
C871 C870 1.327 . S
C871 C875 1.429 . S
C872 C855 1.574 . S
C872 H866 0.949 . S
C872 C876 1.368 . S
C873 C854 1.429 . S
C873 C867 1.429 . S
C873 C874 1.523 . S
C874 C855 1.368 . S
C874 C868 1.368 . S
C874 C873 1.523 . S
C875 C859 1.429 . S
C875 C871 1.429 . S
C875 C876 1.523 . S
C876 C860 1.368 . S
C876 C872 1.368 . S
C876 C875 1.523 . S
H877 C852 0.950 . S
H878 C854 0.950 . S
H879 C855 0.949 . S
H880 C857 0.950 . S
H881 C859 0.950 . S
C882 C883 1.349 . S
C882 C884 1.327 . S
C882 H907 0.950 . S
C883 C882 1.349 . S
C883 C899 1.349 . S
C884 C882 1.327 . S
C884 C903 1.429 . S
C884 H908 0.950 . S
C885 C902 1.574 . S
C885 C904 1.368 . S
C885 H909 0.949 . S
H886 C890 0.949 . S
C887 C888 1.349 . S
C887 C889 1.327 . S
C887 H910 0.950 . S
C888 C887 1.349 . S
C888 C900 1.349 . S
C889 C887 1.327 . S
C889 C905 1.429 . S
C889 H911 0.950 . S
C890 H886 0.949 . S
C890 C898 1.574 . S
C890 C906 1.368 . S
H891 C899 0.950 . S
H892 C897 0.950 . S
H893 C898 0.949 . S
H894 C900 0.950 . S
H895 C901 0.950 . S
H896 C902 0.949 . S
C897 H892 0.950 . S
C897 C899 1.327 . S
C897 C903 1.429 . S
C898 C890 1.574 . S
C898 H893 0.949 . S
C898 C904 1.368 . S
C899 C883 1.349 . S
C899 H891 0.950 . S
C899 C897 1.327 . S
C900 C888 1.349 . S
C900 H894 0.950 . S
C900 C901 1.327 . S
C901 H895 0.950 . S
C901 C900 1.327 . S
C901 C905 1.429 . S
C902 C885 1.574 . S
C902 H896 0.949 . S
C902 C906 1.368 . S
C903 C884 1.429 . S
C903 C897 1.429 . S
C903 C904 1.523 . S
C904 C885 1.368 . S
C904 C898 1.368 . S
C904 C903 1.523 . S
C905 C889 1.429 . S
C905 C901 1.429 . S
C905 C906 1.523 . S
C906 C890 1.368 . S
C906 C902 1.368 . S
C906 C905 1.523 . S
H907 C882 0.950 . S
H908 C884 0.950 . S
H909 C885 0.949 . S
H910 C887 0.950 . S
H911 C889 0.950 . S
C912 C913 1.349 . S
C912 C914 1.327 . S
C912 H937 0.950 . S
C913 C912 1.349 . S
C913 C929 1.349 . S
C914 C912 1.327 . S
C914 C933 1.429 . S
C914 H938 0.950 . S
C915 C932 1.574 . S
C915 C934 1.368 . S
C915 H939 0.949 . S
H916 C920 0.949 . S
C917 C918 1.349 . S
C917 C919 1.327 . S
C917 H940 0.950 . S
C918 C917 1.349 . S
C918 C930 1.349 . S
C919 C917 1.327 . S
C919 C935 1.429 . S
C919 H941 0.950 . S
C920 H916 0.949 . S
C920 C928 1.574 . S
C920 C936 1.368 . S
H921 C929 0.950 . S
H922 C927 0.950 . S
H923 C928 0.949 . S
H924 C930 0.950 . S
H925 C931 0.950 . S
H926 C932 0.949 . S
C927 H922 0.950 . S
C927 C929 1.327 . S
C927 C933 1.429 . S
C928 C920 1.574 . S
C928 H923 0.949 . S
C928 C934 1.368 . S
C929 C913 1.349 . S
C929 H921 0.950 . S
C929 C927 1.327 . S
C930 C918 1.349 . S
C930 H924 0.950 . S
C930 C931 1.327 . S
C931 H925 0.950 . S
C931 C930 1.327 . S
C931 C935 1.429 . S
C932 C915 1.574 . S
C932 H926 0.949 . S
C932 C936 1.368 . S
C933 C914 1.429 . S
C933 C927 1.429 . S
C933 C934 1.523 . S
C934 C915 1.368 . S
C934 C928 1.368 . S
C934 C933 1.523 . S
C935 C919 1.429 . S
C935 C931 1.429 . S
C935 C936 1.523 . S
C936 C920 1.368 . S
C936 C932 1.368 . S
C936 C935 1.523 . S
H937 C912 0.950 . S
H938 C914 0.950 . S
H939 C915 0.949 . S
H940 C917 0.950 . S
H941 C919 0.950 . S
C942 C943 1.349 . S
C942 C944 1.327 . S
C942 H967 0.950 . S
C943 C942 1.349 . S
C943 C959 1.349 . S
C944 C942 1.327 . S
C944 C963 1.429 . S
C944 H968 0.950 . S
C945 C962 1.574 . S
C945 C964 1.368 . S
C945 H969 0.949 . S
H946 C950 0.949 . S
C947 C948 1.349 . S
C947 C949 1.327 . S
C947 H970 0.950 . S
C948 C947 1.349 . S
C948 C960 1.349 . S
C949 C947 1.327 . S
C949 C965 1.429 . S
C949 H971 0.950 . S
C950 H946 0.949 . S
C950 C958 1.574 . S
C950 C966 1.368 . S
H951 C959 0.950 . S
H952 C957 0.950 . S
H953 C958 0.949 . S
H954 C960 0.950 . S
H955 C961 0.950 . S
H956 C962 0.949 . S
C957 H952 0.950 . S
C957 C959 1.327 . S
C957 C963 1.429 . S
C958 C950 1.574 . S
C958 H953 0.949 . S
C958 C964 1.368 . S
C959 C943 1.349 . S
C959 H951 0.950 . S
C959 C957 1.327 . S
C960 C948 1.349 . S
C960 H954 0.950 . S
C960 C961 1.327 . S
C961 H955 0.950 . S
C961 C960 1.327 . S
C961 C965 1.429 . S
C962 C945 1.574 . S
C962 H956 0.949 . S
C962 C966 1.368 . S
C963 C944 1.429 . S
C963 C957 1.429 . S
C963 C964 1.523 . S
C964 C945 1.368 . S
C964 C958 1.368 . S
C964 C963 1.523 . S
C965 C949 1.429 . S
C965 C961 1.429 . S
C965 C966 1.523 . S
C966 C950 1.368 . S
C966 C962 1.368 . S
C966 C965 1.523 . S
H967 C942 0.950 . S
H968 C944 0.950 . S
H969 C945 0.949 . S
H970 C947 0.950 . S
H971 C949 0.950 . S
C972 C973 1.349 1_556 S
C972 C974 1.327 . S
C972 H997 0.950 . S
C973 C972 1.349 1_554 S
C973 C989 1.349 . S
C974 C972 1.327 . S
C974 C993 1.429 1_556 S
C974 H998 0.950 . S
C975 C992 1.574 . S
C975 C994 1.368 . S
C975 H999 0.949 . S
H976 C980 0.949 . S
C977 C978 1.349 . S
C977 C979 1.327 . S
C977 H1000 0.950 . S
C978 C977 1.349 . S
C978 C990 1.349 1_554 S
C979 C977 1.327 . S
C979 C995 1.429 . S
C979 H1001 0.950 . S
C980 H976 0.949 . S
C980 C988 1.574 . S
C980 C996 1.368 1_556 S
H981 C989 0.950 . S
H982 C987 0.950 . S
H983 C988 0.949 . S
H984 C990 0.950 . S
H985 C991 0.950 . S
H986 C992 0.949 . S
C987 H982 0.950 . S
C987 C989 1.327 . S
C987 C993 1.429 . S
C988 C980 1.574 . S
C988 H983 0.949 . S
C988 C994 1.368 1_556 S
C989 C973 1.349 . S
C989 H981 0.950 . S
C989 C987 1.327 . S
C990 C978 1.349 1_556 S
C990 H984 0.950 . S
C990 C991 1.327 . S
C991 H985 0.950 . S
C991 C990 1.327 . S
C991 C995 1.429 1_556 S
C992 C975 1.574 . S
C992 H986 0.949 . S
C992 C996 1.368 . S
C993 C974 1.429 1_554 S
C993 C987 1.429 . S
C993 C994 1.523 . S
C994 C975 1.368 . S
C994 C988 1.368 1_554 S
C994 C993 1.523 . S
C995 C979 1.429 . S
C995 C991 1.429 1_554 S
C995 C996 1.523 . S
C996 C980 1.368 1_554 S
C996 C992 1.368 . S
C996 C995 1.523 . S
H997 C972 0.950 . S
H998 C974 0.950 . S
H999 C975 0.949 . S
H1000 C977 0.950 . S
H1001 C979 0.950 . S
C1002 C1003 1.349 . S
C1002 C1004 1.327 . S
C1002 H1027 0.950 . S
C1003 C1002 1.349 . S
C1003 C1019 1.349 1_554 S
C1004 C1002 1.327 . S
C1004 C1023 1.429 . S
C1004 H1028 0.950 . S
C1005 C1022 1.574 . S
C1005 C1024 1.368 1_556 S
C1005 H1029 0.949 . S
H1006 C1010 0.949 . S
C1007 C1008 1.349 1_556 S
C1007 C1009 1.327 . S
C1007 H1030 0.950 . S
C1008 C1007 1.349 1_554 S
C1008 C1020 1.349 . S
C1009 C1007 1.327 . S
C1009 C1025 1.429 1_556 S
C1009 H1031 0.950 . S
C1010 H1006 0.949 . S
C1010 C1018 1.574 . S
C1010 C1026 1.368 . S
H1011 C1019 0.950 . S
H1012 C1017 0.950 . S
H1013 C1018 0.949 . S
H1014 C1020 0.950 . S
H1015 C1021 0.950 . S
H1016 C1022 0.949 . S
C1017 H1012 0.950 . S
C1017 C1019 1.327 . S
C1017 C1023 1.429 1_556 S
C1018 C1010 1.574 . S
C1018 H1013 0.949 . S
C1018 C1024 1.368 . S
C1019 C1003 1.349 1_556 S
C1019 H1011 0.950 . S
C1019 C1017 1.327 . S
C1020 C1008 1.349 . S
C1020 H1014 0.950 . S
C1020 C1021 1.327 . S
C1021 H1015 0.950 . S
C1021 C1020 1.327 . S
C1021 C1025 1.429 . S
C1022 C1005 1.574 . S
C1022 H1016 0.949 . S
C1022 C1026 1.368 1_556 S
C1023 C1004 1.429 . S
C1023 C1017 1.429 1_554 S
C1023 C1024 1.523 . S
C1024 C1005 1.368 1_554 S
C1024 C1018 1.368 . S
C1024 C1023 1.523 . S
C1025 C1009 1.429 1_554 S
C1025 C1021 1.429 . S
C1025 C1026 1.523 . S
C1026 C1010 1.368 . S
C1026 C1022 1.368 1_554 S
C1026 C1025 1.523 . S
H1027 C1002 0.950 . S
H1028 C1004 0.950 . S
H1029 C1005 0.949 . S
H1030 C1007 0.950 . S
H1031 C1009 0.950 . S
C1032 C1033 1.347 1_556 S
C1032 C1034 1.327 . S
C1032 H1057 0.950 . S
C1033 C1032 1.347 1_554 S
C1033 C1049 1.351 . S
C1034 C1032 1.327 . S
C1034 C1053 1.419 1_556 S
C1034 H1058 0.950 . S
C1035 C1052 1.574 . S
C1035 C1054 1.383 . S
C1035 H1059 0.949 . S
H1036 C1040 0.949 . S
C1037 C1038 1.383 . S
C1037 C1039 1.327 . S
C1037 H1060 0.950 . S
C1038 C1037 1.383 . S
C1038 C1050 1.316 1_554 S
C1039 C1037 1.327 . S
C1039 C1055 1.454 . S
C1039 H1061 0.950 . S
C1040 H1036 0.949 . S
C1040 C1048 1.574 . S
C1040 C1056 1.345 1_556 S
H1041 C1049 0.950 . S
H1042 C1047 0.950 . S
H1043 C1048 0.949 . S
H1044 C1050 0.950 . S
H1045 C1051 0.950 . S
H1046 C1052 0.949 . S
C1047 H1042 0.950 . S
C1047 C1049 1.327 . S
C1047 C1053 1.438 . S
C1048 C1040 1.574 . S
C1048 H1043 0.949 . S
C1048 C1054 1.353 1_556 S
C1049 C1033 1.351 . S
C1049 H1041 0.950 . S
C1049 C1047 1.327 . S
C1050 C1038 1.316 1_556 S
C1050 H1044 0.950 . S
C1050 C1051 1.327 . S
C1051 H1045 0.950 . S
C1051 C1050 1.327 . S
C1051 C1055 1.404 1_556 S
C1052 C1035 1.574 . S
C1052 H1046 0.949 . S
C1052 C1056 1.391 . S
C1053 C1034 1.419 1_554 S
C1053 C1047 1.438 . S
C1053 C1054 1.523 . S
C1054 C1035 1.383 . S
C1054 C1048 1.353 1_554 S
C1054 C1053 1.523 . S
C1055 C1039 1.454 . S
C1055 C1051 1.404 1_554 S
C1055 C1056 1.523 . S
C1056 C1040 1.345 1_554 S
C1056 C1052 1.391 . S
C1056 C1055 1.523 . S
H1057 C1032 0.950 . S
H1058 C1034 0.950 . S
H1059 C1035 0.949 . S
H1060 C1037 0.950 . S
H1061 C1039 0.950 . S
C1062 C1063 1.346 . S
C1062 C1064 1.327 . S
C1062 H1087 0.950 . S
C1063 C1062 1.346 . S
C1063 C1079 1.351 1_554 S
C1064 C1062 1.327 . S
C1064 C1083 1.434 . S
C1064 H1088 0.950 . S
C1065 C1082 1.574 . S
C1065 C1084 1.358 1_556 S
C1065 H1089 0.949 . S
H1066 C1070 0.949 . S
C1067 C1068 1.318 1_556 S
C1067 C1069 1.327 . S
C1067 H1090 0.950 . S
C1068 C1067 1.318 1_554 S
C1068 C1080 1.380 . S
C1069 C1067 1.327 . S
C1069 C1085 1.407 1_556 S
C1069 H1091 0.950 . S
C1070 H1066 0.949 . S
C1070 C1078 1.574 . S
C1070 C1086 1.387 . S
H1071 C1079 0.950 . S
H1072 C1077 0.950 . S
H1073 C1078 0.949 . S
H1074 C1080 0.950 . S
H1075 C1081 0.950 . S
H1076 C1082 0.949 . S
C1077 H1072 0.950 . S
C1077 C1079 1.327 . S
C1077 C1083 1.423 1_556 S
C1078 C1070 1.574 . S
C1078 H1073 0.949 . S
C1078 C1084 1.379 . S
C1079 C1063 1.351 1_556 S
C1079 H1071 0.950 . S
C1079 C1077 1.327 . S
C1080 C1068 1.380 . S
C1080 H1074 0.950 . S
C1080 C1081 1.327 . S
C1081 H1075 0.950 . S
C1081 C1080 1.327 . S
C1081 C1085 1.451 . S
C1082 C1065 1.574 . S
C1082 H1076 0.949 . S
C1082 C1086 1.349 1_556 S
C1083 C1064 1.434 . S
C1083 C1077 1.423 1_554 S
C1083 C1084 1.523 . S
C1084 C1065 1.358 1_554 S
C1084 C1078 1.379 . S
C1084 C1083 1.523 . S
C1085 C1069 1.407 1_554 S
C1085 C1081 1.451 . S
C1085 C1086 1.523 . S
C1086 C1070 1.387 . S
C1086 C1082 1.349 1_554 S
C1086 C1085 1.523 . S
H1087 C1062 0.950 . S
H1088 C1064 0.950 . S
H1089 C1065 0.949 . S
H1090 C1067 0.950 . S
H1091 C1069 0.950 . S
C1092 C1093 1.349 . S
C1092 C1094 1.327 . S
C1092 H1117 0.950 . S
C1093 C1092 1.349 . S
C1093 C1109 1.349 . S
C1094 C1092 1.327 . S
C1094 C1113 1.429 . S
C1094 H1118 0.950 . S
C1095 C1112 1.574 . S
C1095 C1114 1.367 . S
C1095 H1119 0.950 1_455 S
H1096 C1100 0.949 . S
C1097 C1098 1.349 . S
C1097 C1099 1.327 . S
C1097 H1120 0.950 1_455 S
C1098 C1097 1.349 . S
C1098 C1110 1.349 . S
C1099 C1097 1.327 . S
C1099 C1115 1.429 . S
C1099 H1121 0.950 1_455 S
C1100 H1096 0.949 . S
C1100 C1108 1.574 . S
C1100 C1116 1.368 . S
H1101 C1109 0.950 1_655 S
H1102 C1107 0.913 1_655 S
H1103 C1108 0.949 . S
H1104 C1110 0.950 . S
H1105 C1111 0.950 . S
H1106 C1112 0.949 1_655 S
C1107 H1102 0.913 1_455 S
C1107 C1109 1.329 . S
C1107 C1113 1.464 . S
C1108 C1100 1.574 . S
C1108 H1103 0.949 . S
C1108 C1114 1.368 . S
C1109 C1093 1.349 . S
C1109 H1101 0.950 1_455 S
C1109 C1107 1.329 . S
C1110 C1098 1.349 . S
C1110 H1104 0.950 . S
C1110 C1111 1.327 . S
C1111 H1105 0.950 . S
C1111 C1110 1.327 . S
C1111 C1115 1.429 . S
C1112 C1095 1.574 . S
C1112 H1106 0.949 1_455 S
C1112 C1116 1.369 . S
C1113 C1094 1.429 . S
C1113 C1107 1.464 . S
C1113 C1114 1.523 . S
C1114 C1095 1.367 . S
C1114 C1108 1.368 . S
C1114 C1113 1.523 . S
C1115 C1099 1.429 . S
C1115 C1111 1.429 . S
C1115 C1116 1.523 . S
C1116 C1100 1.368 . S
C1116 C1112 1.369 . S
C1116 C1115 1.523 . S
H1117 C1092 0.950 . S
H1118 C1094 0.950 . S
H1119 C1095 0.950 1_655 S
H1120 C1097 0.950 1_655 S
H1121 C1099 0.950 1_655 S
C1122 C1123 1.350 . S
C1122 C1124 1.327 . S
C1122 H1147 0.950 . S
C1123 C1122 1.350 . S
C1123 C1139 1.348 1_545 S
C1124 C1122 1.327 . S
C1124 C1143 1.438 . S
C1124 H1148 0.950 . S
C1125 C1142 1.574 . S
C1125 C1144 1.353 1_565 S
C1125 H1149 0.949 . S
H1126 C1130 0.949 . S
C1127 C1128 1.349 1_565 S
C1127 C1129 1.327 . S
C1127 H1150 0.950 . S
C1128 C1127 1.349 1_545 S
C1128 C1140 1.349 . S
C1129 C1127 1.327 . S
C1129 C1145 1.402 1_565 S
C1129 H1151 0.950 . S
C1130 H1126 0.949 . S
C1130 C1138 1.574 . S
C1130 C1146 1.393 . S
H1131 C1139 0.950 . S
H1132 C1137 0.950 . S
H1133 C1138 0.949 . S
H1134 C1140 0.950 . S
H1135 C1141 0.950 . S
H1136 C1142 0.949 . S
C1137 H1132 0.950 . S
C1137 C1139 1.327 . S
C1137 C1143 1.419 1_565 S
C1138 C1130 1.574 . S
C1138 H1133 0.949 . S
C1138 C1144 1.384 . S
C1139 C1123 1.348 1_565 S
C1139 H1131 0.950 . S
C1139 C1137 1.327 . S
C1140 C1128 1.349 . S
C1140 H1134 0.950 . S
C1140 C1141 1.327 . S
C1141 H1135 0.950 . S
C1141 C1140 1.327 . S
C1141 C1145 1.456 . S
C1142 C1125 1.574 . S
C1142 H1136 0.949 . S
C1142 C1146 1.344 1_565 S
C1143 C1124 1.438 . S
C1143 C1137 1.419 1_545 S
C1143 C1144 1.523 . S
C1144 C1125 1.353 1_545 S
C1144 C1138 1.384 . S
C1144 C1143 1.523 . S
C1145 C1129 1.402 1_545 S
C1145 C1141 1.456 . S
C1145 C1146 1.523 . S
C1146 C1130 1.393 . S
C1146 C1142 1.344 1_545 S
C1146 C1145 1.523 . S
H1147 C1122 0.950 . S
H1148 C1124 0.950 . S
H1149 C1125 0.949 . S
H1150 C1127 0.950 . S
H1151 C1129 0.950 . S
C1152 C1153 1.349 . S
C1152 C1154 1.327 . S
C1152 H1177 0.950 . S
C1153 C1152 1.349 . S
C1153 C1169 1.349 . S
C1154 C1152 1.327 . S
C1154 C1173 1.429 . S
C1154 H1178 0.950 . S
C1155 C1172 1.574 . S
C1155 C1174 1.368 . S
C1155 H1179 0.949 1_455 S
H1156 C1160 0.949 . S
C1157 C1158 1.349 . S
C1157 C1159 1.327 . S
C1157 H1180 0.950 1_455 S
C1158 C1157 1.349 . S
C1158 C1170 1.349 . S
C1159 C1157 1.327 . S
C1159 C1175 1.429 . S
C1159 H1181 0.950 1_455 S
C1160 H1156 0.949 . S
C1160 C1168 1.574 . S
C1160 C1176 1.368 . S
H1161 C1169 0.950 1_655 S
H1162 C1167 0.950 1_655 S
H1163 C1168 0.949 . S
H1164 C1170 0.950 . S
H1165 C1171 0.950 . S
H1166 C1172 0.949 1_655 S
C1167 H1162 0.950 1_455 S
C1167 C1169 1.327 . S
C1167 C1173 1.429 . S
C1168 C1160 1.574 . S
C1168 H1163 0.949 . S
C1168 C1174 1.368 . S
C1169 C1153 1.349 . S
C1169 H1161 0.950 1_455 S
C1169 C1167 1.327 . S
C1170 C1158 1.349 . S
C1170 H1164 0.950 . S
C1170 C1171 1.327 . S
C1171 H1165 0.950 . S
C1171 C1170 1.327 . S
C1171 C1175 1.429 . S
C1172 C1155 1.574 . S
C1172 H1166 0.949 1_455 S
C1172 C1176 1.368 . S
C1173 C1154 1.429 . S
C1173 C1167 1.429 . S
C1173 C1174 1.523 . S
C1174 C1155 1.368 . S
C1174 C1168 1.368 . S
C1174 C1173 1.523 . S
C1175 C1159 1.429 . S
C1175 C1171 1.429 . S
C1175 C1176 1.523 . S
C1176 C1160 1.368 . S
C1176 C1172 1.368 . S
C1176 C1175 1.523 . S
H1177 C1152 0.950 . S
H1178 C1154 0.950 . S
H1179 C1155 0.949 1_655 S
H1180 C1157 0.950 1_655 S
H1181 C1159 0.950 1_655 S
C1182 C1183 1.351 . S
C1182 C1184 1.327 . S
C1182 H1207 0.950 . S
C1183 C1182 1.351 . S
C1183 C1199 1.347 1_545 S
C1184 C1182 1.327 . S
C1184 C1203 1.439 . S
C1184 H1208 0.950 . S
C1185 C1202 1.574 . S
C1185 C1204 1.353 1_565 S
C1185 H1209 0.949 . S
H1186 C1190 0.949 . S
C1187 C1188 1.314 1_565 S
C1187 C1189 1.327 . S
C1187 H1210 0.950 . S
C1188 C1187 1.314 1_545 S
C1188 C1200 1.385 . S
C1189 C1187 1.327 . S
C1189 C1205 1.402 1_565 S
C1189 H1211 0.950 . S
C1190 H1186 0.949 . S
C1190 C1198 1.574 . S
C1190 C1206 1.393 . S
H1191 C1199 0.950 . S
H1192 C1197 0.950 . S
H1193 C1198 0.949 . S
H1194 C1200 0.950 . S
H1195 C1201 0.950 . S
H1196 C1202 0.949 . S
C1197 H1192 0.950 . S
C1197 C1199 1.327 . S
C1197 C1203 1.419 1_565 S
C1198 C1190 1.574 . S
C1198 H1193 0.949 . S
C1198 C1204 1.384 . S
C1199 C1183 1.347 1_565 S
C1199 H1191 0.950 . S
C1199 C1197 1.327 . S
C1200 C1188 1.385 . S
C1200 H1194 0.950 . S
C1200 C1201 1.327 . S
C1201 H1195 0.950 . S
C1201 C1200 1.327 . S
C1201 C1205 1.455 . S
C1202 C1185 1.574 . S
C1202 H1196 0.949 . S
C1202 C1206 1.344 1_565 S
C1203 C1184 1.439 . S
C1203 C1197 1.419 1_545 S
C1203 C1204 1.523 . S
C1204 C1185 1.353 1_545 S
C1204 C1198 1.384 . S
C1204 C1203 1.523 . S
C1205 C1189 1.402 1_545 S
C1205 C1201 1.455 . S
C1205 C1206 1.523 . S
C1206 C1190 1.393 . S
C1206 C1202 1.344 1_545 S
C1206 C1205 1.523 . S
H1207 C1182 0.950 . S
H1208 C1184 0.950 . S
H1209 C1185 0.949 . S
H1210 C1187 0.950 . S
H1211 C1189 0.950 . S
C1212 C1213 1.349 . S
C1212 C1214 1.327 . S
C1212 H1237 0.950 . S
C1213 C1212 1.349 . S
C1213 C1229 1.349 . S
C1214 C1212 1.327 . S
C1214 C1233 1.429 . S
C1214 H1238 0.950 . S
C1215 C1232 1.574 . S
C1215 C1234 1.368 . S
C1215 H1239 0.949 . S
H1216 C1220 0.949 . S
C1217 C1218 1.349 . S
C1217 C1219 1.327 . S
C1217 H1240 0.950 . S
C1218 C1217 1.349 . S
C1218 C1230 1.349 . S
C1219 C1217 1.327 . S
C1219 C1235 1.429 . S
C1219 H1241 0.950 . S
C1220 H1216 0.949 . S
C1220 C1228 1.574 . S
C1220 C1236 1.368 . S
H1221 C1229 0.950 . S
H1222 C1227 0.950 . S
H1223 C1228 0.949 . S
H1224 C1230 0.950 . S
H1225 C1231 0.950 . S
H1226 C1232 0.949 . S
C1227 H1222 0.950 . S
C1227 C1229 1.327 . S
C1227 C1233 1.429 . S
C1228 C1220 1.574 . S
C1228 H1223 0.949 . S
C1228 C1234 1.368 . S
C1229 C1213 1.349 . S
C1229 H1221 0.950 . S
C1229 C1227 1.327 . S
C1230 C1218 1.349 . S
C1230 H1224 0.950 . S
C1230 C1231 1.327 . S
C1231 H1225 0.950 . S
C1231 C1230 1.327 . S
C1231 C1235 1.429 . S
C1232 C1215 1.574 . S
C1232 H1226 0.949 . S
C1232 C1236 1.368 . S
C1233 C1214 1.429 . S
C1233 C1227 1.429 . S
C1233 C1234 1.523 . S
C1234 C1215 1.368 . S
C1234 C1228 1.368 . S
C1234 C1233 1.523 . S
C1235 C1219 1.429 . S
C1235 C1231 1.429 . S
C1235 C1236 1.523 . S
C1236 C1220 1.368 . S
C1236 C1232 1.368 . S
C1236 C1235 1.523 . S
H1237 C1212 0.950 . S
H1238 C1214 0.950 . S
H1239 C1215 0.949 . S
H1240 C1217 0.950 . S
H1241 C1219 0.950 . S
C1242 C1243 1.349 1_565 S
C1242 C1244 1.327 . S
C1242 H1267 0.950 . S
C1243 C1242 1.349 1_545 S
C1243 C1259 1.349 . S
C1244 C1242 1.327 . S
C1244 C1263 1.429 1_565 S
C1244 H1268 0.950 . S
C1245 C1262 1.574 . S
C1245 C1264 1.368 . S
C1245 H1269 0.949 . S
H1246 C1250 0.949 . S
C1247 C1248 1.349 . S
C1247 C1249 1.327 . S
C1247 H1270 0.950 . S
C1248 C1247 1.349 . S
C1248 C1260 1.349 1_545 S
C1249 C1247 1.327 . S
C1249 C1265 1.429 . S
C1249 H1271 0.950 . S
C1250 H1246 0.949 . S
C1250 C1258 1.574 . S
C1250 C1266 1.368 1_565 S
H1251 C1259 0.950 . S
H1252 C1257 0.950 . S
H1253 C1258 0.949 . S
H1254 C1260 0.950 . S
H1255 C1261 0.950 . S
H1256 C1262 0.949 . S
C1257 H1252 0.950 . S
C1257 C1259 1.327 . S
C1257 C1263 1.429 . S
C1258 C1250 1.574 . S
C1258 H1253 0.949 . S
C1258 C1264 1.368 1_565 S
C1259 C1243 1.349 . S
C1259 H1251 0.950 . S
C1259 C1257 1.327 . S
C1260 C1248 1.349 1_565 S
C1260 H1254 0.950 . S
C1260 C1261 1.327 . S
C1261 H1255 0.950 . S
C1261 C1260 1.327 . S
C1261 C1265 1.429 1_565 S
C1262 C1245 1.574 . S
C1262 H1256 0.949 . S
C1262 C1266 1.368 . S
C1263 C1244 1.429 1_545 S
C1263 C1257 1.429 . S
C1263 C1264 1.523 . S
C1264 C1245 1.368 . S
C1264 C1258 1.368 1_545 S
C1264 C1263 1.523 . S
C1265 C1249 1.429 . S
C1265 C1261 1.429 1_545 S
C1265 C1266 1.523 . S
C1266 C1250 1.368 1_545 S
C1266 C1262 1.368 . S
C1266 C1265 1.523 . S
H1267 C1242 0.950 . S
H1268 C1244 0.950 . S
H1269 C1245 0.949 . S
H1270 C1247 0.950 . S
H1271 C1249 0.950 . S
C1272 C1273 1.349 . S
C1272 C1274 1.327 . S
C1272 H1297 0.950 . S
C1273 C1272 1.349 . S
C1273 C1289 1.349 . S
C1274 C1272 1.327 . S
C1274 C1293 1.429 . S
C1274 H1298 0.950 . S
C1275 C1292 1.574 . S
C1275 C1294 1.368 . S
C1275 H1299 0.949 . S
H1276 C1280 0.949 . S
C1277 C1278 1.349 . S
C1277 C1279 1.327 . S
C1277 H1300 0.950 . S
C1278 C1277 1.349 . S
C1278 C1290 1.349 . S
C1279 C1277 1.327 . S
C1279 C1295 1.429 . S
C1279 H1301 0.950 . S
C1280 H1276 0.949 . S
C1280 C1288 1.574 . S
C1280 C1296 1.368 . S
H1281 C1289 0.950 . S
H1282 C1287 0.950 . S
H1283 C1288 0.949 . S
H1284 C1290 0.950 . S
H1285 C1291 0.950 . S
H1286 C1292 0.949 . S
C1287 H1282 0.950 . S
C1287 C1289 1.327 . S
C1287 C1293 1.429 . S
C1288 C1280 1.574 . S
C1288 H1283 0.949 . S
C1288 C1294 1.368 . S
C1289 C1273 1.349 . S
C1289 H1281 0.950 . S
C1289 C1287 1.327 . S
C1290 C1278 1.349 . S
C1290 H1284 0.950 . S
C1290 C1291 1.327 . S
C1291 H1285 0.950 . S
C1291 C1290 1.327 . S
C1291 C1295 1.429 . S
C1292 C1275 1.574 . S
C1292 H1286 0.949 . S
C1292 C1296 1.368 . S
C1293 C1274 1.429 . S
C1293 C1287 1.429 . S
C1293 C1294 1.523 . S
C1294 C1275 1.368 . S
C1294 C1288 1.368 . S
C1294 C1293 1.523 . S
C1295 C1279 1.429 . S
C1295 C1291 1.429 . S
C1295 C1296 1.523 . S
C1296 C1280 1.368 . S
C1296 C1292 1.368 . S
C1296 C1295 1.523 . S
H1297 C1272 0.950 . S
H1298 C1274 0.950 . S
H1299 C1275 0.949 . S
H1300 C1277 0.950 . S
H1301 C1279 0.950 . S
C1302 C1303 1.349 1_565 S
C1302 C1304 1.327 . S
C1302 H1327 0.950 . S
C1303 C1302 1.349 1_545 S
C1303 C1319 1.349 . S
C1304 C1302 1.327 . S
C1304 C1323 1.429 1_565 S
C1304 H1328 0.950 . S
C1305 C1322 1.574 . S
C1305 C1324 1.368 . S
C1305 H1329 0.949 . S
H1306 C1310 0.949 . S
C1307 C1308 1.349 . S
C1307 C1309 1.327 . S
C1307 H1330 0.950 . S
C1308 C1307 1.349 . S
C1308 C1320 1.349 1_545 S
C1309 C1307 1.327 . S
C1309 C1325 1.429 . S
C1309 H1331 0.950 . S
C1310 H1306 0.949 . S
C1310 C1318 1.574 . S
C1310 C1326 1.368 1_565 S
H1311 C1319 0.950 . S
H1312 C1317 0.950 . S
H1313 C1318 0.949 . S
H1314 C1320 0.950 . S
H1315 C1321 0.950 . S
H1316 C1322 0.949 . S
C1317 H1312 0.950 . S
C1317 C1319 1.327 . S
C1317 C1323 1.429 . S
C1318 C1310 1.574 . S
C1318 H1313 0.949 . S
C1318 C1324 1.368 1_565 S
C1319 C1303 1.349 . S
C1319 H1311 0.950 . S
C1319 C1317 1.327 . S
C1320 C1308 1.349 1_565 S
C1320 H1314 0.950 . S
C1320 C1321 1.327 . S
C1321 H1315 0.950 . S
C1321 C1320 1.327 . S
C1321 C1325 1.429 1_565 S
C1322 C1305 1.574 . S
C1322 H1316 0.949 . S
C1322 C1326 1.368 . S
C1323 C1304 1.429 1_545 S
C1323 C1317 1.429 . S
C1323 C1324 1.523 . S
C1324 C1305 1.368 . S
C1324 C1318 1.368 1_545 S
C1324 C1323 1.523 . S
C1325 C1309 1.429 . S
C1325 C1321 1.429 1_545 S
C1325 C1326 1.523 . S
C1326 C1310 1.368 1_545 S
C1326 C1322 1.368 . S
C1326 C1325 1.523 . S
H1327 C1302 0.950 . S
H1328 C1304 0.950 . S
H1329 C1305 0.949 . S
H1330 C1307 0.950 . S
H1331 C1309 0.950 . S
C1332 C1333 1.349 . S
C1332 C1334 1.327 . S
C1332 H1357 0.965 . S
C1333 C1332 1.349 . S
C1333 C1349 1.349 . S
C1334 C1332 1.327 . S
C1334 C1353 1.429 . S
C1334 H1358 0.950 . S
C1335 C1352 1.574 . S
C1335 C1354 1.368 . S
C1335 H1359 0.949 . S
H1336 C1340 0.949 . S
C1337 C1338 1.349 . S
C1337 C1339 1.327 . S
C1337 H1360 0.950 . S
C1338 C1337 1.349 . S
C1338 C1350 1.349 . S
C1339 C1337 1.327 . S
C1339 C1355 1.429 . S
C1339 H1361 0.950 . S
C1340 H1336 0.949 . S
C1340 C1348 1.574 . S
C1340 C1356 1.368 . S
H1341 C1349 0.950 . S
H1342 C1347 0.950 . S
H1343 C1348 0.949 . S
H1344 C1350 0.950 . S
H1345 C1351 0.950 . S
H1346 C1352 0.949 . S
C1347 H1342 0.950 . S
C1347 C1349 1.327 . S
C1347 C1353 1.429 . S
C1348 C1340 1.574 . S
C1348 H1343 0.949 . S
C1348 C1354 1.368 . S
C1349 C1333 1.349 . S
C1349 H1341 0.950 . S
C1349 C1347 1.327 . S
C1350 C1338 1.349 . S
C1350 H1344 0.950 . S
C1350 C1351 1.327 . S
C1351 H1345 0.950 . S
C1351 C1350 1.327 . S
C1351 C1355 1.429 . S
C1352 C1335 1.574 . S
C1352 H1346 0.949 . S
C1352 C1356 1.368 . S
C1353 C1334 1.429 . S
C1353 C1347 1.429 . S
C1353 C1354 1.523 . S
C1354 C1335 1.368 . S
C1354 C1348 1.368 . S
C1354 C1353 1.523 . S
C1355 C1339 1.429 . S
C1355 C1351 1.429 . S
C1355 C1356 1.523 . S
C1356 C1340 1.368 . S
C1356 C1352 1.368 . S
C1356 C1355 1.523 . S
H1357 C1332 0.965 . S
H1358 C1334 0.950 . S
H1359 C1335 0.949 . S
H1360 C1337 0.950 . S
H1361 C1339 0.950 . S
C1362 C1363 1.349 . S
C1362 C1364 1.327 . S
C1362 H1387 0.950 . S
C1363 C1362 1.349 . S
C1363 C1379 1.349 1_545 S
C1364 C1362 1.327 . S
C1364 C1383 1.429 . S
C1364 H1388 0.950 . S
C1365 C1382 1.574 . S
C1365 C1384 1.368 1_565 S
C1365 H1389 0.949 . S
H1366 C1370 0.949 . S
C1367 C1368 1.349 1_565 S
C1367 C1369 1.327 . S
C1367 H1390 0.950 . S
C1368 C1367 1.349 1_545 S
C1368 C1380 1.349 . S
C1369 C1367 1.327 . S
C1369 C1385 1.429 1_565 S
C1369 H1391 0.950 . S
C1370 H1366 0.949 . S
C1370 C1378 1.574 . S
C1370 C1386 1.368 . S
H1371 C1379 0.950 . S
H1372 C1377 0.950 . S
H1373 C1378 0.949 . S
H1374 C1380 0.950 . S
H1375 C1381 0.950 . S
H1376 C1382 0.949 . S
C1377 H1372 0.950 . S
C1377 C1379 1.327 . S
C1377 C1383 1.429 1_565 S
C1378 C1370 1.574 . S
C1378 H1373 0.949 . S
C1378 C1384 1.368 . S
C1379 C1363 1.349 1_565 S
C1379 H1371 0.950 . S
C1379 C1377 1.327 . S
C1380 C1368 1.349 . S
C1380 H1374 0.950 . S
C1380 C1381 1.327 . S
C1381 H1375 0.950 . S
C1381 C1380 1.327 . S
C1381 C1385 1.429 . S
C1382 C1365 1.574 . S
C1382 H1376 0.949 . S
C1382 C1386 1.368 1_565 S
C1383 C1364 1.429 . S
C1383 C1377 1.429 1_545 S
C1383 C1384 1.523 . S
C1384 C1365 1.368 1_545 S
C1384 C1378 1.368 . S
C1384 C1383 1.523 . S
C1385 C1369 1.429 1_545 S
C1385 C1381 1.429 . S
C1385 C1386 1.523 . S
C1386 C1370 1.368 . S
C1386 C1382 1.368 1_545 S
C1386 C1385 1.523 . S
H1387 C1362 0.950 . S
H1388 C1364 0.950 . S
H1389 C1365 0.949 . S
H1390 C1367 0.950 . S
H1391 C1369 0.950 . S
C1392 C1393 1.349 . S
C1392 C1394 1.327 . S
C1392 H1417 0.950 1_455 S
C1393 C1392 1.349 . S
C1393 C1409 1.349 . S
C1394 C1392 1.327 . S
C1394 C1413 1.429 . S
C1394 H1418 0.950 1_455 S
C1395 C1412 1.574 . S
C1395 C1414 1.368 . S
C1395 H1419 0.949 . S
H1396 C1400 0.950 1_655 S
C1397 C1398 1.349 . S
C1397 C1399 1.327 . S
C1397 H1420 0.950 . S
C1398 C1397 1.349 . S
C1398 C1410 1.349 . S
C1399 C1397 1.327 . S
C1399 C1415 1.429 . S
C1399 H1421 0.950 . S
C1400 H1396 0.950 1_455 S
C1400 C1408 1.574 . S
C1400 C1416 1.368 . S
H1401 C1409 0.950 . S
H1402 C1407 0.950 . S
H1403 C1408 0.949 1_655 S
H1404 C1410 0.950 . S
H1405 C1411 0.950 . S
H1406 C1412 0.949 . S
C1407 H1402 0.950 . S
C1407 C1409 1.327 . S
C1407 C1413 1.429 . S
C1408 C1400 1.574 . S
C1408 H1403 0.949 1_455 S
C1408 C1414 1.368 . S
C1409 C1393 1.349 . S
C1409 H1401 0.950 . S
C1409 C1407 1.327 . S
C1410 C1398 1.349 . S
C1410 H1404 0.950 . S
C1410 C1411 1.327 . S
C1411 H1405 0.950 . S
C1411 C1410 1.327 . S
C1411 C1415 1.429 . S
C1412 C1395 1.574 . S
C1412 H1406 0.949 . S
C1412 C1416 1.368 . S
C1413 C1394 1.429 . S
C1413 C1407 1.429 . S
C1413 C1414 1.523 . S
C1414 C1395 1.368 . S
C1414 C1408 1.368 . S
C1414 C1413 1.523 . S
C1415 C1399 1.429 . S
C1415 C1411 1.429 . S
C1415 C1416 1.523 . S
C1416 C1400 1.368 . S
C1416 C1412 1.368 . S
C1416 C1415 1.523 . S
H1417 C1392 0.950 1_655 S
H1418 C1394 0.950 1_655 S
H1419 C1395 0.949 . S
H1420 C1397 0.950 . S
H1421 C1399 0.950 . S
C1422 C1423 1.349 . S
C1422 C1424 1.327 . S
C1422 H1447 0.950 . S
C1423 C1422 1.349 . S
C1423 C1439 1.349 1_545 S
C1424 C1422 1.327 . S
C1424 C1443 1.429 . S
C1424 H1448 0.950 . S
C1425 C1442 1.574 . S
C1425 C1444 1.368 1_565 S
C1425 H1449 0.949 . S
H1426 C1430 0.949 . S
C1427 C1428 1.349 1_565 S
C1427 C1429 1.327 . S
C1427 H1450 0.950 . S
C1428 C1427 1.349 1_545 S
C1428 C1440 1.349 . S
C1429 C1427 1.327 . S
C1429 C1445 1.429 1_565 S
C1429 H1451 0.950 . S
C1430 H1426 0.949 . S
C1430 C1438 1.574 . S
C1430 C1446 1.368 . S
H1431 C1439 0.950 . S
H1432 C1437 0.950 . S
H1433 C1438 0.949 . S
H1434 C1440 0.950 . S
H1435 C1441 0.950 . S
H1436 C1442 0.949 . S
C1437 H1432 0.950 . S
C1437 C1439 1.327 . S
C1437 C1443 1.429 1_565 S
C1438 C1430 1.574 . S
C1438 H1433 0.949 . S
C1438 C1444 1.368 . S
C1439 C1423 1.349 1_565 S
C1439 H1431 0.950 . S
C1439 C1437 1.327 . S
C1440 C1428 1.349 . S
C1440 H1434 0.950 . S
C1440 C1441 1.327 . S
C1441 H1435 0.950 . S
C1441 C1440 1.327 . S
C1441 C1445 1.429 . S
C1442 C1425 1.574 . S
C1442 H1436 0.949 . S
C1442 C1446 1.368 1_565 S
C1443 C1424 1.429 . S
C1443 C1437 1.429 1_545 S
C1443 C1444 1.523 . S
C1444 C1425 1.368 1_545 S
C1444 C1438 1.368 . S
C1444 C1443 1.523 . S
C1445 C1429 1.429 1_545 S
C1445 C1441 1.429 . S
C1445 C1446 1.523 . S
C1446 C1430 1.368 . S
C1446 C1442 1.368 1_545 S
C1446 C1445 1.523 . S
H1447 C1422 0.950 . S
H1448 C1424 0.950 . S
H1449 C1425 0.949 . S
H1450 C1427 0.950 . S
H1451 C1429 0.950 . S
C1452 C1453 1.349 . S
C1452 C1454 1.327 . S
C1452 H1477 0.950 . S
C1453 C1452 1.349 . S
C1453 C1469 1.349 . S
C1454 C1452 1.327 . S
C1454 C1473 1.429 . S
C1454 H1478 0.950 . S
C1455 C1472 1.574 . S
C1455 C1474 1.368 . S
C1455 H1479 0.949 . S
H1456 C1460 0.949 . S
C1457 C1458 1.349 . S
C1457 C1459 1.327 . S
C1457 H1480 0.950 . S
C1458 C1457 1.349 . S
C1458 C1470 1.349 . S
C1459 C1457 1.327 . S
C1459 C1475 1.429 . S
C1459 H1481 0.950 . S
C1460 H1456 0.949 . S
C1460 C1468 1.574 . S
C1460 C1476 1.368 . S
H1461 C1469 0.950 . S
H1462 C1467 0.950 . S
H1463 C1468 0.949 . S
H1464 C1470 0.950 . S
H1465 C1471 0.950 . S
H1466 C1472 0.949 . S
C1467 H1462 0.950 . S
C1467 C1469 1.327 . S
C1467 C1473 1.429 . S
C1468 C1460 1.574 . S
C1468 H1463 0.949 . S
C1468 C1474 1.368 . S
C1469 C1453 1.349 . S
C1469 H1461 0.950 . S
C1469 C1467 1.327 . S
C1470 C1458 1.349 . S
C1470 H1464 0.950 . S
C1470 C1471 1.327 . S
C1471 H1465 0.950 . S
C1471 C1470 1.327 . S
C1471 C1475 1.429 . S
C1472 C1455 1.574 . S
C1472 H1466 0.949 . S
C1472 C1476 1.368 . S
C1473 C1454 1.429 . S
C1473 C1467 1.429 . S
C1473 C1474 1.523 . S
C1474 C1455 1.368 . S
C1474 C1468 1.368 . S
C1474 C1473 1.523 . S
C1475 C1459 1.429 . S
C1475 C1471 1.429 . S
C1475 C1476 1.523 . S
C1476 C1460 1.368 . S
C1476 C1472 1.368 . S
C1476 C1475 1.523 . S
H1477 C1452 0.950 . S
H1478 C1454 0.950 . S
H1479 C1455 0.949 . S
H1480 C1457 0.950 . S
H1481 C1459 0.950 . S
C1482 C1483 1.346 . S
C1482 C1484 1.327 . S
C1482 H1507 0.950 . S
C1483 C1482 1.346 . S
C1483 C1499 1.351 1_545 S
C1484 C1482 1.327 . S
C1484 C1503 1.434 . S
C1484 H1508 0.950 . S
C1485 C1502 1.574 . S
C1485 C1504 1.357 1_565 S
C1485 H1509 0.949 . S
H1486 C1490 0.949 . S
C1487 C1488 1.317 1_565 S
C1487 C1489 1.327 . S
C1487 H1510 0.950 . S
C1488 C1487 1.317 1_545 S
C1488 C1500 1.381 . S
C1489 C1487 1.327 . S
C1489 C1505 1.406 1_565 S
C1489 H1511 0.950 . S
C1490 H1486 0.949 . S
C1490 C1498 1.574 . S
C1490 C1506 1.388 . S
H1491 C1499 0.950 . S
H1492 C1497 0.950 . S
H1493 C1498 0.949 . S
H1494 C1500 0.950 . S
H1495 C1501 0.950 . S
H1496 C1502 0.949 . S
C1497 H1492 0.950 . S
C1497 C1499 1.327 . S
C1497 C1503 1.423 1_565 S
C1498 C1490 1.574 . S
C1498 H1493 0.949 . S
C1498 C1504 1.380 . S
C1499 C1483 1.351 1_565 S
C1499 H1491 0.950 . S
C1499 C1497 1.327 . S
C1500 C1488 1.381 . S
C1500 H1494 0.950 . S
C1500 C1501 1.327 . S
C1501 H1495 0.950 . S
C1501 C1500 1.327 . S
C1501 C1505 1.451 . S
C1502 C1485 1.574 . S
C1502 H1496 0.949 . S
C1502 C1506 1.349 1_565 S
C1503 C1484 1.434 . S
C1503 C1497 1.423 1_545 S
C1503 C1504 1.523 . S
C1504 C1485 1.357 1_545 S
C1504 C1498 1.380 . S
C1504 C1503 1.523 . S
C1505 C1489 1.406 1_545 S
C1505 C1501 1.451 . S
C1505 C1506 1.523 . S
C1506 C1490 1.388 . S
C1506 C1502 1.349 1_545 S
C1506 C1505 1.523 . S
H1507 C1482 0.950 . S
H1508 C1484 0.950 . S
H1509 C1485 0.949 . S
H1510 C1487 0.950 . S
H1511 C1489 0.950 . S
C1512 C1513 1.349 . S
C1512 C1514 1.327 . S
C1512 H1537 0.950 . S
C1513 C1512 1.349 . S
C1513 C1529 1.349 . S
C1514 C1512 1.327 . S
C1514 C1533 1.429 . S
C1514 H1538 0.950 . S
C1515 C1532 1.574 . S
C1515 C1534 1.368 . S
C1515 H1539 0.949 . S
H1516 C1520 0.949 . S
C1517 C1518 1.349 . S
C1517 C1519 1.327 . S
C1517 H1540 0.950 . S
C1518 C1517 1.349 . S
C1518 C1530 1.349 . S
C1519 C1517 1.327 . S
C1519 C1535 1.429 . S
C1519 H1541 0.950 . S
C1520 H1516 0.949 . S
C1520 C1528 1.574 . S
C1520 C1536 1.368 . S
H1521 C1529 0.950 . S
H1522 C1527 0.950 . S
H1523 C1528 0.949 . S
H1524 C1530 0.950 . S
H1525 C1531 0.950 . S
H1526 C1532 0.949 . S
C1527 H1522 0.950 . S
C1527 C1529 1.327 . S
C1527 C1533 1.429 . S
C1528 C1520 1.574 . S
C1528 H1523 0.949 . S
C1528 C1534 1.368 . S
C1529 C1513 1.349 . S
C1529 H1521 0.950 . S
C1529 C1527 1.327 . S
C1530 C1518 1.349 . S
C1530 H1524 0.950 . S
C1530 C1531 1.327 . S
C1531 H1525 0.950 . S
C1531 C1530 1.327 . S
C1531 C1535 1.429 . S
C1532 C1515 1.574 . S
C1532 H1526 0.949 . S
C1532 C1536 1.368 . S
C1533 C1514 1.429 . S
C1533 C1527 1.429 . S
C1533 C1534 1.523 . S
C1534 C1515 1.368 . S
C1534 C1528 1.368 . S
C1534 C1533 1.523 . S
C1535 C1519 1.429 . S
C1535 C1531 1.429 . S
C1535 C1536 1.523 . S
C1536 C1520 1.368 . S
C1536 C1532 1.368 . S
C1536 C1535 1.523 . S
H1537 C1512 0.950 . S
H1538 C1514 0.950 . S
H1539 C1515 0.949 . S
H1540 C1517 0.950 . S
H1541 C1519 0.950 . S
C1542 C1543 1.347 . S
C1542 C1544 1.327 . S
C1542 H1567 0.950 . S
C1543 C1542 1.347 . S
C1543 C1559 1.351 1_545 S
C1544 C1542 1.327 . S
C1544 C1563 1.435 . S
C1544 H1568 0.950 . S
C1545 C1562 1.574 . S
C1545 C1564 1.357 1_565 S
C1545 H1569 0.949 . S
H1546 C1550 0.949 . S
C1547 C1548 1.318 1_565 S
C1547 C1549 1.327 . S
C1547 H1570 0.950 . S
C1548 C1547 1.318 1_545 S
C1548 C1560 1.380 . S
C1549 C1547 1.327 . S
C1549 C1565 1.407 1_565 S
C1549 H1571 0.950 . S
C1550 H1546 0.949 . S
C1550 C1558 1.574 . S
C1550 C1566 1.388 . S
H1551 C1559 0.950 . S
H1552 C1557 0.950 . S
H1553 C1558 0.949 . S
H1554 C1560 0.950 . S
H1555 C1561 0.950 . S
H1556 C1562 0.949 . S
C1557 H1552 0.950 . S
C1557 C1559 1.327 . S
C1557 C1563 1.422 1_565 S
C1558 C1550 1.574 . S
C1558 H1553 0.949 . S
C1558 C1564 1.380 . S
C1559 C1543 1.351 1_565 S
C1559 H1551 0.950 . S
C1559 C1557 1.327 . S
C1560 C1548 1.380 . S
C1560 H1554 0.950 . S
C1560 C1561 1.327 . S
C1561 H1555 0.950 . S
C1561 C1560 1.327 . S
C1561 C1565 1.451 . S
C1562 C1545 1.574 . S
C1562 H1556 0.949 . S
C1562 C1566 1.349 1_565 S
C1563 C1544 1.435 . S
C1563 C1557 1.422 1_545 S
C1563 C1564 1.523 . S
C1564 C1545 1.357 1_545 S
C1564 C1558 1.380 . S
C1564 C1563 1.523 . S
C1565 C1549 1.407 1_545 S
C1565 C1561 1.451 . S
C1565 C1566 1.523 . S
C1566 C1550 1.388 . S
C1566 C1562 1.349 1_545 S
C1566 C1565 1.523 . S
H1567 C1542 0.950 . S
H1568 C1544 0.950 . S
H1569 C1545 0.949 . S
H1570 C1547 0.950 . S
H1571 C1549 0.950 . S
C1572 C1573 1.349 1_565 S
C1572 C1574 1.327 . S
C1572 H1597 0.950 . S
C1573 C1572 1.349 1_545 S
C1573 C1589 1.349 . S
C1574 C1572 1.327 . S
C1574 C1593 1.429 1_565 S
C1574 H1598 0.950 . S
C1575 C1592 1.574 . S
C1575 C1594 1.368 . S
C1575 H1599 0.949 . S
H1576 C1580 0.949 . S
C1577 C1578 1.349 . S
C1577 C1579 1.327 . S
C1577 H1600 0.950 . S
C1578 C1577 1.349 . S
C1578 C1590 1.349 1_545 S
C1579 C1577 1.327 . S
C1579 C1595 1.429 . S
C1579 H1601 0.950 . S
C1580 H1576 0.949 . S
C1580 C1588 1.574 . S
C1580 C1596 1.368 1_565 S
H1581 C1589 0.950 . S
H1582 C1587 0.950 . S
H1583 C1588 0.949 . S
H1584 C1590 0.950 . S
H1585 C1591 0.950 . S
H1586 C1592 0.949 . S
C1587 H1582 0.950 . S
C1587 C1589 1.327 . S
C1587 C1593 1.429 . S
C1588 C1580 1.574 . S
C1588 H1583 0.949 . S
C1588 C1594 1.368 1_565 S
C1589 C1573 1.349 . S
C1589 H1581 0.950 . S
C1589 C1587 1.327 . S
C1590 C1578 1.349 1_565 S
C1590 H1584 0.950 . S
C1590 C1591 1.327 . S
C1591 H1585 0.950 . S
C1591 C1590 1.327 . S
C1591 C1595 1.429 1_565 S
C1592 C1575 1.574 . S
C1592 H1586 0.949 . S
C1592 C1596 1.368 . S
C1593 C1574 1.429 1_545 S
C1593 C1587 1.429 . S
C1593 C1594 1.523 . S
C1594 C1575 1.368 . S
C1594 C1588 1.368 1_545 S
C1594 C1593 1.523 . S
C1595 C1579 1.429 . S
C1595 C1591 1.429 1_545 S
C1595 C1596 1.523 . S
C1596 C1580 1.368 1_545 S
C1596 C1592 1.368 . S
C1596 C1595 1.523 . S
H1597 C1572 0.950 . S
H1598 C1574 0.950 . S
H1599 C1575 0.949 . S
H1600 C1577 0.950 . S
H1601 C1579 0.950 . S
C1602 C1603 1.330 1_655 S
C1602 C1604 1.329 . S
C1602 H1627 0.968 . S
C1603 C1602 1.330 1_455 S
C1603 C1619 1.349 . S
C1604 C1602 1.329 . S
C1604 C1623 1.429 1_655 S
C1604 H1628 0.950 . S
C1605 C1622 1.574 . S
C1605 C1624 1.368 . S
C1605 H1629 0.949 . S
H1606 C1610 0.949 . S
C1607 C1608 1.349 . S
C1607 C1609 1.327 . S
C1607 H1630 0.950 . S
C1608 C1607 1.349 . S
C1608 C1620 1.349 1_455 S
C1609 C1607 1.327 . S
C1609 C1625 1.429 . S
C1609 H1631 0.950 . S
C1610 H1606 0.949 . S
C1610 C1618 1.574 . S
C1610 C1626 1.368 1_655 S
H1611 C1619 0.950 . S
H1612 C1617 0.950 . S
H1613 C1618 0.949 . S
H1614 C1620 0.950 . S
H1615 C1621 0.950 . S
H1616 C1622 0.949 . S
C1617 H1612 0.950 . S
C1617 C1619 1.327 . S
C1617 C1623 1.429 . S
C1618 C1610 1.574 . S
C1618 H1613 0.949 . S
C1618 C1624 1.368 1_655 S
C1619 C1603 1.349 . S
C1619 H1611 0.950 . S
C1619 C1617 1.327 . S
C1620 C1608 1.349 1_655 S
C1620 H1614 0.950 . S
C1620 C1621 1.327 . S
C1621 H1615 0.950 . S
C1621 C1620 1.327 . S
C1621 C1625 1.429 1_655 S
C1622 C1605 1.574 . S
C1622 H1616 0.949 . S
C1622 C1626 1.368 . S
C1623 C1604 1.429 1_455 S
C1623 C1617 1.429 . S
C1623 C1624 1.523 . S
C1624 C1605 1.368 . S
C1624 C1618 1.368 1_455 S
C1624 C1623 1.523 . S
C1625 C1609 1.429 . S
C1625 C1621 1.429 1_455 S
C1625 C1626 1.523 . S
C1626 C1610 1.368 1_455 S
C1626 C1622 1.368 . S
C1626 C1625 1.523 . S
H1627 C1602 0.968 . S
H1628 C1604 0.950 . S
H1629 C1605 0.949 . S
H1630 C1607 0.950 . S
H1631 C1609 0.950 . S
C1632 C1633 1.349 . S
C1632 C1634 1.327 . S
C1632 H1657 0.950 . S
C1633 C1632 1.349 . S
C1633 C1649 1.349 1_545 S
C1634 C1632 1.327 . S
C1634 C1653 1.429 . S
C1634 H1658 0.950 . S
C1635 C1652 1.574 . S
C1635 C1654 1.368 1_565 S
C1635 H1659 0.949 . S
H1636 C1640 0.949 . S
C1637 C1638 1.349 1_565 S
C1637 C1639 1.327 . S
C1637 H1660 0.950 . S
C1638 C1637 1.349 1_545 S
C1638 C1650 1.349 . S
C1639 C1637 1.327 . S
C1639 C1655 1.429 1_565 S
C1639 H1661 0.950 . S
C1640 H1636 0.949 . S
C1640 C1648 1.574 . S
C1640 C1656 1.368 . S
H1641 C1649 0.950 . S
H1642 C1647 0.950 . S
H1643 C1648 0.949 . S
H1644 C1650 0.950 . S
H1645 C1651 0.950 . S
H1646 C1652 0.949 . S
C1647 H1642 0.950 . S
C1647 C1649 1.327 . S
C1647 C1653 1.429 1_565 S
C1648 C1640 1.574 . S
C1648 H1643 0.949 . S
C1648 C1654 1.368 . S
C1649 C1633 1.349 1_565 S
C1649 H1641 0.950 . S
C1649 C1647 1.327 . S
C1650 C1638 1.349 . S
C1650 H1644 0.950 . S
C1650 C1651 1.327 . S
C1651 H1645 0.950 . S
C1651 C1650 1.327 . S
C1651 C1655 1.429 . S
C1652 C1635 1.574 . S
C1652 H1646 0.949 . S
C1652 C1656 1.368 1_565 S
C1653 C1634 1.429 . S
C1653 C1647 1.429 1_545 S
C1653 C1654 1.523 . S
C1654 C1635 1.368 1_545 S
C1654 C1648 1.368 . S
C1654 C1653 1.523 . S
C1655 C1639 1.429 1_545 S
C1655 C1651 1.429 . S
C1655 C1656 1.523 . S
C1656 C1640 1.368 . S
C1656 C1652 1.368 1_545 S
C1656 C1655 1.523 . S
H1657 C1632 0.950 . S
H1658 C1634 0.950 . S
H1659 C1635 0.949 . S
H1660 C1637 0.950 . S
H1661 C1639 0.950 . S
C1662 C1663 1.347 . S
C1662 C1664 1.327 1_455 S
C1662 H1687 0.952 1_455 S
C1663 C1662 1.347 . S
C1663 C1679 1.349 . S
C1664 C1662 1.327 1_655 S
C1664 C1683 1.429 1_655 S
C1664 H1688 0.950 . S
C1665 C1682 1.574 . S
C1665 C1684 1.368 . S
C1665 H1689 0.949 . S
H1666 C1670 0.949 . S
C1667 C1668 1.349 . S
C1667 C1669 1.327 . S
C1667 H1690 0.950 . S
C1668 C1667 1.349 . S
C1668 C1680 1.349 1_455 S
C1669 C1667 1.327 . S
C1669 C1685 1.429 . S
C1669 H1691 0.950 . S
C1670 H1666 0.949 . S
C1670 C1678 1.574 . S
C1670 C1686 1.368 1_655 S
H1671 C1679 0.950 . S
H1672 C1677 0.950 . S
H1673 C1678 0.949 . S
H1674 C1680 0.950 . S
H1675 C1681 0.950 . S
H1676 C1682 0.949 . S
C1677 H1672 0.950 . S
C1677 C1679 1.327 . S
C1677 C1683 1.429 . S
C1678 C1670 1.574 . S
C1678 H1673 0.949 . S
C1678 C1684 1.368 1_655 S
C1679 C1663 1.349 . S
C1679 H1671 0.950 . S
C1679 C1677 1.327 . S
C1680 C1668 1.349 1_655 S
C1680 H1674 0.950 . S
C1680 C1681 1.327 . S
C1681 H1675 0.950 . S
C1681 C1680 1.327 . S
C1681 C1685 1.429 1_655 S
C1682 C1665 1.574 . S
C1682 H1676 0.949 . S
C1682 C1686 1.368 . S
C1683 C1664 1.429 1_455 S
C1683 C1677 1.429 . S
C1683 C1684 1.523 . S
C1684 C1665 1.368 . S
C1684 C1678 1.368 1_455 S
C1684 C1683 1.523 . S
C1685 C1669 1.429 . S
C1685 C1681 1.429 1_455 S
C1685 C1686 1.523 . S
C1686 C1670 1.368 1_455 S
C1686 C1682 1.368 . S
C1686 C1685 1.523 . S
H1687 C1662 0.952 1_655 S
H1688 C1664 0.950 . S
H1689 C1665 0.949 . S
H1690 C1667 0.950 . S
H1691 C1669 0.950 . S
C1692 C1693 1.350 . S
C1692 C1694 1.327 . S
C1692 H1717 0.950 . S
C1693 C1692 1.350 . S
C1693 C1709 1.348 1_545 S
C1694 C1692 1.327 . S
C1694 C1713 1.434 . S
C1694 H1718 0.950 . S
C1695 C1712 1.574 . S
C1695 C1714 1.360 1_565 S
C1695 H1719 0.949 . S
H1696 C1700 0.949 . S
C1697 C1698 1.330 1_565 S
C1697 C1699 1.327 . S
C1697 H1720 0.950 . S
C1698 C1697 1.330 1_545 S
C1698 C1710 1.368 . S
C1699 C1697 1.327 . S
C1699 C1715 1.414 1_565 S
C1699 H1721 0.950 . S
C1700 H1696 0.949 . S
C1700 C1708 1.574 . S
C1700 C1716 1.381 . S
H1701 C1709 0.950 . S
H1702 C1707 0.950 . S
H1703 C1708 0.949 . S
H1704 C1710 0.950 . S
H1705 C1711 0.950 . S
H1706 C1712 0.949 . S
C1707 H1702 0.950 . S
C1707 C1709 1.327 . S
C1707 C1713 1.423 1_565 S
C1708 C1700 1.574 . S
C1708 H1703 0.949 . S
C1708 C1714 1.377 . S
C1709 C1693 1.348 1_565 S
C1709 H1701 0.950 . S
C1709 C1707 1.327 . S
C1710 C1698 1.368 . S
C1710 H1704 0.950 . S
C1710 C1711 1.327 . S
C1711 H1705 0.950 . S
C1711 C1710 1.327 . S
C1711 C1715 1.443 . S
C1712 C1695 1.574 . S
C1712 H1706 0.949 . S
C1712 C1716 1.355 1_565 S
C1713 C1694 1.434 . S
C1713 C1707 1.423 1_545 S
C1713 C1714 1.523 . S
C1714 C1695 1.360 1_545 S
C1714 C1708 1.377 . S
C1714 C1713 1.523 . S
C1715 C1699 1.414 1_545 S
C1715 C1711 1.443 . S
C1715 C1716 1.523 . S
C1716 C1700 1.381 . S
C1716 C1712 1.355 1_545 S
C1716 C1715 1.523 . S
H1717 C1692 0.950 . S
H1718 C1694 0.950 . S
H1719 C1695 0.949 . S
H1720 C1697 0.950 . S
H1721 C1699 0.950 . S
C1722 C1723 1.349 1_655 S
C1722 C1724 1.327 . S
C1722 H1747 0.950 . S
C1723 C1722 1.349 1_455 S
C1723 C1739 1.349 . S
C1724 C1722 1.327 . S
C1724 C1743 1.429 1_655 S
C1724 H1748 0.950 . S
C1725 C1742 1.574 . S
C1725 C1744 1.368 . S
C1725 H1749 0.949 . S
H1726 C1730 0.949 . S
C1727 C1728 1.349 . S
C1727 C1729 1.327 . S
C1727 H1750 0.950 . S
C1728 C1727 1.349 . S
C1728 C1740 1.349 1_455 S
C1729 C1727 1.327 . S
C1729 C1745 1.429 . S
C1729 H1751 0.950 . S
C1730 H1726 0.949 . S
C1730 C1738 1.574 . S
C1730 C1746 1.368 1_655 S
H1731 C1739 0.950 . S
H1732 C1737 0.950 . S
H1733 C1738 0.949 . S
H1734 C1740 0.950 . S
H1735 C1741 0.950 . S
H1736 C1742 0.949 . S
C1737 H1732 0.950 . S
C1737 C1739 1.327 . S
C1737 C1743 1.429 . S
C1738 C1730 1.574 . S
C1738 H1733 0.949 . S
C1738 C1744 1.368 1_655 S
C1739 C1723 1.349 . S
C1739 H1731 0.950 . S
C1739 C1737 1.327 . S
C1740 C1728 1.349 1_655 S
C1740 H1734 0.950 . S
C1740 C1741 1.327 . S
C1741 H1735 0.950 . S
C1741 C1740 1.327 . S
C1741 C1745 1.429 1_655 S
C1742 C1725 1.574 . S
C1742 H1736 0.949 . S
C1742 C1746 1.368 . S
C1743 C1724 1.429 1_455 S
C1743 C1737 1.429 . S
C1743 C1744 1.523 . S
C1744 C1725 1.368 . S
C1744 C1738 1.368 1_455 S
C1744 C1743 1.523 . S
C1745 C1729 1.429 . S
C1745 C1741 1.429 1_455 S
C1745 C1746 1.523 . S
C1746 C1730 1.368 1_455 S
C1746 C1742 1.368 . S
C1746 C1745 1.523 . S
H1747 C1722 0.950 . S
H1748 C1724 0.950 . S
H1749 C1725 0.949 . S
H1750 C1727 0.950 . S
H1751 C1729 0.950 . S
C1752 C1753 1.346 . S
C1752 C1754 1.327 . S
C1752 H1777 0.950 . S
C1753 C1752 1.346 . S
C1753 C1769 1.351 1_545 S
C1754 C1752 1.327 . S
C1754 C1773 1.430 . S
C1754 H1778 0.950 . S
C1755 C1772 1.574 . S
C1755 C1774 1.364 1_565 S
C1755 H1779 0.949 . S
H1756 C1760 0.949 . S
C1757 C1758 1.334 1_565 S
C1757 C1759 1.327 . S
C1757 H1780 0.950 . S
C1758 C1757 1.334 1_545 S
C1758 C1770 1.364 . S
C1759 C1757 1.327 . S
C1759 C1775 1.418 1_565 S
C1759 H1781 0.950 . S
C1760 H1756 0.949 . S
C1760 C1768 1.574 . S
C1760 C1776 1.377 . S
H1761 C1769 0.950 . S
H1762 C1767 0.950 . S
H1763 C1768 0.949 . S
H1764 C1770 0.950 . S
H1765 C1771 0.950 . S
H1766 C1772 0.949 . S
C1767 H1762 0.950 . S
C1767 C1769 1.327 . S
C1767 C1773 1.427 1_565 S
C1768 C1760 1.574 . S
C1768 H1763 0.949 . S
C1768 C1774 1.373 . S
C1769 C1753 1.351 1_565 S
C1769 H1761 0.950 . S
C1769 C1767 1.327 . S
C1770 C1758 1.364 . S
C1770 H1764 0.950 . S
C1770 C1771 1.327 . S
C1771 H1765 0.950 . S
C1771 C1770 1.327 . S
C1771 C1775 1.439 . S
C1772 C1755 1.574 . S
C1772 H1766 0.949 . S
C1772 C1776 1.359 1_565 S
C1773 C1754 1.430 . S
C1773 C1767 1.427 1_545 S
C1773 C1774 1.523 . S
C1774 C1755 1.364 1_545 S
C1774 C1768 1.373 . S
C1774 C1773 1.523 . S
C1775 C1759 1.418 1_545 S
C1775 C1771 1.439 . S
C1775 C1776 1.523 . S
C1776 C1760 1.377 . S
C1776 C1772 1.359 1_545 S
C1776 C1775 1.523 . S
H1777 C1752 0.950 . S
H1778 C1754 0.950 . S
H1779 C1755 0.949 . S
H1780 C1757 0.950 . S
H1781 C1759 0.950 . S
C1782 C1783 1.349 . S
C1782 C1784 1.327 . S
C1782 H1807 0.950 1_455 S
C1783 C1782 1.349 . S
C1783 C1799 1.349 . S
C1784 C1782 1.327 . S
C1784 C1803 1.429 . S
C1784 H1808 0.950 1_455 S
C1785 C1802 1.574 . S
C1785 C1804 1.368 . S
C1785 H1809 0.949 . S
H1786 C1790 0.969 . S
C1787 C1788 1.349 . S
C1787 C1789 1.327 . S
C1787 H1810 0.950 . S
C1788 C1787 1.349 . S
C1788 C1800 1.349 1_455 S
C1789 C1787 1.327 . S
C1789 C1805 1.429 . S
C1789 H1811 0.950 . S
C1790 H1786 0.969 . S
C1790 C1798 1.573 1_655 S
C1790 C1806 1.348 1_655 S
H1791 C1799 0.950 . S
H1792 C1797 0.950 . S
H1793 C1798 0.944 1_655 S
H1794 C1800 0.950 . S
H1795 C1801 0.950 . S
H1796 C1802 0.949 . S
C1797 H1792 0.950 . S
C1797 C1799 1.327 . S
C1797 C1803 1.429 . S
C1798 C1790 1.573 1_455 S
C1798 H1793 0.944 1_455 S
C1798 C1804 1.374 . S
C1799 C1783 1.349 . S
C1799 H1791 0.950 . S
C1799 C1797 1.327 . S
C1800 C1788 1.349 1_655 S
C1800 H1794 0.950 . S
C1800 C1801 1.327 . S
C1801 H1795 0.950 . S
C1801 C1800 1.327 . S
C1801 C1805 1.429 1_655 S
C1802 C1785 1.574 . S
C1802 H1796 0.949 . S
C1802 C1806 1.368 . S
C1803 C1784 1.429 . S
C1803 C1797 1.429 . S
C1803 C1804 1.523 . S
C1804 C1785 1.368 . S
C1804 C1798 1.374 . S
C1804 C1803 1.523 . S
C1805 C1789 1.429 . S
C1805 C1801 1.429 1_455 S
C1805 C1806 1.523 . S
C1806 C1790 1.348 1_455 S
C1806 C1802 1.368 . S
C1806 C1805 1.523 . S
H1807 C1782 0.950 1_655 S
H1808 C1784 0.950 1_655 S
H1809 C1785 0.949 . S
H1810 C1787 0.950 . S
H1811 C1789 0.950 . S
C1812 C1813 1.347 . S
C1812 C1814 1.327 . S
C1812 H1837 0.950 . S
C1813 C1812 1.347 . S
C1813 C1829 1.351 1_554 S
C1814 C1812 1.327 . S
C1814 C1833 1.435 . S
C1814 H1838 0.950 . S
C1815 C1832 1.574 . S
C1815 C1834 1.357 1_556 S
C1815 H1839 0.949 . S
H1816 C1820 0.949 . S
C1817 C1818 1.319 1_556 S
C1817 C1819 1.327 . S
C1817 H1840 0.950 . S
C1818 C1817 1.319 1_554 S
C1818 C1830 1.379 . S
C1819 C1817 1.327 . S
C1819 C1835 1.407 1_556 S
C1819 H1841 0.950 . S
C1820 H1816 0.949 . S
C1820 C1828 1.574 . S
C1820 C1836 1.388 . S
H1821 C1829 0.950 . S
H1822 C1827 0.950 . S
H1823 C1828 0.949 . S
H1824 C1830 0.950 . S
H1825 C1831 0.950 . S
H1826 C1832 0.949 . S
C1827 H1822 0.950 . S
C1827 C1829 1.327 . S
C1827 C1833 1.423 1_556 S
C1828 C1820 1.574 . S
C1828 H1823 0.949 . S
C1828 C1834 1.380 . S
C1829 C1813 1.351 1_556 S
C1829 H1821 0.950 . S
C1829 C1827 1.327 . S
C1830 C1818 1.379 . S
C1830 H1824 0.950 . S
C1830 C1831 1.327 . S
C1831 H1825 0.950 . S
C1831 C1830 1.327 . S
C1831 C1835 1.451 . S
C1832 C1815 1.574 . S
C1832 H1826 0.949 . S
C1832 C1836 1.349 1_556 S
C1833 C1814 1.435 . S
C1833 C1827 1.423 1_554 S
C1833 C1834 1.523 . S
C1834 C1815 1.357 1_554 S
C1834 C1828 1.380 . S
C1834 C1833 1.523 . S
C1835 C1819 1.407 1_554 S
C1835 C1831 1.451 . S
C1835 C1836 1.523 . S
C1836 C1820 1.388 . S
C1836 C1832 1.349 1_554 S
C1836 C1835 1.523 . S
H1837 C1812 0.950 . S
H1838 C1814 0.950 . S
H1839 C1815 0.949 . S
H1840 C1817 0.950 . S
H1841 C1819 0.950 . S
C1842 C1843 1.349 1_556 S
C1842 C1844 1.327 . S
C1842 H1867 0.950 . S
C1843 C1842 1.349 1_554 S
C1843 C1859 1.349 . S
C1844 C1842 1.327 . S
C1844 C1863 1.429 1_556 S
C1844 H1868 0.950 . S
C1845 C1862 1.574 . S
C1845 C1864 1.368 . S
C1845 H1869 0.949 . S
H1846 C1850 0.949 . S
C1847 C1848 1.349 . S
C1847 C1849 1.327 . S
C1847 H1870 0.950 . S
C1848 C1847 1.349 . S
C1848 C1860 1.349 1_554 S
C1849 C1847 1.327 . S
C1849 C1865 1.429 . S
C1849 H1871 0.950 . S
C1850 H1846 0.949 . S
C1850 C1858 1.574 . S
C1850 C1866 1.368 1_556 S
H1851 C1859 0.950 . S
H1852 C1857 0.950 . S
H1853 C1858 0.949 . S
H1854 C1860 0.950 . S
H1855 C1861 0.950 . S
H1856 C1862 0.949 . S
C1857 H1852 0.950 . S
C1857 C1859 1.327 . S
C1857 C1863 1.429 . S
C1858 C1850 1.574 . S
C1858 H1853 0.949 . S
C1858 C1864 1.368 1_556 S
C1859 C1843 1.349 . S
C1859 H1851 0.950 . S
C1859 C1857 1.327 . S
C1860 C1848 1.349 1_556 S
C1860 H1854 0.950 . S
C1860 C1861 1.327 . S
C1861 H1855 0.950 . S
C1861 C1860 1.327 . S
C1861 C1865 1.429 1_556 S
C1862 C1845 1.574 . S
C1862 H1856 0.949 . S
C1862 C1866 1.368 . S
C1863 C1844 1.429 1_554 S
C1863 C1857 1.429 . S
C1863 C1864 1.523 . S
C1864 C1845 1.368 . S
C1864 C1858 1.368 1_554 S
C1864 C1863 1.523 . S
C1865 C1849 1.429 . S
C1865 C1861 1.429 1_554 S
C1865 C1866 1.523 . S
C1866 C1850 1.368 1_554 S
C1866 C1862 1.368 . S
C1866 C1865 1.523 . S
H1867 C1842 0.950 . S
H1868 C1844 0.950 . S
H1869 C1845 0.949 . S
H1870 C1847 0.950 . S
H1871 C1849 0.950 . S
C1872 C1873 1.351 1_556 S
C1872 C1874 1.327 . S
C1872 H1897 0.950 . S
C1873 C1872 1.351 1_554 S
C1873 C1889 1.347 . S
C1874 C1872 1.327 . S
C1874 C1893 1.427 1_556 S
C1874 H1898 0.950 . S
C1875 C1892 1.574 . S
C1875 C1894 1.373 . S
C1875 H1899 0.949 . S
H1876 C1880 0.949 . S
C1877 C1878 1.363 . S
C1877 C1879 1.327 . S
C1877 H1900 0.950 . S
C1878 C1877 1.363 . S
C1878 C1890 1.335 1_554 S
C1879 C1877 1.327 . S
C1879 C1895 1.438 . S
C1879 H1901 0.950 . S
C1880 H1876 0.949 . S
C1880 C1888 1.574 . S
C1880 C1896 1.360 1_556 S
H1881 C1889 0.950 . S
H1882 C1887 0.950 . S
H1883 C1888 0.949 . S
H1884 C1890 0.950 . S
H1885 C1891 0.950 . S
H1886 C1892 0.949 . S
C1887 H1882 0.950 . S
C1887 C1889 1.327 . S
C1887 C1893 1.430 . S
C1888 C1880 1.574 . S
C1888 H1883 0.949 . S
C1888 C1894 1.364 1_556 S
C1889 C1873 1.347 . S
C1889 H1881 0.950 . S
C1889 C1887 1.327 . S
C1890 C1878 1.335 1_556 S
C1890 H1884 0.950 . S
C1890 C1891 1.327 . S
C1891 H1885 0.950 . S
C1891 C1890 1.327 . S
C1891 C1895 1.419 1_556 S
C1892 C1875 1.574 . S
C1892 H1886 0.949 . S
C1892 C1896 1.377 . S
C1893 C1874 1.427 1_554 S
C1893 C1887 1.430 . S
C1893 C1894 1.523 . S
C1894 C1875 1.373 . S
C1894 C1888 1.364 1_554 S
C1894 C1893 1.523 . S
C1895 C1879 1.438 . S
C1895 C1891 1.419 1_554 S
C1895 C1896 1.523 . S
C1896 C1880 1.360 1_554 S
C1896 C1892 1.377 . S
C1896 C1895 1.523 . S
H1897 C1872 0.950 . S
H1898 C1874 0.950 . S
H1899 C1875 0.949 . S
H1900 C1877 0.950 . S
H1901 C1879 0.950 . S
C1902 C1903 1.348 . S
C1902 C1904 1.327 . S
C1902 H1927 0.950 . S
C1903 C1902 1.348 . S
C1903 C1919 1.350 1_554 S
C1904 C1902 1.327 . S
C1904 C1923 1.435 . S
C1904 H1928 0.950 . S
C1905 C1922 1.574 . S
C1905 C1924 1.356 1_556 S
C1905 H1929 0.949 . S
H1906 C1910 0.949 . S
C1907 C1908 1.317 1_556 S
C1907 C1909 1.327 . S
C1907 H1930 0.950 . S
C1908 C1907 1.317 1_554 S
C1908 C1920 1.381 . S
C1909 C1907 1.327 . S
C1909 C1925 1.406 1_556 S
C1909 H1931 0.950 . S
C1910 H1906 0.949 . S
C1910 C1918 1.574 . S
C1910 C1926 1.389 . S
H1911 C1919 0.950 . S
H1912 C1917 0.950 . S
H1913 C1918 0.949 . S
H1914 C1920 0.950 . S
H1915 C1921 0.950 . S
H1916 C1922 0.949 . S
C1917 H1912 0.950 . S
C1917 C1919 1.327 . S
C1917 C1923 1.422 1_556 S
C1918 C1910 1.574 . S
C1918 H1913 0.949 . S
C1918 C1924 1.381 . S
C1919 C1903 1.350 1_556 S
C1919 H1911 0.950 . S
C1919 C1917 1.327 . S
C1920 C1908 1.381 . S
C1920 H1914 0.950 . S
C1920 C1921 1.327 . S
C1921 H1915 0.950 . S
C1921 C1920 1.327 . S
C1921 C1925 1.452 . S
C1922 C1905 1.574 . S
C1922 H1916 0.949 . S
C1922 C1926 1.348 1_556 S
C1923 C1904 1.435 . S
C1923 C1917 1.422 1_554 S
C1923 C1924 1.523 . S
C1924 C1905 1.356 1_554 S
C1924 C1918 1.381 . S
C1924 C1923 1.523 . S
C1925 C1909 1.406 1_554 S
C1925 C1921 1.452 . S
C1925 C1926 1.523 . S
C1926 C1910 1.389 . S
C1926 C1922 1.348 1_554 S
C1926 C1925 1.523 . S
H1927 C1902 0.950 . S
H1928 C1904 0.950 . S
H1929 C1905 0.949 . S
H1930 C1907 0.950 . S
H1931 C1909 0.950 . S
C1932 C1933 1.349 . S
C1932 C1934 1.327 . S
C1932 H1957 0.950 . S
C1933 C1932 1.349 . S
C1933 C1949 1.349 1_554 S
C1934 C1932 1.327 . S
C1934 C1953 1.429 . S
C1934 H1958 0.950 . S
C1935 C1952 1.574 . S
C1935 C1954 1.368 1_556 S
C1935 H1959 0.949 . S
H1936 C1940 0.949 . S
C1937 C1938 1.349 1_556 S
C1937 C1939 1.327 . S
C1937 H1960 0.950 . S
C1938 C1937 1.349 1_554 S
C1938 C1950 1.349 . S
C1939 C1937 1.327 . S
C1939 C1955 1.429 1_556 S
C1939 H1961 0.950 . S
C1940 H1936 0.949 . S
C1940 C1948 1.574 . S
C1940 C1956 1.368 . S
H1941 C1949 0.950 . S
H1942 C1947 0.950 . S
H1943 C1948 0.949 . S
H1944 C1950 0.950 . S
H1945 C1951 0.950 . S
H1946 C1952 0.949 . S
C1947 H1942 0.950 . S
C1947 C1949 1.327 . S
C1947 C1953 1.429 1_556 S
C1948 C1940 1.574 . S
C1948 H1943 0.949 . S
C1948 C1954 1.368 . S
C1949 C1933 1.349 1_556 S
C1949 H1941 0.950 . S
C1949 C1947 1.327 . S
C1950 C1938 1.349 . S
C1950 H1944 0.950 . S
C1950 C1951 1.327 . S
C1951 H1945 0.950 . S
C1951 C1950 1.327 . S
C1951 C1955 1.429 . S
C1952 C1935 1.574 . S
C1952 H1946 0.949 . S
C1952 C1956 1.368 1_556 S
C1953 C1934 1.429 . S
C1953 C1947 1.429 1_554 S
C1953 C1954 1.523 . S
C1954 C1935 1.368 1_554 S
C1954 C1948 1.368 . S
C1954 C1953 1.523 . S
C1955 C1939 1.429 1_554 S
C1955 C1951 1.429 . S
C1955 C1956 1.523 . S
C1956 C1940 1.368 . S
C1956 C1952 1.368 1_554 S
C1956 C1955 1.523 . S
H1957 C1932 0.950 . S
H1958 C1934 0.950 . S
H1959 C1935 0.949 . S
H1960 C1937 0.950 . S
H1961 C1939 0.950 . S
C1962 C1963 1.349 1_556 S
C1962 C1964 1.327 . S
C1962 H1987 0.950 . S
C1963 C1962 1.349 1_554 S
C1963 C1979 1.349 . S
C1964 C1962 1.327 . S
C1964 C1983 1.429 1_556 S
C1964 H1988 0.950 . S
C1965 C1982 1.574 . S
C1965 C1984 1.368 . S
C1965 H1989 0.949 . S
H1966 C1970 0.949 . S
C1967 C1968 1.349 . S
C1967 C1969 1.327 . S
C1967 H1990 0.950 . S
C1968 C1967 1.349 . S
C1968 C1980 1.349 1_554 S
C1969 C1967 1.327 . S
C1969 C1985 1.429 . S
C1969 H1991 0.950 . S
C1970 H1966 0.949 . S
C1970 C1978 1.574 . S
C1970 C1986 1.368 1_556 S
H1971 C1979 0.950 . S
H1972 C1977 0.950 . S
H1973 C1978 0.949 . S
H1974 C1980 0.950 . S
H1975 C1981 0.950 . S
H1976 C1982 0.949 . S
C1977 H1972 0.950 . S
C1977 C1979 1.327 . S
C1977 C1983 1.429 . S
C1978 C1970 1.574 . S
C1978 H1973 0.949 . S
C1978 C1984 1.368 1_556 S
C1979 C1963 1.349 . S
C1979 H1971 0.950 . S
C1979 C1977 1.327 . S
C1980 C1968 1.349 1_556 S
C1980 H1974 0.950 . S
C1980 C1981 1.327 . S
C1981 H1975 0.950 . S
C1981 C1980 1.327 . S
C1981 C1985 1.429 1_556 S
C1982 C1965 1.574 . S
C1982 H1976 0.949 . S
C1982 C1986 1.368 . S
C1983 C1964 1.429 1_554 S
C1983 C1977 1.429 . S
C1983 C1984 1.523 . S
C1984 C1965 1.368 . S
C1984 C1978 1.368 1_554 S
C1984 C1983 1.523 . S
C1985 C1969 1.429 . S
C1985 C1981 1.429 1_554 S
C1985 C1986 1.523 . S
C1986 C1970 1.368 1_554 S
C1986 C1982 1.368 . S
C1986 C1985 1.523 . S
H1987 C1962 0.950 . S
H1988 C1964 0.950 . S
H1989 C1965 0.949 . S
H1990 C1967 0.950 . S
H1991 C1969 0.950 . S
C1992 C1993 1.349 . S
C1992 C1994 1.327 . S
C1992 H2017 0.950 . S
C1993 C1992 1.349 . S
C1993 C2009 1.349 1_554 S
C1994 C1992 1.327 . S
C1994 C2013 1.429 . S
C1994 H2018 0.950 . S
C1995 C2012 1.574 . S
C1995 C2014 1.368 1_556 S
C1995 H2019 0.949 . S
H1996 C2000 0.949 . S
C1997 C1998 1.349 1_556 S
C1997 C1999 1.327 . S
C1997 H2020 0.950 . S
C1998 C1997 1.349 1_554 S
C1998 C2010 1.349 . S
C1999 C1997 1.327 . S
C1999 C2015 1.429 1_556 S
C1999 H2021 0.950 . S
C2000 H1996 0.949 . S
C2000 C2008 1.574 . S
C2000 C2016 1.368 . S
H2001 C2009 0.950 . S
H2002 C2007 0.950 . S
H2003 C2008 0.949 . S
H2004 C2010 0.950 . S
H2005 C2011 0.950 . S
H2006 C2012 0.949 . S
C2007 H2002 0.950 . S
C2007 C2009 1.327 . S
C2007 C2013 1.429 1_556 S
C2008 C2000 1.574 . S
C2008 H2003 0.949 . S
C2008 C2014 1.368 . S
C2009 C1993 1.349 1_556 S
C2009 H2001 0.950 . S
C2009 C2007 1.327 . S
C2010 C1998 1.349 . S
C2010 H2004 0.950 . S
C2010 C2011 1.327 . S
C2011 H2005 0.950 . S
C2011 C2010 1.327 . S
C2011 C2015 1.429 . S
C2012 C1995 1.574 . S
C2012 H2006 0.949 . S
C2012 C2016 1.368 1_556 S
C2013 C1994 1.429 . S
C2013 C2007 1.429 1_554 S
C2013 C2014 1.523 . S
C2014 C1995 1.368 1_554 S
C2014 C2008 1.368 . S
C2014 C2013 1.523 . S
C2015 C1999 1.429 1_554 S
C2015 C2011 1.429 . S
C2015 C2016 1.523 . S
C2016 C2000 1.368 . S
C2016 C2012 1.368 1_554 S
C2016 C2015 1.523 . S
H2017 C1992 0.950 . S
H2018 C1994 0.950 . S
H2019 C1995 0.949 . S
H2020 C1997 0.950 . S
H2021 C1999 0.950 . S
C2022 C2023 1.352 1_556 S
C2022 C2024 1.327 . S
C2022 H2047 0.950 . S
C2023 C2022 1.352 1_554 S
C2023 C2039 1.346 . S
C2024 C2022 1.327 . S
C2024 C2043 1.427 1_556 S
C2024 H2048 0.950 . S
C2025 C2042 1.574 . S
C2025 C2044 1.372 . S
C2025 H2049 0.949 . S
H2026 C2030 0.949 . S
C2027 C2028 1.364 . S
C2027 C2029 1.327 . S
C2027 H2050 0.950 . S
C2028 C2027 1.364 . S
C2028 C2040 1.334 1_554 S
C2029 C2027 1.327 . S
C2029 C2045 1.439 . S
C2029 H2051 0.950 . S
C2030 H2026 0.949 . S
C2030 C2038 1.574 . S
C2030 C2046 1.360 1_556 S
H2031 C2039 0.950 . S
H2032 C2037 0.950 . S
H2033 C2038 0.949 . S
H2034 C2040 0.950 . S
H2035 C2041 0.950 . S
H2036 C2042 0.949 . S
C2037 H2032 0.950 . S
C2037 C2039 1.327 . S
C2037 C2043 1.430 . S
C2038 C2030 1.574 . S
C2038 H2033 0.949 . S
C2038 C2044 1.364 1_556 S
C2039 C2023 1.346 . S
C2039 H2031 0.950 . S
C2039 C2037 1.327 . S
C2040 C2028 1.334 1_556 S
C2040 H2034 0.950 . S
C2040 C2041 1.327 . S
C2041 H2035 0.950 . S
C2041 C2040 1.327 . S
C2041 C2045 1.419 1_556 S
C2042 C2025 1.574 . S
C2042 H2036 0.949 . S
C2042 C2046 1.377 . S
C2043 C2024 1.427 1_554 S
C2043 C2037 1.430 . S
C2043 C2044 1.523 . S
C2044 C2025 1.372 . S
C2044 C2038 1.364 1_554 S
C2044 C2043 1.523 . S
C2045 C2029 1.439 . S
C2045 C2041 1.419 1_554 S
C2045 C2046 1.523 . S
C2046 C2030 1.360 1_554 S
C2046 C2042 1.377 . S
C2046 C2045 1.523 . S
H2047 C2022 0.950 . S
H2048 C2024 0.950 . S
H2049 C2025 0.949 . S
H2050 C2027 0.950 . S
H2051 C2029 0.950 . S
C2052 C2053 1.349 . S
C2052 C2054 1.327 . S
C2052 H2077 0.950 . S
C2053 C2052 1.349 . S
C2053 C2069 1.349 . S
C2054 C2052 1.327 . S
C2054 C2073 1.429 . S
C2054 H2078 0.950 . S
C2055 C2072 1.574 . S
C2055 C2074 1.368 . S
C2055 H2079 0.949 . S
H2056 C2060 0.949 . S
C2057 C2058 1.349 . S
C2057 C2059 1.327 . S
C2057 H2080 0.950 . S
C2058 C2057 1.349 . S
C2058 C2070 1.349 . S
C2059 C2057 1.327 . S
C2059 C2075 1.429 . S
C2059 H2081 0.950 . S
C2060 H2056 0.949 . S
C2060 C2068 1.574 . S
C2060 C2076 1.368 . S
H2061 C2069 0.950 . S
H2062 C2067 0.950 . S
H2063 C2068 0.949 . S
H2064 C2070 0.950 . S
H2065 C2071 0.950 . S
H2066 C2072 0.949 . S
C2067 H2062 0.950 . S
C2067 C2069 1.327 . S
C2067 C2073 1.429 . S
C2068 C2060 1.574 . S
C2068 H2063 0.949 . S
C2068 C2074 1.368 . S
C2069 C2053 1.349 . S
C2069 H2061 0.950 . S
C2069 C2067 1.327 . S
C2070 C2058 1.349 . S
C2070 H2064 0.950 . S
C2070 C2071 1.327 . S
C2071 H2065 0.950 . S
C2071 C2070 1.327 . S
C2071 C2075 1.429 . S
C2072 C2055 1.574 . S
C2072 H2066 0.949 . S
C2072 C2076 1.368 . S
C2073 C2054 1.429 . S
C2073 C2067 1.429 . S
C2073 C2074 1.523 . S
C2074 C2055 1.368 . S
C2074 C2068 1.368 . S
C2074 C2073 1.523 . S
C2075 C2059 1.429 . S
C2075 C2071 1.429 . S
C2075 C2076 1.523 . S
C2076 C2060 1.368 . S
C2076 C2072 1.368 . S
C2076 C2075 1.523 . S
H2077 C2052 0.950 . S
H2078 C2054 0.950 . S
H2079 C2055 0.949 . S
H2080 C2057 0.950 . S
H2081 C2059 0.950 . S
C2082 C2083 1.349 . S
C2082 C2084 1.327 . S
C2082 H2107 0.950 . S
C2083 C2082 1.349 . S
C2083 C2099 1.349 . S
C2084 C2082 1.327 . S
C2084 C2103 1.429 . S
C2084 H2108 0.950 . S
C2085 C2102 1.574 . S
C2085 C2104 1.368 . S
C2085 H2109 0.949 . S
H2086 C2090 0.949 . S
C2087 C2088 1.349 . S
C2087 C2089 1.327 . S
C2087 H2110 0.950 . S
C2088 C2087 1.349 . S
C2088 C2100 1.349 . S
C2089 C2087 1.327 . S
C2089 C2105 1.429 . S
C2089 H2111 0.950 . S
C2090 H2086 0.949 . S
C2090 C2098 1.574 . S
C2090 C2106 1.368 . S
H2091 C2099 0.950 . S
H2092 C2097 0.950 . S
H2093 C2098 0.949 . S
H2094 C2100 0.950 . S
H2095 C2101 0.950 . S
H2096 C2102 0.949 . S
C2097 H2092 0.950 . S
C2097 C2099 1.327 . S
C2097 C2103 1.429 . S
C2098 C2090 1.574 . S
C2098 H2093 0.949 . S
C2098 C2104 1.368 . S
C2099 C2083 1.349 . S
C2099 H2091 0.950 . S
C2099 C2097 1.327 . S
C2100 C2088 1.349 . S
C2100 H2094 0.950 . S
C2100 C2101 1.327 . S
C2101 H2095 0.950 . S
C2101 C2100 1.327 . S
C2101 C2105 1.429 . S
C2102 C2085 1.574 . S
C2102 H2096 0.949 . S
C2102 C2106 1.368 . S
C2103 C2084 1.429 . S
C2103 C2097 1.429 . S
C2103 C2104 1.523 . S
C2104 C2085 1.368 . S
C2104 C2098 1.368 . S
C2104 C2103 1.523 . S
C2105 C2089 1.429 . S
C2105 C2101 1.429 . S
C2105 C2106 1.523 . S
C2106 C2090 1.368 . S
C2106 C2102 1.368 . S
C2106 C2105 1.523 . S
H2107 C2082 0.950 . S
H2108 C2084 0.950 . S
H2109 C2085 0.949 . S
H2110 C2087 0.950 . S
H2111 C2089 0.950 . S
C2112 C2113 1.349 . S
C2112 C2114 1.327 . S
C2112 H2137 0.950 . S
C2113 C2112 1.349 . S
C2113 C2129 1.349 . S
C2114 C2112 1.327 . S
C2114 C2133 1.429 . S
C2114 H2138 0.950 . S
C2115 C2132 1.574 . S
C2115 C2134 1.368 . S
C2115 H2139 0.949 . S
H2116 C2120 0.949 . S
C2117 C2118 1.349 . S
C2117 C2119 1.327 . S
C2117 H2140 0.950 . S
C2118 C2117 1.349 . S
C2118 C2130 1.349 . S
C2119 C2117 1.327 . S
C2119 C2135 1.429 . S
C2119 H2141 0.950 . S
C2120 H2116 0.949 . S
C2120 C2128 1.574 . S
C2120 C2136 1.368 . S
H2121 C2129 0.950 . S
H2122 C2127 0.950 . S
H2123 C2128 0.949 . S
H2124 C2130 0.950 . S
H2125 C2131 0.950 . S
H2126 C2132 0.949 . S
C2127 H2122 0.950 . S
C2127 C2129 1.327 . S
C2127 C2133 1.429 . S
C2128 C2120 1.574 . S
C2128 H2123 0.949 . S
C2128 C2134 1.368 . S
C2129 C2113 1.349 . S
C2129 H2121 0.950 . S
C2129 C2127 1.327 . S
C2130 C2118 1.349 . S
C2130 H2124 0.950 . S
C2130 C2131 1.327 . S
C2131 H2125 0.950 . S
C2131 C2130 1.327 . S
C2131 C2135 1.429 . S
C2132 C2115 1.574 . S
C2132 H2126 0.949 . S
C2132 C2136 1.368 . S
C2133 C2114 1.429 . S
C2133 C2127 1.429 . S
C2133 C2134 1.523 . S
C2134 C2115 1.368 . S
C2134 C2128 1.368 . S
C2134 C2133 1.523 . S
C2135 C2119 1.429 . S
C2135 C2131 1.429 . S
C2135 C2136 1.523 . S
C2136 C2120 1.368 . S
C2136 C2132 1.368 . S
C2136 C2135 1.523 . S
H2137 C2112 0.950 . S
H2138 C2114 0.950 . S
H2139 C2115 0.949 . S
H2140 C2117 0.950 . S
H2141 C2119 0.950 . S
C2142 C2143 1.349 . S
C2142 C2144 1.327 . S
C2142 H2167 0.950 . S
C2143 C2142 1.349 . S
C2143 C2159 1.349 . S
C2144 C2142 1.327 . S
C2144 C2163 1.429 . S
C2144 H2168 0.950 . S
C2145 C2162 1.574 . S
C2145 C2164 1.368 . S
C2145 H2169 0.949 . S
H2146 C2150 0.949 . S
C2147 C2148 1.349 . S
C2147 C2149 1.327 . S
C2147 H2170 0.950 . S
C2148 C2147 1.349 . S
C2148 C2160 1.349 . S
C2149 C2147 1.327 . S
C2149 C2165 1.429 . S
C2149 H2171 0.950 . S
C2150 H2146 0.949 . S
C2150 C2158 1.574 . S
C2150 C2166 1.368 . S
H2151 C2159 0.950 . S
H2152 C2157 0.950 . S
H2153 C2158 0.949 . S
H2154 C2160 0.950 . S
H2155 C2161 0.950 . S
H2156 C2162 0.949 . S
C2157 H2152 0.950 . S
C2157 C2159 1.327 . S
C2157 C2163 1.429 . S
C2158 C2150 1.574 . S
C2158 H2153 0.949 . S
C2158 C2164 1.368 . S
C2159 C2143 1.349 . S
C2159 H2151 0.950 . S
C2159 C2157 1.327 . S
C2160 C2148 1.349 . S
C2160 H2154 0.950 . S
C2160 C2161 1.327 . S
C2161 H2155 0.950 . S
C2161 C2160 1.327 . S
C2161 C2165 1.429 . S
C2162 C2145 1.574 . S
C2162 H2156 0.949 . S
C2162 C2166 1.368 . S
C2163 C2144 1.429 . S
C2163 C2157 1.429 . S
C2163 C2164 1.523 . S
C2164 C2145 1.368 . S
C2164 C2158 1.368 . S
C2164 C2163 1.523 . S
C2165 C2149 1.429 . S
C2165 C2161 1.429 . S
C2165 C2166 1.523 . S
C2166 C2150 1.368 . S
C2166 C2162 1.368 . S
C2166 C2165 1.523 . S
H2167 C2142 0.950 . S
H2168 C2144 0.950 . S
H2169 C2145 0.949 . S
H2170 C2147 0.950 . S
H2171 C2149 0.950 . S
C2172 C2173 1.349 . S
C2172 C2174 1.327 . S
C2172 H2197 0.950 . S
C2173 C2172 1.349 . S
C2173 C2189 1.349 . S
C2174 C2172 1.327 . S
C2174 C2193 1.429 . S
C2174 H2198 0.950 . S
C2175 C2192 1.574 . S
C2175 C2194 1.368 . S
C2175 H2199 0.949 . S
H2176 C2180 0.949 . S
C2177 C2178 1.349 . S
C2177 C2179 1.327 . S
C2177 H2200 0.950 . S
C2178 C2177 1.349 . S
C2178 C2190 1.349 . S
C2179 C2177 1.327 . S
C2179 C2195 1.429 . S
C2179 H2201 0.950 . S
C2180 H2176 0.949 . S
C2180 C2188 1.574 . S
C2180 C2196 1.368 . S
H2181 C2189 0.950 . S
H2182 C2187 0.950 . S
H2183 C2188 0.949 . S
H2184 C2190 0.950 . S
H2185 C2191 0.950 . S
H2186 C2192 0.949 . S
C2187 H2182 0.950 . S
C2187 C2189 1.327 . S
C2187 C2193 1.429 . S
C2188 C2180 1.574 . S
C2188 H2183 0.949 . S
C2188 C2194 1.368 . S
C2189 C2173 1.349 . S
C2189 H2181 0.950 . S
C2189 C2187 1.327 . S
C2190 C2178 1.349 . S
C2190 H2184 0.950 . S
C2190 C2191 1.327 . S
C2191 H2185 0.950 . S
C2191 C2190 1.327 . S
C2191 C2195 1.429 . S
C2192 C2175 1.574 . S
C2192 H2186 0.949 . S
C2192 C2196 1.368 . S
C2193 C2174 1.429 . S
C2193 C2187 1.429 . S
C2193 C2194 1.523 . S
C2194 C2175 1.368 . S
C2194 C2188 1.368 . S
C2194 C2193 1.523 . S
C2195 C2179 1.429 . S
C2195 C2191 1.429 . S
C2195 C2196 1.523 . S
C2196 C2180 1.368 . S
C2196 C2192 1.368 . S
C2196 C2195 1.523 . S
H2197 C2172 0.950 . S
H2198 C2174 0.950 . S
H2199 C2175 0.949 . S
H2200 C2177 0.950 . S
H2201 C2179 0.950 . S
C2202 C2203 1.349 . S
C2202 C2204 1.327 . S
C2202 H2227 0.950 . S
C2203 C2202 1.349 . S
C2203 C2219 1.349 . S
C2204 C2202 1.327 . S
C2204 C2223 1.429 . S
C2204 H2228 0.950 . S
C2205 C2222 1.574 . S
C2205 C2224 1.368 . S
C2205 H2229 0.949 . S
H2206 C2210 0.949 . S
C2207 C2208 1.349 . S
C2207 C2209 1.327 . S
C2207 H2230 0.950 . S
C2208 C2207 1.349 . S
C2208 C2220 1.349 . S
C2209 C2207 1.327 . S
C2209 C2225 1.429 . S
C2209 H2231 0.950 . S
C2210 H2206 0.949 . S
C2210 C2218 1.574 . S
C2210 C2226 1.368 . S
H2211 C2219 0.950 . S
H2212 C2217 0.950 . S
H2213 C2218 0.949 . S
H2214 C2220 0.950 . S
H2215 C2221 0.950 . S
H2216 C2222 0.949 . S
C2217 H2212 0.950 . S
C2217 C2219 1.327 . S
C2217 C2223 1.429 . S
C2218 C2210 1.574 . S
C2218 H2213 0.949 . S
C2218 C2224 1.368 . S
C2219 C2203 1.349 . S
C2219 H2211 0.950 . S
C2219 C2217 1.327 . S
C2220 C2208 1.349 . S
C2220 H2214 0.950 . S
C2220 C2221 1.327 . S
C2221 H2215 0.950 . S
C2221 C2220 1.327 . S
C2221 C2225 1.429 . S
C2222 C2205 1.574 . S
C2222 H2216 0.949 . S
C2222 C2226 1.368 . S
C2223 C2204 1.429 . S
C2223 C2217 1.429 . S
C2223 C2224 1.523 . S
C2224 C2205 1.368 . S
C2224 C2218 1.368 . S
C2224 C2223 1.523 . S
C2225 C2209 1.429 . S
C2225 C2221 1.429 . S
C2225 C2226 1.523 . S
C2226 C2210 1.368 . S
C2226 C2222 1.368 . S
C2226 C2225 1.523 . S
H2227 C2202 0.950 . S
H2228 C2204 0.950 . S
H2229 C2205 0.949 . S
H2230 C2207 0.950 . S
H2231 C2209 0.950 . S
C2232 C2233 1.349 . S
C2232 C2234 1.327 . S
C2232 H2257 0.950 . S
C2233 C2232 1.349 . S
C2233 C2249 1.349 . S
C2234 C2232 1.327 . S
C2234 C2253 1.429 . S
C2234 H2258 0.950 . S
C2235 C2252 1.574 . S
C2235 C2254 1.368 . S
C2235 H2259 0.949 . S
H2236 C2240 0.949 . S
C2237 C2238 1.349 . S
C2237 C2239 1.327 . S
C2237 H2260 0.950 . S
C2238 C2237 1.349 . S
C2238 C2250 1.349 . S
C2239 C2237 1.327 . S
C2239 C2255 1.429 . S
C2239 H2261 0.950 . S
C2240 H2236 0.949 . S
C2240 C2248 1.574 . S
C2240 C2256 1.368 . S
H2241 C2249 0.950 . S
H2242 C2247 0.950 . S
H2243 C2248 0.949 . S
H2244 C2250 0.950 . S
H2245 C2251 0.950 . S
H2246 C2252 0.949 . S
C2247 H2242 0.950 . S
C2247 C2249 1.327 . S
C2247 C2253 1.429 . S
C2248 C2240 1.574 . S
C2248 H2243 0.949 . S
C2248 C2254 1.368 . S
C2249 C2233 1.349 . S
C2249 H2241 0.950 . S
C2249 C2247 1.327 . S
C2250 C2238 1.349 . S
C2250 H2244 0.950 . S
C2250 C2251 1.327 . S
C2251 H2245 0.950 . S
C2251 C2250 1.327 . S
C2251 C2255 1.429 . S
C2252 C2235 1.574 . S
C2252 H2246 0.949 . S
C2252 C2256 1.368 . S
C2253 C2234 1.429 . S
C2253 C2247 1.429 . S
C2253 C2254 1.523 . S
C2254 C2235 1.368 . S
C2254 C2248 1.368 . S
C2254 C2253 1.523 . S
C2255 C2239 1.429 . S
C2255 C2251 1.429 . S
C2255 C2256 1.523 . S
C2256 C2240 1.368 . S
C2256 C2252 1.368 . S
C2256 C2255 1.523 . S
H2257 C2232 0.950 . S
H2258 C2234 0.950 . S
H2259 C2235 0.949 . S
H2260 C2237 0.950 . S
H2261 C2239 0.950 . S
C2262 C2263 1.349 . S
C2262 C2264 1.327 . S
C2262 H2287 0.950 . S
C2263 C2262 1.349 . S
C2263 C2279 1.349 . S
C2264 C2262 1.327 . S
C2264 C2283 1.429 . S
C2264 H2288 0.950 . S
C2265 C2282 1.574 . S
C2265 C2284 1.368 . S
C2265 H2289 0.949 . S
H2266 C2270 0.949 . S
C2267 C2268 1.349 . S
C2267 C2269 1.327 . S
C2267 H2290 0.950 . S
C2268 C2267 1.349 . S
C2268 C2280 1.349 . S
C2269 C2267 1.327 . S
C2269 C2285 1.429 . S
C2269 H2291 0.950 . S
C2270 H2266 0.949 . S
C2270 C2278 1.574 . S
C2270 C2286 1.368 . S
H2271 C2279 0.950 . S
H2272 C2277 0.950 . S
H2273 C2278 0.949 . S
H2274 C2280 0.950 . S
H2275 C2281 0.950 . S
H2276 C2282 0.949 . S
C2277 H2272 0.950 . S
C2277 C2279 1.327 . S
C2277 C2283 1.429 . S
C2278 C2270 1.574 . S
C2278 H2273 0.949 . S
C2278 C2284 1.368 . S
C2279 C2263 1.349 . S
C2279 H2271 0.950 . S
C2279 C2277 1.327 . S
C2280 C2268 1.349 . S
C2280 H2274 0.950 . S
C2280 C2281 1.327 . S
C2281 H2275 0.950 . S
C2281 C2280 1.327 . S
C2281 C2285 1.429 . S
C2282 C2265 1.574 . S
C2282 H2276 0.949 . S
C2282 C2286 1.368 . S
C2283 C2264 1.429 . S
C2283 C2277 1.429 . S
C2283 C2284 1.523 . S
C2284 C2265 1.368 . S
C2284 C2278 1.368 . S
C2284 C2283 1.523 . S
C2285 C2269 1.429 . S
C2285 C2281 1.429 . S
C2285 C2286 1.523 . S
C2286 C2270 1.368 . S
C2286 C2282 1.368 . S
C2286 C2285 1.523 . S
H2287 C2262 0.950 . S
H2288 C2264 0.950 . S
H2289 C2265 0.949 . S
H2290 C2267 0.950 . S
H2291 C2269 0.950 . S
C2292 C2293 1.349 . S
C2292 C2294 1.327 . S
C2292 H2317 0.950 . S
C2293 C2292 1.349 . S
C2293 C2309 1.349 . S
C2294 C2292 1.327 . S
C2294 C2313 1.429 . S
C2294 H2318 0.950 . S
C2295 C2312 1.574 . S
C2295 C2314 1.368 . S
C2295 H2319 0.949 . S
H2296 C2300 0.949 . S
C2297 C2298 1.349 . S
C2297 C2299 1.327 . S
C2297 H2320 0.950 . S
C2298 C2297 1.349 . S
C2298 C2310 1.349 . S
C2299 C2297 1.327 . S
C2299 C2315 1.429 . S
C2299 H2321 0.950 . S
C2300 H2296 0.949 . S
C2300 C2308 1.574 . S
C2300 C2316 1.368 . S
H2301 C2309 0.950 . S
H2302 C2307 0.950 . S
H2303 C2308 0.949 . S
H2304 C2310 0.950 . S
H2305 C2311 0.950 . S
H2306 C2312 0.949 . S
C2307 H2302 0.950 . S
C2307 C2309 1.327 . S
C2307 C2313 1.429 . S
C2308 C2300 1.574 . S
C2308 H2303 0.949 . S
C2308 C2314 1.368 . S
C2309 C2293 1.349 . S
C2309 H2301 0.950 . S
C2309 C2307 1.327 . S
C2310 C2298 1.349 . S
C2310 H2304 0.950 . S
C2310 C2311 1.327 . S
C2311 H2305 0.950 . S
C2311 C2310 1.327 . S
C2311 C2315 1.429 . S
C2312 C2295 1.574 . S
C2312 H2306 0.949 . S
C2312 C2316 1.368 . S
C2313 C2294 1.429 . S
C2313 C2307 1.429 . S
C2313 C2314 1.523 . S
C2314 C2295 1.368 . S
C2314 C2308 1.368 . S
C2314 C2313 1.523 . S
C2315 C2299 1.429 . S
C2315 C2311 1.429 . S
C2315 C2316 1.523 . S
C2316 C2300 1.368 . S
C2316 C2312 1.368 . S
C2316 C2315 1.523 . S
H2317 C2292 0.950 . S
H2318 C2294 0.950 . S
H2319 C2295 0.949 . S
H2320 C2297 0.950 . S
H2321 C2299 0.950 . S
C2322 C2323 1.349 . S
C2322 C2324 1.327 . S
C2322 H2347 0.950 . S
C2323 C2322 1.349 . S
C2323 C2339 1.349 . S
C2324 C2322 1.327 . S
C2324 C2343 1.429 . S
C2324 H2348 0.950 . S
C2325 C2342 1.574 . S
C2325 C2344 1.368 . S
C2325 H2349 0.949 . S
H2326 C2330 0.949 . S
C2327 C2328 1.349 . S
C2327 C2329 1.327 . S
C2327 H2350 0.950 . S
C2328 C2327 1.349 . S
C2328 C2340 1.349 . S
C2329 C2327 1.327 . S
C2329 C2345 1.429 . S
C2329 H2351 0.950 . S
C2330 H2326 0.949 . S
C2330 C2338 1.574 . S
C2330 C2346 1.368 . S
H2331 C2339 0.950 . S
H2332 C2337 0.950 . S
H2333 C2338 0.949 . S
H2334 C2340 0.950 . S
H2335 C2341 0.950 . S
H2336 C2342 0.949 . S
C2337 H2332 0.950 . S
C2337 C2339 1.327 . S
C2337 C2343 1.429 . S
C2338 C2330 1.574 . S
C2338 H2333 0.949 . S
C2338 C2344 1.368 . S
C2339 C2323 1.349 . S
C2339 H2331 0.950 . S
C2339 C2337 1.327 . S
C2340 C2328 1.349 . S
C2340 H2334 0.950 . S
C2340 C2341 1.327 . S
C2341 H2335 0.950 . S
C2341 C2340 1.327 . S
C2341 C2345 1.429 . S
C2342 C2325 1.574 . S
C2342 H2336 0.949 . S
C2342 C2346 1.368 . S
C2343 C2324 1.429 . S
C2343 C2337 1.429 . S
C2343 C2344 1.523 . S
C2344 C2325 1.368 . S
C2344 C2338 1.368 . S
C2344 C2343 1.523 . S
C2345 C2329 1.429 . S
C2345 C2341 1.429 . S
C2345 C2346 1.523 . S
C2346 C2330 1.368 . S
C2346 C2342 1.368 . S
C2346 C2345 1.523 . S
H2347 C2322 0.950 . S
H2348 C2324 0.950 . S
H2349 C2325 0.949 . S
H2350 C2327 0.950 . S
H2351 C2329 0.950 . S
C2352 C2353 1.349 . S
C2352 C2354 1.327 . S
C2352 H2377 0.950 . S
C2353 C2352 1.349 . S
C2353 C2369 1.349 . S
C2354 C2352 1.327 . S
C2354 C2373 1.429 . S
C2354 H2378 0.950 . S
C2355 C2372 1.574 . S
C2355 C2374 1.368 . S
C2355 H2379 0.949 . S
H2356 C2360 0.949 . S
C2357 C2358 1.349 . S
C2357 C2359 1.327 . S
C2357 H2380 0.950 . S
C2358 C2357 1.349 . S
C2358 C2370 1.349 . S
C2359 C2357 1.327 . S
C2359 C2375 1.429 . S
C2359 H2381 0.950 . S
C2360 H2356 0.949 . S
C2360 C2368 1.574 . S
C2360 C2376 1.368 . S
H2361 C2369 0.950 . S
H2362 C2367 0.950 . S
H2363 C2368 0.949 . S
H2364 C2370 0.950 . S
H2365 C2371 0.950 . S
H2366 C2372 0.949 . S
C2367 H2362 0.950 . S
C2367 C2369 1.327 . S
C2367 C2373 1.429 . S
C2368 C2360 1.574 . S
C2368 H2363 0.949 . S
C2368 C2374 1.368 . S
C2369 C2353 1.349 . S
C2369 H2361 0.950 . S
C2369 C2367 1.327 . S
C2370 C2358 1.349 . S
C2370 H2364 0.950 . S
C2370 C2371 1.327 . S
C2371 H2365 0.950 . S
C2371 C2370 1.327 . S
C2371 C2375 1.429 . S
C2372 C2355 1.574 . S
C2372 H2366 0.949 . S
C2372 C2376 1.368 . S
C2373 C2354 1.429 . S
C2373 C2367 1.429 . S
C2373 C2374 1.523 . S
C2374 C2355 1.368 . S
C2374 C2368 1.368 . S
C2374 C2373 1.523 . S
C2375 C2359 1.429 . S
C2375 C2371 1.429 . S
C2375 C2376 1.523 . S
C2376 C2360 1.368 . S
C2376 C2372 1.368 . S
C2376 C2375 1.523 . S
H2377 C2352 0.950 . S
H2378 C2354 0.950 . S
H2379 C2355 0.949 . S
H2380 C2357 0.950 . S
H2381 C2359 0.950 . S
C2382 C2383 1.349 . S
C2382 C2384 1.327 . S
C2382 H2407 0.950 . S
C2383 C2382 1.349 . S
C2383 C2399 1.349 . S
C2384 C2382 1.327 . S
C2384 C2403 1.429 . S
C2384 H2408 0.950 . S
C2385 C2402 1.574 . S
C2385 C2404 1.368 . S
C2385 H2409 0.949 . S
H2386 C2390 0.949 . S
C2387 C2388 1.349 . S
C2387 C2389 1.327 . S
C2387 H2410 0.950 . S
C2388 C2387 1.349 . S
C2388 C2400 1.349 . S
C2389 C2387 1.327 . S
C2389 C2405 1.429 . S
C2389 H2411 0.950 . S
C2390 H2386 0.949 . S
C2390 C2398 1.574 . S
C2390 C2406 1.368 . S
H2391 C2399 0.950 . S
H2392 C2397 0.950 . S
H2393 C2398 0.949 . S
H2394 C2400 0.950 . S
H2395 C2401 0.950 . S
H2396 C2402 0.949 . S
C2397 H2392 0.950 . S
C2397 C2399 1.327 . S
C2397 C2403 1.429 . S
C2398 C2390 1.574 . S
C2398 H2393 0.949 . S
C2398 C2404 1.368 . S
C2399 C2383 1.349 . S
C2399 H2391 0.950 . S
C2399 C2397 1.327 . S
C2400 C2388 1.349 . S
C2400 H2394 0.950 . S
C2400 C2401 1.327 . S
C2401 H2395 0.950 . S
C2401 C2400 1.327 . S
C2401 C2405 1.429 . S
C2402 C2385 1.574 . S
C2402 H2396 0.949 . S
C2402 C2406 1.368 . S
C2403 C2384 1.429 . S
C2403 C2397 1.429 . S
C2403 C2404 1.523 . S
C2404 C2385 1.368 . S
C2404 C2398 1.368 . S
C2404 C2403 1.523 . S
C2405 C2389 1.429 . S
C2405 C2401 1.429 . S
C2405 C2406 1.523 . S
C2406 C2390 1.368 . S
C2406 C2402 1.368 . S
C2406 C2405 1.523 . S
H2407 C2382 0.950 . S
H2408 C2384 0.950 . S
H2409 C2385 0.949 . S
H2410 C2387 0.950 . S
H2411 C2389 0.950 . S
C2412 C2413 1.349 . S
C2412 C2414 1.327 . S
C2412 H2437 0.950 . S
C2413 C2412 1.349 . S
C2413 C2429 1.349 . S
C2414 C2412 1.327 . S
C2414 C2433 1.429 . S
C2414 H2438 0.950 . S
C2415 C2432 1.574 . S
C2415 C2434 1.368 . S
C2415 H2439 0.949 . S
H2416 C2420 0.949 . S
C2417 C2418 1.349 . S
C2417 C2419 1.327 . S
C2417 H2440 0.950 . S
C2418 C2417 1.349 . S
C2418 C2430 1.349 . S
C2419 C2417 1.327 . S
C2419 C2435 1.429 . S
C2419 H2441 0.950 . S
C2420 H2416 0.949 . S
C2420 C2428 1.574 . S
C2420 C2436 1.368 . S
H2421 C2429 0.950 . S
H2422 C2427 0.950 . S
H2423 C2428 0.949 . S
H2424 C2430 0.950 . S
H2425 C2431 0.950 . S
H2426 C2432 0.949 . S
C2427 H2422 0.950 . S
C2427 C2429 1.327 . S
C2427 C2433 1.429 . S
C2428 C2420 1.574 . S
C2428 H2423 0.949 . S
C2428 C2434 1.368 . S
C2429 C2413 1.349 . S
C2429 H2421 0.950 . S
C2429 C2427 1.327 . S
C2430 C2418 1.349 . S
C2430 H2424 0.950 . S
C2430 C2431 1.327 . S
C2431 H2425 0.950 . S
C2431 C2430 1.327 . S
C2431 C2435 1.429 . S
C2432 C2415 1.574 . S
C2432 H2426 0.949 . S
C2432 C2436 1.368 . S
C2433 C2414 1.429 . S
C2433 C2427 1.429 . S
C2433 C2434 1.523 . S
C2434 C2415 1.368 . S
C2434 C2428 1.368 . S
C2434 C2433 1.523 . S
C2435 C2419 1.429 . S
C2435 C2431 1.429 . S
C2435 C2436 1.523 . S
C2436 C2420 1.368 . S
C2436 C2432 1.368 . S
C2436 C2435 1.523 . S
H2437 C2412 0.950 . S
H2438 C2414 0.950 . S
H2439 C2415 0.949 . S
H2440 C2417 0.950 . S
H2441 C2419 0.950 . S
C2442 C2443 1.349 . S
C2442 C2444 1.327 . S
C2442 H2467 0.950 . S
C2443 C2442 1.349 . S
C2443 C2459 1.349 . S
C2444 C2442 1.327 . S
C2444 C2463 1.429 . S
C2444 H2468 0.950 . S
C2445 C2462 1.574 . S
C2445 C2464 1.368 . S
C2445 H2469 0.949 . S
H2446 C2450 0.949 . S
C2447 C2448 1.349 . S
C2447 C2449 1.327 . S
C2447 H2470 0.950 . S
C2448 C2447 1.349 . S
C2448 C2460 1.349 . S
C2449 C2447 1.327 . S
C2449 C2465 1.429 . S
C2449 H2471 0.950 . S
C2450 H2446 0.949 . S
C2450 C2458 1.574 . S
C2450 C2466 1.368 . S
H2451 C2459 0.950 . S
H2452 C2457 0.950 . S
H2453 C2458 0.949 . S
H2454 C2460 0.950 . S
H2455 C2461 0.950 . S
H2456 C2462 0.949 . S
C2457 H2452 0.950 . S
C2457 C2459 1.327 . S
C2457 C2463 1.429 . S
C2458 C2450 1.574 . S
C2458 H2453 0.949 . S
C2458 C2464 1.368 . S
C2459 C2443 1.349 . S
C2459 H2451 0.950 . S
C2459 C2457 1.327 . S
C2460 C2448 1.349 . S
C2460 H2454 0.950 . S
C2460 C2461 1.327 . S
C2461 H2455 0.950 . S
C2461 C2460 1.327 . S
C2461 C2465 1.429 . S
C2462 C2445 1.574 . S
C2462 H2456 0.949 . S
C2462 C2466 1.368 . S
C2463 C2444 1.429 . S
C2463 C2457 1.429 . S
C2463 C2464 1.523 . S
C2464 C2445 1.368 . S
C2464 C2458 1.368 . S
C2464 C2463 1.523 . S
C2465 C2449 1.429 . S
C2465 C2461 1.429 . S
C2465 C2466 1.523 . S
C2466 C2450 1.368 . S
C2466 C2462 1.368 . S
C2466 C2465 1.523 . S
H2467 C2442 0.950 . S
H2468 C2444 0.950 . S
H2469 C2445 0.949 . S
H2470 C2447 0.950 . S
H2471 C2449 0.950 . S
C2472 C2473 1.349 . S
C2472 C2474 1.327 . S
C2472 H2497 0.950 . S
C2473 C2472 1.349 . S
C2473 C2489 1.349 . S
C2474 C2472 1.327 . S
C2474 C2493 1.429 . S
C2474 H2498 0.950 . S
C2475 C2492 1.574 . S
C2475 C2494 1.368 . S
C2475 H2499 0.949 . S
H2476 C2480 0.949 . S
C2477 C2478 1.349 . S
C2477 C2479 1.327 . S
C2477 H2500 0.950 . S
C2478 C2477 1.349 . S
C2478 C2490 1.349 . S
C2479 C2477 1.327 . S
C2479 C2495 1.429 . S
C2479 H2501 0.950 . S
C2480 H2476 0.949 . S
C2480 C2488 1.574 . S
C2480 C2496 1.368 . S
H2481 C2489 0.950 . S
H2482 C2487 0.950 . S
H2483 C2488 0.949 . S
H2484 C2490 0.950 . S
H2485 C2491 0.950 . S
H2486 C2492 0.949 . S
C2487 H2482 0.950 . S
C2487 C2489 1.327 . S
C2487 C2493 1.429 . S
C2488 C2480 1.574 . S
C2488 H2483 0.949 . S
C2488 C2494 1.368 . S
C2489 C2473 1.349 . S
C2489 H2481 0.950 . S
C2489 C2487 1.327 . S
C2490 C2478 1.349 . S
C2490 H2484 0.950 . S
C2490 C2491 1.327 . S
C2491 H2485 0.950 . S
C2491 C2490 1.327 . S
C2491 C2495 1.429 . S
C2492 C2475 1.574 . S
C2492 H2486 0.949 . S
C2492 C2496 1.368 . S
C2493 C2474 1.429 . S
C2493 C2487 1.429 . S
C2493 C2494 1.523 . S
C2494 C2475 1.368 . S
C2494 C2488 1.368 . S
C2494 C2493 1.523 . S
C2495 C2479 1.429 . S
C2495 C2491 1.429 . S
C2495 C2496 1.523 . S
C2496 C2480 1.368 . S
C2496 C2492 1.368 . S
C2496 C2495 1.523 . S
H2497 C2472 0.950 . S
H2498 C2474 0.950 . S
H2499 C2475 0.949 . S
H2500 C2477 0.950 . S
H2501 C2479 0.950 . S
C2502 C2503 1.349 . S
C2502 C2504 1.327 . S
C2502 H2527 0.950 . S
C2503 C2502 1.349 . S
C2503 C2519 1.349 . S
C2504 C2502 1.327 . S
C2504 C2523 1.429 . S
C2504 H2528 0.950 . S
C2505 C2522 1.574 . S
C2505 C2524 1.368 . S
C2505 H2529 0.949 . S
H2506 C2510 0.949 . S
C2507 C2508 1.349 . S
C2507 C2509 1.327 . S
C2507 H2530 0.950 . S
C2508 C2507 1.349 . S
C2508 C2520 1.349 . S
C2509 C2507 1.327 . S
C2509 C2525 1.429 . S
C2509 H2531 0.950 . S
C2510 H2506 0.949 . S
C2510 C2518 1.574 . S
C2510 C2526 1.368 . S
H2511 C2519 0.950 . S
H2512 C2517 0.950 . S
H2513 C2518 0.949 . S
H2514 C2520 0.950 . S
H2515 C2521 0.950 . S
H2516 C2522 0.949 . S
C2517 H2512 0.950 . S
C2517 C2519 1.327 . S
C2517 C2523 1.429 . S
C2518 C2510 1.574 . S
C2518 H2513 0.949 . S
C2518 C2524 1.368 . S
C2519 C2503 1.349 . S
C2519 H2511 0.950 . S
C2519 C2517 1.327 . S
C2520 C2508 1.349 . S
C2520 H2514 0.950 . S
C2520 C2521 1.327 . S
C2521 H2515 0.950 . S
C2521 C2520 1.327 . S
C2521 C2525 1.429 . S
C2522 C2505 1.574 . S
C2522 H2516 0.949 . S
C2522 C2526 1.368 . S
C2523 C2504 1.429 . S
C2523 C2517 1.429 . S
C2523 C2524 1.523 . S
C2524 C2505 1.368 . S
C2524 C2518 1.368 . S
C2524 C2523 1.523 . S
C2525 C2509 1.429 . S
C2525 C2521 1.429 . S
C2525 C2526 1.523 . S
C2526 C2510 1.368 . S
C2526 C2522 1.368 . S
C2526 C2525 1.523 . S
H2527 C2502 0.950 . S
H2528 C2504 0.950 . S
H2529 C2505 0.949 . S
H2530 C2507 0.950 . S
H2531 C2509 0.950 . S
C2532 C2533 1.349 . S
C2532 C2534 1.327 . S
C2532 H2557 0.950 . S
C2533 C2532 1.349 . S
C2533 C2549 1.349 . S
C2534 C2532 1.327 . S
C2534 C2553 1.429 . S
C2534 H2558 0.950 . S
C2535 C2552 1.574 . S
C2535 C2554 1.368 . S
C2535 H2559 0.949 . S
H2536 C2540 0.949 . S
C2537 C2538 1.349 . S
C2537 C2539 1.327 . S
C2537 H2560 0.950 . S
C2538 C2537 1.349 . S
C2538 C2550 1.349 . S
C2539 C2537 1.327 . S
C2539 C2555 1.429 . S
C2539 H2561 0.950 . S
C2540 H2536 0.949 . S
C2540 C2548 1.574 . S
C2540 C2556 1.368 . S
H2541 C2549 0.950 . S
H2542 C2547 0.950 . S
H2543 C2548 0.949 . S
H2544 C2550 0.950 . S
H2545 C2551 0.950 . S
H2546 C2552 0.949 . S
C2547 H2542 0.950 . S
C2547 C2549 1.327 . S
C2547 C2553 1.429 . S
C2548 C2540 1.574 . S
C2548 H2543 0.949 . S
C2548 C2554 1.368 . S
C2549 C2533 1.349 . S
C2549 H2541 0.950 . S
C2549 C2547 1.327 . S
C2550 C2538 1.349 . S
C2550 H2544 0.950 . S
C2550 C2551 1.327 . S
C2551 H2545 0.950 . S
C2551 C2550 1.327 . S
C2551 C2555 1.429 . S
C2552 C2535 1.574 . S
C2552 H2546 0.949 . S
C2552 C2556 1.368 . S
C2553 C2534 1.429 . S
C2553 C2547 1.429 . S
C2553 C2554 1.523 . S
C2554 C2535 1.368 . S
C2554 C2548 1.368 . S
C2554 C2553 1.523 . S
C2555 C2539 1.429 . S
C2555 C2551 1.429 . S
C2555 C2556 1.523 . S
C2556 C2540 1.368 . S
C2556 C2552 1.368 . S
C2556 C2555 1.523 . S
H2557 C2532 0.950 . S
H2558 C2534 0.950 . S
H2559 C2535 0.949 . S
H2560 C2537 0.950 . S
H2561 C2539 0.950 . S
C2562 C2563 1.349 . S
C2562 C2564 1.327 . S
C2562 H2587 0.950 . S
C2563 C2562 1.349 . S
C2563 C2579 1.349 . S
C2564 C2562 1.327 . S
C2564 C2583 1.429 . S
C2564 H2588 0.950 . S
C2565 C2582 1.574 . S
C2565 C2584 1.368 . S
C2565 H2589 0.949 . S
H2566 C2570 0.949 . S
C2567 C2568 1.349 . S
C2567 C2569 1.327 . S
C2567 H2590 0.950 . S
C2568 C2567 1.349 . S
C2568 C2580 1.349 . S
C2569 C2567 1.327 . S
C2569 C2585 1.429 . S
C2569 H2591 0.950 . S
C2570 H2566 0.949 . S
C2570 C2578 1.574 . S
C2570 C2586 1.368 . S
H2571 C2579 0.950 . S
H2572 C2577 0.950 . S
H2573 C2578 0.949 . S
H2574 C2580 0.950 . S
H2575 C2581 0.950 . S
H2576 C2582 0.949 . S
C2577 H2572 0.950 . S
C2577 C2579 1.327 . S
C2577 C2583 1.429 . S
C2578 C2570 1.574 . S
C2578 H2573 0.949 . S
C2578 C2584 1.368 . S
C2579 C2563 1.349 . S
C2579 H2571 0.950 . S
C2579 C2577 1.327 . S
C2580 C2568 1.349 . S
C2580 H2574 0.950 . S
C2580 C2581 1.327 . S
C2581 H2575 0.950 . S
C2581 C2580 1.327 . S
C2581 C2585 1.429 . S
C2582 C2565 1.574 . S
C2582 H2576 0.949 . S
C2582 C2586 1.368 . S
C2583 C2564 1.429 . S
C2583 C2577 1.429 . S
C2583 C2584 1.523 . S
C2584 C2565 1.368 . S
C2584 C2578 1.368 . S
C2584 C2583 1.523 . S
C2585 C2569 1.429 . S
C2585 C2581 1.429 . S
C2585 C2586 1.523 . S
C2586 C2570 1.368 . S
C2586 C2582 1.368 . S
C2586 C2585 1.523 . S
H2587 C2562 0.950 . S
H2588 C2564 0.950 . S
H2589 C2565 0.949 . S
H2590 C2567 0.950 . S
H2591 C2569 0.950 . S
C2592 C2593 1.349 . S
C2592 C2594 1.327 . S
C2592 H2617 0.950 . S
C2593 C2592 1.349 . S
C2593 C2609 1.349 . S
C2594 C2592 1.327 . S
C2594 C2613 1.429 . S
C2594 H2618 0.950 . S
C2595 C2612 1.574 . S
C2595 C2614 1.368 . S
C2595 H2619 0.949 . S
H2596 C2600 0.949 . S
C2597 C2598 1.349 . S
C2597 C2599 1.327 . S
C2597 H2620 0.950 . S
C2598 C2597 1.349 . S
C2598 C2610 1.349 . S
C2599 C2597 1.327 . S
C2599 C2615 1.429 . S
C2599 H2621 0.950 . S
C2600 H2596 0.949 . S
C2600 C2608 1.574 . S
C2600 C2616 1.368 . S
H2601 C2609 0.950 . S
H2602 C2607 0.950 . S
H2603 C2608 0.949 . S
H2604 C2610 0.950 . S
H2605 C2611 0.950 . S
H2606 C2612 0.949 . S
C2607 H2602 0.950 . S
C2607 C2609 1.327 . S
C2607 C2613 1.429 . S
C2608 C2600 1.574 . S
C2608 H2603 0.949 . S
C2608 C2614 1.368 . S
C2609 C2593 1.349 . S
C2609 H2601 0.950 . S
C2609 C2607 1.327 . S
C2610 C2598 1.349 . S
C2610 H2604 0.950 . S
C2610 C2611 1.327 . S
C2611 H2605 0.950 . S
C2611 C2610 1.327 . S
C2611 C2615 1.429 . S
C2612 C2595 1.574 . S
C2612 H2606 0.949 . S
C2612 C2616 1.368 . S
C2613 C2594 1.429 . S
C2613 C2607 1.429 . S
C2613 C2614 1.523 . S
C2614 C2595 1.368 . S
C2614 C2608 1.368 . S
C2614 C2613 1.523 . S
C2615 C2599 1.429 . S
C2615 C2611 1.429 . S
C2615 C2616 1.523 . S
C2616 C2600 1.368 . S
C2616 C2612 1.368 . S
C2616 C2615 1.523 . S
H2617 C2592 0.950 . S
H2618 C2594 0.950 . S
H2619 C2595 0.949 . S
H2620 C2597 0.950 . S
H2621 C2599 0.950 . S
C2622 C2623 1.349 . S
C2622 C2624 1.327 . S
C2622 H2647 0.950 . S
C2623 C2622 1.349 . S
C2623 C2639 1.349 . S
C2624 C2622 1.327 . S
C2624 C2643 1.429 . S
C2624 H2648 0.950 . S
C2625 C2642 1.574 . S
C2625 C2644 1.368 . S
C2625 H2649 0.949 . S
H2626 C2630 0.949 . S
C2627 C2628 1.349 . S
C2627 C2629 1.327 . S
C2627 H2650 0.950 . S
C2628 C2627 1.349 . S
C2628 C2640 1.349 . S
C2629 C2627 1.327 . S
C2629 C2645 1.429 . S
C2629 H2651 0.950 . S
C2630 H2626 0.949 . S
C2630 C2638 1.574 . S
C2630 C2646 1.368 . S
H2631 C2639 0.950 . S
H2632 C2637 0.950 . S
H2633 C2638 0.949 . S
H2634 C2640 0.950 . S
H2635 C2641 0.950 . S
H2636 C2642 0.949 . S
C2637 H2632 0.950 . S
C2637 C2639 1.327 . S
C2637 C2643 1.429 . S
C2638 C2630 1.574 . S
C2638 H2633 0.949 . S
C2638 C2644 1.368 . S
C2639 C2623 1.349 . S
C2639 H2631 0.950 . S
C2639 C2637 1.327 . S
C2640 C2628 1.349 . S
C2640 H2634 0.950 . S
C2640 C2641 1.327 . S
C2641 H2635 0.950 . S
C2641 C2640 1.327 . S
C2641 C2645 1.429 . S
C2642 C2625 1.574 . S
C2642 H2636 0.949 . S
C2642 C2646 1.368 . S
C2643 C2624 1.429 . S
C2643 C2637 1.429 . S
C2643 C2644 1.523 . S
C2644 C2625 1.368 . S
C2644 C2638 1.368 . S
C2644 C2643 1.523 . S
C2645 C2629 1.429 . S
C2645 C2641 1.429 . S
C2645 C2646 1.523 . S
C2646 C2630 1.368 . S
C2646 C2642 1.368 . S
C2646 C2645 1.523 . S
H2647 C2622 0.950 . S
H2648 C2624 0.950 . S
H2649 C2625 0.949 . S
H2650 C2627 0.950 . S
H2651 C2629 0.950 . S
C2652 C2653 1.349 . S
C2652 C2654 1.327 . S
C2652 H2677 0.950 . S
C2653 C2652 1.349 . S
C2653 C2669 1.349 . S
C2654 C2652 1.327 . S
C2654 C2673 1.429 . S
C2654 H2678 0.950 . S
C2655 C2672 1.574 . S
C2655 C2674 1.368 . S
C2655 H2679 0.949 . S
H2656 C2660 0.949 . S
C2657 C2658 1.349 . S
C2657 C2659 1.327 . S
C2657 H2680 0.950 . S
C2658 C2657 1.349 . S
C2658 C2670 1.349 . S
C2659 C2657 1.327 . S
C2659 C2675 1.429 . S
C2659 H2681 0.950 . S
C2660 H2656 0.949 . S
C2660 C2668 1.574 . S
C2660 C2676 1.368 . S
H2661 C2669 0.950 . S
H2662 C2667 0.950 . S
H2663 C2668 0.949 . S
H2664 C2670 0.950 . S
H2665 C2671 0.950 . S
H2666 C2672 0.949 . S
C2667 H2662 0.950 . S
C2667 C2669 1.327 . S
C2667 C2673 1.429 . S
C2668 C2660 1.574 . S
C2668 H2663 0.949 . S
C2668 C2674 1.368 . S
C2669 C2653 1.349 . S
C2669 H2661 0.950 . S
C2669 C2667 1.327 . S
C2670 C2658 1.349 . S
C2670 H2664 0.950 . S
C2670 C2671 1.327 . S
C2671 H2665 0.950 . S
C2671 C2670 1.327 . S
C2671 C2675 1.429 . S
C2672 C2655 1.574 . S
C2672 H2666 0.949 . S
C2672 C2676 1.368 . S
C2673 C2654 1.429 . S
C2673 C2667 1.429 . S
C2673 C2674 1.523 . S
C2674 C2655 1.368 . S
C2674 C2668 1.368 . S
C2674 C2673 1.523 . S
C2675 C2659 1.429 . S
C2675 C2671 1.429 . S
C2675 C2676 1.523 . S
C2676 C2660 1.368 . S
C2676 C2672 1.368 . S
C2676 C2675 1.523 . S
H2677 C2652 0.950 . S
H2678 C2654 0.950 . S
H2679 C2655 0.949 . S
H2680 C2657 0.950 . S
H2681 C2659 0.950 . S
C2682 C2683 1.349 . S
C2682 C2684 1.327 . S
C2682 H2707 0.950 . S
C2683 C2682 1.349 . S
C2683 C2699 1.349 . S
C2684 C2682 1.327 . S
C2684 C2703 1.429 . S
C2684 H2708 0.950 . S
C2685 C2702 1.574 . S
C2685 C2704 1.368 . S
C2685 H2709 0.949 . S
H2686 C2690 0.949 . S
C2687 C2688 1.349 . S
C2687 C2689 1.327 . S
C2687 H2710 0.950 . S
C2688 C2687 1.349 . S
C2688 C2700 1.349 . S
C2689 C2687 1.327 . S
C2689 C2705 1.429 . S
C2689 H2711 0.950 . S
C2690 H2686 0.949 . S
C2690 C2698 1.574 . S
C2690 C2706 1.368 . S
H2691 C2699 0.950 . S
H2692 C2697 0.950 . S
H2693 C2698 0.949 . S
H2694 C2700 0.950 . S
H2695 C2701 0.950 . S
H2696 C2702 0.949 . S
C2697 H2692 0.950 . S
C2697 C2699 1.327 . S
C2697 C2703 1.429 . S
C2698 C2690 1.574 . S
C2698 H2693 0.949 . S
C2698 C2704 1.368 . S
C2699 C2683 1.349 . S
C2699 H2691 0.950 . S
C2699 C2697 1.327 . S
C2700 C2688 1.349 . S
C2700 H2694 0.950 . S
C2700 C2701 1.327 . S
C2701 H2695 0.950 . S
C2701 C2700 1.327 . S
C2701 C2705 1.429 . S
C2702 C2685 1.574 . S
C2702 H2696 0.949 . S
C2702 C2706 1.368 . S
C2703 C2684 1.429 . S
C2703 C2697 1.429 . S
C2703 C2704 1.523 . S
C2704 C2685 1.368 . S
C2704 C2698 1.368 . S
C2704 C2703 1.523 . S
C2705 C2689 1.429 . S
C2705 C2701 1.429 . S
C2705 C2706 1.523 . S
C2706 C2690 1.368 . S
C2706 C2702 1.368 . S
C2706 C2705 1.523 . S
H2707 C2682 0.950 . S
H2708 C2684 0.950 . S
H2709 C2685 0.949 . S
H2710 C2687 0.950 . S
H2711 C2689 0.950 . S
C2712 C2713 1.349 . S
C2712 C2714 1.327 . S
C2712 H2737 0.950 . S
C2713 C2712 1.349 . S
C2713 C2729 1.349 . S
C2714 C2712 1.327 . S
C2714 C2733 1.429 . S
C2714 H2738 0.950 . S
C2715 C2732 1.574 . S
C2715 C2734 1.368 . S
C2715 H2739 0.949 . S
H2716 C2720 0.949 . S
C2717 C2718 1.349 . S
C2717 C2719 1.327 . S
C2717 H2740 0.950 . S
C2718 C2717 1.349 . S
C2718 C2730 1.349 . S
C2719 C2717 1.327 . S
C2719 C2735 1.429 . S
C2719 H2741 0.950 . S
C2720 H2716 0.949 . S
C2720 C2728 1.574 . S
C2720 C2736 1.368 . S
H2721 C2729 0.950 . S
H2722 C2727 0.950 . S
H2723 C2728 0.949 . S
H2724 C2730 0.950 . S
H2725 C2731 0.950 . S
H2726 C2732 0.949 . S
C2727 H2722 0.950 . S
C2727 C2729 1.327 . S
C2727 C2733 1.429 . S
C2728 C2720 1.574 . S
C2728 H2723 0.949 . S
C2728 C2734 1.368 . S
C2729 C2713 1.349 . S
C2729 H2721 0.950 . S
C2729 C2727 1.327 . S
C2730 C2718 1.349 . S
C2730 H2724 0.950 . S
C2730 C2731 1.327 . S
C2731 H2725 0.950 . S
C2731 C2730 1.327 . S
C2731 C2735 1.429 . S
C2732 C2715 1.574 . S
C2732 H2726 0.949 . S
C2732 C2736 1.368 . S
C2733 C2714 1.429 . S
C2733 C2727 1.429 . S
C2733 C2734 1.523 . S
C2734 C2715 1.368 . S
C2734 C2728 1.368 . S
C2734 C2733 1.523 . S
C2735 C2719 1.429 . S
C2735 C2731 1.429 . S
C2735 C2736 1.523 . S
C2736 C2720 1.368 . S
C2736 C2732 1.368 . S
C2736 C2735 1.523 . S
H2737 C2712 0.950 . S
H2738 C2714 0.950 . S
H2739 C2715 0.949 . S
H2740 C2717 0.950 . S
H2741 C2719 0.950 . S
C2742 C2743 1.349 . S
C2742 C2744 1.327 . S
C2742 H2767 0.950 . S
C2743 C2742 1.349 . S
C2743 C2759 1.349 . S
C2744 C2742 1.327 . S
C2744 C2763 1.429 . S
C2744 H2768 0.950 . S
C2745 C2762 1.574 . S
C2745 C2764 1.368 . S
C2745 H2769 0.949 . S
H2746 C2750 0.949 . S
C2747 C2748 1.349 . S
C2747 C2749 1.327 . S
C2747 H2770 0.950 . S
C2748 C2747 1.349 . S
C2748 C2760 1.349 . S
C2749 C2747 1.327 . S
C2749 C2765 1.429 . S
C2749 H2771 0.950 . S
C2750 H2746 0.949 . S
C2750 C2758 1.574 . S
C2750 C2766 1.368 . S
H2751 C2759 0.950 . S
H2752 C2757 0.950 . S
H2753 C2758 0.949 . S
H2754 C2760 0.950 . S
H2755 C2761 0.950 . S
H2756 C2762 0.949 . S
C2757 H2752 0.950 . S
C2757 C2759 1.327 . S
C2757 C2763 1.429 . S
C2758 C2750 1.574 . S
C2758 H2753 0.949 . S
C2758 C2764 1.368 . S
C2759 C2743 1.349 . S
C2759 H2751 0.950 . S
C2759 C2757 1.327 . S
C2760 C2748 1.349 . S
C2760 H2754 0.950 . S
C2760 C2761 1.327 . S
C2761 H2755 0.950 . S
C2761 C2760 1.327 . S
C2761 C2765 1.429 . S
C2762 C2745 1.574 . S
C2762 H2756 0.949 . S
C2762 C2766 1.368 . S
C2763 C2744 1.429 . S
C2763 C2757 1.429 . S
C2763 C2764 1.523 . S
C2764 C2745 1.368 . S
C2764 C2758 1.368 . S
C2764 C2763 1.523 . S
C2765 C2749 1.429 . S
C2765 C2761 1.429 . S
C2765 C2766 1.523 . S
C2766 C2750 1.368 . S
C2766 C2762 1.368 . S
C2766 C2765 1.523 . S
H2767 C2742 0.950 . S
H2768 C2744 0.950 . S
H2769 C2745 0.949 . S
H2770 C2747 0.950 . S
H2771 C2749 0.950 . S
C618 C318 1.232 . S
C613 N300 1.206 . S
C643 N278 1.455 . S
C648 C316 1.482 . S
C678 C317 1.482 . S
C673 N265 1.455 . S
C703 N287 1.206 . S
C708 C319 1.232 . S
C738 C363 1.240 . S
C733 N213 1.214 . S
C768 C423 1.169 . S
C763 N226 1.145 . S
C793 N239 1.214 . S
C798 C362 1.244 . S
C828 C422 1.426 . S
C823 N252 1.400 . S
C853 N161 1.214 . S
C858 C364 1.240 . S
C888 C420 1.426 . S
C883 N174 1.400 . S
C913 N187 1.214 . S
C918 C365 1.244 . S
C943 N200 1.145 . S
C948 C421 1.169 . S
C978 C471 1.232 . S
C973 N144 1.206 . S
C1003 N122 1.455 . S
C1008 C470 1.482 . S
C1033 N109 1.455 . S
C1038 C472 1.482 . S
C1068 C473 1.232 . S
C1063 N131 1.206 1_554 S
C1093 N57 1.214 . S
C1098 C514 1.240 . S
C1123 N70 1.144 . S
C1128 C573 1.170 . S
C1153 N83 1.214 . S
C1158 C512 1.244 . S
C1183 N96 1.400 1_545 S
C1188 C572 1.426 . S
C1218 C513 1.240 . S
C1213 N5 1.214 . S
C1248 C570 1.426 . S
C1243 N18 1.401 . S
C1273 N31 1.214 . S
C1278 C515 1.244 . S
C1308 C571 1.169 . S
C1303 N44 1.144 . S
C1338 C315 1.210 . S
C1333 N2 1.170 . S
C1363 N15 1.476 . S
C1368 C321 1.517 . S
C1393 N27 1.663 . S
C1398 C313 1.666 . S
C1423 N41 1.193 . S
C1428 C320 1.237 . S
C1453 N54 1.170 . S
C1458 C312 1.210 . S
C1488 C322 1.237 . S
C1483 N67 1.193 . S
C1513 N79 1.663 . S
C1518 C314 1.666 . S
C1548 C323 1.517 . S
C1543 N93 1.476 1_545 S
C1578 C369 1.616 . S
C1573 N40 1.614 . S
C1603 N1 1.581 . S
C1608 C412 1.585 . S
C1638 C367 1.644 . S
C1633 N14 1.639 . S
C1668 C414 1.139 . S
C1663 N28 1.099 . S
C1693 N66 1.612 . S
C1698 C368 1.616 . S
C1728 C413 1.139 . S
C1723 N80 1.100 . S
C1758 C366 1.644 . S
C1753 N92 1.639 1_545 S
C1788 C415 1.585 . S
C1783 N53 1.582 . S
C1818 C419 1.545 . S
C1813 N106 1.501 . S
C1843 N119 1.501 . S
C1848 C418 1.544 . S
C1878 C370 1.861 . S
C1873 N105 1.857 . S
C1908 C417 1.760 . S
C1903 N135 1.757 1_554 S
C1933 N145 1.246 . S
C1938 C373 1.303 . S
C1963 N148 1.757 . S
C1968 C416 1.760 . S
C1998 C372 1.861 . S
C1993 N118 1.859 . S
C2028 C371 1.303 . S
C2023 N132 1.246 1_554 S
C2058 C465 1.210 . S
C2053 N158 1.170 . S
C2088 C468 1.517 . S
C2083 N171 1.476 . S
C2113 N183 1.663 . S
C2118 C464 1.666 . S
C2148 C466 1.237 . S
C2143 N197 1.193 . S
C2178 C462 1.210 . S
C2173 N210 1.170 . S
C2203 N223 1.193 . S
C2208 C467 1.237 . S
C2233 N235 1.663 . S
C2238 C463 1.666 . S
C2268 C469 1.517 . S
C2263 N249 1.476 . S
C2298 C523 1.617 . S
C2293 N196 1.612 . S
C2323 N157 1.581 . S
C2328 C562 1.585 . S
C2358 C522 1.644 . S
C2353 N170 1.639 . S
C2388 C564 1.139 . S
C2383 N184 1.099 . S
C2418 C521 1.617 . S
C2413 N222 1.612 . S
C2443 N236 1.099 . S
C2448 C563 1.139 . S
C2478 C520 1.644 . S
C2473 N248 1.639 . S
C2508 C565 1.585 . S
C2503 N209 1.582 . S
C2538 C569 1.545 . S
C2533 N262 1.501 . S
C2563 N275 1.501 . S
C2568 C568 1.545 . S
C2598 C516 1.861 . S
C2593 N261 1.857 . S
C2623 N291 1.757 . S
C2628 C567 1.760 . S
C2658 C519 1.303 . S
C2653 N301 1.246 . S
C2688 C566 1.760 . S
C2683 N304 1.757 . S
C2718 C517 1.861 . S
C2713 N274 1.857 . S
C2743 N288 1.246 . S
C2748 C518 1.303 . S
