# Generated by pormake.
# Topology eea, (3,6)-cn, num edge types: 1
# Building blocks:
#     Node 0, Type 0, BuildingBlock: PAMTOO_clean_linker_0, # of connection points: 3
#     Node 1, Type 0, BuildingBlock: PAMTOO_clean_linker_0, # of connection points: 3
#     Node 2, Type 0, BuildingBlock: PAMTOO_clean_linker_0, # of connection points: 3
#     Node 3, Type 0, BuildingBlock: PAMTOO_clean_linker_0, # of connection points: 3
#     Node 4, Type 0, BuildingBlock: PAMTOO_clean_linker_0, # of connection points: 3
#     Node 5, Type 0, BuildingBlock: PAMTOO_clean_linker_0, # of connection points: 3
#     Node 6, Type 0, BuildingBlock: PAMTOO_clean_linker_0, # of connection points: 3
#     Node 7, Type 0, BuildingBlock: PAMTOO_clean_linker_0, # of connection points: 3
#     Node 8, Type 0, BuildingBlock: PAMTOO_clean_linker_0, # of connection points: 3
#     Node 9, Type 0, BuildingBlock: PAMTOO_clean_linker_0, # of connection points: 3
#     Node 10, Type 0, BuildingBlock: PAMTOO_clean_linker_0, # of connection points: 3
#     Node 11, Type 0, BuildingBlock: PAMTOO_clean_linker_0, # of connection points: 3
#     Node 12, Type 0, BuildingBlock: PAMTOO_clean_linker_0, # of connection points: 3
#     Node 13, Type 0, BuildingBlock: PAMTOO_clean_linker_0, # of connection points: 3
#     Node 14, Type 0, BuildingBlock: PAMTOO_clean_linker_0, # of connection points: 3
#     Node 15, Type 0, BuildingBlock: PAMTOO_clean_linker_0, # of connection points: 3
#     Node 16, Type 0, BuildingBlock: PAMTOO_clean_linker_0, # of connection points: 3
#     Node 17, Type 0, BuildingBlock: PAMTOO_clean_linker_0, # of connection points: 3
#     Node 18, Type 1, BuildingBlock: NUHQIS_clean_sbu_0, # of connection points: 6
#     Node 19, Type 1, BuildingBlock: NUHQIS_clean_sbu_0, # of connection points: 6
#     Node 20, Type 1, BuildingBlock: NUHQIS_clean_sbu_0, # of connection points: 6
#     Node 21, Type 1, BuildingBlock: NUHQIS_clean_sbu_0, # of connection points: 6
#     Node 22, Type 1, BuildingBlock: NUHQIS_clean_sbu_0, # of connection points: 6
#     Node 23, Type 1, BuildingBlock: NUHQIS_clean_sbu_0, # of connection points: 6
#     Node 24, Type 1, BuildingBlock: NUHQIS_clean_sbu_0, # of connection points: 6
#     Node 25, Type 1, BuildingBlock: NUHQIS_clean_sbu_0, # of connection points: 6
#     Node 26, Type 1, BuildingBlock: NUHQIS_clean_sbu_0, # of connection points: 6
#     Edge 27, Type (0, 1), BuildingBlock: XIVTED_clean_linker_0, # of connection points: 2
#     Edge 28, Type (0, 1), BuildingBlock: XIVTED_clean_linker_0, # of connection points: 2
#     Edge 29, Type (0, 1), BuildingBlock: XIVTED_clean_linker_0, # of connection points: 2
#     Edge 30, Type (0, 1), BuildingBlock: XIVTED_clean_linker_0, # of connection points: 2
#     Edge 31, Type (0, 1), BuildingBlock: XIVTED_clean_linker_0, # of connection points: 2
#     Edge 32, Type (0, 1), BuildingBlock: XIVTED_clean_linker_0, # of connection points: 2
#     Edge 33, Type (0, 1), BuildingBlock: XIVTED_clean_linker_0, # of connection points: 2
#     Edge 34, Type (0, 1), BuildingBlock: XIVTED_clean_linker_0, # of connection points: 2
#     Edge 35, Type (0, 1), BuildingBlock: XIVTED_clean_linker_0, # of connection points: 2
#     Edge 36, Type (0, 1), BuildingBlock: XIVTED_clean_linker_0, # of connection points: 2
#     Edge 37, Type (0, 1), BuildingBlock: XIVTED_clean_linker_0, # of connection points: 2
#     Edge 38, Type (0, 1), BuildingBlock: XIVTED_clean_linker_0, # of connection points: 2
#     Edge 39, Type (0, 1), BuildingBlock: XIVTED_clean_linker_0, # of connection points: 2
#     Edge 40, Type (0, 1), BuildingBlock: XIVTED_clean_linker_0, # of connection points: 2
#     Edge 41, Type (0, 1), BuildingBlock: XIVTED_clean_linker_0, # of connection points: 2
#     Edge 42, Type (0, 1), BuildingBlock: XIVTED_clean_linker_0, # of connection points: 2
#     Edge 43, Type (0, 1), BuildingBlock: XIVTED_clean_linker_0, # of connection points: 2
#     Edge 44, Type (0, 1), BuildingBlock: XIVTED_clean_linker_0, # of connection points: 2
#     Edge 45, Type (0, 1), BuildingBlock: XIVTED_clean_linker_0, # of connection points: 2
#     Edge 46, Type (0, 1), BuildingBlock: XIVTED_clean_linker_0, # of connection points: 2
#     Edge 47, Type (0, 1), BuildingBlock: XIVTED_clean_linker_0, # of connection points: 2
#     Edge 48, Type (0, 1), BuildingBlock: XIVTED_clean_linker_0, # of connection points: 2
#     Edge 49, Type (0, 1), BuildingBlock: XIVTED_clean_linker_0, # of connection points: 2
#     Edge 50, Type (0, 1), BuildingBlock: XIVTED_clean_linker_0, # of connection points: 2
#     Edge 51, Type (0, 1), BuildingBlock: XIVTED_clean_linker_0, # of connection points: 2
#     Edge 52, Type (0, 1), BuildingBlock: XIVTED_clean_linker_0, # of connection points: 2
#     Edge 53, Type (0, 1), BuildingBlock: XIVTED_clean_linker_0, # of connection points: 2
#     Edge 54, Type (0, 1), BuildingBlock: XIVTED_clean_linker_0, # of connection points: 2
#     Edge 55, Type (0, 1), BuildingBlock: XIVTED_clean_linker_0, # of connection points: 2
#     Edge 56, Type (0, 1), BuildingBlock: XIVTED_clean_linker_0, # of connection points: 2
#     Edge 57, Type (0, 1), BuildingBlock: XIVTED_clean_linker_0, # of connection points: 2
#     Edge 58, Type (0, 1), BuildingBlock: XIVTED_clean_linker_0, # of connection points: 2
#     Edge 59, Type (0, 1), BuildingBlock: XIVTED_clean_linker_0, # of connection points: 2
#     Edge 60, Type (0, 1), BuildingBlock: XIVTED_clean_linker_0, # of connection points: 2
#     Edge 61, Type (0, 1), BuildingBlock: XIVTED_clean_linker_0, # of connection points: 2
#     Edge 62, Type (0, 1), BuildingBlock: XIVTED_clean_linker_0, # of connection points: 2
#     Edge 63, Type (0, 1), BuildingBlock: XIVTED_clean_linker_0, # of connection points: 2
#     Edge 64, Type (0, 1), BuildingBlock: XIVTED_clean_linker_0, # of connection points: 2
#     Edge 65, Type (0, 1), BuildingBlock: XIVTED_clean_linker_0, # of connection points: 2
#     Edge 66, Type (0, 1), BuildingBlock: XIVTED_clean_linker_0, # of connection points: 2
#     Edge 67, Type (0, 1), BuildingBlock: XIVTED_clean_linker_0, # of connection points: 2
#     Edge 68, Type (0, 1), BuildingBlock: XIVTED_clean_linker_0, # of connection points: 2
#     Edge 69, Type (0, 1), BuildingBlock: XIVTED_clean_linker_0, # of connection points: 2
#     Edge 70, Type (0, 1), BuildingBlock: XIVTED_clean_linker_0, # of connection points: 2
#     Edge 71, Type (0, 1), BuildingBlock: XIVTED_clean_linker_0, # of connection points: 2
#     Edge 72, Type (0, 1), BuildingBlock: XIVTED_clean_linker_0, # of connection points: 2
#     Edge 73, Type (0, 1), BuildingBlock: XIVTED_clean_linker_0, # of connection points: 2
#     Edge 74, Type (0, 1), BuildingBlock: XIVTED_clean_linker_0, # of connection points: 2
#     Edge 75, Type (0, 1), BuildingBlock: XIVTED_clean_linker_0, # of connection points: 2
#     Edge 76, Type (0, 1), BuildingBlock: XIVTED_clean_linker_0, # of connection points: 2
#     Edge 77, Type (0, 1), BuildingBlock: XIVTED_clean_linker_0, # of connection points: 2
#     Edge 78, Type (0, 1), BuildingBlock: XIVTED_clean_linker_0, # of connection points: 2
#     Edge 79, Type (0, 1), BuildingBlock: XIVTED_clean_linker_0, # of connection points: 2
#     Edge 80, Type (0, 1), BuildingBlock: XIVTED_clean_linker_0, # of connection points: 2
# Relax obj value: 0.057
# Max RMSD: 0.207
# Mean RMSD: 0.147
data_MOF--net-eea--node1-NUHQIS_clean_sbu_0--node2-PAMTOO_clean_linker_0--edge1-XIVTED_clean_linker_0
_symmetry_space_group_name_H-M    P1
_symmetry_Int_Tables_number       1
_symmetry_cell_setting            triclinic
loop_
_symmetry_equiv_pos_as_xyz
'x, y, z'
_cell_length_a     55.174401
_cell_length_b     55.539974
_cell_length_c     68.990881
_cell_angle_alpha  93.096858
_cell_angle_beta   93.543619
_cell_angle_gamma 119.6949
loop_
_atom_site_label
_atom_site_type_symbol
_atom_site_fract_x
_atom_site_fract_y
_atom_site_fract_z
_atom_type_partial_charge
H0 H 0.25037 0.08518 0.43411 0.0
H1 H 0.25526 0.16327 0.42435 0.0
H2 H 0.22687 0.09941 0.37692 0.0
H3 H 0.2581 0.1584 0.36338 0.0
C4 C 0.25699 0.1688 0.37725 0.0
O5 O 0.23665 0.14941 0.38745 0.0
H6 H 0.27798 0.17871 0.38582 0.0
C7 C 0.24751 0.09844 0.42436 0.0
C8 C 0.23785 0.08879 0.4046 0.0
C9 C 0.25393 0.12527 0.43164 0.0
C10 C 0.25091 0.14269 0.41893 0.0
C11 C 0.24136 0.13329 0.39925 0.0
C12 C 0.23494 0.10653 0.39209 0.0
H13 H 0.93742 0.17869 0.43278 0.0
H14 H 0.86219 0.09821 0.42375 0.0
H15 H 0.91816 0.12576 0.37936 0.0
H16 H 0.85497 0.08677 0.36295 0.0
C17 C 0.84853 0.07996 0.37755 0.0
O18 O 0.87179 0.08508 0.38963 0.0
H19 H 0.83878 0.09189 0.3834 0.0
C20 C 0.92366 0.15947 0.42372 0.0
C21 C 0.93088 0.15505 0.40513 0.0
C22 C 0.89896 0.13911 0.43074 0.0
C23 C 0.88148 0.11418 0.41888 0.0
C24 C 0.88837 0.10963 0.40043 0.0
C25 C 0.91287 0.12996 0.39353 0.0
H26 H 0.84341 0.76596 0.44479 0.0
H27 H 0.92242 0.76862 0.44292 0.0
H28 H 0.88734 0.78819 0.39322 0.0
H29 H 0.91684 0.75861 0.38283 0.0
C30 C 0.93169 0.76476 0.39624 0.0
O31 O 0.93027 0.78492 0.40789 0.0
H32 H 0.92543 0.74586 0.40409 0.0
C33 C 0.8611 0.76953 0.43691 0.0
C34 C 0.86222 0.77729 0.41774 0.0
C35 C 0.88239 0.76593 0.44606 0.0
C36 C 0.9056 0.77097 0.43605 0.0
C37 C 0.90743 0.77935 0.41716 0.0
C38 C 0.88579 0.78234 0.40801 0.0
H39 H 0.05979 0.23729 0.58577 0.0
H40 H 0.13351 0.22909 0.58968 0.0
H41 H 0.07533 0.19639 0.63245 0.0
H42 H 0.13589 0.22551 0.64876 0.0
C43 C 0.14483 0.22263 0.63539 0.0
O44 O 0.1232 0.20456 0.62162 0.0
H45 H 0.15715 0.24337 0.62983 0.0
C46 C 0.07236 0.22969 0.59294 0.0
C47 C 0.06392 0.21585 0.60993 0.0
C48 C 0.09747 0.23471 0.58549 0.0
C49 C 0.11422 0.22572 0.59522 0.0
C50 C 0.10635 0.21233 0.6122 0.0
C51 C 0.08127 0.20726 0.61947 0.0
H52 H 0.75706 0.83482 0.6057 0.0
H53 H 0.75558 0.91139 0.61454 0.0
H54 H 0.77805 0.87901 0.66305 0.0
H55 H 0.74807 0.91265 0.67491 0.0
C56 C 0.7499 0.92075 0.66037 0.0
O57 O 0.77127 0.91953 0.65185 0.0
H58 H 0.7294 0.90772 0.65136 0.0
C59 C 0.75979 0.85224 0.61532 0.0
C60 C 0.76833 0.85433 0.63528 0.0
C61 C 0.75484 0.87253 0.60765 0.0
C62 C 0.75876 0.89522 0.62017 0.0
C63 C 0.76703 0.89735 0.64005 0.0
C64 C 0.77174 0.87701 0.64759 0.0
H65 H 0.17057 0.9181 0.59656 0.0
H66 H 0.09071 0.84237 0.59219 0.0
H67 H 0.1182 0.89971 0.64367 0.0
H68 H 0.09112 0.84067 0.65047 0.0
C69 C 0.07557 0.83146 0.63732 0.0
O70 O 0.07784 0.85241 0.62636 0.0
H71 H 0.08015 0.81699 0.62861 0.0
C72 C 0.15164 0.90421 0.60293 0.0
C73 C 0.14721 0.91197 0.62153 0.0
C74 C 0.13154 0.87916 0.59217 0.0
C75 C 0.10645 0.86189 0.60014 0.0
C76 C 0.10181 0.86937 0.61868 0.0
C77 C 0.12204 0.89436 0.62929 0.0
H78 H 0.92213 0.41578 0.76114 0.0
H79 H 0.92048 0.49258 0.76318 0.0
H80 H 0.89767 0.44131 0.70909 0.0
H81 H 0.92999 0.50297 0.70507 0.0
C82 C 0.92431 0.50995 0.7186 0.0
O83 O 0.90364 0.48719 0.72628 0.0
H84 H 0.94346 0.52101 0.72919 0.0
C85 C 0.91849 0.43068 0.75386 0.0
C86 C 0.90938 0.42544 0.73381 0.0
C87 C 0.9227 0.45487 0.76465 0.0
C88 C 0.91775 0.47396 0.75513 0.0
C89 C 0.90884 0.46898 0.73517 0.0
C90 C 0.9046 0.44482 0.72455 0.0
H91 H 0.60699 0.50987 0.7663 0.0
H92 H 0.53208 0.42929 0.75809 0.0
H93 H 0.5849 0.45813 0.7119 0.0
H94 H 0.52348 0.42227 0.69694 0.0
C95 C 0.51653 0.41388 0.7111 0.0
O96 O 0.53939 0.41717 0.72278 0.0
H97 H 0.50724 0.4256 0.71802 0.0
C98 C 0.59284 0.4909 0.75711 0.0
C99 C 0.59919 0.4868 0.73816 0.0
C100 C 0.5687 0.47033 0.76452 0.0
C101 C 0.55098 0.44532 0.75283 0.0
C102 C 0.55693 0.44112 0.73396 0.0
C103 C 0.5809 0.4617 0.72666 0.0
H104 H 0.50076 0.09633 0.77791 0.0
H105 H 0.58187 0.10276 0.78038 0.0
H106 H 0.55328 0.12992 0.73147 0.0
H107 H 0.58119 0.09742 0.72277 0.0
C108 C 0.59762 0.10577 0.73541 0.0
O109 O 0.59461 0.12474 0.74729 0.0
H110 H 0.59473 0.08801 0.74366 0.0
C111 C 0.51992 0.10176 0.77132 0.0
C112 C 0.52408 0.11333 0.75334 0.0
C113 C 0.54039 0.09757 0.78117 0.0
C114 C 0.56585 0.10596 0.77312 0.0
C115 C 0.57039 0.1176 0.75524 0.0
C116 C 0.54961 0.12132 0.74542 0.0
H117 H 0.7335 0.57141 0.92292 0.0
H118 H 0.80908 0.56654 0.92654 0.0
H119 H 0.75519 0.53858 0.9722 0.0
H120 H 0.81655 0.5664 0.9865 0.0
C121 C 0.82408 0.56366 0.97241 0.0
O122 O 0.8015 0.54481 0.95958 0.0
H123 H 0.83491 0.58437 0.96656 0.0
C124 C 0.74748 0.56592 0.93064 0.0
C125 C 0.74084 0.55419 0.94855 0.0
C126 C 0.77225 0.57091 0.92265 0.0
C127 C 0.79013 0.56337 0.93254 0.0
C128 C 0.78386 0.55172 0.95027 0.0
C129 C 0.75938 0.54719 0.95828 0.0
H130 H 0.41621 0.16381 0.94205 0.0
H131 H 0.4178 0.24167 0.95252 0.0
H132 H 0.45194 0.21347 0.99736 0.0
H133 H 0.42439 0.24817 0.01378 0.0
C134 C 0.42291 0.25496 0.9991 0.0
O135 O 0.44181 0.25262 0.98809 0.0
H136 H 0.40098 0.2415 0.99223 0.0
C137 C 0.4215 0.18218 0.95166 0.0
C138 C 0.43489 0.18595 0.97051 0.0
C139 C 0.4154 0.20218 0.9449 0.0
C140 C 0.42239 0.22599 0.95736 0.0
C141 C 0.43495 0.22955 0.97632 0.0
C142 C 0.4413 0.20974 0.98286 0.0
H143 H 0.82551 0.25019 0.92121 0.0
H144 H 0.74884 0.17278 0.92281 0.0
H145 H 0.78142 0.23343 0.97272 0.0
H146 H 0.75552 0.17419 0.98217 0.0
C147 C 0.73978 0.1642 0.96917 0.0
O148 O 0.74049 0.1845 0.95817 0.0
H149 H 0.74515 0.15037 0.96043 0.0
C150 C 0.80792 0.23672 0.92896 0.0
C151 C 0.80623 0.24526 0.94815 0.0
C152 C 0.78744 0.21066 0.91972 0.0
C153 C 0.76502 0.19282 0.92984 0.0
C154 C 0.76297 0.20111 0.94893 0.0
C155 C 0.78356 0.22716 0.95808 0.0
H156 H 0.58757 0.74858 0.09462 0.0
H157 H 0.58652 0.82563 0.09506 0.0
H158 H 0.56592 0.77399 0.04141 0.0
H159 H 0.59841 0.83644 0.03703 0.0
C160 C 0.59283 0.84298 0.05079 0.0
O161 O 0.57151 0.82005 0.05785 0.0
H162 H 0.61188 0.85309 0.06151 0.0
C163 C 0.58437 0.76346 0.08695 0.0
C164 C 0.57613 0.75811 0.06676 0.0
C165 C 0.5884 0.78785 0.09734 0.0
C166 C 0.58398 0.80688 0.08733 0.0
C167 C 0.57602 0.80179 0.06724 0.0
C168 C 0.57208 0.77754 0.05699 0.0
H169 H 0.27398 0.84373 0.10268 0.0
H170 H 0.19878 0.76339 0.09641 0.0
H171 H 0.24973 0.78976 0.04911 0.0
H172 H 0.18679 0.75259 0.03564 0.0
C173 C 0.18109 0.74495 0.05017 0.0
O174 O 0.20484 0.74942 0.06133 0.0
H175 H 0.1718 0.75664 0.05713 0.0
C176 C 0.25945 0.82452 0.09385 0.0
C177 C 0.26509 0.81955 0.07483 0.0
C178 C 0.23561 0.80444 0.10186 0.0
C179 C 0.21743 0.77909 0.09068 0.0
C180 C 0.22261 0.77398 0.07178 0.0
C181 C 0.24628 0.79407 0.06386 0.0
H182 H 0.17257 0.42601 0.11043 0.0
H183 H 0.25298 0.4309 0.11085 0.0
H184 H 0.22551 0.4636 0.0649 0.0
H185 H 0.25244 0.43065 0.05306 0.0
C186 C 0.26858 0.4374 0.06577 0.0
O187 O 0.26592 0.45553 0.07877 0.0
H188 H 0.26499 0.41857 0.07291 0.0
C189 C 0.19191 0.43216 0.10388 0.0
C190 C 0.19643 0.44554 0.08663 0.0
C191 C 0.21204 0.42668 0.11281 0.0
C192 C 0.23718 0.43499 0.10431 0.0
C193 C 0.2418 0.44797 0.08696 0.0
C194 C 0.22148 0.4532 0.07815 0.0
H195 H 0.40355 0.91098 0.2602 0.0
H196 H 0.47962 0.90683 0.26446 0.0
H197 H 0.4232 0.87539 0.30851 0.0
H198 H 0.48454 0.90393 0.32429 0.0
C199 C 0.49282 0.90171 0.31041 0.0
O200 O 0.47082 0.88352 0.29693 0.0
H201 H 0.50425 0.92272 0.30505 0.0
C202 C 0.41727 0.90493 0.26768 0.0
C203 C 0.40999 0.89223 0.28515 0.0
C204 C 0.44245 0.91058 0.26009 0.0
C205 C 0.46037 0.90323 0.27018 0.0
C206 C 0.45351 0.89085 0.28764 0.0
C207 C 0.42846 0.88543 0.29515 0.0
H208 H 0.07656 0.48932 0.27089 0.0
H209 H 0.08135 0.56872 0.28183 0.0
H210 H 0.1143 0.53858 0.3261 0.0
H211 H 0.09092 0.57539 0.34334 0.0
C212 C 0.08926 0.58286 0.32896 0.0
O213 O 0.10658 0.57936 0.31698 0.0
H214 H 0.06692 0.5706 0.32265 0.0
C215 C 0.08246 0.50782 0.28056 0.0
C216 C 0.09595 0.51119 0.29931 0.0
C217 C 0.07711 0.52843 0.27403 0.0
C218 C 0.0852 0.55251 0.28654 0.0
C219 C 0.09813 0.55577 0.30532 0.0
C220 C 0.10347 0.53524 0.31171 0.0
H221 H 0.49474 0.58463 0.25499 0.0
H222 H 0.41947 0.50608 0.25707 0.0
H223 H 0.44958 0.56815 0.30599 0.0
H224 H 0.42471 0.51087 0.31746 0.0
C225 C 0.41033 0.49949 0.30402 0.0
O226 O 0.40998 0.51831 0.29193 0.0
H227 H 0.4182 0.48679 0.29659 0.0
C228 C 0.47717 0.57105 0.26271 0.0
C229 C 0.47485 0.57987 0.28165 0.0
C230 C 0.4574 0.54451 0.25374 0.0
C231 C 0.43508 0.52652 0.26388 0.0
C232 C 0.43236 0.53515 0.28268 0.0
C233 C 0.4522 0.56167 0.29155 0.0
Tb234 Tb 0.48709 0.99113 0.9972 0.0
Eu235 Eu 0.50518 0.0173 0.04361 0.0
C236 C 0.51208 0.96689 0.0275 0.0
C237 C 0.4446 0.96562 0.02849 0.0
C238 C 0.48084 0.98596 0.94318 0.0
C239 C 0.47923 0.98165 0.90787 0.0
C240 C 0.47231 0.96936 0.92536 0.0
C241 C 0.49624 0.01505 0.94337 0.0
C242 C 0.50323 0.02738 0.92589 0.0
C243 C 0.4949 0.01082 0.90792 0.0
C244 C 0.47484 0.97276 0.96151 0.0
O245 O 0.47168 0.02007 1.00123 0.0
O246 O 0.50152 0.04941 0.02741 0.0
O247 O 0.54475 0.03605 0.02857 0.0
O248 O 0.52558 0.03078 0.99699 0.0
C249 C 0.4836 0.04395 0.01215 0.0
O250 O 0.49825 0.03657 0.06946 0.0
O251 O 0.53216 0.02744 0.07078 0.0
O252 O 0.50344 0.97599 0.04193 0.0
O253 O 0.51266 0.97539 0.01009 0.0
O254 O 0.45524 0.96009 0.01348 0.0
O255 O 0.45839 0.98945 0.0394 0.0
C256 C 0.54725 0.04193 0.01034 0.0
O257 O 0.49663 0.97574 0.97214 0.0
O258 O 0.45829 0.97707 0.97204 0.0
C259 C 0.50889 0.02287 0.09893 0.0
C260 C 0.49284 -0.00129 0.13419 0.0
C261 C 0.51276 0.02717 0.13431 0.0
C262 C 0.52071 0.03912 0.11681 0.0
C263 C 0.48891 0.99454 0.09866 0.0
C264 C 0.48093 0.98255 0.11614 0.0
C265 C 0.51758 0.03551 0.08063 0.0
H266 H 0.47279 0.96827 0.89434 0.0
H267 H 0.46061 0.94686 0.92498 0.0
H268 H 0.50305 0.02819 0.95705 0.0
H269 H 0.515 0.04989 0.92644 0.0
H270 H 0.52204 0.04028 0.14793 0.0
H271 H 0.53609 0.06106 0.11724 0.0
H272 H 0.47963 0.98169 0.08492 0.0
H273 H 0.46581 0.96053 0.11552 0.0
Tb274 Tb 0.01336 0.49124 0.99758 0.0
Eu275 Eu 0.98787 0.48219 0.04008 0.0
C276 C 0.03971 0.54012 0.03063 0.0
C277 C 0.04113 0.47627 0.03297 0.0
C278 C 0.0199 0.49466 0.94452 0.0
C279 C 0.02627 0.50177 0.91044 0.0
C280 C 0.03759 0.50491 0.9297 0.0
C281 C 0.99074 0.48137 0.93999 0.0
C282 C 0.97938 0.47812 0.92072 0.0
C283 C 0.99705 0.48825 0.90573 0.0
C284 C 0.03207 0.49809 0.96464 0.0
O285 O 0.97267 0.45372 0.99245 0.0
O286 O 0.96915 0.43979 0.02325 0.0
O287 O 0.95569 0.4825 0.01899 0.0
O288 O 0.98525 0.50863 0.9971 0.0
C289 C 0.96155 0.43433 1.00439 0.0
O290 O 0.97471 0.45813 0.0651 0.0
O291 O 0.96957 0.49422 0.06321 0.0
O292 O 0.01637 0.52861 0.03913 0.0
O293 O 0.0447 0.5258 0.01736 0.0
O294 O 0.03283 0.47153 0.01415 0.0
O295 O 0.02995 0.48568 0.04534 0.0
C296 C 0.96126 0.49866 1.00483 0.0
O297 O 0.03258 0.51788 0.97601 0.0
O298 O 0.02357 0.47524 0.97316 0.0
C299 C 0.97796 0.48327 0.09451 0.0
C300 C 0.99732 0.49652 0.13444 0.0
C301 C 0.9684 0.48147 0.12837 0.0
C302 C 0.95882 0.4749 0.10855 0.0
C303 C 0.00682 0.4988 0.1004 0.0
C304 C 0.01644 0.50541 0.12024 0.0
C305 C 0.96754 0.47472 0.07386 0.0
H306 H 0.04039 0.50948 0.89918 0.0
H307 H 0.06015 0.51523 0.93301 0.0
H308 H 0.97681 0.47352 0.95135 0.0
H309 H 0.95681 0.4679 0.91757 0.0
H310 H 0.95315 0.47467 0.13894 0.0
H311 H 0.93646 0.46294 0.10418 0.0
H312 H 0.02185 0.50533 0.08966 0.0
H313 H 0.03884 0.51676 0.12446 0.0
Tb314 Tb 0.52238 0.51578 0.03167 0.0
Eu315 Eu 0.49811 0.5123 0.98599 0.0
C316 C 0.48966 0.45928 1.00619 0.0
C317 C 0.56002 0.52214 0.99754 0.0
C318 C 0.52675 0.51393 0.08536 0.0
C319 C 0.53122 0.51563 0.1207 0.0
C320 C 0.54284 0.51777 0.10298 0.0
C321 C 0.49859 0.50685 0.08556 0.0
C322 C 0.48704 0.50503 0.10326 0.0
C323 C 0.50341 0.50994 0.12103 0.0
C324 C 0.54001 0.5197 0.06707 0.0
O325 O 0.54273 0.55702 0.02162 0.0
O326 O 0.50565 0.55206 1.00201 0.0
O327 O 0.46066 0.49819 1.00289 0.0
O328 O 0.48284 0.5155 0.03404 0.0
C329 C 0.52869 0.56782 0.01354 0.0
O330 O 0.50013 0.53321 0.95978 0.0
O331 O 0.47003 0.48927 0.95972 0.0
O332 O 0.49781 0.47233 0.99049 0.0
O333 O 0.49124 0.47275 0.02284 0.0
O334 O 0.55238 0.51194 0.01433 0.0
O335 O 0.54435 0.52836 0.98617 0.0
C336 C 0.46017 0.50443 0.02146 0.0
O337 O 0.53316 0.49825 0.05465 0.0
O338 O 0.5398 0.53994 0.0585 0.0
C339 C 0.4904 0.50493 0.93059 0.0
C340 C 0.50857 0.49679 0.89479 0.0
C341 C 0.49044 0.50775 0.89562 0.0
C342 C 0.48142 0.51175 0.91339 0.0
C343 C 0.50844 0.49395 0.92989 0.0
C344 C 0.51737 0.48981 0.91212 0.0
C345 C 0.48177 0.51033 0.94928 0.0
H346 H 0.54437 0.51973 0.13418 0.0
H347 H 0.56465 0.52333 0.10308 0.0
H348 H 0.48585 0.5036 0.07206 0.0
H349 H 0.46548 0.50034 0.10307 0.0
H350 H 0.48304 0.51304 0.88251 0.0
H351 H 0.46757 0.52034 0.91371 0.0
H352 H 0.51581 0.48884 0.94311 0.0
H353 H 0.53159 0.48166 0.912 0.0
Tb354 Tb 0.15519 0.32103 0.32807 0.0
Eu355 Eu 0.17465 0.34947 0.3738 0.0
C356 C 0.18273 0.29895 0.35755 0.0
C357 C 0.11525 0.29573 0.36123 0.0
C358 C 0.14974 0.31378 0.2741 0.0
C359 C 0.14675 0.30806 0.23876 0.0
C360 C 0.13921 0.29666 0.25649 0.0
C361 C 0.1681 0.34245 0.27386 0.0
C362 C 0.17565 0.3539 0.25613 0.0
C363 C 0.16496 0.33685 0.23834 0.0
C364 C 0.14153 0.30163 0.29264 0.0
O365 O 0.15862 0.36157 0.32811 0.0
O366 O 0.14863 0.36572 0.35932 0.0
O367 O 0.20749 0.38009 0.35649 0.0
O368 O 0.20046 0.34939 0.33006 0.0
C369 C 0.14977 0.37236 0.34132 0.0
O370 O 0.16539 0.3666 0.3996 0.0
O371 O 0.20318 0.36386 0.40066 0.0
O372 O 0.19412 0.32271 0.36856 0.0
O373 O 0.16206 0.29195 0.34394 0.0
O374 O 0.11714 0.30268 0.34321 0.0
O375 O 0.13716 0.3072 0.37425 0.0
C376 C 0.21592 0.37341 0.34073 0.0
O377 O 0.16116 0.30095 0.30369 0.0
O378 O 0.12753 0.31024 0.30266 0.0
C379 C 0.17931 0.35541 0.4289 0.0
C380 C 0.16269 0.3301 0.46374 0.0
C381 C 0.18028 0.35913 0.4642 0.0
C382 C 0.18845 0.37168 0.4469 0.0
C383 C 0.16216 0.32643 0.42837 0.0
C384 C 0.15388 0.31388 0.44562 0.0
C385 C 0.18649 0.36871 0.41067 0.0
H386 H 0.13846 0.29426 0.22538 0.0
H387 H 0.12514 0.27446 0.25644 0.0
H388 H 0.17645 0.35599 0.28738 0.0
H389 H 0.18942 0.37616 0.25636 0.0
H390 H 0.18721 0.37222 0.47789 0.0
H391 H 0.20157 0.3941 0.44754 0.0
H392 H 0.15495 0.31355 0.41458 0.0
H393 H 0.14066 0.29146 0.44477 0.0
Tb394 Tb 0.68056 0.82667 0.33038 0.0
Eu395 Eu 0.657 0.81754 0.37367 0.0
C396 C 0.70913 0.87476 0.3637 0.0
C397 C 0.70825 0.80899 0.36419 0.0
C398 C 0.6854 0.83111 0.27716 0.0
C399 C 0.69101 0.83828 0.24304 0.0
C400 C 0.70274 0.84147 0.26217 0.0
C401 C 0.65619 0.81776 0.27296 0.0
C402 C 0.64442 0.81445 0.2538 0.0
C403 C 0.66173 0.82459 0.23864 0.0
C404 C 0.69803 0.83414 0.29707 0.0
O405 O 0.6396 0.78935 0.32567 0.0
O406 O 0.63599 0.77523 0.3565 0.0
O407 O 0.62438 0.81889 0.3536 0.0
O408 O 0.65338 0.84497 0.33141 0.0
C409 C 0.62828 0.77 0.33764 0.0
O410 O 0.64507 0.79396 0.39902 0.0
O411 O 0.64064 0.83049 0.39762 0.0
O412 O 0.6861 0.86375 0.37253 0.0
O413 O 0.71326 0.86004 0.35023 0.0
O414 O 0.7001 0.80604 0.34546 0.0
O415 O 0.69786 0.81804 0.37745 0.0
C416 C 0.62978 0.83533 0.3396 0.0
O417 O 0.69888 0.85374 0.30887 0.0
O418 O 0.68974 0.81108 0.30526 0.0
C419 C 0.65239 0.82093 0.42845 0.0
C420 C 0.67702 0.83767 0.46729 0.0
C421 C 0.64766 0.82298 0.46311 0.0
C422 C 0.63547 0.81466 0.44382 0.0
C423 C 0.68167 0.83589 0.43246 0.0
C424 C 0.6939 0.84418 0.45174 0.0
C425 C 0.63938 0.81134 0.40833 0.0
H426 H 0.70486 0.84599 0.23163 0.0
H427 H 0.72534 0.85181 0.26524 0.0
H428 H 0.64254 0.80979 0.28446 0.0
H429 H 0.62181 0.80409 0.25087 0.0
H430 H 0.6341 0.81733 0.47475 0.0
H431 H 0.61282 0.80305 0.44092 0.0
H432 H 0.69501 0.84096 0.42069 0.0
H433 H 0.71656 0.85575 0.45448 0.0
Tb434 Tb 0.18807 0.84041 0.36803 0.0
Eu435 Eu 0.16621 0.84449 0.32336 0.0
C436 C 0.16109 0.78856 0.33765 0.0
C437 C 0.22718 0.85351 0.33409 0.0
C438 C 0.1957 0.84025 0.42182 0.0
C439 C 0.19895 0.83597 0.45654 0.0
C440 C 0.20667 0.83327 0.438 0.0
C441 C 0.17675 0.84981 0.42429 0.0
C442 C 0.16903 0.85258 0.44285 0.0
C443 C 0.18012 0.84577 0.45922 0.0
C444 C 0.20377 0.83697 0.40242 0.0
O445 O 0.18304 0.87668 0.36997 0.0
O446 O 0.19091 0.88792 0.33872 0.0
O447 O 0.13343 0.84287 0.34183 0.0
O448 O 0.14266 0.82266 0.36743 0.0
C449 C 0.19014 0.89485 0.35705 0.0
O450 O 0.17315 0.86875 0.2984 0.0
O451 O 0.13716 0.82729 0.29677 0.0
O452 O 0.14808 0.79904 0.32769 0.0
O453 O 0.18269 0.80431 0.35043 0.0
O454 O 0.22545 0.86017 0.35235 0.0
O455 O 0.20499 0.84148 0.3213 0.0
C456 C 0.12615 0.82957 0.35754 0.0
O457 O 0.18469 0.81578 0.39085 0.0
O458 O 0.21589 0.85948 0.39344 0.0
C459 C 0.15971 0.84201 0.26823 0.0
C460 C 0.17679 0.83297 0.23219 0.0
C461 C 0.16079 0.84628 0.23344 0.0
C462 C 0.15234 0.85076 0.25133 0.0
C463 C 0.17542 0.82849 0.26708 0.0
C464 C 0.18384 0.82395 0.24921 0.0
C465 C 0.15244 0.84845 0.28718 0.0
H466 H 0.20753 0.83012 0.46876 0.0
H467 H 0.22115 0.82563 0.43627 0.0
H468 H 0.168 0.85519 0.41188 0.0
H469 H 0.15475 0.86047 0.44442 0.0
H470 H 0.15472 0.85316 0.22057 0.0
H471 H 0.14032 0.86135 0.25201 0.0
H472 H 0.18153 0.82185 0.28007 0.0
H473 H 0.19643 0.81397 0.24881 0.0
Tb474 Tb 0.82238 0.6604 0.66266 0.0
Eu475 Eu 0.83844 0.6862 0.70899 0.0
C476 C 0.84624 0.63601 0.69376 0.0
C477 C 0.77879 0.63357 0.69292 0.0
C478 C 0.82012 0.65651 0.60839 0.0
C479 C 0.84889 0.66799 0.58124 0.0
C480 C 0.84081 0.65503 0.59836 0.0
C481 C 0.80726 0.67085 0.6007 0.0
C482 C 0.81523 0.68369 0.58348 0.0
C483 C 0.83624 0.68253 0.57357 0.0
C484 C 0.8125 0.64319 0.62679 0.0
O485 O 0.80441 0.68723 0.66689 0.0
O486 O 0.83478 0.7179 0.69221 0.0
O487 O 0.87872 0.70515 0.69478 0.0
O488 O 0.86031 0.70065 0.66314 0.0
C489 C 0.81603 0.71151 0.6773 0.0
O490 O 0.82965 0.7043 0.73457 0.0
O491 O 0.86485 0.69712 0.73652 0.0
O492 O 0.83701 0.64508 0.70782 0.0
O493 O 0.84753 0.64457 0.6763 0.0
O494 O 0.79015 0.62859 0.67814 0.0
O495 O 0.79181 0.65733 0.70396 0.0
C496 C 0.88171 0.71153 0.67668 0.0
O497 O 0.83316 0.64506 0.63821 0.0
O498 O 0.79519 0.64719 0.63668 0.0
C499 C 0.83995 0.69022 0.76401 0.0
C500 C 0.82344 0.66394 0.79852 0.0
C501 C 0.84276 0.69268 0.79936 0.0
C502 C 0.85093 0.70569 0.78224 0.0
C503 C 0.82055 0.66162 0.76303 0.0
C504 C 0.81234 0.64859 0.78013 0.0
C505 C 0.84906 0.70384 0.74609 0.0
H506 H 0.86539 0.66694 0.5742 0.0
H507 H 0.85101 0.64403 0.60388 0.0
H508 H 0.79108 0.67222 0.60797 0.0
H509 H 0.80468 0.69427 0.57783 0.0
H510 H 0.85142 0.70518 0.81326 0.0
H511 H 0.86589 0.7278 0.78323 0.0
H512 H 0.81194 0.64936 0.74902 0.0
H513 H 0.79771 0.6264 0.77895 0.0
Tb514 Tb 0.33896 0.15796 0.66411 0.0
Eu515 Eu 0.3209 0.15647 0.70874 0.0
C516 C 0.36748 0.21142 0.69325 0.0
C517 C 0.37148 0.14659 0.6984 0.0
C518 C 0.34342 0.16358 0.61063 0.0
C519 C 0.34965 0.16804 0.57628 0.0
C520 C 0.35928 0.16609 0.59501 0.0
C521 C 0.31844 0.16432 0.60757 0.0
C522 C 0.30871 0.16613 0.58882 0.0
C523 C 0.3239 0.16735 0.57291 0.0
C524 C 0.35191 0.15782 0.62959 0.0
O525 O 0.31664 0.115 0.67122 0.0
O526 O 0.28662 0.11898 0.6904 0.0
O527 O 0.29879 0.17443 0.69179 0.0
O528 O 0.29997 0.15928 0.66032 0.0
C529 C 0.29228 0.10392 0.6783 0.0
O530 O 0.30385 0.1336 0.7338 0.0
O531 O 0.31473 0.17696 0.73426 0.0
O532 O 0.36196 0.19596 0.70788 0.0
O533 O 0.35422 0.20071 0.67578 0.0
O534 O 0.37319 0.15878 0.68231 0.0
O535 O 0.35034 0.13938 0.70897 0.0
C536 C 0.28989 0.16954 0.67314 0.0
O537 O 0.36559 0.17893 0.64277 0.0
O538 O 0.33261 0.13616 0.63685 0.0
C539 C 0.31894 0.16073 0.76462 0.0
C540 C 0.33985 0.17037 0.80428 0.0
C541 C 0.33853 0.14837 0.7923 0.0
C542 C 0.32821 0.14361 0.77263 0.0
C543 C 0.3204 0.18278 0.77657 0.0
C544 C 0.33088 0.18764 0.79618 0.0
C545 C 0.3066 0.15535 0.74419 0.0
H546 H 0.36167 0.16866 0.56429 0.0
H547 H 0.37858 0.16548 0.59715 0.0
H548 H 0.30599 0.16249 0.61952 0.0
H549 H 0.28896 0.16587 0.5867 0.0
H550 H 0.34558 0.13491 0.79811 0.0
H551 H 0.32732 0.12641 0.7638 0.0
H552 H 0.31311 0.19609 0.77078 0.0
H553 H 0.33135 0.20455 0.80512 0.0
Tb554 Tb 0.84869 0.18178 0.69656 0.0
Eu555 Eu 0.82408 0.17851 0.65099 0.0
C556 C 0.81613 0.12526 0.67081 0.0
C557 C 0.88585 0.18745 0.66195 0.0
C558 C 0.85336 0.17961 0.7503 0.0
C559 C 0.85811 0.17964 0.78552 0.0
C560 C 0.86939 0.18209 0.76763 0.0
C561 C 0.82555 0.17353 0.75092 0.0
C562 C 0.81434 0.17139 0.76878 0.0
C563 C 0.83071 0.17497 0.7863 0.0
C564 C 0.86641 0.18568 0.73193 0.0
O565 O 0.86944 0.22302 0.68652 0.0
O566 O 0.8323 0.21841 0.66724 0.0
O567 O 0.78662 0.16333 0.66795 0.0
O568 O 0.80912 0.1815 0.69891 0.0
C569 C 0.85554 0.23405 0.6786 0.0
O570 O 0.82394 0.2001 0.62563 0.0
O571 O 0.79741 0.15523 0.62413 0.0
O572 O 0.82385 0.13853 0.65517 0.0
O573 O 0.81807 0.13849 0.68767 0.0
O574 O 0.87904 0.17862 0.67922 0.0
O575 O 0.86993 0.19323 0.65044 0.0
C576 C 0.78626 0.16987 0.68648 0.0
O577 O 0.85986 0.16439 0.71944 0.0
O578 O 0.86575 0.20578 0.72346 0.0
C579 C 0.81812 0.17418 0.59563 0.0
C580 C 0.83712 0.16768 0.55975 0.0
C581 C 0.8562 0.1861 0.57525 0.0
C582 C 0.84683 0.18919 0.59307 0.0
C583 C 0.79903 0.15584 0.58017 0.0
C584 C 0.80845 0.15251 0.5624 0.0
C585 C 0.80791 0.17711 0.61438 0.0
H586 H 0.87127 0.18272 0.79879 0.0
H587 H 0.89093 0.18685 0.7674 0.0
H588 H 0.81284 0.17135 0.73764 0.0
H589 H 0.79308 0.1675 0.76894 0.0
H590 H 0.87845 0.19777 0.57371 0.0
H591 H 0.86208 0.20325 0.60484 0.0
H592 H 0.77683 0.14402 0.58186 0.0
H593 H 0.79326 0.13831 0.55065 0.0
H594 H 0.29942 0.81113 0.05139 0.0
H595 H 0.4127 0.9727 0.05447 0.0
H596 H 0.2893 0.8766 0.07939 0.0
H597 H 0.41354 0.90993 0.01523 0.0
H598 H 0.3684 0.93731 0.06467 0.0
H599 H 0.34183 0.84644 0.03873 0.0
C600 C 0.3059 0.83288 0.05476 0.0
C601 C 0.29066 0.84079 0.06659 0.0
C602 C 0.37815 0.93125 0.05375 0.0
C603 C 0.33963 0.88139 0.05235 0.0
C604 C 0.40354 0.95147 0.04793 0.0
C605 C 0.41696 0.94431 0.03397 0.0
C606 C 0.36607 0.9035 0.04575 0.0
C607 C 0.40393 0.91643 0.026 0.0
C608 C 0.33024 0.85304 0.04758 0.0
C609 C 0.30053 0.86939 0.07068 0.0
N610 N 0.37931 0.89699 0.0321 0.0
N611 N 0.32439 0.88859 0.06366 0.0
H612 H 0.17694 0.43916 0.04788 0.0
H613 H 0.06311 0.48367 0.07084 0.0
H614 H 0.16684 0.46562 0.1053 0.0
H615 H 0.07188 0.45865 0.01253 0.0
H616 H 0.10149 0.47729 0.08332 0.0
H617 H 0.13953 0.44698 0.03422 0.0
C618 C 0.16702 0.44681 0.05759 0.0
C619 C 0.1749 0.45152 0.0778 0.0
C620 C 0.09509 0.47316 0.06778 0.0
C621 C 0.13197 0.46025 0.06231 0.0
C622 C 0.07305 0.47677 0.06061 0.0
C623 C 0.06413 0.47167 0.04056 0.0
C624 C 0.1085 0.46435 0.05488 0.0
C625 C 0.07799 0.46278 0.0281 0.0
C626 C 0.14556 0.4511 0.0498 0.0
C627 C 0.16116 0.46121 0.08969 0.0
N628 N 0.09949 0.4594 0.03546 0.0
N629 N 0.1404 0.46516 0.08179 0.0
H630 H 0.53292 0.7236 0.03916 0.0
H631 H 0.57724 0.6068 0.03487 0.0
H632 H 0.608 0.73305 0.07011 0.0
H633 H 0.50209 0.59664 1.00344 0.0
H634 H 0.59094 0.65478 0.04539 0.0
H635 H 0.52344 0.67889 0.0234 0.0
C636 C 0.54759 0.71641 0.04246 0.0
C637 C 0.57116 0.73194 0.0561 0.0
C638 C 0.57155 0.64216 0.03608 0.0
C639 C 0.56029 0.6807 0.0383 0.0
C640 C 0.56369 0.61472 0.03006 0.0
C641 C 0.53834 0.59759 0.0184 0.0
C642 C 0.55386 0.65257 0.03052 0.0
C643 C 0.52175 0.60907 0.0125 0.0
C644 C 0.54209 0.69083 0.03354 0.0
C645 C 0.58931 0.72151 0.05997 0.0
N646 N 0.5297 0.63581 0.01877 0.0
N647 N 0.5834 0.69647 0.0512 0.0
H648 H 0.83112 0.25977 0.98601 0.0
H649 H 0.93814 0.41703 0.96664 0.0
H650 H 0.83102 0.29451 0.93155 0.0
H651 H 0.93285 0.38758 0.02376 0.0
H652 H 0.8999 0.3714 0.95358 0.0
H653 H 0.86868 0.30572 1.0003 0.0
C654 C 0.83882 0.27707 0.9771 0.0
C655 C 0.82803 0.27317 0.95748 0.0
C656 C 0.90703 0.37484 0.96898 0.0
C657 C 0.8712 0.32566 0.97366 0.0
C658 C 0.929 0.40095 0.97648 0.0
C659 C 0.93879 0.40624 0.99638 0.0
C660 C 0.89467 0.35363 0.98139 0.0
C661 C 0.92599 0.38447 1.00833 0.0
C662 C 0.86036 0.30324 0.98524 0.0
C663 C 0.83903 0.29632 0.9466 0.0
N664 N 0.90459 0.35909 1.00065 0.0
N665 N 0.86001 0.32145 0.9548 0.0
H666 H 0.70577 0.51115 0.9693 0.0
H667 H 0.58884 0.5552 0.96977 0.0
H668 H 0.71623 0.58684 0.94746 0.0
H669 H 0.59316 0.50085 0.01055 0.0
H670 H 0.63321 0.56334 0.95879 0.0
H671 H 0.66262 0.50382 0.98238 0.0
C672 C 0.69922 0.52636 0.96734 0.0
C673 C 0.71477 0.54959 0.95706 0.0
C674 C 0.62453 0.5497 0.97019 0.0
C675 C 0.66495 0.54088 0.97169 0.0
C676 C 0.5991 0.54492 0.97643 0.0
C677 C 0.58721 0.52729 0.99113 0.0
C678 C 0.63813 0.53646 0.97846 0.0
C679 C 0.60162 0.51468 0.99924 0.0
C680 C 0.67447 0.52205 0.97476 0.0
C681 C 0.70477 0.56827 0.9548 0.0
N682 N 0.62626 0.51935 0.9927 0.0
N683 N 0.68048 0.56339 0.96191 0.0
H684 H 0.45409 0.15734 0.94868 0.0
H685 H 0.4872 0.08712 0.03572 0.0
H686 H 0.43448 0.16815 1.00708 0.0
H687 H 0.46476 0.04946 0.97622 0.0
H688 H 0.47564 0.12243 0.02599 0.0
H689 H 0.46579 0.12283 0.95912 0.0
C690 C 0.45197 0.15233 0.96366 0.0
C691 C 0.44285 0.16548 0.97694 0.0
C692 C 0.47322 0.10635 0.01514 0.0
C693 C 0.45718 0.12658 0.98907 0.0
C694 C 0.47991 0.08634 0.02063 0.0
C695 C 0.47681 0.06535 1.00674 0.0
C696 C 0.46401 0.1056 0.99559 0.0
C697 C 0.46721 0.06517 0.98741 0.0
C698 C 0.45886 0.13275 0.96961 0.0
C699 C 0.44159 0.15876 0.99635 0.0
N700 N 0.46134 0.08513 0.98236 0.0
N701 N 0.44875 0.13978 1.00186 0.0
H702 H 0.69084 0.13196 0.94568 0.0
H703 H 0.5965 0.07278 0.034 0.0
H704 H 0.72303 0.15715 1.00626 0.0
H705 H 0.56233 0.05551 0.97358 0.0
H706 H 0.64302 0.1033 0.02411 0.0
H707 H 0.64359 0.10322 0.95553 0.0
C708 C 0.68784 0.13141 0.96106 0.0
C709 C 0.71072 0.14685 0.97519 0.0
C710 C 0.62533 0.09292 0.01302 0.0
C711 C 0.65696 0.11407 0.98662 0.0
C712 C 0.59872 0.07545 0.01865 0.0
C713 C 0.5754 0.06146 1.00461 0.0
C714 C 0.62878 0.09637 0.99317 0.0
C715 C 0.57965 0.06584 0.98494 0.0
C716 C 0.66095 0.11508 0.96668 0.0
C717 C 0.7059 0.14551 0.99493 0.0
N718 N 0.60582 0.0828 0.9798 0.0
N719 N 0.67956 0.12933 1.00006 0.0
H720 H 0.87289 0.57826 0.95554 0.0
H721 H 0.90862 0.47873 0.01604 0.0
H722 H 0.82037 0.52449 0.99629 0.0
H723 H 0.96543 0.53601 0.97854 0.0
H724 H 0.87485 0.49313 1.00691 0.0
H725 H 0.90577 0.56116 0.96181 0.0
C726 C 0.86838 0.56287 0.96584 0.0
C727 C 0.84425 0.5531 0.97574 0.0
C728 C 0.89464 0.50255 1.0006 0.0
C729 C 0.8814 0.53322 0.98278 0.0
C730 C 0.91403 0.49432 1.00581 0.0
C731 C 0.94011 0.50632 0.99817 0.0
C732 C 0.90119 0.52305 0.98764 0.0
C733 C 0.94566 0.52626 0.98485 0.0
C734 C 0.88707 0.5531 0.96938 0.0
C735 C 0.83899 0.53281 0.98862 0.0
N736 N 0.92641 0.53411 0.98007 0.0
N737 N 0.85747 0.52365 0.99184 0.0
H738 H 0.41768 0.2836 0.96979 0.0
H739 H 0.4788 0.42732 0.03669 0.0
H740 H 0.4441 0.29363 0.03123 0.0
H741 H 0.4746 0.42208 0.97376 0.0
H742 H 0.46039 0.37721 0.0352 0.0
H743 H 0.43253 0.33328 0.97128 0.0
C744 C 0.42636 0.29631 0.98362 0.0
C745 C 0.42962 0.28469 1.00043 0.0
C746 C 0.46349 0.38702 0.02172 0.0
C747 C 0.44671 0.34123 1.00226 0.0
C748 C 0.47394 0.41563 0.02253 0.0
C749 C 0.47832 0.42892 1.0053 0.0
C750 C 0.45713 0.37151 1.00355 0.0
C751 C 0.47168 0.4127 0.9874 0.0
C752 C 0.43494 0.32458 0.98445 0.0
C753 C 0.44113 0.30187 0.01799 0.0
N754 N 0.46135 0.38478 0.98698 0.0
N755 N 0.44927 0.32934 0.01846 0.0
H756 H 0.1809 0.70459 0.02567 0.0
H757 H 0.03759 0.57927 0.05581 0.0
H758 H 0.13449 0.71592 0.06977 0.0
H759 H 0.09029 0.56917 0.01623 0.0
H760 H 0.07229 0.62916 0.06148 0.0
H761 H 0.14719 0.65456 0.02207 0.0
C762 C 0.16344 0.69643 0.0345 0.0
C763 C 0.16008 0.71429 0.04774 0.0
C764 C 0.07624 0.61592 0.05164 0.0
C765 C 0.12155 0.65713 0.04395 0.0
C766 C 0.05646 0.58744 0.04842 0.0
C767 C 0.06091 0.56995 0.03547 0.0
C768 C 0.10052 0.62692 0.04177 0.0
C769 C 0.08578 0.58174 0.02629 0.0
C770 C 0.14426 0.66792 0.03252 0.0
C771 C 0.13747 0.70277 0.05916 0.0
N772 N 0.10449 0.6094 0.02955 0.0
N773 N 0.11893 0.6749 0.05693 0.0
H774 H 0.28368 0.44565 0.02841 0.0
H775 H 0.4483 0.51052 0.05906 0.0
H776 H 0.31916 0.45942 0.08813 0.0
H777 H 0.40945 0.48373 0.99976 0.0
H778 H 0.40229 0.49682 0.07011 0.0
H779 H 0.33068 0.46461 0.01779 0.0
C780 C 0.30147 0.45294 0.03929 0.0
C781 C 0.29763 0.45108 0.05917 0.0
C782 C 0.4039 0.49403 0.05468 0.0
C783 C 0.35151 0.4726 0.04715 0.0
C784 C 0.43019 0.50185 0.04834 0.0
C785 C 0.43284 0.49802 0.02844 0.0
C786 C 0.38007 0.4825 0.04101 0.0
C787 C 0.40854 0.48693 0.01525 0.0
C788 C 0.32829 0.46367 0.03324 0.0
C789 C 0.32135 0.46065 0.07267 0.0
N790 N 0.38326 0.47953 0.02177 0.0
N791 N 0.3473 0.47095 0.06642 0.0
H792 H 0.58703 0.87668 0.07806 0.0
H793 H 0.52507 0.93888 1.00023 0.0
H794 H 0.57483 0.85376 0.01608 0.0
H795 H 0.52435 0.95182 0.06245 0.0
H796 H 0.54555 0.90957 1.00587 0.0
H797 H 0.56688 0.90679 0.07277 0.0
C798 C 0.58041 0.87838 0.06332 0.0
C799 C 0.58295 0.86326 0.04743 0.0
C800 C 0.54085 0.91873 0.01831 0.0
C801 C 0.55956 0.897 0.04126 0.0
C802 C 0.52914 0.9355 0.01511 0.0
C803 C 0.52303 0.94788 0.03091 0.0
C804 C 0.54667 0.91437 0.03746 0.0
C805 C 0.52867 0.94264 0.04984 0.0
C806 C 0.56877 0.89532 0.06031 0.0
C807 C 0.57359 0.86549 0.02865 0.0
N808 N 0.54032 0.92634 0.0526 0.0
N809 N 0.56235 0.88213 0.02607 0.0
H810 H 0.94026 0.17241 0.36833 0.0
H811 H 0.10428 0.27745 0.39736 0.0
H812 H 0.98258 0.18557 0.42594 0.0
H813 H 0.0638 0.26629 0.33933 0.0
H814 H 0.05956 0.24368 0.40774 0.0
H815 H 0.98486 0.20638 0.35715 0.0
C816 C 0.95892 0.18238 0.37863 0.0
C817 C 0.95761 0.17613 0.39814 0.0
C818 C 0.06036 0.24854 0.39272 0.0
C819 C 0.00869 0.21515 0.38545 0.0
C820 C 0.08599 0.26789 0.38673 0.0
C821 C 0.08791 0.2748 0.36738 0.0
C822 C 0.03625 0.23583 0.37932 0.0
C823 C 0.06335 0.26161 0.35437 0.0
C824 C 0.98435 0.20186 0.37224 0.0
C825 C 0.98242 0.18998 0.41086 0.0
N826 N 0.03852 0.24275 0.36058 0.0
N827 N 0.00687 0.20875 0.40428 0.0
H828 H 0.80578 0.7462 0.42182 0.0
H829 H 0.75165 0.81358 0.3444 0.0
H830 H 0.86444 0.81392 0.39128 0.0
H831 H 0.71504 0.79008 0.3986 0.0
H832 H 0.7893 0.80479 0.35624 0.0
H833 H 0.76818 0.75314 0.40814 0.0
C834 C 0.81095 0.76266 0.41236 0.0
C835 C 0.83871 0.7799 0.40812 0.0
C836 C 0.77291 0.8015 0.36544 0.0
C837 C 0.79516 0.78699 0.39174 0.0
C838 C 0.7514 0.80631 0.35869 0.0
C839 C 0.73028 0.80256 0.37058 0.0
C840 C 0.77275 0.79215 0.38394 0.0
C841 C 0.73102 0.79335 0.38903 0.0
C842 C 0.78932 0.76638 0.40444 0.0
C843 C 0.84351 0.8 0.39498 0.0
N844 N 0.7518 0.78824 0.39509 0.0
N845 N 0.82195 0.80298 0.38724 0.0
H846 H 0.21013 0.04123 0.42283 0.0
H847 H 0.21012 0.9401 0.33573 0.0
H848 H 0.2476 0.07058 0.36964 0.0
H849 H 0.18558 0.91504 0.3928 0.0
H850 H 0.2213 0.98742 0.34686 0.0
H851 H 0.19838 0.99421 0.41104 0.0
C852 C 0.21607 0.03784 0.40871 0.0
C853 C 0.23011 0.05998 0.39729 0.0
C854 C 0.21348 0.97153 0.35692 0.0
C855 C 0.21627 0.00595 0.38353 0.0
C856 C 0.20705 0.94451 0.35058 0.0
C857 C 0.19693 0.92356 0.36336 0.0
C858 C 0.2096 0.97757 0.37613 0.0
C859 C 0.19339 0.93049 0.38244 0.0
C860 C 0.20921 0.01092 0.40194 0.0
C861 C 0.2366 0.05413 0.37888 0.0
N862 N 0.19968 0.95686 0.38821 0.0
N863 N 0.22967 0.02767 0.37258 0.0
H864 H 0.49897 0.59528 0.31966 0.0
H865 H 0.60433 0.75287 0.29996 0.0
H866 H 0.49925 0.62885 0.26463 0.0
H867 H 0.59974 0.72325 0.35698 0.0
H868 H 0.56628 0.70706 0.28689 0.0
H869 H 0.53571 0.64161 0.33384 0.0
C870 C 0.50657 0.61241 0.3106 0.0
C871 C 0.49612 0.60808 0.29086 0.0
C872 C 0.57352 0.71053 0.30227 0.0
C873 C 0.5384 0.66105 0.30694 0.0
C874 C 0.59536 0.73673 0.30977 0.0
C875 C 0.60534 0.742 0.32964 0.0
C876 C 0.56149 0.68923 0.31466 0.0
C877 C 0.59275 0.72017 0.34158 0.0
C878 C 0.52766 0.63882 0.31868 0.0
C879 C 0.50701 0.63103 0.27979 0.0
N880 N 0.57151 0.69472 0.3339 0.0
N881 N 0.52756 0.65642 0.28795 0.0
H882 H 0.35846 0.86967 0.26446 0.0
H883 H 0.27878 0.87795 0.35571 0.0
H884 H 0.39982 0.9 0.32288 0.0
H885 H 0.23809 0.84232 0.2976 0.0
H886 H 0.32346 0.88701 0.34425 0.0
H887 H 0.31432 0.86028 0.2766 0.0
C888 C 0.35827 0.87448 0.27985 0.0
C889 C 0.38292 0.88579 0.29265 0.0
C890 C 0.30471 0.87716 0.33405 0.0
C891 C 0.33225 0.87491 0.30675 0.0
C892 C 0.27919 0.87202 0.34057 0.0
C893 C 0.25457 0.85936 0.32762 0.0
C894 C 0.30563 0.86964 0.31444 0.0
C895 C 0.25645 0.85214 0.30816 0.0
C896 C 0.333 0.86897 0.28682 0.0
C897 C 0.38128 0.89111 0.31253 0.0
N898 N 0.28146 0.8574 0.3022 0.0
N899 N 0.3564 0.88574 0.31897 0.0
H900 H 0.11696 0.48435 0.2777 0.0
H901 H 0.12994 0.39958 0.36414 0.0
H902 H 0.0922 0.49066 0.33506 0.0
H903 H 0.1506 0.39162 0.30563 0.0
H904 H 0.11635 0.43323 0.35415 0.0
H905 H 0.12945 0.45033 0.288 0.0
C906 C 0.1139 0.47838 0.29243 0.0
C907 C 0.10334 0.49025 0.3055 0.0
C908 C 0.12385 0.42408 0.34352 0.0
C909 C 0.11809 0.45154 0.31753 0.0
C910 C 0.13163 0.40489 0.34921 0.0
C911 C 0.14146 0.39276 0.33571 0.0
C912 C 0.12595 0.43119 0.32422 0.0
C913 C 0.14318 0.40041 0.31657 0.0
C914 C 0.12123 0.45907 0.29836 0.0
C915 C 0.10047 0.48218 0.32455 0.0
N916 N 0.13553 0.41912 0.31142 0.0
N917 N 0.10779 0.46329 0.33 0.0
H918 H 0.36894 0.45115 0.28376 0.0
H919 H 0.25586 0.42368 0.3599 0.0
H920 H 0.38527 0.50611 0.33547 0.0
H921 H 0.24028 0.36799 0.30856 0.0
H922 H 0.30273 0.45485 0.35073 0.0
H923 H 0.32113 0.42103 0.29213 0.0
C924 C 0.3624 0.4567 0.29695 0.0
C925 C 0.3811 0.48071 0.30919 0.0
C926 C 0.28903 0.43583 0.34146 0.0
C927 C 0.32648 0.44674 0.31876 0.0
C928 C 0.26222 0.41801 0.34667 0.0
C929 C 0.24407 0.39305 0.33505 0.0
C930 C 0.29783 0.42871 0.32448 0.0
C931 C 0.25354 0.38689 0.31805 0.0
C932 C 0.33515 0.43961 0.30171 0.0
C933 C 0.37155 0.48745 0.32587 0.0
N934 N 0.27975 0.40455 0.31332 0.0
N935 N 0.34493 0.47048 0.33023 0.0
H936 H 0.48848 0.86291 0.33487 0.0
H937 H 0.63325 0.87114 0.31236 0.0
H938 H 0.54116 0.91482 0.29341 0.0
H939 H 0.57893 0.81895 0.35322 0.0
H940 H 0.59932 0.88626 0.30416 0.0
H941 H 0.52088 0.84532 0.3408 0.0
C942 C 0.50699 0.87063 0.32709 0.0
C943 C 0.51256 0.89071 0.31397 0.0
C944 C 0.59483 0.87143 0.31487 0.0
C945 C 0.54961 0.87061 0.32046 0.0
C946 C 0.61419 0.86277 0.31955 0.0
C947 C 0.60907 0.84385 0.3336 0.0
C948 C 0.5702 0.8611 0.3243 0.0
C949 C 0.58393 0.83366 0.34238 0.0
C950 C 0.52545 0.8606 0.33042 0.0
C951 C 0.53647 0.89968 0.30391 0.0
N952 N 0.56556 0.84248 0.33765 0.0
N953 N 0.55424 0.88971 0.30745 0.0
H954 H 0.12926 0.62323 0.35577 0.0
H955 H 0.11723 0.74837 0.31254 0.0
H956 H 0.07108 0.61121 0.30656 0.0
H957 H 0.18099 0.75971 0.35756 0.0
H958 H 0.09884 0.69804 0.31059 0.0
H959 H 0.14699 0.67343 0.35754 0.0
C960 C 0.11998 0.63125 0.34554 0.0
C961 C 0.09831 0.61322 0.33131 0.0
C962 C 0.11692 0.7116 0.32083 0.0
C963 C 0.11878 0.67047 0.33285 0.0
C964 C 0.12746 0.74033 0.32193 0.0
C965 C 0.15068 0.75831 0.33524 0.0
C966 C 0.12962 0.70082 0.3332 0.0
C967 C 0.16307 0.7467 0.34706 0.0
C968 C 0.13019 0.65985 0.34643 0.0
C969 C 0.08743 0.62453 0.318 0.0
N970 N 0.15232 0.71873 0.3458 0.0
N971 N 0.09774 0.65249 0.31912 0.0
H972 H 0.8482 0.03871 0.35394 0.0
H973 H 0.70758 0.91477 0.38824 0.0
H974 H 0.80273 0.05182 0.39796 0.0
H975 H 0.75937 0.903 0.3487 0.0
H976 H 0.74187 0.9648 0.3925 0.0
H977 H 0.81524 0.98858 0.35191 0.0
C978 C 0.83106 0.03092 0.36305 0.0
C979 C 0.8277 0.04929 0.3758 0.0
C980 C 0.74574 0.95117 0.38299 0.0
C981 C 0.79014 0.99204 0.37387 0.0
C982 C 0.72621 0.92261 0.3806 0.0
C983 C 0.73048 0.90462 0.36802 0.0
C984 C 0.76959 0.96176 0.37268 0.0
C985 C 0.75502 0.91599 0.35847 0.0
C986 C 0.81233 0.00235 0.36199 0.0
C987 C 0.80561 0.03825 0.38767 0.0
N988 N 0.7735 0.94376 0.36093 0.0
N989 N 0.78752 0.01031 0.38635 0.0
H990 H 0.95512 0.79366 0.36507 0.0
H991 H 0.10414 0.80409 0.39021 0.0
H992 H 0.97513 0.76193 0.41552 0.0
H993 H 0.08437 0.83661 0.33993 0.0
H994 H 0.05758 0.78975 0.40022 0.0
H995 H 0.00294 0.81093 0.35614 0.0
C996 C 0.96966 0.79031 0.37421 0.0
C997 C 0.96114 0.7759 0.3908 0.0
C998 C 0.06344 0.80007 0.38702 0.0
C999 C 0.01587 0.79576 0.38088 0.0
C1000 C 0.09006 0.80826 0.38126 0.0
C1001 C 0.09823 0.82149 0.36412 0.0
C1002 C 0.04472 0.80506 0.37556 0.0
C1003 C 0.07904 0.82644 0.35322 0.0
C1004 C 0.99692 0.80018 0.36916 0.0
C1005 C 0.98083 0.77255 0.40242 0.0
N1006 N 0.0532 0.81815 0.35909 0.0
N1007 N 0.00723 0.78224 0.39718 0.0
H1008 H 0.27262 0.21772 0.39924 0.0
H1009 H 0.16746 0.24997 0.33581 0.0
H1010 H 0.22209 0.16763 0.34685 0.0
H1011 H 0.22348 0.30449 0.38524 0.0
H1012 H 0.18705 0.21946 0.3398 0.0
H1013 H 0.25524 0.25011 0.39431 0.0
C1014 C 0.25824 0.21391 0.3865 0.0
C1015 C 0.2492 0.19046 0.37316 0.0
C1016 C 0.19507 0.2381 0.34977 0.0
C1017 C 0.22861 0.22675 0.3677 0.0
C1018 C 0.18382 0.2555 0.34756 0.0
C1019 C 0.1938 0.27984 0.36023 0.0
C1020 C 0.21643 0.24498 0.36482 0.0
C1021 C 0.21512 0.28595 0.37513 0.0
C1022 C 0.24819 0.23224 0.38375 0.0
C1023 C 0.22994 0.18585 0.35721 0.0
N1024 N 0.2257 0.26861 0.37702 0.0
N1025 N 0.22023 0.20383 0.35492 0.0
H1026 H 0.62195 0.54357 0.74343 0.0
H1027 H 0.749 0.57824 0.67885 0.0
H1028 H 0.63486 0.48012 0.71514 0.0
H1029 H 0.74565 0.63908 0.71858 0.0
H1030 H 0.70438 0.54232 0.68884 0.0
H1031 H 0.66471 0.57917 0.73149 0.0
C1032 C 0.63381 0.53707 0.7348 0.0
C1033 C 0.62479 0.50871 0.73044 0.0
C1034 C 0.71343 0.56356 0.69531 0.0
C1035 C 0.67366 0.54953 0.71638 0.0
C1036 C 0.73883 0.58409 0.68956 0.0
C1037 C 0.75117 0.61172 0.69793 0.0
C1038 C 0.70016 0.57077 0.70939 0.0
C1039 C 0.73705 0.61806 0.71179 0.0
C1040 C 0.65817 0.55745 0.72788 0.0
C1041 C 0.64077 0.50166 0.71873 0.0
N1042 N 0.71235 0.59777 0.71707 0.0
N1043 N 0.66443 0.52192 0.71214 0.0
H1044 H 0.46719 0.07789 0.75071 0.0
H1045 H 0.42487 0.16998 0.68729 0.0
H1046 H 0.5292 0.15631 0.73233 0.0
H1047 H 0.36997 0.11082 0.72465 0.0
H1048 H 0.46233 0.16112 0.69914 0.0
H1049 H 0.43029 0.08546 0.73647 0.0
C1050 C 0.47313 0.09679 0.74375 0.0
C1051 C 0.5015 0.11674 0.74309 0.0
C1052 C 0.44205 0.1501 0.70469 0.0
C1053 C 0.45905 0.12518 0.7263 0.0
C1054 C 0.42064 0.15504 0.6979 0.0
C1055 C 0.39424 0.14117 0.70504 0.0
C1056 C 0.43688 0.13082 0.71845 0.0
C1057 C 0.39 0.12212 0.71883 0.0
C1058 C 0.45197 0.101 0.73554 0.0
C1059 C 0.5077 0.14032 0.7332 0.0
N1060 N 0.41104 0.11744 0.72501 0.0
N1061 N 0.48664 0.14394 0.72525 0.0
H1062 H 0.94188 0.40096 0.73558 0.0
H1063 H 0.82973 0.2635 0.66819 0.0
H1064 H 0.86498 0.39056 0.70707 0.0
H1065 H 0.90401 0.27263 0.70026 0.0
H1066 H 0.84489 0.31198 0.67904 0.0
H1067 H 0.93085 0.35591 0.71961 0.0
C1068 C 0.92269 0.3892 0.72591 0.0
C1069 C 0.90416 0.39936 0.72282 0.0
C1070 C 0.85795 0.30341 0.68357 0.0
C1071 C 0.89143 0.34781 0.70439 0.0
C1072 C 0.84934 0.27575 0.67735 0.0
C1073 C 0.8655 0.26392 0.68347 0.0
C1074 C 0.88289 0.3193 0.69597 0.0
C1075 C 0.89076 0.28079 0.69531 0.0
C1076 C 0.91645 0.36353 0.71673 0.0
C1077 C 0.87989 0.38354 0.70982 0.0
N1078 N 0.89857 0.30755 0.70126 0.0
N1079 N 0.87409 0.35842 0.7012 0.0
H1080 H 0.20422 0.9344 0.62482 0.0
H1081 H 0.23725 0.07582 0.68589 0.0
H1082 H 0.13971 0.9503 0.64332 0.0
H1083 H 0.29886 0.06495 0.65697 0.0
H1084 H 0.20193 0.02777 0.67422 0.0
H1085 H 0.23977 0.98004 0.6404 0.0
C1086 C 0.19751 0.9475 0.63216 0.0
C1087 C 0.16889 0.93863 0.63251 0.0
C1088 C 0.22321 0.03589 0.67052 0.0
C1089 C 0.2096 0.9909 0.65061 0.0
C1090 C 0.24342 0.06329 0.67721 0.0
C1091 C 0.27105 0.07448 0.67232 0.0
C1092 C 0.23073 0.01952 0.65896 0.0
C1093 C 0.2778 0.05727 0.66102 0.0
C1094 C 0.21785 0.97353 0.64112 0.0
C1095 C 0.1615 0.95622 0.64272 0.0
N1096 N 0.25779 0.03069 0.6547 0.0
N1097 N 0.18173 0.98161 0.65126 0.0
H1098 H 0.01375 0.20183 0.58927 0.0
H1099 H 0.93038 0.18796 0.68282 0.0
H1100 H 0.05282 0.21765 0.64829 0.0
H1101 H 0.90129 0.19458 0.62487 0.0
H1102 H 0.97366 0.19412 0.67043 0.0
H1103 H 0.97067 0.19458 0.60208 0.0
C1104 C 0.01341 0.20397 0.60493 0.0
C1105 C 0.0372 0.2106 0.61767 0.0
C1106 C 0.95777 0.19424 0.66047 0.0
C1107 C 0.98745 0.20171 0.63249 0.0
C1108 C 0.93303 0.19064 0.66751 0.0
C1109 C 0.91216 0.19085 0.6549 0.0
C1110 C 0.96151 0.19772 0.64063 0.0
C1111 C 0.91681 0.19445 0.6352 0.0
C1112 C 0.98868 0.19965 0.61224 0.0
C1113 C 0.03503 0.2123 0.63786 0.0
N1114 N 0.94088 0.19765 0.62869 0.0
N1115 N 0.01063 0.20789 0.64464 0.0
H1116 H 0.81128 0.86267 0.66207 0.0
H1117 H 0.77445 0.70399 0.64972 0.0
H1118 H 0.73887 0.79768 0.62618 0.0
H1119 H 0.83854 0.7657 0.69275 0.0
H1120 H 0.76163 0.73832 0.6406 0.0
H1121 H 0.82182 0.82766 0.67349 0.0
C1122 C 0.79742 0.84101 0.65674 0.0
C1123 C 0.77422 0.83314 0.64306 0.0
C1124 C 0.77842 0.74433 0.6521 0.0
C1125 C 0.78645 0.79302 0.65583 0.0
C1126 C 0.78581 0.72474 0.6573 0.0
C1127 C 0.80766 0.73198 0.67201 0.0
C1128 C 0.79309 0.77145 0.66157 0.0
C1129 C 0.82156 0.75919 0.68133 0.0
C1130 C 0.80355 0.82106 0.66318 0.0
C1131 C 0.75727 0.8048 0.63645 0.0
N1132 N 0.81412 0.77799 0.67588 0.0
N1133 N 0.7638 0.78581 0.64283 0.0
H1134 H 0.0266 0.8017 0.61343 0.0
H1135 H 0.93059 0.74175 0.70081 0.0
H1136 H 0.05826 0.82434 0.67422 0.0
H1137 H 0.89746 0.726 0.64023 0.0
H1138 H 0.97742 0.77229 0.69138 0.0
H1139 H 0.97896 0.77397 0.6229 0.0
C1140 C 0.02339 0.80088 0.62877 0.0
C1141 C 0.04623 0.81526 0.64307 0.0
C1142 C 0.95989 0.76226 0.68016 0.0
C1143 C 0.99206 0.78356 0.65407 0.0
C1144 C 0.93311 0.74478 0.68553 0.0
C1145 C 0.91 0.7312 0.6713 0.0
C1146 C 0.96369 0.7661 0.66038 0.0
C1147 C 0.91461 0.73602 0.65172 0.0
C1148 C 0.99628 0.7851 0.63418 0.0
C1149 C 0.04115 0.81354 0.66276 0.0
N1150 N 0.94092 0.75295 0.64684 0.0
N1151 N 0.01461 0.79788 0.66768 0.0
H1152 H 0.17618 0.21199 0.61059 0.0
H1153 H 0.25815 0.18118 0.69638 0.0
H1154 H 0.158 0.2088 0.67055 0.0
H1155 H 0.26985 0.17123 0.63576 0.0
H1156 H 0.22171 0.19171 0.68666 0.0
H1157 H 0.21048 0.1971 0.61886 0.0
C1158 C 0.17929 0.20788 0.62544 0.0
C1159 C 0.16431 0.21155 0.63992 0.0
C1160 C 0.23212 0.18717 0.67541 0.0
C1161 C 0.2035 0.19492 0.64954 0.0
C1162 C 0.25311 0.18123 0.68096 0.0
C1163 C 0.26731 0.17544 0.66687 0.0
C1164 C 0.22517 0.18758 0.65558 0.0
C1165 C 0.25951 0.1756 0.64712 0.0
C1166 C 0.19882 0.19945 0.63016 0.0
C1167 C 0.1691 0.20618 0.65896 0.0
N1168 N 0.23904 0.18175 0.64205 0.0
N1169 N 0.18835 0.19828 0.66322 0.0
H1170 H 0.74804 0.95111 0.63113 0.0
H1171 H 0.80422 0.09206 0.70074 0.0
H1172 H 0.76765 0.95773 0.69331 0.0
H1173 H 0.80211 0.08912 0.63794 0.0
H1174 H 0.78595 0.04189 0.69841 0.0
H1175 H 0.76269 0.00077 0.63347 0.0
C1176 C 0.75514 0.96306 0.64529 0.0
C1177 C 0.75644 0.95045 0.66207 0.0
C1178 C 0.78947 0.05222 0.68514 0.0
C1179 C 0.77345 0.00705 0.6649 0.0
C1180 C 0.79986 0.08087 0.68645 0.0
C1181 C 0.80479 0.09485 0.6695 0.0
C1182 C 0.78377 0.03736 0.66676 0.0
C1183 C 0.79875 0.07923 0.65139 0.0
C1184 C 0.76361 0.99133 0.64663 0.0
C1185 C 0.76611 0.96672 0.68008 0.0
N1186 N 0.78853 0.0513 0.65049 0.0
N1187 N 0.77424 0.99423 0.68103 0.0
H1188 H 0.49157 0.38064 0.67659 0.0
H1189 H 0.39626 0.24255 0.72773 0.0
H1190 H 0.49114 0.37876 0.73895 0.0
H1191 H 0.38802 0.24843 0.66576 0.0
H1192 H 0.43249 0.29177 0.73218 0.0
H1193 H 0.45506 0.33145 0.6723 0.0
C1194 C 0.4838 0.36977 0.68937 0.0
C1195 C 0.49444 0.38357 0.70815 0.0
C1196 C 0.42268 0.28229 0.71762 0.0
C1197 C 0.45268 0.32744 0.70342 0.0
C1198 C 0.40201 0.25417 0.71506 0.0
C1199 C 0.38903 0.24131 0.69634 0.0
C1200 C 0.43057 0.29762 0.70133 0.0
C1201 C 0.39736 0.25744 0.68047 0.0
C1202 C 0.46294 0.34174 0.68694 0.0
C1203 C 0.48355 0.36867 0.72424 0.0
N1204 N 0.41764 0.2847 0.68333 0.0
N1205 N 0.46331 0.34136 0.72152 0.0
H1206 H 0.64874 0.13063 0.75739 0.0
H1207 H 0.73512 0.14762 0.66509 0.0
H1208 H 0.61177 0.11037 0.69771 0.0
H1209 H 0.77486 0.17729 0.72402 0.0
H1210 H 0.69003 0.13479 0.67696 0.0
H1211 H 0.69533 0.14881 0.74576 0.0
C1212 C 0.65055 0.13033 0.74185 0.0
C1213 C 0.62648 0.11914 0.72849 0.0
C1214 C 0.7086 0.14419 0.68732 0.0
C1215 C 0.67945 0.13945 0.71504 0.0
C1216 C 0.73446 0.15154 0.68055 0.0
C1217 C 0.75896 0.16338 0.69358 0.0
C1218 C 0.707 0.14851 0.70734 0.0
C1219 C 0.75659 0.168 0.71343 0.0
C1220 C 0.67706 0.14062 0.73521 0.0
C1221 C 0.62981 0.11892 0.7085 0.0
N1222 N 0.73107 0.16041 0.71972 0.0
N1223 N 0.65575 0.12879 0.7024 0.0
H1224 H 0.90887 0.52118 0.68307 0.0
H1225 H 0.85444 0.61907 0.72901 0.0
H1226 H 0.9146 0.54187 0.74491 0.0
H1227 H 0.86207 0.60911 0.66755 0.0
H1228 H 0.87361 0.58849 0.73512 0.0
H1229 H 0.88921 0.55143 0.67701 0.0
C1230 C 0.90617 0.53234 0.69534 0.0
C1231 C 0.91363 0.52946 0.71449 0.0
C1232 C 0.87107 0.59302 0.7203 0.0
C1233 C 0.8908 0.5636 0.70778 0.0
C1234 C 0.86003 0.61038 0.71679 0.0
C1235 C 0.85672 0.61673 0.69774 0.0
C1236 C 0.87867 0.5818 0.70464 0.0
C1237 C 0.86435 0.6049 0.68249 0.0
C1238 C 0.89491 0.54951 0.69191 0.0
C1239 C 0.90934 0.54392 0.72994 0.0
N1240 N 0.87496 0.58802 0.68627 0.0
N1241 N 0.89816 0.56037 0.72626 0.0
H1242 H 0.49403 0.95136 0.25173 0.0
H1243 H 0.44046 0.96016 0.14312 0.0
H1244 H 0.40817 0.90072 0.22648 0.0
H1245 H 0.52687 0.00794 0.16774 0.0
H1246 H 0.42796 0.93881 0.17371 0.0
H1247 H 0.50621 0.97296 0.22125 0.0
C1248 C 0.47775 0.94467 0.23974 0.0
C1249 C 0.45004 0.92412 0.24168 0.0
C1250 C 0.44965 0.95399 0.17243 0.0
C1251 C 0.4638 0.94903 0.20674 0.0
C1252 C 0.45683 0.96609 0.15492 0.0
C1253 C 0.48478 0.98588 0.15282 0.0
C1254 C 0.47056 0.96168 0.18798 0.0
C1255 C 0.50501 0.99307 0.16875 0.0
C1256 C 0.48469 0.95714 0.22236 0.0
C1257 C 0.42974 0.91668 0.22574 0.0
N1258 N 0.49751 0.98095 0.18562 0.0
N1259 N 0.43704 0.92909 0.20895 0.0
H1260 H 0.092 0.56739 0.24769 0.0
H1261 H 0.97719 0.46078 0.16271 0.0
H1262 H 0.03222 0.48178 0.25466 0.0
H1263 H 0.04066 0.54442 0.1541 0.0
H1264 H 0.99491 0.46938 0.19712 0.0
H1265 H 0.07126 0.56065 0.21408 0.0
C1266 C 0.07433 0.54725 0.2422 0.0
C1267 C 0.06388 0.52506 0.25395 0.0
C1268 C 0.00493 0.48591 0.18774 0.0
C1269 C 0.04025 0.51713 0.21548 0.0
C1270 C 0.9947 0.48107 0.1681 0.0
C1271 C 0.00746 0.50193 0.1555 0.0
C1272 C 0.02813 0.5118 0.19488 0.0
C1273 C 0.0304 0.52765 0.16325 0.0
C1274 C 0.06262 0.54337 0.22298 0.0
C1275 C 0.04118 0.49933 0.24602 0.0
N1276 N 0.04002 0.53186 0.18244 0.0
N1277 N 0.03017 0.49606 0.22727 0.0
H1278 H 0.45861 0.49778 0.24042 0.0
H1279 H 0.47553 0.53731 0.13044 0.0
H1280 H 0.46263 0.57232 0.22158 0.0
H1281 H 0.50655 0.48641 0.15445 0.0
H1282 H 0.46078 0.543 0.16225 0.0
H1283 H 0.46669 0.48633 0.20735 0.0
C1284 C 0.46088 0.51151 0.22924 0.0
C1285 C 0.46014 0.53608 0.23365 0.0
C1286 C 0.47063 0.53042 0.16052 0.0
C1287 C 0.46908 0.5231 0.19603 0.0
C1288 C 0.47886 0.52699 0.14235 0.0
C1289 C 0.49233 0.51141 0.13984 0.0
C1290 C 0.47561 0.51794 0.17626 0.0
C1291 C 0.49644 0.49879 0.15585 0.0
C1292 C 0.46562 0.50508 0.21048 0.0
C1293 C 0.46332 0.55331 0.21875 0.0
N1294 N 0.4881 0.50232 0.17342 0.0
N1295 N 0.46761 0.54648 0.20059 0.0
H1296 H 0.90406 0.41784 0.79227 0.0
H1297 H 0.01482 0.52593 0.87843 0.0
H1298 H 0.96285 0.50369 0.78514 0.0
H1299 H 0.95211 0.44168 0.88629 0.0
H1300 H 0.99586 0.5184 0.84429 0.0
H1301 H 0.92115 0.42635 0.82686 0.0
C1302 C 0.92063 0.43848 0.79799 0.0
C1303 C 0.93217 0.46006 0.7858 0.0
C1304 C 0.98617 0.50159 0.8535 0.0
C1305 C 0.95172 0.47002 0.8254 0.0
C1306 C 0.99708 0.50583 0.87296 0.0
C1307 C 0.98508 0.48436 0.8852 0.0
C1308 C 0.96318 0.47564 0.84618 0.0
C1309 C 0.96185 0.45889 0.87742 0.0
C1310 C 0.93027 0.44337 0.81776 0.0
C1311 C 0.95324 0.48651 0.79405 0.0
N1312 N 0.95175 0.45519 0.85838 0.0
N1313 N 0.96244 0.49071 0.81333 0.0
H1314 H 0.57177 0.51772 0.78133 0.0
H1315 H 0.51341 0.45244 0.88056 0.0
H1316 H 0.54926 0.43385 0.79258 0.0
H1317 H 0.5263 0.53233 0.86612 0.0
H1318 H 0.52948 0.44644 0.84936 0.0
H1319 H 0.55838 0.5247 0.81337 0.0
C1320 C 0.56424 0.50085 0.79062 0.0
C1321 C 0.5616 0.47514 0.78425 0.0
C1322 C 0.5288 0.46529 0.85301 0.0
C1323 C 0.54596 0.48289 0.8209 0.0
C1324 C 0.51976 0.46879 0.87087 0.0
C1325 C 0.51843 0.4929 0.87594 0.0
C1326 C 0.53672 0.48611 0.84015 0.0
C1327 C 0.52663 0.51325 0.86271 0.0
C1328 C 0.55641 0.50478 0.80886 0.0
C1329 C 0.55133 0.45389 0.7968 0.0
N1330 N 0.53544 0.50941 0.84545 0.0
N1331 N 0.54389 0.45824 0.81451 0.0
H1332 H 0.492 0.05198 0.78899 0.0
H1333 H 0.5449 0.05548 0.90043 0.0
H1334 H 0.57532 0.11162 0.81522 0.0
H1335 H 0.46237 0.99577 0.8729 0.0
H1336 H 0.55686 0.07628 0.86955 0.0
H1337 H 0.48138 0.03083 0.81964 0.0
C1338 C 0.50807 0.0607 0.80125 0.0
C1339 C 0.53452 0.0838 0.79958 0.0
C1340 C 0.53616 0.0586 0.87027 0.0
C1341 C 0.52253 0.05946 0.83483 0.0
C1342 C 0.52924 0.04682 0.88793 0.0
C1343 C 0.50255 0.02381 0.8893 0.0
C1344 C 0.51624 0.04738 0.85384 0.0
C1345 C 0.48329 0.01324 0.87251 0.0
C1346 C 0.50202 0.04851 0.81875 0.0
C1347 C 0.55469 0.09379 0.81584 0.0
N1348 N 0.4905 0.02512 0.85554 0.0
N1349 N 0.54823 0.08165 0.83283 0.0
H1350 H 0.0652 0.22766 0.55143 0.0
H1351 H 0.19352 0.34134 0.4992 0.0
H1352 H 0.15009 0.27543 0.57893 0.0
H1353 H 0.11027 0.28857 0.47 0.0
H1354 H 0.17744 0.31906 0.52906 0.0
H1355 H 0.08072 0.25146 0.522 0.0
C1356 C 0.08707 0.24328 0.55133 0.0
C1357 C 0.10639 0.24947 0.56766 0.0
C1358 C 0.16268 0.31234 0.51612 0.0
C1359 C 0.12437 0.27668 0.53396 0.0
C1360 C 0.17182 0.32517 0.49909 0.0
C1361 C 0.15324 0.31678 0.48203 0.0
C1362 C 0.1347 0.29102 0.51618 0.0
C1363 C 0.12543 0.29545 0.48271 0.0
C1364 C 0.09596 0.25675 0.53448 0.0
C1365 C 0.13454 0.2697 0.5666 0.0
N1366 N 0.11701 0.28334 0.49949 0.0
N1367 N 0.14266 0.28255 0.55006 0.0
H1368 H 0.77401 0.85711 0.57629 0.0
H1369 H 0.66144 0.85848 0.49805 0.0
H1370 H 0.71401 0.8817 0.5912 0.0
H1371 H 0.72185 0.83438 0.48329 0.0
H1372 H 0.68159 0.86891 0.53207 0.0
H1373 H 0.75639 0.85049 0.54194 0.0
C1374 C 0.75709 0.86108 0.57233 0.0
C1375 C 0.74533 0.8698 0.58665 0.0
C1376 C 0.69053 0.86146 0.52137 0.0
C1377 C 0.72519 0.86246 0.54732 0.0
C1378 C 0.67894 0.85537 0.50197 0.0
C1379 C 0.6899 0.84544 0.48781 0.0
C1380 C 0.7132 0.85749 0.5267 0.0
C1381 C 0.7129 0.84225 0.49367 0.0
C1382 C 0.74714 0.85744 0.55271 0.0
C1383 C 0.72382 0.87514 0.58064 0.0
N1384 N 0.72368 0.84812 0.51267 0.0
N1385 N 0.71434 0.87125 0.56144 0.0
H1386 H 0.09537 0.85672 0.55855 0.0
H1387 H 0.21434 0.86551 0.49358 0.0
H1388 H 0.18046 0.88387 0.58145 0.0
H1389 H 0.12854 0.83408 0.47012 0.0
H1390 H 0.20167 0.87124 0.52601 0.0
H1391 H 0.1063 0.84682 0.52622 0.0
C1392 C 0.11626 0.86036 0.55682 0.0
C1393 C 0.1371 0.87137 0.5727 0.0
C1394 C 0.18555 0.86301 0.5138 0.0
C1395 C 0.14983 0.86038 0.53576 0.0
C1396 C 0.19275 0.85958 0.49525 0.0
C1397 C 0.17248 0.84923 0.47905 0.0
C1398 C 0.15784 0.85614 0.51625 0.0
C1399 C 0.14495 0.84245 0.48213 0.0
C1400 C 0.12253 0.85486 0.53835 0.0
C1401 C 0.16388 0.87589 0.56956 0.0
N1402 N 0.13844 0.84605 0.50036 0.0
N1403 N 0.16948 0.87049 0.55148 0.0
H1404 H 0.56913 0.75152 0.12541 0.0
H1405 H 0.67856 0.86191 0.21112 0.0
H1406 H 0.62814 0.83702 0.11753 0.0
H1407 H 0.61692 0.77753 0.21962 0.0
H1408 H 0.65952 0.85357 0.17696 0.0
H1409 H 0.58557 0.76093 0.16016 0.0
C1410 C 0.58559 0.77226 0.131 0.0
C1411 C 0.5974 0.79349 0.11856 0.0
C1412 C 0.65006 0.83691 0.18631 0.0
C1413 C 0.61617 0.80448 0.15831 0.0
C1414 C 0.66101 0.84162 0.20578 0.0
C1415 C 0.64938 0.82034 0.21819 0.0
C1416 C 0.6274 0.81066 0.17915 0.0
C1417 C 0.62637 0.79459 0.2106 0.0
C1418 C 0.59486 0.77767 0.15085 0.0
C1419 C 0.61832 0.82011 0.12664 0.0
N1420 N 0.61623 0.79042 0.19153 0.0
N1421 N 0.62714 0.82481 0.14599 0.0
H1422 H 0.23978 0.8525 0.11852 0.0
H1423 H 0.17815 0.787 0.21703 0.0
H1424 H 0.21685 0.76873 0.13039 0.0
H1425 H 0.19745 0.86952 0.20426 0.0
H1426 H 0.19429 0.78075 0.18597 0.0
H1427 H 0.22676 0.86009 0.1506 0.0
C1428 C 0.23227 0.83579 0.12795 0.0
C1429 C 0.22929 0.8099 0.12172 0.0
C1430 C 0.19501 0.80024 0.18995 0.0
C1431 C 0.21404 0.81832 0.15837 0.0
C1432 C 0.18592 0.80387 0.20774 0.0
C1433 C 0.18638 0.82881 0.21327 0.0
C1434 C 0.20474 0.82172 0.17756 0.0
C1435 C 0.19633 0.8498 0.20049 0.0
C1436 C 0.22465 0.84007 0.14621 0.0
C1437 C 0.2191 0.78889 0.13446 0.0
N1438 N 0.20511 0.84578 0.18326 0.0
N1439 N 0.21181 0.79354 0.15214 0.0
H1440 H 0.24829 0.43863 0.14577 0.0
H1441 H 0.13068 0.32337 0.20426 0.0
H1442 H 0.16318 0.3819 0.12125 0.0
H1443 H 0.21602 0.3783 0.22921 0.0
H1444 H 0.14288 0.34383 0.17346 0.0
H1445 H 0.23768 0.41596 0.17607 0.0
C1446 C 0.22745 0.42127 0.14669 0.0
C1447 C 0.20654 0.41231 0.13098 0.0
C1448 C 0.159 0.3514 0.18564 0.0
C1449 C 0.19416 0.38645 0.16567 0.0
C1450 C 0.15207 0.33958 0.20324 0.0
C1451 C 0.17234 0.34906 0.21941 0.0
C1452 C 0.18642 0.37295 0.18409 0.0
C1453 C 0.19959 0.37054 0.21723 0.0
C1454 C 0.22136 0.40844 0.16404 0.0
C1455 C 0.17982 0.38987 0.13309 0.0
N1456 N 0.20583 0.38177 0.19992 0.0
N1457 N 0.17441 0.3778 0.1501 0.0
H1458 H 0.82387 0.61153 0.91444 0.0
H1459 H 0.7712 0.62357 0.80643 0.0
H1460 H 0.73801 0.56172 0.88905 0.0
H1461 H 0.85699 0.67238 0.83215 0.0
H1462 H 0.75847 0.60058 0.83643 0.0
H1463 H 0.83623 0.63389 0.88429 0.0
C1464 C 0.80762 0.60514 0.90247 0.0
C1465 C 0.77986 0.58461 0.90429 0.0
C1466 C 0.78007 0.61635 0.83551 0.0
C1467 C 0.79384 0.61047 0.8697 0.0
C1468 C 0.78739 0.62939 0.81835 0.0
C1469 C 0.81523 0.64999 0.81674 0.0
C1470 C 0.80073 0.62389 0.85122 0.0
C1471 C 0.83521 0.65693 0.83279 0.0
C1472 C 0.81467 0.61807 0.88528 0.0
C1473 C 0.75962 0.57762 0.88839 0.0
N1474 N 0.82758 0.6439 0.84931 0.0
N1475 N 0.76701 0.5905 0.87176 0.0
H1476 H 0.42887 0.24146 0.91888 0.0
H1477 H 0.32703 0.13143 0.83034 0.0
H1478 H 0.37292 0.15441 0.92468 0.0
H1479 H 0.37578 0.21984 0.82589 0.0
H1480 H 0.34409 0.13946 0.86492 0.0
H1481 H 0.40947 0.2342 0.88489 0.0
C1482 C 0.41229 0.22088 0.91307 0.0
C1483 C 0.40261 0.19848 0.92462 0.0
C1484 C 0.35103 0.15713 0.8564 0.0
C1485 C 0.38064 0.18992 0.88565 0.0
C1486 C 0.34146 0.15252 0.83664 0.0
C1487 C 0.3501 0.175 0.82524 0.0
C1488 C 0.36952 0.1844 0.86482 0.0
C1489 C 0.36843 0.20196 0.83421 0.0
C1490 C 0.40135 0.21671 0.89363 0.0
C1491 C 0.38136 0.17218 0.91622 0.0
N1492 N 0.37763 0.2059 0.85346 0.0
N1493 N 0.37119 0.16861 0.89723 0.0
H1494 H 0.7926 0.23966 0.88827 0.0
H1495 H 0.83329 0.14966 0.8189 0.0
H1496 H 0.78749 0.1638 0.90514 0.0
H1497 H 0.80473 0.20369 0.79719 0.0
H1498 H 0.81919 0.15565 0.85108 0.0
H1499 H 0.79967 0.22821 0.85512 0.0
C1500 C 0.79283 0.2205 0.88489 0.0
C1501 C 0.78954 0.20265 0.89936 0.0
C1502 C 0.81573 0.1659 0.83918 0.0
C1503 C 0.79795 0.18956 0.86162 0.0
C1504 C 0.82387 0.1626 0.82089 0.0
C1505 C 0.82016 0.1762 0.80538 0.0
C1506 C 0.80434 0.18336 0.84204 0.0
C1507 C 0.80773 0.19262 0.80869 0.0
C1508 C 0.79675 0.21391 0.866 0.0
C1509 C 0.78985 0.178 0.8943 0.0
N1510 N 0.80057 0.19599 0.8267 0.0
N1511 N 0.79436 0.17232 0.87586 0.0
H1512 H 0.29862 0.17452 0.44832 0.0
H1513 H 0.27 0.13247 0.55716 0.0
H1514 H 0.22975 0.09718 0.46258 0.0
H1515 H 0.35024 0.19659 0.54249 0.0
H1516 H 0.2514 0.12502 0.523 0.0
H1517 H 0.31446 0.18812 0.48327 0.0
C1518 C 0.28674 0.16055 0.45884 0.0
C1519 C 0.26303 0.1346 0.45263 0.0
C1520 C 0.27302 0.14088 0.52727 0.0
C1521 C 0.28082 0.14998 0.4924 0.0
C1522 C 0.28359 0.14534 0.5468 0.0
C1523 C 0.31176 0.16512 0.55266 0.0
C1524 C 0.29069 0.15636 0.51347 0.0
C1525 C 0.32849 0.1809 0.53853 0.0
C1526 C 0.29582 0.16825 0.47871 0.0
C1527 C 0.24838 0.1172 0.46678 0.0
N1528 N 0.31773 0.1761 0.51954 0.0
N1529 N 0.25752 0.12519 0.48599 0.0
H1530 H 0.87509 0.101 0.45734 0.0
H1531 H 0.87428 0.20828 0.53885 0.0
H1532 H 0.9054 0.18752 0.44912 0.0
H1533 H 0.82288 0.11909 0.53793 0.0
H1534 H 0.89064 0.20186 0.5078 0.0
H1535 H 0.86045 0.10809 0.48875 0.0
C1536 C 0.87857 0.12148 0.46206 0.0
C1537 C 0.8913 0.14363 0.45039 0.0
C1538 C 0.87576 0.18372 0.51439 0.0
C1539 C 0.875 0.15197 0.48665 0.0
C1540 C 0.86653 0.18735 0.53214 0.0
C1541 C 0.84715 0.16416 0.54093 0.0
C1542 C 0.86579 0.1567 0.50551 0.0
C1543 C 0.83759 0.13752 0.53154 0.0
C1544 C 0.8703 0.12552 0.48006 0.0
C1545 C 0.89593 0.16987 0.45763 0.0
N1546 N 0.8471 0.13451 0.51438 0.0
N1547 N 0.88776 0.17331 0.47529 0.0
H1548 H 0.89128 0.72481 0.45878 0.0
H1549 H 0.84198 0.73266 0.56464 0.0
H1550 H 0.86669 0.78403 0.47812 0.0
H1551 H 0.85052 0.66405 0.54076 0.0
H1552 H 0.85569 0.75455 0.53438 0.0
H1553 H 0.88218 0.70567 0.4904 0.0
C1554 C 0.88431 0.73401 0.46978 0.0
C1555 C 0.87957 0.75593 0.46578 0.0
C1556 C 0.85461 0.73473 0.53579 0.0
C1557 C 0.86884 0.73399 0.5019 0.0
C1558 C 0.84659 0.72209 0.55303 0.0
C1559 C 0.84494 0.69635 0.55531 0.0
C1560 C 0.86119 0.72165 0.52068 0.0
C1561 C 0.85181 0.68404 0.53984 0.0
C1562 C 0.8789 0.72295 0.48776 0.0
C1563 C 0.87026 0.76688 0.4805 0.0
N1564 N 0.85959 0.69677 0.52322 0.0
N1565 N 0.86513 0.75576 0.49787 0.0
loop_
_geom_bond_atom_site_label_1
_geom_bond_atom_site_label_2
_geom_bond_distance
_geom_bond_site_symmetry_2
_ccdc_geom_bond_type
H0 C7 0.929 . S
H1 C10 0.930 . S
H2 C12 0.929 . S
H3 C4 0.969 . S
C4 H3 0.969 . S
C4 O5 1.550 . S
C4 H6 0.973 . S
O5 C4 1.550 . S
O5 C11 1.412 . S
H6 C4 0.973 . S
C7 H0 0.929 . S
C7 C8 1.400 . S
C7 C9 1.364 . S
C8 C7 1.400 . S
C8 C12 1.377 . S
C9 C7 1.364 . S
C9 C10 1.374 . S
C10 H1 0.930 . S
C10 C9 1.374 . S
C10 C11 1.383 . S
C11 O5 1.412 . S
C11 C10 1.383 . S
C11 C12 1.394 . S
C12 H2 0.929 . S
C12 C8 1.377 . S
C12 C11 1.394 . S
H13 C20 0.929 . S
H14 C23 0.930 . S
H15 C25 0.929 . S
H16 C17 0.969 . S
C17 H16 0.969 . S
C17 O18 1.550 . S
C17 H19 0.973 . S
O18 C17 1.550 . S
O18 C24 1.412 . S
H19 C17 0.973 . S
C20 H13 0.929 . S
C20 C21 1.400 . S
C20 C22 1.364 . S
C21 C20 1.400 . S
C21 C25 1.377 . S
C22 C20 1.364 . S
C22 C23 1.374 . S
C23 H14 0.930 . S
C23 C22 1.374 . S
C23 C24 1.383 . S
C24 O18 1.412 . S
C24 C23 1.383 . S
C24 C25 1.394 . S
C25 H15 0.929 . S
C25 C21 1.377 . S
C25 C24 1.394 . S
H26 C33 0.929 . S
H27 C36 0.930 . S
H28 C38 0.929 . S
H29 C30 0.969 . S
C30 H29 0.969 . S
C30 O31 1.550 . S
C30 H32 0.973 . S
O31 C30 1.550 . S
O31 C37 1.412 . S
H32 C30 0.973 . S
C33 H26 0.929 . S
C33 C34 1.400 . S
C33 C35 1.364 . S
C34 C33 1.400 . S
C34 C38 1.377 . S
C35 C33 1.364 . S
C35 C36 1.374 . S
C36 H27 0.930 . S
C36 C35 1.374 . S
C36 C37 1.383 . S
C37 O31 1.412 . S
C37 C36 1.383 . S
C37 C38 1.394 . S
C38 H28 0.929 . S
C38 C34 1.377 . S
C38 C37 1.394 . S
H39 C46 0.929 . S
H40 C49 0.930 . S
H41 C51 0.929 . S
H42 C43 0.969 . S
C43 H42 0.969 . S
C43 O44 1.550 . S
C43 H45 0.973 . S
O44 C43 1.550 . S
O44 C50 1.412 . S
H45 C43 0.973 . S
C46 H39 0.929 . S
C46 C47 1.400 . S
C46 C48 1.364 . S
C47 C46 1.400 . S
C47 C51 1.377 . S
C48 C46 1.364 . S
C48 C49 1.374 . S
C49 H40 0.930 . S
C49 C48 1.374 . S
C49 C50 1.383 . S
C50 O44 1.412 . S
C50 C49 1.383 . S
C50 C51 1.394 . S
C51 H41 0.929 . S
C51 C47 1.377 . S
C51 C50 1.394 . S
H52 C59 0.929 . S
H53 C62 0.930 . S
H54 C64 0.929 . S
H55 C56 0.969 . S
C56 H55 0.969 . S
C56 O57 1.550 . S
C56 H58 0.973 . S
O57 C56 1.550 . S
O57 C63 1.412 . S
H58 C56 0.973 . S
C59 H52 0.929 . S
C59 C60 1.400 . S
C59 C61 1.364 . S
C60 C59 1.400 . S
C60 C64 1.377 . S
C61 C59 1.364 . S
C61 C62 1.374 . S
C62 H53 0.930 . S
C62 C61 1.374 . S
C62 C63 1.383 . S
C63 O57 1.412 . S
C63 C62 1.383 . S
C63 C64 1.394 . S
C64 H54 0.929 . S
C64 C60 1.377 . S
C64 C63 1.394 . S
H65 C72 0.929 . S
H66 C75 0.930 . S
H67 C77 0.929 . S
H68 C69 0.969 . S
C69 H68 0.969 . S
C69 O70 1.550 . S
C69 H71 0.973 . S
O70 C69 1.550 . S
O70 C76 1.412 . S
H71 C69 0.973 . S
C72 H65 0.929 . S
C72 C73 1.400 . S
C72 C74 1.364 . S
C73 C72 1.400 . S
C73 C77 1.377 . S
C74 C72 1.364 . S
C74 C75 1.374 . S
C75 H66 0.930 . S
C75 C74 1.374 . S
C75 C76 1.383 . S
C76 O70 1.412 . S
C76 C75 1.383 . S
C76 C77 1.394 . S
C77 H67 0.929 . S
C77 C73 1.377 . S
C77 C76 1.394 . S
H78 C85 0.929 . S
H79 C88 0.930 . S
H80 C90 0.929 . S
H81 C82 0.969 . S
C82 H81 0.969 . S
C82 O83 1.550 . S
C82 H84 0.973 . S
O83 C82 1.550 . S
O83 C89 1.412 . S
H84 C82 0.973 . S
C85 H78 0.929 . S
C85 C86 1.400 . S
C85 C87 1.364 . S
C86 C85 1.400 . S
C86 C90 1.377 . S
C87 C85 1.364 . S
C87 C88 1.374 . S
C88 H79 0.930 . S
C88 C87 1.374 . S
C88 C89 1.383 . S
C89 O83 1.412 . S
C89 C88 1.383 . S
C89 C90 1.394 . S
C90 H80 0.929 . S
C90 C86 1.377 . S
C90 C89 1.394 . S
H91 C98 0.929 . S
H92 C101 0.930 . S
H93 C103 0.929 . S
H94 C95 0.969 . S
C95 H94 0.969 . S
C95 O96 1.550 . S
C95 H97 0.973 . S
O96 C95 1.550 . S
O96 C102 1.412 . S
H97 C95 0.973 . S
C98 H91 0.929 . S
C98 C99 1.400 . S
C98 C100 1.364 . S
C99 C98 1.400 . S
C99 C103 1.377 . S
C100 C98 1.364 . S
C100 C101 1.374 . S
C101 H92 0.930 . S
C101 C100 1.374 . S
C101 C102 1.383 . S
C102 O96 1.412 . S
C102 C101 1.383 . S
C102 C103 1.394 . S
C103 H93 0.929 . S
C103 C99 1.377 . S
C103 C102 1.394 . S
H104 C111 0.929 . S
H105 C114 0.930 . S
H106 C116 0.929 . S
H107 C108 0.969 . S
C108 H107 0.969 . S
C108 O109 1.550 . S
C108 H110 0.973 . S
O109 C108 1.550 . S
O109 C115 1.412 . S
H110 C108 0.973 . S
C111 H104 0.929 . S
C111 C112 1.400 . S
C111 C113 1.364 . S
C112 C111 1.400 . S
C112 C116 1.377 . S
C113 C111 1.364 . S
C113 C114 1.374 . S
C114 H105 0.930 . S
C114 C113 1.374 . S
C114 C115 1.383 . S
C115 O109 1.412 . S
C115 C114 1.383 . S
C115 C116 1.394 . S
C116 H106 0.929 . S
C116 C112 1.377 . S
C116 C115 1.394 . S
H117 C124 0.929 . S
H118 C127 0.930 . S
H119 C129 0.929 . S
H120 C121 0.969 . S
C121 H120 0.969 . S
C121 O122 1.550 . S
C121 H123 0.973 . S
O122 C121 1.550 . S
O122 C128 1.412 . S
H123 C121 0.973 . S
C124 H117 0.929 . S
C124 C125 1.400 . S
C124 C126 1.364 . S
C125 C124 1.400 . S
C125 C129 1.377 . S
C126 C124 1.364 . S
C126 C127 1.374 . S
C127 H118 0.930 . S
C127 C126 1.374 . S
C127 C128 1.383 . S
C128 O122 1.412 . S
C128 C127 1.383 . S
C128 C129 1.394 . S
C129 H119 0.929 . S
C129 C125 1.377 . S
C129 C128 1.394 . S
H130 C137 0.929 . S
H131 C140 0.930 . S
H132 C142 0.929 . S
H133 C134 0.969 . S
C134 H133 0.969 . S
C134 O135 1.550 . S
C134 H136 0.973 . S
O135 C134 1.550 . S
O135 C141 1.412 . S
H136 C134 0.973 . S
C137 H130 0.929 . S
C137 C138 1.400 . S
C137 C139 1.364 . S
C138 C137 1.400 . S
C138 C142 1.377 . S
C139 C137 1.364 . S
C139 C140 1.374 . S
C140 H131 0.930 . S
C140 C139 1.374 . S
C140 C141 1.383 . S
C141 O135 1.412 . S
C141 C140 1.383 . S
C141 C142 1.394 . S
C142 H132 0.929 . S
C142 C138 1.377 . S
C142 C141 1.394 . S
H143 C150 0.929 . S
H144 C153 0.930 . S
H145 C155 0.929 . S
H146 C147 0.969 . S
C147 H146 0.969 . S
C147 O148 1.550 . S
C147 H149 0.973 . S
O148 C147 1.550 . S
O148 C154 1.412 . S
H149 C147 0.973 . S
C150 H143 0.929 . S
C150 C151 1.400 . S
C150 C152 1.364 . S
C151 C150 1.400 . S
C151 C155 1.377 . S
C152 C150 1.364 . S
C152 C153 1.374 . S
C153 H144 0.930 . S
C153 C152 1.374 . S
C153 C154 1.383 . S
C154 O148 1.412 . S
C154 C153 1.383 . S
C154 C155 1.394 . S
C155 H145 0.929 . S
C155 C151 1.377 . S
C155 C154 1.394 . S
H156 C163 0.929 . S
H157 C166 0.930 . S
H158 C168 0.929 . S
H159 C160 0.969 . S
C160 H159 0.969 . S
C160 O161 1.550 . S
C160 H162 0.973 . S
O161 C160 1.550 . S
O161 C167 1.412 . S
H162 C160 0.973 . S
C163 H156 0.929 . S
C163 C164 1.400 . S
C163 C165 1.364 . S
C164 C163 1.400 . S
C164 C168 1.377 . S
C165 C163 1.364 . S
C165 C166 1.374 . S
C166 H157 0.930 . S
C166 C165 1.374 . S
C166 C167 1.383 . S
C167 O161 1.412 . S
C167 C166 1.383 . S
C167 C168 1.394 . S
C168 H158 0.929 . S
C168 C164 1.377 . S
C168 C167 1.394 . S
H169 C176 0.929 . S
H170 C179 0.930 . S
H171 C181 0.929 . S
H172 C173 0.969 . S
C173 H172 0.969 . S
C173 O174 1.550 . S
C173 H175 0.973 . S
O174 C173 1.550 . S
O174 C180 1.412 . S
H175 C173 0.973 . S
C176 H169 0.929 . S
C176 C177 1.400 . S
C176 C178 1.364 . S
C177 C176 1.400 . S
C177 C181 1.377 . S
C178 C176 1.364 . S
C178 C179 1.374 . S
C179 H170 0.930 . S
C179 C178 1.374 . S
C179 C180 1.383 . S
C180 O174 1.412 . S
C180 C179 1.383 . S
C180 C181 1.394 . S
C181 H171 0.929 . S
C181 C177 1.377 . S
C181 C180 1.394 . S
H182 C189 0.929 . S
H183 C192 0.930 . S
H184 C194 0.929 . S
H185 C186 0.969 . S
C186 H185 0.969 . S
C186 O187 1.550 . S
C186 H188 0.973 . S
O187 C186 1.550 . S
O187 C193 1.412 . S
H188 C186 0.973 . S
C189 H182 0.929 . S
C189 C190 1.400 . S
C189 C191 1.364 . S
C190 C189 1.400 . S
C190 C194 1.377 . S
C191 C189 1.364 . S
C191 C192 1.374 . S
C192 H183 0.930 . S
C192 C191 1.374 . S
C192 C193 1.383 . S
C193 O187 1.412 . S
C193 C192 1.383 . S
C193 C194 1.394 . S
C194 H184 0.929 . S
C194 C190 1.377 . S
C194 C193 1.394 . S
H195 C202 0.929 . S
H196 C205 0.930 . S
H197 C207 0.929 . S
H198 C199 0.969 . S
C199 H198 0.969 . S
C199 O200 1.550 . S
C199 H201 0.973 . S
O200 C199 1.550 . S
O200 C206 1.412 . S
H201 C199 0.973 . S
C202 H195 0.929 . S
C202 C203 1.400 . S
C202 C204 1.364 . S
C203 C202 1.400 . S
C203 C207 1.377 . S
C204 C202 1.364 . S
C204 C205 1.374 . S
C205 H196 0.930 . S
C205 C204 1.374 . S
C205 C206 1.383 . S
C206 O200 1.412 . S
C206 C205 1.383 . S
C206 C207 1.394 . S
C207 H197 0.929 . S
C207 C203 1.377 . S
C207 C206 1.394 . S
H208 C215 0.929 . S
H209 C218 0.930 . S
H210 C220 0.929 . S
H211 C212 0.969 . S
C212 H211 0.969 . S
C212 O213 1.550 . S
C212 H214 0.973 . S
O213 C212 1.550 . S
O213 C219 1.412 . S
H214 C212 0.973 . S
C215 H208 0.929 . S
C215 C216 1.400 . S
C215 C217 1.364 . S
C216 C215 1.400 . S
C216 C220 1.377 . S
C217 C215 1.364 . S
C217 C218 1.374 . S
C218 H209 0.930 . S
C218 C217 1.374 . S
C218 C219 1.383 . S
C219 O213 1.412 . S
C219 C218 1.383 . S
C219 C220 1.394 . S
C220 H210 0.929 . S
C220 C216 1.377 . S
C220 C219 1.394 . S
H221 C228 0.929 . S
H222 C231 0.930 . S
H223 C233 0.929 . S
H224 C225 0.969 . S
C225 H224 0.969 . S
C225 O226 1.550 . S
C225 H227 0.973 . S
O226 C225 1.550 . S
O226 C232 1.412 . S
H227 C225 0.973 . S
C228 H221 0.929 . S
C228 C229 1.400 . S
C228 C230 1.364 . S
C229 C228 1.400 . S
C229 C233 1.377 . S
C230 C228 1.364 . S
C230 C231 1.374 . S
C231 H222 0.930 . S
C231 C230 1.374 . S
C231 C232 1.383 . S
C232 O226 1.412 . S
C232 C231 1.383 . S
C232 C233 1.394 . S
C233 H223 0.929 . S
C233 C229 1.377 . S
C233 C232 1.394 . S
Tb234 C244 2.825 1_565 S
Tb234 O245 2.347 1_565 S
Tb234 O248 2.366 1_565 S
Tb234 O253 2.418 . S
Tb234 O254 2.384 . S
Tb234 O257 2.479 . S
Tb234 O258 2.471 1_565 S
Eu235 O246 2.418 . S
Eu235 O247 2.384 . S
Eu235 O250 2.479 . S
Eu235 O251 2.471 1_545 S
Eu235 O252 2.347 1_545 S
Eu235 O255 2.366 1_545 S
Eu235 C265 2.825 . S
C236 O252 1.259 . S
C236 O253 1.265 1_554 S
C237 O254 1.255 1_554 S
C237 O255 1.265 . S
C238 C240 1.380 1_545 S
C238 C241 1.374 . S
C238 C244 1.507 . S
C239 C240 1.384 1_545 S
C239 C243 1.387 . S
C239 H266 0.930 1_545 S
C240 C238 1.380 1_565 S
C240 C239 1.384 1_565 S
C240 H267 0.931 . S
C241 C238 1.374 . S
C241 C242 1.390 . S
C241 H268 0.930 . S
C242 C241 1.390 . S
C242 C243 1.391 . S
C242 H269 0.930 . S
C243 C239 1.387 . S
C243 C242 1.391 . S
C244 Tb234 2.825 1_545 S
C244 C238 1.507 . S
C244 O257 1.238 1_545 S
C244 O258 1.247 . S
O245 Tb234 2.347 1_545 S
O245 C249 1.259 1_556 S
O246 Eu235 2.418 . S
O246 C249 1.265 . S
O247 Eu235 2.384 . S
O247 C256 1.255 1_554 S
O248 Tb234 2.366 1_545 S
O248 C256 1.265 . S
C249 O245 1.259 1_554 S
C249 O246 1.265 . S
O250 Eu235 2.479 . S
O250 C265 1.238 . S
O251 Eu235 2.471 1_565 S
O251 C265 1.247 1_565 S
O252 Eu235 2.347 1_565 S
O252 C236 1.259 . S
O253 Tb234 2.418 . S
O253 C236 1.265 1_556 S
O254 Tb234 2.384 . S
O254 C237 1.255 1_556 S
O255 Eu235 2.366 1_565 S
O255 C237 1.265 . S
C256 O247 1.255 1_556 S
C256 O248 1.265 . S
O257 Tb234 2.479 . S
O257 C244 1.238 1_565 S
O258 Tb234 2.471 1_545 S
O258 C244 1.247 . S
C259 C262 1.380 1_565 S
C259 C263 1.374 . S
C259 C265 1.507 1_565 S
C260 C261 1.387 1_565 S
C260 C264 1.391 . S
C261 C260 1.387 1_545 S
C261 C262 1.384 . S
C261 H270 0.930 . S
C262 C259 1.380 1_545 S
C262 C261 1.384 . S
C262 H271 0.931 . S
C263 C259 1.374 . S
C263 C264 1.390 . S
C263 H272 0.930 . S
C264 C260 1.391 . S
C264 C263 1.390 . S
C264 H273 0.930 . S
C265 Eu235 2.825 . S
C265 O250 1.238 . S
C265 O251 1.247 1_545 S
C265 C259 1.507 1_545 S
H266 C239 0.930 1_565 S
H267 C240 0.931 . S
H268 C241 0.930 . S
H269 C242 0.930 . S
H270 C261 0.930 . S
H271 C262 0.931 . S
H272 C263 0.930 . S
H273 C264 0.930 . S
Tb274 C284 2.814 1_455 S
Tb274 O285 2.347 1_455 S
Tb274 O288 2.366 1_455 S
Tb274 O293 2.418 . S
Tb274 O294 2.384 1_556 S
Tb274 O297 2.479 . S
Tb274 O298 2.471 1_455 S
Eu275 O286 2.418 . S
Eu275 O287 2.384 . S
Eu275 O290 2.479 . S
Eu275 O291 2.471 1_655 S
Eu275 O292 2.347 1_655 S
Eu275 O295 2.366 1_655 S
Eu275 C305 2.825 1_655 S
C276 O292 1.259 . S
C276 O293 1.265 1_554 S
C277 O294 1.255 . S
C277 O295 1.265 . S
C278 C280 1.380 1_655 S
C278 C281 1.374 . S
C278 C284 1.521 . S
C279 C280 1.384 1_655 S
C279 C283 1.387 . S
C279 H306 0.930 1_655 S
C280 C278 1.380 1_455 S
C280 C279 1.384 1_455 S
C280 H307 0.931 . S
C281 C278 1.374 . S
C281 C282 1.390 . S
C281 H308 0.930 . S
C282 C281 1.390 . S
C282 C283 1.391 . S
C282 H309 0.930 . S
C283 C279 1.387 . S
C283 C282 1.391 . S
C284 Tb274 2.814 1_655 S
C284 C278 1.521 . S
C284 O297 1.220 1_655 S
C284 O298 1.252 . S
O285 Tb274 2.347 1_655 S
O285 C289 1.259 1_556 S
O286 Eu275 2.418 . S
O286 C289 1.265 . S
O287 Eu275 2.384 . S
O287 C296 1.255 1_554 S
O288 Tb274 2.366 1_655 S
O288 C296 1.265 . S
C289 O285 1.259 1_554 S
C289 O286 1.265 . S
O290 Eu275 2.479 . S
O290 C305 1.238 1_655 S
O291 Eu275 2.471 1_455 S
O291 C305 1.247 . S
O292 Eu275 2.347 1_455 S
O292 C276 1.259 . S
O293 Tb274 2.418 . S
O293 C276 1.265 1_556 S
O294 Tb274 2.384 1_554 S
O294 C277 1.255 . S
O295 Eu275 2.366 1_455 S
O295 C277 1.265 . S
C296 O287 1.255 1_556 S
C296 O288 1.265 . S
O297 Tb274 2.479 . S
O297 C284 1.220 1_455 S
O298 Tb274 2.471 1_655 S
O298 C284 1.252 . S
C299 C302 1.375 1_455 S
C299 C303 1.374 . S
C299 C305 1.507 . S
C300 C301 1.387 . S
C300 C304 1.391 . S
C301 C300 1.387 . S
C301 C302 1.379 1_455 S
C301 H310 0.917 1_455 S
C302 C299 1.375 1_655 S
C302 C301 1.379 1_655 S
C302 H311 0.940 . S
C303 C299 1.374 . S
C303 C304 1.390 . S
C303 H312 0.930 . S
C304 C300 1.391 . S
C304 C303 1.390 . S
C304 H313 0.930 . S
C305 Eu275 2.825 1_455 S
C305 O290 1.238 1_455 S
C305 O291 1.247 . S
C305 C299 1.507 . S
H306 C279 0.930 1_455 S
H307 C280 0.931 . S
H308 C281 0.930 . S
H309 C282 0.930 . S
H310 C301 0.917 1_655 S
H311 C302 0.940 . S
H312 C303 0.930 . S
H313 C304 0.930 . S
Tb314 C324 2.825 . S
Tb314 O325 2.347 . S
Tb314 O328 2.366 . S
Tb314 O333 2.418 . S
Tb314 O334 2.384 . S
Tb314 O337 2.479 . S
Tb314 O338 2.471 . S
Eu315 O326 2.418 . S
Eu315 O327 2.384 1_556 S
Eu315 O330 2.479 . S
Eu315 O331 2.471 . S
Eu315 O332 2.349 . S
Eu315 O335 2.366 . S
Eu315 C345 2.825 . S
C316 O332 1.257 1_554 S
C316 O333 1.265 . S
C317 O334 1.255 1_556 S
C317 O335 1.265 . S
C318 C320 1.380 . S
C318 C321 1.374 . S
C318 C324 1.507 . S
C319 C320 1.384 . S
C319 C323 1.387 . S
C319 H346 0.930 . S
C320 C318 1.380 . S
C320 C319 1.384 . S
C320 H347 0.931 . S
C321 C318 1.374 . S
C321 C322 1.390 . S
C321 H348 0.930 . S
C322 C321 1.390 . S
C322 C323 1.391 . S
C322 H349 0.930 . S
C323 C319 1.387 . S
C323 C322 1.391 . S
C324 Tb314 2.825 . S
C324 C318 1.507 . S
C324 O337 1.238 . S
C324 O338 1.247 . S
O325 Tb314 2.347 . S
O325 C329 1.259 . S
O326 Eu315 2.418 . S
O326 C329 1.265 1_556 S
O327 Eu315 2.384 1_554 S
O327 C336 1.255 . S
O328 Tb314 2.366 . S
O328 C336 1.265 . S
C329 O325 1.259 . S
C329 O326 1.265 1_554 S
O330 Eu315 2.479 . S
O330 C345 1.238 . S
O331 Eu315 2.471 . S
O331 C345 1.247 . S
O332 Eu315 2.349 . S
O332 C316 1.257 1_556 S
O333 Tb314 2.418 . S
O333 C316 1.265 . S
O334 Tb314 2.384 . S
O334 C317 1.255 1_554 S
O335 Eu315 2.366 . S
O335 C317 1.265 . S
C336 O327 1.255 . S
C336 O328 1.265 . S
O337 Tb314 2.479 . S
O337 C324 1.238 . S
O338 Tb314 2.471 . S
O338 C324 1.247 . S
C339 C342 1.380 . S
C339 C343 1.374 . S
C339 C345 1.507 . S
C340 C341 1.387 . S
C340 C344 1.391 . S
C341 C340 1.387 . S
C341 C342 1.384 . S
C341 H350 0.930 . S
C342 C339 1.380 . S
C342 C341 1.384 . S
C342 H351 0.931 . S
C343 C339 1.374 . S
C343 C344 1.390 . S
C343 H352 0.930 . S
C344 C340 1.391 . S
C344 C343 1.390 . S
C344 H353 0.930 . S
C345 Eu315 2.825 . S
C345 O330 1.238 . S
C345 O331 1.247 . S
C345 C339 1.507 . S
H346 C319 0.930 . S
H347 C320 0.931 . S
H348 C321 0.930 . S
H349 C322 0.930 . S
H350 C341 0.930 . S
H351 C342 0.931 . S
H352 C343 0.930 . S
H353 C344 0.930 . S
Tb354 C364 2.825 . S
Tb354 O365 2.347 . S
Tb354 O368 2.366 . S
Tb354 O373 2.418 . S
Tb354 O374 2.384 . S
Tb354 O377 2.479 . S
Tb354 O378 2.471 . S
Eu355 O366 2.418 . S
Eu355 O367 2.384 . S
Eu355 O370 2.479 . S
Eu355 O371 2.471 . S
Eu355 O372 2.347 . S
Eu355 O375 2.366 . S
Eu355 C385 2.825 . S
C356 O372 1.259 . S
C356 O373 1.265 . S
C357 O374 1.255 . S
C357 O375 1.265 . S
C358 C360 1.380 . S
C358 C361 1.374 . S
C358 C364 1.507 . S
C359 C360 1.384 . S
C359 C363 1.387 . S
C359 H386 0.930 . S
C360 C358 1.380 . S
C360 C359 1.384 . S
C360 H387 0.931 . S
C361 C358 1.374 . S
C361 C362 1.390 . S
C361 H388 0.930 . S
C362 C361 1.390 . S
C362 C363 1.391 . S
C362 H389 0.930 . S
C363 C359 1.387 . S
C363 C362 1.391 . S
C364 Tb354 2.825 . S
C364 C358 1.507 . S
C364 O377 1.238 . S
C364 O378 1.247 . S
O365 Tb354 2.347 . S
O365 C369 1.259 . S
O366 Eu355 2.418 . S
O366 C369 1.265 . S
O367 Eu355 2.384 . S
O367 C376 1.255 . S
O368 Tb354 2.366 . S
O368 C376 1.265 . S
C369 O365 1.259 . S
C369 O366 1.265 . S
O370 Eu355 2.479 . S
O370 C385 1.238 . S
O371 Eu355 2.471 . S
O371 C385 1.247 . S
O372 Eu355 2.347 . S
O372 C356 1.259 . S
O373 Tb354 2.418 . S
O373 C356 1.265 . S
O374 Tb354 2.384 . S
O374 C357 1.255 . S
O375 Eu355 2.366 . S
O375 C357 1.265 . S
C376 O367 1.255 . S
C376 O368 1.265 . S
O377 Tb354 2.479 . S
O377 C364 1.238 . S
O378 Tb354 2.471 . S
O378 C364 1.247 . S
C379 C382 1.380 . S
C379 C383 1.374 . S
C379 C385 1.507 . S
C380 C381 1.387 . S
C380 C384 1.391 . S
C381 C380 1.387 . S
C381 C382 1.384 . S
C381 H390 0.930 . S
C382 C379 1.380 . S
C382 C381 1.384 . S
C382 H391 0.931 . S
C383 C379 1.374 . S
C383 C384 1.390 . S
C383 H392 0.930 . S
C384 C380 1.391 . S
C384 C383 1.390 . S
C384 H393 0.930 . S
C385 Eu355 2.825 . S
C385 O370 1.238 . S
C385 O371 1.247 . S
C385 C379 1.507 . S
H386 C359 0.930 . S
H387 C360 0.931 . S
H388 C361 0.930 . S
H389 C362 0.930 . S
H390 C381 0.930 . S
H391 C382 0.931 . S
H392 C383 0.930 . S
H393 C384 0.930 . S
Tb394 C404 2.825 . S
Tb394 O405 2.347 . S
Tb394 O408 2.366 . S
Tb394 O413 2.418 . S
Tb394 O414 2.384 . S
Tb394 O417 2.479 . S
Tb394 O418 2.471 . S
Eu395 O406 2.418 . S
Eu395 O407 2.384 . S
Eu395 O410 2.479 . S
Eu395 O411 2.471 . S
Eu395 O412 2.347 . S
Eu395 O415 2.366 . S
Eu395 C425 2.825 . S
C396 O412 1.259 . S
C396 O413 1.265 . S
C397 O414 1.255 . S
C397 O415 1.265 . S
C398 C400 1.380 . S
C398 C401 1.374 . S
C398 C404 1.507 . S
C399 C400 1.384 . S
C399 C403 1.387 . S
C399 H426 0.930 . S
C400 C398 1.380 . S
C400 C399 1.384 . S
C400 H427 0.931 . S
C401 C398 1.374 . S
C401 C402 1.390 . S
C401 H428 0.930 . S
C402 C401 1.390 . S
C402 C403 1.391 . S
C402 H429 0.930 . S
C403 C399 1.387 . S
C403 C402 1.391 . S
C404 Tb394 2.825 . S
C404 C398 1.507 . S
C404 O417 1.238 . S
C404 O418 1.247 . S
O405 Tb394 2.347 . S
O405 C409 1.259 . S
O406 Eu395 2.418 . S
O406 C409 1.265 . S
O407 Eu395 2.384 . S
O407 C416 1.255 . S
O408 Tb394 2.366 . S
O408 C416 1.265 . S
C409 O405 1.259 . S
C409 O406 1.265 . S
O410 Eu395 2.479 . S
O410 C425 1.238 . S
O411 Eu395 2.471 . S
O411 C425 1.247 . S
O412 Eu395 2.347 . S
O412 C396 1.259 . S
O413 Tb394 2.418 . S
O413 C396 1.265 . S
O414 Tb394 2.384 . S
O414 C397 1.255 . S
O415 Eu395 2.366 . S
O415 C397 1.265 . S
C416 O407 1.255 . S
C416 O408 1.265 . S
O417 Tb394 2.479 . S
O417 C404 1.238 . S
O418 Tb394 2.471 . S
O418 C404 1.247 . S
C419 C422 1.380 . S
C419 C423 1.374 . S
C419 C425 1.507 . S
C420 C421 1.387 . S
C420 C424 1.391 . S
C421 C420 1.387 . S
C421 C422 1.384 . S
C421 H430 0.930 . S
C422 C419 1.380 . S
C422 C421 1.384 . S
C422 H431 0.931 . S
C423 C419 1.374 . S
C423 C424 1.390 . S
C423 H432 0.930 . S
C424 C420 1.391 . S
C424 C423 1.390 . S
C424 H433 0.930 . S
C425 Eu395 2.825 . S
C425 O410 1.238 . S
C425 O411 1.247 . S
C425 C419 1.507 . S
H426 C399 0.930 . S
H427 C400 0.931 . S
H428 C401 0.930 . S
H429 C402 0.930 . S
H430 C421 0.930 . S
H431 C422 0.931 . S
H432 C423 0.930 . S
H433 C424 0.930 . S
Tb434 C444 2.825 . S
Tb434 O445 2.347 . S
Tb434 O448 2.366 . S
Tb434 O453 2.418 . S
Tb434 O454 2.384 . S
Tb434 O457 2.479 . S
Tb434 O458 2.471 . S
Eu435 O446 2.418 . S
Eu435 O447 2.384 . S
Eu435 O450 2.479 . S
Eu435 O451 2.471 . S
Eu435 O452 2.347 . S
Eu435 O455 2.366 . S
Eu435 C465 2.825 . S
C436 O452 1.259 . S
C436 O453 1.265 . S
C437 O454 1.255 . S
C437 O455 1.265 . S
C438 C440 1.380 . S
C438 C441 1.374 . S
C438 C444 1.507 . S
C439 C440 1.384 . S
C439 C443 1.387 . S
C439 H466 0.930 . S
C440 C438 1.380 . S
C440 C439 1.384 . S
C440 H467 0.931 . S
C441 C438 1.374 . S
C441 C442 1.390 . S
C441 H468 0.930 . S
C442 C441 1.390 . S
C442 C443 1.391 . S
C442 H469 0.930 . S
C443 C439 1.387 . S
C443 C442 1.391 . S
C444 Tb434 2.825 . S
C444 C438 1.507 . S
C444 O457 1.238 . S
C444 O458 1.247 . S
O445 Tb434 2.347 . S
O445 C449 1.259 . S
O446 Eu435 2.418 . S
O446 C449 1.265 . S
O447 Eu435 2.384 . S
O447 C456 1.255 . S
O448 Tb434 2.366 . S
O448 C456 1.265 . S
C449 O445 1.259 . S
C449 O446 1.265 . S
O450 Eu435 2.479 . S
O450 C465 1.238 . S
O451 Eu435 2.471 . S
O451 C465 1.247 . S
O452 Eu435 2.347 . S
O452 C436 1.259 . S
O453 Tb434 2.418 . S
O453 C436 1.265 . S
O454 Tb434 2.384 . S
O454 C437 1.255 . S
O455 Eu435 2.366 . S
O455 C437 1.265 . S
C456 O447 1.255 . S
C456 O448 1.265 . S
O457 Tb434 2.479 . S
O457 C444 1.238 . S
O458 Tb434 2.471 . S
O458 C444 1.247 . S
C459 C462 1.380 . S
C459 C463 1.374 . S
C459 C465 1.507 . S
C460 C461 1.387 . S
C460 C464 1.391 . S
C461 C460 1.387 . S
C461 C462 1.384 . S
C461 H470 0.930 . S
C462 C459 1.380 . S
C462 C461 1.384 . S
C462 H471 0.931 . S
C463 C459 1.374 . S
C463 C464 1.390 . S
C463 H472 0.930 . S
C464 C460 1.391 . S
C464 C463 1.390 . S
C464 H473 0.930 . S
C465 Eu435 2.825 . S
C465 O450 1.238 . S
C465 O451 1.247 . S
C465 C459 1.507 . S
H466 C439 0.930 . S
H467 C440 0.931 . S
H468 C441 0.930 . S
H469 C442 0.930 . S
H470 C461 0.930 . S
H471 C462 0.931 . S
H472 C463 0.930 . S
H473 C464 0.930 . S
Tb474 C484 2.825 . S
Tb474 O485 2.347 . S
Tb474 O488 2.366 . S
Tb474 O493 2.418 . S
Tb474 O494 2.384 . S
Tb474 O497 2.479 . S
Tb474 O498 2.471 . S
Eu475 O486 2.418 . S
Eu475 O487 2.384 . S
Eu475 O490 2.479 . S
Eu475 O491 2.471 . S
Eu475 O492 2.347 . S
Eu475 O495 2.366 . S
Eu475 C505 2.825 . S
C476 O492 1.259 . S
C476 O493 1.265 . S
C477 O494 1.255 . S
C477 O495 1.265 . S
C478 C480 1.380 . S
C478 C481 1.374 . S
C478 C484 1.507 . S
C479 C480 1.384 . S
C479 C483 1.387 . S
C479 H506 0.930 . S
C480 C478 1.380 . S
C480 C479 1.384 . S
C480 H507 0.931 . S
C481 C478 1.374 . S
C481 C482 1.390 . S
C481 H508 0.930 . S
C482 C481 1.390 . S
C482 C483 1.391 . S
C482 H509 0.930 . S
C483 C479 1.387 . S
C483 C482 1.391 . S
C484 Tb474 2.825 . S
C484 C478 1.507 . S
C484 O497 1.238 . S
C484 O498 1.247 . S
O485 Tb474 2.347 . S
O485 C489 1.259 . S
O486 Eu475 2.418 . S
O486 C489 1.265 . S
O487 Eu475 2.384 . S
O487 C496 1.255 . S
O488 Tb474 2.366 . S
O488 C496 1.265 . S
C489 O485 1.259 . S
C489 O486 1.265 . S
O490 Eu475 2.479 . S
O490 C505 1.238 . S
O491 Eu475 2.471 . S
O491 C505 1.247 . S
O492 Eu475 2.347 . S
O492 C476 1.259 . S
O493 Tb474 2.418 . S
O493 C476 1.265 . S
O494 Tb474 2.384 . S
O494 C477 1.255 . S
O495 Eu475 2.366 . S
O495 C477 1.265 . S
C496 O487 1.255 . S
C496 O488 1.265 . S
O497 Tb474 2.479 . S
O497 C484 1.238 . S
O498 Tb474 2.471 . S
O498 C484 1.247 . S
C499 C502 1.380 . S
C499 C503 1.374 . S
C499 C505 1.507 . S
C500 C501 1.387 . S
C500 C504 1.391 . S
C501 C500 1.387 . S
C501 C502 1.384 . S
C501 H510 0.930 . S
C502 C499 1.380 . S
C502 C501 1.384 . S
C502 H511 0.931 . S
C503 C499 1.374 . S
C503 C504 1.390 . S
C503 H512 0.930 . S
C504 C500 1.391 . S
C504 C503 1.390 . S
C504 H513 0.930 . S
C505 Eu475 2.825 . S
C505 O490 1.238 . S
C505 O491 1.247 . S
C505 C499 1.507 . S
H506 C479 0.930 . S
H507 C480 0.931 . S
H508 C481 0.930 . S
H509 C482 0.930 . S
H510 C501 0.930 . S
H511 C502 0.931 . S
H512 C503 0.930 . S
H513 C504 0.930 . S
Tb514 C524 2.825 . S
Tb514 O525 2.347 . S
Tb514 O528 2.366 . S
Tb514 O533 2.418 . S
Tb514 O534 2.384 . S
Tb514 O537 2.479 . S
Tb514 O538 2.471 . S
Eu515 O526 2.418 . S
Eu515 O527 2.384 . S
Eu515 O530 2.479 . S
Eu515 O531 2.471 . S
Eu515 O532 2.347 . S
Eu515 O535 2.366 . S
Eu515 C545 2.825 . S
C516 O532 1.259 . S
C516 O533 1.265 . S
C517 O534 1.255 . S
C517 O535 1.265 . S
C518 C520 1.380 . S
C518 C521 1.374 . S
C518 C524 1.507 . S
C519 C520 1.384 . S
C519 C523 1.387 . S
C519 H546 0.930 . S
C520 C518 1.380 . S
C520 C519 1.384 . S
C520 H547 0.931 . S
C521 C518 1.374 . S
C521 C522 1.390 . S
C521 H548 0.930 . S
C522 C521 1.390 . S
C522 C523 1.391 . S
C522 H549 0.930 . S
C523 C519 1.387 . S
C523 C522 1.391 . S
C524 Tb514 2.825 . S
C524 C518 1.507 . S
C524 O537 1.238 . S
C524 O538 1.247 . S
O525 Tb514 2.347 . S
O525 C529 1.259 . S
O526 Eu515 2.418 . S
O526 C529 1.265 . S
O527 Eu515 2.384 . S
O527 C536 1.255 . S
O528 Tb514 2.366 . S
O528 C536 1.265 . S
C529 O525 1.259 . S
C529 O526 1.265 . S
O530 Eu515 2.479 . S
O530 C545 1.238 . S
O531 Eu515 2.471 . S
O531 C545 1.247 . S
O532 Eu515 2.347 . S
O532 C516 1.259 . S
O533 Tb514 2.418 . S
O533 C516 1.265 . S
O534 Tb514 2.384 . S
O534 C517 1.255 . S
O535 Eu515 2.366 . S
O535 C517 1.265 . S
C536 O527 1.255 . S
C536 O528 1.265 . S
O537 Tb514 2.479 . S
O537 C524 1.238 . S
O538 Tb514 2.471 . S
O538 C524 1.247 . S
C539 C542 1.380 . S
C539 C543 1.374 . S
C539 C545 1.507 . S
C540 C541 1.387 . S
C540 C544 1.391 . S
C541 C540 1.387 . S
C541 C542 1.384 . S
C541 H550 0.930 . S
C542 C539 1.380 . S
C542 C541 1.384 . S
C542 H551 0.931 . S
C543 C539 1.374 . S
C543 C544 1.390 . S
C543 H552 0.930 . S
C544 C540 1.391 . S
C544 C543 1.390 . S
C544 H553 0.930 . S
C545 Eu515 2.825 . S
C545 O530 1.238 . S
C545 O531 1.247 . S
C545 C539 1.507 . S
H546 C519 0.930 . S
H547 C520 0.931 . S
H548 C521 0.930 . S
H549 C522 0.930 . S
H550 C541 0.930 . S
H551 C542 0.931 . S
H552 C543 0.930 . S
H553 C544 0.930 . S
Tb554 C564 2.825 . S
Tb554 O565 2.347 . S
Tb554 O568 2.366 . S
Tb554 O573 2.418 . S
Tb554 O574 2.384 . S
Tb554 O577 2.479 . S
Tb554 O578 2.471 . S
Eu555 O566 2.418 . S
Eu555 O567 2.384 . S
Eu555 O570 2.479 . S
Eu555 O571 2.471 . S
Eu555 O572 2.347 . S
Eu555 O575 2.366 . S
Eu555 C585 2.825 . S
C556 O572 1.259 . S
C556 O573 1.265 . S
C557 O574 1.255 . S
C557 O575 1.265 . S
C558 C560 1.380 . S
C558 C561 1.374 . S
C558 C564 1.507 . S
C559 C560 1.384 . S
C559 C563 1.387 . S
C559 H586 0.930 . S
C560 C558 1.380 . S
C560 C559 1.384 . S
C560 H587 0.931 . S
C561 C558 1.374 . S
C561 C562 1.390 . S
C561 H588 0.930 . S
C562 C561 1.390 . S
C562 C563 1.391 . S
C562 H589 0.930 . S
C563 C559 1.387 . S
C563 C562 1.391 . S
C564 Tb554 2.825 . S
C564 C558 1.507 . S
C564 O577 1.238 . S
C564 O578 1.247 . S
O565 Tb554 2.347 . S
O565 C569 1.259 . S
O566 Eu555 2.418 . S
O566 C569 1.265 . S
O567 Eu555 2.384 . S
O567 C576 1.255 . S
O568 Tb554 2.366 . S
O568 C576 1.265 . S
C569 O565 1.259 . S
C569 O566 1.265 . S
O570 Eu555 2.479 . S
O570 C585 1.238 . S
O571 Eu555 2.471 . S
O571 C585 1.247 . S
O572 Eu555 2.347 . S
O572 C556 1.259 . S
O573 Tb554 2.418 . S
O573 C556 1.265 . S
O574 Tb554 2.384 . S
O574 C557 1.255 . S
O575 Eu555 2.366 . S
O575 C557 1.265 . S
C576 O567 1.255 . S
C576 O568 1.265 . S
O577 Tb554 2.479 . S
O577 C564 1.238 . S
O578 Tb554 2.471 . S
O578 C564 1.247 . S
C579 C582 1.380 . S
C579 C583 1.374 . S
C579 C585 1.507 . S
C580 C581 1.387 . S
C580 C584 1.391 . S
C581 C580 1.387 . S
C581 C582 1.384 . S
C581 H590 0.930 . S
C582 C579 1.380 . S
C582 C581 1.384 . S
C582 H591 0.931 . S
C583 C579 1.374 . S
C583 C584 1.390 . S
C583 H592 0.930 . S
C584 C580 1.391 . S
C584 C583 1.390 . S
C584 H593 0.930 . S
C585 Eu555 2.825 . S
C585 O570 1.238 . S
C585 O571 1.247 . S
C585 C579 1.507 . S
H586 C559 0.930 . S
H587 C560 0.931 . S
H588 C561 0.930 . S
H589 C562 0.930 . S
H590 C581 0.930 . S
H591 C582 0.931 . S
H592 C583 0.930 . S
H593 C584 0.930 . S
H594 C600 0.930 . S
H595 C604 0.930 . S
H596 C609 0.929 . S
H597 C607 0.929 . S
H598 C602 0.929 . S
H599 C608 0.929 . S
C600 H594 0.930 . S
C600 C601 1.367 . S
C600 C608 1.378 . S
C601 C600 1.367 . S
C601 C609 1.433 . S
C602 H598 0.929 . S
C602 C604 1.378 . S
C602 C606 1.350 . S
C603 C606 1.463 . S
C603 C608 1.350 . S
C603 N611 1.427 . S
C604 H595 0.930 . S
C604 C602 1.378 . S
C604 C605 1.367 . S
C605 C604 1.367 . S
C605 C607 1.433 . S
C606 C602 1.350 . S
C606 C603 1.463 . S
C606 N610 1.427 . S
C607 H597 0.929 . S
C607 C605 1.433 . S
C607 N610 1.384 . S
C608 H599 0.929 . S
C608 C600 1.378 . S
C608 C603 1.350 . S
C609 H596 0.929 . S
C609 C601 1.433 . S
C609 N611 1.384 . S
N610 C606 1.427 . S
N610 C607 1.384 . S
N611 C603 1.427 . S
N611 C609 1.384 . S
H612 C618 0.930 . S
H613 C622 0.930 . S
H614 C627 0.929 . S
H615 C625 0.929 . S
H616 C620 0.929 . S
H617 C626 0.929 . S
C618 H612 0.930 . S
C618 C619 1.367 . S
C618 C626 1.378 . S
C619 C618 1.367 . S
C619 C627 1.433 . S
C620 H616 0.929 . S
C620 C622 1.378 . S
C620 C624 1.350 . S
C621 C624 1.463 . S
C621 C626 1.350 . S
C621 N629 1.427 . S
C622 H613 0.930 . S
C622 C620 1.378 . S
C622 C623 1.367 . S
C623 C622 1.367 . S
C623 C625 1.433 . S
C624 C620 1.350 . S
C624 C621 1.463 . S
C624 N628 1.427 . S
C625 H615 0.929 . S
C625 C623 1.433 . S
C625 N628 1.384 . S
C626 H617 0.929 . S
C626 C618 1.378 . S
C626 C621 1.350 . S
C627 H614 0.929 . S
C627 C619 1.433 . S
C627 N629 1.384 . S
N628 C624 1.427 . S
N628 C625 1.384 . S
N629 C621 1.427 . S
N629 C627 1.384 . S
H630 C636 0.930 . S
H631 C640 0.930 . S
H632 C645 0.929 . S
H633 C643 0.929 . S
H634 C638 0.929 . S
H635 C644 0.929 . S
C636 H630 0.930 . S
C636 C637 1.367 . S
C636 C644 1.378 . S
C637 C636 1.367 . S
C637 C645 1.433 . S
C638 H634 0.929 . S
C638 C640 1.378 . S
C638 C642 1.350 . S
C639 C642 1.463 . S
C639 C644 1.350 . S
C639 N647 1.427 . S
C640 H631 0.930 . S
C640 C638 1.378 . S
C640 C641 1.367 . S
C641 C640 1.367 . S
C641 C643 1.433 . S
C642 C638 1.350 . S
C642 C639 1.463 . S
C642 N646 1.427 . S
C643 H633 0.929 . S
C643 C641 1.433 . S
C643 N646 1.384 . S
C644 H635 0.929 . S
C644 C636 1.378 . S
C644 C639 1.350 . S
C645 H632 0.929 . S
C645 C637 1.433 . S
C645 N647 1.384 . S
N646 C642 1.427 . S
N646 C643 1.384 . S
N647 C639 1.427 . S
N647 C645 1.384 . S
H648 C654 0.930 . S
H649 C658 0.930 . S
H650 C663 0.929 . S
H651 C661 0.929 . S
H652 C656 0.929 . S
H653 C662 0.899 1_554 S
C654 H648 0.930 . S
C654 C655 1.367 . S
C654 C662 1.378 . S
C655 C654 1.367 . S
C655 C663 1.433 . S
C656 H652 0.929 . S
C656 C658 1.378 . S
C656 C660 1.350 . S
C657 C660 1.463 . S
C657 C662 1.350 . S
C657 N665 1.427 . S
C658 H649 0.930 . S
C658 C656 1.378 . S
C658 C659 1.367 . S
C659 C658 1.367 . S
C659 C661 1.433 1_556 S
C660 C656 1.350 . S
C660 C657 1.463 . S
C660 N664 1.447 . S
C661 H651 0.929 . S
C661 C659 1.433 1_554 S
C661 N664 1.380 1_554 S
C662 H653 0.899 1_556 S
C662 C654 1.378 . S
C662 C657 1.350 . S
C663 H650 0.929 . S
C663 C655 1.433 . S
C663 N665 1.384 . S
N664 C660 1.447 . S
N664 C661 1.380 1_556 S
N665 C657 1.427 . S
N665 C663 1.384 . S
H666 C672 0.930 . S
H667 C676 0.930 . S
H668 C681 0.929 . S
H669 C679 0.929 . S
H670 C674 0.929 . S
H671 C680 0.929 . S
C672 H666 0.930 . S
C672 C673 1.367 . S
C672 C680 1.378 . S
C673 C672 1.367 . S
C673 C681 1.433 . S
C674 H670 0.929 . S
C674 C676 1.378 . S
C674 C678 1.350 . S
C675 C678 1.463 . S
C675 C680 1.350 . S
C675 N683 1.427 . S
C676 H667 0.930 . S
C676 C674 1.378 . S
C676 C677 1.367 . S
C677 C676 1.367 . S
C677 C679 1.433 . S
C678 C674 1.350 . S
C678 C675 1.463 . S
C678 N682 1.427 . S
C679 H669 0.929 . S
C679 C677 1.433 . S
C679 N682 1.384 . S
C680 H671 0.929 . S
C680 C672 1.378 . S
C680 C675 1.350 . S
C681 H668 0.929 . S
C681 C673 1.433 . S
C681 N683 1.384 . S
N682 C678 1.427 . S
N682 C679 1.384 . S
N683 C675 1.427 . S
N683 C681 1.384 . S
H684 C690 0.930 . S
H685 C694 0.930 . S
H686 C699 0.929 1_554 S
H687 C697 0.929 . S
H688 C692 0.929 . S
H689 C698 0.929 . S
C690 H684 0.930 . S
C690 C691 1.367 . S
C690 C698 1.378 . S
C691 C690 1.367 . S
C691 C699 1.433 . S
C692 H688 0.929 . S
C692 C694 1.378 . S
C692 C696 1.350 1_554 S
C693 C696 1.463 . S
C693 C698 1.350 . S
C693 N701 1.443 . S
C694 H685 0.930 . S
C694 C692 1.378 . S
C694 C695 1.367 1_554 S
C695 C694 1.367 1_556 S
C695 C697 1.433 . S
C696 C692 1.350 1_556 S
C696 C693 1.463 . S
C696 N700 1.427 . S
C697 H687 0.929 . S
C697 C695 1.433 . S
C697 N700 1.384 . S
C698 H689 0.929 . S
C698 C690 1.378 . S
C698 C693 1.350 . S
C699 H686 0.929 1_556 S
C699 C691 1.433 . S
C699 N701 1.389 . S
N700 C696 1.427 . S
N700 C697 1.384 . S
N701 C693 1.443 . S
N701 C699 1.389 . S
H702 C708 0.930 . S
H703 C712 0.930 . S
H704 C717 0.929 . S
H705 C715 0.929 . S
H706 C710 0.929 1_554 S
H707 C716 0.929 . S
C708 H702 0.930 . S
C708 C709 1.367 . S
C708 C716 1.378 . S
C709 C708 1.367 . S
C709 C717 1.433 . S
C710 H706 0.929 1_556 S
C710 C712 1.378 1_556 S
C710 C714 1.350 . S
C711 C714 1.463 . S
C711 C716 1.350 . S
C711 N719 1.427 . S
C712 H703 0.930 . S
C712 C710 1.378 1_554 S
C712 C713 1.367 1_554 S
C713 C712 1.367 1_556 S
C713 C715 1.433 . S
C714 C710 1.350 . S
C714 C711 1.463 . S
C714 N718 1.427 . S
C715 H705 0.929 . S
C715 C713 1.433 . S
C715 N718 1.384 . S
C716 H707 0.929 . S
C716 C708 1.378 . S
C716 C711 1.350 . S
C717 H704 0.929 . S
C717 C709 1.433 . S
C717 N719 1.384 . S
N718 C714 1.427 . S
N718 C715 1.384 . S
N719 C711 1.427 . S
N719 C717 1.384 . S
H720 C726 0.930 . S
H721 C730 0.933 . S
H722 C735 0.929 . S
H723 C733 0.929 . S
H724 C728 0.929 . S
H725 C734 0.929 . S
C726 H720 0.930 . S
C726 C727 1.367 . S
C726 C734 1.378 . S
C727 C726 1.367 . S
C727 C735 1.433 . S
C728 H724 0.929 . S
C728 C730 1.378 . S
C728 C732 1.350 . S
C729 C732 1.463 . S
C729 C734 1.350 . S
C729 N737 1.427 . S
C730 H721 0.933 . S
C730 C728 1.378 . S
C730 C731 1.367 . S
C731 C730 1.367 . S
C731 C733 1.433 . S
C732 C728 1.350 . S
C732 C729 1.463 . S
C732 N736 1.427 . S
C733 H723 0.929 . S
C733 C731 1.433 . S
C733 N736 1.384 . S
C734 H725 0.929 . S
C734 C726 1.378 . S
C734 C729 1.350 . S
C735 H722 0.929 . S
C735 C727 1.433 . S
C735 N737 1.384 . S
N736 C732 1.427 . S
N736 C733 1.384 . S
N737 C729 1.427 . S
N737 C735 1.384 . S
H738 C744 0.930 . S
H739 C748 0.930 . S
H740 C753 0.929 . S
H741 C751 0.929 . S
H742 C746 0.929 . S
H743 C752 0.929 . S
C744 H738 0.930 . S
C744 C745 1.367 . S
C744 C752 1.378 . S
C745 C744 1.367 . S
C745 C753 1.433 1_556 S
C746 H742 0.929 . S
C746 C748 1.378 . S
C746 C750 1.350 1_554 S
C747 C750 1.463 . S
C747 C752 1.350 . S
C747 N755 1.427 1_556 S
C748 H739 0.930 . S
C748 C746 1.378 . S
C748 C749 1.402 . S
C749 C748 1.402 . S
C749 C751 1.398 1_554 S
C750 C746 1.350 1_556 S
C750 C747 1.463 . S
C750 N754 1.427 . S
C751 H741 0.929 . S
C751 C749 1.398 1_556 S
C751 N754 1.384 . S
C752 H743 0.929 . S
C752 C744 1.378 . S
C752 C747 1.350 . S
C753 H740 0.929 . S
C753 C745 1.433 1_554 S
C753 N755 1.384 . S
N754 C750 1.427 . S
N754 C751 1.384 . S
N755 C747 1.427 1_554 S
N755 C753 1.384 . S
H756 C762 0.930 . S
H757 C766 0.930 . S
H758 C771 0.929 . S
H759 C769 0.929 1_556 S
H760 C764 0.929 . S
H761 C770 0.929 . S
C762 H756 0.930 . S
C762 C763 1.367 . S
C762 C770 1.378 . S
C763 C762 1.367 . S
C763 C771 1.433 . S
C764 H760 0.929 . S
C764 C766 1.378 . S
C764 C768 1.350 . S
C765 C768 1.463 . S
C765 C770 1.350 . S
C765 N773 1.427 . S
C766 H757 0.930 . S
C766 C764 1.378 . S
C766 C767 1.367 . S
C767 C766 1.367 . S
C767 C769 1.433 . S
C768 C764 1.350 . S
C768 C765 1.463 . S
C768 N772 1.427 . S
C769 H759 0.929 1_554 S
C769 C767 1.433 . S
C769 N772 1.384 . S
C770 H761 0.929 . S
C770 C762 1.378 . S
C770 C765 1.350 . S
C771 H758 0.929 . S
C771 C763 1.433 . S
C771 N773 1.384 . S
N772 C768 1.427 . S
N772 C769 1.384 . S
N773 C765 1.427 . S
N773 C771 1.384 . S
H774 C780 0.930 . S
H775 C784 0.930 . S
H776 C789 0.929 . S
H777 C787 0.929 . S
H778 C782 0.929 . S
H779 C788 0.929 . S
C780 H774 0.930 . S
C780 C781 1.367 . S
C780 C788 1.378 . S
C781 C780 1.367 . S
C781 C789 1.433 . S
C782 H778 0.929 . S
C782 C784 1.378 . S
C782 C786 1.350 . S
C783 C786 1.463 . S
C783 C788 1.350 . S
C783 N791 1.427 . S
C784 H775 0.930 . S
C784 C782 1.378 . S
C784 C785 1.367 . S
C785 C784 1.367 . S
C785 C787 1.433 . S
C786 C782 1.350 . S
C786 C783 1.463 . S
C786 N790 1.427 . S
C787 H777 0.929 . S
C787 C785 1.433 . S
C787 N790 1.384 . S
C788 H779 0.929 . S
C788 C780 1.378 . S
C788 C783 1.350 . S
C789 H776 0.929 . S
C789 C781 1.433 . S
C789 N791 1.384 . S
N790 C786 1.427 . S
N790 C787 1.384 . S
N791 C783 1.427 . S
N791 C789 1.384 . S
H792 C798 0.930 . S
H793 C802 0.930 . S
H794 C807 0.920 1_556 S
H795 C805 0.929 . S
H796 C800 0.935 . S
H797 C806 0.929 . S
C798 H792 0.930 . S
C798 C799 1.367 . S
C798 C806 1.378 . S
C799 C798 1.367 . S
C799 C807 1.433 . S
C800 H796 0.935 . S
C800 C802 1.379 . S
C800 C804 1.342 1_556 S
C801 C804 1.463 . S
C801 C806 1.350 . S
C801 N809 1.427 . S
C802 H793 0.930 . S
C802 C800 1.379 . S
C802 C803 1.367 1_556 S
C803 C802 1.367 1_554 S
C803 C805 1.433 . S
C804 C800 1.342 1_554 S
C804 C801 1.463 . S
C804 N808 1.427 . S
C805 H795 0.929 . S
C805 C803 1.433 . S
C805 N808 1.384 . S
C806 H797 0.929 . S
C806 C798 1.378 . S
C806 C801 1.350 . S
C807 H794 0.920 1_554 S
C807 C799 1.433 . S
C807 N809 1.384 . S
N808 C804 1.427 . S
N808 C805 1.384 . S
N809 C801 1.427 . S
N809 C807 1.384 . S
H810 C816 0.930 . S
H811 C820 0.930 . S
H812 C825 0.929 . S
H813 C823 0.929 . S
H814 C818 0.929 . S
H815 C824 0.929 . S
C816 H810 0.930 . S
C816 C817 1.367 . S
C816 C824 1.378 . S
C817 C816 1.367 . S
C817 C825 1.433 . S
C818 H814 0.929 . S
C818 C820 1.378 . S
C818 C822 1.350 . S
C819 C822 1.463 1_655 S
C819 C824 1.350 . S
C819 N827 1.427 . S
C820 H811 0.930 . S
C820 C818 1.378 . S
C820 C821 1.367 . S
C821 C820 1.367 . S
C821 C823 1.433 . S
C822 C818 1.350 . S
C822 C819 1.463 1_455 S
C822 N826 1.427 . S
C823 H813 0.929 . S
C823 C821 1.433 . S
C823 N826 1.384 . S
C824 H815 0.929 . S
C824 C816 1.378 . S
C824 C819 1.350 . S
C825 H812 0.929 . S
C825 C817 1.433 . S
C825 N827 1.384 . S
N826 C822 1.427 . S
N826 C823 1.384 . S
N827 C819 1.427 . S
N827 C825 1.384 . S
H828 C834 0.930 . S
H829 C838 0.930 . S
H830 C843 0.929 . S
H831 C841 0.929 . S
H832 C836 0.929 . S
H833 C842 0.929 . S
C834 H828 0.930 . S
C834 C835 1.367 . S
C834 C842 1.378 . S
C835 C834 1.367 . S
C835 C843 1.433 . S
C836 H832 0.929 . S
C836 C838 1.378 . S
C836 C840 1.350 . S
C837 C840 1.463 . S
C837 C842 1.350 . S
C837 N845 1.427 . S
C838 H829 0.930 . S
C838 C836 1.378 . S
C838 C839 1.367 . S
C839 C838 1.367 . S
C839 C841 1.433 . S
C840 C836 1.350 . S
C840 C837 1.463 . S
C840 N844 1.427 . S
C841 H831 0.929 . S
C841 C839 1.433 . S
C841 N844 1.384 . S
C842 H833 0.929 . S
C842 C834 1.378 . S
C842 C837 1.350 . S
C843 H830 0.929 . S
C843 C835 1.433 . S
C843 N845 1.384 . S
N844 C840 1.427 . S
N844 C841 1.384 . S
N845 C837 1.427 . S
N845 C843 1.384 . S
H846 C852 0.930 . S
H847 C856 0.930 . S
H848 C861 0.929 . S
H849 C859 0.929 . S
H850 C854 0.929 1_545 S
H851 C860 0.929 . S
C852 H846 0.930 . S
C852 C853 1.367 . S
C852 C860 1.378 . S
C853 C852 1.367 . S
C853 C861 1.433 . S
C854 H850 0.929 1_565 S
C854 C856 1.378 . S
C854 C858 1.350 1_565 S
C855 C858 1.463 . S
C855 C860 1.350 . S
C855 N863 1.427 . S
C856 H847 0.930 . S
C856 C854 1.378 . S
C856 C857 1.367 . S
C857 C856 1.367 . S
C857 C859 1.433 . S
C858 C854 1.350 1_545 S
C858 C855 1.463 . S
C858 N862 1.427 1_545 S
C859 H849 0.929 . S
C859 C857 1.433 . S
C859 N862 1.384 . S
C860 H851 0.929 . S
C860 C852 1.378 . S
C860 C855 1.350 . S
C861 H848 0.929 . S
C861 C853 1.433 . S
C861 N863 1.384 . S
N862 C858 1.427 1_565 S
N862 C859 1.384 . S
N863 C855 1.427 . S
N863 C861 1.384 . S
H864 C870 0.930 . S
H865 C874 0.930 . S
H866 C879 0.929 . S
H867 C877 0.929 . S
H868 C872 0.929 . S
H869 C878 0.929 . S
C870 H864 0.930 . S
C870 C871 1.367 . S
C870 C878 1.378 . S
C871 C870 1.367 . S
C871 C879 1.433 . S
C872 H868 0.929 . S
C872 C874 1.378 . S
C872 C876 1.350 . S
C873 C876 1.463 . S
C873 C878 1.350 . S
C873 N881 1.427 . S
C874 H865 0.930 . S
C874 C872 1.378 . S
C874 C875 1.367 . S
C875 C874 1.367 . S
C875 C877 1.433 . S
C876 C872 1.350 . S
C876 C873 1.463 . S
C876 N880 1.427 . S
C877 H867 0.929 . S
C877 C875 1.433 . S
C877 N880 1.384 . S
C878 H869 0.929 . S
C878 C870 1.378 . S
C878 C873 1.350 . S
C879 H866 0.929 . S
C879 C871 1.433 . S
C879 N881 1.384 . S
N880 C876 1.427 . S
N880 C877 1.384 . S
N881 C873 1.427 . S
N881 C879 1.384 . S
H882 C888 0.930 . S
H883 C892 0.930 . S
H884 C897 0.929 . S
H885 C895 0.929 . S
H886 C890 0.929 . S
H887 C896 0.929 . S
C888 H882 0.930 . S
C888 C889 1.367 . S
C888 C896 1.378 . S
C889 C888 1.367 . S
C889 C897 1.433 . S
C890 H886 0.929 . S
C890 C892 1.378 . S
C890 C894 1.350 . S
C891 C894 1.463 . S
C891 C896 1.350 . S
C891 N899 1.427 . S
C892 H883 0.930 . S
C892 C890 1.378 . S
C892 C893 1.367 . S
C893 C892 1.367 . S
C893 C895 1.433 . S
C894 C890 1.350 . S
C894 C891 1.463 . S
C894 N898 1.427 . S
C895 H885 0.929 . S
C895 C893 1.433 . S
C895 N898 1.384 . S
C896 H887 0.929 . S
C896 C888 1.378 . S
C896 C891 1.350 . S
C897 H884 0.929 . S
C897 C889 1.433 . S
C897 N899 1.384 . S
N898 C894 1.427 . S
N898 C895 1.384 . S
N899 C891 1.427 . S
N899 C897 1.384 . S
H900 C906 0.930 . S
H901 C910 0.930 . S
H902 C915 0.929 . S
H903 C913 0.929 . S
H904 C908 0.929 . S
H905 C914 0.929 . S
C906 H900 0.930 . S
C906 C907 1.367 . S
C906 C914 1.378 . S
C907 C906 1.367 . S
C907 C915 1.433 . S
C908 H904 0.929 . S
C908 C910 1.378 . S
C908 C912 1.350 . S
C909 C912 1.463 . S
C909 C914 1.350 . S
C909 N917 1.427 . S
C910 H901 0.930 . S
C910 C908 1.378 . S
C910 C911 1.367 . S
C911 C910 1.367 . S
C911 C913 1.433 . S
C912 C908 1.350 . S
C912 C909 1.463 . S
C912 N916 1.427 . S
C913 H903 0.929 . S
C913 C911 1.433 . S
C913 N916 1.384 . S
C914 H905 0.929 . S
C914 C906 1.378 . S
C914 C909 1.350 . S
C915 H902 0.929 . S
C915 C907 1.433 . S
C915 N917 1.384 . S
N916 C912 1.427 . S
N916 C913 1.384 . S
N917 C909 1.427 . S
N917 C915 1.384 . S
H918 C924 0.930 . S
H919 C928 0.930 . S
H920 C933 0.929 . S
H921 C931 0.929 . S
H922 C926 0.929 . S
H923 C932 0.929 . S
C924 H918 0.930 . S
C924 C925 1.367 . S
C924 C932 1.378 . S
C925 C924 1.367 . S
C925 C933 1.433 . S
C926 H922 0.929 . S
C926 C928 1.378 . S
C926 C930 1.350 . S
C927 C930 1.463 . S
C927 C932 1.350 . S
C927 N935 1.427 . S
C928 H919 0.930 . S
C928 C926 1.378 . S
C928 C929 1.367 . S
C929 C928 1.367 . S
C929 C931 1.433 . S
C930 C926 1.350 . S
C930 C927 1.463 . S
C930 N934 1.427 . S
C931 H921 0.929 . S
C931 C929 1.433 . S
C931 N934 1.384 . S
C932 H923 0.929 . S
C932 C924 1.378 . S
C932 C927 1.350 . S
C933 H920 0.929 . S
C933 C925 1.433 . S
C933 N935 1.384 . S
N934 C930 1.427 . S
N934 C931 1.384 . S
N935 C927 1.427 . S
N935 C933 1.384 . S
H936 C942 0.930 . S
H937 C946 0.930 . S
H938 C951 0.929 . S
H939 C949 0.929 . S
H940 C944 0.929 . S
H941 C950 0.929 . S
C942 H936 0.930 . S
C942 C943 1.367 . S
C942 C950 1.378 . S
C943 C942 1.367 . S
C943 C951 1.433 . S
C944 H940 0.929 . S
C944 C946 1.378 . S
C944 C948 1.350 . S
C945 C948 1.463 . S
C945 C950 1.350 . S
C945 N953 1.427 . S
C946 H937 0.930 . S
C946 C944 1.378 . S
C946 C947 1.367 . S
C947 C946 1.367 . S
C947 C949 1.433 . S
C948 C944 1.350 . S
C948 C945 1.463 . S
C948 N952 1.427 . S
C949 H939 0.929 . S
C949 C947 1.433 . S
C949 N952 1.384 . S
C950 H941 0.929 . S
C950 C942 1.378 . S
C950 C945 1.350 . S
C951 H938 0.929 . S
C951 C943 1.433 . S
C951 N953 1.384 . S
N952 C948 1.427 . S
N952 C949 1.384 . S
N953 C945 1.427 . S
N953 C951 1.384 . S
H954 C960 0.930 . S
H955 C964 0.930 . S
H956 C969 0.929 . S
H957 C967 0.929 . S
H958 C962 0.929 . S
H959 C968 0.929 . S
C960 H954 0.930 . S
C960 C961 1.367 . S
C960 C968 1.378 . S
C961 C960 1.367 . S
C961 C969 1.433 . S
C962 H958 0.929 . S
C962 C964 1.378 . S
C962 C966 1.350 . S
C963 C966 1.463 . S
C963 C968 1.350 . S
C963 N971 1.427 . S
C964 H955 0.930 . S
C964 C962 1.378 . S
C964 C965 1.367 . S
C965 C964 1.367 . S
C965 C967 1.433 . S
C966 C962 1.350 . S
C966 C963 1.463 . S
C966 N970 1.427 . S
C967 H957 0.929 . S
C967 C965 1.433 . S
C967 N970 1.384 . S
C968 H959 0.929 . S
C968 C960 1.378 . S
C968 C963 1.350 . S
C969 H956 0.929 . S
C969 C961 1.433 . S
C969 N971 1.384 . S
N970 C966 1.427 . S
N970 C967 1.384 . S
N971 C963 1.427 . S
N971 C969 1.384 . S
H972 C978 0.930 . S
H973 C982 0.930 . S
H974 C987 0.929 . S
H975 C985 0.929 . S
H976 C980 0.929 . S
H977 C986 0.929 . S
C978 H972 0.930 . S
C978 C979 1.367 . S
C978 C986 1.378 1_545 S
C979 C978 1.367 . S
C979 C987 1.433 . S
C980 H976 0.929 . S
C980 C982 1.378 . S
C980 C984 1.350 . S
C981 C984 1.463 . S
C981 C986 1.350 . S
C981 N989 1.427 . S
C982 H973 0.930 . S
C982 C980 1.378 . S
C982 C983 1.367 . S
C983 C982 1.367 . S
C983 C985 1.433 . S
C984 C980 1.350 . S
C984 C981 1.463 . S
C984 N988 1.427 . S
C985 H975 0.929 . S
C985 C983 1.433 . S
C985 N988 1.384 . S
C986 H977 0.929 . S
C986 C978 1.378 1_565 S
C986 C981 1.350 . S
C987 H974 0.929 . S
C987 C979 1.433 . S
C987 N989 1.384 1_545 S
N988 C984 1.427 . S
N988 C985 1.384 . S
N989 C981 1.427 . S
N989 C987 1.384 1_565 S
H990 C996 0.930 . S
H991 C1000 0.930 . S
H992 C1005 0.929 . S
H993 C1003 0.929 . S
H994 C998 0.929 . S
H995 C1004 0.929 . S
C996 H990 0.930 . S
C996 C997 1.367 . S
C996 C1004 1.378 1_655 S
C997 C996 1.367 . S
C997 C1005 1.433 1_655 S
C998 H994 0.929 . S
C998 C1000 1.378 . S
C998 C1002 1.350 . S
C999 C1002 1.463 . S
C999 C1004 1.350 . S
C999 N1007 1.427 . S
C1000 H991 0.930 . S
C1000 C998 1.378 . S
C1000 C1001 1.367 . S
C1001 C1000 1.367 . S
C1001 C1003 1.433 . S
C1002 C998 1.350 . S
C1002 C999 1.463 . S
C1002 N1006 1.427 . S
C1003 H993 0.929 . S
C1003 C1001 1.433 . S
C1003 N1006 1.384 . S
C1004 H995 0.929 . S
C1004 C996 1.378 1_455 S
C1004 C999 1.350 . S
C1005 H992 0.929 . S
C1005 C997 1.433 1_455 S
C1005 N1007 1.384 . S
N1006 C1002 1.427 . S
N1006 C1003 1.384 . S
N1007 C999 1.427 . S
N1007 C1005 1.384 . S
H1008 C1014 0.930 . S
H1009 C1018 0.930 . S
H1010 C1023 0.929 . S
H1011 C1021 0.929 . S
H1012 C1016 0.929 . S
H1013 C1022 0.929 . S
C1014 H1008 0.930 . S
C1014 C1015 1.367 . S
C1014 C1022 1.378 . S
C1015 C1014 1.367 . S
C1015 C1023 1.433 . S
C1016 H1012 0.929 . S
C1016 C1018 1.378 . S
C1016 C1020 1.350 . S
C1017 C1020 1.463 . S
C1017 C1022 1.350 . S
C1017 N1025 1.427 . S
C1018 H1009 0.930 . S
C1018 C1016 1.378 . S
C1018 C1019 1.367 . S
C1019 C1018 1.367 . S
C1019 C1021 1.433 . S
C1020 C1016 1.350 . S
C1020 C1017 1.463 . S
C1020 N1024 1.427 . S
C1021 H1011 0.929 . S
C1021 C1019 1.433 . S
C1021 N1024 1.384 . S
C1022 H1013 0.929 . S
C1022 C1014 1.378 . S
C1022 C1017 1.350 . S
C1023 H1010 0.929 . S
C1023 C1015 1.433 . S
C1023 N1025 1.384 . S
N1024 C1020 1.427 . S
N1024 C1021 1.384 . S
N1025 C1017 1.427 . S
N1025 C1023 1.384 . S
H1026 C1032 0.930 . S
H1027 C1036 0.930 . S
H1028 C1041 0.929 . S
H1029 C1039 0.929 . S
H1030 C1034 0.929 . S
H1031 C1040 0.929 . S
C1032 H1026 0.930 . S
C1032 C1033 1.367 . S
C1032 C1040 1.378 . S
C1033 C1032 1.367 . S
C1033 C1041 1.433 . S
C1034 H1030 0.929 . S
C1034 C1036 1.378 . S
C1034 C1038 1.350 . S
C1035 C1038 1.463 . S
C1035 C1040 1.350 . S
C1035 N1043 1.427 . S
C1036 H1027 0.930 . S
C1036 C1034 1.378 . S
C1036 C1037 1.367 . S
C1037 C1036 1.367 . S
C1037 C1039 1.433 . S
C1038 C1034 1.350 . S
C1038 C1035 1.463 . S
C1038 N1042 1.427 . S
C1039 H1029 0.929 . S
C1039 C1037 1.433 . S
C1039 N1042 1.384 . S
C1040 H1031 0.929 . S
C1040 C1032 1.378 . S
C1040 C1035 1.350 . S
C1041 H1028 0.929 . S
C1041 C1033 1.433 . S
C1041 N1043 1.384 . S
N1042 C1038 1.427 . S
N1042 C1039 1.384 . S
N1043 C1035 1.427 . S
N1043 C1041 1.384 . S
H1044 C1050 0.930 . S
H1045 C1054 0.930 . S
H1046 C1059 0.929 . S
H1047 C1057 0.929 . S
H1048 C1052 0.929 . S
H1049 C1058 0.929 . S
C1050 H1044 0.930 . S
C1050 C1051 1.367 . S
C1050 C1058 1.378 . S
C1051 C1050 1.367 . S
C1051 C1059 1.433 . S
C1052 H1048 0.929 . S
C1052 C1054 1.378 . S
C1052 C1056 1.350 . S
C1053 C1056 1.463 . S
C1053 C1058 1.350 . S
C1053 N1061 1.427 . S
C1054 H1045 0.930 . S
C1054 C1052 1.378 . S
C1054 C1055 1.367 . S
C1055 C1054 1.367 . S
C1055 C1057 1.433 . S
C1056 C1052 1.350 . S
C1056 C1053 1.463 . S
C1056 N1060 1.427 . S
C1057 H1047 0.929 . S
C1057 C1055 1.433 . S
C1057 N1060 1.384 . S
C1058 H1049 0.929 . S
C1058 C1050 1.378 . S
C1058 C1053 1.350 . S
C1059 H1046 0.929 . S
C1059 C1051 1.433 . S
C1059 N1061 1.384 . S
N1060 C1056 1.427 . S
N1060 C1057 1.384 . S
N1061 C1053 1.427 . S
N1061 C1059 1.384 . S
H1062 C1068 0.930 . S
H1063 C1072 0.930 . S
H1064 C1077 0.929 . S
H1065 C1075 0.929 . S
H1066 C1070 0.929 . S
H1067 C1076 0.929 . S
C1068 H1062 0.930 . S
C1068 C1069 1.367 . S
C1068 C1076 1.378 . S
C1069 C1068 1.367 . S
C1069 C1077 1.433 . S
C1070 H1066 0.929 . S
C1070 C1072 1.378 . S
C1070 C1074 1.350 . S
C1071 C1074 1.463 . S
C1071 C1076 1.350 . S
C1071 N1079 1.427 . S
C1072 H1063 0.930 . S
C1072 C1070 1.378 . S
C1072 C1073 1.367 . S
C1073 C1072 1.367 . S
C1073 C1075 1.433 . S
C1074 C1070 1.350 . S
C1074 C1071 1.463 . S
C1074 N1078 1.427 . S
C1075 H1065 0.929 . S
C1075 C1073 1.433 . S
C1075 N1078 1.384 . S
C1076 H1067 0.929 . S
C1076 C1068 1.378 . S
C1076 C1071 1.350 . S
C1077 H1064 0.929 . S
C1077 C1069 1.433 . S
C1077 N1079 1.384 . S
N1078 C1074 1.427 . S
N1078 C1075 1.384 . S
N1079 C1071 1.427 . S
N1079 C1077 1.384 . S
H1080 C1086 0.930 . S
H1081 C1090 0.930 . S
H1082 C1095 0.929 . S
H1083 C1093 0.929 . S
H1084 C1088 0.929 . S
H1085 C1094 0.929 . S
C1086 H1080 0.930 . S
C1086 C1087 1.367 . S
C1086 C1094 1.378 . S
C1087 C1086 1.367 . S
C1087 C1095 1.433 . S
C1088 H1084 0.929 . S
C1088 C1090 1.378 . S
C1088 C1092 1.350 . S
C1089 C1092 1.463 1_565 S
C1089 C1094 1.350 . S
C1089 N1097 1.427 . S
C1090 H1081 0.930 . S
C1090 C1088 1.378 . S
C1090 C1091 1.367 . S
C1091 C1090 1.367 . S
C1091 C1093 1.433 . S
C1092 C1088 1.350 . S
C1092 C1089 1.463 1_545 S
C1092 N1096 1.427 . S
C1093 H1083 0.929 . S
C1093 C1091 1.433 . S
C1093 N1096 1.384 . S
C1094 H1085 0.929 . S
C1094 C1086 1.378 . S
C1094 C1089 1.350 . S
C1095 H1082 0.929 . S
C1095 C1087 1.433 . S
C1095 N1097 1.384 . S
N1096 C1092 1.427 . S
N1096 C1093 1.384 . S
N1097 C1089 1.427 . S
N1097 C1095 1.384 . S
H1098 C1104 0.930 . S
H1099 C1108 0.930 . S
H1100 C1113 0.929 . S
H1101 C1111 0.929 . S
H1102 C1106 0.929 1_455 S
H1103 C1112 0.929 1_655 S
C1104 H1098 0.930 . S
C1104 C1105 1.367 . S
C1104 C1112 1.378 . S
C1105 C1104 1.367 . S
C1105 C1113 1.433 . S
C1106 H1102 0.929 1_655 S
C1106 C1108 1.378 . S
C1106 C1110 1.350 . S
C1107 C1110 1.463 1_455 S
C1107 C1112 1.350 . S
C1107 N1115 1.427 . S
C1108 H1099 0.930 . S
C1108 C1106 1.378 . S
C1108 C1109 1.367 . S
C1109 C1108 1.367 . S
C1109 C1111 1.433 . S
C1110 C1106 1.350 . S
C1110 C1107 1.463 1_655 S
C1110 N1114 1.427 . S
C1111 H1101 0.929 . S
C1111 C1109 1.433 . S
C1111 N1114 1.384 . S
C1112 H1103 0.929 1_455 S
C1112 C1104 1.378 . S
C1112 C1107 1.350 . S
C1113 H1100 0.929 . S
C1113 C1105 1.433 . S
C1113 N1115 1.384 . S
N1114 C1110 1.427 . S
N1114 C1111 1.384 . S
N1115 C1107 1.427 . S
N1115 C1113 1.384 . S
H1116 C1122 0.930 . S
H1117 C1126 0.930 . S
H1118 C1131 0.929 . S
H1119 C1129 0.929 . S
H1120 C1124 0.929 . S
H1121 C1130 0.929 . S
C1122 H1116 0.930 . S
C1122 C1123 1.367 . S
C1122 C1130 1.378 . S
C1123 C1122 1.367 . S
C1123 C1131 1.433 . S
C1124 H1120 0.929 . S
C1124 C1126 1.378 . S
C1124 C1128 1.350 . S
C1125 C1128 1.463 . S
C1125 C1130 1.350 . S
C1125 N1133 1.427 . S
C1126 H1117 0.930 . S
C1126 C1124 1.378 . S
C1126 C1127 1.367 . S
C1127 C1126 1.367 . S
C1127 C1129 1.433 . S
C1128 C1124 1.350 . S
C1128 C1125 1.463 . S
C1128 N1132 1.427 . S
C1129 H1119 0.929 . S
C1129 C1127 1.433 . S
C1129 N1132 1.384 . S
C1130 H1121 0.929 . S
C1130 C1122 1.378 . S
C1130 C1125 1.350 . S
C1131 H1118 0.929 . S
C1131 C1123 1.433 . S
C1131 N1133 1.384 . S
N1132 C1128 1.427 . S
N1132 C1129 1.384 . S
N1133 C1125 1.427 . S
N1133 C1131 1.384 . S
H1134 C1140 0.930 . S
H1135 C1144 0.930 . S
H1136 C1149 0.929 . S
H1137 C1147 0.929 . S
H1138 C1142 0.929 . S
H1139 C1148 0.929 . S
C1140 H1134 0.930 . S
C1140 C1141 1.367 . S
C1140 C1148 1.378 1_455 S
C1141 C1140 1.367 . S
C1141 C1149 1.433 . S
C1142 H1138 0.929 . S
C1142 C1144 1.378 . S
C1142 C1146 1.350 . S
C1143 C1146 1.463 . S
C1143 C1148 1.350 . S
C1143 N1151 1.427 . S
C1144 H1135 0.930 . S
C1144 C1142 1.378 . S
C1144 C1145 1.367 . S
C1145 C1144 1.367 . S
C1145 C1147 1.433 . S
C1146 C1142 1.350 . S
C1146 C1143 1.463 . S
C1146 N1150 1.427 . S
C1147 H1137 0.929 . S
C1147 C1145 1.433 . S
C1147 N1150 1.384 . S
C1148 H1139 0.929 . S
C1148 C1140 1.378 1_655 S
C1148 C1143 1.350 . S
C1149 H1136 0.929 . S
C1149 C1141 1.433 . S
C1149 N1151 1.384 1_455 S
N1150 C1146 1.427 . S
N1150 C1147 1.384 . S
N1151 C1143 1.427 . S
N1151 C1149 1.384 1_655 S
H1152 C1158 0.930 . S
H1153 C1162 0.930 . S
H1154 C1167 0.929 . S
H1155 C1165 0.929 . S
H1156 C1160 0.929 . S
H1157 C1166 0.929 . S
C1158 H1152 0.930 . S
C1158 C1159 1.367 . S
C1158 C1166 1.378 . S
C1159 C1158 1.367 . S
C1159 C1167 1.433 . S
C1160 H1156 0.929 . S
C1160 C1162 1.378 . S
C1160 C1164 1.350 . S
C1161 C1164 1.463 . S
C1161 C1166 1.350 . S
C1161 N1169 1.427 . S
C1162 H1153 0.930 . S
C1162 C1160 1.378 . S
C1162 C1163 1.367 . S
C1163 C1162 1.367 . S
C1163 C1165 1.433 . S
C1164 C1160 1.350 . S
C1164 C1161 1.463 . S
C1164 N1168 1.427 . S
C1165 H1155 0.929 . S
C1165 C1163 1.433 . S
C1165 N1168 1.384 . S
C1166 H1157 0.929 . S
C1166 C1158 1.378 . S
C1166 C1161 1.350 . S
C1167 H1154 0.929 . S
C1167 C1159 1.433 . S
C1167 N1169 1.384 . S
N1168 C1164 1.427 . S
N1168 C1165 1.384 . S
N1169 C1161 1.427 . S
N1169 C1167 1.384 . S
H1170 C1176 0.930 . S
H1171 C1180 0.930 . S
H1172 C1185 0.929 . S
H1173 C1183 0.929 . S
H1174 C1178 0.929 . S
H1175 C1184 0.929 . S
C1176 H1170 0.930 . S
C1176 C1177 1.367 . S
C1176 C1184 1.378 1_565 S
C1177 C1176 1.367 . S
C1177 C1185 1.433 . S
C1178 H1174 0.929 . S
C1178 C1180 1.378 . S
C1178 C1182 1.350 . S
C1179 C1182 1.463 . S
C1179 C1184 1.350 . S
C1179 N1187 1.427 . S
C1180 H1171 0.930 . S
C1180 C1178 1.378 . S
C1180 C1181 1.367 . S
C1181 C1180 1.367 . S
C1181 C1183 1.433 . S
C1182 C1178 1.350 . S
C1182 C1179 1.463 . S
C1182 N1186 1.427 . S
C1183 H1173 0.929 . S
C1183 C1181 1.433 . S
C1183 N1186 1.384 . S
C1184 H1175 0.929 . S
C1184 C1176 1.378 1_545 S
C1184 C1179 1.350 . S
C1185 H1172 0.929 . S
C1185 C1177 1.433 . S
C1185 N1187 1.384 1_565 S
N1186 C1182 1.427 . S
N1186 C1183 1.384 . S
N1187 C1179 1.427 . S
N1187 C1185 1.384 1_545 S
H1188 C1194 0.930 . S
H1189 C1198 0.930 . S
H1190 C1203 0.929 . S
H1191 C1201 0.929 . S
H1192 C1196 0.929 . S
H1193 C1202 0.929 . S
C1194 H1188 0.930 . S
C1194 C1195 1.367 . S
C1194 C1202 1.378 . S
C1195 C1194 1.367 . S
C1195 C1203 1.433 . S
C1196 H1192 0.929 . S
C1196 C1198 1.378 . S
C1196 C1200 1.350 . S
C1197 C1200 1.463 . S
C1197 C1202 1.350 . S
C1197 N1205 1.427 . S
C1198 H1189 0.930 . S
C1198 C1196 1.378 . S
C1198 C1199 1.367 . S
C1199 C1198 1.367 . S
C1199 C1201 1.433 . S
C1200 C1196 1.350 . S
C1200 C1197 1.463 . S
C1200 N1204 1.427 . S
C1201 H1191 0.929 . S
C1201 C1199 1.433 . S
C1201 N1204 1.384 . S
C1202 H1193 0.929 . S
C1202 C1194 1.378 . S
C1202 C1197 1.350 . S
C1203 H1190 0.929 . S
C1203 C1195 1.433 . S
C1203 N1205 1.384 . S
N1204 C1200 1.427 . S
N1204 C1201 1.384 . S
N1205 C1197 1.427 . S
N1205 C1203 1.384 . S
H1206 C1212 0.930 . S
H1207 C1216 0.930 . S
H1208 C1221 0.929 . S
H1209 C1219 0.929 . S
H1210 C1214 0.929 . S
H1211 C1220 0.929 . S
C1212 H1206 0.930 . S
C1212 C1213 1.367 . S
C1212 C1220 1.378 . S
C1213 C1212 1.367 . S
C1213 C1221 1.433 . S
C1214 H1210 0.929 . S
C1214 C1216 1.378 . S
C1214 C1218 1.350 . S
C1215 C1218 1.463 . S
C1215 C1220 1.350 . S
C1215 N1223 1.427 . S
C1216 H1207 0.930 . S
C1216 C1214 1.378 . S
C1216 C1217 1.367 . S
C1217 C1216 1.367 . S
C1217 C1219 1.433 . S
C1218 C1214 1.350 . S
C1218 C1215 1.463 . S
C1218 N1222 1.427 . S
C1219 H1209 0.929 . S
C1219 C1217 1.433 . S
C1219 N1222 1.384 . S
C1220 H1211 0.929 . S
C1220 C1212 1.378 . S
C1220 C1215 1.350 . S
C1221 H1208 0.929 . S
C1221 C1213 1.433 . S
C1221 N1223 1.384 . S
N1222 C1218 1.427 . S
N1222 C1219 1.384 . S
N1223 C1215 1.427 . S
N1223 C1221 1.384 . S
H1224 C1230 0.930 . S
H1225 C1234 0.930 . S
H1226 C1239 0.929 . S
H1227 C1237 0.929 . S
H1228 C1232 0.929 . S
H1229 C1238 0.929 . S
C1230 H1224 0.930 . S
C1230 C1231 1.367 . S
C1230 C1238 1.378 . S
C1231 C1230 1.367 . S
C1231 C1239 1.433 . S
C1232 H1228 0.929 . S
C1232 C1234 1.378 . S
C1232 C1236 1.350 . S
C1233 C1236 1.463 . S
C1233 C1238 1.350 . S
C1233 N1241 1.427 . S
C1234 H1225 0.930 . S
C1234 C1232 1.378 . S
C1234 C1235 1.367 . S
C1235 C1234 1.367 . S
C1235 C1237 1.433 . S
C1236 C1232 1.350 . S
C1236 C1233 1.463 . S
C1236 N1240 1.427 . S
C1237 H1227 0.929 . S
C1237 C1235 1.433 . S
C1237 N1240 1.384 . S
C1238 H1229 0.929 . S
C1238 C1230 1.378 . S
C1238 C1233 1.350 . S
C1239 H1226 0.929 . S
C1239 C1231 1.433 . S
C1239 N1241 1.384 . S
N1240 C1236 1.427 . S
N1240 C1237 1.384 . S
N1241 C1233 1.427 . S
N1241 C1239 1.384 . S
H1242 C1248 0.930 . S
H1243 C1252 0.930 . S
H1244 C1257 0.929 . S
H1245 C1255 0.929 . S
H1246 C1250 0.929 . S
H1247 C1256 0.929 . S
C1248 H1242 0.930 . S
C1248 C1249 1.367 . S
C1248 C1256 1.378 . S
C1249 C1248 1.367 . S
C1249 C1257 1.433 . S
C1250 H1246 0.929 . S
C1250 C1252 1.378 . S
C1250 C1254 1.350 . S
C1251 C1254 1.463 . S
C1251 C1256 1.350 . S
C1251 N1259 1.427 . S
C1252 H1243 0.930 . S
C1252 C1250 1.378 . S
C1252 C1253 1.367 . S
C1253 C1252 1.367 . S
C1253 C1255 1.433 . S
C1254 C1250 1.350 . S
C1254 C1251 1.463 . S
C1254 N1258 1.427 . S
C1255 H1245 0.929 . S
C1255 C1253 1.433 . S
C1255 N1258 1.384 . S
C1256 H1247 0.929 . S
C1256 C1248 1.378 . S
C1256 C1251 1.350 . S
C1257 H1244 0.929 . S
C1257 C1249 1.433 . S
C1257 N1259 1.384 . S
N1258 C1254 1.427 . S
N1258 C1255 1.384 . S
N1259 C1251 1.427 . S
N1259 C1257 1.384 . S
H1260 C1266 0.930 . S
H1261 C1270 0.930 . S
H1262 C1275 0.929 . S
H1263 C1273 0.929 . S
H1264 C1268 0.929 . S
H1265 C1274 0.929 . S
C1266 H1260 0.930 . S
C1266 C1267 1.367 . S
C1266 C1274 1.378 . S
C1267 C1266 1.367 . S
C1267 C1275 1.433 . S
C1268 H1264 0.929 . S
C1268 C1270 1.378 . S
C1268 C1272 1.350 . S
C1269 C1272 1.463 . S
C1269 C1274 1.350 . S
C1269 N1277 1.427 . S
C1270 H1261 0.930 . S
C1270 C1268 1.378 . S
C1270 C1271 1.367 . S
C1271 C1270 1.367 . S
C1271 C1273 1.433 . S
C1272 C1268 1.350 . S
C1272 C1269 1.463 . S
C1272 N1276 1.427 . S
C1273 H1263 0.929 . S
C1273 C1271 1.433 . S
C1273 N1276 1.384 . S
C1274 H1265 0.929 . S
C1274 C1266 1.378 . S
C1274 C1269 1.350 . S
C1275 H1262 0.929 . S
C1275 C1267 1.433 . S
C1275 N1277 1.384 . S
N1276 C1272 1.427 . S
N1276 C1273 1.384 . S
N1277 C1269 1.427 . S
N1277 C1275 1.384 . S
H1278 C1284 0.930 . S
H1279 C1288 0.930 . S
H1280 C1293 0.929 . S
H1281 C1291 0.929 . S
H1282 C1286 0.929 . S
H1283 C1292 0.929 . S
C1284 H1278 0.930 . S
C1284 C1285 1.367 . S
C1284 C1292 1.378 . S
C1285 C1284 1.367 . S
C1285 C1293 1.433 . S
C1286 H1282 0.929 . S
C1286 C1288 1.378 . S
C1286 C1290 1.350 . S
C1287 C1290 1.463 . S
C1287 C1292 1.350 . S
C1287 N1295 1.427 . S
C1288 H1279 0.930 . S
C1288 C1286 1.378 . S
C1288 C1289 1.367 . S
C1289 C1288 1.367 . S
C1289 C1291 1.433 . S
C1290 C1286 1.350 . S
C1290 C1287 1.463 . S
C1290 N1294 1.427 . S
C1291 H1281 0.929 . S
C1291 C1289 1.433 . S
C1291 N1294 1.384 . S
C1292 H1283 0.929 . S
C1292 C1284 1.378 . S
C1292 C1287 1.350 . S
C1293 H1280 0.929 . S
C1293 C1285 1.433 . S
C1293 N1295 1.384 . S
N1294 C1290 1.427 . S
N1294 C1291 1.384 . S
N1295 C1287 1.427 . S
N1295 C1293 1.384 . S
H1296 C1302 0.930 . S
H1297 C1306 0.930 . S
H1298 C1311 0.929 . S
H1299 C1309 0.929 . S
H1300 C1304 0.929 . S
H1301 C1310 0.929 . S
C1302 H1296 0.930 . S
C1302 C1303 1.367 . S
C1302 C1310 1.378 . S
C1303 C1302 1.367 . S
C1303 C1311 1.433 . S
C1304 H1300 0.929 . S
C1304 C1306 1.378 . S
C1304 C1308 1.350 . S
C1305 C1308 1.463 . S
C1305 C1310 1.350 . S
C1305 N1313 1.427 . S
C1306 H1297 0.930 . S
C1306 C1304 1.378 . S
C1306 C1307 1.367 . S
C1307 C1306 1.367 . S
C1307 C1309 1.433 . S
C1308 C1304 1.350 . S
C1308 C1305 1.463 . S
C1308 N1312 1.427 . S
C1309 H1299 0.929 . S
C1309 C1307 1.433 . S
C1309 N1312 1.384 . S
C1310 H1301 0.929 . S
C1310 C1302 1.378 . S
C1310 C1305 1.350 . S
C1311 H1298 0.929 . S
C1311 C1303 1.433 . S
C1311 N1313 1.384 . S
N1312 C1308 1.427 . S
N1312 C1309 1.384 . S
N1313 C1305 1.427 . S
N1313 C1311 1.384 . S
H1314 C1320 0.930 . S
H1315 C1324 0.930 . S
H1316 C1329 0.929 . S
H1317 C1327 0.929 . S
H1318 C1322 0.929 . S
H1319 C1328 0.929 . S
C1320 H1314 0.930 . S
C1320 C1321 1.367 . S
C1320 C1328 1.378 . S
C1321 C1320 1.367 . S
C1321 C1329 1.433 . S
C1322 H1318 0.929 . S
C1322 C1324 1.378 . S
C1322 C1326 1.350 . S
C1323 C1326 1.463 . S
C1323 C1328 1.350 . S
C1323 N1331 1.427 . S
C1324 H1315 0.930 . S
C1324 C1322 1.378 . S
C1324 C1325 1.367 . S
C1325 C1324 1.367 . S
C1325 C1327 1.433 . S
C1326 C1322 1.350 . S
C1326 C1323 1.463 . S
C1326 N1330 1.427 . S
C1327 H1317 0.929 . S
C1327 C1325 1.433 . S
C1327 N1330 1.384 . S
C1328 H1319 0.929 . S
C1328 C1320 1.378 . S
C1328 C1323 1.350 . S
C1329 H1316 0.929 . S
C1329 C1321 1.433 . S
C1329 N1331 1.384 . S
N1330 C1326 1.427 . S
N1330 C1327 1.384 . S
N1331 C1323 1.427 . S
N1331 C1329 1.384 . S
H1332 C1338 0.930 . S
H1333 C1342 0.930 . S
H1334 C1347 0.929 . S
H1335 C1345 0.929 . S
H1336 C1340 0.929 . S
H1337 C1346 0.929 . S
C1338 H1332 0.930 . S
C1338 C1339 1.367 . S
C1338 C1346 1.378 . S
C1339 C1338 1.367 . S
C1339 C1347 1.433 . S
C1340 H1336 0.929 . S
C1340 C1342 1.378 . S
C1340 C1344 1.350 . S
C1341 C1344 1.463 . S
C1341 C1346 1.350 . S
C1341 N1349 1.427 . S
C1342 H1333 0.930 . S
C1342 C1340 1.378 . S
C1342 C1343 1.367 . S
C1343 C1342 1.367 . S
C1343 C1345 1.433 . S
C1344 C1340 1.350 . S
C1344 C1341 1.463 . S
C1344 N1348 1.427 . S
C1345 H1335 0.929 . S
C1345 C1343 1.433 . S
C1345 N1348 1.384 . S
C1346 H1337 0.929 . S
C1346 C1338 1.378 . S
C1346 C1341 1.350 . S
C1347 H1334 0.929 . S
C1347 C1339 1.433 . S
C1347 N1349 1.384 . S
N1348 C1344 1.427 . S
N1348 C1345 1.384 . S
N1349 C1341 1.427 . S
N1349 C1347 1.384 . S
H1350 C1356 0.930 . S
H1351 C1360 0.930 . S
H1352 C1365 0.929 . S
H1353 C1363 0.929 . S
H1354 C1358 0.929 . S
H1355 C1364 0.929 . S
C1356 H1350 0.930 . S
C1356 C1357 1.367 . S
C1356 C1364 1.378 . S
C1357 C1356 1.367 . S
C1357 C1365 1.433 . S
C1358 H1354 0.929 . S
C1358 C1360 1.378 . S
C1358 C1362 1.350 . S
C1359 C1362 1.463 . S
C1359 C1364 1.350 . S
C1359 N1367 1.427 . S
C1360 H1351 0.930 . S
C1360 C1358 1.378 . S
C1360 C1361 1.367 . S
C1361 C1360 1.367 . S
C1361 C1363 1.433 . S
C1362 C1358 1.350 . S
C1362 C1359 1.463 . S
C1362 N1366 1.427 . S
C1363 H1353 0.929 . S
C1363 C1361 1.433 . S
C1363 N1366 1.384 . S
C1364 H1355 0.929 . S
C1364 C1356 1.378 . S
C1364 C1359 1.350 . S
C1365 H1352 0.929 . S
C1365 C1357 1.433 . S
C1365 N1367 1.384 . S
N1366 C1362 1.427 . S
N1366 C1363 1.384 . S
N1367 C1359 1.427 . S
N1367 C1365 1.384 . S
H1368 C1374 0.930 . S
H1369 C1378 0.930 . S
H1370 C1383 0.929 . S
H1371 C1381 0.929 . S
H1372 C1376 0.929 . S
H1373 C1382 0.929 . S
C1374 H1368 0.930 . S
C1374 C1375 1.367 . S
C1374 C1382 1.378 . S
C1375 C1374 1.367 . S
C1375 C1383 1.433 . S
C1376 H1372 0.929 . S
C1376 C1378 1.378 . S
C1376 C1380 1.350 . S
C1377 C1380 1.463 . S
C1377 C1382 1.350 . S
C1377 N1385 1.427 . S
C1378 H1369 0.930 . S
C1378 C1376 1.378 . S
C1378 C1379 1.367 . S
C1379 C1378 1.367 . S
C1379 C1381 1.433 . S
C1380 C1376 1.350 . S
C1380 C1377 1.463 . S
C1380 N1384 1.427 . S
C1381 H1371 0.929 . S
C1381 C1379 1.433 . S
C1381 N1384 1.384 . S
C1382 H1373 0.929 . S
C1382 C1374 1.378 . S
C1382 C1377 1.350 . S
C1383 H1370 0.929 . S
C1383 C1375 1.433 . S
C1383 N1385 1.384 . S
N1384 C1380 1.427 . S
N1384 C1381 1.384 . S
N1385 C1377 1.427 . S
N1385 C1383 1.384 . S
H1386 C1392 0.930 . S
H1387 C1396 0.930 . S
H1388 C1401 0.929 . S
H1389 C1399 0.929 . S
H1390 C1394 0.929 . S
H1391 C1400 0.929 . S
C1392 H1386 0.930 . S
C1392 C1393 1.367 . S
C1392 C1400 1.378 . S
C1393 C1392 1.367 . S
C1393 C1401 1.433 . S
C1394 H1390 0.929 . S
C1394 C1396 1.378 . S
C1394 C1398 1.350 . S
C1395 C1398 1.463 . S
C1395 C1400 1.350 . S
C1395 N1403 1.427 . S
C1396 H1387 0.930 . S
C1396 C1394 1.378 . S
C1396 C1397 1.367 . S
C1397 C1396 1.367 . S
C1397 C1399 1.433 . S
C1398 C1394 1.350 . S
C1398 C1395 1.463 . S
C1398 N1402 1.427 . S
C1399 H1389 0.929 . S
C1399 C1397 1.433 . S
C1399 N1402 1.384 . S
C1400 H1391 0.929 . S
C1400 C1392 1.378 . S
C1400 C1395 1.350 . S
C1401 H1388 0.929 . S
C1401 C1393 1.433 . S
C1401 N1403 1.384 . S
N1402 C1398 1.427 . S
N1402 C1399 1.384 . S
N1403 C1395 1.427 . S
N1403 C1401 1.384 . S
H1404 C1410 0.930 . S
H1405 C1414 0.930 . S
H1406 C1419 0.929 . S
H1407 C1417 0.929 . S
H1408 C1412 0.929 . S
H1409 C1418 0.929 . S
C1410 H1404 0.930 . S
C1410 C1411 1.367 . S
C1410 C1418 1.378 . S
C1411 C1410 1.367 . S
C1411 C1419 1.433 . S
C1412 H1408 0.929 . S
C1412 C1414 1.378 . S
C1412 C1416 1.350 . S
C1413 C1416 1.463 . S
C1413 C1418 1.350 . S
C1413 N1421 1.427 . S
C1414 H1405 0.930 . S
C1414 C1412 1.378 . S
C1414 C1415 1.367 . S
C1415 C1414 1.367 . S
C1415 C1417 1.433 . S
C1416 C1412 1.350 . S
C1416 C1413 1.463 . S
C1416 N1420 1.427 . S
C1417 H1407 0.929 . S
C1417 C1415 1.433 . S
C1417 N1420 1.384 . S
C1418 H1409 0.929 . S
C1418 C1410 1.378 . S
C1418 C1413 1.350 . S
C1419 H1406 0.929 . S
C1419 C1411 1.433 . S
C1419 N1421 1.384 . S
N1420 C1416 1.427 . S
N1420 C1417 1.384 . S
N1421 C1413 1.427 . S
N1421 C1419 1.384 . S
H1422 C1428 0.930 . S
H1423 C1432 0.930 . S
H1424 C1437 0.929 . S
H1425 C1435 0.929 . S
H1426 C1430 0.929 . S
H1427 C1436 0.929 . S
C1428 H1422 0.930 . S
C1428 C1429 1.367 . S
C1428 C1436 1.378 . S
C1429 C1428 1.367 . S
C1429 C1437 1.433 . S
C1430 H1426 0.929 . S
C1430 C1432 1.378 . S
C1430 C1434 1.350 . S
C1431 C1434 1.463 . S
C1431 C1436 1.350 . S
C1431 N1439 1.427 . S
C1432 H1423 0.930 . S
C1432 C1430 1.378 . S
C1432 C1433 1.367 . S
C1433 C1432 1.367 . S
C1433 C1435 1.433 . S
C1434 C1430 1.350 . S
C1434 C1431 1.463 . S
C1434 N1438 1.427 . S
C1435 H1425 0.929 . S
C1435 C1433 1.433 . S
C1435 N1438 1.384 . S
C1436 H1427 0.929 . S
C1436 C1428 1.378 . S
C1436 C1431 1.350 . S
C1437 H1424 0.929 . S
C1437 C1429 1.433 . S
C1437 N1439 1.384 . S
N1438 C1434 1.427 . S
N1438 C1435 1.384 . S
N1439 C1431 1.427 . S
N1439 C1437 1.384 . S
H1440 C1446 0.930 . S
H1441 C1450 0.930 . S
H1442 C1455 0.929 . S
H1443 C1453 0.929 . S
H1444 C1448 0.929 . S
H1445 C1454 0.929 . S
C1446 H1440 0.930 . S
C1446 C1447 1.367 . S
C1446 C1454 1.378 . S
C1447 C1446 1.367 . S
C1447 C1455 1.433 . S
C1448 H1444 0.929 . S
C1448 C1450 1.378 . S
C1448 C1452 1.350 . S
C1449 C1452 1.463 . S
C1449 C1454 1.350 . S
C1449 N1457 1.427 . S
C1450 H1441 0.930 . S
C1450 C1448 1.378 . S
C1450 C1451 1.367 . S
C1451 C1450 1.367 . S
C1451 C1453 1.433 . S
C1452 C1448 1.350 . S
C1452 C1449 1.463 . S
C1452 N1456 1.427 . S
C1453 H1443 0.929 . S
C1453 C1451 1.433 . S
C1453 N1456 1.384 . S
C1454 H1445 0.929 . S
C1454 C1446 1.378 . S
C1454 C1449 1.350 . S
C1455 H1442 0.929 . S
C1455 C1447 1.433 . S
C1455 N1457 1.384 . S
N1456 C1452 1.427 . S
N1456 C1453 1.384 . S
N1457 C1449 1.427 . S
N1457 C1455 1.384 . S
H1458 C1464 0.930 . S
H1459 C1468 0.930 . S
H1460 C1473 0.929 . S
H1461 C1471 0.929 . S
H1462 C1466 0.929 . S
H1463 C1472 0.929 . S
C1464 H1458 0.930 . S
C1464 C1465 1.367 . S
C1464 C1472 1.378 . S
C1465 C1464 1.367 . S
C1465 C1473 1.433 . S
C1466 H1462 0.929 . S
C1466 C1468 1.378 . S
C1466 C1470 1.350 . S
C1467 C1470 1.463 . S
C1467 C1472 1.350 . S
C1467 N1475 1.427 . S
C1468 H1459 0.930 . S
C1468 C1466 1.378 . S
C1468 C1469 1.367 . S
C1469 C1468 1.367 . S
C1469 C1471 1.433 . S
C1470 C1466 1.350 . S
C1470 C1467 1.463 . S
C1470 N1474 1.427 . S
C1471 H1461 0.929 . S
C1471 C1469 1.433 . S
C1471 N1474 1.384 . S
C1472 H1463 0.929 . S
C1472 C1464 1.378 . S
C1472 C1467 1.350 . S
C1473 H1460 0.929 . S
C1473 C1465 1.433 . S
C1473 N1475 1.384 . S
N1474 C1470 1.427 . S
N1474 C1471 1.384 . S
N1475 C1467 1.427 . S
N1475 C1473 1.384 . S
H1476 C1482 0.930 . S
H1477 C1486 0.930 . S
H1478 C1491 0.929 . S
H1479 C1489 0.929 . S
H1480 C1484 0.929 . S
H1481 C1490 0.929 . S
C1482 H1476 0.930 . S
C1482 C1483 1.367 . S
C1482 C1490 1.378 . S
C1483 C1482 1.367 . S
C1483 C1491 1.433 . S
C1484 H1480 0.929 . S
C1484 C1486 1.378 . S
C1484 C1488 1.350 . S
C1485 C1488 1.463 . S
C1485 C1490 1.350 . S
C1485 N1493 1.427 . S
C1486 H1477 0.930 . S
C1486 C1484 1.378 . S
C1486 C1487 1.367 . S
C1487 C1486 1.367 . S
C1487 C1489 1.433 . S
C1488 C1484 1.350 . S
C1488 C1485 1.463 . S
C1488 N1492 1.427 . S
C1489 H1479 0.929 . S
C1489 C1487 1.433 . S
C1489 N1492 1.384 . S
C1490 H1481 0.929 . S
C1490 C1482 1.378 . S
C1490 C1485 1.350 . S
C1491 H1478 0.929 . S
C1491 C1483 1.433 . S
C1491 N1493 1.384 . S
N1492 C1488 1.427 . S
N1492 C1489 1.384 . S
N1493 C1485 1.427 . S
N1493 C1491 1.384 . S
H1494 C1500 0.930 . S
H1495 C1504 0.930 . S
H1496 C1509 0.929 . S
H1497 C1507 0.929 . S
H1498 C1502 0.929 . S
H1499 C1508 0.929 . S
C1500 H1494 0.930 . S
C1500 C1501 1.367 . S
C1500 C1508 1.378 . S
C1501 C1500 1.367 . S
C1501 C1509 1.433 . S
C1502 H1498 0.929 . S
C1502 C1504 1.378 . S
C1502 C1506 1.350 . S
C1503 C1506 1.463 . S
C1503 C1508 1.350 . S
C1503 N1511 1.427 . S
C1504 H1495 0.930 . S
C1504 C1502 1.378 . S
C1504 C1505 1.367 . S
C1505 C1504 1.367 . S
C1505 C1507 1.433 . S
C1506 C1502 1.350 . S
C1506 C1503 1.463 . S
C1506 N1510 1.427 . S
C1507 H1497 0.929 . S
C1507 C1505 1.433 . S
C1507 N1510 1.384 . S
C1508 H1499 0.929 . S
C1508 C1500 1.378 . S
C1508 C1503 1.350 . S
C1509 H1496 0.929 . S
C1509 C1501 1.433 . S
C1509 N1511 1.384 . S
N1510 C1506 1.427 . S
N1510 C1507 1.384 . S
N1511 C1503 1.427 . S
N1511 C1509 1.384 . S
H1512 C1518 0.930 . S
H1513 C1522 0.930 . S
H1514 C1527 0.929 . S
H1515 C1525 0.929 . S
H1516 C1520 0.929 . S
H1517 C1526 0.929 . S
C1518 H1512 0.930 . S
C1518 C1519 1.367 . S
C1518 C1526 1.378 . S
C1519 C1518 1.367 . S
C1519 C1527 1.433 . S
C1520 H1516 0.929 . S
C1520 C1522 1.378 . S
C1520 C1524 1.350 . S
C1521 C1524 1.463 . S
C1521 C1526 1.350 . S
C1521 N1529 1.427 . S
C1522 H1513 0.930 . S
C1522 C1520 1.378 . S
C1522 C1523 1.367 . S
C1523 C1522 1.367 . S
C1523 C1525 1.433 . S
C1524 C1520 1.350 . S
C1524 C1521 1.463 . S
C1524 N1528 1.427 . S
C1525 H1515 0.929 . S
C1525 C1523 1.433 . S
C1525 N1528 1.384 . S
C1526 H1517 0.929 . S
C1526 C1518 1.378 . S
C1526 C1521 1.350 . S
C1527 H1514 0.929 . S
C1527 C1519 1.433 . S
C1527 N1529 1.384 . S
N1528 C1524 1.427 . S
N1528 C1525 1.384 . S
N1529 C1521 1.427 . S
N1529 C1527 1.384 . S
H1530 C1536 0.930 . S
H1531 C1540 0.930 . S
H1532 C1545 0.929 . S
H1533 C1543 0.929 . S
H1534 C1538 0.929 . S
H1535 C1544 0.929 . S
C1536 H1530 0.930 . S
C1536 C1537 1.367 . S
C1536 C1544 1.378 . S
C1537 C1536 1.367 . S
C1537 C1545 1.433 . S
C1538 H1534 0.929 . S
C1538 C1540 1.378 . S
C1538 C1542 1.350 . S
C1539 C1542 1.463 . S
C1539 C1544 1.350 . S
C1539 N1547 1.427 . S
C1540 H1531 0.930 . S
C1540 C1538 1.378 . S
C1540 C1541 1.367 . S
C1541 C1540 1.367 . S
C1541 C1543 1.433 . S
C1542 C1538 1.350 . S
C1542 C1539 1.463 . S
C1542 N1546 1.427 . S
C1543 H1533 0.929 . S
C1543 C1541 1.433 . S
C1543 N1546 1.384 . S
C1544 H1535 0.929 . S
C1544 C1536 1.378 . S
C1544 C1539 1.350 . S
C1545 H1532 0.929 . S
C1545 C1537 1.433 . S
C1545 N1547 1.384 . S
N1546 C1542 1.427 . S
N1546 C1543 1.384 . S
N1547 C1539 1.427 . S
N1547 C1545 1.384 . S
H1548 C1554 0.930 . S
H1549 C1558 0.930 . S
H1550 C1563 0.929 . S
H1551 C1561 0.929 . S
H1552 C1556 0.929 . S
H1553 C1562 0.929 . S
C1554 H1548 0.930 . S
C1554 C1555 1.367 . S
C1554 C1562 1.378 . S
C1555 C1554 1.367 . S
C1555 C1563 1.433 . S
C1556 H1552 0.929 . S
C1556 C1558 1.378 . S
C1556 C1560 1.350 . S
C1557 C1560 1.463 . S
C1557 C1562 1.350 . S
C1557 N1565 1.427 . S
C1558 H1549 0.930 . S
C1558 C1556 1.378 . S
C1558 C1559 1.367 . S
C1559 C1558 1.367 . S
C1559 C1561 1.433 . S
C1560 C1556 1.350 . S
C1560 C1557 1.463 . S
C1560 N1564 1.427 . S
C1561 H1551 0.929 . S
C1561 C1559 1.433 . S
C1561 N1564 1.384 . S
C1562 H1553 0.929 . S
C1562 C1554 1.378 . S
C1562 C1557 1.350 . S
C1563 H1550 0.929 . S
C1563 C1555 1.433 . S
C1563 N1565 1.384 . S
N1564 C1560 1.427 . S
N1564 C1561 1.384 . S
N1565 C1557 1.427 . S
N1565 C1563 1.384 . S
C601 C177 1.670 . S
C605 C237 1.681 . S
C619 C190 1.799 . S
C623 C277 1.795 . S
C637 C164 1.597 . S
C641 C329 1.592 . S
C655 C151 1.483 . S
C659 C289 1.462 1_556 S
C677 C317 1.507 . S
C673 C125 1.506 . S
C691 C138 1.355 . S
C695 C249 1.355 1_556 S
C713 C256 1.673 . S
C709 C147 1.632 . S
C731 C296 1.677 . S
C727 C121 1.613 . S
C745 C134 1.611 . S
C749 C316 1.686 . S
C763 C173 1.478 . S
C767 C276 1.516 . S
C781 C186 1.435 . S
C785 C336 1.465 . S
C803 C236 1.469 . S
C799 C160 1.428 . S
C821 C357 1.682 . S
C817 C21 1.673 . S
C835 C34 1.797 . S
C839 C397 1.794 . S
C853 C8 1.594 . S
C857 C449 1.587 . S
C871 C229 1.482 . S
C875 C409 1.463 . S
C889 C203 1.506 . S
C893 C437 1.507 . S
C907 C216 1.355 . S
C911 C369 1.354 . S
C925 C225 1.633 . S
C929 C376 1.675 . S
C943 C199 1.620 . S
C947 C416 1.681 . S
C965 C436 1.679 . S
C961 C212 1.621 . S
C979 C17 1.475 . S
C983 C396 1.513 . S
C1001 C456 1.463 . S
C997 C30 1.441 . S
C1015 C4 1.428 . S
C1019 C356 1.471 . S
C1037 C477 1.681 . S
C1033 C99 1.671 . S
C1051 C112 1.798 . S
C1055 C517 1.794 . S
C1073 C569 1.588 . S
C1069 C86 1.601 . S
C1091 C529 1.455 . S
C1087 C73 1.478 . S
C1109 C557 1.506 . S
C1105 C47 1.506 . S
C1123 C60 1.360 . S
C1127 C489 1.362 . S
C1141 C69 1.640 . S
C1145 C496 1.670 . S
C1159 C43 1.623 . S
C1163 C536 1.676 . S
C1181 C556 1.675 . S
C1177 C56 1.611 . S
C1195 C95 1.478 . S
C1199 C516 1.517 . S
C1213 C108 1.434 . S
C1217 C576 1.460 . S
C1231 C82 1.435 . S
C1235 C476 1.477 . S
C1249 C204 1.498 . S
C1253 C260 1.474 . S
C1271 C300 1.914 . S
C1267 C217 1.947 . S
C1285 C230 1.563 . S
C1289 C323 1.577 . S
C1303 C87 1.777 . S
C1307 C283 1.781 . S
C1321 C100 1.680 . S
C1325 C340 1.660 . S
C1343 C243 1.311 . S
C1339 C113 1.302 . S
C1357 C48 1.495 . S
C1361 C380 1.467 . S
C1375 C61 1.941 . S
C1379 C420 1.905 . S
C1393 C74 1.557 . S
C1397 C443 1.572 . S
C1411 C165 1.777 . S
C1415 C403 1.782 . S
C1433 C460 1.662 . S
C1429 C178 1.681 . S
C1447 C191 1.305 . S
C1451 C363 1.309 . S
C1465 C126 1.498 . S
C1469 C500 1.473 . S
C1483 C139 1.944 . S
C1487 C540 1.910 . S
C1505 C563 1.573 . S
C1501 C152 1.555 . S
C1519 C9 1.784 . S
C1523 C523 1.783 . S
C1537 C22 1.679 . S
C1541 C580 1.661 . S
C1555 C35 1.304 . S
C1559 C483 1.311 . S
