# Generated by pormake.
# Topology ssa, (4,4)-cn, num edge types: 1
# Building blocks:
#     Node 0, Type 0, BuildingBlock: IZENUY_clean_linker_0, # of connection points: 4
#     Node 1, Type 0, BuildingBlock: IZENUY_clean_linker_0, # of connection points: 4
#     Node 2, Type 0, BuildingBlock: IZENUY_clean_linker_0, # of connection points: 4
#     Node 3, Type 0, BuildingBlock: IZENUY_clean_linker_0, # of connection points: 4
#     Node 4, Type 0, BuildingBlock: IZENUY_clean_linker_0, # of connection points: 4
#     Node 5, Type 0, BuildingBlock: IZENUY_clean_linker_0, # of connection points: 4
#     Node 6, Type 1, BuildingBlock: KOZSID_clean_sbu_0, # of connection points: 4
#     Node 7, Type 1, BuildingBlock: KOZSID_clean_sbu_0, # of connection points: 4
#     Node 8, Type 1, BuildingBlock: KOZSID_clean_sbu_0, # of connection points: 4
#     Node 9, Type 1, BuildingBlock: KOZSID_clean_sbu_0, # of connection points: 4
#     Node 10, Type 1, BuildingBlock: KOZSID_clean_sbu_0, # of connection points: 4
#     Node 11, Type 1, BuildingBlock: KOZSID_clean_sbu_0, # of connection points: 4
#     Edge 12, Type (0, 1), BuildingBlock: OJICUG_clean_linker_0, # of connection points: 2
#     Edge 13, Type (0, 1), BuildingBlock: OJICUG_clean_linker_0, # of connection points: 2
#     Edge 14, Type (0, 1), BuildingBlock: OJICUG_clean_linker_0, # of connection points: 2
#     Edge 15, Type (0, 1), BuildingBlock: OJICUG_clean_linker_0, # of connection points: 2
#     Edge 16, Type (0, 1), BuildingBlock: OJICUG_clean_linker_0, # of connection points: 2
#     Edge 17, Type (0, 1), BuildingBlock: OJICUG_clean_linker_0, # of connection points: 2
#     Edge 18, Type (0, 1), BuildingBlock: OJICUG_clean_linker_0, # of connection points: 2
#     Edge 19, Type (0, 1), BuildingBlock: OJICUG_clean_linker_0, # of connection points: 2
#     Edge 20, Type (0, 1), BuildingBlock: OJICUG_clean_linker_0, # of connection points: 2
#     Edge 21, Type (0, 1), BuildingBlock: OJICUG_clean_linker_0, # of connection points: 2
#     Edge 22, Type (0, 1), BuildingBlock: OJICUG_clean_linker_0, # of connection points: 2
#     Edge 23, Type (0, 1), BuildingBlock: OJICUG_clean_linker_0, # of connection points: 2
#     Edge 24, Type (0, 1), BuildingBlock: OJICUG_clean_linker_0, # of connection points: 2
#     Edge 25, Type (0, 1), BuildingBlock: OJICUG_clean_linker_0, # of connection points: 2
#     Edge 26, Type (0, 1), BuildingBlock: OJICUG_clean_linker_0, # of connection points: 2
#     Edge 27, Type (0, 1), BuildingBlock: OJICUG_clean_linker_0, # of connection points: 2
#     Edge 28, Type (0, 1), BuildingBlock: OJICUG_clean_linker_0, # of connection points: 2
#     Edge 29, Type (0, 1), BuildingBlock: OJICUG_clean_linker_0, # of connection points: 2
#     Edge 30, Type (0, 1), BuildingBlock: OJICUG_clean_linker_0, # of connection points: 2
#     Edge 31, Type (0, 1), BuildingBlock: OJICUG_clean_linker_0, # of connection points: 2
#     Edge 32, Type (0, 1), BuildingBlock: OJICUG_clean_linker_0, # of connection points: 2
#     Edge 33, Type (0, 1), BuildingBlock: OJICUG_clean_linker_0, # of connection points: 2
#     Edge 34, Type (0, 1), BuildingBlock: OJICUG_clean_linker_0, # of connection points: 2
#     Edge 35, Type (0, 1), BuildingBlock: OJICUG_clean_linker_0, # of connection points: 2
# Relax obj value: 0.002
# Max RMSD: 0.043
# Mean RMSD: 0.020
data_MOF--net-ssa--node1-KOZSID_clean_sbu_0--node2-IZENUY_clean_linker_0--edge1-OJICUG_clean_linker_0
_symmetry_space_group_name_H-M    P1
_symmetry_Int_Tables_number       1
_symmetry_cell_setting            triclinic
loop_
_symmetry_equiv_pos_as_xyz
'x, y, z'
_cell_length_a     43.963519
_cell_length_b     44.020928
_cell_length_c     32.247284
_cell_angle_alpha  94.620353
_cell_angle_beta   94.735348
_cell_angle_gamma 120.05578
loop_
_atom_site_label
_atom_site_type_symbol
_atom_site_fract_x
_atom_site_fract_y
_atom_site_fract_z
_atom_type_partial_charge
H0 H 0.97245 0.44828 0.95029 0.0
H1 H 0.96967 0.54513 0.95171 0.0
H2 H 0.90121 0.45542 0.8578 0.0
H3 H 0.04618 0.56667 0.04831 0.0
H4 H 0.04731 0.46893 0.04792 0.0
H5 H 0.11357 0.55744 0.14419 0.0
N6 N 1.00191 0.51515 0.99119 0.0
N7 N 0.01596 0.49944 0.00768 0.0
C8 C 0.96217 0.4637 0.93692 0.0
C9 C 0.93595 0.44816 0.90143 0.0
C10 C 0.97495 0.49893 0.95517 0.0
C11 C 0.96039 0.51824 0.93759 0.0
C12 C 0.93417 0.50289 0.90159 0.0
C13 C 0.92246 0.46798 0.88416 0.0
C14 C 0.05569 0.5508 0.06213 0.0
C15 C 0.08089 0.56566 0.09854 0.0
C16 C 0.04274 0.51552 0.04387 0.0
C17 C 0.05659 0.49581 0.06204 0.0
C18 C 0.08194 0.51073 0.09883 0.0
C19 C 0.09342 0.54544 0.11663 0.0
H20 H 0.57675 0.05561 0.53431 0.0
H21 H 0.47893 0.05527 0.543 0.0
H22 H 0.57715 0.13842 0.6145 0.0
H23 H 0.45133 0.97123 0.45423 0.0
H24 H 0.5497 0.97225 0.4481 0.0
H25 H 0.45544 0.89659 0.36409 0.0
N26 N 0.50646 0.02076 0.50348 0.0
N27 N 0.52137 0.00604 0.48672 0.0
C28 C 0.56236 0.06748 0.54676 0.0
C29 C 0.58082 0.09876 0.57545 0.0
C30 C 0.52548 0.05172 0.53425 0.0
C31 C 0.5073 0.06738 0.55201 0.0
C32 C 0.52596 0.099 0.58081 0.0
C33 C 0.56266 0.11444 0.59184 0.0
C34 C 0.46642 0.9608 0.44034 0.0
C35 C 0.44945 0.93251 0.40723 0.0
C36 C 0.50292 0.97582 0.45491 0.0
C37 C 0.5218 0.96116 0.43679 0.0
C38 C 0.50481 0.93276 0.4035 0.0
C39 C 0.46886 0.91901 0.389 0.0
H40 H 0.48058 0.4346 0.97783 0.0
H41 H 0.58061 0.53074 0.9756 0.0
H42 H 0.55619 0.43333 0.90255 0.0
H43 H 0.53457 0.56396 0.05629 0.0
H44 H 0.43043 0.47062 0.04864 0.0
H45 H 0.45411 0.56896 0.11854 0.0
N46 N 0.52161 0.50589 0.00907 0.0
N47 N 0.49232 0.49348 0.02219 0.0
C48 C 0.50632 0.44835 0.9673 0.0
C49 C 0.51601 0.4297 0.93877 0.0
C50 C 0.53014 0.4851 0.98142 0.0
C51 C 0.56295 0.50248 0.96617 0.0
C52 C 0.57209 0.48406 0.93707 0.0
C53 C 0.54897 0.44771 0.92474 0.0
C54 C 0.50781 0.55101 0.06409 0.0
C55 C 0.49708 0.57056 0.08956 0.0
C56 C 0.48354 0.51456 0.04898 0.0
C57 C 0.44906 0.4984 0.05996 0.0
C58 C 0.43825 0.51811 0.08443 0.0
C59 C 0.46236 0.55389 0.09901 0.0
H60 H 0.04096 0.47786 0.48039 0.0
H61 H 0.04152 0.57599 0.47367 0.0
H62 H 0.11701 0.55798 0.41626 0.0
H63 H 0.96385 0.52274 0.54272 0.0
H64 H 0.96237 0.42435 0.55181 0.0
H65 H 0.88709 0.44402 0.6073 0.0
N66 N 0.00893 0.51444 0.50481 0.0
N67 N 0.99555 0.48568 0.5196 0.0
C68 C 0.05182 0.50373 0.47025 0.0
C69 C 0.08049 0.51568 0.44722 0.0
C70 C 0.03755 0.52548 0.48036 0.0
C71 C 0.05223 0.55911 0.46618 0.0
C72 C 0.08125 0.57112 0.44322 0.0
C73 C 0.09488 0.54909 0.43415 0.0
C74 C 0.95276 0.49699 0.55324 0.0
C75 C 0.92386 0.48549 0.57575 0.0
C76 C 0.96685 0.47496 0.54393 0.0
C77 C 0.95179 0.44147 0.55863 0.0
C78 C 0.9225 0.42992 0.5812 0.0
C79 C 0.90918 0.45234 0.58942 0.0
H80 H 0.48196 0.04492 0.98324 0.0
H81 H 0.5811 0.04703 0.97866 0.0
H82 H 0.56274 0.1222 0.92093 0.0
H83 H 0.52776 0.96864 0.04539 0.0
H84 H 0.42915 0.96656 0.05555 0.0
H85 H 0.44938 0.89101 0.10953 0.0
N86 N 0.51928 0.01389 0.00879 0.0
N87 N 0.49038 1.00019 0.02328 0.0
C88 C 0.5082 0.05637 0.97394 0.0
C89 C 0.52013 0.08509 0.95104 0.0
C90 C 0.5303 0.04262 0.98466 0.0
C91 C 0.56415 0.05768 0.97109 0.0
C92 C 0.57626 0.08687 0.94847 0.0
C93 C 0.55398 0.10021 0.93899 0.0
C94 C 0.50204 0.95739 0.05609 0.0
C95 C 0.49086 0.92847 0.07844 0.0
C96 C 0.47984 0.97137 0.04728 0.0
C97 C 0.44642 0.95609 0.06209 0.0
C98 C 0.43511 0.92672 0.0844 0.0
C99 C 0.45767 0.9134 0.09219 0.0
H100 H 0.44536 0.47682 0.46044 0.0
H101 H 0.54032 0.57959 0.46742 0.0
H102 H 0.44233 0.55886 0.39926 0.0
H103 H 0.57663 0.53091 0.53674 0.0
H104 H 0.48293 0.42843 0.53683 0.0
H105 H 0.58345 0.45264 0.60186 0.0
N106 N 0.51691 0.51796 0.49339 0.0
N107 N 0.50493 0.48893 0.50701 0.0
C108 C 0.45872 0.50361 0.45284 0.0
C109 C 0.43949 0.51517 0.42776 0.0
C110 C 0.49552 0.5272 0.46763 0.0
C111 C 0.51227 0.5616 0.45662 0.0
C112 C 0.49306 0.57317 0.4326 0.0
C113 C 0.45696 0.54994 0.41851 0.0
C114 C 0.56394 0.50459 0.54578 0.0
C115 C 0.58439 0.49435 0.57069 0.0
C116 C 0.52698 0.48046 0.53286 0.0
C117 C 0.51113 0.44678 0.54603 0.0
C118 C 0.53149 0.4365 0.57042 0.0
C119 C 0.56787 0.46031 0.58223 0.0
C120 C 0.20463 0.50941 0.21544 0.0
C121 C 0.20874 0.54223 0.21034 0.0
C122 C 0.23878 0.56703 0.23621 0.0
C123 C 0.25132 0.54809 0.25561 0.0
N124 N 0.23138 0.51266 0.2434 0.0
Co125 Co 0.23954 0.47557 0.26575 0.0
N126 N 0.28439 0.51234 0.30308 0.0
C127 C 0.29946 0.54793 0.30554 0.0
C128 C 0.33126 0.56672 0.33146 0.0
C129 C 0.3372 0.54171 0.3462 0.0
C130 C 0.30838 0.50887 0.32863 0.0
N131 N 0.24706 0.43857 0.28944 0.0
C132 C 0.27398 0.44185 0.31723 0.0
C133 C 0.2683 0.40902 0.32508 0.0
C134 C 0.237 0.38415 0.30116 0.0
C135 C 0.22523 0.40308 0.28025 0.0
N136 N 0.19564 0.439 0.2269 0.0
C137 C 0.18186 0.40353 0.22238 0.0
C138 C 0.15182 0.38496 0.19331 0.0
C139 C 0.14601 0.41005 0.17833 0.0
C140 C 0.17286 0.44263 0.19927 0.0
N141 N 0.26858 0.47746 0.22094 0.0
C142 C 0.31484 0.48169 0.16309 0.0
C143 C 0.29061 0.44913 0.17468 0.0
C144 C 0.26768 0.44758 0.20319 0.0
C145 C 0.31457 0.51183 0.17986 0.0
C146 C 0.2914 0.50913 0.20829 0.0
N147 N 0.2104 0.47365 0.31067 0.0
C148 C 0.157 0.4423 0.34286 0.0
C149 C 0.16546 0.47337 0.36851 0.0
C150 C 0.19751 0.50412 0.36599 0.0
C151 C 0.2193 0.5037 0.33716 0.0
C152 C 0.17993 0.44292 0.31478 0.0
H153 H 0.24272 0.52835 0.33621 0.0
H154 H 0.172 0.41836 0.29616 0.0
H155 H 0.24988 0.42201 0.2109 0.0
H156 H 0.29306 0.53321 0.2203 0.0
C157 C 0.28268 0.56291 0.28375 0.0
C158 C 0.17473 0.47606 0.19302 0.0
C159 C 0.30557 0.47528 0.33656 0.0
C160 C 0.19604 0.38846 0.24853 0.0
H161 H 0.19178 0.54772 0.18995 0.0
H162 H 0.25026 0.5955 0.24018 0.0
H163 H 0.34824 0.59523 0.33856 0.0
H164 H 0.36041 0.54718 0.36718 0.0
H165 H 0.28535 0.40366 0.34549 0.0
H166 H 0.22483 0.35562 0.29835 0.0
H167 H 0.13555 0.35649 0.18481 0.0
H168 H 0.12411 0.40497 0.1552 0.0
H169 H 0.28947 0.42496 0.16207 0.0
H170 H 0.33308 0.5378 0.17234 0.0
H171 H 0.1326 0.41773 0.34405 0.0
H172 H 0.20512 0.52902 0.38482 0.0
C173 C 0.70766 0.20991 0.69604 0.0
C174 C 0.67718 0.21179 0.6866 0.0
C175 C 0.67663 0.23333 0.71916 0.0
C176 C 0.70656 0.24345 0.7467 0.0
N177 N 0.72626 0.23004 0.73322 0.0
Co178 Co 0.76996 0.23632 0.76534 0.0
N179 N 0.77643 0.2777 0.80255 0.0
C180 C 0.75146 0.28594 0.80912 0.0
C181 C 0.76441 0.31669 0.83648 0.0
C182 C 0.79972 0.32839 0.84776 0.0
C183 C 0.80618 0.30396 0.82651 0.0
N184 N 0.81347 0.24283 0.79819 0.0
C185 C 0.84017 0.27225 0.82246 0.0
C186 C 0.86655 0.26636 0.839 0.0
C187 C 0.85578 0.23179 0.8242 0.0
C188 C 0.82354 0.21867 0.79959 0.0
N189 N 0.76358 0.19482 0.72813 0.0
C190 C 0.77953 0.17612 0.73603 0.0
C191 C 0.76977 0.14851 0.70482 0.0
C192 C 0.74581 0.14958 0.67583 0.0
C193 C 0.74208 0.17777 0.69114 0.0
N194 N 0.79913 0.26813 0.7268 0.0
C195 C 0.84159 0.31495 0.6732 0.0
C196 C 0.84843 0.28921 0.68678 0.0
C197 C 0.8267 0.26586 0.71307 0.0
C198 C 0.81305 0.31671 0.68728 0.0
C199 C 0.79246 0.29341 0.71415 0.0
N200 N 0.74065 0.20451 0.8039 0.0
C201 C 0.68676 0.15218 0.81479 0.0
C202 C 0.69506 0.16191 0.85854 0.0
C203 C 0.72754 0.19295 0.87426 0.0
C204 C 0.74993 0.21366 0.84656 0.0
C205 C 0.7097 0.17366 0.78825 0.0
H206 H 0.77443 0.23759 0.8597 0.0
H207 H 0.70169 0.16563 0.7549 0.0
H208 H 0.83236 0.24604 0.72241 0.0
H209 H 0.77121 0.29604 0.72493 0.0
C210 C 0.71886 0.26842 0.78294 0.0
C211 C 0.71499 0.18481 0.67226 0.0
C212 C 0.84024 0.30539 0.8308 0.0
C213 C 0.80629 0.18764 0.77045 0.0
H214 H 0.65657 0.19805 0.65986 0.0
H215 H 0.65689 0.2409 0.72218 0.0
H216 H 0.75038 0.32999 0.84547 0.0
H217 H 0.81854 0.3522 0.86891 0.0
H218 H 0.89107 0.28516 0.85909 0.0
H219 H 0.87071 0.21858 0.82881 0.0
H220 H 0.77932 0.13013 0.70298 0.0
H221 H 0.73197 0.13117 0.64721 0.0
H222 H 0.87006 0.28673 0.67662 0.0
H223 H 0.80698 0.33644 0.67813 0.0
H224 H 0.6619 0.12883 0.80082 0.0
H225 H 0.73549 0.20148 0.90777 0.0
C226 C 0.50625 0.7015 0.18689 0.0
C227 C 0.47342 0.67233 0.16987 0.0
C228 C 0.44829 0.67797 0.18479 0.0
C229 C 0.46701 0.70994 0.21024 0.0
N230 N 0.50267 0.72539 0.21221 0.0
Co231 Co 0.53949 0.77058 0.2487 0.0
N232 N 0.50229 0.77888 0.27031 0.0
C233 C 0.46677 0.75868 0.25849 0.0
C234 C 0.44784 0.77155 0.27713 0.0
C235 C 0.47274 0.80221 0.30185 0.0
C236 C 0.50563 0.80633 0.29679 0.0
N237 N 0.57614 0.81475 0.28691 0.0
C238 C 0.57252 0.83821 0.31311 0.0
C239 C 0.60511 0.86524 0.33391 0.0
C240 C 0.63022 0.85883 0.3202 0.0
C241 C 0.61163 0.82832 0.29197 0.0
N242 N 0.57664 0.76314 0.22539 0.0
C243 C 0.61218 0.78501 0.23449 0.0
C244 C 0.63116 0.77333 0.21359 0.0
C245 C 0.60625 0.74208 0.1897 0.0
C246 C 0.57339 0.73637 0.1976 0.0
N247 N 0.54101 0.79898 0.20322 0.0
C248 C 0.53944 0.84429 0.14728 0.0
C249 C 0.57095 0.85325 0.17252 0.0
C250 C 0.57129 0.83006 0.19963 0.0
C251 C 0.50945 0.81132 0.14861 0.0
C252 C 0.51079 0.78932 0.17648 0.0
N253 N 0.53784 0.7422 0.29425 0.0
C254 C 0.56584 0.71971 0.34046 0.0
C255 C 0.53333 0.69664 0.35321 0.0
C256 C 0.50349 0.69775 0.33702 0.0
C257 C 0.50633 0.72051 0.30805 0.0
C258 C 0.56755 0.74234 0.31142 0.0
H259 H 0.48236 0.71937 0.29661 0.0
H260 H 0.59306 0.75929 0.30285 0.0
H261 H 0.59607 0.83834 0.21822 0.0
H262 H 0.48656 0.76525 0.17683 0.0
C263 C 0.45191 0.72686 0.23134 0.0
C264 C 0.53994 0.7048 0.17857 0.0
C265 C 0.53914 0.83704 0.31748 0.0
C266 C 0.62679 0.81414 0.26612 0.0
H267 H 0.46806 0.64915 0.14902 0.0
H268 H 0.41975 0.66078 0.17794 0.0
H269 H 0.41931 0.75997 0.27331 0.0
H270 H 0.46729 0.81963 0.32133 0.0
H271 H 0.61025 0.88777 0.35585 0.0
H272 H 0.65873 0.87521 0.3286 0.0
H273 H 0.65972 0.78554 0.21635 0.0
H274 H 0.6116 0.72506 0.16931 0.0
H275 H 0.595 0.87833 0.17205 0.0
H276 H 0.48429 0.80323 0.12993 0.0
H277 H 0.5898 0.72013 0.35254 0.0
H278 H 0.47755 0.6801 0.34537 0.0
C279 C 0.74716 0.57479 0.68833 0.0
C280 C 0.75292 0.60752 0.6798 0.0
C281 C 0.77811 0.63238 0.71136 0.0
C282 C 0.78648 0.61361 0.73733 0.0
N283 N 0.7686 0.57851 0.72377 0.0
Co284 Co 0.77225 0.54217 0.75354 0.0
N285 N 0.81607 0.57853 0.79132 0.0
C286 C 0.82784 0.61344 0.79827 0.0
C287 C 0.85908 0.63214 0.82556 0.0
C288 C 0.86748 0.60742 0.83646 0.0
C289 C 0.8408 0.57495 0.81515 0.0
N290 N 0.77627 0.50592 0.78285 0.0
C291 C 0.80455 0.50843 0.80672 0.0
C292 C 0.79577 0.47654 0.82111 0.0
C293 C 0.76073 0.45334 0.80573 0.0
C294 C 0.75015 0.47229 0.78292 0.0
N295 N 0.72796 0.50538 0.7167 0.0
C296 C 0.70721 0.47173 0.72405 0.0
C297 C 0.67719 0.45246 0.69524 0.0
C298 C 0.6786 0.47543 0.66836 0.0
C299 C 0.70965 0.50775 0.68227 0.0
N300 N 0.80108 0.5386 0.71265 0.0
C301 C 0.84334 0.53277 0.65594 0.0
C302 C 0.81346 0.50255 0.6652 0.0
C303 C 0.79288 0.50601 0.69373 0.0
C304 C 0.85149 0.56605 0.67537 0.0
C305 C 0.82978 0.5684 0.70329 0.0
N306 N 0.74305 0.54567 0.7944 0.0
C307 C 0.69071 0.54721 0.80707 0.0
C308 C 0.69372 0.53948 0.8479 0.0
C309 C 0.724 0.53831 0.86279 0.0
C310 C 0.74867 0.54204 0.83564 0.0
C311 C 0.71496 0.54938 0.7808 0.0
H312 H 0.77134 0.5403 0.84749 0.0
H313 H 0.70963 0.55239 0.74886 0.0
H314 H 0.77062 0.48223 0.70095 0.0
H315 H 0.83652 0.59434 0.71764 0.0
C316 C 0.81268 0.62807 0.77272 0.0
C317 C 0.71784 0.5408 0.66544 0.0
C318 C 0.83908 0.54111 0.81894 0.0
C319 C 0.71833 0.45818 0.75585 0.0
H320 H 0.7394 0.61272 0.65423 0.0
H321 H 0.78903 0.66076 0.71487 0.0
H322 H 0.87483 0.66056 0.83481 0.0
H323 H 0.89067 0.61269 0.85732 0.0
H324 H 0.81282 0.47075 0.84087 0.0
H325 H 0.74526 0.42561 0.80943 0.0
H326 H 0.65673 0.42493 0.69383 0.0
H327 H 0.65824 0.46923 0.64244 0.0
H328 H 0.80664 0.47624 0.6515 0.0
H329 H 0.87441 0.59002 0.66907 0.0
H330 H 0.66859 0.54971 0.79447 0.0
H331 H 0.72771 0.5327 0.89428 0.0
C332 C 0.27426 0.83313 0.32978 0.0
C333 C 0.26904 0.85992 0.3464 0.0
C334 C 0.23748 0.85341 0.32583 0.0
C335 C 0.22532 0.82311 0.29802 0.0
N336 N 0.24697 0.80961 0.30003 0.0
Co337 Co 0.24037 0.76677 0.26423 0.0
N338 N 0.19757 0.76092 0.22882 0.0
C339 C 0.18393 0.78239 0.23213 0.0
C340 C 0.15412 0.77134 0.20377 0.0
C341 C 0.1482 0.74078 0.18123 0.0
C342 C 0.17478 0.73497 0.19734 0.0
N343 N 0.23314 0.72317 0.22953 0.0
C344 C 0.20663 0.70054 0.19853 0.0
C345 C 0.21062 0.6723 0.18408 0.0
C346 C 0.2404 0.67696 0.20722 0.0
C347 C 0.25282 0.70759 0.23438 0.0
N348 N 0.28405 0.77346 0.29844 0.0
C349 C 0.29887 0.75307 0.29399 0.0
C350 C 0.33 0.76555 0.32035 0.0
C351 C 0.33593 0.79627 0.3423 0.0
C352 C 0.30789 0.80064 0.32798 0.0
N353 N 0.20945 0.73578 0.3037 0.0
C354 C 0.16453 0.68898 0.35665 0.0
C355 C 0.196 0.69037 0.34891 0.0
C356 C 0.21763 0.71344 0.32261 0.0
C357 C 0.15601 0.7117 0.33744 0.0
C358 C 0.17883 0.73497 0.31174 0.0
N359 N 0.27129 0.79759 0.22486 0.0
C360 C 0.3171 0.81137 0.18028 0.0
C361 C 0.31803 0.84252 0.17203 0.0
C362 C 0.29489 0.85071 0.19073 0.0
C363 C 0.27164 0.82788 0.21642 0.0
C364 C 0.29401 0.7897 0.20654 0.0
H365 H 0.25433 0.83534 0.22937 0.0
H366 H 0.29541 0.76686 0.21193 0.0
H367 H 0.24064 0.71225 0.31775 0.0
H368 H 0.171 0.75191 0.29852 0.0
C369 C 0.19713 0.8101 0.26537 0.0
C370 C 0.30653 0.83235 0.34104 0.0
C371 C 0.17613 0.70346 0.18343 0.0
C372 C 0.28315 0.72266 0.26427 0.0
H373 H 0.28687 0.88245 0.36983 0.0
H374 H 0.22581 0.86991 0.32909 0.0
H375 H 0.13781 0.78325 0.20099 0.0
H376 H 0.12627 0.72408 0.15656 0.0
H377 H 0.19339 0.65023 0.15983 0.0
H378 H 0.25144 0.65985 0.20486 0.0
H379 H 0.34682 0.75417 0.32257 0.0
H380 H 0.35882 0.81399 0.36538 0.0
H381 H 0.20367 0.67299 0.36233 0.0
H382 H 0.13203 0.71183 0.34255 0.0
H383 H 0.33482 0.80399 0.16727 0.0
H384 H 0.2944 0.87442 0.18521 0.0
C385 C 0.44523 0.27194 0.8146 0.0
C386 C 0.41157 0.26486 0.82085 0.0
C387 C 0.38797 0.23484 0.79402 0.0
C388 C 0.40843 0.22518 0.77316 0.0
N389 N 0.4437 0.24727 0.78482 0.0
Co390 Co 0.48253 0.24161 0.76353 0.0
N391 N 0.44786 0.19845 0.72248 0.0
C392 C 0.41228 0.18423 0.7155 0.0
C393 C 0.39531 0.15566 0.68437 0.0
C394 C 0.42163 0.15145 0.67037 0.0
C395 C 0.45328 0.17762 0.6941 0.0
N396 N 0.52134 0.23501 0.74393 0.0
C397 C 0.51981 0.20965 0.71535 0.0
C398 C 0.55312 0.21362 0.71405 0.0
C399 C 0.57654 0.24277 0.74204 0.0
C400 C 0.55632 0.25471 0.75922 0.0
N401 N 0.51746 0.28582 0.80287 0.0
C402 C 0.55327 0.30196 0.80691 0.0
C403 C 0.57063 0.33307 0.83404 0.0
C404 C 0.5444 0.33721 0.84825 0.0
C405 C 0.5123 0.30796 0.82929 0.0
N406 N 0.47906 0.21159 0.80793 0.0
C407 C 0.47681 0.16674 0.8669 0.0
C408 C 0.50743 0.19942 0.86637 0.0
C409 C 0.50799 0.22113 0.83697 0.0
C410 C 0.4468 0.15743 0.83837 0.0
C411 C 0.44836 0.18029 0.80968 0.0
N412 N 0.48608 0.27166 0.71922 0.0
C413 C 0.52217 0.3171 0.67843 0.0
C414 C 0.49258 0.31753 0.65974 0.0
C415 C 0.45945 0.29403 0.67082 0.0
C416 C 0.45678 0.2713 0.70019 0.0
C417 C 0.51837 0.2942 0.70765 0.0
H418 H 0.4308 0.25389 0.70726 0.0
H419 H 0.54212 0.29565 0.72088 0.0
H420 H 0.53255 0.24514 0.83786 0.0
H421 H 0.42457 0.17177 0.78881 0.0
C422 C 0.39552 0.19707 0.74048 0.0
C423 C 0.47775 0.30241 0.83774 0.0
C424 C 0.48775 0.18164 0.68837 0.0
C425 C 0.56973 0.28586 0.7872 0.0
H426 H 0.40482 0.27995 0.84245 0.0
H427 H 0.35929 0.22188 0.78982 0.0
H428 H 0.3671 0.13959 0.67342 0.0
H429 H 0.41792 0.1313 0.6456 0.0
H430 H 0.55995 0.1973 0.69468 0.0
H431 H 0.605 0.25422 0.7486 0.0
H432 H 0.59899 0.35046 0.84287 0.0
H433 H 0.5486 0.35928 0.87027 0.0
H434 H 0.53159 0.20766 0.88736 0.0
H435 H 0.42237 0.13245 0.83783 0.0
H436 H 0.54854 0.33514 0.67151 0.0
H437 H 0.43567 0.29311 0.65689 0.0
C438 C 0.1213 0.48419 0.09947 0.0
C439 C 0.09838 0.49213 0.11953 0.0
H440 H 0.16359 0.47275 0.10716 0.0
C441 C 0.09766 0.48988 0.16282 0.0
H442 H 0.12306 0.48646 0.06644 0.0
C443 C 0.12083 0.48225 0.186 0.0
C444 C 0.14537 0.47669 0.16653 0.0
H445 H 0.08069 0.49633 0.17932 0.0
H446 H 0.12102 0.48273 0.21966 0.0
C447 C 0.14466 0.47662 0.1228 0.0
C448 C 0.6284 0.10319 0.62683 0.0
C449 C 0.61877 0.11466 0.59144 0.0
H450 H 0.66731 0.11687 0.68038 0.0
C451 C 0.64399 0.14616 0.57813 0.0
H452 H 0.60903 0.07929 0.63796 0.0
C453 C 0.67758 0.1674 0.60197 0.0
C454 C 0.68589 0.15763 0.63975 0.0
H455 H 0.63673 0.15568 0.55129 0.0
H456 H 0.69567 0.193 0.5932 0.0
C457 C 0.66171 0.12461 0.65096 0.0
C458 C 0.53462 0.61695 0.15048 0.0
C459 C 0.52051 0.60844 0.10761 0.0
H460 H 0.55226 0.65466 0.20657 0.0
C461 C 0.51878 0.63453 0.08687 0.0
H462 H 0.5352 0.59695 0.16747 0.0
C463 C 0.52826 0.66742 0.10931 0.0
C464 C 0.53942 0.67465 0.1529 0.0
H465 H 0.50697 0.62829 0.05422 0.0
H466 H 0.52414 0.68606 0.09334 0.0
C467 C 0.54407 0.64981 0.17292 0.0
C468 C 0.92379 0.5337 0.62145 0.0
C469 C 0.90787 0.50707 0.58651 0.0
H470 H 0.91546 0.56303 0.6711 0.0
C471 C 0.87232 0.49408 0.57012 0.0
H472 H 0.95098 0.54351 0.63504 0.0
C473 C 0.85194 0.50481 0.59087 0.0
C474 C 0.86681 0.52874 0.62834 0.0
H475 H 0.85946 0.47316 0.54352 0.0
H476 H 0.82392 0.49252 0.57926 0.0
C477 C 0.90338 0.54462 0.64219 0.0
C478 C 0.39296 0.92393 0.13469 0.0
C479 C 0.39998 0.90825 0.09986 0.0
H480 H 0.36147 0.91551 0.18497 0.0
C481 C 0.37701 0.87183 0.08607 0.0
H482 H 0.41065 0.95175 0.14657 0.0
C483 C 0.34926 0.85107 0.10813 0.0
C484 C 0.34362 0.86607 0.14478 0.0
H485 H 0.38196 0.85893 0.05962 0.0
H486 H 0.33307 0.82286 0.09743 0.0
C487 C 0.36493 0.90306 0.15684 0.0
C488 C 0.48869 0.3917 0.61143 0.0
C489 C 0.51551 0.40159 0.58573 0.0
H490 H 0.4605 0.35735 0.65549 0.0
C491 C 0.53103 0.38066 0.58014 0.0
H492 H 0.47656 0.40763 0.61651 0.0
C493 C 0.52182 0.35191 0.60213 0.0
C494 C 0.4971 0.34362 0.63058 0.0
H495 H 0.55161 0.38763 0.56023 0.0
H496 H 0.53519 0.33706 0.59815 0.0
C497 C 0.47958 0.36295 0.63376 0.0
C498 C 0.5217 0.91232 0.33944 0.0
C499 C 0.5229 0.91571 0.3834 0.0
H500 H 0.52644 0.88504 0.28435 0.0
C501 C 0.53449 0.89653 0.40613 0.0
H502 H 0.51251 0.92649 0.32111 0.0
C503 C 0.54218 0.87251 0.38493 0.0
C504 C 0.53862 0.86753 0.34078 0.0
H505 H 0.53503 0.89813 0.4399 0.0
H506 H 0.54883 0.85631 0.4028 0.0
C507 C 0.52955 0.88857 0.31839 0.0
C508 C 0.5993 0.49533 0.87156 0.0
C509 C 0.60373 0.50231 0.91551 0.0
H510 H 0.62364 0.50014 0.81648 0.0
C511 C 0.63817 0.52374 0.93768 0.0
H512 H 0.57303 0.47908 0.85363 0.0
C513 C 0.66778 0.53667 0.91603 0.0
C514 C 0.6632 0.52849 0.87196 0.0
H515 H 0.64221 0.52937 0.97165 0.0
H516 H 0.69412 0.55266 0.93372 0.0
C517 C 0.62849 0.50786 0.85019 0.0
C518 C 0.13536 0.63005 0.44269 0.0
C519 C 0.09909 0.60648 0.42833 0.0
H520 H 0.18413 0.67463 0.43191 0.0
C521 C 0.08335 0.6131 0.39311 0.0
H522 H 0.14834 0.62536 0.46937 0.0
C523 C 0.10405 0.64135 0.37117 0.0
C524 C 0.14097 0.66326 0.3838 0.0
H525 H 0.05567 0.59493 0.38074 0.0
H526 H 0.09161 0.6445 0.34274 0.0
C527 C 0.15597 0.65801 0.42082 0.0
C528 C 0.50694 0.1336 0.95654 0.0
C529 C 0.49798 0.09985 0.93752 0.0
H530 H 0.50622 0.18114 0.94937 0.0
C531 C 0.47588 0.08566 0.89867 0.0
H532 H 0.52443 0.14519 0.98622 0.0
C533 C 0.46587 0.10638 0.87718 0.0
C534 C 0.47807 0.14164 0.89422 0.0
H535 H 0.46933 0.05994 0.88311 0.0
H536 H 0.45151 0.09594 0.84562 0.0
C537 C 0.4969 0.15427 0.93518 0.0
C538 C 0.39263 0.47825 0.36658 0.0
C539 C 0.40134 0.49269 0.40938 0.0
H540 H 0.35524 0.46113 0.31007 0.0
C541 C 0.37567 0.49602 0.42932 0.0
H542 H 0.41228 0.4765 0.35002 0.0
C543 C 0.34316 0.48755 0.40635 0.0
C544 C 0.33576 0.47584 0.36286 0.0
H545 H 0.38204 0.50818 0.46181 0.0
H546 H 0.32494 0.49268 0.42188 0.0
C547 C 0.36014 0.46982 0.34359 0.0
C548 C 0.91231 0.40036 0.83972 0.0
C549 C 0.9198 0.4103 0.8836 0.0
H550 H 0.88101 0.35854 0.78859 0.0
C551 C 0.90619 0.38373 0.90972 0.0
H552 H 0.92271 0.42026 0.81885 0.0
C553 C 0.88267 0.34835 0.89226 0.0
C554 C 0.87269 0.33924 0.84857 0.0
H555 H 0.91127 0.39063 0.94359 0.0
H556 H 0.87004 0.32867 0.9129 0.0
C557 C 0.88872 0.36513 0.82237 0.0
C558 C 0.91166 0.51907 0.83775 0.0
C559 C 0.91681 0.52121 0.8819 0.0
H560 H 0.88319 0.52378 0.78357 0.0
C561 C 0.89969 0.53488 0.90549 0.0
H562 H 0.92439 0.50866 0.81857 0.0
C563 C 0.87609 0.54372 0.8852 0.0
C564 C 0.86936 0.53926 0.841 0.0
H565 H 0.90259 0.53638 0.93939 0.0
H566 H 0.86155 0.55209 0.90393 0.0
C567 C 0.88811 0.52774 0.81761 0.0
C568 C 0.38613 0.89783 0.41933 0.0
C569 C 0.411 0.91495 0.3921 0.0
H570 H 0.33256 0.8577 0.424 0.0
C571 C 0.39933 0.90925 0.34876 0.0
H572 H 0.39464 0.9015 0.45277 0.0
C573 C 0.36409 0.88449 0.33251 0.0
C574 C 0.34004 0.8651 0.35936 0.0
H575 H 0.41808 0.9221 0.3272 0.0
H576 H 0.35624 0.87853 0.29874 0.0
C577 C 0.35078 0.87284 0.40297 0.0
C578 C 0.4978 0.3661 0.93641 0.0
C579 C 0.49261 0.39202 0.9199 0.0
H580 H 0.49653 0.3168 0.92313 0.0
C581 C 0.47597 0.38463 0.87816 0.0
H582 H 0.51155 0.37155 0.96799 0.0
C583 C 0.46804 0.35367 0.85227 0.0
C584 C 0.47653 0.3295 0.86769 0.0
H585 H 0.47266 0.40458 0.86427 0.0
H586 H 0.45814 0.35014 0.81929 0.0
C587 C 0.48963 0.335 0.91058 0.0
C588 C 0.13096 0.50539 0.45485 0.0
C589 C 0.09661 0.4944 0.43551 0.0
H590 H 0.17967 0.50654 0.44908 0.0
C591 C 0.08285 0.47089 0.39776 0.0
H592 H 0.14224 0.52402 0.48364 0.0
C593 C 0.10438 0.46119 0.37761 0.0
C594 C 0.14005 0.47518 0.39484 0.0
H595 H 0.05669 0.46277 0.38189 0.0
H596 H 0.0941 0.44546 0.34678 0.0
C597 C 0.15247 0.49577 0.43477 0.0
C598 C 0.61852 0.08559 0.90112 0.0
C599 C 0.61136 0.10394 0.93283 0.0
H600 H 0.65072 0.08928 0.85298 0.0
C601 C 0.63449 0.14078 0.94313 0.0
H602 H 0.60086 0.05731 0.89205 0.0
C603 C 0.66281 0.15919 0.92066 0.0
C604 C 0.66866 0.14133 0.8869 0.0
H605 H 0.62935 0.15571 0.96706 0.0
H606 H 0.67868 0.18778 0.9281 0.0
C607 C 0.64679 0.10407 0.87834 0.0
C608 C 0.49591 0.63081 0.42988 0.0
C609 C 0.51003 0.60913 0.42045 0.0
H610 H 0.49326 0.67638 0.41715 0.0
C611 C 0.53611 0.61947 0.39372 0.0
H612 H 0.47584 0.62333 0.45059 0.0
C613 C 0.5457 0.64956 0.37388 0.0
C614 C 0.52939 0.66972 0.38071 0.0
H615 H 0.5471 0.60291 0.38578 0.0
H616 H 0.56392 0.65549 0.35102 0.0
C617 C 0.50568 0.66095 0.41046 0.0
C618 C 0.48712 0.10152 0.63246 0.0
C619 C 0.50843 0.11656 0.60116 0.0
H620 H 0.46388 0.11051 0.68489 0.0
C621 C 0.51903 0.1517 0.59564 0.0
H622 H 0.47922 0.07476 0.63795 0.0
C623 C 0.51015 0.17198 0.62219 0.0
C624 C 0.49092 0.15777 0.6553 0.0
H625 H 0.53591 0.16411 0.5722 0.0
H626 H 0.52008 0.19948 0.61842 0.0
C627 C 0.47853 0.122 0.65941 0.0
C628 C 0.38184 0.51795 0.08736 0.0
C629 C 0.40215 0.50221 0.09625 0.0
H630 H 0.33757 0.52296 0.10052 0.0
C631 C 0.39057 0.47576 0.1225 0.0
H632 H 0.39029 0.53838 0.06707 0.0
C633 C 0.36065 0.46729 0.14231 0.0
C634 C 0.34188 0.48512 0.13599 0.0
H635 H 0.40609 0.46358 0.13009 0.0
H636 H 0.35374 0.44861 0.16473 0.0
C637 C 0.3519 0.50936 0.10682 0.0
C638 C 0.92117 0.3871 0.62986 0.0
C639 C 0.9042 0.39489 0.59703 0.0
H640 H 0.91468 0.35557 0.67983 0.0
C641 C 0.86712 0.37319 0.58641 0.0
H642 H 0.94956 0.40374 0.63936 0.0
C643 C 0.84718 0.34633 0.60996 0.0
C644 C 0.86371 0.34002 0.64465 0.0
H645 H 0.85322 0.37867 0.56151 0.0
H646 H 0.81855 0.33132 0.60197 0.0
C647 C 0.90112 0.35974 0.65329 0.0
C648 C 0.50334 0.87975 0.06645 0.0
C649 C 0.51292 0.91284 0.08827 0.0
H650 H 0.50534 0.83224 0.06758 0.0
C651 C 0.53685 0.92594 0.12569 0.0
H652 H 0.48451 0.86905 0.03779 0.0
C653 C 0.54849 0.90477 0.14308 0.0
C654 C 0.53605 0.87014 0.12335 0.0
H655 H 0.54397 0.95115 0.14333 0.0
H656 H 0.56448 0.91428 0.17378 0.0
C657 C 0.51497 0.85863 0.08373 0.0
C658 C 0.64797 0.51205 0.57026 0.0
C659 C 0.62274 0.51808 0.58743 0.0
H660 H 0.69856 0.51539 0.58137 0.0
C661 C 0.63231 0.53781 0.62766 0.0
H662 H 0.64092 0.49598 0.5399 0.0
C663 C 0.66513 0.54856 0.65159 0.0
C664 C 0.68907 0.53982 0.63574 0.0
H665 H 0.61304 0.54187 0.64221 0.0
H666 H 0.67044 0.56091 0.68384 0.0
C667 C 0.68089 0.52298 0.59408 0.0
C668 C 0.09749 0.61118 0.16054 0.0
C669 C 0.09675 0.60309 0.11728 0.0
H670 H 0.12337 0.65024 0.21539 0.0
C671 C 0.11768 0.63041 0.09459 0.0
H672 H 0.08172 0.59044 0.17866 0.0
C673 C 0.14161 0.66455 0.11568 0.0
C674 C 0.14447 0.67162 0.15949 0.0
H675 H 0.11788 0.62464 0.06134 0.0
H676 H 0.15976 0.6846 0.0984 0.0
C677 C 0.1212 0.64524 0.1815 0.0
loop_
_geom_bond_atom_site_label_1
_geom_bond_atom_site_label_2
_geom_bond_distance
_geom_bond_site_symmetry_2
_ccdc_geom_bond_type
H0 C8 0.940 . S
H1 C11 0.940 . S
H2 C13 0.940 . S
H3 C14 0.940 . S
H4 C17 0.940 . S
H5 C19 0.940 . S
N6 N7 1.188 . S
N6 C10 1.477 1_554 S
N7 N6 1.188 . S
N7 C16 1.478 1_655 S
C8 H0 0.940 . S
C8 C9 1.390 . S
C8 C10 1.322 . S
C9 C8 1.390 . S
C9 C13 1.370 . S
C10 N6 1.477 1_556 S
C10 C8 1.322 . S
C10 C11 1.447 . S
C11 H1 0.940 . S
C11 C10 1.447 . S
C11 C12 1.373 . S
C12 C11 1.373 . S
C12 C13 1.417 . S
C13 H2 0.940 . S
C13 C9 1.370 . S
C13 C12 1.417 . S
C14 H3 0.940 . S
C14 C15 1.390 . S
C14 C16 1.322 . S
C15 C14 1.390 . S
C15 C19 1.370 . S
C16 N7 1.478 1_455 S
C16 C14 1.322 . S
C16 C17 1.447 . S
C17 H4 0.940 . S
C17 C16 1.447 . S
C17 C18 1.373 . S
C18 C17 1.373 . S
C18 C19 1.417 . S
C19 H5 0.940 . S
C19 C15 1.370 . S
C19 C18 1.417 . S
H20 C28 0.940 . S
H21 C31 0.940 . S
H22 C33 0.940 . S
H23 C34 0.940 . S
H24 C37 0.940 . S
H25 C39 0.940 . S
N26 N27 1.204 . S
N26 C30 1.477 . S
N27 N26 1.204 . S
N27 C36 1.466 1_545 S
C28 H20 0.940 . S
C28 C29 1.390 . S
C28 C30 1.322 . S
C29 C28 1.390 . S
C29 C33 1.370 . S
C30 N26 1.477 . S
C30 C28 1.322 . S
C30 C31 1.447 . S
C31 H21 0.940 . S
C31 C30 1.447 . S
C31 C32 1.373 . S
C32 C31 1.373 . S
C32 C33 1.417 . S
C33 H22 0.940 . S
C33 C29 1.370 . S
C33 C32 1.417 . S
C34 H23 0.940 . S
C34 C35 1.390 . S
C34 C36 1.322 . S
C35 C34 1.390 . S
C35 C39 1.370 . S
C36 N27 1.466 1_565 S
C36 C34 1.322 . S
C36 C37 1.447 . S
C37 H24 0.940 . S
C37 C36 1.447 . S
C37 C38 1.373 . S
C38 C37 1.373 . S
C38 C39 1.417 . S
C39 H25 0.940 . S
C39 C35 1.370 . S
C39 C38 1.417 . S
H40 C48 0.940 . S
H41 C51 0.940 . S
H42 C53 0.940 . S
H43 C54 0.940 . S
H44 C57 0.940 . S
H45 C59 0.940 . S
N46 N47 1.190 . S
N46 C50 1.477 . S
N47 N46 1.190 . S
N47 C56 1.477 1_556 S
C48 H40 0.940 . S
C48 C49 1.390 . S
C48 C50 1.322 . S
C49 C48 1.390 . S
C49 C53 1.370 . S
C50 N46 1.477 . S
C50 C48 1.322 . S
C50 C51 1.447 . S
C51 H41 0.940 . S
C51 C50 1.447 . S
C51 C52 1.373 . S
C52 C51 1.373 . S
C52 C53 1.417 . S
C53 H42 0.940 . S
C53 C49 1.370 . S
C53 C52 1.417 . S
C54 H43 0.940 . S
C54 C55 1.390 . S
C54 C56 1.322 . S
C55 C54 1.390 . S
C55 C59 1.370 . S
C56 N47 1.477 1_554 S
C56 C54 1.322 . S
C56 C57 1.447 . S
C57 H44 0.940 . S
C57 C56 1.447 . S
C57 C58 1.373 . S
C58 C57 1.373 . S
C58 C59 1.417 . S
C59 H45 0.940 . S
C59 C55 1.370 . S
C59 C58 1.417 . S
H60 C68 0.940 . S
H61 C71 0.940 . S
H62 C73 0.940 . S
H63 C74 0.940 . S
H64 C77 0.940 . S
H65 C79 0.940 . S
N66 N67 1.190 . S
N66 C70 1.477 1_655 S
N67 N66 1.190 . S
N67 C76 1.477 . S
C68 H60 0.940 . S
C68 C69 1.390 . S
C68 C70 1.322 . S
C69 C68 1.390 . S
C69 C73 1.370 . S
C70 N66 1.477 1_455 S
C70 C68 1.322 . S
C70 C71 1.447 . S
C71 H61 0.940 . S
C71 C70 1.447 . S
C71 C72 1.373 . S
C72 C71 1.373 . S
C72 C73 1.417 . S
C73 H62 0.940 . S
C73 C69 1.370 . S
C73 C72 1.417 . S
C74 H63 0.940 . S
C74 C75 1.390 . S
C74 C76 1.322 . S
C75 C74 1.390 . S
C75 C79 1.370 . S
C76 N67 1.477 . S
C76 C74 1.322 . S
C76 C77 1.447 . S
C77 H64 0.940 . S
C77 C76 1.447 . S
C77 C78 1.373 . S
C78 C77 1.373 . S
C78 C79 1.417 . S
C79 H65 0.940 . S
C79 C75 1.370 . S
C79 C78 1.417 . S
H80 C88 0.940 . S
H81 C91 0.940 . S
H82 C93 0.940 . S
H83 C94 0.940 . S
H84 C97 0.940 . S
H85 C99 0.940 . S
N86 N87 1.190 . S
N86 C90 1.477 1_554 S
N87 N86 1.190 . S
N87 C96 1.477 1_545 S
C88 H80 0.940 . S
C88 C89 1.390 . S
C88 C90 1.322 . S
C89 C88 1.390 . S
C89 C93 1.370 . S
C90 N86 1.477 1_556 S
C90 C88 1.322 . S
C90 C91 1.447 . S
C91 H81 0.940 . S
C91 C90 1.447 . S
C91 C92 1.373 . S
C92 C91 1.373 . S
C92 C93 1.417 . S
C93 H82 0.940 . S
C93 C89 1.370 . S
C93 C92 1.417 . S
C94 H83 0.940 . S
C94 C95 1.390 . S
C94 C96 1.322 . S
C95 C94 1.390 . S
C95 C99 1.370 . S
C96 N87 1.477 1_565 S
C96 C94 1.322 . S
C96 C97 1.447 . S
C97 H84 0.940 . S
C97 C96 1.447 . S
C97 C98 1.373 . S
C98 C97 1.373 . S
C98 C99 1.417 . S
C99 H85 0.940 . S
C99 C95 1.370 . S
C99 C98 1.417 . S
H100 C108 0.940 . S
H101 C111 0.940 . S
H102 C113 0.940 . S
H103 C114 0.940 . S
H104 C117 0.940 . S
H105 C119 0.940 . S
N106 N107 1.190 . S
N106 C110 1.477 . S
N107 N106 1.190 . S
N107 C116 1.477 . S
C108 H100 0.940 . S
C108 C109 1.390 . S
C108 C110 1.322 . S
C109 C108 1.390 . S
C109 C113 1.370 . S
C110 N106 1.477 . S
C110 C108 1.322 . S
C110 C111 1.447 . S
C111 H101 0.940 . S
C111 C110 1.447 . S
C111 C112 1.373 . S
C112 C111 1.373 . S
C112 C113 1.417 . S
C113 H102 0.940 . S
C113 C109 1.370 . S
C113 C112 1.417 . S
C114 H103 0.940 . S
C114 C115 1.390 . S
C114 C116 1.322 . S
C115 C114 1.390 . S
C115 C119 1.370 . S
C116 N107 1.477 . S
C116 C114 1.322 . S
C116 C117 1.447 . S
C117 H104 0.940 . S
C117 C116 1.447 . S
C117 C118 1.373 . S
C118 C117 1.373 . S
C118 C119 1.417 . S
C119 H105 0.940 . S
C119 C115 1.370 . S
C119 C118 1.417 . S
C120 C121 1.443 . S
C120 N124 1.376 . S
C120 C158 1.389 . S
C121 C120 1.443 . S
C121 C122 1.340 . S
C121 H161 0.951 . S
C122 C121 1.340 . S
C122 C123 1.439 . S
C122 H162 0.950 . S
C123 C122 1.439 . S
C123 N124 1.374 . S
C123 C157 1.395 . S
N124 C120 1.376 . S
N124 C123 1.374 . S
N124 Co125 2.008 . S
Co125 N124 2.008 . S
Co125 N126 1.995 . S
Co125 N131 2.008 . S
Co125 N136 1.995 . S
Co125 N141 2.282 . S
Co125 N147 2.282 . S
N126 Co125 1.995 . S
N126 C127 1.376 . S
N126 C130 1.383 . S
C127 N126 1.376 . S
C127 C128 1.446 . S
C127 C157 1.391 . S
C128 C127 1.446 . S
C128 C129 1.339 . S
C128 H163 0.949 . S
C129 C128 1.339 . S
C129 C130 1.439 . S
C129 H164 0.950 . S
C130 N126 1.383 . S
C130 C129 1.439 . S
C130 C159 1.392 . S
N131 Co125 2.008 . S
N131 C132 1.376 . S
N131 C135 1.374 . S
C132 N131 1.376 . S
C132 C133 1.443 . S
C132 C159 1.389 . S
C133 C132 1.443 . S
C133 C134 1.340 . S
C133 H165 0.951 . S
C134 C133 1.340 . S
C134 C135 1.439 . S
C134 H166 0.950 . S
C135 N131 1.374 . S
C135 C134 1.439 . S
C135 C160 1.395 . S
N136 Co125 1.995 . S
N136 C137 1.376 . S
N136 C140 1.383 . S
C137 N136 1.376 . S
C137 C138 1.446 . S
C137 C160 1.391 . S
C138 C137 1.446 . S
C138 C139 1.339 . S
C138 H167 0.949 . S
C139 C138 1.339 . S
C139 C140 1.439 . S
C139 H168 0.950 . S
C140 N136 1.383 . S
C140 C139 1.439 . S
C140 C158 1.392 . S
N141 Co125 2.282 . S
N141 C144 1.332 . S
N141 C146 1.332 . S
C142 C143 1.386 . S
C142 C145 1.388 . S
C143 C142 1.386 . S
C143 C144 1.382 . S
C143 H169 0.950 . S
C144 N141 1.332 . S
C144 C143 1.382 . S
C144 H155 0.952 . S
C145 C142 1.388 . S
C145 C146 1.382 . S
C145 H170 0.950 . S
C146 N141 1.332 . S
C146 C145 1.382 . S
C146 H156 0.948 . S
N147 Co125 2.282 . S
N147 C151 1.332 . S
N147 C152 1.332 . S
C148 C149 1.388 . S
C148 C152 1.382 . S
C148 H171 0.950 . S
C149 C148 1.388 . S
C149 C150 1.386 . S
C150 C149 1.386 . S
C150 C151 1.382 . S
C150 H172 0.950 . S
C151 N147 1.332 . S
C151 C150 1.382 . S
C151 H153 0.952 . S
C152 N147 1.332 . S
C152 C148 1.382 . S
C152 H154 0.948 . S
H153 C151 0.952 . S
H154 C152 0.948 . S
H155 C144 0.952 . S
H156 C146 0.948 . S
C157 C123 1.395 . S
C157 C127 1.391 . S
C158 C120 1.389 . S
C158 C140 1.392 . S
C159 C130 1.392 . S
C159 C132 1.389 . S
C160 C135 1.395 . S
C160 C137 1.391 . S
H161 C121 0.951 . S
H162 C122 0.950 . S
H163 C128 0.949 . S
H164 C129 0.950 . S
H165 C133 0.951 . S
H166 C134 0.950 . S
H167 C138 0.949 . S
H168 C139 0.950 . S
H169 C143 0.950 . S
H170 C145 0.950 . S
H171 C148 0.950 . S
H172 C150 0.950 . S
C173 C174 1.443 . S
C173 N177 1.376 . S
C173 C211 1.389 . S
C174 C173 1.443 . S
C174 C175 1.340 . S
C174 H214 0.951 . S
C175 C174 1.340 . S
C175 C176 1.439 . S
C175 H215 0.950 . S
C176 C175 1.439 . S
C176 N177 1.374 . S
C176 C210 1.395 . S
N177 C173 1.376 . S
N177 C176 1.374 . S
N177 Co178 2.008 . S
Co178 N177 2.008 . S
Co178 N179 1.995 . S
Co178 N184 2.008 . S
Co178 N189 1.995 . S
Co178 N194 2.282 . S
Co178 N200 2.282 . S
N179 Co178 1.995 . S
N179 C180 1.376 . S
N179 C183 1.383 . S
C180 N179 1.376 . S
C180 C181 1.446 . S
C180 C210 1.391 . S
C181 C180 1.446 . S
C181 C182 1.339 . S
C181 H216 0.949 . S
C182 C181 1.339 . S
C182 C183 1.439 . S
C182 H217 0.950 . S
C183 N179 1.383 . S
C183 C182 1.439 . S
C183 C212 1.392 . S
N184 Co178 2.008 . S
N184 C185 1.376 . S
N184 C188 1.374 . S
C185 N184 1.376 . S
C185 C186 1.443 . S
C185 C212 1.389 . S
C186 C185 1.443 . S
C186 C187 1.340 . S
C186 H218 0.951 . S
C187 C186 1.340 . S
C187 C188 1.439 . S
C187 H219 0.950 . S
C188 N184 1.374 . S
C188 C187 1.439 . S
C188 C213 1.395 . S
N189 Co178 1.995 . S
N189 C190 1.376 . S
N189 C193 1.383 . S
C190 N189 1.376 . S
C190 C191 1.446 . S
C190 C213 1.391 . S
C191 C190 1.446 . S
C191 C192 1.339 . S
C191 H220 0.949 . S
C192 C191 1.339 . S
C192 C193 1.439 . S
C192 H221 0.950 . S
C193 N189 1.383 . S
C193 C192 1.439 . S
C193 C211 1.392 . S
N194 Co178 2.282 . S
N194 C197 1.332 . S
N194 C199 1.332 . S
C195 C196 1.386 . S
C195 C198 1.388 . S
C196 C195 1.386 . S
C196 C197 1.382 . S
C196 H222 0.950 . S
C197 N194 1.332 . S
C197 C196 1.382 . S
C197 H208 0.952 . S
C198 C195 1.388 . S
C198 C199 1.382 . S
C198 H223 0.950 . S
C199 N194 1.332 . S
C199 C198 1.382 . S
C199 H209 0.948 . S
N200 Co178 2.282 . S
N200 C204 1.332 . S
N200 C205 1.332 . S
C201 C202 1.388 . S
C201 C205 1.382 . S
C201 H224 0.950 . S
C202 C201 1.388 . S
C202 C203 1.386 . S
C203 C202 1.386 . S
C203 C204 1.382 . S
C203 H225 0.950 . S
C204 N200 1.332 . S
C204 C203 1.382 . S
C204 H206 0.952 . S
C205 N200 1.332 . S
C205 C201 1.382 . S
C205 H207 0.948 . S
H206 C204 0.952 . S
H207 C205 0.948 . S
H208 C197 0.952 . S
H209 C199 0.948 . S
C210 C176 1.395 . S
C210 C180 1.391 . S
C211 C173 1.389 . S
C211 C193 1.392 . S
C212 C183 1.392 . S
C212 C185 1.389 . S
C213 C188 1.395 . S
C213 C190 1.391 . S
H214 C174 0.951 . S
H215 C175 0.950 . S
H216 C181 0.949 . S
H217 C182 0.950 . S
H218 C186 0.951 . S
H219 C187 0.950 . S
H220 C191 0.949 . S
H221 C192 0.950 . S
H222 C196 0.950 . S
H223 C198 0.950 . S
H224 C201 0.950 . S
H225 C203 0.950 . S
C226 C227 1.443 . S
C226 N230 1.376 . S
C226 C264 1.389 . S
C227 C226 1.443 . S
C227 C228 1.340 . S
C227 H267 0.951 . S
C228 C227 1.340 . S
C228 C229 1.439 . S
C228 H268 0.950 . S
C229 C228 1.439 . S
C229 N230 1.374 . S
C229 C263 1.395 . S
N230 C226 1.376 . S
N230 C229 1.374 . S
N230 Co231 2.008 . S
Co231 N230 2.008 . S
Co231 N232 1.995 . S
Co231 N237 2.008 . S
Co231 N242 1.995 . S
Co231 N247 2.282 . S
Co231 N253 2.282 . S
N232 Co231 1.995 . S
N232 C233 1.376 . S
N232 C236 1.383 . S
C233 N232 1.376 . S
C233 C234 1.446 . S
C233 C263 1.391 . S
C234 C233 1.446 . S
C234 C235 1.339 . S
C234 H269 0.949 . S
C235 C234 1.339 . S
C235 C236 1.439 . S
C235 H270 0.950 . S
C236 N232 1.383 . S
C236 C235 1.439 . S
C236 C265 1.392 . S
N237 Co231 2.008 . S
N237 C238 1.376 . S
N237 C241 1.374 . S
C238 N237 1.376 . S
C238 C239 1.443 . S
C238 C265 1.389 . S
C239 C238 1.443 . S
C239 C240 1.340 . S
C239 H271 0.951 . S
C240 C239 1.340 . S
C240 C241 1.439 . S
C240 H272 0.950 . S
C241 N237 1.374 . S
C241 C240 1.439 . S
C241 C266 1.395 . S
N242 Co231 1.995 . S
N242 C243 1.376 . S
N242 C246 1.383 . S
C243 N242 1.376 . S
C243 C244 1.446 . S
C243 C266 1.391 . S
C244 C243 1.446 . S
C244 C245 1.339 . S
C244 H273 0.949 . S
C245 C244 1.339 . S
C245 C246 1.439 . S
C245 H274 0.950 . S
C246 N242 1.383 . S
C246 C245 1.439 . S
C246 C264 1.392 . S
N247 Co231 2.282 . S
N247 C250 1.332 . S
N247 C252 1.332 . S
C248 C249 1.386 . S
C248 C251 1.388 . S
C249 C248 1.386 . S
C249 C250 1.382 . S
C249 H275 0.950 . S
C250 N247 1.332 . S
C250 C249 1.382 . S
C250 H261 0.952 . S
C251 C248 1.388 . S
C251 C252 1.382 . S
C251 H276 0.950 . S
C252 N247 1.332 . S
C252 C251 1.382 . S
C252 H262 0.948 . S
N253 Co231 2.282 . S
N253 C257 1.332 . S
N253 C258 1.332 . S
C254 C255 1.388 . S
C254 C258 1.382 . S
C254 H277 0.950 . S
C255 C254 1.388 . S
C255 C256 1.386 . S
C256 C255 1.386 . S
C256 C257 1.382 . S
C256 H278 0.950 . S
C257 N253 1.332 . S
C257 C256 1.382 . S
C257 H259 0.952 . S
C258 N253 1.332 . S
C258 C254 1.382 . S
C258 H260 0.948 . S
H259 C257 0.952 . S
H260 C258 0.948 . S
H261 C250 0.952 . S
H262 C252 0.948 . S
C263 C229 1.395 . S
C263 C233 1.391 . S
C264 C226 1.389 . S
C264 C246 1.392 . S
C265 C236 1.392 . S
C265 C238 1.389 . S
C266 C241 1.395 . S
C266 C243 1.391 . S
H267 C227 0.951 . S
H268 C228 0.950 . S
H269 C234 0.949 . S
H270 C235 0.950 . S
H271 C239 0.951 . S
H272 C240 0.950 . S
H273 C244 0.949 . S
H274 C245 0.950 . S
H275 C249 0.950 . S
H276 C251 0.950 . S
H277 C254 0.950 . S
H278 C256 0.950 . S
C279 C280 1.443 . S
C279 N283 1.376 . S
C279 C317 1.389 . S
C280 C279 1.443 . S
C280 C281 1.340 . S
C280 H320 0.951 . S
C281 C280 1.340 . S
C281 C282 1.439 . S
C281 H321 0.950 . S
C282 C281 1.439 . S
C282 N283 1.374 . S
C282 C316 1.395 . S
N283 C279 1.376 . S
N283 C282 1.374 . S
N283 Co284 2.008 . S
Co284 N283 2.008 . S
Co284 N285 1.995 . S
Co284 N290 2.008 . S
Co284 N295 1.995 . S
Co284 N300 2.282 . S
Co284 N306 2.282 . S
N285 Co284 1.995 . S
N285 C286 1.376 . S
N285 C289 1.383 . S
C286 N285 1.376 . S
C286 C287 1.446 . S
C286 C316 1.391 . S
C287 C286 1.446 . S
C287 C288 1.339 . S
C287 H322 0.949 . S
C288 C287 1.339 . S
C288 C289 1.439 . S
C288 H323 0.950 . S
C289 N285 1.383 . S
C289 C288 1.439 . S
C289 C318 1.392 . S
N290 Co284 2.008 . S
N290 C291 1.376 . S
N290 C294 1.374 . S
C291 N290 1.376 . S
C291 C292 1.443 . S
C291 C318 1.389 . S
C292 C291 1.443 . S
C292 C293 1.340 . S
C292 H324 0.951 . S
C293 C292 1.340 . S
C293 C294 1.439 . S
C293 H325 0.950 . S
C294 N290 1.374 . S
C294 C293 1.439 . S
C294 C319 1.395 . S
N295 Co284 1.995 . S
N295 C296 1.376 . S
N295 C299 1.383 . S
C296 N295 1.376 . S
C296 C297 1.446 . S
C296 C319 1.391 . S
C297 C296 1.446 . S
C297 C298 1.339 . S
C297 H326 0.949 . S
C298 C297 1.339 . S
C298 C299 1.439 . S
C298 H327 0.950 . S
C299 N295 1.383 . S
C299 C298 1.439 . S
C299 C317 1.392 . S
N300 Co284 2.282 . S
N300 C303 1.332 . S
N300 C305 1.332 . S
C301 C302 1.386 . S
C301 C304 1.388 . S
C302 C301 1.386 . S
C302 C303 1.382 . S
C302 H328 0.950 . S
C303 N300 1.332 . S
C303 C302 1.382 . S
C303 H314 0.952 . S
C304 C301 1.388 . S
C304 C305 1.382 . S
C304 H329 0.950 . S
C305 N300 1.332 . S
C305 C304 1.382 . S
C305 H315 0.948 . S
N306 Co284 2.282 . S
N306 C310 1.332 . S
N306 C311 1.332 . S
C307 C308 1.388 . S
C307 C311 1.382 . S
C307 H330 0.950 . S
C308 C307 1.388 . S
C308 C309 1.386 . S
C309 C308 1.386 . S
C309 C310 1.382 . S
C309 H331 0.950 . S
C310 N306 1.332 . S
C310 C309 1.382 . S
C310 H312 0.952 . S
C311 N306 1.332 . S
C311 C307 1.382 . S
C311 H313 0.948 . S
H312 C310 0.952 . S
H313 C311 0.948 . S
H314 C303 0.952 . S
H315 C305 0.948 . S
C316 C282 1.395 . S
C316 C286 1.391 . S
C317 C279 1.389 . S
C317 C299 1.392 . S
C318 C289 1.392 . S
C318 C291 1.389 . S
C319 C294 1.395 . S
C319 C296 1.391 . S
H320 C280 0.951 . S
H321 C281 0.950 . S
H322 C287 0.949 . S
H323 C288 0.950 . S
H324 C292 0.951 . S
H325 C293 0.950 . S
H326 C297 0.949 . S
H327 C298 0.950 . S
H328 C302 0.950 . S
H329 C304 0.950 . S
H330 C307 0.950 . S
H331 C309 0.950 . S
C332 C333 1.443 . S
C332 N336 1.376 . S
C332 C370 1.389 . S
C333 C332 1.443 . S
C333 C334 1.340 . S
C333 H373 0.951 . S
C334 C333 1.340 . S
C334 C335 1.439 . S
C334 H374 0.950 . S
C335 C334 1.439 . S
C335 N336 1.374 . S
C335 C369 1.395 . S
N336 C332 1.376 . S
N336 C335 1.374 . S
N336 Co337 2.008 . S
Co337 N336 2.008 . S
Co337 N338 1.995 . S
Co337 N343 2.008 . S
Co337 N348 1.995 . S
Co337 N353 2.282 . S
Co337 N359 2.282 . S
N338 Co337 1.995 . S
N338 C339 1.376 . S
N338 C342 1.383 . S
C339 N338 1.376 . S
C339 C340 1.446 . S
C339 C369 1.391 . S
C340 C339 1.446 . S
C340 C341 1.339 . S
C340 H375 0.949 . S
C341 C340 1.339 . S
C341 C342 1.439 . S
C341 H376 0.950 . S
C342 N338 1.383 . S
C342 C341 1.439 . S
C342 C371 1.392 . S
N343 Co337 2.008 . S
N343 C344 1.376 . S
N343 C347 1.374 . S
C344 N343 1.376 . S
C344 C345 1.443 . S
C344 C371 1.389 . S
C345 C344 1.443 . S
C345 C346 1.340 . S
C345 H377 0.951 . S
C346 C345 1.340 . S
C346 C347 1.439 . S
C346 H378 0.950 . S
C347 N343 1.374 . S
C347 C346 1.439 . S
C347 C372 1.395 . S
N348 Co337 1.995 . S
N348 C349 1.376 . S
N348 C352 1.383 . S
C349 N348 1.376 . S
C349 C350 1.446 . S
C349 C372 1.391 . S
C350 C349 1.446 . S
C350 C351 1.339 . S
C350 H379 0.949 . S
C351 C350 1.339 . S
C351 C352 1.439 . S
C351 H380 0.950 . S
C352 N348 1.383 . S
C352 C351 1.439 . S
C352 C370 1.392 . S
N353 Co337 2.282 . S
N353 C356 1.332 . S
N353 C358 1.332 . S
C354 C355 1.386 . S
C354 C357 1.388 . S
C355 C354 1.386 . S
C355 C356 1.382 . S
C355 H381 0.950 . S
C356 N353 1.332 . S
C356 C355 1.382 . S
C356 H367 0.952 . S
C357 C354 1.388 . S
C357 C358 1.382 . S
C357 H382 0.950 . S
C358 N353 1.332 . S
C358 C357 1.382 . S
C358 H368 0.948 . S
N359 Co337 2.282 . S
N359 C363 1.332 . S
N359 C364 1.332 . S
C360 C361 1.388 . S
C360 C364 1.382 . S
C360 H383 0.950 . S
C361 C360 1.388 . S
C361 C362 1.386 . S
C362 C361 1.386 . S
C362 C363 1.382 . S
C362 H384 0.950 . S
C363 N359 1.332 . S
C363 C362 1.382 . S
C363 H365 0.952 . S
C364 N359 1.332 . S
C364 C360 1.382 . S
C364 H366 0.948 . S
H365 C363 0.952 . S
H366 C364 0.948 . S
H367 C356 0.952 . S
H368 C358 0.948 . S
C369 C335 1.395 . S
C369 C339 1.391 . S
C370 C332 1.389 . S
C370 C352 1.392 . S
C371 C342 1.392 . S
C371 C344 1.389 . S
C372 C347 1.395 . S
C372 C349 1.391 . S
H373 C333 0.951 . S
H374 C334 0.950 . S
H375 C340 0.949 . S
H376 C341 0.950 . S
H377 C345 0.951 . S
H378 C346 0.950 . S
H379 C350 0.949 . S
H380 C351 0.950 . S
H381 C355 0.950 . S
H382 C357 0.950 . S
H383 C360 0.950 . S
H384 C362 0.950 . S
C385 C386 1.443 . S
C385 N389 1.376 . S
C385 C423 1.389 . S
C386 C385 1.443 . S
C386 C387 1.340 . S
C386 H426 0.951 . S
C387 C386 1.340 . S
C387 C388 1.439 . S
C387 H427 0.950 . S
C388 C387 1.439 . S
C388 N389 1.374 . S
C388 C422 1.395 . S
N389 C385 1.376 . S
N389 C388 1.374 . S
N389 Co390 2.008 . S
Co390 N389 2.008 . S
Co390 N391 1.995 . S
Co390 N396 2.008 . S
Co390 N401 1.995 . S
Co390 N406 2.282 . S
Co390 N412 2.282 . S
N391 Co390 1.995 . S
N391 C392 1.376 . S
N391 C395 1.383 . S
C392 N391 1.376 . S
C392 C393 1.446 . S
C392 C422 1.391 . S
C393 C392 1.446 . S
C393 C394 1.339 . S
C393 H428 0.949 . S
C394 C393 1.339 . S
C394 C395 1.439 . S
C394 H429 0.950 . S
C395 N391 1.383 . S
C395 C394 1.439 . S
C395 C424 1.392 . S
N396 Co390 2.008 . S
N396 C397 1.376 . S
N396 C400 1.374 . S
C397 N396 1.376 . S
C397 C398 1.443 . S
C397 C424 1.389 . S
C398 C397 1.443 . S
C398 C399 1.340 . S
C398 H430 0.951 . S
C399 C398 1.340 . S
C399 C400 1.439 . S
C399 H431 0.950 . S
C400 N396 1.374 . S
C400 C399 1.439 . S
C400 C425 1.395 . S
N401 Co390 1.995 . S
N401 C402 1.376 . S
N401 C405 1.383 . S
C402 N401 1.376 . S
C402 C403 1.446 . S
C402 C425 1.391 . S
C403 C402 1.446 . S
C403 C404 1.339 . S
C403 H432 0.949 . S
C404 C403 1.339 . S
C404 C405 1.439 . S
C404 H433 0.950 . S
C405 N401 1.383 . S
C405 C404 1.439 . S
C405 C423 1.392 . S
N406 Co390 2.282 . S
N406 C409 1.332 . S
N406 C411 1.332 . S
C407 C408 1.386 . S
C407 C410 1.388 . S
C408 C407 1.386 . S
C408 C409 1.382 . S
C408 H434 0.950 . S
C409 N406 1.332 . S
C409 C408 1.382 . S
C409 H420 0.952 . S
C410 C407 1.388 . S
C410 C411 1.382 . S
C410 H435 0.950 . S
C411 N406 1.332 . S
C411 C410 1.382 . S
C411 H421 0.948 . S
N412 Co390 2.282 . S
N412 C416 1.332 . S
N412 C417 1.332 . S
C413 C414 1.388 . S
C413 C417 1.382 . S
C413 H436 0.950 . S
C414 C413 1.388 . S
C414 C415 1.386 . S
C415 C414 1.386 . S
C415 C416 1.382 . S
C415 H437 0.950 . S
C416 N412 1.332 . S
C416 C415 1.382 . S
C416 H418 0.952 . S
C417 N412 1.332 . S
C417 C413 1.382 . S
C417 H419 0.948 . S
H418 C416 0.952 . S
H419 C417 0.948 . S
H420 C409 0.952 . S
H421 C411 0.948 . S
C422 C388 1.395 . S
C422 C392 1.391 . S
C423 C385 1.389 . S
C423 C405 1.392 . S
C424 C395 1.392 . S
C424 C397 1.389 . S
C425 C400 1.395 . S
C425 C402 1.391 . S
H426 C386 0.951 . S
H427 C387 0.950 . S
H428 C393 0.949 . S
H429 C394 0.950 . S
H430 C398 0.951 . S
H431 C399 0.950 . S
H432 C403 0.949 . S
H433 C404 0.950 . S
H434 C408 0.950 . S
H435 C410 0.950 . S
H436 C413 0.950 . S
H437 C415 0.950 . S
C438 C439 1.387 . S
C438 H442 0.950 . S
C438 C447 1.390 . S
C439 C438 1.387 . S
C439 C441 1.387 . S
H440 C447 0.950 . S
C441 C439 1.387 . S
C441 C443 1.390 . S
C441 H445 0.950 . S
H442 C438 0.950 . S
C443 C441 1.390 . S
C443 C444 1.387 . S
C443 H446 0.950 . S
C444 C443 1.387 . S
C444 C447 1.387 . S
H445 C441 0.950 . S
H446 C443 0.950 . S
C447 C438 1.390 . S
C447 H440 0.950 . S
C447 C444 1.387 . S
C448 C449 1.387 . S
C448 H452 0.950 . S
C448 C457 1.390 . S
C449 C448 1.387 . S
C449 C451 1.387 . S
H450 C457 0.950 . S
C451 C449 1.387 . S
C451 C453 1.390 . S
C451 H455 0.950 . S
H452 C448 0.950 . S
C453 C451 1.390 . S
C453 C454 1.387 . S
C453 H456 0.950 . S
C454 C453 1.387 . S
C454 C457 1.387 . S
H455 C451 0.950 . S
H456 C453 0.950 . S
C457 C448 1.390 . S
C457 H450 0.950 . S
C457 C454 1.387 . S
C458 C459 1.387 . S
C458 H462 0.950 . S
C458 C467 1.390 . S
C459 C458 1.387 . S
C459 C461 1.387 . S
H460 C467 0.950 . S
C461 C459 1.387 . S
C461 C463 1.390 . S
C461 H465 0.950 . S
H462 C458 0.950 . S
C463 C461 1.390 . S
C463 C464 1.387 . S
C463 H466 0.950 . S
C464 C463 1.387 . S
C464 C467 1.387 . S
H465 C461 0.950 . S
H466 C463 0.950 . S
C467 C458 1.390 . S
C467 H460 0.950 . S
C467 C464 1.387 . S
C468 C469 1.387 . S
C468 H472 0.950 . S
C468 C477 1.390 . S
C469 C468 1.387 . S
C469 C471 1.387 . S
H470 C477 0.950 . S
C471 C469 1.387 . S
C471 C473 1.390 . S
C471 H475 0.950 . S
H472 C468 0.950 . S
C473 C471 1.390 . S
C473 C474 1.387 . S
C473 H476 0.950 . S
C474 C473 1.387 . S
C474 C477 1.387 . S
H475 C471 0.950 . S
H476 C473 0.950 . S
C477 C468 1.390 . S
C477 H470 0.950 . S
C477 C474 1.387 . S
C478 C479 1.387 . S
C478 H482 0.950 . S
C478 C487 1.390 . S
C479 C478 1.387 . S
C479 C481 1.387 . S
H480 C487 0.950 . S
C481 C479 1.387 . S
C481 C483 1.390 . S
C481 H485 0.950 . S
H482 C478 0.950 . S
C483 C481 1.390 . S
C483 C484 1.387 . S
C483 H486 0.950 . S
C484 C483 1.387 . S
C484 C487 1.387 . S
H485 C481 0.950 . S
H486 C483 0.950 . S
C487 C478 1.390 . S
C487 H480 0.950 . S
C487 C484 1.387 . S
C488 C489 1.387 . S
C488 H492 0.950 . S
C488 C497 1.390 . S
C489 C488 1.387 . S
C489 C491 1.387 . S
H490 C497 0.950 . S
C491 C489 1.387 . S
C491 C493 1.390 . S
C491 H495 0.950 . S
H492 C488 0.950 . S
C493 C491 1.390 . S
C493 C494 1.387 . S
C493 H496 0.950 . S
C494 C493 1.387 . S
C494 C497 1.387 . S
H495 C491 0.950 . S
H496 C493 0.950 . S
C497 C488 1.390 . S
C497 H490 0.950 . S
C497 C494 1.387 . S
C498 C499 1.387 . S
C498 H502 0.950 . S
C498 C507 1.390 . S
C499 C498 1.387 . S
C499 C501 1.387 . S
H500 C507 0.950 . S
C501 C499 1.387 . S
C501 C503 1.390 . S
C501 H505 0.950 . S
H502 C498 0.950 . S
C503 C501 1.390 . S
C503 C504 1.387 . S
C503 H506 0.950 . S
C504 C503 1.387 . S
C504 C507 1.387 . S
H505 C501 0.950 . S
H506 C503 0.950 . S
C507 C498 1.390 . S
C507 H500 0.950 . S
C507 C504 1.387 . S
C508 C509 1.387 . S
C508 H512 0.950 . S
C508 C517 1.390 . S
C509 C508 1.387 . S
C509 C511 1.387 . S
H510 C517 0.950 . S
C511 C509 1.387 . S
C511 C513 1.390 . S
C511 H515 0.950 . S
H512 C508 0.950 . S
C513 C511 1.390 . S
C513 C514 1.387 . S
C513 H516 0.950 . S
C514 C513 1.387 . S
C514 C517 1.387 . S
H515 C511 0.950 . S
H516 C513 0.950 . S
C517 C508 1.390 . S
C517 H510 0.950 . S
C517 C514 1.387 . S
C518 C519 1.387 . S
C518 H522 0.950 . S
C518 C527 1.390 . S
C519 C518 1.387 . S
C519 C521 1.387 . S
H520 C527 0.950 . S
C521 C519 1.387 . S
C521 C523 1.390 . S
C521 H525 0.950 . S
H522 C518 0.950 . S
C523 C521 1.390 . S
C523 C524 1.387 . S
C523 H526 0.950 . S
C524 C523 1.387 . S
C524 C527 1.387 . S
H525 C521 0.950 . S
H526 C523 0.950 . S
C527 C518 1.390 . S
C527 H520 0.950 . S
C527 C524 1.387 . S
C528 C529 1.387 . S
C528 H532 0.950 . S
C528 C537 1.390 . S
C529 C528 1.387 . S
C529 C531 1.387 . S
H530 C537 0.950 . S
C531 C529 1.387 . S
C531 C533 1.390 . S
C531 H535 0.950 . S
H532 C528 0.950 . S
C533 C531 1.390 . S
C533 C534 1.387 . S
C533 H536 0.950 . S
C534 C533 1.387 . S
C534 C537 1.387 . S
H535 C531 0.950 . S
H536 C533 0.950 . S
C537 C528 1.390 . S
C537 H530 0.950 . S
C537 C534 1.387 . S
C538 C539 1.387 . S
C538 H542 0.950 . S
C538 C547 1.390 . S
C539 C538 1.387 . S
C539 C541 1.387 . S
H540 C547 0.950 . S
C541 C539 1.387 . S
C541 C543 1.390 . S
C541 H545 0.950 . S
H542 C538 0.950 . S
C543 C541 1.390 . S
C543 C544 1.387 . S
C543 H546 0.950 . S
C544 C543 1.387 . S
C544 C547 1.387 . S
H545 C541 0.950 . S
H546 C543 0.950 . S
C547 C538 1.390 . S
C547 H540 0.950 . S
C547 C544 1.387 . S
C548 C549 1.387 . S
C548 H552 0.950 . S
C548 C557 1.390 . S
C549 C548 1.387 . S
C549 C551 1.387 . S
H550 C557 0.950 . S
C551 C549 1.387 . S
C551 C553 1.390 . S
C551 H555 0.950 . S
H552 C548 0.950 . S
C553 C551 1.390 . S
C553 C554 1.387 . S
C553 H556 0.950 . S
C554 C553 1.387 . S
C554 C557 1.387 . S
H555 C551 0.950 . S
H556 C553 0.950 . S
C557 C548 1.390 . S
C557 H550 0.950 . S
C557 C554 1.387 . S
C558 C559 1.387 . S
C558 H562 0.950 . S
C558 C567 1.390 . S
C559 C558 1.387 . S
C559 C561 1.387 . S
H560 C567 0.950 . S
C561 C559 1.387 . S
C561 C563 1.390 . S
C561 H565 0.950 . S
H562 C558 0.950 . S
C563 C561 1.390 . S
C563 C564 1.387 . S
C563 H566 0.950 . S
C564 C563 1.387 . S
C564 C567 1.387 . S
H565 C561 0.950 . S
H566 C563 0.950 . S
C567 C558 1.390 . S
C567 H560 0.950 . S
C567 C564 1.387 . S
C568 C569 1.387 . S
C568 H572 0.950 . S
C568 C577 1.390 . S
C569 C568 1.387 . S
C569 C571 1.387 . S
H570 C577 0.950 . S
C571 C569 1.387 . S
C571 C573 1.390 . S
C571 H575 0.950 . S
H572 C568 0.950 . S
C573 C571 1.390 . S
C573 C574 1.387 . S
C573 H576 0.950 . S
C574 C573 1.387 . S
C574 C577 1.387 . S
H575 C571 0.950 . S
H576 C573 0.950 . S
C577 C568 1.390 . S
C577 H570 0.950 . S
C577 C574 1.387 . S
C578 C579 1.387 . S
C578 H582 0.950 . S
C578 C587 1.390 . S
C579 C578 1.387 . S
C579 C581 1.387 . S
H580 C587 0.950 . S
C581 C579 1.387 . S
C581 C583 1.390 . S
C581 H585 0.950 . S
H582 C578 0.950 . S
C583 C581 1.390 . S
C583 C584 1.387 . S
C583 H586 0.950 . S
C584 C583 1.387 . S
C584 C587 1.387 . S
H585 C581 0.950 . S
H586 C583 0.950 . S
C587 C578 1.390 . S
C587 H580 0.950 . S
C587 C584 1.387 . S
C588 C589 1.387 . S
C588 H592 0.950 . S
C588 C597 1.390 . S
C589 C588 1.387 . S
C589 C591 1.387 . S
H590 C597 0.950 . S
C591 C589 1.387 . S
C591 C593 1.390 . S
C591 H595 0.950 . S
H592 C588 0.950 . S
C593 C591 1.390 . S
C593 C594 1.387 . S
C593 H596 0.950 . S
C594 C593 1.387 . S
C594 C597 1.387 . S
H595 C591 0.950 . S
H596 C593 0.950 . S
C597 C588 1.390 . S
C597 H590 0.950 . S
C597 C594 1.387 . S
C598 C599 1.387 . S
C598 H602 0.950 . S
C598 C607 1.390 . S
C599 C598 1.387 . S
C599 C601 1.387 . S
H600 C607 0.950 . S
C601 C599 1.387 . S
C601 C603 1.390 . S
C601 H605 0.950 . S
H602 C598 0.950 . S
C603 C601 1.390 . S
C603 C604 1.387 . S
C603 H606 0.950 . S
C604 C603 1.387 . S
C604 C607 1.387 . S
H605 C601 0.950 . S
H606 C603 0.950 . S
C607 C598 1.390 . S
C607 H600 0.950 . S
C607 C604 1.387 . S
C608 C609 1.387 . S
C608 H612 0.950 . S
C608 C617 1.390 . S
C609 C608 1.387 . S
C609 C611 1.387 . S
H610 C617 0.950 . S
C611 C609 1.387 . S
C611 C613 1.390 . S
C611 H615 0.950 . S
H612 C608 0.950 . S
C613 C611 1.390 . S
C613 C614 1.387 . S
C613 H616 0.950 . S
C614 C613 1.387 . S
C614 C617 1.387 . S
H615 C611 0.950 . S
H616 C613 0.950 . S
C617 C608 1.390 . S
C617 H610 0.950 . S
C617 C614 1.387 . S
C618 C619 1.387 . S
C618 H622 0.950 . S
C618 C627 1.390 . S
C619 C618 1.387 . S
C619 C621 1.387 . S
H620 C627 0.950 . S
C621 C619 1.387 . S
C621 C623 1.390 . S
C621 H625 0.950 . S
H622 C618 0.950 . S
C623 C621 1.390 . S
C623 C624 1.387 . S
C623 H626 0.950 . S
C624 C623 1.387 . S
C624 C627 1.387 . S
H625 C621 0.950 . S
H626 C623 0.950 . S
C627 C618 1.390 . S
C627 H620 0.950 . S
C627 C624 1.387 . S
C628 C629 1.387 . S
C628 H632 0.950 . S
C628 C637 1.390 . S
C629 C628 1.387 . S
C629 C631 1.387 . S
H630 C637 0.950 . S
C631 C629 1.387 . S
C631 C633 1.390 . S
C631 H635 0.950 . S
H632 C628 0.950 . S
C633 C631 1.390 . S
C633 C634 1.387 . S
C633 H636 0.950 . S
C634 C633 1.387 . S
C634 C637 1.387 . S
H635 C631 0.950 . S
H636 C633 0.950 . S
C637 C628 1.390 . S
C637 H630 0.950 . S
C637 C634 1.387 . S
C638 C639 1.387 . S
C638 H642 0.950 . S
C638 C647 1.390 . S
C639 C638 1.387 . S
C639 C641 1.387 . S
H640 C647 0.950 . S
C641 C639 1.387 . S
C641 C643 1.390 . S
C641 H645 0.950 . S
H642 C638 0.950 . S
C643 C641 1.390 . S
C643 C644 1.387 . S
C643 H646 0.950 . S
C644 C643 1.387 . S
C644 C647 1.387 . S
H645 C641 0.950 . S
H646 C643 0.950 . S
C647 C638 1.390 . S
C647 H640 0.950 . S
C647 C644 1.387 . S
C648 C649 1.387 . S
C648 H652 0.950 . S
C648 C657 1.390 . S
C649 C648 1.387 . S
C649 C651 1.387 . S
H650 C657 0.950 . S
C651 C649 1.387 . S
C651 C653 1.390 . S
C651 H655 0.950 . S
H652 C648 0.950 . S
C653 C651 1.390 . S
C653 C654 1.387 . S
C653 H656 0.950 . S
C654 C653 1.387 . S
C654 C657 1.387 . S
H655 C651 0.950 . S
H656 C653 0.950 . S
C657 C648 1.390 . S
C657 H650 0.950 . S
C657 C654 1.387 . S
C658 C659 1.387 . S
C658 H662 0.950 . S
C658 C667 1.390 . S
C659 C658 1.387 . S
C659 C661 1.387 . S
H660 C667 0.950 . S
C661 C659 1.387 . S
C661 C663 1.390 . S
C661 H665 0.950 . S
H662 C658 0.950 . S
C663 C661 1.390 . S
C663 C664 1.387 . S
C663 H666 0.950 . S
C664 C663 1.387 . S
C664 C667 1.387 . S
H665 C661 0.950 . S
H666 C663 0.950 . S
C667 C658 1.390 . S
C667 H660 0.950 . S
C667 C664 1.387 . S
C668 C669 1.387 . S
C668 H672 0.950 . S
C668 C677 1.390 . S
C669 C668 1.387 . S
C669 C671 1.387 . S
H670 C677 0.950 . S
C671 C669 1.387 . S
C671 C673 1.390 . S
C671 H675 0.950 . S
H672 C668 0.950 . S
C673 C671 1.390 . S
C673 C674 1.387 . S
C673 H676 0.950 . S
C674 C673 1.387 . S
C674 C677 1.387 . S
H675 C671 0.950 . S
H676 C673 0.950 . S
C677 C668 1.390 . S
C677 H670 0.950 . S
C677 C674 1.387 . S
C439 C18 1.580 . S
C444 C158 1.632 . S
C449 C29 1.337 . S
C454 C211 1.429 . S
C464 C264 1.639 . S
C459 C55 1.523 . S
C474 C301 1.388 . S
C469 C75 1.277 . S
C484 C361 1.563 . S
C479 C98 1.488 . S
C494 C414 1.381 . S
C489 C118 1.327 . S
C499 C38 1.580 . S
C504 C265 1.634 . S
C509 C52 1.329 . S
C514 C308 1.381 . S
C524 C354 1.563 . S
C519 C72 1.491 . S
C534 C407 1.388 . S
C529 C89 1.279 . S
C539 C109 1.524 . S
C544 C159 1.639 . S
C554 C212 1.429 . S
C549 C9 1.337 . S
C564 C318 1.633 . S
C559 C12 1.583 . S
C569 C35 1.337 . S
C574 C370 1.428 . S
C584 C423 1.637 . S
C579 C49 1.523 . S
C589 C69 1.275 . S
C594 C149 1.385 . S
C599 C92 1.489 . S
C604 C202 1.563 . S
C609 C112 1.331 . S
C614 C255 1.384 . S
C619 C32 1.584 . S
C624 C424 1.633 . S
C634 C142 1.383 . S
C629 C58 1.331 . S
C639 C78 1.490 . S
C644 C195 1.563 . S
C649 C95 1.277 . S
C654 C248 1.385 . S
C659 C115 1.524 . S
C664 C317 1.638 . S
C669 C15 1.341 . S
C674 C371 1.427 . S
