# Generated by pormake.
# Topology anh, (6,3)-cn, num edge types: 1
# Building blocks:
#     Node 0, Type 0, BuildingBlock: GEDQOX_clean_sbu_0, # of connection points: 6
#     Node 1, Type 0, BuildingBlock: GEDQOX_clean_sbu_0, # of connection points: 6
#     Node 2, Type 0, BuildingBlock: GEDQOX_clean_sbu_0, # of connection points: 6
#     Node 3, Type 1, BuildingBlock: KAKCAD_clean_linker_0, # of connection points: 3
#     Node 4, Type 1, BuildingBlock: KAKCAD_clean_linker_0, # of connection points: 3
#     Node 5, Type 1, BuildingBlock: KAKCAD_clean_linker_0, # of connection points: 3
#     Node 6, Type 1, BuildingBlock: KAKCAD_clean_linker_0, # of connection points: 3
#     Node 7, Type 1, BuildingBlock: KAKCAD_clean_linker_0, # of connection points: 3
#     Node 8, Type 1, BuildingBlock: KAKCAD_clean_linker_0, # of connection points: 3
#     Edge 9, Type (0, 1), BuildingBlock: AJUNOK_clean_linker_0, # of connection points: 2
#     Edge 10, Type (0, 1), BuildingBlock: AJUNOK_clean_linker_0, # of connection points: 2
#     Edge 11, Type (0, 1), BuildingBlock: AJUNOK_clean_linker_0, # of connection points: 2
#     Edge 12, Type (0, 1), BuildingBlock: AJUNOK_clean_linker_0, # of connection points: 2
#     Edge 13, Type (0, 1), BuildingBlock: AJUNOK_clean_linker_0, # of connection points: 2
#     Edge 14, Type (0, 1), BuildingBlock: AJUNOK_clean_linker_0, # of connection points: 2
#     Edge 15, Type (0, 1), BuildingBlock: AJUNOK_clean_linker_0, # of connection points: 2
#     Edge 16, Type (0, 1), BuildingBlock: AJUNOK_clean_linker_0, # of connection points: 2
#     Edge 17, Type (0, 1), BuildingBlock: AJUNOK_clean_linker_0, # of connection points: 2
#     Edge 18, Type (0, 1), BuildingBlock: AJUNOK_clean_linker_0, # of connection points: 2
#     Edge 19, Type (0, 1), BuildingBlock: AJUNOK_clean_linker_0, # of connection points: 2
#     Edge 20, Type (0, 1), BuildingBlock: AJUNOK_clean_linker_0, # of connection points: 2
#     Edge 21, Type (0, 1), BuildingBlock: AJUNOK_clean_linker_0, # of connection points: 2
#     Edge 22, Type (0, 1), BuildingBlock: AJUNOK_clean_linker_0, # of connection points: 2
#     Edge 23, Type (0, 1), BuildingBlock: AJUNOK_clean_linker_0, # of connection points: 2
#     Edge 24, Type (0, 1), BuildingBlock: AJUNOK_clean_linker_0, # of connection points: 2
#     Edge 25, Type (0, 1), BuildingBlock: AJUNOK_clean_linker_0, # of connection points: 2
#     Edge 26, Type (0, 1), BuildingBlock: AJUNOK_clean_linker_0, # of connection points: 2
# Relax obj value: 0.207
# Max RMSD: 0.225
# Mean RMSD: 0.165
data_MOF--net-anh--node1-GEDQOX_clean_sbu_0--node2-KAKCAD_clean_linker_0--edge1-AJUNOK_clean_linker_0
_symmetry_space_group_name_H-M    P1
_symmetry_Int_Tables_number       1
_symmetry_cell_setting            triclinic
loop_
_symmetry_equiv_pos_as_xyz
'x, y, z'
_cell_length_a     29.936293
_cell_length_b     28.112321
_cell_length_c     52.73587
_cell_angle_alpha  93.144686
_cell_angle_beta   90.484971
_cell_angle_gamma 103.97526
loop_
_atom_site_label
_atom_site_type_symbol
_atom_site_fract_x
_atom_site_fract_y
_atom_site_fract_z
_atom_type_partial_charge
Nd0 Nd 0.09739 0.55146 0.16339 0.0
Nd1 Nd 0.07429 0.44488 0.16197 0.0
C2 C 0.13547 0.64446 0.15626 0.0
C3 C 0.18167 0.67746 0.16124 0.0
C4 C 0.2166 0.68118 0.14321 0.0
C5 C 0.2598 0.71334 0.14801 0.0
C6 C 0.2686 0.74237 0.17085 0.0
C7 C 0.23411 0.73795 0.18902 0.0
C8 C 0.19111 0.70597 0.18426 0.0
C9 C 0.08085 0.51612 0.21036 0.0
C10 C 0.18667 0.49305 0.15911 0.0
C11 C 1.03397 0.35368 0.17062 0.0
C12 C 0.98476 0.32876 0.17171 0.0
C13 C 0.9562 0.34437 0.1898 0.0
C14 C 0.90969 0.32053 0.1906 0.0
C15 C 0.89105 0.28082 0.17338 0.0
C16 C 0.91891 0.26649 0.15463 0.0
C17 C 0.96547 0.29035 0.15379 0.0
C18 C 0.08436 0.48277 0.11588 0.0
C19 C 0.98455 0.50229 0.15848 0.0
O20 O 0.13168 0.60955 0.1383 0.0
O21 O 0.11144 0.62986 0.17621 0.0
O22 O 0.0669 0.55301 0.20253 0.0
O23 O 0.10489 0.49984 0.19395 0.0
O24 O 0.17239 0.53466 0.15834 0.0
O25 O 0.15478 0.45164 0.16229 0.0
O26 O 1.05043 0.38699 0.18888 0.0
O27 O 1.04876 0.36702 0.14822 0.0
O28 O 0.10257 0.44703 0.12152 0.0
O29 O 1.06256 0.49624 0.13387 0.0
O30 O 0.9983 0.46102 0.16206 0.0
O31 O 1.01732 0.54348 0.15629 0.0
H32 H 0.21043 0.65972 0.12527 0.0
H33 H 0.28583 0.71652 0.13364 0.0
H34 H 0.24032 0.75974 0.20687 0.0
H35 H 0.1651 0.70398 0.19859 0.0
H36 H 0.96979 0.37449 0.2036 0.0
H37 H 0.88873 0.33171 0.20536 0.0
H38 H 0.9049 0.23587 0.14118 0.0
H39 H 0.98657 0.27836 0.13937 0.0
Nd40 Nd 0.51282 0.01935 0.51875 0.0
Nd41 Nd 0.61102 0.04441 0.51867 0.0
C42 C 0.42763 0.97534 0.52878 0.0
C43 C 0.40043 0.92482 0.52331 0.0
C44 C 0.38228 0.89585 0.54341 0.0
C45 C 0.3552 0.84827 0.53842 0.0
C46 C 0.3459 0.82949 0.51326 0.0
C47 C 0.36614 0.85737 0.49326 0.0
C48 C 0.39347 0.90458 0.49823 0.0
C49 C 0.54616 0.03583 0.47086 0.0
C50 C 0.56778 0.92887 0.51465 0.0
C51 C 0.69832 0.08808 0.5138 0.0
C52 C 0.72353 0.14009 0.51422 0.0
C53 C 0.72427 0.16729 0.49258 0.0
C54 C 0.75086 0.21537 0.49265 0.0
C55 C 0.77715 0.23692 0.51429 0.0
C56 C 0.77376 0.21118 0.5365 0.0
C57 C 0.7474 0.16298 0.53642 0.0
C58 C 0.57573 0.02629 0.56567 0.0
C59 C 0.55583 0.13401 0.5216 0.0
O60 O 0.46166 0.98015 0.54515 0.0
O61 O 0.43835 1.00275 0.50939 0.0
O62 O 0.51073 0.04993 0.47948 0.0
O63 O 0.56134 1.0112 0.48673 0.0
O64 O 0.52914 0.94249 0.51903 0.0
O65 O 0.60636 0.96208 0.5113 0.0
O66 O 0.67064 0.07101 0.4943 0.0
O67 O 0.68098 0.07254 0.53532 0.0
O68 O 0.60785 1.00739 0.55635 0.0
O69 O 0.56269 0.05324 0.55029 0.0
O70 O 0.59303 0.12005 0.51409 0.0
O71 O 0.51968 0.10089 0.52854 0.0
H72 H 0.38816 0.91046 0.56292 0.0
H73 H 0.33961 0.82722 0.55404 0.0
H74 H 0.35948 0.84313 0.47372 0.0
H75 H 0.4082 0.92547 0.48238 0.0
H76 H 0.70569 0.15099 0.47529 0.0
H77 H 0.75321 0.23453 0.47525 0.0
H78 H 0.79348 0.22745 0.55347 0.0
H79 H 0.74688 0.14315 0.5535 0.0
Nd80 Nd 0.5259 0.50649 0.84185 0.0
Nd81 Nd 0.6271 0.5379 0.84049 0.0
C82 C 0.44187 0.48607 0.82484 0.0
C83 C 0.42079 0.52192 0.8137 0.0
C84 C 0.41196 0.52003 0.78745 0.0
C85 C 0.38948 0.55304 0.77741 0.0
C86 C 0.37427 0.58674 0.79378 0.0
C87 C 0.38994 0.5932 0.8193 0.0
C88 C 0.41273 0.56101 0.82915 0.0
C89 C 0.55313 0.51855 0.89229 0.0
C90 C 0.57536 0.62546 0.84124 0.0
C91 C 0.71178 0.54116 0.85171 0.0
C92 C 0.73844 0.51212 0.83752 0.0
C93 C 0.76415 0.48569 0.85058 0.0
C94 C 0.79361 0.4627 0.83717 0.0
C95 C 0.79957 0.4696 0.81098 0.0
C96 C 0.76479 0.48344 0.79747 0.0
C97 C 0.73551 0.5069 0.8108 0.0
C98 C 0.59931 0.53258 0.79013 0.0
C99 C 0.57815 0.41895 0.83672 0.0
O100 O 0.47442 0.47371 0.81157 0.0
O101 O 0.45198 0.49396 0.84912 0.0
O102 O 0.51077 0.50708 0.88427 0.0
O103 O 0.58031 0.52567 0.87374 0.0
O104 O 0.53769 0.58984 0.83671 0.0
O105 O 0.61466 0.61515 0.84749 0.0
O106 O 0.67801 0.51474 0.86415 0.0
O107 O 0.70063 0.5765 0.8397 0.0
O108 O 0.64138 0.54755 0.79823 0.0
O109 O 0.57276 0.52314 0.8088 0.0
O110 O 0.61581 0.45368 0.83367 0.0
O111 O 0.53888 0.43013 0.84134 0.0
H112 H 0.42025 0.49161 0.77498 0.0
H113 H 0.37848 0.54786 0.75762 0.0
H114 H 0.38005 0.6193 0.83263 0.0
H115 H 0.42167 0.56552 0.84924 0.0
H116 H 0.76393 0.48581 0.87113 0.0
H117 H 0.81777 0.44851 0.84812 0.0
H118 H 0.76686 0.48626 0.77708 0.0
H119 H 0.71372 0.52426 0.8001 0.0
C120 C 0.57296 0.08174 0.34988 0.0
C121 C 0.57368 0.03828 0.36181 0.0
C122 C 0.57466 0.08315 0.32337 0.0
C123 C 0.5765 0.04098 0.30828 0.0
C124 C 0.57889 0.99816 0.32017 0.0
C125 C 0.57811 0.99702 0.34662 0.0
C126 C 0.57381 0.04057 0.28018 0.0
C127 C 0.60454 0.07581 0.2668 0.0
C128 C 0.60283 0.07386 0.24005 0.0
C129 C 0.56898 0.03729 0.22692 0.0
C130 C 0.53821 1.00182 0.23999 0.0
C131 C 0.54088 1.00369 0.26664 0.0
C132 C 0.50375 0.96245 0.22575 0.0
C133 C 0.47929 0.97326 0.20482 0.0
C134 C 0.49468 0.91385 0.23319 0.0
C135 C 0.46068 0.87721 0.22057 0.0
C136 C 0.43524 0.88843 0.20023 0.0
C137 C 0.6385 0.1072 0.22565 0.0
C138 C 0.6557 0.15666 0.23403 0.0
C139 C 0.65732 0.08874 0.20397 0.0
C140 C 0.69386 0.11829 0.19171 0.0
C141 C 0.71285 0.16664 0.20108 0.0
C142 C 0.69263 0.18618 0.22181 0.0
C143 C 0.4453 0.93659 0.19221 0.0
H144 H 0.56961 0.11423 0.36096 0.0
H145 H 0.57281 0.11662 0.31462 0.0
H146 H 0.58118 0.96542 0.30894 0.0
H147 H 0.58061 0.96356 0.35514 0.0
H148 H 0.63104 0.10317 0.27722 0.0
H149 H 0.51677 0.97685 0.27696 0.0
H150 H 0.56724 0.03569 0.20635 0.0
H151 H 0.48532 1.0104 0.19871 0.0
H152 H 0.51349 0.90425 0.24897 0.0
H153 H 0.45301 0.84053 0.2274 0.0
H154 H 0.64142 0.17218 0.25039 0.0
H155 H 0.64535 0.05072 0.1971 0.0
H156 H 0.42595 0.94611 0.17662 0.0
H157 H 0.70688 0.22346 0.22935 0.0
H158 H 0.70875 0.10265 0.17559 0.0
C159 C 0.53744 0.56022 0.66889 0.0
C160 C 0.56603 0.5346 0.68069 0.0
C161 C 0.53543 0.56121 0.64225 0.0
C162 C 0.56193 0.53648 0.62684 0.0
C163 C 0.59059 0.51103 0.63889 0.0
C164 C 0.59262 0.51018 0.66542 0.0
C165 C 0.55967 0.53648 0.59838 0.0
C166 C 0.55765 0.57896 0.5859 0.0
C167 C 0.55732 0.57945 0.55908 0.0
C168 C 0.55895 0.53577 0.54461 0.0
C169 C 0.56069 0.49266 0.55691 0.0
C170 C 0.5607 0.49372 0.58358 0.0
C171 C 0.56353 0.44553 0.54313 0.0
C172 C 0.52577 0.41621 0.52903 0.0
C173 C 0.60077 0.42508 0.5486 0.0
C174 C 0.59924 0.37586 0.54166 0.0
C175 C 0.56024 0.34525 0.52913 0.0
C176 C 0.55609 0.62649 0.54704 0.0
C177 C 0.52553 0.65434 0.55599 0.0
C178 C 0.58788 0.6465 0.52855 0.0
C179 C 0.59041 0.69402 0.52029 0.0
C180 C 0.56048 0.7221 0.52986 0.0
C181 C 0.52754 0.70119 0.54746 0.0
C182 C 0.52417 0.36663 0.52206 0.0
H183 H 0.51694 0.57975 0.68029 0.0
H184 H 0.51274 0.58088 0.63374 0.0
H185 H 0.61216 0.49228 0.62781 0.0
H186 H 0.61538 0.49072 0.67407 0.0
H187 H 0.55787 0.61244 0.59715 0.0
H188 H 0.56116 0.46041 0.59291 0.0
H189 H 0.55899 0.53535 0.52406 0.0
H190 H 0.49634 0.43069 0.52474 0.0
H191 H 0.63016 0.44658 0.55964 0.0
H192 H 0.62768 0.36103 0.54746 0.0
H193 H 0.50043 0.64018 0.57009 0.0
H194 H 0.61208 0.62631 0.52129 0.0
H195 H 0.49405 0.34466 0.51183 0.0
H196 H 0.50412 0.72184 0.55528 0.0
H197 H 0.61603 0.70903 0.50661 0.0
C198 C 0.13863 0.60166 0.01079 0.0
C199 C 0.10001 0.56919 0.02013 0.0
C200 C 0.13975 0.61164 0.98521 0.0
C201 C 0.10218 0.58924 0.96912 0.0
C202 C 1.06345 0.55734 0.97862 0.0
C203 C 1.06246 0.54719 0.00398 0.0
C204 C 0.10417 0.59536 0.94195 0.0
C205 C 0.13848 0.58032 0.92798 0.0
C206 C 0.13582 0.57792 0.90153 0.0
C207 C 0.10054 0.59305 0.88934 0.0
C208 C 0.06578 0.60697 0.90309 0.0
C209 C 0.06769 0.60843 0.92953 0.0
C210 C 1.0233 0.6066 0.88908 0.0
C211 C 1.0265 0.62879 0.86572 0.0
C212 C 0.98404 0.56997 0.89418 0.0
C213 C 0.95207 0.55058 0.87481 0.0
C214 C 0.95906 0.56797 0.85036 0.0
C215 C 0.17007 0.56201 0.8857 0.0
C216 C 0.21642 0.58645 0.88918 0.0
C217 C 0.15524 0.53381 0.86299 0.0
C218 C 0.18365 0.53902 0.84216 0.0
C219 C 0.22781 0.57036 0.8444 0.0
C220 C 0.24547 0.59002 0.86859 0.0
C221 C 0.99485 0.60892 0.84623 0.0
H222 H 0.16793 0.61849 0.02314 0.0
H223 H 0.16995 0.63609 0.97788 0.0
H224 H 1.03471 0.53884 0.96622 0.0
H225 H 1.03298 0.52087 0.01082 0.0
H226 H 0.16557 0.56818 0.93758 0.0
H227 H 1.03967 0.61703 0.94032 0.0
H228 H 0.09867 0.59123 0.86875 0.0
H229 H 1.05663 0.6572 0.86154 0.0
H230 H 0.98086 0.55227 0.91205 0.0
H231 H 0.92337 0.52012 0.8785 0.0
H232 H 0.22887 0.60727 0.9068 0.0
H233 H 0.11978 0.51313 0.86034 0.0
H234 H 1.0001 0.62334 0.82757 0.0
H235 H 0.28075 0.61116 0.87121 0.0
H236 H 0.16971 0.52177 0.82399 0.0
C237 C 1.02977 0.47203 0.33194 0.0
C238 C 0.07014 0.49069 0.31867 0.0
C239 C 1.02946 0.47706 0.35843 0.0
C240 C 0.07011 0.49864 0.37264 0.0
C241 C 0.11111 0.51474 0.35928 0.0
C242 C 0.11095 0.51151 0.33272 0.0
C243 C 0.06936 0.50522 0.40106 0.0
C244 C 1.03543 0.47424 0.41504 0.0
C245 C 1.032 0.48268 0.44142 0.0
C246 C 1.06472 0.52066 0.45414 0.0
C247 C 0.10038 0.54989 0.44101 0.0
C248 C 0.10189 0.5431 0.41449 0.0
C249 C 0.13635 0.58705 0.45531 0.0
C250 C 0.12428 0.61802 0.47451 0.0
C251 C 0.18304 0.59061 0.4504 0.0
C252 C 0.21709 0.62548 0.46402 0.0
C253 C 0.20479 0.65732 0.48256 0.0
C254 C 0.99413 0.45231 0.45576 0.0
C255 C 0.95005 0.43483 0.44454 0.0
C256 C 1.0014 0.44151 0.48101 0.0
C257 C 0.96562 0.41373 0.49457 0.0
C258 C 0.9223 0.39433 0.48288 0.0
C259 C 0.91469 0.40572 0.45786 0.0
C260 C 0.15831 0.65309 0.48796 0.0
H261 H 0.99799 0.45401 0.32191 0.0
H262 H 0.99677 0.46477 0.36751 0.0
H263 H 0.14362 0.53018 0.36915 0.0
H264 H 0.14277 0.52633 0.3232 0.0
H265 H 1.01183 0.44295 0.40556 0.0
H266 H 0.128 0.56833 0.40453 0.0
H267 H 1.0628 0.52756 0.47445 0.0
H268 H 0.08852 0.61606 0.47864 0.0
H269 H 0.19315 0.5666 0.43596 0.0
H270 H 0.25288 0.62903 0.45933 0.0
H271 H 0.94274 0.44344 0.42542 0.0
H272 H 1.03491 0.45371 0.4903 0.0
H273 H 0.14838 0.678 0.502 0.0
H274 H 0.88168 0.39106 0.44827 0.0
H275 H 0.97222 0.40662 0.51405 0.0
C276 C 0.52698 0.98698 0.6879 0.0
C277 C 0.55767 0.02213 0.6744 0.0
C278 C 0.53159 0.98635 0.71426 0.0
C279 C 0.56641 0.02142 0.72765 0.0
C280 C 0.59635 0.05729 0.7143 0.0
C281 C 0.59216 0.0575 0.68793 0.0
C282 C 0.5713 0.02078 0.75556 0.0
C283 C 0.57375 0.97777 0.76682 0.0
C284 C 0.57538 0.97504 0.79351 0.0
C285 C 0.57916 0.0194 0.80881 0.0
C286 C 0.58008 0.06417 0.79722 0.0
C287 C 0.57411 0.06338 0.77077 0.0
C288 C 0.58827 0.11346 0.81111 0.0
C289 C 0.55992 0.12356 0.83076 0.0
C290 C 0.61953 0.1532 0.80092 0.0
C291 C 0.61918 0.20162 0.80806 0.0
C292 C 0.58865 0.21235 0.82638 0.0
C293 C 0.57325 0.92537 0.80402 0.0
C294 C 0.55294 0.88231 0.78902 0.0
C295 C 0.5929 0.91929 0.82773 0.0
C296 C 0.59265 0.87183 0.83566 0.0
C297 C 0.57381 0.82932 0.81983 0.0
C298 C 0.55562 0.83611 0.79604 0.0
C299 C 0.56055 0.17255 0.83855 0.0
H300 H 0.49937 0.96 0.6781 0.0
H301 H 0.50767 0.95878 0.72425 0.0
H302 H 0.6236 0.08457 0.72422 0.0
H303 H 0.61661 0.08474 0.67804 0.0
H304 H 0.57518 0.94657 0.7542 0.0
H305 H 0.57208 0.09663 0.76178 0.0
H306 H 0.58188 0.01947 0.82929 0.0
H307 H 0.53552 0.09386 0.83906 0.0
H308 H 0.64221 0.14677 0.78589 0.0
H309 H 0.64134 0.23055 0.79806 0.0
H310 H 0.535 0.88351 0.77129 0.0
H311 H 0.60902 0.95093 0.84005 0.0
H312 H 0.53802 0.179 0.8536 0.0
H313 H 0.54335 0.80563 0.78231 0.0
H314 H 0.60728 0.86852 0.85413 0.0
C315 C 0.59619 0.47613 0.01354 0.0
C316 C 0.58392 0.51606 0.00261 0.0
C317 C 0.59763 0.473 0.04009 0.0
C318 C 0.58576 0.509 0.05648 0.0
C319 C 0.57354 0.5488 0.0457 0.0
C320 C 0.57305 0.55252 0.01925 0.0
C321 C 0.58563 0.50499 0.08472 0.0
C322 C 0.62588 0.50184 0.09769 0.0
C323 C 0.6285 0.49853 0.1243 0.0
C324 C 0.58561 0.49842 0.13801 0.0
C325 C 0.54274 0.50161 0.12482 0.0
C326 C 0.54536 0.50497 0.09823 0.0
C327 C 0.49397 0.50288 0.13597 0.0
C328 C 0.46549 0.46467 0.14932 0.0
C329 C 0.47071 0.5386 0.12824 0.0
C330 C 0.42301 0.53611 0.13282 0.0
C331 C 0.39382 0.49747 0.14553 0.0
C332 C 0.67736 0.49481 0.13478 0.0
C333 C 0.70252 0.46484 0.12122 0.0
C334 C 0.70373 0.52592 0.15454 0.0
C335 C 0.75176 0.52752 0.15973 0.0
C336 C 0.77731 0.49859 0.14534 0.0
C337 C 0.75012 0.46676 0.12615 0.0
C338 C 0.41736 0.46222 0.15405 0.0
H339 H 0.6034 0.4464 0.00164 0.0
H340 H 0.60682 0.44164 0.04782 0.0
H341 H 0.56461 0.57736 0.0578 0.0
H342 H 0.56392 0.58413 0.01181 0.0
H343 H 0.6564 0.50321 0.08657 0.0
H344 H 0.51486 0.50682 0.08746 0.0
H345 H 0.58559 0.49594 0.15841 0.0
H346 H 0.47988 0.43526 0.15542 0.0
H347 H 0.48946 0.5686 0.11755 0.0
H348 H 0.4087 0.5645 0.12541 0.0
H349 H 0.6854 0.44005 0.10574 0.0
H350 H 0.68774 0.55056 0.16564 0.0
H351 H 0.39877 0.43202 0.16457 0.0
H352 H 0.7659 0.44353 0.11399 0.0
H353 H 0.76856 0.55192 0.17534 0.0
C354 C 0.27438 0.53695 0.1536 0.0
C355 C 0.23929 0.49312 0.15598 0.0
C356 C 0.3225 0.53783 0.1505 0.0
C357 C 0.34045 0.49496 0.14944 0.0
H358 H 0.26468 0.57169 0.15416 0.0
H359 H 0.34605 0.5734 0.1492 0.0
S360 S 0.26386 0.36899 0.15306 0.0
N361 N 0.22757 0.40469 0.1561 0.0
N362 N 0.31528 0.40599 0.15 0.0
C363 C 0.30541 0.45069 0.15152 0.0
C364 C 0.25634 0.44989 0.15476 0.0
C365 C 0.80418 0.323 0.50129 0.0
C366 C 0.81392 0.28178 0.51189 0.0
C367 C 0.83975 0.36117 0.49351 0.0
C368 C 0.88609 0.3589 0.49572 0.0
H369 H 0.76882 0.32462 0.49796 0.0
H370 H 0.83082 0.39162 0.48466 0.0
S371 S 0.92922 0.25915 0.52319 0.0
N372 N 0.87278 0.24184 0.52549 0.0
N373 N 0.93962 0.31267 0.51019 0.0
C374 C 0.89622 0.31895 0.50753 0.0
C375 C 0.86007 0.28055 0.51576 0.0
C376 C 0.61019 0.71787 0.84546 0.0
C377 C 0.57365 0.6777 0.83732 0.0
C378 C 0.60962 0.7668 0.84061 0.0
C379 C 0.57242 0.77786 0.82746 0.0
H380 H 0.63988 0.71151 0.85534 0.0
H381 H 0.63924 0.79595 0.84656 0.0
S382 S 0.46813 0.68654 0.80211 0.0
N383 N 0.49987 0.65307 0.81466 0.0
N384 N 0.49677 0.74391 0.80787 0.0
C385 C 0.53511 0.73803 0.82003 0.0
C386 C 0.53626 0.68844 0.82431 0.0
C387 C 0.89808 0.46055 0.14549 0.0
C388 C 0.93187 0.50191 0.15581 0.0
C389 C 0.84998 0.46004 0.14235 0.0
C390 C 0.83066 0.50055 0.14965 0.0
H391 H 0.90898 0.42783 0.13932 0.0
H392 H 0.82755 0.42646 0.13427 0.0
S393 S 0.9033 0.61843 0.17901 0.0
N394 N 0.94091 0.58476 0.17401 0.0
N395 N 0.85299 0.58412 0.16856 0.0
C396 C 0.86435 0.54204 0.16041 0.0
C397 C 0.91354 0.54266 0.16327 0.0
C398 C 0.27142 0.78815 0.49276 0.0
C399 C 0.30975 0.78459 0.50738 0.0
C400 C 0.23679 0.74664 0.48573 0.0
C401 C 0.23959 0.70016 0.4929 0.0
H402 H 0.26842 0.82337 0.48652 0.0
H403 H 0.20826 0.75069 0.47394 0.0
S404 S 0.33157 0.67145 0.5323 0.0
N405 N 0.34774 0.73155 0.52987 0.0
N406 N 0.28231 0.65256 0.51613 0.0
C407 C 0.27713 0.69596 0.50799 0.0
C408 C 0.31232 0.73856 0.51546 0.0
C409 C 0.62225 0.35318 0.83199 0.0
C410 C 0.57995 0.36608 0.83511 0.0
C411 C 0.62483 0.30382 0.83028 0.0
C412 C 0.58517 0.26468 0.83123 0.0
H413 H 0.65387 0.38143 0.83082 0.0
H414 H 0.65846 0.29641 0.82802 0.0
S415 S 0.46554 0.27843 0.83933 0.0
N416 N 0.49728 0.33529 0.83979 0.0
N417 N 0.50189 0.24304 0.8354 0.0
C418 C 0.54261 0.27713 0.83461 0.0
C419 C 0.54005 0.32751 0.83674 0.0
C420 C 0.60627 0.86075 0.5243 0.0
C421 C 0.56753 0.87553 0.51522 0.0
C422 C 0.60454 0.81088 0.52792 0.0
C423 C 0.56405 0.77375 0.52257 0.0
H424 H 0.63757 0.88809 0.52968 0.0
H425 H 0.63451 0.80156 0.53597 0.0
S426 S 0.4555 0.79178 0.49483 0.0
N427 N 0.48905 0.84784 0.49849 0.0
N428 N 0.48602 0.75486 0.50526 0.0
C429 C 0.52599 0.7878 0.51227 0.0
C430 C 0.52767 0.83838 0.50862 0.0
C431 C 0.88041 0.46535 0.81198 0.0
C432 C 0.84767 0.48987 0.8038 0.0
C433 C 0.91983 0.49168 0.82546 0.0
C434 C 0.92839 0.54298 0.82946 0.0
H435 H 0.87123 0.4257 0.81254 0.0
H436 H 0.94104 0.47154 0.83497 0.0
S437 S 0.86353 0.62501 0.80219 0.0
N438 N 0.83444 0.56897 0.79302 0.0
N439 N 0.90851 0.61795 0.81847 0.0
C440 C 0.90147 0.56824 0.81646 0.0
C441 C 0.86147 0.54157 0.80279 0.0
C442 C 0.31138 0.82817 0.1825 0.0
C443 C 0.31251 0.77952 0.17553 0.0
C444 C 0.35168 0.86359 0.18932 0.0
C445 C 0.39459 0.85158 0.18959 0.0
H446 H 0.27888 0.83871 0.18317 0.0
H447 H 0.34895 0.9002 0.19543 0.0
S448 S 0.41656 0.7302 0.17119 0.0
N449 N 0.36015 0.72153 0.16799 0.0
N450 N 0.43639 0.78852 0.1808 0.0
C451 C 0.39651 0.8035 0.18177 0.0
C452 C 0.35534 0.76738 0.17466 0.0
C453 C 0.59407 0.22317 0.51537 0.0
C454 C 0.55506 0.1874 0.52236 0.0
C455 C 0.5949 0.27362 0.51682 0.0
C456 C 0.55672 0.29093 0.52522 0.0
H457 H 0.62465 0.2123 0.509 0.0
H458 H 0.62603 0.29942 0.5115 0.0
S459 S 0.44569 0.21291 0.54557 0.0
N460 N 0.47669 0.17341 0.53762 0.0
N461 N 0.47861 0.26766 0.54062 0.0
C462 C 0.51718 0.25553 0.53181 0.0
C463 C 0.5163 0.20412 0.53036 0.0
C464 C 0.29331 0.55469 0.7856 0.0
C465 C 0.32935 0.59747 0.78864 0.0
C466 C 0.25796 0.5465 0.80305 0.0
C467 C 0.25526 0.58325 0.82167 0.0
H468 H 0.29772 0.52311 0.77406 0.0
H469 H 0.23606 0.50977 0.80357 0.0
S470 S 0.32479 0.7119 0.82531 0.0
N471 N 0.34921 0.68352 0.80314 0.0
N472 N 0.2798 0.67041 0.83457 0.0
C473 C 0.28306 0.63085 0.81933 0.0
C474 C 0.31978 0.6383 0.80198 0.0
C475 C 0.80599 0.27023 0.17711 0.0
C476 C 0.84469 0.25019 0.17747 0.0
C477 C 0.7627 0.24251 0.18399 0.0
C478 C 0.75719 0.19421 0.19149 0.0
H479 H 0.80946 0.30772 0.17198 0.0
H480 H 0.7336 0.25912 0.18387 0.0
S481 S 0.84886 0.12692 0.19718 0.0
N482 N 0.87532 0.18041 0.18661 0.0
N483 N 0.79434 0.12851 0.19982 0.0
C484 C 0.79573 0.17394 0.19173 0.0
C485 C 0.83945 0.20194 0.18464 0.0
C486 C 0.12792 0.50722 0.07713 0.0
C487 C 0.08944 0.507 0.09211 0.0
C488 C 0.13302 0.5309 0.05438 0.0
C489 C 0.09951 0.55433 0.04616 0.0
H490 H 0.15392 0.48883 0.08292 0.0
H491 H 0.16208 0.52891 0.04261 0.0
S492 S 0.99377 0.56583 0.07928 0.0
N493 N 1.01823 0.53347 0.09778 0.0
N494 N 1.02827 0.57835 0.05501 0.0
C495 C 1.06188 0.5559 0.06146 0.0
C496 C 1.05666 0.53195 0.08449 0.0
C497 C 0.58547 0.07422 0.43292 0.0
C498 C 0.55592 0.03402 0.44357 0.0
C499 C 0.59175 0.07497 0.40654 0.0
C500 C 0.56836 0.03567 0.38989 0.0
H501 H 0.60334 0.10555 0.44503 0.0
H502 H 0.61493 0.10669 0.39913 0.0
S503 S 0.48573 0.92261 0.40895 0.0
N504 N 0.50298 0.95435 0.43603 0.0
N505 N 0.51327 0.95592 0.38647 0.0
C506 C 0.53875 0.99516 0.40059 0.0
C507 C 0.53284 0.99436 0.42742 0.0
C508 C 0.61503 0.56868 0.74783 0.0
C509 C 0.58617 0.5343 0.76279 0.0
C510 C 0.60732 0.5694 0.72152 0.0
C511 C 0.5706 0.53553 0.70891 0.0
H512 H 0.64439 0.5951 0.75649 0.0
H513 H 0.63087 0.59609 0.71085 0.0
S514 S 0.48592 0.43664 0.73853 0.0
N515 N 0.51969 0.46481 0.76254 0.0
N516 N 0.50541 0.46606 0.71304 0.0
C517 C 0.5412 0.50115 0.72346 0.0
C518 C 0.54886 0.5006 0.7504 0.0
C519 C 0.56323 0.06644 0.60743 0.0
C520 C 0.56331 0.02357 0.59251 0.0
C521 C 0.55965 0.06536 0.63391 0.0
C522 C 0.55534 0.02125 0.64622 0.0
H523 H 0.5684 0.10137 0.59876 0.0
H524 H 0.56144 0.09951 0.64489 0.0
S525 S 0.54812 0.89811 0.6147 0.0
N526 N 0.55474 0.93549 0.59119 0.0
N527 N 0.54778 0.933 0.6409 0.0
C528 C 0.55257 0.97768 0.63115 0.0
C529 C 0.55672 0.979 0.60428 0.0
C530 C 0.53534 0.5358 0.93758 0.0
C531 C 0.56565 0.52196 0.91997 0.0
C532 C 0.54213 0.53448 0.96392 0.0
C533 C 0.57941 0.51868 0.97416 0.0
H534 H 0.50541 0.54719 0.93091 0.0
H535 H 0.51689 0.54462 0.97632 0.0
S536 S 0.669 0.47794 0.9361 0.0
N537 N 0.63444 0.49163 0.91455 0.0
N538 N 0.64783 0.48941 0.96399 0.0
C539 C 0.61042 0.50506 0.95669 0.0
C540 C 0.60353 0.50682 0.9297 0.0
C541 C 0.10922 0.48632 0.25001 0.0
C542 C 0.07482 0.5018 0.23683 0.0
C543 C 0.10668 0.48107 0.27636 0.0
C544 C 0.06957 0.49091 0.29036 0.0
H545 H 0.13923 0.48047 0.24017 0.0
H546 H 0.13452 0.47025 0.28591 0.0
S547 S 0.9683 0.5274 0.26353 0.0
N548 N 1.00061 0.52219 0.23885 0.0
N549 N 0.99633 0.51422 0.28823 0.0
C550 C 1.03385 0.504 0.27692 0.0
C551 C 1.03641 0.50898 0.2502 0.0
loop_
_geom_bond_atom_site_label_1
_geom_bond_atom_site_label_2
_geom_bond_distance
_geom_bond_site_symmetry_2
_ccdc_geom_bond_type
Nd0 C2 2.836 . S
Nd0 O20 2.500 . S
Nd0 O21 2.492 . S
Nd0 O22 2.487 . S
Nd0 O23 2.682 . S
Nd0 O24 2.410 . S
Nd0 O29 2.414 . S
Nd0 O31 2.424 1_455 S
Nd1 C11 2.836 . S
Nd1 O23 2.414 1_655 S
Nd1 O25 2.424 1_655 S
Nd1 O26 2.500 . S
Nd1 O27 2.492 . S
Nd1 O28 2.487 . S
Nd1 O29 2.682 1_655 S
Nd1 O30 2.410 . S
C2 Nd0 2.836 . S
C2 C3 1.498 . S
C2 O20 1.258 . S
C2 O21 1.239 . S
C3 C2 1.498 . S
C3 C4 1.366 . S
C3 C8 1.407 . S
C4 C3 1.366 . S
C4 C5 1.392 . S
C4 H32 0.930 . S
C5 C4 1.392 . S
C5 C6 1.398 . S
C5 H33 0.929 . S
C6 C5 1.398 . S
C6 C7 1.352 . S
C7 C6 1.352 . S
C7 C8 1.384 . S
C7 H34 0.930 . S
C8 C3 1.407 . S
C8 C7 1.384 . S
C8 H35 0.929 . S
C9 O22 1.241 . S
C9 O23 1.273 . S
C10 O24 1.251 . S
C10 O25 1.268 . S
C11 Nd1 2.836 . S
C11 C12 1.498 . S
C11 O26 1.258 . S
C11 O27 1.239 . S
C12 C11 1.498 . S
C12 C13 1.366 . S
C12 C17 1.407 . S
C13 C12 1.366 . S
C13 C14 1.392 . S
C13 H36 0.930 . S
C14 C13 1.392 . S
C14 C15 1.398 . S
C14 H37 0.929 . S
C15 C14 1.398 . S
C15 C16 1.352 . S
C16 C15 1.352 . S
C16 C17 1.384 . S
C16 H38 0.930 . S
C17 C12 1.407 . S
C17 C16 1.384 . S
C17 H39 0.929 . S
C18 O28 1.241 1_455 S
C18 O29 1.273 . S
C19 O30 1.251 . S
C19 O31 1.268 . S
O20 Nd0 2.500 . S
O20 C2 1.258 . S
O21 Nd0 2.492 . S
O21 C2 1.239 . S
O22 Nd0 2.487 . S
O22 C9 1.241 . S
O23 Nd0 2.682 . S
O23 Nd1 2.414 1_455 S
O23 C9 1.273 . S
O24 Nd0 2.410 . S
O24 C10 1.251 . S
O25 Nd1 2.424 1_455 S
O25 C10 1.268 . S
O26 Nd1 2.500 . S
O26 C11 1.258 . S
O27 Nd1 2.492 . S
O27 C11 1.239 . S
O28 Nd1 2.487 . S
O28 C18 1.241 1_655 S
O29 Nd0 2.414 . S
O29 Nd1 2.682 1_455 S
O29 C18 1.273 . S
O30 Nd1 2.410 . S
O30 C19 1.251 . S
O31 Nd0 2.424 1_655 S
O31 C19 1.268 . S
H32 C4 0.930 . S
H33 C5 0.929 . S
H34 C7 0.930 . S
H35 C8 0.929 . S
H36 C13 0.930 . S
H37 C14 0.929 . S
H38 C16 0.930 . S
H39 C17 0.929 . S
Nd40 C42 2.824 1_545 S
Nd40 O60 2.488 1_545 S
Nd40 O61 2.482 1_545 S
Nd40 O62 2.487 1_545 S
Nd40 O63 2.683 . S
Nd40 O64 2.393 1_545 S
Nd40 O69 2.412 . S
Nd40 O71 2.441 . S
Nd41 C51 2.836 . S
Nd41 O63 2.414 . S
Nd41 O65 2.424 1_545 S
Nd41 O66 2.500 . S
Nd41 O67 2.492 . S
Nd41 O68 2.487 . S
Nd41 O69 2.682 . S
Nd41 O70 2.410 . S
C42 Nd40 2.824 1_565 S
C42 C43 1.498 . S
C42 O60 1.258 . S
C42 O61 1.239 . S
C43 C42 1.498 . S
C43 C44 1.366 . S
C43 C48 1.407 . S
C44 C43 1.366 . S
C44 C45 1.392 . S
C44 H72 0.930 . S
C45 C44 1.392 . S
C45 C46 1.398 . S
C45 H73 0.929 . S
C46 C45 1.398 . S
C46 C47 1.352 . S
C47 C46 1.352 . S
C47 C48 1.384 . S
C47 H74 0.930 . S
C48 C43 1.407 . S
C48 C47 1.384 . S
C48 H75 0.929 . S
C49 O62 1.238 1_545 S
C49 O63 1.273 . S
C50 O64 1.251 . S
C50 O65 1.268 . S
C51 Nd41 2.836 . S
C51 C52 1.498 . S
C51 O66 1.258 . S
C51 O67 1.239 . S
C52 C51 1.498 . S
C52 C53 1.366 . S
C52 C57 1.407 . S
C53 C52 1.366 . S
C53 C54 1.392 . S
C53 H76 0.930 . S
C54 C53 1.392 . S
C54 C55 1.398 . S
C54 H77 0.929 . S
C55 C54 1.398 . S
C55 C56 1.352 . S
C56 C55 1.352 . S
C56 C57 1.384 . S
C56 H78 0.930 . S
C57 C52 1.407 . S
C57 C56 1.384 . S
C57 H79 0.929 . S
C58 O68 1.241 . S
C58 O69 1.273 . S
C59 O70 1.251 . S
C59 O71 1.268 . S
O60 Nd40 2.488 1_565 S
O60 C42 1.258 . S
O61 Nd40 2.482 1_565 S
O61 C42 1.239 . S
O62 Nd40 2.487 1_565 S
O62 C49 1.238 1_565 S
O63 Nd40 2.683 . S
O63 Nd41 2.414 . S
O63 C49 1.273 . S
O64 Nd40 2.393 1_565 S
O64 C50 1.251 . S
O65 Nd41 2.424 1_565 S
O65 C50 1.268 . S
O66 Nd41 2.500 . S
O66 C51 1.258 . S
O67 Nd41 2.492 . S
O67 C51 1.239 . S
O68 Nd41 2.487 . S
O68 C58 1.241 . S
O69 Nd40 2.412 . S
O69 Nd41 2.682 . S
O69 C58 1.273 . S
O70 Nd41 2.410 . S
O70 C59 1.251 . S
O71 Nd40 2.441 . S
O71 C59 1.268 . S
H72 C44 0.930 . S
H73 C45 0.929 . S
H74 C47 0.930 . S
H75 C48 0.929 . S
H76 C53 0.930 . S
H77 C54 0.929 . S
H78 C56 0.930 . S
H79 C57 0.929 . S
Nd80 C82 2.836 . S
Nd80 O100 2.500 . S
Nd80 O101 2.492 . S
Nd80 O102 2.487 . S
Nd80 O103 2.682 . S
Nd80 O104 2.410 . S
Nd80 O109 2.414 . S
Nd80 O111 2.424 . S
Nd81 C91 2.836 . S
Nd81 O103 2.414 . S
Nd81 O105 2.424 . S
Nd81 O106 2.500 . S
Nd81 O107 2.492 . S
Nd81 O108 2.487 . S
Nd81 O109 2.682 . S
Nd81 O110 2.410 . S
C82 Nd80 2.836 . S
C82 C83 1.498 . S
C82 O100 1.258 . S
C82 O101 1.239 . S
C83 C82 1.498 . S
C83 C84 1.366 . S
C83 C88 1.407 . S
C84 C83 1.366 . S
C84 C85 1.392 . S
C84 H112 0.930 . S
C85 C84 1.392 . S
C85 C86 1.398 . S
C85 H113 0.929 . S
C86 C85 1.398 . S
C86 C87 1.352 . S
C87 C86 1.352 . S
C87 C88 1.384 . S
C87 H114 0.930 . S
C88 C83 1.407 . S
C88 C87 1.384 . S
C88 H115 0.929 . S
C89 O102 1.241 . S
C89 O103 1.273 . S
C90 O104 1.251 . S
C90 O105 1.268 . S
C91 Nd81 2.836 . S
C91 C92 1.498 . S
C91 O106 1.258 . S
C91 O107 1.239 . S
C92 C91 1.498 . S
C92 C93 1.366 . S
C92 C97 1.407 . S
C93 C92 1.366 . S
C93 C94 1.392 . S
C93 H116 0.930 . S
C94 C93 1.392 . S
C94 C95 1.398 . S
C94 H117 0.929 . S
C95 C94 1.398 . S
C95 C96 1.352 . S
C96 C95 1.352 . S
C96 C97 1.384 . S
C96 H118 0.930 . S
C97 C92 1.407 . S
C97 C96 1.384 . S
C97 H119 0.929 . S
C98 O108 1.241 . S
C98 O109 1.273 . S
C99 O110 1.251 . S
C99 O111 1.268 . S
O100 Nd80 2.500 . S
O100 C82 1.258 . S
O101 Nd80 2.492 . S
O101 C82 1.239 . S
O102 Nd80 2.487 . S
O102 C89 1.241 . S
O103 Nd80 2.682 . S
O103 Nd81 2.414 . S
O103 C89 1.273 . S
O104 Nd80 2.410 . S
O104 C90 1.251 . S
O105 Nd81 2.424 . S
O105 C90 1.268 . S
O106 Nd81 2.500 . S
O106 C91 1.258 . S
O107 Nd81 2.492 . S
O107 C91 1.239 . S
O108 Nd81 2.487 . S
O108 C98 1.241 . S
O109 Nd80 2.414 . S
O109 Nd81 2.682 . S
O109 C98 1.273 . S
O110 Nd81 2.410 . S
O110 C99 1.251 . S
O111 Nd80 2.424 . S
O111 C99 1.268 . S
H112 C84 0.930 . S
H113 C85 0.929 . S
H114 C87 0.930 . S
H115 C88 0.929 . S
H116 C93 0.930 . S
H117 C94 0.929 . S
H118 C96 0.930 . S
H119 C97 0.929 . S
C120 C121 1.386 . S
C120 C122 1.397 . S
C120 H144 0.931 . S
C121 C120 1.386 . S
C121 C125 1.397 1_545 S
C122 C120 1.397 . S
C122 C123 1.384 . S
C122 H145 0.930 . S
C123 C122 1.384 . S
C123 C124 1.377 1_545 S
C123 C126 1.481 . S
C124 C123 1.377 1_565 S
C124 C125 1.389 . S
C124 H146 0.929 . S
C125 C121 1.397 1_565 S
C125 C124 1.389 . S
C125 H147 0.931 . S
C126 C123 1.481 . S
C126 C127 1.387 . S
C126 C131 1.389 1_545 S
C127 C126 1.387 . S
C127 C128 1.401 . S
C127 H148 0.930 . S
C128 C127 1.401 . S
C128 C129 1.376 . S
C128 C137 1.511 . S
C129 C128 1.376 . S
C129 C130 1.392 1_545 S
C129 H150 0.931 . S
C130 C129 1.392 1_565 S
C130 C131 1.361 . S
C130 C132 1.500 . S
C131 C126 1.389 1_565 S
C131 C130 1.361 . S
C131 H149 0.932 . S
C132 C130 1.500 . S
C132 C133 1.371 . S
C132 C134 1.365 . S
C133 C132 1.371 . S
C133 C143 1.386 . S
C133 H151 0.931 . S
C134 C132 1.365 . S
C134 C135 1.409 . S
C134 H152 0.929 . S
C135 C134 1.409 . S
C135 C136 1.380 . S
C135 H153 0.930 . S
C136 C135 1.380 . S
C136 C143 1.357 . S
C137 C128 1.511 . S
C137 C138 1.341 . S
C137 C139 1.371 . S
C138 C137 1.341 . S
C138 C142 1.394 . S
C138 H154 0.930 . S
C139 C137 1.371 . S
C139 C140 1.392 . S
C139 H155 0.931 . S
C140 C139 1.392 . S
C140 C141 1.331 . S
C140 H158 0.932 . S
C141 C140 1.331 . S
C141 C142 1.336 . S
C142 C138 1.394 . S
C142 C141 1.336 . S
C142 H157 0.929 . S
C143 C133 1.386 . S
C143 C136 1.357 . S
C143 H156 0.928 . S
H144 C120 0.931 . S
H145 C122 0.930 . S
H146 C124 0.929 . S
H147 C125 0.931 . S
H148 C127 0.930 . S
H149 C131 0.932 . S
H150 C129 0.931 . S
H151 C133 0.931 . S
H152 C134 0.929 . S
H153 C135 0.930 . S
H154 C138 0.930 . S
H155 C139 0.931 . S
H156 C143 0.928 . S
H157 C142 0.929 . S
H158 C140 0.932 . S
C159 C160 1.386 . S
C159 C161 1.397 . S
C159 H183 0.931 . S
C160 C159 1.386 . S
C160 C164 1.397 . S
C161 C159 1.397 . S
C161 C162 1.384 . S
C161 H184 0.930 . S
C162 C161 1.384 . S
C162 C163 1.377 . S
C162 C165 1.481 . S
C163 C162 1.377 . S
C163 C164 1.389 . S
C163 H185 0.929 . S
C164 C160 1.397 . S
C164 C163 1.389 . S
C164 H186 0.931 . S
C165 C162 1.481 . S
C165 C166 1.387 . S
C165 C170 1.390 . S
C166 C165 1.387 . S
C166 C167 1.401 . S
C166 H187 0.930 . S
C167 C166 1.401 . S
C167 C168 1.376 . S
C167 C176 1.511 . S
C168 C167 1.376 . S
C168 C169 1.392 . S
C168 H189 0.931 . S
C169 C168 1.392 . S
C169 C170 1.361 . S
C169 C171 1.500 . S
C170 C165 1.390 . S
C170 C169 1.361 . S
C170 H188 0.931 . S
C171 C169 1.500 . S
C171 C172 1.371 . S
C171 C173 1.365 . S
C172 C171 1.371 . S
C172 C182 1.386 . S
C172 H190 0.931 . S
C173 C171 1.365 . S
C173 C174 1.409 . S
C173 H191 0.929 . S
C174 C173 1.409 . S
C174 C175 1.380 . S
C174 H192 0.930 . S
C175 C174 1.380 . S
C175 C182 1.357 . S
C176 C167 1.511 . S
C176 C177 1.341 . S
C176 C178 1.371 . S
C177 C176 1.341 . S
C177 C181 1.394 . S
C177 H193 0.930 . S
C178 C176 1.371 . S
C178 C179 1.392 . S
C178 H194 0.931 . S
C179 C178 1.392 . S
C179 C180 1.331 . S
C179 H197 0.932 . S
C180 C179 1.331 . S
C180 C181 1.336 . S
C181 C177 1.394 . S
C181 C180 1.336 . S
C181 H196 0.929 . S
C182 C172 1.386 . S
C182 C175 1.357 . S
C182 H195 0.928 . S
H183 C159 0.931 . S
H184 C161 0.930 . S
H185 C163 0.929 . S
H186 C164 0.931 . S
H187 C166 0.930 . S
H188 C170 0.931 . S
H189 C168 0.931 . S
H190 C172 0.931 . S
H191 C173 0.929 . S
H192 C174 0.930 . S
H193 C177 0.930 . S
H194 C178 0.931 . S
H195 C182 0.928 . S
H196 C181 0.929 . S
H197 C179 0.932 . S
C198 C199 1.386 . S
C198 C200 1.397 1_554 S
C198 H222 0.931 . S
C199 C198 1.386 . S
C199 C203 1.397 1_455 S
C200 C198 1.397 1_556 S
C200 C201 1.384 . S
C200 H223 0.930 . S
C201 C200 1.384 . S
C201 C202 1.377 1_455 S
C201 C204 1.481 . S
C202 C201 1.377 1_655 S
C202 C203 1.389 1_556 S
C202 H224 0.929 . S
C203 C199 1.397 1_655 S
C203 C202 1.389 1_554 S
C203 H225 0.931 . S
C204 C201 1.481 . S
C204 C205 1.387 . S
C204 C209 1.390 1_455 S
C205 C204 1.387 . S
C205 C206 1.401 . S
C205 H226 0.930 . S
C206 C205 1.401 . S
C206 C207 1.376 . S
C206 C215 1.511 . S
C207 C206 1.376 . S
C207 C208 1.392 1_455 S
C207 H228 0.931 . S
C208 C207 1.392 1_655 S
C208 C209 1.361 . S
C208 C210 1.500 . S
C209 C204 1.390 1_655 S
C209 C208 1.361 . S
C209 H227 0.931 . S
C210 C208 1.500 . S
C210 C211 1.371 . S
C210 C212 1.365 . S
C211 C210 1.371 . S
C211 C221 1.386 . S
C211 H229 0.931 . S
C212 C210 1.365 . S
C212 C213 1.409 . S
C212 H230 0.929 . S
C213 C212 1.409 . S
C213 C214 1.380 . S
C213 H231 0.930 . S
C214 C213 1.380 . S
C214 C221 1.357 . S
C215 C206 1.511 . S
C215 C216 1.341 . S
C215 C217 1.371 . S
C216 C215 1.341 . S
C216 C220 1.394 . S
C216 H232 0.930 . S
C217 C215 1.371 . S
C217 C218 1.392 . S
C217 H233 0.931 . S
C218 C217 1.392 . S
C218 C219 1.331 . S
C218 H236 0.932 . S
C219 C218 1.331 . S
C219 C220 1.336 . S
C220 C216 1.394 . S
C220 C219 1.336 . S
C220 H235 0.929 . S
C221 C211 1.386 . S
C221 C214 1.357 . S
C221 H234 0.928 . S
H222 C198 0.931 . S
H223 C200 0.930 . S
H224 C202 0.929 . S
H225 C203 0.931 . S
H226 C205 0.930 . S
H227 C209 0.931 . S
H228 C207 0.931 . S
H229 C211 0.931 . S
H230 C212 0.929 . S
H231 C213 0.930 . S
H232 C216 0.930 . S
H233 C217 0.931 . S
H234 C221 0.928 . S
H235 C220 0.929 . S
H236 C218 0.932 . S
C237 C238 1.386 1_655 S
C237 C239 1.397 . S
C237 H261 0.931 . S
C238 C237 1.386 1_455 S
C238 C242 1.397 . S
C239 C237 1.397 . S
C239 C240 1.390 . S
C239 H262 0.930 . S
C240 C239 1.390 . S
C240 C241 1.370 1_655 S
C240 C243 1.481 . S
C241 C240 1.370 1_455 S
C241 C242 1.389 . S
C241 H263 0.929 . S
C242 C238 1.397 . S
C242 C241 1.389 . S
C242 H264 0.931 . S
C243 C240 1.481 . S
C243 C244 1.387 . S
C243 C248 1.390 1_655 S
C244 C243 1.387 . S
C244 C245 1.401 . S
C244 H265 0.930 . S
C245 C244 1.401 . S
C245 C246 1.376 . S
C245 C254 1.511 . S
C246 C245 1.376 . S
C246 C247 1.392 1_655 S
C246 H267 0.931 . S
C247 C246 1.392 1_455 S
C247 C248 1.361 . S
C247 C249 1.500 . S
C248 C243 1.390 1_455 S
C248 C247 1.361 . S
C248 H266 0.931 . S
C249 C247 1.500 . S
C249 C250 1.371 . S
C249 C251 1.365 . S
C250 C249 1.371 . S
C250 C260 1.386 . S
C250 H268 0.931 . S
C251 C249 1.365 . S
C251 C252 1.409 . S
C251 H269 0.929 . S
C252 C251 1.409 . S
C252 C253 1.380 . S
C252 H270 0.930 . S
C253 C252 1.380 . S
C253 C260 1.357 . S
C254 C245 1.511 . S
C254 C255 1.341 . S
C254 C256 1.371 . S
C255 C254 1.341 . S
C255 C259 1.394 . S
C255 H271 0.930 . S
C256 C254 1.371 . S
C256 C257 1.392 . S
C256 H272 0.931 . S
C257 C256 1.392 . S
C257 C258 1.331 . S
C257 H275 0.932 . S
C258 C257 1.331 . S
C258 C259 1.336 . S
C259 C255 1.394 . S
C259 C258 1.336 . S
C259 H274 0.929 . S
C260 C250 1.386 . S
C260 C253 1.357 . S
C260 H273 0.928 . S
H261 C237 0.931 . S
H262 C239 0.930 . S
H263 C241 0.929 . S
H264 C242 0.931 . S
H265 C244 0.930 . S
H266 C248 0.931 . S
H267 C246 0.931 . S
H268 C250 0.931 . S
H269 C251 0.929 . S
H270 C252 0.930 . S
H271 C255 0.930 . S
H272 C256 0.931 . S
H273 C260 0.928 . S
H274 C259 0.929 . S
H275 C257 0.932 . S
C276 C277 1.380 1_565 S
C276 C278 1.397 . S
C276 H300 0.931 . S
C277 C276 1.380 1_545 S
C277 C281 1.403 . S
C278 C276 1.397 . S
C278 C279 1.384 1_565 S
C278 H301 0.930 . S
C279 C278 1.384 1_545 S
C279 C280 1.377 . S
C279 C282 1.481 . S
C280 C279 1.377 . S
C280 C281 1.389 . S
C280 H302 0.929 . S
C281 C277 1.403 . S
C281 C280 1.389 . S
C281 H303 0.931 . S
C282 C279 1.481 . S
C282 C283 1.387 1_545 S
C282 C287 1.390 . S
C283 C282 1.387 1_565 S
C283 C284 1.401 . S
C283 H304 0.930 . S
C284 C283 1.401 . S
C284 C285 1.376 1_565 S
C284 C293 1.511 . S
C285 C284 1.376 1_545 S
C285 C286 1.392 . S
C285 H306 0.931 . S
C286 C285 1.392 . S
C286 C287 1.361 . S
C286 C288 1.500 . S
C287 C282 1.390 . S
C287 C286 1.361 . S
C287 H305 0.931 . S
C288 C286 1.500 . S
C288 C289 1.371 . S
C288 C290 1.365 . S
C289 C288 1.371 . S
C289 C299 1.386 . S
C289 H307 0.931 . S
C290 C288 1.365 . S
C290 C291 1.409 . S
C290 H308 0.929 . S
C291 C290 1.409 . S
C291 C292 1.380 . S
C291 H309 0.930 . S
C292 C291 1.380 . S
C292 C299 1.357 . S
C293 C284 1.511 . S
C293 C294 1.341 . S
C293 C295 1.371 . S
C294 C293 1.341 . S
C294 C298 1.394 . S
C294 H310 0.930 . S
C295 C293 1.371 . S
C295 C296 1.392 . S
C295 H311 0.931 . S
C296 C295 1.392 . S
C296 C297 1.331 . S
C296 H314 0.932 . S
C297 C296 1.331 . S
C297 C298 1.336 . S
C298 C294 1.394 . S
C298 C297 1.336 . S
C298 H313 0.929 . S
C299 C289 1.386 . S
C299 C292 1.357 . S
C299 H312 0.928 . S
H300 C276 0.931 . S
H301 C278 0.930 . S
H302 C280 0.929 . S
H303 C281 0.931 . S
H304 C283 0.930 . S
H305 C287 0.931 . S
H306 C285 0.931 . S
H307 C289 0.931 . S
H308 C290 0.929 . S
H309 C291 0.930 . S
H310 C294 0.930 . S
H311 C295 0.931 . S
H312 C299 0.928 . S
H313 C298 0.929 . S
H314 C296 0.932 . S
C315 C316 1.386 1_554 S
C315 C317 1.397 . S
C315 H339 0.928 1_554 S
C316 C315 1.386 1_556 S
C316 C320 1.397 1_556 S
C317 C315 1.397 . S
C317 C318 1.384 . S
C317 H340 0.930 . S
C318 C317 1.384 . S
C318 C319 1.377 . S
C318 C321 1.481 . S
C319 C318 1.377 . S
C319 C320 1.389 . S
C319 H341 0.929 . S
C320 C316 1.397 1_554 S
C320 C319 1.389 . S
C320 H342 0.931 . S
C321 C318 1.481 . S
C321 C322 1.387 . S
C321 C326 1.390 . S
C322 C321 1.387 . S
C322 C323 1.401 . S
C322 H343 0.930 . S
C323 C322 1.401 . S
C323 C324 1.376 . S
C323 C332 1.511 . S
C324 C323 1.376 . S
C324 C325 1.392 . S
C324 H345 0.931 . S
C325 C324 1.392 . S
C325 C326 1.361 . S
C325 C327 1.500 . S
C326 C321 1.390 . S
C326 C325 1.361 . S
C326 H344 0.931 . S
C327 C325 1.500 . S
C327 C328 1.371 . S
C327 C329 1.365 . S
C328 C327 1.371 . S
C328 C338 1.386 . S
C328 H346 0.931 . S
C329 C327 1.365 . S
C329 C330 1.409 . S
C329 H347 0.929 . S
C330 C329 1.409 . S
C330 C331 1.380 . S
C330 H348 0.930 . S
C331 C330 1.380 . S
C331 C338 1.357 . S
C332 C323 1.511 . S
C332 C333 1.341 . S
C332 C334 1.371 . S
C333 C332 1.341 . S
C333 C337 1.394 . S
C333 H349 0.930 . S
C334 C332 1.371 . S
C334 C335 1.392 . S
C334 H350 0.931 . S
C335 C334 1.392 . S
C335 C336 1.331 . S
C335 H353 0.932 . S
C336 C335 1.331 . S
C336 C337 1.336 . S
C337 C333 1.394 . S
C337 C336 1.336 . S
C337 H352 0.929 . S
C338 C328 1.386 . S
C338 C331 1.357 . S
C338 H351 0.928 . S
H339 C315 0.928 1_556 S
H340 C317 0.930 . S
H341 C319 0.929 . S
H342 C320 0.931 . S
H343 C322 0.930 . S
H344 C326 0.931 . S
H345 C324 0.931 . S
H346 C328 0.931 . S
H347 C329 0.929 . S
H348 C330 0.930 . S
H349 C333 0.930 . S
H350 C334 0.931 . S
H351 C338 0.928 . S
H352 C337 0.929 . S
H353 C335 0.932 . S
C354 C355 1.369 . S
C354 C356 1.419 . S
C354 H358 0.930 . S
C355 C354 1.369 . S
C355 C364 1.429 . S
C356 C354 1.419 . S
C356 C357 1.363 . S
C356 H359 0.929 . S
C357 C356 1.363 . S
C357 C363 1.428 . S
H358 C354 0.930 . S
H359 C356 0.929 . S
S360 N361 1.613 . S
S360 N362 1.610 . S
N361 S360 1.613 . S
N361 C364 1.350 . S
N362 S360 1.610 . S
N362 C363 1.351 . S
C363 C357 1.428 . S
C363 N362 1.351 . S
C363 C364 1.434 . S
C364 C355 1.429 . S
C364 N361 1.350 . S
C364 C363 1.434 . S
C365 C366 1.369 . S
C365 C367 1.419 . S
C365 H369 0.930 . S
C366 C365 1.369 . S
C366 C375 1.429 . S
C367 C365 1.419 . S
C367 C368 1.363 . S
C367 H370 0.929 . S
C368 C367 1.363 . S
C368 C374 1.428 . S
H369 C365 0.930 . S
H370 C367 0.929 . S
S371 N372 1.613 . S
S371 N373 1.610 . S
N372 S371 1.613 . S
N372 C375 1.350 . S
N373 S371 1.610 . S
N373 C374 1.351 . S
C374 C368 1.428 . S
C374 N373 1.351 . S
C374 C375 1.434 . S
C375 C366 1.429 . S
C375 N372 1.350 . S
C375 C374 1.434 . S
C376 C377 1.369 . S
C376 C378 1.419 . S
C376 H380 0.930 . S
C377 C376 1.369 . S
C377 C386 1.429 . S
C378 C376 1.419 . S
C378 C379 1.363 . S
C378 H381 0.929 . S
C379 C378 1.363 . S
C379 C385 1.428 . S
H380 C376 0.930 . S
H381 C378 0.929 . S
S382 N383 1.613 . S
S382 N384 1.610 . S
N383 S382 1.613 . S
N383 C386 1.350 . S
N384 S382 1.610 . S
N384 C385 1.351 . S
C385 C379 1.428 . S
C385 N384 1.351 . S
C385 C386 1.434 . S
C386 C377 1.429 . S
C386 N383 1.350 . S
C386 C385 1.434 . S
C387 C388 1.369 . S
C387 C389 1.419 . S
C387 H391 0.930 . S
C388 C387 1.369 . S
C388 C397 1.429 . S
C389 C387 1.419 . S
C389 C390 1.363 . S
C389 H392 0.929 . S
C390 C389 1.363 . S
C390 C396 1.428 . S
H391 C387 0.930 . S
H392 C389 0.929 . S
S393 N394 1.613 . S
S393 N395 1.610 . S
N394 S393 1.613 . S
N394 C397 1.350 . S
N395 S393 1.610 . S
N395 C396 1.351 . S
C396 C390 1.428 . S
C396 N395 1.351 . S
C396 C397 1.434 . S
C397 C388 1.429 . S
C397 N394 1.350 . S
C397 C396 1.434 . S
C398 C399 1.369 . S
C398 C400 1.419 . S
C398 H402 0.930 . S
C399 C398 1.369 . S
C399 C408 1.429 . S
C400 C398 1.419 . S
C400 C401 1.363 . S
C400 H403 0.929 . S
C401 C400 1.363 . S
C401 C407 1.428 . S
H402 C398 0.930 . S
H403 C400 0.929 . S
S404 N405 1.613 . S
S404 N406 1.610 . S
N405 S404 1.613 . S
N405 C408 1.350 . S
N406 S404 1.610 . S
N406 C407 1.351 . S
C407 C401 1.428 . S
C407 N406 1.351 . S
C407 C408 1.434 . S
C408 C399 1.429 . S
C408 N405 1.350 . S
C408 C407 1.434 . S
C409 C410 1.369 . S
C409 C411 1.419 . S
C409 H413 0.930 . S
C410 C409 1.369 . S
C410 C419 1.429 . S
C411 C409 1.419 . S
C411 C412 1.363 . S
C411 H414 0.929 . S
C412 C411 1.363 . S
C412 C418 1.428 . S
H413 C409 0.930 . S
H414 C411 0.929 . S
S415 N416 1.613 . S
S415 N417 1.610 . S
N416 S415 1.613 . S
N416 C419 1.350 . S
N417 S415 1.610 . S
N417 C418 1.351 . S
C418 C412 1.428 . S
C418 N417 1.351 . S
C418 C419 1.434 . S
C419 C410 1.429 . S
C419 N416 1.350 . S
C419 C418 1.434 . S
C420 C421 1.369 . S
C420 C422 1.419 . S
C420 H424 0.930 . S
C421 C420 1.369 . S
C421 C430 1.429 . S
C422 C420 1.419 . S
C422 C423 1.363 . S
C422 H425 0.929 . S
C423 C422 1.363 . S
C423 C429 1.428 . S
H424 C420 0.930 . S
H425 C422 0.929 . S
S426 N427 1.613 . S
S426 N428 1.610 . S
N427 S426 1.613 . S
N427 C430 1.350 . S
N428 S426 1.610 . S
N428 C429 1.351 . S
C429 C423 1.428 . S
C429 N428 1.351 . S
C429 C430 1.434 . S
C430 C421 1.429 . S
C430 N427 1.350 . S
C430 C429 1.434 . S
C431 C432 1.369 . S
C431 C433 1.419 . S
C431 H435 0.930 . S
C432 C431 1.369 . S
C432 C441 1.429 . S
C433 C431 1.419 . S
C433 C434 1.363 . S
C433 H436 0.929 . S
C434 C433 1.363 . S
C434 C440 1.428 . S
H435 C431 0.930 . S
H436 C433 0.929 . S
S437 N438 1.613 . S
S437 N439 1.610 . S
N438 S437 1.613 . S
N438 C441 1.350 . S
N439 S437 1.610 . S
N439 C440 1.351 . S
C440 C434 1.428 . S
C440 N439 1.351 . S
C440 C441 1.434 . S
C441 C432 1.429 . S
C441 N438 1.350 . S
C441 C440 1.434 . S
C442 C443 1.369 . S
C442 C444 1.419 . S
C442 H446 0.930 . S
C443 C442 1.369 . S
C443 C452 1.429 . S
C444 C442 1.419 . S
C444 C445 1.363 . S
C444 H447 0.929 . S
C445 C444 1.363 . S
C445 C451 1.428 . S
H446 C442 0.930 . S
H447 C444 0.929 . S
S448 N449 1.613 . S
S448 N450 1.610 . S
N449 S448 1.613 . S
N449 C452 1.350 . S
N450 S448 1.610 . S
N450 C451 1.351 . S
C451 C445 1.428 . S
C451 N450 1.351 . S
C451 C452 1.434 . S
C452 C443 1.429 . S
C452 N449 1.350 . S
C452 C451 1.434 . S
C453 C454 1.369 . S
C453 C455 1.419 . S
C453 H457 0.930 . S
C454 C453 1.369 . S
C454 C463 1.429 . S
C455 C453 1.419 . S
C455 C456 1.363 . S
C455 H458 0.929 . S
C456 C455 1.363 . S
C456 C462 1.428 . S
H457 C453 0.930 . S
H458 C455 0.929 . S
S459 N460 1.613 . S
S459 N461 1.610 . S
N460 S459 1.613 . S
N460 C463 1.350 . S
N461 S459 1.610 . S
N461 C462 1.351 . S
C462 C456 1.428 . S
C462 N461 1.351 . S
C462 C463 1.434 . S
C463 C454 1.429 . S
C463 N460 1.350 . S
C463 C462 1.434 . S
C464 C465 1.369 . S
C464 C466 1.419 . S
C464 H468 0.930 . S
C465 C464 1.369 . S
C465 C474 1.429 . S
C466 C464 1.419 . S
C466 C467 1.363 . S
C466 H469 0.929 . S
C467 C466 1.363 . S
C467 C473 1.428 . S
H468 C464 0.930 . S
H469 C466 0.929 . S
S470 N471 1.613 . S
S470 N472 1.610 . S
N471 S470 1.613 . S
N471 C474 1.350 . S
N472 S470 1.610 . S
N472 C473 1.351 . S
C473 C467 1.428 . S
C473 N472 1.351 . S
C473 C474 1.434 . S
C474 C465 1.429 . S
C474 N471 1.350 . S
C474 C473 1.434 . S
C475 C476 1.369 . S
C475 C477 1.419 . S
C475 H479 0.930 . S
C476 C475 1.369 . S
C476 C485 1.429 . S
C477 C475 1.419 . S
C477 C478 1.363 . S
C477 H480 0.929 . S
C478 C477 1.363 . S
C478 C484 1.428 . S
H479 C475 0.930 . S
H480 C477 0.929 . S
S481 N482 1.613 . S
S481 N483 1.610 . S
N482 S481 1.613 . S
N482 C485 1.350 . S
N483 S481 1.610 . S
N483 C484 1.351 . S
C484 C478 1.428 . S
C484 N483 1.351 . S
C484 C485 1.434 . S
C485 C476 1.429 . S
C485 N482 1.350 . S
C485 C484 1.434 . S
C486 C487 1.369 . S
C486 C488 1.419 . S
C486 H490 0.930 . S
C487 C486 1.369 . S
C487 C496 1.429 1_455 S
C488 C486 1.419 . S
C488 C489 1.363 . S
C488 H491 0.929 . S
C489 C488 1.363 . S
C489 C495 1.428 1_455 S
H490 C486 0.930 . S
H491 C488 0.929 . S
S492 N493 1.613 . S
S492 N494 1.610 . S
N493 S492 1.613 . S
N493 C496 1.350 . S
N494 S492 1.610 . S
N494 C495 1.351 . S
C495 C489 1.428 1_655 S
C495 N494 1.351 . S
C495 C496 1.434 . S
C496 C487 1.429 1_655 S
C496 N493 1.350 . S
C496 C495 1.434 . S
C497 C498 1.369 . S
C497 C499 1.419 . S
C497 H501 0.930 . S
C498 C497 1.369 . S
C498 C507 1.429 1_545 S
C499 C497 1.419 . S
C499 C500 1.363 . S
C499 H502 0.929 . S
C500 C499 1.363 . S
C500 C506 1.428 1_545 S
H501 C497 0.930 . S
H502 C499 0.929 . S
S503 N504 1.613 . S
S503 N505 1.610 . S
N504 S503 1.613 . S
N504 C507 1.350 . S
N505 S503 1.610 . S
N505 C506 1.351 . S
C506 C500 1.428 1_565 S
C506 N505 1.351 . S
C506 C507 1.434 . S
C507 C498 1.429 1_565 S
C507 N504 1.350 . S
C507 C506 1.434 . S
C508 C509 1.369 . S
C508 C510 1.419 . S
C508 H512 0.930 . S
C509 C508 1.369 . S
C509 C518 1.429 . S
C510 C508 1.419 . S
C510 C511 1.363 . S
C510 H513 0.929 . S
C511 C510 1.363 . S
C511 C517 1.428 . S
H512 C508 0.930 . S
H513 C510 0.929 . S
S514 N515 1.613 . S
S514 N516 1.610 . S
N515 S514 1.613 . S
N515 C518 1.350 . S
N516 S514 1.610 . S
N516 C517 1.351 . S
C517 C511 1.428 . S
C517 N516 1.351 . S
C517 C518 1.434 . S
C518 C509 1.429 . S
C518 N515 1.350 . S
C518 C517 1.434 . S
C519 C520 1.369 . S
C519 C521 1.419 . S
C519 H523 0.930 . S
C520 C519 1.369 . S
C520 C529 1.429 1_545 S
C521 C519 1.419 . S
C521 C522 1.363 . S
C521 H524 0.929 . S
C522 C521 1.363 . S
C522 C528 1.428 1_545 S
H523 C519 0.930 . S
H524 C521 0.929 . S
S525 N526 1.613 . S
S525 N527 1.610 . S
N526 S525 1.613 . S
N526 C529 1.350 . S
N527 S525 1.610 . S
N527 C528 1.351 . S
C528 C522 1.428 1_565 S
C528 N527 1.351 . S
C528 C529 1.434 . S
C529 C520 1.429 1_565 S
C529 N526 1.350 . S
C529 C528 1.434 . S
C530 C531 1.369 . S
C530 C532 1.419 . S
C530 H534 0.930 . S
C531 C530 1.369 . S
C531 C540 1.429 . S
C532 C530 1.419 . S
C532 C533 1.363 . S
C532 H535 0.929 . S
C533 C532 1.363 . S
C533 C539 1.428 . S
H534 C530 0.930 . S
H535 C532 0.929 . S
S536 N537 1.613 . S
S536 N538 1.610 . S
N537 S536 1.613 . S
N537 C540 1.350 . S
N538 S536 1.610 . S
N538 C539 1.351 . S
C539 C533 1.428 . S
C539 N538 1.351 . S
C539 C540 1.434 . S
C540 C531 1.429 . S
C540 N537 1.350 . S
C540 C539 1.434 . S
C541 C542 1.369 . S
C541 C543 1.419 . S
C541 H545 0.930 . S
C542 C541 1.369 . S
C542 C551 1.429 1_455 S
C543 C541 1.419 . S
C543 C544 1.363 . S
C543 H546 0.929 . S
C544 C543 1.363 . S
C544 C550 1.428 1_455 S
H545 C541 0.930 . S
H546 C543 0.929 . S
S547 N548 1.613 . S
S547 N549 1.610 . S
N548 S547 1.613 . S
N548 C551 1.350 . S
N549 S547 1.610 . S
N549 C550 1.351 . S
C550 C544 1.428 1_655 S
C550 N549 1.351 . S
C550 C551 1.434 . S
C551 C542 1.429 1_655 S
C551 N548 1.350 . S
C551 C550 1.434 . S
C355 C10 3.198 . S
C357 C331 3.135 . S
C366 C55 1.294 . S
C368 C258 1.325 . S
C377 C90 2.018 . S
C379 C297 1.976 . S
C388 C19 3.105 . S
C390 C336 3.048 . S
C401 C253 1.383 . S
C399 C46 1.347 . S
C412 C292 2.120 . S
C410 C99 2.198 . S
C421 C50 2.020 . S
C423 C180 1.967 . S
C432 C95 0.911 . S
C434 C214 0.986 . S
C443 C6 1.363 . S
C445 C136 1.381 . S
C456 C175 2.064 . S
C454 C59 2.166 . S
C467 C219 0.543 . S
C465 C86 0.649 . S
C476 C15 1.404 . S
C478 C141 1.440 . S
C489 C199 1.107 . S
C487 C18 1.105 . S
C498 C49 1.456 . S
C500 C121 1.496 . S
C509 C98 1.331 . S
C511 C160 1.361 . S
C522 C277 1.377 . S
C520 C58 1.336 . S
C533 C316 1.794 . S
C531 C89 1.718 . S
C542 C9 1.451 . S
C544 C238 1.508 . S
