# Generated by pormake.
# Topology tsx, (6,3)-cn, num edge types: 1
# Building blocks:
#     Node 0, Type 0, BuildingBlock: MIDCAF_clean_sbu_0, # of connection points: 6
#     Node 1, Type 0, BuildingBlock: MIDCAF_clean_sbu_0, # of connection points: 6
#     Node 2, Type 1, BuildingBlock: MIDCAF_clean_linker_0, # of connection points: 3
#     Node 3, Type 1, BuildingBlock: MIDCAF_clean_linker_0, # of connection points: 3
#     Node 4, Type 1, BuildingBlock: MIDCAF_clean_linker_0, # of connection points: 3
#     Node 5, Type 1, BuildingBlock: MIDCAF_clean_linker_0, # of connection points: 3
#     Edge 6, Type (0, 1), BuildingBlock: FUNLAD_clean_linker_0, # of connection points: 2
#     Edge 7, Type (0, 1), BuildingBlock: FUNLAD_clean_linker_0, # of connection points: 2
#     Edge 8, Type (0, 1), BuildingBlock: FUNLAD_clean_linker_0, # of connection points: 2
#     Edge 9, Type (0, 1), BuildingBlock: FUNLAD_clean_linker_0, # of connection points: 2
#     Edge 10, Type (0, 1), BuildingBlock: FUNLAD_clean_linker_0, # of connection points: 2
#     Edge 11, Type (0, 1), BuildingBlock: FUNLAD_clean_linker_0, # of connection points: 2
#     Edge 12, Type (0, 1), BuildingBlock: FUNLAD_clean_linker_0, # of connection points: 2
#     Edge 13, Type (0, 1), BuildingBlock: FUNLAD_clean_linker_0, # of connection points: 2
#     Edge 14, Type (0, 1), BuildingBlock: FUNLAD_clean_linker_0, # of connection points: 2
#     Edge 15, Type (0, 1), BuildingBlock: FUNLAD_clean_linker_0, # of connection points: 2
#     Edge 16, Type (0, 1), BuildingBlock: FUNLAD_clean_linker_0, # of connection points: 2
#     Edge 17, Type (0, 1), BuildingBlock: FUNLAD_clean_linker_0, # of connection points: 2
# Relax obj value: 0.119
# Max RMSD: 0.182
# Mean RMSD: 0.113
data_MOF--net-tsx--node1-MIDCAF_clean_sbu_0--node2-MIDCAF_clean_linker_0--edge1-FUNLAD_clean_linker_0
_symmetry_space_group_name_H-M    P1
_symmetry_Int_Tables_number       1
_symmetry_cell_setting            triclinic
loop_
_symmetry_equiv_pos_as_xyz
'x, y, z'
_cell_length_a     25.664123
_cell_length_b     29.657253
_cell_length_c     53.850862
_cell_angle_alpha  91.265533
_cell_angle_beta   97.399423
_cell_angle_gamma 90.077841
loop_
_atom_site_label
_atom_site_type_symbol
_atom_site_fract_x
_atom_site_fract_y
_atom_site_fract_z
_atom_type_partial_charge
Zn0 Zn 0.03666 0.91655 0.98016 0.0
Zn1 Zn 0.17338 0.95213 0.04046 0.0
Zn2 Zn 0.09456 0.94536 0.01095 0.0
C3 C 0.15795 0.03563 0.01439 0.0
C4 C 0.18658 0.87735 0.00855 0.0
O5 O 0.02771 0.91311 0.02614 0.0
O6 O 1.02316 0.85947 -0.00281 0.0
C7 C 1.00871 0.00688 0.98757 0.0
O8 O 0.1156 0.01587 0.00401 0.0
O9 O 0.18992 0.01468 0.02988 0.0
O10 O 0.20998 0.89883 0.02729 0.0
O11 O 0.14121 0.89032 -0.00118 0.0
O12 O 0.98496 -0.03066 0.98412 0.0
O13 O 0.0593 0.0065 -0.00716 0.0
O14 O 0.10092 -0.0132 0.97784 0.0
O15 O 0.08823 0.92463 0.955 0.0
C16 C 0.10479 0.965 0.95718 0.0
O17 O 0.06123 0.94202 0.04591 0.0
O18 O 0.13651 0.94446 0.07088 0.0
C19 C 1.01081 0.87395 0.01793 0.0
C20 C 0.08689 0.94192 0.06797 0.0
Zn21 Zn 0.66014 0.52019 0.53328 0.0
Zn22 Zn 0.4744 0.51617 0.47648 0.0
Zn23 Zn 0.56686 0.51871 0.50441 0.0
C24 C 0.54961 0.48762 0.44617 0.0
C25 C 0.49223 0.60563 0.49288 0.0
O26 O 0.5579 0.48141 0.53866 0.0
O27 O 0.63666 0.48544 0.56095 0.0
C28 C 0.67482 0.47425 0.48898 0.0
O29 O 0.57987 0.49224 0.46711 0.0
O30 O 0.5013 0.49681 0.44493 0.0
O31 O 0.45645 0.58011 0.48212 0.0
O32 O 0.53757 0.58938 0.50121 0.0
O33 O 0.7002 0.48762 0.50948 0.0
O34 O 0.62562 0.4838 0.4838 0.0
O35 O 0.5888 0.59036 0.514 0.0
O36 O 0.66678 0.58661 0.53702 0.0
C37 C 0.6293 0.6097 0.52654 0.0
O38 O 0.51211 0.47366 0.5218 0.0
O39 O 0.43936 0.47104 0.49484 0.0
C40 C 0.58934 0.47252 0.5586 0.0
C41 C 0.46526 0.45824 0.51493 0.0
C42 C 0.94014 0.14758 0.39918 0.0
C43 C 0.94977 0.16573 0.42365 0.0
C44 C 0.98987 0.14674 0.4405 0.0
C45 C 1.01991 0.11072 0.43294 0.0
H46 H 0.1337 0.00579 0.45815 0.0
H47 H 0.2047 0.96682 0.48403 0.0
H48 H 0.26422 0.91755 0.41709 0.0
H49 H 0.19458 0.95631 0.39152 0.0
H50 H 0.10384 0.93341 0.34533 0.0
H51 H 0.09425 0.91114 0.30132 0.0
H52 H 0.99212 0.02475 0.28348 0.0
H53 H 1.00059 0.0466 0.32777 0.0
H54 H 0.96146 0.09915 0.37251 0.0
H55 H 0.91017 0.16173 0.38559 0.0
H56 H 0.99793 0.15957 0.4596 0.0
H57 H 0.05062 0.09708 0.44634 0.0
N58 N 0.08321 0.03734 0.4152 0.0
N59 N 0.10288 -0.01028 0.38231 0.0
N60 N 0.03351 0.04069 0.37543 0.0
C61 C 0.11344 0.00425 0.40652 0.0
C62 C 0.06303 0.00756 0.36667 0.0
C63 C 0.04306 0.05578 0.39962 0.0
C64 C 0.15807 -0.0161 0.42275 0.0
C65 C 0.16237 -0.01292 0.44903 0.0
C66 C 0.20289 0.96463 0.46384 0.0
C67 C 0.24023 0.93915 0.45263 0.0
C68 C 0.23671 0.93736 0.42639 0.0
C69 C 0.19623 0.95929 0.41169 0.0
C70 C 0.05356 -0.00783 0.3401 0.0
C71 C 0.07901 0.95357 0.33212 0.0
C72 C 0.07364 0.94083 0.30683 0.0
C73 C 0.04302 0.96653 0.28884 0.0
C74 C 1.01575 0.00407 0.29688 0.0
C75 C 1.02088 0.01672 0.32227 0.0
C76 C 1.01053 0.09294 0.40833 0.0
C77 C 0.97 0.11172 0.39164 0.0
C78 C 0.88152 0.95668 0.6032 0.0
C79 C 0.88286 0.94693 0.57764 0.0
C80 C 0.92211 0.96728 0.56561 0.0
C81 C 0.95942 -0.00365 0.57893 0.0
H82 H 0.07824 0.09516 0.57172 0.0
H83 H 0.14051 0.14225 0.55307 0.0
H84 H 0.21261 0.18368 0.62699 0.0
H85 H 0.15186 0.13645 0.64554 0.0
H86 H 0.09624 0.12037 0.69204 0.0
H87 H 0.10329 0.12132 0.73758 0.0
H88 H 0.99677 0.00765 0.73394 0.0
H89 H 0.98835 0.00761 0.68852 0.0
H90 H 0.91659 -0.00849 0.63624 0.0
H91 H 0.85239 0.94113 0.61317 0.0
H92 H 0.92399 0.96072 0.54588 0.0
H93 H 0.98934 0.01114 0.56915 0.0
N94 N 0.03415 0.05873 0.60805 0.0
N95 N 0.07285 0.08646 0.6473 0.0
N96 N 1.00181 0.0365 0.6448 0.0
C97 C 0.07122 0.08491 0.62199 0.0
C98 C 0.03848 0.06242 0.65887 0.0
C99 C 0.99913 0.03444 0.61941 0.0
C100 C 0.10968 0.11203 0.61015 0.0
C101 C 0.10761 0.11408 0.58398 0.0
C102 C 0.14318 0.14121 0.57328 0.0
C103 C 0.18166 0.16673 0.58854 0.0
C104 C 0.18415 0.16399 0.61465 0.0
C105 C 0.14876 0.13706 0.6253 0.0
C106 C 0.04173 0.06387 0.68656 0.0
C107 C 0.07408 0.09571 0.70094 0.0
C108 C 0.07834 0.09617 0.7271 0.0
C109 C 0.05058 0.06465 0.7395 0.0
C110 C 1.01794 0.03306 0.72507 0.0
C111 C 1.01337 0.03281 0.69895 0.0
C112 C 0.95855 0.00537 0.60464 0.0
C113 C 0.91881 -0.01461 0.6165 0.0
C114 C 0.39769 0.53427 0.89452 0.0
C115 C 0.41213 0.55356 0.91846 0.0
C116 C 0.45699 0.537 0.93328 0.0
C117 C 0.4878 0.50315 0.92388 0.0
H118 H 0.58191 0.36459 0.93644 0.0
H119 H 0.64858 0.31411 0.9569 0.0
H120 H 0.74375 0.33508 0.89739 0.0
H121 H 0.67582 0.38292 0.87648 0.0
H122 H 0.57634 0.35606 0.82187 0.0
H123 H 0.56416 0.34874 0.77634 0.0
H124 H 0.46198 0.46483 0.77201 0.0
H125 H 0.47258 0.47114 0.81737 0.0
H126 H 0.41609 0.48745 0.86642 0.0
H127 H 0.36271 0.54532 0.88284 0.0
H128 H 0.46926 0.55122 0.95181 0.0
H129 H 0.52298 0.49208 0.9354 0.0
N130 N 0.54823 0.43036 0.90185 0.0
N131 N 0.57282 0.39737 0.86495 0.0
N132 N 0.50218 0.4473 0.86263 0.0
C133 C 0.58038 0.40246 0.89031 0.0
C134 C 0.53364 0.41954 0.85099 0.0
C135 C 0.50893 0.45306 0.88792 0.0
C136 C 0.6234 0.37719 0.90474 0.0
C137 C 0.6174 0.35863 0.92796 0.0
C138 C 0.65585 0.32979 0.9397 0.0
C139 C 0.70155 0.31963 0.92867 0.0
C140 C 0.70854 0.34063 0.90613 0.0
C141 C 0.66974 0.3685 0.8942 0.0
C142 C 0.52563 0.41428 0.82332 0.0
C143 C 0.55108 0.37989 0.8112 0.0
C144 C 0.54421 0.37578 0.78506 0.0
C145 C 0.51212 0.40622 0.77043 0.0
C146 C 0.48619 0.44024 0.78262 0.0
C147 C 0.49266 0.44409 0.80871 0.0
C148 C 0.47435 0.48533 0.89947 0.0
C149 C 0.42833 0.50077 0.88516 0.0
C150 C 0.40277 0.37658 0.08522 0.0
C151 C 0.39698 0.37908 0.05899 0.0
C152 C 0.42854 0.40987 0.04803 0.0
C153 C 0.46539 0.4371 0.06301 0.0
H154 H 0.59605 0.53104 0.06282 0.0
H155 H 0.65338 0.58766 0.04808 0.0
H156 H 0.68307 0.64548 0.12298 0.0
H157 H 0.62774 0.58821 0.13775 0.0
H158 H 0.63716 0.50989 0.18024 0.0
H159 H 0.65328 0.49505 0.22479 0.0
H160 H 0.51826 0.40627 0.21745 0.0
H161 H 0.50288 0.42006 0.17274 0.0
H162 H 0.44297 0.39997 0.12024 0.0
H163 H 0.37991 0.35274 0.09433 0.0
H164 H 0.42486 0.41284 0.02787 0.0
H165 H 0.48937 0.46014 0.05398 0.0
N166 N 0.5402 0.49394 0.09595 0.0
N167 N 0.58535 0.50917 0.13603 0.0
N168 N 0.52147 0.45237 0.13041 0.0
C169 C 0.57672 0.51843 0.11127 0.0
C170 C 0.55815 0.47616 0.14576 0.0
C171 C 0.5121 0.46091 0.10552 0.0
C172 C 0.60774 0.55473 0.1015 0.0
C173 C 0.61461 0.55604 0.07606 0.0
C174 C 0.64735 0.58868 0.06761 0.0
C175 C 0.67344 0.62103 0.08438 0.0
C176 C 0.66485 0.62053 0.10962 0.0
C177 C 0.63275 0.58772 0.11808 0.0
C178 C 0.56851 0.46636 0.17284 0.0
C179 C 0.61093 0.48706 0.18806 0.0
C180 C 0.62014 0.47867 0.21367 0.0
C181 C 0.58703 0.44956 0.22476 0.0
C182 C 0.54506 0.42835 0.20949 0.0
C183 C 0.53598 0.43655 0.18384 0.0
C184 C 0.47174 0.43386 0.08927 0.0
C185 C 0.43954 0.4035 0.10012 0.0
C186 C 0.22431 0.09264 0.00675 0.0
C187 C 0.17159 0.08217 0.00845 0.0
C188 C 0.24096 0.13737 0.00637 0.0
C189 C 0.20513 0.17298 0.00774 0.0
C190 C 0.15173 0.16234 0.00814 0.0
C191 C 0.135 0.11726 0.00836 0.0
C192 C 0.22355 0.22054 0.01251 0.0
C193 C 0.27087 0.23537 0.00756 0.0
C194 C 0.29721 0.2777 0.0183 0.0
C195 C 0.34458 0.29076 0.00993 0.0
C196 C 0.37568 0.3253 0.02228 0.0
C197 C 0.36023 0.3476 0.04341 0.0
H198 H 0.24458 0.29298 0.04602 0.0
C199 C 0.31138 0.33642 0.05091 0.0
C200 C 0.28031 0.30184 0.03861 0.0
H201 H 0.29788 0.35344 0.06689 0.0
H202 H 0.25337 0.06612 0.00696 0.0
H203 H 0.28258 0.1435 0.00672 0.0
H204 H 0.1233 0.18896 0.00949 0.0
H205 H 0.09437 0.11006 0.01028 0.0
H206 H 0.19835 0.24287 0.02179 0.0
H207 H 0.29343 0.21417 -0.00377 0.0
H208 H 0.35887 0.2728 -0.00556 0.0
H209 H 0.41319 0.33274 0.01607 0.0
C210 C 0.19093 0.81365 0.97692 0.0
C211 C 0.21211 0.83677 -0.00099 0.0
C212 C 0.2159 0.77509 0.96859 0.0
C213 C 0.26245 0.75896 0.98229 0.0
C214 C 0.28295 0.78188 0.00444 0.0
C215 C 0.25843 0.82034 0.0126 0.0
C216 C 0.29059 0.71805 0.9747 0.0
C217 C 0.28809 0.70235 0.95092 0.0
C218 C 0.32016 0.66372 0.94338 0.0
C219 C 0.33172 0.66098 0.91864 0.0
C220 C 0.36197 0.62562 0.91074 0.0
C221 C 0.38103 0.59166 0.92734 0.0
H222 H 0.32968 0.62966 0.97907 0.0
C223 C 0.3693 0.59415 0.95211 0.0
C224 C 0.33898 0.62964 0.96004 0.0
H225 H 0.3826 0.56816 0.96524 0.0
H226 H 0.15512 0.82526 0.96612 0.0
H227 H 0.19811 0.75771 0.95173 0.0
H228 H 0.31848 0.77018 0.01547 0.0
H229 H 0.2758 0.83698 0.02981 0.0
H230 H 0.31757 0.70244 0.98916 0.0
H231 H 0.26477 0.72035 0.93607 0.0
H232 H 0.3178 0.68663 0.90539 0.0
H233 H 0.37085 0.62516 0.89161 0.0
C234 C 0.95791 0.80416 0.02104 0.0
C235 C 0.97469 0.84675 0.03104 0.0
C236 C 0.92063 0.77934 0.03165 0.0
C237 C 0.89901 0.79638 0.0526 0.0
C238 C 0.91727 0.83803 0.06334 0.0
C239 C 0.95443 0.86326 0.05251 0.0
C240 C 0.8583 0.77049 0.06363 0.0
C241 C 0.82216 0.74479 0.04934 0.0
C242 C 0.78308 0.71563 0.05946 0.0
C243 C 0.73686 0.7033 0.04389 0.0
C244 C 0.70088 0.67329 0.05204 0.0
C245 C 0.71066 0.65433 0.07589 0.0
H246 H 0.82867 0.70467 0.09565 0.0
C247 C 0.75703 0.66679 0.09148 0.0
C248 C 0.79274 0.69713 0.08341 0.0
H249 H 0.76664 0.65214 0.10973 0.0
H250 H 0.97303 0.79004 0.00469 0.0
H251 H 0.909 0.74663 0.02344 0.0
H252 H 0.90175 0.8516 0.07972 0.0
H253 H 0.96634 0.89595 0.06061 0.0
H254 H 0.85725 0.77382 0.08368 0.0
H255 H 0.82042 0.74552 0.02908 0.0
H256 H 0.7286 0.71682 0.02527 0.0
H257 H 0.66538 0.66504 0.03963 0.0
C258 C 0.92613 0.05177 0.98604 0.0
C259 C 0.97934 0.04926 0.98249 0.0
C260 C 0.89703 0.09072 0.97994 0.0
C261 C 0.92042 0.12788 0.96984 0.0
C262 C 0.9737 0.12537 0.96636 0.0
C263 C 1.00305 0.08663 0.97287 0.0
C264 C 0.88901 0.16776 0.96074 0.0
C265 C 0.84672 0.1825 0.971 0.0
C266 C 0.81221 0.21928 0.96011 0.0
C267 C 0.78577 0.24698 0.97583 0.0
C268 C 0.75079 0.28016 0.96582 0.0
C269 C 0.74053 0.28573 0.93974 0.0
H270 H 0.82068 0.2032 0.92134 0.0
C271 C 0.76687 0.2575 0.92407 0.0
C272 C 0.8024 0.22496 0.9341 0.0
H273 H 0.75906 0.2595 0.90389 0.0
H274 H 0.9068 0.02335 -0.00668 0.0
H275 H 0.85576 0.09091 0.98227 0.0
H276 H 0.99251 0.15326 0.95832 0.0
H277 H 0.04371 0.08532 0.96953 0.0
H278 H 0.9015 0.18569 0.94513 0.0
H279 H 0.8372 0.16757 0.98811 0.0
H280 H 0.79229 0.24304 -0.00405 0.0
H281 H 0.73192 0.30141 0.97858 0.0
C282 C 0.65458 0.68205 0.50903 0.0
C283 C 0.63466 0.659 0.52824 0.0
C284 C 0.67289 0.72645 0.51303 0.0
C285 C 0.67224 0.7482 0.53652 0.0
C286 C 0.64874 0.72596 0.55504 0.0
C287 C 0.63071 0.68155 0.55105 0.0
C288 C 0.69875 0.7924 0.54311 0.0
C289 C 0.74115 0.80638 0.53284 0.0
C290 C 0.77483 0.84552 0.54269 0.0
C291 C 0.82702 0.84707 0.53738 0.0
C292 C 0.8616 0.88081 0.548 0.0
C293 C 0.84474 0.91404 0.56415 0.0
H294 H 0.71687 0.88142 0.56164 0.0
C295 C 0.79182 0.91387 0.56847 0.0
C296 C 0.75718 0.88017 0.5578 0.0
H297 H 0.77724 0.93963 0.58034 0.0
H298 H 0.6585 0.66494 0.49138 0.0
H299 H 0.68903 0.74296 0.49799 0.0
H300 H 0.64725 0.74197 0.57321 0.0
H301 H 0.61623 0.66401 0.56624 0.0
H302 H 0.68692 0.81087 0.55906 0.0
H303 H 0.75539 0.78559 0.5183 0.0
H304 H 0.84172 0.82113 0.52565 0.0
H305 H 0.90211 0.87975 0.54435 0.0
C306 C 0.75652 0.44537 0.47387 0.0
C307 C 0.70154 0.44371 0.47263 0.0
C308 C 0.78361 0.4115 0.46256 0.0
C309 C 0.75631 0.37476 0.45 0.0
C310 C 0.70109 0.37485 0.44715 0.0
C311 C 0.67389 0.40887 0.45851 0.0
C312 C 0.78437 0.33528 0.44055 0.0
C313 C 0.83189 0.32188 0.45165 0.0
C314 C 0.86063 0.28138 0.4439 0.0
C315 C 0.91458 0.27799 0.45239 0.0
C316 C 0.94334 0.2404 0.44607 0.0
C317 C 0.91876 0.20498 0.4312 0.0
H318 H 0.79403 0.24596 0.42302 0.0
C319 C 0.86455 0.20796 0.42302 0.0
C320 C 0.83576 0.24563 0.4293 0.0
H321 H 0.84413 0.18087 0.41195 0.0
H322 H 0.77885 0.47215 0.48436 0.0
H323 H 0.82599 0.41385 0.46416 0.0
H324 H 0.67902 0.34733 0.43723 0.0
H325 H 0.63155 0.40646 0.45741 0.0
H326 H 0.76397 0.31584 0.42496 0.0
H327 H 0.85115 0.34133 0.46755 0.0
H328 H 0.93479 0.30479 0.46381 0.0
H329 H 0.98509 0.23953 0.45247 0.0
C330 C 0.38616 0.42498 0.5296 0.0
C331 C 0.44084 0.42445 0.52958 0.0
C332 C 0.36083 0.39009 0.54025 0.0
C333 C 0.38955 0.35337 0.55086 0.0
C334 C 0.44461 0.35395 0.55204 0.0
C335 C 0.47007 0.389 0.54125 0.0
C336 C 0.36264 0.3143 0.56064 0.0
C337 C 0.31436 0.30043 0.55025 0.0
C338 C 0.28316 0.2634 0.5596 0.0
C339 C 0.23098 0.25704 0.54841 0.0
C340 C 0.19859 0.2248 0.55726 0.0
C341 C 0.2176 0.19788 0.57754 0.0
H342 H 0.34284 0.23815 0.58836 0.0
C343 C 0.27036 0.203 0.5882 0.0
C344 C 0.30281 0.23534 0.57938 0.0
H345 H 0.28655 0.18219 0.60357 0.0
H346 H 0.36271 0.45213 0.52092 0.0
H347 H 0.31863 0.3919 0.53995 0.0
H348 H 0.46775 0.32639 0.56045 0.0
H349 H 0.5122 0.38745 0.54116 0.0
H350 H 0.38385 0.29656 0.57614 0.0
H351 H 0.29573 0.31778 0.53391 0.0
H352 H 0.21462 0.27792 0.53309 0.0
H353 H 0.15807 0.22215 0.54875 0.0
C354 C 0.42993 0.6651 0.50272 0.0
C355 C 0.47958 0.6537 0.49627 0.0
C356 C 0.41299 0.70975 0.50223 0.0
C357 C 0.44536 0.74429 0.49515 0.0
C358 C 0.49593 0.73302 0.48957 0.0
C359 C 0.51306 0.68808 0.49027 0.0
C360 C 0.42443 0.7905 0.48998 0.0
C361 C 0.38345 0.80775 0.50046 0.0
C362 C 0.35155 0.84718 0.49073 0.0
C363 C 0.30177 0.85337 0.49855 0.0
C364 C 0.26663 0.88507 0.4872 0.0
C365 C 0.28052 0.91155 0.46776 0.0
H366 H 0.40527 0.8739 0.46643 0.0
C367 C 0.33168 0.90779 0.46118 0.0
C368 C 0.36687 0.8761 0.47254 0.0
H369 H 0.34402 0.9285 0.44666 0.0
H370 H 0.40321 0.63908 0.50723 0.0
H371 H 0.37322 0.71633 0.50589 0.0
H372 H 0.52142 0.75876 0.48369 0.0
H373 H 0.55087 0.6799 0.48455 0.0
H374 H 0.441 0.80872 0.47561 0.0
H375 H 0.36913 0.7896 0.51553 0.0
H376 H 0.28883 0.83195 0.51263 0.0
H377 H 0.22753 0.88694 0.49269 0.0
C378 C 0.07837 0.90298 0.1073 0.0
C379 C 0.06013 0.93601 0.09016 0.0
C380 C 0.06019 0.90154 0.13054 0.0
C381 C 1.02479 0.9343 0.13746 0.0
C382 C 1.00329 0.96504 0.11946 0.0
C383 C 1.02078 0.96584 0.09586 0.0
C384 C 1.01328 0.9393 0.16378 0.0
C385 C 0.04937 0.9286 0.18323 0.0
C386 C 0.04479 0.93781 0.2101 0.0
C387 C 0.09061 0.93448 0.22725 0.0
C388 C 0.08969 0.94352 0.25266 0.0
C389 C 0.04271 0.95585 0.26174 0.0
H390 H 0.96096 0.9518 0.20665 0.0
C391 C 0.99649 0.9588 0.24471 0.0
C392 C 0.9974 0.94972 0.2191 0.0
H393 H 0.95955 0.96773 0.25119 0.0
H394 H 0.10797 0.87905 0.10297 0.0
H395 H 0.0755 0.87569 0.14333 0.0
H396 H 0.97526 -0.00989 0.12414 0.0
H397 H 1.00605 -0.00858 0.08273 0.0
H398 H 0.97732 0.95632 0.16703 0.0
H399 H 0.08687 0.91514 0.17933 0.0
H400 H 0.12772 0.92543 0.22094 0.0
H401 H 0.12622 0.94172 0.26515 0.0
C402 C 0.12053 0.96189 0.91263 0.0
C403 C 0.11807 -0.01229 0.93464 0.0
C404 C 0.12228 -0.01725 0.88988 0.0
C405 C 0.122 0.02992 0.88859 0.0
C406 C 0.12441 0.05597 0.91081 0.0
C407 C 0.12218 0.03497 0.93376 0.0
C408 C 0.11549 0.05126 0.86381 0.0
C409 C 0.07724 0.03655 0.84598 0.0
C410 C 0.07033 0.05115 0.81965 0.0
C411 C 1.02062 0.04604 0.80562 0.0
C412 C 1.01377 0.0525 0.77983 0.0
C413 C 0.05678 0.06342 0.76734 0.0
H414 H 0.15207 0.06768 0.81768 0.0
C415 C 0.10627 0.07038 0.78157 0.0
C416 C 0.11299 0.0644 0.8075 0.0
H417 H 0.14041 0.07828 0.77256 0.0
H418 H 0.11851 0.9254 0.91268 0.0
H419 H 0.12189 0.96193 0.87306 0.0
H420 H 0.12493 0.09245 0.91021 0.0
H421 H 0.12106 0.0557 0.95048 0.0
H422 H 0.14097 0.07915 0.86048 0.0
H423 H 0.04946 0.01153 0.85089 0.0
H424 H 0.98713 0.0358 0.81456 0.0
H425 H 0.97489 0.04789 0.7696 0.0
C426 C 0.52074 0.45589 0.58632 0.0
C427 C 0.57088 0.44812 0.57937 0.0
C428 C 0.50645 0.43697 0.60807 0.0
C429 C 0.54241 0.4102 0.62327 0.0
C430 C 0.59121 0.40041 0.61535 0.0
C431 C 0.60551 0.41949 0.59379 0.0
C432 C 0.533 0.39463 0.64836 0.0
C433 C 0.50084 0.41584 0.66266 0.0
C434 C 0.50261 0.40783 0.68989 0.0
C435 C 0.45802 0.41697 0.70168 0.0
C436 C 0.4604 0.41476 0.72772 0.0
C437 C 0.50782 0.40414 0.74259 0.0
H438 H 0.58547 0.39035 0.69644 0.0
C439 C 0.55219 0.39418 0.73068 0.0
C440 C 0.54967 0.396 0.70468 0.0
H441 H 0.58966 0.3869 0.7415 0.0
H442 H 0.49337 0.47791 0.57548 0.0
H443 H 0.46781 0.44418 0.61309 0.0
H444 H 0.61951 0.37964 0.62654 0.0
H445 H 0.6443 0.41272 0.58871 0.0
H446 H 0.55802 0.36776 0.65642 0.0
H447 H 0.4748 0.44221 0.6549 0.0
H448 H 0.42144 0.42653 0.69076 0.0
H449 H 0.42525 0.42204 0.73622 0.0
C450 C 0.53758 0.45092 0.40385 0.0
C451 C 0.57062 0.47341 0.42298 0.0
C452 C 0.55399 0.44271 0.38048 0.0
C453 C 0.60402 0.4569 0.37568 0.0
C454 C 0.63779 0.47799 0.39514 0.0
C455 C 0.62135 0.48602 0.41864 0.0
C456 C 0.61893 0.45552 0.34989 0.0
C457 C 0.59662 0.42705 0.33171 0.0
C458 C 0.6012 0.43229 0.30469 0.0
C459 C 0.58901 0.3954 0.28817 0.0
C460 C 0.58608 0.40054 0.26228 0.0
C461 C 0.59474 0.44291 0.2523 0.0
H462 H 0.61921 0.5041 0.30669 0.0
C463 C 0.60825 0.4796 0.26887 0.0
C464 C 0.61139 0.47443 0.29474 0.0
H465 H 0.61419 0.51292 0.26186 0.0
H466 H 0.49815 0.44099 0.40667 0.0
H467 H 0.52605 0.42755 0.36592 0.0
H468 H 0.67629 0.48971 0.39189 0.0
H469 H 0.64731 0.50408 0.43294 0.0
H470 H 0.64754 0.48022 0.34558 0.0
H471 H 0.57216 0.39951 0.33656 0.0
H472 H 0.58059 0.36265 0.29529 0.0
H473 H 0.5763 0.37141 0.25008 0.0
loop_
_geom_bond_atom_site_label_1
_geom_bond_atom_site_label_2
_geom_bond_distance
_geom_bond_site_symmetry_2
_ccdc_geom_bond_type
Zn0 O6 1.921 1_546 S
Zn0 O12 1.898 . S
Zn0 O15 1.905 1_545 S
Zn1 O9 1.905 . S
Zn1 O10 1.898 1_545 S
Zn1 O18 1.920 1_545 S
Zn2 O5 2.080 1_445 S
Zn2 O8 2.114 . S
Zn2 O11 2.120 1_545 S
Zn2 O13 2.120 1_455 S
Zn2 O14 2.114 1_554 S
Zn2 O17 2.080 . S
C3 O8 1.166 . S
C3 O9 1.182 . S
C4 O10 1.167 . S
C4 O11 1.299 . S
O5 Zn2 2.080 1_665 S
O5 C19 1.305 . S
O6 Zn0 1.921 1_564 S
O6 C19 1.233 . S
C7 O12 1.189 . S
C7 O13 1.280 1_556 S
O8 Zn2 2.114 . S
O8 C3 1.166 . S
O9 Zn1 1.905 . S
O9 C3 1.182 . S
O10 Zn1 1.898 1_565 S
O10 C4 1.167 . S
O11 Zn2 2.120 1_565 S
O11 C4 1.299 . S
O12 Zn0 1.898 . S
O12 C7 1.189 . S
O13 Zn2 2.120 1_655 S
O13 C7 1.280 1_554 S
O14 Zn2 2.114 1_556 S
O14 C16 1.166 1_545 S
O15 Zn0 1.905 1_565 S
O15 C16 1.182 1_655 S
C16 O14 1.166 1_565 S
C16 O15 1.182 1_455 S
O17 Zn2 2.080 . S
O17 C20 1.305 1_545 S
O18 Zn1 1.920 1_565 S
O18 C20 1.234 . S
C19 O5 1.305 . S
C19 O6 1.233 . S
C20 O17 1.305 1_565 S
C20 O18 1.234 . S
Zn21 O27 1.920 . S
Zn21 O33 1.898 . S
Zn21 O36 1.905 . S
Zn22 O30 1.905 . S
Zn22 O31 1.898 . S
Zn22 O39 1.920 . S
Zn23 O26 2.080 . S
Zn23 O29 2.114 . S
Zn23 O32 2.120 . S
Zn23 O34 2.120 . S
Zn23 O35 2.114 . S
Zn23 O38 2.080 . S
C24 O29 1.166 . S
C24 O30 1.182 . S
C25 O31 1.167 . S
C25 O32 1.299 . S
O26 Zn23 2.080 . S
O26 C40 1.305 . S
O27 Zn21 1.920 . S
O27 C40 1.234 . S
C28 O33 1.167 . S
C28 O34 1.299 . S
O29 Zn23 2.114 . S
O29 C24 1.166 . S
O30 Zn22 1.905 . S
O30 C24 1.182 . S
O31 Zn22 1.898 . S
O31 C25 1.167 . S
O32 Zn23 2.120 . S
O32 C25 1.299 . S
O33 Zn21 1.898 . S
O33 C28 1.167 . S
O34 Zn23 2.120 . S
O34 C28 1.299 . S
O35 Zn23 2.114 . S
O35 C37 1.166 . S
O36 Zn21 1.905 . S
O36 C37 1.182 . S
C37 O35 1.166 . S
C37 O36 1.182 . S
O38 Zn23 2.080 . S
O38 C41 1.305 . S
O39 Zn22 1.920 . S
O39 C41 1.234 . S
C40 O26 1.305 . S
C40 O27 1.234 . S
C41 O38 1.305 . S
C41 O39 1.234 . S
C42 C43 1.384 . S
C42 H55 0.947 . S
C42 C77 1.382 . S
C43 C42 1.384 . S
C43 C44 1.378 . S
C44 C43 1.378 . S
C44 C45 1.378 1_655 S
C44 H56 0.952 . S
C45 C44 1.378 1_455 S
C45 H57 0.950 . S
C45 C76 1.383 . S
H46 C65 0.947 . S
H47 C66 0.946 . S
H48 C68 0.953 . S
H49 C69 0.945 . S
H50 C71 0.952 1_565 S
H51 C72 0.949 1_565 S
H52 C74 0.950 . S
H53 C75 0.948 . S
H54 C77 0.951 . S
H55 C42 0.947 . S
H56 C44 0.952 . S
H57 C45 0.950 . S
N58 C61 1.382 . S
N58 C63 1.363 . S
N59 C61 1.371 . S
N59 C62 1.372 . S
N60 C62 1.361 . S
N60 C63 1.377 . S
C61 N58 1.382 . S
C61 N59 1.371 . S
C61 C64 1.480 1_545 S
C62 N59 1.372 . S
C62 N60 1.361 . S
C62 C70 1.457 . S
C63 N58 1.363 . S
C63 N60 1.377 . S
C63 C76 1.479 . S
C64 C61 1.480 1_565 S
C64 C65 1.383 . S
C64 C69 1.385 . S
C65 H46 0.947 . S
C65 C64 1.383 . S
C65 C66 1.388 . S
C66 H47 0.946 . S
C66 C65 1.388 . S
C66 C67 1.384 . S
C67 C66 1.384 . S
C67 C68 1.377 . S
C68 H48 0.953 . S
C68 C67 1.377 . S
C68 C69 1.369 . S
C69 H49 0.945 . S
C69 C64 1.385 . S
C69 C68 1.369 . S
C70 C62 1.457 . S
C70 C71 1.372 . S
C70 C75 1.364 . S
C71 H50 0.952 1_545 S
C71 C70 1.372 . S
C71 C72 1.389 . S
C72 H51 0.949 1_545 S
C72 C71 1.389 . S
C72 C73 1.387 . S
C73 C72 1.387 . S
C73 C74 1.372 . S
C74 H52 0.950 . S
C74 C73 1.372 . S
C74 C75 1.379 . S
C75 H53 0.948 . S
C75 C70 1.364 . S
C75 C74 1.379 . S
C76 C45 1.383 . S
C76 C63 1.479 . S
C76 C77 1.398 1_455 S
C77 C42 1.382 . S
C77 H54 0.951 . S
C77 C76 1.398 1_655 S
C78 C79 1.384 . S
C78 H91 0.947 . S
C78 C113 1.382 . S
C79 C78 1.384 . S
C79 C80 1.378 . S
C80 C79 1.378 . S
C80 C81 1.378 . S
C80 H92 0.952 . S
C81 C80 1.378 . S
C81 H93 0.950 . S
C81 C112 1.383 . S
H82 C101 0.947 . S
H83 C102 0.946 . S
H84 C104 0.953 . S
H85 C105 0.945 . S
H86 C107 0.952 . S
H87 C108 0.949 . S
H88 C110 0.950 . S
H89 C111 0.948 . S
H90 C113 0.951 . S
H91 C78 0.947 . S
H92 C80 0.952 . S
H93 C81 0.950 . S
N94 C97 1.382 . S
N94 C99 1.363 1_445 S
N95 C97 1.371 . S
N95 C98 1.372 . S
N96 C98 1.361 1_665 S
N96 C99 1.377 . S
C97 N94 1.382 . S
C97 N95 1.371 . S
C97 C100 1.480 . S
C98 N95 1.372 . S
C98 N96 1.361 1_445 S
C98 C106 1.457 . S
C99 N94 1.363 1_665 S
C99 N96 1.377 . S
C99 C112 1.479 . S
C100 C97 1.480 . S
C100 C101 1.383 . S
C100 C105 1.385 . S
C101 H82 0.947 . S
C101 C100 1.383 . S
C101 C102 1.388 . S
C102 H83 0.946 . S
C102 C101 1.388 . S
C102 C103 1.384 . S
C103 C102 1.384 . S
C103 C104 1.377 . S
C104 H84 0.953 . S
C104 C103 1.377 . S
C104 C105 1.369 . S
C105 H85 0.945 . S
C105 C100 1.385 . S
C105 C104 1.369 . S
C106 C98 1.457 . S
C106 C107 1.372 . S
C106 C111 1.364 1_445 S
C107 H86 0.952 . S
C107 C106 1.372 . S
C107 C108 1.389 . S
C108 H87 0.949 . S
C108 C107 1.389 . S
C108 C109 1.387 . S
C109 C108 1.387 . S
C109 C110 1.372 1_445 S
C110 H88 0.950 . S
C110 C109 1.372 1_665 S
C110 C111 1.379 . S
C111 H89 0.948 . S
C111 C106 1.364 1_665 S
C111 C110 1.379 . S
C112 C81 1.383 . S
C112 C99 1.479 . S
C112 C113 1.398 . S
C113 C78 1.382 . S
C113 H90 0.951 . S
C113 C112 1.398 . S
C114 C115 1.384 . S
C114 H127 0.947 . S
C114 C149 1.382 . S
C115 C114 1.384 . S
C115 C116 1.378 . S
C116 C115 1.378 . S
C116 C117 1.378 . S
C116 H128 0.952 . S
C117 C116 1.378 . S
C117 H129 0.950 . S
C117 C148 1.383 . S
H118 C137 0.947 . S
H119 C138 0.946 . S
H120 C140 0.953 . S
H121 C141 0.945 . S
H122 C143 0.952 . S
H123 C144 0.949 . S
H124 C146 0.950 . S
H125 C147 0.948 . S
H126 C149 0.951 . S
H127 C114 0.947 . S
H128 C116 0.952 . S
H129 C117 0.950 . S
N130 C133 1.382 . S
N130 C135 1.363 . S
N131 C133 1.371 . S
N131 C134 1.372 . S
N132 C134 1.361 . S
N132 C135 1.377 . S
C133 N130 1.382 . S
C133 N131 1.371 . S
C133 C136 1.480 . S
C134 N131 1.372 . S
C134 N132 1.361 . S
C134 C142 1.457 . S
C135 N130 1.363 . S
C135 N132 1.377 . S
C135 C148 1.479 . S
C136 C133 1.480 . S
C136 C137 1.383 . S
C136 C141 1.385 . S
C137 H118 0.947 . S
C137 C136 1.383 . S
C137 C138 1.388 . S
C138 H119 0.946 . S
C138 C137 1.388 . S
C138 C139 1.384 . S
C139 C138 1.384 . S
C139 C140 1.377 . S
C140 H120 0.953 . S
C140 C139 1.377 . S
C140 C141 1.369 . S
C141 H121 0.945 . S
C141 C136 1.385 . S
C141 C140 1.369 . S
C142 C134 1.457 . S
C142 C143 1.372 . S
C142 C147 1.364 . S
C143 H122 0.952 . S
C143 C142 1.372 . S
C143 C144 1.389 . S
C144 H123 0.949 . S
C144 C143 1.389 . S
C144 C145 1.387 . S
C145 C144 1.387 . S
C145 C146 1.372 . S
C146 H124 0.950 . S
C146 C145 1.372 . S
C146 C147 1.379 . S
C147 H125 0.948 . S
C147 C142 1.364 . S
C147 C146 1.379 . S
C148 C117 1.383 . S
C148 C135 1.479 . S
C148 C149 1.398 . S
C149 C114 1.382 . S
C149 H126 0.951 . S
C149 C148 1.398 . S
C150 C151 1.384 . S
C150 H163 0.947 . S
C150 C185 1.382 . S
C151 C150 1.384 . S
C151 C152 1.378 . S
C152 C151 1.378 . S
C152 C153 1.378 . S
C152 H164 0.952 . S
C153 C152 1.378 . S
C153 H165 0.950 . S
C153 C184 1.383 . S
H154 C173 0.947 . S
H155 C174 0.946 . S
H156 C176 0.953 . S
H157 C177 0.945 . S
H158 C179 0.952 . S
H159 C180 0.949 . S
H160 C182 0.950 . S
H161 C183 0.948 . S
H162 C185 0.951 . S
H163 C150 0.947 . S
H164 C152 0.952 . S
H165 C153 0.950 . S
N166 C169 1.382 . S
N166 C171 1.363 . S
N167 C169 1.371 . S
N167 C170 1.372 . S
N168 C170 1.361 . S
N168 C171 1.377 . S
C169 N166 1.382 . S
C169 N167 1.371 . S
C169 C172 1.480 . S
C170 N167 1.372 . S
C170 N168 1.361 . S
C170 C178 1.457 . S
C171 N166 1.363 . S
C171 N168 1.377 . S
C171 C184 1.479 . S
C172 C169 1.480 . S
C172 C173 1.383 . S
C172 C177 1.385 . S
C173 H154 0.947 . S
C173 C172 1.383 . S
C173 C174 1.388 . S
C174 H155 0.946 . S
C174 C173 1.388 . S
C174 C175 1.384 . S
C175 C174 1.384 . S
C175 C176 1.377 . S
C176 H156 0.953 . S
C176 C175 1.377 . S
C176 C177 1.369 . S
C177 H157 0.945 . S
C177 C172 1.385 . S
C177 C176 1.369 . S
C178 C170 1.457 . S
C178 C179 1.372 . S
C178 C183 1.364 . S
C179 H158 0.952 . S
C179 C178 1.372 . S
C179 C180 1.389 . S
C180 H159 0.949 . S
C180 C179 1.389 . S
C180 C181 1.387 . S
C181 C180 1.387 . S
C181 C182 1.372 . S
C182 H160 0.950 . S
C182 C181 1.372 . S
C182 C183 1.379 . S
C183 H161 0.948 . S
C183 C178 1.364 . S
C183 C182 1.379 . S
C184 C153 1.383 . S
C184 C171 1.479 . S
C184 C185 1.398 . S
C185 C150 1.382 . S
C185 H162 0.951 . S
C185 C184 1.398 . S
C186 C187 1.386 . S
C186 C188 1.383 . S
C186 H202 0.951 . S
C187 C186 1.386 . S
C187 C191 1.383 . S
C188 C186 1.383 . S
C188 C189 1.402 . S
C188 H203 0.951 . S
C189 C188 1.402 . S
C189 C190 1.375 . S
C189 C192 1.481 . S
C190 C189 1.375 . S
C190 C191 1.367 . S
C190 H204 0.951 . S
C191 C187 1.383 . S
C191 C190 1.367 . S
C191 H205 0.950 . S
C192 C189 1.481 . S
C192 C193 1.297 . S
C192 H206 0.950 . S
C193 C192 1.297 . S
C193 C194 1.479 . S
C193 H207 0.950 . S
C194 C193 1.479 . S
C194 C195 1.375 . S
C194 C200 1.404 . S
C195 C194 1.375 . S
C195 C196 1.369 . S
C195 H208 0.950 . S
C196 C195 1.369 . S
C196 C197 1.392 . S
C196 H209 0.951 . S
C197 C196 1.392 . S
C197 C199 1.384 . S
H198 C200 0.949 . S
C199 C197 1.384 . S
C199 C200 1.385 . S
C199 H201 0.950 . S
C200 C194 1.404 . S
C200 H198 0.949 . S
C200 C199 1.385 . S
H201 C199 0.950 . S
H202 C186 0.951 . S
H203 C188 0.951 . S
H204 C190 0.951 . S
H205 C191 0.950 . S
H206 C192 0.950 . S
H207 C193 0.950 . S
H208 C195 0.950 . S
H209 C196 0.951 . S
C210 C211 1.386 . S
C210 C212 1.383 . S
C210 H226 0.951 . S
C211 C210 1.386 . S
C211 C215 1.383 1_556 S
C212 C210 1.383 . S
C212 C213 1.402 . S
C212 H227 0.951 . S
C213 C212 1.402 . S
C213 C214 1.375 1_556 S
C213 C216 1.481 . S
C214 C213 1.375 1_554 S
C214 C215 1.367 . S
C214 H228 0.951 . S
C215 C211 1.383 1_554 S
C215 C214 1.367 . S
C215 H229 0.950 . S
C216 C213 1.481 . S
C216 C217 1.297 . S
C216 H230 0.950 1_556 S
C217 C216 1.297 . S
C217 C218 1.479 . S
C217 H231 0.950 . S
C218 C217 1.479 . S
C218 C219 1.375 . S
C218 C224 1.404 . S
C219 C218 1.375 . S
C219 C220 1.369 . S
C219 H232 0.950 . S
C220 C219 1.369 . S
C220 C221 1.392 . S
C220 H233 0.951 . S
C221 C220 1.392 . S
C221 C223 1.384 . S
H222 C224 0.949 1_554 S
C223 C221 1.384 . S
C223 C224 1.385 . S
C223 H225 0.950 1_556 S
C224 C218 1.404 . S
C224 H222 0.949 1_556 S
C224 C223 1.385 . S
H225 C223 0.950 1_554 S
H226 C210 0.951 . S
H227 C212 0.951 . S
H228 C214 0.951 . S
H229 C215 0.950 . S
H230 C216 0.950 1_554 S
H231 C217 0.950 . S
H232 C219 0.950 . S
H233 C220 0.951 . S
C234 C235 1.386 . S
C234 C236 1.383 . S
C234 H250 0.951 1_554 S
C235 C234 1.386 . S
C235 C239 1.383 . S
C236 C234 1.383 . S
C236 C237 1.402 . S
C236 H251 0.951 . S
C237 C236 1.402 . S
C237 C238 1.375 . S
C237 C240 1.481 . S
C238 C237 1.375 . S
C238 C239 1.367 . S
C238 H252 0.951 . S
C239 C235 1.383 . S
C239 C238 1.367 . S
C239 H253 0.950 . S
C240 C237 1.481 . S
C240 C241 1.297 . S
C240 H254 0.950 . S
C241 C240 1.297 . S
C241 C242 1.479 . S
C241 H255 0.950 . S
C242 C241 1.479 . S
C242 C243 1.375 . S
C242 C248 1.404 . S
C243 C242 1.375 . S
C243 C244 1.369 . S
C243 H256 0.950 . S
C244 C243 1.369 . S
C244 C245 1.392 . S
C244 H257 0.951 . S
C245 C244 1.392 . S
C245 C247 1.384 . S
H246 C248 0.949 . S
C247 C245 1.384 . S
C247 C248 1.385 . S
C247 H249 0.950 . S
C248 C242 1.404 . S
C248 H246 0.949 . S
C248 C247 1.385 . S
H249 C247 0.950 . S
H250 C234 0.951 1_556 S
H251 C236 0.951 . S
H252 C238 0.951 . S
H253 C239 0.950 . S
H254 C240 0.950 . S
H255 C241 0.950 . S
H256 C243 0.950 . S
H257 C244 0.951 . S
C258 C259 1.388 . S
C258 C260 1.383 . S
C258 H274 0.951 . S
C259 C258 1.388 . S
C259 C263 1.380 1_554 S
C260 C258 1.383 . S
C260 C261 1.402 1_554 S
C260 H275 0.951 . S
C261 C260 1.402 1_556 S
C261 C262 1.375 . S
C261 C264 1.481 . S
C262 C261 1.375 . S
C262 C263 1.367 . S
C262 H276 0.951 . S
C263 C259 1.380 1_556 S
C263 C262 1.367 . S
C263 H277 0.950 . S
C264 C261 1.481 . S
C264 C265 1.297 . S
C264 H278 0.950 . S
C265 C264 1.297 . S
C265 C266 1.479 . S
C265 H279 0.950 . S
C266 C265 1.479 . S
C266 C267 1.375 . S
C266 C272 1.404 . S
C267 C266 1.375 . S
C267 C268 1.369 . S
C267 H280 0.950 1_556 S
C268 C267 1.369 . S
C268 C269 1.392 . S
C268 H281 0.951 . S
C269 C268 1.392 . S
C269 C271 1.384 . S
H270 C272 0.949 . S
C271 C269 1.384 . S
C271 C272 1.385 . S
C271 H273 0.950 . S
C272 C266 1.404 . S
C272 H270 0.949 . S
C272 C271 1.385 . S
H273 C271 0.950 . S
H274 C258 0.951 . S
H275 C260 0.951 . S
H276 C262 0.951 . S
H277 C263 0.950 . S
H278 C264 0.950 . S
H279 C265 0.950 . S
H280 C267 0.950 1_554 S
H281 C268 0.951 . S
C282 C283 1.386 . S
C282 C284 1.383 . S
C282 H298 0.951 . S
C283 C282 1.386 . S
C283 C287 1.383 . S
C284 C282 1.383 . S
C284 C285 1.402 . S
C284 H299 0.951 . S
C285 C284 1.402 . S
C285 C286 1.375 . S
C285 C288 1.481 . S
C286 C285 1.375 . S
C286 C287 1.367 . S
C286 H300 0.951 . S
C287 C283 1.383 . S
C287 C286 1.367 . S
C287 H301 0.950 . S
C288 C285 1.481 . S
C288 C289 1.297 . S
C288 H302 0.950 . S
C289 C288 1.297 . S
C289 C290 1.479 . S
C289 H303 0.950 . S
C290 C289 1.479 . S
C290 C291 1.375 . S
C290 C296 1.404 . S
C291 C290 1.375 . S
C291 C292 1.369 . S
C291 H304 0.950 . S
C292 C291 1.369 . S
C292 C293 1.392 . S
C292 H305 0.951 . S
C293 C292 1.392 . S
C293 C295 1.384 . S
H294 C296 0.949 . S
C295 C293 1.384 . S
C295 C296 1.385 . S
C295 H297 0.950 . S
C296 C290 1.404 . S
C296 H294 0.949 . S
C296 C295 1.385 . S
H297 C295 0.950 . S
H298 C282 0.951 . S
H299 C284 0.951 . S
H300 C286 0.951 . S
H301 C287 0.950 . S
H302 C288 0.950 . S
H303 C289 0.950 . S
H304 C291 0.950 . S
H305 C292 0.951 . S
C306 C307 1.386 . S
C306 C308 1.383 . S
C306 H322 0.951 . S
C307 C306 1.386 . S
C307 C311 1.383 . S
C308 C306 1.383 . S
C308 C309 1.402 . S
C308 H323 0.951 . S
C309 C308 1.402 . S
C309 C310 1.375 . S
C309 C312 1.481 . S
C310 C309 1.375 . S
C310 C311 1.367 . S
C310 H324 0.951 . S
C311 C307 1.383 . S
C311 C310 1.367 . S
C311 H325 0.950 . S
C312 C309 1.481 . S
C312 C313 1.297 . S
C312 H326 0.950 . S
C313 C312 1.297 . S
C313 C314 1.479 . S
C313 H327 0.950 . S
C314 C313 1.479 . S
C314 C315 1.375 . S
C314 C320 1.404 . S
C315 C314 1.375 . S
C315 C316 1.369 . S
C315 H328 0.950 . S
C316 C315 1.369 . S
C316 C317 1.392 . S
C316 H329 0.951 . S
C317 C316 1.392 . S
C317 C319 1.384 . S
H318 C320 0.949 . S
C319 C317 1.384 . S
C319 C320 1.385 . S
C319 H321 0.950 . S
C320 C314 1.404 . S
C320 H318 0.949 . S
C320 C319 1.385 . S
H321 C319 0.950 . S
H322 C306 0.951 . S
H323 C308 0.951 . S
H324 C310 0.951 . S
H325 C311 0.950 . S
H326 C312 0.950 . S
H327 C313 0.950 . S
H328 C315 0.950 . S
H329 C316 0.951 . S
C330 C331 1.386 . S
C330 C332 1.383 . S
C330 H346 0.951 . S
C331 C330 1.386 . S
C331 C335 1.383 . S
C332 C330 1.383 . S
C332 C333 1.402 . S
C332 H347 0.951 . S
C333 C332 1.402 . S
C333 C334 1.375 . S
C333 C336 1.481 . S
C334 C333 1.375 . S
C334 C335 1.367 . S
C334 H348 0.951 . S
C335 C331 1.383 . S
C335 C334 1.367 . S
C335 H349 0.950 . S
C336 C333 1.481 . S
C336 C337 1.297 . S
C336 H350 0.950 . S
C337 C336 1.297 . S
C337 C338 1.479 . S
C337 H351 0.950 . S
C338 C337 1.479 . S
C338 C339 1.375 . S
C338 C344 1.404 . S
C339 C338 1.375 . S
C339 C340 1.369 . S
C339 H352 0.950 . S
C340 C339 1.369 . S
C340 C341 1.392 . S
C340 H353 0.951 . S
C341 C340 1.392 . S
C341 C343 1.384 . S
H342 C344 0.949 . S
C343 C341 1.384 . S
C343 C344 1.385 . S
C343 H345 0.950 . S
C344 C338 1.404 . S
C344 H342 0.949 . S
C344 C343 1.385 . S
H345 C343 0.950 . S
H346 C330 0.951 . S
H347 C332 0.951 . S
H348 C334 0.951 . S
H349 C335 0.950 . S
H350 C336 0.950 . S
H351 C337 0.950 . S
H352 C339 0.950 . S
H353 C340 0.951 . S
C354 C355 1.386 . S
C354 C356 1.383 . S
C354 H370 0.951 . S
C355 C354 1.386 . S
C355 C359 1.383 . S
C356 C354 1.383 . S
C356 C357 1.402 . S
C356 H371 0.951 . S
C357 C356 1.402 . S
C357 C358 1.375 . S
C357 C360 1.481 . S
C358 C357 1.375 . S
C358 C359 1.367 . S
C358 H372 0.951 . S
C359 C355 1.383 . S
C359 C358 1.367 . S
C359 H373 0.950 . S
C360 C357 1.481 . S
C360 C361 1.297 . S
C360 H374 0.950 . S
C361 C360 1.297 . S
C361 C362 1.479 . S
C361 H375 0.950 . S
C362 C361 1.479 . S
C362 C363 1.375 . S
C362 C368 1.404 . S
C363 C362 1.375 . S
C363 C364 1.369 . S
C363 H376 0.950 . S
C364 C363 1.369 . S
C364 C365 1.392 . S
C364 H377 0.951 . S
C365 C364 1.392 . S
C365 C367 1.384 . S
H366 C368 0.949 . S
C367 C365 1.384 . S
C367 C368 1.385 . S
C367 H369 0.950 . S
C368 C362 1.404 . S
C368 H366 0.949 . S
C368 C367 1.385 . S
H369 C367 0.950 . S
H370 C354 0.951 . S
H371 C356 0.951 . S
H372 C358 0.951 . S
H373 C359 0.950 . S
H374 C360 0.950 . S
H375 C361 0.950 . S
H376 C363 0.950 . S
H377 C364 0.951 . S
C378 C379 1.386 . S
C378 C380 1.383 . S
C378 H394 0.951 . S
C379 C378 1.386 . S
C379 C383 1.383 1_565 S
C380 C378 1.383 . S
C380 C381 1.402 1_565 S
C380 H395 0.951 . S
C381 C380 1.402 1_545 S
C381 C382 1.375 . S
C381 C384 1.481 . S
C382 C381 1.375 . S
C382 C383 1.367 . S
C382 H396 0.951 1_455 S
C383 C379 1.383 1_545 S
C383 C382 1.367 . S
C383 H397 0.950 1_455 S
C384 C381 1.481 . S
C384 C385 1.297 . S
C384 H398 0.950 . S
C385 C384 1.297 . S
C385 C386 1.479 . S
C385 H399 0.951 . S
C386 C385 1.479 . S
C386 C387 1.375 . S
C386 C392 1.404 . S
C387 C386 1.375 . S
C387 C388 1.369 . S
C387 H400 0.950 1_545 S
C388 C387 1.369 . S
C388 C389 1.392 . S
C388 H401 0.951 1_545 S
C389 C388 1.392 . S
C389 C391 1.384 . S
H390 C392 0.949 . S
C391 C389 1.384 . S
C391 C392 1.385 . S
C391 H393 0.950 . S
C392 C386 1.404 . S
C392 H390 0.949 . S
C392 C391 1.385 . S
H393 C391 0.950 . S
H394 C378 0.951 . S
H395 C380 0.951 . S
H396 C382 0.951 1_655 S
H397 C383 0.950 1_655 S
H398 C384 0.950 . S
H399 C385 0.951 . S
H400 C387 0.950 1_565 S
H401 C388 0.951 1_565 S
C402 C403 1.386 1_655 S
C402 C404 1.383 . S
C402 H418 0.951 . S
C403 C402 1.386 1_455 S
C403 C407 1.383 1_565 S
C404 C402 1.383 . S
C404 C405 1.402 1_665 S
C404 H419 0.951 . S
C405 C404 1.402 1_445 S
C405 C406 1.375 . S
C405 C408 1.481 . S
C406 C405 1.375 . S
C406 C407 1.367 . S
C406 H420 0.951 . S
C407 C403 1.383 1_545 S
C407 C406 1.367 . S
C407 H421 0.950 . S
C408 C405 1.481 . S
C408 C409 1.297 1_455 S
C408 H422 0.950 . S
C409 C408 1.297 1_655 S
C409 C410 1.479 . S
C409 H423 0.950 . S
C410 C409 1.479 . S
C410 C411 1.375 . S
C410 C416 1.404 1_655 S
C411 C410 1.375 . S
C411 C412 1.369 . S
C411 H424 0.950 1_545 S
C412 C411 1.369 . S
C412 C413 1.392 1_655 S
C412 H425 0.951 1_545 S
C413 C412 1.392 1_455 S
C413 C415 1.384 . S
H414 C416 0.949 . S
C415 C413 1.384 . S
C415 C416 1.385 . S
C415 H417 0.950 . S
C416 C410 1.404 1_455 S
C416 H414 0.949 . S
C416 C415 1.385 . S
H417 C415 0.950 . S
H418 C402 0.951 . S
H419 C404 0.951 . S
H420 C406 0.951 . S
H421 C407 0.950 . S
H422 C408 0.950 . S
H423 C409 0.950 . S
H424 C411 0.950 1_565 S
H425 C412 0.951 1_565 S
C426 C427 1.386 . S
C426 C428 1.383 . S
C426 H442 0.951 . S
C427 C426 1.386 . S
C427 C431 1.383 . S
C428 C426 1.383 . S
C428 C429 1.402 . S
C428 H443 0.951 . S
C429 C428 1.402 . S
C429 C430 1.375 . S
C429 C432 1.481 . S
C430 C429 1.375 . S
C430 C431 1.367 . S
C430 H444 0.951 . S
C431 C427 1.383 . S
C431 C430 1.367 . S
C431 H445 0.950 . S
C432 C429 1.481 . S
C432 C433 1.297 . S
C432 H446 0.950 . S
C433 C432 1.297 . S
C433 C434 1.479 . S
C433 H447 0.950 . S
C434 C433 1.479 . S
C434 C435 1.375 . S
C434 C440 1.404 . S
C435 C434 1.375 . S
C435 C436 1.369 . S
C435 H448 0.950 . S
C436 C435 1.369 . S
C436 C437 1.392 . S
C436 H449 0.951 . S
C437 C436 1.392 . S
C437 C439 1.384 . S
H438 C440 0.949 . S
C439 C437 1.384 . S
C439 C440 1.385 . S
C439 H441 0.950 . S
C440 C434 1.404 . S
C440 H438 0.949 . S
C440 C439 1.385 . S
H441 C439 0.950 . S
H442 C426 0.951 . S
H443 C428 0.951 . S
H444 C430 0.951 . S
H445 C431 0.950 . S
H446 C432 0.950 . S
H447 C433 0.950 . S
H448 C435 0.950 . S
H449 C436 0.951 . S
C450 C451 1.386 . S
C450 C452 1.383 . S
C450 H466 0.951 . S
C451 C450 1.386 . S
C451 C455 1.383 . S
C452 C450 1.383 . S
C452 C453 1.402 . S
C452 H467 0.951 . S
C453 C452 1.402 . S
C453 C454 1.375 . S
C453 C456 1.481 . S
C454 C453 1.375 . S
C454 C455 1.367 . S
C454 H468 0.951 . S
C455 C451 1.383 . S
C455 C454 1.367 . S
C455 H469 0.950 . S
C456 C453 1.481 . S
C456 C457 1.297 . S
C456 H470 0.950 . S
C457 C456 1.297 . S
C457 C458 1.479 . S
C457 H471 0.950 . S
C458 C457 1.479 . S
C458 C459 1.375 . S
C458 C464 1.404 . S
C459 C458 1.375 . S
C459 C460 1.369 . S
C459 H472 0.950 . S
C460 C459 1.369 . S
C460 C461 1.392 . S
C460 H473 0.951 . S
C461 C460 1.392 . S
C461 C463 1.384 . S
H462 C464 0.949 . S
C463 C461 1.384 . S
C463 C464 1.385 . S
C463 H465 0.950 . S
C464 C458 1.404 . S
C464 H462 0.949 . S
C464 C463 1.385 . S
H465 C463 0.950 . S
H466 C450 0.951 . S
H467 C452 0.951 . S
H468 C454 0.951 . S
H469 C455 0.950 . S
H470 C456 0.950 . S
H471 C457 0.950 . S
H472 C459 0.950 . S
H473 C460 0.951 . S
C197 C151 1.207 . S
C187 C3 1.133 . S
C211 C4 1.461 1_556 S
C221 C115 1.599 . S
C235 C19 1.565 . S
C245 C175 1.588 . S
C259 C7 1.045 1_554 S
C269 C139 1.140 . S
C283 C37 1.089 . S
C293 C79 1.197 . S
C307 C28 1.505 . S
C317 C43 1.622 . S
C341 C103 1.611 . S
C331 C41 1.492 . S
C365 C67 1.206 . S
C355 C25 1.130 . S
C379 C20 1.260 . S
C389 C73 1.432 . S
C403 C16 1.316 . S
C413 C109 1.492 . S
C437 C145 1.430 . S
C427 C40 1.275 . S
C451 C24 1.288 . S
C461 C181 1.478 . S
