# Generated by pormake.
# Topology ssa, (4,4)-cn, num edge types: 1
# Building blocks:
#     Node 0, Type 0, BuildingBlock: GIZVER_clean_linker_0, # of connection points: 4
#     Node 1, Type 0, BuildingBlock: GIZVER_clean_linker_0, # of connection points: 4
#     Node 2, Type 0, BuildingBlock: GIZVER_clean_linker_0, # of connection points: 4
#     Node 3, Type 0, BuildingBlock: GIZVER_clean_linker_0, # of connection points: 4
#     Node 4, Type 0, BuildingBlock: GIZVER_clean_linker_0, # of connection points: 4
#     Node 5, Type 0, BuildingBlock: GIZVER_clean_linker_0, # of connection points: 4
#     Node 6, Type 1, BuildingBlock: MUDLON_clean_sbu_0, # of connection points: 4
#     Node 7, Type 1, BuildingBlock: MUDLON_clean_sbu_0, # of connection points: 4
#     Node 8, Type 1, BuildingBlock: MUDLON_clean_sbu_0, # of connection points: 4
#     Node 9, Type 1, BuildingBlock: MUDLON_clean_sbu_0, # of connection points: 4
#     Node 10, Type 1, BuildingBlock: MUDLON_clean_sbu_0, # of connection points: 4
#     Node 11, Type 1, BuildingBlock: MUDLON_clean_sbu_0, # of connection points: 4
#     Edge 12, Type (0, 1), BuildingBlock: AJUNOK_clean_linker_0, # of connection points: 2
#     Edge 13, Type (0, 1), BuildingBlock: AJUNOK_clean_linker_0, # of connection points: 2
#     Edge 14, Type (0, 1), BuildingBlock: AJUNOK_clean_linker_0, # of connection points: 2
#     Edge 15, Type (0, 1), BuildingBlock: AJUNOK_clean_linker_0, # of connection points: 2
#     Edge 16, Type (0, 1), BuildingBlock: AJUNOK_clean_linker_0, # of connection points: 2
#     Edge 17, Type (0, 1), BuildingBlock: AJUNOK_clean_linker_0, # of connection points: 2
#     Edge 18, Type (0, 1), BuildingBlock: AJUNOK_clean_linker_0, # of connection points: 2
#     Edge 19, Type (0, 1), BuildingBlock: AJUNOK_clean_linker_0, # of connection points: 2
#     Edge 20, Type (0, 1), BuildingBlock: AJUNOK_clean_linker_0, # of connection points: 2
#     Edge 21, Type (0, 1), BuildingBlock: AJUNOK_clean_linker_0, # of connection points: 2
#     Edge 22, Type (0, 1), BuildingBlock: AJUNOK_clean_linker_0, # of connection points: 2
#     Edge 23, Type (0, 1), BuildingBlock: AJUNOK_clean_linker_0, # of connection points: 2
#     Edge 24, Type (0, 1), BuildingBlock: AJUNOK_clean_linker_0, # of connection points: 2
#     Edge 25, Type (0, 1), BuildingBlock: AJUNOK_clean_linker_0, # of connection points: 2
#     Edge 26, Type (0, 1), BuildingBlock: AJUNOK_clean_linker_0, # of connection points: 2
#     Edge 27, Type (0, 1), BuildingBlock: AJUNOK_clean_linker_0, # of connection points: 2
#     Edge 28, Type (0, 1), BuildingBlock: AJUNOK_clean_linker_0, # of connection points: 2
#     Edge 29, Type (0, 1), BuildingBlock: AJUNOK_clean_linker_0, # of connection points: 2
#     Edge 30, Type (0, 1), BuildingBlock: AJUNOK_clean_linker_0, # of connection points: 2
#     Edge 31, Type (0, 1), BuildingBlock: AJUNOK_clean_linker_0, # of connection points: 2
#     Edge 32, Type (0, 1), BuildingBlock: AJUNOK_clean_linker_0, # of connection points: 2
#     Edge 33, Type (0, 1), BuildingBlock: AJUNOK_clean_linker_0, # of connection points: 2
#     Edge 34, Type (0, 1), BuildingBlock: AJUNOK_clean_linker_0, # of connection points: 2
#     Edge 35, Type (0, 1), BuildingBlock: AJUNOK_clean_linker_0, # of connection points: 2
# Relax obj value: 0.001
# Max RMSD: 0.030
# Mean RMSD: 0.018
data_MOF--net-ssa--node1-MUDLON_clean_sbu_0--node2-GIZVER_clean_linker_0--edge1-AJUNOK_clean_linker_0
_symmetry_space_group_name_H-M    P1
_symmetry_Int_Tables_number       1
_symmetry_cell_setting            triclinic
loop_
_symmetry_equiv_pos_as_xyz
'x, y, z'
_cell_length_a     33.23588
_cell_length_b     33.841217
_cell_length_c     28.964372
_cell_angle_alpha  87.79994
_cell_angle_beta   89.528148
_cell_angle_gamma 119.39127
loop_
_atom_site_label
_atom_site_type_symbol
_atom_site_fract_x
_atom_site_fract_y
_atom_site_fract_z
_atom_type_partial_charge
H0 H 0.10726 0.59236 0.09899 0.0
H1 H 0.08151 0.45471 0.09677 0.0
H2 H 0.1463 0.53514 0.21334 0.0
H3 H 0.09631 0.55597 1.0263 0.0
H4 H 0.09066 0.50117 1.02421 0.0
H5 H 0.02721 0.56515 1.04307 0.0
H6 H 0.90123 0.45638 0.99401 0.0
H7 H 0.01667 0.43573 1.01788 0.0
C8 C 0.10754 0.5634 0.11601 0.0
C9 C 0.12812 0.56819 0.15911 0.0
C10 C 0.09045 0.52248 0.09321 0.0
C11 C 0.09296 0.48572 0.11488 0.0
C12 C 0.11328 0.49012 0.15827 0.0
C13 C 0.13049 0.53141 0.18 0.0
C14 C 0.07786 0.52114 1.04293 0.0
C15 C 0.02655 0.50141 1.03559 0.0
C16 C 0.00645 0.5298 1.03505 0.0
C17 C 0.96095 0.51365 1.02019 0.0
C18 C 0.93557 0.46867 1.00725 0.0
C19 C 0.95579 0.44108 1.00468 0.0
C20 C 0.00061 0.45677 1.02071 0.0
H21 H 0.59123 0.03406 0.61639 0.0
H22 H 0.4603 0.02917 0.60103 0.0
H23 H 0.57012 0.13949 0.66893 0.0
H24 H 0.51892 0.96139 0.61419 0.0
H25 H 0.46555 0.9597 0.60461 0.0
H26 H 0.57306 0.97317 0.549 0.0
H27 H 0.50491 0.92532 0.42098 0.0
H28 H 0.43903 0.95984 0.52773 0.0
C29 C 0.57007 0.05012 0.6193 0.0
C30 C 0.58717 0.09112 0.64186 0.0
C31 C 0.52423 0.02735 0.60475 0.0
C32 C 0.49606 0.04726 0.61091 0.0
C33 C 0.51262 0.08815 0.63378 0.0
C34 C 0.55839 0.11001 0.64821 0.0
C35 C 0.50269 0.9779 0.59346 0.0
C36 C 0.50697 0.97043 0.54292 0.0
C37 C 0.54489 0.96664 0.52634 0.0
C38 C 0.54465 0.95071 0.48207 0.0
C39 C 0.50643 0.93949 0.45428 0.0
C40 C 0.46804 0.94209 0.47062 0.0
C41 C 0.46919 0.95909 0.51434 0.0
H42 H 0.61897 0.59253 0.11345 0.0
H43 H 0.48383 0.47829 0.09552 0.0
H44 H 0.49944 0.59219 0.17028 0.0
H45 H 0.61034 0.51935 0.09731 0.0
H46 H 0.55464 0.47076 0.0971 0.0
H47 H 0.63913 0.57407 1.02442 0.0
H48 H 0.61126 0.49643 0.90316 0.0
H49 H 0.52649 0.43645 1.02631 0.0
C50 C 0.58168 0.57695 0.11654 0.0
C51 C 0.56195 0.59857 0.14102 0.0
C52 C 0.5536 0.53369 0.0993 0.0
C53 C 0.50531 0.51246 0.10674 0.0
C54 C 0.48512 0.5334 0.13211 0.0
C55 C 0.51388 0.57684 0.14816 0.0
C56 C 0.57542 0.50633 0.08278 0.0
C57 C 0.58027 0.50634 1.03068 0.0
C58 C 0.61701 0.54369 1.00641 0.0
C59 C 0.62815 0.54012 0.96037 0.0
C60 C 0.60143 0.49969 0.93804 0.0
C61 C 0.56473 0.46221 0.96147 0.0
C62 C 0.55384 0.46592 1.00759 0.0
H63 H 0.01964 0.54735 0.63893 0.0
H64 H 0.03137 0.42578 0.64034 0.0
H65 H 0.92068 0.42729 0.71657 0.0
H66 H 0.09794 0.54744 0.63104 0.0
H67 H 0.09675 0.4966 0.61607 0.0
H68 H 0.07358 0.58928 0.57513 0.0
H69 H 0.10405 0.57677 0.43365 0.0
H70 H 0.08856 0.47538 0.53698 0.0
C71 C 0.00618 0.51179 0.64881 0.0
C72 C 0.96654 0.48939 0.67789 0.0
C73 C 0.03004 0.4892 0.63496 0.0
C74 C 0.01287 0.44334 0.64983 0.0
C75 C 0.97364 0.42101 0.6795 0.0
C76 C 0.95072 0.44426 0.6933 0.0
C77 C 0.07774 0.51588 0.61212 0.0
C78 C 0.07809 0.52927 0.56145 0.0
C79 C 0.07828 0.56998 0.54872 0.0
C80 C 0.08806 0.58762 0.50268 0.0
C81 C 0.09577 0.56305 0.46903 0.0
C82 C 0.09666 0.52292 0.48099 0.0
C83 C 0.08651 0.50556 0.52712 0.0
H84 H 0.49642 0.89466 0.0932 0.0
H85 H 0.39304 0.93552 0.07746 0.0
H86 H 0.40352 0.87504 0.20678 0.0
H87 H 0.47946 0.91121 1.01744 0.0
H88 H 0.42792 0.91397 1.00925 0.0
H89 H 0.55453 0.98064 1.0166 0.0
H90 H 0.55898 0.10499 0.97015 0.0
H91 H 0.42858 0.98759 1.00767 0.0
C92 C 0.46884 0.89908 0.10782 0.0
C93 C 0.45284 0.88311 0.15355 0.0
C94 C 0.44792 0.91864 0.08012 0.0
C95 C 0.41089 0.92257 0.09901 0.0
C96 C 0.39547 0.9079 0.1451 0.0
C97 C 0.41697 0.88868 0.17209 0.0
C98 C 0.46034 0.92859 1.02891 0.0
C99 C 0.48845 0.97885 1.01579 0.0
C100 C 0.53694 -4e-05 1.00986 0.0
C101 C 0.56253 0.0456 0.99369 0.0
C102 C 0.53948 0.07019 0.98397 0.0
C103 C 0.49128 0.04948 0.98867 0.0
C104 C 0.46593 0.00393 1.00497 0.0
H105 H 0.58299 0.49229 0.6261 0.0
H106 H 0.44578 0.37826 0.62133 0.0
H107 H 0.51637 0.41016 0.74983 0.0
H108 H 0.55193 0.462 0.55301 0.0
H109 H 0.50037 0.40901 0.55138 0.0
H110 H 0.54973 0.53394 0.54781 0.0
H111 H 0.43296 0.52532 0.47607 0.0
H112 H 0.42566 0.40484 0.53788 0.0
C113 C 0.55282 0.46479 0.64384 0.0
C114 C 0.55461 0.45478 0.69126 0.0
C115 C 0.51348 0.43758 0.61834 0.0
C116 C 0.47555 0.40019 0.641 0.0
C117 C 0.47674 0.38974 0.6883 0.0
C118 C 0.51573 0.41797 0.7133 0.0
C119 C 0.51536 0.44315 0.56601 0.0
C120 C 0.49004 0.46698 0.54688 0.0
C121 C 0.51436 0.51437 0.53713 0.0
C122 C 0.49423 0.53585 0.51107 0.0
C123 C 0.44847 0.50973 0.49752 0.0
C124 C 0.42343 0.46289 0.50753 0.0
C125 C 0.44424 0.44143 0.53211 0.0
Mg126 Mg 0.23204 0.42118 0.29886 0.0
C127 C 0.14381 0.34898 0.24612 0.0
O128 O 0.11627 0.3063 0.23719 0.0
C129 C 0.26519 0.41161 0.39571 0.0
O130 O 0.2335 0.42156 0.40912 0.0
C131 C 0.16297 0.43702 0.352 0.0
O132 O 0.14066 0.39249 0.35148 0.0
O133 O 0.20191 0.45887 0.33041 0.0
O134 O 0.17778 0.35792 0.27219 0.0
O135 O 0.28646 0.4589 0.24556 0.0
C136 C 0.30654 0.43797 0.23037 0.0
O137 O 0.29178 0.39597 0.24595 0.0
O138 O 0.26975 0.40707 0.35286 0.0
Mg139 Mg 0.80541 0.20989 0.83653 0.0
C140 C 0.73784 0.15847 0.76896 0.0
O141 O 0.74975 0.13003 0.78813 0.0
C142 C 0.85623 0.27522 0.90593 0.0
O143 O 0.86416 0.24145 0.91563 0.0
C144 C 0.74485 0.16134 0.91815 0.0
O145 O 0.75338 0.20339 0.92044 0.0
O146 O 0.76575 0.15234 0.88658 0.0
O147 O 0.75628 0.19868 0.78297 0.0
O148 O 0.87114 0.22904 0.80092 0.0
C149 C 0.87373 0.23714 0.75733 0.0
O150 O 0.83686 0.21287 0.73347 0.0
O151 O 0.82889 0.27128 0.87366 0.0
Mg152 Mg 0.58562 0.77881 0.33613 0.0
C153 C 0.51991 0.78076 0.26458 0.0
O154 O 0.52939 0.7516 0.24553 0.0
C155 C 0.58265 0.71167 0.4112 0.0
O156 O 0.62752 0.73901 0.40799 0.0
C157 C 0.61637 0.84225 0.41352 0.0
O158 O 0.59554 0.80296 0.43682 0.0
O159 O 0.62496 0.84252 0.37055 0.0
O160 O 0.53449 0.79347 0.30478 0.0
O161 O 0.61484 0.76264 0.27608 0.0
C162 C 0.62695 0.7323 0.27742 0.0
O163 O 0.63166 0.71652 0.3179 0.0
O164 O 0.55628 0.72052 0.38637 0.0
Mg165 Mg 0.81634 0.58923 0.83547 0.0
C166 C 0.72852 0.56145 0.78495 0.0
O167 O 0.75242 0.60509 0.77366 0.0
C168 C 0.87769 0.59659 0.91203 0.0
O169 O 0.90269 0.6338 0.88618 0.0
C170 C 0.79982 0.67037 0.86305 0.0
O171 O 0.81349 0.71401 0.86118 0.0
O172 O 0.82523 0.65732 0.84255 0.0
O173 O 0.74632 0.54418 0.81218 0.0
O174 O 0.86643 0.58662 0.78815 0.0
C175 C 0.85531 0.5621 0.75321 0.0
O176 O 0.81229 0.54236 0.74012 0.0
O177 O 0.8366 0.56954 0.90028 0.0
Mg178 Mg 0.20941 0.80193 0.32624 0.0
C179 C 0.21396 0.73449 0.25912 0.0
O180 O 0.25899 0.75762 0.26315 0.0
C181 C 0.29434 0.86281 0.37391 0.0
O182 O 0.27227 0.88605 0.37069 0.0
C183 C 0.16588 0.76766 0.42099 0.0
O184 O 0.20905 0.79333 0.43209 0.0
O185 O 0.15473 0.77181 0.37987 0.0
O186 O 0.18848 0.74581 0.28138 0.0
O187 O 0.22343 0.86088 0.28198 0.0
C188 C 0.22255 0.85569 0.23867 0.0
O189 O 0.18976 0.81737 0.2235 0.0
O190 O 0.27562 0.82336 0.35789 0.0
Mg191 Mg 0.41587 0.2131 0.81546 0.0
C192 C 0.41682 0.15984 0.73926 0.0
O193 O 0.37785 0.1336 0.76238 0.0
C194 C 0.48883 0.29236 0.86705 0.0
O195 O 0.50337 0.26317 0.87574 0.0
C196 C 0.42321 0.16384 0.9068 0.0
O197 O 0.42366 0.1972 0.92896 0.0
O198 O 0.41901 0.16304 0.86318 0.0
O199 O 0.44149 0.20041 0.75158 0.0
O200 O 0.34513 0.1988 0.8074 0.0
C201 C 0.33497 0.22522 0.78421 0.0
O202 O 0.29172 0.21584 0.78272 0.0
O203 O 0.45523 0.2816 0.84032 0.0
C204 C 0.16369 0.46328 0.19623 0.0
C205 C 0.11999 0.45328 0.18007 0.0
C206 C 0.17097 0.42972 0.21811 0.0
C207 C 0.13496 0.38477 0.22503 0.0
H208 H 0.19277 0.49734 0.19141 0.0
H209 H 0.20536 0.43902 0.22855 0.0
S210 S 0.01325 0.3414 0.19099 0.0
N211 N 0.03976 0.39556 0.17361 0.0
N212 N 0.0532 0.33237 0.21477 0.0
C213 C 0.09089 0.37438 0.20923 0.0
C214 C 0.08351 0.40859 0.18676 0.0
C215 C 0.63794 0.07944 0.69717 0.0
C216 C 0.63059 0.10921 0.66781 0.0
C217 C 0.67346 0.09588 0.72881 0.0
C218 C 0.70283 0.14278 0.73278 0.0
H219 H 0.61462 0.04315 0.69749 0.0
H220 H 0.67669 0.07149 0.75156 0.0
S221 S 0.70197 0.23483 0.65974 0.0
N222 N 0.65859 0.1877 0.64133 0.0
N223 N 0.72499 0.21875 0.70165 0.0
C224 C 0.69734 0.17295 0.70219 0.0
C225 C 0.66136 0.15613 0.66952 0.0
C226 C 0.61341 0.6351 0.20637 0.0
C227 C 0.59067 0.63929 0.1674 0.0
C228 C 0.62914 0.66785 0.23994 0.0
C229 C 0.62277 0.70609 0.23573 0.0
H230 H 0.61571 0.60452 0.21283 0.0
H231 H 0.64341 0.66135 0.27092 0.0
S232 S 0.57404 0.73698 0.13451 0.0
N233 N 0.56834 0.68712 0.12285 0.0
N234 N 0.59946 0.74981 0.18475 0.0
C235 C 0.60467 0.71297 0.19419 0.0
C236 C 0.58803 0.67918 0.16042 0.0
C237 C 0.9093 0.51673 0.66869 0.0
C238 C 0.94288 0.51353 0.69517 0.0
C239 C 0.88223 0.53414 0.6871 0.0
C240 C 0.88827 0.5495 0.73242 0.0
H241 H 0.9028 0.50417 0.63416 0.0
H242 H 0.85569 0.53466 0.66605 0.0
S243 S 0.97257 0.54854 0.81534 0.0
N244 N 0.98122 0.52716 0.76839 0.0
N245 N 0.93134 0.56072 0.80293 0.0
C246 C 0.92298 0.54772 0.75861 0.0
C247 C 0.94997 0.52943 0.74002 0.0
C248 C 0.31069 0.88026 0.14226 0.0
C249 C 0.35282 0.906 0.16395 0.0
C250 C 0.26842 0.86764 0.16521 0.0
C251 C 0.2667 0.88029 0.21074 0.0
H252 H 0.31019 0.86684 0.10878 0.0
H253 H 0.2369 0.84517 0.14822 0.0
S254 S 0.36838 0.95596 0.27847 0.0
N255 N 0.39089 0.94943 0.23028 0.0
N256 N 0.31181 0.92674 0.27325 0.0
C257 C 0.30895 0.91018 0.23068 0.0
C258 C 0.3519 0.92261 0.2074 0.0
C259 C 0.4197 0.34901 0.75417 0.0
C260 C 0.43916 0.34743 0.71135 0.0
C261 C 0.38595 0.3092 0.77771 0.0
C262 C 0.3711 0.26649 0.75957 0.0
H263 H 0.43062 0.38129 0.76953 0.0
H264 H 0.37161 0.31178 0.81045 0.0
S265 S 0.4111 0.24335 0.64942 0.0
N266 N 0.44124 0.29911 0.65233 0.0
N267 N 0.37735 0.22456 0.69649 0.0
C268 C 0.39001 0.26427 0.71698 0.0
C269 C 0.42417 0.3047 0.69286 0.0
C270 C 0.58419 0.90529 0.49745 0.0
C271 C 0.57827 0.93596 0.46803 0.0
C272 C 0.60193 0.87853 0.48037 0.0
C273 C 0.61424 0.88124 0.43319 0.0
H274 H 0.57095 0.89866 0.53286 0.0
H275 H 0.60218 0.85279 0.5036 0.0
S276 S 0.61612 0.96457 0.34469 0.0
N277 N 0.59446 0.97397 0.39185 0.0
N278 N 0.62742 0.92347 0.35942 0.0
C279 C 0.61405 0.91593 0.40484 0.0
C280 C 0.59602 0.94325 0.42234 0.0
C281 C 0.70642 0.5638 0.92761 0.0
C282 C 0.67201 0.57504 0.93765 0.0
C283 C 0.74756 0.59489 0.90417 0.0
C284 C 0.75583 0.63812 0.88864 0.0
H285 H 0.70155 0.53063 0.93823 0.0
H286 H 0.77308 0.58485 0.89897 0.0
S287 S 0.67612 0.68422 0.90762 0.0
N288 N 0.64865 0.63248 0.93214 0.0
N289 N 0.72555 0.69085 0.8866 0.0
C290 C 0.72162 0.65 0.89925 0.0
C291 C 0.67984 0.61844 0.92396 0.0
C292 C 0.08106 0.64353 0.44857 0.0
C293 C 0.09797 0.63473 0.48987 0.0
C294 C 0.09984 0.68774 0.4287 0.0
C295 C 0.13655 0.72492 0.44922 0.0
H296 H 0.05527 0.61561 0.42984 0.0
H297 H 0.08794 0.69207 0.39517 0.0
S298 S 0.18717 0.72121 0.56204 0.0
N299 N 0.14918 0.66772 0.55376 0.0
N300 N 0.18366 0.75075 0.51711 0.0
C301 C 0.15015 0.71717 0.49306 0.0
C302 C 0.13112 0.6721 0.51321 0.0
C303 C 0.47741 0.11583 0.99091 0.0
C304 C 0.46783 0.07468 0.9717 0.0
C305 C 0.46062 0.1433 0.97122 0.0
C306 C 0.43454 0.13111 0.93092 0.0
H307 H 0.49909 0.1274 1.02065 0.0
H308 H 0.47006 0.17534 0.98644 0.0
S309 S 0.39887 0.02573 0.86828 0.0
N310 N 0.42927 0.02213 0.91143 0.0
N311 N 0.39835 0.07387 0.87381 0.0
C312 C 0.42366 0.08929 0.91224 0.0
C313 C 0.44014 0.06106 0.93277 0.0
C314 C 0.34172 0.44501 0.49983 0.0
C315 C 0.37787 0.43734 0.48619 0.0
C316 C 0.30355 0.43326 0.4719 0.0
C317 C 0.30054 0.41427 0.4287 0.0
H318 H 0.34446 0.46292 0.5309 0.0
H319 H 0.27783 0.44203 0.48297 0.0
S320 S 0.3843 0.38305 0.37987 0.0
N321 N 0.40666 0.40599 0.42914 0.0
N322 N 0.33524 0.38406 0.37619 0.0
C323 C 0.33505 0.40351 0.41631 0.0
C324 C 0.37365 0.41507 0.44514 0.0
C325 C 0.92433 0.35728 0.99796 0.0
C326 C 0.93203 0.39915 0.97858 0.0
C327 C 0.89937 0.31723 0.97431 0.0
C328 C 0.881 0.3177 0.9307 0.0
H329 H 0.93699 0.35539 1.03186 0.0
H330 H 0.89403 0.28559 0.99058 0.0
S331 S 0.89618 0.41964 0.86292 0.0
N332 N 0.92314 0.43942 0.91137 0.0
N333 N 0.8748 0.36411 0.86798 0.0
C334 C 0.88925 0.35955 0.91065 0.0
C335 C 0.91526 0.40029 0.93426 0.0
C336 C 0.96914 0.58079 0.97379 0.0
C337 C 0.94296 0.54468 1.00603 0.0
C338 C 0.94809 0.59971 0.94578 0.0
C339 C 0.90001 0.58289 0.94862 0.0
H340 H 0.00527 0.59164 0.96696 0.0
H341 H 0.96921 0.62524 0.91927 0.0
S342 S 0.81805 0.49614 1.03476 0.0
N343 N 0.8681 0.49879 1.04514 0.0
N344 N 0.82827 0.53346 0.99152 0.0
C345 C 0.87432 0.55016 0.98393 0.0
C346 C 0.89593 0.53146 1.01302 0.0
C347 C 0.40123 0.94619 0.43595 0.0
C348 C 0.42464 0.92174 0.44452 0.0
C349 C 0.35953 0.92696 0.41259 0.0
C350 C 0.33936 0.88236 0.39714 0.0
H351 H 0.41534 0.9805 0.4473 0.0
H352 H 0.34292 0.94732 0.40686 0.0
S353 S 0.38635 0.80346 0.41267 0.0
N354 N 0.42412 0.85013 0.43707 0.0
N355 N 0.34615 0.8142 0.3927 0.0
C356 C 0.36255 0.85756 0.40548 0.0
C357 C 0.40502 0.87717 0.42929 0.0
C358 C 0.52312 0.41362 0.89556 0.0
C359 C 0.54267 0.41783 0.93927 0.0
C360 C 0.50562 0.37292 0.87242 0.0
C361 C 0.50812 0.33534 0.89163 0.0
H362 H 0.52152 0.44209 0.87911 0.0
H363 H 0.49068 0.37112 0.83893 0.0
S364 S 0.55703 0.32953 1.0049 0.0
N365 N 0.56391 0.38129 1.00064 0.0
N366 N 0.53165 0.30512 0.9572 0.0
C367 C 0.52784 0.3393 0.93524 0.0
C368 C 0.54491 0.38042 0.95905 0.0
C369 C 0.08839 0.45504 0.44028 0.0
C370 C 0.11305 0.50202 0.44631 0.0
C371 C 0.1041 0.4347 0.40872 0.0
C372 C 0.14535 0.46042 0.38205 0.0
H373 H 0.0567 0.43378 0.46017 0.0
H374 H 0.08396 0.39828 0.40585 0.0
S375 S 0.22321 0.58495 0.38551 0.0
N376 N 0.18127 0.57377 0.42351 0.0
N377 N 0.21031 0.53583 0.36387 0.0
C378 C 0.17007 0.50761 0.38743 0.0
C379 C 0.15409 0.52829 0.4196 0.0
C380 C 0.62917 0.05562 0.94368 0.0
C381 C 0.61287 0.06775 0.98271 0.0
C382 C 0.67421 0.08393 0.92511 0.0
C383 C 0.70417 0.1253 0.94498 0.0
H384 H 0.60587 0.02596 0.92537 0.0
H385 H 0.68409 0.07521 0.89295 0.0
S386 S 0.68027 0.16788 1.05222 0.0
N387 N 0.63183 0.12045 1.04384 0.0
N388 N 0.71628 0.17332 1.00965 0.0
C389 C 0.68946 0.13537 0.98646 0.0
C390 C 0.64381 0.10673 1.0051 0.0
C391 C 0.50027 0.61144 0.49013 0.0
C392 C 0.5213 0.58394 0.49243 0.0
C393 C 0.5206 0.65305 0.46445 0.0
C394 C 0.5634 0.66948 0.44104 0.0
H395 H 0.46686 0.59989 0.50695 0.0
H396 H 0.5024 0.67224 0.46246 0.0
S397 S 0.63396 0.61215 0.43684 0.0
N398 N 0.58797 0.57701 0.46898 0.0
N399 N 0.62715 0.65623 0.42291 0.0
C400 C 0.58605 0.64371 0.44487 0.0
C401 C 0.56487 0.6008 0.47014 0.0
C402 C 0.49595 0.15121 0.64965 0.0
C403 C 0.48119 0.10435 0.65127 0.0
C404 C 0.47346 0.16883 0.67627 0.0
C405 C 0.43502 0.14023 0.70523 0.0
H406 H 0.52678 0.17474 0.62964 0.0
H407 H 0.48752 0.2053 0.67559 0.0
S408 S 0.38022 0.01454 0.71908 0.0
N409 N 0.42409 0.0295 0.68239 0.0
N410 N 0.38094 0.06215 0.73104 0.0
C411 C 0.41786 0.09298 0.70455 0.0
C412 C 0.44109 0.07514 0.67786 0.0
C413 C 0.41913 0.4632 0.16971 0.0
C414 C 0.43605 0.50726 0.1497 0.0
C415 C 0.37651 0.44067 0.19402 0.0
C416 C 0.34893 0.46126 0.19985 0.0
H417 H 0.44002 0.44675 0.16876 0.0
H418 H 0.36614 0.40747 0.21001 0.0
S419 S 0.37439 0.57379 0.1489 0.0
N420 N 0.41941 0.56869 0.13302 0.0
N421 N 0.33974 0.52675 0.17965 0.0
C422 C 0.36422 0.50436 0.17801 0.0
C423 C 0.40758 0.5272 0.15279 0.0
C424 C 0.93266 0.33709 0.67004 0.0
C425 C 0.95692 0.3739 0.69816 0.0
C426 C 0.90895 0.29235 0.68911 0.0
C427 C 0.90869 0.28271 0.73704 0.0
H428 H 0.9298 0.34311 0.63351 0.0
H429 H 0.88856 0.26535 0.66637 0.0
S430 S 0.97374 0.3677 0.82396 0.0
N431 N 0.98386 0.39813 0.77497 0.0
N432 N 0.94019 0.31432 0.81104 0.0
C433 C 0.93618 0.31929 0.76481 0.0
C434 C 0.95988 0.36482 0.74533 0.0
C435 C 0.48409 0.86788 0.22671 0.0
C436 C 0.47023 0.85683 0.18105 0.0
C437 C 0.49877 0.84235 0.25391 0.0
C438 C 0.49983 0.80444 0.23669 0.0
H439 H 0.48401 0.89682 0.24138 0.0
H440 H 0.51007 0.85299 0.28846 0.0
S441 S 0.46266 0.75887 0.12053 0.0
N442 N 0.45558 0.80385 0.12077 0.0
N443 N 0.48294 0.75577 0.17157 0.0
C444 C 0.4848 0.79236 0.1914 0.0
C445 C 0.47016 0.81858 0.16368 0.0
C446 C 0.62282 0.52874 0.71192 0.0
C447 C 0.59798 0.48109 0.71708 0.0
C448 C 0.66428 0.55418 0.73473 0.0
C449 C 0.68292 0.53317 0.76374 0.0
H450 H 0.61007 0.54664 0.69007 0.0
H451 H 0.68201 0.59076 0.72913 0.0
S452 S 0.63153 0.40906 0.78892 0.0
N453 N 0.59553 0.41368 0.7531 0.0
N454 N 0.67267 0.46151 0.79675 0.0
C455 C 0.65811 0.48552 0.76979 0.0
C456 C 0.61594 0.45953 0.74631 0.0
C457 C 0.19625 0.63162 0.19498 0.0
C458 C 0.15003 0.61231 0.18156 0.0
C459 C 0.21712 0.67187 0.21882 0.0
C460 C 0.19233 0.69397 0.23071 0.0
H461 H 0.21635 0.61523 0.18727 0.0
H462 H 0.25254 0.68501 0.22904 0.0
S463 S 0.07066 0.65785 0.20183 0.0
N464 N 0.08051 0.61876 0.18044 0.0
N465 N 0.1193 0.69429 0.22542 0.0
C466 C 0.14627 0.67543 0.21654 0.0
C467 C 0.12526 0.63467 0.19187 0.0
loop_
_geom_bond_atom_site_label_1
_geom_bond_atom_site_label_2
_geom_bond_distance
_geom_bond_site_symmetry_2
_ccdc_geom_bond_type
H0 C8 0.930 . S
H1 C11 0.930 . S
H2 C13 0.930 . S
H3 C14 0.970 . S
H4 C14 0.970 . S
H5 C16 0.930 . S
H6 C18 0.930 . S
H7 C20 0.930 . S
C8 H0 0.930 . S
C8 C9 1.382 . S
C8 C10 1.426 . S
C9 C8 1.382 . S
C9 C13 1.389 . S
C10 C8 1.426 . S
C10 C11 1.375 . S
C10 C14 1.532 1_554 S
C11 H1 0.930 . S
C11 C10 1.375 . S
C11 C12 1.416 . S
C12 C11 1.416 . S
C12 C13 1.371 . S
C13 H2 0.930 . S
C13 C9 1.389 . S
C13 C12 1.371 . S
C14 H3 0.970 . S
C14 H4 0.970 . S
C14 C10 1.532 1_556 S
C14 C15 1.499 . S
C15 C14 1.499 . S
C15 C16 1.370 . S
C15 C20 1.415 . S
C16 H5 0.930 . S
C16 C15 1.370 . S
C16 C17 1.407 1_455 S
C17 C16 1.407 1_655 S
C17 C18 1.365 . S
C18 H6 0.930 . S
C18 C17 1.365 . S
C18 C19 1.393 . S
C19 C18 1.393 . S
C19 C20 1.387 1_655 S
C20 H7 0.930 . S
C20 C15 1.415 . S
C20 C19 1.387 1_455 S
H21 C29 0.930 . S
H22 C32 0.930 . S
H23 C34 0.930 . S
H24 C35 0.970 . S
H25 C35 0.970 . S
H26 C37 0.930 . S
H27 C39 0.930 . S
H28 C41 0.930 . S
C29 H21 0.930 . S
C29 C30 1.382 . S
C29 C31 1.426 . S
C30 C29 1.382 . S
C30 C34 1.389 . S
C31 C29 1.426 . S
C31 C32 1.375 . S
C31 C35 1.532 1_545 S
C32 H22 0.930 . S
C32 C31 1.375 . S
C32 C33 1.416 . S
C33 C32 1.416 . S
C33 C34 1.371 . S
C34 H23 0.930 . S
C34 C30 1.389 . S
C34 C33 1.371 . S
C35 H24 0.970 . S
C35 H25 0.970 . S
C35 C31 1.532 1_565 S
C35 C36 1.499 . S
C36 C35 1.499 . S
C36 C37 1.370 . S
C36 C41 1.415 . S
C37 H26 0.930 . S
C37 C36 1.370 . S
C37 C38 1.407 . S
C38 C37 1.407 . S
C38 C39 1.365 . S
C39 H27 0.930 . S
C39 C38 1.365 . S
C39 C40 1.393 . S
C40 C39 1.393 . S
C40 C41 1.387 . S
C41 H28 0.930 . S
C41 C36 1.415 . S
C41 C40 1.387 . S
H42 C50 0.930 . S
H43 C53 0.930 . S
H44 C55 0.930 . S
H45 C56 0.970 . S
H46 C56 0.970 . S
H47 C58 0.930 . S
H48 C60 0.930 . S
H49 C62 0.930 . S
C50 H42 0.930 . S
C50 C51 1.382 . S
C50 C52 1.426 . S
C51 C50 1.382 . S
C51 C55 1.389 . S
C52 C50 1.426 . S
C52 C53 1.375 . S
C52 C56 1.532 . S
C53 H43 0.930 . S
C53 C52 1.375 . S
C53 C54 1.416 . S
C54 C53 1.416 . S
C54 C55 1.371 . S
C55 H44 0.930 . S
C55 C51 1.389 . S
C55 C54 1.371 . S
C56 H45 0.970 . S
C56 H46 0.970 . S
C56 C52 1.532 . S
C56 C57 1.499 . S
C57 C56 1.499 . S
C57 C58 1.370 1_554 S
C57 C62 1.415 1_554 S
C58 H47 0.930 . S
C58 C57 1.370 1_556 S
C58 C59 1.407 . S
C59 C58 1.407 . S
C59 C60 1.365 . S
C60 H48 0.930 . S
C60 C59 1.365 . S
C60 C61 1.393 . S
C61 C60 1.393 . S
C61 C62 1.387 . S
C62 H49 0.930 . S
C62 C57 1.415 1_556 S
C62 C61 1.387 . S
H63 C71 0.930 1_455 S
H64 C74 0.930 1_455 S
H65 C76 0.930 . S
H66 C77 0.970 . S
H67 C77 0.970 . S
H68 C79 0.930 . S
H69 C81 0.930 . S
H70 C83 0.930 . S
C71 H63 0.930 1_655 S
C71 C72 1.382 . S
C71 C73 1.426 1_655 S
C72 C71 1.382 . S
C72 C76 1.389 . S
C73 C71 1.426 1_455 S
C73 C74 1.375 1_455 S
C73 C77 1.532 . S
C74 H64 0.930 1_655 S
C74 C73 1.375 1_655 S
C74 C75 1.416 . S
C75 C74 1.416 . S
C75 C76 1.371 . S
C76 H65 0.930 . S
C76 C72 1.389 . S
C76 C75 1.371 . S
C77 H66 0.970 . S
C77 H67 0.970 . S
C77 C73 1.532 . S
C77 C78 1.499 . S
C78 C77 1.499 . S
C78 C79 1.370 . S
C78 C83 1.415 . S
C79 H68 0.930 . S
C79 C78 1.370 . S
C79 C80 1.407 . S
C80 C79 1.407 . S
C80 C81 1.365 . S
C81 H69 0.930 . S
C81 C80 1.365 . S
C81 C82 1.393 . S
C82 C81 1.393 . S
C82 C83 1.387 . S
C83 H70 0.930 . S
C83 C78 1.415 . S
C83 C82 1.387 . S
H84 C92 0.930 . S
H85 C95 0.930 . S
H86 C97 0.930 . S
H87 C98 0.970 . S
H88 C98 0.970 . S
H89 C100 0.938 . S
H90 C102 0.930 . S
H91 C104 0.930 1_565 S
C92 H84 0.930 . S
C92 C93 1.382 . S
C92 C94 1.426 . S
C93 C92 1.382 . S
C93 C97 1.389 . S
C94 C92 1.426 . S
C94 C95 1.375 . S
C94 C98 1.532 1_554 S
C95 H85 0.930 . S
C95 C94 1.375 . S
C95 C96 1.416 . S
C96 C95 1.416 . S
C96 C97 1.371 . S
C97 H86 0.930 . S
C97 C93 1.389 . S
C97 C96 1.371 . S
C98 H87 0.970 . S
C98 H88 0.970 . S
C98 C94 1.532 1_556 S
C98 C99 1.499 . S
C99 C98 1.499 . S
C99 C100 1.370 1_565 S
C99 C104 1.415 1_565 S
C100 H89 0.938 . S
C100 C99 1.370 1_545 S
C100 C101 1.407 . S
C101 C100 1.407 . S
C101 C102 1.365 . S
C102 H90 0.930 . S
C102 C101 1.365 . S
C102 C103 1.393 . S
C103 C102 1.393 . S
C103 C104 1.387 . S
C104 H91 0.930 1_545 S
C104 C99 1.415 1_545 S
C104 C103 1.387 . S
H105 C113 0.930 . S
H106 C116 0.930 . S
H107 C118 0.930 . S
H108 C119 0.970 . S
H109 C119 0.970 . S
H110 C121 0.930 . S
H111 C123 0.930 . S
H112 C125 0.930 . S
C113 H105 0.930 . S
C113 C114 1.382 . S
C113 C115 1.426 . S
C114 C113 1.382 . S
C114 C118 1.389 . S
C115 C113 1.426 . S
C115 C116 1.375 . S
C115 C119 1.532 . S
C116 H106 0.930 . S
C116 C115 1.375 . S
C116 C117 1.416 . S
C117 C116 1.416 . S
C117 C118 1.371 . S
C118 H107 0.930 . S
C118 C114 1.389 . S
C118 C117 1.371 . S
C119 H108 0.970 . S
C119 H109 0.970 . S
C119 C115 1.532 . S
C119 C120 1.499 . S
C120 C119 1.499 . S
C120 C121 1.370 . S
C120 C125 1.415 . S
C121 H110 0.930 . S
C121 C120 1.370 . S
C121 C122 1.407 . S
C122 C121 1.407 . S
C122 C123 1.365 . S
C123 H111 0.930 . S
C123 C122 1.365 . S
C123 C124 1.393 . S
C124 C123 1.393 . S
C124 C125 1.387 . S
C125 H112 0.930 . S
C125 C120 1.415 . S
C125 C124 1.387 . S
Mg126 O133 2.141 . S
Mg126 O134 2.048 . S
Mg126 O135 2.048 . S
Mg126 O138 2.141 . S
C127 O128 1.313 . S
C127 O134 1.195 . S
O128 C127 1.313 . S
C129 O130 1.245 . S
C129 O138 1.289 . S
O130 C129 1.245 . S
C131 O132 1.245 . S
C131 O133 1.289 . S
O132 C131 1.245 . S
O133 Mg126 2.141 . S
O133 C131 1.289 . S
O134 Mg126 2.048 . S
O134 C127 1.195 . S
O135 Mg126 2.048 . S
O135 C136 1.195 . S
C136 O135 1.195 . S
C136 O137 1.313 . S
O137 C136 1.313 . S
O138 Mg126 2.141 . S
O138 C129 1.289 . S
Mg139 O146 2.141 . S
Mg139 O147 2.048 . S
Mg139 O148 2.048 . S
Mg139 O151 2.141 . S
C140 O141 1.313 . S
C140 O147 1.195 . S
O141 C140 1.313 . S
C142 O143 1.245 . S
C142 O151 1.289 . S
O143 C142 1.245 . S
C144 O145 1.245 . S
C144 O146 1.289 . S
O145 C144 1.245 . S
O146 Mg139 2.141 . S
O146 C144 1.289 . S
O147 Mg139 2.048 . S
O147 C140 1.195 . S
O148 Mg139 2.048 . S
O148 C149 1.195 . S
C149 O148 1.195 . S
C149 O150 1.313 . S
O150 C149 1.313 . S
O151 Mg139 2.141 . S
O151 C142 1.289 . S
Mg152 O159 2.141 . S
Mg152 O160 2.048 . S
Mg152 O161 2.048 . S
Mg152 O164 2.141 . S
C153 O154 1.313 . S
C153 O160 1.195 . S
O154 C153 1.313 . S
C155 O156 1.245 . S
C155 O164 1.289 . S
O156 C155 1.245 . S
C157 O158 1.245 . S
C157 O159 1.289 . S
O158 C157 1.245 . S
O159 Mg152 2.141 . S
O159 C157 1.289 . S
O160 Mg152 2.048 . S
O160 C153 1.195 . S
O161 Mg152 2.048 . S
O161 C162 1.195 . S
C162 O161 1.195 . S
C162 O163 1.313 . S
O163 C162 1.313 . S
O164 Mg152 2.141 . S
O164 C155 1.289 . S
Mg165 O172 2.141 . S
Mg165 O173 2.048 . S
Mg165 O174 2.048 . S
Mg165 O177 2.141 . S
C166 O167 1.313 . S
C166 O173 1.195 . S
O167 C166 1.313 . S
C168 O169 1.245 . S
C168 O177 1.289 . S
O169 C168 1.245 . S
C170 O171 1.245 . S
C170 O172 1.289 . S
O171 C170 1.245 . S
O172 Mg165 2.141 . S
O172 C170 1.289 . S
O173 Mg165 2.048 . S
O173 C166 1.195 . S
O174 Mg165 2.048 . S
O174 C175 1.195 . S
C175 O174 1.195 . S
C175 O176 1.313 . S
O176 C175 1.313 . S
O177 Mg165 2.141 . S
O177 C168 1.289 . S
Mg178 O185 2.141 . S
Mg178 O186 2.048 . S
Mg178 O187 2.048 . S
Mg178 O190 2.141 . S
C179 O180 1.313 . S
C179 O186 1.195 . S
O180 C179 1.313 . S
C181 O182 1.245 . S
C181 O190 1.289 . S
O182 C181 1.245 . S
C183 O184 1.245 . S
C183 O185 1.289 . S
O184 C183 1.245 . S
O185 Mg178 2.141 . S
O185 C183 1.289 . S
O186 Mg178 2.048 . S
O186 C179 1.195 . S
O187 Mg178 2.048 . S
O187 C188 1.195 . S
C188 O187 1.195 . S
C188 O189 1.313 . S
O189 C188 1.313 . S
O190 Mg178 2.141 . S
O190 C181 1.289 . S
Mg191 O198 2.141 . S
Mg191 O199 2.048 . S
Mg191 O200 2.048 . S
Mg191 O203 2.141 . S
C192 O193 1.313 . S
C192 O199 1.195 . S
O193 C192 1.313 . S
C194 O195 1.245 . S
C194 O203 1.289 . S
O195 C194 1.245 . S
C196 O197 1.245 . S
C196 O198 1.289 . S
O197 C196 1.245 . S
O198 Mg191 2.141 . S
O198 C196 1.289 . S
O199 Mg191 2.048 . S
O199 C192 1.195 . S
O200 Mg191 2.048 . S
O200 C201 1.195 . S
C201 O200 1.195 . S
C201 O202 1.313 . S
O202 C201 1.313 . S
O203 Mg191 2.141 . S
O203 C194 1.289 . S
C204 C205 1.369 . S
C204 C206 1.419 . S
C204 H208 0.930 . S
C205 C204 1.369 . S
C205 C214 1.429 . S
C206 C204 1.419 . S
C206 C207 1.363 . S
C206 H209 0.929 . S
C207 C206 1.363 . S
C207 C213 1.428 . S
H208 C204 0.930 . S
H209 C206 0.929 . S
S210 N211 1.613 . S
S210 N212 1.610 . S
N211 S210 1.613 . S
N211 C214 1.350 . S
N212 S210 1.610 . S
N212 C213 1.351 . S
C213 C207 1.428 . S
C213 N212 1.351 . S
C213 C214 1.434 . S
C214 C205 1.429 . S
C214 N211 1.350 . S
C214 C213 1.434 . S
C215 C216 1.369 . S
C215 C217 1.419 . S
C215 H219 0.930 . S
C216 C215 1.369 . S
C216 C225 1.429 . S
C217 C215 1.419 . S
C217 C218 1.363 . S
C217 H220 0.929 . S
C218 C217 1.363 . S
C218 C224 1.428 . S
H219 C215 0.930 . S
H220 C217 0.929 . S
S221 N222 1.613 . S
S221 N223 1.610 . S
N222 S221 1.613 . S
N222 C225 1.350 . S
N223 S221 1.610 . S
N223 C224 1.351 . S
C224 C218 1.428 . S
C224 N223 1.351 . S
C224 C225 1.434 . S
C225 C216 1.429 . S
C225 N222 1.350 . S
C225 C224 1.434 . S
C226 C227 1.369 . S
C226 C228 1.419 . S
C226 H230 0.930 . S
C227 C226 1.369 . S
C227 C236 1.429 . S
C228 C226 1.419 . S
C228 C229 1.363 . S
C228 H231 0.929 . S
C229 C228 1.363 . S
C229 C235 1.428 . S
H230 C226 0.930 . S
H231 C228 0.929 . S
S232 N233 1.613 . S
S232 N234 1.610 . S
N233 S232 1.613 . S
N233 C236 1.350 . S
N234 S232 1.610 . S
N234 C235 1.351 . S
C235 C229 1.428 . S
C235 N234 1.351 . S
C235 C236 1.434 . S
C236 C227 1.429 . S
C236 N233 1.350 . S
C236 C235 1.434 . S
C237 C238 1.369 . S
C237 C239 1.419 . S
C237 H241 0.930 . S
C238 C237 1.369 . S
C238 C247 1.429 . S
C239 C237 1.419 . S
C239 C240 1.363 . S
C239 H242 0.929 . S
C240 C239 1.363 . S
C240 C246 1.428 . S
H241 C237 0.930 . S
H242 C239 0.929 . S
S243 N244 1.613 . S
S243 N245 1.610 . S
N244 S243 1.613 . S
N244 C247 1.350 . S
N245 S243 1.610 . S
N245 C246 1.351 . S
C246 C240 1.428 . S
C246 N245 1.351 . S
C246 C247 1.434 . S
C247 C238 1.429 . S
C247 N244 1.350 . S
C247 C246 1.434 . S
C248 C249 1.369 . S
C248 C250 1.419 . S
C248 H252 0.930 . S
C249 C248 1.369 . S
C249 C258 1.429 . S
C250 C248 1.419 . S
C250 C251 1.363 . S
C250 H253 0.929 . S
C251 C250 1.363 . S
C251 C257 1.428 . S
H252 C248 0.930 . S
H253 C250 0.929 . S
S254 N255 1.613 . S
S254 N256 1.610 . S
N255 S254 1.613 . S
N255 C258 1.350 . S
N256 S254 1.610 . S
N256 C257 1.351 . S
C257 C251 1.428 . S
C257 N256 1.351 . S
C257 C258 1.434 . S
C258 C249 1.429 . S
C258 N255 1.350 . S
C258 C257 1.434 . S
C259 C260 1.369 . S
C259 C261 1.419 . S
C259 H263 0.930 . S
C260 C259 1.369 . S
C260 C269 1.429 . S
C261 C259 1.419 . S
C261 C262 1.363 . S
C261 H264 0.929 . S
C262 C261 1.363 . S
C262 C268 1.428 . S
H263 C259 0.930 . S
H264 C261 0.929 . S
S265 N266 1.613 . S
S265 N267 1.610 . S
N266 S265 1.613 . S
N266 C269 1.350 . S
N267 S265 1.610 . S
N267 C268 1.351 . S
C268 C262 1.428 . S
C268 N267 1.351 . S
C268 C269 1.434 . S
C269 C260 1.429 . S
C269 N266 1.350 . S
C269 C268 1.434 . S
C270 C271 1.369 . S
C270 C272 1.419 . S
C270 H274 0.930 . S
C271 C270 1.369 . S
C271 C280 1.429 . S
C272 C270 1.419 . S
C272 C273 1.363 . S
C272 H275 0.929 . S
C273 C272 1.363 . S
C273 C279 1.428 . S
H274 C270 0.930 . S
H275 C272 0.929 . S
S276 N277 1.610 . S
S276 N278 1.610 1_545 S
N277 S276 1.610 . S
N277 C280 1.343 1_545 S
N278 S276 1.610 1_565 S
N278 C279 1.351 . S
C279 C273 1.428 . S
C279 N278 1.351 . S
C279 C280 1.434 . S
C280 C271 1.429 . S
C280 N277 1.343 1_565 S
C280 C279 1.434 . S
C281 C282 1.369 . S
C281 C283 1.419 . S
C281 H285 0.930 . S
C282 C281 1.369 . S
C282 C291 1.429 . S
C283 C281 1.419 . S
C283 C284 1.363 . S
C283 H286 0.929 . S
C284 C283 1.363 . S
C284 C290 1.428 . S
H285 C281 0.930 . S
H286 C283 0.929 . S
S287 N288 1.613 . S
S287 N289 1.610 . S
N288 S287 1.613 . S
N288 C291 1.350 . S
N289 S287 1.610 . S
N289 C290 1.351 . S
C290 C284 1.428 . S
C290 N289 1.351 . S
C290 C291 1.434 . S
C291 C282 1.429 . S
C291 N288 1.350 . S
C291 C290 1.434 . S
C292 C293 1.369 . S
C292 C294 1.419 . S
C292 H296 0.930 . S
C293 C292 1.369 . S
C293 C302 1.429 . S
C294 C292 1.419 . S
C294 C295 1.363 . S
C294 H297 0.929 . S
C295 C294 1.363 . S
C295 C301 1.428 . S
H296 C292 0.930 . S
H297 C294 0.929 . S
S298 N299 1.613 . S
S298 N300 1.610 . S
N299 S298 1.613 . S
N299 C302 1.350 . S
N300 S298 1.610 . S
N300 C301 1.351 . S
C301 C295 1.428 . S
C301 N300 1.351 . S
C301 C302 1.434 . S
C302 C293 1.429 . S
C302 N299 1.350 . S
C302 C301 1.434 . S
C303 C304 1.369 . S
C303 C305 1.419 . S
C303 H307 0.930 . S
C304 C303 1.369 . S
C304 C313 1.429 . S
C305 C303 1.419 . S
C305 C306 1.363 . S
C305 H308 0.929 . S
C306 C305 1.363 . S
C306 C312 1.428 . S
H307 C303 0.930 . S
H308 C305 0.929 . S
S309 N310 1.613 . S
S309 N311 1.610 . S
N310 S309 1.613 . S
N310 C313 1.350 . S
N311 S309 1.610 . S
N311 C312 1.351 . S
C312 C306 1.428 . S
C312 N311 1.351 . S
C312 C313 1.434 . S
C313 C304 1.429 . S
C313 N310 1.350 . S
C313 C312 1.434 . S
C314 C315 1.369 . S
C314 C316 1.419 . S
C314 H318 0.930 . S
C315 C314 1.369 . S
C315 C324 1.429 . S
C316 C314 1.419 . S
C316 C317 1.363 . S
C316 H319 0.929 . S
C317 C316 1.363 . S
C317 C323 1.428 . S
H318 C314 0.930 . S
H319 C316 0.929 . S
S320 N321 1.613 . S
S320 N322 1.610 . S
N321 S320 1.613 . S
N321 C324 1.350 . S
N322 S320 1.610 . S
N322 C323 1.351 . S
C323 C317 1.428 . S
C323 N322 1.351 . S
C323 C324 1.434 . S
C324 C315 1.429 . S
C324 N321 1.350 . S
C324 C323 1.434 . S
C325 C326 1.369 . S
C325 C327 1.419 . S
C325 H329 0.930 . S
C326 C325 1.369 . S
C326 C335 1.429 . S
C327 C325 1.419 . S
C327 C328 1.363 . S
C327 H330 0.929 . S
C328 C327 1.363 . S
C328 C334 1.428 . S
H329 C325 0.930 . S
H330 C327 0.929 . S
S331 N332 1.613 . S
S331 N333 1.610 . S
N332 S331 1.613 . S
N332 C335 1.350 . S
N333 S331 1.610 . S
N333 C334 1.351 . S
C334 C328 1.428 . S
C334 N333 1.351 . S
C334 C335 1.434 . S
C335 C326 1.429 . S
C335 N332 1.350 . S
C335 C334 1.434 . S
C336 C337 1.369 . S
C336 C338 1.419 . S
C336 H340 0.930 . S
C337 C336 1.369 . S
C337 C346 1.429 . S
C338 C336 1.419 . S
C338 C339 1.363 . S
C338 H341 0.929 . S
C339 C338 1.363 . S
C339 C345 1.428 . S
H340 C336 0.930 . S
H341 C338 0.929 . S
S342 N343 1.613 . S
S342 N344 1.610 . S
N343 S342 1.613 . S
N343 C346 1.350 . S
N344 S342 1.610 . S
N344 C345 1.351 . S
C345 C339 1.428 . S
C345 N344 1.351 . S
C345 C346 1.434 . S
C346 C337 1.429 . S
C346 N343 1.350 . S
C346 C345 1.434 . S
C347 C348 1.369 . S
C347 C349 1.419 . S
C347 H351 0.930 . S
C348 C347 1.369 . S
C348 C357 1.429 . S
C349 C347 1.419 . S
C349 C350 1.363 . S
C349 H352 0.929 . S
C350 C349 1.363 . S
C350 C356 1.428 . S
H351 C347 0.930 . S
H352 C349 0.929 . S
S353 N354 1.613 . S
S353 N355 1.610 . S
N354 S353 1.613 . S
N354 C357 1.350 . S
N355 S353 1.610 . S
N355 C356 1.351 . S
C356 C350 1.428 . S
C356 N355 1.351 . S
C356 C357 1.434 . S
C357 C348 1.429 . S
C357 N354 1.350 . S
C357 C356 1.434 . S
C358 C359 1.369 . S
C358 C360 1.419 . S
C358 H362 0.930 . S
C359 C358 1.369 . S
C359 C368 1.429 . S
C360 C358 1.419 . S
C360 C361 1.363 . S
C360 H363 0.929 . S
C361 C360 1.363 . S
C361 C367 1.428 . S
H362 C358 0.930 . S
H363 C360 0.929 . S
S364 N365 1.613 . S
S364 N366 1.610 . S
N365 S364 1.613 . S
N365 C368 1.350 . S
N366 S364 1.610 . S
N366 C367 1.351 . S
C367 C361 1.428 . S
C367 N366 1.351 . S
C367 C368 1.434 . S
C368 C359 1.429 . S
C368 N365 1.350 . S
C368 C367 1.434 . S
C369 C370 1.369 . S
C369 C371 1.419 . S
C369 H373 0.930 . S
C370 C369 1.369 . S
C370 C379 1.429 . S
C371 C369 1.419 . S
C371 C372 1.363 . S
C371 H374 0.929 . S
C372 C371 1.363 . S
C372 C378 1.428 . S
H373 C369 0.930 . S
H374 C371 0.929 . S
S375 N376 1.613 . S
S375 N377 1.610 . S
N376 S375 1.613 . S
N376 C379 1.350 . S
N377 S375 1.610 . S
N377 C378 1.351 . S
C378 C372 1.428 . S
C378 N377 1.351 . S
C378 C379 1.434 . S
C379 C370 1.429 . S
C379 N376 1.350 . S
C379 C378 1.434 . S
C380 C381 1.369 . S
C380 C382 1.419 . S
C380 H384 0.930 . S
C381 C380 1.369 . S
C381 C390 1.429 . S
C382 C380 1.419 . S
C382 C383 1.363 . S
C382 H385 0.929 . S
C383 C382 1.363 . S
C383 C389 1.428 . S
H384 C380 0.930 . S
H385 C382 0.929 . S
S386 N387 1.613 . S
S386 N388 1.610 . S
N387 S386 1.613 . S
N387 C390 1.350 . S
N388 S386 1.610 . S
N388 C389 1.351 . S
C389 C383 1.428 . S
C389 N388 1.351 . S
C389 C390 1.434 . S
C390 C381 1.429 . S
C390 N387 1.350 . S
C390 C389 1.434 . S
C391 C392 1.369 . S
C391 C393 1.419 . S
C391 H395 0.930 . S
C392 C391 1.369 . S
C392 C401 1.429 . S
C393 C391 1.419 . S
C393 C394 1.363 . S
C393 H396 0.929 . S
C394 C393 1.363 . S
C394 C400 1.428 . S
H395 C391 0.930 . S
H396 C393 0.929 . S
S397 N398 1.613 . S
S397 N399 1.610 . S
N398 S397 1.613 . S
N398 C401 1.350 . S
N399 S397 1.610 . S
N399 C400 1.351 . S
C400 C394 1.428 . S
C400 N399 1.351 . S
C400 C401 1.434 . S
C401 C392 1.429 . S
C401 N398 1.350 . S
C401 C400 1.434 . S
C402 C403 1.369 . S
C402 C404 1.419 . S
C402 H406 0.930 . S
C403 C402 1.369 . S
C403 C412 1.429 . S
C404 C402 1.419 . S
C404 C405 1.363 . S
C404 H407 0.929 . S
C405 C404 1.363 . S
C405 C411 1.428 . S
H406 C402 0.930 . S
H407 C404 0.929 . S
S408 N409 1.613 . S
S408 N410 1.610 . S
N409 S408 1.613 . S
N409 C412 1.350 . S
N410 S408 1.610 . S
N410 C411 1.351 . S
C411 C405 1.428 . S
C411 N410 1.351 . S
C411 C412 1.434 . S
C412 C403 1.429 . S
C412 N409 1.350 . S
C412 C411 1.434 . S
C413 C414 1.369 . S
C413 C415 1.419 . S
C413 H417 0.930 . S
C414 C413 1.369 . S
C414 C423 1.429 . S
C415 C413 1.419 . S
C415 C416 1.363 . S
C415 H418 0.929 . S
C416 C415 1.363 . S
C416 C422 1.428 . S
H417 C413 0.930 . S
H418 C415 0.929 . S
S419 N420 1.613 . S
S419 N421 1.610 . S
N420 S419 1.613 . S
N420 C423 1.350 . S
N421 S419 1.610 . S
N421 C422 1.351 . S
C422 C416 1.428 . S
C422 N421 1.351 . S
C422 C423 1.434 . S
C423 C414 1.429 . S
C423 N420 1.350 . S
C423 C422 1.434 . S
C424 C425 1.369 . S
C424 C426 1.419 . S
C424 H428 0.930 . S
C425 C424 1.369 . S
C425 C434 1.429 . S
C426 C424 1.419 . S
C426 C427 1.363 . S
C426 H429 0.929 . S
C427 C426 1.363 . S
C427 C433 1.428 . S
H428 C424 0.930 . S
H429 C426 0.929 . S
S430 N431 1.613 . S
S430 N432 1.610 . S
N431 S430 1.613 . S
N431 C434 1.350 . S
N432 S430 1.610 . S
N432 C433 1.351 . S
C433 C427 1.428 . S
C433 N432 1.351 . S
C433 C434 1.434 . S
C434 C425 1.429 . S
C434 N431 1.350 . S
C434 C433 1.434 . S
C435 C436 1.369 . S
C435 C437 1.419 . S
C435 H439 0.930 . S
C436 C435 1.369 . S
C436 C445 1.429 . S
C437 C435 1.419 . S
C437 C438 1.363 . S
C437 H440 0.929 . S
C438 C437 1.363 . S
C438 C444 1.428 . S
H439 C435 0.930 . S
H440 C437 0.929 . S
S441 N442 1.613 . S
S441 N443 1.610 . S
N442 S441 1.613 . S
N442 C445 1.350 . S
N443 S441 1.610 . S
N443 C444 1.351 . S
C444 C438 1.428 . S
C444 N443 1.351 . S
C444 C445 1.434 . S
C445 C436 1.429 . S
C445 N442 1.350 . S
C445 C444 1.434 . S
C446 C447 1.369 . S
C446 C448 1.419 . S
C446 H450 0.930 . S
C447 C446 1.369 . S
C447 C456 1.429 . S
C448 C446 1.419 . S
C448 C449 1.363 . S
C448 H451 0.929 . S
C449 C448 1.363 . S
C449 C455 1.428 . S
H450 C446 0.930 . S
H451 C448 0.929 . S
S452 N453 1.613 . S
S452 N454 1.610 . S
N453 S452 1.613 . S
N453 C456 1.350 . S
N454 S452 1.610 . S
N454 C455 1.351 . S
C455 C449 1.428 . S
C455 N454 1.351 . S
C455 C456 1.434 . S
C456 C447 1.429 . S
C456 N453 1.350 . S
C456 C455 1.434 . S
C457 C458 1.369 . S
C457 C459 1.419 . S
C457 H461 0.930 . S
C458 C457 1.369 . S
C458 C467 1.429 . S
C459 C457 1.419 . S
C459 C460 1.363 . S
C459 H462 0.929 . S
C460 C459 1.363 . S
C460 C466 1.428 . S
H461 C457 0.930 . S
H462 C459 0.929 . S
S463 N464 1.613 . S
S463 N465 1.610 . S
N464 S463 1.613 . S
N464 C467 1.350 . S
N465 S463 1.610 . S
N465 C466 1.351 . S
C466 C460 1.428 . S
C466 N465 1.351 . S
C466 C467 1.434 . S
C467 C458 1.429 . S
C467 N464 1.350 . S
C467 C466 1.434 . S
C205 C12 1.489 . S
C207 C127 1.564 . S
C216 C30 1.469 . S
C218 C140 1.539 . S
C229 C162 1.521 . S
C227 C51 1.490 . S
C240 C175 1.499 . S
C238 C72 1.464 . S
C251 C188 1.526 . S
C249 C96 1.487 . S
C262 C201 1.507 . S
C260 C117 1.469 . S
C271 C38 1.491 . S
C273 C157 1.523 . S
C282 C59 1.470 . S
C284 C170 1.502 . S
C295 C183 1.513 . S
C293 C80 1.479 . S
C306 C196 1.483 . S
C304 C103 1.468 . S
C315 C124 1.486 . S
C317 C129 1.546 . S
C328 C142 1.534 . S
C326 C19 1.474 . S
C339 C168 1.518 . S
C337 C17 1.488 . S
C348 C40 1.480 . S
C350 C181 1.484 . S
C361 C194 1.496 . S
C359 C61 1.490 . S
C370 C82 1.469 . S
C372 C131 1.525 . S
C381 C101 1.479 . S
C383 C144 1.560 . S
C392 C122 1.463 . S
C394 C155 1.499 . S
C403 C33 1.462 . S
C405 C192 1.528 . S
C416 C136 1.548 . S
C414 C54 1.450 . S
C425 C75 1.464 . S
C427 C149 1.570 . S
C436 C93 1.492 . S
C438 C153 1.503 . S
C447 C114 1.510 . S
C449 C166 1.524 . S
C458 C9 1.497 . S
C460 C179 1.509 . S
