# Generated by pormake.
# Topology ctn, (3,4)-cn, num edge types: 1
# Building blocks:
#     Node 0, Type 0, BuildingBlock: MIDCAF_clean_linker_0, # of connection points: 3
#     Node 1, Type 0, BuildingBlock: MIDCAF_clean_linker_0, # of connection points: 3
#     Node 2, Type 0, BuildingBlock: MIDCAF_clean_linker_0, # of connection points: 3
#     Node 3, Type 0, BuildingBlock: MIDCAF_clean_linker_0, # of connection points: 3
#     Node 4, Type 0, BuildingBlock: MIDCAF_clean_linker_0, # of connection points: 3
#     Node 5, Type 0, BuildingBlock: MIDCAF_clean_linker_0, # of connection points: 3
#     Node 6, Type 0, BuildingBlock: MIDCAF_clean_linker_0, # of connection points: 3
#     Node 7, Type 0, BuildingBlock: MIDCAF_clean_linker_0, # of connection points: 3
#     Node 8, Type 0, BuildingBlock: MIDCAF_clean_linker_0, # of connection points: 3
#     Node 9, Type 0, BuildingBlock: MIDCAF_clean_linker_0, # of connection points: 3
#     Node 10, Type 0, BuildingBlock: MIDCAF_clean_linker_0, # of connection points: 3
#     Node 11, Type 0, BuildingBlock: MIDCAF_clean_linker_0, # of connection points: 3
#     Node 12, Type 0, BuildingBlock: MIDCAF_clean_linker_0, # of connection points: 3
#     Node 13, Type 0, BuildingBlock: MIDCAF_clean_linker_0, # of connection points: 3
#     Node 14, Type 0, BuildingBlock: MIDCAF_clean_linker_0, # of connection points: 3
#     Node 15, Type 0, BuildingBlock: MIDCAF_clean_linker_0, # of connection points: 3
#     Node 16, Type 1, BuildingBlock: UXUYUI_clean_sbu_0, # of connection points: 4
#     Node 17, Type 1, BuildingBlock: UXUYUI_clean_sbu_0, # of connection points: 4
#     Node 18, Type 1, BuildingBlock: UXUYUI_clean_sbu_0, # of connection points: 4
#     Node 19, Type 1, BuildingBlock: UXUYUI_clean_sbu_0, # of connection points: 4
#     Node 20, Type 1, BuildingBlock: UXUYUI_clean_sbu_0, # of connection points: 4
#     Node 21, Type 1, BuildingBlock: UXUYUI_clean_sbu_0, # of connection points: 4
#     Node 22, Type 1, BuildingBlock: UXUYUI_clean_sbu_0, # of connection points: 4
#     Node 23, Type 1, BuildingBlock: UXUYUI_clean_sbu_0, # of connection points: 4
#     Node 24, Type 1, BuildingBlock: UXUYUI_clean_sbu_0, # of connection points: 4
#     Node 25, Type 1, BuildingBlock: UXUYUI_clean_sbu_0, # of connection points: 4
#     Node 26, Type 1, BuildingBlock: UXUYUI_clean_sbu_0, # of connection points: 4
#     Node 27, Type 1, BuildingBlock: UXUYUI_clean_sbu_0, # of connection points: 4
#     Edge 28, Type (0, 1), BuildingBlock: KIFKEQ_clean_linker_1, # of connection points: 2
#     Edge 29, Type (0, 1), BuildingBlock: KIFKEQ_clean_linker_1, # of connection points: 2
#     Edge 30, Type (0, 1), BuildingBlock: KIFKEQ_clean_linker_1, # of connection points: 2
#     Edge 31, Type (0, 1), BuildingBlock: KIFKEQ_clean_linker_1, # of connection points: 2
#     Edge 32, Type (0, 1), BuildingBlock: KIFKEQ_clean_linker_1, # of connection points: 2
#     Edge 33, Type (0, 1), BuildingBlock: KIFKEQ_clean_linker_1, # of connection points: 2
#     Edge 34, Type (0, 1), BuildingBlock: KIFKEQ_clean_linker_1, # of connection points: 2
#     Edge 35, Type (0, 1), BuildingBlock: KIFKEQ_clean_linker_1, # of connection points: 2
#     Edge 36, Type (0, 1), BuildingBlock: KIFKEQ_clean_linker_1, # of connection points: 2
#     Edge 37, Type (0, 1), BuildingBlock: KIFKEQ_clean_linker_1, # of connection points: 2
#     Edge 38, Type (0, 1), BuildingBlock: KIFKEQ_clean_linker_1, # of connection points: 2
#     Edge 39, Type (0, 1), BuildingBlock: KIFKEQ_clean_linker_1, # of connection points: 2
#     Edge 40, Type (0, 1), BuildingBlock: KIFKEQ_clean_linker_1, # of connection points: 2
#     Edge 41, Type (0, 1), BuildingBlock: KIFKEQ_clean_linker_1, # of connection points: 2
#     Edge 42, Type (0, 1), BuildingBlock: KIFKEQ_clean_linker_1, # of connection points: 2
#     Edge 43, Type (0, 1), BuildingBlock: KIFKEQ_clean_linker_1, # of connection points: 2
#     Edge 44, Type (0, 1), BuildingBlock: KIFKEQ_clean_linker_1, # of connection points: 2
#     Edge 45, Type (0, 1), BuildingBlock: KIFKEQ_clean_linker_1, # of connection points: 2
#     Edge 46, Type (0, 1), BuildingBlock: KIFKEQ_clean_linker_1, # of connection points: 2
#     Edge 47, Type (0, 1), BuildingBlock: KIFKEQ_clean_linker_1, # of connection points: 2
#     Edge 48, Type (0, 1), BuildingBlock: KIFKEQ_clean_linker_1, # of connection points: 2
#     Edge 49, Type (0, 1), BuildingBlock: KIFKEQ_clean_linker_1, # of connection points: 2
#     Edge 50, Type (0, 1), BuildingBlock: KIFKEQ_clean_linker_1, # of connection points: 2
#     Edge 51, Type (0, 1), BuildingBlock: KIFKEQ_clean_linker_1, # of connection points: 2
#     Edge 52, Type (0, 1), BuildingBlock: KIFKEQ_clean_linker_1, # of connection points: 2
#     Edge 53, Type (0, 1), BuildingBlock: KIFKEQ_clean_linker_1, # of connection points: 2
#     Edge 54, Type (0, 1), BuildingBlock: KIFKEQ_clean_linker_1, # of connection points: 2
#     Edge 55, Type (0, 1), BuildingBlock: KIFKEQ_clean_linker_1, # of connection points: 2
#     Edge 56, Type (0, 1), BuildingBlock: KIFKEQ_clean_linker_1, # of connection points: 2
#     Edge 57, Type (0, 1), BuildingBlock: KIFKEQ_clean_linker_1, # of connection points: 2
#     Edge 58, Type (0, 1), BuildingBlock: KIFKEQ_clean_linker_1, # of connection points: 2
#     Edge 59, Type (0, 1), BuildingBlock: KIFKEQ_clean_linker_1, # of connection points: 2
#     Edge 60, Type (0, 1), BuildingBlock: KIFKEQ_clean_linker_1, # of connection points: 2
#     Edge 61, Type (0, 1), BuildingBlock: KIFKEQ_clean_linker_1, # of connection points: 2
#     Edge 62, Type (0, 1), BuildingBlock: KIFKEQ_clean_linker_1, # of connection points: 2
#     Edge 63, Type (0, 1), BuildingBlock: KIFKEQ_clean_linker_1, # of connection points: 2
#     Edge 64, Type (0, 1), BuildingBlock: KIFKEQ_clean_linker_1, # of connection points: 2
#     Edge 65, Type (0, 1), BuildingBlock: KIFKEQ_clean_linker_1, # of connection points: 2
#     Edge 66, Type (0, 1), BuildingBlock: KIFKEQ_clean_linker_1, # of connection points: 2
#     Edge 67, Type (0, 1), BuildingBlock: KIFKEQ_clean_linker_1, # of connection points: 2
#     Edge 68, Type (0, 1), BuildingBlock: KIFKEQ_clean_linker_1, # of connection points: 2
#     Edge 69, Type (0, 1), BuildingBlock: KIFKEQ_clean_linker_1, # of connection points: 2
#     Edge 70, Type (0, 1), BuildingBlock: KIFKEQ_clean_linker_1, # of connection points: 2
#     Edge 71, Type (0, 1), BuildingBlock: KIFKEQ_clean_linker_1, # of connection points: 2
#     Edge 72, Type (0, 1), BuildingBlock: KIFKEQ_clean_linker_1, # of connection points: 2
#     Edge 73, Type (0, 1), BuildingBlock: KIFKEQ_clean_linker_1, # of connection points: 2
#     Edge 74, Type (0, 1), BuildingBlock: KIFKEQ_clean_linker_1, # of connection points: 2
#     Edge 75, Type (0, 1), BuildingBlock: KIFKEQ_clean_linker_1, # of connection points: 2
# Relax obj value: 0.000
# Max RMSD: 0.004
# Mean RMSD: 0.003
data_MOF--net-ctn--node1-UXUYUI_clean_sbu_0--node2-MIDCAF_clean_linker_0--edge1-KIFKEQ_clean_linker_1
_symmetry_space_group_name_H-M    P1
_symmetry_Int_Tables_number       1
_symmetry_cell_setting            triclinic
loop_
_symmetry_equiv_pos_as_xyz
'x, y, z'
_cell_length_a     81.518814
_cell_length_b     81.5183
_cell_length_c     81.482959
_cell_angle_alpha  90.032327
_cell_angle_beta   90.037301
_cell_angle_gamma 90.078586
loop_
_atom_site_label
_atom_site_type_symbol
_atom_site_fract_x
_atom_site_fract_y
_atom_site_fract_z
_atom_type_partial_charge
C0 C 0.99583 0.04429 0.08468 0.0
C1 C 0.99957 0.03261 0.09679 0.0
C2 C 0.01414 0.02352 0.09535 0.0
C3 C 0.02471 0.02602 0.08207 0.0
H4 H 0.06002 0.00191 0.05321 0.0
H5 H 0.08302 0.98334 0.0486 0.0
H6 H 0.10571 0.01914 0.01686 0.0
H7 H 0.08272 0.03776 0.02136 0.0
H8 H 0.05472 0.06191 0.00302 0.0
H9 H 0.0503 0.08511 0.98467 0.0
H10 H 0.01575 0.10578 0.01904 0.0
H11 H 0.02013 0.08263 0.03747 0.0
H12 H 0.0032 0.05605 0.06241 0.0
H13 H 0.98478 0.0516 0.08553 0.0
H14 H 0.01727 0.01432 0.1044 0.0
H15 H 0.03581 0.01877 0.08136 0.0
N16 N 0.0451 0.03019 0.05323 0.0
N17 N 0.05312 0.04573 0.03038 0.0
N18 N 0.03009 0.05353 0.04574 0.0
C19 C 0.05555 0.03269 0.04048 0.0
C20 C 0.0404 0.0562 0.03291 0.0
C21 C 0.03234 0.04056 0.05596 0.0
C22 C 0.0695 0.02135 0.03766 0.0
C23 C 0.0699 0.00586 0.04525 0.0
C24 C 0.08302 0.99517 0.04255 0.0
C25 C 0.09615 0.9998 0.03238 0.0
C26 C 0.09581 0.0153 0.02486 0.0
C27 C 0.08259 0.02592 0.02737 0.0
C28 C 0.03778 0.07036 0.02175 0.0
C29 C 0.0462 0.0714 0.00672 0.0
C30 C 0.0436 0.08464 0.99614 0.0
C31 C 0.03267 0.09725 1.00041 0.0
C32 C 0.02435 0.09631 0.01548 0.0
C33 C 0.0268 0.08298 0.02599 0.0
C34 C 0.02104 0.03778 0.06998 0.0
C35 C 0.00647 0.0469 0.07147 0.0
C36 C 0.25634 0.66573 0.23689 0.0
C37 C 0.24702 0.65937 0.22385 0.0
C38 C 0.24847 0.66653 0.20825 0.0
C39 C 0.25897 0.67987 0.20575 0.0
H40 H 0.26106 0.72519 0.18027 0.0
H41 H 0.25674 0.7437 0.15728 0.0
H42 H 0.30504 0.76432 0.1648 0.0
H43 H 0.30914 0.74622 0.18816 0.0
H44 H 0.32367 0.74214 0.22526 0.0
H45 H 0.34654 0.74674 0.24389 0.0
H46 H 0.33709 0.69997 0.26699 0.0
H47 H 0.31389 0.69558 0.24872 0.0
H48 H 0.27414 0.68346 0.24463 0.0
H49 H 0.2555 0.66036 0.24902 0.0
H50 H 0.24134 0.66191 0.19801 0.0
H51 H 0.25979 0.68513 0.19357 0.0
N52 N 0.27762 0.71027 0.20296 0.0
N53 N 0.3006 0.72568 0.21093 0.0
N54 N 0.29243 0.70292 0.22653 0.0
C55 C 0.28796 0.7231 0.20034 0.0
C56 C 0.30294 0.71565 0.22405 0.0
C57 C 0.27976 0.70014 0.21603 0.0
C58 C 0.28544 0.7342 0.18613 0.0
C59 C 0.27078 0.73366 0.17704 0.0
C60 C 0.26833 0.74423 0.16375 0.0
C61 C 0.28054 0.75554 0.15912 0.0
C62 C 0.29524 0.75599 0.16816 0.0
C63 C 0.29764 0.74552 0.18153 0.0
C64 C 0.31688 0.71849 0.23545 0.0
C65 C 0.32643 0.73283 0.23432 0.0
C66 C 0.33964 0.73543 0.24496 0.0
C67 C 0.34373 0.72372 0.25695 0.0
C68 C 0.33417 0.70938 0.25809 0.0
C69 C 0.32089 0.70682 0.24752 0.0
C70 C 0.26845 0.68615 0.21874 0.0
C71 C 0.26706 0.67889 0.23434 0.0
C72 C 0.98121 0.40852 0.01388 0.0
C73 C 0.97267 0.40735 0.99894 0.0
C74 C 0.96141 0.41971 0.9948 0.0
C75 C 0.95867 0.43291 0.0054 0.0
H76 H 0.92252 0.46673 0.01888 0.0
H77 H 0.89943 0.48515 0.01423 0.0
H78 H 0.92009 0.51982 0.04859 0.0
H79 H 0.94323 0.50146 0.05329 0.0
H80 H 0.96739 0.48398 0.08132 0.0
H81 H 0.98578 0.48849 0.10453 0.0
H82 H 0.02046 0.45435 0.08371 0.0
H83 H 0.00214 0.44979 0.06047 0.0
H84 H 0.98543 0.42233 0.03581 0.0
H85 H 0.99007 0.39926 0.01734 0.0
H86 H 0.95453 0.41905 0.98343 0.0
H87 H 0.94986 0.44218 1.00182 0.0
N88 N 0.95155 0.45851 0.02908 0.0
N89 N 0.95915 0.4739 0.0522 0.0
N90 N 0.9746 0.4509 0.04451 0.0
C91 C 0.94884 0.4714 0.03932 0.0
C92 C 0.97207 0.46371 0.05488 0.0
C93 C 0.9644 0.4482 0.03158 0.0
C94 C 0.93477 0.48259 0.03647 0.0
C95 C 0.92219 0.47828 0.02545 0.0
C96 C 0.90889 0.48878 0.02284 0.0
C97 C 0.90796 0.50392 0.03104 0.0
C98 C 0.92056 0.50829 0.04198 0.0
C99 C 0.93376 0.49771 0.04474 0.0
C100 C 0.98325 0.46652 0.06899 0.0
C101 C 0.97893 0.47744 0.08165 0.0
C102 C 0.98942 0.47996 0.095 0.0
C103 C 0.00455 0.47177 0.09593 0.0
C104 C 0.00893 0.46094 0.08325 0.0
C105 C 0.99837 0.45827 0.06999 0.0
C106 C 0.96726 0.43415 0.02034 0.0
C107 C 0.9786 0.42181 0.02442 0.0
C108 C 0.73408 0.76158 0.16239 0.0
C109 C 0.72478 0.74712 0.16084 0.0
C110 C 0.7127 0.74374 0.17268 0.0
C111 C 0.70988 0.75461 0.18566 0.0
H112 H 0.68409 0.76041 0.2299 0.0
H113 H 0.66133 0.75577 0.24862 0.0
H114 H 0.66064 0.80749 0.26045 0.0
H115 H 0.68392 0.81193 0.24234 0.0
H116 H 0.71888 0.83075 0.23673 0.0
H117 H 0.73691 0.85428 0.24066 0.0
H118 H 0.76812 0.83696 0.20152 0.0
H119 H 0.75028 0.8133 0.19769 0.0
H120 H 0.73862 0.78351 0.17605 0.0
H121 H 0.74333 0.76469 0.15338 0.0
H122 H 0.70547 0.7326 0.17202 0.0
H123 H 0.70045 0.75159 0.19451 0.0
N124 N 0.70313 0.7784 0.21118 0.0
N125 N 0.70949 0.80283 0.22503 0.0
N126 N 0.72542 0.79444 0.2026 0.0
C127 C 0.69984 0.78932 0.22335 0.0
C128 C 0.72237 0.80545 0.21476 0.0
C129 C 0.71585 0.7809 0.20069 0.0
C130 C 0.68586 0.78654 0.23463 0.0
C131 C 0.67909 0.77079 0.23652 0.0
C132 C 0.66593 0.76815 0.2472 0.0
C133 C 0.65902 0.78124 0.25609 0.0
C134 C 0.66578 0.79702 0.2541 0.0
C135 C 0.6791 0.79961 0.24361 0.0
C136 C 0.7331 0.82004 0.21691 0.0
C137 C 0.72957 0.83193 0.22893 0.0
C138 C 0.73986 0.84549 0.23113 0.0
C139 C 0.75397 0.84749 0.22143 0.0
C140 C 0.75746 0.83568 0.20935 0.0
C141 C 0.74715 0.82215 0.2071 0.0
C142 C 0.7191 0.76914 0.18714 0.0
C143 C 0.7313 0.77243 0.17538 0.0
C144 C 0.04381 0.9198 0.50803 0.0
C145 C 0.03296 0.90705 0.50376 0.0
C146 C 0.02474 0.90792 0.4886 0.0
C147 C 0.0272 0.92123 0.47805 0.0
H148 H 0.00506 0.94611 0.43987 0.0
H149 H 0.98672 0.95046 0.41669 0.0
H150 H 0.01602 0.99182 0.40122 0.0
H151 H 0.03453 0.9874 0.42425 0.0
H152 H 0.06044 0.00231 0.45052 0.0
H153 H 0.08346 0.02093 0.4551 0.0
H154 H 0.10565 0.98563 0.48772 0.0
H155 H 0.08266 0.96697 0.48322 0.0
H156 H 0.05477 0.94265 0.50119 0.0
H157 H 0.05015 0.91973 0.51971 0.0
H158 H 0.01651 0.89822 0.48474 0.0
H159 H 0.02067 0.92144 0.46647 0.0
N160 N 0.03041 0.95067 0.45826 0.0
N161 N 0.04532 0.97415 0.45086 0.0
N162 N 0.05334 0.95866 0.47373 0.0
C163 C 0.03262 0.96368 0.44805 0.0
C164 C 0.05575 0.97171 0.46364 0.0
C165 C 0.04069 0.94809 0.47115 0.0
C166 C 0.02134 0.96639 0.43399 0.0
C167 C 0.00764 0.95614 0.43155 0.0
C168 C 0.99704 0.95868 0.4183 0.0
C169 C 0.9999 0.97148 0.4071 0.0
C170 C 0.01358 0.98172 0.40951 0.0
C171 C 0.02415 0.97923 0.4228 0.0
C172 C 0.06968 0.98311 0.46649 0.0
C173 C 0.07021 0.99849 0.45867 0.0
C174 C 0.08335 0.00921 0.46136 0.0
C175 C 0.09635 0.00473 0.47175 0.0
C176 C 0.09586 0.98936 0.47953 0.0
C177 C 0.08263 0.97871 0.47702 0.0
C178 C 0.03808 0.93394 0.48232 0.0
C179 C 0.04639 0.93303 0.49742 0.0
C180 C 0.23652 0.74568 0.83939 0.0
C181 C 0.22364 0.75556 0.84527 0.0
C182 C 0.20827 0.75455 0.83744 0.0
C183 C 0.20589 0.74409 0.82405 0.0
H184 H 0.18041 0.74195 0.77933 0.0
H185 H 0.15741 0.74647 0.76087 0.0
H186 H 0.1663 0.69942 0.73811 0.0
H187 H 0.18964 0.69512 0.75621 0.0
H188 H 0.22966 0.68338 0.75965 0.0
H189 H 0.24848 0.66074 0.75493 0.0
H190 H 0.26325 0.66251 0.8059 0.0
H191 H 0.24503 0.68566 0.81035 0.0
H192 H 0.24428 0.72769 0.82191 0.0
H193 H 0.24861 0.74631 0.84485 0.0
H194 H 0.19796 0.76169 0.84178 0.0
H195 H 0.19388 0.74363 0.81837 0.0
N196 N 0.20339 0.72547 0.79366 0.0
N197 N 0.21161 0.70285 0.77791 0.0
N198 N 0.22667 0.71042 0.80127 0.0
C199 C 0.201 0.71544 0.78054 0.0
C200 C 0.22446 0.70024 0.78823 0.0
C201 C 0.2162 0.72307 0.80406 0.0
C202 C 0.18693 0.71816 0.76929 0.0
C203 C 0.17749 0.73255 0.77039 0.0
C204 C 0.16421 0.73511 0.75984 0.0
C205 C 0.15992 0.7233 0.74799 0.0
C206 C 0.16937 0.70891 0.7469 0.0
C207 C 0.18273 0.7064 0.75737 0.0
C208 C 0.23585 0.68637 0.78537 0.0
C209 C 0.23695 0.67895 0.76984 0.0
C210 C 0.2477 0.66586 0.76717 0.0
C211 C 0.25744 0.65967 0.78002 0.0
C212 C 0.25623 0.66708 0.79559 0.0
C213 C 0.24568 0.68034 0.79819 0.0
C214 C 0.21874 0.73418 0.81826 0.0
C215 C 0.23407 0.73504 0.82614 0.0
C216 C 0.97899 0.59469 0.49105 0.0
C217 C 0.97257 0.59446 0.50709 0.0
C218 C 0.96344 0.58066 0.51209 0.0
C219 C 0.96067 0.56758 0.50132 0.0
H220 H 0.92225 0.53546 0.48631 0.0
H221 H 0.89896 0.51713 0.49053 0.0
H222 H 0.91917 0.48312 0.45534 0.0
H223 H 0.9425 0.50138 0.45106 0.0
H224 H 0.96556 0.52207 0.42195 0.0
H225 H 0.98381 0.51804 0.3987 0.0
H226 H 0.02192 0.54497 0.42406 0.0
H227 H 0.00335 0.54968 0.44691 0.0
H228 H 0.98152 0.58215 0.46811 0.0
H229 H 0.98578 0.60519 0.48658 0.0
H230 H 0.95857 0.57981 0.52441 0.0
H231 H 0.9536 0.55717 0.50559 0.0
N232 N 0.95134 0.54369 0.47626 0.0
N233 N 0.95875 0.52875 0.4528 0.0
N234 N 0.97444 0.55149 0.46096 0.0
C235 C 0.94848 0.53105 0.46574 0.0
C236 C 0.97177 0.53889 0.45035 0.0
C237 C 0.96427 0.55397 0.47394 0.0
C238 C 0.93429 0.51992 0.46833 0.0
C239 C 0.92178 0.52407 0.47947 0.0
C240 C 0.90837 0.51362 0.48183 0.0
C241 C 0.90725 0.4987 0.47327 0.0
C242 C 0.91977 0.49448 0.46221 0.0
C243 C 0.9331 0.50501 0.4597 0.0
C244 C 0.98298 0.53623 0.43628 0.0
C245 C 0.97784 0.52714 0.42255 0.0
C246 C 0.98838 0.52474 0.40923 0.0
C247 C 0.00444 0.53113 0.40941 0.0
C248 C 0.00958 0.54012 0.42325 0.0
C249 C 0.99894 0.54275 0.43645 0.0
C250 C 0.96719 0.56783 0.48536 0.0
C251 C 0.97645 0.58149 0.48038 0.0
C252 C 0.83802 0.76717 0.75749 0.0
C253 C 0.84416 0.78008 0.74778 0.0
C254 C 0.83664 0.79557 0.749 0.0
C255 C 0.82333 0.79805 0.75953 0.0
H256 H 0.77475 0.8202 0.76027 0.0
H257 H 0.75606 0.84299 0.75579 0.0
H258 H 0.74249 0.84182 0.80709 0.0
H259 H 0.76056 0.81848 0.8113 0.0
H260 H 0.76111 0.77762 0.82378 0.0
H261 H 0.75681 0.75921 0.84685 0.0
H262 H 0.80553 0.73946 0.84014 0.0
H263 H 0.8096 0.75744 0.81668 0.0
H264 H 0.82048 0.7595 0.77548 0.0
H265 H 0.84322 0.75498 0.7567 0.0
H266 H 0.84117 0.80592 0.74202 0.0
H267 H 0.81792 0.81017 0.76019 0.0
N268 N 0.79307 0.80077 0.77834 0.0
N269 N 0.77807 0.79315 0.80169 0.0
N270 N 0.80093 0.77768 0.7936 0.0
C271 C 0.78036 0.80346 0.78879 0.0
C272 C 0.78828 0.78021 0.80418 0.0
C273 C 0.80342 0.78792 0.78068 0.0
C274 C 0.76914 0.8175 0.78614 0.0
C275 C 0.76776 0.82481 0.77059 0.0
C276 C 0.75709 0.83798 0.76805 0.0
C277 C 0.74771 0.84438 0.78107 0.0
C278 C 0.74922 0.83709 0.79666 0.0
C279 C 0.75968 0.82374 0.79913 0.0
C280 C 0.7857 0.76903 0.81832 0.0
C281 C 0.77092 0.76935 0.8272 0.0
C282 C 0.76848 0.75883 0.84053 0.0
C283 C 0.78083 0.74782 0.84545 0.0
C284 C 0.79563 0.74755 0.83657 0.0
C285 C 0.798 0.75796 0.82314 0.0
C286 C 0.81735 0.78519 0.76932 0.0
C287 C 0.82488 0.76973 0.76821 0.0
C288 C 0.33866 0.26817 0.25692 0.0
C289 C 0.34497 0.28125 0.24765 0.0
C290 C 0.33773 0.29681 0.24912 0.0
C291 C 0.32435 0.29922 0.25958 0.0
H292 H 0.28003 0.32553 0.26225 0.0
H293 H 0.26169 0.34876 0.25817 0.0
H294 H 0.23817 0.3384 0.30448 0.0
H295 H 0.25654 0.31522 0.3087 0.0
H296 H 0.2613 0.27836 0.32298 0.0
H297 H 0.25666 0.25966 0.34577 0.0
H298 H 0.30452 0.2383 0.33796 0.0
H299 H 0.30894 0.25661 0.31483 0.0
H300 H 0.32093 0.26031 0.27463 0.0
H301 H 0.34409 0.25608 0.25608 0.0
H302 H 0.34231 0.30708 0.24203 0.0
H303 H 0.31902 0.31135 0.2604 0.0
N304 N 0.29387 0.30179 0.27808 0.0
N305 N 0.27829 0.29356 0.30082 0.0
N306 N 0.30121 0.27817 0.29279 0.0
C307 C 0.28093 0.30426 0.2883 0.0
C308 C 0.28838 0.2805 0.30317 0.0
C309 C 0.30405 0.28877 0.28022 0.0
C310 C 0.2698 0.31845 0.28581 0.0
C311 C 0.27098 0.32818 0.2716 0.0
C312 C 0.2604 0.34146 0.2692 0.0
C313 C 0.24848 0.34541 0.281 0.0
C314 C 0.24734 0.33576 0.29524 0.0
C315 C 0.25782 0.32241 0.29759 0.0
C316 C 0.2855 0.26902 0.31703 0.0
C317 C 0.27084 0.26966 0.32609 0.0
C318 C 0.26821 0.25898 0.33925 0.0
C319 C 0.28022 0.24746 0.34379 0.0
C320 C 0.29488 0.24681 0.33469 0.0
C321 C 0.29745 0.25741 0.32145 0.0
C322 C 0.31811 0.28617 0.269 0.0
C323 C 0.32546 0.27063 0.2676 0.0
C324 C 0.48056 0.90916 0.51433 0.0
C325 C 0.47205 0.90815 0.49936 0.0
C326 C 0.46099 0.92069 0.49521 0.0
C327 C 0.45843 0.93391 0.50584 0.0
H328 H 0.42043 0.96604 0.52354 0.0
H329 H 0.39728 0.9846 0.51927 0.0
H330 H 0.42276 0.0226 0.54598 0.0
H331 H 0.44584 0.00404 0.55051 0.0
H332 H 0.46688 0.98186 0.5833 0.0
H333 H 0.48539 0.98601 0.60634 0.0
H334 H 0.52315 0.95896 0.58072 0.0
H335 H 0.50428 0.95411 0.55809 0.0
H336 H 0.48497 0.92287 0.53628 0.0
H337 H 0.48927 0.89975 0.51778 0.0
H338 H 0.45415 0.92016 0.48382 0.0
H339 H 0.44979 0.94334 0.50226 0.0
N340 N 0.45147 0.95938 0.52978 0.0
N341 N 0.45966 0.97495 0.55259 0.0
N342 N 0.47494 0.95191 0.54466 0.0
C343 C 0.44903 0.97234 0.53999 0.0
C344 C 0.47263 0.96477 0.55501 0.0
C345 C 0.46441 0.94911 0.53201 0.0
C346 C 0.43498 0.98355 0.53738 0.0
C347 C 0.42111 0.97834 0.52851 0.0
C348 C 0.40782 0.98892 0.52612 0.0
C349 C 0.40827 0.00501 0.53228 0.0
C350 C 0.42216 0.01028 0.54103 0.0
C351 C 0.43532 0.99961 0.54369 0.0
C352 C 0.48408 0.96762 0.56887 0.0
C353 C 0.47914 0.9768 0.58259 0.0
C354 C 0.48984 0.97927 0.59579 0.0
C355 C 0.50587 0.97287 0.59548 0.0
C356 C 0.51083 0.96382 0.58162 0.0
C357 C 0.50003 0.96112 0.56855 0.0
C358 C 0.46702 0.935 0.52078 0.0
C359 C 0.47815 0.92248 0.52487 0.0
C360 C 0.23567 0.25778 0.665 0.0
C361 C 0.22265 0.24839 0.65868 0.0
C362 C 0.20707 0.2498 0.6659 0.0
C363 C 0.20459 0.26026 0.67928 0.0
H364 H 0.17403 0.26695 0.71918 0.0
H365 H 0.1506 0.26283 0.73718 0.0
H366 H 0.1691 0.30029 0.76987 0.0
H367 H 0.19236 0.30473 0.75169 0.0
H368 H 0.2256 0.32304 0.74316 0.0
H369 H 0.24448 0.34566 0.74808 0.0
H370 H 0.26624 0.33783 0.70036 0.0
H371 H 0.24775 0.31488 0.69566 0.0
H372 H 0.24344 0.27552 0.68276 0.0
H373 H 0.24778 0.257 0.65959 0.0
H374 H 0.19684 0.24262 0.66133 0.0
H375 H 0.19245 0.261 0.68461 0.0
N376 N 0.20184 0.27873 0.70977 0.0
N377 N 0.21036 0.30101 0.7259 0.0
N378 N 0.22574 0.2932 0.70288 0.0
C379 C 0.19946 0.28872 0.72293 0.0
C380 C 0.2235 0.30339 0.7159 0.0
C381 C 0.21498 0.28085 0.69974 0.0
C382 C 0.18514 0.28619 0.73393 0.0
C383 C 0.17314 0.27434 0.73019 0.0
C384 C 0.15972 0.2719 0.74058 0.0
C385 C 0.15795 0.2812 0.75501 0.0
C386 C 0.16993 0.29306 0.75875 0.0
C387 C 0.18335 0.29554 0.74834 0.0
C388 C 0.23512 0.31709 0.71901 0.0
C389 C 0.23443 0.3261 0.73372 0.0
C390 C 0.24522 0.33917 0.73651 0.0
C391 C 0.2569 0.34365 0.72461 0.0
C392 C 0.2576 0.33459 0.70992 0.0
C393 C 0.24691 0.32145 0.70719 0.0
C394 C 0.21759 0.26974 0.68556 0.0
C395 C 0.23314 0.26844 0.6782 0.0
C396 C 0.76061 0.16329 0.73504 0.0
C397 C 0.74973 0.15813 0.72269 0.0
C398 C 0.74971 0.16648 0.7076 0.0
C399 C 0.76029 0.17973 0.70494 0.0
H400 H 0.77032 0.21709 0.67223 0.0
H401 H 0.76589 0.23544 0.64902 0.0
H402 H 0.80124 0.26945 0.66908 0.0
H403 H 0.80569 0.25121 0.69235 0.0
H404 H 0.83187 0.23524 0.71834 0.0
H405 H 0.85499 0.23946 0.73674 0.0
H406 H 0.83389 0.20506 0.77114 0.0
H407 H 0.81103 0.20042 0.7525 0.0
H408 H 0.77957 0.18003 0.74213 0.0
H409 H 0.76101 0.157 0.74675 0.0
H410 H 0.74135 0.16288 0.6979 0.0
H411 H 0.75991 0.18588 0.69317 0.0
N412 N 0.78058 0.20878 0.70118 0.0
N413 N 0.80341 0.22439 0.70919 0.0
N414 N 0.79517 0.20181 0.72499 0.0
C415 C 0.79088 0.22163 0.69852 0.0
C416 C 0.80567 0.21451 0.72244 0.0
C417 C 0.78261 0.19882 0.71441 0.0
C418 C 0.78836 0.23265 0.68422 0.0
C419 C 0.77717 0.22847 0.67173 0.0
C420 C 0.77469 0.23894 0.65836 0.0
C421 C 0.7832 0.25389 0.65724 0.0
C422 C 0.79438 0.25808 0.66969 0.0
C423 C 0.79699 0.24756 0.68298 0.0
C424 C 0.81956 0.21745 0.73388 0.0
C425 C 0.83212 0.22858 0.72983 0.0
C426 C 0.84538 0.23108 0.74046 0.0
C427 C 0.84637 0.22261 0.75546 0.0
C428 C 0.83371 0.21159 0.75957 0.0
C429 C 0.82052 0.209 0.7489 0.0
C430 C 0.77127 0.18484 0.71726 0.0
C431 C 0.77131 0.17643 0.73234 0.0
C432 C 0.49459 0.54032 0.58202 0.0
C433 C 0.49991 0.53168 0.59594 0.0
C434 C 0.51601 0.52559 0.59636 0.0
C435 C 0.52655 0.52794 0.58303 0.0
H436 H 0.56177 0.5019 0.55474 0.0
H437 H 0.58489 0.48346 0.55031 0.0
H438 H 0.60437 0.5165 0.51379 0.0
H439 H 0.58132 0.53502 0.51818 0.0
H440 H 0.55058 0.55734 0.49967 0.0
H441 H 0.54571 0.57997 0.48084 0.0
H442 H 0.51873 0.60551 0.51871 0.0
H443 H 0.52291 0.58249 0.53719 0.0
H444 H 0.50076 0.54969 0.55827 0.0
H445 H 0.48225 0.54521 0.58144 0.0
H446 H 0.52037 0.51881 0.60693 0.0
H447 H 0.53887 0.52302 0.58368 0.0
N448 N 0.54538 0.52905 0.55252 0.0
N449 N 0.55277 0.54386 0.52897 0.0
N450 N 0.52984 0.55185 0.54439 0.0
C451 C 0.55559 0.53124 0.5395 0.0
C452 C 0.53995 0.55424 0.53135 0.0
C453 C 0.53246 0.53928 0.55502 0.0
C454 C 0.56965 0.51998 0.53683 0.0
C455 C 0.57097 0.50528 0.54577 0.0
C456 C 0.58417 0.49465 0.54317 0.0
C457 C 0.59644 0.49854 0.53171 0.0
C458 C 0.59518 0.51325 0.52282 0.0
C459 C 0.5819 0.52381 0.52529 0.0
C460 C 0.5371 0.56808 0.51992 0.0
C461 C 0.54359 0.56779 0.50395 0.0
C462 C 0.54087 0.58085 0.49317 0.0
C463 C 0.53184 0.59469 0.49818 0.0
C464 C 0.52546 0.59498 0.51424 0.0
C465 C 0.52794 0.58179 0.52491 0.0
C466 C 0.52129 0.5367 0.56913 0.0
C467 C 0.50522 0.54295 0.56881 0.0
C468 C 0.54435 0.42064 0.00831 0.0
C469 C 0.53335 0.40803 0.00415 0.0
C470 C 0.52497 0.40888 0.9891 0.0
C471 C 0.52746 0.42212 0.97847 0.0
H472 H 0.50276 0.45089 0.94331 0.0
H473 H 0.48403 0.45562 0.92057 0.0
H474 H 0.51956 0.48798 0.89809 0.0
H475 H 0.53801 0.48375 0.92116 0.0
H476 H 0.56164 0.5024 0.9499 0.0
H477 H 0.5847 0.52097 0.95446 0.0
H478 H 0.6066 0.48581 0.98743 0.0
H479 H 0.58357 0.46719 0.98294 0.0
H480 H 0.55559 0.44328 1.00121 0.0
H481 H 0.55109 0.42024 0.01976 0.0
H482 H 0.51631 0.3994 0.98563 0.0
H483 H 0.52075 0.42239 0.967 0.0
N484 N 0.53088 0.45138 0.95847 0.0
N485 N 0.54619 0.47445 0.9506 0.0
N486 N 0.55411 0.45912 0.97363 0.0
C487 C 0.53327 0.46419 0.94807 0.0
C488 C 0.55667 0.472 0.96335 0.0
C489 C 0.54124 0.44875 0.97128 0.0
C490 C 0.52191 0.46695 0.93411 0.0
C491 C 0.50659 0.45902 0.93352 0.0
C492 C 0.49586 0.46167 0.92039 0.0
C493 C 0.50023 0.47217 0.90741 0.0
C494 C 0.51561 0.48003 0.90798 0.0
C495 C 0.52626 0.47753 0.9212 0.0
C496 C 0.57072 0.48328 0.96605 0.0
C497 C 0.57137 0.49859 0.9581 0.0
C498 C 0.58453 0.50928 0.96078 0.0
C499 C 0.59744 0.50483 0.9713 0.0
C500 C 0.59688 0.4895 0.97915 0.0
C501 C 0.58362 0.47889 0.97664 0.0
C502 C 0.53854 0.43472 0.98258 0.0
C503 C 0.54699 0.43379 0.99761 0.0
C504 C 0.73319 0.24095 0.34371 0.0
C505 C 0.72369 0.25522 0.34553 0.0
C506 C 0.71165 0.25869 0.33367 0.0
C507 C 0.70908 0.2481 0.3204 0.0
H508 H 0.67993 0.24128 0.27976 0.0
H509 H 0.65686 0.24574 0.26126 0.0
H510 H 0.6652 0.19833 0.23916 0.0
H511 H 0.6882 0.19373 0.25771 0.0
H512 H 0.71905 0.17293 0.26831 0.0
H513 H 0.7374 0.14975 0.26398 0.0
H514 H 0.77025 0.16876 0.30099 0.0
H515 H 0.75203 0.19204 0.3053 0.0
H516 H 0.73816 0.21946 0.32953 0.0
H517 H 0.74242 0.23776 0.35273 0.0
H518 H 0.70428 0.2697 0.33453 0.0
H519 H 0.69969 0.25121 0.31153 0.0
N520 N 0.70288 0.22487 0.29422 0.0
N521 N 0.71008 0.20126 0.27944 0.0
N522 N 0.72564 0.20927 0.30229 0.0
C523 C 0.69999 0.21435 0.28158 0.0
C524 C 0.72296 0.19865 0.2897 0.0
C525 C 0.71565 0.2224 0.30467 0.0
C526 C 0.68597 0.21713 0.27027 0.0
C527 C 0.67687 0.23177 0.27098 0.0
C528 C 0.66369 0.23439 0.26031 0.0
C529 C 0.65921 0.22239 0.24875 0.0
C530 C 0.66825 0.20774 0.24805 0.0
C531 C 0.68151 0.20516 0.25864 0.0
C532 C 0.73403 0.18441 0.28716 0.0
C533 C 0.73018 0.17221 0.27554 0.0
C534 C 0.74064 0.15885 0.27311 0.0
C535 C 0.75527 0.15743 0.28213 0.0
C536 C 0.75915 0.1696 0.29372 0.0
C537 C 0.74863 0.1829 0.29625 0.0
C538 C 0.71854 0.23379 0.31862 0.0
C539 C 0.73067 0.23039 0.33042 0.0
C540 C 0.47863 0.09584 0.9893 0.0
C541 C 0.47215 0.09576 0.00531 0.0
C542 C 0.46305 0.08198 0.01043 0.0
C543 C 0.46043 0.06875 0.99981 0.0
H544 H 0.42104 0.03707 0.98203 0.0
H545 H 0.39792 0.01842 0.98629 0.0
H546 H 0.42317 0.9807 0.9591 0.0
H547 H 0.44624 0.99937 0.95458 0.0
H548 H 0.46849 0.01821 0.92357 0.0
H549 H 0.48703 0.01386 0.9005 0.0
H550 H 0.52066 0.0495 0.92071 0.0
H551 H 0.50219 0.05391 0.94383 0.0
H552 H 0.48139 0.083 0.96654 0.0
H553 H 0.48541 0.10632 0.98474 0.0
H554 H 0.45813 0.08125 0.02274 0.0
H555 H 0.45342 0.05834 0.0042 0.0
N556 N 0.45181 0.04412 0.97529 0.0
N557 N 0.45983 0.02865 0.95238 0.0
N558 N 0.47474 0.05212 0.95986 0.0
C559 C 0.4494 0.03108 0.96516 0.0
C560 C 0.47253 0.03912 0.94963 0.0
C561 C 0.46446 0.05468 0.97273 0.0
C562 C 0.43548 0.01971 0.96795 0.0
C563 C 0.42169 0.0248 0.97697 0.0
C564 C 0.40842 0.01417 0.97934 0.0
C565 C 0.40879 0.99815 0.97301 0.0
C566 C 0.42263 0.99297 0.96417 0.0
C567 C 0.43578 0.00369 0.96153 0.0
C568 C 0.48381 0.03642 0.93559 0.0
C569 C 0.47983 0.02513 0.92314 0.0
C570 C 0.49041 0.02268 0.90986 0.0
C571 C 0.50529 0.03134 0.9088 0.0
C572 C 0.50933 0.04255 0.92127 0.0
C573 C 0.49869 0.04513 0.93447 0.0
C574 C 0.46706 0.06881 0.9839 0.0
C575 C 0.47623 0.08248 0.97878 0.0
Li576 Li 0.267 0.88756 0.99936 0.0
Li577 Li 0.25458 0.86681 0.01765 0.0
Li578 Li 0.24908 0.86685 0.98705 0.0
Li579 Li 0.23642 0.88771 0.00507 0.0
C580 C 0.28614 0.8601 0.99614 0.0
N581 N 0.31892 0.85395 0.99024 0.0
C582 C 0.29626 0.85451 0.0088 0.0
C583 C 0.29262 0.86236 0.98043 0.0
C584 C 0.31282 0.85152 0.00558 0.0
C585 C 0.30925 0.85924 0.97771 0.0
C586 C 0.25582 0.89635 0.03624 0.0
C587 C 0.24273 0.90117 0.06231 0.0
N588 N 0.25712 0.90709 0.06837 0.0
C589 C 0.27044 0.90265 0.04265 0.0
C590 C 0.24181 0.89574 0.04608 0.0
C591 C 0.27087 0.90795 0.05895 0.0
C592 C 0.28409 0.91443 0.98588 0.0
N593 N 0.28568 0.90132 0.99605 0.0
C594 C 0.31367 0.90835 1.00145 0.0
C595 C 0.30002 0.89828 0.00399 0.0
C596 C 0.31246 0.922 0.99095 0.0
C597 C 0.29732 0.925 0.9832 0.0
H598 H 0.27244 0.91679 0.97997 0.0
H599 H 0.30088 0.88807 0.01237 0.0
C600 C 0.25041 0.83818 0.03646 0.0
N601 N 0.25799 0.85304 0.03629 0.0
C602 C 0.25262 0.82748 0.04967 0.0
C603 C 0.27055 0.8475 0.06223 0.0
C604 C 0.26807 0.85775 0.04873 0.0
C605 C 0.26277 0.8321 0.06286 0.0
H606 H 0.24273 0.83457 0.02625 0.0
H607 H 0.27434 0.86939 0.04813 0.0
C608 C 0.24498 0.89419 0.96794 0.0
N609 N 0.23807 0.90008 0.93528 0.0
C610 C 0.2293 0.89929 0.96324 0.0
C611 C 0.2572 0.8923 0.95607 0.0
C612 C 0.22604 0.90215 0.94666 0.0
C613 C 0.25344 0.89527 0.93961 0.0
C614 C 0.2186 0.85814 0.01069 0.0
C615 C 0.20752 0.85143 0.99943 0.0
C616 C 0.2143 0.85917 0.02726 0.0
C617 C 0.19217 0.84612 0.00491 0.0
C618 C 0.19884 0.85372 0.03226 0.0
N619 N 0.18818 0.84738 0.02107 0.0
C620 C 0.25585 0.84 0.96635 0.0
C621 C 0.23291 0.85575 0.95798 0.0
C622 C 0.2537 0.82933 0.9531 0.0
N623 N 0.24558 0.85297 0.96847 0.0
C624 C 0.23047 0.84554 0.94441 0.0
C625 C 0.24093 0.83211 0.94188 0.0
H626 H 0.26565 0.83788 0.97503 0.0
H627 H 0.22457 0.86577 0.96021 0.0
C628 C 0.22081 0.91684 0.01476 0.0
N629 N 0.2179 0.90163 0.00854 0.0
C630 C 0.20785 0.92771 0.01746 0.0
C631 C 0.18911 0.90709 0.00727 0.0
C632 C 0.20245 0.89669 0.00459 0.0
C633 C 0.19173 0.92283 0.01378 0.0
H634 H 0.23324 0.92053 0.0176 0.0
H635 H 0.20045 0.88479 0.99917 0.0
O636 O 0.26992 0.86316 0.99909 0.0
O637 O 0.25521 0.89111 0.0203 0.0
O638 O 0.24838 0.89127 0.9841 0.0
O639 O 0.23365 0.86342 0.00551 0.0
H640 H 0.2914 0.85261 0.02101 0.0
H641 H 0.2849 0.86647 0.97047 0.0
H642 H 0.32082 0.84728 0.01528 0.0
H643 H 0.31445 0.86101 0.96563 0.0
H644 H 0.23198 0.90073 0.07009 0.0
H645 H 0.28137 0.90332 0.03514 0.0
H646 H 0.23032 0.89125 0.0412 0.0
H647 H 0.28212 0.91275 0.06411 0.0
H648 H 0.32504 0.90534 0.0076 0.0
H649 H 0.29557 0.93554 0.97532 0.0
H650 H 0.24664 0.81562 0.0494 0.0
H651 H 0.27839 0.85168 0.07212 0.0
H652 H 0.21974 0.9009 0.97229 0.0
H653 H 0.26945 0.88859 0.95954 0.0
H654 H 0.21394 0.90601 0.94282 0.0
H655 H 0.26276 0.89378 0.93029 0.0
H656 H 0.2107 0.85044 0.98658 0.0
H657 H 0.22285 0.86401 0.03618 0.0
H658 H 0.18343 0.84099 0.99632 0.0
H659 H 0.19534 0.85448 0.04504 0.0
H660 H 0.26203 0.81911 0.95156 0.0
H661 H 0.22031 0.84791 0.93617 0.0
H662 H 0.21039 0.93972 0.02255 0.0
H663 H 0.17689 0.90298 0.004 0.0
Li664 Li 0.11582 0.50474 0.2676 0.0
Li665 Li 0.13669 0.48647 0.25558 0.0
Li666 Li 0.13655 0.51698 0.25006 0.0
Li667 Li 0.1159 0.49895 0.23712 0.0
C668 C 0.14212 0.50723 0.28751 0.0
N669 N 0.1458 0.51148 0.32094 0.0
C670 C 0.14701 0.49409 0.29737 0.0
C671 C 0.1393 0.52258 0.29461 0.0
C672 C 0.14876 0.49648 0.31426 0.0
C673 C 0.14116 0.52446 0.31155 0.0
C674 C 0.10664 0.46797 0.25545 0.0
C675 C 0.10135 0.44282 0.24077 0.0
N676 N 0.09473 0.43624 0.2546 0.0
C677 C 0.09962 0.46102 0.26947 0.0
C678 C 0.10739 0.45887 0.24094 0.0
C679 C 0.09373 0.44493 0.26881 0.0
C680 C 0.08988 0.51952 0.28512 0.0
N681 N 0.10187 0.508 0.28615 0.0
C682 C 0.09362 0.50114 0.31346 0.0
C683 C 0.10376 0.49871 0.29986 0.0
C684 C 0.0811 0.513 0.31283 0.0
C685 C 0.07929 0.52219 0.29832 0.0
H686 H 0.08841 0.52652 0.27396 0.0
H687 H 0.11313 0.48937 0.30025 0.0
C688 C 0.166 0.4686 0.25293 0.0
N689 N 0.15053 0.46791 0.25909 0.0
C690 C 0.17679 0.45549 0.25513 0.0
C691 C 0.1556 0.44123 0.27016 0.0
C692 C 0.14525 0.45465 0.26773 0.0
C693 C 0.17164 0.4415 0.26381 0.0
H694 H 0.16998 0.47942 0.24634 0.0
H695 H 0.13306 0.45451 0.27287 0.0
C696 C 0.11001 0.53605 0.24481 0.0
N697 N 0.10586 0.56858 0.23632 0.0
C698 C 0.10519 0.54023 0.22889 0.0
C699 C 0.11253 0.54838 0.25647 0.0
C700 C 0.1032 0.55676 0.22483 0.0
C701 C 0.11043 0.56476 0.25192 0.0
C702 C 0.14627 0.49268 0.22016 0.0
C703 C 0.1535 0.50342 0.20891 0.0
C704 C 0.14558 0.47591 0.21664 0.0
C705 C 0.15967 0.49722 0.19417 0.0
C706 C 0.1519 0.47019 0.20177 0.0
N707 N 0.15874 0.48087 0.19093 0.0
C708 C 0.16229 0.53891 0.25772 0.0
C709 C 0.1484 0.54507 0.23296 0.0
C710 C 0.17278 0.5523 0.25552 0.0
N711 N 0.15034 0.53562 0.24655 0.0
C712 C 0.15842 0.55873 0.2304 0.0
C713 C 0.1709 0.56253 0.24173 0.0
H714 H 0.16381 0.53102 0.26827 0.0
H715 H 0.13907 0.54199 0.22405 0.0
C716 C 0.0864 0.49073 0.22142 0.0
N717 N 0.10214 0.49542 0.21847 0.0
C718 C 0.07556 0.48806 0.2084 0.0
C719 C 0.09729 0.49512 0.18952 0.0
C720 C 0.10767 0.49781 0.2029 0.0
C721 C 0.081 0.49018 0.19219 0.0
H722 H 0.08229 0.48906 0.23392 0.0
H723 H 0.12005 0.50198 0.20083 0.0
O724 O 0.14023 0.5051 0.27098 0.0
O725 O 0.11243 0.48372 0.25591 0.0
O726 O 0.11212 0.51995 0.24898 0.0
O727 O 0.14018 0.49857 0.23464 0.0
H728 H 0.14932 0.48215 0.29205 0.0
H729 H 0.13565 0.5329 0.28712 0.0
H730 H 0.15245 0.4864 0.32206 0.0
H731 H 0.13892 0.53625 0.31723 0.0
H732 H 0.10188 0.43562 0.22962 0.0
H733 H 0.09882 0.46795 0.28077 0.0
H734 H 0.11241 0.46416 0.22988 0.0
H735 H 0.08837 0.43936 0.2796 0.0
H736 H 0.0957 0.49386 0.32436 0.0
H737 H 0.06962 0.53118 0.29702 0.0
H738 H 0.18912 0.45643 0.25028 0.0
H739 H 0.151 0.43069 0.27682 0.0
H740 H 0.10312 0.53083 0.21975 0.0
H741 H 0.11612 0.54533 0.26887 0.0
H742 H 0.09956 0.56019 0.21253 0.0
H743 H 0.11244 0.57445 0.26078 0.0
H744 H 0.15424 0.51641 0.2115 0.0
H745 H 0.14037 0.46738 0.22534 0.0
H746 H 0.16521 0.5054 0.18531 0.0
H747 H 0.15143 0.45724 0.19888 0.0
H748 H 0.18242 0.55441 0.26442 0.0
H749 H 0.1563 0.56628 0.21968 0.0
H750 H 0.06311 0.48418 0.21098 0.0
H751 H 0.10188 0.49716 0.17721 0.0
Li752 Li 0.73757 0.61711 1.0002 0.0
Li753 Li 0.7504 0.63732 0.01813 0.0
Li754 Li 0.75572 0.63784 0.98822 0.0
Li755 Li 0.76761 0.61615 0.00564 0.0
C756 C 0.72045 0.64641 0.99308 0.0
N757 N 0.69128 0.65636 0.97902 0.0
C758 C 0.70863 0.65441 0.00257 0.0
C759 C 0.71751 0.6436 0.97643 0.0
C760 C 0.69394 0.65931 0.99524 0.0
C761 C 0.70267 0.6487 0.96955 0.0
C762 C 0.73793 0.60881 0.0332 0.0
C763 C 0.72888 0.5908 0.05485 0.0
N764 N 0.71507 0.59998 0.05661 0.0
C765 C 0.72366 0.61808 0.03523 0.0
C766 C 0.74058 0.59506 0.04307 0.0
C767 C 0.71225 0.61341 0.04713 0.0
C768 C 0.72188 0.58799 0.99086 0.0
N769 N 0.71888 0.60341 0.99646 0.0
C770 C 0.69002 0.59811 0.99682 0.0
C771 C 0.70333 0.60855 0.99959 0.0
C772 C 0.6927 0.5821 0.99095 0.0
C773 C 0.70894 0.5771 0.98802 0.0
H774 H 0.73438 0.58413 0.98871 0.0
H775 H 0.7012 0.6207 0.00437 0.0
C776 C 0.7427 0.66671 0.03436 0.0
N777 N 0.74752 0.65097 0.03691 0.0
C778 C 0.74032 0.67728 0.04764 0.0
C779 C 0.74804 0.65527 0.06593 0.0
C780 C 0.75029 0.64513 0.05229 0.0
C781 C 0.74295 0.67159 0.06372 0.0
H782 H 0.74072 0.67104 0.02197 0.0
H783 H 0.7542 0.63258 0.05399 0.0
C784 C 0.75811 0.60806 0.96922 0.0
N785 N 0.76298 0.59643 0.93775 0.0
C786 C 0.77371 0.60297 0.96425 0.0
C787 C 0.74494 0.60696 0.95829 0.0
C788 C 0.77593 0.5972 0.94826 0.0
C789 C 0.74767 0.60112 0.9424 0.0
C790 C 0.78369 0.64418 0.01778 0.0
C791 C 0.7939 0.65772 0.01523 0.0
C792 C 0.78549 0.63475 0.03199 0.0
C793 C 0.80581 0.66159 0.02696 0.0
C794 C 0.79754 0.63902 0.04342 0.0
N795 N 0.80736 0.65224 0.04069 0.0
C796 C 0.75165 0.66659 0.96937 0.0
C797 C 0.76986 0.64732 0.95755 0.0
C798 C 0.75383 0.67722 0.9561 0.0
N799 N 0.75945 0.65187 0.96976 0.0
C800 C 0.77233 0.65751 0.944 0.0
C801 C 0.76422 0.6727 0.94308 0.0
H802 H 0.74375 0.67013 0.97942 0.0
H803 H 0.77632 0.63581 0.95832 0.0
C804 C 0.78286 0.58615 0.01307 0.0
N805 N 0.78584 0.60183 0.00828 0.0
C806 C 0.79584 0.5752 0.01528 0.0
C807 C 0.8147 0.59676 0.00758 0.0
C808 C 0.80135 0.60724 0.00537 0.0
C809 C 0.81207 0.58046 0.01264 0.0
H810 H 0.77037 0.58216 0.01512 0.0
H811 H 0.80336 0.61974 1.0014 0.0
O812 O 0.73482 0.64141 1.00013 0.0
O813 O 0.74925 0.61305 0.02157 0.0
O814 O 0.75571 0.61365 0.98486 0.0
O815 O 0.7719 0.64035 0.00645 0.0
H816 H 0.71074 0.6567 0.01549 0.0
H817 H 0.72663 0.63766 0.96888 0.0
H818 H 0.68464 0.66544 0.00245 0.0
H819 H 0.70022 0.64659 0.95667 0.0
H820 H 0.73077 0.58018 0.06258 0.0
H821 H 0.72141 0.62877 0.02772 0.0
H822 H 0.75158 0.58777 0.04165 0.0
H823 H 0.70115 0.62047 0.04882 0.0
H824 H 0.67775 0.60262 0.99912 0.0
H825 H 0.71169 0.5648 0.98382 0.0
H826 H 0.73665 0.68983 0.04531 0.0
H827 H 0.75003 0.65028 0.07808 0.0
H828 H 0.78401 0.60361 0.97261 0.0
H829 H 0.73271 0.61044 0.96205 0.0
H830 H 0.78796 0.59334 0.9442 0.0
H831 H 0.7376 0.60026 0.93379 0.0
H832 H 0.79262 0.66516 0.0043 0.0
H833 H 0.77769 0.62424 0.03418 0.0
H834 H 0.8138 0.67203 0.02515 0.0
H835 H 0.79907 0.63183 0.05447 0.0
H836 H 0.7476 0.68894 0.95616 0.0
H837 H 0.78038 0.65341 0.93427 0.0
H838 H 0.79314 0.5627 0.01887 0.0
H839 H 0.82696 0.60147 0.00558 0.0
Li840 Li 0.86695 0.01662 0.25517 0.0
Li841 Li 0.88822 0.99837 0.26617 0.0
Li842 Li 0.88774 0.00604 0.23747 0.0
Li843 Li 0.86602 0.98829 0.24779 0.0
C844 C 0.89529 0.03134 0.26859 0.0
N845 N 0.90389 0.05288 0.29334 0.0
C846 C 0.8866 0.0314 0.28339 0.0
C847 C 0.90838 0.0422 0.26642 0.0
C848 C 0.89113 0.04239 0.29574 0.0
C849 C 0.91253 0.05301 0.27907 0.0
C850 C 0.85597 0.98562 0.27828 0.0
C851 C 0.8551 0.95775 0.28819 0.0
N852 N 0.83934 0.96008 0.29314 0.0
C853 C 0.83979 0.98776 0.28351 0.0
C854 C 0.86372 0.97052 0.28068 0.0
C855 C 0.83159 0.97469 0.29098 0.0
C856 C 0.83687 0.03226 0.26177 0.0
N857 N 0.85311 0.03517 0.25937 0.0
C858 C 0.84877 0.0641 0.26154 0.0
C859 C 0.85916 0.05072 0.25903 0.0
C860 C 0.83193 0.06149 0.2642 0.0
C861 C 0.82602 0.04528 0.26423 0.0
H862 H 0.83229 0.01983 0.26137 0.0
H863 H 0.87202 0.0528 0.2566 0.0
C864 C 0.9187 0.99497 0.28197 0.0
N865 N 0.90224 0.99416 0.28444 0.0
C866 C 0.92955 0.9925 0.29502 0.0
C867 C 0.90627 0.98869 0.31298 0.0
C868 C 0.89589 0.9913 0.29959 0.0
C869 C 0.92336 0.98925 0.31079 0.0
H870 H 0.9234 0.99771 0.26987 0.0
H871 H 0.88276 0.99127 0.30137 0.0
C872 C 0.85596 0.01953 0.22515 0.0
N873 N 0.83936 0.04535 0.21082 0.0
C874 C 0.83919 0.0182 0.22185 0.0
C875 C 0.86431 0.03396 0.2211 0.0
C876 C 0.83101 0.0314 0.21462 0.0
C877 C 0.85569 0.04688 0.21388 0.0
C878 C 0.8991 0.97618 0.2352 0.0
C879 C 0.89188 0.97207 0.22018 0.0
C880 C 0.91584 0.97344 0.23762 0.0
C881 C 0.90159 0.96538 0.20776 0.0
C882 C 0.92514 0.96673 0.22488 0.0
N883 N 0.91789 0.96288 0.21034 0.0
C884 C 0.918 0.01304 0.22223 0.0
C885 C 0.89572 0.01 0.20375 0.0
C886 C 0.92884 0.01552 0.20919 0.0
N887 N 0.90182 0.0103 0.21928 0.0
C888 C 0.90609 0.01257 0.19036 0.0
C889 C 0.92291 0.01531 0.19299 0.0
H890 H 0.9225 0.01312 0.23473 0.0
H891 H 0.88283 0.00756 0.20177 0.0
C892 C 0.83525 0.973 0.24311 0.0
N893 N 0.85168 0.97025 0.24353 0.0
C894 C 0.82434 0.95998 0.24072 0.0
C895 C 0.84747 0.94152 0.23936 0.0
C896 C 0.85792 0.95489 0.24181 0.0
C897 C 0.83041 0.94396 0.23881 0.0
H898 H 0.83061 0.98528 0.24495 0.0
H899 H 0.87102 0.95298 0.24253 0.0
O900 O 0.89129 0.02056 0.25635 0.0
O901 O 0.86407 0.99806 0.27042 0.0
O902 O 0.86409 0.00697 0.23272 0.0
O903 O 0.88987 0.98325 0.2473 0.0
H904 H 0.87646 0.02308 0.28535 0.0
H905 H 0.91527 0.04224 0.25506 0.0
H906 H 0.88451 0.04258 0.30724 0.0
H907 H 0.92263 0.06149 0.27754 0.0
H908 H 0.86091 0.94597 0.29003 0.0
H909 H 0.83361 0.99935 0.28181 0.0
H910 H 0.8762 0.96861 0.27657 0.0
H911 H 0.81905 0.97616 0.29505 0.0
H912 H 0.85393 0.07634 0.26149 0.0
H913 H 0.81309 0.04266 0.26581 0.0
H914 H 0.94263 0.99301 0.29276 0.0
H915 H 0.90097 0.98658 0.32498 0.0
H916 H 0.83253 0.00714 0.22492 0.0
H917 H 0.87725 0.03528 0.22378 0.0
H918 H 0.81801 0.03057 0.21205 0.0
H919 H 0.86197 0.05816 0.21078 0.0
H920 H 0.87896 0.97429 0.21806 0.0
H921 H 0.92162 0.97653 0.24916 0.0
H922 H 0.8962 0.96225 0.19603 0.0
H923 H 0.93813 0.96461 0.22655 0.0
H924 H 0.9417 0.01772 0.21175 0.0
H925 H 0.90106 0.0121 0.17806 0.0
H926 H 0.81128 0.96241 0.24072 0.0
H927 H 0.85273 0.92943 0.23782 0.0
Li928 Li 0.2499 0.1374 0.51696 0.0
Li929 Li 0.23717 0.1165 0.49905 0.0
Li930 Li 0.26774 0.11666 0.50486 0.0
Li931 Li 0.25545 0.13733 0.48641 0.0
C932 C 0.24552 0.11058 0.53628 0.0
N933 N 0.23829 0.10576 0.56903 0.0
C934 C 0.22977 0.1057 0.54098 0.0
C935 C 0.25765 0.1128 0.54819 0.0
C936 C 0.22634 0.10338 0.55761 0.0
C937 C 0.25374 0.11037 0.5647 0.0
C938 C 0.21974 0.14616 0.49257 0.0
C939 C 0.20089 0.15032 0.47015 0.0
N940 N 0.18995 0.15714 0.48074 0.0
C941 C 0.20839 0.15334 0.50322 0.0
C942 C 0.21604 0.14474 0.47589 0.0
C943 C 0.19337 0.15876 0.497 0.0
C944 C 0.25705 0.16362 0.53848 0.0
N945 N 0.24625 0.15126 0.5355 0.0
C946 C 0.23018 0.15906 0.55877 0.0
C947 C 0.23288 0.14896 0.54519 0.0
C948 C 0.24116 0.17194 0.56225 0.0
C949 C 0.25471 0.17417 0.55179 0.0
H950 H 0.2674 0.16543 0.53039 0.0
H951 H 0.22423 0.13933 0.54233 0.0
C952 C 0.22137 0.08731 0.4897 0.0
N953 N 0.21857 0.10264 0.49561 0.0
C954 C 0.20831 0.07651 0.48702 0.0
C955 C 0.18972 0.09744 0.49666 0.0
C956 C 0.20315 0.10777 0.49929 0.0
C957 C 0.19217 0.08153 0.49044 0.0
H958 H 0.2338 0.08343 0.48715 0.0
H959 H 0.20123 0.11984 0.50438 0.0
C960 C 0.28716 0.14387 0.5075 0.0
N961 N 0.32022 0.14945 0.51244 0.0
C962 C 0.297 0.14926 0.49453 0.0
C963 C 0.29407 0.14151 0.52301 0.0
C964 C 0.3137 0.15198 0.49727 0.0
C965 C 0.31083 0.14433 0.52525 0.0
C966 C 0.25663 0.10734 0.46812 0.0
C967 C 0.27129 0.101 0.46192 0.0
C968 C 0.24261 0.10751 0.45824 0.0
C969 C 0.27176 0.09521 0.44579 0.0
C970 C 0.24358 0.10161 0.44218 0.0
N971 N 0.25802 0.09565 0.43633 0.0
C972 C 0.28455 0.08984 0.5187 0.0
C973 C 0.30065 0.10552 0.5003 0.0
C974 C 0.29763 0.07914 0.52148 0.0
N975 N 0.28629 0.10278 0.50833 0.0
C976 C 0.31414 0.09531 0.50293 0.0
C977 C 0.31277 0.08182 0.51362 0.0
H978 H 0.2729 0.08772 0.52468 0.0
H979 H 0.30163 0.1156 0.49176 0.0
C980 C 0.25182 0.16615 0.46784 0.0
N981 N 0.25883 0.15103 0.46769 0.0
C982 C 0.25387 0.17679 0.45456 0.0
C983 C 0.27046 0.15617 0.44124 0.0
C984 C 0.26819 0.14598 0.45484 0.0
C985 C 0.26324 0.1718 0.44098 0.0
H986 H 0.24461 0.16996 0.47831 0.0
H987 H 0.27409 0.13416 0.45519 0.0
O988 O 0.24907 0.113 0.52006 0.0
O989 O 0.23448 0.14077 0.49848 0.0
O990 O 0.2708 0.14109 0.50502 0.0
O991 O 0.25597 0.11303 0.4839 0.0
H992 H 0.22026 0.10384 0.53189 0.0
H993 H 0.26995 0.11637 0.54472 0.0
H994 H 0.21418 0.0997 0.56145 0.0
H995 H 0.26299 0.11213 0.57407 0.0
H996 H 0.19785 0.14928 0.45727 0.0
H997 H 0.21112 0.15463 0.51615 0.0
H998 H 0.22481 0.13954 0.46743 0.0
H999 H 0.18442 0.16426 0.50511 0.0
H1000 H 0.21966 0.15668 0.5665 0.0
H1001 H 0.26331 0.18413 0.55366 0.0
H1002 H 0.21091 0.06428 0.48255 0.0
H1003 H 0.17753 0.10197 0.49936 0.0
H1004 H 0.29181 0.15124 0.48247 0.0
H1005 H 0.28657 0.13751 0.5332 0.0
H1006 H 0.3215 0.15607 0.48734 0.0
H1007 H 0.31636 0.14247 0.53717 0.0
H1008 H 0.28222 0.10066 0.46946 0.0
H1009 H 0.23108 0.11202 0.46296 0.0
H1010 H 0.28306 0.09037 0.44079 0.0
H1011 H 0.23284 0.10171 0.43438 0.0
H1012 H 0.29575 0.06873 0.5295 0.0
H1013 H 0.32553 0.09808 0.4967 0.0
H1014 H 0.24804 0.18871 0.45483 0.0
H1015 H 0.27804 0.15197 0.43117 0.0
Li1016 Li 0.388 0.49917 0.76707 0.0
Li1017 Li 0.3672 0.51704 0.75419 0.0
Li1018 Li 0.36716 0.48647 0.74881 0.0
Li1019 Li 0.38795 0.5048 0.73647 0.0
C1020 C 0.35826 0.49289 0.7845 0.0
N1021 N 0.34718 0.4813 0.81435 0.0
C1022 C 0.35107 0.50362 0.79577 0.0
C1023 C 0.35964 0.47624 0.78832 0.0
C1024 C 0.3456 0.49753 0.81083 0.0
C1025 C 0.354 0.47063 0.8035 0.0
C1026 C 0.39411 0.53628 0.75867 0.0
C1027 C 0.39452 0.5647 0.75051 0.0
N1028 N 0.39908 0.569 0.76599 0.0
C1029 C 0.39894 0.54095 0.77446 0.0
C1030 C 0.39201 0.54821 0.74655 0.0
C1031 C 0.40135 0.55756 0.77793 0.0
C1032 C 0.41732 0.49023 0.78271 0.0
N1033 N 0.40188 0.49579 0.78565 0.0
C1034 C 0.40713 0.4965 0.81453 0.0
C1035 C 0.39671 0.49913 0.80116 0.0
C1036 C 0.42311 0.49067 0.81186 0.0
C1037 C 0.4282 0.4876 0.79569 0.0
H1038 H 0.42117 0.48785 0.77023 0.0
H1039 H 0.3846 0.50402 0.8032 0.0
C1040 C 0.34116 0.53863 0.74677 0.0
N1041 N 0.35343 0.53566 0.75767 0.0
C1042 C 0.33073 0.55204 0.74893 0.0
C1043 C 0.34576 0.55915 0.77348 0.0
C1044 C 0.35573 0.54546 0.77098 0.0
C1045 C 0.33299 0.56264 0.76239 0.0
H1046 H 0.33935 0.53046 0.73648 0.0
H1047 H 0.36528 0.54261 0.77971 0.0
C1048 C 0.39713 0.46815 0.74781 0.0
N1049 N 0.40882 0.43638 0.74668 0.0
C1050 C 0.40349 0.46183 0.73319 0.0
C1051 C 0.39694 0.4584 0.76191 0.0
C1052 C 0.40928 0.44571 0.73285 0.0
C1053 C 0.40285 0.44235 0.76107 0.0
C1054 C 0.36088 0.50739 0.71695 0.0
C1055 C 0.35546 0.49442 0.70711 0.0
C1056 C 0.36343 0.52285 0.70999 0.0
C1057 C 0.3529 0.49709 0.69036 0.0
C1058 C 0.36076 0.52502 0.6932 0.0
N1059 N 0.3556 0.5122 0.68381 0.0
C1060 C 0.33837 0.46776 0.75263 0.0
C1061 C 0.35846 0.45491 0.73607 0.0
C1062 C 0.32778 0.45441 0.75066 0.0
N1063 N 0.35344 0.46771 0.7455 0.0
C1064 C 0.34831 0.44127 0.73384 0.0
C1065 C 0.33272 0.44086 0.7412 0.0
H1066 H 0.33455 0.47824 0.75982 0.0
H1067 H 0.37028 0.4553 0.73015 0.0
C1068 C 0.41494 0.51846 0.71979 0.0
N1069 N 0.40194 0.50815 0.71795 0.0
C1070 C 0.42574 0.52118 0.70676 0.0
C1071 C 0.40952 0.50273 0.69012 0.0
C1072 C 0.39922 0.50012 0.70357 0.0
C1073 C 0.423 0.51334 0.69167 0.0
H1074 H 0.41699 0.5245 0.73143 0.0
H1075 H 0.38915 0.49156 0.70255 0.0
O1076 O 0.36371 0.49868 0.76973 0.0
O1077 O 0.39161 0.52009 0.75508 0.0
O1078 O 0.39145 0.48392 0.74834 0.0
O1079 O 0.36352 0.50498 0.73334 0.0
H1080 H 0.34983 0.51653 0.79295 0.0
H1081 H 0.36486 0.46772 0.77961 0.0
H1082 H 0.34009 0.50571 0.81971 0.0
H1083 H 0.35502 0.45777 0.80663 0.0
H1084 H 0.39285 0.57408 0.74128 0.0
H1085 H 0.4007 0.53184 0.78396 0.0
H1086 H 0.38847 0.54477 0.73423 0.0
H1087 H 0.40499 0.56137 0.79012 0.0
H1088 H 0.40283 0.49929 0.82679 0.0
H1089 H 0.44041 0.48303 0.79312 0.0
H1090 H 0.32086 0.5539 0.74024 0.0
H1091 H 0.34817 0.56697 0.78395 0.0
H1092 H 0.40385 0.46927 0.72221 0.0
H1093 H 0.39242 0.46321 0.77341 0.0
H1094 H 0.41413 0.44062 0.7216 0.0
H1095 H 0.40273 0.43465 0.77188 0.0
H1096 H 0.35334 0.4824 0.71233 0.0
H1097 H 0.36746 0.53304 0.71748 0.0
H1098 H 0.34878 0.48715 0.68258 0.0
H1099 H 0.36277 0.53689 0.68763 0.0
H1100 H 0.31577 0.45485 0.7563 0.0
H1101 H 0.35274 0.4311 0.72653 0.0
H1102 H 0.43602 0.52946 0.7084 0.0
H1103 H 0.40717 0.49627 0.67873 0.0
Li1104 Li 0.76627 0.38688 0.49934 0.0
Li1105 Li 0.75485 0.36602 0.51703 0.0
Li1106 Li 0.7488 0.36595 0.48781 0.0
Li1107 Li 0.73706 0.38664 0.50534 0.0
C1108 C 0.78182 0.35868 0.48708 0.0
N1109 N 0.80471 0.35009 0.46362 0.0
C1110 C 0.79189 0.34504 0.48949 0.0
C1111 C 0.78338 0.36796 0.47274 0.0
C1112 C 0.80339 0.3409 0.47749 0.0
C1113 C 0.79502 0.36341 0.46103 0.0
C1114 C 0.76693 0.39455 0.53229 0.0
C1115 C 0.7763 0.41264 0.55377 0.0
N1116 N 0.79034 0.40374 0.55505 0.0
C1117 C 0.78146 0.38558 0.5338 0.0
C1118 C 0.76432 0.40819 0.54233 0.0
C1119 C 0.79314 0.39042 0.54538 0.0
C1120 C 0.78165 0.4168 0.49162 0.0
N1121 N 0.78468 0.40097 0.49587 0.0
C1122 C 0.81361 0.40584 0.49537 0.0
C1123 C 0.80027 0.39539 0.49791 0.0
C1124 C 0.81087 0.42226 0.49093 0.0
C1125 C 0.79463 0.42774 0.48913 0.0
H1126 H 0.76912 0.42092 0.4902 0.0
H1127 H 0.80237 0.38282 0.50156 0.0
C1128 C 0.76246 0.33619 0.53242 0.0
N1129 N 0.75852 0.35208 0.53551 0.0
C1130 C 0.76511 0.32526 0.54536 0.0
C1131 C 0.75965 0.3473 0.56445 0.0
C1132 C 0.75694 0.35775 0.55114 0.0
C1133 C 0.76379 0.33081 0.56164 0.0
H1134 H 0.76351 0.332 0.51986 0.0
H1135 H 0.7535 0.37037 0.55331 0.0
C1136 C 0.73617 0.39373 0.4723 0.0
N1137 N 0.71249 0.40139 0.44928 0.0
C1138 C 0.72179 0.38441 0.47126 0.0
C1139 C 0.7385 0.40694 0.46164 0.0
C1140 C 0.70997 0.38848 0.45954 0.0
C1141 C 0.72639 0.41062 0.45008 0.0
C1142 C 0.7219 0.35854 0.51792 0.0
C1143 C 0.71138 0.3452 0.51553 0.0
C1144 C 0.72085 0.36771 0.53239 0.0
C1145 C 0.69994 0.34126 0.52766 0.0
C1146 C 0.70925 0.36337 0.54423 0.0
N1147 N 0.69912 0.35035 0.54164 0.0
C1148 C 0.74052 0.33632 0.47204 0.0
C1149 C 0.74812 0.35763 0.45379 0.0
C1150 C 0.73812 0.32554 0.45891 0.0
N1151 N 0.7454 0.35202 0.46926 0.0
C1152 C 0.74584 0.34729 0.44031 0.0
C1153 C 0.7408 0.33098 0.44275 0.0
H1154 H 0.73859 0.33216 0.4845 0.0
H1155 H 0.75209 0.37014 0.45188 0.0
C1156 C 0.72151 0.41647 0.51264 0.0
N1157 N 0.71852 0.40052 0.5088 0.0
C1158 C 0.70851 0.42736 0.51507 0.0
C1159 C 0.68958 0.40519 0.5096 0.0
C1160 C 0.70294 0.39477 0.50714 0.0
C1161 C 0.69224 0.42177 0.51361 0.0
H1162 H 0.73404 0.42074 0.51368 0.0
H1163 H 0.70085 0.38209 0.50387 0.0
O1164 O 0.77043 0.36276 0.49871 0.0
O1165 O 0.75536 0.39022 0.52092 0.0
O1166 O 0.74794 0.39008 0.4837 0.0
O1167 O 0.73322 0.36241 0.50615 0.0
H1168 H 0.79081 0.33773 0.50053 0.0
H1169 H 0.7757 0.37856 0.47066 0.0
H1170 H 0.81127 0.33037 0.47919 0.0
H1171 H 0.79635 0.37048 0.44987 0.0
H1172 H 0.77444 0.42318 0.56162 0.0
H1173 H 0.78371 0.37499 0.52613 0.0
H1174 H 0.75314 0.41528 0.54127 0.0
H1175 H 0.80443 0.38359 0.54668 0.0
H1176 H 0.82593 0.4012 0.49711 0.0
H1177 H 0.79201 0.44027 0.48562 0.0
H1178 H 0.76837 0.31267 0.54267 0.0
H1179 H 0.75828 0.35201 0.5768 0.0
H1180 H 0.71977 0.37411 0.47936 0.0
H1181 H 0.74956 0.41428 0.4623 0.0
H1182 H 0.6988 0.38137 0.4586 0.0
H1183 H 0.72803 0.42082 0.44174 0.0
H1184 H 0.71206 0.33798 0.50439 0.0
H1185 H 0.72885 0.37809 0.53446 0.0
H1186 H 0.69171 0.33097 0.52597 0.0
H1187 H 0.7083 0.37036 0.55548 0.0
H1188 H 0.73446 0.31302 0.46142 0.0
H1189 H 0.74786 0.3521 0.42809 0.0
H1190 H 0.71123 0.44007 0.51783 0.0
H1191 H 0.6773 0.40023 0.50853 0.0
Li1192 Li 0.63791 0.98695 0.75516 0.0
Li1193 Li 0.6172 0.0048 0.76812 0.0
Li1194 Li 0.61715 0.99909 0.73763 0.0
Li1195 Li 0.63798 0.01748 0.74973 0.0
C1196 C 0.61153 0.96768 0.76032 0.0
N1197 N 0.60775 0.93508 0.76873 0.0
C1198 C 0.60676 0.9634 0.77623 0.0
C1199 C 0.61419 0.95541 0.74864 0.0
C1200 C 0.60496 0.94683 0.78025 0.0
C1201 C 0.61227 0.93899 0.75315 0.0
C1202 C 0.6478 0.01149 0.78492 0.0
C1203 C 0.65372 0.03431 0.80282 0.0
N1204 N 0.66075 0.02384 0.81374 0.0
C1205 C 0.65522 1.00097 0.79624 0.0
C1206 C 0.64715 0.02831 0.78816 0.0
C1207 C 0.66164 0.00745 0.81077 0.0
C1208 C 0.66349 0.96493 0.74738 0.0
N1209 N 0.65172 0.96836 0.75866 0.0
C1210 C 0.65988 0.94535 0.77492 0.0
C1211 C 0.64991 0.95904 0.77237 0.0
C1212 C 0.67216 0.94141 0.76345 0.0
C1213 C 0.67392 0.95152 0.74956 0.0
H1214 H 0.6649 0.97272 0.73674 0.0
H1215 H 0.64071 0.96223 0.78135 0.0
C1216 C 0.58749 0.01216 0.78373 0.0
N1217 N 0.60341 0.0082 0.78675 0.0
C1218 C 0.5766 0.01473 0.79671 0.0
C1219 C 0.59866 0.00908 0.8157 0.0
C1220 C 0.60908 0.00646 0.80235 0.0
C1221 C 0.58218 0.01326 0.81296 0.0
H1222 H 0.58327 0.01333 0.7712 0.0
H1223 H 0.62163 0.0029 0.80449 0.0
C1224 C 0.64345 0.99705 0.71772 0.0
N1225 N 0.6471 0.99338 0.68423 0.0
C1226 C 0.64829 0.01039 0.70809 0.0
C1227 C 0.64066 0.98181 0.71037 0.0
C1228 C 0.65002 0.00829 0.69116 0.0
C1229 C 0.64251 0.98022 0.6934 0.0
C1230 C 0.60742 0.03558 0.75011 0.0
C1231 C 0.59993 0.04243 0.73629 0.0
C1232 C 0.60814 0.04455 0.76471 0.0
C1233 C 0.59351 0.05828 0.73724 0.0
C1234 C 0.60157 0.06036 0.76517 0.0
N1235 N 0.59447 0.06685 0.75154 0.0
C1236 C 0.59135 0.98416 0.71989 0.0
C1237 C 0.60506 0.0053 0.70543 0.0
C1238 C 0.58082 0.98151 0.70661 0.0
N1239 N 0.60323 0.99584 0.71903 0.0
C1240 C 0.595 0.00288 0.69176 0.0
C1241 C 0.58259 0.99086 0.6922 0.0
H1242 H 0.58993 0.97702 0.73097 0.0
H1243 H 0.61435 0.01476 0.70517 0.0
C1244 C 0.6677 0.03479 0.75115 0.0
N1245 N 0.6518 0.0361 0.74627 0.0
C1246 C 0.67859 0.04785 0.74886 0.0
C1247 C 0.65655 0.06338 0.73657 0.0
C1248 C 0.64613 0.04997 0.73896 0.0
C1249 C 0.67302 0.06241 0.74154 0.0
H1250 H 0.67191 0.02357 0.75682 0.0
H1251 H 0.63359 0.05062 0.73479 0.0
O1252 O 0.61348 0.98381 0.75619 0.0
O1253 O 0.64148 0.00532 0.77064 0.0
O1254 O 0.64157 0.9989 0.73429 0.0
O1255 O 0.61373 0.02006 0.74936 0.0
H1256 H 0.6046 0.97275 0.78539 0.0
H1257 H 0.61776 0.95855 0.73625 0.0
H1258 H 0.60136 0.94332 0.79253 0.0
H1259 H 0.61438 0.92936 0.74426 0.0
H1260 H 0.65328 0.04731 0.8055 0.0
H1261 H 0.65593 0.98793 0.79387 0.0
H1262 H 0.64177 0.03668 0.7794 0.0
H1263 H 0.66733 0.99944 0.81969 0.0
H1264 H 0.65784 0.9379 0.78571 0.0
H1265 H 0.68342 0.9493 0.74055 0.0
H1266 H 0.56401 0.01802 0.79407 0.0
H1267 H 0.60338 0.00756 0.82803 0.0
H1268 H 0.65056 0.02225 0.71361 0.0
H1269 H 0.63703 0.97135 0.71769 0.0
H1270 H 0.65367 0.01852 0.68353 0.0
H1271 H 0.64029 0.96852 0.68753 0.0
H1272 H 0.59916 0.0356 0.72492 0.0
H1273 H 0.61357 0.03932 0.77562 0.0
H1274 H 0.58776 0.06377 0.72661 0.0
H1275 H 0.60207 0.06745 0.77639 0.0
H1276 H 0.57124 0.97238 0.70779 0.0
H1277 H 0.59705 0.01029 0.68094 0.0
H1278 H 0.69117 0.04663 0.75295 0.0
H1279 H 0.65184 0.07429 0.73063 0.0
Li1280 Li 0.01684 0.25457 0.86664 0.0
Li1281 Li 0.99949 0.26635 0.88745 0.0
Li1282 Li 0.00548 0.23715 0.88769 0.0
Li1283 Li 0.98765 0.24851 0.86694 0.0
C1284 C 0.03258 0.26728 0.89433 0.0
N1285 N 0.05567 0.29096 0.90186 0.0
C1286 C 0.03358 0.28162 0.88498 0.0
C1287 C 0.04331 0.26498 0.9075 0.0
C1288 C 0.04534 0.29345 0.88899 0.0
C1289 C 0.0549 0.2771 0.91111 0.0
C1290 C 0.98671 0.28143 0.85941 0.0
C1291 C 0.96049 0.29415 0.8644 0.0
N1292 N 0.96297 0.3042 0.85132 0.0
C1293 C 0.98901 0.29187 0.84601 0.0
C1294 C 0.97234 0.28256 0.86869 0.0
C1295 C 0.97686 0.30331 0.84212 0.0
C1296 C 0.03228 0.26302 0.83693 0.0
N1297 N 0.03524 0.25803 0.85255 0.0
C1298 C 0.06414 0.25778 0.84756 0.0
C1299 C 0.05078 0.25535 0.858 0.0
C1300 C 0.0615 0.26296 0.83131 0.0
C1301 C 0.04528 0.26558 0.82605 0.0
H1302 H 0.01978 0.26492 0.8329 0.0
H1303 H 0.05284 0.25131 0.87046 0.0
C1304 C 0.99227 0.282 0.91727 0.0
N1305 N 0.99611 0.28493 0.90131 0.0
C1306 C 0.98982 0.29505 0.92812 0.0
C1307 C 0.99527 0.31389 0.90588 0.0
C1308 C 0.99778 0.30049 0.89551 0.0
C1309 C 0.99124 0.31126 0.92243 0.0
H1310 H 0.99113 0.26949 0.92156 0.0
H1311 H 1.00113 0.30252 0.88284 0.0
C1312 C 0.01755 0.2215 0.8595 0.0
N1313 N 0.04097 0.19855 0.85101 0.0
C1314 C 0.01506 0.21125 0.84598 0.0
C1315 C 0.03195 0.22009 0.86871 0.0
C1316 C 0.02704 0.19972 0.84188 0.0
C1317 C 0.04364 0.20841 0.86422 0.0
C1318 C 0.97259 0.23646 0.89548 0.0
C1319 C 0.9711 0.22191 0.8865 0.0
C1320 C 0.96252 0.23908 0.9091 0.0
C1321 C 0.95952 0.21022 0.89131 0.0
C1322 C 0.95109 0.22709 0.91351 0.0
N1323 N 0.94984 0.21303 0.9046 0.0
C1324 C 0.01341 0.222 0.91763 0.0
C1325 C 0.00702 0.20319 0.89636 0.0
C1326 C 0.01599 0.20911 0.92864 0.0
N1327 N 0.00906 0.21883 0.90184 0.0
C1328 C 0.00965 0.18994 0.9069 0.0
C1329 C 0.01419 0.19282 0.92328 0.0
H1330 H 0.01484 0.23456 0.92166 0.0
H1331 H 0.0033 0.20097 0.88382 0.0
C1332 C 0.97197 0.24092 0.83719 0.0
N1333 N 0.96904 0.24488 0.85312 0.0
C1334 C 0.95892 0.23844 0.82633 0.0
C1335 C 0.94008 0.24406 0.84852 0.0
C1336 C 0.95349 0.24659 0.8589 0.0
C1337 C 0.94271 0.23995 0.83199 0.0
H1338 H 0.98448 0.23976 0.83291 0.0
H1339 H 0.95146 0.25004 0.87155 0.0
O1340 O 0.02114 0.25551 0.89075 0.0
O1341 O 0.99849 0.27012 0.86324 0.0
O1342 O 0.00593 0.2329 0.86354 0.0
O1343 O 0.98393 0.24806 0.89116 0.0
H1344 H 0.02542 0.28362 0.87472 0.0
H1345 H 0.04267 0.25394 0.91485 0.0
H1346 H 0.04625 0.3046 0.88185 0.0
H1347 H 0.06329 0.27548 0.92127 0.0
H1348 H 0.94931 0.29515 0.87148 0.0
H1349 H 1.00006 0.29114 0.8387 0.0
H1350 H 0.97034 0.27462 0.87912 0.0
H1351 H 0.97848 0.31147 0.83179 0.0
H1352 H 0.07641 0.2558 0.85224 0.0
H1353 H 0.04263 0.26934 0.81358 0.0
H1354 H 0.98663 0.2925 0.94077 0.0
H1355 H 0.99672 0.32619 0.90106 0.0
H1356 H 0.00397 0.21222 0.83872 0.0
H1357 H 0.0341 0.22789 0.87923 0.0
H1358 H 0.02528 0.19171 0.83144 0.0
H1359 H 0.05484 0.20719 0.87124 0.0
H1360 H 0.97877 0.21966 0.87592 0.0
H1361 H 0.96356 0.25027 0.91619 0.0
H1362 H 0.95824 0.19891 0.88447 0.0
H1363 H 0.94322 0.22896 0.92403 0.0
H1364 H 0.01958 0.21186 0.94115 0.0
H1365 H 0.00789 0.17758 0.90234 0.0
H1366 H 0.96147 0.2352 0.8137 0.0
H1367 H 0.92778 0.24558 0.85331 0.0
Li1368 Li 0.51705 0.75457 0.36666 0.0
Li1369 Li 0.49935 0.76742 0.38758 0.0
Li1370 Li 0.50508 0.73693 0.38745 0.0
Li1371 Li 0.48652 0.74905 0.36686 0.0
C1372 C 0.53653 0.75972 0.3929 0.0
N1373 N 0.56914 0.76824 0.39642 0.0
C1374 C 0.54082 0.77564 0.39761 0.0
C1375 C 0.54879 0.74807 0.39018 0.0
C1376 C 0.55739 0.77972 0.39928 0.0
C1377 C 0.56522 0.75264 0.39196 0.0
C1378 C 0.49258 0.78447 0.35734 0.0
C1379 C 0.46996 0.80278 0.35215 0.0
N1380 N 0.48049 0.81367 0.34514 0.0
C1381 C 0.50316 0.79576 0.34994 0.0
C1382 C 0.47583 0.78793 0.35835 0.0
C1383 C 0.49682 0.81049 0.34391 0.0
C1384 C 0.53876 0.74689 0.34077 0.0
N1385 N 0.53551 0.75812 0.35266 0.0
C1386 C 0.55851 0.77436 0.34435 0.0
C1387 C 0.54492 0.7718 0.35447 0.0
C1388 C 0.56218 0.76293 0.332 0.0
C1389 C 0.55207 0.7491 0.33019 0.0
H1390 H 0.53096 0.73624 0.33942 0.0
H1391 H 0.54183 0.78079 0.3637 0.0
C1392 C 0.49137 0.78309 0.41717 0.0
N1393 N 0.49601 0.78604 0.40143 0.0
C1394 C 0.48874 0.79609 0.42803 0.0
C1395 C 0.4958 0.81497 0.40631 0.0
C1396 C 0.49842 0.80159 0.39592 0.0
C1397 C 0.49088 0.81235 0.42264 0.0
H1398 H 0.48976 0.77058 0.42131 0.0
H1399 H 0.50246 0.80367 0.3835 0.0
C1400 C 0.50711 0.71716 0.361 0.0
N1401 N 0.51118 0.68375 0.35708 0.0
C1402 C 0.49389 0.70737 0.35612 0.0
C1403 C 0.52245 0.71 0.3637 0.0
C1404 C 0.49619 0.69049 0.35425 0.0
C1405 C 0.52424 0.69308 0.36172 0.0
C1406 C 0.4685 0.749 0.39722 0.0
C1407 C 0.46171 0.73493 0.40429 0.0
C1408 C 0.45936 0.76347 0.3967 0.0
C1409 C 0.44574 0.7355 0.41046 0.0
C1410 C 0.44343 0.76356 0.40301 0.0
N1411 N 0.437 0.74968 0.40969 0.0
C1412 C 0.52014 0.71918 0.41313 0.0
C1413 C 0.49909 0.70464 0.39934 0.0
C1414 C 0.52287 0.70589 0.42359 0.0
N1415 N 0.50846 0.7183 0.40125 0.0
C1416 C 0.50158 0.69095 0.40933 0.0
C1417 C 0.51359 0.69143 0.42174 0.0
H1418 H 0.52723 0.7303 0.41461 0.0
H1419 H 0.48963 0.70435 0.39005 0.0
C1420 C 0.46812 0.75184 0.33783 0.0
N1421 N 0.46772 0.74559 0.35329 0.0
C1422 C 0.45479 0.74968 0.32725 0.0
C1423 C 0.44094 0.73451 0.34862 0.0
C1424 C 0.45457 0.7369 0.35875 0.0
C1425 C 0.4409 0.74095 0.33261 0.0
H1426 H 0.47885 0.75846 0.33369 0.0
H1427 H 0.45467 0.73169 0.37091 0.0
O1428 O 0.52039 0.75554 0.39107 0.0
O1429 O 0.49862 0.77 0.3633 0.0
O1430 O 0.50507 0.73368 0.36302 0.0
O1431 O 0.48414 0.74862 0.39116 0.0
H1432 H 0.53147 0.78478 0.39983 0.0
H1433 H 0.54565 0.73566 0.38667 0.0
H1434 H 0.56091 0.79203 0.40283 0.0
H1435 H 0.57485 0.74378 0.38979 0.0
H1436 H 0.45702 0.80563 0.35287 0.0
H1437 H 0.51614 0.79322 0.34895 0.0
H1438 H 0.46742 0.7792 0.36369 0.0
H1439 H 0.50488 0.81938 0.33823 0.0
H1440 H 0.56589 0.78531 0.34596 0.0
H1441 H 0.55453 0.74001 0.32081 0.0
H1442 H 0.48528 0.79339 0.44057 0.0
H1443 H 0.49748 0.82724 0.4015 0.0
H1444 H 0.48196 0.71274 0.35391 0.0
H1445 H 0.53282 0.71743 0.36735 0.0
H1446 H 0.48604 0.68275 0.35056 0.0
H1447 H 0.53601 0.68735 0.36386 0.0
H1448 H 0.46867 0.72366 0.40492 0.0
H1449 H 0.46454 0.77457 0.39163 0.0
H1450 H 0.44029 0.72468 0.41588 0.0
H1451 H 0.43621 0.77468 0.40266 0.0
H1452 H 0.53199 0.70708 0.43317 0.0
H1453 H 0.49422 0.68009 0.40722 0.0
H1454 H 0.4555 0.7546 0.31493 0.0
H1455 H 0.4305 0.72781 0.35336 0.0
Li1456 Li 0.0049 0.76781 0.61705 0.0
Li1457 Li 0.98693 0.75508 0.63787 0.0
Li1458 Li 0.01748 0.74955 0.63796 0.0
Li1459 Li 0.99908 0.73736 0.61723 0.0
C1460 C 0.01102 0.78517 0.64729 0.0
N1461 N 0.02224 0.81477 0.65947 0.0
C1462 C 1.00001 0.79641 0.65408 0.0
C1463 C 0.02775 0.78889 0.64688 0.0
C1464 C 0.00592 0.81134 0.66012 0.0
C1465 C 0.03318 0.80394 0.65305 0.0
C1466 C 0.96779 0.76012 0.61119 0.0
C1467 C 0.93905 0.75311 0.61151 0.0
N1468 N 0.93531 0.76866 0.60678 0.0
C1469 C 0.96368 0.776 0.60621 0.0
C1470 C 0.9554 0.74853 0.61374 0.0
C1471 C 0.94718 0.78009 0.60409 0.0
C1472 C 0.013 0.78303 0.58733 0.0
N1473 N 0.00845 0.78627 0.60305 0.0
C1474 C 0.00905 0.81513 0.59778 0.0
C1475 C 0.00628 0.80194 0.60836 0.0
C1476 C 0.01385 0.81215 0.58149 0.0
C1477 C 0.01575 0.79584 0.57628 0.0
H1478 H 0.0145 0.77045 0.58338 0.0
H1479 H 0.00223 0.80425 0.62074 0.0
C1480 C 0.96532 0.74759 0.66386 0.0
N1481 N 0.96832 0.75859 0.6517 0.0
C1482 C 0.95192 0.74967 0.67433 0.0
C1483 C 0.94489 0.77436 0.65956 0.0
C1484 C 0.95857 0.77193 0.64954 0.0
C1485 C 0.94137 0.76316 0.67222 0.0
H1486 H 0.97344 0.73725 0.66554 0.0
H1487 H 0.96142 0.78072 0.64005 0.0
C1488 C 0.03581 0.74965 0.60787 0.0
N1489 N 0.0675 0.75089 0.59593 0.0
C1490 C 0.04281 0.73579 0.60061 0.0
C1491 C 0.04484 0.7642 0.60886 0.0
C1492 C 0.05888 0.73665 0.59471 0.0
C1493 C 0.06086 0.76457 0.6028 0.0
C1494 C 0.99658 0.71772 0.6437 0.0
C1495 C 0.00966 0.70782 0.64866 0.0
C1496 C 0.98117 0.71071 0.64094 0.0
C1497 C 0.00714 0.69097 0.65054 0.0
C1498 C 0.97915 0.69381 0.64293 0.0
N1499 N 0.99207 0.68437 0.64764 0.0
C1500 C 0.03577 0.75241 0.66709 0.0
C1501 C 0.04922 0.73723 0.64629 0.0
C1502 C 0.04902 0.75016 0.67774 0.0
N1503 N 0.03616 0.74608 0.65166 0.0
C1504 C 0.06279 0.73478 0.65647 0.0
C1505 C 0.0628 0.74129 0.67244 0.0
H1506 H 0.02514 0.75923 0.67113 0.0
H1507 H 0.04907 0.73187 0.63418 0.0
C1508 C 0.98417 0.71943 0.59156 0.0
N1509 N 0.9958 0.71866 0.60348 0.0
C1510 C 0.9815 0.70606 0.58116 0.0
C1511 C 0.00277 0.6913 0.59555 0.0
C1512 C 0.00521 0.70506 0.60548 0.0
C1513 C 0.99079 0.69165 0.58311 0.0
H1514 H 0.97707 0.73051 0.58999 0.0
H1515 H 0.01465 0.70489 0.6148 0.0
O1516 O 0.00541 0.7705 0.64134 0.0
O1517 O 0.98386 0.75593 0.61342 0.0
O1518 O 0.0201 0.74898 0.61369 0.0
O1519 O 0.99885 0.73421 0.64167 0.0
H1520 H 0.98703 0.79368 0.6546 0.0
H1521 H 0.03648 0.7802 0.64201 0.0
H1522 H 0.99753 0.8202 0.66532 0.0
H1523 H 0.0461 0.80698 0.65279 0.0
H1524 H 0.92933 0.74429 0.61354 0.0
H1525 H 0.97313 0.78509 0.60412 0.0
H1526 H 0.9584 0.73616 0.61746 0.0
H1527 H 0.9438 0.79235 0.60032 0.0
H1528 H 0.00718 0.82751 0.60221 0.0
H1529 H 0.01952 0.79302 0.56385 0.0
H1530 H 0.95003 0.7409 0.68412 0.0
H1531 H 0.9371 0.78485 0.65725 0.0
H1532 H 0.03594 0.72446 0.59963 0.0
H1533 H 0.0395 0.77513 0.61409 0.0
H1534 H 0.06449 0.72599 0.58915 0.0
H1535 H 0.068 0.77574 0.60351 0.0
H1536 H 0.02164 0.71307 0.65091 0.0
H1537 H 0.9709 0.71824 0.63724 0.0
H1538 H 0.01716 0.68313 0.65427 0.0
H1539 H 0.96732 0.6882 0.64075 0.0
H1540 H 0.04856 0.75546 0.68992 0.0
H1541 H 0.07304 0.72761 0.652 0.0
H1542 H 0.97241 0.70715 0.57153 0.0
H1543 H 0.01014 0.68049 0.59774 0.0
Li1544 Li 0.50544 0.26808 0.11666 0.0
Li1545 Li 0.48738 0.2553 0.13736 0.0
Li1546 Li 0.51788 0.24959 0.13745 0.0
Li1547 Li 0.49945 0.23764 0.11661 0.0
C1548 C 0.51176 0.28517 0.14694 0.0
N1549 N 0.52343 0.31457 0.15917 0.0
C1550 C 0.50096 0.29645 0.154 0.0
C1551 C 0.52851 0.28875 0.14628 0.0
C1552 C 0.50709 0.31127 0.16006 0.0
C1553 C 0.53417 0.3037 0.15249 0.0
C1554 C 0.46828 0.26059 0.11074 0.0
C1555 C 0.43952 0.25366 0.11103 0.0
N1556 N 0.43581 0.26926 0.10645 0.0
C1557 C 0.46421 0.27652 0.10591 0.0
C1558 C 0.45586 0.24901 0.1132 0.0
C1559 C 0.44771 0.28068 0.10384 0.0
C1560 C 0.51381 0.2836 0.08715 0.0
N1561 N 0.50905 0.28665 0.10283 0.0
C1562 C 0.50935 0.31555 0.0978 0.0
C1563 C 0.50664 0.30224 0.10824 0.0
C1564 C 0.51436 0.31282 0.08151 0.0
C1565 C 0.51654 0.29653 0.07623 0.0
H1566 H 0.51541 0.27107 0.08309 0.0
H1567 H 0.5025 0.3044 0.12062 0.0
C1568 C 0.46559 0.2478 0.16321 0.0
N1569 N 0.4688 0.25888 0.15119 0.0
C1570 C 0.45222 0.25 0.1737 0.0
C1571 C 0.44563 0.27497 0.1592 0.0
C1572 C 0.45928 0.27241 0.14917 0.0
C1573 C 0.44192 0.2637 0.17175 0.0
H1574 H 0.47353 0.23731 0.16479 0.0
H1575 H 0.46229 0.28126 0.13977 0.0
C1576 C 0.5363 0.24956 0.10746 0.0
N1577 N 0.56808 0.25022 0.09571 0.0
C1578 C 0.54317 0.2355 0.10045 0.0
C1579 C 0.54551 0.26401 0.10828 0.0
C1580 C 0.55928 0.23607 0.09465 0.0
C1581 C 0.56157 0.26408 0.10233 0.0
C1582 C 0.49679 0.21783 0.14296 0.0
C1583 C 0.5098 0.20782 0.14788 0.0
C1584 C 0.48134 0.21093 0.14015 0.0
C1585 C 0.50718 0.19098 0.14966 0.0
C1586 C 0.47922 0.19403 0.14204 0.0
N1587 N 0.49208 0.18449 0.14671 0.0
C1588 C 0.5362 0.25248 0.16655 0.0
C1589 C 0.54941 0.23682 0.14597 0.0
C1590 C 0.5494 0.25015 0.17725 0.0
N1591 N 0.5365 0.24595 0.1512 0.0
C1592 C 0.56291 0.23423 0.15622 0.0
C1593 C 0.56305 0.24094 0.17212 0.0
H1594 H 0.52564 0.25945 0.17052 0.0
H1595 H 0.54922 0.23139 0.13389 0.0
C1596 C 0.48451 0.22015 0.09066 0.0
N1597 N 0.49603 0.21909 0.10268 0.0
C1598 C 0.48174 0.20694 0.08009 0.0
C1599 C 0.50268 0.19172 0.0945 0.0
C1600 C 0.50522 0.20533 0.10461 0.0
C1601 C 0.49082 0.19238 0.08195 0.0
H1602 H 0.47759 0.23135 0.08916 0.0
H1603 H 0.51456 0.20491 0.11401 0.0
O1604 O 0.50593 0.2706 0.14096 0.0
O1605 O 0.48434 0.25633 0.11292 0.0
O1606 O 0.52053 0.2492 0.11317 0.0
O1607 O 0.49916 0.23432 0.14103 0.0
H1608 H 0.48797 0.29382 0.15472 0.0
H1609 H 0.53709 0.28003 0.1412 0.0
H1610 H 0.49887 0.32016 0.16548 0.0
H1611 H 0.5471 0.30664 0.15204 0.0
H1612 H 0.42977 0.24485 0.11298 0.0
H1613 H 0.47368 0.28561 0.10389 0.0
H1614 H 0.45883 0.2366 0.11679 0.0
H1615 H 0.44437 0.29299 0.10019 0.0
H1616 H 0.50765 0.32785 0.10252 0.0
H1617 H 0.52006 0.29375 0.06373 0.0
H1618 H 0.45018 0.24116 0.1834 0.0
H1619 H 0.43803 0.28562 0.15701 0.0
H1620 H 0.53616 0.22426 0.0996 0.0
H1621 H 0.54027 0.27509 0.1133 0.0
H1622 H 0.56479 0.22525 0.08929 0.0
H1623 H 0.56884 0.27518 0.10291 0.0
H1624 H 0.52181 0.21299 0.15018 0.0
H1625 H 0.47112 0.21854 0.13648 0.0
H1626 H 0.51715 0.18306 0.15337 0.0
H1627 H 0.46736 0.18851 0.13981 0.0
H1628 H 0.54877 0.25529 0.18948 0.0
H1629 H 0.57317 0.22715 0.15166 0.0
H1630 H 0.47275 0.20827 0.0704 0.0
H1631 H 0.50988 0.18078 0.09661 0.0
H1632 H 0.24281 0.7507 0.87261 0.0
H1633 H 0.21038 0.78615 0.85024 0.0
H1634 H 0.2475 0.76933 0.89538 0.0
H1635 H 0.21402 0.80422 0.87365 0.0
H1636 H 0.23633 0.84039 0.90977 0.0
H1637 H 0.23256 0.82206 0.88641 0.0
H1638 H 0.23539 0.78025 0.91897 0.0
H1639 H 0.23986 0.79867 0.94212 0.0
C1640 C 0.23665 0.76245 0.87251 0.0
C1641 C 0.22623 0.76686 0.85947 0.0
C1642 C 0.23914 0.77307 0.88576 0.0
C1643 C 0.23111 0.78833 0.88648 0.0
C1644 C 0.22062 0.7927 0.87348 0.0
C1645 C 0.2183 0.78217 0.86012 0.0
C1646 C 0.23612 0.82727 0.91188 0.0
C1647 C 0.23842 0.82094 0.92773 0.0
C1648 C 0.23388 0.81673 0.89851 0.0
C1649 C 0.23364 0.7996 0.90072 0.0
C1650 C 0.23583 0.79332 0.91667 0.0
C1651 C 0.23831 0.80387 0.92998 0.0
H1652 H 0.02773 0.55221 0.39705 0.0
H1653 H 0.00691 0.50398 0.3895 0.0
H1654 H 0.0466 0.54759 0.37451 0.0
H1655 H 0.0248 0.49994 0.36607 0.0
H1656 H 0.06944 0.49017 0.3348 0.0
H1657 H 0.05176 0.49463 0.3583 0.0
H1658 H 0.04851 0.54612 0.34605 0.0
H1659 H 0.06733 0.54192 0.3234 0.0
C1660 C 0.02713 0.5406 0.39061 0.0
C1661 C 0.01575 0.52846 0.39524 0.0
C1662 C 0.03781 0.53806 0.37743 0.0
C1663 C 0.03727 0.52339 0.36833 0.0
C1664 C 0.02581 0.5113 0.37289 0.0
C1665 C 0.0153 0.51375 0.38622 0.0
C1666 C 0.06523 0.50252 0.33726 0.0
C1667 C 0.06995 0.51568 0.32712 0.0
C1668 C 0.05481 0.50503 0.35064 0.0
C1669 C 0.04857 0.52074 0.35415 0.0
C1670 C 0.05321 0.53388 0.34396 0.0
C1671 C 0.06383 0.53141 0.33072 0.0
H1672 H 0.79107 0.71593 0.84912 0.0
H1673 H 0.76484 0.75449 0.87436 0.0
H1674 H 0.7872 0.69796 0.8727 0.0
H1675 H 0.76063 0.7363 0.89771 0.0
H1676 H 0.74139 0.69215 0.92779 0.0
H1677 H 0.7454 0.71033 0.90438 0.0
H1678 H 0.79638 0.69627 0.90209 0.0
H1679 H 0.79255 0.67839 0.92574 0.0
C1680 C 0.78458 0.72065 0.85971 0.0
C1681 C 0.7783 0.73672 0.85978 0.0
C1682 C 0.78233 0.7103 0.87321 0.0
C1683 C 0.7736 0.71571 0.88705 0.0
C1684 C 0.76723 0.73171 0.88713 0.0
C1685 C 0.76961 0.74212 0.8737 0.0
C1686 C 0.75352 0.69307 0.92246 0.0
C1687 C 0.76664 0.68377 0.92872 0.0
C1688 C 0.75579 0.70346 0.909 0.0
C1689 C 0.7712 0.70471 0.90138 0.0
C1690 C 0.78431 0.6954 0.90756 0.0
C1691 C 0.78208 0.68511 0.92111 0.0
H1692 H 0.00805 0.97862 0.37531 0.0
H1693 H 0.96633 0.97032 0.40689 0.0
H1694 H 0.98966 0.98284 0.35209 0.0
H1695 H 0.94792 0.97467 0.38371 0.0
H1696 H 0.92084 0.96636 0.33522 0.0
H1697 H 0.93929 0.96205 0.35837 0.0
H1698 H 0.9698 0.00202 0.34151 0.0
H1699 H 0.9514 0.00622 0.31829 0.0
C1700 C 0.99494 0.97785 0.37733 0.0
C1701 C 0.98866 0.97413 0.39296 0.0
C1702 C 0.98439 0.98028 0.36401 0.0
C1703 C 0.96729 0.9791 0.36601 0.0
C1704 C 0.96102 0.97541 0.38166 0.0
C1705 C 0.97158 0.97293 0.39496 0.0
C1706 C 0.93142 0.9743 0.33652 0.0
C1707 C 0.93465 0.98663 0.3249 0.0
C1708 C 0.942 0.97185 0.34981 0.0
C1709 C 0.95605 0.98169 0.35183 0.0
C1710 C 0.95925 0.99403 0.3402 0.0
C1711 C 0.9487 0.99645 0.32689 0.0
H1712 H 0.24685 0.22561 0.65505 0.0
H1713 H 0.20447 0.24584 0.63068 0.0
H1714 H 0.25113 0.20687 0.63213 0.0
H1715 H 0.20906 0.22766 0.60737 0.0
H1716 H 0.21182 0.18282 0.57487 0.0
H1717 H 0.20737 0.20049 0.59841 0.0
H1718 H 0.2598 0.2052 0.60488 0.0
H1719 H 0.26424 0.18644 0.5822 0.0
C1720 C 0.23856 0.22614 0.64466 0.0
C1721 C 0.22533 0.23714 0.64463 0.0
C1722 C 0.24104 0.21546 0.63147 0.0
C1723 C 0.23047 0.21569 0.61778 0.0
C1724 C 0.21728 0.22684 0.61777 0.0
C1725 C 0.21467 0.23734 0.63109 0.0
C1726 C 0.22243 0.18735 0.58147 0.0
C1727 C 0.23841 0.18307 0.57656 0.0
C1728 C 0.21987 0.19777 0.59486 0.0
C1729 C 0.23321 0.20441 0.6036 0.0
C1730 C 0.24919 0.20019 0.59865 0.0
C1731 C 0.25175 0.18959 0.5854 0.0
H1732 H 0.46892 0.51913 0.59517 0.0
H1733 H 0.5056 0.53819 0.62826 0.0
H1734 H 0.4505 0.51431 0.61822 0.0
H1735 H 0.48697 0.53425 0.65132 0.0
H1736 H 0.45634 0.51096 0.6915 0.0
H1737 H 0.4749 0.51494 0.6684 0.0
H1738 H 0.43348 0.52673 0.63734 0.0
H1739 H 0.41499 0.52184 0.66034 0.0
C1740 C 0.47293 0.52246 0.60741 0.0
C1741 C 0.48866 0.52899 0.60997 0.0
C1742 C 0.46235 0.5198 0.62064 0.0
C1743 C 0.46714 0.52391 0.63675 0.0
C1744 C 0.4829 0.5306 0.63921 0.0
C1745 C 0.49358 0.53296 0.62599 0.0
C1746 C 0.45127 0.51441 0.6797 0.0
C1747 C 0.43426 0.51607 0.67766 0.0
C1748 C 0.4619 0.5168 0.66645 0.0
C1749 C 0.45578 0.52122 0.65089 0.0
C1750 C 0.43869 0.52302 0.64898 0.0
C1751 C 0.42806 0.52032 0.66217 0.0
H1752 H 0.77863 0.28708 0.65809 0.0
H1753 H 0.78133 0.2461 0.62465 0.0
H1754 H 0.77376 0.30556 0.6351 0.0
H1755 H 0.77688 0.26458 0.60155 0.0
H1756 H 0.75225 0.29955 0.56549 0.0
H1757 H 0.75673 0.28105 0.58856 0.0
H1758 H 0.78673 0.31791 0.61222 0.0
H1759 H 0.78184 0.3365 0.58932 0.0
C1760 C 0.77835 0.28206 0.64579 0.0
C1761 C 0.78036 0.26514 0.64318 0.0
C1762 C 0.7756 0.29265 0.63258 0.0
C1763 C 0.77494 0.28661 0.6164 0.0
C1764 C 0.77702 0.26966 0.61383 0.0
C1765 C 0.77962 0.25905 0.62706 0.0
C1766 C 0.75986 0.30364 0.5756 0.0
C1767 C 0.76667 0.31948 0.57561 0.0
C1768 C 0.76248 0.29302 0.58882 0.0
C1769 C 0.77211 0.29793 0.60231 0.0
C1770 C 0.779 0.31378 0.60222 0.0
C1771 C 0.77625 0.32444 0.58907 0.0
H1772 H 0.50853 1.00002 0.61539 0.0
H1773 H 0.52929 0.95184 0.60766 0.0
H1774 H 0.52647 0.00401 0.63881 0.0
H1775 H 0.54823 0.95644 0.63016 0.0
H1776 H 0.56899 0.96191 0.68134 0.0
H1777 H 0.55025 0.95776 0.65859 0.0
H1778 H 0.55333 0.00937 0.64673 0.0
H1779 H 0.57089 0.01377 0.67035 0.0
C1780 C 0.51692 0.99025 0.61863 0.0
C1781 C 0.51732 0.97556 0.60956 0.0
C1782 C 0.52747 0.99268 0.63195 0.0
C1783 C 0.53892 0.98059 0.63646 0.0
C1784 C 0.53944 0.96596 0.62729 0.0
C1785 C 0.52872 0.96343 0.61413 0.0
C1786 C 0.56547 0.97246 0.67408 0.0
C1787 C 0.5715 0.98821 0.67784 0.0
C1788 C 0.55489 0.97001 0.66079 0.0
C1789 C 0.55022 0.9832 0.65068 0.0
C1790 C 0.55639 0.99892 0.65433 0.0
C1791 C 0.56676 1.00141 0.66778 0.0
H1792 H 0.86266 0.25134 0.76227 0.0
H1793 H 0.86235 0.19968 0.77424 0.0
H1794 H 0.88603 0.25542 0.78052 0.0
H1795 H 0.88547 0.20391 0.79277 0.0
H1796 H 0.91471 0.22241 0.83775 0.0
H1797 H 0.89141 0.21832 0.81929 0.0
H1798 H 0.91568 0.24737 0.78223 0.0
H1799 H 0.9389 0.25164 0.80077 0.0
C1800 C 0.86762 0.24082 0.76868 0.0
C1801 C 0.86057 0.22517 0.76674 0.0
C1802 C 0.881 0.24319 0.77917 0.0
C1803 C 0.88757 0.22999 0.78809 0.0
C1804 C 0.88052 0.21436 0.78622 0.0
C1805 C 0.86723 0.21196 0.77563 0.0
C1806 C 0.91502 0.22799 0.82569 0.0
C1807 C 0.92862 0.23735 0.82071 0.0
C1808 C 0.90175 0.22553 0.81508 0.0
C1809 C 0.90172 0.23252 0.79931 0.0
C1810 C 0.9153 0.24194 0.79435 0.0
C1811 C 0.92864 0.24425 0.8049 0.0
H1812 H 0.47316 0.87555 0.50711 0.0
H1813 H 0.477 0.90898 0.46621 0.0
H1814 H 0.47774 0.85239 0.48859 0.0
H1815 H 0.48144 0.88581 0.44767 0.0
H1816 H 0.50806 0.84132 0.42447 0.0
H1817 H 0.50327 0.86445 0.4428 0.0
H1818 H 0.46296 0.83841 0.46521 0.0
H1819 H 0.46737 0.81542 0.44659 0.0
C1820 C 0.47503 0.87794 0.49417 0.0
C1821 C 0.47473 0.89407 0.4881 0.0
C1822 C 0.47751 0.86468 0.48356 0.0
C1823 C 0.47995 0.8673 0.46669 0.0
C1824 C 0.47972 0.88344 0.46063 0.0
C1825 C 0.47705 0.89668 0.47121 0.0
C1826 C 0.49802 0.84056 0.43313 0.0
C1827 C 0.48809 0.82644 0.43398 0.0
C1828 C 0.49532 0.85382 0.44368 0.0
C1829 C 0.48275 0.85323 0.45544 0.0
C1830 C 0.47288 0.83913 0.45639 0.0
C1831 C 0.47546 0.82593 0.44574 0.0
H1832 H 0.13988 0.30431 0.77146 0.0
H1833 H 0.14372 0.252 0.76377 0.0
H1834 H 0.11686 0.29986 0.78999 0.0
H1835 H 0.12022 0.24762 0.78168 0.0
H1836 H 0.08939 0.24444 0.82833 0.0
H1837 H 0.11267 0.24904 0.81019 0.0
H1838 H 0.08847 0.29157 0.78987 0.0
H1839 H 0.06552 0.28741 0.80856 0.0
C1840 C 0.13583 0.29185 0.77372 0.0
C1841 C 0.1437 0.27852 0.76613 0.0
C1842 C 0.12248 0.28932 0.78419 0.0
C1843 C 0.11664 0.27338 0.78733 0.0
C1844 C 0.12449 0.26005 0.7797 0.0
C1845 C 0.13785 0.26258 0.76925 0.0
C1846 C 0.0891 0.25488 0.82013 0.0
C1847 C 0.07557 0.26558 0.81996 0.0
C1848 C 0.10237 0.2574 0.80956 0.0
C1849 C 0.10246 0.27067 0.79853 0.0
C1850 C 0.08891 0.28134 0.79833 0.0
C1851 C 0.07565 0.27883 0.80891 0.0
H1852 H 0.50466 0.61449 0.4956 0.0
H1853 H 0.55282 0.60694 0.47474 0.0
H1854 H 0.50062 0.63791 0.47772 0.0
H1855 H 0.54818 0.62946 0.45585 0.0
H1856 H 0.54258 0.68067 0.43527 0.0
H1857 H 0.5468 0.65789 0.45394 0.0
H1858 H 0.49523 0.6458 0.45085 0.0
H1859 H 0.49076 0.66943 0.43337 0.0
C1860 C 0.51441 0.61777 0.4872 0.0
C1861 C 0.52912 0.60876 0.48676 0.0
C1862 C 0.51196 0.63109 0.47668 0.0
C1863 C 0.52403 0.63565 0.46521 0.0
C1864 C 0.53867 0.62654 0.46465 0.0
C1865 C 0.54122 0.61337 0.47534 0.0
C1866 C 0.53205 0.67336 0.43878 0.0
C1867 C 0.51629 0.67705 0.43278 0.0
C1868 C 0.53454 0.66005 0.44931 0.0
C1869 C 0.52138 0.64987 0.45396 0.0
C1870 C 0.50565 0.65345 0.44781 0.0
C1871 C 0.50313 0.66691 0.43749 0.0
H1872 H 0.84967 0.79397 0.7175 0.0
H1873 H 0.87102 0.76017 0.7524 0.0
H1874 H 0.87319 0.79008 0.69945 0.0
H1875 H 0.89408 0.75579 0.73388 0.0
H1876 H 0.92155 0.73965 0.68619 0.0
H1877 H 0.89832 0.74369 0.70457 0.0
H1878 H 0.90455 0.79612 0.70109 0.0
H1879 H 0.92828 0.79223 0.68334 0.0
C1880 C 0.85936 0.78579 0.72141 0.0
C1881 C 0.85836 0.77743 0.73651 0.0
C1882 C 0.87279 0.78351 0.71099 0.0
C1883 C 0.88541 0.77263 0.71527 0.0
C1884 C 0.88441 0.76412 0.73022 0.0
C1885 C 0.87112 0.76659 0.74077 0.0
C1886 C 0.9182 0.75206 0.6895 0.0
C1887 C 0.92692 0.7656 0.68322 0.0
C1888 C 0.90481 0.75434 0.69998 0.0
C1889 C 0.89964 0.7702 0.70421 0.0
C1890 C 0.90818 0.78375 0.69786 0.0
C1891 C 0.92173 0.78149 0.6876 0.0
H1892 H 0.0555 0.89143 0.52335 0.0
H1893 H 0.00417 0.89063 0.50993 0.0
H1894 H 0.05086 0.86864 0.54216 0.0
H1895 H 0.99973 0.86755 0.52842 0.0
H1896 H 0.0033 0.8151 0.54978 0.0
H1897 H 0.00805 0.83791 0.53088 0.0
H1898 H 0.03553 0.86332 0.56844 0.0
H1899 H 0.03093 0.84044 0.58728 0.0
C1900 C 0.04321 0.8865 0.52446 0.0
C1901 C 0.03021 0.89295 0.51509 0.0
C1902 C 0.04058 0.8734 0.53522 0.0
C1903 C 0.02494 0.86631 0.53675 0.0
C1904 C 0.01197 0.87263 0.52734 0.0
C1905 C 0.01455 0.88584 0.5167 0.0
C1906 C 0.01044 0.82552 0.55395 0.0
C1907 C 0.01675 0.82599 0.57 0.0
C1908 C 0.01303 0.83863 0.54319 0.0
C1909 C 0.02216 0.8524 0.54819 0.0
C1910 C 0.02856 0.85282 0.5642 0.0
C1911 C 0.02581 0.83979 0.57502 0.0
H1912 H 0.15719 0.71531 0.71536 0.0
H1913 H 0.13025 0.73735 0.75535 0.0
H1914 H 0.1337 0.71923 0.69735 0.0
H1915 H 0.10715 0.74216 0.73709 0.0
H1916 H 0.06238 0.73267 0.70485 0.0
H1917 H 0.08574 0.72817 0.72299 0.0
H1918 H 0.11879 0.73997 0.68323 0.0
H1919 H 0.09539 0.7441 0.66505 0.0
C1920 C 0.14626 0.72099 0.72034 0.0
C1921 C 0.14565 0.72597 0.73686 0.0
C1922 C 0.13285 0.72345 0.70992 0.0
C1923 C 0.11849 0.73105 0.71572 0.0
C1924 C 0.1179 0.73608 0.73222 0.0
C1925 C 0.13127 0.73353 0.74266 0.0
C1926 C 0.07465 0.73439 0.70003 0.0
C1927 C 0.07705 0.73873 0.68352 0.0
C1928 C 0.08805 0.73185 0.71043 0.0
C1929 C 0.1042 0.73371 0.70461 0.0
C1930 C 0.10656 0.73813 0.68809 0.0
C1931 C 0.09315 0.74055 0.67766 0.0
H1932 H 0.99982 0.61423 0.50971 0.0
H1933 H 0.95158 0.6068 0.53045 0.0
H1934 H 0.00389 0.63773 0.52752 0.0
H1935 H 0.95624 0.62939 0.54927 0.0
H1936 H 0.96184 0.68072 0.56958 0.0
H1937 H 0.95765 0.65782 0.55104 0.0
H1938 H 0.00921 0.64584 0.55434 0.0
H1939 H 0.01365 0.66961 0.57169 0.0
C1940 C 0.99006 0.61755 0.51807 0.0
C1941 C 0.97532 0.60856 0.51849 0.0
C1942 C 0.99252 0.63092 0.52854 0.0
C1943 C 0.98043 0.63555 0.53996 0.0
C1944 C 0.96576 0.62643 0.54051 0.0
C1945 C 0.9632 0.61322 0.52986 0.0
C1946 C 0.97237 0.67341 0.56615 0.0
C1947 C 0.98812 0.67718 0.57216 0.0
C1948 C 0.9699 0.66003 0.55569 0.0
C1949 C 0.98306 0.64984 0.55114 0.0
C1950 C 0.99878 0.6535 0.55731 0.0
C1951 C 1.00129 0.66703 0.56755 0.0
H1952 H 0.78752 0.8476 0.22191 0.0
H1953 H 0.7456 0.87959 0.22676 0.0
H1954 H 0.80583 0.87095 0.22594 0.0
H1955 H 0.76393 0.90288 0.23128 0.0
H1956 H 0.80239 0.94287 0.2202 0.0
H1957 H 0.78385 0.91971 0.21613 0.0
H1958 H 0.81414 0.88994 0.24777 0.0
H1959 H 0.8326 0.9131 0.25197 0.0
C1960 C 0.78222 0.85963 0.2238 0.0
C1961 C 0.7651 0.86173 0.22398 0.0
C1962 C 0.79271 0.87298 0.22629 0.0
C1963 C 0.78634 0.88878 0.22896 0.0
C1964 C 0.76922 0.8909 0.22911 0.0
C1965 C 0.75873 0.87753 0.22669 0.0
C1966 C 0.80501 0.93144 0.22643 0.0
C1967 C 0.81902 0.92986 0.23638 0.0
C1968 C 0.79438 0.91816 0.22408 0.0
C1969 C 0.79753 0.90297 0.2316 0.0
C1970 C 0.8115 0.90139 0.24159 0.0
C1971 C 0.8221 0.91468 0.24398 0.0
H1972 H 0.7887 0.15797 0.27933 0.0
H1973 H 0.74718 0.12501 0.27882 0.0
H1974 H 0.80715 0.13477 0.27509 0.0
H1975 H 0.76561 0.10184 0.27426 0.0
H1976 H 0.80575 0.06345 0.28524 0.0
H1977 H 0.78716 0.0865 0.28937 0.0
H1978 H 0.8139 0.1146 0.2533 0.0
H1979 H 0.83233 0.09149 0.24891 0.0
C1980 C 0.78352 0.14576 0.27836 0.0
C1981 C 0.76648 0.14331 0.27943 0.0
C1982 C 0.79407 0.1325 0.27577 0.0
C1983 C 0.78784 0.11648 0.27433 0.0
C1984 C 0.7708 0.11402 0.27546 0.0
C1985 C 0.76024 0.1273 0.27791 0.0
C1986 C 0.80757 0.07446 0.27804 0.0
C1987 C 0.82058 0.07558 0.26675 0.0
C1988 C 0.79692 0.08768 0.28044 0.0
C1989 C 0.79907 0.10238 0.27168 0.0
C1990 C 0.81206 0.10352 0.2604 0.0
C1991 C 0.82265 0.09027 0.25793 0.0
H1992 H 0.4095 0.96686 0.98483 0.0
H1993 H 0.37646 0.00412 0.96695 0.0
H1994 H 0.38621 0.94831 0.98921 0.0
H1995 H 0.3532 0.98551 0.97112 0.0
H1996 H 0.32096 0.93861 0.96278 0.0
H1997 H 0.34403 0.95719 0.95861 0.0
H1998 H 0.36016 0.94865 0.00829 0.0
H1999 H 0.33666 0.93072 0.0129 0.0
C2000 C 0.39726 0.97102 0.98178 0.0
C2001 C 0.39474 0.9869 0.97557 0.0
C2002 C 0.38396 0.96048 0.98436 0.0
C2003 C 0.36794 0.96551 0.98049 0.0
C2004 C 0.36544 0.98132 0.97412 0.0
C2005 C 0.3787 0.99197 0.97183 0.0
C2006 C 0.32921 0.94084 0.97295 0.0
C2007 C 0.3268 0.9331 0.98822 0.0
C2008 C 0.34249 0.95143 0.97049 0.0
C2009 C 0.35386 0.9543 0.98312 0.0
C2010 C 0.35165 0.94649 0.99829 0.0
C2011 C 0.33821 0.93613 1.00087 0.0
H2012 H 0.23201 0.35382 0.253 0.0
H2013 H 0.23958 0.36888 0.30324 0.0
H2014 H 0.2134 0.37684 0.24886 0.0
H2015 H 0.22123 0.39211 0.29907 0.0
H2016 H 0.17492 0.42215 0.29117 0.0
H2017 H 0.19305 0.39881 0.2951 0.0
H2018 H 0.21281 0.40599 0.24642 0.0
H2019 H 0.19401 0.42875 0.24214 0.0
C2020 C 0.22982 0.36216 0.26311 0.0
C2021 C 0.23725 0.35953 0.27845 0.0
C2022 C 0.21917 0.37539 0.26074 0.0
C2023 C 0.21579 0.38638 0.27363 0.0
C2024 C 0.2233 0.38375 0.28895 0.0
C2025 C 0.23386 0.37046 0.29135 0.0
C2026 C 0.18296 0.41863 0.28121 0.0
C2027 C 0.18293 0.42736 0.26631 0.0
C2028 C 0.19355 0.40536 0.28355 0.0
C2029 C 0.20446 0.4005 0.2711 0.0
C2030 C 0.20446 0.40924 0.25622 0.0
C2031 C 0.19381 0.42246 0.25385 0.0
H2032 H 0.12903 0.99742 0.47094 0.0
H2033 H 0.09534 0.03752 0.47864 0.0
H2034 H 0.15218 0.01601 0.47546 0.0
H2035 H 0.1185 0.05613 0.48307 0.0
H2036 H 0.1642 0.07823 0.50898 0.0
H2037 H 0.14101 0.05993 0.50423 0.0
H2038 H 0.16496 0.04051 0.4612 0.0
H2039 H 0.18797 0.05915 0.46556 0.0
C2040 C 0.12659 0.01019 0.47365 0.0
C2041 C 0.11039 0.01602 0.47445 0.0
C2042 C 0.13982 0.02085 0.4761 0.0
C2043 C 0.13713 0.03751 0.47961 0.0
C2044 C 0.12093 0.04332 0.4805 0.0
C2045 C 0.1077 0.03271 0.47785 0.0
C2046 C 0.16447 0.07025 0.49835 0.0
C2047 C 0.17802 0.07024 0.48765 0.0
C2048 C 0.15118 0.05972 0.49568 0.0
C2049 C 0.15119 0.04879 0.48236 0.0
C2050 C 0.16472 0.04867 0.47169 0.0
C2051 C 0.17793 0.05933 0.47425 0.0
H2052 H 0.73077 0.15207 0.74969 0.0
H2053 H 0.74326 0.13245 0.70208 0.0
H2054 H 0.71234 0.12886 0.7544 0.0
H2055 H 0.72469 0.10934 0.70671 0.0
H2056 H 0.70434 0.06165 0.72957 0.0
H2057 H 0.72294 0.08478 0.72518 0.0
H2058 H 0.68582 0.11803 0.74304 0.0
H2059 H 0.66728 0.09488 0.74761 0.0
C2060 C 0.72961 0.14277 0.74026 0.0
C2061 C 0.73846 0.14408 0.72552 0.0
C2062 C 0.71896 0.12957 0.7429 0.0
C2063 C 0.71708 0.11729 0.73092 0.0
C2064 C 0.72599 0.11855 0.71622 0.0
C2065 C 0.73651 0.13184 0.71351 0.0
C2066 C 0.7002 0.07389 0.73266 0.0
C2067 C 0.68435 0.07646 0.73894 0.0
C2068 C 0.71079 0.08714 0.73001 0.0
C2069 C 0.70583 0.10322 0.73375 0.0
C2070 C 0.69003 0.10577 0.74015 0.0
C2071 C 0.67937 0.09254 0.74264 0.0
H2072 H 0.4092 0.03611 0.52002 0.0
H2073 H 0.37588 0.99929 0.53844 0.0
H2074 H 0.38606 0.05474 0.51543 0.0
H2075 H 0.35277 0.018 0.53407 0.0
H2076 H 0.32115 0.06542 0.54195 0.0
H2077 H 0.34396 0.0466 0.54626 0.0
H2078 H 0.35994 0.05433 0.49641 0.0
H2079 H 0.33669 0.07249 0.49167 0.0
C2080 C 0.39693 0.03206 0.52314 0.0
C2081 C 0.39429 0.01629 0.52957 0.0
C2082 C 0.38372 0.04265 0.52044 0.0
C2083 C 0.36767 0.03778 0.52441 0.0
C2084 C 0.36505 0.02207 0.53099 0.0
C2085 C 0.37822 0.01136 0.5334 0.0
C2086 C 0.32931 0.06295 0.53177 0.0
C2087 C 0.32694 0.07055 0.51642 0.0
C2088 C 0.34244 0.05222 0.53431 0.0
C2089 C 0.35369 0.04906 0.52168 0.0
C2090 C 0.35151 0.05671 0.50641 0.0
C2091 C 0.33822 0.06721 0.50376 0.0
H2092 H 0.59569 0.46522 0.52797 0.0
H2093 H 0.62895 0.50647 0.52938 0.0
H2094 H 0.61886 0.4467 0.52365 0.0
H2095 H 0.6521 0.48797 0.52488 0.0
H2096 H 0.68962 0.44683 0.53601 0.0
H2097 H 0.66663 0.46546 0.54016 0.0
H2098 H 0.63971 0.44093 0.50165 0.0
H2099 H 0.66284 0.42256 0.49713 0.0
C2100 C 0.60796 0.47031 0.5274 0.0
C2101 C 0.61051 0.48729 0.52902 0.0
C2102 C 0.6212 0.45973 0.52479 0.0
C2103 C 0.63729 0.46589 0.52392 0.0
C2104 C 0.63985 0.48286 0.52562 0.0
C2105 C 0.62659 0.49345 0.52806 0.0
C2106 C 0.67892 0.44551 0.52825 0.0
C2107 C 0.67815 0.43314 0.51622 0.0
C2108 C 0.66571 0.45617 0.53068 0.0
C2109 C 0.65136 0.45464 0.52125 0.0
C2110 C 0.65053 0.44227 0.50926 0.0
C2111 C 0.66379 0.4317 0.50672 0.0
H2112 H 0.7528 0.26447 0.35971 0.0
H2113 H 0.7004 0.27125 0.36372 0.0
H2114 H 0.75695 0.28226 0.38338 0.0
H2115 H 0.70459 0.28968 0.38688 0.0
H2116 H 0.71665 0.30792 0.43839 0.0
H2117 H 0.71281 0.28942 0.41522 0.0
H2118 H 0.75517 0.31058 0.39137 0.0
H2119 H 0.75948 0.32852 0.41489 0.0
C2120 C 0.74216 0.26974 0.36564 0.0
C2121 C 0.72626 0.26638 0.3598 0.0
C2122 C 0.74455 0.28012 0.3791 0.0
C2123 C 0.73111 0.28744 0.38705 0.0
C2124 C 0.71522 0.28411 0.38119 0.0
C2125 C 0.71282 0.2737 0.36775 0.0
C2126 C 0.72527 0.3085 0.4283 0.0
C2127 C 0.73838 0.31973 0.42854 0.0
C2128 C 0.72294 0.29802 0.4149 0.0
C2129 C 0.73365 0.29852 0.40138 0.0
C2130 C 0.74678 0.30972 0.40164 0.0
C2131 C 0.74913 0.32017 0.41505 0.0
H2132 H 0.53849 0.02688 0.90963 0.0
H2133 H 0.4975 0.02983 0.87622 0.0
H2134 H 0.55699 0.02233 0.88658 0.0
H2135 H 0.51598 0.02574 0.85307 0.0
H2136 H 0.55093 1.00166 0.81669 0.0
H2137 H 0.53246 0.00581 0.83984 0.0
H2138 H 0.56931 0.03556 0.86384 0.0
H2139 H 0.58789 0.03098 0.84086 0.0
C2140 C 0.53347 0.02672 0.89732 0.0
C2141 C 0.51655 0.02869 0.89473 0.0
C2142 C 0.54407 0.02416 0.88408 0.0
C2143 C 0.53803 0.02368 0.8679 0.0
C2144 C 0.52107 0.02574 0.86534 0.0
C2145 C 0.51046 0.02813 0.87861 0.0
C2146 C 0.55503 0.00915 0.8269 0.0
C2147 C 0.57086 0.01598 0.82697 0.0
C2148 C 0.54443 0.01158 0.84016 0.0
C2149 C 0.54934 0.02104 0.85376 0.0
C2150 C 0.56518 0.02795 0.85375 0.0
C2151 C 0.57583 0.02538 0.84055 0.0
H2152 H 0.2652 0.25437 0.37312 0.0
H2153 H 0.28918 0.21514 0.34676 0.0
H2154 H 0.26055 0.23605 0.39619 0.0
H2155 H 0.28544 0.19711 0.37025 0.0
H2156 H 0.26135 0.16406 0.40839 0.0
H2157 H 0.2651 0.18223 0.38493 0.0
H2158 H 0.27462 0.2227 0.41793 0.0
H2159 H 0.27047 0.20455 0.44133 0.0
C2160 C 0.26947 0.24184 0.37221 0.0
C2161 C 0.27754 0.23627 0.35801 0.0
C2162 C 0.26701 0.23137 0.38557 0.0
C2163 C 0.27266 0.21508 0.38516 0.0
C2164 C 0.28074 0.20951 0.37096 0.0
C2165 C 0.2831 0.21994 0.35755 0.0
C2166 C 0.26431 0.17683 0.4106 0.0
C2167 C 0.26559 0.18288 0.4267 0.0
C2168 C 0.26651 0.18725 0.39716 0.0
C2169 C 0.27019 0.20397 0.39949 0.0
C2170 C 0.27152 0.20998 0.41563 0.0
C2171 C 0.26918 0.19958 0.42907 0.0
H2172 H 0.4948 0.50069 0.89029 0.0
H2173 H 0.47976 0.44985 0.89253 0.0
H2174 H 0.47639 0.50501 0.8671 0.0
H2175 H 0.46099 0.45441 0.86968 0.0
H2176 H 0.41653 0.47519 0.84085 0.0
H2177 H 0.43514 0.47075 0.86398 0.0
H2178 H 0.47386 0.49546 0.83757 0.0
H2179 H 0.45522 0.49997 0.81448 0.0
C2180 C 0.48768 0.4904 0.8858 0.0
C2181 C 0.48884 0.4749 0.89333 0.0
C2182 C 0.47709 0.49291 0.87254 0.0
C2183 C 0.46725 0.48006 0.8666 0.0
C2184 C 0.46828 0.4646 0.87414 0.0
C2185 C 0.47901 0.46202 0.88728 0.0
C2186 C 0.42899 0.47972 0.84003 0.0
C2187 C 0.43443 0.48792 0.82587 0.0
C2188 C 0.43967 0.47707 0.8532 0.0
C2189 C 0.45595 0.48276 0.85257 0.0
C2190 C 0.46135 0.49104 0.83844 0.0
C2191 C 0.45073 0.49351 0.82519 0.0
H2192 H 0.75404 0.73791 0.14703 0.0
H2193 H 0.7017 0.73056 0.14278 0.0
H2194 H 0.75842 0.71994 0.12354 0.0
H2195 H 0.70613 0.71199 0.11979 0.0
H2196 H 0.71858 0.69429 0.06819 0.0
H2197 H 0.71449 0.71253 0.0915 0.0
H2198 H 0.75683 0.69154 0.11547 0.0
H2199 H 0.76139 0.67384 0.09181 0.0
C2200 C 0.74346 0.73246 0.1411 0.0
C2201 C 0.72751 0.73574 0.1468 0.0
C2202 C 0.74599 0.72199 0.12774 0.0
C2203 C 0.73263 0.7145 0.11975 0.0
C2204 C 0.7167 0.71769 0.12552 0.0
C2205 C 0.71417 0.72819 0.13885 0.0
C2206 C 0.72714 0.69369 0.07834 0.0
C2207 C 0.74034 0.6826 0.07808 0.0
C2208 C 0.72466 0.70401 0.09182 0.0
C2209 C 0.7353 0.70349 0.10541 0.0
C2210 C 0.74849 0.6924 0.10515 0.0
C2211 C 0.75099 0.68209 0.09166 0.0
H2212 H 0.96615 0.02979 0.09625 0.0
H2213 H 0.00763 0.02945 0.12921 0.0
H2214 H 0.9477 0.0254 0.11937 0.0
H2215 H 0.98921 0.02543 0.15243 0.0
H2216 H 0.95321 0.0018 0.18823 0.0
H2217 H 0.97164 0.00573 0.16499 0.0
H2218 H 0.9366 0.03877 0.14285 0.0
H2219 H 0.91808 0.03452 0.16594 0.0
C2220 C 0.9713 0.02893 0.10847 0.0
C2221 C 0.98834 0.02996 0.1109 0.0
C2222 C 0.96073 0.02646 0.12175 0.0
C2223 C 0.96693 0.02508 0.13782 0.0
C2224 C 0.984 0.02614 0.14022 0.0
C2225 C 0.99457 0.02849 0.12692 0.0
C2226 C 0.94951 0.00997 0.17843 0.0
C2227 C 0.9342 0.01785 0.17891 0.0
C2228 C 0.96008 0.01226 0.16511 0.0
C2229 C 0.95564 0.02258 0.152 0.0
C2230 C 0.94033 0.03051 0.15255 0.0
C2231 C 0.92971 0.02812 0.16581 0.0
H2232 H 0.29008 0.78772 0.15616 0.0
H2233 H 0.26504 0.74897 0.12989 0.0
H2234 H 0.28595 0.80607 0.13291 0.0
H2235 H 0.26057 0.76752 0.10686 0.0
H2236 H 0.24034 0.81172 0.0776 0.0
H2237 H 0.2447 0.79316 0.10064 0.0
H2238 H 0.29526 0.80867 0.10367 0.0
H2239 H 0.2911 0.82694 0.08036 0.0
C2240 C 0.28381 0.78305 0.14541 0.0
C2241 C 0.27792 0.76681 0.14495 0.0
C2242 C 0.2814 0.7936 0.13211 0.0
C2243 C 0.27292 0.78824 0.11807 0.0
C2244 C 0.26696 0.77206 0.1176 0.0
C2245 C 0.2695 0.76146 0.13084 0.0
C2246 C 0.25246 0.81105 0.08301 0.0
C2247 C 0.26536 0.82087 0.07706 0.0
C2248 C 0.25492 0.80044 0.09626 0.0
C2249 C 0.27031 0.79948 0.10397 0.0
C2250 C 0.2832 0.80931 0.09811 0.0
C2251 C 0.28078 0.81982 0.08477 0.0
H2252 H 0.03758 0.47743 0.09524 0.0
H2253 H 0.99674 0.47227 0.12852 0.0
H2254 H 0.05594 0.48206 0.11841 0.0
H2255 H 0.01511 0.47642 0.15179 0.0
H2256 H 0.04936 0.50071 0.1888 0.0
H2257 H 0.03097 0.4965 0.16556 0.0
H2258 H 0.06873 0.46872 0.14078 0.0
H2259 H 0.0872 0.47339 0.16385 0.0
C2260 C 0.03257 0.47712 0.10754 0.0
C2261 C 0.01573 0.4745 0.11007 0.0
C2262 C 0.0431 0.47972 0.12085 0.0
C2263 C 0.03706 0.47959 0.13703 0.0
C2264 C 0.02018 0.4769 0.13952 0.0
C2265 C 0.00964 0.47447 0.12619 0.0
C2266 C 0.05367 0.49364 0.1784 0.0
C2267 C 0.06972 0.4874 0.17813 0.0
C2268 C 0.04312 0.49117 0.16509 0.0
C2269 C 0.04832 0.48225 0.15124 0.0
C2270 C 0.06437 0.47591 0.15107 0.0
C2271 C 0.07497 0.47853 0.16432 0.0
H2272 H 0.37364 0.73735 0.24964 0.0
H2273 H 0.34611 0.71614 0.28969 0.0
H2274 H 0.39689 0.74172 0.26797 0.0
H2275 H 0.36951 0.72023 0.3079 0.0
H2276 H 0.42148 0.71359 0.32951 0.0
H2277 H 0.39794 0.70964 0.31148 0.0
H2278 H 0.40435 0.7586 0.29235 0.0
H2279 H 0.42771 0.76274 0.3106 0.0
C2280 C 0.37247 0.73374 0.26237 0.0
C2281 C 0.35795 0.72639 0.26816 0.0
C2282 C 0.38582 0.73622 0.27286 0.0
C2283 C 0.38504 0.7313 0.28937 0.0
C2284 C 0.37057 0.72394 0.29518 0.0
C2285 C 0.35717 0.72157 0.28472 0.0
C2286 C 0.41778 0.72361 0.32162 0.0
C2287 C 0.42653 0.7385 0.32155 0.0
C2288 C 0.40429 0.72131 0.31126 0.0
C2289 C 0.39929 0.7338 0.30048 0.0
C2290 C 0.40804 0.74867 0.30036 0.0
C2291 C 0.42146 0.75101 0.3108 0.0
H2292 H 0.97448 0.37483 0.00685 0.0
H2293 H 0.9772 0.40806 0.96572 0.0
H2294 H 0.97879 0.35165 0.98845 0.0
H2295 H 0.98195 0.38497 0.94731 0.0
H2296 H 0.97338 0.33899 0.91665 0.0
H2297 H 0.96878 0.36205 0.93513 0.0
H2298 H 0.99885 0.33855 0.97195 0.0
H2299 H 0.00304 0.31531 0.95357 0.0
C2300 C 0.97618 0.37717 0.99388 0.0
C2301 C 0.97548 0.39326 0.98773 0.0
C2302 C 0.9787 0.36389 0.98332 0.0
C2303 C 0.98074 0.36639 0.96635 0.0
C2304 C 0.98013 0.38252 0.96024 0.0
C2305 C 0.97746 0.39578 0.97079 0.0
C2306 C 0.97905 0.33881 0.92868 0.0
C2307 C 0.98855 0.32534 0.93367 0.0
C2308 C 0.97647 0.35206 0.93927 0.0
C2309 C 0.98345 0.35223 0.95507 0.0
C2310 C 0.99303 0.33874 0.96001 0.0
C2311 C 0.99548 0.32543 0.94946 0.0
H2312 H 0.63325 0.75977 0.25225 0.0
H2313 H 0.65246 0.79639 0.28554 0.0
H2314 H 0.61051 0.75483 0.27079 0.0
H2315 H 0.62897 0.79243 0.3034 0.0
H2316 H 0.59364 0.7706 0.34051 0.0
H2317 H 0.6171 0.77459 0.32239 0.0
H2318 H 0.58589 0.76583 0.28031 0.0
H2319 H 0.5627 0.76114 0.29858 0.0
C2320 C 0.63266 0.7668 0.26351 0.0
C2321 C 0.64482 0.77846 0.26734 0.0
C2322 C 0.6194 0.76415 0.27406 0.0
C2323 C 0.61776 0.77326 0.28864 0.0
C2324 C 0.62987 0.78499 0.29243 0.0
C2325 C 0.64326 0.78747 0.28199 0.0
C2326 C 0.59186 0.76955 0.32737 0.0
C2327 C 0.57639 0.76553 0.32094 0.0
C2328 C 0.60528 0.77192 0.31695 0.0
C2329 C 0.60348 0.77057 0.2998 0.0
C2330 C 0.5879 0.76665 0.29342 0.0
C2331 C 0.57455 0.76404 0.30387 0.0
H2332 H 0.03174 0.12988 0.00812 0.0
H2333 H 0.0274 0.09637 0.96732 0.0
H2334 H 0.02755 0.153 0.98961 0.0
H2335 H 0.02274 0.11938 0.94882 0.0
H2336 H 0.03144 0.16472 0.91749 0.0
H2337 H 0.0361 0.14184 0.93615 0.0
H2338 H 0.0075 0.16646 0.97341 0.0
H2339 H 0.00326 0.18951 0.95482 0.0
C2340 C 0.02972 0.12747 0.9952 0.0
C2341 C 0.02993 0.11132 0.98916 0.0
C2342 C 0.02726 0.14071 0.98458 0.0
C2343 C 0.0248 0.13812 0.96767 0.0
C2344 C 0.02491 0.12191 0.96169 0.0
C2345 C 0.02752 0.10869 0.97229 0.0
C2346 C 0.0261 0.16519 0.92965 0.0
C2347 C 0.01699 0.1789 0.93469 0.0
C2348 C 0.02872 0.15205 0.94035 0.0
C2349 C 0.02215 0.15223 0.95632 0.0
C2350 C 0.013 0.16598 0.96133 0.0
C2351 C 0.01052 0.17919 0.95067 0.0
H2352 H 0.34868 0.25739 0.22447 0.0
H2353 H 0.37305 0.29934 0.2457 0.0
H2354 H 0.37171 0.25335 0.20584 0.0
H2355 H 0.39649 0.29496 0.22767 0.0
H2356 H 0.42942 0.29287 0.1832 0.0
H2357 H 0.40575 0.2971 0.20071 0.0
H2358 H 0.39887 0.24461 0.20412 0.0
H2359 H 0.42168 0.24044 0.18547 0.0
C2360 C 0.35909 0.26563 0.22524 0.0
C2361 C 0.35909 0.27869 0.23648 0.0
C2362 C 0.37236 0.26329 0.21463 0.0
C2363 C 0.38608 0.2738 0.21518 0.0
C2364 C 0.38606 0.2868 0.22659 0.0
C2365 C 0.37267 0.28929 0.23701 0.0
C2366 C 0.4227 0.28221 0.18741 0.0
C2367 C 0.42754 0.2663 0.18279 0.0
C2368 C 0.40923 0.28464 0.19773 0.0
C2369 C 0.40033 0.27121 0.20397 0.0
C2370 C 0.40522 0.25529 0.19942 0.0
C2371 C 0.41854 0.25288 0.1889 0.0
H2372 H 0.52815 0.40913 0.03725 0.0
H2373 H 0.53234 0.37536 0.99663 0.0
H2374 H 0.52366 0.3861 0.05594 0.0
H2375 H 0.52771 0.35234 0.0153 0.0
H2376 H 0.53798 0.31581 0.05766 0.0
H2377 H 0.5424 0.33866 0.03886 0.0
H2378 H 0.50191 0.36466 0.06088 0.0
H2379 H 0.49712 0.34167 0.07938 0.0
C2380 C 0.52816 0.39678 0.03234 0.0
C2381 C 0.5306 0.39404 0.01549 0.0
C2382 C 0.52546 0.38362 0.04301 0.0
C2383 C 0.52533 0.36743 0.03708 0.0
C2384 C 0.52787 0.36468 0.02024 0.0
C2385 C 0.53038 0.37785 0.00954 0.0
C2386 C 0.52986 0.32628 0.05838 0.0
C2387 C 0.51717 0.32683 0.07009 0.0
C2388 C 0.53244 0.3394 0.04763 0.0
C2389 C 0.52252 0.35345 0.04842 0.0
C2390 C 0.5099 0.35407 0.06013 0.0
C2391 C 0.5072 0.3409 0.07077 0.0
H2392 H 0.65174 0.25019 0.23153 0.0
H2393 H 0.63487 0.20078 0.24051 0.0
H2394 H 0.62874 0.25466 0.21293 0.0
H2395 H 0.61168 0.20529 0.22216 0.0
H2396 H 0.5815 0.21306 0.17584 0.0
H2397 H 0.60491 0.20879 0.19387 0.0
H2398 H 0.59964 0.25812 0.21255 0.0
H2399 H 0.57681 0.26271 0.19385 0.0
C2400 C 0.64302 0.24034 0.22964 0.0
C2401 C 0.64513 0.22513 0.23747 0.0
C2402 C 0.6298 0.2429 0.219 0.0
C2403 C 0.61831 0.23035 0.21602 0.0
C2404 C 0.62042 0.21515 0.22392 0.0
C2405 C 0.6337 0.21256 0.23447 0.0
C2406 C 0.58546 0.22309 0.18362 0.0
C2407 C 0.57725 0.23825 0.18333 0.0
C2408 C 0.59877 0.22055 0.19415 0.0
C2409 C 0.60418 0.23309 0.20473 0.0
C2410 C 0.59596 0.24825 0.20445 0.0
C2411 C 0.58269 0.2508 0.19387 0.0
H2412 H 0.45108 0.10831 0.02849 0.0
H2413 H 0.49943 0.11549 0.0079 0.0
H2414 H 0.45581 0.13086 0.04735 0.0
H2415 H 0.50358 0.13893 0.02577 0.0
H2416 H 0.5135 0.17023 0.07039 0.0
H2417 H 0.50889 0.14672 0.05274 0.0
H2418 H 0.4575 0.1593 0.04929 0.0
H2419 H 0.46183 0.18197 0.0681 0.0
C2420 C 0.46273 0.11468 0.02794 0.0
C2421 C 0.47487 0.10994 0.01662 0.0
C2422 C 0.46534 0.12786 0.03861 0.0
C2423 C 0.48008 0.13686 0.03814 0.0
C2424 C 0.49217 0.1322 0.02674 0.0
C2425 C 0.48966 0.11886 0.01623 0.0
C2426 C 0.50113 0.16785 0.06615 0.0
C2427 C 0.48805 0.17809 0.07081 0.0
C2428 C 0.49853 0.15446 0.05573 0.0
C2429 C 0.48281 0.15104 0.04944 0.0
C2430 C 0.46974 0.16133 0.05402 0.0
C2431 C 0.4723 0.17457 0.06464 0.0
H2432 H 0.28934 0.34639 0.71597 0.0
H2433 H 0.25008 0.37304 0.73959 0.0
H2434 H 0.30758 0.36978 0.71998 0.0
H2435 H 0.26849 0.39625 0.7439 0.0
H2436 H 0.31196 0.42685 0.76373 0.0
H2437 H 0.29369 0.40344 0.75989 0.0
H2438 H 0.31029 0.39857 0.70983 0.0
H2439 H 0.32829 0.42219 0.71348 0.0
C2440 C 0.28455 0.35724 0.72193 0.0
C2441 C 0.26819 0.35779 0.72742 0.0
C2442 C 0.29503 0.37064 0.72426 0.0
C2443 C 0.28947 0.38486 0.73225 0.0
C2444 C 0.27319 0.38538 0.73789 0.0
C2445 C 0.26266 0.37204 0.73545 0.0
C2446 C 0.31159 0.42093 0.75183 0.0
C2447 C 0.32164 0.42646 0.73892 0.0
C2448 C 0.30114 0.40748 0.74966 0.0
C2449 C 0.30057 0.39915 0.73457 0.0
C2450 C 0.31063 0.4046 0.72168 0.0
C2451 C 0.32099 0.41812 0.7238 0.0
H2452 H 0.28778 0.6542 0.79379 0.0
H2453 H 0.2528 0.63289 0.75996 0.0
H2454 H 0.30586 0.63075 0.7897 0.0
H2455 H 0.27132 0.60988 0.7554 0.0
H2456 H 0.31881 0.58241 0.73899 0.0
H2457 H 0.30046 0.60562 0.74318 0.0
H2458 H 0.3044 0.59946 0.79561 0.0
H2459 H 0.32214 0.57576 0.79156 0.0
C2460 C 0.28386 0.64453 0.78556 0.0
C2461 C 0.26873 0.64551 0.77725 0.0
C2462 C 0.29429 0.63114 0.78317 0.0
C2463 C 0.28999 0.61854 0.77223 0.0
C2464 C 0.27501 0.61954 0.76377 0.0
C2465 C 0.26445 0.63279 0.76635 0.0
C2466 C 0.31561 0.58577 0.75143 0.0
C2467 C 0.32202 0.57708 0.76492 0.0
C2468 C 0.30515 0.59915 0.7538 0.0
C2469 C 0.30105 0.60433 0.76971 0.0
C2470 C 0.30753 0.59582 0.78321 0.0
C2471 C 0.31778 0.58228 0.78085 0.0
H2472 H 0.87472 0.50668 0.47432 0.0
H2473 H 0.90778 0.46555 0.4781 0.0
H2474 H 0.85139 0.48835 0.47829 0.0
H2475 H 0.88456 0.44722 0.48255 0.0
H2476 H 0.8389 0.41639 0.47358 0.0
H2477 H 0.86197 0.4349 0.4691 0.0
H2478 H 0.83774 0.47207 0.49813 0.0
H2479 H 0.81449 0.45366 0.50216 0.0
C2480 C 0.87699 0.49373 0.47618 0.0
C2481 C 0.89306 0.48755 0.47587 0.0
C2482 C 0.86363 0.4832 0.47851 0.0
C2483 C 0.86603 0.46625 0.48075 0.0
C2484 C 0.88217 0.46013 0.48055 0.0
C2485 C 0.89551 0.47064 0.47806 0.0
C2486 C 0.83856 0.42851 0.47904 0.0
C2487 C 0.8249 0.43358 0.48822 0.0
C2488 C 0.85181 0.43912 0.47652 0.0
C2489 C 0.8518 0.45501 0.48328 0.0
C2490 C 0.83809 0.46005 0.49249 0.0
C2491 C 0.82477 0.44948 0.49486 0.0
H2492 H 0.71779 0.85032 0.79556 0.0
H2493 H 0.752 0.87084 0.76053 0.0
H2494 H 0.69974 0.8738 0.79152 0.0
H2495 H 0.73346 0.89383 0.756 0.0
H2496 H 0.68537 0.92082 0.74016 0.0
H2497 H 0.70376 0.89765 0.74441 0.0
H2498 H 0.70174 0.90543 0.79673 0.0
H2499 H 0.68401 0.92911 0.7926 0.0
C2500 C 0.72156 0.85982 0.78707 0.0
C2501 C 0.73646 0.85859 0.77841 0.0
C2502 C 0.71114 0.87322 0.78471 0.0
C2503 C 0.71521 0.88558 0.77343 0.0
C2504 C 0.72995 0.88435 0.76464 0.0
C2505 C 0.74053 0.8711 0.76719 0.0
C2506 C 0.68901 0.91783 0.75258 0.0
C2507 C 0.68314 0.92698 0.76602 0.0
C2508 C 0.69948 0.90447 0.75499 0.0
C2509 C 0.70413 0.89976 0.77089 0.0
C2510 C 0.69819 0.90871 0.78434 0.0
C2511 C 0.68794 0.92224 0.78194 0.0
H2512 H 0.59629 0.53765 0.978 0.0
H2513 H 0.63016 0.49759 0.97094 0.0
H2514 H 0.61933 0.55633 0.98266 0.0
H2515 H 0.6532 0.51625 0.97571 0.0
H2516 H 0.68911 0.5594 0.96628 0.0
H2517 H 0.66625 0.54063 0.96166 0.0
H2518 H 0.64141 0.5604 0.00403 0.0
H2519 H 0.66443 0.57886 0.00901 0.0
C2520 C 0.60866 0.53287 0.97739 0.0
C2521 C 0.61144 0.51617 0.9741 0.0
C2522 C 0.62183 0.54352 0.98018 0.0
C2523 C 0.63806 0.53774 0.97955 0.0
C2524 C 0.64083 0.52107 0.97615 0.0
C2525 C 0.62766 0.51037 0.97356 0.0
C2526 C 0.6789 0.55963 0.97476 0.0
C2527 C 0.67868 0.5707 0.98803 0.0
C2528 C 0.66577 0.54889 0.97207 0.0
C2529 C 0.65204 0.54907 0.98247 0.0
C2530 C 0.65175 0.56014 0.99568 0.0
C2531 C 0.66493 0.57076 0.99848 0.0
H2532 H 0.22383 0.65579 0.2477 0.0
H2533 H 0.24507 0.63117 0.20596 0.0
H2534 H 0.20513 0.63278 0.25184 0.0
H2535 H 0.227 0.60776 0.21045 0.0
H2536 H 0.1825 0.57487 0.21254 0.0
H2537 H 0.20005 0.59851 0.20825 0.0
H2538 H 0.20327 0.60568 0.26074 0.0
H2539 H 0.18456 0.58291 0.26495 0.0
C2540 C 0.22459 0.64533 0.23953 0.0
C2541 C 0.23584 0.64525 0.2265 0.0
C2542 C 0.21394 0.63208 0.24193 0.0
C2543 C 0.21449 0.6183 0.2315 0.0
C2544 C 0.22592 0.61824 0.21854 0.0
C2545 C 0.23636 0.63161 0.216 0.0
C2546 C 0.18666 0.58165 0.22318 0.0
C2547 C 0.18198 0.5769 0.23911 0.0
C2548 C 0.19703 0.5951 0.22073 0.0
C2549 C 0.20323 0.60407 0.23413 0.0
C2550 C 0.19861 0.59928 0.25006 0.0
C2551 C 0.18805 0.58597 0.25251 0.0
H2552 H 0.90878 0.53696 0.02543 0.0
H2553 H 0.87536 0.49611 0.03027 0.0
H2554 H 0.88557 0.55539 0.02092 0.0
H2555 H 0.85216 0.51452 0.02562 0.0
H2556 H 0.81554 0.55669 0.03626 0.0
H2557 H 0.83853 0.53806 0.04039 0.0
H2558 H 0.86379 0.56 0.99936 0.0
H2559 H 0.84063 0.57834 0.99484 0.0
C2560 C 0.89647 0.53194 0.02557 0.0
C2561 C 0.89387 0.5151 0.02821 0.0
C2562 C 0.8832 0.54246 0.02285 0.0
C2563 C 0.86706 0.53639 0.02291 0.0
C2564 C 0.86446 0.51956 0.02562 0.0
C2565 C 0.87773 0.50901 0.02815 0.0
C2566 C 0.82586 0.55742 0.02794 0.0
C2567 C 0.82615 0.56907 0.01519 0.0
C2568 C 0.83907 0.54677 0.03036 0.0
C2569 C 0.85296 0.5476 0.02021 0.0
C2570 C 0.85333 0.55923 0.00751 0.0
C2571 C 0.84005 0.56978 0.00497 0.0
H2572 H 0.12884 0.00696 0.03395 0.0
H2573 H 0.09506 0.96721 0.02469 0.0
H2574 H 0.1519 0.98841 0.0298 0.0
H2575 H 0.11805 0.9487 0.01995 0.0
H2576 H 0.16238 0.91594 0.02837 0.0
H2577 H 0.13945 0.9345 0.03314 0.0
H2578 H 0.16645 0.9737 0.00967 0.0
H2579 H 0.18953 0.9552 0.00546 0.0
C2580 C 0.12637 0.99427 0.03085 0.0
C2581 C 0.11016 0.98852 0.02966 0.0
C2582 C 0.13959 0.98362 0.0284 0.0
C2583 C 0.13691 0.967 0.0245 0.0
C2584 C 0.12064 0.96132 0.02323 0.0
C2585 C 0.10743 0.97193 0.02588 0.0
C2586 C 0.16336 0.92853 0.02421 0.0
C2587 C 0.17775 0.93414 0.01657 0.0
C2588 C 0.15019 0.93917 0.02687 0.0
C2589 C 0.15101 0.95566 0.02178 0.0
C2590 C 0.16543 0.9612 0.01405 0.0
C2591 C 0.17867 0.9506 0.01157 0.0
loop_
_geom_bond_atom_site_label_1
_geom_bond_atom_site_label_2
_geom_bond_distance
_geom_bond_site_symmetry_2
_ccdc_geom_bond_type
C0 C1 1.384 . S
C0 H13 0.947 . S
C0 C35 1.382 . S
C1 C0 1.384 . S
C1 C2 1.378 1_655 S
C2 C1 1.378 1_455 S
C2 C3 1.378 . S
C2 H14 0.952 . S
C3 C2 1.378 . S
C3 H15 0.950 . S
C3 C34 1.383 . S
H4 C23 0.947 . S
H5 C24 0.946 . S
H6 C26 0.953 . S
H7 C27 0.945 . S
H8 C29 0.952 . S
H9 C30 0.949 . S
H10 C32 0.950 . S
H11 C33 0.948 . S
H12 C35 0.951 . S
H13 C0 0.947 . S
H14 C2 0.952 . S
H15 C3 0.950 . S
N16 C19 1.382 . S
N16 C21 1.363 . S
N17 C19 1.371 . S
N17 C20 1.372 . S
N18 C20 1.361 . S
N18 C21 1.377 . S
C19 N16 1.382 . S
C19 N17 1.371 . S
C19 C22 1.480 . S
C20 N17 1.372 . S
C20 N18 1.361 . S
C20 C28 1.457 . S
C21 N16 1.363 . S
C21 N18 1.377 . S
C21 C34 1.479 . S
C22 C19 1.480 . S
C22 C23 1.383 1_545 S
C22 C27 1.385 . S
C23 H4 0.947 . S
C23 C22 1.383 1_565 S
C23 C24 1.388 . S
C24 H5 0.946 . S
C24 C23 1.388 . S
C24 C25 1.384 . S
C25 C24 1.384 . S
C25 C26 1.377 1_565 S
C26 H6 0.953 . S
C26 C25 1.377 1_545 S
C26 C27 1.369 . S
C27 H7 0.945 . S
C27 C22 1.385 . S
C27 C26 1.369 . S
C28 C20 1.457 . S
C28 C29 1.372 1_554 S
C28 C33 1.364 . S
C29 H8 0.952 . S
C29 C28 1.372 1_556 S
C29 C30 1.389 . S
C30 H9 0.949 . S
C30 C29 1.389 . S
C30 C31 1.387 . S
C31 C30 1.387 . S
C31 C32 1.372 1_556 S
C32 H10 0.950 . S
C32 C31 1.372 1_554 S
C32 C33 1.379 . S
C33 H11 0.948 . S
C33 C28 1.364 . S
C33 C32 1.379 . S
C34 C3 1.383 . S
C34 C21 1.479 . S
C34 C35 1.398 1_455 S
C35 C0 1.382 . S
C35 H12 0.951 . S
C35 C34 1.398 1_655 S
C36 C37 1.384 . S
C36 H49 0.947 . S
C36 C71 1.382 . S
C37 C36 1.384 . S
C37 C38 1.378 . S
C38 C37 1.378 . S
C38 C39 1.378 . S
C38 H50 0.952 . S
C39 C38 1.378 . S
C39 H51 0.950 . S
C39 C70 1.383 . S
H40 C59 0.947 . S
H41 C60 0.946 . S
H42 C62 0.953 . S
H43 C63 0.945 . S
H44 C65 0.952 . S
H45 C66 0.949 . S
H46 C68 0.950 . S
H47 C69 0.948 . S
H48 C71 0.951 . S
H49 C36 0.947 . S
H50 C38 0.952 . S
H51 C39 0.950 . S
N52 C55 1.382 . S
N52 C57 1.363 . S
N53 C55 1.371 . S
N53 C56 1.372 . S
N54 C56 1.361 . S
N54 C57 1.377 . S
C55 N52 1.382 . S
C55 N53 1.371 . S
C55 C58 1.480 . S
C56 N53 1.372 . S
C56 N54 1.361 . S
C56 C64 1.457 . S
C57 N52 1.363 . S
C57 N54 1.377 . S
C57 C70 1.479 . S
C58 C55 1.480 . S
C58 C59 1.383 . S
C58 C63 1.385 . S
C59 H40 0.947 . S
C59 C58 1.383 . S
C59 C60 1.388 . S
C60 H41 0.946 . S
C60 C59 1.388 . S
C60 C61 1.384 . S
C61 C60 1.384 . S
C61 C62 1.377 . S
C62 H42 0.953 . S
C62 C61 1.377 . S
C62 C63 1.369 . S
C63 H43 0.945 . S
C63 C58 1.385 . S
C63 C62 1.369 . S
C64 C56 1.457 . S
C64 C65 1.372 . S
C64 C69 1.364 . S
C65 H44 0.952 . S
C65 C64 1.372 . S
C65 C66 1.389 . S
C66 H45 0.949 . S
C66 C65 1.389 . S
C66 C67 1.387 . S
C67 C66 1.387 . S
C67 C68 1.372 . S
C68 H46 0.950 . S
C68 C67 1.372 . S
C68 C69 1.379 . S
C69 H47 0.948 . S
C69 C64 1.364 . S
C69 C68 1.379 . S
C70 C39 1.383 . S
C70 C57 1.479 . S
C70 C71 1.398 . S
C71 C36 1.382 . S
C71 H48 0.951 . S
C71 C70 1.398 . S
C72 C73 1.384 1_554 S
C72 H85 0.947 . S
C72 C107 1.382 . S
C73 C72 1.384 1_556 S
C73 C74 1.378 . S
C74 C73 1.378 . S
C74 C75 1.378 . S
C74 H86 0.952 . S
C75 C74 1.378 . S
C75 H87 0.950 . S
C75 C106 1.383 1_556 S
H76 C95 0.947 . S
H77 C96 0.946 . S
H78 C98 0.953 . S
H79 C99 0.945 . S
H80 C101 0.952 . S
H81 C102 0.949 . S
H82 C104 0.950 . S
H83 C105 0.948 . S
H84 C107 0.951 . S
H85 C72 0.947 . S
H86 C74 0.952 . S
H87 C75 0.950 . S
N88 C91 1.382 . S
N88 C93 1.363 . S
N89 C91 1.371 . S
N89 C92 1.372 . S
N90 C92 1.361 . S
N90 C93 1.377 . S
C91 N88 1.382 . S
C91 N89 1.371 . S
C91 C94 1.480 . S
C92 N89 1.372 . S
C92 N90 1.361 . S
C92 C100 1.457 . S
C93 N88 1.363 . S
C93 N90 1.377 . S
C93 C106 1.479 . S
C94 C91 1.480 . S
C94 C95 1.383 . S
C94 C99 1.385 . S
C95 H76 0.947 . S
C95 C94 1.383 . S
C95 C96 1.388 . S
C96 H77 0.946 . S
C96 C95 1.388 . S
C96 C97 1.384 . S
C97 C96 1.384 . S
C97 C98 1.377 . S
C98 H78 0.953 . S
C98 C97 1.377 . S
C98 C99 1.369 . S
C99 H79 0.945 . S
C99 C94 1.385 . S
C99 C98 1.369 . S
C100 C92 1.457 . S
C100 C101 1.372 . S
C100 C105 1.364 1_655 S
C101 H80 0.952 . S
C101 C100 1.372 . S
C101 C102 1.389 . S
C102 H81 0.949 . S
C102 C101 1.389 . S
C102 C103 1.387 1_655 S
C103 C102 1.387 1_455 S
C103 C104 1.372 . S
C104 H82 0.950 . S
C104 C103 1.372 . S
C104 C105 1.379 . S
C105 H83 0.948 . S
C105 C100 1.364 1_455 S
C105 C104 1.379 . S
C106 C75 1.383 1_554 S
C106 C93 1.479 . S
C106 C107 1.398 . S
C107 C72 1.382 . S
C107 H84 0.951 . S
C107 C106 1.398 . S
C108 C109 1.384 . S
C108 H121 0.947 . S
C108 C143 1.382 . S
C109 C108 1.384 . S
C109 C110 1.378 . S
C110 C109 1.378 . S
C110 C111 1.378 . S
C110 H122 0.952 . S
C111 C110 1.378 . S
C111 H123 0.950 . S
C111 C142 1.383 . S
H112 C131 0.947 . S
H113 C132 0.946 . S
H114 C134 0.953 . S
H115 C135 0.945 . S
H116 C137 0.952 . S
H117 C138 0.949 . S
H118 C140 0.950 . S
H119 C141 0.948 . S
H120 C143 0.951 . S
H121 C108 0.947 . S
H122 C110 0.952 . S
H123 C111 0.950 . S
N124 C127 1.382 . S
N124 C129 1.363 . S
N125 C127 1.371 . S
N125 C128 1.372 . S
N126 C128 1.361 . S
N126 C129 1.377 . S
C127 N124 1.382 . S
C127 N125 1.371 . S
C127 C130 1.480 . S
C128 N125 1.372 . S
C128 N126 1.361 . S
C128 C136 1.457 . S
C129 N124 1.363 . S
C129 N126 1.377 . S
C129 C142 1.479 . S
C130 C127 1.480 . S
C130 C131 1.383 . S
C130 C135 1.385 . S
C131 H112 0.947 . S
C131 C130 1.383 . S
C131 C132 1.388 . S
C132 H113 0.946 . S
C132 C131 1.388 . S
C132 C133 1.384 . S
C133 C132 1.384 . S
C133 C134 1.377 . S
C134 H114 0.953 . S
C134 C133 1.377 . S
C134 C135 1.369 . S
C135 H115 0.945 . S
C135 C130 1.385 . S
C135 C134 1.369 . S
C136 C128 1.457 . S
C136 C137 1.372 . S
C136 C141 1.364 . S
C137 H116 0.952 . S
C137 C136 1.372 . S
C137 C138 1.389 . S
C138 H117 0.949 . S
C138 C137 1.389 . S
C138 C139 1.387 . S
C139 C138 1.387 . S
C139 C140 1.372 . S
C140 H118 0.950 . S
C140 C139 1.372 . S
C140 C141 1.379 . S
C141 H119 0.948 . S
C141 C136 1.364 . S
C141 C140 1.379 . S
C142 C111 1.383 . S
C142 C129 1.479 . S
C142 C143 1.398 . S
C143 C108 1.382 . S
C143 H120 0.951 . S
C143 C142 1.398 . S
C144 C145 1.384 . S
C144 H157 0.947 . S
C144 C179 1.382 . S
C145 C144 1.384 . S
C145 C146 1.378 . S
C146 C145 1.378 . S
C146 C147 1.378 . S
C146 H158 0.952 . S
C147 C146 1.378 . S
C147 H159 0.950 . S
C147 C178 1.383 . S
H148 C167 0.947 . S
H149 C168 0.946 . S
H150 C170 0.953 . S
H151 C171 0.945 . S
H152 C173 0.952 . S
H153 C174 0.949 . S
H154 C176 0.950 . S
H155 C177 0.948 . S
H156 C179 0.951 . S
H157 C144 0.947 . S
H158 C146 0.952 . S
H159 C147 0.950 . S
N160 C163 1.382 . S
N160 C165 1.363 . S
N161 C163 1.371 . S
N161 C164 1.372 . S
N162 C164 1.361 . S
N162 C165 1.377 . S
C163 N160 1.382 . S
C163 N161 1.371 . S
C163 C166 1.480 . S
C164 N161 1.372 . S
C164 N162 1.361 . S
C164 C172 1.457 . S
C165 N160 1.363 . S
C165 N162 1.377 . S
C165 C178 1.479 . S
C166 C163 1.480 . S
C166 C167 1.383 1_455 S
C166 C171 1.385 . S
C167 H148 0.947 . S
C167 C166 1.383 1_655 S
C167 C168 1.388 . S
C168 H149 0.946 . S
C168 C167 1.388 . S
C168 C169 1.384 . S
C169 C168 1.384 . S
C169 C170 1.377 1_655 S
C170 H150 0.953 . S
C170 C169 1.377 1_455 S
C170 C171 1.369 . S
C171 H151 0.945 . S
C171 C166 1.385 . S
C171 C170 1.369 . S
C172 C164 1.457 . S
C172 C173 1.372 1_565 S
C172 C177 1.364 . S
C173 H152 0.952 . S
C173 C172 1.372 1_545 S
C173 C174 1.389 . S
C174 H153 0.949 . S
C174 C173 1.389 . S
C174 C175 1.387 . S
C175 C174 1.387 . S
C175 C176 1.372 1_545 S
C176 H154 0.950 . S
C176 C175 1.372 1_565 S
C176 C177 1.379 . S
C177 H155 0.948 . S
C177 C172 1.364 . S
C177 C176 1.379 . S
C178 C147 1.383 . S
C178 C165 1.479 . S
C178 C179 1.398 . S
C179 C144 1.382 . S
C179 H156 0.951 . S
C179 C178 1.398 . S
C180 C181 1.384 . S
C180 H193 0.947 . S
C180 C215 1.382 . S
C181 C180 1.384 . S
C181 C182 1.378 . S
C182 C181 1.378 . S
C182 C183 1.378 . S
C182 H194 0.952 . S
C183 C182 1.378 . S
C183 H195 0.950 . S
C183 C214 1.383 . S
H184 C203 0.947 . S
H185 C204 0.946 . S
H186 C206 0.953 . S
H187 C207 0.945 . S
H188 C209 0.952 . S
H189 C210 0.949 . S
H190 C212 0.950 . S
H191 C213 0.948 . S
H192 C215 0.951 . S
H193 C180 0.947 . S
H194 C182 0.952 . S
H195 C183 0.950 . S
N196 C199 1.382 . S
N196 C201 1.363 . S
N197 C199 1.371 . S
N197 C200 1.372 . S
N198 C200 1.361 . S
N198 C201 1.377 . S
C199 N196 1.382 . S
C199 N197 1.371 . S
C199 C202 1.480 . S
C200 N197 1.372 . S
C200 N198 1.361 . S
C200 C208 1.457 . S
C201 N196 1.363 . S
C201 N198 1.377 . S
C201 C214 1.479 . S
C202 C199 1.480 . S
C202 C203 1.383 . S
C202 C207 1.385 . S
C203 H184 0.947 . S
C203 C202 1.383 . S
C203 C204 1.388 . S
C204 H185 0.946 . S
C204 C203 1.388 . S
C204 C205 1.384 . S
C205 C204 1.384 . S
C205 C206 1.377 . S
C206 H186 0.953 . S
C206 C205 1.377 . S
C206 C207 1.369 . S
C207 H187 0.945 . S
C207 C202 1.385 . S
C207 C206 1.369 . S
C208 C200 1.457 . S
C208 C209 1.372 . S
C208 C213 1.364 . S
C209 H188 0.952 . S
C209 C208 1.372 . S
C209 C210 1.389 . S
C210 H189 0.949 . S
C210 C209 1.389 . S
C210 C211 1.387 . S
C211 C210 1.387 . S
C211 C212 1.372 . S
C212 H190 0.950 . S
C212 C211 1.372 . S
C212 C213 1.379 . S
C213 H191 0.948 . S
C213 C208 1.364 . S
C213 C212 1.379 . S
C214 C183 1.383 . S
C214 C201 1.479 . S
C214 C215 1.398 . S
C215 C180 1.382 . S
C215 H192 0.951 . S
C215 C214 1.398 . S
C216 C217 1.384 . S
C216 H229 0.947 . S
C216 C251 1.382 . S
C217 C216 1.384 . S
C217 C218 1.378 . S
C218 C217 1.378 . S
C218 C219 1.378 . S
C218 H230 0.952 . S
C219 C218 1.378 . S
C219 H231 0.950 . S
C219 C250 1.383 . S
H220 C239 0.947 . S
H221 C240 0.946 . S
H222 C242 0.953 . S
H223 C243 0.945 . S
H224 C245 0.952 . S
H225 C246 0.949 . S
H226 C248 0.950 . S
H227 C249 0.948 . S
H228 C251 0.951 . S
H229 C216 0.947 . S
H230 C218 0.952 . S
H231 C219 0.950 . S
N232 C235 1.382 . S
N232 C237 1.363 . S
N233 C235 1.371 . S
N233 C236 1.372 . S
N234 C236 1.361 . S
N234 C237 1.377 . S
C235 N232 1.382 . S
C235 N233 1.371 . S
C235 C238 1.480 . S
C236 N233 1.372 . S
C236 N234 1.361 . S
C236 C244 1.457 . S
C237 N232 1.363 . S
C237 N234 1.377 . S
C237 C250 1.479 . S
C238 C235 1.480 . S
C238 C239 1.383 . S
C238 C243 1.385 . S
C239 H220 0.947 . S
C239 C238 1.383 . S
C239 C240 1.388 . S
C240 H221 0.946 . S
C240 C239 1.388 . S
C240 C241 1.384 . S
C241 C240 1.384 . S
C241 C242 1.377 . S
C242 H222 0.953 . S
C242 C241 1.377 . S
C242 C243 1.369 . S
C243 H223 0.945 . S
C243 C238 1.385 . S
C243 C242 1.369 . S
C244 C236 1.457 . S
C244 C245 1.372 . S
C244 C249 1.364 1_655 S
C245 H224 0.952 . S
C245 C244 1.372 . S
C245 C246 1.389 . S
C246 H225 0.949 . S
C246 C245 1.389 . S
C246 C247 1.387 1_655 S
C247 C246 1.387 1_455 S
C247 C248 1.372 . S
C248 H226 0.950 . S
C248 C247 1.372 . S
C248 C249 1.379 . S
C249 H227 0.948 . S
C249 C244 1.364 1_455 S
C249 C248 1.379 . S
C250 C219 1.383 . S
C250 C237 1.479 . S
C250 C251 1.398 . S
C251 C216 1.382 . S
C251 H228 0.951 . S
C251 C250 1.398 . S
C252 C253 1.384 . S
C252 H265 0.947 . S
C252 C287 1.382 . S
C253 C252 1.384 . S
C253 C254 1.378 . S
C254 C253 1.378 . S
C254 C255 1.378 . S
C254 H266 0.952 . S
C255 C254 1.378 . S
C255 H267 0.950 . S
C255 C286 1.383 . S
H256 C275 0.947 . S
H257 C276 0.946 . S
H258 C278 0.953 . S
H259 C279 0.945 . S
H260 C281 0.952 . S
H261 C282 0.949 . S
H262 C284 0.950 . S
H263 C285 0.948 . S
H264 C287 0.951 . S
H265 C252 0.947 . S
H266 C254 0.952 . S
H267 C255 0.950 . S
N268 C271 1.382 . S
N268 C273 1.363 . S
N269 C271 1.371 . S
N269 C272 1.372 . S
N270 C272 1.361 . S
N270 C273 1.377 . S
C271 N268 1.382 . S
C271 N269 1.371 . S
C271 C274 1.480 . S
C272 N269 1.372 . S
C272 N270 1.361 . S
C272 C280 1.457 . S
C273 N268 1.363 . S
C273 N270 1.377 . S
C273 C286 1.479 . S
C274 C271 1.480 . S
C274 C275 1.383 . S
C274 C279 1.385 . S
C275 H256 0.947 . S
C275 C274 1.383 . S
C275 C276 1.388 . S
C276 H257 0.946 . S
C276 C275 1.388 . S
C276 C277 1.384 . S
C277 C276 1.384 . S
C277 C278 1.377 . S
C278 H258 0.953 . S
C278 C277 1.377 . S
C278 C279 1.369 . S
C279 H259 0.945 . S
C279 C274 1.385 . S
C279 C278 1.369 . S
C280 C272 1.457 . S
C280 C281 1.372 . S
C280 C285 1.364 . S
C281 H260 0.952 . S
C281 C280 1.372 . S
C281 C282 1.389 . S
C282 H261 0.949 . S
C282 C281 1.389 . S
C282 C283 1.387 . S
C283 C282 1.387 . S
C283 C284 1.372 . S
C284 H262 0.950 . S
C284 C283 1.372 . S
C284 C285 1.379 . S
C285 H263 0.948 . S
C285 C280 1.364 . S
C285 C284 1.379 . S
C286 C255 1.383 . S
C286 C273 1.479 . S
C286 C287 1.398 . S
C287 C252 1.382 . S
C287 H264 0.951 . S
C287 C286 1.398 . S
C288 C289 1.384 . S
C288 H301 0.947 . S
C288 C323 1.382 . S
C289 C288 1.384 . S
C289 C290 1.378 . S
C290 C289 1.378 . S
C290 C291 1.378 . S
C290 H302 0.952 . S
C291 C290 1.378 . S
C291 H303 0.950 . S
C291 C322 1.383 . S
H292 C311 0.947 . S
H293 C312 0.946 . S
H294 C314 0.953 . S
H295 C315 0.945 . S
H296 C317 0.952 . S
H297 C318 0.949 . S
H298 C320 0.950 . S
H299 C321 0.948 . S
H300 C323 0.951 . S
H301 C288 0.947 . S
H302 C290 0.952 . S
H303 C291 0.950 . S
N304 C307 1.382 . S
N304 C309 1.363 . S
N305 C307 1.371 . S
N305 C308 1.372 . S
N306 C308 1.361 . S
N306 C309 1.377 . S
C307 N304 1.382 . S
C307 N305 1.371 . S
C307 C310 1.480 . S
C308 N305 1.372 . S
C308 N306 1.361 . S
C308 C316 1.457 . S
C309 N304 1.363 . S
C309 N306 1.377 . S
C309 C322 1.479 . S
C310 C307 1.480 . S
C310 C311 1.383 . S
C310 C315 1.385 . S
C311 H292 0.947 . S
C311 C310 1.383 . S
C311 C312 1.388 . S
C312 H293 0.946 . S
C312 C311 1.388 . S
C312 C313 1.384 . S
C313 C312 1.384 . S
C313 C314 1.377 . S
C314 H294 0.953 . S
C314 C313 1.377 . S
C314 C315 1.369 . S
C315 H295 0.945 . S
C315 C310 1.385 . S
C315 C314 1.369 . S
C316 C308 1.457 . S
C316 C317 1.372 . S
C316 C321 1.364 . S
C317 H296 0.952 . S
C317 C316 1.372 . S
C317 C318 1.389 . S
C318 H297 0.949 . S
C318 C317 1.389 . S
C318 C319 1.387 . S
C319 C318 1.387 . S
C319 C320 1.372 . S
C320 H298 0.950 . S
C320 C319 1.372 . S
C320 C321 1.379 . S
C321 H299 0.948 . S
C321 C316 1.364 . S
C321 C320 1.379 . S
C322 C291 1.383 . S
C322 C309 1.479 . S
C322 C323 1.398 . S
C323 C288 1.382 . S
C323 H300 0.951 . S
C323 C322 1.398 . S
C324 C325 1.384 . S
C324 H337 0.947 . S
C324 C359 1.382 . S
C325 C324 1.384 . S
C325 C326 1.378 . S
C326 C325 1.378 . S
C326 C327 1.378 . S
C326 H338 0.952 . S
C327 C326 1.378 . S
C327 H339 0.950 . S
C327 C358 1.383 . S
H328 C347 0.947 . S
H329 C348 0.946 . S
H330 C350 0.953 . S
H331 C351 0.945 . S
H332 C353 0.952 . S
H333 C354 0.949 . S
H334 C356 0.950 . S
H335 C357 0.948 . S
H336 C359 0.951 . S
H337 C324 0.947 . S
H338 C326 0.952 . S
H339 C327 0.950 . S
N340 C343 1.382 . S
N340 C345 1.363 . S
N341 C343 1.371 . S
N341 C344 1.372 . S
N342 C344 1.361 . S
N342 C345 1.377 . S
C343 N340 1.382 . S
C343 N341 1.371 . S
C343 C346 1.480 . S
C344 N341 1.372 . S
C344 N342 1.361 . S
C344 C352 1.457 . S
C345 N340 1.363 . S
C345 N342 1.377 . S
C345 C358 1.479 . S
C346 C343 1.480 . S
C346 C347 1.383 . S
C346 C351 1.385 1_565 S
C347 H328 0.947 . S
C347 C346 1.383 . S
C347 C348 1.388 . S
C348 H329 0.946 . S
C348 C347 1.388 . S
C348 C349 1.384 1_565 S
C349 C348 1.384 1_545 S
C349 C350 1.377 . S
C350 H330 0.953 . S
C350 C349 1.377 . S
C350 C351 1.369 . S
C351 H331 0.945 . S
C351 C346 1.385 1_545 S
C351 C350 1.369 . S
C352 C344 1.457 . S
C352 C353 1.372 . S
C352 C357 1.364 . S
C353 H332 0.952 . S
C353 C352 1.372 . S
C353 C354 1.389 . S
C354 H333 0.949 . S
C354 C353 1.389 . S
C354 C355 1.387 . S
C355 C354 1.387 . S
C355 C356 1.372 . S
C356 H334 0.950 . S
C356 C355 1.372 . S
C356 C357 1.379 . S
C357 H335 0.948 . S
C357 C352 1.364 . S
C357 C356 1.379 . S
C358 C327 1.383 . S
C358 C345 1.479 . S
C358 C359 1.398 . S
C359 C324 1.382 . S
C359 H336 0.951 . S
C359 C358 1.398 . S
C360 C361 1.384 . S
C360 H373 0.947 . S
C360 C395 1.382 . S
C361 C360 1.384 . S
C361 C362 1.378 . S
C362 C361 1.378 . S
C362 C363 1.378 . S
C362 H374 0.952 . S
C363 C362 1.378 . S
C363 H375 0.950 . S
C363 C394 1.383 . S
H364 C383 0.947 . S
H365 C384 0.946 . S
H366 C386 0.953 . S
H367 C387 0.945 . S
H368 C389 0.952 . S
H369 C390 0.949 . S
H370 C392 0.950 . S
H371 C393 0.948 . S
H372 C395 0.951 . S
H373 C360 0.947 . S
H374 C362 0.952 . S
H375 C363 0.950 . S
N376 C379 1.382 . S
N376 C381 1.363 . S
N377 C379 1.371 . S
N377 C380 1.372 . S
N378 C380 1.361 . S
N378 C381 1.377 . S
C379 N376 1.382 . S
C379 N377 1.371 . S
C379 C382 1.480 . S
C380 N377 1.372 . S
C380 N378 1.361 . S
C380 C388 1.457 . S
C381 N376 1.363 . S
C381 N378 1.377 . S
C381 C394 1.479 . S
C382 C379 1.480 . S
C382 C383 1.383 . S
C382 C387 1.385 . S
C383 H364 0.947 . S
C383 C382 1.383 . S
C383 C384 1.388 . S
C384 H365 0.946 . S
C384 C383 1.388 . S
C384 C385 1.384 . S
C385 C384 1.384 . S
C385 C386 1.377 . S
C386 H366 0.953 . S
C386 C385 1.377 . S
C386 C387 1.369 . S
C387 H367 0.945 . S
C387 C382 1.385 . S
C387 C386 1.369 . S
C388 C380 1.457 . S
C388 C389 1.372 . S
C388 C393 1.364 . S
C389 H368 0.952 . S
C389 C388 1.372 . S
C389 C390 1.389 . S
C390 H369 0.949 . S
C390 C389 1.389 . S
C390 C391 1.387 . S
C391 C390 1.387 . S
C391 C392 1.372 . S
C392 H370 0.950 . S
C392 C391 1.372 . S
C392 C393 1.379 . S
C393 H371 0.948 . S
C393 C388 1.364 . S
C393 C392 1.379 . S
C394 C363 1.383 . S
C394 C381 1.479 . S
C394 C395 1.398 . S
C395 C360 1.382 . S
C395 H372 0.951 . S
C395 C394 1.398 . S
C396 C397 1.384 . S
C396 H409 0.947 . S
C396 C431 1.382 . S
C397 C396 1.384 . S
C397 C398 1.378 . S
C398 C397 1.378 . S
C398 C399 1.378 . S
C398 H410 0.952 . S
C399 C398 1.378 . S
C399 H411 0.950 . S
C399 C430 1.383 . S
H400 C419 0.947 . S
H401 C420 0.946 . S
H402 C422 0.953 . S
H403 C423 0.945 . S
H404 C425 0.952 . S
H405 C426 0.949 . S
H406 C428 0.950 . S
H407 C429 0.948 . S
H408 C431 0.951 . S
H409 C396 0.947 . S
H410 C398 0.952 . S
H411 C399 0.950 . S
N412 C415 1.382 . S
N412 C417 1.363 . S
N413 C415 1.371 . S
N413 C416 1.372 . S
N414 C416 1.361 . S
N414 C417 1.377 . S
C415 N412 1.382 . S
C415 N413 1.371 . S
C415 C418 1.480 . S
C416 N413 1.372 . S
C416 N414 1.361 . S
C416 C424 1.457 . S
C417 N412 1.363 . S
C417 N414 1.377 . S
C417 C430 1.479 . S
C418 C415 1.480 . S
C418 C419 1.383 . S
C418 C423 1.385 . S
C419 H400 0.947 . S
C419 C418 1.383 . S
C419 C420 1.388 . S
C420 H401 0.946 . S
C420 C419 1.388 . S
C420 C421 1.384 . S
C421 C420 1.384 . S
C421 C422 1.377 . S
C422 H402 0.953 . S
C422 C421 1.377 . S
C422 C423 1.369 . S
C423 H403 0.945 . S
C423 C418 1.385 . S
C423 C422 1.369 . S
C424 C416 1.457 . S
C424 C425 1.372 . S
C424 C429 1.364 . S
C425 H404 0.952 . S
C425 C424 1.372 . S
C425 C426 1.389 . S
C426 H405 0.949 . S
C426 C425 1.389 . S
C426 C427 1.387 . S
C427 C426 1.387 . S
C427 C428 1.372 . S
C428 H406 0.950 . S
C428 C427 1.372 . S
C428 C429 1.379 . S
C429 H407 0.948 . S
C429 C424 1.364 . S
C429 C428 1.379 . S
C430 C399 1.383 . S
C430 C417 1.479 . S
C430 C431 1.398 . S
C431 C396 1.382 . S
C431 H408 0.951 . S
C431 C430 1.398 . S
C432 C433 1.384 . S
C432 H445 0.947 . S
C432 C467 1.382 . S
C433 C432 1.384 . S
C433 C434 1.378 . S
C434 C433 1.378 . S
C434 C435 1.378 . S
C434 H446 0.952 . S
C435 C434 1.378 . S
C435 H447 0.950 . S
C435 C466 1.383 . S
H436 C455 0.947 . S
H437 C456 0.946 . S
H438 C458 0.953 . S
H439 C459 0.945 . S
H440 C461 0.952 . S
H441 C462 0.949 . S
H442 C464 0.950 . S
H443 C465 0.948 . S
H444 C467 0.951 . S
H445 C432 0.947 . S
H446 C434 0.952 . S
H447 C435 0.950 . S
N448 C451 1.382 . S
N448 C453 1.363 . S
N449 C451 1.371 . S
N449 C452 1.372 . S
N450 C452 1.361 . S
N450 C453 1.377 . S
C451 N448 1.382 . S
C451 N449 1.371 . S
C451 C454 1.480 . S
C452 N449 1.372 . S
C452 N450 1.361 . S
C452 C460 1.457 . S
C453 N448 1.363 . S
C453 N450 1.377 . S
C453 C466 1.479 . S
C454 C451 1.480 . S
C454 C455 1.383 . S
C454 C459 1.385 . S
C455 H436 0.947 . S
C455 C454 1.383 . S
C455 C456 1.388 . S
C456 H437 0.946 . S
C456 C455 1.388 . S
C456 C457 1.384 . S
C457 C456 1.384 . S
C457 C458 1.377 . S
C458 H438 0.953 . S
C458 C457 1.377 . S
C458 C459 1.369 . S
C459 H439 0.945 . S
C459 C454 1.385 . S
C459 C458 1.369 . S
C460 C452 1.457 . S
C460 C461 1.372 . S
C460 C465 1.364 . S
C461 H440 0.952 . S
C461 C460 1.372 . S
C461 C462 1.389 . S
C462 H441 0.949 . S
C462 C461 1.389 . S
C462 C463 1.387 . S
C463 C462 1.387 . S
C463 C464 1.372 . S
C464 H442 0.950 . S
C464 C463 1.372 . S
C464 C465 1.379 . S
C465 H443 0.948 . S
C465 C460 1.364 . S
C465 C464 1.379 . S
C466 C435 1.383 . S
C466 C453 1.479 . S
C466 C467 1.398 . S
C467 C432 1.382 . S
C467 H444 0.951 . S
C467 C466 1.398 . S
C468 C469 1.384 . S
C468 H481 0.947 . S
C468 C503 1.382 . S
C469 C468 1.384 . S
C469 C470 1.378 1_554 S
C470 C469 1.378 1_556 S
C470 C471 1.378 . S
C470 H482 0.952 . S
C471 C470 1.378 . S
C471 H483 0.950 . S
C471 C502 1.383 . S
H472 C491 0.947 . S
H473 C492 0.946 . S
H474 C494 0.953 . S
H475 C495 0.945 . S
H476 C497 0.952 . S
H477 C498 0.949 . S
H478 C500 0.950 . S
H479 C501 0.948 . S
H480 C503 0.951 . S
H481 C468 0.947 . S
H482 C470 0.952 . S
H483 C471 0.950 . S
N484 C487 1.382 . S
N484 C489 1.363 . S
N485 C487 1.371 . S
N485 C488 1.372 . S
N486 C488 1.361 . S
N486 C489 1.377 . S
C487 N484 1.382 . S
C487 N485 1.371 . S
C487 C490 1.480 . S
C488 N485 1.372 . S
C488 N486 1.361 . S
C488 C496 1.457 . S
C489 N484 1.363 . S
C489 N486 1.377 . S
C489 C502 1.479 . S
C490 C487 1.480 . S
C490 C491 1.383 . S
C490 C495 1.385 . S
C491 H472 0.947 . S
C491 C490 1.383 . S
C491 C492 1.388 . S
C492 H473 0.946 . S
C492 C491 1.388 . S
C492 C493 1.384 . S
C493 C492 1.384 . S
C493 C494 1.377 . S
C494 H474 0.953 . S
C494 C493 1.377 . S
C494 C495 1.369 . S
C495 H475 0.945 . S
C495 C490 1.385 . S
C495 C494 1.369 . S
C496 C488 1.457 . S
C496 C497 1.372 . S
C496 C501 1.364 . S
C497 H476 0.952 . S
C497 C496 1.372 . S
C497 C498 1.389 . S
C498 H477 0.949 . S
C498 C497 1.389 . S
C498 C499 1.387 . S
C499 C498 1.387 . S
C499 C500 1.372 . S
C500 H478 0.950 . S
C500 C499 1.372 . S
C500 C501 1.379 . S
C501 H479 0.948 . S
C501 C496 1.364 . S
C501 C500 1.379 . S
C502 C471 1.383 . S
C502 C489 1.479 . S
C502 C503 1.398 1_556 S
C503 C468 1.382 . S
C503 H480 0.951 . S
C503 C502 1.398 1_554 S
C504 C505 1.384 . S
C504 H517 0.947 . S
C504 C539 1.382 . S
C505 C504 1.384 . S
C505 C506 1.378 . S
C506 C505 1.378 . S
C506 C507 1.378 . S
C506 H518 0.952 . S
C507 C506 1.378 . S
C507 H519 0.950 . S
C507 C538 1.383 . S
H508 C527 0.947 . S
H509 C528 0.946 . S
H510 C530 0.953 . S
H511 C531 0.945 . S
H512 C533 0.952 . S
H513 C534 0.949 . S
H514 C536 0.950 . S
H515 C537 0.948 . S
H516 C539 0.951 . S
H517 C504 0.947 . S
H518 C506 0.952 . S
H519 C507 0.950 . S
N520 C523 1.382 . S
N520 C525 1.363 . S
N521 C523 1.371 . S
N521 C524 1.372 . S
N522 C524 1.361 . S
N522 C525 1.377 . S
C523 N520 1.382 . S
C523 N521 1.371 . S
C523 C526 1.480 . S
C524 N521 1.372 . S
C524 N522 1.361 . S
C524 C532 1.457 . S
C525 N520 1.363 . S
C525 N522 1.377 . S
C525 C538 1.479 . S
C526 C523 1.480 . S
C526 C527 1.383 . S
C526 C531 1.385 . S
C527 H508 0.947 . S
C527 C526 1.383 . S
C527 C528 1.388 . S
C528 H509 0.946 . S
C528 C527 1.388 . S
C528 C529 1.384 . S
C529 C528 1.384 . S
C529 C530 1.377 . S
C530 H510 0.953 . S
C530 C529 1.377 . S
C530 C531 1.369 . S
C531 H511 0.945 . S
C531 C526 1.385 . S
C531 C530 1.369 . S
C532 C524 1.457 . S
C532 C533 1.372 . S
C532 C537 1.364 . S
C533 H512 0.952 . S
C533 C532 1.372 . S
C533 C534 1.389 . S
C534 H513 0.949 . S
C534 C533 1.389 . S
C534 C535 1.387 . S
C535 C534 1.387 . S
C535 C536 1.372 . S
C536 H514 0.950 . S
C536 C535 1.372 . S
C536 C537 1.379 . S
C537 H515 0.948 . S
C537 C532 1.364 . S
C537 C536 1.379 . S
C538 C507 1.383 . S
C538 C525 1.479 . S
C538 C539 1.398 . S
C539 C504 1.382 . S
C539 H516 0.951 . S
C539 C538 1.398 . S
C540 C541 1.384 1_556 S
C540 H553 0.947 . S
C540 C575 1.382 . S
C541 C540 1.384 1_554 S
C541 C542 1.378 . S
C542 C541 1.378 . S
C542 C543 1.378 . S
C542 H554 0.952 . S
C543 C542 1.378 . S
C543 H555 0.950 . S
C543 C574 1.383 1_554 S
H544 C563 0.947 . S
H545 C564 0.946 . S
H546 C566 0.953 . S
H547 C567 0.945 . S
H548 C569 0.952 . S
H549 C570 0.949 . S
H550 C572 0.950 . S
H551 C573 0.948 . S
H552 C575 0.951 . S
H553 C540 0.947 . S
H554 C542 0.952 . S
H555 C543 0.950 . S
N556 C559 1.382 . S
N556 C561 1.363 . S
N557 C559 1.371 . S
N557 C560 1.372 . S
N558 C560 1.361 . S
N558 C561 1.377 . S
C559 N556 1.382 . S
C559 N557 1.371 . S
C559 C562 1.480 . S
C560 N557 1.372 . S
C560 N558 1.361 . S
C560 C568 1.457 . S
C561 N556 1.363 . S
C561 N558 1.377 . S
C561 C574 1.479 . S
C562 C559 1.480 . S
C562 C563 1.383 . S
C562 C567 1.385 1_545 S
C563 H544 0.947 . S
C563 C562 1.383 . S
C563 C564 1.388 . S
C564 H545 0.946 . S
C564 C563 1.388 . S
C564 C565 1.384 1_545 S
C565 C564 1.384 1_565 S
C565 C566 1.377 . S
C566 H546 0.953 . S
C566 C565 1.377 . S
C566 C567 1.369 . S
C567 H547 0.945 . S
C567 C562 1.385 1_565 S
C567 C566 1.369 . S
C568 C560 1.457 . S
C568 C569 1.372 . S
C568 C573 1.364 . S
C569 H548 0.952 . S
C569 C568 1.372 . S
C569 C570 1.389 . S
C570 H549 0.949 . S
C570 C569 1.389 . S
C570 C571 1.387 . S
C571 C570 1.387 . S
C571 C572 1.372 . S
C572 H550 0.950 . S
C572 C571 1.372 . S
C572 C573 1.379 . S
C573 H551 0.948 . S
C573 C568 1.364 . S
C573 C572 1.379 . S
C574 C543 1.383 1_556 S
C574 C561 1.479 . S
C574 C575 1.398 . S
C575 C540 1.382 . S
C575 H552 0.951 . S
C575 C574 1.398 . S
Li576 N593 1.990 . S
Li576 O636 1.956 . S
Li576 O637 1.970 1_556 S
Li576 O638 1.961 . S
Li577 N601 1.990 . S
Li577 O636 1.970 1_554 S
Li577 O637 1.956 . S
Li577 O639 1.961 . S
Li578 N623 1.990 . S
Li578 O636 1.961 . S
Li578 O638 1.956 . S
Li578 O639 1.970 1_556 S
Li579 N629 1.990 . S
Li579 O637 1.961 . S
Li579 O638 1.970 1_554 S
Li579 O639 1.956 . S
C580 C582 1.348 1_556 S
C580 C583 1.356 . S
C580 O636 1.325 . S
N581 C584 1.314 1_556 S
N581 C585 1.279 . S
C582 C580 1.348 1_554 S
C582 C584 1.353 . S
C582 H640 0.929 . S
C583 C580 1.356 . S
C583 C585 1.358 . S
C583 H641 0.930 . S
C584 N581 1.314 1_554 S
C584 C582 1.353 . S
C584 H642 0.930 . S
C585 N581 1.279 . S
C585 C583 1.358 . S
C585 H643 0.930 . S
C586 C589 1.348 . S
C586 C590 1.356 . S
C586 O637 1.325 . S
C587 N588 1.279 . S
C587 C590 1.358 . S
C587 H644 0.930 . S
N588 C587 1.279 . S
N588 C591 1.314 . S
C589 C586 1.348 . S
C589 C591 1.353 . S
C589 H645 0.929 . S
C590 C586 1.356 . S
C590 C587 1.358 . S
C590 H646 0.930 . S
C591 N588 1.314 . S
C591 C589 1.353 . S
C591 H647 0.930 . S
C592 N593 1.314 . S
C592 C597 1.353 . S
C592 H598 0.930 . S
N593 Li576 1.990 . S
N593 C592 1.314 . S
N593 C595 1.279 . S
C594 C595 1.358 . S
C594 C596 1.356 . S
C594 H648 0.930 . S
C595 N593 1.279 . S
C595 C594 1.358 . S
C595 H599 0.930 . S
C596 C594 1.356 . S
C596 C597 1.348 . S
C597 C592 1.353 . S
C597 C596 1.348 . S
C597 H649 0.929 . S
H598 C592 0.930 . S
H599 C595 0.930 . S
C600 N601 1.314 . S
C600 C602 1.353 . S
C600 H606 0.930 . S
N601 Li577 1.990 . S
N601 C600 1.314 . S
N601 C604 1.279 . S
C602 C600 1.353 . S
C602 C605 1.348 . S
C602 H650 0.929 . S
C603 C604 1.358 . S
C603 C605 1.356 . S
C603 H651 0.930 . S
C604 N601 1.279 . S
C604 C603 1.358 . S
C604 H607 0.930 . S
C605 C602 1.348 . S
C605 C603 1.356 . S
H606 C600 0.930 . S
H607 C604 0.930 . S
C608 C610 1.348 . S
C608 C611 1.356 . S
C608 O638 1.325 . S
N609 C612 1.314 . S
N609 C613 1.279 . S
C610 C608 1.348 . S
C610 C612 1.353 . S
C610 H652 0.929 . S
C611 C608 1.356 . S
C611 C613 1.358 . S
C611 H653 0.930 . S
C612 N609 1.314 . S
C612 C610 1.353 . S
C612 H654 0.930 . S
C613 N609 1.279 . S
C613 C611 1.358 . S
C613 H655 0.930 . S
C614 C615 1.348 1_554 S
C614 C616 1.356 . S
C614 O639 1.325 . S
C615 C614 1.348 1_556 S
C615 C617 1.353 . S
C615 H656 0.929 . S
C616 C614 1.356 . S
C616 C618 1.358 . S
C616 H657 0.930 . S
C617 C615 1.353 . S
C617 N619 1.314 1_556 S
C617 H658 0.930 . S
C618 C616 1.358 . S
C618 N619 1.279 . S
C618 H659 0.930 . S
N619 C617 1.314 1_554 S
N619 C618 1.279 . S
C620 C622 1.353 . S
C620 N623 1.314 . S
C620 H626 0.930 . S
C621 N623 1.279 . S
C621 C624 1.358 . S
C621 H627 0.930 . S
C622 C620 1.353 . S
C622 C625 1.348 . S
C622 H660 0.929 . S
N623 Li578 1.990 . S
N623 C620 1.314 . S
N623 C621 1.279 . S
C624 C621 1.358 . S
C624 C625 1.356 . S
C624 H661 0.930 . S
C625 C622 1.348 . S
C625 C624 1.356 . S
H626 C620 0.930 . S
H627 C621 0.930 . S
C628 N629 1.314 . S
C628 C630 1.353 . S
C628 H634 0.930 . S
N629 Li579 1.990 . S
N629 C628 1.314 . S
N629 C632 1.279 . S
C630 C628 1.353 . S
C630 C633 1.348 . S
C630 H662 0.929 . S
C631 C632 1.358 . S
C631 C633 1.356 . S
C631 H663 0.930 . S
C632 N629 1.279 . S
C632 C631 1.358 . S
C632 H635 0.930 . S
C633 C630 1.348 . S
C633 C631 1.356 . S
H634 C628 0.930 . S
H635 C632 0.930 . S
O636 Li576 1.956 . S
O636 Li577 1.970 1_556 S
O636 Li578 1.961 . S
O636 C580 1.325 . S
O637 Li576 1.970 1_554 S
O637 Li577 1.956 . S
O637 Li579 1.961 . S
O637 C586 1.325 . S
O638 Li576 1.961 . S
O638 Li578 1.956 . S
O638 Li579 1.970 1_556 S
O638 C608 1.325 . S
O639 Li577 1.961 . S
O639 Li578 1.970 1_554 S
O639 Li579 1.956 . S
O639 C614 1.325 . S
H640 C582 0.929 . S
H641 C583 0.930 . S
H642 C584 0.930 . S
H643 C585 0.930 . S
H644 C587 0.930 . S
H645 C589 0.929 . S
H646 C590 0.930 . S
H647 C591 0.930 . S
H648 C594 0.930 . S
H649 C597 0.929 . S
H650 C602 0.929 . S
H651 C603 0.930 . S
H652 C610 0.929 . S
H653 C611 0.930 . S
H654 C612 0.930 . S
H655 C613 0.930 . S
H656 C615 0.929 . S
H657 C616 0.930 . S
H658 C617 0.930 . S
H659 C618 0.930 . S
H660 C622 0.929 . S
H661 C624 0.930 . S
H662 C630 0.929 . S
H663 C631 0.930 . S
Li664 N681 1.990 . S
Li664 O724 1.956 . S
Li664 O725 1.970 . S
Li664 O726 1.961 . S
Li665 N689 1.990 . S
Li665 O724 1.970 . S
Li665 O725 1.956 . S
Li665 O727 1.961 . S
Li666 N711 1.990 . S
Li666 O724 1.961 . S
Li666 O726 1.956 . S
Li666 O727 1.970 . S
Li667 N717 1.990 . S
Li667 O725 1.961 . S
Li667 O726 1.970 . S
Li667 O727 1.956 . S
C668 C670 1.348 . S
C668 C671 1.356 . S
C668 O724 1.325 . S
N669 C672 1.314 . S
N669 C673 1.279 . S
C670 C668 1.348 . S
C670 C672 1.353 . S
C670 H728 0.929 . S
C671 C668 1.356 . S
C671 C673 1.358 . S
C671 H729 0.930 . S
C672 N669 1.314 . S
C672 C670 1.353 . S
C672 H730 0.930 . S
C673 N669 1.279 . S
C673 C671 1.358 . S
C673 H731 0.930 . S
C674 C677 1.348 . S
C674 C678 1.356 . S
C674 O725 1.325 . S
C675 N676 1.279 . S
C675 C678 1.358 . S
C675 H732 0.930 . S
N676 C675 1.279 . S
N676 C679 1.314 . S
C677 C674 1.348 . S
C677 C679 1.353 . S
C677 H733 0.929 . S
C678 C674 1.356 . S
C678 C675 1.358 . S
C678 H734 0.930 . S
C679 N676 1.314 . S
C679 C677 1.353 . S
C679 H735 0.930 . S
C680 N681 1.314 . S
C680 C685 1.353 . S
C680 H686 0.930 . S
N681 Li664 1.990 . S
N681 C680 1.314 . S
N681 C683 1.279 . S
C682 C683 1.358 . S
C682 C684 1.356 . S
C682 H736 0.930 . S
C683 N681 1.279 . S
C683 C682 1.358 . S
C683 H687 0.930 . S
C684 C682 1.356 . S
C684 C685 1.348 . S
C685 C680 1.353 . S
C685 C684 1.348 . S
C685 H737 0.929 . S
H686 C680 0.930 . S
H687 C683 0.930 . S
C688 N689 1.314 . S
C688 C690 1.353 . S
C688 H694 0.930 . S
N689 Li665 1.990 . S
N689 C688 1.314 . S
N689 C692 1.279 . S
C690 C688 1.353 . S
C690 C693 1.348 . S
C690 H738 0.929 . S
C691 C692 1.358 . S
C691 C693 1.356 . S
C691 H739 0.930 . S
C692 N689 1.279 . S
C692 C691 1.358 . S
C692 H695 0.930 . S
C693 C690 1.348 . S
C693 C691 1.356 . S
H694 C688 0.930 . S
H695 C692 0.930 . S
C696 C698 1.348 . S
C696 C699 1.356 . S
C696 O726 1.325 . S
N697 C700 1.314 . S
N697 C701 1.279 . S
C698 C696 1.348 . S
C698 C700 1.353 . S
C698 H740 0.929 . S
C699 C696 1.356 . S
C699 C701 1.358 . S
C699 H741 0.930 . S
C700 N697 1.314 . S
C700 C698 1.353 . S
C700 H742 0.930 . S
C701 N697 1.279 . S
C701 C699 1.358 . S
C701 H743 0.930 . S
C702 C703 1.348 . S
C702 C704 1.356 . S
C702 O727 1.325 . S
C703 C702 1.348 . S
C703 C705 1.353 . S
C703 H744 0.929 . S
C704 C702 1.356 . S
C704 C706 1.358 . S
C704 H745 0.930 . S
C705 C703 1.353 . S
C705 N707 1.314 . S
C705 H746 0.930 . S
C706 C704 1.358 . S
C706 N707 1.279 . S
C706 H747 0.930 . S
N707 C705 1.314 . S
N707 C706 1.279 . S
C708 C710 1.353 . S
C708 N711 1.314 . S
C708 H714 0.930 . S
C709 N711 1.279 . S
C709 C712 1.358 . S
C709 H715 0.930 . S
C710 C708 1.353 . S
C710 C713 1.348 . S
C710 H748 0.929 . S
N711 Li666 1.990 . S
N711 C708 1.314 . S
N711 C709 1.279 . S
C712 C709 1.358 . S
C712 C713 1.356 . S
C712 H749 0.930 . S
C713 C710 1.348 . S
C713 C712 1.356 . S
H714 C708 0.930 . S
H715 C709 0.930 . S
C716 N717 1.314 . S
C716 C718 1.353 . S
C716 H722 0.930 . S
N717 Li667 1.990 . S
N717 C716 1.314 . S
N717 C720 1.279 . S
C718 C716 1.353 . S
C718 C721 1.348 . S
C718 H750 0.929 . S
C719 C720 1.358 . S
C719 C721 1.356 . S
C719 H751 0.930 . S
C720 N717 1.279 . S
C720 C719 1.358 . S
C720 H723 0.930 . S
C721 C718 1.348 . S
C721 C719 1.356 . S
H722 C716 0.930 . S
H723 C720 0.930 . S
O724 Li664 1.956 . S
O724 Li665 1.970 . S
O724 Li666 1.961 . S
O724 C668 1.325 . S
O725 Li664 1.970 . S
O725 Li665 1.956 . S
O725 Li667 1.961 . S
O725 C674 1.325 . S
O726 Li664 1.961 . S
O726 Li666 1.956 . S
O726 Li667 1.970 . S
O726 C696 1.325 . S
O727 Li665 1.961 . S
O727 Li666 1.970 . S
O727 Li667 1.956 . S
O727 C702 1.325 . S
H728 C670 0.929 . S
H729 C671 0.930 . S
H730 C672 0.930 . S
H731 C673 0.930 . S
H732 C675 0.930 . S
H733 C677 0.929 . S
H734 C678 0.930 . S
H735 C679 0.930 . S
H736 C682 0.930 . S
H737 C685 0.929 . S
H738 C690 0.929 . S
H739 C691 0.930 . S
H740 C698 0.929 . S
H741 C699 0.930 . S
H742 C700 0.930 . S
H743 C701 0.930 . S
H744 C703 0.929 . S
H745 C704 0.930 . S
H746 C705 0.930 . S
H747 C706 0.930 . S
H748 C710 0.929 . S
H749 C712 0.930 . S
H750 C718 0.929 . S
H751 C719 0.930 . S
Li752 N769 1.990 . S
Li752 O812 1.956 . S
Li752 O813 1.970 1_556 S
Li752 O814 1.961 . S
Li753 N777 1.990 . S
Li753 O812 1.970 1_554 S
Li753 O813 1.956 . S
Li753 O815 1.961 . S
Li754 N799 1.990 . S
Li754 O812 1.961 . S
Li754 O814 1.956 . S
Li754 O815 1.970 1_556 S
Li755 N805 1.990 . S
Li755 O813 1.961 . S
Li755 O814 1.970 1_554 S
Li755 O815 1.956 . S
C756 C758 1.348 1_556 S
C756 C759 1.356 . S
C756 O812 1.325 . S
N757 C760 1.314 1_556 S
N757 C761 1.279 . S
C758 C756 1.348 1_554 S
C758 C760 1.353 . S
C758 H816 0.929 . S
C759 C756 1.356 . S
C759 C761 1.358 . S
C759 H817 0.930 . S
C760 N757 1.314 1_554 S
C760 C758 1.353 . S
C760 H818 0.930 . S
C761 N757 1.279 . S
C761 C759 1.358 . S
C761 H819 0.930 . S
C762 C765 1.348 . S
C762 C766 1.356 . S
C762 O813 1.325 . S
C763 N764 1.279 . S
C763 C766 1.358 . S
C763 H820 0.930 . S
N764 C763 1.279 . S
N764 C767 1.314 . S
C765 C762 1.348 . S
C765 C767 1.353 . S
C765 H821 0.929 . S
C766 C762 1.356 . S
C766 C763 1.358 . S
C766 H822 0.930 . S
C767 N764 1.314 . S
C767 C765 1.353 . S
C767 H823 0.930 . S
C768 N769 1.314 . S
C768 C773 1.353 . S
C768 H774 0.930 . S
N769 Li752 1.990 . S
N769 C768 1.314 . S
N769 C771 1.279 . S
C770 C771 1.358 . S
C770 C772 1.356 . S
C770 H824 0.930 . S
C771 N769 1.279 . S
C771 C770 1.358 . S
C771 H775 0.930 . S
C772 C770 1.356 . S
C772 C773 1.348 . S
C773 C768 1.353 . S
C773 C772 1.348 . S
C773 H825 0.929 . S
H774 C768 0.930 . S
H775 C771 0.930 . S
C776 N777 1.314 . S
C776 C778 1.353 . S
C776 H782 0.930 . S
N777 Li753 1.990 . S
N777 C776 1.314 . S
N777 C780 1.279 . S
C778 C776 1.353 . S
C778 C781 1.348 . S
C778 H826 0.929 . S
C779 C780 1.358 . S
C779 C781 1.356 . S
C779 H827 0.930 . S
C780 N777 1.279 . S
C780 C779 1.358 . S
C780 H783 0.930 . S
C781 C778 1.348 . S
C781 C779 1.356 . S
H782 C776 0.930 . S
H783 C780 0.930 . S
C784 C786 1.348 . S
C784 C787 1.356 . S
C784 O814 1.325 . S
N785 C788 1.314 . S
N785 C789 1.279 . S
C786 C784 1.348 . S
C786 C788 1.353 . S
C786 H828 0.929 . S
C787 C784 1.356 . S
C787 C789 1.358 . S
C787 H829 0.930 . S
C788 N785 1.314 . S
C788 C786 1.353 . S
C788 H830 0.930 . S
C789 N785 1.279 . S
C789 C787 1.358 . S
C789 H831 0.930 . S
C790 C791 1.348 1_554 S
C790 C792 1.356 . S
C790 O815 1.325 . S
C791 C790 1.348 1_556 S
C791 C793 1.353 . S
C791 H832 0.929 . S
C792 C790 1.356 . S
C792 C794 1.358 . S
C792 H833 0.930 . S
C793 C791 1.353 . S
C793 N795 1.314 1_556 S
C793 H834 0.930 . S
C794 C792 1.358 . S
C794 N795 1.279 . S
C794 H835 0.930 . S
N795 C793 1.314 1_554 S
N795 C794 1.279 . S
C796 C798 1.353 . S
C796 N799 1.314 . S
C796 H802 0.930 . S
C797 N799 1.279 . S
C797 C800 1.358 . S
C797 H803 0.930 . S
C798 C796 1.353 . S
C798 C801 1.348 . S
C798 H836 0.929 . S
N799 Li754 1.990 . S
N799 C796 1.314 . S
N799 C797 1.279 . S
C800 C797 1.358 . S
C800 C801 1.356 . S
C800 H837 0.930 . S
C801 C798 1.348 . S
C801 C800 1.356 . S
H802 C796 0.930 . S
H803 C797 0.930 . S
C804 N805 1.314 . S
C804 C806 1.353 . S
C804 H810 0.930 . S
N805 Li755 1.990 . S
N805 C804 1.314 . S
N805 C808 1.279 . S
C806 C804 1.353 . S
C806 C809 1.348 . S
C806 H838 0.929 . S
C807 C808 1.358 . S
C807 C809 1.356 . S
C807 H839 0.930 . S
C808 N805 1.279 . S
C808 C807 1.358 . S
C808 H811 0.930 . S
C809 C806 1.348 . S
C809 C807 1.356 . S
H810 C804 0.930 . S
H811 C808 0.930 . S
O812 Li752 1.956 . S
O812 Li753 1.970 1_556 S
O812 Li754 1.961 . S
O812 C756 1.325 . S
O813 Li752 1.970 1_554 S
O813 Li753 1.956 . S
O813 Li755 1.961 . S
O813 C762 1.325 . S
O814 Li752 1.961 . S
O814 Li754 1.956 . S
O814 Li755 1.970 1_556 S
O814 C784 1.325 . S
O815 Li753 1.961 . S
O815 Li754 1.970 1_554 S
O815 Li755 1.956 . S
O815 C790 1.325 . S
H816 C758 0.929 . S
H817 C759 0.930 . S
H818 C760 0.930 . S
H819 C761 0.930 . S
H820 C763 0.930 . S
H821 C765 0.929 . S
H822 C766 0.930 . S
H823 C767 0.930 . S
H824 C770 0.930 . S
H825 C773 0.929 . S
H826 C778 0.929 . S
H827 C779 0.930 . S
H828 C786 0.929 . S
H829 C787 0.930 . S
H830 C788 0.930 . S
H831 C789 0.930 . S
H832 C791 0.929 . S
H833 C792 0.930 . S
H834 C793 0.930 . S
H835 C794 0.930 . S
H836 C798 0.929 . S
H837 C800 0.930 . S
H838 C806 0.929 . S
H839 C807 0.930 . S
Li840 N857 1.990 . S
Li840 O900 1.956 . S
Li840 O901 1.970 1_545 S
Li840 O902 1.961 . S
Li841 N865 1.990 . S
Li841 O900 1.970 1_565 S
Li841 O901 1.956 . S
Li841 O903 1.961 . S
Li842 N887 1.990 . S
Li842 O900 1.961 . S
Li842 O902 1.956 . S
Li842 O903 1.970 1_545 S
Li843 N893 1.990 . S
Li843 O901 1.961 . S
Li843 O902 1.970 1_565 S
Li843 O903 1.956 . S
C844 C846 1.348 . S
C844 C847 1.356 . S
C844 O900 1.325 . S
N845 C848 1.314 . S
N845 C849 1.279 . S
C846 C844 1.348 . S
C846 C848 1.353 . S
C846 H904 0.929 . S
C847 C844 1.356 . S
C847 C849 1.358 . S
C847 H905 0.930 . S
C848 N845 1.314 . S
C848 C846 1.353 . S
C848 H906 0.930 . S
C849 N845 1.279 . S
C849 C847 1.358 . S
C849 H907 0.930 . S
C850 C853 1.348 1_565 S
C850 C854 1.356 . S
C850 O901 1.325 . S
C851 N852 1.279 . S
C851 C854 1.358 . S
C851 H908 0.930 . S
N852 C851 1.279 . S
N852 C855 1.314 1_565 S
C853 C850 1.348 1_545 S
C853 C855 1.353 . S
C853 H909 0.929 . S
C854 C850 1.356 . S
C854 C851 1.358 . S
C854 H910 0.930 . S
C855 N852 1.314 1_545 S
C855 C853 1.353 . S
C855 H911 0.930 . S
C856 N857 1.314 . S
C856 C861 1.353 . S
C856 H862 0.930 . S
N857 Li840 1.990 . S
N857 C856 1.314 . S
N857 C859 1.279 . S
C858 C859 1.358 . S
C858 C860 1.356 . S
C858 H912 0.930 . S
C859 N857 1.279 . S
C859 C858 1.358 . S
C859 H863 0.930 . S
C860 C858 1.356 . S
C860 C861 1.348 . S
C861 C856 1.353 . S
C861 C860 1.348 . S
C861 H913 0.929 . S
H862 C856 0.930 . S
H863 C859 0.930 . S
C864 N865 1.314 . S
C864 C866 1.353 . S
C864 H870 0.930 . S
N865 Li841 1.990 . S
N865 C864 1.314 . S
N865 C868 1.279 . S
C866 C864 1.353 . S
C866 C869 1.348 . S
C866 H914 0.929 . S
C867 C868 1.358 . S
C867 C869 1.356 . S
C867 H915 0.930 . S
C868 N865 1.279 . S
C868 C867 1.358 . S
C868 H871 0.930 . S
C869 C866 1.348 . S
C869 C867 1.356 . S
H870 C864 0.930 . S
H871 C868 0.930 . S
C872 C874 1.348 1_545 S
C872 C875 1.356 . S
C872 O902 1.325 . S
N873 C876 1.314 1_545 S
N873 C877 1.279 . S
C874 C872 1.348 1_565 S
C874 C876 1.353 . S
C874 H916 0.929 . S
C875 C872 1.356 . S
C875 C877 1.358 . S
C875 H917 0.930 . S
C876 N873 1.314 1_565 S
C876 C874 1.353 . S
C876 H918 0.930 . S
C877 N873 1.279 . S
C877 C875 1.358 . S
C877 H919 0.930 . S
C878 C879 1.348 . S
C878 C880 1.356 . S
C878 O903 1.325 . S
C879 C878 1.348 . S
C879 C881 1.353 . S
C879 H920 0.929 . S
C880 C878 1.356 . S
C880 C882 1.358 . S
C880 H921 0.930 . S
C881 C879 1.353 . S
C881 N883 1.314 . S
C881 H922 0.930 . S
C882 C880 1.358 . S
C882 N883 1.279 . S
C882 H923 0.930 . S
N883 C881 1.314 . S
N883 C882 1.279 . S
C884 C886 1.353 . S
C884 N887 1.314 . S
C884 H890 0.930 . S
C885 N887 1.279 . S
C885 C888 1.358 . S
C885 H891 0.930 . S
C886 C884 1.353 . S
C886 C889 1.348 . S
C886 H924 0.929 . S
N887 Li842 1.990 . S
N887 C884 1.314 . S
N887 C885 1.279 . S
C888 C885 1.358 . S
C888 C889 1.356 . S
C888 H925 0.930 . S
C889 C886 1.348 . S
C889 C888 1.356 . S
H890 C884 0.930 . S
H891 C885 0.930 . S
C892 N893 1.314 . S
C892 C894 1.353 . S
C892 H898 0.930 . S
N893 Li843 1.990 . S
N893 C892 1.314 . S
N893 C896 1.279 . S
C894 C892 1.353 . S
C894 C897 1.348 . S
C894 H926 0.929 . S
C895 C896 1.358 . S
C895 C897 1.356 . S
C895 H927 0.930 . S
C896 N893 1.279 . S
C896 C895 1.358 . S
C896 H899 0.930 . S
C897 C894 1.348 . S
C897 C895 1.356 . S
H898 C892 0.930 . S
H899 C896 0.930 . S
O900 Li840 1.956 . S
O900 Li841 1.970 1_545 S
O900 Li842 1.961 . S
O900 C844 1.325 . S
O901 Li840 1.970 1_565 S
O901 Li841 1.956 . S
O901 Li843 1.961 . S
O901 C850 1.325 . S
O902 Li840 1.961 . S
O902 Li842 1.956 . S
O902 Li843 1.970 1_545 S
O902 C872 1.325 . S
O903 Li841 1.961 . S
O903 Li842 1.970 1_565 S
O903 Li843 1.956 . S
O903 C878 1.325 . S
H904 C846 0.929 . S
H905 C847 0.930 . S
H906 C848 0.930 . S
H907 C849 0.930 . S
H908 C851 0.930 . S
H909 C853 0.929 . S
H910 C854 0.930 . S
H911 C855 0.930 . S
H912 C858 0.930 . S
H913 C861 0.929 . S
H914 C866 0.929 . S
H915 C867 0.930 . S
H916 C874 0.929 . S
H917 C875 0.930 . S
H918 C876 0.930 . S
H919 C877 0.930 . S
H920 C879 0.929 . S
H921 C880 0.930 . S
H922 C881 0.930 . S
H923 C882 0.930 . S
H924 C886 0.929 . S
H925 C888 0.930 . S
H926 C894 0.929 . S
H927 C895 0.930 . S
Li928 N945 1.990 . S
Li928 O988 1.956 . S
Li928 O989 1.970 . S
Li928 O990 1.961 . S
Li929 N953 1.990 . S
Li929 O988 1.970 . S
Li929 O989 1.956 . S
Li929 O991 1.961 . S
Li930 N975 1.990 . S
Li930 O988 1.961 . S
Li930 O990 1.956 . S
Li930 O991 1.970 . S
Li931 N981 1.990 . S
Li931 O989 1.961 . S
Li931 O990 1.970 . S
Li931 O991 1.956 . S
C932 C934 1.348 . S
C932 C935 1.356 . S
C932 O988 1.325 . S
N933 C936 1.314 . S
N933 C937 1.279 . S
C934 C932 1.348 . S
C934 C936 1.353 . S
C934 H992 0.929 . S
C935 C932 1.356 . S
C935 C937 1.358 . S
C935 H993 0.930 . S
C936 N933 1.314 . S
C936 C934 1.353 . S
C936 H994 0.930 . S
C937 N933 1.279 . S
C937 C935 1.358 . S
C937 H995 0.930 . S
C938 C941 1.348 . S
C938 C942 1.356 . S
C938 O989 1.325 . S
C939 N940 1.279 . S
C939 C942 1.358 . S
C939 H996 0.930 . S
N940 C939 1.279 . S
N940 C943 1.314 . S
C941 C938 1.348 . S
C941 C943 1.353 . S
C941 H997 0.929 . S
C942 C938 1.356 . S
C942 C939 1.358 . S
C942 H998 0.930 . S
C943 N940 1.314 . S
C943 C941 1.353 . S
C943 H999 0.930 . S
C944 N945 1.314 . S
C944 C949 1.353 . S
C944 H950 0.930 . S
N945 Li928 1.990 . S
N945 C944 1.314 . S
N945 C947 1.279 . S
C946 C947 1.358 . S
C946 C948 1.356 . S
C946 H1000 0.930 . S
C947 N945 1.279 . S
C947 C946 1.358 . S
C947 H951 0.930 . S
C948 C946 1.356 . S
C948 C949 1.348 . S
C949 C944 1.353 . S
C949 C948 1.348 . S
C949 H1001 0.929 . S
H950 C944 0.930 . S
H951 C947 0.930 . S
C952 N953 1.314 . S
C952 C954 1.353 . S
C952 H958 0.930 . S
N953 Li929 1.990 . S
N953 C952 1.314 . S
N953 C956 1.279 . S
C954 C952 1.353 . S
C954 C957 1.348 . S
C954 H1002 0.929 . S
C955 C956 1.358 . S
C955 C957 1.356 . S
C955 H1003 0.930 . S
C956 N953 1.279 . S
C956 C955 1.358 . S
C956 H959 0.930 . S
C957 C954 1.348 . S
C957 C955 1.356 . S
H958 C952 0.930 . S
H959 C956 0.930 . S
C960 C962 1.348 . S
C960 C963 1.356 . S
C960 O990 1.325 . S
N961 C964 1.314 . S
N961 C965 1.279 . S
C962 C960 1.348 . S
C962 C964 1.353 . S
C962 H1004 0.929 . S
C963 C960 1.356 . S
C963 C965 1.358 . S
C963 H1005 0.930 . S
C964 N961 1.314 . S
C964 C962 1.353 . S
C964 H1006 0.930 . S
C965 N961 1.279 . S
C965 C963 1.358 . S
C965 H1007 0.930 . S
C966 C967 1.348 . S
C966 C968 1.356 . S
C966 O991 1.325 . S
C967 C966 1.348 . S
C967 C969 1.353 . S
C967 H1008 0.929 . S
C968 C966 1.356 . S
C968 C970 1.358 . S
C968 H1009 0.930 . S
C969 C967 1.353 . S
C969 N971 1.314 . S
C969 H1010 0.930 . S
C970 C968 1.358 . S
C970 N971 1.279 . S
C970 H1011 0.930 . S
N971 C969 1.314 . S
N971 C970 1.279 . S
C972 C974 1.353 . S
C972 N975 1.314 . S
C972 H978 0.930 . S
C973 N975 1.279 . S
C973 C976 1.358 . S
C973 H979 0.930 . S
C974 C972 1.353 . S
C974 C977 1.348 . S
C974 H1012 0.929 . S
N975 Li930 1.990 . S
N975 C972 1.314 . S
N975 C973 1.279 . S
C976 C973 1.358 . S
C976 C977 1.356 . S
C976 H1013 0.930 . S
C977 C974 1.348 . S
C977 C976 1.356 . S
H978 C972 0.930 . S
H979 C973 0.930 . S
C980 N981 1.314 . S
C980 C982 1.353 . S
C980 H986 0.930 . S
N981 Li931 1.990 . S
N981 C980 1.314 . S
N981 C984 1.279 . S
C982 C980 1.353 . S
C982 C985 1.348 . S
C982 H1014 0.929 . S
C983 C984 1.358 . S
C983 C985 1.356 . S
C983 H1015 0.930 . S
C984 N981 1.279 . S
C984 C983 1.358 . S
C984 H987 0.930 . S
C985 C982 1.348 . S
C985 C983 1.356 . S
H986 C980 0.930 . S
H987 C984 0.930 . S
O988 Li928 1.956 . S
O988 Li929 1.970 . S
O988 Li930 1.961 . S
O988 C932 1.325 . S
O989 Li928 1.970 . S
O989 Li929 1.956 . S
O989 Li931 1.961 . S
O989 C938 1.325 . S
O990 Li928 1.961 . S
O990 Li930 1.956 . S
O990 Li931 1.970 . S
O990 C960 1.325 . S
O991 Li929 1.961 . S
O991 Li930 1.970 . S
O991 Li931 1.956 . S
O991 C966 1.325 . S
H992 C934 0.929 . S
H993 C935 0.930 . S
H994 C936 0.930 . S
H995 C937 0.930 . S
H996 C939 0.930 . S
H997 C941 0.929 . S
H998 C942 0.930 . S
H999 C943 0.930 . S
H1000 C946 0.930 . S
H1001 C949 0.929 . S
H1002 C954 0.929 . S
H1003 C955 0.930 . S
H1004 C962 0.929 . S
H1005 C963 0.930 . S
H1006 C964 0.930 . S
H1007 C965 0.930 . S
H1008 C967 0.929 . S
H1009 C968 0.930 . S
H1010 C969 0.930 . S
H1011 C970 0.930 . S
H1012 C974 0.929 . S
H1013 C976 0.930 . S
H1014 C982 0.929 . S
H1015 C983 0.930 . S
Li1016 N1033 1.990 . S
Li1016 O1076 1.956 . S
Li1016 O1077 1.970 . S
Li1016 O1078 1.961 . S
Li1017 N1041 1.990 . S
Li1017 O1076 1.970 . S
Li1017 O1077 1.956 . S
Li1017 O1079 1.961 . S
Li1018 N1063 1.990 . S
Li1018 O1076 1.961 . S
Li1018 O1078 1.956 . S
Li1018 O1079 1.970 . S
Li1019 N1069 1.990 . S
Li1019 O1077 1.961 . S
Li1019 O1078 1.970 . S
Li1019 O1079 1.956 . S
C1020 C1022 1.348 . S
C1020 C1023 1.356 . S
C1020 O1076 1.325 . S
N1021 C1024 1.314 . S
N1021 C1025 1.279 . S
C1022 C1020 1.348 . S
C1022 C1024 1.353 . S
C1022 H1080 0.929 . S
C1023 C1020 1.356 . S
C1023 C1025 1.358 . S
C1023 H1081 0.930 . S
C1024 N1021 1.314 . S
C1024 C1022 1.353 . S
C1024 H1082 0.930 . S
C1025 N1021 1.279 . S
C1025 C1023 1.358 . S
C1025 H1083 0.930 . S
C1026 C1029 1.348 . S
C1026 C1030 1.356 . S
C1026 O1077 1.325 . S
C1027 N1028 1.279 . S
C1027 C1030 1.358 . S
C1027 H1084 0.930 . S
N1028 C1027 1.279 . S
N1028 C1031 1.314 . S
C1029 C1026 1.348 . S
C1029 C1031 1.353 . S
C1029 H1085 0.929 . S
C1030 C1026 1.356 . S
C1030 C1027 1.358 . S
C1030 H1086 0.930 . S
C1031 N1028 1.314 . S
C1031 C1029 1.353 . S
C1031 H1087 0.930 . S
C1032 N1033 1.314 . S
C1032 C1037 1.353 . S
C1032 H1038 0.930 . S
N1033 Li1016 1.990 . S
N1033 C1032 1.314 . S
N1033 C1035 1.279 . S
C1034 C1035 1.358 . S
C1034 C1036 1.356 . S
C1034 H1088 0.930 . S
C1035 N1033 1.279 . S
C1035 C1034 1.358 . S
C1035 H1039 0.930 . S
C1036 C1034 1.356 . S
C1036 C1037 1.348 . S
C1037 C1032 1.353 . S
C1037 C1036 1.348 . S
C1037 H1089 0.929 . S
H1038 C1032 0.930 . S
H1039 C1035 0.930 . S
C1040 N1041 1.314 . S
C1040 C1042 1.353 . S
C1040 H1046 0.930 . S
N1041 Li1017 1.990 . S
N1041 C1040 1.314 . S
N1041 C1044 1.279 . S
C1042 C1040 1.353 . S
C1042 C1045 1.348 . S
C1042 H1090 0.929 . S
C1043 C1044 1.358 . S
C1043 C1045 1.356 . S
C1043 H1091 0.930 . S
C1044 N1041 1.279 . S
C1044 C1043 1.358 . S
C1044 H1047 0.930 . S
C1045 C1042 1.348 . S
C1045 C1043 1.356 . S
H1046 C1040 0.930 . S
H1047 C1044 0.930 . S
C1048 C1050 1.348 . S
C1048 C1051 1.356 . S
C1048 O1078 1.325 . S
N1049 C1052 1.314 . S
N1049 C1053 1.279 . S
C1050 C1048 1.348 . S
C1050 C1052 1.353 . S
C1050 H1092 0.929 . S
C1051 C1048 1.356 . S
C1051 C1053 1.358 . S
C1051 H1093 0.930 . S
C1052 N1049 1.314 . S
C1052 C1050 1.353 . S
C1052 H1094 0.930 . S
C1053 N1049 1.279 . S
C1053 C1051 1.358 . S
C1053 H1095 0.930 . S
C1054 C1055 1.348 . S
C1054 C1056 1.356 . S
C1054 O1079 1.325 . S
C1055 C1054 1.348 . S
C1055 C1057 1.353 . S
C1055 H1096 0.929 . S
C1056 C1054 1.356 . S
C1056 C1058 1.358 . S
C1056 H1097 0.930 . S
C1057 C1055 1.353 . S
C1057 N1059 1.314 . S
C1057 H1098 0.930 . S
C1058 C1056 1.358 . S
C1058 N1059 1.279 . S
C1058 H1099 0.930 . S
N1059 C1057 1.314 . S
N1059 C1058 1.279 . S
C1060 C1062 1.353 . S
C1060 N1063 1.314 . S
C1060 H1066 0.930 . S
C1061 N1063 1.279 . S
C1061 C1064 1.358 . S
C1061 H1067 0.930 . S
C1062 C1060 1.353 . S
C1062 C1065 1.348 . S
C1062 H1100 0.929 . S
N1063 Li1018 1.990 . S
N1063 C1060 1.314 . S
N1063 C1061 1.279 . S
C1064 C1061 1.358 . S
C1064 C1065 1.356 . S
C1064 H1101 0.930 . S
C1065 C1062 1.348 . S
C1065 C1064 1.356 . S
H1066 C1060 0.930 . S
H1067 C1061 0.930 . S
C1068 N1069 1.314 . S
C1068 C1070 1.353 . S
C1068 H1074 0.930 . S
N1069 Li1019 1.990 . S
N1069 C1068 1.314 . S
N1069 C1072 1.279 . S
C1070 C1068 1.353 . S
C1070 C1073 1.348 . S
C1070 H1102 0.929 . S
C1071 C1072 1.358 . S
C1071 C1073 1.356 . S
C1071 H1103 0.930 . S
C1072 N1069 1.279 . S
C1072 C1071 1.358 . S
C1072 H1075 0.930 . S
C1073 C1070 1.348 . S
C1073 C1071 1.356 . S
H1074 C1068 0.930 . S
H1075 C1072 0.930 . S
O1076 Li1016 1.956 . S
O1076 Li1017 1.970 . S
O1076 Li1018 1.961 . S
O1076 C1020 1.325 . S
O1077 Li1016 1.970 . S
O1077 Li1017 1.956 . S
O1077 Li1019 1.961 . S
O1077 C1026 1.325 . S
O1078 Li1016 1.961 . S
O1078 Li1018 1.956 . S
O1078 Li1019 1.970 . S
O1078 C1048 1.325 . S
O1079 Li1017 1.961 . S
O1079 Li1018 1.970 . S
O1079 Li1019 1.956 . S
O1079 C1054 1.325 . S
H1080 C1022 0.929 . S
H1081 C1023 0.930 . S
H1082 C1024 0.930 . S
H1083 C1025 0.930 . S
H1084 C1027 0.930 . S
H1085 C1029 0.929 . S
H1086 C1030 0.930 . S
H1087 C1031 0.930 . S
H1088 C1034 0.930 . S
H1089 C1037 0.929 . S
H1090 C1042 0.929 . S
H1091 C1043 0.930 . S
H1092 C1050 0.929 . S
H1093 C1051 0.930 . S
H1094 C1052 0.930 . S
H1095 C1053 0.930 . S
H1096 C1055 0.929 . S
H1097 C1056 0.930 . S
H1098 C1057 0.930 . S
H1099 C1058 0.930 . S
H1100 C1062 0.929 . S
H1101 C1064 0.930 . S
H1102 C1070 0.929 . S
H1103 C1071 0.930 . S
Li1104 N1121 1.990 . S
Li1104 O1164 1.956 . S
Li1104 O1165 1.970 . S
Li1104 O1166 1.961 . S
Li1105 N1129 1.990 . S
Li1105 O1164 1.970 . S
Li1105 O1165 1.956 . S
Li1105 O1167 1.961 . S
Li1106 N1151 1.990 . S
Li1106 O1164 1.961 . S
Li1106 O1166 1.956 . S
Li1106 O1167 1.970 . S
Li1107 N1157 1.990 . S
Li1107 O1165 1.961 . S
Li1107 O1166 1.970 . S
Li1107 O1167 1.956 . S
C1108 C1110 1.348 . S
C1108 C1111 1.356 . S
C1108 O1164 1.325 . S
N1109 C1112 1.314 . S
N1109 C1113 1.279 . S
C1110 C1108 1.348 . S
C1110 C1112 1.353 . S
C1110 H1168 0.929 . S
C1111 C1108 1.356 . S
C1111 C1113 1.358 . S
C1111 H1169 0.930 . S
C1112 N1109 1.314 . S
C1112 C1110 1.353 . S
C1112 H1170 0.930 . S
C1113 N1109 1.279 . S
C1113 C1111 1.358 . S
C1113 H1171 0.930 . S
C1114 C1117 1.348 . S
C1114 C1118 1.356 . S
C1114 O1165 1.325 . S
C1115 N1116 1.279 . S
C1115 C1118 1.358 . S
C1115 H1172 0.930 . S
N1116 C1115 1.279 . S
N1116 C1119 1.314 . S
C1117 C1114 1.348 . S
C1117 C1119 1.353 . S
C1117 H1173 0.929 . S
C1118 C1114 1.356 . S
C1118 C1115 1.358 . S
C1118 H1174 0.930 . S
C1119 N1116 1.314 . S
C1119 C1117 1.353 . S
C1119 H1175 0.930 . S
C1120 N1121 1.314 . S
C1120 C1125 1.353 . S
C1120 H1126 0.930 . S
N1121 Li1104 1.990 . S
N1121 C1120 1.314 . S
N1121 C1123 1.279 . S
C1122 C1123 1.358 . S
C1122 C1124 1.356 . S
C1122 H1176 0.930 . S
C1123 N1121 1.279 . S
C1123 C1122 1.358 . S
C1123 H1127 0.930 . S
C1124 C1122 1.356 . S
C1124 C1125 1.348 . S
C1125 C1120 1.353 . S
C1125 C1124 1.348 . S
C1125 H1177 0.929 . S
H1126 C1120 0.930 . S
H1127 C1123 0.930 . S
C1128 N1129 1.314 . S
C1128 C1130 1.353 . S
C1128 H1134 0.930 . S
N1129 Li1105 1.990 . S
N1129 C1128 1.314 . S
N1129 C1132 1.279 . S
C1130 C1128 1.353 . S
C1130 C1133 1.348 . S
C1130 H1178 0.929 . S
C1131 C1132 1.358 . S
C1131 C1133 1.356 . S
C1131 H1179 0.930 . S
C1132 N1129 1.279 . S
C1132 C1131 1.358 . S
C1132 H1135 0.930 . S
C1133 C1130 1.348 . S
C1133 C1131 1.356 . S
H1134 C1128 0.930 . S
H1135 C1132 0.930 . S
C1136 C1138 1.348 . S
C1136 C1139 1.356 . S
C1136 O1166 1.325 . S
N1137 C1140 1.314 . S
N1137 C1141 1.279 . S
C1138 C1136 1.348 . S
C1138 C1140 1.353 . S
C1138 H1180 0.929 . S
C1139 C1136 1.356 . S
C1139 C1141 1.358 . S
C1139 H1181 0.930 . S
C1140 N1137 1.314 . S
C1140 C1138 1.353 . S
C1140 H1182 0.930 . S
C1141 N1137 1.279 . S
C1141 C1139 1.358 . S
C1141 H1183 0.930 . S
C1142 C1143 1.348 . S
C1142 C1144 1.356 . S
C1142 O1167 1.325 . S
C1143 C1142 1.348 . S
C1143 C1145 1.353 . S
C1143 H1184 0.929 . S
C1144 C1142 1.356 . S
C1144 C1146 1.358 . S
C1144 H1185 0.930 . S
C1145 C1143 1.353 . S
C1145 N1147 1.314 . S
C1145 H1186 0.930 . S
C1146 C1144 1.358 . S
C1146 N1147 1.279 . S
C1146 H1187 0.930 . S
N1147 C1145 1.314 . S
N1147 C1146 1.279 . S
C1148 C1150 1.353 . S
C1148 N1151 1.314 . S
C1148 H1154 0.930 . S
C1149 N1151 1.279 . S
C1149 C1152 1.358 . S
C1149 H1155 0.930 . S
C1150 C1148 1.353 . S
C1150 C1153 1.348 . S
C1150 H1188 0.929 . S
N1151 Li1106 1.990 . S
N1151 C1148 1.314 . S
N1151 C1149 1.279 . S
C1152 C1149 1.358 . S
C1152 C1153 1.356 . S
C1152 H1189 0.930 . S
C1153 C1150 1.348 . S
C1153 C1152 1.356 . S
H1154 C1148 0.930 . S
H1155 C1149 0.930 . S
C1156 N1157 1.314 . S
C1156 C1158 1.353 . S
C1156 H1162 0.930 . S
N1157 Li1107 1.990 . S
N1157 C1156 1.314 . S
N1157 C1160 1.279 . S
C1158 C1156 1.353 . S
C1158 C1161 1.348 . S
C1158 H1190 0.929 . S
C1159 C1160 1.358 . S
C1159 C1161 1.356 . S
C1159 H1191 0.930 . S
C1160 N1157 1.279 . S
C1160 C1159 1.358 . S
C1160 H1163 0.930 . S
C1161 C1158 1.348 . S
C1161 C1159 1.356 . S
H1162 C1156 0.930 . S
H1163 C1160 0.930 . S
O1164 Li1104 1.956 . S
O1164 Li1105 1.970 . S
O1164 Li1106 1.961 . S
O1164 C1108 1.325 . S
O1165 Li1104 1.970 . S
O1165 Li1105 1.956 . S
O1165 Li1107 1.961 . S
O1165 C1114 1.325 . S
O1166 Li1104 1.961 . S
O1166 Li1106 1.956 . S
O1166 Li1107 1.970 . S
O1166 C1136 1.325 . S
O1167 Li1105 1.961 . S
O1167 Li1106 1.970 . S
O1167 Li1107 1.956 . S
O1167 C1142 1.325 . S
H1168 C1110 0.929 . S
H1169 C1111 0.930 . S
H1170 C1112 0.930 . S
H1171 C1113 0.930 . S
H1172 C1115 0.930 . S
H1173 C1117 0.929 . S
H1174 C1118 0.930 . S
H1175 C1119 0.930 . S
H1176 C1122 0.930 . S
H1177 C1125 0.929 . S
H1178 C1130 0.929 . S
H1179 C1131 0.930 . S
H1180 C1138 0.929 . S
H1181 C1139 0.930 . S
H1182 C1140 0.930 . S
H1183 C1141 0.930 . S
H1184 C1143 0.929 . S
H1185 C1144 0.930 . S
H1186 C1145 0.930 . S
H1187 C1146 0.930 . S
H1188 C1150 0.929 . S
H1189 C1152 0.930 . S
H1190 C1158 0.929 . S
H1191 C1159 0.930 . S
Li1192 N1209 1.990 . S
Li1192 O1252 1.956 . S
Li1192 O1253 1.970 1_565 S
Li1192 O1254 1.961 . S
Li1193 N1217 1.990 . S
Li1193 O1252 1.970 1_545 S
Li1193 O1253 1.956 . S
Li1193 O1255 1.961 . S
Li1194 N1239 1.990 . S
Li1194 O1252 1.961 . S
Li1194 O1254 1.956 . S
Li1194 O1255 1.970 1_565 S
Li1195 N1245 1.990 . S
Li1195 O1253 1.961 . S
Li1195 O1254 1.970 1_545 S
Li1195 O1255 1.956 . S
C1196 C1198 1.348 . S
C1196 C1199 1.356 . S
C1196 O1252 1.325 . S
N1197 C1200 1.314 . S
N1197 C1201 1.279 . S
C1198 C1196 1.348 . S
C1198 C1200 1.353 . S
C1198 H1256 0.929 . S
C1199 C1196 1.356 . S
C1199 C1201 1.358 . S
C1199 H1257 0.930 . S
C1200 N1197 1.314 . S
C1200 C1198 1.353 . S
C1200 H1258 0.930 . S
C1201 N1197 1.279 . S
C1201 C1199 1.358 . S
C1201 H1259 0.930 . S
C1202 C1205 1.348 1_545 S
C1202 C1206 1.356 . S
C1202 O1253 1.325 . S
C1203 N1204 1.279 . S
C1203 C1206 1.358 . S
C1203 H1260 0.930 . S
N1204 C1203 1.279 . S
N1204 C1207 1.314 1_545 S
C1205 C1202 1.348 1_565 S
C1205 C1207 1.353 . S
C1205 H1261 0.929 . S
C1206 C1202 1.356 . S
C1206 C1203 1.358 . S
C1206 H1262 0.930 . S
C1207 N1204 1.314 1_565 S
C1207 C1205 1.353 . S
C1207 H1263 0.930 . S
C1208 N1209 1.314 . S
C1208 C1213 1.353 . S
C1208 H1214 0.930 . S
N1209 Li1192 1.990 . S
N1209 C1208 1.314 . S
N1209 C1211 1.279 . S
C1210 C1211 1.358 . S
C1210 C1212 1.356 . S
C1210 H1264 0.930 . S
C1211 N1209 1.279 . S
C1211 C1210 1.358 . S
C1211 H1215 0.930 . S
C1212 C1210 1.356 . S
C1212 C1213 1.348 . S
C1213 C1208 1.353 . S
C1213 C1212 1.348 . S
C1213 H1265 0.929 . S
H1214 C1208 0.930 . S
H1215 C1211 0.930 . S
C1216 N1217 1.314 . S
C1216 C1218 1.353 . S
C1216 H1222 0.930 . S
N1217 Li1193 1.990 . S
N1217 C1216 1.314 . S
N1217 C1220 1.279 . S
C1218 C1216 1.353 . S
C1218 C1221 1.348 . S
C1218 H1266 0.929 . S
C1219 C1220 1.358 . S
C1219 C1221 1.356 . S
C1219 H1267 0.930 . S
C1220 N1217 1.279 . S
C1220 C1219 1.358 . S
C1220 H1223 0.930 . S
C1221 C1218 1.348 . S
C1221 C1219 1.356 . S
H1222 C1216 0.930 . S
H1223 C1220 0.930 . S
C1224 C1226 1.348 1_565 S
C1224 C1227 1.356 . S
C1224 O1254 1.325 . S
N1225 C1228 1.314 1_565 S
N1225 C1229 1.279 . S
C1226 C1224 1.348 1_545 S
C1226 C1228 1.353 . S
C1226 H1268 0.929 . S
C1227 C1224 1.356 . S
C1227 C1229 1.358 . S
C1227 H1269 0.930 . S
C1228 N1225 1.314 1_545 S
C1228 C1226 1.353 . S
C1228 H1270 0.930 . S
C1229 N1225 1.279 . S
C1229 C1227 1.358 . S
C1229 H1271 0.930 . S
C1230 C1231 1.348 . S
C1230 C1232 1.356 . S
C1230 O1255 1.325 . S
C1231 C1230 1.348 . S
C1231 C1233 1.353 . S
C1231 H1272 0.929 . S
C1232 C1230 1.356 . S
C1232 C1234 1.358 . S
C1232 H1273 0.930 . S
C1233 C1231 1.353 . S
C1233 N1235 1.314 . S
C1233 H1274 0.930 . S
C1234 C1232 1.358 . S
C1234 N1235 1.279 . S
C1234 H1275 0.930 . S
N1235 C1233 1.314 . S
N1235 C1234 1.279 . S
C1236 C1238 1.353 . S
C1236 N1239 1.314 . S
C1236 H1242 0.930 . S
C1237 N1239 1.279 . S
C1237 C1240 1.358 . S
C1237 H1243 0.930 . S
C1238 C1236 1.353 . S
C1238 C1241 1.348 . S
C1238 H1276 0.929 . S
N1239 Li1194 1.990 . S
N1239 C1236 1.314 . S
N1239 C1237 1.279 . S
C1240 C1237 1.358 . S
C1240 C1241 1.356 . S
C1240 H1277 0.930 . S
C1241 C1238 1.348 . S
C1241 C1240 1.356 . S
H1242 C1236 0.930 . S
H1243 C1237 0.930 . S
C1244 N1245 1.314 . S
C1244 C1246 1.353 . S
C1244 H1250 0.930 . S
N1245 Li1195 1.990 . S
N1245 C1244 1.314 . S
N1245 C1248 1.279 . S
C1246 C1244 1.353 . S
C1246 C1249 1.348 . S
C1246 H1278 0.929 . S
C1247 C1248 1.358 . S
C1247 C1249 1.356 . S
C1247 H1279 0.930 . S
C1248 N1245 1.279 . S
C1248 C1247 1.358 . S
C1248 H1251 0.930 . S
C1249 C1246 1.348 . S
C1249 C1247 1.356 . S
H1250 C1244 0.930 . S
H1251 C1248 0.930 . S
O1252 Li1192 1.956 . S
O1252 Li1193 1.970 1_565 S
O1252 Li1194 1.961 . S
O1252 C1196 1.325 . S
O1253 Li1192 1.970 1_545 S
O1253 Li1193 1.956 . S
O1253 Li1195 1.961 . S
O1253 C1202 1.325 . S
O1254 Li1192 1.961 . S
O1254 Li1194 1.956 . S
O1254 Li1195 1.970 1_565 S
O1254 C1224 1.325 . S
O1255 Li1193 1.961 . S
O1255 Li1194 1.970 1_545 S
O1255 Li1195 1.956 . S
O1255 C1230 1.325 . S
H1256 C1198 0.929 . S
H1257 C1199 0.930 . S
H1258 C1200 0.930 . S
H1259 C1201 0.930 . S
H1260 C1203 0.930 . S
H1261 C1205 0.929 . S
H1262 C1206 0.930 . S
H1263 C1207 0.930 . S
H1264 C1210 0.930 . S
H1265 C1213 0.929 . S
H1266 C1218 0.929 . S
H1267 C1219 0.930 . S
H1268 C1226 0.929 . S
H1269 C1227 0.930 . S
H1270 C1228 0.930 . S
H1271 C1229 0.930 . S
H1272 C1231 0.929 . S
H1273 C1232 0.930 . S
H1274 C1233 0.930 . S
H1275 C1234 0.930 . S
H1276 C1238 0.929 . S
H1277 C1240 0.930 . S
H1278 C1246 0.929 . S
H1279 C1247 0.930 . S
Li1280 N1297 1.990 . S
Li1280 O1340 1.956 . S
Li1280 O1341 1.970 1_455 S
Li1280 O1342 1.961 . S
Li1281 N1305 1.990 . S
Li1281 O1340 1.970 1_655 S
Li1281 O1341 1.956 . S
Li1281 O1343 1.961 . S
Li1282 N1327 1.990 . S
Li1282 O1340 1.961 . S
Li1282 O1342 1.956 . S
Li1282 O1343 1.970 1_455 S
Li1283 N1333 1.990 . S
Li1283 O1341 1.961 . S
Li1283 O1342 1.970 1_655 S
Li1283 O1343 1.956 . S
C1284 C1286 1.348 . S
C1284 C1287 1.356 . S
C1284 O1340 1.325 . S
N1285 C1288 1.314 . S
N1285 C1289 1.279 . S
C1286 C1284 1.348 . S
C1286 C1288 1.353 . S
C1286 H1344 0.929 . S
C1287 C1284 1.356 . S
C1287 C1289 1.358 . S
C1287 H1345 0.930 . S
C1288 N1285 1.314 . S
C1288 C1286 1.353 . S
C1288 H1346 0.930 . S
C1289 N1285 1.279 . S
C1289 C1287 1.358 . S
C1289 H1347 0.930 . S
C1290 C1293 1.348 1_655 S
C1290 C1294 1.356 . S
C1290 O1341 1.325 . S
C1291 N1292 1.279 . S
C1291 C1294 1.358 . S
C1291 H1348 0.930 . S
N1292 C1291 1.279 . S
N1292 C1295 1.314 1_655 S
C1293 C1290 1.348 1_455 S
C1293 C1295 1.353 . S
C1293 H1349 0.929 . S
C1294 C1290 1.356 . S
C1294 C1291 1.358 . S
C1294 H1350 0.930 . S
C1295 N1292 1.314 1_455 S
C1295 C1293 1.353 . S
C1295 H1351 0.930 . S
C1296 N1297 1.314 . S
C1296 C1301 1.353 . S
C1296 H1302 0.930 . S
N1297 Li1280 1.990 . S
N1297 C1296 1.314 . S
N1297 C1299 1.279 . S
C1298 C1299 1.358 . S
C1298 C1300 1.356 . S
C1298 H1352 0.930 . S
C1299 N1297 1.279 . S
C1299 C1298 1.358 . S
C1299 H1303 0.930 . S
C1300 C1298 1.356 . S
C1300 C1301 1.348 . S
C1301 C1296 1.353 . S
C1301 C1300 1.348 . S
C1301 H1353 0.929 . S
H1302 C1296 0.930 . S
H1303 C1299 0.930 . S
C1304 N1305 1.314 . S
C1304 C1306 1.353 . S
C1304 H1310 0.930 . S
N1305 Li1281 1.990 . S
N1305 C1304 1.314 . S
N1305 C1308 1.279 . S
C1306 C1304 1.353 . S
C1306 C1309 1.348 . S
C1306 H1354 0.929 . S
C1307 C1308 1.358 . S
C1307 C1309 1.356 . S
C1307 H1355 0.930 . S
C1308 N1305 1.279 . S
C1308 C1307 1.358 . S
C1308 H1311 0.930 . S
C1309 C1306 1.348 . S
C1309 C1307 1.356 . S
H1310 C1304 0.930 . S
H1311 C1308 0.930 . S
C1312 C1314 1.348 1_455 S
C1312 C1315 1.356 . S
C1312 O1342 1.325 . S
N1313 C1316 1.314 1_455 S
N1313 C1317 1.279 . S
C1314 C1312 1.348 1_655 S
C1314 C1316 1.353 . S
C1314 H1356 0.929 . S
C1315 C1312 1.356 . S
C1315 C1317 1.358 . S
C1315 H1357 0.930 . S
C1316 N1313 1.314 1_655 S
C1316 C1314 1.353 . S
C1316 H1358 0.930 . S
C1317 N1313 1.279 . S
C1317 C1315 1.358 . S
C1317 H1359 0.930 . S
C1318 C1319 1.348 . S
C1318 C1320 1.356 . S
C1318 O1343 1.325 . S
C1319 C1318 1.348 . S
C1319 C1321 1.353 . S
C1319 H1360 0.929 . S
C1320 C1318 1.356 . S
C1320 C1322 1.358 . S
C1320 H1361 0.930 . S
C1321 C1319 1.353 . S
C1321 N1323 1.314 . S
C1321 H1362 0.930 . S
C1322 C1320 1.358 . S
C1322 N1323 1.279 . S
C1322 H1363 0.930 . S
N1323 C1321 1.314 . S
N1323 C1322 1.279 . S
C1324 C1326 1.353 . S
C1324 N1327 1.314 . S
C1324 H1330 0.930 . S
C1325 N1327 1.279 . S
C1325 C1328 1.358 . S
C1325 H1331 0.930 . S
C1326 C1324 1.353 . S
C1326 C1329 1.348 . S
C1326 H1364 0.929 . S
N1327 Li1282 1.990 . S
N1327 C1324 1.314 . S
N1327 C1325 1.279 . S
C1328 C1325 1.358 . S
C1328 C1329 1.356 . S
C1328 H1365 0.930 . S
C1329 C1326 1.348 . S
C1329 C1328 1.356 . S
H1330 C1324 0.930 . S
H1331 C1325 0.930 . S
C1332 N1333 1.314 . S
C1332 C1334 1.353 . S
C1332 H1338 0.930 . S
N1333 Li1283 1.990 . S
N1333 C1332 1.314 . S
N1333 C1336 1.279 . S
C1334 C1332 1.353 . S
C1334 C1337 1.348 . S
C1334 H1366 0.929 . S
C1335 C1336 1.358 . S
C1335 C1337 1.356 . S
C1335 H1367 0.930 . S
C1336 N1333 1.279 . S
C1336 C1335 1.358 . S
C1336 H1339 0.930 . S
C1337 C1334 1.348 . S
C1337 C1335 1.356 . S
H1338 C1332 0.930 . S
H1339 C1336 0.930 . S
O1340 Li1280 1.956 . S
O1340 Li1281 1.970 1_455 S
O1340 Li1282 1.961 . S
O1340 C1284 1.325 . S
O1341 Li1280 1.970 1_655 S
O1341 Li1281 1.956 . S
O1341 Li1283 1.961 . S
O1341 C1290 1.325 . S
O1342 Li1280 1.961 . S
O1342 Li1282 1.956 . S
O1342 Li1283 1.970 1_455 S
O1342 C1312 1.325 . S
O1343 Li1281 1.961 . S
O1343 Li1282 1.970 1_655 S
O1343 Li1283 1.956 . S
O1343 C1318 1.325 . S
H1344 C1286 0.929 . S
H1345 C1287 0.930 . S
H1346 C1288 0.930 . S
H1347 C1289 0.930 . S
H1348 C1291 0.930 . S
H1349 C1293 0.929 . S
H1350 C1294 0.930 . S
H1351 C1295 0.930 . S
H1352 C1298 0.930 . S
H1353 C1301 0.929 . S
H1354 C1306 0.929 . S
H1355 C1307 0.930 . S
H1356 C1314 0.929 . S
H1357 C1315 0.930 . S
H1358 C1316 0.930 . S
H1359 C1317 0.930 . S
H1360 C1319 0.929 . S
H1361 C1320 0.930 . S
H1362 C1321 0.930 . S
H1363 C1322 0.930 . S
H1364 C1326 0.929 . S
H1365 C1328 0.930 . S
H1366 C1334 0.929 . S
H1367 C1335 0.930 . S
Li1368 N1385 1.990 . S
Li1368 O1428 1.956 . S
Li1368 O1429 1.970 . S
Li1368 O1430 1.961 . S
Li1369 N1393 1.990 . S
Li1369 O1428 1.970 . S
Li1369 O1429 1.956 . S
Li1369 O1431 1.961 . S
Li1370 N1415 1.990 . S
Li1370 O1428 1.961 . S
Li1370 O1430 1.956 . S
Li1370 O1431 1.970 . S
Li1371 N1421 1.990 . S
Li1371 O1429 1.961 . S
Li1371 O1430 1.970 . S
Li1371 O1431 1.956 . S
C1372 C1374 1.348 . S
C1372 C1375 1.356 . S
C1372 O1428 1.325 . S
N1373 C1376 1.314 . S
N1373 C1377 1.279 . S
C1374 C1372 1.348 . S
C1374 C1376 1.353 . S
C1374 H1432 0.929 . S
C1375 C1372 1.356 . S
C1375 C1377 1.358 . S
C1375 H1433 0.930 . S
C1376 N1373 1.314 . S
C1376 C1374 1.353 . S
C1376 H1434 0.930 . S
C1377 N1373 1.279 . S
C1377 C1375 1.358 . S
C1377 H1435 0.930 . S
C1378 C1381 1.348 . S
C1378 C1382 1.356 . S
C1378 O1429 1.325 . S
C1379 N1380 1.279 . S
C1379 C1382 1.358 . S
C1379 H1436 0.930 . S
N1380 C1379 1.279 . S
N1380 C1383 1.314 . S
C1381 C1378 1.348 . S
C1381 C1383 1.353 . S
C1381 H1437 0.929 . S
C1382 C1378 1.356 . S
C1382 C1379 1.358 . S
C1382 H1438 0.930 . S
C1383 N1380 1.314 . S
C1383 C1381 1.353 . S
C1383 H1439 0.930 . S
C1384 N1385 1.314 . S
C1384 C1389 1.353 . S
C1384 H1390 0.930 . S
N1385 Li1368 1.990 . S
N1385 C1384 1.314 . S
N1385 C1387 1.279 . S
C1386 C1387 1.358 . S
C1386 C1388 1.356 . S
C1386 H1440 0.930 . S
C1387 N1385 1.279 . S
C1387 C1386 1.358 . S
C1387 H1391 0.930 . S
C1388 C1386 1.356 . S
C1388 C1389 1.348 . S
C1389 C1384 1.353 . S
C1389 C1388 1.348 . S
C1389 H1441 0.929 . S
H1390 C1384 0.930 . S
H1391 C1387 0.930 . S
C1392 N1393 1.314 . S
C1392 C1394 1.353 . S
C1392 H1398 0.930 . S
N1393 Li1369 1.990 . S
N1393 C1392 1.314 . S
N1393 C1396 1.279 . S
C1394 C1392 1.353 . S
C1394 C1397 1.348 . S
C1394 H1442 0.929 . S
C1395 C1396 1.358 . S
C1395 C1397 1.356 . S
C1395 H1443 0.930 . S
C1396 N1393 1.279 . S
C1396 C1395 1.358 . S
C1396 H1399 0.930 . S
C1397 C1394 1.348 . S
C1397 C1395 1.356 . S
H1398 C1392 0.930 . S
H1399 C1396 0.930 . S
C1400 C1402 1.348 . S
C1400 C1403 1.356 . S
C1400 O1430 1.325 . S
N1401 C1404 1.314 . S
N1401 C1405 1.279 . S
C1402 C1400 1.348 . S
C1402 C1404 1.353 . S
C1402 H1444 0.929 . S
C1403 C1400 1.356 . S
C1403 C1405 1.358 . S
C1403 H1445 0.930 . S
C1404 N1401 1.314 . S
C1404 C1402 1.353 . S
C1404 H1446 0.930 . S
C1405 N1401 1.279 . S
C1405 C1403 1.358 . S
C1405 H1447 0.930 . S
C1406 C1407 1.348 . S
C1406 C1408 1.356 . S
C1406 O1431 1.325 . S
C1407 C1406 1.348 . S
C1407 C1409 1.353 . S
C1407 H1448 0.929 . S
C1408 C1406 1.356 . S
C1408 C1410 1.358 . S
C1408 H1449 0.930 . S
C1409 C1407 1.353 . S
C1409 N1411 1.314 . S
C1409 H1450 0.930 . S
C1410 C1408 1.358 . S
C1410 N1411 1.279 . S
C1410 H1451 0.930 . S
N1411 C1409 1.314 . S
N1411 C1410 1.279 . S
C1412 C1414 1.353 . S
C1412 N1415 1.314 . S
C1412 H1418 0.930 . S
C1413 N1415 1.279 . S
C1413 C1416 1.358 . S
C1413 H1419 0.930 . S
C1414 C1412 1.353 . S
C1414 C1417 1.348 . S
C1414 H1452 0.929 . S
N1415 Li1370 1.990 . S
N1415 C1412 1.314 . S
N1415 C1413 1.279 . S
C1416 C1413 1.358 . S
C1416 C1417 1.356 . S
C1416 H1453 0.930 . S
C1417 C1414 1.348 . S
C1417 C1416 1.356 . S
H1418 C1412 0.930 . S
H1419 C1413 0.930 . S
C1420 N1421 1.314 . S
C1420 C1422 1.353 . S
C1420 H1426 0.930 . S
N1421 Li1371 1.990 . S
N1421 C1420 1.314 . S
N1421 C1424 1.279 . S
C1422 C1420 1.353 . S
C1422 C1425 1.348 . S
C1422 H1454 0.929 . S
C1423 C1424 1.358 . S
C1423 C1425 1.356 . S
C1423 H1455 0.930 . S
C1424 N1421 1.279 . S
C1424 C1423 1.358 . S
C1424 H1427 0.930 . S
C1425 C1422 1.348 . S
C1425 C1423 1.356 . S
H1426 C1420 0.930 . S
H1427 C1424 0.930 . S
O1428 Li1368 1.956 . S
O1428 Li1369 1.970 . S
O1428 Li1370 1.961 . S
O1428 C1372 1.325 . S
O1429 Li1368 1.970 . S
O1429 Li1369 1.956 . S
O1429 Li1371 1.961 . S
O1429 C1378 1.325 . S
O1430 Li1368 1.961 . S
O1430 Li1370 1.956 . S
O1430 Li1371 1.970 . S
O1430 C1400 1.325 . S
O1431 Li1369 1.961 . S
O1431 Li1370 1.970 . S
O1431 Li1371 1.956 . S
O1431 C1406 1.325 . S
H1432 C1374 0.929 . S
H1433 C1375 0.930 . S
H1434 C1376 0.930 . S
H1435 C1377 0.930 . S
H1436 C1379 0.930 . S
H1437 C1381 0.929 . S
H1438 C1382 0.930 . S
H1439 C1383 0.930 . S
H1440 C1386 0.930 . S
H1441 C1389 0.929 . S
H1442 C1394 0.929 . S
H1443 C1395 0.930 . S
H1444 C1402 0.929 . S
H1445 C1403 0.930 . S
H1446 C1404 0.930 . S
H1447 C1405 0.930 . S
H1448 C1407 0.929 . S
H1449 C1408 0.930 . S
H1450 C1409 0.930 . S
H1451 C1410 0.930 . S
H1452 C1414 0.929 . S
H1453 C1416 0.930 . S
H1454 C1422 0.929 . S
H1455 C1423 0.930 . S
Li1456 N1473 1.990 . S
Li1456 O1516 1.956 . S
Li1456 O1517 1.970 1_455 S
Li1456 O1518 1.961 . S
Li1457 N1481 1.990 . S
Li1457 O1516 1.970 1_655 S
Li1457 O1517 1.956 . S
Li1457 O1519 1.961 . S
Li1458 N1503 1.990 . S
Li1458 O1516 1.961 . S
Li1458 O1518 1.956 . S
Li1458 O1519 1.970 1_455 S
Li1459 N1509 1.990 . S
Li1459 O1517 1.961 . S
Li1459 O1518 1.970 1_655 S
Li1459 O1519 1.956 . S
C1460 C1462 1.348 1_455 S
C1460 C1463 1.356 . S
C1460 O1516 1.325 . S
N1461 C1464 1.314 1_455 S
N1461 C1465 1.279 . S
C1462 C1460 1.348 1_655 S
C1462 C1464 1.353 . S
C1462 H1520 0.929 . S
C1463 C1460 1.356 . S
C1463 C1465 1.358 . S
C1463 H1521 0.930 . S
C1464 N1461 1.314 1_655 S
C1464 C1462 1.353 . S
C1464 H1522 0.930 . S
C1465 N1461 1.279 . S
C1465 C1463 1.358 . S
C1465 H1523 0.930 . S
C1466 C1469 1.348 . S
C1466 C1470 1.356 . S
C1466 O1517 1.325 . S
C1467 N1468 1.279 . S
C1467 C1470 1.358 . S
C1467 H1524 0.930 . S
N1468 C1467 1.279 . S
N1468 C1471 1.314 . S
C1469 C1466 1.348 . S
C1469 C1471 1.353 . S
C1469 H1525 0.929 . S
C1470 C1466 1.356 . S
C1470 C1467 1.358 . S
C1470 H1526 0.930 . S
C1471 N1468 1.314 . S
C1471 C1469 1.353 . S
C1471 H1527 0.930 . S
C1472 N1473 1.314 . S
C1472 C1477 1.353 . S
C1472 H1478 0.930 . S
N1473 Li1456 1.990 . S
N1473 C1472 1.314 . S
N1473 C1475 1.279 . S
C1474 C1475 1.358 . S
C1474 C1476 1.356 . S
C1474 H1528 0.930 . S
C1475 N1473 1.279 . S
C1475 C1474 1.358 . S
C1475 H1479 0.930 . S
C1476 C1474 1.356 . S
C1476 C1477 1.348 . S
C1477 C1472 1.353 . S
C1477 C1476 1.348 . S
C1477 H1529 0.929 . S
H1478 C1472 0.930 . S
H1479 C1475 0.930 . S
C1480 N1481 1.314 . S
C1480 C1482 1.353 . S
C1480 H1486 0.930 . S
N1481 Li1457 1.990 . S
N1481 C1480 1.314 . S
N1481 C1484 1.279 . S
C1482 C1480 1.353 . S
C1482 C1485 1.348 . S
C1482 H1530 0.929 . S
C1483 C1484 1.358 . S
C1483 C1485 1.356 . S
C1483 H1531 0.930 . S
C1484 N1481 1.279 . S
C1484 C1483 1.358 . S
C1484 H1487 0.930 . S
C1485 C1482 1.348 . S
C1485 C1483 1.356 . S
H1486 C1480 0.930 . S
H1487 C1484 0.930 . S
C1488 C1490 1.348 . S
C1488 C1491 1.356 . S
C1488 O1518 1.325 . S
N1489 C1492 1.314 . S
N1489 C1493 1.279 . S
C1490 C1488 1.348 . S
C1490 C1492 1.353 . S
C1490 H1532 0.929 . S
C1491 C1488 1.356 . S
C1491 C1493 1.358 . S
C1491 H1533 0.930 . S
C1492 N1489 1.314 . S
C1492 C1490 1.353 . S
C1492 H1534 0.930 . S
C1493 N1489 1.279 . S
C1493 C1491 1.358 . S
C1493 H1535 0.930 . S
C1494 C1495 1.348 1_655 S
C1494 C1496 1.356 . S
C1494 O1519 1.325 . S
C1495 C1494 1.348 1_455 S
C1495 C1497 1.353 . S
C1495 H1536 0.929 . S
C1496 C1494 1.356 . S
C1496 C1498 1.358 . S
C1496 H1537 0.930 . S
C1497 C1495 1.353 . S
C1497 N1499 1.314 1_455 S
C1497 H1538 0.930 . S
C1498 C1496 1.358 . S
C1498 N1499 1.279 . S
C1498 H1539 0.930 . S
N1499 C1497 1.314 1_655 S
N1499 C1498 1.279 . S
C1500 C1502 1.353 . S
C1500 N1503 1.314 . S
C1500 H1506 0.930 . S
C1501 N1503 1.279 . S
C1501 C1504 1.358 . S
C1501 H1507 0.930 . S
C1502 C1500 1.353 . S
C1502 C1505 1.348 . S
C1502 H1540 0.929 . S
N1503 Li1458 1.990 . S
N1503 C1500 1.314 . S
N1503 C1501 1.279 . S
C1504 C1501 1.358 . S
C1504 C1505 1.356 . S
C1504 H1541 0.930 . S
C1505 C1502 1.348 . S
C1505 C1504 1.356 . S
H1506 C1500 0.930 . S
H1507 C1501 0.930 . S
C1508 N1509 1.314 . S
C1508 C1510 1.353 . S
C1508 H1514 0.930 . S
N1509 Li1459 1.990 . S
N1509 C1508 1.314 . S
N1509 C1512 1.279 . S
C1510 C1508 1.353 . S
C1510 C1513 1.348 . S
C1510 H1542 0.929 . S
C1511 C1512 1.358 . S
C1511 C1513 1.356 . S
C1511 H1543 0.930 . S
C1512 N1509 1.279 . S
C1512 C1511 1.358 . S
C1512 H1515 0.930 . S
C1513 C1510 1.348 . S
C1513 C1511 1.356 . S
H1514 C1508 0.930 . S
H1515 C1512 0.930 . S
O1516 Li1456 1.956 . S
O1516 Li1457 1.970 1_455 S
O1516 Li1458 1.961 . S
O1516 C1460 1.325 . S
O1517 Li1456 1.970 1_655 S
O1517 Li1457 1.956 . S
O1517 Li1459 1.961 . S
O1517 C1466 1.325 . S
O1518 Li1456 1.961 . S
O1518 Li1458 1.956 . S
O1518 Li1459 1.970 1_455 S
O1518 C1488 1.325 . S
O1519 Li1457 1.961 . S
O1519 Li1458 1.970 1_655 S
O1519 Li1459 1.956 . S
O1519 C1494 1.325 . S
H1520 C1462 0.929 . S
H1521 C1463 0.930 . S
H1522 C1464 0.930 . S
H1523 C1465 0.930 . S
H1524 C1467 0.930 . S
H1525 C1469 0.929 . S
H1526 C1470 0.930 . S
H1527 C1471 0.930 . S
H1528 C1474 0.930 . S
H1529 C1477 0.929 . S
H1530 C1482 0.929 . S
H1531 C1483 0.930 . S
H1532 C1490 0.929 . S
H1533 C1491 0.930 . S
H1534 C1492 0.930 . S
H1535 C1493 0.930 . S
H1536 C1495 0.929 . S
H1537 C1496 0.930 . S
H1538 C1497 0.930 . S
H1539 C1498 0.930 . S
H1540 C1502 0.929 . S
H1541 C1504 0.930 . S
H1542 C1510 0.929 . S
H1543 C1511 0.930 . S
Li1544 N1561 1.990 . S
Li1544 O1604 1.956 . S
Li1544 O1605 1.970 . S
Li1544 O1606 1.961 . S
Li1545 N1569 1.990 . S
Li1545 O1604 1.970 . S
Li1545 O1605 1.956 . S
Li1545 O1607 1.961 . S
Li1546 N1591 1.990 . S
Li1546 O1604 1.961 . S
Li1546 O1606 1.956 . S
Li1546 O1607 1.970 . S
Li1547 N1597 1.990 . S
Li1547 O1605 1.961 . S
Li1547 O1606 1.970 . S
Li1547 O1607 1.956 . S
C1548 C1550 1.348 . S
C1548 C1551 1.356 . S
C1548 O1604 1.325 . S
N1549 C1552 1.314 . S
N1549 C1553 1.279 . S
C1550 C1548 1.348 . S
C1550 C1552 1.353 . S
C1550 H1608 0.929 . S
C1551 C1548 1.356 . S
C1551 C1553 1.358 . S
C1551 H1609 0.930 . S
C1552 N1549 1.314 . S
C1552 C1550 1.353 . S
C1552 H1610 0.930 . S
C1553 N1549 1.279 . S
C1553 C1551 1.358 . S
C1553 H1611 0.930 . S
C1554 C1557 1.348 . S
C1554 C1558 1.356 . S
C1554 O1605 1.325 . S
C1555 N1556 1.279 . S
C1555 C1558 1.358 . S
C1555 H1612 0.930 . S
N1556 C1555 1.279 . S
N1556 C1559 1.314 . S
C1557 C1554 1.348 . S
C1557 C1559 1.353 . S
C1557 H1613 0.929 . S
C1558 C1554 1.356 . S
C1558 C1555 1.358 . S
C1558 H1614 0.930 . S
C1559 N1556 1.314 . S
C1559 C1557 1.353 . S
C1559 H1615 0.930 . S
C1560 N1561 1.314 . S
C1560 C1565 1.353 . S
C1560 H1566 0.930 . S
N1561 Li1544 1.990 . S
N1561 C1560 1.314 . S
N1561 C1563 1.279 . S
C1562 C1563 1.358 . S
C1562 C1564 1.356 . S
C1562 H1616 0.930 . S
C1563 N1561 1.279 . S
C1563 C1562 1.358 . S
C1563 H1567 0.930 . S
C1564 C1562 1.356 . S
C1564 C1565 1.348 . S
C1565 C1560 1.353 . S
C1565 C1564 1.348 . S
C1565 H1617 0.929 . S
H1566 C1560 0.930 . S
H1567 C1563 0.930 . S
C1568 N1569 1.314 . S
C1568 C1570 1.353 . S
C1568 H1574 0.930 . S
N1569 Li1545 1.990 . S
N1569 C1568 1.314 . S
N1569 C1572 1.279 . S
C1570 C1568 1.353 . S
C1570 C1573 1.348 . S
C1570 H1618 0.929 . S
C1571 C1572 1.358 . S
C1571 C1573 1.356 . S
C1571 H1619 0.930 . S
C1572 N1569 1.279 . S
C1572 C1571 1.358 . S
C1572 H1575 0.930 . S
C1573 C1570 1.348 . S
C1573 C1571 1.356 . S
H1574 C1568 0.930 . S
H1575 C1572 0.930 . S
C1576 C1578 1.348 . S
C1576 C1579 1.356 . S
C1576 O1606 1.325 . S
N1577 C1580 1.314 . S
N1577 C1581 1.279 . S
C1578 C1576 1.348 . S
C1578 C1580 1.353 . S
C1578 H1620 0.929 . S
C1579 C1576 1.356 . S
C1579 C1581 1.358 . S
C1579 H1621 0.930 . S
C1580 N1577 1.314 . S
C1580 C1578 1.353 . S
C1580 H1622 0.930 . S
C1581 N1577 1.279 . S
C1581 C1579 1.358 . S
C1581 H1623 0.930 . S
C1582 C1583 1.348 . S
C1582 C1584 1.356 . S
C1582 O1607 1.325 . S
C1583 C1582 1.348 . S
C1583 C1585 1.353 . S
C1583 H1624 0.929 . S
C1584 C1582 1.356 . S
C1584 C1586 1.358 . S
C1584 H1625 0.930 . S
C1585 C1583 1.353 . S
C1585 N1587 1.314 . S
C1585 H1626 0.930 . S
C1586 C1584 1.358 . S
C1586 N1587 1.279 . S
C1586 H1627 0.930 . S
N1587 C1585 1.314 . S
N1587 C1586 1.279 . S
C1588 C1590 1.353 . S
C1588 N1591 1.314 . S
C1588 H1594 0.930 . S
C1589 N1591 1.279 . S
C1589 C1592 1.358 . S
C1589 H1595 0.930 . S
C1590 C1588 1.353 . S
C1590 C1593 1.348 . S
C1590 H1628 0.929 . S
N1591 Li1546 1.990 . S
N1591 C1588 1.314 . S
N1591 C1589 1.279 . S
C1592 C1589 1.358 . S
C1592 C1593 1.356 . S
C1592 H1629 0.930 . S
C1593 C1590 1.348 . S
C1593 C1592 1.356 . S
H1594 C1588 0.930 . S
H1595 C1589 0.930 . S
C1596 N1597 1.314 . S
C1596 C1598 1.353 . S
C1596 H1602 0.930 . S
N1597 Li1547 1.990 . S
N1597 C1596 1.314 . S
N1597 C1600 1.279 . S
C1598 C1596 1.353 . S
C1598 C1601 1.348 . S
C1598 H1630 0.929 . S
C1599 C1600 1.358 . S
C1599 C1601 1.356 . S
C1599 H1631 0.930 . S
C1600 N1597 1.279 . S
C1600 C1599 1.358 . S
C1600 H1603 0.930 . S
C1601 C1598 1.348 . S
C1601 C1599 1.356 . S
H1602 C1596 0.930 . S
H1603 C1600 0.930 . S
O1604 Li1544 1.956 . S
O1604 Li1545 1.970 . S
O1604 Li1546 1.961 . S
O1604 C1548 1.325 . S
O1605 Li1544 1.970 . S
O1605 Li1545 1.956 . S
O1605 Li1547 1.961 . S
O1605 C1554 1.325 . S
O1606 Li1544 1.961 . S
O1606 Li1546 1.956 . S
O1606 Li1547 1.970 . S
O1606 C1576 1.325 . S
O1607 Li1545 1.961 . S
O1607 Li1546 1.970 . S
O1607 Li1547 1.956 . S
O1607 C1582 1.325 . S
H1608 C1550 0.929 . S
H1609 C1551 0.930 . S
H1610 C1552 0.930 . S
H1611 C1553 0.930 . S
H1612 C1555 0.930 . S
H1613 C1557 0.929 . S
H1614 C1558 0.930 . S
H1615 C1559 0.930 . S
H1616 C1562 0.930 . S
H1617 C1565 0.929 . S
H1618 C1570 0.929 . S
H1619 C1571 0.930 . S
H1620 C1578 0.929 . S
H1621 C1579 0.930 . S
H1622 C1580 0.930 . S
H1623 C1581 0.930 . S
H1624 C1583 0.929 . S
H1625 C1584 0.930 . S
H1626 C1585 0.930 . S
H1627 C1586 0.930 . S
H1628 C1590 0.929 . S
H1629 C1592 0.930 . S
H1630 C1598 0.929 . S
H1631 C1599 0.930 . S
H1632 C1640 0.950 . S
H1633 C1645 0.950 . S
H1634 C1642 0.950 . S
H1635 C1644 0.950 . S
H1636 C1646 0.950 . S
H1637 C1648 0.950 . S
H1638 C1650 0.950 . S
H1639 C1651 0.950 . S
C1640 H1632 0.950 . S
C1640 C1641 1.386 . S
C1640 C1642 1.391 . S
C1641 C1640 1.386 . S
C1641 C1645 1.393 . S
C1642 H1634 0.950 . S
C1642 C1640 1.391 . S
C1642 C1643 1.400 . S
C1643 C1642 1.400 . S
C1643 C1644 1.398 . S
C1643 C1649 1.491 . S
C1644 H1635 0.950 . S
C1644 C1643 1.398 . S
C1644 C1645 1.391 . S
C1645 H1633 0.950 . S
C1645 C1641 1.393 . S
C1645 C1644 1.391 . S
C1646 H1636 0.950 . S
C1646 C1647 1.386 . S
C1646 C1648 1.391 . S
C1647 C1646 1.386 . S
C1647 C1651 1.393 . S
C1648 H1637 0.950 . S
C1648 C1646 1.391 . S
C1648 C1649 1.400 . S
C1649 C1643 1.491 . S
C1649 C1648 1.400 . S
C1649 C1650 1.398 . S
C1650 H1638 0.950 . S
C1650 C1649 1.398 . S
C1650 C1651 1.391 . S
C1651 H1639 0.950 . S
C1651 C1647 1.393 . S
C1651 C1650 1.391 . S
H1652 C1660 0.950 . S
H1653 C1665 0.950 . S
H1654 C1662 0.950 . S
H1655 C1664 0.950 . S
H1656 C1666 0.950 . S
H1657 C1668 0.950 . S
H1658 C1670 0.950 . S
H1659 C1671 0.950 . S
C1660 H1652 0.950 . S
C1660 C1661 1.386 . S
C1660 C1662 1.391 . S
C1661 C1660 1.386 . S
C1661 C1665 1.393 . S
C1662 H1654 0.950 . S
C1662 C1660 1.391 . S
C1662 C1663 1.400 . S
C1663 C1662 1.400 . S
C1663 C1664 1.398 . S
C1663 C1669 1.491 . S
C1664 H1655 0.950 . S
C1664 C1663 1.398 . S
C1664 C1665 1.391 . S
C1665 H1653 0.950 . S
C1665 C1661 1.393 . S
C1665 C1664 1.391 . S
C1666 H1656 0.950 . S
C1666 C1667 1.386 . S
C1666 C1668 1.391 . S
C1667 C1666 1.386 . S
C1667 C1671 1.393 . S
C1668 H1657 0.950 . S
C1668 C1666 1.391 . S
C1668 C1669 1.400 . S
C1669 C1663 1.491 . S
C1669 C1668 1.400 . S
C1669 C1670 1.398 . S
C1670 H1658 0.950 . S
C1670 C1669 1.398 . S
C1670 C1671 1.391 . S
C1671 H1659 0.950 . S
C1671 C1667 1.393 . S
C1671 C1670 1.391 . S
H1672 C1680 0.950 . S
H1673 C1685 0.950 . S
H1674 C1682 0.950 . S
H1675 C1684 0.950 . S
H1676 C1686 0.950 . S
H1677 C1688 0.950 . S
H1678 C1690 0.950 . S
H1679 C1691 0.950 . S
C1680 H1672 0.950 . S
C1680 C1681 1.386 . S
C1680 C1682 1.391 . S
C1681 C1680 1.386 . S
C1681 C1685 1.393 . S
C1682 H1674 0.950 . S
C1682 C1680 1.391 . S
C1682 C1683 1.400 . S
C1683 C1682 1.400 . S
C1683 C1684 1.398 . S
C1683 C1689 1.491 . S
C1684 H1675 0.950 . S
C1684 C1683 1.398 . S
C1684 C1685 1.391 . S
C1685 H1673 0.950 . S
C1685 C1681 1.393 . S
C1685 C1684 1.391 . S
C1686 H1676 0.950 . S
C1686 C1687 1.386 . S
C1686 C1688 1.391 . S
C1687 C1686 1.386 . S
C1687 C1691 1.393 . S
C1688 H1677 0.950 . S
C1688 C1686 1.391 . S
C1688 C1689 1.400 . S
C1689 C1683 1.491 . S
C1689 C1688 1.400 . S
C1689 C1690 1.398 . S
C1690 H1678 0.950 . S
C1690 C1689 1.398 . S
C1690 C1691 1.391 . S
C1691 H1679 0.950 . S
C1691 C1687 1.393 . S
C1691 C1690 1.391 . S
H1692 C1700 0.950 . S
H1693 C1705 0.950 . S
H1694 C1702 0.950 1_545 S
H1695 C1704 0.950 . S
H1696 C1706 0.950 . S
H1697 C1708 0.950 . S
H1698 C1710 0.950 1_545 S
H1699 C1711 0.934 1_545 S
C1700 H1692 0.950 . S
C1700 C1701 1.386 . S
C1700 C1702 1.391 . S
C1701 C1700 1.386 . S
C1701 C1705 1.393 . S
C1702 H1694 0.950 1_565 S
C1702 C1700 1.391 . S
C1702 C1703 1.400 . S
C1703 C1702 1.400 . S
C1703 C1704 1.398 . S
C1703 C1709 1.491 . S
C1704 H1695 0.950 . S
C1704 C1703 1.398 . S
C1704 C1705 1.391 . S
C1705 H1693 0.950 . S
C1705 C1701 1.393 . S
C1705 C1704 1.391 . S
C1706 H1696 0.950 . S
C1706 C1707 1.386 . S
C1706 C1708 1.391 . S
C1707 C1706 1.386 . S
C1707 C1711 1.406 . S
C1708 H1697 0.950 . S
C1708 C1706 1.391 . S
C1708 C1709 1.400 . S
C1709 C1703 1.491 . S
C1709 C1708 1.400 . S
C1709 C1710 1.398 . S
C1710 H1698 0.950 1_565 S
C1710 C1709 1.398 . S
C1710 C1711 1.393 . S
C1711 H1699 0.934 1_565 S
C1711 C1707 1.406 . S
C1711 C1710 1.393 . S
H1712 C1720 0.950 . S
H1713 C1725 0.950 . S
H1714 C1722 0.950 . S
H1715 C1724 0.950 . S
H1716 C1726 0.950 . S
H1717 C1728 0.950 . S
H1718 C1730 0.950 . S
H1719 C1731 0.950 . S
C1720 H1712 0.950 . S
C1720 C1721 1.386 . S
C1720 C1722 1.391 . S
C1721 C1720 1.386 . S
C1721 C1725 1.393 . S
C1722 H1714 0.950 . S
C1722 C1720 1.391 . S
C1722 C1723 1.400 . S
C1723 C1722 1.400 . S
C1723 C1724 1.398 . S
C1723 C1729 1.491 . S
C1724 H1715 0.950 . S
C1724 C1723 1.398 . S
C1724 C1725 1.391 . S
C1725 H1713 0.950 . S
C1725 C1721 1.393 . S
C1725 C1724 1.391 . S
C1726 H1716 0.950 . S
C1726 C1727 1.386 . S
C1726 C1728 1.391 . S
C1727 C1726 1.386 . S
C1727 C1731 1.393 . S
C1728 H1717 0.950 . S
C1728 C1726 1.391 . S
C1728 C1729 1.400 . S
C1729 C1723 1.491 . S
C1729 C1728 1.400 . S
C1729 C1730 1.398 . S
C1730 H1718 0.950 . S
C1730 C1729 1.398 . S
C1730 C1731 1.391 . S
C1731 H1719 0.950 . S
C1731 C1727 1.393 . S
C1731 C1730 1.391 . S
H1732 C1740 0.950 . S
H1733 C1745 0.950 . S
H1734 C1742 0.950 . S
H1735 C1744 0.950 . S
H1736 C1746 0.950 . S
H1737 C1748 0.950 . S
H1738 C1750 0.950 . S
H1739 C1751 0.950 . S
C1740 H1732 0.950 . S
C1740 C1741 1.386 . S
C1740 C1742 1.391 . S
C1741 C1740 1.386 . S
C1741 C1745 1.393 . S
C1742 H1734 0.950 . S
C1742 C1740 1.391 . S
C1742 C1743 1.400 . S
C1743 C1742 1.400 . S
C1743 C1744 1.398 . S
C1743 C1749 1.491 . S
C1744 H1735 0.950 . S
C1744 C1743 1.398 . S
C1744 C1745 1.391 . S
C1745 H1733 0.950 . S
C1745 C1741 1.393 . S
C1745 C1744 1.391 . S
C1746 H1736 0.950 . S
C1746 C1747 1.386 . S
C1746 C1748 1.391 . S
C1747 C1746 1.386 . S
C1747 C1751 1.393 . S
C1748 H1737 0.950 . S
C1748 C1746 1.391 . S
C1748 C1749 1.400 . S
C1749 C1743 1.491 . S
C1749 C1748 1.400 . S
C1749 C1750 1.398 . S
C1750 H1738 0.950 . S
C1750 C1749 1.398 . S
C1750 C1751 1.391 . S
C1751 H1739 0.950 . S
C1751 C1747 1.393 . S
C1751 C1750 1.391 . S
H1752 C1760 0.950 . S
H1753 C1765 0.950 . S
H1754 C1762 0.950 . S
H1755 C1764 0.950 . S
H1756 C1766 0.950 . S
H1757 C1768 0.950 . S
H1758 C1770 0.950 . S
H1759 C1771 0.950 . S
C1760 H1752 0.950 . S
C1760 C1761 1.386 . S
C1760 C1762 1.391 . S
C1761 C1760 1.386 . S
C1761 C1765 1.393 . S
C1762 H1754 0.950 . S
C1762 C1760 1.391 . S
C1762 C1763 1.400 . S
C1763 C1762 1.400 . S
C1763 C1764 1.398 . S
C1763 C1769 1.491 . S
C1764 H1755 0.950 . S
C1764 C1763 1.398 . S
C1764 C1765 1.391 . S
C1765 H1753 0.950 . S
C1765 C1761 1.393 . S
C1765 C1764 1.391 . S
C1766 H1756 0.950 . S
C1766 C1767 1.386 . S
C1766 C1768 1.391 . S
C1767 C1766 1.386 . S
C1767 C1771 1.393 . S
C1768 H1757 0.950 . S
C1768 C1766 1.391 . S
C1768 C1769 1.400 . S
C1769 C1763 1.491 . S
C1769 C1768 1.400 . S
C1769 C1770 1.398 . S
C1770 H1758 0.950 . S
C1770 C1769 1.398 . S
C1770 C1771 1.391 . S
C1771 H1759 0.950 . S
C1771 C1767 1.393 . S
C1771 C1770 1.391 . S
H1772 C1780 0.950 1_545 S
H1773 C1785 0.950 . S
H1774 C1782 0.950 1_545 S
H1775 C1784 0.950 . S
H1776 C1786 0.950 . S
H1777 C1788 0.950 . S
H1778 C1790 0.950 . S
H1779 C1791 0.950 . S
C1780 H1772 0.950 1_565 S
C1780 C1781 1.386 . S
C1780 C1782 1.391 . S
C1781 C1780 1.386 . S
C1781 C1785 1.393 . S
C1782 H1774 0.950 1_565 S
C1782 C1780 1.391 . S
C1782 C1783 1.400 . S
C1783 C1782 1.400 . S
C1783 C1784 1.398 . S
C1783 C1789 1.491 . S
C1784 H1775 0.950 . S
C1784 C1783 1.398 . S
C1784 C1785 1.391 . S
C1785 H1773 0.950 . S
C1785 C1781 1.393 . S
C1785 C1784 1.391 . S
C1786 H1776 0.950 . S
C1786 C1787 1.386 . S
C1786 C1788 1.391 . S
C1787 C1786 1.386 . S
C1787 C1791 1.393 1_565 S
C1788 H1777 0.950 . S
C1788 C1786 1.391 . S
C1788 C1789 1.400 . S
C1789 C1783 1.491 . S
C1789 C1788 1.400 . S
C1789 C1790 1.398 1_565 S
C1790 H1778 0.950 . S
C1790 C1789 1.398 1_545 S
C1790 C1791 1.391 . S
C1791 H1779 0.950 . S
C1791 C1787 1.393 1_545 S
C1791 C1790 1.391 . S
H1792 C1800 0.950 . S
H1793 C1805 0.950 . S
H1794 C1802 0.950 . S
H1795 C1804 0.950 . S
H1796 C1806 0.950 . S
H1797 C1808 0.950 . S
H1798 C1810 0.950 . S
H1799 C1811 0.950 . S
C1800 H1792 0.950 . S
C1800 C1801 1.386 . S
C1800 C1802 1.391 . S
C1801 C1800 1.386 . S
C1801 C1805 1.393 . S
C1802 H1794 0.950 . S
C1802 C1800 1.391 . S
C1802 C1803 1.400 . S
C1803 C1802 1.400 . S
C1803 C1804 1.398 . S
C1803 C1809 1.491 . S
C1804 H1795 0.950 . S
C1804 C1803 1.398 . S
C1804 C1805 1.391 . S
C1805 H1793 0.950 . S
C1805 C1801 1.393 . S
C1805 C1804 1.391 . S
C1806 H1796 0.950 . S
C1806 C1807 1.386 . S
C1806 C1808 1.391 . S
C1807 C1806 1.386 . S
C1807 C1811 1.393 . S
C1808 H1797 0.950 . S
C1808 C1806 1.391 . S
C1808 C1809 1.400 . S
C1809 C1803 1.491 . S
C1809 C1808 1.400 . S
C1809 C1810 1.398 . S
C1810 H1798 0.950 . S
C1810 C1809 1.398 . S
C1810 C1811 1.391 . S
C1811 H1799 0.950 . S
C1811 C1807 1.393 . S
C1811 C1810 1.391 . S
H1812 C1820 0.950 . S
H1813 C1825 0.950 . S
H1814 C1822 0.950 . S
H1815 C1824 0.950 . S
H1816 C1826 0.950 . S
H1817 C1828 0.950 . S
H1818 C1830 0.950 . S
H1819 C1831 0.950 . S
C1820 H1812 0.950 . S
C1820 C1821 1.386 . S
C1820 C1822 1.391 . S
C1821 C1820 1.386 . S
C1821 C1825 1.393 . S
C1822 H1814 0.950 . S
C1822 C1820 1.391 . S
C1822 C1823 1.400 . S
C1823 C1822 1.400 . S
C1823 C1824 1.398 . S
C1823 C1829 1.491 . S
C1824 H1815 0.950 . S
C1824 C1823 1.398 . S
C1824 C1825 1.391 . S
C1825 H1813 0.950 . S
C1825 C1821 1.393 . S
C1825 C1824 1.391 . S
C1826 H1816 0.950 . S
C1826 C1827 1.386 . S
C1826 C1828 1.391 . S
C1827 C1826 1.386 . S
C1827 C1831 1.393 . S
C1828 H1817 0.950 . S
C1828 C1826 1.391 . S
C1828 C1829 1.400 . S
C1829 C1823 1.491 . S
C1829 C1828 1.400 . S
C1829 C1830 1.398 . S
C1830 H1818 0.950 . S
C1830 C1829 1.398 . S
C1830 C1831 1.391 . S
C1831 H1819 0.950 . S
C1831 C1827 1.393 . S
C1831 C1830 1.391 . S
H1832 C1840 0.950 . S
H1833 C1845 0.950 . S
H1834 C1842 0.950 . S
H1835 C1844 0.950 . S
H1836 C1846 0.950 . S
H1837 C1848 0.950 . S
H1838 C1850 0.950 . S
H1839 C1851 0.950 . S
C1840 H1832 0.950 . S
C1840 C1841 1.386 . S
C1840 C1842 1.391 . S
C1841 C1840 1.386 . S
C1841 C1845 1.393 . S
C1842 H1834 0.950 . S
C1842 C1840 1.391 . S
C1842 C1843 1.400 . S
C1843 C1842 1.400 . S
C1843 C1844 1.398 . S
C1843 C1849 1.491 . S
C1844 H1835 0.950 . S
C1844 C1843 1.398 . S
C1844 C1845 1.391 . S
C1845 H1833 0.950 . S
C1845 C1841 1.393 . S
C1845 C1844 1.391 . S
C1846 H1836 0.950 . S
C1846 C1847 1.386 . S
C1846 C1848 1.391 . S
C1847 C1846 1.386 . S
C1847 C1851 1.393 . S
C1848 H1837 0.950 . S
C1848 C1846 1.391 . S
C1848 C1849 1.400 . S
C1849 C1843 1.491 . S
C1849 C1848 1.400 . S
C1849 C1850 1.398 . S
C1850 H1838 0.950 . S
C1850 C1849 1.398 . S
C1850 C1851 1.391 . S
C1851 H1839 0.950 . S
C1851 C1847 1.393 . S
C1851 C1850 1.391 . S
H1852 C1860 0.950 . S
H1853 C1865 0.950 . S
H1854 C1862 0.950 . S
H1855 C1864 0.950 . S
H1856 C1866 0.950 . S
H1857 C1868 0.950 . S
H1858 C1870 0.950 . S
H1859 C1871 0.950 . S
C1860 H1852 0.950 . S
C1860 C1861 1.386 . S
C1860 C1862 1.391 . S
C1861 C1860 1.386 . S
C1861 C1865 1.393 . S
C1862 H1854 0.950 . S
C1862 C1860 1.391 . S
C1862 C1863 1.400 . S
C1863 C1862 1.400 . S
C1863 C1864 1.398 . S
C1863 C1869 1.491 . S
C1864 H1855 0.950 . S
C1864 C1863 1.398 . S
C1864 C1865 1.391 . S
C1865 H1853 0.950 . S
C1865 C1861 1.393 . S
C1865 C1864 1.391 . S
C1866 H1856 0.950 . S
C1866 C1867 1.386 . S
C1866 C1868 1.391 . S
C1867 C1866 1.386 . S
C1867 C1871 1.393 . S
C1868 H1857 0.950 . S
C1868 C1866 1.391 . S
C1868 C1869 1.400 . S
C1869 C1863 1.491 . S
C1869 C1868 1.400 . S
C1869 C1870 1.398 . S
C1870 H1858 0.950 . S
C1870 C1869 1.398 . S
C1870 C1871 1.391 . S
C1871 H1859 0.950 . S
C1871 C1867 1.393 . S
C1871 C1870 1.391 . S
H1872 C1880 0.950 . S
H1873 C1885 0.950 . S
H1874 C1882 0.950 . S
H1875 C1884 0.950 . S
H1876 C1886 0.950 . S
H1877 C1888 0.950 . S
H1878 C1890 0.950 . S
H1879 C1891 0.950 . S
C1880 H1872 0.950 . S
C1880 C1881 1.386 . S
C1880 C1882 1.391 . S
C1881 C1880 1.386 . S
C1881 C1885 1.393 . S
C1882 H1874 0.950 . S
C1882 C1880 1.391 . S
C1882 C1883 1.400 . S
C1883 C1882 1.400 . S
C1883 C1884 1.398 . S
C1883 C1889 1.491 . S
C1884 H1875 0.950 . S
C1884 C1883 1.398 . S
C1884 C1885 1.391 . S
C1885 H1873 0.950 . S
C1885 C1881 1.393 . S
C1885 C1884 1.391 . S
C1886 H1876 0.950 . S
C1886 C1887 1.386 . S
C1886 C1888 1.391 . S
C1887 C1886 1.386 . S
C1887 C1891 1.393 . S
C1888 H1877 0.950 . S
C1888 C1886 1.391 . S
C1888 C1889 1.400 . S
C1889 C1883 1.491 . S
C1889 C1888 1.400 . S
C1889 C1890 1.398 . S
C1890 H1878 0.950 . S
C1890 C1889 1.398 . S
C1890 C1891 1.391 . S
C1891 H1879 0.950 . S
C1891 C1887 1.393 . S
C1891 C1890 1.391 . S
H1892 C1900 0.950 . S
H1893 C1905 0.969 . S
H1894 C1902 0.950 . S
H1895 C1904 0.950 1_655 S
H1896 C1906 0.950 1_655 S
H1897 C1908 0.950 1_655 S
H1898 C1910 0.950 . S
H1899 C1911 0.950 . S
C1900 H1892 0.950 . S
C1900 C1901 1.386 . S
C1900 C1902 1.391 . S
C1901 C1900 1.386 . S
C1901 C1905 1.393 . S
C1902 H1894 0.950 . S
C1902 C1900 1.391 . S
C1902 C1903 1.400 . S
C1903 C1902 1.400 . S
C1903 C1904 1.398 . S
C1903 C1909 1.491 . S
C1904 H1895 0.950 1_455 S
C1904 C1903 1.398 . S
C1904 C1905 1.391 . S
C1905 H1893 0.969 . S
C1905 C1901 1.393 . S
C1905 C1904 1.391 . S
C1906 H1896 0.950 1_455 S
C1906 C1907 1.386 . S
C1906 C1908 1.391 . S
C1907 C1906 1.386 . S
C1907 C1911 1.393 . S
C1908 H1897 0.950 1_455 S
C1908 C1906 1.391 . S
C1908 C1909 1.400 . S
C1909 C1903 1.491 . S
C1909 C1908 1.400 . S
C1909 C1910 1.398 . S
C1910 H1898 0.950 . S
C1910 C1909 1.398 . S
C1910 C1911 1.391 . S
C1911 H1899 0.950 . S
C1911 C1907 1.393 . S
C1911 C1910 1.391 . S
H1912 C1920 0.950 . S
H1913 C1925 0.950 . S
H1914 C1922 0.950 . S
H1915 C1924 0.950 . S
H1916 C1926 0.950 . S
H1917 C1928 0.950 . S
H1918 C1930 0.950 . S
H1919 C1931 0.950 . S
C1920 H1912 0.950 . S
C1920 C1921 1.386 . S
C1920 C1922 1.391 . S
C1921 C1920 1.386 . S
C1921 C1925 1.393 . S
C1922 H1914 0.950 . S
C1922 C1920 1.391 . S
C1922 C1923 1.400 . S
C1923 C1922 1.400 . S
C1923 C1924 1.398 . S
C1923 C1929 1.491 . S
C1924 H1915 0.950 . S
C1924 C1923 1.398 . S
C1924 C1925 1.391 . S
C1925 H1913 0.950 . S
C1925 C1921 1.393 . S
C1925 C1924 1.391 . S
C1926 H1916 0.950 . S
C1926 C1927 1.386 . S
C1926 C1928 1.391 . S
C1927 C1926 1.386 . S
C1927 C1931 1.393 . S
C1928 H1917 0.950 . S
C1928 C1926 1.391 . S
C1928 C1929 1.400 . S
C1929 C1923 1.491 . S
C1929 C1928 1.400 . S
C1929 C1930 1.398 . S
C1930 H1918 0.950 . S
C1930 C1929 1.398 . S
C1930 C1931 1.391 . S
C1931 H1919 0.950 . S
C1931 C1927 1.393 . S
C1931 C1930 1.391 . S
H1932 C1940 0.950 1_455 S
H1933 C1945 0.950 . S
H1934 C1942 0.950 1_455 S
H1935 C1944 0.950 . S
H1936 C1946 0.950 . S
H1937 C1948 0.950 . S
H1938 C1950 0.914 1_455 S
H1939 C1951 0.997 . S
C1940 H1932 0.950 1_655 S
C1940 C1941 1.386 . S
C1940 C1942 1.391 . S
C1941 C1940 1.386 . S
C1941 C1945 1.393 . S
C1942 H1934 0.950 1_655 S
C1942 C1940 1.391 . S
C1942 C1943 1.400 . S
C1943 C1942 1.400 . S
C1943 C1944 1.398 . S
C1943 C1949 1.491 . S
C1944 H1935 0.950 . S
C1944 C1943 1.398 . S
C1944 C1945 1.391 . S
C1945 H1933 0.950 . S
C1945 C1941 1.393 . S
C1945 C1944 1.391 . S
C1946 H1936 0.950 . S
C1946 C1947 1.386 . S
C1946 C1948 1.391 . S
C1947 C1946 1.386 . S
C1947 C1951 1.353 1_655 S
C1948 H1937 0.950 . S
C1948 C1946 1.391 . S
C1948 C1949 1.400 . S
C1949 C1943 1.491 . S
C1949 C1948 1.400 . S
C1949 C1950 1.441 . S
C1950 H1938 0.914 1_655 S
C1950 C1949 1.441 . S
C1950 C1951 1.384 1_655 S
C1951 H1939 0.997 . S
C1951 C1947 1.353 1_455 S
C1951 C1950 1.384 1_455 S
H1952 C1960 0.950 . S
H1953 C1965 0.950 . S
H1954 C1962 0.950 . S
H1955 C1964 0.950 . S
H1956 C1966 0.950 . S
H1957 C1968 0.950 . S
H1958 C1970 0.950 . S
H1959 C1971 0.950 . S
C1960 H1952 0.950 . S
C1960 C1961 1.386 . S
C1960 C1962 1.391 . S
C1961 C1960 1.386 . S
C1961 C1965 1.393 . S
C1962 H1954 0.950 . S
C1962 C1960 1.391 . S
C1962 C1963 1.400 . S
C1963 C1962 1.400 . S
C1963 C1964 1.398 . S
C1963 C1969 1.491 . S
C1964 H1955 0.950 . S
C1964 C1963 1.398 . S
C1964 C1965 1.391 . S
C1965 H1953 0.950 . S
C1965 C1961 1.393 . S
C1965 C1964 1.391 . S
C1966 H1956 0.950 . S
C1966 C1967 1.386 . S
C1966 C1968 1.391 . S
C1967 C1966 1.386 . S
C1967 C1971 1.393 . S
C1968 H1957 0.950 . S
C1968 C1966 1.391 . S
C1968 C1969 1.400 . S
C1969 C1963 1.491 . S
C1969 C1968 1.400 . S
C1969 C1970 1.398 . S
C1970 H1958 0.950 . S
C1970 C1969 1.398 . S
C1970 C1971 1.391 . S
C1971 H1959 0.950 . S
C1971 C1967 1.393 . S
C1971 C1970 1.391 . S
H1972 C1980 0.950 . S
H1973 C1985 0.950 . S
H1974 C1982 0.950 . S
H1975 C1984 0.950 . S
H1976 C1986 0.950 . S
H1977 C1988 0.950 . S
H1978 C1990 0.950 . S
H1979 C1991 0.950 . S
C1980 H1972 0.950 . S
C1980 C1981 1.386 . S
C1980 C1982 1.391 . S
C1981 C1980 1.386 . S
C1981 C1985 1.393 . S
C1982 H1974 0.950 . S
C1982 C1980 1.391 . S
C1982 C1983 1.400 . S
C1983 C1982 1.400 . S
C1983 C1984 1.398 . S
C1983 C1989 1.491 . S
C1984 H1975 0.950 . S
C1984 C1983 1.398 . S
C1984 C1985 1.391 . S
C1985 H1973 0.950 . S
C1985 C1981 1.393 . S
C1985 C1984 1.391 . S
C1986 H1976 0.950 . S
C1986 C1987 1.386 . S
C1986 C1988 1.391 . S
C1987 C1986 1.386 . S
C1987 C1991 1.393 . S
C1988 H1977 0.950 . S
C1988 C1986 1.391 . S
C1988 C1989 1.400 . S
C1989 C1983 1.491 . S
C1989 C1988 1.400 . S
C1989 C1990 1.398 . S
C1990 H1978 0.950 . S
C1990 C1989 1.398 . S
C1990 C1991 1.391 . S
C1991 H1979 0.950 . S
C1991 C1987 1.393 . S
C1991 C1990 1.391 . S
H1992 C2000 0.950 . S
H1993 C2005 0.950 . S
H1994 C2002 0.950 . S
H1995 C2004 0.950 . S
H1996 C2006 0.950 . S
H1997 C2008 0.950 . S
H1998 C2010 0.950 . S
H1999 C2011 0.953 . S
C2000 H1992 0.950 . S
C2000 C2001 1.386 . S
C2000 C2002 1.391 . S
C2001 C2000 1.386 . S
C2001 C2005 1.393 . S
C2002 H1994 0.950 . S
C2002 C2000 1.391 . S
C2002 C2003 1.400 . S
C2003 C2002 1.400 . S
C2003 C2004 1.398 . S
C2003 C2009 1.491 . S
C2004 H1995 0.950 . S
C2004 C2003 1.398 . S
C2004 C2005 1.391 . S
C2005 H1993 0.950 . S
C2005 C2001 1.393 . S
C2005 C2004 1.391 . S
C2006 H1996 0.950 . S
C2006 C2007 1.386 . S
C2006 C2008 1.391 . S
C2007 C2006 1.386 . S
C2007 C2011 1.393 . S
C2008 H1997 0.950 . S
C2008 C2006 1.391 . S
C2008 C2009 1.400 . S
C2009 C2003 1.491 . S
C2009 C2008 1.400 . S
C2009 C2010 1.398 . S
C2010 H1998 0.950 . S
C2010 C2009 1.398 . S
C2010 C2011 1.391 . S
C2011 H1999 0.953 . S
C2011 C2007 1.393 . S
C2011 C2010 1.391 . S
H2012 C2020 0.950 . S
H2013 C2025 0.950 . S
H2014 C2022 0.950 . S
H2015 C2024 0.950 . S
H2016 C2026 0.950 . S
H2017 C2028 0.950 . S
H2018 C2030 0.950 . S
H2019 C2031 0.950 . S
C2020 H2012 0.950 . S
C2020 C2021 1.386 . S
C2020 C2022 1.391 . S
C2021 C2020 1.386 . S
C2021 C2025 1.393 . S
C2022 H2014 0.950 . S
C2022 C2020 1.391 . S
C2022 C2023 1.400 . S
C2023 C2022 1.400 . S
C2023 C2024 1.398 . S
C2023 C2029 1.491 . S
C2024 H2015 0.950 . S
C2024 C2023 1.398 . S
C2024 C2025 1.391 . S
C2025 H2013 0.950 . S
C2025 C2021 1.393 . S
C2025 C2024 1.391 . S
C2026 H2016 0.950 . S
C2026 C2027 1.386 . S
C2026 C2028 1.391 . S
C2027 C2026 1.386 . S
C2027 C2031 1.393 . S
C2028 H2017 0.950 . S
C2028 C2026 1.391 . S
C2028 C2029 1.400 . S
C2029 C2023 1.491 . S
C2029 C2028 1.400 . S
C2029 C2030 1.398 . S
C2030 H2018 0.950 . S
C2030 C2029 1.398 . S
C2030 C2031 1.391 . S
C2031 H2019 0.950 . S
C2031 C2027 1.393 . S
C2031 C2030 1.391 . S
H2032 C2040 0.950 . S
H2033 C2045 0.950 . S
H2034 C2042 0.950 . S
H2035 C2044 0.950 . S
H2036 C2046 0.950 . S
H2037 C2048 0.950 . S
H2038 C2050 0.950 . S
H2039 C2051 0.950 . S
C2040 H2032 0.950 . S
C2040 C2041 1.386 . S
C2040 C2042 1.391 . S
C2041 C2040 1.386 . S
C2041 C2045 1.393 . S
C2042 H2034 0.950 . S
C2042 C2040 1.391 . S
C2042 C2043 1.400 . S
C2043 C2042 1.400 . S
C2043 C2044 1.398 . S
C2043 C2049 1.491 . S
C2044 H2035 0.950 . S
C2044 C2043 1.398 . S
C2044 C2045 1.391 . S
C2045 H2033 0.950 . S
C2045 C2041 1.393 . S
C2045 C2044 1.391 . S
C2046 H2036 0.950 . S
C2046 C2047 1.386 . S
C2046 C2048 1.391 . S
C2047 C2046 1.386 . S
C2047 C2051 1.393 . S
C2048 H2037 0.950 . S
C2048 C2046 1.391 . S
C2048 C2049 1.400 . S
C2049 C2043 1.491 . S
C2049 C2048 1.400 . S
C2049 C2050 1.398 . S
C2050 H2038 0.950 . S
C2050 C2049 1.398 . S
C2050 C2051 1.391 . S
C2051 H2039 0.950 . S
C2051 C2047 1.393 . S
C2051 C2050 1.391 . S
H2052 C2060 0.950 . S
H2053 C2065 0.950 . S
H2054 C2062 0.950 . S
H2055 C2064 0.950 . S
H2056 C2066 0.950 . S
H2057 C2068 0.950 . S
H2058 C2070 0.950 . S
H2059 C2071 0.950 . S
C2060 H2052 0.950 . S
C2060 C2061 1.386 . S
C2060 C2062 1.391 . S
C2061 C2060 1.386 . S
C2061 C2065 1.393 . S
C2062 H2054 0.950 . S
C2062 C2060 1.391 . S
C2062 C2063 1.400 . S
C2063 C2062 1.400 . S
C2063 C2064 1.398 . S
C2063 C2069 1.491 . S
C2064 H2055 0.950 . S
C2064 C2063 1.398 . S
C2064 C2065 1.391 . S
C2065 H2053 0.950 . S
C2065 C2061 1.393 . S
C2065 C2064 1.391 . S
C2066 H2056 0.950 . S
C2066 C2067 1.386 . S
C2066 C2068 1.391 . S
C2067 C2066 1.386 . S
C2067 C2071 1.393 . S
C2068 H2057 0.950 . S
C2068 C2066 1.391 . S
C2068 C2069 1.400 . S
C2069 C2063 1.491 . S
C2069 C2068 1.400 . S
C2069 C2070 1.398 . S
C2070 H2058 0.950 . S
C2070 C2069 1.398 . S
C2070 C2071 1.391 . S
C2071 H2059 0.950 . S
C2071 C2067 1.393 . S
C2071 C2070 1.391 . S
H2072 C2080 0.950 . S
H2073 C2085 0.950 . S
H2074 C2082 0.950 . S
H2075 C2084 0.950 . S
H2076 C2086 0.950 . S
H2077 C2088 0.950 . S
H2078 C2090 0.950 . S
H2079 C2091 0.950 . S
C2080 H2072 0.950 . S
C2080 C2081 1.386 . S
C2080 C2082 1.391 . S
C2081 C2080 1.386 . S
C2081 C2085 1.393 . S
C2082 H2074 0.950 . S
C2082 C2080 1.391 . S
C2082 C2083 1.400 . S
C2083 C2082 1.400 . S
C2083 C2084 1.398 . S
C2083 C2089 1.491 . S
C2084 H2075 0.950 . S
C2084 C2083 1.398 . S
C2084 C2085 1.391 . S
C2085 H2073 0.950 . S
C2085 C2081 1.393 . S
C2085 C2084 1.391 . S
C2086 H2076 0.950 . S
C2086 C2087 1.386 . S
C2086 C2088 1.391 . S
C2087 C2086 1.386 . S
C2087 C2091 1.393 . S
C2088 H2077 0.950 . S
C2088 C2086 1.391 . S
C2088 C2089 1.400 . S
C2089 C2083 1.491 . S
C2089 C2088 1.400 . S
C2089 C2090 1.398 . S
C2090 H2078 0.950 . S
C2090 C2089 1.398 . S
C2090 C2091 1.391 . S
C2091 H2079 0.950 . S
C2091 C2087 1.393 . S
C2091 C2090 1.391 . S
H2092 C2100 0.950 . S
H2093 C2105 0.950 . S
H2094 C2102 0.950 . S
H2095 C2104 0.950 . S
H2096 C2106 0.950 . S
H2097 C2108 0.950 . S
H2098 C2110 0.950 . S
H2099 C2111 0.950 . S
C2100 H2092 0.950 . S
C2100 C2101 1.386 . S
C2100 C2102 1.391 . S
C2101 C2100 1.386 . S
C2101 C2105 1.393 . S
C2102 H2094 0.950 . S
C2102 C2100 1.391 . S
C2102 C2103 1.400 . S
C2103 C2102 1.400 . S
C2103 C2104 1.398 . S
C2103 C2109 1.491 . S
C2104 H2095 0.950 . S
C2104 C2103 1.398 . S
C2104 C2105 1.391 . S
C2105 H2093 0.950 . S
C2105 C2101 1.393 . S
C2105 C2104 1.391 . S
C2106 H2096 0.950 . S
C2106 C2107 1.386 . S
C2106 C2108 1.391 . S
C2107 C2106 1.386 . S
C2107 C2111 1.393 . S
C2108 H2097 0.950 . S
C2108 C2106 1.391 . S
C2108 C2109 1.400 . S
C2109 C2103 1.491 . S
C2109 C2108 1.400 . S
C2109 C2110 1.398 . S
C2110 H2098 0.950 . S
C2110 C2109 1.398 . S
C2110 C2111 1.391 . S
C2111 H2099 0.950 . S
C2111 C2107 1.393 . S
C2111 C2110 1.391 . S
H2112 C2120 0.950 . S
H2113 C2125 0.950 . S
H2114 C2122 0.950 . S
H2115 C2124 0.950 . S
H2116 C2126 0.950 . S
H2117 C2128 0.950 . S
H2118 C2130 0.950 . S
H2119 C2131 0.950 . S
C2120 H2112 0.950 . S
C2120 C2121 1.386 . S
C2120 C2122 1.391 . S
C2121 C2120 1.386 . S
C2121 C2125 1.393 . S
C2122 H2114 0.950 . S
C2122 C2120 1.391 . S
C2122 C2123 1.400 . S
C2123 C2122 1.400 . S
C2123 C2124 1.398 . S
C2123 C2129 1.491 . S
C2124 H2115 0.950 . S
C2124 C2123 1.398 . S
C2124 C2125 1.391 . S
C2125 H2113 0.950 . S
C2125 C2121 1.393 . S
C2125 C2124 1.391 . S
C2126 H2116 0.950 . S
C2126 C2127 1.386 . S
C2126 C2128 1.391 . S
C2127 C2126 1.386 . S
C2127 C2131 1.393 . S
C2128 H2117 0.950 . S
C2128 C2126 1.391 . S
C2128 C2129 1.400 . S
C2129 C2123 1.491 . S
C2129 C2128 1.400 . S
C2129 C2130 1.398 . S
C2130 H2118 0.950 . S
C2130 C2129 1.398 . S
C2130 C2131 1.391 . S
C2131 H2119 0.950 . S
C2131 C2127 1.393 . S
C2131 C2130 1.391 . S
H2132 C2140 0.950 . S
H2133 C2145 0.950 . S
H2134 C2142 0.950 . S
H2135 C2144 0.950 . S
H2136 C2146 0.950 . S
H2137 C2148 0.950 . S
H2138 C2150 0.950 . S
H2139 C2151 0.950 . S
C2140 H2132 0.950 . S
C2140 C2141 1.386 . S
C2140 C2142 1.391 . S
C2141 C2140 1.386 . S
C2141 C2145 1.393 . S
C2142 H2134 0.950 . S
C2142 C2140 1.391 . S
C2142 C2143 1.400 . S
C2143 C2142 1.400 . S
C2143 C2144 1.398 . S
C2143 C2149 1.491 . S
C2144 H2135 0.950 . S
C2144 C2143 1.398 . S
C2144 C2145 1.391 . S
C2145 H2133 0.950 . S
C2145 C2141 1.393 . S
C2145 C2144 1.391 . S
C2146 H2136 0.950 . S
C2146 C2147 1.386 . S
C2146 C2148 1.391 . S
C2147 C2146 1.386 . S
C2147 C2151 1.393 . S
C2148 H2137 0.950 . S
C2148 C2146 1.391 . S
C2148 C2149 1.400 . S
C2149 C2143 1.491 . S
C2149 C2148 1.400 . S
C2149 C2150 1.398 . S
C2150 H2138 0.950 . S
C2150 C2149 1.398 . S
C2150 C2151 1.391 . S
C2151 H2139 0.950 . S
C2151 C2147 1.393 . S
C2151 C2150 1.391 . S
H2152 C2160 0.950 . S
H2153 C2165 0.950 . S
H2154 C2162 0.950 . S
H2155 C2164 0.950 . S
H2156 C2166 0.950 . S
H2157 C2168 0.950 . S
H2158 C2170 0.950 . S
H2159 C2171 0.950 . S
C2160 H2152 0.950 . S
C2160 C2161 1.386 . S
C2160 C2162 1.391 . S
C2161 C2160 1.386 . S
C2161 C2165 1.393 . S
C2162 H2154 0.950 . S
C2162 C2160 1.391 . S
C2162 C2163 1.400 . S
C2163 C2162 1.400 . S
C2163 C2164 1.398 . S
C2163 C2169 1.491 . S
C2164 H2155 0.950 . S
C2164 C2163 1.398 . S
C2164 C2165 1.391 . S
C2165 H2153 0.950 . S
C2165 C2161 1.393 . S
C2165 C2164 1.391 . S
C2166 H2156 0.950 . S
C2166 C2167 1.386 . S
C2166 C2168 1.391 . S
C2167 C2166 1.386 . S
C2167 C2171 1.393 . S
C2168 H2157 0.950 . S
C2168 C2166 1.391 . S
C2168 C2169 1.400 . S
C2169 C2163 1.491 . S
C2169 C2168 1.400 . S
C2169 C2170 1.398 . S
C2170 H2158 0.950 . S
C2170 C2169 1.398 . S
C2170 C2171 1.391 . S
C2171 H2159 0.950 . S
C2171 C2167 1.393 . S
C2171 C2170 1.391 . S
H2172 C2180 0.950 . S
H2173 C2185 0.950 . S
H2174 C2182 0.950 . S
H2175 C2184 0.950 . S
H2176 C2186 0.950 . S
H2177 C2188 0.950 . S
H2178 C2190 0.950 . S
H2179 C2191 0.950 . S
C2180 H2172 0.950 . S
C2180 C2181 1.386 . S
C2180 C2182 1.391 . S
C2181 C2180 1.386 . S
C2181 C2185 1.393 . S
C2182 H2174 0.950 . S
C2182 C2180 1.391 . S
C2182 C2183 1.400 . S
C2183 C2182 1.400 . S
C2183 C2184 1.398 . S
C2183 C2189 1.491 . S
C2184 H2175 0.950 . S
C2184 C2183 1.398 . S
C2184 C2185 1.391 . S
C2185 H2173 0.950 . S
C2185 C2181 1.393 . S
C2185 C2184 1.391 . S
C2186 H2176 0.950 . S
C2186 C2187 1.386 . S
C2186 C2188 1.391 . S
C2187 C2186 1.386 . S
C2187 C2191 1.393 . S
C2188 H2177 0.950 . S
C2188 C2186 1.391 . S
C2188 C2189 1.400 . S
C2189 C2183 1.491 . S
C2189 C2188 1.400 . S
C2189 C2190 1.398 . S
C2190 H2178 0.950 . S
C2190 C2189 1.398 . S
C2190 C2191 1.391 . S
C2191 H2179 0.950 . S
C2191 C2187 1.393 . S
C2191 C2190 1.391 . S
H2192 C2200 0.950 . S
H2193 C2205 0.950 . S
H2194 C2202 0.950 . S
H2195 C2204 0.950 . S
H2196 C2206 0.950 . S
H2197 C2208 0.950 . S
H2198 C2210 0.950 . S
H2199 C2211 0.950 . S
C2200 H2192 0.950 . S
C2200 C2201 1.386 . S
C2200 C2202 1.391 . S
C2201 C2200 1.386 . S
C2201 C2205 1.393 . S
C2202 H2194 0.950 . S
C2202 C2200 1.391 . S
C2202 C2203 1.400 . S
C2203 C2202 1.400 . S
C2203 C2204 1.398 . S
C2203 C2209 1.491 . S
C2204 H2195 0.950 . S
C2204 C2203 1.398 . S
C2204 C2205 1.391 . S
C2205 H2193 0.950 . S
C2205 C2201 1.393 . S
C2205 C2204 1.391 . S
C2206 H2196 0.950 . S
C2206 C2207 1.386 . S
C2206 C2208 1.391 . S
C2207 C2206 1.386 . S
C2207 C2211 1.393 . S
C2208 H2197 0.950 . S
C2208 C2206 1.391 . S
C2208 C2209 1.400 . S
C2209 C2203 1.491 . S
C2209 C2208 1.400 . S
C2209 C2210 1.398 . S
C2210 H2198 0.950 . S
C2210 C2209 1.398 . S
C2210 C2211 1.391 . S
C2211 H2199 0.950 . S
C2211 C2207 1.393 . S
C2211 C2210 1.391 . S
H2212 C2220 0.950 . S
H2213 C2225 0.950 . S
H2214 C2222 0.950 . S
H2215 C2224 0.906 1_565 S
H2216 C2226 0.950 1_565 S
H2217 C2228 0.950 1_565 S
H2218 C2230 0.950 . S
H2219 C2231 0.950 . S
C2220 H2212 0.950 . S
C2220 C2221 1.386 . S
C2220 C2222 1.391 . S
C2221 C2220 1.386 . S
C2221 C2225 1.393 . S
C2222 H2214 0.950 . S
C2222 C2220 1.391 . S
C2222 C2223 1.400 . S
C2223 C2222 1.400 . S
C2223 C2224 1.398 . S
C2223 C2229 1.491 . S
C2224 H2215 0.906 1_545 S
C2224 C2223 1.398 . S
C2224 C2225 1.391 . S
C2225 H2213 0.950 . S
C2225 C2221 1.393 . S
C2225 C2224 1.391 . S
C2226 H2216 0.950 1_545 S
C2226 C2227 1.386 . S
C2226 C2228 1.391 . S
C2227 C2226 1.386 . S
C2227 C2231 1.393 . S
C2228 H2217 0.950 1_545 S
C2228 C2226 1.391 . S
C2228 C2229 1.400 . S
C2229 C2223 1.491 . S
C2229 C2228 1.400 . S
C2229 C2230 1.398 . S
C2230 H2218 0.950 . S
C2230 C2229 1.398 . S
C2230 C2231 1.391 . S
C2231 H2219 0.950 . S
C2231 C2227 1.393 . S
C2231 C2230 1.391 . S
H2232 C2240 0.950 . S
H2233 C2245 0.950 . S
H2234 C2242 0.950 . S
H2235 C2244 0.950 . S
H2236 C2246 0.950 . S
H2237 C2248 0.950 . S
H2238 C2250 0.950 . S
H2239 C2251 0.950 . S
C2240 H2232 0.950 . S
C2240 C2241 1.386 . S
C2240 C2242 1.391 . S
C2241 C2240 1.386 . S
C2241 C2245 1.393 . S
C2242 H2234 0.950 . S
C2242 C2240 1.391 . S
C2242 C2243 1.400 . S
C2243 C2242 1.400 . S
C2243 C2244 1.398 . S
C2243 C2249 1.491 . S
C2244 H2235 0.950 . S
C2244 C2243 1.398 . S
C2244 C2245 1.391 . S
C2245 H2233 0.950 . S
C2245 C2241 1.393 . S
C2245 C2244 1.391 . S
C2246 H2236 0.950 . S
C2246 C2247 1.386 . S
C2246 C2248 1.391 . S
C2247 C2246 1.386 . S
C2247 C2251 1.393 . S
C2248 H2237 0.950 . S
C2248 C2246 1.391 . S
C2248 C2249 1.400 . S
C2249 C2243 1.491 . S
C2249 C2248 1.400 . S
C2249 C2250 1.398 . S
C2250 H2238 0.950 . S
C2250 C2249 1.398 . S
C2250 C2251 1.391 . S
C2251 H2239 0.950 . S
C2251 C2247 1.393 . S
C2251 C2250 1.391 . S
H2252 C2260 0.950 . S
H2253 C2265 0.950 . S
H2254 C2262 0.950 . S
H2255 C2264 0.950 . S
H2256 C2266 0.950 . S
H2257 C2268 0.950 . S
H2258 C2270 0.950 . S
H2259 C2271 0.950 . S
C2260 H2252 0.950 . S
C2260 C2261 1.386 . S
C2260 C2262 1.391 . S
C2261 C2260 1.386 . S
C2261 C2265 1.393 . S
C2262 H2254 0.950 . S
C2262 C2260 1.391 . S
C2262 C2263 1.400 . S
C2263 C2262 1.400 . S
C2263 C2264 1.398 . S
C2263 C2269 1.491 . S
C2264 H2255 0.950 . S
C2264 C2263 1.398 . S
C2264 C2265 1.391 . S
C2265 H2253 0.950 . S
C2265 C2261 1.393 . S
C2265 C2264 1.391 . S
C2266 H2256 0.950 . S
C2266 C2267 1.386 . S
C2266 C2268 1.391 . S
C2267 C2266 1.386 . S
C2267 C2271 1.393 . S
C2268 H2257 0.950 . S
C2268 C2266 1.391 . S
C2268 C2269 1.400 . S
C2269 C2263 1.491 . S
C2269 C2268 1.400 . S
C2269 C2270 1.398 . S
C2270 H2258 0.950 . S
C2270 C2269 1.398 . S
C2270 C2271 1.391 . S
C2271 H2259 0.950 . S
C2271 C2267 1.393 . S
C2271 C2270 1.391 . S
H2272 C2280 0.950 . S
H2273 C2285 0.950 . S
H2274 C2282 0.950 . S
H2275 C2284 0.950 . S
H2276 C2286 0.950 . S
H2277 C2288 0.950 . S
H2278 C2290 0.950 . S
H2279 C2291 0.950 . S
C2280 H2272 0.950 . S
C2280 C2281 1.386 . S
C2280 C2282 1.391 . S
C2281 C2280 1.386 . S
C2281 C2285 1.393 . S
C2282 H2274 0.950 . S
C2282 C2280 1.391 . S
C2282 C2283 1.400 . S
C2283 C2282 1.400 . S
C2283 C2284 1.398 . S
C2283 C2289 1.491 . S
C2284 H2275 0.950 . S
C2284 C2283 1.398 . S
C2284 C2285 1.391 . S
C2285 H2273 0.950 . S
C2285 C2281 1.393 . S
C2285 C2284 1.391 . S
C2286 H2276 0.950 . S
C2286 C2287 1.386 . S
C2286 C2288 1.391 . S
C2287 C2286 1.386 . S
C2287 C2291 1.393 . S
C2288 H2277 0.950 . S
C2288 C2286 1.391 . S
C2288 C2289 1.400 . S
C2289 C2283 1.491 . S
C2289 C2288 1.400 . S
C2289 C2290 1.398 . S
C2290 H2278 0.950 . S
C2290 C2289 1.398 . S
C2290 C2291 1.391 . S
C2291 H2279 0.950 . S
C2291 C2287 1.393 . S
C2291 C2290 1.391 . S
H2292 C2300 0.950 . S
H2293 C2305 0.950 . S
H2294 C2302 0.950 . S
H2295 C2304 0.950 . S
H2296 C2306 0.950 . S
H2297 C2308 0.950 . S
H2298 C2310 0.950 . S
H2299 C2311 0.950 . S
C2300 H2292 0.950 . S
C2300 C2301 1.386 . S
C2300 C2302 1.391 . S
C2301 C2300 1.386 . S
C2301 C2305 1.393 . S
C2302 H2294 0.950 . S
C2302 C2300 1.391 . S
C2302 C2303 1.400 . S
C2303 C2302 1.400 . S
C2303 C2304 1.398 . S
C2303 C2309 1.491 . S
C2304 H2295 0.950 . S
C2304 C2303 1.398 . S
C2304 C2305 1.391 . S
C2305 H2293 0.950 . S
C2305 C2301 1.393 . S
C2305 C2304 1.391 . S
C2306 H2296 0.950 . S
C2306 C2307 1.386 . S
C2306 C2308 1.391 . S
C2307 C2306 1.386 . S
C2307 C2311 1.393 . S
C2308 H2297 0.950 . S
C2308 C2306 1.391 . S
C2308 C2309 1.400 . S
C2309 C2303 1.491 . S
C2309 C2308 1.400 . S
C2309 C2310 1.398 . S
C2310 H2298 0.950 . S
C2310 C2309 1.398 . S
C2310 C2311 1.391 . S
C2311 H2299 0.950 . S
C2311 C2307 1.393 . S
C2311 C2310 1.391 . S
H2312 C2320 0.950 . S
H2313 C2325 0.950 . S
H2314 C2322 0.950 . S
H2315 C2324 0.950 . S
H2316 C2326 0.950 . S
H2317 C2328 0.950 . S
H2318 C2330 0.950 . S
H2319 C2331 0.950 . S
C2320 H2312 0.950 . S
C2320 C2321 1.386 . S
C2320 C2322 1.391 . S
C2321 C2320 1.386 . S
C2321 C2325 1.393 . S
C2322 H2314 0.950 . S
C2322 C2320 1.391 . S
C2322 C2323 1.400 . S
C2323 C2322 1.400 . S
C2323 C2324 1.398 . S
C2323 C2329 1.491 . S
C2324 H2315 0.950 . S
C2324 C2323 1.398 . S
C2324 C2325 1.391 . S
C2325 H2313 0.950 . S
C2325 C2321 1.393 . S
C2325 C2324 1.391 . S
C2326 H2316 0.950 . S
C2326 C2327 1.386 . S
C2326 C2328 1.391 . S
C2327 C2326 1.386 . S
C2327 C2331 1.393 . S
C2328 H2317 0.950 . S
C2328 C2326 1.391 . S
C2328 C2329 1.400 . S
C2329 C2323 1.491 . S
C2329 C2328 1.400 . S
C2329 C2330 1.398 . S
C2330 H2318 0.950 . S
C2330 C2329 1.398 . S
C2330 C2331 1.391 . S
C2331 H2319 0.950 . S
C2331 C2327 1.393 . S
C2331 C2330 1.391 . S
H2332 C2340 0.950 . S
H2333 C2345 0.950 . S
H2334 C2342 0.950 . S
H2335 C2344 0.950 . S
H2336 C2346 0.950 . S
H2337 C2348 0.950 . S
H2338 C2350 0.950 . S
H2339 C2351 0.950 . S
C2340 H2332 0.950 . S
C2340 C2341 1.386 . S
C2340 C2342 1.391 . S
C2341 C2340 1.386 . S
C2341 C2345 1.393 . S
C2342 H2334 0.950 . S
C2342 C2340 1.391 . S
C2342 C2343 1.400 . S
C2343 C2342 1.400 . S
C2343 C2344 1.398 . S
C2343 C2349 1.491 . S
C2344 H2335 0.950 . S
C2344 C2343 1.398 . S
C2344 C2345 1.391 . S
C2345 H2333 0.950 . S
C2345 C2341 1.393 . S
C2345 C2344 1.391 . S
C2346 H2336 0.950 . S
C2346 C2347 1.386 . S
C2346 C2348 1.391 . S
C2347 C2346 1.386 . S
C2347 C2351 1.393 . S
C2348 H2337 0.950 . S
C2348 C2346 1.391 . S
C2348 C2349 1.400 . S
C2349 C2343 1.491 . S
C2349 C2348 1.400 . S
C2349 C2350 1.398 . S
C2350 H2338 0.950 . S
C2350 C2349 1.398 . S
C2350 C2351 1.391 . S
C2351 H2339 0.950 . S
C2351 C2347 1.393 . S
C2351 C2350 1.391 . S
H2352 C2360 0.950 . S
H2353 C2365 0.950 . S
H2354 C2362 0.950 . S
H2355 C2364 0.950 . S
H2356 C2366 0.950 . S
H2357 C2368 0.950 . S
H2358 C2370 0.950 . S
H2359 C2371 0.950 . S
C2360 H2352 0.950 . S
C2360 C2361 1.386 . S
C2360 C2362 1.391 . S
C2361 C2360 1.386 . S
C2361 C2365 1.393 . S
C2362 H2354 0.950 . S
C2362 C2360 1.391 . S
C2362 C2363 1.400 . S
C2363 C2362 1.400 . S
C2363 C2364 1.398 . S
C2363 C2369 1.491 . S
C2364 H2355 0.950 . S
C2364 C2363 1.398 . S
C2364 C2365 1.391 . S
C2365 H2353 0.950 . S
C2365 C2361 1.393 . S
C2365 C2364 1.391 . S
C2366 H2356 0.950 . S
C2366 C2367 1.386 . S
C2366 C2368 1.391 . S
C2367 C2366 1.386 . S
C2367 C2371 1.393 . S
C2368 H2357 0.950 . S
C2368 C2366 1.391 . S
C2368 C2369 1.400 . S
C2369 C2363 1.491 . S
C2369 C2368 1.400 . S
C2369 C2370 1.398 . S
C2370 H2358 0.950 . S
C2370 C2369 1.398 . S
C2370 C2371 1.391 . S
C2371 H2359 0.950 . S
C2371 C2367 1.393 . S
C2371 C2370 1.391 . S
H2372 C2380 0.950 . S
H2373 C2385 0.950 . S
H2374 C2382 0.950 . S
H2375 C2384 0.950 . S
H2376 C2386 0.950 . S
H2377 C2388 0.950 . S
H2378 C2390 0.950 . S
H2379 C2391 0.950 . S
C2380 H2372 0.950 . S
C2380 C2381 1.386 . S
C2380 C2382 1.391 . S
C2381 C2380 1.386 . S
C2381 C2385 1.393 . S
C2382 H2374 0.950 . S
C2382 C2380 1.391 . S
C2382 C2383 1.400 . S
C2383 C2382 1.400 . S
C2383 C2384 1.398 . S
C2383 C2389 1.491 . S
C2384 H2375 0.950 . S
C2384 C2383 1.398 . S
C2384 C2385 1.391 . S
C2385 H2373 0.950 . S
C2385 C2381 1.393 . S
C2385 C2384 1.391 . S
C2386 H2376 0.950 . S
C2386 C2387 1.386 . S
C2386 C2388 1.391 . S
C2387 C2386 1.386 . S
C2387 C2391 1.393 . S
C2388 H2377 0.950 . S
C2388 C2386 1.391 . S
C2388 C2389 1.400 . S
C2389 C2383 1.491 . S
C2389 C2388 1.400 . S
C2389 C2390 1.398 . S
C2390 H2378 0.950 . S
C2390 C2389 1.398 . S
C2390 C2391 1.391 . S
C2391 H2379 0.950 . S
C2391 C2387 1.393 . S
C2391 C2390 1.391 . S
H2392 C2400 0.950 . S
H2393 C2405 0.950 . S
H2394 C2402 0.950 . S
H2395 C2404 0.950 . S
H2396 C2406 0.950 . S
H2397 C2408 0.950 . S
H2398 C2410 0.950 . S
H2399 C2411 0.950 . S
C2400 H2392 0.950 . S
C2400 C2401 1.386 . S
C2400 C2402 1.391 . S
C2401 C2400 1.386 . S
C2401 C2405 1.393 . S
C2402 H2394 0.950 . S
C2402 C2400 1.391 . S
C2402 C2403 1.400 . S
C2403 C2402 1.400 . S
C2403 C2404 1.398 . S
C2403 C2409 1.491 . S
C2404 H2395 0.950 . S
C2404 C2403 1.398 . S
C2404 C2405 1.391 . S
C2405 H2393 0.950 . S
C2405 C2401 1.393 . S
C2405 C2404 1.391 . S
C2406 H2396 0.950 . S
C2406 C2407 1.386 . S
C2406 C2408 1.391 . S
C2407 C2406 1.386 . S
C2407 C2411 1.393 . S
C2408 H2397 0.950 . S
C2408 C2406 1.391 . S
C2408 C2409 1.400 . S
C2409 C2403 1.491 . S
C2409 C2408 1.400 . S
C2409 C2410 1.398 . S
C2410 H2398 0.950 . S
C2410 C2409 1.398 . S
C2410 C2411 1.391 . S
C2411 H2399 0.950 . S
C2411 C2407 1.393 . S
C2411 C2410 1.391 . S
H2412 C2420 0.950 . S
H2413 C2425 0.950 . S
H2414 C2422 0.950 . S
H2415 C2424 0.950 . S
H2416 C2426 0.950 . S
H2417 C2428 0.950 . S
H2418 C2430 0.950 . S
H2419 C2431 0.950 . S
C2420 H2412 0.950 . S
C2420 C2421 1.386 . S
C2420 C2422 1.391 . S
C2421 C2420 1.386 . S
C2421 C2425 1.393 . S
C2422 H2414 0.950 . S
C2422 C2420 1.391 . S
C2422 C2423 1.400 . S
C2423 C2422 1.400 . S
C2423 C2424 1.398 . S
C2423 C2429 1.491 . S
C2424 H2415 0.950 . S
C2424 C2423 1.398 . S
C2424 C2425 1.391 . S
C2425 H2413 0.950 . S
C2425 C2421 1.393 . S
C2425 C2424 1.391 . S
C2426 H2416 0.950 . S
C2426 C2427 1.386 . S
C2426 C2428 1.391 . S
C2427 C2426 1.386 . S
C2427 C2431 1.393 . S
C2428 H2417 0.950 . S
C2428 C2426 1.391 . S
C2428 C2429 1.400 . S
C2429 C2423 1.491 . S
C2429 C2428 1.400 . S
C2429 C2430 1.398 . S
C2430 H2418 0.950 . S
C2430 C2429 1.398 . S
C2430 C2431 1.391 . S
C2431 H2419 0.950 . S
C2431 C2427 1.393 . S
C2431 C2430 1.391 . S
H2432 C2440 0.950 . S
H2433 C2445 0.950 . S
H2434 C2442 0.950 . S
H2435 C2444 0.950 . S
H2436 C2446 0.950 . S
H2437 C2448 0.950 . S
H2438 C2450 0.950 . S
H2439 C2451 0.950 . S
C2440 H2432 0.950 . S
C2440 C2441 1.386 . S
C2440 C2442 1.391 . S
C2441 C2440 1.386 . S
C2441 C2445 1.393 . S
C2442 H2434 0.950 . S
C2442 C2440 1.391 . S
C2442 C2443 1.400 . S
C2443 C2442 1.400 . S
C2443 C2444 1.398 . S
C2443 C2449 1.491 . S
C2444 H2435 0.950 . S
C2444 C2443 1.398 . S
C2444 C2445 1.391 . S
C2445 H2433 0.950 . S
C2445 C2441 1.393 . S
C2445 C2444 1.391 . S
C2446 H2436 0.950 . S
C2446 C2447 1.386 . S
C2446 C2448 1.391 . S
C2447 C2446 1.386 . S
C2447 C2451 1.393 . S
C2448 H2437 0.950 . S
C2448 C2446 1.391 . S
C2448 C2449 1.400 . S
C2449 C2443 1.491 . S
C2449 C2448 1.400 . S
C2449 C2450 1.398 . S
C2450 H2438 0.950 . S
C2450 C2449 1.398 . S
C2450 C2451 1.391 . S
C2451 H2439 0.950 . S
C2451 C2447 1.393 . S
C2451 C2450 1.391 . S
H2452 C2460 0.950 . S
H2453 C2465 0.950 . S
H2454 C2462 0.950 . S
H2455 C2464 0.950 . S
H2456 C2466 0.950 . S
H2457 C2468 0.950 . S
H2458 C2470 0.950 . S
H2459 C2471 0.950 . S
C2460 H2452 0.950 . S
C2460 C2461 1.386 . S
C2460 C2462 1.391 . S
C2461 C2460 1.386 . S
C2461 C2465 1.393 . S
C2462 H2454 0.950 . S
C2462 C2460 1.391 . S
C2462 C2463 1.400 . S
C2463 C2462 1.400 . S
C2463 C2464 1.398 . S
C2463 C2469 1.491 . S
C2464 H2455 0.950 . S
C2464 C2463 1.398 . S
C2464 C2465 1.391 . S
C2465 H2453 0.950 . S
C2465 C2461 1.393 . S
C2465 C2464 1.391 . S
C2466 H2456 0.950 . S
C2466 C2467 1.386 . S
C2466 C2468 1.391 . S
C2467 C2466 1.386 . S
C2467 C2471 1.393 . S
C2468 H2457 0.950 . S
C2468 C2466 1.391 . S
C2468 C2469 1.400 . S
C2469 C2463 1.491 . S
C2469 C2468 1.400 . S
C2469 C2470 1.398 . S
C2470 H2458 0.950 . S
C2470 C2469 1.398 . S
C2470 C2471 1.391 . S
C2471 H2459 0.950 . S
C2471 C2467 1.393 . S
C2471 C2470 1.391 . S
H2472 C2480 0.950 . S
H2473 C2485 0.950 . S
H2474 C2482 0.950 . S
H2475 C2484 0.950 . S
H2476 C2486 0.950 . S
H2477 C2488 0.950 . S
H2478 C2490 0.950 . S
H2479 C2491 0.950 . S
C2480 H2472 0.950 . S
C2480 C2481 1.386 . S
C2480 C2482 1.391 . S
C2481 C2480 1.386 . S
C2481 C2485 1.393 . S
C2482 H2474 0.950 . S
C2482 C2480 1.391 . S
C2482 C2483 1.400 . S
C2483 C2482 1.400 . S
C2483 C2484 1.398 . S
C2483 C2489 1.491 . S
C2484 H2475 0.950 . S
C2484 C2483 1.398 . S
C2484 C2485 1.391 . S
C2485 H2473 0.950 . S
C2485 C2481 1.393 . S
C2485 C2484 1.391 . S
C2486 H2476 0.950 . S
C2486 C2487 1.386 . S
C2486 C2488 1.391 . S
C2487 C2486 1.386 . S
C2487 C2491 1.393 . S
C2488 H2477 0.950 . S
C2488 C2486 1.391 . S
C2488 C2489 1.400 . S
C2489 C2483 1.491 . S
C2489 C2488 1.400 . S
C2489 C2490 1.398 . S
C2490 H2478 0.950 . S
C2490 C2489 1.398 . S
C2490 C2491 1.391 . S
C2491 H2479 0.950 . S
C2491 C2487 1.393 . S
C2491 C2490 1.391 . S
H2492 C2500 0.950 . S
H2493 C2505 0.950 . S
H2494 C2502 0.950 . S
H2495 C2504 0.950 . S
H2496 C2506 0.950 . S
H2497 C2508 0.950 . S
H2498 C2510 0.950 . S
H2499 C2511 0.950 . S
C2500 H2492 0.950 . S
C2500 C2501 1.386 . S
C2500 C2502 1.391 . S
C2501 C2500 1.386 . S
C2501 C2505 1.393 . S
C2502 H2494 0.950 . S
C2502 C2500 1.391 . S
C2502 C2503 1.400 . S
C2503 C2502 1.400 . S
C2503 C2504 1.398 . S
C2503 C2509 1.491 . S
C2504 H2495 0.950 . S
C2504 C2503 1.398 . S
C2504 C2505 1.391 . S
C2505 H2493 0.950 . S
C2505 C2501 1.393 . S
C2505 C2504 1.391 . S
C2506 H2496 0.950 . S
C2506 C2507 1.386 . S
C2506 C2508 1.391 . S
C2507 C2506 1.386 . S
C2507 C2511 1.393 . S
C2508 H2497 0.950 . S
C2508 C2506 1.391 . S
C2508 C2509 1.400 . S
C2509 C2503 1.491 . S
C2509 C2508 1.400 . S
C2509 C2510 1.398 . S
C2510 H2498 0.950 . S
C2510 C2509 1.398 . S
C2510 C2511 1.391 . S
C2511 H2499 0.950 . S
C2511 C2507 1.393 . S
C2511 C2510 1.391 . S
H2512 C2520 0.950 . S
H2513 C2525 0.950 . S
H2514 C2522 0.950 1_554 S
H2515 C2524 0.950 . S
H2516 C2526 0.950 . S
H2517 C2528 0.950 . S
H2518 C2530 0.950 1_554 S
H2519 C2531 0.950 1_554 S
C2520 H2512 0.950 . S
C2520 C2521 1.386 . S
C2520 C2522 1.391 . S
C2521 C2520 1.386 . S
C2521 C2525 1.393 . S
C2522 H2514 0.950 1_556 S
C2522 C2520 1.391 . S
C2522 C2523 1.400 . S
C2523 C2522 1.400 . S
C2523 C2524 1.398 . S
C2523 C2529 1.491 . S
C2524 H2515 0.950 . S
C2524 C2523 1.398 . S
C2524 C2525 1.391 . S
C2525 H2513 0.950 . S
C2525 C2521 1.393 . S
C2525 C2524 1.391 . S
C2526 H2516 0.950 . S
C2526 C2527 1.386 . S
C2526 C2528 1.391 . S
C2527 C2526 1.386 . S
C2527 C2531 1.393 . S
C2528 H2517 0.950 . S
C2528 C2526 1.391 . S
C2528 C2529 1.400 . S
C2529 C2523 1.491 . S
C2529 C2528 1.400 . S
C2529 C2530 1.398 . S
C2530 H2518 0.950 1_556 S
C2530 C2529 1.398 . S
C2530 C2531 1.391 . S
C2531 H2519 0.950 1_556 S
C2531 C2527 1.393 . S
C2531 C2530 1.391 . S
H2532 C2540 0.950 . S
H2533 C2545 0.950 . S
H2534 C2542 0.950 . S
H2535 C2544 0.950 . S
H2536 C2546 0.950 . S
H2537 C2548 0.950 . S
H2538 C2550 0.950 . S
H2539 C2551 0.950 . S
C2540 H2532 0.950 . S
C2540 C2541 1.386 . S
C2540 C2542 1.391 . S
C2541 C2540 1.386 . S
C2541 C2545 1.393 . S
C2542 H2534 0.950 . S
C2542 C2540 1.391 . S
C2542 C2543 1.400 . S
C2543 C2542 1.400 . S
C2543 C2544 1.398 . S
C2543 C2549 1.491 . S
C2544 H2535 0.950 . S
C2544 C2543 1.398 . S
C2544 C2545 1.391 . S
C2545 H2533 0.950 . S
C2545 C2541 1.393 . S
C2545 C2544 1.391 . S
C2546 H2536 0.950 . S
C2546 C2547 1.386 . S
C2546 C2548 1.391 . S
C2547 C2546 1.386 . S
C2547 C2551 1.393 . S
C2548 H2537 0.950 . S
C2548 C2546 1.391 . S
C2548 C2549 1.400 . S
C2549 C2543 1.491 . S
C2549 C2548 1.400 . S
C2549 C2550 1.398 . S
C2550 H2538 0.950 . S
C2550 C2549 1.398 . S
C2550 C2551 1.391 . S
C2551 H2539 0.950 . S
C2551 C2547 1.393 . S
C2551 C2550 1.391 . S
H2552 C2560 0.950 . S
H2553 C2565 0.950 . S
H2554 C2562 0.950 . S
H2555 C2564 0.950 . S
H2556 C2566 0.950 . S
H2557 C2568 0.950 . S
H2558 C2570 0.950 . S
H2559 C2571 0.950 1_556 S
C2560 H2552 0.950 . S
C2560 C2561 1.386 . S
C2560 C2562 1.391 . S
C2561 C2560 1.386 . S
C2561 C2565 1.393 . S
C2562 H2554 0.950 . S
C2562 C2560 1.391 . S
C2562 C2563 1.400 . S
C2563 C2562 1.400 . S
C2563 C2564 1.398 . S
C2563 C2569 1.491 . S
C2564 H2555 0.950 . S
C2564 C2563 1.398 . S
C2564 C2565 1.391 . S
C2565 H2553 0.950 . S
C2565 C2561 1.393 . S
C2565 C2564 1.391 . S
C2566 H2556 0.950 . S
C2566 C2567 1.386 . S
C2566 C2568 1.391 . S
C2567 C2566 1.386 . S
C2567 C2571 1.393 . S
C2568 H2557 0.950 . S
C2568 C2566 1.391 . S
C2568 C2569 1.400 . S
C2569 C2563 1.491 . S
C2569 C2568 1.400 . S
C2569 C2570 1.398 . S
C2570 H2558 0.950 . S
C2570 C2569 1.398 . S
C2570 C2571 1.391 . S
C2571 H2559 0.950 1_554 S
C2571 C2567 1.393 . S
C2571 C2570 1.391 . S
H2572 C2580 0.950 . S
H2573 C2585 0.950 . S
H2574 C2582 0.950 . S
H2575 C2584 0.950 . S
H2576 C2586 0.950 . S
H2577 C2588 0.950 . S
H2578 C2590 0.950 . S
H2579 C2591 0.950 . S
C2580 H2572 0.950 . S
C2580 C2581 1.386 . S
C2580 C2582 1.391 . S
C2581 C2580 1.386 . S
C2581 C2585 1.393 . S
C2582 H2574 0.950 . S
C2582 C2580 1.391 . S
C2582 C2583 1.400 . S
C2583 C2582 1.400 . S
C2583 C2584 1.398 . S
C2583 C2589 1.491 . S
C2584 H2575 0.950 . S
C2584 C2583 1.398 . S
C2584 C2585 1.391 . S
C2585 H2573 0.950 . S
C2585 C2581 1.393 . S
C2585 C2584 1.391 . S
C2586 H2576 0.950 . S
C2586 C2587 1.386 . S
C2586 C2588 1.391 . S
C2587 C2586 1.386 . S
C2587 C2591 1.393 . S
C2588 H2577 0.950 . S
C2588 C2586 1.391 . S
C2588 C2589 1.400 . S
C2589 C2583 1.491 . S
C2589 C2588 1.400 . S
C2589 C2590 1.398 . S
C2590 H2578 0.950 . S
C2590 C2589 1.398 . S
C2590 C2591 1.391 . S
C2591 H2579 0.950 . S
C2591 C2587 1.393 . S
C2591 C2590 1.391 . S
C1647 C625 1.500 . S
C1641 C181 1.495 . S
C1667 C684 1.520 . S
C1661 C247 1.518 . S
C1681 C283 1.501 . S
C1687 C801 1.520 . S
C1707 C869 1.518 . S
C1701 C169 1.501 . S
C1727 C948 1.512 . S
C1721 C361 1.505 . S
C1747 C1073 1.520 . S
C1741 C433 1.513 . S
C1761 C421 1.489 . S
C1767 C1133 1.504 . S
C1787 C1241 1.530 . S
C1781 C355 1.534 . S
C1801 C427 1.515 . S
C1807 C1337 1.524 . S
C1827 C1397 1.523 . S
C1821 C325 1.520 . S
C1841 C385 1.498 . S
C1847 C1300 1.508 . S
C1867 C1417 1.523 . S
C1861 C463 1.508 . S
C1881 C253 1.507 . S
C1887 C1485 1.519 . S
C1901 C145 1.519 . S
C1907 C1476 1.524 . S
C1921 C205 1.474 . S
C1927 C1505 1.488 . S
C1941 C217 1.512 . S
C1947 C1513 1.509 . S
C1961 C139 1.504 . S
C1967 C897 1.518 . S
C1981 C535 1.494 . S
C1987 C860 1.507 . S
C2007 C596 1.499 . S
C2001 C565 1.501 . S
C2027 C693 1.509 . S
C2021 C313 1.499 . S
C2041 C175 1.523 . S
C2047 C957 1.535 . S
C2067 C1249 1.506 . S
C2061 C397 1.491 . S
C2087 C977 1.518 . S
C2081 C349 1.520 . S
C2107 C1161 1.528 . S
C2101 C457 1.516 . S
C2127 C1153 1.498 . S
C2121 C505 1.487 . S
C2141 C571 1.519 . S
C2147 C1221 1.517 . S
C2161 C319 1.511 . S
C2167 C985 1.518 . S
C2187 C1036 1.517 . S
C2181 C493 1.500 . S
C2201 C109 1.501 . S
C2207 C781 1.506 . S
C2227 C889 1.521 . S
C2221 C1 1.515 . S
C2247 C605 1.504 . S
C2241 C61 1.489 . S
C2267 C721 1.531 . S
C2261 C103 1.533 . S
C2281 C67 1.518 . S
C2287 C1425 1.525 . S
C2301 C73 1.520 . S
C2307 C1309 1.522 . S
C2321 C133 1.503 . S
C2327 C1388 1.510 . S
C2341 C31 1.510 . S
C2347 C1329 1.524 . S
C2367 C1573 1.522 . S
C2361 C289 1.517 . S
C2387 C1564 1.522 . S
C2381 C469 1.511 . S
C2407 C1593 1.491 . S
C2401 C529 1.484 . S
C2421 C541 1.509 . S
C2427 C1601 1.512 . S
C2441 C391 1.503 . S
C2447 C1065 1.517 . S
C2467 C1045 1.507 . S
C2461 C211 1.493 . S
C2487 C1124 1.500 . S
C2481 C241 1.499 . S
C2507 C1212 1.507 . S
C2501 C277 1.497 . S
C2521 C499 1.521 . S
C2527 C772 1.534 . S
C2547 C713 1.506 . S
C2541 C37 1.499 . S
C2561 C97 1.520 . S
C2567 C809 1.517 . S
C2587 C633 1.529 . S
C2581 C25 1.513 . S
