# Generated by pormake.
# Topology zzz, (3,6)-cn, num edge types: 1
# Building blocks:
#     Node 0, Type 0, BuildingBlock: ESEHIV_clean_linker_0, # of connection points: 3
#     Node 1, Type 0, BuildingBlock: ESEHIV_clean_linker_0, # of connection points: 3
#     Node 2, Type 0, BuildingBlock: ESEHIV_clean_linker_0, # of connection points: 3
#     Node 3, Type 0, BuildingBlock: ESEHIV_clean_linker_0, # of connection points: 3
#     Node 4, Type 0, BuildingBlock: ESEHIV_clean_linker_0, # of connection points: 3
#     Node 5, Type 0, BuildingBlock: ESEHIV_clean_linker_0, # of connection points: 3
#     Node 6, Type 0, BuildingBlock: ESEHIV_clean_linker_0, # of connection points: 3
#     Node 7, Type 0, BuildingBlock: ESEHIV_clean_linker_0, # of connection points: 3
#     Node 8, Type 1, BuildingBlock: KUMBOL_clean_sbu_0, # of connection points: 6
#     Node 9, Type 1, BuildingBlock: KUMBOL_clean_sbu_0, # of connection points: 6
#     Node 10, Type 1, BuildingBlock: KUMBOL_clean_sbu_0, # of connection points: 6
#     Node 11, Type 1, BuildingBlock: KUMBOL_clean_sbu_0, # of connection points: 6
#     Edge 12, Type (0, 1), BuildingBlock: TEMPAE_clean_linker_10, # of connection points: 2
#     Edge 13, Type (0, 1), BuildingBlock: TEMPAE_clean_linker_10, # of connection points: 2
#     Edge 14, Type (0, 1), BuildingBlock: TEMPAE_clean_linker_10, # of connection points: 2
#     Edge 15, Type (0, 1), BuildingBlock: TEMPAE_clean_linker_10, # of connection points: 2
#     Edge 16, Type (0, 1), BuildingBlock: TEMPAE_clean_linker_10, # of connection points: 2
#     Edge 17, Type (0, 1), BuildingBlock: TEMPAE_clean_linker_10, # of connection points: 2
#     Edge 18, Type (0, 1), BuildingBlock: TEMPAE_clean_linker_10, # of connection points: 2
#     Edge 19, Type (0, 1), BuildingBlock: TEMPAE_clean_linker_10, # of connection points: 2
#     Edge 20, Type (0, 1), BuildingBlock: TEMPAE_clean_linker_10, # of connection points: 2
#     Edge 21, Type (0, 1), BuildingBlock: TEMPAE_clean_linker_10, # of connection points: 2
#     Edge 22, Type (0, 1), BuildingBlock: TEMPAE_clean_linker_10, # of connection points: 2
#     Edge 23, Type (0, 1), BuildingBlock: TEMPAE_clean_linker_10, # of connection points: 2
#     Edge 24, Type (0, 1), BuildingBlock: TEMPAE_clean_linker_10, # of connection points: 2
#     Edge 25, Type (0, 1), BuildingBlock: TEMPAE_clean_linker_10, # of connection points: 2
#     Edge 26, Type (0, 1), BuildingBlock: TEMPAE_clean_linker_10, # of connection points: 2
#     Edge 27, Type (0, 1), BuildingBlock: TEMPAE_clean_linker_10, # of connection points: 2
#     Edge 28, Type (0, 1), BuildingBlock: TEMPAE_clean_linker_10, # of connection points: 2
#     Edge 29, Type (0, 1), BuildingBlock: TEMPAE_clean_linker_10, # of connection points: 2
#     Edge 30, Type (0, 1), BuildingBlock: TEMPAE_clean_linker_10, # of connection points: 2
#     Edge 31, Type (0, 1), BuildingBlock: TEMPAE_clean_linker_10, # of connection points: 2
#     Edge 32, Type (0, 1), BuildingBlock: TEMPAE_clean_linker_10, # of connection points: 2
#     Edge 33, Type (0, 1), BuildingBlock: TEMPAE_clean_linker_10, # of connection points: 2
#     Edge 34, Type (0, 1), BuildingBlock: TEMPAE_clean_linker_10, # of connection points: 2
#     Edge 35, Type (0, 1), BuildingBlock: TEMPAE_clean_linker_10, # of connection points: 2
# Relax obj value: 0.336
# Max RMSD: 0.221
# Mean RMSD: 0.214
data_MOF--net-zzz--node1-KUMBOL_clean_sbu_0--node2-ESEHIV_clean_linker_0--edge1-TEMPAE_clean_linker_10
_symmetry_space_group_name_H-M    P1
_symmetry_Int_Tables_number       1
_symmetry_cell_setting            triclinic
loop_
_symmetry_equiv_pos_as_xyz
'x, y, z'
_cell_length_a     44.329723
_cell_length_b     44.25546
_cell_length_c     15.609525
_cell_angle_alpha  90.743153
_cell_angle_beta   90.132907
_cell_angle_gamma 89.920445
loop_
_atom_site_label
_atom_site_type_symbol
_atom_site_fract_x
_atom_site_fract_y
_atom_site_fract_z
_atom_type_partial_charge
H0 H 0.76893 0.61385 0.35595 0.0
H1 H 0.70065 0.60924 0.17156 0.0
H2 H 0.71768 0.53119 0.32857 0.0
C3 C 0.75084 0.60079 0.32713 0.0
C4 C 0.74596 0.57108 0.3546 0.0
C5 C 0.74146 0.60816 0.24436 0.0
C6 C 0.71229 0.59848 0.22423 0.0
C7 C 0.7032 0.56952 0.24993 0.0
C8 C 0.72191 0.55451 0.31251 0.0
H9 H 0.92532 0.79153 0.34433 0.0
H10 H 0.92401 0.72362 0.15483 0.0
H11 H 0.99016 0.71862 0.35767 0.0
C12 C 0.93292 0.76914 0.32468 0.0
C13 C 0.95845 0.75705 0.36463 0.0
C14 C 0.9266 0.7602 0.24104 0.0
C15 C 0.93185 0.73021 0.21814 0.0
C16 C 0.95492 0.71338 0.25824 0.0
C17 C 0.96993 0.72835 0.33062 0.0
H18 H 0.73711 0.9228 0.31775 0.0
H19 H 0.81297 0.92998 0.16027 0.0
H20 H 0.80533 0.98946 0.38099 0.0
C21 C 0.7597 0.93181 0.3115 0.0
C22 C 0.76948 0.9552 0.36729 0.0
C23 C 0.77225 0.92882 0.23045 0.0
C24 C 0.80252 0.93581 0.22119 0.0
C25 C 0.81496 0.95919 0.27129 0.0
C26 C 0.79762 0.96995 0.34466 0.0
H27 H 0.60315 0.74347 0.32829 0.0
H28 H 0.54989 0.82345 0.37879 0.0
H29 H 0.60656 0.81531 0.15485 0.0
C30 C 0.59822 0.76709 0.31606 0.0
C31 C 0.60318 0.77732 0.23338 0.0
C32 C 0.57722 0.78216 0.36843 0.0
C33 C 0.56735 0.81183 0.34287 0.0
C34 C 0.58034 0.82564 0.26821 0.0
C35 C 0.60014 0.80789 0.21824 0.0
H36 H 0.24188 0.42087 0.06797 0.0
H37 H 0.32096 0.42502 0.21322 0.0
H38 H 0.31524 0.47677 0.97984 0.0
C39 C 0.26547 0.42727 0.06893 0.0
C40 C 0.27678 0.44657 1.00523 0.0
C41 C 0.27969 0.42521 0.14809 0.0
C42 C 0.31037 0.42988 0.15212 0.0
C43 C 0.3238 0.45064 0.09674 0.0
C44 C 0.30634 0.45981 0.02216 0.0
H45 H 0.10258 0.24867 0.99929 0.0
H46 H 0.09595 0.31558 0.19372 0.0
H47 H 0.03119 0.31507 0.98737 0.0
C48 C 0.09283 0.27006 0.02002 0.0
C49 C 0.06683 0.28048 0.97759 0.0
C50 C 0.09703 0.27821 0.10612 0.0
C51 C 0.08893 0.30747 0.13083 0.0
C52 C 0.06472 0.32185 0.09013 0.0
C53 C 0.05197 0.30681 0.01503 0.0
H54 H 0.29393 0.10407 1.00487 0.0
H55 H 0.21983 0.11563 0.16947 0.0
H56 H 0.22027 0.04111 0.98599 0.0
C57 C 0.27133 0.0975 0.0231 0.0
C58 C 0.25841 0.07258 0.98117 0.0
C59 C 0.25976 0.10749 0.10157 0.0
C60 C 0.22895 0.10374 0.1144 0.0
C61 C 0.21393 0.0783 0.07921 0.0
C62 C 0.22976 0.06173 1.01245 0.0
H63 H 0.43615 0.29804 0.07349 0.0
H64 H 0.47274 0.21678 0.96279 0.0
H65 H 0.42409 0.21554 0.20376 0.0
C66 C 0.43753 0.27362 0.073 0.0
C67 C 0.42831 0.25801 0.14559 0.0
C68 C 0.45126 0.2594 1.00246 0.0
C69 C 0.45944 0.2281 1.01165 0.0
C70 C 0.4495 0.21178 0.08593 0.0
C71 C 0.43172 0.22703 0.14686 0.0
Gd72 Gd 0.98555 0.02856 0.61322 0.0
Gd73 Gd 0.0465 1.00846 0.74953 0.0
C74 C 0.08003 0.06737 0.96997 0.0
C75 C 0.13405 0.06689 0.94592 0.0
C76 C 0.10013 0.04422 0.84028 0.0
C77 C 0.07564 0.05098 0.89269 0.0
C78 C 0.12961 0.05221 0.86679 0.0
C79 C 0.10936 0.07438 0.99756 0.0
C80 C 0.05477 0.07773 0.01503 0.0
C81 C 0.0261 0.07283 0.98116 0.0
N82 N 0.0474 0.04426 0.86387 0.0
C83 C 0.02282 0.0563 0.90491 0.0
H84 H 1.00051 0.05409 0.87844 0.0
C85 C 0.11939 0.02104 0.71478 0.0
N86 N 0.0952 0.02986 0.76389 0.0
C87 C 0.14878 0.02906 0.73749 0.0
C88 C 0.15395 0.04482 0.81376 0.0
H89 H 0.11656 1.00545 0.66173 0.0
H90 H 0.11308 0.08653 0.05732 0.0
H91 H 0.03148 0.98294 0.48976 0.0
H92 H 0.05722 0.09087 0.07361 0.0
H93 H 1.00645 0.08196 1.01344 0.0
H94 H 0.15652 0.07307 0.96681 0.0
H95 H 0.91601 0.03507 0.70123 0.0
H96 H 0.97468 0.93702 0.3105 0.0
H97 H 0.0256 0.94998 0.36399 0.0
H98 H 0.87515 0.95891 0.41105 0.0
H99 H 0.16756 0.02186 0.69794 0.0
H100 H 0.17687 0.05041 0.83228 0.0
H101 H 0.91904 0.93993 0.33037 0.0
H102 H 0.86413 0.02076 0.6626 0.0
N103 N 0.9843 0.99029 0.5071 0.0
C104 C 0.97711 0.95199 0.36557 0.0
C105 C 1.00586 0.95927 0.39547 0.0
C106 C 0.95182 0.96328 0.40884 0.0
C107 C 0.95612 0.98241 0.48079 0.0
C108 C 1.00908 0.9785 0.46655 0.0
N109 N 0.9364 1.00869 0.60139 0.0
C110 C 0.93151 0.99174 0.52952 0.0
C111 C 0.88286 0.01199 0.62548 0.0
C112 C 0.87759 0.99394 0.55323 0.0
C113 C 0.91242 0.0195 0.64814 0.0
C114 C 0.90199 0.98359 0.50428 0.0
H115 H 0.85461 0.98841 0.5352 0.0
O116 O 0.95249 0.06407 0.59926 0.0
O117 O 0.02581 0.04948 0.68496 0.0
O118 O 1.00329 1.00355 0.83035 0.0
O119 O 0.96363 1.00901 0.7337 0.0
O120 O 0.98421 0.06885 0.70378 0.0
O121 O 0.97889 0.04932 0.48901 0.0
O122 O 0.08161 0.97461 0.75219 0.0
O123 O 0.01015 0.98882 0.66373 0.0
O124 O 0.02781 0.03629 0.53237 0.0
O125 O 0.06772 0.02102 0.61899 0.0
O126 O 0.04098 0.95963 0.70702 0.0
O127 O 0.0579 0.98751 0.8698 0.0
C128 C 0.01253 0.07242 0.7195 0.0
C129 C 0.89765 0.96552 0.43089 0.0
C130 C 0.92253 0.95512 0.38405 0.0
C131 C 0.95688 0.06638 0.51731 0.0
C132 C 0.95292 0.09632 0.48148 0.0
C133 C 0.92405 0.10471 0.45374 0.0
C134 C 0.97691 0.11656 0.47544 0.0
C135 C 0.97218 0.14518 0.44001 0.0
C136 C 0.91917 0.13319 0.41928 0.0
C137 C 0.94312 0.15336 0.41204 0.0
C138 C 0.97393 1.00361 0.81199 0.0
C139 C 0.01693 0.96042 0.66179 0.0
C140 C 0.07854 0.97019 0.83422 0.0
C141 C 0.0796 0.93866 0.86022 0.0
C142 C 0.10691 0.92271 0.8542 0.0
C143 C 0.0537 0.92418 0.88944 0.0
C144 C 0.05509 0.8939 0.91278 0.0
C145 C 0.10824 0.89236 0.87719 0.0
C146 C 0.08235 0.87788 0.90633 0.0
C147 C 0.05705 0.03111 0.54456 0.0
H148 H 0.90529 0.08914 0.45857 0.0
H149 H 0.99915 0.10994 0.49747 0.0
H150 H 0.8969 0.13947 0.39712 0.0
H151 H 0.93908 0.17497 0.38224 0.0
H152 H 0.12713 0.93375 0.83155 0.0
H153 H 0.03247 0.93632 0.89393 0.0
H154 H 0.12934 0.88012 0.87284 0.0
H155 H 0.08367 0.85445 0.92533 0.0
Gd156 Gd 0.50262 0.98596 0.60481 0.0
Gd157 Gd 0.52399 0.04823 0.73067 0.0
C158 C 0.46621 0.0794 0.95562 0.0
C159 C 0.4647 0.13355 0.93426 0.0
C160 C 0.48807 0.10064 0.82733 0.0
C161 C 0.4821 0.0757 0.87784 0.0
C162 C 0.47942 0.12983 0.85551 0.0
C163 C 0.45827 0.10844 0.98449 0.0
C164 C 0.45768 0.05374 1.00065 0.0
C165 C 0.46479 0.02525 0.968 0.0
N166 N 0.49005 0.04775 0.84826 0.0
C167 C 0.48103 0.02263 0.89182 0.0
H168 H 0.48514 1.00026 0.86755 0.0
C169 C 0.51051 0.12096 0.70363 0.0
N170 N 0.50231 0.09643 0.75104 0.0
C171 C 0.50195 0.15015 0.72827 0.0
C172 C 0.4862 0.15462 0.80442 0.0
H173 H 0.52504 0.11832 0.64853 0.0
H174 H 0.44625 0.11154 0.04422 0.0
H175 H 0.53436 0.03221 0.44977 0.0
H176 H 0.44467 0.05562 0.05902 0.0
H177 H 0.45763 1.0052 1.00129 0.0
H178 H 0.45771 0.15578 0.9558 0.0
H179 H 0.5013 0.91613 0.68669 0.0
H180 H 0.58408 0.9768 0.27988 0.0
H181 H 0.56064 0.02566 0.31595 0.0
H182 H 0.58335 0.87989 0.40884 0.0
H183 H 0.50839 0.16927 0.68985 0.0
H184 H 0.48004 0.17736 0.82424 0.0
H185 H 0.59208 0.92271 0.31381 0.0
H186 H 0.52352 0.86628 0.65895 0.0
N187 N 0.53688 0.98592 0.48715 0.0
C188 C 0.57041 0.97884 0.33685 0.0
C189 C 0.55726 1.00645 0.35709 0.0
C190 C 0.56676 0.95456 0.39186 0.0
C191 C 0.54971 0.95874 0.46768 0.0
C192 C 0.54121 1.00979 0.43335 0.0
N193 N 0.52725 0.93864 0.59186 0.0
C194 C 0.54507 0.93462 0.52189 0.0
C195 C 0.53036 0.88537 0.62097 0.0
C196 C 0.54991 0.88125 0.55225 0.0
C197 C 0.51853 0.91403 0.63817 0.0
C198 C 0.55694 0.90577 0.50053 0.0
H199 H 0.55841 0.85881 0.53748 0.0
O200 O 0.46866 0.9509 0.60043 0.0
O201 O 0.48206 0.0265 0.67464 0.0
O202 O 0.53586 1.00687 0.81096 0.0
O203 O 0.51961 0.96553 0.73052 0.0
O204 O 0.46405 0.98454 0.69815 0.0
O205 O 0.47942 0.97569 0.48544 0.0
O206 O 0.5594 0.08201 0.73258 0.0
O207 O 0.54411 1.00797 0.6604 0.0
O208 O 0.49034 0.028 0.52699 0.0
O209 O 0.50481 0.06949 0.60967 0.0
O210 O 0.56229 0.04952 0.63412 0.0
O211 O 0.54636 0.05952 0.84984 0.0
C212 C 0.46029 0.01303 0.71218 0.0
C213 C 0.57423 0.90185 0.42609 0.0
C214 C 0.57914 0.92619 0.37193 0.0
C215 C 0.46315 0.95442 0.51944 0.0
C216 C 0.43164 0.95145 0.49288 0.0
C217 C 0.41794 0.92299 0.49849 0.0
C218 C 0.41559 0.9757 0.45842 0.0
C219 C 0.38616 0.97127 0.4276 0.0
C220 C 0.38857 0.91864 0.46883 0.0
C221 C 0.37274 0.94261 0.43298 0.0
C222 C 0.53132 0.97733 0.80173 0.0
C223 C 0.56523 0.021 0.61937 0.0
C224 C 0.56328 0.08009 0.81495 0.0
C225 C 0.59397 0.08312 0.84662 0.0
C226 C 0.60743 0.11179 0.84848 0.0
C227 C 0.60941 0.05822 0.87862 0.0
C228 C 0.63824 0.062 0.91263 0.0
C229 C 0.63638 0.11549 0.88232 0.0
C230 C 0.65187 0.0906 0.91435 0.0
C231 C 0.49409 0.05766 0.53745 0.0
H232 H 0.43017 0.90402 0.52486 0.0
H233 H 0.42621 0.99767 0.4533 0.0
H234 H 0.37817 0.8966 0.47286 0.0
H235 H 0.34999 0.93882 0.40977 0.0
H236 H 0.59543 0.13129 0.82449 0.0
H237 H 0.59909 0.03598 0.87728 0.0
H238 H 0.6467 0.13764 0.88416 0.0
H239 H 0.67426 0.09363 0.94111 0.0
Gd240 Gd 0.48358 0.53092 0.72818 0.0
Gd241 Gd 0.54731 0.50377 0.60745 0.0
C242 C 0.63441 0.48501 0.75114 0.0
C243 C 0.67043 0.51496 0.67226 0.0
C244 C 0.61658 0.51962 0.64264 0.0
C245 C 0.61061 0.49769 0.70304 0.0
C246 C 0.64674 0.52822 0.62624 0.0
C247 C 0.66427 0.49359 0.73495 0.0
C248 C 0.62761 0.46352 0.81303 0.0
C249 C 0.59774 0.45504 0.82566 0.0
N250 N 0.58175 0.48823 0.71356 0.0
C251 C 0.5751 0.46735 0.77446 0.0
H252 H 0.55237 0.46036 0.78517 0.0
C253 C 0.59935 0.55017 0.52966 0.0
N254 N 0.59329 0.53106 0.59621 0.0
C255 C 0.62864 0.55986 0.51275 0.0
C256 C 0.65248 0.54885 0.56127 0.0
H257 H 0.58197 0.5558 0.48416 0.0
H258 H 0.68281 0.48355 0.76989 0.0
H259 H 0.4756 0.57156 0.54027 0.0
H260 H 0.64524 0.45337 0.85133 0.0
H261 H 0.59214 0.43866 0.87399 0.0
H262 H 0.69367 0.52089 0.65921 0.0
H263 H 0.45045 0.47831 0.85546 0.0
H264 H 0.38146 0.58459 0.50291 0.0
H265 H 0.4342 0.5947 0.462 0.0
H266 H 0.33576 0.52199 0.71267 0.0
H267 H 0.63294 0.57464 0.45942 0.0
H268 H 0.67533 0.55557 0.546 0.0
H269 H 0.34512 0.55794 0.59736 0.0
H270 H 0.39936 0.46404 0.89532 0.0
N271 N 0.44734 0.54843 0.62877 0.0
C272 C 0.39969 0.57415 0.53818 0.0
C273 C 0.42941 0.58003 0.51519 0.0
C274 C 0.3938 0.55433 0.605 0.0
C275 C 0.41834 0.54101 0.64846 0.0
C276 C 0.45303 0.56707 0.56136 0.0
N277 N 0.43691 0.50636 0.75094 0.0
C278 C 0.413 0.51951 0.71111 0.0
C279 C 0.40282 0.47915 0.84223 0.0
C280 C 0.37823 0.49205 0.80101 0.0
C281 C 0.43199 0.48683 0.81731 0.0
C282 C 0.38306 0.51252 0.73497 0.0
H283 H 0.35561 0.48655 0.82189 0.0
O284 O 0.47793 0.52857 0.86647 0.0
O285 O 0.53222 0.51561 0.73997 0.0
O286 O 0.5232 0.46083 0.65138 0.0
O287 O 0.48648 0.47954 0.74483 0.0
O288 O 0.52146 0.55622 0.79663 0.0
O289 O 0.45515 0.56345 0.79268 0.0
O290 O 0.5699 0.49918 0.48673 0.0
O291 O 0.49674 0.5089 0.60339 0.0
O292 O 0.50244 0.57384 0.67146 0.0
O293 O 0.54404 0.55603 0.59402 0.0
O294 O 0.51835 0.5066 0.48871 0.0
O295 O 0.5652 0.45994 0.5669 0.0
C296 C 0.54308 0.53721 0.78503 0.0
C297 C 0.3588 0.52681 0.69427 0.0
C298 C 0.36414 0.54743 0.62901 0.0
C299 C 0.45922 0.55144 0.86778 0.0
C300 C 0.46093 0.57256 0.93975 0.0
C301 C 0.4411 0.56892 1.00869 0.0
C302 C 0.4807 0.59712 0.93849 0.0
C303 C 0.48108 0.61759 1.00723 0.0
C304 C 0.44113 0.58972 0.07659 0.0
C305 C 0.46118 0.61395 0.07623 0.0
C306 C 0.50119 0.45676 0.70778 0.0
C307 C 0.49197 0.50898 0.52208 0.0
C308 C 0.57522 0.47056 0.49447 0.0
C309 C 0.57094 0.453 0.41536 0.0
C310 C 0.58244 0.46413 0.33816 0.0
C311 C 0.55506 0.42585 0.4152 0.0
C312 C 0.54878 0.4107 0.33775 0.0
C313 C 0.57725 0.44861 0.2614 0.0
C314 C 0.56011 0.42228 0.26069 0.0
C315 C 0.52614 0.57847 0.62154 0.0
H316 H 0.42541 0.55017 1.0095 0.0
H317 H 0.49602 0.60008 0.88522 0.0
H318 H 0.42575 0.58695 0.12967 0.0
H319 H 0.46139 0.62974 0.12989 0.0
H320 H 0.59517 0.48501 0.33715 0.0
H321 H 0.54705 0.41686 0.47523 0.0
H322 H 0.58603 0.45727 0.20217 0.0
H323 H 0.55513 0.41153 0.19959 0.0
Gd324 Gd 1.00262 0.49035 0.73486 0.0
Gd325 Gd 0.02754 0.54898 0.60765 0.0
C326 C 0.06087 0.63814 0.72058 0.0
C327 C 0.03265 0.67457 0.63744 0.0
C328 C 0.02216 0.62074 0.62144 0.0
C329 C 0.04477 0.61433 0.68037 0.0
C330 C 0.0162 0.65102 0.5988 0.0
C331 C 0.0549 0.66816 0.69816 0.0
C332 C 0.08229 0.63119 0.78313 0.0
C333 C 0.08688 0.60119 0.80561 0.0
N334 N 0.0502 0.58499 0.70093 0.0
C335 C 0.07068 0.57834 0.76372 0.0
H336 H 0.07443 0.55556 0.78366 0.0
C337 C 0.98777 0.6032 0.51649 0.0
N338 N 1.00703 0.59747 0.58334 0.0
C339 C 0.9806 0.63272 0.49353 0.0
C340 C 0.99467 0.65679 0.53543 0.0
H341 H 0.97922 0.58492 0.47699 0.0
H342 H 0.0673 0.68663 0.72777 0.0
H343 H 0.95897 0.47829 0.55382 0.0
H344 H 0.09505 0.64884 0.81543 0.0
H345 H 0.10302 0.59559 0.85506 0.0
H346 H 0.0285 0.69786 0.62028 0.0
H347 H 0.04845 0.45884 0.88073 0.0
H348 H 0.94702 0.38367 0.52202 0.0
H349 H 0.93638 0.43592 0.47758 0.0
H350 H 1.00576 0.34118 0.74722 0.0
H351 H 0.96514 0.63681 0.44111 0.0
H352 H 0.98966 0.67969 0.51602 0.0
H353 H 0.97232 0.34875 0.62367 0.0
H354 H 0.06044 0.40811 0.93368 0.0
N355 N 0.98383 0.45134 0.64284 0.0
C356 C 0.9575 0.4024 0.55611 0.0
C357 C 0.95132 0.4318 0.53114 0.0
C358 C 0.97691 0.39748 0.62515 0.0
C359 C 0.9903 0.42265 0.66703 0.0
C360 C 0.96422 0.45601 0.57606 0.0
N361 N 0.02208 0.44283 0.77493 0.0
C362 C 1.00975 0.4183 0.73537 0.0
C363 C 0.04649 0.41059 0.87719 0.0
C364 C 0.03417 0.38521 0.83675 0.0
C365 C 0.03996 0.4393 0.84597 0.0
C366 C 0.01552 0.38882 0.76523 0.0
H367 H 0.03881 0.36298 0.86206 0.0
O368 O 0.99518 0.48271 0.87046 0.0
O369 O 1.0029 0.54187 0.7322 0.0
O370 O 0.07092 0.52503 0.65774 0.0
O371 O 0.05406 0.48583 0.74317 0.0
O372 O 0.02146 0.52135 0.83734 0.0
O373 O 0.95729 0.48065 0.77916 0.0
O374 O 0.03019 0.55933 0.4726 0.0
O375 O 0.02711 0.49785 0.61044 0.0
O376 O 0.96008 0.51012 0.67319 0.0
O377 O 0.97578 0.55258 0.60139 0.0
O378 O 0.01173 0.51811 0.50057 0.0
O379 O 0.06812 0.56906 0.55732 0.0
C380 C 0.01282 0.54708 0.80837 0.0
C381 C 1.00185 0.3639 0.72453 0.0
C382 C 0.98277 0.36821 0.65434 0.0
C383 C 0.96658 0.47808 0.85808 0.0
C384 C 0.94613 0.4711 0.92807 0.0
C385 C 0.9562 0.45468 0.99879 0.0
C386 C 0.91738 0.48396 0.92848 0.0
C387 C 0.89924 0.48251 1.00175 0.0
C388 C 0.93753 0.45145 0.06991 0.0
C389 C 0.90937 0.46563 0.07217 0.0
C390 C 0.07628 0.50205 0.7105 0.0
C391 C 0.01809 0.49242 0.53373 0.0
C392 C 0.05637 0.57222 0.48112 0.0
C393 C 0.07636 0.57108 0.4081 0.0
C394 C 0.07094 0.59021 0.33868 0.0
C395 C 0.10106 0.55177 0.40763 0.0
C396 C 0.12032 0.55134 0.33752 0.0
C397 C 0.09037 0.58974 0.26841 0.0
C398 C 0.11503 0.57016 0.26743 0.0
C399 C 0.95408 0.53391 0.62536 0.0
H400 H 0.97858 0.44479 0.99947 0.0
H401 H 0.9099 0.49667 0.8734 0.0
H402 H 0.94532 0.43886 0.12464 0.0
H403 H 0.89621 0.46441 0.13035 0.0
H404 H 0.0518 0.60547 0.33907 0.0
H405 H 0.10507 0.53678 0.46102 0.0
H406 H 0.08634 0.60443 0.21477 0.0
H407 H 0.12993 0.56967 0.21251 0.0
C408 C 0.16768 0.09044 0.1709 0.0
C409 C 0.18506 0.06853 0.12599 0.0
C410 C 0.14706 0.08286 0.23594 0.0
C411 C 0.13984 0.05225 0.25127 0.0
C412 C 0.1539 0.02991 0.19795 0.0
C413 C 0.17693 0.0381 0.1385 0.0
C414 C 0.13533 0.10802 0.29297 0.0
C415 C 0.14481 0.99726 0.20453 0.0
C416 C 0.10999 0.03329 0.47739 0.0
C417 C 0.07842 0.03577 0.46906 0.0
C418 C 0.1299 0.03738 0.40724 0.0
C419 C 0.11846 0.04413 0.3245 0.0
C420 C 0.08659 0.04641 0.31515 0.0
C421 C 0.06722 0.04235 0.38663 0.0
C422 C 0.16347 0.03548 0.42268 0.0
C423 C 0.07281 0.05446 0.23008 0.0
H424 H 0.17136 0.1142 0.15906 0.0
H425 H 0.18904 0.02056 0.10387 0.0
H426 H 0.11273 0.10304 0.31878 0.0
H427 H 0.15083 0.11071 0.3485 0.0
H428 H 0.13454 0.12988 0.25887 0.0
H429 H 0.15617 0.98277 0.15573 0.0
H430 H 0.15033 0.98869 0.26914 0.0
H431 H 0.12001 0.99522 0.19604 0.0
H432 H 0.11952 0.02879 0.53927 0.0
H433 H 0.04308 0.04454 0.37756 0.0
H434 H 0.17412 0.05746 0.40756 0.0
H435 H 0.17364 0.01817 0.37958 0.0
H436 H 0.16902 0.02968 0.48993 0.0
H437 H 0.07582 0.07902 0.21951 0.0
H438 H 0.04828 0.04939 0.22766 0.0
H439 H 0.08422 0.04216 0.17683 0.0
C440 C 0.4371 0.16223 0.15249 0.0
C441 C 0.45916 0.18068 0.11442 0.0
C442 C 0.44431 0.14241 0.21941 0.0
C443 C 0.47477 0.13697 0.24131 0.0
C444 C 0.49757 0.15196 0.19392 0.0
C445 C 0.48955 0.17435 0.13325 0.0
C446 C 0.41917 0.12982 0.27309 0.0
C447 C 0.53041 0.14565 0.21107 0.0
C448 C 0.48832 0.10981 0.47166 0.0
C449 C 0.48833 0.07813 0.46225 0.0
C450 C 0.48507 0.12912 0.40056 0.0
C451 C 0.48202 0.11675 0.3165 0.0
C452 C 0.48222 0.08481 0.30653 0.0
C453 C 0.48492 0.06607 0.3789 0.0
C454 C 0.48396 0.16286 0.41596 0.0
C455 C 0.47859 0.07017 0.21946 0.0
H456 H 0.41353 0.16663 0.13855 0.0
H457 H 0.50695 0.18826 0.1053 0.0
H458 H 0.42072 0.10487 0.27402 0.0
H459 H 0.42163 0.13785 0.34036 0.0
H460 H 0.39656 0.13689 0.25025 0.0
H461 H 0.54531 0.15659 0.16353 0.0
H462 H 0.53659 0.15408 0.27599 0.0
H463 H 0.53458 0.1209 0.20956 0.0
H464 H 0.49038 0.11971 0.53496 0.0
H465 H 0.48474 0.04177 0.36961 0.0
H466 H 0.46165 0.17179 0.39604 0.0
H467 H 0.50124 0.17426 0.37661 0.0
H468 H 0.48778 0.16908 0.48432 0.0
H469 H 0.4543 0.07003 0.20245 0.0
H470 H 0.48676 0.04642 0.21865 0.0
H471 H 0.49081 0.08295 0.16965 0.0
C472 C 0.35435 0.49514 0.15942 0.0
C473 C 0.3527 0.46448 0.13405 0.0
C474 C 0.37552 0.50552 0.22273 0.0
C475 C 0.39458 0.48473 0.26657 0.0
C476 C 0.39322 0.45403 0.23992 0.0
C477 C 0.37393 0.4448 0.17195 0.0
C478 C 0.37657 0.53866 0.24555 0.0
C479 C 0.41135 0.43022 0.28524 0.0
C480 C 0.46944 0.50881 0.37421 0.0
C481 C 0.46427 0.50608 0.46324 0.0
C482 C 0.44727 0.50233 0.31126 0.0
C483 C 0.41751 0.49471 0.33545 0.0
C484 C 0.41138 0.49308 0.42527 0.0
C485 C 0.43498 0.49724 0.48734 0.0
C486 C 0.45641 0.50197 0.21807 0.0
C487 C 0.37994 0.48609 0.45562 0.0
H488 H 0.33802 0.51079 0.13334 0.0
H489 H 0.37312 0.421 0.1546 0.0
H490 H 0.36954 0.54202 0.31319 0.0
H491 H 0.40001 0.54718 0.24008 0.0
H492 H 0.3617 0.55229 0.20365 0.0
H493 H 0.40055 0.40774 0.27814 0.0
H494 H 0.43434 0.42933 0.25744 0.0
H495 H 0.41359 0.43507 0.35479 0.0
H496 H 0.49183 0.51474 0.35244 0.0
H497 H 0.43063 0.4926 0.55387 0.0
H498 H 0.44088 0.51619 0.17994 0.0
H499 H 0.45482 0.47853 0.19221 0.0
H500 H 0.47986 0.51006 0.2086 0.0
H501 H 0.36413 0.50362 0.43208 0.0
H502 H 0.37848 0.48541 0.52661 0.0
H503 H 0.37233 0.46407 0.42861 0.0
C504 C 0.02772 0.34598 0.19646 0.0
C505 C 0.05223 0.34912 0.1399 0.0
C506 C 0.02176 0.36741 0.26378 0.0
C507 C 0.04078 0.39305 0.27724 0.0
C508 C 0.06527 0.39656 0.21927 0.0
C509 C 0.0707 0.37479 0.15289 0.0
C510 C 0.99546 0.362 0.32262 0.0
C511 C 0.08683 0.42273 0.22946 0.0
C512 C 0.01025 0.46522 0.39179 0.0
C513 C 0.02303 0.46474 0.47478 0.0
C514 C 0.01543 0.44223 0.32928 0.0
C515 C 0.03411 0.41706 0.3477 0.0
C516 C 0.04676 0.41585 0.43213 0.0
C517 C 0.04115 0.43947 0.49421 0.0
C518 C 1.00137 0.44543 0.24173 0.0
C519 C 0.06671 0.38974 0.45655 0.0
H520 H 0.01406 0.32575 0.19108 0.0
H521 H 0.09059 0.37708 0.11323 0.0
H522 H 1.00357 0.36023 0.38968 0.0
H523 H 0.97967 0.38145 0.32041 0.0
H524 H 0.98292 0.34107 0.30536 0.0
H525 H 0.10227 0.42463 0.17385 0.0
H526 H 0.07434 0.44433 0.23731 0.0
H527 H 0.10065 0.41959 0.28804 0.0
H528 H 0.99614 0.48423 0.37463 0.0
H529 H 0.05143 0.43838 0.55715 0.0
H530 H 0.98863 0.42468 0.22429 0.0
H531 H 0.01936 0.44821 0.19314 0.0
H532 H 0.98585 0.46511 0.23824 0.0
H533 H 0.05412 0.36822 0.44905 0.0
H534 H 0.07497 0.39173 0.52362 0.0
H535 H 0.08641 0.38847 0.41291 0.0
C536 C 0.83732 0.99756 0.17023 0.0
C537 C 0.84195 0.97398 0.22884 0.0
C538 C 0.85812 1.00367 0.10301 0.0
C539 C 0.8849 0.98612 0.0931 0.0
C540 C 0.89015 0.963 0.15372 0.0
C541 C 0.86873 0.95708 0.21905 0.0
C542 C 0.85017 0.02752 0.03865 0.0
C543 C 0.91805 0.94356 0.14792 0.0
C544 C 0.92598 0.97966 0.87285 0.0
C545 C 0.95117 0.99873 0.88374 0.0
C546 C 0.90455 0.97523 0.9396 0.0
C547 C 0.90711 0.99128 0.01915 0.0
C548 C 0.93197 0.01124 0.02919 0.0
C549 C 0.95379 0.01407 0.96316 0.0
C550 C 0.8795 0.95269 0.92566 0.0
C551 C 0.93545 0.02997 0.11003 0.0
H552 H 0.81611 1.00975 0.17247 0.0
H553 H 0.87183 0.93752 0.2591 0.0
H554 H 0.86992 0.0421 0.02549 0.0
H555 H 0.8436 0.01637 0.9773 0.0
H556 H 0.8311 0.04195 0.06059 0.0
H557 H 0.91594 0.9227 0.18618 0.0
H558 H 0.92297 0.93683 0.08071 0.0
H559 H 0.93766 0.95671 0.17225 0.0
H560 H 0.92341 0.96751 0.81254 0.0
H561 H 0.97266 0.02898 0.9739 0.0
H562 H 0.85734 0.96335 0.9393 0.0
H563 H 0.88228 0.93371 0.97085 0.0
H564 H 0.87926 0.94332 0.85929 0.0
H565 H 0.91532 0.04462 0.11879 0.0
H566 H 0.95583 0.04454 0.1088 0.0
H567 H 0.93683 0.01501 0.16641 0.0
C568 C 0.541 0.86397 0.2154 0.0
C569 C 0.57126 0.85542 0.22767 0.0
C570 C 0.53286 0.88634 0.15453 0.0
C571 C 0.55516 0.8991 0.09994 0.0
C572 C 0.58571 0.89143 0.11534 0.0
C573 C 0.59331 0.87148 0.18164 0.0
C574 C 0.50014 0.89519 0.14752 0.0
C575 C 0.61052 0.90286 0.05827 0.0
C576 C 0.5321 0.92577 0.87424 0.0
C577 C 0.53761 0.9571 0.87753 0.0
C578 C 0.53696 0.90698 0.94589 0.0
C579 C 0.54726 0.91951 0.02502 0.0
C580 C 0.55259 0.95123 0.02886 0.0
C581 C 0.54776 0.96937 0.95599 0.0
C582 C 0.53149 0.87346 0.93598 0.0
C583 C 0.56302 0.96689 0.10974 0.0
H584 H 0.52349 0.85229 0.25016 0.0
H585 H 0.6169 0.86607 0.19179 0.0
H586 H 0.49703 0.91733 0.11611 0.0
H587 H 0.48785 0.87763 0.11004 0.0
H588 H 0.48971 0.89632 0.21214 0.0
H589 H 0.6325 0.8918 0.07171 0.0
H590 H 0.6047 0.89872 0.98989 0.0
H591 H 0.61314 0.92757 0.06763 0.0
H592 H 0.52402 0.91563 0.81547 0.0
H593 H 0.55186 0.99347 0.96125 0.0
H594 H 0.51155 0.86702 0.97431 0.0
H595 H 0.55113 0.86052 0.96031 0.0
H596 H 0.52727 0.86665 0.86824 0.0
H597 H 0.54381 0.97961 0.13811 0.0
H598 H 0.58086 0.98357 0.09474 0.0
H599 H 0.57177 0.95108 0.1581 0.0
C600 C 0.68176 0.53249 0.13877 0.0
C601 C 0.67714 0.55603 0.19885 0.0
C602 C 0.66054 0.52621 0.07205 0.0
C603 C 0.63396 0.54411 0.06307 0.0
C604 C 0.62874 0.56712 0.12568 0.0
C605 C 0.65003 0.57257 0.19211 0.0
C606 C 0.66742 0.5013 1.00828 0.0
C607 C 0.60123 0.58715 0.12036 0.0
C608 C 0.59399 0.55408 0.84349 0.0
C609 C 0.56847 0.53542 0.8499 0.0
C610 C 0.61589 0.55613 0.91009 0.0
C611 C 0.61218 0.53976 0.98733 0.0
C612 C 0.5865 0.52065 0.9935 0.0
C613 C 0.56515 0.51877 0.92549 0.0
C614 C 0.64252 0.57684 0.89889 0.0
C615 C 0.58114 0.50272 0.07334 0.0
H616 H 0.70289 0.52016 0.1406 0.0
H617 H 0.64634 0.59131 0.23634 0.0
H618 H 0.64726 0.48688 0.99771 0.0
H619 H 0.6734 0.51132 0.94579 0.0
H620 H 0.68645 0.48686 0.02959 0.0
H621 H 0.60065 0.60432 0.17279 0.0
H622 H 0.60083 0.59899 0.05812 0.0
H623 H 0.58046 0.57328 0.12372 0.0
H624 H 0.59658 0.56759 0.78655 0.0
H625 H 0.54523 0.50484 0.93256 0.0
H626 H 0.66383 0.56469 0.91306 0.0
H627 H 0.64081 0.59608 0.94493 0.0
H628 H 0.6438 0.58592 0.83297 0.0
H629 H 0.60158 0.48933 0.08869 0.0
H630 H 0.56159 0.48718 0.06668 0.0
H631 H 0.57697 0.51831 0.12832 0.0
C632 C 0.94226 0.66833 0.15934 0.0
C633 C 0.96412 0.6839 0.2099 0.0
C634 C 0.94979 0.64692 0.09449 0.0
C635 C 0.98002 0.63701 0.08397 0.0
C636 C 1.00187 0.64948 0.14213 0.0
C637 C 0.99403 0.67325 0.2017 0.0
C638 C 0.92472 0.63563 0.03662 0.0
C639 C 0.03379 0.63787 0.14104 0.0
C640 C 0.99108 0.56161 0.95492 0.0
C641 C 1.00148 0.57092 0.87379 0.0
C642 C 0.98378 0.5824 0.02234 0.0
C643 C 0.98834 0.614 1.01246 0.0
C644 C 0.99825 0.62365 0.93044 0.0
C645 C 1.00334 0.60238 0.86237 0.0
C646 C 0.97051 0.57027 0.10382 0.0
C647 C 1.00292 0.6568 0.91371 0.0
H648 H 0.91864 0.67404 0.167 0.0
H649 H 0.01151 0.68384 0.24021 0.0
H650 H 0.93297 0.62743 0.97344 0.0
H651 H 0.91279 0.61685 0.06843 0.0
H652 H 0.90788 0.65379 0.02536 0.0
H653 H 0.04651 0.64525 0.199 0.0
H654 H 0.03396 0.61278 0.13729 0.0
H655 H 0.0456 0.64635 0.08363 0.0
H656 H 0.98822 0.53766 0.96588 0.0
H657 H 1.0088 0.61072 0.80056 0.0
H658 H 0.94595 0.57513 0.10485 0.0
H659 H 0.98078 0.58145 0.16087 0.0
H660 H 0.97352 0.54543 0.10876 0.0
H661 H 0.98097 0.6688 0.91821 0.0
H662 H 0.01283 0.66082 0.8496 0.0
H663 H 0.01809 0.66682 0.96302 0.0
C664 C 0.09961 0.2545 0.25203 0.0
C665 C 0.0876 0.25523 0.16893 0.0
C666 C 0.08514 0.2378 0.3162 0.0
C667 C 0.05771 0.22284 0.29671 0.0
C668 C 0.04545 0.2239 0.2135 0.0
C669 C 0.06107 0.23903 0.15088 0.0
C670 C 0.09878 0.23645 0.40454 0.0
C671 C 0.01539 0.20961 0.19016 0.0
C672 C 0.02398 0.15334 0.38578 0.0
C673 C 0.99795 0.16527 0.42392 0.0
C674 C 0.04609 0.17239 0.3532 0.0
C675 C 0.04199 0.20401 0.35936 0.0
C676 C 0.01708 0.21621 0.40466 0.0
C677 C 0.99528 0.19655 0.43683 0.0
C678 C 0.07155 0.1587 0.30161 0.0
C679 C 0.01169 0.2499 0.41041 0.0
H680 H 0.11968 0.26751 0.26705 0.0
H681 H 0.05096 0.23961 0.08854 0.0
H682 H 0.08194 0.24343 0.45338 0.0
H683 H 0.10533 0.2128 0.41845 0.0
H684 H 0.11901 0.25109 0.41113 0.0
H685 H 1.00849 0.21418 0.12309 0.0
H686 H 0.01652 0.18477 0.19799 0.0
H687 H 0.99742 0.21839 0.23313 0.0
H688 H 0.02588 0.12918 0.37469 0.0
H689 H 0.97529 0.20566 0.46761 0.0
H690 H 0.09344 0.16851 0.32242 0.0
H691 H 0.06854 0.16386 0.2327 0.0
H692 H 0.07228 0.1338 0.30769 0.0
H693 H 0.03132 0.26115 0.44113 0.0
H694 H 0.99108 0.25564 0.44762 0.0
H695 H 1.00925 0.25937 0.34523 0.0
C696 C 0.3113 0.1061 0.16784 0.0
C697 C 0.27993 0.10376 0.17783 0.0
C698 C 0.33071 0.08706 0.21298 0.0
C699 C 0.31867 0.06757 0.27523 0.0
C700 C 0.28778 0.06895 0.2961 0.0
C701 C 0.26889 0.08765 0.24877 0.0
C702 C 0.36317 0.08483 0.18516 0.0
C703 C 0.27398 0.04796 0.361 0.0
C704 C 0.35563 0.99181 0.30822 0.0
C705 C 0.36978 0.99633 0.38757 0.0
C706 C 0.33939 0.01512 0.26998 0.0
C707 C 0.33748 0.04353 0.3123 0.0
C708 C 0.35218 0.0484 0.39166 0.0
C709 C 0.36825 0.02463 0.42858 0.0
C710 C 0.32359 1.00905 0.18568 0.0
C711 C 0.3506 0.07856 0.4377 0.0
H712 H 0.32045 0.11976 0.11705 0.0
H713 H 0.24495 0.08623 0.26133 0.0
H714 H 0.37804 0.07964 0.24009 0.0
H715 H 0.36556 0.06612 0.13771 0.0
H716 H 0.37076 0.10581 0.15356 0.0
H717 H 0.24918 0.05101 0.36703 0.0
H718 H 0.27841 0.02408 0.34229 0.0
H719 H 0.28445 0.05182 0.42475 0.0
H720 H 0.35727 0.96999 0.27614 0.0
H721 H 0.37915 0.02797 0.49025 0.0
H722 H 0.33007 0.02628 0.13834 0.0
H723 H 0.29882 1.01073 0.19454 0.0
H724 H 0.32897 0.98632 0.15879 0.0
H725 H 0.35893 0.09661 0.39508 0.0
H726 H 0.36406 0.0789 0.49781 0.0
H727 H 0.32682 0.08403 0.45375 0.0
C728 C 0.41616 0.30524 0.2225 0.0
C729 C 0.42453 0.27487 0.22754 0.0
C730 C 0.43617 0.32697 0.25415 0.0
C731 C 0.46016 0.31768 0.30781 0.0
C732 C 0.46171 0.28756 0.33603 0.0
C733 C 0.44336 0.26613 0.29558 0.0
C734 C 0.43514 0.35804 0.21566 0.0
C735 C 0.48563 0.27681 0.39757 0.0
C736 C 0.53225 0.36087 0.27718 0.0
C737 C 0.52839 0.3844 0.33708 0.0
C738 C 0.51062 0.33809 0.26871 0.0
C739 C 0.48536 0.33843 0.32401 0.0
C740 C 0.48242 0.36083 0.38808 0.0
C741 C 0.50367 0.3839 0.3931 0.0
C742 C 0.51388 0.31483 0.19754 0.0
C743 C 0.45564 0.3615 0.44721 0.0
H744 H 0.3996 0.31177 0.17487 0.0
H745 H 0.44823 0.24249 0.30654 0.0
H746 H 0.44295 0.37555 0.26156 0.0
H747 H 0.45058 0.3585 0.15978 0.0
H748 H 0.41213 0.36375 0.19264 0.0
H749 H 0.50401 0.26558 0.36086 0.0
H750 H 0.49542 0.2955 0.43662 0.0
H751 H 0.47604 0.25969 0.44118 0.0
H752 H 0.55165 0.36076 0.23507 0.0
H753 H 0.49999 0.40227 0.43845 0.0
H754 H 0.49408 0.31588 0.15399 0.0
H755 H 0.51458 0.29182 0.22471 0.0
H756 H 0.53464 0.31826 0.15909 0.0
H757 H 0.43467 0.36573 0.41037 0.0
H758 H 0.45785 0.37954 0.49669 0.0
H759 H 0.45309 0.33917 0.47789 0.0
C760 C 0.24644 0.42695 0.27748 0.0
C761 C 0.26335 0.44157 0.21541 0.0
C762 C 0.22582 0.44363 0.327 0.0
C763 C 0.22104 0.47446 0.30797 0.0
C764 C 0.24006 0.48963 0.25032 0.0
C765 C 0.26194 0.4731 0.20784 0.0
C766 C 0.20746 0.42794 0.3942 0.0
C767 C 0.23557 0.52241 0.2257 0.0
C768 C 0.14432 0.50613 0.27709 0.0
C769 C 0.14497 0.52982 0.33653 0.0
C770 C 0.168 0.48554 0.27317 0.0
C771 C 0.19261 0.48913 0.33065 0.0
C772 C 0.19232 0.51197 0.39462 0.0
C773 C 0.16822 0.53227 0.39688 0.0
C774 C 0.16797 0.46196 0.20211 0.0
C775 C 0.21837 0.51636 0.456 0.0
H776 H 0.24832 0.40268 0.2845 0.0
H777 H 0.27581 0.48446 0.16122 0.0
H778 H 0.2034 0.44323 0.44993 0.0
H779 H 0.18521 0.42146 0.3671 0.0
H780 H 0.21892 0.40714 0.41662 0.0
H781 H 0.24794 0.52817 0.16624 0.0
H782 H 0.21142 0.52781 0.21514 0.0
H783 H 0.24406 0.53736 0.27783 0.0
H784 H 0.12562 0.50425 0.23235 0.0
H785 H 0.16801 0.55063 0.44361 0.0
H786 H 0.17131 0.43913 0.22891 0.0
H787 H 0.18684 0.46627 0.15726 0.0
H788 H 0.1466 0.46195 0.1648 0.0
H789 H 0.22764 0.49428 0.47643 0.0
H790 H 0.21158 0.5297 0.51359 0.0
H791 H 0.23673 0.5288 0.42372 0.0
C792 C 0.92101 0.80389 0.14086 0.0
C793 C 0.93867 0.78158 0.17876 0.0
C794 C 0.93473 0.82577 0.08943 0.0
C795 C 0.96652 0.82554 0.08004 0.0
C796 C 0.98429 0.80362 0.12109 0.0
C797 C 0.97003 0.78129 0.16664 0.0
C798 C 0.91565 0.84945 0.04689 0.0
C799 C 0.01847 0.80407 0.1194 0.0
C800 C 0.01608 0.85409 0.90735 0.0
C801 C 0.02833 0.87952 0.948 0.0
C802 C 0.99257 0.83829 0.94555 0.0
C803 C 0.98218 0.84773 0.02736 0.0
C804 C 0.99343 0.87451 0.06631 0.0
C805 C 0.01608 0.89052 0.02476 0.0
C806 C 0.98109 0.80975 0.90258 0.0
C807 C 0.98368 0.8854 0.15424 0.0
H808 H 0.89688 0.80428 0.15182 0.0
H809 H 0.98385 0.76427 0.19673 0.0
H810 H 0.92183 0.87213 0.0725 0.0
H811 H 0.92018 0.8494 0.97695 0.0
H812 H 0.89117 0.84575 0.0574 0.0
H813 H 0.02861 0.78707 0.16269 0.0
H814 H 0.02666 0.79939 0.0535 0.0
H815 H 0.02692 0.8267 0.13927 0.0
H816 H 0.02555 0.84607 0.84719 0.0
H817 H 0.02563 0.91053 0.05514 0.0
H818 H 0.95634 0.80754 0.91114 0.0
H819 H 0.99195 0.78984 0.93233 0.0
H820 H 0.98635 0.8092 0.83302 0.0
H821 H 0.96817 0.90479 0.14649 0.0
H822 H 1.00339 0.89376 0.19168 0.0
H823 H 0.97199 0.86799 0.19228 0.0
C824 C 0.73267 0.92583 0.11581 0.0
C825 C 0.75284 0.94269 0.16566 0.0
C826 C 0.71111 0.9407 0.06547 0.0
C827 C 0.70962 0.97267 0.06847 0.0
C828 C 0.72989 0.98959 0.11939 0.0
C829 C 0.75155 0.9744 0.16562 0.0
C830 C 0.69021 0.92244 1.00905 0.0
C831 C 0.72819 0.02372 0.12795 0.0
C832 C 0.68013 0.02565 0.90535 0.0
C833 C 0.65406 0.03588 0.94625 0.0
C834 C 0.6969 1.00213 0.94001 0.0
C835 C 0.68747 0.9894 0.01809 0.0
C836 C 0.66019 0.99867 0.05739 0.0
C837 C 0.64343 0.02176 0.01989 0.0
C838 C 0.72633 0.99322 0.89815 0.0
C839 C 0.65038 0.98628 0.14279 0.0
H840 H 0.73348 0.90137 0.1173 0.0
H841 H 0.7665 0.98759 0.20595 0.0
H842 H 0.66693 0.93153 1.01213 0.0
H843 H 0.69778 0.92412 0.94159 0.0
H844 H 0.68997 0.89821 0.02681 0.0
H845 H 0.74625 0.03318 0.16986 0.0
H846 H 0.73005 0.03434 0.06425 0.0
H847 H 0.70609 0.03045 0.15553 0.0
H848 H 0.68781 0.03667 0.84771 0.0
H849 H 0.62297 0.02993 0.05044 0.0
H850 H 0.7294 0.96834 0.89891 0.0
H851 H 0.74534 1.00351 0.93459 0.0
H852 H 0.72763 1.00105 0.83094 0.0
H853 H 0.64929 0.96126 0.13938 0.0
H854 H 0.62815 0.99528 0.16355 0.0
H855 H 0.66722 0.99226 0.19291 0.0
C856 C 0.55697 0.75712 0.16979 0.0
C857 C 0.58855 0.75866 0.16738 0.0
C858 C 0.5414 0.73637 0.11971 0.0
C859 C 0.55787 0.71776 0.06243 0.0
C860 C 0.58926 0.72218 0.05089 0.0
C861 C 0.60462 0.7424 0.1055 0.0
C862 C 0.50818 0.73169 0.13777 0.0
C863 C 0.6067 0.70397 0.98553 0.0
C864 C 0.52512 0.64063 0.07694 0.0
C865 C 0.50393 0.6413 1.01091 0.0
C866 C 0.54501 0.66456 0.08948 0.0
C867 C 0.5436 0.68952 0.03373 0.0
C868 C 0.52361 0.68937 0.96306 0.0
C869 C 0.50383 0.66493 0.9521 0.0
C870 C 0.56544 0.66436 0.16726 0.0
C871 C 0.52145 0.71605 0.90397 0.0
H872 H 0.54453 0.77075 0.21583 0.0
H873 H 0.62892 0.74468 0.102 0.0
H874 H 0.49504 0.72931 0.07771 0.0
H875 H 0.50527 0.71056 0.17443 0.0
H876 H 0.49836 0.75057 0.17623 0.0
H877 H 0.62954 0.71347 0.97477 0.0
H878 H 0.60916 0.68038 1.00767 0.0
H879 H 0.59428 0.70321 0.9237 0.0
H880 H 0.5252 0.62186 0.12098 0.0
H881 H 0.48735 0.66502 0.90066 0.0
H882 H 0.56 0.68373 0.21038 0.0
H883 H 0.5893 0.66675 0.14732 0.0
H884 H 0.56319 0.64331 0.20464 0.0
H885 H 0.51066 0.73541 0.93774 0.0
H886 H 0.50779 0.7108 0.84616 0.0
H887 H 0.54428 0.72347 0.88431 0.0
C888 C 0.79564 0.6018 0.19939 0.0
C889 C 0.76497 0.60318 0.17583 0.0
C890 C 0.81539 0.58187 0.15789 0.0
C891 C 0.80525 0.56559 0.08478 0.0
C892 C 0.77646 0.57156 0.05014 0.0
C893 C 0.7567 0.59055 0.09553 0.0
C894 C 0.84569 0.57624 0.19966 0.0
C895 C 0.76546 0.5557 0.96972 0.0
C896 C 0.87207 0.53097 0.97502 0.0
C897 C 0.87187 0.50163 1.00846 0.0
C898 C 0.84854 0.55115 0.99204 0.0
C899 C 0.82483 0.54215 0.04611 0.0
C900 C 0.82322 0.51194 0.07466 0.0
C901 C 0.84675 0.49193 0.05484 0.0
C902 C 0.85071 0.58311 0.95987 0.0
C903 C 0.79849 0.50126 0.13312 0.0
H904 H 0.80357 0.61319 0.2569 0.0
H905 H 0.73388 0.59278 0.07164 0.0
H906 H 0.86207 0.56416 0.15818 0.0
H907 H 0.85595 0.59795 0.22105 0.0
H908 H 0.84209 0.56245 0.25762 0.0
H909 H 0.74459 0.5662 0.94409 0.0
H910 H 0.78311 0.55594 0.91942 0.0
H911 H 0.76049 0.53172 0.98402 0.0
H912 H 0.8915 0.53903 0.94018 0.0
H913 H 0.84611 0.46911 0.07918 0.0
H914 H 0.858 0.59827 1.01321 0.0
H915 H 0.82838 0.59115 0.93726 0.0
H916 H 0.86725 0.58507 0.90688 0.0
H917 H 0.80557 0.50563 0.20018 0.0
H918 H 0.79468 0.47655 0.12543 0.0
H919 H 0.77687 0.51322 0.12219 0.0
C920 C 0.02816 0.24041 0.93192 0.0
C921 C 0.05376 0.25778 0.91187 0.0
C922 C 0.02261 0.21143 0.89356 0.0
C923 C 0.04201 0.19938 0.8286 0.0
C924 C 0.06617 0.21828 0.80182 0.0
C925 C 0.07204 0.24642 0.8445 0.0
C926 C 0.99729 0.1926 0.92874 0.0
C927 C 0.08612 0.2088 0.72794 0.0
C928 C 0.04988 0.11227 0.78594 0.0
C929 C 0.02451 0.10493 0.73537 0.0
C930 C 0.05531 0.14211 0.81876 0.0
C931 C 0.03746 0.16705 0.79133 0.0
C932 C 0.01475 0.16049 0.72923 0.0
C933 C 1.00762 0.12998 0.70617 0.0
C934 C 0.07918 0.14646 0.88691 0.0
C935 C 0.99772 0.18574 0.68674 0.0
H936 H 0.01385 0.24817 0.98393 0.0
H937 H 0.09207 0.25904 0.82776 0.0
H938 H 0.98398 0.18184 0.87659 0.0
H939 H 1.00706 0.1742 0.96783 0.0
H940 H 0.98178 0.20616 0.96976 0.0
H941 H 0.10563 0.22424 0.71994 0.0
H942 H 0.09478 0.18552 0.73616 0.0
H943 H 0.07263 0.20876 0.66795 0.0
H944 H 0.06529 0.09478 0.80199 0.0
H945 H 0.98859 0.12579 0.664 0.0
H946 H 0.06801 0.1517 0.94896 0.0
H947 H 0.09411 0.16575 0.87234 0.0
H948 H 0.09338 0.12602 0.89472 0.0
H949 H 0.9808 0.19533 0.73165 0.0
H950 H 0.98578 0.17776 0.62805 0.0
H951 H 0.01336 0.20421 0.66911 0.0
C952 C 0.28769 0.07074 0.8419 0.0
C953 C 0.27992 0.05677 0.91956 0.0
C954 C 0.31534 0.0645 0.79868 0.0
C955 C 0.33708 0.04465 0.83504 0.0
C956 C 0.32887 0.02973 0.91201 0.0
C957 C 0.3007 0.03578 0.9523 0.0
C958 C 0.32144 0.07997 0.7149 0.0
C959 C 0.35074 1.00906 0.9568 0.0
C960 C 0.4035 1.00531 0.71743 0.0
C961 C 0.42836 0.0247 0.7321 0.0
C962 C 0.37372 0.0128 0.74366 0.0
C963 C 0.36811 0.03926 0.79349 0.0
C964 C 0.39271 0.05965 0.80539 0.0
C965 C 0.42168 0.05297 0.76981 0.0
C966 C 0.3482 0.99193 0.71896 0.0
C967 C 0.3888 0.08822 0.85791 0.0
H968 H 0.27277 0.088 0.81718 0.0
H969 H 0.29594 0.02585 0.01387 0.0
H970 H 0.33785 0.09851 0.725 0.0
H971 H 0.33132 0.06385 0.66763 0.0
H972 H 0.3006 0.08989 0.68725 0.0
H973 H 0.3388 0.99313 0.99931 0.0
H974 H 0.36459 0.99569 0.9111 0.0
H975 H 0.3663 0.02299 0.9967 0.0
H976 H 0.4072 0.98396 0.68433 0.0
H977 H 0.43905 0.06974 0.77327 0.0
H978 H 0.32883 1.00517 0.69414 0.0
H979 H 0.34032 0.97966 0.7762 0.0
H980 H 0.35507 0.97511 0.66923 0.0
H981 H 0.37543 0.10486 0.82157 0.0
H982 H 0.41072 0.09887 0.87374 0.0
H983 H 0.37659 0.08351 0.91832 0.0
C984 C 0.48575 0.2838 0.8887 0.0
C985 C 0.4574 0.28052 0.92777 0.0
C986 C 0.49277 0.30998 0.83993 0.0
C987 C 0.47221 0.33488 0.83659 0.0
C988 C 0.44316 0.33074 0.87251 0.0
C989 C 0.43564 0.30307 0.91048 0.0
C990 C 0.52262 0.31103 0.79415 0.0
C991 C 0.41975 0.35565 0.87537 0.0
C992 C 0.5047 0.41565 0.81895 0.0
C993 C 0.49456 0.42518 0.73824 0.0
C994 C 0.49848 0.3863 0.84994 0.0
C995 C 0.48106 0.36554 0.80021 0.0
C996 C 0.46976 0.37556 0.71991 0.0
C997 C 0.4771 0.40481 0.68935 0.0
C998 C 0.50974 0.37795 0.93784 0.0
C999 C 0.44998 0.35544 0.66519 0.0
H1000 H 0.50283 0.26666 0.89864 0.0
H1001 H 0.41307 0.3006 0.93625 0.0
H1002 H 0.52189 0.3263 0.73829 0.0
H1003 H 0.54032 0.31913 0.83911 0.0
H1004 H 0.52927 0.28808 0.77146 0.0
H1005 H 0.40776 0.35565 0.93784 0.0
H1006 H 0.42932 0.3785 0.86617 0.0
H1007 H 0.40258 0.35131 0.82488 0.0
H1008 H 0.51745 0.4313 0.85872 0.0
H1009 H 0.46855 0.41201 0.62777 0.0
H1010 H 0.52707 0.35997 0.93187 0.0
H1011 H 0.49099 0.36889 0.97689 0.0
H1012 H 0.51994 0.39749 0.9726 0.0
H1013 H 0.46469 0.3409 0.62475 0.0
H1014 H 0.43486 0.36897 0.62383 0.0
H1015 H 0.43558 0.34027 0.7031 0.0
C1016 C 0.25022 0.48373 0.89997 0.0
C1017 C 0.25386 0.45458 0.93394 0.0
C1018 C 0.22419 0.49175 0.85029 0.0
C1019 C 0.19955 0.47112 0.83889 0.0
C1020 C 0.20404 0.4413 0.86907 0.0
C1021 C 0.23138 0.43322 0.91021 0.0
C1022 C 0.22353 0.52262 0.8109 0.0
C1023 C 0.17962 0.41762 0.86156 0.0
C1024 C 0.11872 0.50518 0.82062 0.0
C1025 C 0.10843 0.4953 0.73959 0.0
C1026 C 0.14814 0.49829 0.8517 0.0
C1027 C 0.16869 0.48071 0.80145 0.0
C1028 C 0.15824 0.47062 0.71903 0.0
C1029 C 0.1286 0.47798 0.68965 0.0
C1030 C 0.15692 0.5095 0.94001 0.0
C1031 C 0.17771 0.45153 0.66055 0.0
H1032 H 0.26721 0.50069 0.91383 0.0
H1033 H 0.23411 0.40993 0.92945 0.0
H1034 H 0.2052 0.5252 0.76301 0.0
H1035 H 0.22082 0.54001 0.86213 0.0
H1036 H 0.24542 0.52708 0.77895 0.0
H1037 H 0.18222 0.39999 0.91111 0.0
H1038 H 0.15674 0.42759 0.86802 0.0
H1039 H 0.18122 0.40626 0.79802 0.0
H1040 H 0.10348 0.51822 0.86077 0.0
H1041 H 0.12108 0.46967 0.62755 0.0
H1042 H 0.17352 0.52806 0.93411 0.0
H1043 H 0.16769 0.49119 0.9773 0.0
H1044 H 0.13726 0.51832 0.97659 0.0
H1045 H 0.17626 0.45998 0.59396 0.0
H1046 H 0.16889 0.42806 0.65923 0.0
H1047 H 0.20174 0.45108 0.68029 0.0
C1048 C 0.96241 0.78788 0.50408 0.0
C1049 C 0.9744 0.78028 0.42273 0.0
C1050 C 0.96808 0.81632 0.54582 0.0
C1051 C 0.98481 0.83946 0.50409 0.0
C1052 C 0.99711 0.8318 0.42226 0.0
C1053 C 0.99239 0.80264 0.38433 0.0
C1054 C 0.95481 0.82162 0.63363 0.0
C1055 C 0.0141 0.85511 0.37185 0.0
C1056 C 0.97695 0.924 0.58597 0.0
C1057 C 1.00605 0.93069 0.61794 0.0
C1058 C 0.96982 0.89522 0.54667 0.0
C1059 C 0.99108 0.87079 0.54647 0.0
C1060 C 0.01909 0.87652 0.58739 0.0
C1061 C 0.02642 0.9059 0.61871 0.0
C1062 C 0.93952 0.89109 0.50443 0.0
C1063 C 0.04113 0.85105 0.60204 0.0
H1064 H 0.94722 0.77199 0.53383 0.0
H1065 H 1.00091 0.79821 0.32048 0.0
H1066 H 0.96809 0.83815 0.67212 0.0
H1067 H 0.93149 0.83042 0.62682 0.0
H1068 H 0.95342 0.80014 0.66945 0.0
H1069 H 0.01932 0.84716 0.30572 0.0
H1070 H 1.00068 0.87627 0.36815 0.0
H1071 H 0.03561 0.86073 0.40465 0.0
H1072 H 0.95949 0.94074 0.59347 0.0
H1073 H 0.04856 0.90909 0.64688 0.0
H1074 H 0.92844 0.87026 0.52707 0.0
H1075 H 0.94272 0.88847 0.43417 0.0
H1076 H 0.92425 0.91053 0.51704 0.0
H1077 H 0.02976 0.83272 0.63759 0.0
H1078 H 0.06125 0.85845 0.63926 0.0
H1079 H 0.04876 0.84129 0.54004 0.0
C1080 C 0.73924 0.99592 0.45313 0.0
C1081 C 0.74601 0.9654 0.43472 0.0
C1082 C 0.71219 1.00457 0.49724 0.0
C1083 C 0.68959 0.98272 0.51766 0.0
C1084 C 0.69724 0.95187 0.50329 0.0
C1085 C 0.72562 0.94388 0.46797 0.0
C1086 C 0.70779 0.0374 0.52085 0.0
C1087 C 0.67493 0.92654 0.51614 0.0
C1088 C 0.61556 0.99405 0.65145 0.0
C1089 C 0.59595 1.0082 0.59297 0.0
C1090 C 0.64629 0.98731 0.63019 0.0
C1091 C 0.65748 0.99206 0.54547 0.0
C1092 C 0.63728 1.0055 0.48611 0.0
C1093 C 0.60834 0.0155 0.51286 0.0
C1094 C 0.66706 0.97605 0.69953 0.0
C1095 C 0.64584 1.0096 0.39334 0.0
H1096 H 0.75445 0.01323 0.43067 0.0
H1097 H 0.73058 0.92004 0.45939 0.0
H1098 H 0.69452 0.04876 0.47049 0.0
H1099 H 0.69546 0.03983 0.58242 0.0
H1100 H 0.72976 0.04931 0.52652 0.0
H1101 H 0.68601 0.90748 0.54959 0.0
H1102 H 0.65444 0.9332 0.55202 0.0
H1103 H 0.66762 0.91784 0.45235 0.0
H1104 H 0.6075 0.99 0.71579 0.0
H1105 H 0.59548 0.0295 0.47012 0.0
H1106 H 0.68869 0.98868 0.6985 0.0
H1107 H 0.67236 0.95184 0.68827 0.0
H1108 H 0.65689 0.9785 0.76424 0.0
H1109 H 0.65635 0.03205 0.38515 0.0
H1110 H 0.62566 1.009 0.35129 0.0
H1111 H 0.66181 0.99194 0.37049 0.0
C1112 C 0.58057 0.74935 0.49893 0.0
C1113 C 0.56256 0.76193 0.43386 0.0
C1114 C 0.57341 0.72136 0.53744 0.0
C1115 C 0.54759 0.70475 0.51031 0.0
C1116 C 0.52818 0.71836 0.44906 0.0
C1117 C 0.53583 0.7465 0.41192 0.0
C1118 C 0.59497 0.70849 0.6024 0.0
C1119 C 0.50027 0.70212 0.41797 0.0
C1120 C 0.54922 0.61731 0.52028 0.0
C1121 C 0.53226 0.6108 0.59391 0.0
C1122 C 0.5546 0.64738 0.49354 0.0
C1123 C 0.54233 0.67234 0.54005 0.0
C1124 C 0.52493 0.666 0.61405 0.0
C1125 C 0.52023 0.63567 0.63997 0.0
C1126 C 0.57339 0.65242 0.41454 0.0
C1127 C 0.51133 0.69134 0.66655 0.0
H1128 H 0.6018 0.76023 0.51473 0.0
H1129 H 0.52216 0.75509 0.35996 0.0
H1130 H 0.58255 0.69864 0.65693 0.0
H1131 H 0.60832 0.69007 0.57187 0.0
H1132 H 0.61086 0.72587 0.62761 0.0
H1133 H 0.48596 0.71662 0.37682 0.0
H1134 H 0.50689 0.68172 0.38044 0.0
H1135 H 0.48667 0.69446 0.47318 0.0
H1136 H 0.55776 0.5989 0.48158 0.0
H1137 H 0.50705 0.63148 0.69698 0.0
H1138 H 0.59344 0.66627 0.43132 0.0
H1139 H 0.56013 0.66519 0.36676 0.0
H1140 H 0.58116 0.63089 0.38448 0.0
H1141 H 0.52963 0.70451 0.69801 0.0
H1142 H 0.49582 0.68285 0.71654 0.0
H1143 H 0.49869 0.70705 0.62481 0.0
C1144 C 0.77977 0.57563 0.48593 0.0
C1145 C 0.77031 0.55853 0.41363 0.0
C1146 C 0.80817 0.57109 0.52614 0.0
C1147 C 0.82836 0.54862 0.4947 0.0
C1148 C 0.81833 0.53015 0.42478 0.0
C1149 C 0.7897 0.53525 0.38557 0.0
C1150 C 0.81733 0.59193 0.59884 0.0
C1151 C 0.83883 0.50624 0.38739 0.0
C1152 C 0.91428 0.56033 0.53245 0.0
C1153 C 0.92159 0.53899 0.59545 0.0
C1154 C 0.88456 0.56377 0.49965 0.0
C1155 C 0.86048 0.54573 0.53082 0.0
C1156 C 0.86739 0.52498 0.59701 0.0
C1157 C 0.89752 0.52162 0.62738 0.0
C1158 C 0.87945 0.58756 0.43269 0.0
C1159 C 0.84269 0.5067 0.63755 0.0
H1160 H 0.7656 0.59416 0.50783 0.0
H1161 H 0.78338 0.52234 0.32902 0.0
H1162 H 0.8285 0.57915 0.65079 0.0
H1163 H 0.83379 0.60867 0.57481 0.0
H1164 H 0.79774 0.60441 0.62605 0.0
H1165 H 0.82719 0.49185 0.33888 0.0
H1166 H 0.85846 0.51726 0.35677 0.0
H1167 H 0.84771 0.49154 0.43871 0.0
H1168 H 0.93182 0.57442 0.50721 0.0
H1169 H 0.90216 0.5053 0.67688 0.0
H1170 H 0.87802 0.61001 0.46503 0.0
H1171 H 0.85847 0.584 0.39528 0.0
H1172 H 0.8988 0.58835 0.38764 0.0
H1173 H 0.8267 0.52217 0.6708 0.0
H1174 H 0.85159 0.49034 0.68475 0.0
H1175 H 0.82973 0.49416 0.5877 0.0
loop_
_geom_bond_atom_site_label_1
_geom_bond_atom_site_label_2
_geom_bond_distance
_geom_bond_site_symmetry_2
_ccdc_geom_bond_type
H0 C3 0.931 . S
H1 C6 0.928 . S
H2 C8 0.930 . S
C3 H0 0.931 . S
C3 C4 1.413 . S
C3 C5 1.360 . S
C4 C3 1.413 . S
C4 C8 1.429 . S
C5 C3 1.360 . S
C5 C6 1.372 . S
C6 H1 0.928 . S
C6 C5 1.372 . S
C6 C7 1.404 . S
C7 C6 1.404 . S
C7 C8 1.391 . S
C8 H2 0.930 . S
C8 C4 1.429 . S
C8 C7 1.391 . S
H9 C12 0.931 . S
H10 C15 0.928 . S
H11 C17 0.930 . S
C12 H9 0.931 . S
C12 C13 1.413 . S
C12 C14 1.360 . S
C13 C12 1.413 . S
C13 C17 1.429 . S
C14 C12 1.360 . S
C14 C15 1.372 . S
C15 H10 0.928 . S
C15 C14 1.372 . S
C15 C16 1.404 . S
C16 C15 1.404 . S
C16 C17 1.391 . S
C17 H11 0.930 . S
C17 C13 1.429 . S
C17 C16 1.391 . S
H18 C21 0.931 . S
H19 C24 0.928 . S
H20 C26 0.930 . S
C21 H18 0.931 . S
C21 C22 1.413 . S
C21 C23 1.360 . S
C22 C21 1.413 . S
C22 C26 1.429 . S
C23 C21 1.360 . S
C23 C24 1.372 . S
C24 H19 0.928 . S
C24 C23 1.372 . S
C24 C25 1.404 . S
C25 C24 1.404 . S
C25 C26 1.391 . S
C26 H20 0.930 . S
C26 C22 1.429 . S
C26 C25 1.391 . S
H27 C30 0.931 . S
H28 C33 0.928 . S
H29 C35 0.930 . S
C30 H27 0.931 . S
C30 C31 1.413 . S
C30 C32 1.360 . S
C31 C30 1.413 . S
C31 C35 1.429 . S
C32 C30 1.360 . S
C32 C33 1.372 . S
C33 H28 0.928 . S
C33 C32 1.372 . S
C33 C34 1.404 . S
C34 C33 1.404 . S
C34 C35 1.391 . S
C35 H29 0.930 . S
C35 C31 1.429 . S
C35 C34 1.391 . S
H36 C39 0.931 1_556 S
H37 C42 0.928 . S
H38 C44 0.930 . S
C39 H36 0.931 1_554 S
C39 C40 1.413 1_554 S
C39 C41 1.360 . S
C40 C39 1.413 1_556 S
C40 C44 1.429 . S
C41 C39 1.360 . S
C41 C42 1.372 . S
C42 H37 0.928 . S
C42 C41 1.372 . S
C42 C43 1.404 . S
C43 C42 1.404 . S
C43 C44 1.391 1_554 S
C44 H38 0.930 . S
C44 C40 1.429 . S
C44 C43 1.391 1_556 S
H45 C48 0.931 1_556 S
H46 C51 0.928 . S
H47 C53 0.930 . S
C48 H45 0.931 1_554 S
C48 C49 1.413 1_554 S
C48 C50 1.360 . S
C49 C48 1.413 1_556 S
C49 C53 1.429 . S
C50 C48 1.360 . S
C50 C51 1.372 . S
C51 H46 0.928 . S
C51 C50 1.372 . S
C51 C52 1.404 . S
C52 C51 1.404 . S
C52 C53 1.391 1_554 S
C53 H47 0.930 . S
C53 C49 1.429 . S
C53 C52 1.391 1_556 S
H54 C57 0.931 1_556 S
H55 C60 0.928 . S
H56 C62 0.930 . S
C57 H54 0.931 1_554 S
C57 C58 1.413 1_554 S
C57 C59 1.360 . S
C58 C57 1.413 1_556 S
C58 C62 1.429 . S
C59 C57 1.360 . S
C59 C60 1.372 . S
C60 H55 0.928 . S
C60 C59 1.372 . S
C60 C61 1.404 . S
C61 C60 1.404 . S
C61 C62 1.391 1_554 S
C62 H56 0.930 . S
C62 C58 1.429 . S
C62 C61 1.391 1_556 S
H63 C66 0.931 1_556 S
H64 C69 0.928 . S
H65 C71 0.930 . S
C66 H63 0.931 1_554 S
C66 C67 1.413 . S
C66 C68 1.360 1_554 S
C67 C66 1.413 . S
C67 C71 1.429 . S
C68 C66 1.360 1_556 S
C68 C69 1.372 . S
C69 H64 0.928 . S
C69 C68 1.372 . S
C69 C70 1.404 1_556 S
C70 C69 1.404 1_554 S
C70 C71 1.391 . S
C71 H65 0.930 . S
C71 C67 1.429 . S
C71 C70 1.391 . S
Gd72 N103 2.661 1_545 S
Gd72 N109 2.601 . S
Gd72 O116 2.545 . S
Gd72 O117 2.606 1_655 S
Gd72 O119 2.429 . S
Gd72 O120 2.539 1_655 S
Gd72 O121 2.412 . S
Gd72 O123 2.362 1_545 S
Gd72 O124 2.324 1_655 S
Gd72 C131 2.828 . S
Gd73 N82 2.661 1_565 S
Gd73 N86 2.601 . S
Gd73 O117 2.362 1_565 S
Gd73 O118 2.324 1_455 S
Gd73 O122 2.545 . S
Gd73 O123 2.606 1_455 S
Gd73 O125 2.429 . S
Gd73 O126 2.545 . S
Gd73 O127 2.412 . S
Gd73 C140 2.828 . S
C74 C77 1.417 . S
C74 C79 1.431 1_556 S
C74 C80 1.412 1_556 S
C75 C78 1.437 . S
C75 C79 1.317 1_556 S
C75 H94 0.929 . S
C76 C77 1.426 . S
C76 C78 1.413 . S
C76 N86 1.359 1_545 S
C77 C74 1.417 . S
C77 C76 1.426 . S
C77 N82 1.350 . S
C78 C75 1.437 . S
C78 C76 1.413 . S
C78 C88 1.391 . S
C79 C74 1.431 1_554 S
C79 C75 1.317 1_554 S
C79 H90 0.930 . S
C80 C74 1.412 1_554 S
C80 C81 1.355 1_554 S
C80 H92 0.930 . S
C81 C80 1.355 1_556 S
C81 C83 1.402 . S
C81 H93 0.930 1_456 S
N82 Gd73 2.661 1_545 S
N82 C77 1.350 . S
N82 C83 1.307 . S
C83 C81 1.402 . S
C83 N82 1.307 . S
C83 H84 0.930 1_455 S
H84 C83 0.930 1_655 S
C85 N86 1.334 . S
C85 C87 1.394 . S
C85 H89 0.930 . S
N86 Gd73 2.601 . S
N86 C76 1.359 1_565 S
N86 C85 1.334 . S
C87 C85 1.394 . S
C87 C88 1.359 1_565 S
C87 H99 0.930 . S
C88 C78 1.391 . S
C88 C87 1.359 1_545 S
C88 H100 0.929 . S
H89 C85 0.930 . S
H90 C79 0.930 . S
H91 C108 0.930 1_455 S
H92 C80 0.930 . S
H93 C81 0.930 1_654 S
H94 C75 0.929 . S
H95 C113 0.930 . S
H96 C104 0.930 . S
H97 C105 0.930 1_455 S
H98 C129 0.929 . S
H99 C87 0.930 . S
H100 C88 0.929 . S
H101 C130 0.930 . S
H102 C111 0.930 . S
N103 Gd72 2.661 1_565 S
N103 C107 1.350 . S
N103 C108 1.307 . S
C104 H96 0.930 . S
C104 C105 1.355 . S
C104 C106 1.412 . S
C105 H97 0.930 1_655 S
C105 C104 1.355 . S
C105 C108 1.402 . S
C106 C104 1.412 . S
C106 C107 1.417 . S
C106 C130 1.431 . S
C107 N103 1.350 . S
C107 C106 1.417 . S
C107 C110 1.426 1_565 S
C108 H91 0.930 1_655 S
C108 N103 1.307 . S
C108 C105 1.402 . S
N109 Gd72 2.601 . S
N109 C110 1.359 . S
N109 C113 1.334 . S
C110 C107 1.426 1_545 S
C110 N109 1.359 . S
C110 C114 1.413 1_545 S
C111 H102 0.930 . S
C111 C112 1.359 . S
C111 C113 1.394 . S
C112 C111 1.359 . S
C112 C114 1.391 1_545 S
C112 H115 0.929 . S
C113 H95 0.930 . S
C113 N109 1.334 . S
C113 C111 1.394 . S
C114 C110 1.413 1_565 S
C114 C112 1.391 1_565 S
C114 C129 1.437 . S
H115 C112 0.929 . S
O116 Gd72 2.545 . S
O116 C131 1.258 . S
O117 Gd72 2.606 1_455 S
O117 Gd73 2.362 1_545 S
O117 C128 1.284 . S
O118 Gd73 2.324 1_655 S
O118 C138 1.243 1_565 S
O119 Gd72 2.429 . S
O119 C138 1.296 . S
O120 Gd72 2.539 1_455 S
O120 C128 1.261 . S
O121 Gd72 2.412 . S
O121 C131 1.252 . S
O122 Gd73 2.545 . S
O122 C140 1.258 . S
O123 Gd72 2.362 1_565 S
O123 Gd73 2.606 1_655 S
O123 C139 1.284 . S
O124 Gd72 2.324 1_455 S
O124 C147 1.254 . S
O125 Gd73 2.429 . S
O125 C147 1.268 1_565 S
O126 Gd73 2.545 . S
O126 C139 1.250 1_455 S
O127 Gd73 2.412 . S
O127 C140 1.252 . S
C128 O117 1.284 . S
C128 O120 1.261 . S
C129 H98 0.929 . S
C129 C114 1.437 . S
C129 C130 1.317 . S
C130 H101 0.930 . S
C130 C106 1.431 . S
C130 C129 1.317 . S
C131 Gd72 2.828 . S
C131 O116 1.258 . S
C131 O121 1.252 . S
C131 C132 1.497 . S
C132 C131 1.497 . S
C132 C133 1.395 . S
C132 C134 1.380 . S
C133 C132 1.395 . S
C133 C136 1.398 . S
C133 H148 0.930 . S
C134 C132 1.380 . S
C134 C135 1.391 . S
C134 H149 0.930 1_655 S
C135 C134 1.391 . S
C135 C137 1.387 . S
C136 C133 1.398 . S
C136 C137 1.380 . S
C136 H150 0.930 . S
C137 C135 1.387 . S
C137 C136 1.380 . S
C137 H151 0.930 . S
C138 O118 1.243 1_545 S
C138 O119 1.296 . S
C139 O123 1.284 . S
C139 O126 1.250 1_655 S
C140 Gd73 2.828 . S
C140 O122 1.258 . S
C140 O127 1.252 . S
C140 C141 1.497 . S
C141 C140 1.497 . S
C141 C142 1.395 . S
C141 C143 1.380 . S
C142 C141 1.395 . S
C142 C145 1.398 . S
C142 H152 0.930 . S
C143 C141 1.380 . S
C143 C144 1.391 . S
C143 H153 0.930 . S
C144 C143 1.391 . S
C144 C146 1.387 . S
C145 C142 1.398 . S
C145 C146 1.380 . S
C145 H154 0.930 . S
C146 C144 1.387 . S
C146 C145 1.380 . S
C146 H155 0.930 1_556 S
C147 O124 1.254 . S
C147 O125 1.268 1_545 S
H148 C133 0.930 . S
H149 C134 0.930 1_455 S
H150 C136 0.930 . S
H151 C137 0.930 . S
H152 C142 0.930 . S
H153 C143 0.930 . S
H154 C145 0.930 . S
H155 C146 0.930 1_554 S
Gd156 N187 2.661 . S
Gd156 N193 2.601 . S
Gd156 O200 2.545 . S
Gd156 O201 2.606 1_565 S
Gd156 O203 2.429 . S
Gd156 O204 2.545 1_565 S
Gd156 O205 2.412 . S
Gd156 O207 2.362 . S
Gd156 O208 2.324 1_565 S
Gd156 C215 2.828 . S
Gd157 N166 2.661 . S
Gd157 N170 2.601 . S
Gd157 O201 2.362 . S
Gd157 O202 2.324 1_545 S
Gd157 O206 2.545 . S
Gd157 O207 2.606 1_545 S
Gd157 O209 2.429 . S
Gd157 O210 2.545 . S
Gd157 O211 2.412 . S
Gd157 C224 2.828 . S
C158 C161 1.417 . S
C158 C163 1.431 1_556 S
C158 C164 1.412 1_556 S
C159 C162 1.437 . S
C159 C163 1.317 1_556 S
C159 H178 0.929 . S
C160 C161 1.426 . S
C160 C162 1.413 . S
C160 N170 1.359 . S
C161 C158 1.417 . S
C161 C160 1.426 . S
C161 N166 1.350 . S
C162 C159 1.437 . S
C162 C160 1.413 . S
C162 C172 1.391 . S
C163 C158 1.431 1_554 S
C163 C159 1.317 1_554 S
C163 H174 0.930 . S
C164 C158 1.412 1_554 S
C164 C165 1.355 1_554 S
C164 H176 0.930 . S
C165 C164 1.355 1_556 S
C165 C167 1.402 . S
C165 H177 0.930 1_546 S
N166 Gd157 2.661 . S
N166 C161 1.350 . S
N166 C167 1.307 . S
C167 C165 1.402 . S
C167 N166 1.307 . S
C167 H168 0.930 1_545 S
H168 C167 0.930 1_565 S
C169 N170 1.334 . S
C169 C171 1.394 . S
C169 H173 0.930 . S
N170 Gd157 2.601 . S
N170 C160 1.359 . S
N170 C169 1.334 . S
C171 C169 1.394 . S
C171 C172 1.359 . S
C171 H183 0.930 . S
C172 C162 1.391 . S
C172 C171 1.359 . S
C172 H184 0.929 . S
H173 C169 0.930 . S
H174 C163 0.930 . S
H175 C192 0.930 . S
H176 C164 0.930 . S
H177 C165 0.930 1_564 S
H178 C159 0.929 . S
H179 C197 0.930 . S
H180 C188 0.930 . S
H181 C189 0.925 1_545 S
H182 C213 0.929 . S
H183 C171 0.930 . S
H184 C172 0.929 . S
H185 C214 0.930 . S
H186 C195 0.930 . S
N187 Gd156 2.661 . S
N187 C191 1.350 . S
N187 C192 1.307 1_565 S
C188 H180 0.930 . S
C188 C189 1.360 . S
C188 C190 1.412 . S
C189 H181 0.925 1_565 S
C189 C188 1.360 . S
C189 C192 1.402 1_565 S
C190 C188 1.412 . S
C190 C191 1.417 . S
C190 C214 1.431 . S
C191 N187 1.350 . S
C191 C190 1.417 . S
C191 C194 1.426 . S
C192 H175 0.930 . S
C192 N187 1.307 1_545 S
C192 C189 1.402 1_545 S
N193 Gd156 2.601 . S
N193 C194 1.359 . S
N193 C197 1.334 . S
C194 C191 1.426 . S
C194 N193 1.359 . S
C194 C198 1.413 . S
C195 H186 0.930 . S
C195 C196 1.359 . S
C195 C197 1.394 . S
C196 C195 1.359 . S
C196 C198 1.391 . S
C196 H199 0.929 . S
C197 H179 0.930 . S
C197 N193 1.334 . S
C197 C195 1.394 . S
C198 C194 1.413 . S
C198 C196 1.391 . S
C198 C213 1.437 . S
H199 C196 0.929 . S
O200 Gd156 2.545 . S
O200 C215 1.258 . S
O201 Gd156 2.606 1_545 S
O201 Gd157 2.362 . S
O201 C212 1.284 . S
O202 Gd157 2.324 1_565 S
O202 C222 1.254 . S
O203 Gd156 2.429 . S
O203 C222 1.268 . S
O204 Gd156 2.545 1_545 S
O204 C212 1.250 . S
O205 Gd156 2.412 . S
O205 C215 1.252 . S
O206 Gd157 2.545 . S
O206 C224 1.258 . S
O207 Gd156 2.362 . S
O207 Gd157 2.606 1_565 S
O207 C223 1.284 . S
O208 Gd156 2.324 1_545 S
O208 C231 1.254 . S
O209 Gd157 2.429 . S
O209 C231 1.268 . S
O210 Gd157 2.545 . S
O210 C223 1.250 1_545 S
O211 Gd157 2.412 . S
O211 C224 1.252 . S
C212 O201 1.284 . S
C212 O204 1.250 . S
C213 H182 0.929 . S
C213 C198 1.437 . S
C213 C214 1.317 . S
C214 H185 0.930 . S
C214 C190 1.431 . S
C214 C213 1.317 . S
C215 Gd156 2.828 . S
C215 O200 1.258 . S
C215 O205 1.252 . S
C215 C216 1.497 . S
C216 C215 1.497 . S
C216 C217 1.395 . S
C216 C218 1.380 . S
C217 C216 1.395 . S
C217 C220 1.398 . S
C217 H232 0.930 . S
C218 C216 1.380 . S
C218 C219 1.391 . S
C218 H233 0.930 1_565 S
C219 C218 1.391 . S
C219 C221 1.387 . S
C220 C217 1.398 . S
C220 C221 1.380 . S
C220 H234 0.930 . S
C221 C219 1.387 . S
C221 C220 1.380 . S
C221 H235 0.930 . S
C222 O202 1.254 . S
C222 O203 1.268 . S
C223 O207 1.284 . S
C223 O210 1.250 1_565 S
C224 Gd157 2.828 . S
C224 O206 1.258 . S
C224 O211 1.252 . S
C224 C225 1.497 . S
C225 C224 1.497 . S
C225 C226 1.395 . S
C225 C227 1.380 . S
C226 C225 1.395 . S
C226 C229 1.398 . S
C226 H236 0.930 . S
C227 C225 1.380 . S
C227 C228 1.391 . S
C227 H237 0.930 . S
C228 C227 1.391 . S
C228 C230 1.387 . S
C229 C226 1.398 . S
C229 C230 1.380 . S
C229 H238 0.930 . S
C230 C228 1.387 . S
C230 C229 1.380 . S
C230 H239 0.930 1_556 S
C231 O208 1.254 . S
C231 O209 1.268 . S
H232 C217 0.930 . S
H233 C218 0.930 1_545 S
H234 C220 0.930 . S
H235 C221 0.930 . S
H236 C226 0.930 . S
H237 C227 0.930 . S
H238 C229 0.930 . S
H239 C230 0.930 1_554 S
Gd240 N271 2.661 . S
Gd240 N277 2.601 . S
Gd240 O284 2.545 . S
Gd240 O285 2.606 . S
Gd240 O287 2.429 . S
Gd240 O288 2.545 . S
Gd240 O289 2.412 . S
Gd240 O291 2.362 . S
Gd240 O292 2.324 . S
Gd240 C299 2.828 . S
Gd241 N250 2.661 . S
Gd241 N254 2.601 . S
Gd241 O285 2.362 . S
Gd241 O286 2.324 . S
Gd241 O290 2.545 . S
Gd241 O291 2.606 . S
Gd241 O293 2.429 . S
Gd241 O294 2.545 . S
Gd241 O295 2.412 . S
Gd241 C308 2.828 . S
C242 C245 1.417 . S
C242 C247 1.431 . S
C242 C248 1.412 . S
C243 C246 1.437 . S
C243 C247 1.317 . S
C243 H262 0.929 . S
C244 C245 1.426 . S
C244 C246 1.413 . S
C244 N254 1.359 . S
C245 C242 1.417 . S
C245 C244 1.426 . S
C245 N250 1.350 . S
C246 C243 1.437 . S
C246 C244 1.413 . S
C246 C256 1.391 . S
C247 C242 1.431 . S
C247 C243 1.317 . S
C247 H258 0.930 . S
C248 C242 1.412 . S
C248 C249 1.355 . S
C248 H260 0.930 . S
C249 C248 1.355 . S
C249 C251 1.402 . S
C249 H261 0.930 . S
N250 Gd241 2.661 . S
N250 C245 1.350 . S
N250 C251 1.307 . S
C251 C249 1.402 . S
C251 N250 1.307 . S
C251 H252 0.930 . S
H252 C251 0.930 . S
C253 N254 1.334 . S
C253 C255 1.394 . S
C253 H257 0.930 . S
N254 Gd241 2.601 . S
N254 C244 1.359 . S
N254 C253 1.334 . S
C255 C253 1.394 . S
C255 C256 1.359 . S
C255 H267 0.930 . S
C256 C246 1.391 . S
C256 C255 1.359 . S
C256 H268 0.929 . S
H257 C253 0.930 . S
H258 C247 0.930 . S
H259 C276 0.930 . S
H260 C248 0.930 . S
H261 C249 0.930 . S
H262 C243 0.929 . S
H263 C281 0.930 . S
H264 C272 0.930 . S
H265 C273 0.930 . S
H266 C297 0.929 . S
H267 C255 0.930 . S
H268 C256 0.929 . S
H269 C298 0.930 . S
H270 C279 0.930 . S
N271 Gd240 2.661 . S
N271 C275 1.350 . S
N271 C276 1.307 . S
C272 H264 0.930 . S
C272 C273 1.355 . S
C272 C274 1.412 . S
C273 H265 0.930 . S
C273 C272 1.355 . S
C273 C276 1.402 . S
C274 C272 1.412 . S
C274 C275 1.417 . S
C274 C298 1.431 . S
C275 N271 1.350 . S
C275 C274 1.417 . S
C275 C278 1.426 . S
C276 H259 0.930 . S
C276 N271 1.307 . S
C276 C273 1.402 . S
N277 Gd240 2.601 . S
N277 C278 1.359 . S
N277 C281 1.334 . S
C278 C275 1.426 . S
C278 N277 1.359 . S
C278 C282 1.413 . S
C279 H270 0.930 . S
C279 C280 1.359 . S
C279 C281 1.394 . S
C280 C279 1.359 . S
C280 C282 1.391 . S
C280 H283 0.929 . S
C281 H263 0.930 . S
C281 N277 1.334 . S
C281 C279 1.394 . S
C282 C278 1.413 . S
C282 C280 1.391 . S
C282 C297 1.437 . S
H283 C280 0.929 . S
O284 Gd240 2.545 . S
O284 C299 1.258 . S
O285 Gd240 2.606 . S
O285 Gd241 2.362 . S
O285 C296 1.284 . S
O286 Gd241 2.324 . S
O286 C306 1.254 . S
O287 Gd240 2.429 . S
O287 C306 1.268 . S
O288 Gd240 2.545 . S
O288 C296 1.250 . S
O289 Gd240 2.412 . S
O289 C299 1.252 . S
O290 Gd241 2.545 . S
O290 C308 1.258 . S
O291 Gd240 2.362 . S
O291 Gd241 2.606 . S
O291 C307 1.284 . S
O292 Gd240 2.324 . S
O292 C315 1.254 . S
O293 Gd241 2.429 . S
O293 C315 1.268 . S
O294 Gd241 2.545 . S
O294 C307 1.250 . S
O295 Gd241 2.412 . S
O295 C308 1.252 . S
C296 O285 1.284 . S
C296 O288 1.250 . S
C297 H266 0.929 . S
C297 C282 1.437 . S
C297 C298 1.317 . S
C298 H269 0.930 . S
C298 C274 1.431 . S
C298 C297 1.317 . S
C299 Gd240 2.828 . S
C299 O284 1.258 . S
C299 O289 1.252 . S
C299 C300 1.497 . S
C300 C299 1.497 . S
C300 C301 1.395 1_556 S
C300 C302 1.380 . S
C301 C300 1.395 1_554 S
C301 C304 1.398 . S
C301 H316 0.930 . S
C302 C300 1.380 . S
C302 C303 1.391 . S
C302 H317 0.930 . S
C303 C302 1.391 . S
C303 C305 1.387 1_556 S
C304 C301 1.398 . S
C304 C305 1.380 . S
C304 H318 0.930 . S
C305 C303 1.387 1_554 S
C305 C304 1.380 . S
C305 H319 0.930 . S
C306 O286 1.254 . S
C306 O287 1.268 . S
C307 O291 1.284 . S
C307 O294 1.250 . S
C308 Gd241 2.828 . S
C308 O290 1.258 . S
C308 O295 1.252 . S
C308 C309 1.497 . S
C309 C308 1.497 . S
C309 C310 1.395 . S
C309 C311 1.380 . S
C310 C309 1.395 . S
C310 C313 1.398 . S
C310 H320 0.930 . S
C311 C309 1.380 . S
C311 C312 1.391 . S
C311 H321 0.930 . S
C312 C311 1.391 . S
C312 C314 1.387 . S
C313 C310 1.398 . S
C313 C314 1.380 . S
C313 H322 0.930 . S
C314 C312 1.387 . S
C314 C313 1.380 . S
C314 H323 0.930 . S
C315 O292 1.254 . S
C315 O293 1.268 . S
H316 C301 0.930 . S
H317 C302 0.930 . S
H318 C304 0.930 . S
H319 C305 0.930 . S
H320 C310 0.930 . S
H321 C311 0.930 . S
H322 C313 0.930 . S
H323 C314 0.930 . S
Gd324 N355 2.661 . S
Gd324 N361 2.601 . S
Gd324 O368 2.545 . S
Gd324 O369 2.615 . S
Gd324 O371 2.429 1_655 S
Gd324 O372 2.545 . S
Gd324 O373 2.412 . S
Gd324 O375 2.362 1_655 S
Gd324 O376 2.324 . S
Gd324 C383 2.828 . S
Gd325 N334 2.661 . S
Gd325 N338 2.601 . S
Gd325 O369 2.347 1_455 S
Gd325 O370 2.324 . S
Gd325 O374 2.545 . S
Gd325 O375 2.606 . S
Gd325 O377 2.429 1_455 S
Gd325 O378 2.545 . S
Gd325 O379 2.412 . S
Gd325 C392 2.828 . S
C326 C329 1.417 . S
C326 C331 1.431 . S
C326 C332 1.412 . S
C327 C330 1.437 . S
C327 C331 1.317 . S
C327 H346 0.929 . S
C328 C329 1.426 . S
C328 C330 1.413 . S
C328 N338 1.359 . S
C329 C326 1.417 . S
C329 C328 1.426 . S
C329 N334 1.350 . S
C330 C327 1.437 . S
C330 C328 1.413 . S
C330 C340 1.391 . S
C331 C326 1.431 . S
C331 C327 1.317 . S
C331 H342 0.930 . S
C332 C326 1.412 . S
C332 C333 1.355 . S
C332 H344 0.930 . S
C333 C332 1.355 . S
C333 C335 1.402 . S
C333 H345 0.930 . S
N334 Gd325 2.661 . S
N334 C329 1.350 . S
N334 C335 1.307 . S
C335 C333 1.402 . S
C335 N334 1.307 . S
C335 H336 0.930 . S
H336 C335 0.930 . S
C337 N338 1.334 1_655 S
C337 C339 1.394 . S
C337 H341 0.930 . S
N338 Gd325 2.601 . S
N338 C328 1.359 . S
N338 C337 1.334 1_455 S
C339 C337 1.394 . S
C339 C340 1.359 1_655 S
C339 H351 0.930 . S
C340 C330 1.391 . S
C340 C339 1.359 1_455 S
C340 H352 0.929 . S
H341 C337 0.930 . S
H342 C331 0.930 . S
H343 C360 0.930 . S
H344 C332 0.930 . S
H345 C333 0.930 . S
H346 C327 0.929 . S
H347 C365 0.930 . S
H348 C356 0.930 . S
H349 C357 0.930 . S
H350 C381 0.929 . S
H351 C339 0.930 . S
H352 C340 0.929 . S
H353 C382 0.930 . S
H354 C363 0.930 . S
N355 Gd324 2.661 . S
N355 C359 1.350 . S
N355 C360 1.307 . S
C356 H348 0.930 . S
C356 C357 1.355 . S
C356 C358 1.412 . S
C357 H349 0.930 . S
C357 C356 1.355 . S
C357 C360 1.402 . S
C358 C356 1.412 . S
C358 C359 1.417 . S
C358 C382 1.431 . S
C359 N355 1.350 . S
C359 C358 1.417 . S
C359 C362 1.426 . S
C360 H343 0.930 . S
C360 N355 1.307 . S
C360 C357 1.402 . S
N361 Gd324 2.601 . S
N361 C362 1.359 . S
N361 C365 1.334 1_655 S
C362 C359 1.426 . S
C362 N361 1.359 . S
C362 C366 1.413 . S
C363 H354 0.930 . S
C363 C364 1.373 . S
C363 C365 1.394 . S
C364 C363 1.373 . S
C364 C366 1.373 1_455 S
C364 H367 0.934 . S
C365 H347 0.930 . S
C365 N361 1.334 1_455 S
C365 C363 1.394 . S
C366 C362 1.413 . S
C366 C364 1.373 1_655 S
C366 C381 1.437 . S
H367 C364 0.934 . S
O368 Gd324 2.545 . S
O368 C383 1.258 . S
O369 Gd324 2.615 . S
O369 Gd325 2.347 1_655 S
O369 C380 1.296 . S
O370 Gd325 2.324 . S
O370 C390 1.254 . S
O371 Gd324 2.429 1_455 S
O371 C390 1.268 . S
O372 Gd324 2.545 . S
O372 C380 1.250 . S
O373 Gd324 2.412 . S
O373 C383 1.252 . S
O374 Gd325 2.545 . S
O374 C392 1.258 . S
O375 Gd324 2.362 1_455 S
O375 Gd325 2.606 . S
O375 C391 1.284 . S
O376 Gd324 2.324 . S
O376 C399 1.254 . S
O377 Gd325 2.429 1_655 S
O377 C399 1.268 . S
O378 Gd325 2.545 . S
O378 C391 1.250 . S
O379 Gd325 2.412 . S
O379 C392 1.252 . S
C380 O369 1.296 . S
C380 O372 1.250 . S
C381 H350 0.929 . S
C381 C366 1.437 . S
C381 C382 1.317 . S
C382 H353 0.930 . S
C382 C358 1.431 . S
C382 C381 1.317 . S
C383 Gd324 2.828 . S
C383 O368 1.258 . S
C383 O373 1.252 . S
C383 C384 1.497 . S
C384 C383 1.497 . S
C384 C385 1.395 1_556 S
C384 C386 1.380 . S
C385 C384 1.395 1_554 S
C385 C388 1.398 . S
C385 H400 0.930 . S
C386 C384 1.380 . S
C386 C387 1.391 . S
C386 H401 0.930 . S
C387 C386 1.391 . S
C387 C389 1.387 1_556 S
C388 C385 1.398 . S
C388 C389 1.380 . S
C388 H402 0.930 . S
C389 C387 1.387 1_554 S
C389 C388 1.380 . S
C389 H403 0.930 . S
C390 O370 1.254 . S
C390 O371 1.268 . S
C391 O375 1.284 . S
C391 O378 1.250 . S
C392 Gd325 2.828 . S
C392 O374 1.258 . S
C392 O379 1.252 . S
C392 C393 1.497 . S
C393 C392 1.497 . S
C393 C394 1.395 . S
C393 C395 1.380 . S
C394 C393 1.395 . S
C394 C397 1.398 . S
C394 H404 0.930 . S
C395 C393 1.380 . S
C395 C396 1.391 . S
C395 H405 0.930 . S
C396 C395 1.391 . S
C396 C398 1.387 . S
C397 C394 1.398 . S
C397 C398 1.380 . S
C397 H406 0.930 . S
C398 C396 1.387 . S
C398 C397 1.380 . S
C398 H407 0.930 . S
C399 O376 1.254 . S
C399 O377 1.268 . S
H400 C385 0.930 . S
H401 C386 0.930 . S
H402 C388 0.930 . S
H403 C389 0.930 . S
H404 C394 0.930 . S
H405 C395 0.930 . S
H406 C397 0.930 . S
H407 C398 0.930 . S
C408 C409 1.391 . S
C408 C410 1.394 . S
C408 H424 0.931 . S
C409 C408 1.391 . S
C409 C413 1.376 . S
C410 C408 1.394 . S
C410 C411 1.369 . S
C410 C414 1.531 . S
C411 C410 1.369 . S
C411 C412 1.410 . S
C411 C419 1.503 . S
C412 C411 1.410 . S
C412 C413 1.392 . S
C412 C415 1.511 1_545 S
C413 C409 1.376 . S
C413 C412 1.392 . S
C413 H425 0.929 . S
C414 C410 1.531 . S
C414 H426 0.960 . S
C414 H427 0.962 . S
C414 H428 0.960 . S
C415 C412 1.511 1_565 S
C415 H429 0.961 . S
C415 H430 0.961 . S
C415 H431 0.957 1_565 S
C416 C417 1.370 . S
C416 C418 1.363 . S
C416 H432 0.931 . S
C417 C416 1.370 . S
C417 C421 1.408 . S
C418 C416 1.363 . S
C418 C419 1.370 . S
C418 C422 1.524 . S
C419 C411 1.503 . S
C419 C418 1.370 . S
C419 C420 1.403 . S
C420 C419 1.403 . S
C420 C421 1.404 . S
C420 C423 1.539 . S
C421 C417 1.408 . S
C421 C420 1.404 . S
C421 H433 0.930 . S
C422 C418 1.524 . S
C422 H434 0.956 . S
C422 H435 0.961 . S
C422 H436 0.961 . S
C423 C420 1.539 . S
C423 H437 0.958 . S
C423 H438 0.961 . S
C423 H439 0.960 . S
H424 C408 0.931 . S
H425 C413 0.929 . S
H426 C414 0.960 . S
H427 C414 0.962 . S
H428 C414 0.960 . S
H429 C415 0.961 . S
H430 C415 0.961 . S
H431 C415 0.957 1_545 S
H432 C416 0.931 . S
H433 C421 0.930 . S
H434 C422 0.956 . S
H435 C422 0.961 . S
H436 C422 0.961 . S
H437 C423 0.958 . S
H438 C423 0.961 . S
H439 C423 0.960 . S
C440 C441 1.391 . S
C440 C442 1.394 . S
C440 H456 0.931 . S
C441 C440 1.391 . S
C441 C445 1.376 . S
C442 C440 1.394 . S
C442 C443 1.369 . S
C442 C446 1.531 . S
C443 C442 1.369 . S
C443 C444 1.410 . S
C443 C451 1.503 . S
C444 C443 1.410 . S
C444 C445 1.392 . S
C444 C447 1.511 . S
C445 C441 1.376 . S
C445 C444 1.392 . S
C445 H457 0.929 . S
C446 C442 1.531 . S
C446 H458 0.960 . S
C446 H459 0.962 . S
C446 H460 0.960 . S
C447 C444 1.511 . S
C447 H461 0.961 . S
C447 H462 0.961 . S
C447 H463 0.961 . S
C448 C449 1.370 . S
C448 C450 1.363 . S
C448 H464 0.931 . S
C449 C448 1.370 . S
C449 C453 1.408 . S
C450 C448 1.363 . S
C450 C451 1.370 . S
C450 C454 1.524 . S
C451 C443 1.503 . S
C451 C450 1.370 . S
C451 C452 1.403 . S
C452 C451 1.403 . S
C452 C453 1.404 . S
C452 C455 1.539 . S
C453 C449 1.408 . S
C453 C452 1.404 . S
C453 H465 0.930 . S
C454 C450 1.524 . S
C454 H466 0.956 . S
C454 H467 0.961 . S
C454 H468 0.961 . S
C455 C452 1.539 . S
C455 H469 0.958 . S
C455 H470 0.961 . S
C455 H471 0.960 . S
H456 C440 0.931 . S
H457 C445 0.929 . S
H458 C446 0.960 . S
H459 C446 0.962 . S
H460 C446 0.960 . S
H461 C447 0.961 . S
H462 C447 0.961 . S
H463 C447 0.961 . S
H464 C448 0.931 . S
H465 C453 0.930 . S
H466 C454 0.956 . S
H467 C454 0.961 . S
H468 C454 0.961 . S
H469 C455 0.958 . S
H470 C455 0.961 . S
H471 C455 0.960 . S
C472 C473 1.391 . S
C472 C474 1.394 . S
C472 H488 0.931 . S
C473 C472 1.391 . S
C473 C477 1.376 . S
C474 C472 1.394 . S
C474 C475 1.369 . S
C474 C478 1.531 . S
C475 C474 1.369 . S
C475 C476 1.410 . S
C475 C483 1.503 . S
C476 C475 1.410 . S
C476 C477 1.392 . S
C476 C479 1.511 . S
C477 C473 1.376 . S
C477 C476 1.392 . S
C477 H489 0.929 . S
C478 C474 1.531 . S
C478 H490 0.960 . S
C478 H491 0.962 . S
C478 H492 0.960 . S
C479 C476 1.511 . S
C479 H493 0.961 . S
C479 H494 0.961 . S
C479 H495 0.961 . S
C480 C481 1.370 . S
C480 C482 1.363 . S
C480 H496 0.931 . S
C481 C480 1.370 . S
C481 C485 1.408 . S
C482 C480 1.363 . S
C482 C483 1.370 . S
C482 C486 1.524 . S
C483 C475 1.503 . S
C483 C482 1.370 . S
C483 C484 1.403 . S
C484 C483 1.403 . S
C484 C485 1.404 . S
C484 C487 1.539 . S
C485 C481 1.408 . S
C485 C484 1.404 . S
C485 H497 0.930 . S
C486 C482 1.524 . S
C486 H498 0.956 . S
C486 H499 0.961 . S
C486 H500 0.961 . S
C487 C484 1.539 . S
C487 H501 0.958 . S
C487 H502 0.961 . S
C487 H503 0.960 . S
H488 C472 0.931 . S
H489 C477 0.929 . S
H490 C478 0.960 . S
H491 C478 0.962 . S
H492 C478 0.960 . S
H493 C479 0.961 . S
H494 C479 0.961 . S
H495 C479 0.961 . S
H496 C480 0.931 . S
H497 C485 0.930 . S
H498 C486 0.956 . S
H499 C486 0.961 . S
H500 C486 0.961 . S
H501 C487 0.958 . S
H502 C487 0.961 . S
H503 C487 0.960 . S
C504 C505 1.391 . S
C504 C506 1.394 . S
C504 H520 0.931 . S
C505 C504 1.391 . S
C505 C509 1.376 . S
C506 C504 1.394 . S
C506 C507 1.369 . S
C506 C510 1.531 . S
C507 C506 1.369 . S
C507 C508 1.410 . S
C507 C515 1.503 . S
C508 C507 1.410 . S
C508 C509 1.392 . S
C508 C511 1.511 . S
C509 C505 1.376 . S
C509 C508 1.392 . S
C509 H521 0.929 . S
C510 C506 1.531 . S
C510 H522 0.960 . S
C510 H523 0.962 1_455 S
C510 H524 0.962 . S
C511 C508 1.511 . S
C511 H525 0.961 . S
C511 H526 0.961 . S
C511 H527 0.961 . S
C512 C513 1.370 . S
C512 C514 1.363 . S
C512 H528 0.931 . S
C513 C512 1.370 . S
C513 C517 1.408 . S
C514 C512 1.363 . S
C514 C515 1.370 . S
C514 C518 1.524 . S
C515 C507 1.503 . S
C515 C514 1.370 . S
C515 C516 1.403 . S
C516 C515 1.403 . S
C516 C517 1.404 . S
C516 C519 1.539 . S
C517 C513 1.408 . S
C517 C516 1.404 . S
C517 H529 0.930 . S
C518 C514 1.524 . S
C518 H530 0.938 1_455 S
C518 H531 0.961 . S
C518 H532 0.961 . S
C519 C516 1.539 . S
C519 H533 0.958 . S
C519 H534 0.961 . S
C519 H535 0.960 . S
H520 C504 0.931 . S
H521 C509 0.929 . S
H522 C510 0.960 . S
H523 C510 0.962 1_655 S
H524 C510 0.962 . S
H525 C511 0.961 . S
H526 C511 0.961 . S
H527 C511 0.961 . S
H528 C512 0.931 . S
H529 C517 0.930 . S
H530 C518 0.938 1_655 S
H531 C518 0.961 . S
H532 C518 0.961 . S
H533 C519 0.958 . S
H534 C519 0.961 . S
H535 C519 0.960 . S
C536 C537 1.391 . S
C536 C538 1.394 . S
C536 H552 0.931 . S
C537 C536 1.391 . S
C537 C541 1.376 . S
C538 C536 1.394 . S
C538 C539 1.369 . S
C538 C542 1.531 1_565 S
C539 C538 1.369 . S
C539 C540 1.410 . S
C539 C547 1.503 1_554 S
C540 C539 1.410 . S
C540 C541 1.392 . S
C540 C543 1.511 . S
C541 C537 1.376 . S
C541 C540 1.392 . S
C541 H553 0.929 . S
C542 C538 1.531 1_545 S
C542 H554 0.960 1_554 S
C542 H555 0.962 1_544 S
C542 H556 0.960 . S
C543 C540 1.511 . S
C543 H557 0.961 . S
C543 H558 0.961 . S
C543 H559 0.961 . S
C544 C545 1.370 . S
C544 C546 1.363 . S
C544 H560 0.931 . S
C545 C544 1.370 . S
C545 C549 1.408 1_565 S
C546 C544 1.363 . S
C546 C547 1.370 . S
C546 C550 1.524 . S
C547 C539 1.503 1_556 S
C547 C546 1.370 . S
C547 C548 1.403 1_565 S
C548 C547 1.403 1_545 S
C548 C549 1.404 . S
C548 C551 1.539 1_556 S
C549 C545 1.408 1_545 S
C549 C548 1.404 . S
C549 H561 0.930 . S
C550 C546 1.524 . S
C550 H562 0.956 . S
C550 H563 0.961 . S
C550 H564 0.961 . S
C551 C548 1.539 1_554 S
C551 H565 0.958 . S
C551 H566 0.961 . S
C551 H567 0.960 . S
H552 C536 0.931 . S
H553 C541 0.929 . S
H554 C542 0.960 1_556 S
H555 C542 0.962 1_566 S
H556 C542 0.960 . S
H557 C543 0.961 . S
H558 C543 0.961 . S
H559 C543 0.961 . S
H560 C544 0.931 . S
H561 C549 0.930 . S
H562 C550 0.956 . S
H563 C550 0.961 . S
H564 C550 0.961 . S
H565 C551 0.958 . S
H566 C551 0.961 . S
H567 C551 0.960 . S
C568 C569 1.391 . S
C568 C570 1.394 . S
C568 H584 0.931 . S
C569 C568 1.391 . S
C569 C573 1.376 . S
C570 C568 1.394 . S
C570 C571 1.369 . S
C570 C574 1.531 . S
C571 C570 1.369 . S
C571 C572 1.410 . S
C571 C579 1.503 1_554 S
C572 C571 1.410 . S
C572 C573 1.392 . S
C572 C575 1.511 . S
C573 C569 1.376 . S
C573 C572 1.392 . S
C573 H585 0.929 . S
C574 C570 1.531 . S
C574 H586 0.960 . S
C574 H587 0.962 . S
C574 H588 0.960 . S
C575 C572 1.511 . S
C575 H589 0.961 . S
C575 H590 0.961 1_554 S
C575 H591 0.961 . S
C576 C577 1.370 . S
C576 C578 1.363 . S
C576 H592 0.931 . S
C577 C576 1.370 . S
C577 C581 1.408 . S
C578 C576 1.363 . S
C578 C579 1.370 . S
C578 C582 1.524 . S
C579 C571 1.503 1_556 S
C579 C578 1.370 . S
C579 C580 1.403 . S
C580 C579 1.403 . S
C580 C581 1.404 . S
C580 C583 1.539 1_556 S
C581 C577 1.408 . S
C581 C580 1.404 . S
C581 H593 0.930 . S
C582 C578 1.524 . S
C582 H594 0.956 . S
C582 H595 0.961 . S
C582 H596 0.961 . S
C583 C580 1.539 1_554 S
C583 H597 0.958 . S
C583 H598 0.961 . S
C583 H599 0.960 . S
H584 C568 0.931 . S
H585 C573 0.929 . S
H586 C574 0.960 . S
H587 C574 0.962 . S
H588 C574 0.960 . S
H589 C575 0.961 . S
H590 C575 0.961 1_556 S
H591 C575 0.961 . S
H592 C576 0.931 . S
H593 C581 0.930 . S
H594 C582 0.956 . S
H595 C582 0.961 . S
H596 C582 0.961 . S
H597 C583 0.958 . S
H598 C583 0.961 . S
H599 C583 0.960 . S
C600 C601 1.391 . S
C600 C602 1.394 . S
C600 H616 0.931 . S
C601 C600 1.391 . S
C601 C605 1.376 . S
C602 C600 1.394 . S
C602 C603 1.369 . S
C602 C606 1.531 . S
C603 C602 1.369 . S
C603 C604 1.410 . S
C603 C611 1.503 1_554 S
C604 C603 1.410 . S
C604 C605 1.392 . S
C604 C607 1.511 . S
C605 C601 1.376 . S
C605 C604 1.392 . S
C605 H617 0.929 . S
C606 C602 1.531 . S
C606 H618 0.960 . S
C606 H619 0.962 1_554 S
C606 H620 0.960 . S
C607 C604 1.511 . S
C607 H621 0.961 . S
C607 H622 0.961 . S
C607 H623 0.961 . S
C608 C609 1.370 . S
C608 C610 1.363 . S
C608 H624 0.931 . S
C609 C608 1.370 . S
C609 C613 1.408 . S
C610 C608 1.363 . S
C610 C611 1.370 . S
C610 C614 1.524 . S
C611 C603 1.503 1_556 S
C611 C610 1.370 . S
C611 C612 1.403 . S
C612 C611 1.403 . S
C612 C613 1.404 . S
C612 C615 1.539 1_556 S
C613 C609 1.408 . S
C613 C612 1.404 . S
C613 H625 0.930 . S
C614 C610 1.524 . S
C614 H626 0.956 . S
C614 H627 0.961 . S
C614 H628 0.961 . S
C615 C612 1.539 1_554 S
C615 H629 0.958 . S
C615 H630 0.961 . S
C615 H631 0.960 . S
H616 C600 0.931 . S
H617 C605 0.929 . S
H618 C606 0.960 . S
H619 C606 0.962 1_556 S
H620 C606 0.960 . S
H621 C607 0.961 . S
H622 C607 0.961 . S
H623 C607 0.961 . S
H624 C608 0.931 . S
H625 C613 0.930 . S
H626 C614 0.956 . S
H627 C614 0.961 . S
H628 C614 0.961 . S
H629 C615 0.958 . S
H630 C615 0.961 . S
H631 C615 0.960 . S
C632 C633 1.391 . S
C632 C634 1.394 . S
C632 H648 0.931 . S
C633 C632 1.391 . S
C633 C637 1.376 . S
C634 C632 1.394 . S
C634 C635 1.369 . S
C634 C638 1.531 1_554 S
C635 C634 1.369 . S
C635 C636 1.410 . S
C635 C643 1.503 1_554 S
C636 C635 1.410 . S
C636 C637 1.392 . S
C636 C639 1.511 1_655 S
C637 C633 1.376 . S
C637 C636 1.392 . S
C637 H649 0.929 . S
C638 C634 1.531 1_556 S
C638 H650 0.960 . S
C638 H651 0.962 . S
C638 H652 0.960 . S
C639 C636 1.511 1_455 S
C639 H653 0.961 . S
C639 H654 0.961 . S
C639 H655 0.961 . S
C640 C641 1.370 . S
C640 C642 1.363 . S
C640 H656 0.931 . S
C641 C640 1.370 . S
C641 C645 1.408 . S
C642 C640 1.363 . S
C642 C643 1.370 . S
C642 C646 1.524 1_556 S
C643 C635 1.503 1_556 S
C643 C642 1.370 . S
C643 C644 1.403 . S
C644 C643 1.403 . S
C644 C645 1.404 . S
C644 C647 1.539 1_655 S
C645 C641 1.408 . S
C645 C644 1.404 . S
C645 H657 0.930 1_655 S
C646 C642 1.524 1_554 S
C646 H658 0.956 . S
C646 H659 0.961 . S
C646 H660 0.961 . S
C647 C644 1.539 1_455 S
C647 H661 0.958 1_455 S
C647 H662 0.961 . S
C647 H663 0.960 . S
H648 C632 0.931 . S
H649 C637 0.929 . S
H650 C638 0.960 . S
H651 C638 0.962 . S
H652 C638 0.960 . S
H653 C639 0.961 . S
H654 C639 0.961 . S
H655 C639 0.961 . S
H656 C640 0.931 . S
H657 C645 0.930 1_455 S
H658 C646 0.956 . S
H659 C646 0.961 . S
H660 C646 0.961 . S
H661 C647 0.958 1_655 S
H662 C647 0.961 . S
H663 C647 0.960 . S
C664 C665 1.391 . S
C664 C666 1.394 . S
C664 H680 0.931 . S
C665 C664 1.391 . S
C665 C669 1.376 . S
C666 C664 1.394 . S
C666 C667 1.369 . S
C666 C670 1.531 . S
C667 C666 1.369 . S
C667 C668 1.410 . S
C667 C675 1.503 . S
C668 C667 1.410 . S
C668 C669 1.392 . S
C668 C671 1.512 . S
C669 C665 1.376 . S
C669 C668 1.392 . S
C669 H681 0.929 . S
C670 C666 1.531 . S
C670 H682 0.960 . S
C670 H683 0.962 . S
C670 H684 0.960 . S
C671 C668 1.512 . S
C671 H685 0.961 . S
C671 H686 0.961 1_455 S
C671 H687 0.959 1_455 S
C672 C673 1.370 1_455 S
C672 C674 1.363 . S
C672 H688 0.931 . S
C673 C672 1.370 1_655 S
C673 C677 1.408 . S
C674 C672 1.363 . S
C674 C675 1.370 . S
C674 C678 1.524 . S
C675 C667 1.503 . S
C675 C674 1.370 . S
C675 C676 1.403 1_455 S
C676 C675 1.403 1_655 S
C676 C677 1.404 . S
C676 C679 1.539 . S
C677 C673 1.408 . S
C677 C676 1.404 . S
C677 H689 0.930 . S
C678 C674 1.524 . S
C678 H690 0.956 . S
C678 H691 0.961 . S
C678 H692 0.961 . S
C679 C676 1.539 . S
C679 H693 0.958 . S
C679 H694 0.961 . S
C679 H695 0.960 . S
H680 C664 0.931 . S
H681 C669 0.929 . S
H682 C670 0.960 . S
H683 C670 0.962 . S
H684 C670 0.960 . S
H685 C671 0.961 . S
H686 C671 0.961 1_655 S
H687 C671 0.959 1_655 S
H688 C672 0.931 . S
H689 C677 0.930 . S
H690 C678 0.956 . S
H691 C678 0.961 . S
H692 C678 0.961 . S
H693 C679 0.958 . S
H694 C679 0.961 . S
H695 C679 0.960 . S
C696 C697 1.391 . S
C696 C698 1.394 . S
C696 H712 0.931 . S
C697 C696 1.391 . S
C697 C701 1.376 . S
C698 C696 1.394 . S
C698 C699 1.369 . S
C698 C702 1.531 . S
C699 C698 1.369 . S
C699 C700 1.410 . S
C699 C707 1.503 . S
C700 C699 1.410 . S
C700 C701 1.392 . S
C700 C703 1.511 . S
C701 C697 1.376 . S
C701 C700 1.392 . S
C701 H713 0.929 . S
C702 C698 1.531 . S
C702 H714 0.960 . S
C702 H715 0.962 . S
C702 H716 0.960 . S
C703 C700 1.511 . S
C703 H717 0.961 . S
C703 H718 0.961 . S
C703 H719 0.961 . S
C704 C705 1.370 . S
C704 C706 1.363 . S
C704 H720 0.931 . S
C705 C704 1.370 . S
C705 C709 1.408 1_565 S
C706 C704 1.363 . S
C706 C707 1.370 1_565 S
C706 C710 1.524 . S
C707 C699 1.503 . S
C707 C706 1.370 1_545 S
C707 C708 1.403 . S
C708 C707 1.403 . S
C708 C709 1.404 . S
C708 C711 1.539 . S
C709 C705 1.408 1_545 S
C709 C708 1.404 . S
C709 H721 0.930 . S
C710 C706 1.524 . S
C710 H722 0.956 . S
C710 H723 0.961 . S
C710 H724 0.961 . S
C711 C708 1.539 . S
C711 H725 0.958 . S
C711 H726 0.961 . S
C711 H727 0.960 . S
H712 C696 0.931 . S
H713 C701 0.929 . S
H714 C702 0.960 . S
H715 C702 0.962 . S
H716 C702 0.960 . S
H717 C703 0.961 . S
H718 C703 0.961 . S
H719 C703 0.961 . S
H720 C704 0.931 . S
H721 C709 0.930 . S
H722 C710 0.956 . S
H723 C710 0.961 . S
H724 C710 0.961 . S
H725 C711 0.958 . S
H726 C711 0.961 . S
H727 C711 0.960 . S
C728 C729 1.391 . S
C728 C730 1.394 . S
C728 H744 0.931 . S
C729 C728 1.391 . S
C729 C733 1.376 . S
C730 C728 1.394 . S
C730 C731 1.369 . S
C730 C734 1.531 . S
C731 C730 1.369 . S
C731 C732 1.410 . S
C731 C739 1.503 . S
C732 C731 1.410 . S
C732 C733 1.392 . S
C732 C735 1.511 . S
C733 C729 1.376 . S
C733 C732 1.392 . S
C733 H745 0.929 . S
C734 C730 1.531 . S
C734 H746 0.960 . S
C734 H747 0.962 . S
C734 H748 0.960 . S
C735 C732 1.511 . S
C735 H749 0.961 . S
C735 H750 0.961 . S
C735 H751 0.961 . S
C736 C737 1.370 . S
C736 C738 1.363 . S
C736 H752 0.931 . S
C737 C736 1.370 . S
C737 C741 1.408 . S
C738 C736 1.363 . S
C738 C739 1.370 . S
C738 C742 1.524 . S
C739 C731 1.503 . S
C739 C738 1.370 . S
C739 C740 1.403 . S
C740 C739 1.403 . S
C740 C741 1.404 . S
C740 C743 1.539 . S
C741 C737 1.408 . S
C741 C740 1.404 . S
C741 H753 0.930 . S
C742 C738 1.524 . S
C742 H754 0.956 . S
C742 H755 0.961 . S
C742 H756 0.961 . S
C743 C740 1.539 . S
C743 H757 0.958 . S
C743 H758 0.961 . S
C743 H759 0.960 . S
H744 C728 0.931 . S
H745 C733 0.929 . S
H746 C734 0.960 . S
H747 C734 0.962 . S
H748 C734 0.960 . S
H749 C735 0.961 . S
H750 C735 0.961 . S
H751 C735 0.961 . S
H752 C736 0.931 . S
H753 C741 0.930 . S
H754 C742 0.956 . S
H755 C742 0.961 . S
H756 C742 0.961 . S
H757 C743 0.958 . S
H758 C743 0.961 . S
H759 C743 0.960 . S
C760 C761 1.391 . S
C760 C762 1.394 . S
C760 H776 0.931 . S
C761 C760 1.391 . S
C761 C765 1.376 . S
C762 C760 1.394 . S
C762 C763 1.369 . S
C762 C766 1.531 . S
C763 C762 1.369 . S
C763 C764 1.410 . S
C763 C771 1.503 . S
C764 C763 1.410 . S
C764 C765 1.392 . S
C764 C767 1.511 . S
C765 C761 1.376 . S
C765 C764 1.392 . S
C765 H777 0.929 . S
C766 C762 1.531 . S
C766 H778 0.960 . S
C766 H779 0.962 . S
C766 H780 0.960 . S
C767 C764 1.511 . S
C767 H781 0.961 . S
C767 H782 0.961 . S
C767 H783 0.961 . S
C768 C769 1.370 . S
C768 C770 1.363 . S
C768 H784 0.931 . S
C769 C768 1.370 . S
C769 C773 1.408 . S
C770 C768 1.363 . S
C770 C771 1.370 . S
C770 C774 1.524 . S
C771 C763 1.503 . S
C771 C770 1.370 . S
C771 C772 1.403 . S
C772 C771 1.403 . S
C772 C773 1.404 . S
C772 C775 1.539 . S
C773 C769 1.408 . S
C773 C772 1.404 . S
C773 H785 0.930 . S
C774 C770 1.524 . S
C774 H786 0.956 . S
C774 H787 0.961 . S
C774 H788 0.961 . S
C775 C772 1.539 . S
C775 H789 0.958 . S
C775 H790 0.961 . S
C775 H791 0.960 . S
H776 C760 0.931 . S
H777 C765 0.929 . S
H778 C766 0.960 . S
H779 C766 0.962 . S
H780 C766 0.960 . S
H781 C767 0.961 . S
H782 C767 0.961 . S
H783 C767 0.961 . S
H784 C768 0.931 . S
H785 C773 0.930 . S
H786 C774 0.956 . S
H787 C774 0.961 . S
H788 C774 0.961 . S
H789 C775 0.958 . S
H790 C775 0.961 . S
H791 C775 0.960 . S
C792 C793 1.391 . S
C792 C794 1.394 . S
C792 H808 0.931 . S
C793 C792 1.391 . S
C793 C797 1.376 . S
C794 C792 1.394 . S
C794 C795 1.369 . S
C794 C798 1.531 . S
C795 C794 1.369 . S
C795 C796 1.410 . S
C795 C803 1.503 . S
C796 C795 1.410 . S
C796 C797 1.392 . S
C796 C799 1.511 1_655 S
C797 C793 1.376 . S
C797 C796 1.392 . S
C797 H809 0.929 . S
C798 C794 1.531 . S
C798 H810 0.960 . S
C798 H811 0.962 . S
C798 H812 0.960 . S
C799 C796 1.511 1_455 S
C799 H813 0.961 . S
C799 H814 0.961 . S
C799 H815 0.961 . S
C800 C801 1.370 . S
C800 C802 1.363 1_455 S
C800 H816 0.931 . S
C801 C800 1.370 . S
C801 C805 1.408 1_556 S
C802 C800 1.363 1_655 S
C802 C803 1.370 1_556 S
C802 C806 1.524 . S
C803 C795 1.503 . S
C803 C802 1.370 1_554 S
C803 C804 1.403 . S
C804 C803 1.403 . S
C804 C805 1.404 1_655 S
C804 C807 1.539 . S
C805 C801 1.408 1_554 S
C805 C804 1.404 1_455 S
C805 H817 0.930 . S
C806 C802 1.524 . S
C806 H818 0.956 . S
C806 H819 0.961 1_556 S
C806 H820 0.945 1_655 S
C807 C804 1.539 . S
C807 H821 0.958 . S
C807 H822 0.961 . S
C807 H823 0.960 . S
H808 C792 0.931 . S
H809 C797 0.929 . S
H810 C798 0.960 . S
H811 C798 0.962 . S
H812 C798 0.960 . S
H813 C799 0.961 . S
H814 C799 0.961 . S
H815 C799 0.961 . S
H816 C800 0.931 . S
H817 C805 0.930 . S
H818 C806 0.956 . S
H819 C806 0.961 1_554 S
H820 C806 0.945 1_455 S
H821 C807 0.958 . S
H822 C807 0.961 . S
H823 C807 0.960 . S
C824 C825 1.391 . S
C824 C826 1.394 . S
C824 H840 0.931 . S
C825 C824 1.391 . S
C825 C829 1.376 . S
C826 C824 1.394 . S
C826 C827 1.369 . S
C826 C830 1.531 . S
C827 C826 1.369 . S
C827 C828 1.410 . S
C827 C835 1.503 . S
C828 C827 1.410 . S
C828 C829 1.392 . S
C828 C831 1.511 1_565 S
C829 C825 1.376 . S
C829 C828 1.392 . S
C829 H841 0.929 . S
C830 C826 1.531 . S
C830 H842 0.960 . S
C830 H843 0.962 . S
C830 H844 0.960 . S
C831 C828 1.511 1_545 S
C831 H845 0.961 . S
C831 H846 0.961 . S
C831 H847 0.961 . S
C832 C833 1.370 . S
C832 C834 1.363 . S
C832 H848 0.931 . S
C833 C832 1.370 . S
C833 C837 1.408 1_556 S
C834 C832 1.363 . S
C834 C835 1.370 1_546 S
C834 C838 1.524 1_545 S
C835 C827 1.503 . S
C835 C834 1.370 1_564 S
C835 C836 1.403 . S
C836 C835 1.403 . S
C836 C837 1.404 1_565 S
C836 C839 1.539 . S
C837 C833 1.408 1_554 S
C837 C836 1.404 1_545 S
C837 H849 0.930 . S
C838 C834 1.524 1_565 S
C838 H850 0.956 . S
C838 H851 0.961 1_566 S
C838 H852 0.961 1_565 S
C839 C836 1.539 . S
C839 H853 0.958 . S
C839 H854 0.977 . S
C839 H855 0.960 . S
H840 C824 0.931 . S
H841 C829 0.929 . S
H842 C830 0.960 . S
H843 C830 0.962 . S
H844 C830 0.960 . S
H845 C831 0.961 . S
H846 C831 0.961 . S
H847 C831 0.961 . S
H848 C832 0.931 . S
H849 C837 0.930 . S
H850 C838 0.956 . S
H851 C838 0.961 1_544 S
H852 C838 0.961 1_545 S
H853 C839 0.958 . S
H854 C839 0.977 . S
H855 C839 0.960 . S
C856 C857 1.391 . S
C856 C858 1.394 . S
C856 H872 0.931 . S
C857 C856 1.391 . S
C857 C861 1.376 . S
C858 C856 1.394 . S
C858 C859 1.369 . S
C858 C862 1.531 . S
C859 C858 1.369 . S
C859 C860 1.410 . S
C859 C867 1.503 . S
C860 C859 1.410 . S
C860 C861 1.392 . S
C860 C863 1.511 . S
C861 C857 1.376 . S
C861 C860 1.392 . S
C861 H873 0.929 . S
C862 C858 1.531 . S
C862 H874 0.960 . S
C862 H875 0.962 . S
C862 H876 0.960 . S
C863 C860 1.511 . S
C863 H877 0.961 . S
C863 H878 0.961 . S
C863 H879 0.961 1_554 S
C864 C865 1.370 1_554 S
C864 C866 1.363 . S
C864 H880 0.931 . S
C865 C864 1.370 1_556 S
C865 C869 1.408 . S
C866 C864 1.363 . S
C866 C867 1.370 . S
C866 C870 1.524 . S
C867 C859 1.503 . S
C867 C866 1.370 . S
C867 C868 1.403 1_554 S
C868 C867 1.403 1_556 S
C868 C869 1.404 . S
C868 C871 1.539 . S
C869 C865 1.408 . S
C869 C868 1.404 . S
C869 H881 0.930 . S
C870 C866 1.524 . S
C870 H882 0.956 . S
C870 H883 0.961 . S
C870 H884 0.961 . S
C871 C868 1.539 . S
C871 H885 0.958 . S
C871 H886 0.961 . S
C871 H887 0.960 . S
H872 C856 0.931 . S
H873 C861 0.929 . S
H874 C862 0.960 . S
H875 C862 0.962 . S
H876 C862 0.960 . S
H877 C863 0.961 . S
H878 C863 0.961 . S
H879 C863 0.961 1_556 S
H880 C864 0.931 . S
H881 C869 0.930 . S
H882 C870 0.956 . S
H883 C870 0.961 . S
H884 C870 0.961 . S
H885 C871 0.958 . S
H886 C871 0.961 . S
H887 C871 0.960 . S
C888 C889 1.391 . S
C888 C890 1.394 . S
C888 H904 0.931 . S
C889 C888 1.391 . S
C889 C893 1.376 . S
C890 C888 1.394 . S
C890 C891 1.369 . S
C890 C894 1.531 . S
C891 C890 1.369 . S
C891 C892 1.410 . S
C891 C899 1.503 . S
C892 C891 1.410 . S
C892 C893 1.392 . S
C892 C895 1.511 . S
C893 C889 1.376 . S
C893 C892 1.392 . S
C893 H905 0.929 . S
C894 C890 1.531 . S
C894 H906 0.960 . S
C894 H907 0.962 . S
C894 H908 0.960 . S
C895 C892 1.511 . S
C895 H909 0.961 1_554 S
C895 H910 0.961 1_554 S
C895 H911 0.961 . S
C896 C897 1.370 . S
C896 C898 1.363 1_556 S
C896 H912 0.931 . S
C897 C896 1.370 . S
C897 C901 1.408 1_556 S
C898 C896 1.363 1_554 S
C898 C899 1.370 . S
C898 C902 1.524 . S
C899 C891 1.503 . S
C899 C898 1.370 . S
C899 C900 1.403 . S
C900 C899 1.403 . S
C900 C901 1.404 . S
C900 C903 1.539 . S
C901 C897 1.408 1_554 S
C901 C900 1.404 . S
C901 H913 0.930 . S
C902 C898 1.524 . S
C902 H914 0.956 . S
C902 H915 0.961 . S
C902 H916 0.961 1_554 S
C903 C900 1.539 . S
C903 H917 0.958 . S
C903 H918 0.961 . S
C903 H919 0.960 . S
H904 C888 0.931 . S
H905 C893 0.929 . S
H906 C894 0.960 . S
H907 C894 0.962 . S
H908 C894 0.960 . S
H909 C895 0.961 1_556 S
H910 C895 0.961 1_556 S
H911 C895 0.961 . S
H912 C896 0.931 . S
H913 C901 0.930 . S
H914 C902 0.956 . S
H915 C902 0.961 . S
H916 C902 0.961 1_556 S
H917 C903 0.958 . S
H918 C903 0.961 . S
H919 C903 0.960 . S
C920 C921 1.391 . S
C920 C922 1.394 . S
C920 H936 0.931 . S
C921 C920 1.391 . S
C921 C925 1.376 . S
C922 C920 1.394 . S
C922 C923 1.369 . S
C922 C926 1.531 . S
C923 C922 1.369 . S
C923 C924 1.410 . S
C923 C931 1.503 . S
C924 C923 1.410 . S
C924 C925 1.392 . S
C924 C927 1.511 . S
C925 C921 1.376 . S
C925 C924 1.392 . S
C925 H937 0.929 . S
C926 C922 1.531 . S
C926 H938 0.960 1_455 S
C926 H939 0.962 . S
C926 H940 0.960 1_455 S
C927 C924 1.511 . S
C927 H941 0.961 . S
C927 H942 0.961 . S
C927 H943 0.961 . S
C928 C929 1.370 . S
C928 C930 1.363 . S
C928 H944 0.931 . S
C929 C928 1.370 . S
C929 C933 1.408 . S
C930 C928 1.363 . S
C930 C931 1.370 . S
C930 C934 1.524 . S
C931 C923 1.503 . S
C931 C930 1.370 . S
C931 C932 1.403 . S
C932 C931 1.403 . S
C932 C933 1.404 . S
C932 C935 1.554 . S
C933 C929 1.408 . S
C933 C932 1.404 . S
C933 H945 0.930 . S
C934 C930 1.524 . S
C934 H946 0.956 . S
C934 H947 0.961 . S
C934 H948 0.961 . S
C935 C932 1.554 . S
C935 H949 0.936 1_455 S
C935 H950 0.957 1_455 S
C935 H951 0.973 . S
H936 C920 0.931 . S
H937 C925 0.929 . S
H938 C926 0.960 1_655 S
H939 C926 0.962 . S
H940 C926 0.960 1_655 S
H941 C927 0.961 . S
H942 C927 0.961 . S
H943 C927 0.961 . S
H944 C928 0.931 . S
H945 C933 0.930 . S
H946 C934 0.956 . S
H947 C934 0.961 . S
H948 C934 0.961 . S
H949 C935 0.936 1_655 S
H950 C935 0.957 1_655 S
H951 C935 0.973 . S
C952 C953 1.391 . S
C952 C954 1.394 . S
C952 H968 0.931 . S
C953 C952 1.391 . S
C953 C957 1.376 . S
C954 C952 1.394 . S
C954 C955 1.369 . S
C954 C958 1.531 . S
C955 C954 1.369 . S
C955 C956 1.410 . S
C955 C963 1.503 . S
C956 C955 1.410 . S
C956 C957 1.392 . S
C956 C959 1.511 . S
C957 C953 1.376 . S
C957 C956 1.392 . S
C957 H969 0.929 . S
C958 C954 1.531 . S
C958 H970 0.960 . S
C958 H971 0.962 . S
C958 H972 0.960 . S
C959 C956 1.511 . S
C959 H973 0.961 . S
C959 H974 0.961 . S
C959 H975 0.961 . S
C960 C961 1.370 . S
C960 C962 1.363 . S
C960 H976 0.931 . S
C961 C960 1.370 . S
C961 C965 1.408 . S
C962 C960 1.363 . S
C962 C963 1.370 . S
C962 C966 1.524 . S
C963 C955 1.503 . S
C963 C962 1.370 . S
C963 C964 1.403 . S
C964 C963 1.403 . S
C964 C965 1.404 . S
C964 C967 1.539 . S
C965 C961 1.408 . S
C965 C964 1.404 . S
C965 H977 0.930 . S
C966 C962 1.524 . S
C966 H978 0.956 . S
C966 H979 0.961 1_545 S
C966 H980 0.961 1_545 S
C967 C964 1.539 . S
C967 H981 0.958 . S
C967 H982 0.961 . S
C967 H983 0.960 . S
H968 C952 0.931 . S
H969 C957 0.929 . S
H970 C958 0.960 . S
H971 C958 0.962 . S
H972 C958 0.960 . S
H973 C959 0.961 . S
H974 C959 0.961 . S
H975 C959 0.961 . S
H976 C960 0.931 . S
H977 C965 0.930 . S
H978 C966 0.956 . S
H979 C966 0.961 1_565 S
H980 C966 0.961 1_565 S
H981 C967 0.958 . S
H982 C967 0.961 . S
H983 C967 0.960 . S
C984 C985 1.391 . S
C984 C986 1.394 . S
C984 H1000 0.931 . S
C985 C984 1.391 . S
C985 C989 1.376 . S
C986 C984 1.394 . S
C986 C987 1.369 . S
C986 C990 1.531 . S
C987 C986 1.369 . S
C987 C988 1.410 . S
C987 C995 1.503 . S
C988 C987 1.410 . S
C988 C989 1.392 . S
C988 C991 1.511 . S
C989 C985 1.376 . S
C989 C988 1.392 . S
C989 H1001 0.929 . S
C990 C986 1.531 . S
C990 H1002 0.960 . S
C990 H1003 0.962 . S
C990 H1004 0.960 . S
C991 C988 1.511 . S
C991 H1005 0.961 . S
C991 H1006 0.961 . S
C991 H1007 0.961 . S
C992 C993 1.370 . S
C992 C994 1.363 . S
C992 H1008 0.931 . S
C993 C992 1.370 . S
C993 C997 1.408 . S
C994 C992 1.363 . S
C994 C995 1.370 . S
C994 C998 1.524 . S
C995 C987 1.503 . S
C995 C994 1.370 . S
C995 C996 1.403 . S
C996 C995 1.403 . S
C996 C997 1.404 . S
C996 C999 1.539 . S
C997 C993 1.408 . S
C997 C996 1.404 . S
C997 H1009 0.930 . S
C998 C994 1.524 . S
C998 H1010 0.956 . S
C998 H1011 0.961 . S
C998 H1012 0.961 . S
C999 C996 1.539 . S
C999 H1013 0.958 . S
C999 H1014 0.961 . S
C999 H1015 0.960 . S
H1000 C984 0.931 . S
H1001 C989 0.929 . S
H1002 C990 0.960 . S
H1003 C990 0.962 . S
H1004 C990 0.960 . S
H1005 C991 0.961 . S
H1006 C991 0.961 . S
H1007 C991 0.961 . S
H1008 C992 0.931 . S
H1009 C997 0.930 . S
H1010 C998 0.956 . S
H1011 C998 0.961 . S
H1012 C998 0.961 . S
H1013 C999 0.958 . S
H1014 C999 0.961 . S
H1015 C999 0.960 . S
C1016 C1017 1.391 . S
C1016 C1018 1.394 . S
C1016 H1032 0.931 . S
C1017 C1016 1.391 . S
C1017 C1021 1.376 . S
C1018 C1016 1.394 . S
C1018 C1019 1.369 . S
C1018 C1022 1.531 . S
C1019 C1018 1.369 . S
C1019 C1020 1.410 . S
C1019 C1027 1.503 . S
C1020 C1019 1.410 . S
C1020 C1021 1.392 . S
C1020 C1023 1.511 . S
C1021 C1017 1.376 . S
C1021 C1020 1.392 . S
C1021 H1033 0.929 . S
C1022 C1018 1.531 . S
C1022 H1034 0.960 . S
C1022 H1035 0.962 . S
C1022 H1036 0.960 . S
C1023 C1020 1.511 . S
C1023 H1037 0.961 . S
C1023 H1038 0.961 . S
C1023 H1039 0.961 . S
C1024 C1025 1.370 . S
C1024 C1026 1.363 . S
C1024 H1040 0.931 . S
C1025 C1024 1.370 . S
C1025 C1029 1.408 . S
C1026 C1024 1.363 . S
C1026 C1027 1.370 . S
C1026 C1030 1.524 . S
C1027 C1019 1.503 . S
C1027 C1026 1.370 . S
C1027 C1028 1.403 . S
C1028 C1027 1.403 . S
C1028 C1029 1.404 . S
C1028 C1031 1.539 . S
C1029 C1025 1.408 . S
C1029 C1028 1.404 . S
C1029 H1041 0.930 . S
C1030 C1026 1.524 . S
C1030 H1042 0.956 . S
C1030 H1043 0.961 . S
C1030 H1044 0.961 . S
C1031 C1028 1.539 . S
C1031 H1045 0.958 . S
C1031 H1046 0.961 . S
C1031 H1047 0.960 . S
H1032 C1016 0.931 . S
H1033 C1021 0.929 . S
H1034 C1022 0.960 . S
H1035 C1022 0.962 . S
H1036 C1022 0.960 . S
H1037 C1023 0.961 . S
H1038 C1023 0.961 . S
H1039 C1023 0.961 . S
H1040 C1024 0.931 . S
H1041 C1029 0.930 . S
H1042 C1030 0.956 . S
H1043 C1030 0.961 . S
H1044 C1030 0.961 . S
H1045 C1031 0.958 . S
H1046 C1031 0.961 . S
H1047 C1031 0.960 . S
C1048 C1049 1.391 . S
C1048 C1050 1.394 . S
C1048 H1064 0.931 . S
C1049 C1048 1.391 . S
C1049 C1053 1.376 . S
C1050 C1048 1.394 . S
C1050 C1051 1.369 . S
C1050 C1054 1.531 . S
C1051 C1050 1.369 . S
C1051 C1052 1.410 . S
C1051 C1059 1.503 . S
C1052 C1051 1.410 . S
C1052 C1053 1.392 . S
C1052 C1055 1.511 . S
C1053 C1049 1.376 . S
C1053 C1052 1.392 . S
C1053 H1065 0.929 . S
C1054 C1050 1.531 . S
C1054 H1066 0.960 . S
C1054 H1067 0.962 . S
C1054 H1068 0.960 . S
C1055 C1052 1.511 . S
C1055 H1069 0.961 . S
C1055 H1070 0.961 . S
C1055 H1071 0.961 1_655 S
C1056 C1057 1.370 . S
C1056 C1058 1.363 . S
C1056 H1072 0.931 . S
C1057 C1056 1.370 . S
C1057 C1061 1.408 . S
C1058 C1056 1.363 . S
C1058 C1059 1.370 . S
C1058 C1062 1.524 . S
C1059 C1051 1.503 . S
C1059 C1058 1.370 . S
C1059 C1060 1.403 . S
C1060 C1059 1.403 . S
C1060 C1061 1.404 . S
C1060 C1063 1.539 1_655 S
C1061 C1057 1.408 . S
C1061 C1060 1.404 . S
C1061 H1073 0.930 1_655 S
C1062 C1058 1.524 . S
C1062 H1074 0.956 . S
C1062 H1075 0.961 . S
C1062 H1076 0.961 . S
C1063 C1060 1.539 1_455 S
C1063 H1077 0.958 . S
C1063 H1078 0.961 . S
C1063 H1079 0.960 . S
H1064 C1048 0.931 . S
H1065 C1053 0.929 . S
H1066 C1054 0.960 . S
H1067 C1054 0.962 . S
H1068 C1054 0.960 . S
H1069 C1055 0.961 . S
H1070 C1055 0.961 . S
H1071 C1055 0.961 1_455 S
H1072 C1056 0.931 . S
H1073 C1061 0.930 1_455 S
H1074 C1062 0.956 . S
H1075 C1062 0.961 . S
H1076 C1062 0.961 . S
H1077 C1063 0.958 . S
H1078 C1063 0.961 . S
H1079 C1063 0.960 . S
C1080 C1081 1.391 . S
C1080 C1082 1.394 . S
C1080 H1096 0.944 . S
C1081 C1080 1.391 . S
C1081 C1085 1.376 . S
C1082 C1080 1.394 . S
C1082 C1083 1.369 . S
C1082 C1086 1.531 1_565 S
C1083 C1082 1.369 . S
C1083 C1084 1.410 . S
C1083 C1091 1.503 . S
C1084 C1083 1.410 . S
C1084 C1085 1.392 . S
C1084 C1087 1.511 . S
C1085 C1081 1.376 . S
C1085 C1084 1.392 . S
C1085 H1097 0.929 . S
C1086 C1082 1.531 1_545 S
C1086 H1098 0.960 . S
C1086 H1099 0.962 . S
C1086 H1100 0.960 . S
C1087 C1084 1.511 . S
C1087 H1101 0.961 . S
C1087 H1102 0.961 . S
C1087 H1103 0.961 . S
C1088 C1089 1.370 . S
C1088 C1090 1.363 . S
C1088 H1104 0.931 . S
C1089 C1088 1.370 . S
C1089 C1093 1.408 . S
C1090 C1088 1.363 . S
C1090 C1091 1.370 . S
C1090 C1094 1.524 . S
C1091 C1083 1.503 . S
C1091 C1090 1.370 . S
C1091 C1092 1.403 . S
C1092 C1091 1.403 . S
C1092 C1093 1.404 . S
C1092 C1095 1.539 . S
C1093 C1089 1.408 . S
C1093 C1092 1.404 . S
C1093 H1105 0.930 . S
C1094 C1090 1.524 . S
C1094 H1106 0.956 . S
C1094 H1107 0.961 . S
C1094 H1108 0.961 . S
C1095 C1092 1.539 . S
C1095 H1109 0.958 1_565 S
C1095 H1110 0.961 . S
C1095 H1111 0.960 . S
H1096 C1080 0.944 . S
H1097 C1085 0.929 . S
H1098 C1086 0.960 . S
H1099 C1086 0.962 . S
H1100 C1086 0.960 . S
H1101 C1087 0.961 . S
H1102 C1087 0.961 . S
H1103 C1087 0.961 . S
H1104 C1088 0.931 . S
H1105 C1093 0.930 . S
H1106 C1094 0.956 . S
H1107 C1094 0.961 . S
H1108 C1094 0.961 . S
H1109 C1095 0.958 1_545 S
H1110 C1095 0.961 . S
H1111 C1095 0.960 . S
C1112 C1113 1.391 . S
C1112 C1114 1.394 . S
C1112 H1128 0.931 . S
C1113 C1112 1.391 . S
C1113 C1117 1.376 . S
C1114 C1112 1.394 . S
C1114 C1115 1.369 . S
C1114 C1118 1.531 . S
C1115 C1114 1.369 . S
C1115 C1116 1.410 . S
C1115 C1123 1.503 . S
C1116 C1115 1.410 . S
C1116 C1117 1.392 . S
C1116 C1119 1.511 . S
C1117 C1113 1.376 . S
C1117 C1116 1.392 . S
C1117 H1129 0.929 . S
C1118 C1114 1.531 . S
C1118 H1130 0.960 . S
C1118 H1131 0.962 . S
C1118 H1132 0.960 . S
C1119 C1116 1.511 . S
C1119 H1133 0.961 . S
C1119 H1134 0.961 . S
C1119 H1135 0.961 . S
C1120 C1121 1.370 . S
C1120 C1122 1.363 . S
C1120 H1136 0.931 . S
C1121 C1120 1.370 . S
C1121 C1125 1.408 . S
C1122 C1120 1.363 . S
C1122 C1123 1.370 . S
C1122 C1126 1.524 . S
C1123 C1115 1.503 . S
C1123 C1122 1.370 . S
C1123 C1124 1.403 . S
C1124 C1123 1.403 . S
C1124 C1125 1.404 . S
C1124 C1127 1.539 . S
C1125 C1121 1.408 . S
C1125 C1124 1.404 . S
C1125 H1137 0.930 . S
C1126 C1122 1.524 . S
C1126 H1138 0.956 . S
C1126 H1139 0.961 . S
C1126 H1140 0.961 . S
C1127 C1124 1.539 . S
C1127 H1141 0.958 . S
C1127 H1142 0.961 . S
C1127 H1143 0.960 . S
H1128 C1112 0.931 . S
H1129 C1117 0.929 . S
H1130 C1118 0.960 . S
H1131 C1118 0.962 . S
H1132 C1118 0.960 . S
H1133 C1119 0.961 . S
H1134 C1119 0.961 . S
H1135 C1119 0.961 . S
H1136 C1120 0.931 . S
H1137 C1125 0.930 . S
H1138 C1126 0.956 . S
H1139 C1126 0.961 . S
H1140 C1126 0.961 . S
H1141 C1127 0.958 . S
H1142 C1127 0.961 . S
H1143 C1127 0.960 . S
C1144 C1145 1.391 . S
C1144 C1146 1.394 . S
C1144 H1160 0.931 . S
C1145 C1144 1.391 . S
C1145 C1149 1.376 . S
C1146 C1144 1.394 . S
C1146 C1147 1.369 . S
C1146 C1150 1.531 . S
C1147 C1146 1.369 . S
C1147 C1148 1.410 . S
C1147 C1155 1.503 . S
C1148 C1147 1.410 . S
C1148 C1149 1.392 . S
C1148 C1151 1.511 . S
C1149 C1145 1.376 . S
C1149 C1148 1.392 . S
C1149 H1161 0.929 . S
C1150 C1146 1.531 . S
C1150 H1162 0.960 . S
C1150 H1163 0.962 . S
C1150 H1164 0.960 . S
C1151 C1148 1.511 . S
C1151 H1165 0.961 . S
C1151 H1166 0.961 . S
C1151 H1167 0.961 . S
C1152 C1153 1.370 . S
C1152 C1154 1.363 . S
C1152 H1168 0.931 . S
C1153 C1152 1.370 . S
C1153 C1157 1.408 . S
C1154 C1152 1.363 . S
C1154 C1155 1.370 . S
C1154 C1158 1.524 . S
C1155 C1147 1.503 . S
C1155 C1154 1.370 . S
C1155 C1156 1.403 . S
C1156 C1155 1.403 . S
C1156 C1157 1.404 . S
C1156 C1159 1.539 . S
C1157 C1153 1.408 . S
C1157 C1156 1.404 . S
C1157 H1169 0.930 . S
C1158 C1154 1.524 . S
C1158 H1170 0.956 . S
C1158 H1171 0.961 . S
C1158 H1172 0.961 . S
C1159 C1156 1.539 . S
C1159 H1173 0.958 . S
C1159 H1174 0.961 . S
C1159 H1175 0.960 . S
H1160 C1144 0.931 . S
H1161 C1149 0.929 . S
H1162 C1150 0.960 . S
H1163 C1150 0.962 . S
H1164 C1150 0.960 . S
H1165 C1151 0.961 . S
H1166 C1151 0.961 . S
H1167 C1151 0.961 . S
H1168 C1152 0.931 . S
H1169 C1157 0.930 . S
H1170 C1158 0.956 . S
H1171 C1158 0.961 . S
H1172 C1158 0.961 . S
H1173 C1159 0.958 . S
H1174 C1159 0.961 . S
H1175 C1159 0.960 . S
C409 C61 1.863 . S
C417 C147 1.891 . S
C449 C231 1.904 . S
C441 C70 1.892 . S
C481 C307 1.887 . S
C473 C43 1.897 . S
C513 C391 1.871 . S
C505 C52 1.897 . S
C545 C138 1.874 1_565 S
C537 C25 1.845 . S
C569 C34 1.887 . S
C577 C222 1.909 . S
C601 C7 1.956 . S
C609 C296 1.858 . S
C633 C16 1.894 . S
C641 C380 1.875 . S
C673 C135 0.571 . S
C665 C50 0.563 . S
C705 C219 0.590 . S
C697 C59 0.649 . S
C737 C312 0.580 . S
C729 C67 0.606 . S
C761 C41 0.558 . S
C769 C396 0.583 . S
C793 C14 0.591 . S
C801 C144 0.588 . S
C833 C228 0.561 . S
C825 C23 0.563 . S
C865 C303 0.576 . S
C857 C31 0.541 . S
C889 C5 0.476 . S
C897 C387 0.551 . S
C921 C49 1.997 . S
C929 C128 2.047 . S
C953 C58 1.929 . S
C961 C212 2.047 . S
C993 C306 2.037 . S
C985 C68 1.885 . S
C1025 C390 2.056 . S
C1017 C40 1.902 . S
C1049 C13 1.991 . S
C1057 C139 2.047 . S
C1089 C223 2.041 . S
C1081 C22 1.915 . S
C1121 C315 2.026 . S
C1113 C32 1.879 . S
C1145 C4 1.900 . S
C1153 C399 2.044 . S
