# Generated by pormake.
# Topology nom, (4,4)-cn, num edge types: 1
# Building blocks:
#     Node 0, Type 0, BuildingBlock: NAHDIM_clean_linker_0, # of connection points: 4
#     Node 1, Type 0, BuildingBlock: NAHDIM_clean_linker_0, # of connection points: 4
#     Node 2, Type 0, BuildingBlock: NAHDIM_clean_linker_0, # of connection points: 4
#     Node 3, Type 0, BuildingBlock: NAHDIM_clean_linker_0, # of connection points: 4
#     Node 4, Type 0, BuildingBlock: NAHDIM_clean_linker_0, # of connection points: 4
#     Node 5, Type 0, BuildingBlock: NAHDIM_clean_linker_0, # of connection points: 4
#     Node 6, Type 1, BuildingBlock: CEKHIL_clean_sbu_0, # of connection points: 4
#     Node 7, Type 1, BuildingBlock: CEKHIL_clean_sbu_0, # of connection points: 4
#     Node 8, Type 1, BuildingBlock: CEKHIL_clean_sbu_0, # of connection points: 4
#     Node 9, Type 1, BuildingBlock: CEKHIL_clean_sbu_0, # of connection points: 4
#     Node 10, Type 1, BuildingBlock: CEKHIL_clean_sbu_0, # of connection points: 4
#     Node 11, Type 1, BuildingBlock: CEKHIL_clean_sbu_0, # of connection points: 4
#     Edge 12, Type (0, 1), BuildingBlock: UVAHIK_clean_linker_0, # of connection points: 2
#     Edge 13, Type (0, 1), BuildingBlock: UVAHIK_clean_linker_0, # of connection points: 2
#     Edge 14, Type (0, 1), BuildingBlock: UVAHIK_clean_linker_0, # of connection points: 2
#     Edge 15, Type (0, 1), BuildingBlock: UVAHIK_clean_linker_0, # of connection points: 2
#     Edge 16, Type (0, 1), BuildingBlock: UVAHIK_clean_linker_0, # of connection points: 2
#     Edge 17, Type (0, 1), BuildingBlock: UVAHIK_clean_linker_0, # of connection points: 2
#     Edge 18, Type (0, 1), BuildingBlock: UVAHIK_clean_linker_0, # of connection points: 2
#     Edge 19, Type (0, 1), BuildingBlock: UVAHIK_clean_linker_0, # of connection points: 2
#     Edge 20, Type (0, 1), BuildingBlock: UVAHIK_clean_linker_0, # of connection points: 2
#     Edge 21, Type (0, 1), BuildingBlock: UVAHIK_clean_linker_0, # of connection points: 2
#     Edge 22, Type (0, 1), BuildingBlock: UVAHIK_clean_linker_0, # of connection points: 2
#     Edge 23, Type (0, 1), BuildingBlock: UVAHIK_clean_linker_0, # of connection points: 2
#     Edge 24, Type (0, 1), BuildingBlock: UVAHIK_clean_linker_0, # of connection points: 2
#     Edge 25, Type (0, 1), BuildingBlock: UVAHIK_clean_linker_0, # of connection points: 2
#     Edge 26, Type (0, 1), BuildingBlock: UVAHIK_clean_linker_0, # of connection points: 2
#     Edge 27, Type (0, 1), BuildingBlock: UVAHIK_clean_linker_0, # of connection points: 2
#     Edge 28, Type (0, 1), BuildingBlock: UVAHIK_clean_linker_0, # of connection points: 2
#     Edge 29, Type (0, 1), BuildingBlock: UVAHIK_clean_linker_0, # of connection points: 2
#     Edge 30, Type (0, 1), BuildingBlock: UVAHIK_clean_linker_0, # of connection points: 2
#     Edge 31, Type (0, 1), BuildingBlock: UVAHIK_clean_linker_0, # of connection points: 2
#     Edge 32, Type (0, 1), BuildingBlock: UVAHIK_clean_linker_0, # of connection points: 2
#     Edge 33, Type (0, 1), BuildingBlock: UVAHIK_clean_linker_0, # of connection points: 2
#     Edge 34, Type (0, 1), BuildingBlock: UVAHIK_clean_linker_0, # of connection points: 2
#     Edge 35, Type (0, 1), BuildingBlock: UVAHIK_clean_linker_0, # of connection points: 2
# Relax obj value: 0.043
# Max RMSD: 0.127
# Mean RMSD: 0.097
data_MOF--net-nom--node1-CEKHIL_clean_sbu_0--node2-NAHDIM_clean_linker_0--edge1-UVAHIK_clean_linker_0
_symmetry_space_group_name_H-M    P1
_symmetry_Int_Tables_number       1
_symmetry_cell_setting            triclinic
loop_
_symmetry_equiv_pos_as_xyz
'x, y, z'
_cell_length_a     70.656948
_cell_length_b     69.874715
_cell_length_c     84.997843
_cell_angle_alpha  90.098645
_cell_angle_beta   90.110123
_cell_angle_gamma 121.09553
loop_
_atom_site_label
_atom_site_type_symbol
_atom_site_fract_x
_atom_site_fract_y
_atom_site_fract_z
_atom_type_partial_charge
C0 C 0.13073 0.58268 0.25676 0.0
C1 C 0.14029 0.5869 0.2735 0.0
C2 C 0.1067 0.57816 0.28808 0.0
C3 C 0.096 0.55474 0.28706 0.0
C4 C 0.07368 0.54121 0.2912 0.0
C5 C 0.06177 0.55127 0.29628 0.0
C6 C 0.07262 0.57481 0.29764 0.0
C7 C 0.09507 0.58791 0.29373 0.0
C8 C 0.06269 0.51614 0.28986 0.0
C9 C 0.06039 0.58615 0.30285 0.0
C10 C 0.92071 0.49122 0.21463 0.0
C11 C 0.93646 0.50438 0.22747 0.0
C12 C 0.96078 0.5009 0.24628 0.0
C13 C 0.965 0.51947 0.25546 0.0
C14 C 0.97796 0.52506 0.26915 0.0
C15 C 0.98665 0.51168 0.27383 0.0
C16 C 0.98237 0.49296 0.26464 0.0
C17 C 0.96956 0.48789 0.25092 0.0
C18 C 0.98247 0.54533 0.27858 0.0
C19 C 0.99134 0.47832 0.26932 0.0
C20 C 0.89382 0.45681 0.35344 0.0
C21 C 0.90519 0.48008 0.35162 0.0
C22 C 0.92836 0.49254 0.35108 0.0
C23 C 0.9403 0.4814 0.35219 0.0
C24 C 0.92886 0.45806 0.35484 0.0
C25 C 0.90569 0.44609 0.35564 0.0
C26 C 0.94004 0.51753 0.34888 0.0
C27 C 0.94106 0.44567 0.35623 0.0
C28 C 0.09642 0.54781 0.39979 0.0
C29 C 0.07947 0.53679 0.41304 0.0
C30 C 0.04676 0.53285 0.39966 0.0
C31 C 0.03613 0.54455 0.39621 0.0
C32 C 0.02093 0.53794 0.38375 0.0
C33 C 0.01588 0.5188 0.37478 0.0
C34 C 0.02559 0.50611 0.37878 0.0
C35 C 0.0411 0.51338 0.39106 0.0
C36 C 0.0108 0.5518 0.37984 0.0
C37 C 0.01999 0.48514 0.36981 0.0
C38 C 0.03769 0.53726 0.2993 0.0
C39 C 0.02349 0.53052 0.28632 0.0
C40 C 0.0006 0.51759 0.28816 0.0
C41 C 0.99145 0.51112 0.30338 0.0
C42 C 0.96849 0.49797 0.30564 0.0
C43 C 0.95964 0.49214 0.32069 0.0
C44 C 0.97341 0.49926 0.33407 0.0
C45 C 0.96453 0.4939 0.34945 0.0
C46 C 0.9787 0.50062 0.36247 0.0
C47 C 0.00165 0.51284 0.36057 0.0
C48 C 0.01082 0.51891 0.3453 0.0
C49 C 0.03383 0.53166 0.34299 0.0
C50 C 0.04269 0.53749 0.32794 0.0
C51 C 0.02889 0.53103 0.31463 0.0
C52 C 0.00566 0.51803 0.31667 0.0
C53 C 0.99662 0.51204 0.33203 0.0
C54 C 0.84624 0.42565 0.33192 0.0
C55 C 0.85833 0.44684 0.34199 0.0
O56 O 0.128 0.59197 0.28353 0.0
O57 O 0.06248 0.54107 0.41116 0.0
O58 O 0.87143 0.4443 0.35294 0.0
O59 O 0.94835 0.49497 0.23294 0.0
H60 H 0.14013 0.57181 0.27782 0.0
H61 H 0.11359 0.56808 0.25653 0.0
H62 H 0.13049 0.59753 0.25238 0.0
H63 H 0.1408 0.57903 0.24865 0.0
H64 H 0.10486 0.54689 0.28297 0.0
H65 H 0.10351 0.60596 0.29457 0.0
H66 H 0.05061 0.51007 0.28001 0.0
H67 H 0.07478 0.5108 0.28765 0.0
H68 H 0.05344 0.50803 0.3008 0.0
H69 H 0.07089 0.60466 0.30232 0.0
H70 H 0.04558 0.58063 0.29532 0.0
H71 H 0.05458 0.58126 0.31512 0.0
H72 H 0.94701 0.52268 0.22522 0.0
H73 H 0.92686 0.5025 0.20405 0.0
H74 H 0.92582 0.47943 0.20997 0.0
H75 H 0.88964 0.48007 0.22464 0.0
H76 H 0.95836 0.52975 0.25199 0.0
H77 H 0.96621 0.47361 0.24377 0.0
H78 H 0.97514 0.54005 0.29047 0.0
H79 H 0.00056 0.55674 0.28012 0.0
H80 H 0.97552 0.5547 0.27292 0.0
H81 H 0.98528 0.46351 0.26151 0.0
H82 H 0.00967 0.48818 0.26886 0.0
H83 H 0.98655 0.47252 0.28163 0.0
H84 H 0.86865 0.46082 0.33377 0.0
H85 H 0.89594 0.48846 0.35051 0.0
H86 H 0.89669 0.42814 0.35732 0.0
H87 H 0.94676 0.5218 0.33677 0.0
H88 H 0.92878 0.52401 0.35067 0.0
H89 H 0.95416 0.52614 0.3572 0.0
H90 H 0.92967 0.4274 0.35777 0.0
H91 H 0.95118 0.44851 0.34554 0.0
H92 H 0.95252 0.45221 0.36645 0.0
H93 H 0.07265 0.51847 0.41286 0.0
H94 H 0.11028 0.54481 0.40145 0.0
H95 H 0.08863 0.54067 0.38822 0.0
H96 H 0.10314 0.56612 0.39957 0.0
H97 H 0.0404 0.5594 0.403 0.0
H98 H 0.04873 0.50377 0.39373 0.0
H99 H 0.01468 0.55768 0.36748 0.0
H100 H 0.99254 0.54136 0.38084 0.0
H101 H 0.01685 0.56654 0.38772 0.0
H102 H 0.02643 0.47548 0.37574 0.0
H103 H 0.0018 0.47426 0.36842 0.0
H104 H 0.02728 0.48971 0.35786 0.0
H105 H 0.03036 0.53555 0.2746 0.0
H106 H 0.95709 0.49209 0.2958 0.0
H107 H 0.94184 0.48201 0.32168 0.0
H108 H 0.97179 0.49624 0.37421 0.0
H109 H 0.0453 0.53734 0.35279 0.0
H110 H 0.06051 0.54726 0.32688 0.0
H111 H 0.83578 0.4108 0.33936 0.0
H112 H 0.83564 0.4273 0.32301 0.0
H113 H 0.85846 0.42296 0.32565 0.0
C114 C 0.42892 0.89012 0.56295 0.0
C115 C 0.42469 0.88213 0.54578 0.0
C116 C 0.43398 0.91714 0.5324 0.0
C117 C 0.45708 0.92724 0.53323 0.0
C118 C 0.47103 0.94957 0.52873 0.0
C119 C 0.46173 0.96218 0.52356 0.0
C120 C 0.4385 0.95207 0.52266 0.0
C121 C 0.42494 0.92955 0.5269 0.0
C122 C 0.49575 0.95974 0.52971 0.0
C123 C 0.42802 0.9651 0.51737 0.0
C124 C 0.54275 0.08433 0.61123 0.0
C125 C 0.53446 0.06804 0.598 0.0
C126 C 0.52339 0.06441 0.5706 0.0
C127 C 0.50586 0.06311 0.56205 0.0
C128 C 0.49837 0.05057 0.54808 0.0
C129 C 0.50905 0.03948 0.54244 0.0
C130 C 0.52763 0.04184 0.55057 0.0
C131 C 0.53464 0.05432 0.56455 0.0
C132 C 0.47874 0.04868 0.53954 0.0
C133 C 0.53983 0.03081 0.54463 0.0
C134 C 0.57551 0.12163 0.45722 0.0
C135 C 0.55381 0.11581 0.46057 0.0
C136 C 0.53722 0.09334 0.46265 0.0
C137 C 0.54282 0.07657 0.462 0.0
C138 C 0.56474 0.08252 0.45826 0.0
C139 C 0.58073 0.10502 0.45561 0.0
C140 C 0.51387 0.08766 0.46581 0.0
C141 C 0.57146 0.06524 0.45742 0.0
C142 C 0.46408 0.91355 0.42166 0.0
C143 C 0.47582 0.93026 0.40829 0.0
C144 C 0.48071 0.96464 0.42031 0.0
C145 C 0.47081 0.97743 0.42203 0.0
C146 C 0.47807 0.99418 0.4336 0.0
C147 C 0.496 0.9985 0.44347 0.0
C148 C 0.50678 0.98636 0.44132 0.0
C149 C 0.49891 0.96942 0.42989 0.0
C150 C 0.46622 0.00683 0.43558 0.0
C151 C 0.52636 0.99094 0.45135 0.0
C152 C 0.47639 0.98606 0.51937 0.0
C153 C 0.48497 0.00167 0.5316 0.0
C154 C 0.49999 0.02426 0.52866 0.0
C155 C 0.5066 0.03163 0.51306 0.0
C156 C 0.52212 0.05411 0.50972 0.0
C157 C 0.52869 0.06112 0.49433 0.0
C158 C 0.51972 0.04601 0.48164 0.0
C159 C 0.52612 0.05301 0.46591 0.0
C160 C 0.51747 0.03732 0.45367 0.0
C161 C 0.50271 0.01468 0.4567 0.0
C162 C 0.49569 0.00749 0.47228 0.0
C163 C 0.48058 0.98489 0.47569 0.0
C164 C 0.47426 0.97782 0.49109 0.0
C165 C 0.48258 0.99311 0.50366 0.0
C166 C 0.4977 0.01601 0.5005 0.0
C167 C 0.50425 0.02321 0.48478 0.0
C168 C 0.62286 0.16933 0.47046 0.0
C169 C 0.59812 0.15909 0.46745 0.0
O170 O 0.41981 0.89565 0.53686 0.0
O171 O 0.47204 0.94783 0.40946 0.0
O172 O 0.5917 0.14327 0.45559 0.0
O173 O 0.52912 0.07552 0.58455 0.0
H174 H 0.43954 0.8826 0.54097 0.0
H175 H 0.44321 0.9075 0.56377 0.0
H176 H 0.41416 0.88969 0.56792 0.0
H177 H 0.43278 0.87933 0.57019 0.0
H178 H 0.46445 0.91794 0.53737 0.0
H179 H 0.40712 0.92162 0.52625 0.0
H180 H 0.50242 0.97209 0.53946 0.0
H181 H 0.50037 0.947 0.53189 0.0
H182 H 0.50374 0.96872 0.51865 0.0
H183 H 0.40972 0.95526 0.51839 0.0
H184 H 0.43453 0.9806 0.5245 0.0
H185 H 0.43239 0.97018 0.50491 0.0
H186 H 0.54437 0.06006 0.59577 0.0
H187 H 0.51834 0.06854 0.62848 0.0
H188 H 0.56035 0.08878 0.61312 0.0
H189 H 0.54741 0.10104 0.60605 0.0
H190 H 0.49756 0.07133 0.56666 0.0
H191 H 0.54897 0.05622 0.57064 0.0
H192 H 0.48327 0.05425 0.52718 0.0
H193 H 0.4651 0.03092 0.53925 0.0
H194 H 0.47264 0.05882 0.5452 0.0
H195 H 0.55507 0.03582 0.55153 0.0
H196 H 0.52885 0.01239 0.54534 0.0
H197 H 0.54436 0.03513 0.53208 0.0
H198 H 0.58933 0.15105 0.47861 0.0
H199 H 0.54991 0.12888 0.46149 0.0
H200 H 0.59759 0.10985 0.45284 0.0
H201 H 0.51031 0.08441 0.47855 0.0
H202 H 0.51133 0.10153 0.46244 0.0
H203 H 0.50181 0.07234 0.45929 0.0
H204 H 0.58965 0.07297 0.45646 0.0
H205 H 0.56565 0.05442 0.46801 0.0
H206 H 0.56363 0.0544 0.44697 0.0
H207 H 0.49386 0.93678 0.40894 0.0
H208 H 0.46678 0.89928 0.42059 0.0
H209 H 0.4707 0.92168 0.43324 0.0
H210 H 0.44604 0.90707 0.42137 0.0
H211 H 0.4569 0.97378 0.41454 0.0
H212 H 0.50704 0.95999 0.42868 0.0
H213 H 0.45959 0.00448 0.44771 0.0
H214 H 0.47805 0.02498 0.43394 0.0
H215 H 0.45237 0.0013 0.42708 0.0
H216 H 0.5347 0.98221 0.44687 0.0
H217 H 0.53859 0.00916 0.45183 0.0
H218 H 0.52075 0.98523 0.46355 0.0
H219 H 0.48021 0.99609 0.54363 0.0
H220 H 0.52947 0.0665 0.519 0.0
H221 H 0.54092 0.07859 0.49254 0.0
H222 H 0.52279 0.04269 0.44168 0.0
H223 H 0.47351 0.97235 0.4665 0.0
H224 H 0.46275 0.96018 0.49299 0.0
H225 H 0.6325 0.17795 0.45975 0.0
H226 H 0.62849 0.18152 0.48034 0.0
H227 H 0.62625 0.15597 0.47366 0.0
C228 C 0.55298 0.43158 0.72806 0.0
C229 C 0.55805 0.42703 0.71139 0.0
C230 C 0.53466 0.43712 0.69644 0.0
C231 C 0.54932 0.46039 0.69634 0.0
C232 C 0.54207 0.47491 0.69195 0.0
C233 C 0.51962 0.46603 0.68785 0.0
C234 C 0.50493 0.44259 0.68762 0.0
C235 C 0.51279 0.42845 0.69166 0.0
C236 C 0.55834 0.49979 0.69202 0.0
C237 C 0.48079 0.4325 0.68362 0.0
C238 C 0.51858 0.53901 0.77936 0.0
C239 C 0.49814 0.53301 0.76945 0.0
C240 C 0.50216 0.53625 0.74087 0.0
C241 C 0.48324 0.51599 0.7365 0.0
C242 C 0.48184 0.50649 0.72166 0.0
C243 C 0.49965 0.51758 0.71103 0.0
C244 C 0.51812 0.53868 0.71508 0.0
C245 C 0.51897 0.54787 0.72993 0.0
C246 C 0.46166 0.4843 0.71751 0.0
C247 C 0.5374 0.55104 0.70401 0.0
C248 C 0.45154 0.56509 0.62959 0.0
C249 C 0.43834 0.54282 0.6344 0.0
C250 C 0.44739 0.52915 0.63609 0.0
C251 C 0.47025 0.53821 0.63331 0.0
C252 C 0.48347 0.56063 0.62821 0.0
C253 C 0.47379 0.57364 0.62612 0.0
C254 C 0.43252 0.50508 0.64089 0.0
C255 C 0.50788 0.57097 0.62516 0.0
C256 C 0.5588 0.47408 0.5846 0.0
C257 C 0.55098 0.48313 0.57124 0.0
C258 C 0.52133 0.48491 0.58502 0.0
C259 C 0.49871 0.47267 0.58831 0.0
C260 C 0.48981 0.47878 0.60074 0.0
C261 C 0.50391 0.49785 0.60991 0.0
C262 C 0.52661 0.51104 0.60611 0.0
C263 C 0.53511 0.50438 0.59378 0.0
C264 C 0.46552 0.46447 0.60444 0.0
C265 C 0.54206 0.53186 0.61538 0.0
C266 C 0.51122 0.48131 0.68503 0.0
C267 C 0.50785 0.49121 0.69815 0.0
C268 C 0.50029 0.50604 0.69657 0.0
C269 C 0.49496 0.51049 0.68152 0.0
C270 C 0.48639 0.52456 0.67957 0.0
C271 C 0.48147 0.52904 0.66465 0.0
C272 C 0.48511 0.51976 0.65111 0.0
C273 C 0.48034 0.52433 0.63586 0.0
C274 C 0.48577 0.51617 0.62263 0.0
C275 C 0.49553 0.50325 0.62422 0.0
C276 C 0.499 0.49725 0.63936 0.0
C277 C 0.50767 0.48324 0.64134 0.0
C278 C 0.51155 0.47786 0.65627 0.0
C279 C 0.5071 0.48645 0.6698 0.0
C280 C 0.49857 0.50079 0.66807 0.0
C281 C 0.49406 0.5058 0.65284 0.0
C282 C 0.44223 0.6052 0.64467 0.0
C283 C 0.43 0.58094 0.63893 0.0
O284 O 0.54076 0.42251 0.70128 0.0
O285 O 0.52916 0.47716 0.57358 0.0
O286 O 0.44315 0.57858 0.62795 0.0
O287 O 0.50483 0.54502 0.75552 0.0
H288 H 0.57356 0.44186 0.70715 0.0
H289 H 0.55123 0.44647 0.72812 0.0
H290 H 0.53737 0.41699 0.73243 0.0
H291 H 0.56665 0.43492 0.73624 0.0
H292 H 0.56642 0.46744 0.69972 0.0
H293 H 0.50164 0.41048 0.69167 0.0
H294 H 0.55504 0.50743 0.70231 0.0
H295 H 0.57572 0.50381 0.69277 0.0
H296 H 0.55639 0.50757 0.68124 0.0
H297 H 0.4712 0.41408 0.68522 0.0
H298 H 0.47344 0.44002 0.69112 0.0
H299 H 0.47909 0.43624 0.67119 0.0
H300 H 0.48959 0.5147 0.76719 0.0
H301 H 0.51364 0.52965 0.79063 0.0
H302 H 0.52934 0.53446 0.77286 0.0
H303 H 0.52826 0.55722 0.78194 0.0
H304 H 0.46966 0.50749 0.74468 0.0
H305 H 0.53327 0.56374 0.73334 0.0
H306 H 0.46613 0.47123 0.71724 0.0
H307 H 0.44808 0.47925 0.72612 0.0
H308 H 0.45558 0.48505 0.7056 0.0
H309 H 0.55051 0.56729 0.70895 0.0
H310 H 0.5447 0.54063 0.70138 0.0
H311 H 0.5316 0.5542 0.69271 0.0
H312 H 0.42723 0.5702 0.64939 0.0
H313 H 0.42093 0.53608 0.63661 0.0
H314 H 0.48372 0.59081 0.62222 0.0
H315 H 0.43616 0.50295 0.65325 0.0
H316 H 0.41475 0.49969 0.64003 0.0
H317 H 0.43561 0.49394 0.6334 0.0
H318 H 0.51634 0.58933 0.62339 0.0
H319 H 0.51591 0.56758 0.63513 0.0
H320 H 0.51025 0.56337 0.61443 0.0
H321 H 0.56166 0.50165 0.57081 0.0
H322 H 0.5761 0.47844 0.58254 0.0
H323 H 0.55833 0.48149 0.59605 0.0
H324 H 0.54803 0.45562 0.58541 0.0
H325 H 0.48814 0.45782 0.5814 0.0
H326 H 0.55258 0.51437 0.59127 0.0
H327 H 0.46341 0.45785 0.61659 0.0
H328 H 0.45774 0.47478 0.60395 0.0
H329 H 0.45671 0.4502 0.59614 0.0
H330 H 0.55847 0.54186 0.60968 0.0
H331 H 0.53475 0.54252 0.61679 0.0
H332 H 0.54453 0.52708 0.62731 0.0
H333 H 0.51165 0.48769 0.70978 0.0
H334 H 0.48334 0.53219 0.68959 0.0
H335 H 0.47498 0.54005 0.66386 0.0
H336 H 0.48288 0.52042 0.61096 0.0
H337 H 0.51148 0.47619 0.63136 0.0
H338 H 0.51826 0.46704 0.65709 0.0
H339 H 0.43259 0.60761 0.65395 0.0
H340 H 0.45848 0.60955 0.64976 0.0
H341 H 0.44511 0.61674 0.63475 0.0
C342 C 0.14 0.5722 0.8883 0.0
C343 C 0.14224 0.56191 0.87297 0.0
C344 C 0.10355 0.53553 0.86539 0.0
C345 C 0.09842 0.55172 0.86089 0.0
C346 C 0.07698 0.54541 0.85599 0.0
C347 C 0.06038 0.52252 0.85552 0.0
C348 C 0.06556 0.50618 0.85976 0.0
C349 C 0.08711 0.51295 0.86464 0.0
C350 C 0.07196 0.56322 0.85147 0.0
C351 C 0.04826 0.48161 0.85942 0.0
C352 C 0.93308 0.46486 0.93967 0.0
C353 C 0.94639 0.46746 0.9254 0.0
C354 C 0.96146 0.48981 0.90176 0.0
C355 C 0.96431 0.47379 0.89381 0.0
C356 C 0.97622 0.47903 0.87975 0.0
C357 C 0.98597 0.50089 0.87359 0.0
C358 C 0.98267 0.51692 0.88125 0.0
C359 C 0.97019 0.51106 0.89518 0.0
C360 C 0.97894 0.46129 0.87172 0.0
C361 C 0.99275 0.54031 0.87489 0.0
C362 C 0.90495 0.47641 0.78681 0.0
C363 C 0.90732 0.45971 0.79396 0.0
C364 C 0.92839 0.4629 0.79661 0.0
C365 C 0.94739 0.48363 0.79262 0.0
C366 C 0.94491 0.50019 0.78494 0.0
C367 C 0.92364 0.49613 0.78185 0.0
C368 C 0.93026 0.4443 0.80395 0.0
C369 C 0.9647 0.52241 0.78035 0.0
C370 C 0.09712 0.49012 0.75377 0.0
C371 C 0.08567 0.50205 0.74734 0.0
C372 C 0.04785 0.48859 0.75536 0.0
C373 C 0.03096 0.46929 0.76244 0.0
C374 C 0.01619 0.47037 0.7729 0.0
C375 C 0.01814 0.49123 0.77598 0.0
C376 C 0.03412 0.51053 0.76785 0.0
C377 C 0.04892 0.50902 0.75766 0.0
C378 C 0.99912 0.4494 0.78117 0.0
C379 C 0.0361 0.53286 0.77041 0.0
C380 C 0.03742 0.51576 0.85112 0.0
C381 C 0.02309 0.51375 0.86315 0.0
C382 C 0.00112 0.50711 0.85997 0.0
C383 C 0.99345 0.50346 0.84425 0.0
C384 C 0.97191 0.4982 0.84052 0.0
C385 C 0.96436 0.49405 0.82503 0.0
C386 C 0.97771 0.49395 0.81278 0.0
C387 C 0.96979 0.48849 0.79711 0.0
C388 C 0.98335 0.48794 0.78536 0.0
C389 C 0.00488 0.49316 0.78873 0.0
C390 C 0.01332 0.49934 0.80421 0.0
C391 C 0.03509 0.50522 0.80795 0.0
C392 C 0.04319 0.51109 0.82322 0.0
C393 C 0.02964 0.51069 0.83545 0.0
C394 C 0.00762 0.50473 0.83198 0.0
C395 C 0.99957 0.49943 0.8163 0.0
C396 C 0.85857 0.48131 0.79588 0.0
C397 C 0.86845 0.46634 0.79596 0.0
O398 O 0.12387 0.54079 0.87067 0.0
O399 O 0.06307 0.48707 0.74662 0.0
O400 O 0.88482 0.47397 0.78462 0.0
O401 O 0.95079 0.48537 0.91583 0.0
H402 H 0.14397 0.57289 0.86293 0.0
H403 H 0.12552 0.57434 0.88772 0.0
H404 H 0.1378 0.5613 0.89849 0.0
H405 H 0.15498 0.58892 0.89027 0.0
H406 H 0.11087 0.5693 0.8613 0.0
H407 H 0.09119 0.50057 0.86809 0.0
H408 H 0.05915 0.56244 0.85945 0.0
H409 H 0.08681 0.58031 0.85207 0.0
H410 H 0.06518 0.56012 0.83932 0.0
H411 H 0.05539 0.47095 0.86172 0.0
H412 H 0.03563 0.47807 0.86852 0.0
H413 H 0.03975 0.47692 0.84783 0.0
H414 H 0.96139 0.46634 0.92755 0.0
H415 H 0.90376 0.43415 0.93591 0.0
H416 H 0.94447 0.46788 0.94989 0.0
H417 H 0.93346 0.48108 0.94118 0.0
H418 H 0.95747 0.45717 0.89855 0.0
H419 H 0.96781 0.52329 0.90128 0.0
H420 H 0.97415 0.45988 0.85914 0.0
H421 H 0.99655 0.46611 0.8722 0.0
H422 H 0.96884 0.44463 0.8773 0.0
H423 H 0.9878 0.55055 0.88177 0.0
H424 H 0.01105 0.54865 0.87514 0.0
H425 H 0.9877 0.53968 0.86243 0.0
H426 H 0.87577 0.46782 0.80788 0.0
H427 H 0.89272 0.44416 0.79739 0.0
H428 H 0.9215 0.50874 0.77613 0.0
H429 H 0.93439 0.44798 0.81662 0.0
H430 H 0.91454 0.42795 0.80298 0.0
H431 H 0.94366 0.44289 0.79831 0.0
H432 H 0.95991 0.53422 0.77582 0.0
H433 H 0.97588 0.53018 0.79062 0.0
H434 H 0.97416 0.51978 0.77106 0.0
H435 H 0.08966 0.5158 0.75584 0.0
H436 H 0.11533 0.50169 0.75399 0.0
H437 H 0.09148 0.48444 0.76599 0.0
H438 H 0.09311 0.47524 0.74653 0.0
H439 H 0.03005 0.45354 0.76032 0.0
H440 H 0.06148 0.52382 0.75165 0.0
H441 H 0.00191 0.4515 0.79408 0.0
H442 H 0.98235 0.44644 0.7788 0.0
H443 H 0.99961 0.43445 0.77736 0.0
H444 H 0.04736 0.54554 0.76177 0.0
H445 H 0.01957 0.53108 0.76954 0.0
H446 H 0.04259 0.53904 0.78242 0.0
H447 H 0.02889 0.5166 0.87525 0.0
H448 H 0.96076 0.49749 0.84954 0.0
H449 H 0.94775 0.49047 0.82286 0.0
H450 H 0.97705 0.48335 0.77344 0.0
H451 H 0.04619 0.50542 0.79911 0.0
H452 H 0.0601 0.51554 0.82538 0.0
H453 H 0.85088 0.48047 0.78428 0.0
H454 H 0.84585 0.47611 0.80521 0.0
H455 H 0.87176 0.49891 0.79818 0.0
C456 C 0.48779 0.89002 0.92244 0.0
C457 C 0.47699 0.88314 0.93866 0.0
C458 C 0.49603 0.9169 0.95465 0.0
C459 C 0.47877 0.92045 0.95845 0.0
C460 C 0.48325 0.9417 0.96303 0.0
C461 C 0.50543 0.95966 0.96378 0.0
C462 C 0.52286 0.95599 0.96022 0.0
C463 C 0.5179 0.93449 0.95593 0.0
C464 C 0.46432 0.94498 0.96707 0.0
C465 C 0.54668 0.9748 0.9608 0.0
C466 C 0.48658 0.03495 0.88055 0.0
C467 C 0.50861 0.049 0.8892 0.0
C468 C 0.5081 0.04866 0.91767 0.0
C469 C 0.52785 0.0493 0.92102 0.0
C470 C 0.53027 0.04012 0.93501 0.0
C471 C 0.51244 0.02989 0.94574 0.0
C472 C 0.49285 0.03011 0.94267 0.0
C473 C 0.4911 0.03988 0.92874 0.0
C474 C 0.55158 0.04066 0.93805 0.0
C475 C 0.47343 0.01916 0.95374 0.0
C476 C 0.548 0.11746 0.03018 0.0
C477 C 0.56436 0.11499 0.0228 0.0
C478 C 0.56144 0.09372 0.0206 0.0
C479 C 0.54138 0.07455 0.02534 0.0
C480 C 0.52522 0.07712 0.03327 0.0
C481 C 0.52899 0.09865 0.03586 0.0
C482 C 0.5796 0.09177 0.0129 0.0
C483 C 0.50369 0.05714 0.0386 0.0
C484 C 0.54387 0.93024 0.07138 0.0
C485 C 0.52849 0.93916 0.07447 0.0
C486 C 0.53896 0.97627 0.06532 0.0
C487 C 0.55803 0.99415 0.05882 0.0
C488 C 0.55667 0.008 0.0475 0.0
C489 C 0.53568 0.0042 0.043 0.0
C490 C 0.5164 0.98702 0.05039 0.0
C491 C 0.51823 0.97305 0.06136 0.0
C492 C 0.57759 0.02621 0.03997 0.0
C493 C 0.49383 0.98308 0.04643 0.0
C494 C 0.51033 0.98236 0.96805 0.0
C495 C 0.50914 0.99546 0.95617 0.0
C496 C 0.51353 0.01703 0.95925 0.0
C497 C 0.51912 0.02582 0.97469 0.0
C498 C 0.52336 0.04732 0.97828 0.0
C499 C 0.52874 0.05573 0.99354 0.0
C500 C 0.53067 0.0432 0.00573 0.0
C501 C 0.53673 0.05185 0.0212 0.0
C502 C 0.53822 0.03881 0.03306 0.0
C503 C 0.53383 0.01723 0.02991 0.0
C504 C 0.52797 0.00841 0.01448 0.0
C505 C 0.52371 0.98688 0.01085 0.0
C506 C 0.5177 0.97822 0.9957 0.0
C507 C 0.51614 0.99091 0.98352 0.0
C508 C 0.52052 0.01272 0.98685 0.0
C509 C 0.52639 0.02145 0.00237 0.0
C510 C 0.54418 0.16514 0.02051 0.0
C511 C 0.55826 0.15432 0.02058 0.0
O512 O 0.49213 0.89659 0.95006 0.0
O513 O 0.54099 0.96231 0.0753 0.0
O514 O 0.55006 0.13773 0.03192 0.0
O515 O 0.50485 0.05572 0.90363 0.0
H516 H 0.46234 0.8851 0.9387 0.0
H517 H 0.4931 0.90773 0.92011 0.0
H518 H 0.50252 0.88824 0.92185 0.0
H519 H 0.47587 0.87951 0.9131 0.0
H520 H 0.46185 0.90662 0.95811 0.0
H521 H 0.53107 0.93142 0.95316 0.0
H522 H 0.46367 0.95658 0.95848 0.0
H523 H 0.44814 0.92902 0.96694 0.0
H524 H 0.467 0.95274 0.97891 0.0
H525 H 0.55819 0.96946 0.95674 0.0
H526 H 0.54895 0.98887 0.95334 0.0
H527 H 0.55116 0.98117 0.97304 0.0
H528 H 0.51542 0.03785 0.89084 0.0
H529 H 0.48929 0.0297 0.86884 0.0
H530 H 0.4756 0.01969 0.88748 0.0
H531 H 0.47808 0.04447 0.87897 0.0
H532 H 0.54121 0.05669 0.91257 0.0
H533 H 0.476 0.0397 0.92605 0.0
H534 H 0.5487 0.02355 0.93669 0.0
H535 H 0.56485 0.05193 0.92979 0.0
H536 H 0.55732 0.04623 0.9503 0.0
H537 H 0.45922 0.02039 0.94948 0.0
H538 H 0.46797 0.00124 0.95518 0.0
H539 H 0.47845 0.02715 0.96552 0.0
H540 H 0.55663 0.14682 0.00869 0.0
H541 H 0.5794 0.12967 0.01881 0.0
H542 H 0.51665 0.10086 0.04175 0.0
H543 H 0.57509 0.08652 0.00046 0.0
H544 H 0.59561 0.10792 0.01306 0.0
H545 H 0.5818 0.07892 0.01889 0.0
H546 H 0.4921 0.06196 0.04337 0.0
H547 H 0.49554 0.04537 0.02863 0.0
H548 H 0.50702 0.04812 0.0479 0.0
H549 H 0.51671 0.93365 0.06436 0.0
H550 H 0.53421 0.91171 0.0705 0.0
H551 H 0.55274 0.93705 0.0601 0.0
H552 H 0.55628 0.93531 0.08098 0.0
H553 H 0.57396 0.99665 0.06218 0.0
H554 H 0.50353 0.95959 0.06683 0.0
H555 H 0.57646 0.02406 0.02698 0.0
H556 H 0.57961 0.04273 0.04261 0.0
H557 H 0.5925 0.02627 0.0442 0.0
H558 H 0.48108 0.97166 0.05495 0.0
H559 H 0.49421 0.99917 0.04626 0.0
H560 H 0.48888 0.97554 0.03452 0.0
H561 H 0.50481 0.98878 0.9443 0.0
H562 H 0.52242 0.05782 0.96934 0.0
H563 H 0.5315 0.07226 0.9956 0.0
H564 H 0.54282 0.04553 0.04489 0.0
H565 H 0.5249 0.9764 0.01967 0.0
H566 H 0.51444 0.96148 0.99365 0.0
H567 H 0.54519 0.17304 0.03209 0.0
H568 H 0.54984 0.17805 0.01117 0.0
H569 H 0.52664 0.15225 0.01812 0.0
C570 C 0.5786 0.45595 0.09129 0.0
C571 C 0.58545 0.45427 0.10812 0.0
C572 C 0.57535 0.47885 0.12164 0.0
C573 C 0.55284 0.46303 0.12403 0.0
C574 C 0.53815 0.4697 0.12893 0.0
C575 C 0.54599 0.4927 0.13115 0.0
C576 C 0.56864 0.50866 0.12876 0.0
C577 C 0.58308 0.50144 0.12436 0.0
C578 C 0.51419 0.45216 0.1316 0.0
C579 C 0.57756 0.53338 0.13058 0.0
C580 C 0.45239 0.47565 0.0492 0.0
C581 C 0.46153 0.49869 0.05676 0.0
C582 C 0.46329 0.50018 0.08527 0.0
C583 C 0.48392 0.51966 0.08763 0.0
C584 C 0.49608 0.52265 0.10144 0.0
C585 C 0.48742 0.50573 0.11304 0.0
C586 C 0.4661 0.48658 0.111 0.0
C587 C 0.45414 0.48424 0.09719 0.0
C588 C 0.51849 0.54353 0.1034 0.0
C589 C 0.4564 0.46812 0.12306 0.0
C590 C 0.45255 0.56016 0.19709 0.0
C591 C 0.47248 0.57388 0.1892 0.0
C592 C 0.48744 0.56669 0.18652 0.0
C593 C 0.48195 0.54504 0.19142 0.0
C594 C 0.46205 0.53142 0.19974 0.0
C595 C 0.44779 0.53939 0.20272 0.0
C596 C 0.50897 0.58216 0.17831 0.0
C597 C 0.45561 0.5083 0.20521 0.0
C598 C 0.6074 0.51382 0.2328 0.0
C599 C 0.5845 0.50447 0.2401 0.0
C600 C 0.56528 0.52323 0.23191 0.0
C601 C 0.57181 0.54382 0.22496 0.0
C602 C 0.55819 0.54591 0.2139 0.0
C603 C 0.53739 0.52699 0.21007 0.0
C604 C 0.53004 0.50655 0.21801 0.0
C605 C 0.54412 0.50487 0.22883 0.0
C606 C 0.56641 0.56801 0.20581 0.0
C607 C 0.50764 0.48626 0.21461 0.0
C608 C 0.53031 0.50004 0.13534 0.0
C609 C 0.51676 0.50019 0.12342 0.0
C610 C 0.50159 0.50689 0.12637 0.0
C611 C 0.5001 0.51415 0.14161 0.0
C612 C 0.48534 0.52142 0.14495 0.0
C613 C 0.48403 0.52852 0.16001 0.0
C614 C 0.49761 0.52885 0.17229 0.0
C615 C 0.49675 0.53646 0.18758 0.0
C616 C 0.51003 0.53588 0.19959 0.0
C617 C 0.52427 0.52796 0.19676 0.0
C618 C 0.52575 0.52081 0.18147 0.0
C619 C 0.54024 0.51315 0.17817 0.0
C620 C 0.54162 0.50615 0.16312 0.0
C621 C 0.52871 0.50672 0.15074 0.0
C622 C 0.51374 0.51406 0.15384 0.0
C623 C 0.51238 0.52127 0.16921 0.0
C624 C 0.40542 0.56109 0.18652 0.0
C625 C 0.43059 0.57549 0.18785 0.0
O626 O 0.59009 0.47316 0.11666 0.0
O627 O 0.57982 0.5214 0.2413 0.0
O628 O 0.43765 0.56656 0.1994 0.0
O629 O 0.45213 0.49616 0.07149 0.0
H630 H 0.57187 0.43909 0.11384 0.0
H631 H 0.56347 0.45703 0.09144 0.0
H632 H 0.59202 0.47107 0.08539 0.0
H633 H 0.57491 0.44092 0.08434 0.0
H634 H 0.54655 0.44543 0.12223 0.0
H635 H 0.60046 0.51351 0.12253 0.0
H636 H 0.50394 0.45321 0.12212 0.0
H637 H 0.51137 0.43498 0.13162 0.0
H638 H 0.50843 0.45516 0.14298 0.0
H639 H 0.59483 0.54367 0.12632 0.0
H640 H 0.56704 0.53819 0.12401 0.0
H641 H 0.57721 0.53739 0.14317 0.0
H642 H 0.47974 0.50612 0.05773 0.0
H643 H 0.45951 0.47734 0.03727 0.0
H644 H 0.45694 0.46546 0.05651 0.0
H645 H 0.43409 0.46667 0.04824 0.0
H646 H 0.49062 0.53237 0.07857 0.0
H647 H 0.43804 0.46941 0.0953 0.0
H648 H 0.52004 0.55077 0.11531 0.0
H649 H 0.53151 0.53922 0.10228 0.0
H650 H 0.52154 0.55637 0.09445 0.0
H651 H 0.43974 0.45419 0.11961 0.0
H652 H 0.46748 0.46139 0.12469 0.0
H653 H 0.45513 0.47488 0.13457 0.0
H654 H 0.43743 0.57487 0.17617 0.0
H655 H 0.47636 0.59025 0.18525 0.0
H656 H 0.43243 0.52908 0.20897 0.0
H657 H 0.50818 0.57629 0.16606 0.0
H658 H 0.5125 0.5996 0.17788 0.0
H659 H 0.5229 0.5821 0.18434 0.0
H660 H 0.43853 0.49894 0.20995 0.0
H661 H 0.45687 0.49858 0.19533 0.0
H662 H 0.46718 0.5096 0.21458 0.0
H663 H 0.57267 0.49104 0.23197 0.0
H664 H 0.61165 0.5006 0.23207 0.0
H665 H 0.60745 0.51983 0.2207 0.0
H666 H 0.62026 0.52808 0.23981 0.0
H667 H 0.58805 0.55799 0.22767 0.0
H668 H 0.53876 0.48915 0.23474 0.0
H669 H 0.56774 0.56602 0.19297 0.0
H670 H 0.55437 0.57354 0.2075 0.0
H671 H 0.58279 0.58124 0.21034 0.0
H672 H 0.50327 0.47255 0.22311 0.0
H673 H 0.49471 0.49079 0.21496 0.0
H674 H 0.50758 0.48 0.20259 0.0
H675 H 0.51796 0.49485 0.11165 0.0
H676 H 0.47464 0.52171 0.13593 0.0
H677 H 0.47226 0.5338 0.1619 0.0
H678 H 0.50917 0.54155 0.21132 0.0
H679 H 0.55076 0.51251 0.18717 0.0
H680 H 0.553 0.50035 0.16131 0.0
H681 H 0.39753 0.56102 0.19784 0.0
H682 H 0.39927 0.56753 0.17709 0.0
H683 H 0.40047 0.54363 0.18352 0.0
Co684 Co 0.62105 0.39309 0.40697 0.0
O685 O 0.6414 0.39233 0.39246 0.0
O686 O 0.64895 0.42131 0.40758 0.0
C687 C 0.60989 0.3596 0.41787 0.0
O688 O 0.60459 0.39958 0.42378 0.0
Co689 Co 0.57114 0.35866 0.4045 0.0
O690 O 0.56971 0.37057 0.42538 0.0
C691 C 0.59184 0.39523 0.38152 0.0
C692 C 0.65561 0.41248 0.3971 0.0
C693 C 0.58559 0.3891 0.43054 0.0
O694 O 0.60967 0.40443 0.38979 0.0
O695 O 0.57511 0.37597 0.38467 0.0
O696 O 0.62788 0.37733 0.42264 0.0
O697 O 0.60021 0.36222 0.40584 0.0
Co698 Co 0.23461 0.61871 0.58077 0.0
O699 O 0.25533 0.6184 0.59528 0.0
O700 O 0.23493 0.59132 0.57827 0.0
C701 C 0.25736 0.65375 0.5721 0.0
O702 O 0.21228 0.61353 0.56358 0.0
Co703 Co 0.21814 0.65178 0.58485 0.0
O704 O 0.20567 0.64172 0.56344 0.0
C705 C 0.20205 0.61314 0.60614 0.0
C706 C 0.25002 0.59921 0.58921 0.0
C707 C 0.20364 0.62406 0.55736 0.0
O708 O 0.21072 0.60477 0.59725 0.0
O709 O 0.2048 0.63254 0.60393 0.0
O710 O 0.25842 0.63717 0.56621 0.0
O711 O 0.24395 0.64894 0.58377 0.0
Co712 Co 0.6328 0.24421 0.74638 0.0
O713 O 0.63356 0.26505 0.73127 0.0
O714 O 0.60541 0.24411 0.74706 0.0
C715 C 0.66656 0.2677 0.75654 0.0
O716 O 0.62608 0.22171 0.7639 0.0
Co717 Co 0.66564 0.22773 0.74547 0.0
O718 O 0.65375 0.21501 0.76648 0.0
C719 C 0.62831 0.20903 0.72301 0.0
C720 C 0.614 0.25942 0.73625 0.0
C721 C 0.63567 0.21288 0.77121 0.0
O722 O 0.62053 0.21995 0.72985 0.0
O723 O 0.64667 0.21082 0.72691 0.0
O724 O 0.64943 0.26828 0.76134 0.0
O725 O 0.66318 0.25413 0.74504 0.0
Co726 Co 0.39103 0.61877 0.91202 0.0
O727 O 0.37137 0.62068 0.89735 0.0
O728 O 0.36246 0.5915 0.91254 0.0
C729 C 0.40415 0.65297 0.92256 0.0
O730 O 0.40629 0.61104 0.92903 0.0
Co731 Co 0.44173 0.65122 0.91045 0.0
O732 O 0.4422 0.63774 0.93085 0.0
C733 C 0.41902 0.61601 0.88638 0.0
C734 C 0.35646 0.60084 0.90202 0.0
C735 C 0.42531 0.61988 0.93581 0.0
O736 O 0.4015 0.60641 0.89492 0.0
O737 O 0.43596 0.63504 0.88983 0.0
O738 O 0.38555 0.63613 0.92743 0.0
O739 O 0.41324 0.64891 0.9109 0.0
Co740 Co 0.77443 0.38829 0.07607 0.0
O741 O 0.75158 0.38576 0.08969 0.0
O742 O 0.77371 0.41558 0.07538 0.0
C743 C 0.75357 0.35478 0.06434 0.0
O744 O 0.79908 0.39684 0.06023 0.0
Co745 Co 0.79183 0.35613 0.07894 0.0
O746 O 0.80824 0.37051 0.05937 0.0
C747 C 0.80395 0.3909 0.10299 0.0
C748 C 0.75732 0.40578 0.08519 0.0
C749 C 0.8099 0.38843 0.05423 0.0
O750 O 0.79596 0.4 0.0942 0.0
O751 O 0.8022 0.37217 0.09967 0.0
O752 O 0.753 0.37209 0.05951 0.0
O753 O 0.76533 0.35775 0.0768 0.0
Co754 Co 0.40042 0.78168 0.23591 0.0
O755 O 0.40046 0.76159 0.22047 0.0
O756 O 0.42704 0.78038 0.23803 0.0
C757 C 0.3655 0.75859 0.24405 0.0
O758 O 0.40568 0.80303 0.25407 0.0
Co759 Co 0.36895 0.79984 0.23297 0.0
O760 O 0.37781 0.80966 0.25502 0.0
C761 C 0.40808 0.81785 0.21243 0.0
C762 C 0.41916 0.766 0.22652 0.0
C763 C 0.39504 0.81107 0.26097 0.0
O764 O 0.41507 0.80698 0.22032 0.0
O765 O 0.38938 0.81608 0.21499 0.0
O766 O 0.3816 0.75676 0.24962 0.0
O767 O 0.37064 0.77302 0.23289 0.0
C768 C 0.18084 0.60192 0.26897 0.0
C769 C 0.16408 0.60605 0.27323 0.0
C770 C 0.20267 0.61951 0.26747 0.0
C771 C 0.24942 0.65789 0.27191 0.0
H772 H 0.26039 0.71375 0.25412 0.0
C773 C 0.33819 0.73168 0.26336 0.0
C774 C 0.34256 0.74402 0.24944 0.0
C775 C 0.31646 0.71648 0.26785 0.0
C776 C 0.25766 0.69822 0.25899 0.0
H777 H 0.15708 0.63208 0.27891 0.0
H778 H 0.19527 0.66263 0.27708 0.0
H779 H 0.22262 0.68359 0.25847 0.0
H780 H 0.3277 0.75059 0.22945 0.0
H781 H 0.28982 0.72351 0.23689 0.0
H782 H 0.28435 0.67196 0.27154 0.0
C783 C 0.19155 0.64582 0.27465 0.0
C784 C 0.23594 0.68099 0.26173 0.0
C785 C 0.16965 0.62824 0.27592 0.0
C786 C 0.3248 0.74134 0.24028 0.0
C787 C 0.30305 0.72589 0.24463 0.0
C788 C 0.27111 0.67499 0.26897 0.0
C789 C 0.20834 0.64172 0.27027 0.0
C790 C 0.23151 0.6605 0.2681 0.0
C791 C 0.29859 0.71301 0.25836 0.0
C792 C 0.27553 0.69533 0.26234 0.0
H793 H 0.17692 0.58504 0.26648 0.0
H794 H 0.21499 0.61569 0.26369 0.0
H795 H 0.24673 0.64254 0.27709 0.0
H796 H 0.3516 0.73359 0.27073 0.0
H797 H 0.3137 0.7073 0.27869 0.0
C798 C 0.59327 0.19115 0.47503 0.0
C799 C 0.5933 0.17718 0.46312 0.0
C800 C 0.59131 0.2095 0.47129 0.0
C801 C 0.57266 0.23398 0.44187 0.0
H802 H 0.622 0.29087 0.45585 0.0
C803 C 0.59089 0.31807 0.41561 0.0
C804 C 0.6025 0.33752 0.42476 0.0
C805 C 0.58667 0.29753 0.42146 0.0
C806 C 0.60776 0.2752 0.45213 0.0
H807 H 0.59096 0.17143 0.43788 0.0
H808 H 0.5868 0.20314 0.43143 0.0
H809 H 0.61963 0.25642 0.46402 0.0
H810 H 0.61736 0.35068 0.44753 0.0
H811 H 0.60889 0.31478 0.45814 0.0
H812 H 0.56045 0.25258 0.43021 0.0
C813 C 0.58829 0.19975 0.44366 0.0
C814 C 0.60654 0.25545 0.45675 0.0
C815 C 0.59069 0.18162 0.44737 0.0
C816 C 0.60862 0.33592 0.44018 0.0
C817 C 0.60394 0.31534 0.44618 0.0
C818 C 0.5736 0.25375 0.43748 0.0
C819 C 0.58902 0.21407 0.45557 0.0
C820 C 0.58917 0.23471 0.4515 0.0
C821 C 0.59356 0.29597 0.43673 0.0
C822 C 0.59136 0.27469 0.44237 0.0
H823 H 0.59545 0.18822 0.48723 0.0
H824 H 0.59193 0.22034 0.48066 0.0
H825 H 0.55902 0.21811 0.43776 0.0
H826 H 0.58609 0.3189 0.40363 0.0
H827 H 0.57889 0.28315 0.41372 0.0
C828 C 0.3905 0.57088 0.6422 0.0
C829 C 0.40776 0.57485 0.63201 0.0
C830 C 0.37064 0.5678 0.63631 0.0
C831 C 0.3479 0.57971 0.60063 0.0
H832 H 0.29325 0.54741 0.62416 0.0
C833 C 0.2674 0.57689 0.5824 0.0
C834 C 0.2622 0.58814 0.59371 0.0
C835 C 0.28233 0.57002 0.58603 0.0
C836 C 0.30836 0.55626 0.6174 0.0
H837 H 0.41745 0.57817 0.60748 0.0
H838 H 0.38243 0.57154 0.59714 0.0
H839 H 0.32499 0.54451 0.63188 0.0
H840 H 0.26726 0.59978 0.61785 0.0
H841 H 0.29258 0.58689 0.62437 0.0
H842 H 0.33096 0.59122 0.58611 0.0
C843 C 0.38439 0.57144 0.60977 0.0
C844 C 0.32666 0.55485 0.62189 0.0
C845 C 0.40445 0.57498 0.6157 0.0
C846 C 0.271 0.59112 0.60895 0.0
C847 C 0.28541 0.5837 0.61269 0.0
C848 C 0.32945 0.58068 0.59595 0.0
C849 C 0.36735 0.56829 0.62 0.0
C850 C 0.34694 0.56715 0.61389 0.0
C851 C 0.2917 0.57371 0.60114 0.0
C852 C 0.30974 0.56947 0.60455 0.0
H853 H 0.3927 0.57097 0.65482 0.0
H854 H 0.35827 0.56595 0.64466 0.0
H855 H 0.36319 0.58974 0.59428 0.0
H856 H 0.26097 0.57461 0.57053 0.0
H857 H 0.28704 0.56239 0.57695 0.0
C858 C 0.84549 0.4331 0.77776 0.0
C859 C 0.85049 0.44228 0.79302 0.0
C860 C 0.8273 0.41163 0.77517 0.0
C861 C 0.77262 0.3748 0.79012 0.0
H862 H 0.77319 0.32809 0.76583 0.0
C863 C 0.69151 0.29289 0.77768 0.0
C864 C 0.68886 0.28347 0.76267 0.0
C865 C 0.71233 0.30976 0.78285 0.0
C866 C 0.77266 0.34102 0.77248 0.0
H867 H 0.84039 0.43628 0.81743 0.0
H868 H 0.80827 0.39894 0.81281 0.0
H869 H 0.80795 0.36268 0.77164 0.0
H870 H 0.70583 0.28366 0.74144 0.0
H871 H 0.74195 0.31388 0.75002 0.0
H872 H 0.73754 0.35417 0.79029 0.0
C873 C 0.81868 0.40821 0.80296 0.0
C874 C 0.7926 0.36075 0.77588 0.0
C875 C 0.83705 0.42948 0.8056 0.0
C876 C 0.70749 0.2906 0.75311 0.0
C877 C 0.72824 0.30788 0.75811 0.0
C878 C 0.75271 0.35534 0.78649 0.0
C879 C 0.81349 0.39922 0.7877 0.0
C880 C 0.79271 0.37781 0.78469 0.0
C881 C 0.73087 0.31806 0.77293 0.0
C882 C 0.75238 0.33817 0.77756 0.0
H883 H 0.85528 0.44268 0.76779 0.0
H884 H 0.82344 0.40515 0.76326 0.0
H885 H 0.77226 0.38787 0.79674 0.0
H886 H 0.67742 0.28745 0.78535 0.0
H887 H 0.71373 0.31661 0.79452 0.0
C888 C 0.44858 0.84214 0.9358 0.0
C889 C 0.46918 0.85884 0.94168 0.0
C890 C 0.44183 0.8196 0.93728 0.0
C891 C 0.42673 0.77225 0.94679 0.0
H892 H 0.47129 0.75668 0.93955 0.0
C893 C 0.40326 0.68021 0.94133 0.0
C894 C 0.41349 0.67579 0.92887 0.0
C895 C 0.41108 0.70223 0.94614 0.0
C896 C 0.45861 0.76071 0.94155 0.0
H897 H 0.499 0.86495 0.95362 0.0
H898 H 0.48684 0.82565 0.95682 0.0
H899 H 0.48221 0.79572 0.94138 0.0
H900 H 0.44035 0.69079 0.91205 0.0
H901 H 0.45353 0.72895 0.92006 0.0
H902 H 0.40295 0.73724 0.94584 0.0
C903 C 0.47597 0.82993 0.95086 0.0
C904 C 0.46492 0.78316 0.94285 0.0
C905 C 0.48285 0.85249 0.94919 0.0
C906 C 0.43211 0.69366 0.9217 0.0
C907 C 0.4398 0.71559 0.92641 0.0
C908 C 0.42038 0.74979 0.9453 0.0
C909 C 0.4555 0.81319 0.94473 0.0
C910 C 0.44901 0.78925 0.94513 0.0
C911 C 0.4292 0.72022 0.93852 0.0
C912 C 0.4362 0.74378 0.94228 0.0
H913 H 0.43793 0.84659 0.92969 0.0
H914 H 0.42619 0.80726 0.93207 0.0
H915 H 0.41407 0.77629 0.94888 0.0
H916 H 0.38894 0.66673 0.94712 0.0
H917 H 0.40272 0.70517 0.95566 0.0
C918 C 0.62708 0.46998 0.10967 0.0
C919 C 0.60544 0.45164 0.10773 0.0
C920 C 0.64521 0.46707 0.10884 0.0
C921 C 0.65951 0.4226 0.10973 0.0
H922 H 0.7143 0.46848 0.091 0.0
C923 C 0.73247 0.40907 0.10427 0.0
C924 C 0.74455 0.41599 0.09023 0.0
C925 C 0.71796 0.41629 0.10814 0.0
C926 C 0.69908 0.4554 0.09616 0.0
H927 H 0.586 0.41624 0.10259 0.0
H928 H 0.6175 0.41125 0.10052 0.0
H929 H 0.68359 0.47466 0.09367 0.0
H930 H 0.75167 0.43648 0.06947 0.0
H931 H 0.72559 0.44832 0.07578 0.0
H932 H 0.67427 0.40272 0.11128 0.0
C933 C 0.62054 0.4277 0.10341 0.0
C934 C 0.68152 0.45909 0.09791 0.0
C935 C 0.60244 0.43055 0.10449 0.0
C936 C 0.74261 0.43101 0.08043 0.0
C937 C 0.72769 0.43785 0.08411 0.0
C938 C 0.67687 0.41878 0.10775 0.0
C939 C 0.64218 0.44587 0.1057 0.0
C940 C 0.6614 0.44262 0.10457 0.0
C941 C 0.71475 0.43012 0.09784 0.0
C942 C 0.69687 0.43504 0.10083 0.0
H943 H 0.63003 0.48657 0.11188 0.0
H944 H 0.66158 0.48143 0.11079 0.0
H945 H 0.64448 0.40968 0.11521 0.0
H946 H 0.7339 0.39769 0.11214 0.0
H947 H 0.70888 0.41053 0.11906 0.0
C948 C 0.40978 0.84086 0.54846 0.0
C949 C 0.40576 0.85809 0.54504 0.0
C950 C 0.39242 0.81866 0.549 0.0
C951 C 0.35479 0.77169 0.54312 0.0
H952 H 0.29932 0.75937 0.56124 0.0
C953 C 0.28314 0.68119 0.55226 0.0
C954 C 0.27141 0.67684 0.56641 0.0
C955 C 0.29765 0.70318 0.54748 0.0
C956 C 0.31474 0.76247 0.55625 0.0
H957 H 0.38016 0.86551 0.53968 0.0
H958 H 0.35002 0.82673 0.53983 0.0
H959 H 0.32879 0.7978 0.55738 0.0
H960 H 0.26524 0.69197 0.5865 0.0
H961 H 0.29109 0.73021 0.57856 0.0
H962 H 0.34131 0.73642 0.54301 0.0
C963 C 0.36657 0.83035 0.54238 0.0
C964 C 0.33158 0.78458 0.55379 0.0
C965 C 0.38392 0.85262 0.5421 0.0
C966 C 0.27402 0.69484 0.57549 0.0
C967 C 0.28875 0.7168 0.57085 0.0
C968 C 0.33808 0.74959 0.54582 0.0
C969 C 0.37055 0.81309 0.54601 0.0
C970 C 0.35197 0.78951 0.54742 0.0
C971 C 0.30098 0.72129 0.55688 0.0
C972 C 0.31795 0.74469 0.55265 0.0
H973 H 0.42639 0.84466 0.55108 0.0
H974 H 0.39615 0.80597 0.55222 0.0
H975 H 0.37008 0.77478 0.53789 0.0
H976 H 0.28127 0.6676 0.54495 0.0
H977 H 0.30641 0.70595 0.53649 0.0
C978 C 0.54435 0.38542 0.70917 0.0
C979 C 0.56174 0.40752 0.71173 0.0
C980 C 0.54805 0.36763 0.71017 0.0
C981 C 0.55713 0.33193 0.72173 0.0
H982 H 0.61434 0.34173 0.70972 0.0
C983 C 0.58777 0.2729 0.74041 0.0
C984 C 0.60318 0.27151 0.73084 0.0
C985 C 0.5803 0.28733 0.73646 0.0
C986 C 0.59809 0.33844 0.71288 0.0
H987 H 0.59623 0.42812 0.71821 0.0
H988 H 0.60261 0.39719 0.72044 0.0
H989 H 0.60622 0.37101 0.70554 0.0
H990 H 0.62157 0.28267 0.70905 0.0
H991 H 0.60778 0.30695 0.70174 0.0
H992 H 0.5488 0.29904 0.72863 0.0
C993 C 0.58633 0.39357 0.71696 0.0
C994 C 0.59357 0.35548 0.71074 0.0
C995 C 0.58269 0.41133 0.71577 0.0
C996 C 0.60988 0.28364 0.71675 0.0
C997 C 0.60211 0.29772 0.71264 0.0
C998 C 0.56155 0.31473 0.72369 0.0
C999 C 0.56911 0.37148 0.71407 0.0
C1000 C 0.57319 0.35264 0.71539 0.0
C1001 C 0.58783 0.30038 0.72271 0.0
C1002 C 0.58222 0.31787 0.7195 0.0
H1003 H 0.52787 0.38186 0.7064 0.0
H1004 H 0.53442 0.35089 0.70778 0.0
H1005 H 0.5413 0.32915 0.72558 0.0
H1006 H 0.58242 0.26381 0.75139 0.0
H1007 H 0.56949 0.28903 0.7446 0.0
C1008 C 0.16317 0.54387 0.88308 0.0
C1009 C 0.16271 0.5602 0.87372 0.0
C1010 C 0.18259 0.54332 0.88458 0.0
C1011 C 0.23756 0.56415 0.86662 0.0
H1012 H 0.25555 0.56032 0.90906 0.0
C1013 C 0.32803 0.60075 0.88456 0.0
C1014 C 0.33343 0.59027 0.89633 0.0
C1015 C 0.30605 0.59241 0.88032 0.0
C1016 C 0.25061 0.56093 0.89709 0.0
H1017 H 0.1822 0.5888 0.85871 0.0
H1018 H 0.21611 0.5879 0.86133 0.0
H1019 H 0.21888 0.55443 0.90443 0.0
H1020 H 0.32012 0.5622 0.91238 0.0
H1021 H 0.28154 0.54752 0.9049 0.0
H1022 H 0.26955 0.5713 0.85934 0.0
C1023 C 0.20137 0.57524 0.86726 0.0
C1024 C 0.22959 0.55759 0.89444 0.0
C1025 C 0.182 0.57584 0.86581 0.0
C1026 C 0.31644 0.57068 0.9033 0.0
C1027 C 0.29437 0.56235 0.89908 0.0
C1028 C 0.25856 0.56745 0.86926 0.0
C1029 C 0.20194 0.55911 0.87678 0.0
C1030 C 0.22306 0.55975 0.87924 0.0
C1031 C 0.28892 0.5734 0.88776 0.0
C1032 C 0.26555 0.56648 0.88458 0.0
H1033 H 0.14858 0.53174 0.88943 0.0
H1034 H 0.1825 0.53064 0.89195 0.0
H1035 H 0.23284 0.56551 0.85473 0.0
H1036 H 0.34075 0.61585 0.87893 0.0
H1037 H 0.30245 0.60152 0.8717 0.0
C1038 C 0.59116 0.17661 0.03895 0.0
C1039 C 0.58224 0.17189 0.02364 0.0
C1040 C 0.61264 0.19448 0.04165 0.0
C1041 C 0.65062 0.24945 0.02684 0.0
H1042 H 0.69501 0.24723 0.05232 0.0
C1043 C 0.73111 0.33045 0.04198 0.0
C1044 C 0.73903 0.33249 0.0574 0.0
C1045 C 0.71497 0.30963 0.03608 0.0
C1046 C 0.68274 0.24822 0.04531 0.0
H1047 H 0.58875 0.1821 0.99925 0.0
H1048 H 0.62616 0.21369 0.00406 0.0
H1049 H 0.66063 0.21263 0.04579 0.0
H1050 H 0.73709 0.31436 0.07856 0.0
H1051 H 0.70816 0.27822 0.06866 0.0
H1052 H 0.67165 0.28486 0.02704 0.0
C1053 C 0.61664 0.2033 0.01386 0.0
C1054 C 0.66313 0.22836 0.04151 0.0
C1055 C 0.59533 0.18524 0.01112 0.0
C1056 C 0.73129 0.31322 0.06659 0.0
C1057 C 0.71476 0.29244 0.06084 0.0
C1058 C 0.66996 0.26928 0.03086 0.0
C1059 C 0.62538 0.20825 0.02918 0.0
C1060 C 0.64685 0.22886 0.03234 0.0
C1061 C 0.70593 0.29045 0.04563 0.0
C1062 C 0.68625 0.26902 0.04028 0.0
H1063 H 0.58136 0.16688 0.04888 0.0
H1064 H 0.61892 0.19816 0.0536 0.0
H1065 H 0.63817 0.25029 0.01993 0.0
H1066 H 0.73705 0.34506 0.03458 0.0
H1067 H 0.70917 0.30873 0.02415 0.0
C1068 C 0.4385 0.60664 0.20725 0.0
C1069 C 0.43745 0.59941 0.19163 0.0
C1070 C 0.44199 0.6279 0.21039 0.0
C1071 C 0.42935 0.6673 0.19341 0.0
H1072 H 0.4698 0.70972 0.22427 0.0
C1073 C 0.4276 0.7466 0.20566 0.0
C1074 C 0.42948 0.75336 0.2214 0.0
C1075 C 0.43349 0.73116 0.20117 0.0
C1076 C 0.45825 0.69798 0.21572 0.0
H1077 H 0.43927 0.60874 0.16716 0.0
H1078 H 0.44506 0.64575 0.17266 0.0
H1079 H 0.47068 0.67585 0.21849 0.0
H1080 H 0.43985 0.75019 0.24472 0.0
H1081 H 0.44909 0.72229 0.23714 0.0
H1082 H 0.41587 0.68824 0.19115 0.0
C1083 C 0.44352 0.6351 0.18242 0.0
C1084 C 0.45887 0.67866 0.21237 0.0
C1085 C 0.44031 0.614 0.17929 0.0
C1086 C 0.43845 0.74533 0.23247 0.0
C1087 C 0.44378 0.72935 0.22807 0.0
C1088 C 0.42845 0.68631 0.19692 0.0
C1089 C 0.444 0.6421 0.19799 0.0
C1090 C 0.44439 0.66315 0.20119 0.0
C1091 C 0.44066 0.72148 0.21243 0.0
C1092 C 0.44284 0.70196 0.20814 0.0
H1093 H 0.43591 0.59561 0.217 0.0
H1094 H 0.44201 0.6328 0.2225 0.0
H1095 H 0.41771 0.65541 0.18494 0.0
H1096 H 0.42091 0.75277 0.19689 0.0
H1097 H 0.43163 0.72622 0.18892 0.0
C1098 C 0.8296 0.43813 0.36303 0.0
C1099 C 0.84185 0.45115 0.35012 0.0
C1100 C 0.81243 0.44021 0.36924 0.0
C1101 C 0.77247 0.45551 0.35655 0.0
H1102 H 0.75608 0.44699 0.40062 0.0
C1103 C 0.68323 0.41608 0.37741 0.0
C1104 C 0.67851 0.42396 0.39117 0.0
C1105 C 0.705 0.42488 0.37253 0.0
C1106 C 0.76062 0.44979 0.38831 0.0
H1107 H 0.8461 0.47686 0.33383 0.0
H1108 H 0.81629 0.48072 0.34477 0.0
H1109 H 0.79193 0.4528 0.39271 0.0
H1110 H 0.69279 0.44774 0.41037 0.0
H1111 H 0.73117 0.46307 0.40188 0.0
H1112 H 0.74098 0.45193 0.35209 0.0
C1113 C 0.81987 0.46883 0.35005 0.0
C1114 C 0.78103 0.45287 0.38376 0.0
C1115 C 0.83701 0.46673 0.34385 0.0
C1116 C 0.69598 0.44142 0.39968 0.0
C1117 C 0.7179 0.45007 0.39489 0.0
C1118 C 0.75208 0.45237 0.36108 0.0
C1119 C 0.80706 0.45525 0.3626 0.0
C1120 C 0.78693 0.45517 0.36778 0.0
C1121 C 0.72261 0.44164 0.38137 0.0
C1122 C 0.74566 0.44884 0.37695 0.0
H1123 H 0.83279 0.42578 0.36795 0.0
H1124 H 0.80269 0.42924 0.37874 0.0
H1125 H 0.77638 0.45706 0.34413 0.0
H1126 H 0.6701 0.40267 0.37058 0.0
H1127 H 0.70806 0.41782 0.36218 0.0
C1128 C 0.09407 0.56581 0.43501 0.0
C1129 C 0.09077 0.54565 0.42878 0.0
C1130 C 0.10557 0.57432 0.44917 0.0
C1131 C 0.12446 0.55783 0.48461 0.0
H1132 H 0.16588 0.62153 0.48871 0.0
C1133 C 0.18738 0.59552 0.53565 0.0
C1134 C 0.19051 0.61519 0.54267 0.0
C1135 C 0.17487 0.58714 0.52187 0.0
C1136 C 0.1542 0.60373 0.48781 0.0
H1137 H 0.09784 0.51923 0.43205 0.0
H1138 H 0.11814 0.53416 0.45662 0.0
H1139 H 0.14444 0.60675 0.46454 0.0
H1140 H 0.18289 0.64149 0.54059 0.0
H1141 H 0.16102 0.62677 0.51666 0.0
H1142 H 0.1344 0.5548 0.50783 0.0
C1143 C 0.11121 0.54302 0.45089 0.0
C1144 C 0.14187 0.59525 0.47397 0.0
C1145 C 0.09964 0.53449 0.43681 0.0
C1146 C 0.18089 0.62632 0.53553 0.0
C1147 C 0.16843 0.61796 0.52174 0.0
C1148 C 0.13683 0.56629 0.49842 0.0
C1149 C 0.1143 0.56303 0.45727 0.0
C1150 C 0.12692 0.57218 0.47217 0.0
C1151 C 0.16524 0.59826 0.51477 0.0
C1152 C 0.15191 0.58932 0.50016 0.0
H1153 H 0.08783 0.57504 0.42891 0.0
H1154 H 0.10755 0.5897 0.45379 0.0
H1155 H 0.11281 0.54002 0.48374 0.0
H1156 H 0.1946 0.58654 0.54077 0.0
H1157 H 0.17296 0.57207 0.51668 0.0
C1158 C 0.53117 0.05054 0.62366 0.0
C1159 C 0.51627 0.05613 0.608 0.0
C1160 C 0.54553 0.07282 0.63767 0.0
C1161 C 0.54461 0.12468 0.65745 0.0
H1162 H 0.60533 0.14191 0.66594 0.0
C1163 C 0.6001 0.19593 0.70128 0.0
C1164 C 0.6153 0.19322 0.71023 0.0
C1165 C 0.5882 0.18102 0.68904 0.0
C1166 C 0.58829 0.1371 0.66395 0.0
H1167 H 0.4961 0.07774 0.60199 0.0
H1168 H 0.51923 0.11168 0.62593 0.0
H1169 H 0.5842 0.11353 0.64619 0.0
H1170 H 0.62937 0.17236 0.71375 0.0
H1171 H 0.60809 0.14597 0.69304 0.0
H1172 H 0.54832 0.14759 0.67565 0.0
C1173 C 0.52175 0.09772 0.62509 0.0
C1174 C 0.57623 0.12089 0.65255 0.0
C1175 C 0.50657 0.07622 0.61058 0.0
C1176 C 0.61805 0.17511 0.70691 0.0
C1177 C 0.60591 0.16004 0.69491 0.0
C1178 C 0.55654 0.14066 0.66912 0.0
C1179 C 0.54145 0.09633 0.63793 0.0
C1180 C 0.55426 0.11438 0.64933 0.0
C1181 C 0.59099 0.16289 0.68567 0.0
C1182 C 0.57849 0.14687 0.67267 0.0
H1183 H 0.53497 0.03745 0.62252 0.0
H1184 H 0.55677 0.07212 0.64596 0.0
H1185 H 0.52759 0.1198 0.65522 0.0
H1186 H 0.59771 0.2098 0.70355 0.0
H1187 H 0.57709 0.18395 0.6821 0.0
C1188 C 0.46445 0.52158 0.78625 0.0
C1189 C 0.48304 0.53848 0.77836 0.0
C1190 C 0.45168 0.52689 0.79576 0.0
C1191 C 0.44153 0.57273 0.80567 0.0
H1192 H 0.42869 0.54622 0.84725 0.0
C1193 C 0.43584 0.61692 0.86041 0.0
C1194 C 0.42012 0.60458 0.87205 0.0
C1195 C 0.43808 0.60627 0.8473 0.0
C1196 C 0.43169 0.55344 0.83559 0.0
H1197 H 0.50286 0.57412 0.77419 0.0
H1198 H 0.48078 0.58348 0.79087 0.0
H1199 H 0.44276 0.53208 0.82703 0.0
H1200 H 0.39389 0.57142 0.87881 0.0
H1201 H 0.39813 0.55266 0.85586 0.0
H1202 H 0.43149 0.59482 0.81454 0.0
C1203 C 0.47568 0.56606 0.78945 0.0
C1204 C 0.43976 0.54534 0.82398 0.0
C1205 C 0.48841 0.56074 0.77995 0.0
C1206 C 0.40619 0.58137 0.87005 0.0
C1207 C 0.40864 0.57064 0.85696 0.0
C1208 C 0.43357 0.58088 0.8173 0.0
C1209 C 0.45734 0.54924 0.79764 0.0
C1210 C 0.44544 0.55537 0.80905 0.0
C1211 C 0.42478 0.58299 0.84556 0.0
C1212 C 0.42924 0.57178 0.83251 0.0
H1213 H 0.46008 0.5043 0.78532 0.0
H1214 H 0.43758 0.51355 0.80184 0.0
H1215 H 0.44531 0.5805 0.79418 0.0
H1216 H 0.4467 0.63485 0.86151 0.0
H1217 H 0.45086 0.61621 0.83882 0.0
C1218 C 0.90613 0.45597 0.92078 0.0
C1219 C 0.92723 0.44755 0.9209 0.0
C1220 C 0.89502 0.45597 0.93986 0.0
C1221 C 0.90014 0.44158 0.98596 0.0
H1222 H 0.83979 0.42869 0.98625 0.0
C1223 C 0.84011 0.3939 0.03602 0.0
C1224 C 0.82492 0.40001 0.04084 0.0
C1225 C 0.85387 0.40427 0.02315 0.0
C1226 C 0.8568 0.43275 0.98644 0.0
H1227 H 0.93971 0.42339 0.93567 0.0
H1228 H 0.91912 0.4226 0.96509 0.0
H1229 H 0.86035 0.43875 0.96164 0.0
H1230 H 0.81255 0.42211 0.036 0.0
H1231 H 0.83656 0.44011 0.01336 0.0
H1232 H 0.89632 0.43475 0.01066 0.0
C1233 C 0.91696 0.43069 0.95501 0.0
C1234 C 0.86862 0.43858 0.97232 0.0
C1235 C 0.92872 0.42983 0.93652 0.0
C1236 C 0.82406 0.41699 0.0326 0.0
C1237 C 0.83774 0.42726 0.0196 0.0
C1238 C 0.88837 0.43579 6e-05 0.0
C1239 C 0.90103 0.44417 0.95672 0.0
C1240 C 0.89012 0.4423 0.97189 0.0
C1241 C 0.85272 0.42092 0.0147 0.0
C1242 C 0.86632 0.43057 0.00035 0.0
H1243 H 0.90404 0.46439 0.91085 0.0
H1244 H 0.88455 0.46294 0.94112 0.0
H1245 H 0.9169 0.44488 0.98604 0.0
H1246 H 0.8413 0.38097 0.04212 0.0
H1247 H 0.86499 0.39876 0.01954 0.0
C1248 C 0.49451 0.91037 0.08901 0.0
C1249 C 0.51581 0.92944 0.08957 0.0
C1250 C 0.48333 0.89998 0.10286 0.0
C1251 C 0.45866 0.8875 0.13375 0.0
H1252 H 0.4913 0.88056 0.16775 0.0
C1253 C 0.4169 0.84787 0.19265 0.0
C1254 C 0.422 0.8328 0.19957 0.0
C1255 C 0.42919 0.86116 0.17998 0.0
C1256 C 0.48192 0.88223 0.15833 0.0
H1257 H 0.54231 0.95237 0.10507 0.0
H1258 H 0.52259 0.93454 0.12935 0.0
H1259 H 0.51071 0.90065 0.14404 0.0
H1260 H 0.44435 0.82022 0.19871 0.0
H1261 H 0.46553 0.8431 0.17639 0.0
H1262 H 0.42976 0.8684 0.14774 0.0
C1263 C 0.51454 0.92754 0.11818 0.0
C1264 C 0.4931 0.89402 0.14482 0.0
C1265 C 0.52575 0.93791 0.1043 0.0
C1266 C 0.44001 0.8317 0.19371 0.0
C1267 C 0.45223 0.84491 0.18094 0.0
C1268 C 0.44749 0.87567 0.14723 0.0
C1269 C 0.49325 0.90835 0.11763 0.0
C1270 C 0.48158 0.89667 0.13231 0.0
C1271 C 0.4468 0.85963 0.1738 0.0
C1272 C 0.45894 0.87279 0.15967 0.0
H1273 H 0.48665 0.90323 0.07781 0.0
H1274 H 0.46714 0.885 0.10196 0.0
H1275 H 0.4493 0.88943 0.12445 0.0
H1276 H 0.4033 0.84937 0.19696 0.0
H1277 H 0.42482 0.87263 0.175 0.0
C1278 C 0.59678 0.50808 0.26859 0.0
C1279 C 0.58337 0.49458 0.25614 0.0
C1280 C 0.59696 0.49854 0.283 0.0
C1281 C 0.56516 0.44878 0.3077 0.0
H1282 H 0.62234 0.46381 0.32443 0.0
C1283 C 0.57368 0.39657 0.3565 0.0
C1284 C 0.59051 0.40756 0.36779 0.0
C1285 C 0.57249 0.40811 0.3435 0.0
C1286 C 0.60623 0.45968 0.32012 0.0
H1287 H 0.55899 0.4607 0.24922 0.0
H1288 H 0.55906 0.44409 0.27446 0.0
H1289 H 0.62036 0.48272 0.30099 0.0
H1290 H 0.61913 0.43949 0.37437 0.0
H1291 H 0.61671 0.45975 0.35194 0.0
H1292 H 0.55095 0.4259 0.32685 0.0
C1293 C 0.5695 0.46201 0.27304 0.0
C1294 C 0.60512 0.47051 0.30665 0.0
C1295 C 0.56952 0.4715 0.25859 0.0
C1296 C 0.60604 0.43044 0.36583 0.0
C1297 C 0.60471 0.44206 0.35291 0.0
C1298 C 0.56625 0.43812 0.32127 0.0
C1299 C 0.58347 0.47538 0.28531 0.0
C1300 C 0.58458 0.46497 0.3002 0.0
C1301 C 0.58796 0.43103 0.34154 0.0
C1302 C 0.5868 0.44321 0.32755 0.0
H1303 H 0.60744 0.52595 0.26706 0.0
H1304 H 0.60771 0.50925 0.29232 0.0
H1305 H 0.54911 0.44439 0.30308 0.0
H1306 H 0.56154 0.37891 0.35756 0.0
H1307 H 0.55963 0.39893 0.33484 0.0
C1308 C 0.47892 0.90957 0.385 0.0
C1309 C 0.46754 0.91852 0.39259 0.0
C1310 C 0.47099 0.89778 0.37088 0.0
C1311 C 0.42029 0.8667 0.34678 0.0
H1312 H 0.46163 0.87597 0.31349 0.0
C1313 C 0.39195 0.83177 0.28401 0.0
C1314 C 0.40325 0.82279 0.27628 0.0
C1315 C 0.39966 0.84299 0.29835 0.0
C1316 C 0.4499 0.87299 0.32273 0.0
H1317 H 0.43837 0.92126 0.39171 0.0
H1318 H 0.42473 0.90109 0.3668 0.0
H1319 H 0.47526 0.8967 0.33808 0.0
H1320 H 0.43149 0.81846 0.27776 0.0
H1321 H 0.44485 0.83797 0.30286 0.0
H1322 H 0.39492 0.84306 0.33137 0.0
C1323 C 0.43982 0.9032 0.37177 0.0
C1324 C 0.45771 0.88488 0.33684 0.0
C1325 C 0.44774 0.91497 0.38594 0.0
C1326 C 0.42241 0.82523 0.28332 0.0
C1327 C 0.43014 0.83651 0.29768 0.0
C1328 C 0.41249 0.85483 0.33266 0.0
C1329 C 0.45138 0.89449 0.36407 0.0
C1330 C 0.443 0.8819 0.34903 0.0
C1331 C 0.41887 0.84555 0.30534 0.0
C1332 C 0.4272 0.85785 0.32046 0.0
H1333 H 0.49391 0.91156 0.39008 0.0
H1334 H 0.48004 0.89088 0.36545 0.0
H1335 H 0.40855 0.86372 0.35602 0.0
H1336 H 0.37715 0.83026 0.27896 0.0
H1337 H 0.39074 0.85 0.30383 0.0
C1338 C 0.53675 0.45267 0.55034 0.0
C1339 C 0.55323 0.47391 0.5557 0.0
C1340 C 0.53975 0.44372 0.53651 0.0
C1341 C 0.57376 0.45936 0.50027 0.0
H1342 H 0.55441 0.39637 0.49925 0.0
C1343 C 0.5985 0.41986 0.45063 0.0
C1344 C 0.58183 0.39902 0.44477 0.0
C1345 C 0.59483 0.42912 0.46403 0.0
C1346 C 0.55971 0.41394 0.49929 0.0
H1347 H 0.58608 0.50197 0.55113 0.0
H1348 H 0.59149 0.4863 0.5271 0.0
H1349 H 0.54806 0.41227 0.52275 0.0
H1350 H 0.5482 0.37161 0.44851 0.0
H1351 H 0.54186 0.38783 0.47178 0.0
H1352 H 0.58562 0.46102 0.47685 0.0
C1353 C 0.57594 0.47685 0.53328 0.0
C1354 C 0.55602 0.42306 0.51275 0.0
C1355 C 0.57289 0.48582 0.54706 0.0
C1356 C 0.56145 0.38767 0.45267 0.0
C1357 C 0.55782 0.3969 0.46608 0.0
C1358 C 0.57752 0.45026 0.48684 0.0
C1359 C 0.55943 0.45566 0.52785 0.0
C1360 C 0.56301 0.44588 0.51341 0.0
C1361 C 0.57446 0.41772 0.47192 0.0
C1362 C 0.57054 0.42744 0.4862 0.0
H1363 H 0.52161 0.44289 0.55694 0.0
H1364 H 0.52662 0.42744 0.5326 0.0
H1365 H 0.57906 0.47693 0.50029 0.0
H1366 H 0.61442 0.42905 0.44488 0.0
H1367 H 0.60806 0.44509 0.46835 0.0
C1368 C 0.09241 0.4979 0.71852 0.0
C1369 C 0.09434 0.51174 0.73122 0.0
C1370 C 0.10184 0.50717 0.70396 0.0
C1371 C 0.12127 0.55702 0.6795 0.0
H1372 H 0.16147 0.54087 0.66136 0.0
C1373 C 0.18297 0.61038 0.63152 0.0
C1374 C 0.18821 0.5999 0.61962 0.0
C1375 C 0.16995 0.59818 0.64427 0.0
C1376 C 0.15 0.54529 0.66607 0.0
H1377 H 0.10665 0.54598 0.7384 0.0
H1378 H 0.12275 0.56214 0.71288 0.0
H1379 H 0.14065 0.52183 0.68496 0.0
H1380 H 0.18371 0.56826 0.61176 0.0
H1381 H 0.16043 0.54677 0.63387 0.0
H1382 H 0.13033 0.58031 0.66065 0.0
C1383 C 0.11417 0.54416 0.71425 0.0
C1384 C 0.13813 0.53441 0.67962 0.0
C1385 C 0.10503 0.53493 0.72886 0.0
C1386 C 0.18006 0.57686 0.62077 0.0
C1387 C 0.16679 0.56456 0.63349 0.0
C1388 C 0.1329 0.5677 0.66586 0.0
C1389 C 0.11295 0.5304 0.70174 0.0
C1390 C 0.12397 0.54047 0.68662 0.0
C1391 C 0.16155 0.57509 0.6454 0.0
C1392 C 0.14778 0.56231 0.65914 0.0
H1393 H 0.08394 0.47994 0.71994 0.0
H1394 H 0.10047 0.4962 0.69444 0.0
H1395 H 0.11022 0.56178 0.68455 0.0
H1396 H 0.18916 0.62815 0.63113 0.0
H1397 H 0.16677 0.607 0.65338 0.0
C1398 C 0.54366 0.07058 0.87332 0.0
C1399 C 0.52455 0.0691 0.87952 0.0
C1400 C 0.55738 0.08793 0.86314 0.0
C1401 C 0.56972 0.14321 0.84787 0.0
H1402 H 0.59211 0.12636 0.81214 0.0
C1403 C 0.60569 0.19721 0.79164 0.0
C1404 C 0.62475 0.19874 0.78519 0.0
C1405 C 0.59476 0.18288 0.80426 0.0
C1406 C 0.58621 0.13141 0.82215 0.0
H1407 H 0.5053 0.08515 0.88048 0.0
H1408 H 0.52885 0.11513 0.86231 0.0
H1409 H 0.57085 0.09881 0.83222 0.0
H1410 H 0.64753 0.18674 0.78728 0.0
H1411 H 0.6284 0.16176 0.80919 0.0
H1412 H 0.58467 0.17573 0.83739 0.0
C1413 C 0.53348 0.10309 0.86547 0.0
C1414 C 0.57406 0.11563 0.83371 0.0
C1415 C 0.51987 0.08583 0.87579 0.0
C1416 C 0.63287 0.18597 0.79189 0.0
C1417 C 0.62186 0.17155 0.80441 0.0
C1418 C 0.58174 0.15897 0.83619 0.0
C1419 C 0.5522 0.10412 0.85878 0.0
C1420 C 0.56565 0.12129 0.84674 0.0
C1421 C 0.60255 0.16966 0.81062 0.0
C1422 C 0.59012 0.15322 0.82322 0.0
H1423 H 0.54779 0.05804 0.8761 0.0
H1424 H 0.57193 0.08847 0.85854 0.0
H1425 H 0.56374 0.14825 0.85782 0.0
H1426 H 0.59901 0.20684 0.78681 0.0
H1427 H 0.57983 0.18166 0.80874 0.0
C1428 C 0.4349 0.50826 0.0441 0.0
C1429 C 0.45672 0.51339 0.04653 0.0
C1430 C 0.43039 0.52075 0.03356 0.0
C1431 C 0.45577 0.57454 0.01256 0.0
H1432 H 0.40998 0.5414 0.98143 0.0
C1433 C 0.44895 0.61554 0.95583 0.0
C1434 C 0.42784 0.60861 0.94973 0.0
C1435 C 0.45145 0.60457 0.96866 0.0
C1436 C 0.42256 0.55097 0.99018 0.0
H1437 H 0.49095 0.53597 0.0402 0.0
H1438 H 0.48313 0.55794 0.02192 0.0
H1439 H 0.41603 0.52141 0.00241 0.0
H1440 H 0.39275 0.58494 0.95262 0.0
H1441 H 0.39711 0.56611 0.9752 0.0
H1442 H 0.46237 0.60411 0.00037 0.0
C1443 C 0.46951 0.5443 0.02818 0.0
C1444 C 0.42604 0.53949 0.0022 0.0
C1445 C 0.47399 0.53168 0.03859 0.0
C1446 C 0.40927 0.59063 0.95693 0.0
C1447 C 0.41177 0.57975 0.96985 0.0
C1448 C 0.45219 0.58605 0.00062 0.0
C1449 C 0.44764 0.53876 0.02537 0.0
C1450 C 0.44288 0.55113 0.01338 0.0
C1451 C 0.43291 0.58649 0.97581 0.0
C1452 C 0.43575 0.57439 0.98914 0.0
H1453 H 0.42129 0.49428 0.05011 0.0
H1454 H 0.4134 0.51625 0.03173 0.0
H1455 H 0.46868 0.58397 0.02114 0.0
H1456 H 0.46364 0.62924 0.95054 0.0
H1457 H 0.46801 0.60999 0.97274 0.0
C1458 C 0.90651 0.51244 0.22396 0.0
C1459 C 0.91687 0.49741 0.23588 0.0
C1460 C 0.89166 0.4979 0.20644 0.0
C1461 C 0.8762 0.44215 0.18126 0.0
H1462 H 0.83502 0.45643 0.16235 0.0
C1463 C 0.82024 0.39123 0.12927 0.0
C1464 C 0.81583 0.40261 0.11757 0.0
C1465 C 0.83131 0.40217 0.14308 0.0
C1466 C 0.84673 0.45249 0.16731 0.0
H1467 H 0.90877 0.45776 0.24339 0.0
H1468 H 0.88364 0.43605 0.21525 0.0
H1469 H 0.85437 0.47526 0.1865 0.0
H1470 H 0.81984 0.43454 0.11116 0.0
H1471 H 0.83973 0.45381 0.13503 0.0
H1472 H 0.86897 0.4197 0.16198 0.0
C1473 C 0.88931 0.45346 0.21737 0.0
C1474 C 0.85779 0.46327 0.18118 0.0
C1475 C 0.90403 0.46648 0.23528 0.0
C1476 C 0.82284 0.42523 0.11998 0.0
C1477 C 0.83415 0.43626 0.13372 0.0
C1478 C 0.86537 0.43156 0.16729 0.0
C1479 C 0.88399 0.46921 0.20301 0.0
C1480 C 0.87251 0.45808 0.1883 0.0
C1481 C 0.83849 0.42485 0.14547 0.0
C1482 C 0.85038 0.43648 0.16018 0.0
H1483 H 0.91301 0.53015 0.22539 0.0
H1484 H 0.88773 0.50666 0.19779 0.0
H1485 H 0.8878 0.43815 0.18635 0.0
H1486 H 0.8149 0.37374 0.12787 0.0
H1487 H 0.83396 0.39271 0.15197 0.0
loop_
_geom_bond_atom_site_label_1
_geom_bond_atom_site_label_2
_geom_bond_distance
_geom_bond_site_symmetry_2
_ccdc_geom_bond_type
C0 C1 1.560 . S
C0 H61 0.959 . S
C0 H62 0.959 . S
C0 H63 0.960 . S
C1 C0 1.560 . S
C1 O56 1.426 . S
C1 H60 0.980 . S
C2 C3 1.407 . S
C2 C7 1.418 . S
C2 O56 1.334 . S
C3 C2 1.407 . S
C3 C4 1.360 . S
C3 H64 0.929 . S
C4 C3 1.360 . S
C4 C5 1.401 . S
C4 C8 1.527 . S
C5 C4 1.401 . S
C5 C6 1.405 . S
C5 C38 1.587 . S
C6 C5 1.405 . S
C6 C7 1.332 . S
C6 C9 1.496 . S
C7 C2 1.418 . S
C7 C6 1.332 . S
C7 H65 0.929 . S
C8 C4 1.527 . S
C8 H66 0.959 . S
C8 H67 0.961 . S
C8 H68 0.961 . S
C9 C6 1.496 . S
C9 H69 0.960 . S
C9 H70 0.960 . S
C9 H71 0.961 . S
C10 C11 1.517 . S
C10 H73 0.961 . S
C10 H74 0.960 . S
C10 H75 0.959 . S
C11 C10 1.517 . S
C11 O59 1.468 . S
C11 H72 0.980 . S
C12 C13 1.349 . S
C12 C17 1.367 . S
C12 O59 1.408 . S
C13 C12 1.349 . S
C13 C14 1.407 . S
C13 H76 0.930 . S
C14 C13 1.407 . S
C14 C15 1.449 . S
C14 C18 1.535 . S
C15 C14 1.449 . S
C15 C16 1.384 . S
C15 C40 1.553 1_655 S
C16 C15 1.384 . S
C16 C17 1.364 . S
C16 C19 1.450 . S
C17 C12 1.367 . S
C17 C16 1.364 . S
C17 H77 0.931 . S
C18 C14 1.535 . S
C18 H78 0.959 1_655 S
C18 H79 0.961 1_655 S
C18 H80 0.959 . S
C19 C16 1.450 . S
C19 H81 0.960 . S
C19 H82 0.960 1_655 S
C19 H83 0.960 . S
C20 C21 1.309 . S
C20 C25 1.304 . S
C20 O58 1.435 . S
C21 C20 1.309 . S
C21 C22 1.476 . S
C21 H85 0.930 . S
C22 C21 1.476 . S
C22 C23 1.400 . S
C22 C26 1.567 . S
C23 C22 1.400 . S
C23 C24 1.373 . S
C23 C45 1.432 . S
C24 C23 1.373 . S
C24 C25 1.339 . S
C24 C27 1.530 . S
C25 C20 1.304 . S
C25 C24 1.339 . S
C25 H86 0.930 . S
C26 C22 1.567 . S
C26 H87 0.961 . S
C26 H88 0.960 . S
C26 H89 0.958 . S
C27 C24 1.530 . S
C27 H90 0.961 . S
C27 H91 0.960 . S
C27 H92 0.960 . S
C28 C29 1.530 . S
C28 H94 0.961 . S
C28 H95 0.961 . S
C28 H96 0.959 . S
C29 C28 1.530 . S
C29 O57 1.412 . S
C29 H93 0.980 . S
C30 C31 1.288 . S
C30 C35 1.377 . S
C30 O57 1.393 . S
C31 C30 1.288 . S
C31 C32 1.369 . S
C31 H97 0.932 . S
C32 C31 1.369 . S
C32 C33 1.398 . S
C32 C36 1.527 . S
C33 C32 1.398 . S
C33 C34 1.380 . S
C33 C47 1.497 . S
C34 C33 1.380 . S
C34 C35 1.383 . S
C34 C37 1.603 . S
C35 C30 1.377 . S
C35 C34 1.383 . S
C35 H98 0.929 . S
C36 C32 1.527 . S
C36 H99 0.961 . S
C36 H100 0.959 . S
C36 H101 0.959 . S
C37 C34 1.603 . S
C37 H102 0.960 . S
C37 H103 0.962 . S
C37 H104 0.961 . S
C38 C5 1.587 . S
C38 C39 1.360 . S
C38 C51 1.412 . S
C39 C38 1.360 . S
C39 C40 1.365 . S
C39 H105 0.929 . S
C40 C15 1.553 1_455 S
C40 C39 1.365 . S
C40 C41 1.427 . S
C41 C40 1.427 . S
C41 C42 1.348 1_455 S
C41 C52 1.478 . S
C42 C41 1.348 1_655 S
C42 C43 1.322 . S
C42 H106 0.930 . S
C43 C42 1.322 . S
C43 C44 1.459 . S
C43 H107 0.929 . S
C44 C43 1.459 . S
C44 C45 1.445 . S
C44 C53 1.395 1_655 S
C45 C23 1.432 . S
C45 C44 1.445 . S
C45 C46 1.370 . S
C46 C45 1.370 . S
C46 C47 1.438 1_655 S
C46 H108 0.930 . S
C47 C33 1.497 . S
C47 C46 1.438 1_455 S
C47 C48 1.360 . S
C48 C47 1.360 . S
C48 C49 1.401 . S
C48 C53 1.446 . S
C49 C48 1.401 . S
C49 C50 1.347 . S
C49 H109 0.929 . S
C50 C49 1.347 . S
C50 C51 1.455 . S
C50 H110 0.930 . S
C51 C38 1.412 . S
C51 C50 1.455 . S
C51 C52 1.331 . S
C52 C41 1.478 . S
C52 C51 1.331 . S
C52 C53 1.497 . S
C53 C44 1.395 1_455 S
C53 C48 1.446 . S
C53 C52 1.497 . S
C54 C55 1.582 . S
C54 H111 0.962 . S
C54 H112 0.959 . S
C54 H113 0.958 . S
C55 C54 1.582 . S
C55 O58 1.458 . S
C55 H84 0.980 . S
O56 C1 1.426 . S
O56 C2 1.334 . S
O57 C29 1.412 . S
O57 C30 1.393 . S
O58 C20 1.435 . S
O58 C55 1.458 . S
O59 C11 1.468 . S
O59 C12 1.408 . S
H60 C1 0.980 . S
H61 C0 0.959 . S
H62 C0 0.959 . S
H63 C0 0.960 . S
H64 C3 0.929 . S
H65 C7 0.929 . S
H66 C8 0.959 . S
H67 C8 0.961 . S
H68 C8 0.961 . S
H69 C9 0.960 . S
H70 C9 0.960 . S
H71 C9 0.961 . S
H72 C11 0.980 . S
H73 C10 0.961 . S
H74 C10 0.960 . S
H75 C10 0.959 . S
H76 C13 0.930 . S
H77 C17 0.931 . S
H78 C18 0.959 1_455 S
H79 C18 0.961 1_455 S
H80 C18 0.959 . S
H81 C19 0.960 . S
H82 C19 0.960 1_455 S
H83 C19 0.960 . S
H84 C55 0.980 . S
H85 C21 0.930 . S
H86 C25 0.930 . S
H87 C26 0.961 . S
H88 C26 0.960 . S
H89 C26 0.958 . S
H90 C27 0.961 . S
H91 C27 0.960 . S
H92 C27 0.960 . S
H93 C29 0.980 . S
H94 C28 0.961 . S
H95 C28 0.961 . S
H96 C28 0.959 . S
H97 C31 0.932 . S
H98 C35 0.929 . S
H99 C36 0.961 . S
H100 C36 0.959 . S
H101 C36 0.959 . S
H102 C37 0.960 . S
H103 C37 0.962 . S
H104 C37 0.961 . S
H105 C39 0.929 . S
H106 C42 0.930 . S
H107 C43 0.929 . S
H108 C46 0.930 . S
H109 C49 0.929 . S
H110 C50 0.930 . S
H111 C54 0.962 . S
H112 C54 0.959 . S
H113 C54 0.958 . S
C114 C115 1.560 . S
C114 H175 0.959 . S
C114 H176 0.959 . S
C114 H177 0.960 . S
C115 C114 1.560 . S
C115 O170 1.426 . S
C115 H174 0.980 . S
C116 C117 1.407 . S
C116 C121 1.418 . S
C116 O170 1.334 . S
C117 C116 1.407 . S
C117 C118 1.360 . S
C117 H178 0.929 . S
C118 C117 1.360 . S
C118 C119 1.401 . S
C118 C122 1.527 . S
C119 C118 1.401 . S
C119 C120 1.405 . S
C119 C152 1.587 . S
C120 C119 1.405 . S
C120 C121 1.332 . S
C120 C123 1.496 . S
C121 C116 1.418 . S
C121 C120 1.332 . S
C121 H179 0.929 . S
C122 C118 1.527 . S
C122 H180 0.959 . S
C122 H181 0.961 . S
C122 H182 0.961 . S
C123 C120 1.496 . S
C123 H183 0.960 . S
C123 H184 0.960 . S
C123 H185 0.961 . S
C124 C125 1.517 . S
C124 H187 0.961 . S
C124 H188 0.960 . S
C124 H189 0.959 . S
C125 C124 1.517 . S
C125 O173 1.468 . S
C125 H186 0.980 . S
C126 C127 1.349 . S
C126 C131 1.367 . S
C126 O173 1.408 . S
C127 C126 1.349 . S
C127 C128 1.407 . S
C127 H190 0.930 . S
C128 C127 1.407 . S
C128 C129 1.449 . S
C128 C132 1.535 . S
C129 C128 1.449 . S
C129 C130 1.384 . S
C129 C154 1.553 . S
C130 C129 1.384 . S
C130 C131 1.364 . S
C130 C133 1.450 . S
C131 C126 1.367 . S
C131 C130 1.364 . S
C131 H191 0.931 . S
C132 C128 1.535 . S
C132 H192 0.959 . S
C132 H193 0.961 . S
C132 H194 0.959 . S
C133 C130 1.450 . S
C133 H195 0.960 . S
C133 H196 0.960 . S
C133 H197 0.960 . S
C134 C135 1.309 . S
C134 C139 1.304 . S
C134 O172 1.435 . S
C135 C134 1.309 . S
C135 C136 1.476 . S
C135 H199 0.930 . S
C136 C135 1.476 . S
C136 C137 1.400 . S
C136 C140 1.567 . S
C137 C136 1.400 . S
C137 C138 1.373 . S
C137 C159 1.432 . S
C138 C137 1.373 . S
C138 C139 1.339 . S
C138 C141 1.530 . S
C139 C134 1.304 . S
C139 C138 1.339 . S
C139 H200 0.930 . S
C140 C136 1.567 . S
C140 H201 0.961 . S
C140 H202 0.960 . S
C140 H203 0.958 . S
C141 C138 1.530 . S
C141 H204 0.961 . S
C141 H205 0.960 . S
C141 H206 0.960 . S
C142 C143 1.530 . S
C142 H208 0.961 . S
C142 H209 0.961 . S
C142 H210 0.959 . S
C143 C142 1.530 . S
C143 O171 1.412 . S
C143 H207 0.980 . S
C144 C145 1.288 . S
C144 C149 1.377 . S
C144 O171 1.393 . S
C145 C144 1.288 . S
C145 C146 1.369 . S
C145 H211 0.932 . S
C146 C145 1.369 . S
C146 C147 1.398 . S
C146 C150 1.527 1_565 S
C147 C146 1.398 . S
C147 C148 1.380 . S
C147 C161 1.497 1_565 S
C148 C147 1.380 . S
C148 C149 1.383 . S
C148 C151 1.603 . S
C149 C144 1.377 . S
C149 C148 1.383 . S
C149 H212 0.929 . S
C150 C146 1.527 1_545 S
C150 H213 0.961 . S
C150 H214 0.959 . S
C150 H215 0.959 1_545 S
C151 C148 1.603 . S
C151 H216 0.960 . S
C151 H217 0.962 . S
C151 H218 0.961 . S
C152 C119 1.587 . S
C152 C153 1.360 . S
C152 C165 1.412 . S
C153 C152 1.360 . S
C153 C154 1.365 1_565 S
C153 H219 0.929 . S
C154 C129 1.553 . S
C154 C153 1.365 1_545 S
C154 C155 1.404 . S
C155 C154 1.404 . S
C155 C156 1.395 . S
C155 C166 1.451 . S
C156 C155 1.395 . S
C156 C157 1.322 . S
C156 H220 0.930 . S
C157 C156 1.322 . S
C157 C158 1.459 . S
C157 H221 0.929 . S
C158 C157 1.459 . S
C158 C159 1.445 . S
C158 C167 1.395 . S
C159 C137 1.432 . S
C159 C158 1.445 . S
C159 C160 1.370 . S
C160 C159 1.370 . S
C160 C161 1.438 . S
C160 H222 0.930 . S
C161 C147 1.497 1_545 S
C161 C160 1.438 . S
C161 C162 1.361 1_545 S
C162 C161 1.361 1_565 S
C162 C163 1.399 . S
C162 C167 1.447 1_565 S
C163 C162 1.399 . S
C163 C164 1.347 . S
C163 H223 0.929 . S
C164 C163 1.347 . S
C164 C165 1.455 . S
C164 H224 0.930 . S
C165 C152 1.412 . S
C165 C164 1.455 . S
C165 C166 1.331 1_565 S
C166 C155 1.451 . S
C166 C165 1.331 1_545 S
C166 C167 1.497 . S
C167 C158 1.395 . S
C167 C162 1.447 1_545 S
C167 C166 1.497 . S
C168 C169 1.582 . S
C168 H225 0.962 . S
C168 H226 0.959 . S
C168 H227 0.958 . S
C169 C168 1.582 . S
C169 O172 1.458 . S
C169 H198 0.980 . S
O170 C115 1.426 . S
O170 C116 1.334 . S
O171 C143 1.412 . S
O171 C144 1.393 . S
O172 C134 1.435 . S
O172 C169 1.458 . S
O173 C125 1.468 . S
O173 C126 1.408 . S
H174 C115 0.980 . S
H175 C114 0.959 . S
H176 C114 0.959 . S
H177 C114 0.960 . S
H178 C117 0.929 . S
H179 C121 0.929 . S
H180 C122 0.959 . S
H181 C122 0.961 . S
H182 C122 0.961 . S
H183 C123 0.960 . S
H184 C123 0.960 . S
H185 C123 0.961 . S
H186 C125 0.980 . S
H187 C124 0.961 . S
H188 C124 0.960 . S
H189 C124 0.959 . S
H190 C127 0.930 . S
H191 C131 0.931 . S
H192 C132 0.959 . S
H193 C132 0.961 . S
H194 C132 0.959 . S
H195 C133 0.960 . S
H196 C133 0.960 . S
H197 C133 0.960 . S
H198 C169 0.980 . S
H199 C135 0.930 . S
H200 C139 0.930 . S
H201 C140 0.961 . S
H202 C140 0.960 . S
H203 C140 0.958 . S
H204 C141 0.961 . S
H205 C141 0.960 . S
H206 C141 0.960 . S
H207 C143 0.980 . S
H208 C142 0.961 . S
H209 C142 0.961 . S
H210 C142 0.959 . S
H211 C145 0.932 . S
H212 C149 0.929 . S
H213 C150 0.961 . S
H214 C150 0.959 . S
H215 C150 0.959 1_565 S
H216 C151 0.960 . S
H217 C151 0.962 . S
H218 C151 0.961 . S
H219 C153 0.929 . S
H220 C156 0.930 . S
H221 C157 0.929 . S
H222 C160 0.930 . S
H223 C163 0.929 . S
H224 C164 0.930 . S
H225 C168 0.962 . S
H226 C168 0.959 . S
H227 C168 0.958 . S
C228 C229 1.560 . S
C228 H289 0.959 . S
C228 H290 0.959 . S
C228 H291 0.960 . S
C229 C228 1.560 . S
C229 O284 1.426 . S
C229 H288 0.980 . S
C230 C231 1.407 . S
C230 C235 1.418 . S
C230 O284 1.334 . S
C231 C230 1.407 . S
C231 C232 1.360 . S
C231 H292 0.929 . S
C232 C231 1.360 . S
C232 C233 1.401 . S
C232 C236 1.527 . S
C233 C232 1.401 . S
C233 C234 1.405 . S
C233 C266 1.587 . S
C234 C233 1.405 . S
C234 C235 1.332 . S
C234 C237 1.496 . S
C235 C230 1.418 . S
C235 C234 1.332 . S
C235 H293 0.929 . S
C236 C232 1.527 . S
C236 H294 0.959 . S
C236 H295 0.961 . S
C236 H296 0.961 . S
C237 C234 1.496 . S
C237 H297 0.960 . S
C237 H298 0.960 . S
C237 H299 0.961 . S
C238 C239 1.517 . S
C238 H301 0.961 . S
C238 H302 0.960 . S
C238 H303 0.959 . S
C239 C238 1.517 . S
C239 O287 1.468 . S
C239 H300 0.980 . S
C240 C241 1.349 . S
C240 C245 1.367 . S
C240 O287 1.408 . S
C241 C240 1.349 . S
C241 C242 1.407 . S
C241 H304 0.930 . S
C242 C241 1.407 . S
C242 C243 1.449 . S
C242 C246 1.535 . S
C243 C242 1.449 . S
C243 C244 1.384 . S
C243 C268 1.553 . S
C244 C243 1.384 . S
C244 C245 1.364 . S
C244 C247 1.450 . S
C245 C240 1.367 . S
C245 C244 1.364 . S
C245 H305 0.931 . S
C246 C242 1.535 . S
C246 H306 0.959 . S
C246 H307 0.961 . S
C246 H308 0.959 . S
C247 C244 1.450 . S
C247 H309 0.960 . S
C247 H310 0.960 . S
C247 H311 0.960 . S
C248 C249 1.309 . S
C248 C253 1.304 . S
C248 O286 1.435 . S
C249 C248 1.309 . S
C249 C250 1.476 . S
C249 H313 0.930 . S
C250 C249 1.476 . S
C250 C251 1.400 . S
C250 C254 1.567 . S
C251 C250 1.400 . S
C251 C252 1.373 . S
C251 C273 1.432 . S
C252 C251 1.373 . S
C252 C253 1.339 . S
C252 C255 1.530 . S
C253 C248 1.304 . S
C253 C252 1.339 . S
C253 H314 0.930 . S
C254 C250 1.567 . S
C254 H315 0.961 . S
C254 H316 0.960 . S
C254 H317 0.958 . S
C255 C252 1.530 . S
C255 H318 0.961 . S
C255 H319 0.960 . S
C255 H320 0.960 . S
C256 C257 1.530 . S
C256 H322 0.961 . S
C256 H323 0.961 . S
C256 H324 0.959 . S
C257 C256 1.530 . S
C257 O285 1.412 . S
C257 H321 0.980 . S
C258 C259 1.288 . S
C258 C263 1.377 . S
C258 O285 1.393 . S
C259 C258 1.288 . S
C259 C260 1.369 . S
C259 H325 0.932 . S
C260 C259 1.369 . S
C260 C261 1.398 . S
C260 C264 1.527 . S
C261 C260 1.398 . S
C261 C262 1.380 . S
C261 C275 1.497 . S
C262 C261 1.380 . S
C262 C263 1.383 . S
C262 C265 1.603 . S
C263 C258 1.377 . S
C263 C262 1.383 . S
C263 H326 0.929 . S
C264 C260 1.527 . S
C264 H327 0.961 . S
C264 H328 0.959 . S
C264 H329 0.959 . S
C265 C262 1.603 . S
C265 H330 0.960 . S
C265 H331 0.962 . S
C265 H332 0.961 . S
C266 C233 1.587 . S
C266 C267 1.360 . S
C266 C279 1.412 . S
C267 C266 1.360 . S
C267 C268 1.365 . S
C267 H333 0.929 . S
C268 C243 1.553 . S
C268 C267 1.365 . S
C268 C269 1.404 . S
C269 C268 1.404 . S
C269 C270 1.395 . S
C269 C280 1.451 . S
C270 C269 1.395 . S
C270 C271 1.322 . S
C270 H334 0.930 . S
C271 C270 1.322 . S
C271 C272 1.459 . S
C271 H335 0.929 . S
C272 C271 1.459 . S
C272 C273 1.445 . S
C272 C281 1.395 . S
C273 C251 1.432 . S
C273 C272 1.445 . S
C273 C274 1.370 . S
C274 C273 1.370 . S
C274 C275 1.438 . S
C274 H336 0.930 . S
C275 C261 1.497 . S
C275 C274 1.438 . S
C275 C276 1.360 . S
C276 C275 1.360 . S
C276 C277 1.401 . S
C276 C281 1.446 . S
C277 C276 1.401 . S
C277 C278 1.347 . S
C277 H337 0.929 . S
C278 C277 1.347 . S
C278 C279 1.455 . S
C278 H338 0.930 . S
C279 C266 1.412 . S
C279 C278 1.455 . S
C279 C280 1.331 . S
C280 C269 1.451 . S
C280 C279 1.331 . S
C280 C281 1.497 . S
C281 C272 1.395 . S
C281 C276 1.446 . S
C281 C280 1.497 . S
C282 C283 1.582 . S
C282 H339 0.962 . S
C282 H340 0.959 . S
C282 H341 0.958 . S
C283 C282 1.582 . S
C283 O286 1.458 . S
C283 H312 0.980 . S
O284 C229 1.426 . S
O284 C230 1.334 . S
O285 C257 1.412 . S
O285 C258 1.393 . S
O286 C248 1.435 . S
O286 C283 1.458 . S
O287 C239 1.468 . S
O287 C240 1.408 . S
H288 C229 0.980 . S
H289 C228 0.959 . S
H290 C228 0.959 . S
H291 C228 0.960 . S
H292 C231 0.929 . S
H293 C235 0.929 . S
H294 C236 0.959 . S
H295 C236 0.961 . S
H296 C236 0.961 . S
H297 C237 0.960 . S
H298 C237 0.960 . S
H299 C237 0.961 . S
H300 C239 0.980 . S
H301 C238 0.961 . S
H302 C238 0.960 . S
H303 C238 0.959 . S
H304 C241 0.930 . S
H305 C245 0.931 . S
H306 C246 0.959 . S
H307 C246 0.961 . S
H308 C246 0.959 . S
H309 C247 0.960 . S
H310 C247 0.960 . S
H311 C247 0.960 . S
H312 C283 0.980 . S
H313 C249 0.930 . S
H314 C253 0.930 . S
H315 C254 0.961 . S
H316 C254 0.960 . S
H317 C254 0.958 . S
H318 C255 0.961 . S
H319 C255 0.960 . S
H320 C255 0.960 . S
H321 C257 0.980 . S
H322 C256 0.961 . S
H323 C256 0.961 . S
H324 C256 0.959 . S
H325 C259 0.932 . S
H326 C263 0.929 . S
H327 C264 0.961 . S
H328 C264 0.959 . S
H329 C264 0.959 . S
H330 C265 0.960 . S
H331 C265 0.962 . S
H332 C265 0.961 . S
H333 C267 0.929 . S
H334 C270 0.930 . S
H335 C271 0.929 . S
H336 C274 0.930 . S
H337 C277 0.929 . S
H338 C278 0.930 . S
H339 C282 0.962 . S
H340 C282 0.959 . S
H341 C282 0.958 . S
C342 C343 1.560 . S
C342 H403 0.959 . S
C342 H404 0.959 . S
C342 H405 0.960 . S
C343 C342 1.560 . S
C343 O398 1.426 . S
C343 H402 0.980 . S
C344 C345 1.407 . S
C344 C349 1.418 . S
C344 O398 1.334 . S
C345 C344 1.407 . S
C345 C346 1.360 . S
C345 H406 0.929 . S
C346 C345 1.360 . S
C346 C347 1.401 . S
C346 C350 1.527 . S
C347 C346 1.401 . S
C347 C348 1.405 . S
C347 C380 1.587 . S
C348 C347 1.405 . S
C348 C349 1.332 . S
C348 C351 1.496 . S
C349 C344 1.418 . S
C349 C348 1.332 . S
C349 H407 0.929 . S
C350 C346 1.527 . S
C350 H408 0.959 . S
C350 H409 0.961 . S
C350 H410 0.961 . S
C351 C348 1.496 . S
C351 H411 0.960 . S
C351 H412 0.960 . S
C351 H413 0.961 . S
C352 C353 1.517 . S
C352 H415 0.961 . S
C352 H416 0.960 . S
C352 H417 0.959 . S
C353 C352 1.517 . S
C353 O401 1.468 . S
C353 H414 0.980 . S
C354 C355 1.349 . S
C354 C359 1.367 . S
C354 O401 1.408 . S
C355 C354 1.349 . S
C355 C356 1.407 . S
C355 H418 0.930 . S
C356 C355 1.407 . S
C356 C357 1.449 . S
C356 C360 1.535 . S
C357 C356 1.449 . S
C357 C358 1.384 . S
C357 C382 1.553 1_655 S
C358 C357 1.384 . S
C358 C359 1.364 . S
C358 C361 1.450 . S
C359 C354 1.367 . S
C359 C358 1.364 . S
C359 H419 0.931 . S
C360 C356 1.535 . S
C360 H420 0.959 1_655 S
C360 H421 0.990 . S
C360 H422 0.959 . S
C361 C358 1.450 . S
C361 H423 0.960 . S
C361 H424 0.960 1_655 S
C361 H425 0.960 . S
C362 C363 1.309 . S
C362 C367 1.304 . S
C362 O400 1.435 . S
C363 C362 1.309 . S
C363 C364 1.476 . S
C363 H427 0.930 . S
C364 C363 1.476 . S
C364 C365 1.400 . S
C364 C368 1.567 . S
C365 C364 1.400 . S
C365 C366 1.373 . S
C365 C387 1.432 . S
C366 C365 1.373 . S
C366 C367 1.339 . S
C366 C369 1.530 . S
C367 C362 1.304 . S
C367 C366 1.339 . S
C367 H428 0.930 . S
C368 C364 1.567 . S
C368 H429 0.961 . S
C368 H430 0.960 . S
C368 H431 0.958 . S
C369 C366 1.530 . S
C369 H432 0.961 . S
C369 H433 0.960 . S
C369 H434 0.960 . S
C370 C371 1.530 . S
C370 H436 0.961 . S
C370 H437 0.961 . S
C370 H438 0.959 . S
C371 C370 1.530 . S
C371 O399 1.412 . S
C371 H435 0.980 . S
C372 C373 1.288 . S
C372 C377 1.377 . S
C372 O399 1.393 . S
C373 C372 1.288 . S
C373 C374 1.369 . S
C373 H439 0.932 . S
C374 C373 1.369 . S
C374 C375 1.398 . S
C374 C378 1.527 . S
C375 C374 1.398 . S
C375 C376 1.380 . S
C375 C389 1.497 . S
C376 C375 1.380 . S
C376 C377 1.383 . S
C376 C379 1.603 . S
C377 C372 1.377 . S
C377 C376 1.383 . S
C377 H440 0.929 . S
C378 C374 1.527 . S
C378 H441 0.961 . S
C378 H442 0.959 1_455 S
C378 H443 0.959 . S
C379 C376 1.603 . S
C379 H444 0.960 . S
C379 H445 0.962 . S
C379 H446 0.961 . S
C380 C347 1.587 . S
C380 C381 1.360 . S
C380 C393 1.412 . S
C381 C380 1.360 . S
C381 C382 1.365 . S
C381 H447 0.929 . S
C382 C357 1.553 1_455 S
C382 C381 1.365 . S
C382 C383 1.398 1_455 S
C383 C382 1.398 1_655 S
C383 C384 1.411 . S
C383 C394 1.440 1_655 S
C384 C383 1.411 . S
C384 C385 1.322 . S
C384 H448 0.930 . S
C385 C384 1.322 . S
C385 C386 1.459 . S
C385 H449 0.929 . S
C386 C385 1.459 . S
C386 C387 1.445 . S
C386 C395 1.395 1_655 S
C387 C365 1.432 . S
C387 C386 1.445 . S
C387 C388 1.370 . S
C388 C387 1.370 . S
C388 C389 1.438 1_655 S
C388 H450 0.930 . S
C389 C375 1.497 . S
C389 C388 1.438 1_455 S
C389 C390 1.360 . S
C390 C389 1.360 . S
C390 C391 1.401 . S
C390 C395 1.446 . S
C391 C390 1.401 . S
C391 C392 1.347 . S
C391 H451 0.929 . S
C392 C391 1.347 . S
C392 C393 1.455 . S
C392 H452 0.930 . S
C393 C380 1.412 . S
C393 C392 1.455 . S
C393 C394 1.331 . S
C394 C383 1.440 1_455 S
C394 C393 1.331 . S
C394 C395 1.497 . S
C395 C386 1.395 1_455 S
C395 C390 1.446 . S
C395 C394 1.497 . S
C396 C397 1.582 . S
C396 H453 0.962 . S
C396 H454 0.959 . S
C396 H455 0.958 . S
C397 C396 1.582 . S
C397 O400 1.458 . S
C397 H426 0.980 . S
O398 C343 1.426 . S
O398 C344 1.334 . S
O399 C371 1.412 . S
O399 C372 1.393 . S
O400 C362 1.435 . S
O400 C397 1.458 . S
O401 C353 1.468 . S
O401 C354 1.408 . S
H402 C343 0.980 . S
H403 C342 0.959 . S
H404 C342 0.959 . S
H405 C342 0.960 . S
H406 C345 0.929 . S
H407 C349 0.929 . S
H408 C350 0.959 . S
H409 C350 0.961 . S
H410 C350 0.961 . S
H411 C351 0.960 . S
H412 C351 0.960 . S
H413 C351 0.961 . S
H414 C353 0.980 . S
H415 C352 0.961 . S
H416 C352 0.960 . S
H417 C352 0.959 . S
H418 C355 0.930 . S
H419 C359 0.931 . S
H420 C360 0.959 1_455 S
H421 C360 0.990 . S
H422 C360 0.959 . S
H423 C361 0.960 . S
H424 C361 0.960 1_455 S
H425 C361 0.960 . S
H426 C397 0.980 . S
H427 C363 0.930 . S
H428 C367 0.930 . S
H429 C368 0.961 . S
H430 C368 0.960 . S
H431 C368 0.958 . S
H432 C369 0.961 . S
H433 C369 0.960 . S
H434 C369 0.960 . S
H435 C371 0.980 . S
H436 C370 0.961 . S
H437 C370 0.961 . S
H438 C370 0.959 . S
H439 C373 0.932 . S
H440 C377 0.929 . S
H441 C378 0.961 . S
H442 C378 0.959 1_655 S
H443 C378 0.959 . S
H444 C379 0.960 . S
H445 C379 0.962 . S
H446 C379 0.961 . S
H447 C381 0.929 . S
H448 C384 0.930 . S
H449 C385 0.929 . S
H450 C388 0.930 . S
H451 C391 0.929 . S
H452 C392 0.930 . S
H453 C396 0.962 . S
H454 C396 0.959 . S
H455 C396 0.958 . S
C456 C457 1.560 . S
C456 H517 0.959 . S
C456 H518 0.959 . S
C456 H519 0.960 . S
C457 C456 1.560 . S
C457 O512 1.426 . S
C457 H516 0.980 . S
C458 C459 1.407 . S
C458 C463 1.418 . S
C458 O512 1.334 . S
C459 C458 1.407 . S
C459 C460 1.360 . S
C459 H520 0.929 . S
C460 C459 1.360 . S
C460 C461 1.401 . S
C460 C464 1.527 . S
C461 C460 1.401 . S
C461 C462 1.405 . S
C461 C494 1.587 . S
C462 C461 1.405 . S
C462 C463 1.332 . S
C462 C465 1.496 . S
C463 C458 1.418 . S
C463 C462 1.332 . S
C463 H521 0.929 . S
C464 C460 1.527 . S
C464 H522 0.959 . S
C464 H523 0.961 . S
C464 H524 0.961 . S
C465 C462 1.496 . S
C465 H525 0.960 . S
C465 H526 0.960 . S
C465 H527 0.961 . S
C466 C467 1.517 . S
C466 H529 0.961 . S
C466 H530 0.960 . S
C466 H531 0.959 . S
C467 C466 1.517 . S
C467 O515 1.468 . S
C467 H528 0.980 . S
C468 C469 1.349 . S
C468 C473 1.367 . S
C468 O515 1.408 . S
C469 C468 1.349 . S
C469 C470 1.407 . S
C469 H532 0.930 . S
C470 C469 1.407 . S
C470 C471 1.449 . S
C470 C474 1.535 . S
C471 C470 1.449 . S
C471 C472 1.384 . S
C471 C496 1.553 . S
C472 C471 1.384 . S
C472 C473 1.364 . S
C472 C475 1.450 . S
C473 C468 1.367 . S
C473 C472 1.364 . S
C473 H533 0.931 . S
C474 C470 1.535 . S
C474 H534 0.959 . S
C474 H535 0.961 . S
C474 H536 0.959 . S
C475 C472 1.450 . S
C475 H537 0.960 . S
C475 H538 0.960 . S
C475 H539 0.960 . S
C476 C477 1.309 . S
C476 C481 1.304 . S
C476 O514 1.435 . S
C477 C476 1.309 . S
C477 C478 1.476 . S
C477 H541 0.930 . S
C478 C477 1.476 . S
C478 C479 1.400 . S
C478 C482 1.567 . S
C479 C478 1.400 . S
C479 C480 1.373 . S
C479 C501 1.432 . S
C480 C479 1.373 . S
C480 C481 1.339 . S
C480 C483 1.530 . S
C481 C476 1.304 . S
C481 C480 1.339 . S
C481 H542 0.930 . S
C482 C478 1.567 . S
C482 H543 0.961 . S
C482 H544 0.960 . S
C482 H545 0.958 . S
C483 C480 1.530 . S
C483 H546 0.961 . S
C483 H547 0.960 . S
C483 H548 0.960 . S
C484 C485 1.530 . S
C484 H550 0.961 . S
C484 H551 0.961 . S
C484 H552 0.959 . S
C485 C484 1.530 . S
C485 O513 1.412 . S
C485 H549 0.980 . S
C486 C487 1.288 . S
C486 C491 1.377 . S
C486 O513 1.393 . S
C487 C486 1.288 . S
C487 C488 1.369 . S
C487 H553 0.932 . S
C488 C487 1.369 . S
C488 C489 1.398 . S
C488 C492 1.527 1_565 S
C489 C488 1.398 . S
C489 C490 1.380 . S
C489 C503 1.497 1_565 S
C490 C489 1.380 . S
C490 C491 1.383 . S
C490 C493 1.603 . S
C491 C486 1.377 . S
C491 C490 1.383 . S
C491 H554 0.929 . S
C492 C488 1.527 1_545 S
C492 H555 0.961 . S
C492 H556 0.959 . S
C492 H557 0.959 1_545 S
C493 C490 1.603 . S
C493 H558 0.960 . S
C493 H559 0.962 . S
C493 H560 0.961 . S
C494 C461 1.587 . S
C494 C495 1.360 . S
C494 C507 1.412 . S
C495 C494 1.360 . S
C495 C496 1.365 1_565 S
C495 H561 0.929 . S
C496 C471 1.553 . S
C496 C495 1.365 1_545 S
C496 C497 1.404 . S
C497 C496 1.404 . S
C497 C498 1.395 . S
C497 C508 1.426 1_545 S
C498 C497 1.395 . S
C498 C499 1.322 . S
C498 H562 0.930 . S
C499 C498 1.322 . S
C499 C500 1.459 1_556 S
C499 H563 0.929 . S
C500 C499 1.459 1_554 S
C500 C501 1.445 . S
C500 C509 1.390 1_554 S
C501 C479 1.432 . S
C501 C500 1.445 . S
C501 C502 1.370 . S
C502 C501 1.370 . S
C502 C503 1.438 . S
C502 H564 0.930 . S
C503 C489 1.497 1_545 S
C503 C502 1.438 . S
C503 C504 1.360 1_545 S
C504 C503 1.360 1_565 S
C504 C505 1.401 . S
C504 C509 1.404 1_564 S
C505 C504 1.401 . S
C505 C506 1.347 1_554 S
C505 H565 0.929 . S
C506 C505 1.347 1_556 S
C506 C507 1.455 . S
C506 H566 0.930 . S
C507 C494 1.412 . S
C507 C506 1.455 . S
C507 C508 1.366 . S
C508 C497 1.426 1_565 S
C508 C507 1.366 . S
C508 C509 1.534 1_565 S
C509 C500 1.390 1_556 S
C509 C504 1.404 1_546 S
C509 C508 1.534 1_545 S
C510 C511 1.582 . S
C510 H567 0.962 . S
C510 H568 0.959 . S
C510 H569 0.958 . S
C511 C510 1.582 . S
C511 O514 1.458 . S
C511 H540 0.980 . S
O512 C457 1.426 . S
O512 C458 1.334 . S
O513 C485 1.412 . S
O513 C486 1.393 . S
O514 C476 1.435 . S
O514 C511 1.458 . S
O515 C467 1.468 . S
O515 C468 1.408 . S
H516 C457 0.980 . S
H517 C456 0.959 . S
H518 C456 0.959 . S
H519 C456 0.960 . S
H520 C459 0.929 . S
H521 C463 0.929 . S
H522 C464 0.959 . S
H523 C464 0.961 . S
H524 C464 0.961 . S
H525 C465 0.960 . S
H526 C465 0.960 . S
H527 C465 0.961 . S
H528 C467 0.980 . S
H529 C466 0.961 . S
H530 C466 0.960 . S
H531 C466 0.959 . S
H532 C469 0.930 . S
H533 C473 0.931 . S
H534 C474 0.959 . S
H535 C474 0.961 . S
H536 C474 0.959 . S
H537 C475 0.960 . S
H538 C475 0.960 . S
H539 C475 0.960 . S
H540 C511 0.980 . S
H541 C477 0.930 . S
H542 C481 0.930 . S
H543 C482 0.961 . S
H544 C482 0.960 . S
H545 C482 0.958 . S
H546 C483 0.961 . S
H547 C483 0.960 . S
H548 C483 0.960 . S
H549 C485 0.980 . S
H550 C484 0.961 . S
H551 C484 0.961 . S
H552 C484 0.959 . S
H553 C487 0.932 . S
H554 C491 0.929 . S
H555 C492 0.961 . S
H556 C492 0.959 . S
H557 C492 0.959 1_565 S
H558 C493 0.960 . S
H559 C493 0.962 . S
H560 C493 0.961 . S
H561 C495 0.929 . S
H562 C498 0.930 . S
H563 C499 0.929 . S
H564 C502 0.930 . S
H565 C505 0.929 . S
H566 C506 0.930 . S
H567 C510 0.962 . S
H568 C510 0.959 . S
H569 C510 0.958 . S
C570 C571 1.560 . S
C570 H631 0.959 . S
C570 H632 0.959 . S
C570 H633 0.960 . S
C571 C570 1.560 . S
C571 O626 1.426 . S
C571 H630 0.980 . S
C572 C573 1.407 . S
C572 C577 1.418 . S
C572 O626 1.334 . S
C573 C572 1.407 . S
C573 C574 1.360 . S
C573 H634 0.929 . S
C574 C573 1.360 . S
C574 C575 1.401 . S
C574 C578 1.527 . S
C575 C574 1.401 . S
C575 C576 1.405 . S
C575 C608 1.587 . S
C576 C575 1.405 . S
C576 C577 1.332 . S
C576 C579 1.496 . S
C577 C572 1.418 . S
C577 C576 1.332 . S
C577 H635 0.929 . S
C578 C574 1.527 . S
C578 H636 0.959 . S
C578 H637 0.961 . S
C578 H638 0.961 . S
C579 C576 1.496 . S
C579 H639 0.960 . S
C579 H640 0.960 . S
C579 H641 0.961 . S
C580 C581 1.517 . S
C580 H643 0.961 . S
C580 H644 0.960 . S
C580 H645 0.959 . S
C581 C580 1.517 . S
C581 O629 1.468 . S
C581 H642 0.980 . S
C582 C583 1.349 . S
C582 C587 1.367 . S
C582 O629 1.408 . S
C583 C582 1.349 . S
C583 C584 1.407 . S
C583 H646 0.930 . S
C584 C583 1.407 . S
C584 C585 1.449 . S
C584 C588 1.535 . S
C585 C584 1.449 . S
C585 C586 1.384 . S
C585 C610 1.553 . S
C586 C585 1.384 . S
C586 C587 1.364 . S
C586 C589 1.450 . S
C587 C582 1.367 . S
C587 C586 1.364 . S
C587 H647 0.931 . S
C588 C584 1.535 . S
C588 H648 0.959 . S
C588 H649 0.961 . S
C588 H650 0.959 . S
C589 C586 1.450 . S
C589 H651 0.960 . S
C589 H652 0.960 . S
C589 H653 0.960 . S
C590 C591 1.309 . S
C590 C595 1.304 . S
C590 O628 1.435 . S
C591 C590 1.309 . S
C591 C592 1.476 . S
C591 H655 0.930 . S
C592 C591 1.476 . S
C592 C593 1.400 . S
C592 C596 1.567 . S
C593 C592 1.400 . S
C593 C594 1.373 . S
C593 C615 1.432 . S
C594 C593 1.373 . S
C594 C595 1.339 . S
C594 C597 1.530 . S
C595 C590 1.304 . S
C595 C594 1.339 . S
C595 H656 0.930 . S
C596 C592 1.567 . S
C596 H657 0.961 . S
C596 H658 0.960 . S
C596 H659 0.958 . S
C597 C594 1.530 . S
C597 H660 0.961 . S
C597 H661 0.960 . S
C597 H662 0.960 . S
C598 C599 1.530 . S
C598 H664 0.961 . S
C598 H665 0.961 . S
C598 H666 0.959 . S
C599 C598 1.530 . S
C599 O627 1.412 . S
C599 H663 0.980 . S
C600 C601 1.288 . S
C600 C605 1.377 . S
C600 O627 1.393 . S
C601 C600 1.288 . S
C601 C602 1.369 . S
C601 H667 0.932 . S
C602 C601 1.369 . S
C602 C603 1.398 . S
C602 C606 1.527 . S
C603 C602 1.398 . S
C603 C604 1.380 . S
C603 C617 1.497 . S
C604 C603 1.380 . S
C604 C605 1.383 . S
C604 C607 1.603 . S
C605 C600 1.377 . S
C605 C604 1.383 . S
C605 H668 0.929 . S
C606 C602 1.527 . S
C606 H669 0.961 . S
C606 H670 0.959 . S
C606 H671 0.959 . S
C607 C604 1.603 . S
C607 H672 0.960 . S
C607 H673 0.962 . S
C607 H674 0.961 . S
C608 C575 1.587 . S
C608 C609 1.360 . S
C608 C621 1.412 . S
C609 C608 1.360 . S
C609 C610 1.365 . S
C609 H675 0.929 . S
C610 C585 1.553 . S
C610 C609 1.365 . S
C610 C611 1.404 . S
C611 C610 1.404 . S
C611 C612 1.395 . S
C611 C622 1.451 . S
C612 C611 1.395 . S
C612 C613 1.322 . S
C612 H676 0.930 . S
C613 C612 1.322 . S
C613 C614 1.459 . S
C613 H677 0.929 . S
C614 C613 1.459 . S
C614 C615 1.445 . S
C614 C623 1.395 . S
C615 C593 1.432 . S
C615 C614 1.445 . S
C615 C616 1.370 . S
C616 C615 1.370 . S
C616 C617 1.438 . S
C616 H678 0.930 . S
C617 C603 1.497 . S
C617 C616 1.438 . S
C617 C618 1.360 . S
C618 C617 1.360 . S
C618 C619 1.401 . S
C618 C623 1.446 . S
C619 C618 1.401 . S
C619 C620 1.347 . S
C619 H679 0.929 . S
C620 C619 1.347 . S
C620 C621 1.455 . S
C620 H680 0.930 . S
C621 C608 1.412 . S
C621 C620 1.455 . S
C621 C622 1.331 . S
C622 C611 1.451 . S
C622 C621 1.331 . S
C622 C623 1.497 . S
C623 C614 1.395 . S
C623 C618 1.446 . S
C623 C622 1.497 . S
C624 C625 1.582 . S
C624 H681 0.962 . S
C624 H682 0.959 . S
C624 H683 0.958 . S
C625 C624 1.582 . S
C625 O628 1.458 . S
C625 H654 0.980 . S
O626 C571 1.426 . S
O626 C572 1.334 . S
O627 C599 1.412 . S
O627 C600 1.393 . S
O628 C590 1.435 . S
O628 C625 1.458 . S
O629 C581 1.468 . S
O629 C582 1.408 . S
H630 C571 0.980 . S
H631 C570 0.959 . S
H632 C570 0.959 . S
H633 C570 0.960 . S
H634 C573 0.929 . S
H635 C577 0.929 . S
H636 C578 0.959 . S
H637 C578 0.961 . S
H638 C578 0.961 . S
H639 C579 0.960 . S
H640 C579 0.960 . S
H641 C579 0.961 . S
H642 C581 0.980 . S
H643 C580 0.961 . S
H644 C580 0.960 . S
H645 C580 0.959 . S
H646 C583 0.930 . S
H647 C587 0.931 . S
H648 C588 0.959 . S
H649 C588 0.961 . S
H650 C588 0.959 . S
H651 C589 0.960 . S
H652 C589 0.960 . S
H653 C589 0.960 . S
H654 C625 0.980 . S
H655 C591 0.930 . S
H656 C595 0.930 . S
H657 C596 0.961 . S
H658 C596 0.960 . S
H659 C596 0.958 . S
H660 C597 0.961 . S
H661 C597 0.960 . S
H662 C597 0.960 . S
H663 C599 0.980 . S
H664 C598 0.961 . S
H665 C598 0.961 . S
H666 C598 0.959 . S
H667 C601 0.932 . S
H668 C605 0.929 . S
H669 C606 0.961 . S
H670 C606 0.959 . S
H671 C606 0.959 . S
H672 C607 0.960 . S
H673 C607 0.962 . S
H674 C607 0.961 . S
H675 C609 0.929 . S
H676 C612 0.930 . S
H677 C613 0.929 . S
H678 C616 0.930 . S
H679 C619 0.929 . S
H680 C620 0.930 . S
H681 C624 0.962 . S
H682 C624 0.959 . S
H683 C624 0.958 . S
Co684 O685 2.216 . S
Co684 O686 2.091 . S
Co684 O688 2.004 . S
Co684 O694 2.021 . S
Co684 O696 2.137 . S
Co684 O697 2.244 . S
O685 Co684 2.216 . S
O685 C692 1.247 . S
O686 Co684 2.091 . S
O686 C692 1.261 . S
C687 O696 1.247 . S
C687 O697 1.272 . S
O688 Co684 2.004 . S
O688 C693 1.259 . S
Co689 O690 2.061 . S
Co689 O695 2.052 . S
Co689 O697 2.135 . S
O690 Co689 2.061 . S
O690 C693 1.235 . S
C691 O694 1.238 . S
C691 O695 1.241 . S
C692 O685 1.247 . S
C692 O686 1.261 . S
C693 O688 1.259 . S
C693 O690 1.235 . S
O694 Co684 2.021 . S
O694 C691 1.238 . S
O695 Co689 2.052 . S
O695 C691 1.241 . S
O696 Co684 2.137 . S
O696 C687 1.247 . S
O697 Co684 2.244 . S
O697 C687 1.272 . S
O697 Co689 2.135 . S
Co698 O699 2.216 . S
Co698 O700 2.091 . S
Co698 O702 2.004 . S
Co698 O708 2.021 . S
Co698 O710 2.137 . S
Co698 O711 2.244 . S
O699 Co698 2.216 . S
O699 C706 1.247 . S
O700 Co698 2.091 . S
O700 C706 1.261 . S
C701 O710 1.247 . S
C701 O711 1.272 . S
O702 Co698 2.004 . S
O702 C707 1.259 . S
Co703 O704 2.061 . S
Co703 O709 2.052 . S
Co703 O711 2.135 . S
O704 Co703 2.061 . S
O704 C707 1.235 . S
C705 O708 1.238 . S
C705 O709 1.241 . S
C706 O699 1.247 . S
C706 O700 1.261 . S
C707 O702 1.259 . S
C707 O704 1.235 . S
O708 Co698 2.021 . S
O708 C705 1.238 . S
O709 Co703 2.052 . S
O709 C705 1.241 . S
O710 Co698 2.137 . S
O710 C701 1.247 . S
O711 Co698 2.244 . S
O711 C701 1.272 . S
O711 Co703 2.135 . S
Co712 O713 2.216 . S
Co712 O714 2.091 . S
Co712 O716 2.004 . S
Co712 O722 2.021 . S
Co712 O724 2.137 . S
Co712 O725 2.244 . S
O713 Co712 2.216 . S
O713 C720 1.247 . S
O714 Co712 2.091 . S
O714 C720 1.261 . S
C715 O724 1.247 . S
C715 O725 1.272 . S
O716 Co712 2.004 . S
O716 C721 1.259 . S
Co717 O718 2.061 . S
Co717 O723 2.052 . S
Co717 O725 2.135 . S
O718 Co717 2.061 . S
O718 C721 1.235 . S
C719 O722 1.238 . S
C719 O723 1.241 . S
C720 O713 1.247 . S
C720 O714 1.261 . S
C721 O716 1.259 . S
C721 O718 1.235 . S
O722 Co712 2.021 . S
O722 C719 1.238 . S
O723 Co717 2.052 . S
O723 C719 1.241 . S
O724 Co712 2.137 . S
O724 C715 1.247 . S
O725 Co712 2.244 . S
O725 C715 1.272 . S
O725 Co717 2.135 . S
Co726 O727 2.216 . S
Co726 O728 2.091 . S
Co726 O730 2.004 . S
Co726 O736 2.021 . S
Co726 O738 2.137 . S
Co726 O739 2.244 . S
O727 Co726 2.216 . S
O727 C734 1.247 . S
O728 Co726 2.091 . S
O728 C734 1.261 . S
C729 O738 1.247 . S
C729 O739 1.272 . S
O730 Co726 2.004 . S
O730 C735 1.259 . S
Co731 O732 2.061 . S
Co731 O737 2.052 . S
Co731 O739 2.135 . S
O732 Co731 2.061 . S
O732 C735 1.235 . S
C733 O736 1.238 . S
C733 O737 1.241 . S
C734 O727 1.247 . S
C734 O728 1.261 . S
C735 O730 1.259 . S
C735 O732 1.235 . S
O736 Co726 2.021 . S
O736 C733 1.238 . S
O737 Co731 2.052 . S
O737 C733 1.241 . S
O738 Co726 2.137 . S
O738 C729 1.247 . S
O739 Co726 2.244 . S
O739 C729 1.272 . S
O739 Co731 2.135 . S
Co740 O741 2.216 . S
Co740 O742 2.091 . S
Co740 O744 2.004 . S
Co740 O750 2.021 . S
Co740 O752 2.137 . S
Co740 O753 2.244 . S
O741 Co740 2.216 . S
O741 C748 1.247 . S
O742 Co740 2.091 . S
O742 C748 1.261 . S
C743 O752 1.247 . S
C743 O753 1.272 . S
O744 Co740 2.004 . S
O744 C749 1.259 . S
Co745 O746 2.061 . S
Co745 O751 2.052 . S
Co745 O753 2.135 . S
O746 Co745 2.061 . S
O746 C749 1.235 . S
C747 O750 1.238 . S
C747 O751 1.241 . S
C748 O741 1.247 . S
C748 O742 1.261 . S
C749 O744 1.259 . S
C749 O746 1.235 . S
O750 Co740 2.021 . S
O750 C747 1.238 . S
O751 Co745 2.052 . S
O751 C747 1.241 . S
O752 Co740 2.137 . S
O752 C743 1.247 . S
O753 Co740 2.244 . S
O753 C743 1.272 . S
O753 Co745 2.135 . S
Co754 O755 2.216 . S
Co754 O756 2.091 . S
Co754 O758 2.004 . S
Co754 O764 2.021 . S
Co754 O766 2.137 . S
Co754 O767 2.244 . S
O755 Co754 2.216 . S
O755 C762 1.247 . S
O756 Co754 2.091 . S
O756 C762 1.261 . S
C757 O766 1.247 . S
C757 O767 1.272 . S
O758 Co754 2.004 . S
O758 C763 1.259 . S
Co759 O760 2.061 . S
Co759 O765 2.052 . S
Co759 O767 2.135 . S
O760 Co759 2.061 . S
O760 C763 1.235 . S
C761 O764 1.238 . S
C761 O765 1.241 . S
C762 O755 1.247 . S
C762 O756 1.261 . S
C763 O758 1.259 . S
C763 O760 1.235 . S
O764 Co754 2.021 . S
O764 C761 1.238 . S
O765 Co759 2.052 . S
O765 C761 1.241 . S
O766 Co754 2.137 . S
O766 C757 1.247 . S
O767 Co754 2.244 . S
O767 C757 1.272 . S
O767 Co759 2.135 . S
C768 C769 1.349 . S
C768 C770 1.327 . S
C768 H793 0.950 . S
C769 C768 1.349 . S
C769 C785 1.349 . S
C770 C768 1.327 . S
C770 C789 1.429 . S
C770 H794 0.950 . S
C771 C788 1.574 . S
C771 C790 1.368 . S
C771 H795 0.949 . S
H772 C776 0.949 . S
C773 C774 1.349 . S
C773 C775 1.327 . S
C773 H796 0.950 . S
C774 C773 1.349 . S
C774 C786 1.349 . S
C775 C773 1.327 . S
C775 C791 1.429 . S
C775 H797 0.950 . S
C776 H772 0.949 . S
C776 C784 1.574 . S
C776 C792 1.368 . S
H777 C785 0.950 . S
H778 C783 0.950 . S
H779 C784 0.949 . S
H780 C786 0.950 . S
H781 C787 0.950 . S
H782 C788 0.949 . S
C783 H778 0.950 . S
C783 C785 1.327 . S
C783 C789 1.429 . S
C784 C776 1.574 . S
C784 H779 0.949 . S
C784 C790 1.368 . S
C785 C769 1.349 . S
C785 H777 0.950 . S
C785 C783 1.327 . S
C786 C774 1.349 . S
C786 H780 0.950 . S
C786 C787 1.327 . S
C787 H781 0.950 . S
C787 C786 1.327 . S
C787 C791 1.429 . S
C788 C771 1.574 . S
C788 H782 0.949 . S
C788 C792 1.368 . S
C789 C770 1.429 . S
C789 C783 1.429 . S
C789 C790 1.523 . S
C790 C771 1.368 . S
C790 C784 1.368 . S
C790 C789 1.523 . S
C791 C775 1.429 . S
C791 C787 1.429 . S
C791 C792 1.523 . S
C792 C776 1.368 . S
C792 C788 1.368 . S
C792 C791 1.523 . S
H793 C768 0.950 . S
H794 C770 0.950 . S
H795 C771 0.949 . S
H796 C773 0.950 . S
H797 C775 0.950 . S
C798 C799 1.349 . S
C798 C800 1.327 . S
C798 H823 0.950 . S
C799 C798 1.349 . S
C799 C815 1.349 . S
C800 C798 1.327 . S
C800 C819 1.429 . S
C800 H824 0.950 . S
C801 C818 1.574 . S
C801 C820 1.368 . S
C801 H825 0.949 . S
H802 C806 0.949 . S
C803 C804 1.349 . S
C803 C805 1.327 . S
C803 H826 0.950 . S
C804 C803 1.349 . S
C804 C816 1.349 . S
C805 C803 1.327 . S
C805 C821 1.429 . S
C805 H827 0.950 . S
C806 H802 0.949 . S
C806 C814 1.574 . S
C806 C822 1.368 . S
H807 C815 0.950 . S
H808 C813 0.950 . S
H809 C814 0.949 . S
H810 C816 0.950 . S
H811 C817 0.950 . S
H812 C818 0.949 . S
C813 H808 0.950 . S
C813 C815 1.327 . S
C813 C819 1.429 . S
C814 C806 1.574 . S
C814 H809 0.949 . S
C814 C820 1.368 . S
C815 C799 1.349 . S
C815 H807 0.950 . S
C815 C813 1.327 . S
C816 C804 1.349 . S
C816 H810 0.950 . S
C816 C817 1.327 . S
C817 H811 0.950 . S
C817 C816 1.327 . S
C817 C821 1.429 . S
C818 C801 1.574 . S
C818 H812 0.949 . S
C818 C822 1.368 . S
C819 C800 1.429 . S
C819 C813 1.429 . S
C819 C820 1.523 . S
C820 C801 1.368 . S
C820 C814 1.368 . S
C820 C819 1.523 . S
C821 C805 1.429 . S
C821 C817 1.429 . S
C821 C822 1.523 . S
C822 C806 1.368 . S
C822 C818 1.368 . S
C822 C821 1.523 . S
H823 C798 0.950 . S
H824 C800 0.950 . S
H825 C801 0.949 . S
H826 C803 0.950 . S
H827 C805 0.950 . S
C828 C829 1.349 . S
C828 C830 1.327 . S
C828 H853 0.950 . S
C829 C828 1.349 . S
C829 C845 1.349 . S
C830 C828 1.327 . S
C830 C849 1.429 . S
C830 H854 0.950 . S
C831 C848 1.574 . S
C831 C850 1.368 . S
C831 H855 0.949 . S
H832 C836 0.949 . S
C833 C834 1.349 . S
C833 C835 1.327 . S
C833 H856 0.950 . S
C834 C833 1.349 . S
C834 C846 1.349 . S
C835 C833 1.327 . S
C835 C851 1.429 . S
C835 H857 0.950 . S
C836 H832 0.949 . S
C836 C844 1.574 . S
C836 C852 1.368 . S
H837 C845 0.950 . S
H838 C843 0.950 . S
H839 C844 0.949 . S
H840 C846 0.950 . S
H841 C847 0.950 . S
H842 C848 0.949 . S
C843 H838 0.950 . S
C843 C845 1.327 . S
C843 C849 1.429 . S
C844 C836 1.574 . S
C844 H839 0.949 . S
C844 C850 1.368 . S
C845 C829 1.349 . S
C845 H837 0.950 . S
C845 C843 1.327 . S
C846 C834 1.349 . S
C846 H840 0.950 . S
C846 C847 1.327 . S
C847 H841 0.950 . S
C847 C846 1.327 . S
C847 C851 1.429 . S
C848 C831 1.574 . S
C848 H842 0.949 . S
C848 C852 1.368 . S
C849 C830 1.429 . S
C849 C843 1.429 . S
C849 C850 1.523 . S
C850 C831 1.368 . S
C850 C844 1.368 . S
C850 C849 1.523 . S
C851 C835 1.429 . S
C851 C847 1.429 . S
C851 C852 1.523 . S
C852 C836 1.368 . S
C852 C848 1.368 . S
C852 C851 1.523 . S
H853 C828 0.950 . S
H854 C830 0.950 . S
H855 C831 0.949 . S
H856 C833 0.950 . S
H857 C835 0.950 . S
C858 C859 1.349 . S
C858 C860 1.327 . S
C858 H883 0.950 . S
C859 C858 1.349 . S
C859 C875 1.349 . S
C860 C858 1.327 . S
C860 C879 1.429 . S
C860 H884 0.950 . S
C861 C878 1.574 . S
C861 C880 1.368 . S
C861 H885 0.949 . S
H862 C866 0.949 . S
C863 C864 1.349 . S
C863 C865 1.327 . S
C863 H886 0.950 . S
C864 C863 1.349 . S
C864 C876 1.349 . S
C865 C863 1.327 . S
C865 C881 1.429 . S
C865 H887 0.950 . S
C866 H862 0.949 . S
C866 C874 1.574 . S
C866 C882 1.368 . S
H867 C875 0.950 . S
H868 C873 0.950 . S
H869 C874 0.949 . S
H870 C876 0.950 . S
H871 C877 0.950 . S
H872 C878 0.949 . S
C873 H868 0.950 . S
C873 C875 1.327 . S
C873 C879 1.429 . S
C874 C866 1.574 . S
C874 H869 0.949 . S
C874 C880 1.368 . S
C875 C859 1.349 . S
C875 H867 0.950 . S
C875 C873 1.327 . S
C876 C864 1.349 . S
C876 H870 0.950 . S
C876 C877 1.327 . S
C877 H871 0.950 . S
C877 C876 1.327 . S
C877 C881 1.429 . S
C878 C861 1.574 . S
C878 H872 0.949 . S
C878 C882 1.368 . S
C879 C860 1.429 . S
C879 C873 1.429 . S
C879 C880 1.523 . S
C880 C861 1.368 . S
C880 C874 1.368 . S
C880 C879 1.523 . S
C881 C865 1.429 . S
C881 C877 1.429 . S
C881 C882 1.523 . S
C882 C866 1.368 . S
C882 C878 1.368 . S
C882 C881 1.523 . S
H883 C858 0.950 . S
H884 C860 0.950 . S
H885 C861 0.949 . S
H886 C863 0.950 . S
H887 C865 0.950 . S
C888 C889 1.349 . S
C888 C890 1.327 . S
C888 H913 0.950 . S
C889 C888 1.349 . S
C889 C905 1.349 . S
C890 C888 1.327 . S
C890 C909 1.429 . S
C890 H914 0.950 . S
C891 C908 1.574 . S
C891 C910 1.368 . S
C891 H915 0.949 . S
H892 C896 0.949 . S
C893 C894 1.349 . S
C893 C895 1.327 . S
C893 H916 0.950 . S
C894 C893 1.349 . S
C894 C906 1.349 . S
C895 C893 1.327 . S
C895 C911 1.429 . S
C895 H917 0.950 . S
C896 H892 0.949 . S
C896 C904 1.574 . S
C896 C912 1.368 . S
H897 C905 0.950 . S
H898 C903 0.950 . S
H899 C904 0.949 . S
H900 C906 0.950 . S
H901 C907 0.950 . S
H902 C908 0.949 . S
C903 H898 0.950 . S
C903 C905 1.327 . S
C903 C909 1.429 . S
C904 C896 1.574 . S
C904 H899 0.949 . S
C904 C910 1.368 . S
C905 C889 1.349 . S
C905 H897 0.950 . S
C905 C903 1.327 . S
C906 C894 1.349 . S
C906 H900 0.950 . S
C906 C907 1.327 . S
C907 H901 0.950 . S
C907 C906 1.327 . S
C907 C911 1.429 . S
C908 C891 1.574 . S
C908 H902 0.949 . S
C908 C912 1.368 . S
C909 C890 1.429 . S
C909 C903 1.429 . S
C909 C910 1.523 . S
C910 C891 1.368 . S
C910 C904 1.368 . S
C910 C909 1.523 . S
C911 C895 1.429 . S
C911 C907 1.429 . S
C911 C912 1.523 . S
C912 C896 1.368 . S
C912 C908 1.368 . S
C912 C911 1.523 . S
H913 C888 0.950 . S
H914 C890 0.950 . S
H915 C891 0.949 . S
H916 C893 0.950 . S
H917 C895 0.950 . S
C918 C919 1.349 . S
C918 C920 1.327 . S
C918 H943 0.950 . S
C919 C918 1.349 . S
C919 C935 1.349 . S
C920 C918 1.327 . S
C920 C939 1.429 . S
C920 H944 0.950 . S
C921 C938 1.574 . S
C921 C940 1.368 . S
C921 H945 0.949 . S
H922 C926 0.949 . S
C923 C924 1.349 . S
C923 C925 1.327 . S
C923 H946 0.950 . S
C924 C923 1.349 . S
C924 C936 1.349 . S
C925 C923 1.327 . S
C925 C941 1.429 . S
C925 H947 0.950 . S
C926 H922 0.949 . S
C926 C934 1.574 . S
C926 C942 1.368 . S
H927 C935 0.950 . S
H928 C933 0.950 . S
H929 C934 0.949 . S
H930 C936 0.950 . S
H931 C937 0.950 . S
H932 C938 0.949 . S
C933 H928 0.950 . S
C933 C935 1.327 . S
C933 C939 1.429 . S
C934 C926 1.574 . S
C934 H929 0.949 . S
C934 C940 1.368 . S
C935 C919 1.349 . S
C935 H927 0.950 . S
C935 C933 1.327 . S
C936 C924 1.349 . S
C936 H930 0.950 . S
C936 C937 1.327 . S
C937 H931 0.950 . S
C937 C936 1.327 . S
C937 C941 1.429 . S
C938 C921 1.574 . S
C938 H932 0.949 . S
C938 C942 1.368 . S
C939 C920 1.429 . S
C939 C933 1.429 . S
C939 C940 1.523 . S
C940 C921 1.368 . S
C940 C934 1.368 . S
C940 C939 1.523 . S
C941 C925 1.429 . S
C941 C937 1.429 . S
C941 C942 1.523 . S
C942 C926 1.368 . S
C942 C938 1.368 . S
C942 C941 1.523 . S
H943 C918 0.950 . S
H944 C920 0.950 . S
H945 C921 0.949 . S
H946 C923 0.950 . S
H947 C925 0.950 . S
C948 C949 1.349 . S
C948 C950 1.327 . S
C948 H973 0.950 . S
C949 C948 1.349 . S
C949 C965 1.349 . S
C950 C948 1.327 . S
C950 C969 1.429 . S
C950 H974 0.950 . S
C951 C968 1.574 . S
C951 C970 1.368 . S
C951 H975 0.949 . S
H952 C956 0.949 . S
C953 C954 1.349 . S
C953 C955 1.327 . S
C953 H976 0.950 . S
C954 C953 1.349 . S
C954 C966 1.349 . S
C955 C953 1.327 . S
C955 C971 1.429 . S
C955 H977 0.950 . S
C956 H952 0.949 . S
C956 C964 1.574 . S
C956 C972 1.368 . S
H957 C965 0.950 . S
H958 C963 0.950 . S
H959 C964 0.949 . S
H960 C966 0.950 . S
H961 C967 0.950 . S
H962 C968 0.949 . S
C963 H958 0.950 . S
C963 C965 1.327 . S
C963 C969 1.429 . S
C964 C956 1.574 . S
C964 H959 0.949 . S
C964 C970 1.368 . S
C965 C949 1.349 . S
C965 H957 0.950 . S
C965 C963 1.327 . S
C966 C954 1.349 . S
C966 H960 0.950 . S
C966 C967 1.327 . S
C967 H961 0.950 . S
C967 C966 1.327 . S
C967 C971 1.429 . S
C968 C951 1.574 . S
C968 H962 0.949 . S
C968 C972 1.368 . S
C969 C950 1.429 . S
C969 C963 1.429 . S
C969 C970 1.523 . S
C970 C951 1.368 . S
C970 C964 1.368 . S
C970 C969 1.523 . S
C971 C955 1.429 . S
C971 C967 1.429 . S
C971 C972 1.523 . S
C972 C956 1.368 . S
C972 C968 1.368 . S
C972 C971 1.523 . S
H973 C948 0.950 . S
H974 C950 0.950 . S
H975 C951 0.949 . S
H976 C953 0.950 . S
H977 C955 0.950 . S
C978 C979 1.349 . S
C978 C980 1.327 . S
C978 H1003 0.950 . S
C979 C978 1.349 . S
C979 C995 1.349 . S
C980 C978 1.327 . S
C980 C999 1.429 . S
C980 H1004 0.950 . S
C981 C998 1.574 . S
C981 C1000 1.368 . S
C981 H1005 0.949 . S
H982 C986 0.949 . S
C983 C984 1.349 . S
C983 C985 1.327 . S
C983 H1006 0.950 . S
C984 C983 1.349 . S
C984 C996 1.349 . S
C985 C983 1.327 . S
C985 C1001 1.429 . S
C985 H1007 0.950 . S
C986 H982 0.949 . S
C986 C994 1.574 . S
C986 C1002 1.368 . S
H987 C995 0.950 . S
H988 C993 0.950 . S
H989 C994 0.949 . S
H990 C996 0.950 . S
H991 C997 0.950 . S
H992 C998 0.949 . S
C993 H988 0.950 . S
C993 C995 1.327 . S
C993 C999 1.429 . S
C994 C986 1.574 . S
C994 H989 0.949 . S
C994 C1000 1.368 . S
C995 C979 1.349 . S
C995 H987 0.950 . S
C995 C993 1.327 . S
C996 C984 1.349 . S
C996 H990 0.950 . S
C996 C997 1.327 . S
C997 H991 0.950 . S
C997 C996 1.327 . S
C997 C1001 1.429 . S
C998 C981 1.574 . S
C998 H992 0.949 . S
C998 C1002 1.368 . S
C999 C980 1.429 . S
C999 C993 1.429 . S
C999 C1000 1.523 . S
C1000 C981 1.368 . S
C1000 C994 1.368 . S
C1000 C999 1.523 . S
C1001 C985 1.429 . S
C1001 C997 1.429 . S
C1001 C1002 1.523 . S
C1002 C986 1.368 . S
C1002 C998 1.368 . S
C1002 C1001 1.523 . S
H1003 C978 0.950 . S
H1004 C980 0.950 . S
H1005 C981 0.949 . S
H1006 C983 0.950 . S
H1007 C985 0.950 . S
C1008 C1009 1.349 . S
C1008 C1010 1.327 . S
C1008 H1033 0.950 . S
C1009 C1008 1.349 . S
C1009 C1025 1.349 . S
C1010 C1008 1.327 . S
C1010 C1029 1.429 . S
C1010 H1034 0.950 . S
C1011 C1028 1.574 . S
C1011 C1030 1.368 . S
C1011 H1035 0.949 . S
H1012 C1016 0.949 . S
C1013 C1014 1.349 . S
C1013 C1015 1.327 . S
C1013 H1036 0.950 . S
C1014 C1013 1.349 . S
C1014 C1026 1.349 . S
C1015 C1013 1.327 . S
C1015 C1031 1.429 . S
C1015 H1037 0.950 . S
C1016 H1012 0.949 . S
C1016 C1024 1.574 . S
C1016 C1032 1.368 . S
H1017 C1025 0.950 . S
H1018 C1023 0.950 . S
H1019 C1024 0.949 . S
H1020 C1026 0.950 . S
H1021 C1027 0.950 . S
H1022 C1028 0.949 . S
C1023 H1018 0.950 . S
C1023 C1025 1.327 . S
C1023 C1029 1.429 . S
C1024 C1016 1.574 . S
C1024 H1019 0.949 . S
C1024 C1030 1.368 . S
C1025 C1009 1.349 . S
C1025 H1017 0.950 . S
C1025 C1023 1.327 . S
C1026 C1014 1.349 . S
C1026 H1020 0.950 . S
C1026 C1027 1.327 . S
C1027 H1021 0.950 . S
C1027 C1026 1.327 . S
C1027 C1031 1.429 . S
C1028 C1011 1.574 . S
C1028 H1022 0.949 . S
C1028 C1032 1.368 . S
C1029 C1010 1.429 . S
C1029 C1023 1.429 . S
C1029 C1030 1.523 . S
C1030 C1011 1.368 . S
C1030 C1024 1.368 . S
C1030 C1029 1.523 . S
C1031 C1015 1.429 . S
C1031 C1027 1.429 . S
C1031 C1032 1.523 . S
C1032 C1016 1.368 . S
C1032 C1028 1.368 . S
C1032 C1031 1.523 . S
H1033 C1008 0.950 . S
H1034 C1010 0.950 . S
H1035 C1011 0.949 . S
H1036 C1013 0.950 . S
H1037 C1015 0.950 . S
C1038 C1039 1.349 . S
C1038 C1040 1.327 . S
C1038 H1063 0.950 . S
C1039 C1038 1.349 . S
C1039 C1055 1.349 . S
C1040 C1038 1.327 . S
C1040 C1059 1.429 . S
C1040 H1064 0.950 . S
C1041 C1058 1.574 . S
C1041 C1060 1.368 . S
C1041 H1065 0.949 . S
H1042 C1046 0.949 . S
C1043 C1044 1.349 . S
C1043 C1045 1.327 . S
C1043 H1066 0.950 . S
C1044 C1043 1.349 . S
C1044 C1056 1.349 . S
C1045 C1043 1.327 . S
C1045 C1061 1.429 . S
C1045 H1067 0.950 . S
C1046 H1042 0.949 . S
C1046 C1054 1.574 . S
C1046 C1062 1.368 . S
H1047 C1055 0.950 . S
H1048 C1053 0.950 . S
H1049 C1054 0.949 . S
H1050 C1056 0.950 . S
H1051 C1057 0.950 . S
H1052 C1058 0.949 . S
C1053 H1048 0.950 . S
C1053 C1055 1.327 . S
C1053 C1059 1.429 . S
C1054 C1046 1.574 . S
C1054 H1049 0.949 . S
C1054 C1060 1.368 . S
C1055 C1039 1.349 . S
C1055 H1047 0.950 . S
C1055 C1053 1.327 . S
C1056 C1044 1.349 . S
C1056 H1050 0.950 . S
C1056 C1057 1.327 . S
C1057 H1051 0.950 . S
C1057 C1056 1.327 . S
C1057 C1061 1.429 . S
C1058 C1041 1.574 . S
C1058 H1052 0.949 . S
C1058 C1062 1.368 . S
C1059 C1040 1.429 . S
C1059 C1053 1.429 . S
C1059 C1060 1.523 . S
C1060 C1041 1.368 . S
C1060 C1054 1.368 . S
C1060 C1059 1.523 . S
C1061 C1045 1.429 . S
C1061 C1057 1.429 . S
C1061 C1062 1.523 . S
C1062 C1046 1.368 . S
C1062 C1058 1.368 . S
C1062 C1061 1.523 . S
H1063 C1038 0.950 . S
H1064 C1040 0.950 . S
H1065 C1041 0.949 . S
H1066 C1043 0.950 . S
H1067 C1045 0.950 . S
C1068 C1069 1.349 . S
C1068 C1070 1.327 . S
C1068 H1093 0.950 . S
C1069 C1068 1.349 . S
C1069 C1085 1.349 . S
C1070 C1068 1.327 . S
C1070 C1089 1.429 . S
C1070 H1094 0.950 . S
C1071 C1088 1.574 . S
C1071 C1090 1.368 . S
C1071 H1095 0.949 . S
H1072 C1076 0.949 . S
C1073 C1074 1.349 . S
C1073 C1075 1.327 . S
C1073 H1096 0.950 . S
C1074 C1073 1.349 . S
C1074 C1086 1.349 . S
C1075 C1073 1.327 . S
C1075 C1091 1.429 . S
C1075 H1097 0.950 . S
C1076 H1072 0.949 . S
C1076 C1084 1.574 . S
C1076 C1092 1.368 . S
H1077 C1085 0.950 . S
H1078 C1083 0.950 . S
H1079 C1084 0.949 . S
H1080 C1086 0.950 . S
H1081 C1087 0.950 . S
H1082 C1088 0.949 . S
C1083 H1078 0.950 . S
C1083 C1085 1.327 . S
C1083 C1089 1.429 . S
C1084 C1076 1.574 . S
C1084 H1079 0.949 . S
C1084 C1090 1.368 . S
C1085 C1069 1.349 . S
C1085 H1077 0.950 . S
C1085 C1083 1.327 . S
C1086 C1074 1.349 . S
C1086 H1080 0.950 . S
C1086 C1087 1.327 . S
C1087 H1081 0.950 . S
C1087 C1086 1.327 . S
C1087 C1091 1.429 . S
C1088 C1071 1.574 . S
C1088 H1082 0.949 . S
C1088 C1092 1.368 . S
C1089 C1070 1.429 . S
C1089 C1083 1.429 . S
C1089 C1090 1.523 . S
C1090 C1071 1.368 . S
C1090 C1084 1.368 . S
C1090 C1089 1.523 . S
C1091 C1075 1.429 . S
C1091 C1087 1.429 . S
C1091 C1092 1.523 . S
C1092 C1076 1.368 . S
C1092 C1088 1.368 . S
C1092 C1091 1.523 . S
H1093 C1068 0.950 . S
H1094 C1070 0.950 . S
H1095 C1071 0.949 . S
H1096 C1073 0.950 . S
H1097 C1075 0.950 . S
C1098 C1099 1.349 . S
C1098 C1100 1.327 . S
C1098 H1123 0.950 . S
C1099 C1098 1.349 . S
C1099 C1115 1.349 . S
C1100 C1098 1.327 . S
C1100 C1119 1.429 . S
C1100 H1124 0.950 . S
C1101 C1118 1.574 . S
C1101 C1120 1.368 . S
C1101 H1125 0.949 . S
H1102 C1106 0.949 . S
C1103 C1104 1.349 . S
C1103 C1105 1.327 . S
C1103 H1126 0.950 . S
C1104 C1103 1.349 . S
C1104 C1116 1.349 . S
C1105 C1103 1.327 . S
C1105 C1121 1.429 . S
C1105 H1127 0.950 . S
C1106 H1102 0.949 . S
C1106 C1114 1.574 . S
C1106 C1122 1.368 . S
H1107 C1115 0.950 . S
H1108 C1113 0.950 . S
H1109 C1114 0.949 . S
H1110 C1116 0.950 . S
H1111 C1117 0.950 . S
H1112 C1118 0.949 . S
C1113 H1108 0.950 . S
C1113 C1115 1.327 . S
C1113 C1119 1.429 . S
C1114 C1106 1.574 . S
C1114 H1109 0.949 . S
C1114 C1120 1.368 . S
C1115 C1099 1.349 . S
C1115 H1107 0.950 . S
C1115 C1113 1.327 . S
C1116 C1104 1.349 . S
C1116 H1110 0.950 . S
C1116 C1117 1.327 . S
C1117 H1111 0.950 . S
C1117 C1116 1.327 . S
C1117 C1121 1.429 . S
C1118 C1101 1.574 . S
C1118 H1112 0.949 . S
C1118 C1122 1.368 . S
C1119 C1100 1.429 . S
C1119 C1113 1.429 . S
C1119 C1120 1.523 . S
C1120 C1101 1.368 . S
C1120 C1114 1.368 . S
C1120 C1119 1.523 . S
C1121 C1105 1.429 . S
C1121 C1117 1.429 . S
C1121 C1122 1.523 . S
C1122 C1106 1.368 . S
C1122 C1118 1.368 . S
C1122 C1121 1.523 . S
H1123 C1098 0.950 . S
H1124 C1100 0.950 . S
H1125 C1101 0.949 . S
H1126 C1103 0.950 . S
H1127 C1105 0.950 . S
C1128 C1129 1.349 . S
C1128 C1130 1.327 . S
C1128 H1153 0.950 . S
C1129 C1128 1.349 . S
C1129 C1145 1.349 . S
C1130 C1128 1.327 . S
C1130 C1149 1.429 . S
C1130 H1154 0.950 . S
C1131 C1148 1.574 . S
C1131 C1150 1.368 . S
C1131 H1155 0.949 . S
H1132 C1136 0.949 . S
C1133 C1134 1.349 . S
C1133 C1135 1.327 . S
C1133 H1156 0.950 . S
C1134 C1133 1.349 . S
C1134 C1146 1.349 . S
C1135 C1133 1.327 . S
C1135 C1151 1.429 . S
C1135 H1157 0.950 . S
C1136 H1132 0.949 . S
C1136 C1144 1.574 . S
C1136 C1152 1.368 . S
H1137 C1145 0.950 . S
H1138 C1143 0.950 . S
H1139 C1144 0.949 . S
H1140 C1146 0.950 . S
H1141 C1147 0.950 . S
H1142 C1148 0.949 . S
C1143 H1138 0.950 . S
C1143 C1145 1.327 . S
C1143 C1149 1.429 . S
C1144 C1136 1.574 . S
C1144 H1139 0.949 . S
C1144 C1150 1.368 . S
C1145 C1129 1.349 . S
C1145 H1137 0.950 . S
C1145 C1143 1.327 . S
C1146 C1134 1.349 . S
C1146 H1140 0.950 . S
C1146 C1147 1.327 . S
C1147 H1141 0.950 . S
C1147 C1146 1.327 . S
C1147 C1151 1.429 . S
C1148 C1131 1.574 . S
C1148 H1142 0.949 . S
C1148 C1152 1.368 . S
C1149 C1130 1.429 . S
C1149 C1143 1.429 . S
C1149 C1150 1.523 . S
C1150 C1131 1.368 . S
C1150 C1144 1.368 . S
C1150 C1149 1.523 . S
C1151 C1135 1.429 . S
C1151 C1147 1.429 . S
C1151 C1152 1.523 . S
C1152 C1136 1.368 . S
C1152 C1148 1.368 . S
C1152 C1151 1.523 . S
H1153 C1128 0.950 . S
H1154 C1130 0.950 . S
H1155 C1131 0.949 . S
H1156 C1133 0.950 . S
H1157 C1135 0.950 . S
C1158 C1159 1.349 . S
C1158 C1160 1.327 . S
C1158 H1183 0.950 . S
C1159 C1158 1.349 . S
C1159 C1175 1.349 . S
C1160 C1158 1.327 . S
C1160 C1179 1.429 . S
C1160 H1184 0.950 . S
C1161 C1178 1.574 . S
C1161 C1180 1.368 . S
C1161 H1185 0.949 . S
H1162 C1166 0.949 . S
C1163 C1164 1.349 . S
C1163 C1165 1.327 . S
C1163 H1186 0.950 . S
C1164 C1163 1.349 . S
C1164 C1176 1.349 . S
C1165 C1163 1.327 . S
C1165 C1181 1.429 . S
C1165 H1187 0.950 . S
C1166 H1162 0.949 . S
C1166 C1174 1.574 . S
C1166 C1182 1.368 . S
H1167 C1175 0.950 . S
H1168 C1173 0.950 . S
H1169 C1174 0.949 . S
H1170 C1176 0.950 . S
H1171 C1177 0.950 . S
H1172 C1178 0.949 . S
C1173 H1168 0.950 . S
C1173 C1175 1.327 . S
C1173 C1179 1.429 . S
C1174 C1166 1.574 . S
C1174 H1169 0.949 . S
C1174 C1180 1.368 . S
C1175 C1159 1.349 . S
C1175 H1167 0.950 . S
C1175 C1173 1.327 . S
C1176 C1164 1.349 . S
C1176 H1170 0.950 . S
C1176 C1177 1.327 . S
C1177 H1171 0.950 . S
C1177 C1176 1.327 . S
C1177 C1181 1.429 . S
C1178 C1161 1.574 . S
C1178 H1172 0.949 . S
C1178 C1182 1.368 . S
C1179 C1160 1.429 . S
C1179 C1173 1.429 . S
C1179 C1180 1.523 . S
C1180 C1161 1.368 . S
C1180 C1174 1.368 . S
C1180 C1179 1.523 . S
C1181 C1165 1.429 . S
C1181 C1177 1.429 . S
C1181 C1182 1.523 . S
C1182 C1166 1.368 . S
C1182 C1178 1.368 . S
C1182 C1181 1.523 . S
H1183 C1158 0.950 . S
H1184 C1160 0.950 . S
H1185 C1161 0.949 . S
H1186 C1163 0.950 . S
H1187 C1165 0.950 . S
C1188 C1189 1.349 . S
C1188 C1190 1.327 . S
C1188 H1213 0.950 . S
C1189 C1188 1.349 . S
C1189 C1205 1.349 . S
C1190 C1188 1.327 . S
C1190 C1209 1.429 . S
C1190 H1214 0.950 . S
C1191 C1208 1.574 . S
C1191 C1210 1.368 . S
C1191 H1215 0.949 . S
H1192 C1196 0.949 . S
C1193 C1194 1.349 . S
C1193 C1195 1.327 . S
C1193 H1216 0.950 . S
C1194 C1193 1.349 . S
C1194 C1206 1.349 . S
C1195 C1193 1.327 . S
C1195 C1211 1.429 . S
C1195 H1217 0.950 . S
C1196 H1192 0.949 . S
C1196 C1204 1.574 . S
C1196 C1212 1.368 . S
H1197 C1205 0.950 . S
H1198 C1203 0.950 . S
H1199 C1204 0.949 . S
H1200 C1206 0.950 . S
H1201 C1207 0.950 . S
H1202 C1208 0.949 . S
C1203 H1198 0.950 . S
C1203 C1205 1.327 . S
C1203 C1209 1.429 . S
C1204 C1196 1.574 . S
C1204 H1199 0.949 . S
C1204 C1210 1.368 . S
C1205 C1189 1.349 . S
C1205 H1197 0.950 . S
C1205 C1203 1.327 . S
C1206 C1194 1.349 . S
C1206 H1200 0.950 . S
C1206 C1207 1.327 . S
C1207 H1201 0.950 . S
C1207 C1206 1.327 . S
C1207 C1211 1.429 . S
C1208 C1191 1.574 . S
C1208 H1202 0.949 . S
C1208 C1212 1.368 . S
C1209 C1190 1.429 . S
C1209 C1203 1.429 . S
C1209 C1210 1.523 . S
C1210 C1191 1.368 . S
C1210 C1204 1.368 . S
C1210 C1209 1.523 . S
C1211 C1195 1.429 . S
C1211 C1207 1.429 . S
C1211 C1212 1.523 . S
C1212 C1196 1.368 . S
C1212 C1208 1.368 . S
C1212 C1211 1.523 . S
H1213 C1188 0.950 . S
H1214 C1190 0.950 . S
H1215 C1191 0.949 . S
H1216 C1193 0.950 . S
H1217 C1195 0.950 . S
C1218 C1219 1.349 . S
C1218 C1220 1.327 . S
C1218 H1243 0.950 . S
C1219 C1218 1.349 . S
C1219 C1235 1.349 . S
C1220 C1218 1.327 . S
C1220 C1239 1.429 . S
C1220 H1244 0.950 . S
C1221 C1238 1.574 . S
C1221 C1240 1.368 . S
C1221 H1245 0.949 . S
H1222 C1226 0.949 . S
C1223 C1224 1.349 . S
C1223 C1225 1.327 . S
C1223 H1246 0.950 . S
C1224 C1223 1.349 . S
C1224 C1236 1.349 . S
C1225 C1223 1.327 . S
C1225 C1241 1.429 . S
C1225 H1247 0.950 . S
C1226 H1222 0.949 . S
C1226 C1234 1.574 . S
C1226 C1242 1.368 . S
H1227 C1235 0.950 . S
H1228 C1233 0.950 . S
H1229 C1234 0.949 . S
H1230 C1236 0.950 . S
H1231 C1237 0.960 . S
H1232 C1238 0.949 1_554 S
C1233 H1228 0.950 . S
C1233 C1235 1.327 . S
C1233 C1239 1.429 . S
C1234 C1226 1.574 . S
C1234 H1229 0.949 . S
C1234 C1240 1.368 . S
C1235 C1219 1.349 . S
C1235 H1227 0.950 . S
C1235 C1233 1.327 . S
C1236 C1224 1.349 . S
C1236 H1230 0.950 . S
C1236 C1237 1.327 . S
C1237 H1231 0.960 . S
C1237 C1236 1.327 . S
C1237 C1241 1.429 . S
C1238 C1221 1.574 . S
C1238 H1232 0.949 1_556 S
C1238 C1242 1.368 . S
C1239 C1220 1.429 . S
C1239 C1233 1.429 . S
C1239 C1240 1.523 . S
C1240 C1221 1.368 . S
C1240 C1234 1.368 . S
C1240 C1239 1.523 . S
C1241 C1225 1.429 . S
C1241 C1237 1.429 . S
C1241 C1242 1.523 1_554 S
C1242 C1226 1.368 . S
C1242 C1238 1.368 . S
C1242 C1241 1.523 1_556 S
H1243 C1218 0.950 . S
H1244 C1220 0.950 . S
H1245 C1221 0.949 . S
H1246 C1223 0.950 . S
H1247 C1225 0.950 . S
C1248 C1249 1.349 . S
C1248 C1250 1.327 . S
C1248 H1273 0.950 . S
C1249 C1248 1.349 . S
C1249 C1265 1.349 . S
C1250 C1248 1.327 . S
C1250 C1269 1.429 . S
C1250 H1274 0.950 . S
C1251 C1268 1.574 . S
C1251 C1270 1.368 . S
C1251 H1275 0.949 . S
H1252 C1256 0.949 . S
C1253 C1254 1.349 . S
C1253 C1255 1.327 . S
C1253 H1276 0.950 . S
C1254 C1253 1.349 . S
C1254 C1266 1.349 . S
C1255 C1253 1.327 . S
C1255 C1271 1.429 . S
C1255 H1277 0.950 . S
C1256 H1252 0.949 . S
C1256 C1264 1.574 . S
C1256 C1272 1.368 . S
H1257 C1265 0.950 . S
H1258 C1263 0.950 . S
H1259 C1264 0.949 . S
H1260 C1266 0.950 . S
H1261 C1267 0.950 . S
H1262 C1268 0.949 . S
C1263 H1258 0.950 . S
C1263 C1265 1.327 . S
C1263 C1269 1.429 . S
C1264 C1256 1.574 . S
C1264 H1259 0.949 . S
C1264 C1270 1.368 . S
C1265 C1249 1.349 . S
C1265 H1257 0.950 . S
C1265 C1263 1.327 . S
C1266 C1254 1.349 . S
C1266 H1260 0.950 . S
C1266 C1267 1.327 . S
C1267 H1261 0.950 . S
C1267 C1266 1.327 . S
C1267 C1271 1.429 . S
C1268 C1251 1.574 . S
C1268 H1262 0.949 . S
C1268 C1272 1.368 . S
C1269 C1250 1.429 . S
C1269 C1263 1.429 . S
C1269 C1270 1.523 . S
C1270 C1251 1.368 . S
C1270 C1264 1.368 . S
C1270 C1269 1.523 . S
C1271 C1255 1.429 . S
C1271 C1267 1.429 . S
C1271 C1272 1.523 . S
C1272 C1256 1.368 . S
C1272 C1268 1.368 . S
C1272 C1271 1.523 . S
H1273 C1248 0.950 . S
H1274 C1250 0.950 . S
H1275 C1251 0.949 . S
H1276 C1253 0.950 . S
H1277 C1255 0.950 . S
C1278 C1279 1.349 . S
C1278 C1280 1.327 . S
C1278 H1303 0.950 . S
C1279 C1278 1.349 . S
C1279 C1295 1.349 . S
C1280 C1278 1.327 . S
C1280 C1299 1.429 . S
C1280 H1304 0.950 . S
C1281 C1298 1.574 . S
C1281 C1300 1.368 . S
C1281 H1305 0.949 . S
H1282 C1286 0.949 . S
C1283 C1284 1.349 . S
C1283 C1285 1.327 . S
C1283 H1306 0.950 . S
C1284 C1283 1.349 . S
C1284 C1296 1.349 . S
C1285 C1283 1.327 . S
C1285 C1301 1.429 . S
C1285 H1307 0.950 . S
C1286 H1282 0.949 . S
C1286 C1294 1.574 . S
C1286 C1302 1.368 . S
H1287 C1295 0.950 . S
H1288 C1293 0.950 . S
H1289 C1294 0.949 . S
H1290 C1296 0.950 . S
H1291 C1297 0.950 . S
H1292 C1298 0.949 . S
C1293 H1288 0.950 . S
C1293 C1295 1.327 . S
C1293 C1299 1.429 . S
C1294 C1286 1.574 . S
C1294 H1289 0.949 . S
C1294 C1300 1.368 . S
C1295 C1279 1.349 . S
C1295 H1287 0.950 . S
C1295 C1293 1.327 . S
C1296 C1284 1.349 . S
C1296 H1290 0.950 . S
C1296 C1297 1.327 . S
C1297 H1291 0.950 . S
C1297 C1296 1.327 . S
C1297 C1301 1.429 . S
C1298 C1281 1.574 . S
C1298 H1292 0.949 . S
C1298 C1302 1.368 . S
C1299 C1280 1.429 . S
C1299 C1293 1.429 . S
C1299 C1300 1.523 . S
C1300 C1281 1.368 . S
C1300 C1294 1.368 . S
C1300 C1299 1.523 . S
C1301 C1285 1.429 . S
C1301 C1297 1.429 . S
C1301 C1302 1.523 . S
C1302 C1286 1.368 . S
C1302 C1298 1.368 . S
C1302 C1301 1.523 . S
H1303 C1278 0.950 . S
H1304 C1280 0.950 . S
H1305 C1281 0.949 . S
H1306 C1283 0.950 . S
H1307 C1285 0.950 . S
C1308 C1309 1.349 . S
C1308 C1310 1.327 . S
C1308 H1333 0.950 . S
C1309 C1308 1.349 . S
C1309 C1325 1.349 . S
C1310 C1308 1.327 . S
C1310 C1329 1.429 . S
C1310 H1334 0.950 . S
C1311 C1328 1.574 . S
C1311 C1330 1.368 . S
C1311 H1335 0.949 . S
H1312 C1316 0.949 . S
C1313 C1314 1.349 . S
C1313 C1315 1.327 . S
C1313 H1336 0.950 . S
C1314 C1313 1.349 . S
C1314 C1326 1.349 . S
C1315 C1313 1.327 . S
C1315 C1331 1.429 . S
C1315 H1337 0.950 . S
C1316 H1312 0.949 . S
C1316 C1324 1.574 . S
C1316 C1332 1.368 . S
H1317 C1325 0.950 . S
H1318 C1323 0.950 . S
H1319 C1324 0.949 . S
H1320 C1326 0.950 . S
H1321 C1327 0.950 . S
H1322 C1328 0.949 . S
C1323 H1318 0.950 . S
C1323 C1325 1.327 . S
C1323 C1329 1.429 . S
C1324 C1316 1.574 . S
C1324 H1319 0.949 . S
C1324 C1330 1.368 . S
C1325 C1309 1.349 . S
C1325 H1317 0.950 . S
C1325 C1323 1.327 . S
C1326 C1314 1.349 . S
C1326 H1320 0.950 . S
C1326 C1327 1.327 . S
C1327 H1321 0.950 . S
C1327 C1326 1.327 . S
C1327 C1331 1.429 . S
C1328 C1311 1.574 . S
C1328 H1322 0.949 . S
C1328 C1332 1.368 . S
C1329 C1310 1.429 . S
C1329 C1323 1.429 . S
C1329 C1330 1.523 . S
C1330 C1311 1.368 . S
C1330 C1324 1.368 . S
C1330 C1329 1.523 . S
C1331 C1315 1.429 . S
C1331 C1327 1.429 . S
C1331 C1332 1.523 . S
C1332 C1316 1.368 . S
C1332 C1328 1.368 . S
C1332 C1331 1.523 . S
H1333 C1308 0.950 . S
H1334 C1310 0.950 . S
H1335 C1311 0.949 . S
H1336 C1313 0.950 . S
H1337 C1315 0.950 . S
C1338 C1339 1.349 . S
C1338 C1340 1.327 . S
C1338 H1363 0.950 . S
C1339 C1338 1.349 . S
C1339 C1355 1.349 . S
C1340 C1338 1.327 . S
C1340 C1359 1.429 . S
C1340 H1364 0.950 . S
C1341 C1358 1.574 . S
C1341 C1360 1.368 . S
C1341 H1365 0.949 . S
H1342 C1346 0.949 . S
C1343 C1344 1.349 . S
C1343 C1345 1.327 . S
C1343 H1366 0.950 . S
C1344 C1343 1.349 . S
C1344 C1356 1.349 . S
C1345 C1343 1.327 . S
C1345 C1361 1.429 . S
C1345 H1367 0.950 . S
C1346 H1342 0.949 . S
C1346 C1354 1.574 . S
C1346 C1362 1.368 . S
H1347 C1355 0.950 . S
H1348 C1353 0.950 . S
H1349 C1354 0.949 . S
H1350 C1356 0.950 . S
H1351 C1357 0.950 . S
H1352 C1358 0.949 . S
C1353 H1348 0.950 . S
C1353 C1355 1.327 . S
C1353 C1359 1.429 . S
C1354 C1346 1.574 . S
C1354 H1349 0.949 . S
C1354 C1360 1.368 . S
C1355 C1339 1.349 . S
C1355 H1347 0.950 . S
C1355 C1353 1.327 . S
C1356 C1344 1.349 . S
C1356 H1350 0.950 . S
C1356 C1357 1.327 . S
C1357 H1351 0.950 . S
C1357 C1356 1.327 . S
C1357 C1361 1.429 . S
C1358 C1341 1.574 . S
C1358 H1352 0.949 . S
C1358 C1362 1.368 . S
C1359 C1340 1.429 . S
C1359 C1353 1.429 . S
C1359 C1360 1.523 . S
C1360 C1341 1.368 . S
C1360 C1354 1.368 . S
C1360 C1359 1.523 . S
C1361 C1345 1.429 . S
C1361 C1357 1.429 . S
C1361 C1362 1.523 . S
C1362 C1346 1.368 . S
C1362 C1358 1.368 . S
C1362 C1361 1.523 . S
H1363 C1338 0.950 . S
H1364 C1340 0.950 . S
H1365 C1341 0.949 . S
H1366 C1343 0.950 . S
H1367 C1345 0.950 . S
C1368 C1369 1.349 . S
C1368 C1370 1.327 . S
C1368 H1393 0.950 . S
C1369 C1368 1.349 . S
C1369 C1385 1.349 . S
C1370 C1368 1.327 . S
C1370 C1389 1.429 . S
C1370 H1394 0.950 . S
C1371 C1388 1.574 . S
C1371 C1390 1.368 . S
C1371 H1395 0.949 . S
H1372 C1376 0.949 . S
C1373 C1374 1.349 . S
C1373 C1375 1.327 . S
C1373 H1396 0.950 . S
C1374 C1373 1.349 . S
C1374 C1386 1.349 . S
C1375 C1373 1.327 . S
C1375 C1391 1.429 . S
C1375 H1397 0.950 . S
C1376 H1372 0.949 . S
C1376 C1384 1.574 . S
C1376 C1392 1.368 . S
H1377 C1385 0.950 . S
H1378 C1383 0.950 . S
H1379 C1384 0.949 . S
H1380 C1386 0.950 . S
H1381 C1387 0.950 . S
H1382 C1388 0.949 . S
C1383 H1378 0.950 . S
C1383 C1385 1.327 . S
C1383 C1389 1.429 . S
C1384 C1376 1.574 . S
C1384 H1379 0.949 . S
C1384 C1390 1.368 . S
C1385 C1369 1.349 . S
C1385 H1377 0.950 . S
C1385 C1383 1.327 . S
C1386 C1374 1.349 . S
C1386 H1380 0.950 . S
C1386 C1387 1.327 . S
C1387 H1381 0.950 . S
C1387 C1386 1.327 . S
C1387 C1391 1.429 . S
C1388 C1371 1.574 . S
C1388 H1382 0.949 . S
C1388 C1392 1.368 . S
C1389 C1370 1.429 . S
C1389 C1383 1.429 . S
C1389 C1390 1.523 . S
C1390 C1371 1.368 . S
C1390 C1384 1.368 . S
C1390 C1389 1.523 . S
C1391 C1375 1.429 . S
C1391 C1387 1.429 . S
C1391 C1392 1.523 . S
C1392 C1376 1.368 . S
C1392 C1388 1.368 . S
C1392 C1391 1.523 . S
H1393 C1368 0.950 . S
H1394 C1370 0.950 . S
H1395 C1371 0.949 . S
H1396 C1373 0.950 . S
H1397 C1375 0.950 . S
C1398 C1399 1.349 . S
C1398 C1400 1.327 . S
C1398 H1423 0.950 . S
C1399 C1398 1.349 . S
C1399 C1415 1.349 . S
C1400 C1398 1.327 . S
C1400 C1419 1.429 . S
C1400 H1424 0.950 . S
C1401 C1418 1.574 . S
C1401 C1420 1.368 . S
C1401 H1425 0.949 . S
H1402 C1406 0.949 . S
C1403 C1404 1.349 . S
C1403 C1405 1.327 . S
C1403 H1426 0.950 . S
C1404 C1403 1.349 . S
C1404 C1416 1.349 . S
C1405 C1403 1.327 . S
C1405 C1421 1.429 . S
C1405 H1427 0.950 . S
C1406 H1402 0.949 . S
C1406 C1414 1.574 . S
C1406 C1422 1.368 . S
H1407 C1415 0.950 . S
H1408 C1413 0.950 . S
H1409 C1414 0.949 . S
H1410 C1416 0.950 . S
H1411 C1417 0.950 . S
H1412 C1418 0.949 . S
C1413 H1408 0.950 . S
C1413 C1415 1.327 . S
C1413 C1419 1.429 . S
C1414 C1406 1.574 . S
C1414 H1409 0.949 . S
C1414 C1420 1.368 . S
C1415 C1399 1.349 . S
C1415 H1407 0.950 . S
C1415 C1413 1.327 . S
C1416 C1404 1.349 . S
C1416 H1410 0.950 . S
C1416 C1417 1.327 . S
C1417 H1411 0.950 . S
C1417 C1416 1.327 . S
C1417 C1421 1.429 . S
C1418 C1401 1.574 . S
C1418 H1412 0.949 . S
C1418 C1422 1.368 . S
C1419 C1400 1.429 . S
C1419 C1413 1.429 . S
C1419 C1420 1.523 . S
C1420 C1401 1.368 . S
C1420 C1414 1.368 . S
C1420 C1419 1.523 . S
C1421 C1405 1.429 . S
C1421 C1417 1.429 . S
C1421 C1422 1.523 . S
C1422 C1406 1.368 . S
C1422 C1418 1.368 . S
C1422 C1421 1.523 . S
H1423 C1398 0.950 . S
H1424 C1400 0.950 . S
H1425 C1401 0.949 . S
H1426 C1403 0.950 . S
H1427 C1405 0.950 . S
C1428 C1429 1.349 . S
C1428 C1430 1.327 . S
C1428 H1453 0.950 . S
C1429 C1428 1.349 . S
C1429 C1445 1.349 . S
C1430 C1428 1.327 . S
C1430 C1449 1.429 . S
C1430 H1454 0.950 . S
C1431 C1448 1.574 1_554 S
C1431 C1450 1.368 . S
C1431 H1455 0.949 . S
H1432 C1436 0.954 . S
C1433 C1434 1.349 . S
C1433 C1435 1.327 . S
C1433 H1456 0.950 . S
C1434 C1433 1.349 . S
C1434 C1446 1.349 . S
C1435 C1433 1.327 . S
C1435 C1451 1.429 . S
C1435 H1457 0.950 . S
C1436 H1432 0.954 . S
C1436 C1444 1.574 . S
C1436 C1452 1.368 1_554 S
H1437 C1445 0.950 . S
H1438 C1443 0.950 . S
H1439 C1444 0.949 . S
H1440 C1446 0.950 . S
H1441 C1447 0.950 . S
H1442 C1448 0.949 . S
C1443 H1438 0.950 . S
C1443 C1445 1.327 . S
C1443 C1449 1.429 . S
C1444 C1436 1.574 . S
C1444 H1439 0.949 . S
C1444 C1450 1.368 . S
C1445 C1429 1.349 . S
C1445 H1437 0.950 . S
C1445 C1443 1.327 . S
C1446 C1434 1.349 . S
C1446 H1440 0.950 . S
C1446 C1447 1.327 . S
C1447 H1441 0.950 . S
C1447 C1446 1.327 . S
C1447 C1451 1.429 . S
C1448 C1431 1.574 1_556 S
C1448 H1442 0.949 . S
C1448 C1452 1.368 . S
C1449 C1430 1.429 . S
C1449 C1443 1.429 . S
C1449 C1450 1.523 . S
C1450 C1431 1.368 . S
C1450 C1444 1.368 . S
C1450 C1449 1.523 . S
C1451 C1435 1.429 . S
C1451 C1447 1.429 . S
C1451 C1452 1.523 . S
C1452 C1436 1.368 1_556 S
C1452 C1448 1.368 . S
C1452 C1451 1.523 . S
H1453 C1428 0.950 . S
H1454 C1430 0.950 . S
H1455 C1431 0.949 . S
H1456 C1433 0.950 . S
H1457 C1435 0.950 . S
C1458 C1459 1.349 . S
C1458 C1460 1.327 . S
C1458 H1483 0.950 . S
C1459 C1458 1.349 . S
C1459 C1475 1.349 . S
C1460 C1458 1.327 . S
C1460 C1479 1.429 . S
C1460 H1484 0.950 . S
C1461 C1478 1.574 . S
C1461 C1480 1.368 . S
C1461 H1485 0.949 . S
H1462 C1466 0.949 . S
C1463 C1464 1.349 . S
C1463 C1465 1.327 . S
C1463 H1486 0.950 . S
C1464 C1463 1.349 . S
C1464 C1476 1.349 . S
C1465 C1463 1.327 . S
C1465 C1481 1.429 . S
C1465 H1487 0.950 . S
C1466 H1462 0.949 . S
C1466 C1474 1.574 . S
C1466 C1482 1.368 . S
H1467 C1475 0.950 . S
H1468 C1473 0.950 . S
H1469 C1474 0.949 . S
H1470 C1476 0.950 . S
H1471 C1477 0.950 . S
H1472 C1478 0.949 . S
C1473 H1468 0.950 . S
C1473 C1475 1.327 . S
C1473 C1479 1.429 . S
C1474 C1466 1.574 . S
C1474 H1469 0.949 . S
C1474 C1480 1.368 . S
C1475 C1459 1.349 . S
C1475 H1467 0.950 . S
C1475 C1473 1.327 . S
C1476 C1464 1.349 . S
C1476 H1470 0.950 . S
C1476 C1477 1.327 . S
C1477 H1471 0.950 . S
C1477 C1476 1.327 . S
C1477 C1481 1.429 . S
C1478 C1461 1.574 . S
C1478 H1472 0.949 . S
C1478 C1482 1.368 . S
C1479 C1460 1.429 . S
C1479 C1473 1.429 . S
C1479 C1480 1.523 . S
C1480 C1461 1.368 . S
C1480 C1474 1.368 . S
C1480 C1479 1.523 . S
C1481 C1465 1.429 . S
C1481 C1477 1.429 . S
C1481 C1482 1.523 . S
C1482 C1466 1.368 . S
C1482 C1478 1.368 . S
C1482 C1481 1.523 . S
H1483 C1458 0.950 . S
H1484 C1460 0.950 . S
H1485 C1461 0.949 . S
H1486 C1463 0.950 . S
H1487 C1465 0.950 . S
C774 C757 1.643 . S
C769 C1 1.249 . S
C799 C169 1.472 . S
C804 C687 1.801 . S
C829 C283 1.465 . S
C834 C706 1.790 . S
C859 C397 1.317 . S
C864 C715 1.632 . S
C894 C729 1.464 . S
C889 C457 1.113 . S
C919 C571 1.156 . S
C924 C748 1.547 . S
C949 C115 1.225 . S
C954 C701 1.616 . S
C979 C229 1.126 . S
C984 C720 1.498 . S
C1009 C343 1.108 . S
C1014 C734 1.475 . S
C1044 C743 1.574 . S
C1039 C511 1.261 . S
C1074 C762 1.770 . S
C1069 C625 1.447 . S
C1104 C692 1.784 . S
C1099 C55 1.461 . S
C1129 C29 1.153 . S
C1134 C707 1.415 . S
C1159 C125 0.931 . S
C1164 C719 1.501 . S
C1194 C733 1.454 . S
C1189 C239 0.918 . S
C1219 C353 0.913 . S
C1224 C749 1.448 . S
C1254 C761 1.315 . S
C1249 C485 1.077 . S
C1284 C691 1.409 . S
C1279 C599 1.137 . S
C1314 C763 1.420 . S
C1309 C143 1.156 . S
C1339 C257 1.157 . S
C1344 C693 1.447 . S
C1374 C705 1.342 . S
C1369 C371 1.086 . S
C1399 C467 0.911 . S
C1404 C721 1.451 . S
C1429 C581 0.941 . S
C1434 C735 1.486 . S
C1459 C11 0.960 . S
C1464 C747 1.525 . S
