# Generated by pormake.
# Topology nom, (4,4)-cn, num edge types: 1
# Building blocks:
#     Node 0, Type 0, BuildingBlock: AZAVOO_clean_linker_0, # of connection points: 4
#     Node 1, Type 0, BuildingBlock: AZAVOO_clean_linker_0, # of connection points: 4
#     Node 2, Type 0, BuildingBlock: AZAVOO_clean_linker_0, # of connection points: 4
#     Node 3, Type 0, BuildingBlock: AZAVOO_clean_linker_0, # of connection points: 4
#     Node 4, Type 0, BuildingBlock: AZAVOO_clean_linker_0, # of connection points: 4
#     Node 5, Type 0, BuildingBlock: AZAVOO_clean_linker_0, # of connection points: 4
#     Node 6, Type 1, BuildingBlock: NAHDIM_clean_sbu_0, # of connection points: 4
#     Node 7, Type 1, BuildingBlock: NAHDIM_clean_sbu_0, # of connection points: 4
#     Node 8, Type 1, BuildingBlock: NAHDIM_clean_sbu_0, # of connection points: 4
#     Node 9, Type 1, BuildingBlock: NAHDIM_clean_sbu_0, # of connection points: 4
#     Node 10, Type 1, BuildingBlock: NAHDIM_clean_sbu_0, # of connection points: 4
#     Node 11, Type 1, BuildingBlock: NAHDIM_clean_sbu_0, # of connection points: 4
#     Edge 12, Type (0, 1), BuildingBlock: CIFDUS_clean_linker_0, # of connection points: 2
#     Edge 13, Type (0, 1), BuildingBlock: CIFDUS_clean_linker_0, # of connection points: 2
#     Edge 14, Type (0, 1), BuildingBlock: CIFDUS_clean_linker_0, # of connection points: 2
#     Edge 15, Type (0, 1), BuildingBlock: CIFDUS_clean_linker_0, # of connection points: 2
#     Edge 16, Type (0, 1), BuildingBlock: CIFDUS_clean_linker_0, # of connection points: 2
#     Edge 17, Type (0, 1), BuildingBlock: CIFDUS_clean_linker_0, # of connection points: 2
#     Edge 18, Type (0, 1), BuildingBlock: CIFDUS_clean_linker_0, # of connection points: 2
#     Edge 19, Type (0, 1), BuildingBlock: CIFDUS_clean_linker_0, # of connection points: 2
#     Edge 20, Type (0, 1), BuildingBlock: CIFDUS_clean_linker_0, # of connection points: 2
#     Edge 21, Type (0, 1), BuildingBlock: CIFDUS_clean_linker_0, # of connection points: 2
#     Edge 22, Type (0, 1), BuildingBlock: CIFDUS_clean_linker_0, # of connection points: 2
#     Edge 23, Type (0, 1), BuildingBlock: CIFDUS_clean_linker_0, # of connection points: 2
#     Edge 24, Type (0, 1), BuildingBlock: CIFDUS_clean_linker_0, # of connection points: 2
#     Edge 25, Type (0, 1), BuildingBlock: CIFDUS_clean_linker_0, # of connection points: 2
#     Edge 26, Type (0, 1), BuildingBlock: CIFDUS_clean_linker_0, # of connection points: 2
#     Edge 27, Type (0, 1), BuildingBlock: CIFDUS_clean_linker_0, # of connection points: 2
#     Edge 28, Type (0, 1), BuildingBlock: CIFDUS_clean_linker_0, # of connection points: 2
#     Edge 29, Type (0, 1), BuildingBlock: CIFDUS_clean_linker_0, # of connection points: 2
#     Edge 30, Type (0, 1), BuildingBlock: CIFDUS_clean_linker_0, # of connection points: 2
#     Edge 31, Type (0, 1), BuildingBlock: CIFDUS_clean_linker_0, # of connection points: 2
#     Edge 32, Type (0, 1), BuildingBlock: CIFDUS_clean_linker_0, # of connection points: 2
#     Edge 33, Type (0, 1), BuildingBlock: CIFDUS_clean_linker_0, # of connection points: 2
#     Edge 34, Type (0, 1), BuildingBlock: CIFDUS_clean_linker_0, # of connection points: 2
#     Edge 35, Type (0, 1), BuildingBlock: CIFDUS_clean_linker_0, # of connection points: 2
# Relax obj value: 0.162
# Max RMSD: 0.226
# Mean RMSD: 0.169
data_MOF--net-nom--node1-NAHDIM_clean_sbu_0--node2-AZAVOO_clean_linker_0--edge1-CIFDUS_clean_linker_0
_symmetry_space_group_name_H-M    P1
_symmetry_Int_Tables_number       1
_symmetry_cell_setting            triclinic
loop_
_symmetry_equiv_pos_as_xyz
'x, y, z'
_cell_length_a     42.340009
_cell_length_b     45.174071
_cell_length_c     53.451925
_cell_angle_alpha  90.002136
_cell_angle_beta   90.390227
_cell_angle_gamma 122.36752
loop_
_atom_site_label
_atom_site_type_symbol
_atom_site_fract_x
_atom_site_fract_y
_atom_site_fract_z
_atom_type_partial_charge
H0 H 0.09348 0.48292 0.14217 0.0
H1 H 0.28009 0.69659 0.38121 0.0
H2 H 0.02696 0.44645 0.27156 0.0
H3 H 0.98684 0.41212 0.23633 0.0
H4 H 0.94437 0.48022 0.23224 0.0
H5 H 0.98464 0.51442 0.26765 0.0
H6 H 0.10935 0.50015 0.25092 0.0
H7 H 0.10945 0.48901 0.2061 0.0
H8 H 0.04736 0.53829 0.19161 0.0
H9 H 0.04799 0.54973 0.2364 0.0
H10 H 0.17715 0.56143 0.29036 0.0
H11 H 0.23573 0.60918 0.27354 0.0
H12 H 0.17548 0.64922 0.23557 0.0
H13 H 0.11789 0.60368 0.25494 0.0
H14 H 0.14524 0.53613 0.34431 0.0
H15 H 0.2017 0.57408 0.36917 0.0
H16 H 0.20385 0.66505 0.34135 0.0
H17 H 0.14707 0.62676 0.31686 0.0
H18 H 0.05222 0.47849 0.35557 0.0
H19 H 0.06625 0.47854 0.39993 0.0
H20 H 0.10875 0.58945 0.40383 0.0
H21 H 0.09188 0.58834 0.36003 0.0
H22 H 0.97952 0.44619 0.31924 0.0
H23 H 0.91828 0.42818 0.33681 0.0
H24 H 0.95689 0.53691 0.35004 0.0
H25 H 0.01742 0.55449 0.33261 0.0
O26 O 0.09381 0.48825 0.15974 0.0
O27 O 0.06148 0.51344 0.15336 0.0
O28 O 0.25523 0.63334 0.38545 0.0
O29 O 0.25777 0.68097 0.37155 0.0
C30 C 0.04165 0.50951 0.28672 0.0
C31 C 0.07622 0.52991 0.27427 0.0
C32 C 0.10864 0.55411 0.28782 0.0
C33 C 0.10732 0.55548 0.31419 0.0
C34 C 0.0727 0.53506 0.32663 0.0
C35 C 0.03947 0.51397 0.31266 0.0
C36 C 0.00874 0.48294 0.27205 0.0
C37 C 0.00782 0.45304 0.26373 0.0
C38 C 0.9853 0.43378 0.24341 0.0
C39 C 0.96312 0.44397 0.23124 0.0
C40 C 0.96118 0.47176 0.24128 0.0
C41 C 0.98394 0.49119 0.2616 0.0
C42 C 0.07845 0.52551 0.24689 0.0
C43 C 0.09612 0.50881 0.23799 0.0
C44 C 0.09598 0.50235 0.2124 0.0
C45 C 0.0782 0.51256 0.19528 0.0
C46 C 0.06116 0.52994 0.20428 0.0
C47 C 0.06144 0.53648 0.22985 0.0
C48 C 0.14334 0.57941 0.27427 0.0
C49 C 0.17672 0.58062 0.27845 0.0
C50 C 0.21019 0.60778 0.26845 0.0
C51 C 0.21071 0.63358 0.25329 0.0
C52 C 0.17658 0.63063 0.24773 0.0
C53 C 0.1434 0.60418 0.25844 0.0
C54 C 0.14211 0.57871 0.32879 0.0
C55 C 0.15796 0.56426 0.34363 0.0
C56 C 0.19021 0.586 0.35779 0.0
C57 C 0.2073 0.62263 0.35723 0.0
C58 C 0.19141 0.63698 0.3422 0.0
C59 C 0.15905 0.6152 0.32815 0.0
C60 C 0.07192 0.53361 0.35443 0.0
C61 C 0.06323 0.50247 0.36628 0.0
C62 C 0.07184 0.50271 0.39157 0.0
C63 C 0.0898 0.53423 0.40536 0.0
C64 C 0.09499 0.56463 0.39395 0.0
C65 C 0.08561 0.56417 0.36878 0.0
C66 C 0.0029 0.50166 0.32454 0.0
C67 C 0.97468 0.46601 0.32602 0.0
C68 C 0.9398 0.45582 0.33606 0.0
C69 C 0.93278 0.48114 0.3449 0.0
C70 C 0.96151 0.5167 0.34385 0.0
C71 C 0.9961 0.52681 0.33376 0.0
C72 C 0.07728 0.50488 0.16819 0.0
C73 C 0.24153 0.64584 0.37228 0.0
H74 H 0.56578 0.08611 0.31907 0.0
H75 H 0.52014 0.21078 0.57251 0.0
H76 H 0.54849 0.0049 0.44796 0.0
H77 H 0.54958 0.96907 0.41413 0.0
H78 H 0.4298 0.91746 0.4055 0.0
H79 H 0.42908 0.95374 0.43947 0.0
H80 H 0.56813 0.07941 0.42834 0.0
H81 H 0.57854 0.08838 0.38323 0.0
H82 H 0.45903 0.02574 0.37036 0.0
H83 H 0.44905 0.01735 0.41551 0.0
H84 H 0.57728 0.12795 0.47317 0.0
H85 H 0.59935 0.18678 0.45762 0.0
H86 H 0.49097 0.14851 0.42395 0.0
H87 H 0.46908 0.08953 0.43965 0.0
H88 H 0.56211 0.0986 0.52663 0.0
H89 H 0.57638 0.14659 0.55522 0.0
H90 H 0.47935 0.14523 0.52761 0.0
H91 H 0.46502 0.09679 0.49943 0.0
H92 H 0.53447 0.01796 0.53345 0.0
H93 H 0.54622 0.02992 0.57823 0.0
H94 H 0.4567 0.04918 0.58174 0.0
H95 H 0.44403 0.03542 0.53728 0.0
H96 H 0.51371 0.96288 0.49324 0.0
H97 H 0.48268 0.90208 0.50757 0.0
H98 H 0.38165 0.90132 0.52088 0.0
H99 H 0.413 0.96206 0.50674 0.0
O100 O 0.56104 0.08239 0.33683 0.0
O101 O 0.49939 0.04966 0.33123 0.0
O102 O 0.5644 0.19109 0.57518 0.0
O103 O 0.51518 0.19185 0.56136 0.0
C104 C 0.49005 0.00872 0.46265 0.0
C105 C 0.50161 0.04186 0.45246 0.0
C106 C 0.50794 0.0695 0.46827 0.0
C107 C 0.50317 0.06419 0.49433 0.0
C108 C 0.4903 0.03063 0.50447 0.0
C109 C 0.4829 0.00265 0.48852 0.0
C110 C 0.48871 0.98178 0.44612 0.0
C111 C 0.52236 0.98511 0.43923 0.0
C112 C 0.52292 0.96463 0.41993 0.0
C113 C 0.48982 0.94066 0.40705 0.0
C114 C 0.45578 0.93601 0.41496 0.0
C115 C 0.45523 0.95639 0.43444 0.0
C116 C 0.50786 0.04775 0.42512 0.0
C117 C 0.54427 0.06782 0.41572 0.0
C118 C 0.55011 0.07281 0.38996 0.0
C119 C 0.51961 0.05774 0.37318 0.0
C120 C 0.48313 0.03769 0.38275 0.0
C121 C 0.47735 0.03282 0.40851 0.0
C122 C 0.52154 0.10466 0.4577 0.0
C123 C 0.55834 0.1323 0.46244 0.0
C124 C 0.57081 0.16583 0.45361 0.0
C125 C 0.54674 0.17226 0.43977 0.0
C126 C 0.51014 0.14426 0.43446 0.0
C127 C 0.4976 0.11068 0.44344 0.0
C128 C 0.51243 0.09412 0.51108 0.0
C129 C 0.54393 0.10866 0.52684 0.0
C130 C 0.55205 0.1361 0.54311 0.0
C131 C 0.52896 0.14973 0.54372 0.0
C132 C 0.49767 0.13534 0.52765 0.0
C133 C 0.48947 0.10775 0.51148 0.0
C134 C 0.48879 0.02638 0.53206 0.0
C135 C 0.51628 0.02314 0.54415 0.0
C136 C 0.5233 0.03051 0.56967 0.0
C137 C 0.50312 0.04149 0.58343 0.0
C138 C 0.4728 0.0408 0.57179 0.0
C139 C 0.46551 0.03301 0.54632 0.0
C140 C 0.46544 0.9667 0.49868 0.0
C141 C 0.48492 0.94955 0.49932 0.0
C142 C 0.46714 0.91486 0.50749 0.0
C143 C 0.42961 0.89679 0.51525 0.0
C144 C 0.41066 0.91455 0.51532 0.0
C145 C 0.42844 0.94917 0.50711 0.0
C146 C 0.52591 0.06293 0.34582 0.0
C147 C 0.53738 0.17879 0.56106 0.0
H148 H 0.60287 0.56942 0.79552 0.0
H149 H 0.61282 0.40005 0.53648 0.0
H150 H 0.58184 0.6094 0.65885 0.0
H151 H 0.5735 0.63819 0.69476 0.0
H152 H 0.46691 0.54377 0.70969 0.0
H153 H 0.47503 0.51537 0.67333 0.0
H154 H 0.61681 0.57188 0.68658 0.0
H155 H 0.62236 0.57854 0.73216 0.0
H156 H 0.51083 0.48677 0.73954 0.0
H157 H 0.50567 0.48056 0.69396 0.0
H158 H 0.63826 0.51667 0.65035 0.0
H159 H 0.65402 0.47641 0.66906 0.0
H160 H 0.53728 0.40388 0.68592 0.0
H161 H 0.52187 0.44349 0.6665 0.0
H162 H 0.63288 0.54058 0.59364 0.0
H163 H 0.65667 0.515 0.56484 0.0
H164 H 0.56032 0.41186 0.58006 0.0
H165 H 0.53659 0.4379 0.60854 0.0
H166 H 0.5955 0.57955 0.57873 0.0
H167 H 0.61354 0.57729 0.5357 0.0
H168 H 0.52476 0.46803 0.53107 0.0
H169 H 0.50678 0.47071 0.57387 0.0
H170 H 0.53616 0.5999 0.61722 0.0
H171 H 0.48312 0.60572 0.60706 0.0
H172 H 0.41519 0.49478 0.59084 0.0
H173 H 0.46756 0.48899 0.60194 0.0
O174 O 0.60058 0.56569 0.77759 0.0
O175 O 0.54411 0.51709 0.78044 0.0
O176 O 0.6529 0.46448 0.54052 0.0
O177 O 0.60446 0.41076 0.54819 0.0
C178 C 0.53979 0.54046 0.64776 0.0
C179 C 0.5564 0.52392 0.65945 0.0
C180 C 0.56837 0.50581 0.64494 0.0
C181 C 0.56712 0.50715 0.61866 0.0
C182 C 0.54977 0.5231 0.60699 0.0
C183 C 0.53407 0.53797 0.62161 0.0
C184 C 0.52899 0.56041 0.66357 0.0
C185 C 0.55591 0.59554 0.66917 0.0
C186 C 0.55122 0.61184 0.6897 0.0
C187 C 0.51982 0.59294 0.70503 0.0
C188 C 0.49145 0.5587 0.69815 0.0
C189 C 0.49586 0.54261 0.67734 0.0
C190 C 0.56099 0.52561 0.68706 0.0
C191 C 0.59386 0.55299 0.69812 0.0
C192 C 0.59684 0.55682 0.72414 0.0
C193 C 0.56699 0.53323 0.7395 0.0
C194 C 0.53436 0.50537 0.72827 0.0
C195 C 0.53141 0.50163 0.70227 0.0
C196 C 0.57899 0.48298 0.65724 0.0
C197 C 0.61625 0.4921 0.65818 0.0
C198 C 0.62516 0.46918 0.66895 0.0
C199 C 0.59685 0.43686 0.67885 0.0
C200 C 0.55966 0.42826 0.67811 0.0
C201 C 0.55083 0.45101 0.66729 0.0
C202 C 0.58308 0.49107 0.60315 0.0
C203 C 0.61713 0.51244 0.59086 0.0
C204 C 0.63059 0.49777 0.57439 0.0
C205 C 0.61031 0.46137 0.57007 0.0
C206 C 0.57659 0.43997 0.58292 0.0
C207 C 0.56308 0.45472 0.5993 0.0
C208 C 0.55001 0.52524 0.57938 0.0
C209 C 0.57876 0.55567 0.56794 0.0
C210 C 0.58936 0.5542 0.54352 0.0
C211 C 0.57106 0.52231 0.53025 0.0
C212 C 0.53933 0.49302 0.54076 0.0
C213 C 0.52884 0.49451 0.56519 0.0
C214 C 0.50568 0.54396 0.61057 0.0
C215 C 0.50998 0.577 0.61114 0.0
C216 C 0.47971 0.58029 0.60518 0.0
C217 C 0.44477 0.55057 0.59853 0.0
C218 C 0.44149 0.51804 0.59637 0.0
C219 C 0.47156 0.51477 0.6024 0.0
C220 C 0.56976 0.53803 0.76707 0.0
C221 C 0.62398 0.44577 0.55205 0.0
H222 H 0.08323 0.43904 0.97911 0.0
H223 H 0.23532 0.53362 0.71505 0.0
H224 H 0.9918 0.44747 0.86275 0.0
H225 H 0.95168 0.42697 0.89902 0.0
H226 H 0.91 0.31964 0.87755 0.0
H227 H 0.95276 0.34107 0.84182 0.0
H228 H 0.06883 0.47628 0.87672 0.0
H229 H 0.07882 0.47094 0.92119 0.0
H230 H 0.0407 0.36195 0.90961 0.0
H231 H 0.03127 0.3678 0.86509 0.0
H232 H 0.11253 0.51472 0.83171 0.0
H233 H 0.17541 0.55174 0.84921 0.0
H234 H 0.1825 0.46046 0.85905 0.0
H235 H 0.11931 0.42348 0.84107 0.0
H236 H 0.08968 0.51109 0.77959 0.0
H237 H 0.14245 0.54694 0.75185 0.0
H238 H 0.17074 0.46808 0.75404 0.0
H239 H 0.11754 0.43229 0.78158 0.0
H240 H 0.00665 0.47002 0.7696 0.0
H241 H 0.02292 0.49668 0.72806 0.0
H242 H 0.06154 0.42889 0.70753 0.0
H243 H 0.0449 0.40217 0.74903 0.0
H244 H 0.94857 0.42928 0.81349 0.0
H245 H 0.88262 0.39658 0.80085 0.0
H246 H 0.89773 0.32036 0.76325 0.0
H247 H 0.96373 0.35333 0.77597 0.0
O248 O 0.07931 0.44063 0.96142 0.0
O249 O 0.05933 0.38469 0.95449 0.0
O250 O 0.20028 0.56087 0.72716 0.0
O251 O 0.21433 0.51998 0.72606 0.0
C252 C 0.00611 0.40973 0.83143 0.0
C253 C 0.04305 0.4255 0.8407 0.0
C254 C 0.07346 0.4449 0.82456 0.0
C255 C 0.06719 0.44706 0.79892 0.0
C256 C 0.03023 0.42961 0.78924 0.0
C257 C -0.00043 0.41119 0.80558 0.0
C258 C 0.97526 0.39578 0.84975 0.0
C259 C 0.97346 0.41949 0.86561 0.0
C260 C 0.9502 0.40758 0.88634 0.0
C261 C 0.9274 0.3715 0.89142 0.0
C262 C 0.9276 0.34761 0.87452 0.0
C263 C 0.95155 0.3597 0.85388 0.0
C264 C 0.04974 0.42252 0.86766 0.0
C265 C 0.06305 0.45139 0.88378 0.0
C266 C 0.06854 0.44821 0.9092 0.0
C267 C 0.06063 0.41603 0.91896 0.0
C268 C 0.04715 0.38713 0.90271 0.0
C269 C 0.04176 0.39038 0.87728 0.0
C270 C 0.11168 0.4666 0.83504 0.0
C271 C 0.12775 0.50278 0.83758 0.0
C272 C 0.16342 0.52376 0.8478 0.0
C273 C 0.18365 0.50889 0.85565 0.0
C274 C 0.1675 0.47254 0.85304 0.0
C275 C 0.13158 0.45147 0.84286 0.0
C276 C 0.09966 0.469 0.78238 0.0
C277 C 0.10722 0.50155 0.77395 0.0
C278 C 0.13745 0.52203 0.7582 0.0
C279 C 0.16083 0.51037 0.75073 0.0
C280 C 0.15327 0.47781 0.7594 0.0
C281 C 0.12298 0.45734 0.77515 0.0
C282 C 0.0249 0.43438 0.7624 0.0
C283 C 0.01667 0.45958 0.75569 0.0
C284 C 0.02629 0.475 0.732 0.0
C285 C 0.0443 0.46538 0.71484 0.0
C286 C 0.04824 0.43715 0.72059 0.0
C287 C 0.03831 0.42156 0.74415 0.0
C288 C 0.96077 0.39346 0.79582 0.0
C289 C 0.93764 0.40564 0.8024 0.0
C290 C 0.90001 0.38687 0.79525 0.0
C291 C 0.88493 0.35573 0.78125 0.0
C292 C 0.90859 0.34437 0.77389 0.0
C293 C 0.94622 0.36309 0.78115 0.0
C294 C 0.06633 0.4127 0.94599 0.0
C295 C 0.19296 0.53203 0.73397 0.0
H296 H 0.37617 0.99071 0.82394 0.0
H297 H 0.41866 0.7797 0.0245 0.0
H298 H 0.42888 0.04633 0.94899 0.0
H299 H 0.45259 0.09643 0.92058 0.0
H300 H 0.56468 0.11914 0.93113 0.0
H301 H 0.54084 0.06864 0.95861 0.0
H302 H 0.38125 0.96295 0.93036 0.0
H303 H 0.36777 0.96885 0.88667 0.0
H304 H 0.48612 0.02617 0.87075 0.0
H305 H 0.49913 0.01948 0.91432 0.0
H306 H 0.37403 0.89123 0.95936 0.0
H307 H 0.36834 0.83816 0.94232 0.0
H308 H 0.47865 0.90152 0.91055 0.0
H309 H 0.4841 0.95379 0.92762 0.0
H310 H 0.38964 0.91103 0.01901 0.0
H311 H 0.3721 0.85348 0.03521 0.0
H312 H 0.46455 0.86053 0.99551 0.0
H313 H 0.4821 0.91819 0.97982 0.0
H314 H 0.43706 0.98961 0.04674 0.0
H315 H 0.45196 0.97977 0.08923 0.0
H316 H 0.53436 0.96129 0.05895 0.0
H317 H 0.51896 0.97068 0.01676 0.0
H318 H 0.4645 0.0656 0.01113 0.0
H319 H 0.51021 0.12125 0.03174 0.0
H320 H 0.59393 0.09457 0.02601 0.0
H321 H 0.54841 0.03953 0.0057 0.0
O322 O 0.38209 0.98829 0.84105 0.0
O323 O 0.44331 0.01857 0.83406 0.0
O324 O 0.37933 0.80101 0.03984 0.0
O325 O 0.42533 0.80264 0.01875 0.0
C326 C 0.46819 0.01901 0.96761 0.0
C327 C 0.4491 0.98859 0.95236 0.0
C328 C 0.43948 0.95583 0.96215 0.0
C329 C 0.44662 0.95295 0.98765 0.0
C330 C 0.46552 0.98318 0.00288 0.0
C331 C 0.47717 0.01632 0.99272 0.0
C332 C 0.48312 0.05387 0.95595 0.0
C333 C 0.45868 0.0628 0.94575 0.0
C334 C 0.47219 0.09127 0.92951 0.0
C335 C 0.51042 0.11153 0.92366 0.0
C336 C 0.53518 0.10427 0.93558 0.0
C337 C 0.5216 0.07549 0.95141 0.0
C338 C 0.44115 0.99117 0.92557 0.0
C339 C 0.40418 0.97661 0.91736 0.0
C340 C 0.39659 0.98011 0.89242 0.0
C341 C 0.42589 0.99818 0.87525 0.0
C342 C 0.46291 0.01224 0.8835 0.0
C343 C 0.47043 0.00856 0.90839 0.0
C344 C 0.42964 0.92628 0.94496 0.0
C345 C 0.39619 0.89366 0.94777 0.0
C346 C 0.39313 0.86342 0.9382 0.0
C347 C 0.42336 0.86564 0.92552 0.0
C348 C 0.45478 0.89885 0.92009 0.0
C349 C 0.45791 0.9289 0.92979 0.0
C350 C 0.43684 0.91854 0.99805 0.0
C351 C 0.40612 0.90012 0.01394 0.0
C352 C 0.39615 0.86726 0.02312 0.0
C353 C 0.41682 0.85232 0.01653 0.0
C354 C 0.44796 0.87119 0.00088 0.0
C355 C 0.458 0.90409 0.99184 0.0
C356 C 0.47656 0.98034 0.02874 0.0
C357 C 0.45853 0.98374 0.04941 0.0
C358 C 0.46721 0.97829 0.0736 0.0
C359 C 0.49406 0.96939 0.07738 0.0
C360 C 0.51306 0.96744 0.05661 0.0
C361 C 0.50438 0.97286 0.03253 0.0
C362 C 0.50308 0.04843 0.00723 0.0
C363 C 0.49258 0.07168 0.01475 0.0
C364 C 0.51869 0.10339 0.0264 0.0
C365 C 0.5556 0.11217 0.03064 0.0
C366 C 0.56556 0.08829 0.02357 0.0
C367 C 0.53959 0.05682 0.01193 0.0
C368 C 0.41778 0.00235 0.84887 0.0
C369 C 0.40594 0.81714 0.02582 0.0
H370 H 0.49519 0.51109 0.96384 0.0
H371 H 0.68985 0.43559 0.1774 0.0
H372 H 0.48393 0.52981 0.09893 0.0
H373 H 0.46295 0.55645 0.06877 0.0
H374 H 0.57219 0.65204 0.07139 0.0
H375 H 0.59291 0.62511 0.10183 0.0
H376 H 0.50769 0.48387 0.06936 0.0
H377 H 0.49363 0.485 0.02498 0.0
H378 H 0.59084 0.59029 0.01942 0.0
H379 H 0.60488 0.58853 0.06368 0.0
H380 H 0.54517 0.44656 0.10112 0.0
H381 H 0.57062 0.41639 0.07904 0.0
H382 H 0.66168 0.51602 0.05217 0.0
H383 H 0.63658 0.54598 0.07483 0.0
H384 H 0.54709 0.45714 0.16009 0.0
H385 H 0.5719 0.4237 0.17801 0.0
H386 H 0.67994 0.49723 0.14609 0.0
H387 H 0.65492 0.53076 0.12867 0.0
H388 H 0.52416 0.5039 0.18512 0.0
H389 H 0.53501 0.49138 0.22784 0.0
H390 H 0.6543 0.55457 0.21552 0.0
H391 H 0.6431 0.56759 0.17328 0.0
H392 H 0.4956 0.54947 0.14957 0.0
H393 H 0.48499 0.58949 0.17302 0.0
H394 H 0.60293 0.65283 0.19153 0.0
H395 H 0.6135 0.61376 0.16636 0.0
O396 O 0.50175 0.51087 0.9812 0.0
O397 O 0.55118 0.56547 0.97965 0.0
O398 O 0.62333 0.41147 0.18676 0.0
O399 O 0.6793 0.44829 0.1705 0.0
C400 C 0.55542 0.55589 0.11332 0.0
C401 C 0.56385 0.53641 0.09705 0.0
C402 C 0.57832 0.51709 0.10678 0.0
C403 C 0.58424 0.51704 0.13278 0.0
C404 C 0.57642 0.53704 0.14901 0.0
C405 C 0.56219 0.55671 0.13929 0.0
C406 C 0.53989 0.57556 0.1024 0.0
C407 C 0.50274 0.55704 0.09388 0.0
C408 C 0.49088 0.57227 0.07662 0.0
C409 C 0.51616 0.60612 0.06756 0.0
C410 C 0.55233 0.6258 0.07798 0.0
C411 C 0.56406 0.61063 0.09549 0.0
C412 C 0.55717 0.53615 0.0697 0.0
C413 C 0.52612 0.50696 0.05843 0.0
C414 C 0.51808 0.50777 0.03312 0.0
C415 C 0.54099 0.53783 0.01869 0.0
C416 C 0.57255 0.56677 0.03 0.0
C417 C 0.58064 0.56584 0.05526 0.0
C418 C 0.58929 0.49839 0.08971 0.0
C419 C 0.57014 0.46171 0.08999 0.0
C420 C 0.58456 0.44456 0.07725 0.0
C421 C 0.61829 0.46395 0.06408 0.0
C422 C 0.63586 0.50052 0.06241 0.0
C423 C 0.62148 0.51761 0.07518 0.0
C424 C 0.59922 0.49633 0.1431 0.0
C425 C 0.57612 0.46599 0.15705 0.0
C426 C 0.59035 0.44693 0.16722 0.0
C427 C 0.62793 0.4578 0.16348 0.0
C428 C 0.6509 0.48813 0.14933 0.0
C429 C 0.63667 0.50727 0.13928 0.0
C430 C 0.58287 0.53651 0.17619 0.0
C431 C 0.55259 0.51594 0.19203 0.0
C432 C 0.55885 0.5085 0.21626 0.0
C433 C 0.5955 0.52159 0.22492 0.0
C434 C 0.62576 0.54431 0.20953 0.0
C435 C 0.61946 0.55177 0.18538 0.0
C436 C 0.55534 0.57889 0.15601 0.0
C437 C 0.51912 0.572 0.1587 0.0
C438 C 0.5131 0.59476 0.17244 0.0
C439 C 0.54312 0.62459 0.18426 0.0
C440 C 0.57923 0.63054 0.18237 0.0
C441 C 0.58529 0.60802 0.16823 0.0
C442 C 0.53176 0.53901 0.99201 0.0
C443 C 0.64323 0.4377 0.17431 0.0
C444 C 0.64269 0.37698 0.41526 0.0
O445 O 0.66539 0.40286 0.43035 0.0
O446 O 0.72216 0.44883 0.38262 0.0
Zn447 Zn 0.6688 0.43556 0.38535 0.0
O448 O 0.65886 0.46061 0.41233 0.0
C449 C 0.67093 0.4801 0.34865 0.0
O450 O 0.69689 0.50212 0.36445 0.0
O451 O 0.63813 0.38414 0.39304 0.0
C452 C 0.62526 0.453 0.41156 0.0
O453 O 0.60265 0.43114 0.39421 0.0
C454 C 0.74895 0.4659 0.39805 0.0
O455 O 0.7435 0.47849 0.41859 0.0
O456 O 0.65397 0.44743 0.35304 0.0
C457 C 0.29732 0.69798 0.55915 0.0
O458 O 0.29838 0.6771 0.54251 0.0
O459 O 0.28687 0.61923 0.57216 0.0
Zn460 Zn 0.24774 0.63144 0.57692 0.0
O461 O 0.21207 0.61542 0.54767 0.0
C462 C 0.1838 0.59498 0.61021 0.0
O463 O 0.16601 0.59967 0.59196 0.0
O464 O 0.27572 0.68432 0.57781 0.0
C465 C 0.20129 0.58764 0.53518 0.0
O466 O 0.2141 0.56771 0.54112 0.0
C467 C 0.28486 0.59273 0.5821 0.0
O468 O 0.25505 0.57077 0.59502 0.0
O469 O 0.21877 0.60792 0.60835 0.0
C470 C 0.60913 0.27715 0.73008 0.0
O471 O 0.63821 0.28766 0.74485 0.0
O472 O 0.65174 0.23146 0.74637 0.0
Zn473 Zn 0.59678 0.20856 0.7391 0.0
O474 O 0.57972 0.17041 0.71329 0.0
C475 C 0.57864 0.20312 0.79167 0.0
O476 O 0.60992 0.23402 0.79301 0.0
O477 O 0.58738 0.24463 0.72544 0.0
C478 C 0.54532 0.14623 0.7116 0.0
O479 O 0.52152 0.14612 0.72731 0.0
C480 C 0.67534 0.239 0.7291 0.0
O481 O 0.66345 0.23036 0.70589 0.0
O482 O 0.56762 0.18777 0.7706 0.0
C483 C 0.4819 0.72819 0.8997 0.0
O484 O 0.48151 0.71297 0.9207 0.0
O485 O 0.42863 0.63078 0.87467 0.0
Zn486 Zn 0.48255 0.66992 0.87922 0.0
O487 O 0.50316 0.66312 0.91154 0.0
C488 C 0.50619 0.63706 0.84702 0.0
O489 O 0.49188 0.61433 0.86539 0.0
O490 O 0.48466 0.7157 0.87911 0.0
C491 C 0.48086 0.6478 0.92963 0.0
O492 O 0.44532 0.63637 0.92663 0.0
C493 C 0.40161 0.63335 0.88174 0.0
O494 O 0.40864 0.66207 0.89308 0.0
O495 O 0.50827 0.66604 0.84935 0.0
C496 C 0.74327 0.38313 0.04837 0.0
O497 O 0.72729 0.35403 0.03515 0.0
O498 O 0.74713 0.31078 0.06274 0.0
Zn499 Zn 0.79133 0.35996 0.06425 0.0
O500 O 0.81736 0.36989 0.09757 0.0
C501 C 0.82789 0.34752 0.02299 0.0
O502 O 0.81339 0.31611 0.0326 0.0
O503 O 0.77151 0.3912 0.06198 0.0
C504 C 0.84925 0.37493 0.10253 0.0
O505 O 0.86908 0.37319 0.08446 0.0
C506 C 0.74212 0.28536 0.07604 0.0
O507 O 0.76806 0.29018 0.09215 0.0
O508 O 0.8237 0.37 0.03418 0.0
C509 C 0.51963 0.7814 0.21948 0.0
O510 O 0.48997 0.77373 0.2062 0.0
O511 O 0.44821 0.78632 0.2371 0.0
Zn512 Zn 0.50128 0.82768 0.23661 0.0
O513 O 0.50821 0.8545 0.20485 0.0
C514 C 0.48482 0.86447 0.27125 0.0
O515 O 0.45997 0.85712 0.25356 0.0
O516 O 0.53305 0.80665 0.23507 0.0
C517 C 0.51698 0.88602 0.20248 0.0
O518 O 0.52415 0.90562 0.22246 0.0
C519 C 0.42112 0.7844 0.2252 0.0
O520 O 0.42641 0.81121 0.21202 0.0
O521 O 0.50845 0.85559 0.26814 0.0
H522 H 0.27505 0.63657 0.24095 0.0
H523 H 0.22827 0.7011 0.24672 0.0
H524 H 0.28808 0.75245 0.23544 0.0
H525 H 0.35522 0.78033 0.22748 0.0
H526 H 0.40382 0.71739 0.22778 0.0
H527 H 0.34204 0.66436 0.23377 0.0
C528 C 0.27783 0.66183 0.24004 0.0
C529 C 0.2468 0.66456 0.24473 0.0
C530 C 0.31289 0.69176 0.23485 0.0
C531 C 0.25113 0.69766 0.24273 0.0
C532 C 0.28558 0.72732 0.23656 0.0
C533 C 0.35207 0.7549 0.22859 0.0
C534 C 0.38369 0.75252 0.22716 0.0
C535 C 0.31678 0.72479 0.23301 0.0
C536 C 0.37965 0.71966 0.22895 0.0
C537 C 0.34442 0.68941 0.23235 0.0
H538 H 0.58497 0.23177 0.46719 0.0
H539 H 0.53734 0.19342 0.39383 0.0
H540 H 0.56132 0.25344 0.37992 0.0
H541 H 0.59834 0.31706 0.38825 0.0
H542 H 0.64643 0.35462 0.46177 0.0
H543 H 0.61992 0.29466 0.47589 0.0
C544 C 0.58003 0.23659 0.44811 0.0
C545 C 0.55978 0.20832 0.43148 0.0
C546 C 0.59405 0.27101 0.44025 0.0
C547 C 0.55278 0.21481 0.40699 0.0
C548 C 0.56663 0.2491 0.39901 0.0
C549 C 0.60284 0.3121 0.40739 0.0
C550 C 0.62455 0.34033 0.42386 0.0
C551 C 0.58764 0.27744 0.41543 0.0
C552 C 0.63001 0.33344 0.44863 0.0
C553 C 0.61488 0.29914 0.45676 0.0
H554 H 0.43819 0.60053 0.57445 0.0
H555 H 0.3755 0.5054 0.61729 0.0
H556 H 0.32019 0.50897 0.61477 0.0
H557 H 0.29012 0.54016 0.60201 0.0
H558 H 0.35247 0.63585 0.5597 0.0
H559 H 0.4072 0.63097 0.56044 0.0
C560 C 0.41242 0.58063 0.58323 0.0
C561 C 0.41102 0.55267 0.59593 0.0
C562 C 0.38059 0.58294 0.58187 0.0
C563 C 0.37727 0.52691 0.60704 0.0
C564 C 0.34562 0.52903 0.60577 0.0
C565 C 0.31557 0.55986 0.5928 0.0
C566 C 0.31714 0.58839 0.58093 0.0
C567 C 0.34702 0.55704 0.5934 0.0
C568 C 0.35042 0.6136 0.56903 0.0
C569 C 0.38181 0.6109 0.56948 0.0
H570 H 0.85173 0.32421 0.73691 0.0
H571 H 0.82705 0.33933 0.81231 0.0
H572 H 0.76019 0.30413 0.80294 0.0
H573 H 0.70879 0.26921 0.77344 0.0
H574 H 0.73299 0.25418 0.69786 0.0
H575 H 0.79996 0.2888 0.7073 0.0
C576 C 0.83168 0.31959 0.75131 0.0
C577 C 0.84435 0.33449 0.77523 0.0
C578 C 0.79321 0.29926 0.74581 0.0
C579 C 0.81805 0.32861 0.79363 0.0
C580 C 0.7798 0.30829 0.78835 0.0
C581 C 0.72866 0.27333 0.75904 0.0
C582 C 0.71586 0.25904 0.73499 0.0
C583 C 0.76708 0.29352 0.76451 0.0
C584 C 0.74206 0.26488 0.71653 0.0
C585 C 0.78038 0.2847 0.7219 0.0
H586 H 0.44991 0.84849 0.88527 0.0
H587 H 0.40351 0.81328 0.95893 0.0
H588 H 0.4177 0.76778 0.9573 0.0
H589 H 0.4472 0.74072 0.93644 0.0
H590 H 0.49408 0.77525 0.86291 0.0
H591 H 0.47654 0.81888 0.86323 0.0
C592 C 0.44255 0.83056 0.90082 0.0
C593 C 0.42559 0.83425 0.92213 0.0
C594 C 0.45159 0.80488 0.90002 0.0
C595 C 0.41593 0.81068 0.94208 0.0
C596 C 0.42453 0.78493 0.94134 0.0
C597 C 0.45382 0.75793 0.92053 0.0
C598 C 0.47247 0.75524 0.89986 0.0
C599 C 0.44311 0.78235 0.92068 0.0
C600 C 0.48005 0.77713 0.87914 0.0
C601 C 0.4699 0.80192 0.87928 0.0
H602 H 0.69077 0.48639 0.07124 0.0
H603 H 0.58867 0.40232 0.03791 0.0
H604 H 0.61958 0.37088 0.02809 0.0
H605 H 0.67432 0.36557 0.03207 0.0
H606 H 0.7753 0.4492 0.06709 0.0
H607 H 0.74624 0.48293 0.07275 0.0
C608 C 0.67552 0.46159 0.06126 0.0
C609 C 0.6376 0.44673 0.05517 0.0
C610 C 0.69319 0.44354 0.05615 0.0
C611 C 0.61789 0.41416 0.04283 0.0
C612 C 0.63554 0.39624 0.03724 0.0
C613 C 0.69011 0.39137 0.04063 0.0
C614 C 0.72679 0.40476 0.04931 0.0
C615 C 0.67298 0.41037 0.04428 0.0
C616 C 0.74689 0.43818 0.06044 0.0
C617 C 0.73033 0.4575 0.06369 0.0
H618 H 0.38072 0.86315 0.5536 0.0
H619 H 0.43309 0.84539 0.49133 0.0
H620 H 0.39785 0.78279 0.50014 0.0
H621 H 0.35047 0.73293 0.52417 0.0
H622 H 0.29675 0.74946 0.58615 0.0
H623 H 0.33404 0.81275 0.57866 0.0
C624 C 0.38435 0.84555 0.54195 0.0
C625 C 0.40958 0.85901 0.52183 0.0
C626 C 0.36363 0.80939 0.54696 0.0
C627 C 0.41433 0.83588 0.50713 0.0
C628 C 0.39395 0.80001 0.51203 0.0
C629 C 0.34686 0.7503 0.53612 0.0
C630 C 0.32065 0.73643 0.55559 0.0
C631 C 0.36829 0.78647 0.53171 0.0
C632 C 0.31667 0.75944 0.57099 0.0
C633 C 0.33796 0.79561 0.5667 0.0
H634 H 0.55802 0.36637 0.67227 0.0
H635 H 0.65545 0.45102 0.7096 0.0
H636 H 0.6682 0.40911 0.72851 0.0
H637 H 0.65057 0.34823 0.73527 0.0
H638 H 0.55208 0.26383 0.69846 0.0
H639 H 0.54051 0.3059 0.67888 0.0
C640 C 0.58188 0.37567 0.68472 0.0
C641 C 0.60559 0.41175 0.68965 0.0
C642 C 0.58872 0.35147 0.69574 0.0
C643 C 0.6369 0.42341 0.70534 0.0
C644 C 0.64406 0.39944 0.71629 0.0
C645 C 0.62655 0.33902 0.72299 0.0
C646 C 0.60218 0.30288 0.71843 0.0
C647 C 0.62 0.36338 0.71175 0.0
C648 C 0.57126 0.29145 0.70238 0.0
C649 C 0.56462 0.3155 0.69113 0.0
H650 H 0.24538 0.50809 0.8437 0.0
H651 H 0.2076 0.56117 0.8901 0.0
H652 H 0.27188 0.60353 0.90322 0.0
H653 H 0.33881 0.62759 0.89933 0.0
H654 H 0.37707 0.57485 0.85292 0.0
H655 H 0.31244 0.52987 0.84224 0.0
C656 C 0.25121 0.52855 0.85704 0.0
C657 C 0.22195 0.53177 0.86576 0.0
C658 C 0.28823 0.55295 0.86435 0.0
C659 C 0.22983 0.55856 0.88286 0.0
C660 C 0.26651 0.58271 0.89039 0.0
C661 C 0.33304 0.60617 0.88698 0.0
C662 C 0.36266 0.60476 0.87672 0.0
C663 C 0.29596 0.58057 0.88085 0.0
C664 C 0.35472 0.57661 0.86098 0.0
C665 C 0.3178 0.55091 0.85483 0.0
H666 H 0.61029 0.12747 0.06483 0.0
H667 H 0.56668 0.17547 0.01788 0.0
H668 H 0.61949 0.23348 0.0293 0.0
H669 H 0.68052 0.27011 0.04948 0.0
H670 H 0.72581 0.22254 0.0953 0.0
H671 H 0.66993 0.16465 0.08722 0.0
C672 C 0.6123 0.15066 0.0572 0.0
C673 C 0.58473 0.14715 0.04041 0.0
C674 C 0.64321 0.1839 0.06337 0.0
C675 C 0.58729 0.17742 0.03103 0.0
C676 C 0.61769 0.2106 0.03735 0.0
C677 C 0.67818 0.24712 0.0578 0.0
C678 C 0.70749 0.25056 0.07271 0.0
C679 C 0.6462 0.21407 0.053 0.0
C680 C 0.70374 0.22057 0.08363 0.0
C681 C 0.67182 0.18748 0.07901 0.0
H682 H 0.58928 0.69616 0.18566 0.0
H683 H 0.48264 0.61091 0.2121 0.0
H684 H 0.46742 0.65263 0.22715 0.0
H685 H 0.48153 0.7128 0.2288 0.0
H686 H 0.58901 0.79845 0.20496 0.0
H687 H 0.60743 0.75706 0.19354 0.0
C688 C 0.56313 0.68659 0.19531 0.0
C689 C 0.53678 0.65024 0.19711 0.0
C690 C 0.55473 0.7108 0.20436 0.0
C691 C 0.50297 0.63861 0.20963 0.0
C692 C 0.4943 0.66246 0.21844 0.0
C693 C 0.50929 0.72232 0.22164 0.0
C694 C 0.53397 0.7583 0.21759 0.0
C695 C 0.51948 0.6985 0.21523 0.0
C696 C 0.56984 0.77072 0.20834 0.0
C697 C 0.58015 0.74707 0.20166 0.0
H698 H 0.916 0.50716 0.38519 0.0
H699 H 0.86503 0.43295 0.32434 0.0
H700 H 0.80361 0.42084 0.3361 0.0
H701 H 0.76504 0.43399 0.36186 0.0
H702 H 0.81564 0.50883 0.42239 0.0
H703 H 0.8767 0.51837 0.41232 0.0
C704 C 0.89142 0.4883 0.37452 0.0
C705 C 0.89516 0.47111 0.35383 0.0
C706 C 0.85624 0.48188 0.38114 0.0
C707 C 0.86295 0.44628 0.34049 0.0
C708 C 0.82785 0.43959 0.34706 0.0
C709 C 0.78939 0.4524 0.3729 0.0
C710 C 0.78582 0.47096 0.3927 0.0
C711 C 0.82428 0.45767 0.36706 0.0
C712 C 0.81761 0.49433 0.40699 0.0
C713 C 0.85253 0.49979 0.40124 0.0
H714 H 0.09612 0.57425 0.44592 0.0
H715 H 0.12335 0.49968 0.42073 0.0
H716 H 0.15732 0.50739 0.45948 0.0
H717 H 0.18395 0.5388 0.49901 0.0
H718 H 0.16104 0.61673 0.52284 0.0
H719 H 0.12153 0.60469 0.48599 0.0
C720 C 0.10949 0.55969 0.44884 0.0
C721 C 0.10693 0.53636 0.43028 0.0
C722 C 0.13029 0.56517 0.47086 0.0
C723 C 0.12401 0.5173 0.43475 0.0
C724 C 0.14394 0.522 0.45684 0.0
C725 C 0.17008 0.55295 0.49626 0.0
C726 C 0.17565 0.57876 0.51358 0.0
C727 C 0.14788 0.54634 0.4748 0.0
C728 C 0.15749 0.59691 0.50969 0.0
C729 C 0.13482 0.59001 0.48863 0.0
H730 H 0.46218 0.03619 0.62453 0.0
H731 H 0.57554 0.08647 0.59786 0.0
H732 H 0.59875 0.12095 0.63613 0.0
H733 H 0.58673 0.14098 0.67532 0.0
H734 H 0.47338 0.09318 0.70142 0.0
H735 H 0.45044 0.05395 0.66521 0.0
C736 C 0.49197 0.05452 0.62718 0.0
C737 C 0.51698 0.05855 0.6083 0.0
C738 C 0.50519 0.07511 0.64902 0.0
C739 C 0.55558 0.08221 0.61219 0.0
C740 C 0.56894 0.10233 0.63399 0.0
C741 C 0.55702 0.12179 0.67324 0.0
C742 C 0.53182 0.12032 0.69094 0.0
C743 C 0.54396 0.09957 0.65226 0.0
C744 C 0.49343 0.09509 0.688 0.0
C745 C 0.48024 0.07262 0.66727 0.0
H746 H 0.51185 0.56214 0.74952 0.0
H747 H 0.52815 0.65589 0.71569 0.0
H748 H 0.5285 0.67939 0.75715 0.0
H749 H 0.52162 0.67188 0.80277 0.0
H750 H 0.50569 0.57786 0.83629 0.0
H751 H 0.5084 0.55604 0.79514 0.0
C752 C 0.51512 0.58758 0.7513 0.0
C753 C 0.51916 0.60706 0.72976 0.0
C754 C 0.51576 0.60094 0.77506 0.0
C755 C 0.52455 0.6404 0.73214 0.0
C756 C 0.52486 0.65379 0.75578 0.0
C757 C 0.51921 0.64682 0.80112 0.0
C758 C 0.5132 0.62643 0.82257 0.0
C759 C 0.52026 0.63417 0.77736 0.0
C760 C 0.51016 0.59402 0.82009 0.0
C761 C 0.51153 0.58142 0.79656 0.0
H762 H 0.89295 0.39998 0.91525 0.0
H763 H 0.91331 0.31622 0.92142 0.0
H764 H 0.88308 0.30047 0.96217 0.0
H765 H 0.85404 0.31272 0.99732 0.0
H766 H 0.84005 0.40047 0.99223 0.0
H767 H 0.86601 0.41319 0.95028 0.0
C768 C 0.89127 0.3785 0.92553 0.0
C769 C 0.90573 0.35955 0.91514 0.0
C770 C 0.8755 0.37061 0.94945 0.0
C771 C 0.90203 0.33107 0.92861 0.0
C772 C 0.88514 0.32228 0.95214 0.0
C773 C 0.85676 0.33465 0.98702 0.0
C774 C 0.84525 0.35566 0.99796 0.0
C775 C 0.8723 0.34223 0.96292 0.0
C776 C 0.84901 0.38404 0.98439 0.0
C777 C 0.86365 0.39124 0.96031 0.0
H778 H 0.50063 0.91477 0.08942 0.0
H779 H 0.50191 0.00277 0.12201 0.0
H780 H 0.51098 0.98577 0.16367 0.0
H781 H 0.51681 0.94475 0.19084 0.0
H782 H 0.5145 0.85647 0.15759 0.0
H783 H 0.50835 0.87521 0.1161 0.0
C784 C 0.50347 0.93058 0.10558 0.0
C785 C 0.50077 0.96007 0.10263 0.0
C786 C 0.50855 0.92062 0.12935 0.0
C787 C 0.50363 0.97979 0.12383 0.0
C788 C 0.50898 0.97017 0.14762 0.0
C789 C 0.51534 0.92983 0.1745 0.0
C790 C 0.51607 0.89923 0.17735 0.0
C791 C 0.51124 0.94048 0.15061 0.0
C792 C 0.51386 0.88005 0.15597 0.0
C793 C 0.5103 0.89071 0.13221 0.0
H794 H 0.64916 0.55983 0.26004 0.0
H795 H 0.55762 0.45481 0.24293 0.0
H796 H 0.5724 0.43274 0.27993 0.0
H797 H 0.61319 0.44277 0.31599 0.0
H798 H 0.70574 0.54761 0.33247 0.0
H799 H 0.68909 0.57007 0.29661 0.0
C800 C 0.63244 0.53212 0.26443 0.0
C801 C 0.60232 0.50906 0.24877 0.0
C802 C 0.64154 0.51947 0.28545 0.0
C803 C 0.58059 0.47327 0.25489 0.0
C804 C 0.58926 0.46054 0.2759 0.0
C805 C 0.62976 0.47052 0.31171 0.0
C806 C 0.66079 0.49341 0.32678 0.0
C807 C 0.61998 0.48332 0.29111 0.0
C808 C 0.68177 0.52936 0.32112 0.0
C809 C 0.67225 0.54227 0.30064 0.0
H810 H 0.45597 0.93483 0.36264 0.0
H811 H 0.52865 0.90863 0.39964 0.0
H812 H 0.53493 0.88393 0.3606 0.0
H813 H 0.51968 0.86989 0.31579 0.0
H814 H 0.44627 0.89592 0.27946 0.0
H815 H 0.4404 0.92053 0.31838 0.0
C816 C 0.47268 0.92317 0.36227 0.0
C817 C 0.49153 0.92326 0.38403 0.0
C818 C 0.47631 0.90926 0.33981 0.0
C819 C 0.51388 0.90889 0.3831 0.0
C820 C 0.51749 0.89479 0.3608 0.0
C821 C 0.50261 0.88116 0.31638 0.0
C822 C 0.4835 0.88108 0.29473 0.0
C823 C 0.49899 0.89501 0.33898 0.0
C824 C 0.46126 0.89556 0.29584 0.0
C825 C 0.45779 0.9096 0.31811 0.0
H826 H 0.53603 0.48796 0.48717 0.0
H827 H 0.64437 0.5456 0.52312 0.0
H828 H 0.6715 0.53106 0.48881 0.0
H829 H 0.66336 0.49787 0.45027 0.0
H830 H 0.55443 0.43899 0.41499 0.0
H831 H 0.52874 0.45794 0.44732 0.0
C832 C 0.56564 0.49762 0.48731 0.0
C833 C 0.58812 0.51788 0.50758 0.0
C834 C 0.58093 0.4886 0.46777 0.0
C835 C 0.62653 0.53043 0.5075 0.0
C836 C 0.64202 0.52181 0.48802 0.0
C837 C 0.63408 0.4894 0.44957 0.0
C838 C 0.61083 0.46676 0.43038 0.0
C839 C 0.61933 0.5003 0.46831 0.0
C840 C 0.57297 0.45622 0.42964 0.0
C841 C 0.55818 0.46705 0.44813 0.0
H842 H 0.11595 0.49176 0.70176 0.0
H843 H 0.01737 0.49105 0.67986 0.0
H844 H 0.05207 0.53177 0.6457 0.0
H845 H 0.11074 0.56777 0.62232 0.0
H846 H 0.20949 0.5693 0.64563 0.0
H847 H 0.17431 0.5279 0.67889 0.0
C848 C 0.10191 0.50013 0.68928 0.0
C849 C 0.06403 0.48805 0.69305 0.0
C850 C 0.12216 0.52393 0.67011 0.0
C851 C 0.04646 0.49986 0.67719 0.0
C852 C 0.06631 0.52316 0.65773 0.0
C853 C 0.12462 0.55921 0.63478 0.0
C854 C 0.16276 0.57172 0.63145 0.0
C855 C 0.10425 0.53551 0.65409 0.0
C856 C 0.18028 0.56036 0.64781 0.0
C857 C 0.16015 0.53656 0.66684 0.0
H858 H 0.48039 0.09966 0.87734 0.0
H859 H 0.57157 0.1785 0.92258 0.0
H860 H 0.59932 0.21558 0.88569 0.0
H861 H 0.60052 0.22277 0.84004 0.0
H862 H 0.51047 0.14218 0.79479 0.0
H863 H 0.47918 0.10876 0.83228 0.0
C864 C 0.5058 0.12539 0.87921 0.0
C865 C 0.52387 0.13651 0.90259 0.0
C866 C 0.522 0.14602 0.85788 0.0
C867 C 0.55724 0.16949 0.90471 0.0
C868 C 0.57312 0.19058 0.88364 0.0
C869 C 0.57382 0.19812 0.83839 0.0
C870 C 0.55806 0.18487 0.81462 0.0
C871 C 0.55624 0.17869 0.86002 0.0
C872 C 0.52341 0.15287 0.81284 0.0
C873 C 0.50546 0.13372 0.83427 0.0
H874 H 0.5575 0.63195 0.02577 0.0
H875 H 0.45244 0.60553 0.05803 0.0
H876 H 0.4327 0.61704 0.018 0.0
H877 H 0.44391 0.6311 0.9735 0.0
H878 H 0.54878 0.65713 0.94096 0.0
H879 H 0.5702 0.64939 0.98165 0.0
C880 C 0.53068 0.62959 0.02417 0.0
C881 C 0.5065 0.61821 0.04478 0.0
C882 C 0.51937 0.63569 0.00106 0.0
C883 C 0.47145 0.61434 0.04236 0.0
C884 C 0.46016 0.62078 0.01951 0.0
C885 C 0.4715 0.63515 0.97528 0.0
C886 C 0.49461 0.64435 0.95422 0.0
C887 C 0.4836 0.63079 -0.00136 0.0
C888 C 0.53044 0.64994 0.9569 0.0
C889 C 0.54269 0.64553 0.98013 0.0
H890 H 0.89261 0.42194 0.2153 0.0
H891 H 0.99529 0.43223 0.19178 0.0
H892 H 0.96878 0.41035 0.1502 0.0
H893 H 0.91733 0.39066 0.11988 0.0
H894 H 0.81489 0.38114 0.14336 0.0
H895 H 0.84038 0.4003 0.1854 0.0
C896 C 0.90905 0.41923 0.20106 0.0
C897 C 0.94568 0.42842 0.20665 0.0
C898 C 0.89376 0.40689 0.1771 0.0
C899 C 0.96672 0.4247 0.18808 0.0
C900 C 0.95171 0.41245 0.16422 0.0
C901 C 0.9005 0.39258 0.13422 0.0
C902 C 0.86435 0.38465 0.12836 0.0
C903 C 0.91535 0.40374 0.15844 0.0
C904 C 0.84289 0.38721 0.14725 0.0
C905 C 0.85743 0.39819 0.17135 0.0
loop_
_geom_bond_atom_site_label_1
_geom_bond_atom_site_label_2
_geom_bond_distance
_geom_bond_site_symmetry_2
_ccdc_geom_bond_type
H0 O26 0.856 . S
H1 O29 0.854 . S
H2 C37 0.930 1_455 S
H3 C38 0.930 . S
H4 C40 0.930 . S
H5 C41 0.930 . S
H6 C43 0.931 . S
H7 C44 0.930 . S
H8 C46 0.930 . S
H9 C47 0.929 . S
H10 C49 0.930 . S
H11 C50 0.931 . S
H12 C52 0.930 . S
H13 C53 0.929 . S
H14 C55 0.931 . S
H15 C56 0.930 . S
H16 C58 0.930 . S
H17 C59 0.932 . S
H18 C61 0.930 . S
H19 C62 0.929 . S
H20 C64 0.931 . S
H21 C65 0.930 . S
H22 C67 0.929 . S
H23 C68 0.931 . S
H24 C70 0.930 . S
H25 C71 0.931 . S
O26 H0 0.856 . S
O26 C72 1.300 . S
O27 C72 1.209 . S
O28 C73 1.199 . S
O29 H1 0.854 . S
O29 C73 1.297 . S
C30 C31 1.404 . S
C30 C35 1.397 . S
C30 C36 1.492 . S
C31 C30 1.404 . S
C31 C32 1.396 . S
C31 C42 1.492 . S
C32 C31 1.396 . S
C32 C33 1.397 . S
C32 C48 1.509 . S
C33 C32 1.397 . S
C33 C34 1.412 . S
C33 C54 1.485 . S
C34 C33 1.412 . S
C34 C35 1.388 . S
C34 C60 1.490 . S
C35 C30 1.397 . S
C35 C34 1.388 . S
C35 C66 1.519 1_455 S
C36 C30 1.492 . S
C36 C37 1.363 1_455 S
C36 C41 1.390 1_455 S
C37 H2 0.930 1_655 S
C37 C36 1.363 1_655 S
C37 C38 1.372 . S
C38 H3 0.930 . S
C38 C37 1.372 . S
C38 C39 1.383 . S
C39 C38 1.383 . S
C39 C40 1.395 . S
C40 H4 0.930 . S
C40 C39 1.395 . S
C40 C41 1.362 . S
C41 H5 0.930 . S
C41 C36 1.390 1_655 S
C41 C40 1.362 . S
C42 C31 1.492 . S
C42 C43 1.377 . S
C42 C47 1.397 . S
C43 H6 0.931 . S
C43 C42 1.377 . S
C43 C44 1.376 . S
C44 H7 0.930 . S
C44 C43 1.376 . S
C44 C45 1.376 . S
C45 C44 1.376 . S
C45 C46 1.378 . S
C45 C72 1.486 . S
C46 H8 0.930 . S
C46 C45 1.378 . S
C46 C47 1.376 . S
C47 H9 0.929 . S
C47 C42 1.397 . S
C47 C46 1.376 . S
C48 C32 1.509 . S
C48 C49 1.391 . S
C48 C53 1.386 . S
C49 H10 0.930 . S
C49 C48 1.391 . S
C49 C50 1.375 . S
C50 H11 0.931 . S
C50 C49 1.375 . S
C50 C51 1.375 . S
C51 C50 1.375 . S
C51 C52 1.361 . S
C52 H12 0.930 . S
C52 C51 1.361 . S
C52 C53 1.399 . S
C53 H13 0.929 . S
C53 C48 1.386 . S
C53 C52 1.399 . S
C54 C33 1.485 . S
C54 C55 1.394 . S
C54 C59 1.360 . S
C55 H14 0.931 . S
C55 C54 1.394 . S
C55 C56 1.372 . S
C56 H15 0.930 . S
C56 C55 1.372 . S
C56 C57 1.397 . S
C57 C56 1.397 . S
C57 C58 1.390 . S
C57 C73 1.476 . S
C58 H16 0.930 . S
C58 C57 1.390 . S
C58 C59 1.366 . S
C59 H17 0.932 . S
C59 C54 1.360 . S
C59 C58 1.366 . S
C60 C34 1.490 . S
C60 C61 1.380 . S
C60 C65 1.386 . S
C61 H18 0.930 . S
C61 C60 1.380 . S
C61 C62 1.381 . S
C62 H19 0.929 . S
C62 C61 1.381 . S
C62 C63 1.371 . S
C63 C62 1.371 . S
C63 C64 1.380 . S
C64 H20 0.931 . S
C64 C63 1.380 . S
C64 C65 1.387 . S
C65 H21 0.930 . S
C65 C60 1.386 . S
C65 C64 1.387 . S
C66 C35 1.519 1_655 S
C66 C67 1.377 . S
C66 C71 1.361 . S
C67 H22 0.929 . S
C67 C66 1.377 . S
C67 C68 1.386 . S
C68 H23 0.931 . S
C68 C67 1.386 . S
C68 C69 1.363 . S
C69 C68 1.363 . S
C69 C70 1.385 . S
C70 H24 0.930 . S
C70 C69 1.385 . S
C70 C71 1.396 . S
C71 H25 0.931 . S
C71 C66 1.361 . S
C71 C70 1.396 . S
C72 O26 1.300 . S
C72 O27 1.209 . S
C72 C45 1.486 . S
C73 O28 1.199 . S
C73 O29 1.297 . S
C73 C57 1.476 . S
H74 O100 0.856 . S
H75 O103 0.854 . S
H76 C111 0.930 . S
H77 C112 0.930 . S
H78 C114 0.930 . S
H79 C115 0.930 . S
H80 C117 0.931 . S
H81 C118 0.930 . S
H82 C120 0.930 . S
H83 C121 0.929 . S
H84 C123 0.930 . S
H85 C124 0.931 . S
H86 C126 0.930 . S
H87 C127 0.929 . S
H88 C129 0.931 . S
H89 C130 0.930 . S
H90 C132 0.930 . S
H91 C133 0.932 . S
H92 C135 0.930 . S
H93 C136 0.929 . S
H94 C138 0.931 . S
H95 C139 0.930 . S
H96 C141 0.929 . S
H97 C142 0.931 . S
H98 C144 0.930 . S
H99 C145 0.929 . S
O100 H74 0.856 . S
O100 C146 1.300 . S
O101 C146 1.209 . S
O102 C147 1.199 . S
O103 H75 0.854 . S
O103 C147 1.297 . S
C104 C105 1.404 . S
C104 C109 1.397 . S
C104 C110 1.492 . S
C105 C104 1.404 . S
C105 C106 1.396 . S
C105 C116 1.492 . S
C106 C105 1.396 . S
C106 C107 1.397 . S
C106 C122 1.509 . S
C107 C106 1.397 . S
C107 C108 1.412 . S
C107 C128 1.485 . S
C108 C107 1.412 . S
C108 C109 1.388 . S
C108 C134 1.490 . S
C109 C104 1.397 . S
C109 C108 1.388 . S
C109 C140 1.519 1_545 S
C110 C104 1.492 . S
C110 C111 1.363 . S
C110 C115 1.390 1_545 S
C111 H76 0.930 . S
C111 C110 1.363 . S
C111 C112 1.372 1_545 S
C112 H77 0.930 . S
C112 C111 1.372 1_565 S
C112 C113 1.383 . S
C113 C112 1.383 . S
C113 C114 1.395 . S
C114 H78 0.930 . S
C114 C113 1.395 . S
C114 C115 1.362 . S
C115 H79 0.930 . S
C115 C110 1.390 1_565 S
C115 C114 1.362 . S
C116 C105 1.492 . S
C116 C117 1.377 . S
C116 C121 1.397 . S
C117 H80 0.931 . S
C117 C116 1.377 . S
C117 C118 1.376 . S
C118 H81 0.930 . S
C118 C117 1.376 . S
C118 C119 1.376 . S
C119 C118 1.376 . S
C119 C120 1.378 . S
C119 C146 1.486 . S
C120 H82 0.930 . S
C120 C119 1.378 . S
C120 C121 1.376 . S
C121 H83 0.929 . S
C121 C116 1.397 . S
C121 C120 1.376 . S
C122 C106 1.509 . S
C122 C123 1.391 . S
C122 C127 1.386 . S
C123 H84 0.930 . S
C123 C122 1.391 . S
C123 C124 1.375 . S
C124 H85 0.931 . S
C124 C123 1.375 . S
C124 C125 1.375 . S
C125 C124 1.375 . S
C125 C126 1.361 . S
C126 H86 0.930 . S
C126 C125 1.361 . S
C126 C127 1.399 . S
C127 H87 0.929 . S
C127 C122 1.386 . S
C127 C126 1.399 . S
C128 C107 1.485 . S
C128 C129 1.394 . S
C128 C133 1.360 . S
C129 H88 0.931 . S
C129 C128 1.394 . S
C129 C130 1.372 . S
C130 H89 0.930 . S
C130 C129 1.372 . S
C130 C131 1.397 . S
C131 C130 1.397 . S
C131 C132 1.390 . S
C131 C147 1.476 . S
C132 H90 0.930 . S
C132 C131 1.390 . S
C132 C133 1.366 . S
C133 H91 0.932 . S
C133 C128 1.360 . S
C133 C132 1.366 . S
C134 C108 1.490 . S
C134 C135 1.380 . S
C134 C139 1.386 . S
C135 H92 0.930 . S
C135 C134 1.380 . S
C135 C136 1.381 . S
C136 H93 0.929 . S
C136 C135 1.381 . S
C136 C137 1.371 . S
C137 C136 1.371 . S
C137 C138 1.380 . S
C138 H94 0.931 . S
C138 C137 1.380 . S
C138 C139 1.387 . S
C139 H95 0.930 . S
C139 C134 1.386 . S
C139 C138 1.387 . S
C140 C109 1.519 1_565 S
C140 C141 1.377 . S
C140 C145 1.361 . S
C141 H96 0.929 . S
C141 C140 1.377 . S
C141 C142 1.386 . S
C142 H97 0.931 . S
C142 C141 1.386 . S
C142 C143 1.363 . S
C143 C142 1.363 . S
C143 C144 1.385 . S
C144 H98 0.930 . S
C144 C143 1.385 . S
C144 C145 1.396 . S
C145 H99 0.929 . S
C145 C140 1.361 . S
C145 C144 1.396 . S
C146 O100 1.300 . S
C146 O101 1.209 . S
C146 C119 1.486 . S
C147 O102 1.199 . S
C147 O103 1.297 . S
C147 C131 1.476 . S
H148 O174 0.856 . S
H149 O177 0.854 . S
H150 C185 0.930 . S
H151 C186 0.930 . S
H152 C188 0.930 . S
H153 C189 0.930 . S
H154 C191 0.931 . S
H155 C192 0.930 . S
H156 C194 0.930 . S
H157 C195 0.929 . S
H158 C197 0.930 . S
H159 C198 0.931 . S
H160 C200 0.930 . S
H161 C201 0.929 . S
H162 C203 0.931 . S
H163 C204 0.930 . S
H164 C206 0.930 . S
H165 C207 0.932 . S
H166 C209 0.930 . S
H167 C210 0.929 . S
H168 C212 0.931 . S
H169 C213 0.930 . S
H170 C215 0.929 . S
H171 C216 0.931 . S
H172 C218 0.930 . S
H173 C219 0.929 . S
O174 H148 0.856 . S
O174 C220 1.300 . S
O175 C220 1.209 . S
O176 C221 1.199 . S
O177 H149 0.854 . S
O177 C221 1.297 . S
C178 C179 1.404 . S
C178 C183 1.397 . S
C178 C184 1.492 . S
C179 C178 1.404 . S
C179 C180 1.396 . S
C179 C190 1.492 . S
C180 C179 1.396 . S
C180 C181 1.397 . S
C180 C196 1.509 . S
C181 C180 1.397 . S
C181 C182 1.412 . S
C181 C202 1.485 . S
C182 C181 1.412 . S
C182 C183 1.388 . S
C182 C208 1.490 . S
C183 C178 1.397 . S
C183 C182 1.388 . S
C183 C214 1.519 . S
C184 C178 1.492 . S
C184 C185 1.363 . S
C184 C189 1.390 . S
C185 H150 0.930 . S
C185 C184 1.363 . S
C185 C186 1.372 . S
C186 H151 0.930 . S
C186 C185 1.372 . S
C186 C187 1.383 . S
C187 C186 1.383 . S
C187 C188 1.395 . S
C188 H152 0.930 . S
C188 C187 1.395 . S
C188 C189 1.362 . S
C189 H153 0.930 . S
C189 C184 1.390 . S
C189 C188 1.362 . S
C190 C179 1.492 . S
C190 C191 1.377 . S
C190 C195 1.397 . S
C191 H154 0.931 . S
C191 C190 1.377 . S
C191 C192 1.376 . S
C192 H155 0.930 . S
C192 C191 1.376 . S
C192 C193 1.376 . S
C193 C192 1.376 . S
C193 C194 1.378 . S
C193 C220 1.486 . S
C194 H156 0.930 . S
C194 C193 1.378 . S
C194 C195 1.376 . S
C195 H157 0.929 . S
C195 C190 1.397 . S
C195 C194 1.376 . S
C196 C180 1.509 . S
C196 C197 1.391 . S
C196 C201 1.386 . S
C197 H158 0.930 . S
C197 C196 1.391 . S
C197 C198 1.375 . S
C198 H159 0.931 . S
C198 C197 1.375 . S
C198 C199 1.375 . S
C199 C198 1.375 . S
C199 C200 1.361 . S
C200 H160 0.930 . S
C200 C199 1.361 . S
C200 C201 1.399 . S
C201 H161 0.929 . S
C201 C196 1.386 . S
C201 C200 1.399 . S
C202 C181 1.485 . S
C202 C203 1.394 . S
C202 C207 1.360 . S
C203 H162 0.931 . S
C203 C202 1.394 . S
C203 C204 1.372 . S
C204 H163 0.930 . S
C204 C203 1.372 . S
C204 C205 1.397 . S
C205 C204 1.397 . S
C205 C206 1.390 . S
C205 C221 1.476 . S
C206 H164 0.930 . S
C206 C205 1.390 . S
C206 C207 1.366 . S
C207 H165 0.932 . S
C207 C202 1.360 . S
C207 C206 1.366 . S
C208 C182 1.490 . S
C208 C209 1.380 . S
C208 C213 1.386 . S
C209 H166 0.930 . S
C209 C208 1.380 . S
C209 C210 1.381 . S
C210 H167 0.929 . S
C210 C209 1.381 . S
C210 C211 1.371 . S
C211 C210 1.371 . S
C211 C212 1.380 . S
C212 H168 0.931 . S
C212 C211 1.380 . S
C212 C213 1.387 . S
C213 H169 0.930 . S
C213 C208 1.386 . S
C213 C212 1.387 . S
C214 C183 1.519 . S
C214 C215 1.377 . S
C214 C219 1.361 . S
C215 H170 0.929 . S
C215 C214 1.377 . S
C215 C216 1.386 . S
C216 H171 0.931 . S
C216 C215 1.386 . S
C216 C217 1.363 . S
C217 C216 1.363 . S
C217 C218 1.385 . S
C218 H172 0.930 . S
C218 C217 1.385 . S
C218 C219 1.396 . S
C219 H173 0.929 . S
C219 C214 1.361 . S
C219 C218 1.396 . S
C220 O174 1.300 . S
C220 O175 1.209 . S
C220 C193 1.486 . S
C221 O176 1.199 . S
C221 O177 1.297 . S
C221 C205 1.476 . S
H222 O248 0.856 . S
H223 O251 0.854 . S
H224 C259 0.930 1_455 S
H225 C260 0.930 . S
H226 C262 0.930 . S
H227 C263 0.930 . S
H228 C265 0.931 . S
H229 C266 0.930 . S
H230 C268 0.930 . S
H231 C269 0.929 . S
H232 C271 0.930 . S
H233 C272 0.931 . S
H234 C274 0.930 . S
H235 C275 0.929 . S
H236 C277 0.931 . S
H237 C278 0.930 . S
H238 C280 0.930 . S
H239 C281 0.932 . S
H240 C283 0.930 . S
H241 C284 0.929 . S
H242 C286 0.931 . S
H243 C287 0.930 . S
H244 C289 0.929 . S
H245 C290 0.931 . S
H246 C292 0.930 . S
H247 C293 0.929 . S
O248 H222 0.856 . S
O248 C294 1.300 . S
O249 C294 1.209 . S
O250 C295 1.199 . S
O251 H223 0.854 . S
O251 C295 1.297 . S
C252 C253 1.404 . S
C252 C257 1.397 . S
C252 C258 1.492 1_455 S
C253 C252 1.404 . S
C253 C254 1.396 . S
C253 C264 1.492 . S
C254 C253 1.396 . S
C254 C255 1.397 . S
C254 C270 1.509 . S
C255 C254 1.397 . S
C255 C256 1.412 . S
C255 C276 1.485 . S
C256 C255 1.412 . S
C256 C257 1.388 . S
C256 C282 1.490 . S
C257 C252 1.397 . S
C257 C256 1.388 . S
C257 C288 1.519 1_455 S
C258 C252 1.492 1_655 S
C258 C259 1.363 . S
C258 C263 1.390 . S
C259 H224 0.930 1_655 S
C259 C258 1.363 . S
C259 C260 1.372 . S
C260 H225 0.930 . S
C260 C259 1.372 . S
C260 C261 1.383 . S
C261 C260 1.383 . S
C261 C262 1.395 . S
C262 H226 0.930 . S
C262 C261 1.395 . S
C262 C263 1.362 . S
C263 H227 0.930 . S
C263 C258 1.390 . S
C263 C262 1.362 . S
C264 C253 1.492 . S
C264 C265 1.377 . S
C264 C269 1.397 . S
C265 H228 0.931 . S
C265 C264 1.377 . S
C265 C266 1.376 . S
C266 H229 0.930 . S
C266 C265 1.376 . S
C266 C267 1.376 . S
C267 C266 1.376 . S
C267 C268 1.378 . S
C267 C294 1.486 . S
C268 H230 0.930 . S
C268 C267 1.378 . S
C268 C269 1.376 . S
C269 H231 0.929 . S
C269 C264 1.397 . S
C269 C268 1.376 . S
C270 C254 1.509 . S
C270 C271 1.391 . S
C270 C275 1.386 . S
C271 H232 0.930 . S
C271 C270 1.391 . S
C271 C272 1.375 . S
C272 H233 0.931 . S
C272 C271 1.375 . S
C272 C273 1.375 . S
C273 C272 1.375 . S
C273 C274 1.361 . S
C274 H234 0.930 . S
C274 C273 1.361 . S
C274 C275 1.399 . S
C275 H235 0.929 . S
C275 C270 1.386 . S
C275 C274 1.399 . S
C276 C255 1.485 . S
C276 C277 1.394 . S
C276 C281 1.360 . S
C277 H236 0.931 . S
C277 C276 1.394 . S
C277 C278 1.372 . S
C278 H237 0.930 . S
C278 C277 1.372 . S
C278 C279 1.397 . S
C279 C278 1.397 . S
C279 C280 1.390 . S
C279 C295 1.476 . S
C280 H238 0.930 . S
C280 C279 1.390 . S
C280 C281 1.366 . S
C281 H239 0.932 . S
C281 C276 1.360 . S
C281 C280 1.366 . S
C282 C256 1.490 . S
C282 C283 1.380 . S
C282 C287 1.386 . S
C283 H240 0.930 . S
C283 C282 1.380 . S
C283 C284 1.381 . S
C284 H241 0.929 . S
C284 C283 1.381 . S
C284 C285 1.371 . S
C285 C284 1.371 . S
C285 C286 1.380 . S
C286 H242 0.931 . S
C286 C285 1.380 . S
C286 C287 1.387 . S
C287 H243 0.930 . S
C287 C282 1.386 . S
C287 C286 1.387 . S
C288 C257 1.519 1_655 S
C288 C289 1.377 . S
C288 C293 1.361 . S
C289 H244 0.929 . S
C289 C288 1.377 . S
C289 C290 1.386 . S
C290 H245 0.931 . S
C290 C289 1.386 . S
C290 C291 1.363 . S
C291 C290 1.363 . S
C291 C292 1.385 . S
C292 H246 0.930 . S
C292 C291 1.385 . S
C292 C293 1.396 . S
C293 H247 0.929 . S
C293 C288 1.361 . S
C293 C292 1.396 . S
C294 O248 1.300 . S
C294 O249 1.209 . S
C294 C267 1.486 . S
C295 O250 1.199 . S
C295 O251 1.297 . S
C295 C279 1.476 . S
H296 O322 0.856 . S
H297 O325 0.854 . S
H298 C333 0.930 . S
H299 C334 0.930 . S
H300 C336 0.930 . S
H301 C337 0.930 . S
H302 C339 0.931 . S
H303 C340 0.930 . S
H304 C342 0.930 . S
H305 C343 0.929 . S
H306 C345 0.930 . S
H307 C346 0.931 . S
H308 C348 0.930 . S
H309 C349 0.929 . S
H310 C351 0.931 . S
H311 C352 0.930 . S
H312 C354 0.930 . S
H313 C355 0.932 . S
H314 C357 0.930 . S
H315 C358 0.929 . S
H316 C360 0.931 . S
H317 C361 0.930 . S
H318 C363 0.929 . S
H319 C364 0.931 . S
H320 C366 0.930 . S
H321 C367 0.929 . S
O322 H296 0.856 . S
O322 C368 1.300 . S
O323 C368 1.209 . S
O324 C369 1.199 . S
O325 H297 0.854 . S
O325 C369 1.297 . S
C326 C327 1.404 . S
C326 C331 1.397 1_565 S
C326 C332 1.492 1_565 S
C327 C326 1.404 . S
C327 C328 1.396 . S
C327 C338 1.492 . S
C328 C327 1.396 . S
C328 C329 1.397 . S
C328 C344 1.509 . S
C329 C328 1.397 . S
C329 C330 1.412 1_556 S
C329 C350 1.485 1_556 S
C330 C329 1.412 1_554 S
C330 C331 1.388 1_564 S
C330 C356 1.490 . S
C331 C326 1.397 1_545 S
C331 C330 1.388 1_546 S
C331 C362 1.521 . S
C332 C326 1.492 1_545 S
C332 C333 1.363 . S
C332 C337 1.390 . S
C333 H298 0.930 . S
C333 C332 1.363 . S
C333 C334 1.372 . S
C334 H299 0.930 . S
C334 C333 1.372 . S
C334 C335 1.383 . S
C335 C334 1.383 . S
C335 C336 1.395 . S
C336 H300 0.930 . S
C336 C335 1.395 . S
C336 C337 1.362 . S
C337 H301 0.930 . S
C337 C332 1.390 . S
C337 C336 1.362 . S
C338 C327 1.492 . S
C338 C339 1.377 . S
C338 C343 1.397 . S
C339 H302 0.931 . S
C339 C338 1.377 . S
C339 C340 1.376 . S
C340 H303 0.930 . S
C340 C339 1.376 . S
C340 C341 1.376 . S
C341 C340 1.376 . S
C341 C342 1.378 . S
C341 C368 1.486 . S
C342 H304 0.930 . S
C342 C341 1.378 . S
C342 C343 1.376 . S
C343 H305 0.929 . S
C343 C338 1.397 . S
C343 C342 1.376 . S
C344 C328 1.509 . S
C344 C345 1.391 . S
C344 C349 1.386 . S
C345 H306 0.930 . S
C345 C344 1.391 . S
C345 C346 1.375 . S
C346 H307 0.931 . S
C346 C345 1.375 . S
C346 C347 1.375 . S
C347 C346 1.375 . S
C347 C348 1.361 . S
C348 H308 0.930 . S
C348 C347 1.361 . S
C348 C349 1.399 . S
C349 H309 0.929 . S
C349 C344 1.386 . S
C349 C348 1.399 . S
C350 C329 1.485 1_554 S
C350 C351 1.394 . S
C350 C355 1.360 . S
C351 H310 0.931 . S
C351 C350 1.394 . S
C351 C352 1.372 . S
C352 H311 0.930 . S
C352 C351 1.372 . S
C352 C353 1.397 . S
C353 C352 1.397 . S
C353 C354 1.390 . S
C353 C369 1.476 . S
C354 H312 0.930 . S
C354 C353 1.390 . S
C354 C355 1.366 . S
C355 H313 0.932 . S
C355 C350 1.360 . S
C355 C354 1.366 . S
C356 C330 1.490 . S
C356 C357 1.380 . S
C356 C361 1.386 . S
C357 H314 0.930 . S
C357 C356 1.380 . S
C357 C358 1.381 . S
C358 H315 0.929 . S
C358 C357 1.381 . S
C358 C359 1.371 . S
C359 C358 1.371 . S
C359 C360 1.380 . S
C360 H316 0.931 . S
C360 C359 1.380 . S
C360 C361 1.387 . S
C361 H317 0.930 . S
C361 C356 1.386 . S
C361 C360 1.387 . S
C362 C331 1.521 . S
C362 C363 1.377 . S
C362 C367 1.359 1_556 S
C363 H318 0.929 . S
C363 C362 1.377 . S
C363 C364 1.386 1_556 S
C364 H319 0.931 . S
C364 C363 1.386 1_554 S
C364 C365 1.363 . S
C365 C364 1.363 . S
C365 C366 1.385 . S
C366 H320 0.930 . S
C366 C365 1.385 . S
C366 C367 1.396 . S
C367 H321 0.929 . S
C367 C362 1.359 1_554 S
C367 C366 1.396 . S
C368 O322 1.300 . S
C368 O323 1.209 . S
C368 C341 1.486 . S
C369 O324 1.199 . S
C369 O325 1.297 . S
C369 C353 1.476 . S
H370 O396 0.856 . S
H371 O399 0.854 . S
H372 C407 0.930 . S
H373 C408 0.930 . S
H374 C410 0.930 . S
H375 C411 0.930 . S
H376 C413 0.931 . S
H377 C414 0.930 . S
H378 C416 0.930 . S
H379 C417 0.929 . S
H380 C419 0.930 . S
H381 C420 0.931 . S
H382 C422 0.930 . S
H383 C423 0.929 . S
H384 C425 0.931 . S
H385 C426 0.930 . S
H386 C428 0.930 . S
H387 C429 0.932 . S
H388 C431 0.930 . S
H389 C432 0.929 . S
H390 C434 0.931 . S
H391 C435 0.930 . S
H392 C437 0.929 . S
H393 C438 0.931 . S
H394 C440 0.930 . S
H395 C441 0.929 . S
O396 H370 0.856 . S
O396 C442 1.300 . S
O397 C442 1.209 . S
O398 C443 1.199 . S
O399 H371 0.854 . S
O399 C443 1.297 . S
C400 C401 1.404 . S
C400 C405 1.397 . S
C400 C406 1.492 . S
C401 C400 1.404 . S
C401 C402 1.396 . S
C401 C412 1.492 . S
C402 C401 1.396 . S
C402 C403 1.397 . S
C402 C418 1.509 . S
C403 C402 1.397 . S
C403 C404 1.412 . S
C403 C424 1.485 . S
C404 C403 1.412 . S
C404 C405 1.388 . S
C404 C430 1.490 . S
C405 C400 1.397 . S
C405 C404 1.388 . S
C405 C436 1.519 . S
C406 C400 1.492 . S
C406 C407 1.363 . S
C406 C411 1.390 . S
C407 H372 0.930 . S
C407 C406 1.363 . S
C407 C408 1.372 . S
C408 H373 0.930 . S
C408 C407 1.372 . S
C408 C409 1.383 . S
C409 C408 1.383 . S
C409 C410 1.395 . S
C410 H374 0.930 . S
C410 C409 1.395 . S
C410 C411 1.362 . S
C411 H375 0.930 . S
C411 C406 1.390 . S
C411 C410 1.362 . S
C412 C401 1.492 . S
C412 C413 1.377 . S
C412 C417 1.397 . S
C413 H376 0.931 . S
C413 C412 1.377 . S
C413 C414 1.376 . S
C414 H377 0.930 . S
C414 C413 1.376 . S
C414 C415 1.376 . S
C415 C414 1.376 . S
C415 C416 1.378 . S
C415 C442 1.486 1_554 S
C416 H378 0.930 . S
C416 C415 1.378 . S
C416 C417 1.376 . S
C417 H379 0.929 . S
C417 C412 1.397 . S
C417 C416 1.376 . S
C418 C402 1.509 . S
C418 C419 1.391 . S
C418 C423 1.386 . S
C419 H380 0.930 . S
C419 C418 1.391 . S
C419 C420 1.375 . S
C420 H381 0.931 . S
C420 C419 1.375 . S
C420 C421 1.375 . S
C421 C420 1.375 . S
C421 C422 1.361 . S
C422 H382 0.930 . S
C422 C421 1.361 . S
C422 C423 1.399 . S
C423 H383 0.929 . S
C423 C418 1.386 . S
C423 C422 1.399 . S
C424 C403 1.485 . S
C424 C425 1.394 . S
C424 C429 1.360 . S
C425 H384 0.931 . S
C425 C424 1.394 . S
C425 C426 1.372 . S
C426 H385 0.930 . S
C426 C425 1.372 . S
C426 C427 1.397 . S
C427 C426 1.397 . S
C427 C428 1.390 . S
C427 C443 1.476 . S
C428 H386 0.930 . S
C428 C427 1.390 . S
C428 C429 1.366 . S
C429 H387 0.932 . S
C429 C424 1.360 . S
C429 C428 1.366 . S
C430 C404 1.490 . S
C430 C431 1.380 . S
C430 C435 1.386 . S
C431 H388 0.930 . S
C431 C430 1.380 . S
C431 C432 1.381 . S
C432 H389 0.929 . S
C432 C431 1.381 . S
C432 C433 1.371 . S
C433 C432 1.371 . S
C433 C434 1.380 . S
C434 H390 0.931 . S
C434 C433 1.380 . S
C434 C435 1.387 . S
C435 H391 0.930 . S
C435 C430 1.386 . S
C435 C434 1.387 . S
C436 C405 1.519 . S
C436 C437 1.377 . S
C436 C441 1.361 . S
C437 H392 0.929 . S
C437 C436 1.377 . S
C437 C438 1.386 . S
C438 H393 0.931 . S
C438 C437 1.386 . S
C438 C439 1.363 . S
C439 C438 1.363 . S
C439 C440 1.385 . S
C440 H394 0.930 . S
C440 C439 1.385 . S
C440 C441 1.396 . S
C441 H395 0.929 . S
C441 C436 1.361 . S
C441 C440 1.396 . S
C442 O396 1.300 . S
C442 O397 1.209 . S
C442 C415 1.486 1_556 S
C443 O398 1.199 . S
C443 O399 1.297 . S
C443 C427 1.476 . S
C444 O445 1.160 . S
C444 O451 1.185 . S
O445 C444 1.160 . S
O446 Zn447 1.899 . S
O446 C454 1.284 . S
Zn447 O446 1.899 . S
Zn447 O448 2.032 . S
Zn447 O451 2.086 . S
Zn447 O456 1.977 . S
O448 Zn447 2.032 . S
O448 C452 1.278 . S
C449 O450 1.203 . S
C449 O456 1.267 . S
O450 C449 1.203 . S
O451 C444 1.185 . S
O451 Zn447 2.086 . S
C452 O448 1.278 . S
C452 O453 1.211 . S
O453 C452 1.211 . S
C454 O446 1.284 . S
C454 O455 1.273 . S
O455 C454 1.273 . S
O456 Zn447 1.977 . S
O456 C449 1.267 . S
C457 O458 1.160 . S
C457 O464 1.185 . S
O458 C457 1.160 . S
O459 Zn460 1.899 . S
O459 C467 1.284 . S
Zn460 O459 1.899 . S
Zn460 O461 2.032 . S
Zn460 O464 2.086 . S
Zn460 O469 1.977 . S
O461 Zn460 2.032 . S
O461 C465 1.278 . S
C462 O463 1.203 . S
C462 O469 1.267 . S
O463 C462 1.203 . S
O464 C457 1.185 . S
O464 Zn460 2.086 . S
C465 O461 1.278 . S
C465 O466 1.211 . S
O466 C465 1.211 . S
C467 O459 1.284 . S
C467 O468 1.273 . S
O468 C467 1.273 . S
O469 Zn460 1.977 . S
O469 C462 1.267 . S
C470 O471 1.160 . S
C470 O477 1.185 . S
O471 C470 1.160 . S
O472 Zn473 1.899 . S
O472 C480 1.284 . S
Zn473 O472 1.899 . S
Zn473 O474 2.032 . S
Zn473 O477 2.086 . S
Zn473 O482 1.977 . S
O474 Zn473 2.032 . S
O474 C478 1.278 . S
C475 O476 1.203 . S
C475 O482 1.267 . S
O476 C475 1.203 . S
O477 C470 1.185 . S
O477 Zn473 2.086 . S
C478 O474 1.278 . S
C478 O479 1.211 . S
O479 C478 1.211 . S
C480 O472 1.284 . S
C480 O481 1.273 . S
O481 C480 1.273 . S
O482 Zn473 1.977 . S
O482 C475 1.267 . S
C483 O484 1.160 . S
C483 O490 1.185 . S
O484 C483 1.160 . S
O485 Zn486 1.899 . S
O485 C493 1.284 . S
Zn486 O485 1.899 . S
Zn486 O487 2.032 . S
Zn486 O490 2.086 . S
Zn486 O495 1.977 . S
O487 Zn486 2.032 . S
O487 C491 1.278 . S
C488 O489 1.203 . S
C488 O495 1.267 . S
O489 C488 1.203 . S
O490 C483 1.185 . S
O490 Zn486 2.086 . S
C491 O487 1.278 . S
C491 O492 1.211 . S
O492 C491 1.211 . S
C493 O485 1.284 . S
C493 O494 1.273 . S
O494 C493 1.273 . S
O495 Zn486 1.977 . S
O495 C488 1.267 . S
C496 O497 1.160 . S
C496 O503 1.185 . S
O497 C496 1.160 . S
O498 Zn499 1.899 . S
O498 C506 1.284 . S
Zn499 O498 1.899 . S
Zn499 O500 2.032 . S
Zn499 O503 2.086 . S
Zn499 O508 1.977 . S
O500 Zn499 2.032 . S
O500 C504 1.278 . S
C501 O502 1.203 . S
C501 O508 1.267 . S
O502 C501 1.203 . S
O503 C496 1.185 . S
O503 Zn499 2.086 . S
C504 O500 1.278 . S
C504 O505 1.211 . S
O505 C504 1.211 . S
C506 O498 1.284 . S
C506 O507 1.273 . S
O507 C506 1.273 . S
O508 Zn499 1.977 . S
O508 C501 1.267 . S
C509 O510 1.160 . S
C509 O516 1.185 . S
O510 C509 1.160 . S
O511 Zn512 1.899 . S
O511 C519 1.284 . S
Zn512 O511 1.899 . S
Zn512 O513 2.032 . S
Zn512 O516 2.086 . S
Zn512 O521 1.977 . S
O513 Zn512 2.032 . S
O513 C517 1.278 . S
C514 O515 1.203 . S
C514 O521 1.267 . S
O515 C514 1.203 . S
O516 C509 1.185 . S
O516 Zn512 2.086 . S
C517 O513 1.278 . S
C517 O518 1.211 . S
O518 C517 1.211 . S
C519 O511 1.284 . S
C519 O520 1.273 . S
O520 C519 1.273 . S
O521 Zn512 1.977 . S
O521 C514 1.267 . S
H522 C528 0.930 . S
H523 C531 0.930 . S
H524 C532 0.930 . S
H525 C533 0.930 . S
H526 C536 0.930 . S
H527 C537 0.930 . S
C528 H522 0.930 . S
C528 C529 1.355 . S
C528 C530 1.415 . S
C529 C528 1.355 . S
C529 C531 1.419 . S
C530 C528 1.415 . S
C530 C535 1.425 . S
C530 C537 1.409 . S
C531 H523 0.930 . S
C531 C529 1.419 . S
C531 C532 1.362 . S
C532 H524 0.930 . S
C532 C531 1.362 . S
C532 C535 1.409 . S
C533 H525 0.930 . S
C533 C534 1.355 . S
C533 C535 1.415 . S
C534 C533 1.355 . S
C534 C536 1.419 . S
C535 C530 1.425 . S
C535 C532 1.409 . S
C535 C533 1.415 . S
C536 H526 0.930 . S
C536 C534 1.419 . S
C536 C537 1.362 . S
C537 H527 0.930 . S
C537 C530 1.409 . S
C537 C536 1.362 . S
H538 C544 0.930 . S
H539 C547 0.930 . S
H540 C548 0.930 . S
H541 C549 0.930 . S
H542 C552 0.930 . S
H543 C553 0.930 . S
C544 H538 0.930 . S
C544 C545 1.355 . S
C544 C546 1.415 . S
C545 C544 1.355 . S
C545 C547 1.419 . S
C546 C544 1.415 . S
C546 C551 1.425 . S
C546 C553 1.409 . S
C547 H539 0.930 . S
C547 C545 1.419 . S
C547 C548 1.362 . S
C548 H540 0.930 . S
C548 C547 1.362 . S
C548 C551 1.409 . S
C549 H541 0.930 . S
C549 C550 1.355 . S
C549 C551 1.415 . S
C550 C549 1.355 . S
C550 C552 1.419 . S
C551 C546 1.425 . S
C551 C548 1.409 . S
C551 C549 1.415 . S
C552 H542 0.930 . S
C552 C550 1.419 . S
C552 C553 1.362 . S
C553 H543 0.930 . S
C553 C546 1.409 . S
C553 C552 1.362 . S
H554 C560 0.930 . S
H555 C563 0.930 . S
H556 C564 0.930 . S
H557 C565 0.930 . S
H558 C568 0.930 . S
H559 C569 0.930 . S
C560 H554 0.930 . S
C560 C561 1.355 . S
C560 C562 1.415 . S
C561 C560 1.355 . S
C561 C563 1.419 . S
C562 C560 1.415 . S
C562 C567 1.425 . S
C562 C569 1.409 . S
C563 H555 0.930 . S
C563 C561 1.419 . S
C563 C564 1.362 . S
C564 H556 0.930 . S
C564 C563 1.362 . S
C564 C567 1.409 . S
C565 H557 0.930 . S
C565 C566 1.355 . S
C565 C567 1.415 . S
C566 C565 1.355 . S
C566 C568 1.419 . S
C567 C562 1.425 . S
C567 C564 1.409 . S
C567 C565 1.415 . S
C568 H558 0.930 . S
C568 C566 1.419 . S
C568 C569 1.362 . S
C569 H559 0.930 . S
C569 C562 1.409 . S
C569 C568 1.362 . S
H570 C576 0.930 . S
H571 C579 0.930 . S
H572 C580 0.930 . S
H573 C581 0.930 . S
H574 C584 0.930 . S
H575 C585 0.930 . S
C576 H570 0.930 . S
C576 C577 1.355 . S
C576 C578 1.415 . S
C577 C576 1.355 . S
C577 C579 1.419 . S
C578 C576 1.415 . S
C578 C583 1.425 . S
C578 C585 1.409 . S
C579 H571 0.930 . S
C579 C577 1.419 . S
C579 C580 1.362 . S
C580 H572 0.930 . S
C580 C579 1.362 . S
C580 C583 1.409 . S
C581 H573 0.930 . S
C581 C582 1.355 . S
C581 C583 1.415 . S
C582 C581 1.355 . S
C582 C584 1.419 . S
C583 C578 1.425 . S
C583 C580 1.409 . S
C583 C581 1.415 . S
C584 H574 0.930 . S
C584 C582 1.419 . S
C584 C585 1.362 . S
C585 H575 0.930 . S
C585 C578 1.409 . S
C585 C584 1.362 . S
H586 C592 0.930 . S
H587 C595 0.930 . S
H588 C596 0.930 . S
H589 C597 0.930 . S
H590 C600 0.930 . S
H591 C601 0.930 . S
C592 H586 0.930 . S
C592 C593 1.355 . S
C592 C594 1.415 . S
C593 C592 1.355 . S
C593 C595 1.419 . S
C594 C592 1.415 . S
C594 C599 1.425 . S
C594 C601 1.409 . S
C595 H587 0.930 . S
C595 C593 1.419 . S
C595 C596 1.362 . S
C596 H588 0.930 . S
C596 C595 1.362 . S
C596 C599 1.409 . S
C597 H589 0.930 . S
C597 C598 1.355 . S
C597 C599 1.415 . S
C598 C597 1.355 . S
C598 C600 1.419 . S
C599 C594 1.425 . S
C599 C596 1.409 . S
C599 C597 1.415 . S
C600 H590 0.930 . S
C600 C598 1.419 . S
C600 C601 1.362 . S
C601 H591 0.930 . S
C601 C594 1.409 . S
C601 C600 1.362 . S
H602 C608 0.930 . S
H603 C611 0.930 . S
H604 C612 0.930 . S
H605 C613 0.930 . S
H606 C616 0.930 . S
H607 C617 0.930 . S
C608 H602 0.930 . S
C608 C609 1.355 . S
C608 C610 1.415 . S
C609 C608 1.355 . S
C609 C611 1.419 . S
C610 C608 1.415 . S
C610 C615 1.425 . S
C610 C617 1.409 . S
C611 H603 0.930 . S
C611 C609 1.419 . S
C611 C612 1.362 . S
C612 H604 0.930 . S
C612 C611 1.362 . S
C612 C615 1.409 . S
C613 H605 0.930 . S
C613 C614 1.355 . S
C613 C615 1.415 . S
C614 C613 1.355 . S
C614 C616 1.419 . S
C615 C610 1.425 . S
C615 C612 1.409 . S
C615 C613 1.415 . S
C616 H606 0.930 . S
C616 C614 1.419 . S
C616 C617 1.362 . S
C617 H607 0.930 . S
C617 C610 1.409 . S
C617 C616 1.362 . S
H618 C624 0.930 . S
H619 C627 0.930 . S
H620 C628 0.930 . S
H621 C629 0.930 . S
H622 C632 0.930 . S
H623 C633 0.930 . S
C624 H618 0.930 . S
C624 C625 1.355 . S
C624 C626 1.415 . S
C625 C624 1.355 . S
C625 C627 1.419 . S
C626 C624 1.415 . S
C626 C631 1.425 . S
C626 C633 1.409 . S
C627 H619 0.930 . S
C627 C625 1.419 . S
C627 C628 1.362 . S
C628 H620 0.930 . S
C628 C627 1.362 . S
C628 C631 1.409 . S
C629 H621 0.930 . S
C629 C630 1.355 . S
C629 C631 1.415 . S
C630 C629 1.355 . S
C630 C632 1.419 . S
C631 C626 1.425 . S
C631 C628 1.409 . S
C631 C629 1.415 . S
C632 H622 0.930 . S
C632 C630 1.419 . S
C632 C633 1.362 . S
C633 H623 0.930 . S
C633 C626 1.409 . S
C633 C632 1.362 . S
H634 C640 0.930 . S
H635 C643 0.930 . S
H636 C644 0.930 . S
H637 C645 0.930 . S
H638 C648 0.930 . S
H639 C649 0.930 . S
C640 H634 0.930 . S
C640 C641 1.355 . S
C640 C642 1.415 . S
C641 C640 1.355 . S
C641 C643 1.419 . S
C642 C640 1.415 . S
C642 C647 1.425 . S
C642 C649 1.409 . S
C643 H635 0.930 . S
C643 C641 1.419 . S
C643 C644 1.362 . S
C644 H636 0.930 . S
C644 C643 1.362 . S
C644 C647 1.409 . S
C645 H637 0.930 . S
C645 C646 1.355 . S
C645 C647 1.415 . S
C646 C645 1.355 . S
C646 C648 1.419 . S
C647 C642 1.425 . S
C647 C644 1.409 . S
C647 C645 1.415 . S
C648 H638 0.930 . S
C648 C646 1.419 . S
C648 C649 1.362 . S
C649 H639 0.930 . S
C649 C642 1.409 . S
C649 C648 1.362 . S
H650 C656 0.930 . S
H651 C659 0.930 . S
H652 C660 0.930 . S
H653 C661 0.930 . S
H654 C664 0.930 . S
H655 C665 0.930 . S
C656 H650 0.930 . S
C656 C657 1.355 . S
C656 C658 1.415 . S
C657 C656 1.355 . S
C657 C659 1.419 . S
C658 C656 1.415 . S
C658 C663 1.425 . S
C658 C665 1.409 . S
C659 H651 0.930 . S
C659 C657 1.419 . S
C659 C660 1.362 . S
C660 H652 0.930 . S
C660 C659 1.362 . S
C660 C663 1.409 . S
C661 H653 0.930 . S
C661 C662 1.355 . S
C661 C663 1.415 . S
C662 C661 1.355 . S
C662 C664 1.419 . S
C663 C658 1.425 . S
C663 C660 1.409 . S
C663 C661 1.415 . S
C664 H654 0.930 . S
C664 C662 1.419 . S
C664 C665 1.362 . S
C665 H655 0.930 . S
C665 C658 1.409 . S
C665 C664 1.362 . S
H666 C672 0.930 . S
H667 C675 0.930 . S
H668 C676 0.930 . S
H669 C677 0.930 . S
H670 C680 0.930 . S
H671 C681 0.930 . S
C672 H666 0.930 . S
C672 C673 1.355 . S
C672 C674 1.415 . S
C673 C672 1.355 . S
C673 C675 1.419 . S
C674 C672 1.415 . S
C674 C679 1.425 . S
C674 C681 1.409 . S
C675 H667 0.930 . S
C675 C673 1.419 . S
C675 C676 1.362 . S
C676 H668 0.930 . S
C676 C675 1.362 . S
C676 C679 1.409 . S
C677 H669 0.930 . S
C677 C678 1.355 . S
C677 C679 1.415 . S
C678 C677 1.355 . S
C678 C680 1.419 . S
C679 C674 1.425 . S
C679 C676 1.409 . S
C679 C677 1.415 . S
C680 H670 0.930 . S
C680 C678 1.419 . S
C680 C681 1.362 . S
C681 H671 0.930 . S
C681 C674 1.409 . S
C681 C680 1.362 . S
H682 C688 0.930 . S
H683 C691 0.930 . S
H684 C692 0.930 . S
H685 C693 0.930 . S
H686 C696 0.930 . S
H687 C697 0.930 . S
C688 H682 0.930 . S
C688 C689 1.355 . S
C688 C690 1.415 . S
C689 C688 1.355 . S
C689 C691 1.419 . S
C690 C688 1.415 . S
C690 C695 1.425 . S
C690 C697 1.409 . S
C691 H683 0.930 . S
C691 C689 1.419 . S
C691 C692 1.362 . S
C692 H684 0.930 . S
C692 C691 1.362 . S
C692 C695 1.409 . S
C693 H685 0.930 . S
C693 C694 1.355 . S
C693 C695 1.415 . S
C694 C693 1.355 . S
C694 C696 1.419 . S
C695 C690 1.425 . S
C695 C692 1.409 . S
C695 C693 1.415 . S
C696 H686 0.930 . S
C696 C694 1.419 . S
C696 C697 1.362 . S
C697 H687 0.930 . S
C697 C690 1.409 . S
C697 C696 1.362 . S
H698 C704 0.930 . S
H699 C707 0.930 . S
H700 C708 0.930 . S
H701 C709 0.930 . S
H702 C712 0.930 . S
H703 C713 0.930 . S
C704 H698 0.930 . S
C704 C705 1.355 . S
C704 C706 1.415 . S
C705 C704 1.355 . S
C705 C707 1.419 . S
C706 C704 1.415 . S
C706 C711 1.425 . S
C706 C713 1.409 . S
C707 H699 0.930 . S
C707 C705 1.419 . S
C707 C708 1.362 . S
C708 H700 0.930 . S
C708 C707 1.362 . S
C708 C711 1.409 . S
C709 H701 0.930 . S
C709 C710 1.355 . S
C709 C711 1.415 . S
C710 C709 1.355 . S
C710 C712 1.419 . S
C711 C706 1.425 . S
C711 C708 1.409 . S
C711 C709 1.415 . S
C712 H702 0.930 . S
C712 C710 1.419 . S
C712 C713 1.362 . S
C713 H703 0.930 . S
C713 C706 1.409 . S
C713 C712 1.362 . S
H714 C720 0.930 . S
H715 C723 0.930 . S
H716 C724 0.930 . S
H717 C725 0.930 . S
H718 C728 0.930 . S
H719 C729 0.930 . S
C720 H714 0.930 . S
C720 C721 1.355 . S
C720 C722 1.415 . S
C721 C720 1.355 . S
C721 C723 1.419 . S
C722 C720 1.415 . S
C722 C727 1.425 . S
C722 C729 1.409 . S
C723 H715 0.930 . S
C723 C721 1.419 . S
C723 C724 1.362 . S
C724 H716 0.930 . S
C724 C723 1.362 . S
C724 C727 1.409 . S
C725 H717 0.930 . S
C725 C726 1.355 . S
C725 C727 1.415 . S
C726 C725 1.355 . S
C726 C728 1.419 . S
C727 C722 1.425 . S
C727 C724 1.409 . S
C727 C725 1.415 . S
C728 H718 0.930 . S
C728 C726 1.419 . S
C728 C729 1.362 . S
C729 H719 0.930 . S
C729 C722 1.409 . S
C729 C728 1.362 . S
H730 C736 0.930 . S
H731 C739 0.930 . S
H732 C740 0.930 . S
H733 C741 0.930 . S
H734 C744 0.930 . S
H735 C745 0.930 . S
C736 H730 0.930 . S
C736 C737 1.355 . S
C736 C738 1.415 . S
C737 C736 1.355 . S
C737 C739 1.419 . S
C738 C736 1.415 . S
C738 C743 1.425 . S
C738 C745 1.409 . S
C739 H731 0.930 . S
C739 C737 1.419 . S
C739 C740 1.362 . S
C740 H732 0.930 . S
C740 C739 1.362 . S
C740 C743 1.409 . S
C741 H733 0.930 . S
C741 C742 1.355 . S
C741 C743 1.415 . S
C742 C741 1.355 . S
C742 C744 1.419 . S
C743 C738 1.425 . S
C743 C740 1.409 . S
C743 C741 1.415 . S
C744 H734 0.930 . S
C744 C742 1.419 . S
C744 C745 1.362 . S
C745 H735 0.930 . S
C745 C738 1.409 . S
C745 C744 1.362 . S
H746 C752 0.930 . S
H747 C755 0.930 . S
H748 C756 0.930 . S
H749 C757 0.930 . S
H750 C760 0.930 . S
H751 C761 0.930 . S
C752 H746 0.930 . S
C752 C753 1.355 . S
C752 C754 1.415 . S
C753 C752 1.355 . S
C753 C755 1.419 . S
C754 C752 1.415 . S
C754 C759 1.425 . S
C754 C761 1.409 . S
C755 H747 0.930 . S
C755 C753 1.419 . S
C755 C756 1.362 . S
C756 H748 0.930 . S
C756 C755 1.362 . S
C756 C759 1.409 . S
C757 H749 0.930 . S
C757 C758 1.355 . S
C757 C759 1.415 . S
C758 C757 1.355 . S
C758 C760 1.419 . S
C759 C754 1.425 . S
C759 C756 1.409 . S
C759 C757 1.415 . S
C760 H750 0.930 . S
C760 C758 1.419 . S
C760 C761 1.362 . S
C761 H751 0.930 . S
C761 C754 1.409 . S
C761 C760 1.362 . S
H762 C768 0.930 . S
H763 C771 0.930 . S
H764 C772 0.930 . S
H765 C773 0.930 . S
H766 C776 0.930 . S
H767 C777 0.930 . S
C768 H762 0.930 . S
C768 C769 1.355 . S
C768 C770 1.415 . S
C769 C768 1.355 . S
C769 C771 1.419 . S
C770 C768 1.415 . S
C770 C775 1.425 . S
C770 C777 1.409 . S
C771 H763 0.930 . S
C771 C769 1.419 . S
C771 C772 1.362 . S
C772 H764 0.930 . S
C772 C771 1.362 . S
C772 C775 1.409 . S
C773 H765 0.930 . S
C773 C774 1.355 . S
C773 C775 1.415 . S
C774 C773 1.355 . S
C774 C776 1.419 . S
C775 C770 1.425 . S
C775 C772 1.409 . S
C775 C773 1.415 . S
C776 H766 0.930 . S
C776 C774 1.419 . S
C776 C777 1.362 . S
C777 H767 0.930 . S
C777 C770 1.409 . S
C777 C776 1.362 . S
H778 C784 0.930 . S
H779 C787 0.930 1_545 S
H780 C788 0.930 . S
H781 C789 0.930 . S
H782 C792 0.930 . S
H783 C793 0.930 . S
C784 H778 0.930 . S
C784 C785 1.355 . S
C784 C786 1.415 . S
C785 C784 1.355 . S
C785 C787 1.419 . S
C786 C784 1.415 . S
C786 C791 1.425 . S
C786 C793 1.409 . S
C787 H779 0.930 1_565 S
C787 C785 1.419 . S
C787 C788 1.362 . S
C788 H780 0.930 . S
C788 C787 1.362 . S
C788 C791 1.409 . S
C789 H781 0.930 . S
C789 C790 1.355 . S
C789 C791 1.415 . S
C790 C789 1.355 . S
C790 C792 1.419 . S
C791 C786 1.425 . S
C791 C788 1.409 . S
C791 C789 1.415 . S
C792 H782 0.930 . S
C792 C790 1.419 . S
C792 C793 1.362 . S
C793 H783 0.930 . S
C793 C786 1.409 . S
C793 C792 1.362 . S
H794 C800 0.930 . S
H795 C803 0.930 . S
H796 C804 0.930 . S
H797 C805 0.930 . S
H798 C808 0.930 . S
H799 C809 0.930 . S
C800 H794 0.930 . S
C800 C801 1.355 . S
C800 C802 1.415 . S
C801 C800 1.355 . S
C801 C803 1.419 . S
C802 C800 1.415 . S
C802 C807 1.425 . S
C802 C809 1.409 . S
C803 H795 0.930 . S
C803 C801 1.419 . S
C803 C804 1.362 . S
C804 H796 0.930 . S
C804 C803 1.362 . S
C804 C807 1.409 . S
C805 H797 0.930 . S
C805 C806 1.355 . S
C805 C807 1.415 . S
C806 C805 1.355 . S
C806 C808 1.419 . S
C807 C802 1.425 . S
C807 C804 1.409 . S
C807 C805 1.415 . S
C808 H798 0.930 . S
C808 C806 1.419 . S
C808 C809 1.362 . S
C809 H799 0.930 . S
C809 C802 1.409 . S
C809 C808 1.362 . S
H810 C816 0.930 . S
H811 C819 0.930 . S
H812 C820 0.930 . S
H813 C821 0.930 . S
H814 C824 0.930 . S
H815 C825 0.930 . S
C816 H810 0.930 . S
C816 C817 1.355 . S
C816 C818 1.415 . S
C817 C816 1.355 . S
C817 C819 1.419 . S
C818 C816 1.415 . S
C818 C823 1.425 . S
C818 C825 1.409 . S
C819 H811 0.930 . S
C819 C817 1.419 . S
C819 C820 1.362 . S
C820 H812 0.930 . S
C820 C819 1.362 . S
C820 C823 1.409 . S
C821 H813 0.930 . S
C821 C822 1.355 . S
C821 C823 1.415 . S
C822 C821 1.355 . S
C822 C824 1.419 . S
C823 C818 1.425 . S
C823 C820 1.409 . S
C823 C821 1.415 . S
C824 H814 0.930 . S
C824 C822 1.419 . S
C824 C825 1.362 . S
C825 H815 0.930 . S
C825 C818 1.409 . S
C825 C824 1.362 . S
H826 C832 0.930 . S
H827 C835 0.930 . S
H828 C836 0.930 . S
H829 C837 0.930 . S
H830 C840 0.930 . S
H831 C841 0.930 . S
C832 H826 0.930 . S
C832 C833 1.355 . S
C832 C834 1.415 . S
C833 C832 1.355 . S
C833 C835 1.419 . S
C834 C832 1.415 . S
C834 C839 1.425 . S
C834 C841 1.409 . S
C835 H827 0.930 . S
C835 C833 1.419 . S
C835 C836 1.362 . S
C836 H828 0.930 . S
C836 C835 1.362 . S
C836 C839 1.409 . S
C837 H829 0.930 . S
C837 C838 1.355 . S
C837 C839 1.415 . S
C838 C837 1.355 . S
C838 C840 1.419 . S
C839 C834 1.425 . S
C839 C836 1.409 . S
C839 C837 1.415 . S
C840 H830 0.930 . S
C840 C838 1.419 . S
C840 C841 1.362 . S
C841 H831 0.930 . S
C841 C834 1.409 . S
C841 C840 1.362 . S
H842 C848 0.930 . S
H843 C851 0.930 . S
H844 C852 0.930 . S
H845 C853 0.930 . S
H846 C856 0.930 . S
H847 C857 0.930 . S
C848 H842 0.930 . S
C848 C849 1.355 . S
C848 C850 1.415 . S
C849 C848 1.355 . S
C849 C851 1.419 . S
C850 C848 1.415 . S
C850 C855 1.425 . S
C850 C857 1.409 . S
C851 H843 0.930 . S
C851 C849 1.419 . S
C851 C852 1.362 . S
C852 H844 0.930 . S
C852 C851 1.362 . S
C852 C855 1.409 . S
C853 H845 0.930 . S
C853 C854 1.355 . S
C853 C855 1.415 . S
C854 C853 1.355 . S
C854 C856 1.419 . S
C855 C850 1.425 . S
C855 C852 1.409 . S
C855 C853 1.415 . S
C856 H846 0.930 . S
C856 C854 1.419 . S
C856 C857 1.362 . S
C857 H847 0.930 . S
C857 C850 1.409 . S
C857 C856 1.362 . S
H858 C864 0.930 . S
H859 C867 0.930 . S
H860 C868 0.930 . S
H861 C869 0.930 . S
H862 C872 0.930 . S
H863 C873 0.930 . S
C864 H858 0.930 . S
C864 C865 1.355 . S
C864 C866 1.415 . S
C865 C864 1.355 . S
C865 C867 1.419 . S
C866 C864 1.415 . S
C866 C871 1.425 . S
C866 C873 1.409 . S
C867 H859 0.930 . S
C867 C865 1.419 . S
C867 C868 1.362 . S
C868 H860 0.930 . S
C868 C867 1.362 . S
C868 C871 1.409 . S
C869 H861 0.930 . S
C869 C870 1.355 . S
C869 C871 1.415 . S
C870 C869 1.355 . S
C870 C872 1.419 . S
C871 C866 1.425 . S
C871 C868 1.409 . S
C871 C869 1.415 . S
C872 H862 0.930 . S
C872 C870 1.419 . S
C872 C873 1.362 . S
C873 H863 0.930 . S
C873 C866 1.409 . S
C873 C872 1.362 . S
H874 C880 0.930 . S
H875 C883 0.930 . S
H876 C884 0.930 . S
H877 C885 0.930 . S
H878 C888 0.930 . S
H879 C889 0.930 . S
C880 H874 0.930 . S
C880 C881 1.355 . S
C880 C882 1.414 . S
C881 C880 1.355 . S
C881 C883 1.419 . S
C882 C880 1.414 . S
C882 C887 1.426 1_554 S
C882 C889 1.410 1_554 S
C883 H875 0.930 . S
C883 C881 1.419 . S
C883 C884 1.362 . S
C884 H876 0.930 . S
C884 C883 1.362 . S
C884 C887 1.409 1_554 S
C885 H877 0.930 . S
C885 C886 1.355 . S
C885 C887 1.415 . S
C886 C885 1.355 . S
C886 C888 1.419 . S
C887 C882 1.426 1_556 S
C887 C884 1.409 1_556 S
C887 C885 1.415 . S
C888 H878 0.930 . S
C888 C886 1.419 . S
C888 C889 1.362 . S
C889 H879 0.930 . S
C889 C882 1.410 1_556 S
C889 C888 1.362 . S
H890 C896 0.930 . S
H891 C899 0.930 . S
H892 C900 0.930 . S
H893 C901 0.930 . S
H894 C904 0.930 . S
H895 C905 0.930 . S
C896 H890 0.930 . S
C896 C897 1.355 . S
C896 C898 1.415 . S
C897 C896 1.355 . S
C897 C899 1.419 . S
C898 C896 1.415 . S
C898 C903 1.425 . S
C898 C905 1.409 . S
C899 H891 0.930 . S
C899 C897 1.419 . S
C899 C900 1.362 . S
C900 H892 0.930 . S
C900 C899 1.362 . S
C900 C903 1.409 . S
C901 H893 0.930 . S
C901 C902 1.355 . S
C901 C903 1.415 . S
C902 C901 1.355 . S
C902 C904 1.419 . S
C903 C898 1.425 . S
C903 C900 1.409 . S
C903 C901 1.415 . S
C904 H894 0.930 . S
C904 C902 1.419 . S
C904 C905 1.362 . S
C905 H895 0.930 . S
C905 C898 1.409 . S
C905 C904 1.362 . S
C534 C519 1.344 . S
C529 C51 1.296 . S
C545 C125 1.464 . S
C550 C444 1.341 . S
C561 C217 2.527 . S
C566 C467 2.578 . S
C577 C291 1.460 . S
C582 C480 1.455 . S
C598 C483 0.899 . S
C593 C347 0.931 . S
C609 C421 0.893 . S
C614 C496 0.891 . S
C625 C143 2.193 . S
C630 C457 2.087 . S
C641 C199 1.546 . S
C646 C470 1.481 . S
C657 C273 0.560 . S
C662 C493 0.559 . S
C678 C506 1.696 . S
C673 C365 1.669 . S
C694 C509 1.784 . S
C689 C439 1.897 . S
C710 C454 2.422 . S
C705 C69 2.397 . S
C721 C63 1.392 . S
C726 C465 1.482 . S
C737 C137 1.455 . S
C742 C478 1.535 . S
C758 C488 1.327 . S
C753 C187 1.350 . S
C769 C261 1.414 . S
C774 C501 1.423 1_556 S
C790 C517 1.604 . S
C785 C359 1.513 . S
C806 C449 1.135 . S
C801 C433 1.108 . S
C822 C514 1.538 . S
C817 C113 1.645 . S
C833 C211 1.342 . S
C838 C452 1.426 . S
C854 C462 1.548 . S
C849 C285 1.565 . S
C865 C335 1.384 . S
C870 C475 1.459 . S
C881 C409 1.273 . S
C886 C491 1.321 . S
C897 C39 1.590 . S
C902 C504 1.656 . S
