# Generated by pormake.
# Topology ftw, (4,12)-cn, num edge types: 1
# Building blocks:
#     Node 0, Type 0, BuildingBlock: MIFKUJ_clean_linker_1, # of connection points: 4
#     Node 1, Type 0, BuildingBlock: MIFKUJ_clean_linker_1, # of connection points: 4
#     Node 2, Type 0, BuildingBlock: MIFKUJ_clean_linker_1, # of connection points: 4
#     Node 3, Type 1, BuildingBlock: QEWDON_clean_sbu_0, # of connection points: 12
#     Edge 4, Type (0, 1), BuildingBlock: MIFKUJ_clean_linker_0, # of connection points: 2
#     Edge 5, Type (0, 1), BuildingBlock: MIFKUJ_clean_linker_0, # of connection points: 2
#     Edge 6, Type (0, 1), BuildingBlock: MIFKUJ_clean_linker_0, # of connection points: 2
#     Edge 7, Type (0, 1), BuildingBlock: MIFKUJ_clean_linker_0, # of connection points: 2
#     Edge 8, Type (0, 1), BuildingBlock: MIFKUJ_clean_linker_0, # of connection points: 2
#     Edge 9, Type (0, 1), BuildingBlock: MIFKUJ_clean_linker_0, # of connection points: 2
#     Edge 10, Type (0, 1), BuildingBlock: MIFKUJ_clean_linker_0, # of connection points: 2
#     Edge 11, Type (0, 1), BuildingBlock: MIFKUJ_clean_linker_0, # of connection points: 2
#     Edge 12, Type (0, 1), BuildingBlock: MIFKUJ_clean_linker_0, # of connection points: 2
#     Edge 13, Type (0, 1), BuildingBlock: MIFKUJ_clean_linker_0, # of connection points: 2
#     Edge 14, Type (0, 1), BuildingBlock: MIFKUJ_clean_linker_0, # of connection points: 2
#     Edge 15, Type (0, 1), BuildingBlock: MIFKUJ_clean_linker_0, # of connection points: 2
# Relax obj value: 0.069
# Max RMSD: 0.197
# Mean RMSD: 0.143
data_MOF--net-ftw--node1-QEWDON_clean_sbu_0--node2-MIFKUJ_clean_linker_1--edge1-MIFKUJ_clean_linker_0
_symmetry_space_group_name_H-M    P1
_symmetry_Int_Tables_number       1
_symmetry_cell_setting            triclinic
loop_
_symmetry_equiv_pos_as_xyz
'x, y, z'
_cell_length_a     32.75712
_cell_length_b     36.61669
_cell_length_c     35.604492
_cell_angle_alpha  89.739475
_cell_angle_beta   89.967864
_cell_angle_gamma 90.450941
loop_
_atom_site_label
_atom_site_type_symbol
_atom_site_fract_x
_atom_site_fract_y
_atom_site_fract_z
_atom_type_partial_charge
H0 H 0.05408 0.56403 0.58846 0.0
H1 H 0.05173 0.61682 0.63074 0.0
H2 H 0.92409 0.63073 0.60519 0.0
H3 H 0.92686 0.5786 0.5619 0.0
H4 H 0.00085 0.50064 0.5993 0.0
H5 H 0.033 0.59444 0.50827 0.0
H6 H 0.03019 0.64533 0.46345 0.0
H7 H 0.92426 0.59649 0.4114 0.0
H8 H 0.92624 0.54639 0.45681 0.0
H9 H 0.92673 0.43909 0.4667 0.0
H10 H 0.92865 0.38619 0.42503 0.0
H11 H 0.04988 0.36109 0.46456 0.0
H12 H 0.04778 0.41422 0.50628 0.0
H13 H 0.97848 0.49741 0.46181 0.0
H14 H 0.93638 0.41177 0.55763 0.0
H15 H 0.93686 0.35881 0.60031 0.0
H16 H 0.05643 0.39031 0.63958 0.0
H17 H 0.05561 0.44379 0.59756 0.0
C18 C -0.00924 0.56758 0.57169 0.0
C19 C 0.02579 0.5789 0.59137 0.0
C20 C 0.02444 0.60902 0.61549 0.0
C21 C 0.98772 0.62781 0.62124 0.0
C22 C 0.95276 0.6167 0.60127 0.0
C23 C 0.95438 0.58709 0.57641 0.0
C24 C -0.00878 0.53322 0.54946 0.0
C25 C -0.00354 0.5 0.56911 0.0
C26 C 0.98411 0.5325 0.51012 0.0
C27 C 0.9797 0.56628 0.4864 0.0
C28 C 0.00834 0.59513 0.48807 0.0
C29 C 0.0069 0.62421 0.46214 0.0
C30 C 0.97725 0.62485 0.43351 0.0
C31 C 0.94789 0.59664 0.43268 0.0
C32 C 0.94897 0.56794 0.45882 0.0
C33 C 0.987 0.43059 0.48981 0.0
C34 C 0.95351 0.42192 0.4668 0.0
C35 C 0.9546 0.39157 0.44307 0.0
C36 C -0.01053 0.36946 0.44139 0.0
C37 C 0.0227 0.37774 0.465 0.0
C38 C 0.02139 0.4079 0.48911 0.0
C39 C 0.98736 0.46516 0.5117 0.0
C40 C 0.98253 0.49831 0.49203 0.0
C41 C -0.00591 0.46591 0.55095 0.0
C42 C -0.00394 0.43182 0.57415 0.0
C43 C 0.96297 0.40709 0.57502 0.0
C44 C 0.96316 0.37691 0.59948 0.0
C45 C -0.00325 0.37047 0.62308 0.0
C46 C 0.03033 0.39453 0.62144 0.0
C47 C 0.02981 0.42511 0.59753 0.0
H48 H 0.41338 0.05018 0.47777 0.0
H49 H 0.36706 0.0489 0.42401 0.0
H50 H 0.42113 0.94801 0.38709 0.0
H51 H 0.46733 0.94928 0.44114 0.0
H52 H 0.41446 0.0029 0.53258 0.0
H53 H 0.50852 0.04312 0.43946 0.0
H54 H 0.55196 0.04518 0.384 0.0
H55 H 0.61792 0.95144 0.42559 0.0
H56 H 0.57205 0.94765 0.4791 0.0
H57 H 0.55678 0.93797 0.59353 0.0
H58 H 0.60392 0.93823 0.64659 0.0
H59 H 0.5688 0.04901 0.67213 0.0
H60 H 0.52032 0.04772 0.61989 0.0
H61 H 0.56466 0.98942 0.5339 0.0
H62 H 0.46737 0.95187 0.62865 0.0
H63 H 0.4191 0.95129 0.6815 0.0
H64 H 0.36043 0.04682 0.63635 0.0
H65 H 0.40964 0.04869 0.58465 0.0
C66 C 0.4439 -0.00015 0.46352 0.0
C67 C 0.41552 0.02793 0.45794 0.0
C68 C 0.38898 0.02712 0.42728 0.0
C69 C 0.39027 -0.00177 0.40149 0.0
C70 C 0.41969 0.97081 0.40631 0.0
C71 C 0.44613 0.97152 0.43717 0.0
C72 C 0.46848 -0.00118 0.49857 0.0
C73 C 0.44747 0.0007 0.53293 0.0
C74 C 0.51145 0.99467 0.49869 0.0
C75 C 0.53645 0.99494 0.46355 0.0
C76 C 0.53152 0.02231 0.43613 0.0
C77 C 0.55707 0.02387 0.40458 0.0
C78 C 0.58899 -0.00133 0.40004 0.0
C79 C 0.59346 0.97104 0.42739 0.0
C80 C 0.56742 0.96909 0.4585 0.0
C81 C 0.53499 0.99276 0.60287 0.0
C82 C 0.55878 0.96206 0.61102 0.0
C83 C 0.58606 0.96244 0.64117 0.0
C84 C 0.59083 0.99387 0.66346 0.0
C85 C 0.56581 0.02419 0.65593 0.0
C86 C 0.53806 0.02357 0.626 0.0
C87 C 0.51057 0.99388 0.56783 0.0
C88 C 0.53168 0.99187 0.53346 0.0
C89 C 0.46774 -0.00134 0.56766 0.0
C90 C 0.44254 0.0005 0.60256 0.0
C91 C 0.44511 0.97347 0.63069 0.0
C92 C 0.41731 0.9729 0.6607 0.0
C93 C 0.38609 -0.0011 0.66264 0.0
C94 C 0.38419 0.02642 0.63525 0.0
C95 C 0.41231 0.02742 0.60575 0.0
H96 H 0.54123 0.55543 0.96789 0.0
H97 H 0.58515 0.60979 0.96596 0.0
H98 H 0.55124 0.63483 0.08024 0.0
H99 H 0.50758 0.58049 0.08212 0.0
H100 H 0.5582 0.50024 0.01824 0.0
H101 H 0.43952 0.57134 0.98437 0.0
H102 H 0.39255 0.62287 0.98954 0.0
H103 H 0.37566 0.59931 0.10749 0.0
H104 H 0.4223 0.54726 0.1022 0.0
H105 H 0.42423 0.43397 0.10145 0.0
H106 H 0.38091 0.37923 0.10335 0.0
H107 H 0.42507 0.34819 0.99386 0.0
H108 H 0.46736 0.40341 0.99141 0.0
H109 H 0.41194 0.48682 0.05259 0.0
H110 H 0.53046 0.42117 0.09175 0.0
H111 H 0.57309 0.3664 0.09117 0.0
H112 H 0.59161 0.37984 0.97175 0.0
H113 H 0.5495 0.435 0.97251 0.0
C114 C 0.52145 0.56416 0.02513 0.0
C115 C 0.54257 0.57318 0.99213 0.0
C116 C 0.5675 0.60404 0.99108 0.0
C117 C 0.57159 0.62597 0.0231 0.0
C118 C 0.54815 0.61838 0.05517 0.0
C119 C 0.5233 0.58744 0.05625 0.0
C120 C 0.50179 0.52824 0.02881 0.0
C121 C 0.52603 0.49732 0.02505 0.0
C122 C 0.46067 0.52433 0.03947 0.0
C123 C 0.43396 0.55586 0.04292 0.0
C124 C 0.42577 0.5774 0.0113 0.0
C125 C 0.39908 0.60649 0.01422 0.0
C126 C 0.38083 0.61429 0.04883 0.0
C127 C 0.38966 0.5933 0.08066 0.0
C128 C 0.41595 0.56382 0.07762 0.0
C129 C 0.44881 0.42266 0.04629 0.0
C130 C 0.42524 0.41495 0.07826 0.0
C131 C 0.40079 0.38376 0.07941 0.0
C132 C 0.39995 0.35991 0.04872 0.0
C133 C 0.42583 0.36613 0.01798 0.0
C134 C 0.44992 0.39758 0.01661 0.0
C135 C 0.4683 0.45875 0.04204 0.0
C136 C 0.4441 0.4897 0.04569 0.0
C137 C 0.5097 0.46278 0.03226 0.0
C138 C 0.53699 0.43152 0.03211 0.0
C139 C 0.54407 0.41237 0.06559 0.0
C140 C 0.56827 0.38142 0.06528 0.0
C141 C 0.585 0.36935 0.03139 0.0
C142 C 0.57853 0.38892 0.99803 0.0
C143 C 0.55486 0.42023 0.99846 0.0
Zn144 Zn 0.03025 0.03744 1.00659 0.0
Zn145 Zn 0.04078 0.05915 0.09433 0.0
O146 O 0.01276 0.02391 0.06106 0.0
H147 H 0.00278 0.00144 0.07182 0.0
C148 C 0.97567 0.10161 0.9213 0.0
O149 O 0.98549 0.06723 0.91666 0.0
Zn150 Zn 0.94535 0.92965 0.08213 0.0
Zn151 Zn 0.95292 0.93436 0.99039 0.0
O152 O 0.95803 0.96361 0.03859 0.0
H153 H 0.94765 0.98819 0.0373 0.0
Zn154 Zn 0.94146 0.07553 0.99621 0.0
O155 O 0.96914 0.07925 0.04778 0.0
Zn156 Zn 0.92824 0.06476 0.08758 0.0
H157 H -0.00978 0.09716 0.05266 0.0
Zn158 Zn 0.04137 0.92843 0.98623 0.0
O159 O 0.01915 0.91764 0.0389 0.0
H160 H -0.00139 0.89877 0.04182 0.0
Zn161 Zn 0.06458 0.92701 0.07651 0.0
C162 C 9e-05 0.87254 0.9359 0.0
O163 O -0.00617 0.85476 0.96754 0.0
O164 O 0.05526 0.08899 1.00354 0.0
O165 O 0.07317 0.09492 0.06366 0.0
O166 O 0.91958 0.88761 0.99975 0.0
O167 O 0.90934 0.89134 0.06162 0.0
O168 O 0.87951 0.07728 1.00429 0.0
O169 O 0.87469 0.07913 0.06677 0.0
C170 C 0.08565 -0.00377 0.12046 0.0
O171 O 0.10302 0.92165 0.9888 0.0
O172 O 0.11623 0.91486 0.05006 0.0
O173 O 0.92887 0.96139 0.94392 0.0
C174 C 0.07417 0.1056 0.02961 0.0
O175 O 0.07227 0.00786 0.97421 0.0
C176 C 0.90597 0.98894 0.12329 0.0
O177 O 0.959 0.11123 0.95202 0.0
C178 C 0.90275 0.87657 0.02996 0.0
O179 O 0.01724 0.90389 0.93696 0.0
C180 C 0.97515 0.10149 0.14673 0.0
O181 O 0.07932 0.03008 0.12516 0.0
O182 O 0.06785 0.97957 0.09363 0.0
C183 C 0.85876 0.08146 0.03423 0.0
O184 O 0.91185 0.95498 0.11959 0.0
O185 O 0.92428 0.01078 0.1006 0.0
C186 C 0.01858 0.88886 0.13122 0.0
O187 O 0.94002 0.0938 0.13363 0.0
O188 O 0.00747 0.0889 0.13175 0.0
C189 C 0.12742 0.9149 0.01574 0.0
O190 O 0.05554 0.89418 0.12173 0.0
O191 O -0.00939 0.90453 0.11235 0.0
C192 C 0.89845 0.98224 0.94884 0.0
O193 O 0.8863 0.98889 0.98329 0.0
C194 C 0.06492 -0.00237 0.94072 0.0
O195 O 0.02724 -0.00121 0.92823 0.0
H196 H 0.93085 0.31797 0.42565 0.0
H197 H 0.93277 0.27038 0.37761 0.0
H198 H 0.05451 0.30448 0.34646 0.0
H199 H 0.05267 0.35233 0.39437 0.0
H200 H 0.00596 0.29584 0.28505 0.0
H201 H 0.04118 0.22625 0.39287 0.0
H202 H 0.03626 0.20081 0.45693 0.0
H203 H 0.92104 0.15085 0.42979 0.0
H204 H 0.92492 0.17651 0.36571 0.0
H205 H 0.04224 0.14106 0.16799 0.0
H206 H 0.04755 0.18517 0.21921 0.0
H207 H 0.92222 0.16346 0.24957 0.0
H208 H 0.91643 0.11952 0.19806 0.0
H209 H 0.97698 0.165 0.31138 0.0
H210 H 0.94226 0.23789 0.20315 0.0
H211 H 0.95118 0.26046 0.1383 0.0
H212 H 0.07022 0.30205 0.16625 0.0
H213 H 0.06222 0.27924 0.2312 0.0
C214 C 0.95809 0.31525 0.40866 0.0
C215 C -0.00838 0.33893 0.41388 0.0
C216 C 0.95926 0.28788 0.38136 0.0
C217 C -0.00612 0.28368 0.35851 0.0
C218 C 0.02751 0.30713 0.36379 0.0
C219 C 0.02652 0.33429 0.39137 0.0
C220 C -0.00578 0.2557 0.32827 0.0
C221 C 0.00024 0.26716 0.29093 0.0
C222 C 0.98619 0.21829 0.33574 0.0
C223 C 0.98309 0.20373 0.37461 0.0
C224 C 0.01451 0.21027 0.4007 0.0
C225 C 0.01198 0.1957 0.43699 0.0
C226 C 0.97829 0.17433 0.44747 0.0
C227 C 0.94706 0.16749 0.42167 0.0
C228 C 0.94941 0.18204 0.38536 0.0
C229 C 0.01584 0.14548 0.18569 0.0
C230 C 0.97885 0.12684 0.17891 0.0
C231 C 0.0189 0.17084 0.21482 0.0
C232 C 0.9852 0.17777 0.23799 0.0
C233 C 0.94855 0.15855 0.23193 0.0
C234 C 0.94526 0.13356 0.20243 0.0
C235 C 0.98806 0.2053 0.2684 0.0
C236 C 0.98274 0.19371 0.30567 0.0
C237 C -0.00293 0.24249 0.26089 0.0
C238 C 0.00181 0.25651 0.22194 0.0
C239 C 0.97048 0.25158 0.1954 0.0
C240 C 0.97534 0.26447 0.15863 0.0
C241 C 0.01129 0.2826 0.14813 0.0
C242 C 0.04241 0.28796 0.17441 0.0
C243 C 0.03771 0.27509 0.21122 0.0
H244 H 0.015 0.29255 0.11965 0.0
H245 H 0.97645 0.16299 0.47555 0.0
H246 H 0.61679 0.06143 0.36477 0.0
H247 H 0.66846 0.06705 0.31559 0.0
H248 H 0.6829 0.95027 0.31512 0.0
H249 H 0.62935 0.94386 0.36246 0.0
H250 H 0.75786 -0.00192 0.32701 0.0
H251 H 0.64405 0.97556 0.24507 0.0
H252 H 0.57519 0.98642 0.21969 0.0
H253 H 0.61058 0.09535 0.18764 0.0
H254 H 0.67958 0.08528 0.21339 0.0
H255 H 0.87842 0.94596 0.17946 0.0
H256 H 0.82495 0.95689 0.22401 0.0
H257 H 0.81223 0.06704 0.18247 0.0
H258 H 0.86586 0.05549 0.13523 0.0
H259 H 0.7374 0.03319 0.19356 0.0
H260 H 0.85698 0.04973 0.26959 0.0
H261 H 0.92529 0.03403 0.29353 0.0
H262 H 0.87852 0.93223 0.3365 0.0
H263 H 0.81005 0.9471 0.31246 0.0
C264 C 0.62994 0.03672 0.35364 0.0
C265 C 0.61869 0.00213 0.36811 0.0
C266 C 0.65981 0.04011 0.32564 0.0
C267 C 0.67958 0.00912 0.31188 0.0
C268 C 0.66812 0.97457 0.32558 0.0
C269 C 0.63767 0.97104 0.35298 0.0
C270 C 0.71394 0.01284 0.2849 0.0
C271 C 0.75346 0.00568 0.29781 0.0
C272 C 0.70816 0.02368 0.24711 0.0
C273 C 0.66677 0.02987 0.23167 0.0
C274 C 0.63701 0.00199 0.23304 0.0
C275 C 0.59799 0.00795 0.21848 0.0
C276 C 0.58845 0.04161 0.20221 0.0
C277 C 0.61798 0.06933 0.20035 0.0
C278 C 0.65706 0.0635 0.21491 0.0
C279 C 0.86474 0.9728 0.17945 0.0
C280 C 0.87667 -0.00016 0.15323 0.0
C281 C 0.83408 0.97905 0.20549 0.0
C282 C 0.81487 0.01297 0.20732 0.0
C283 C 0.82684 0.04062 0.18177 0.0
C284 C 0.8577 0.03415 0.15494 0.0
C285 C 0.78163 0.01793 0.23549 0.0
C286 C 0.74214 0.02656 0.22295 0.0
C287 C 0.78735 0.00815 0.27376 0.0
C288 C 0.82834 -0.00043 0.28917 0.0
C289 C 0.86127 0.02397 0.28409 0.0
C290 C 0.90004 0.0152 0.29766 0.0
C291 C 0.90624 0.98215 0.31651 0.0
C292 C 0.87366 0.95785 0.32195 0.0
C293 C 0.83484 0.96649 0.30845 0.0
H294 H 0.9363 0.97538 0.32692 0.0
H295 H 0.55823 0.04618 0.19094 0.0
H296 H 0.9871 0.69938 0.4407 0.0
H297 H -0.01056 0.74564 0.39045 0.0
H298 H 0.97233 0.66124 0.30779 0.0
H299 H 0.96984 0.61513 0.3577 0.0
H300 H 0.03402 0.70746 0.28815 0.0
H301 H 0.89619 0.71676 0.32846 0.0
H302 H 0.83935 0.72485 0.37292 0.0
H303 H 0.88268 0.83286 0.39854 0.0
H304 H 0.94033 0.82517 0.35472 0.0
H305 H -0.00644 0.81791 0.12744 0.0
H306 H 0.98295 0.77471 0.17971 0.0
H307 H 0.01047 0.86022 0.25882 0.0
H308 H 0.02216 0.9032 0.2064 0.0
H309 H 0.94241 0.81453 0.28092 0.0
H310 H 0.08151 0.80283 0.2424 0.0
H311 H 0.13836 0.79424 0.19766 0.0
H312 H 0.09034 0.68865 0.16862 0.0
H313 H 0.03294 0.69713 0.21265 0.0
C314 C 0.9838 0.69073 0.41181 0.0
C315 C 0.9781 0.65351 0.40331 0.0
C316 C 0.98488 0.71723 0.38309 0.0
C317 C 0.98082 0.70707 0.34517 0.0
C318 C 0.97542 0.6699 0.33671 0.0
C319 C 0.97376 0.64354 0.36536 0.0
C320 C 0.98349 0.73481 0.31414 0.0
C321 C 0.01354 0.73055 0.28639 0.0
C322 C 0.95739 0.7655 0.31201 0.0
C323 C 0.92296 0.77018 0.33866 0.0
C324 C 0.89393 0.74208 0.3439 0.0
C325 C 0.86149 0.74662 0.36893 0.0
C326 C 0.85749 0.77929 0.38866 0.0
C327 C 0.88589 0.80752 0.38332 0.0
C328 C 0.91847 0.80308 0.35839 0.0
C329 C -0.00304 0.82748 0.15602 0.0
C330 C 0.00856 0.86385 0.16293 0.0
C331 C -0.009 0.8028 0.18589 0.0
C332 C -0.00389 0.81404 0.22336 0.0
C333 C 0.00633 0.8508 0.23028 0.0
C334 C 0.01301 0.87534 0.20034 0.0
C335 C -0.00714 0.78699 0.255 0.0
C336 C 0.96277 0.79138 0.2828 0.0
C337 C 0.01869 0.75617 0.25714 0.0
C338 C 0.05273 0.75096 0.23029 0.0
C339 C 0.08292 0.7781 0.226 0.0
C340 C 0.11523 0.77318 0.20091 0.0
C341 C 0.11786 0.74098 0.18018 0.0
C342 C 0.08819 0.71364 0.18459 0.0
C343 C 0.05576 0.71851 0.2096 0.0
H344 H 0.14295 0.73715 0.16084 0.0
H345 H 0.83232 0.78278 0.40798 0.0
H346 H 0.40273 0.98096 0.32756 0.0
H347 H 0.35109 0.97427 0.27818 0.0
H348 H 0.25688 0.00283 0.35723 0.0
H349 H 0.30818 0.0092 0.40669 0.0
H350 H 0.2359 0.94283 0.31694 0.0
H351 H 0.28429 0.06312 0.2935 0.0
H352 H 0.33422 0.11262 0.28199 0.0
H353 H 0.37248 0.06053 0.1802 0.0
H354 H 0.32312 0.01037 0.1914 0.0
H355 H 0.07492 0.99293 0.19488 0.0
H356 H 0.1286 0.98508 0.24146 0.0
H357 H 0.21275 0.95476 0.15386 0.0
H358 H 0.15856 0.96327 0.10679 0.0
H359 H 0.24116 0.01172 0.1967 0.0
H360 H 0.18135 0.89409 0.22072 0.0
H361 H 0.12274 0.85355 0.23236 0.0
H362 H 0.09904 0.90771 0.33678 0.0
H363 H 0.15674 0.9499 0.32487 0.0
C364 C 0.371 0.9858 0.33435 0.0
C365 C 0.35952 -0.00435 0.37096 0.0
C366 C 0.34159 0.98217 0.30611 0.0
C367 C 0.30017 0.98812 0.31404 0.0
C368 C 0.28866 -0.00193 0.35053 0.0
C369 C 0.31805 0.00199 0.37866 0.0
C370 C 0.2687 0.98328 0.28449 0.0
C371 C 0.23692 0.95802 0.29072 0.0
C372 C 0.27023 0.0029 0.25019 0.0
C373 C 0.30043 0.03268 0.24358 0.0
C374 C 0.3037 0.06196 0.2689 0.0
C375 C 0.33181 0.09021 0.26237 0.0
C376 C 0.35663 0.08965 0.23046 0.0
C377 C 0.35331 0.06087 0.20497 0.0
C378 C 0.32527 0.03252 0.21138 0.0
C379 C 0.10439 0.98298 0.1858 0.0
C380 C 0.11262 0.97815 0.14748 0.0
C381 C 0.13515 0.97873 0.2124 0.0
C382 C 0.17477 0.96936 0.20119 0.0
C383 C 0.18237 0.962 0.16308 0.0
C384 C 0.15134 0.96622 0.13632 0.0
C385 C 0.2086 0.97094 0.22892 0.0
C386 C 0.24065 -0.00409 0.22255 0.0
C387 C 0.20673 0.95173 0.26349 0.0
C388 C 0.17335 0.92525 0.2718 0.0
C389 C 0.16361 0.89747 0.24613 0.0
C390 C 0.13044 0.87418 0.25278 0.0
C391 C 0.10721 0.87778 0.28546 0.0
C392 C 0.1171 0.90486 0.31151 0.0
C393 C 0.15002 0.92855 0.30478 0.0
H394 H 0.08156 0.85962 0.29058 0.0
H395 H 0.37833 0.11157 0.22543 0.0
H396 H 0.03271 0.69105 0.62364 0.0
H397 H 0.03048 0.73915 0.67124 0.0
H398 H 0.93759 0.67843 0.73149 0.0
H399 H 0.93801 0.63173 0.68247 0.0
H400 H 0.91956 0.74486 0.7371 0.0
H401 H 0.04881 0.68237 0.75462 0.0
H402 H 0.11665 0.66032 0.73538 0.0
H403 H 0.15428 0.77014 0.70928 0.0
H404 H 0.08653 0.79277 0.72799 0.0
H405 H 0.95231 0.81219 0.92293 0.0
H406 H 0.94523 0.77781 0.86448 0.0
H407 H 0.02276 0.85615 0.80772 0.0
H408 H 0.02976 0.89086 0.86609 0.0
H409 H 0.04833 0.78704 0.7964 0.0
H410 H 0.92276 0.85034 0.78511 0.0
H411 H 0.8552 0.87361 0.80345 0.0
H412 H 0.81081 0.76379 0.81783 0.0
H413 H 0.87825 0.73984 0.80001 0.0
C414 C 0.01167 0.68823 0.64697 0.0
C415 C 0.98559 0.65766 0.64943 0.0
C416 C 0.01061 0.71558 0.67445 0.0
C417 C 0.98459 0.71229 0.70585 0.0
C418 C 0.95805 0.6819 0.70781 0.0
C419 C 0.95832 0.65509 0.67981 0.0
C420 C 0.9851 0.73999 0.73688 0.0
C421 C 0.94778 0.75362 0.75033 0.0
C422 C 0.02184 0.75287 0.75357 0.0
C423 C 0.0625 0.73919 0.74234 0.0
C424 C 0.07149 0.70176 0.74456 0.0
C425 C 0.10993 0.68917 0.73378 0.0
C426 C 0.13972 0.7138 0.72102 0.0
C427 C 0.13117 0.75109 0.71911 0.0
C428 C 0.09278 0.76381 0.72981 0.0
C429 C 0.9674 0.82244 0.89789 0.0
C430 C -0.00822 0.85424 0.89934 0.0
C431 C 0.96314 0.80281 0.86437 0.0
C432 C 0.98338 0.81433 0.83151 0.0
C433 C 0.0068 0.84666 0.83262 0.0
C434 C 0.01066 0.86658 0.86604 0.0
C435 C 0.98284 0.79101 0.79711 0.0
C436 C 0.02015 0.7783 0.78305 0.0
C437 C 0.94613 0.77899 0.77997 0.0
C438 C 0.90576 0.79329 0.79157 0.0
C439 C 0.89875 0.83114 0.7926 0.0
C440 C 0.86042 0.84446 0.80278 0.0
C441 C 0.82877 0.8202 0.81188 0.0
C442 C 0.83537 0.78256 0.81081 0.0
C443 C 0.87364 0.7691 0.80063 0.0
H444 H 0.7991 0.83056 0.81967 0.0
H445 H 0.16945 0.704 0.7127 0.0
H446 H 0.30654 0.98053 0.65274 0.0
H447 H 0.2524 0.97764 0.70016 0.0
H448 H 0.33896 0.01084 0.78512 0.0
H449 H 0.39352 0.01161 0.73778 0.0
H450 H 0.29341 0.96291 0.81411 0.0
H451 H 0.26406 0.07018 0.74348 0.0
H452 H 0.25089 0.10752 0.68705 0.0
H453 H 0.14406 0.04309 0.66297 0.0
H454 H 0.15693 0.00499 0.719 0.0
H455 H 0.14578 0.01457 0.95048 0.0
H456 H 0.20002 0.01341 0.90352 0.0
H457 H 0.11628 0.96713 0.82295 0.0
H458 H 0.06136 0.96925 0.86964 0.0
H459 H 0.15977 0.0219 0.79174 0.0
H460 H 0.19326 0.91551 0.86686 0.0
H461 H 0.20837 0.88375 0.92599 0.0
H462 H 0.31053 0.95535 0.94527 0.0
H463 H 0.296 0.98772 0.88588 0.0
C464 C 0.31385 0.987 0.68164 0.0
C465 C 0.35397 -0.00365 0.69178 0.0
C466 C 0.28287 0.98571 0.70869 0.0
C467 C 0.29113 0.99486 0.74629 0.0
C468 C 0.33157 0.00375 0.7564 0.0
C469 C 0.36275 0.00426 0.72943 0.0
C470 C 0.25788 0.99465 0.7751 0.0
C471 C 0.26446 0.97631 0.80926 0.0
C472 C 0.21963 0.01163 0.76895 0.0
C473 C 0.2117 0.0345 0.73525 0.0
C474 C 0.23793 0.06379 0.726 0.0
C475 C 0.23049 0.08512 0.69411 0.0
C476 C 0.19672 0.07762 0.67139 0.0
C477 C 0.17025 0.04883 0.68057 0.0
C478 C 0.17758 0.02737 0.71241 0.0
C479 C 0.13897 0.00353 0.923 0.0
C480 C 0.09915 0.99183 0.91395 0.0
C481 C 0.17012 0.00293 0.89606 0.0
C482 C 0.16251 0.98991 0.85961 0.0
C483 C 0.12299 0.97741 0.85078 0.0
C484 C 0.09166 0.97838 0.87761 0.0
C485 C 0.19547 0.99017 0.83055 0.0
C486 C 0.18877 0.00851 0.79638 0.0
C487 C 0.23402 0.97408 0.837 0.0
C488 C 0.24327 0.95423 0.87221 0.0
C489 C 0.21874 0.92469 0.88386 0.0
C490 C 0.22707 0.90672 0.91758 0.0
C491 C 0.26003 0.91782 0.93979 0.0
C492 C 0.2849 0.94687 0.92815 0.0
C493 C 0.27668 0.96501 0.89442 0.0
H494 H 0.26662 0.9037 0.96577 0.0
H495 H 0.191 0.09418 0.64671 0.0
H496 H 0.94638 0.36322 0.68337 0.0
H497 H 0.94675 0.31538 0.7319 0.0
H498 H 0.04473 0.26118 0.6742 0.0
H499 H 0.04507 0.30975 0.62602 0.0
H500 H 0.98178 0.21234 0.70089 0.0
H501 H 0.06999 0.30549 0.74644 0.0
H502 H 0.09201 0.36784 0.76313 0.0
H503 H -0.00519 0.37455 0.84371 0.0
H504 H 0.97173 0.31241 0.827 0.0
H505 H 0.02207 0.09431 0.85765 0.0
H506 H 0.0293 0.13745 0.80531 0.0
H507 H 0.94759 0.21168 0.86085 0.0
H508 H 0.94142 0.16926 0.91374 0.0
H509 H 0.00858 0.24858 0.83275 0.0
H510 H 0.91889 0.1542 0.78283 0.0
H511 H 0.90087 0.09067 0.76632 0.0
H512 H 0.00572 0.08497 0.69427 0.0
H513 H 0.02457 0.14832 0.71062 0.0
C514 C 0.9678 0.34096 0.68098 0.0
C515 C -0.00428 0.34015 0.65105 0.0
C516 C 0.96808 0.31369 0.70872 0.0
C517 C -0.00412 0.28469 0.70685 0.0
C518 C 0.02301 0.28323 0.67628 0.0
C519 C 0.0233 0.31099 0.64888 0.0
C520 C -0.0027 0.25685 0.73763 0.0
C521 C 0.98812 0.22015 0.72966 0.0
C522 C 0.0054 0.26692 0.77525 0.0
C523 C 0.01882 0.30446 0.78512 0.0
C524 C 0.053 0.32041 0.7674 0.0
C525 C 0.06574 0.35569 0.77693 0.0
C526 C 0.04474 0.37519 0.80438 0.0
C527 C 0.01098 0.35943 0.82239 0.0
C528 C -0.00194 0.32418 0.8129 0.0
C529 C 0.00573 0.11988 0.85876 0.0
C530 C 0.98119 0.12829 0.88998 0.0
C531 C 0.00965 0.14448 0.82862 0.0
C532 C -0.01154 0.17776 0.8286 0.0
C533 C 0.96429 0.18628 0.85999 0.0
C534 C 0.96079 0.16195 0.89032 0.0
C535 C -0.00825 0.2041 0.79639 0.0
C536 C 0.0021 0.24063 0.80403 0.0
C537 C 0.98504 0.19371 0.7585 0.0
C538 C 0.97332 0.15585 0.74822 0.0
C539 C 0.9382 0.1393 0.76363 0.0
C540 C 0.92783 0.10335 0.7543 0.0
C541 C 0.9522 0.08377 0.72939 0.0
C542 C 0.9869 0.10015 0.71361 0.0
C543 C -0.00259 0.13609 0.72285 0.0
H544 H 0.94415 0.05593 0.72224 0.0
H545 H 0.0547 0.40248 0.81177 0.0
H546 H 0.66746 0.96418 0.66155 0.0
H547 H 0.72034 0.96671 0.70957 0.0
H548 H 0.64202 0.03127 0.77988 0.0
H549 H 0.58807 0.02787 0.73242 0.0
H550 H 0.72135 0.05879 0.77673 0.0
H551 H 0.65431 0.94523 0.8002 0.0
H552 H 0.62584 0.88402 0.78762 0.0
H553 H 0.74489 0.84578 0.75716 0.0
H554 H 0.77399 0.90699 0.76879 0.0
H555 H 0.83064 0.02527 0.94976 0.0
H556 H 0.78146 0.03425 0.89894 0.0
H557 H 0.85746 0.97166 0.82458 0.0
H558 H 0.90696 0.96287 0.87508 0.0
H559 H 0.77869 0.94501 0.83045 0.0
H560 H 0.84585 0.06003 0.81118 0.0
H561 H 0.8729 0.12024 0.8299 0.0
H562 H 0.75189 0.15558 0.85725 0.0
H563 H 0.72416 0.09518 0.83982 0.0
C564 C 0.66098 0.97842 0.68744 0.0
C565 C 0.62309 -0.00449 0.69309 0.0
C566 C 0.6915 0.98008 0.71478 0.0
C567 C 0.68508 -0.00099 0.74841 0.0
C568 C 0.64767 0.01661 0.75407 0.0
C569 C 0.61689 0.01469 0.72681 0.0
C570 C 0.71746 3e-05 0.77763 0.0
C571 C 0.73361 0.03396 0.78886 0.0
C572 C 0.73385 0.96757 0.79299 0.0
C573 C 0.71623 0.93095 0.78479 0.0
C574 C 0.67434 0.92396 0.79024 0.0
C575 C 0.6581 0.88921 0.7834 0.0
C576 C 0.6835 0.86107 0.77142 0.0
C577 C 0.72521 0.86764 0.76628 0.0
C578 C 0.74158 0.90238 0.77295 0.0
C579 C 0.8374 0.0142 0.92234 0.0
C580 C 0.87259 0.99313 0.91658 0.0
C581 C 0.80925 0.01938 0.8933 0.0
C582 C 0.81573 0.00349 0.85803 0.0
C583 C 0.85185 0.98408 0.85164 0.0
C584 C 0.88017 0.97916 0.88054 0.0
C585 C 0.78306 0.00366 0.82916 0.0
C586 C 0.76667 0.96987 0.81815 0.0
C587 C 0.76632 0.03625 0.81443 0.0
C588 C 0.78294 0.07281 0.82457 0.0
C589 C 0.825 0.08046 0.82156 0.0
C590 C 0.84047 0.11468 0.83186 0.0
C591 C 0.81414 0.14172 0.84472 0.0
C592 C 0.77226 0.13459 0.84731 0.0
C593 C 0.75666 0.10034 0.83726 0.0
H594 H 0.82617 0.1682 0.85264 0.0
H595 H 0.67089 0.83415 0.76628 0.0
H596 H 0.31954 0.37244 0.0535 0.0
H597 H 0.26386 0.32882 0.04479 0.0
H598 H 0.35107 0.24246 0.02834 0.0
H599 H 0.40729 0.28683 0.03566 0.0
H600 H 0.29058 0.23847 0.97831 0.0
H601 H 0.30022 0.25085 0.11141 0.0
H602 H 0.30524 0.28467 0.17097 0.0
H603 H 0.18779 0.3322 0.15099 0.0
H604 H 0.18233 0.29912 0.09097 0.0
H605 H 0.15182 0.09293 0.0125 0.0
H606 H 0.20723 0.13782 1.00989 0.0
H607 H 0.12015 0.22473 0.02389 0.0
H608 H 0.06459 0.17922 0.02791 0.0
H609 H 0.18087 0.22831 0.07409 0.0
H610 H 0.17233 0.21261 0.9399 0.0
H611 H 0.16895 0.1757 0.8822 0.0
H612 H 0.28639 0.13024 0.90698 0.0
H613 H 0.29026 0.16655 0.96507 0.0
C614 C 0.32673 0.34403 0.04851 0.0
C615 C 0.36734 0.33254 0.04595 0.0
C616 C 0.29503 0.31923 0.04347 0.0
C617 C 0.30347 0.28239 0.03669 0.0
C618 C 0.34411 0.27082 0.03377 0.0
C619 C 0.37601 0.29592 0.03816 0.0
C620 C 0.26948 0.25625 0.03253 0.0
C621 C 0.26681 0.23583 0.99941 0.0
C622 C 0.23831 0.25346 0.05992 0.0
C623 C 0.241 0.27267 0.09653 0.0
C624 C 0.27554 0.26864 0.11962 0.0
C625 C 0.27847 0.28769 0.15346 0.0
C626 C 0.24689 0.31062 0.16472 0.0
C627 C 0.21224 0.31444 0.14222 0.0
C628 C 0.20918 0.29551 0.1083 0.0
C629 C 0.14459 0.12174 0.01383 0.0
C630 C 0.10443 0.13312 0.01978 0.0
C631 C 0.17609 0.14729 0.0123 0.0
C632 C 0.16763 0.18455 0.0162 0.0
C633 C 0.12709 0.19604 0.02059 0.0
C634 C 0.09551 0.1703 0.02259 0.0
C635 C 0.2016 0.21085 0.01961 0.0
C636 C 0.20444 0.23115 0.05281 0.0
C637 C 0.23314 0.21309 0.99254 0.0
C638 C 0.23148 0.1922 0.95693 0.0
C639 C 0.19739 0.19467 0.93309 0.0
C640 C 0.19538 0.17385 0.90032 0.0
C641 C 0.2274 0.1506 0.89096 0.0
C642 C 0.26161 0.14828 0.91425 0.0
C643 C 0.26377 0.16904 0.94706 0.0
H644 H 0.22574 0.13441 0.86564 0.0
H645 H 0.24925 0.32539 0.1909 0.0
H646 H 0.39123 0.67782 0.08587 0.0
H647 H 0.34813 0.73201 0.08032 0.0
H648 H 0.26345 0.67129 0.01107 0.0
H649 H 0.30725 0.61756 0.01576 0.0
H650 H 0.28859 0.73154 0.97731 0.0
H651 H 0.23549 0.69915 0.09705 0.0
H652 H 0.23784 0.68083 0.1637 0.0
H653 H 0.29858 0.78152 0.19127 0.0
H654 H 0.29716 0.80024 0.12464 0.0
H655 H 0.13147 0.85968 0.96785 0.0
H656 H 0.17993 0.81068 0.97121 0.0
H657 H 0.25442 0.87374 0.04775 0.0
H658 H 0.20293 0.92201 0.04716 0.0
H659 H 0.23645 0.81261 0.07731 0.0
H660 H 0.29361 0.83938 0.95071 0.0
H661 H 0.2864 0.85356 0.8831 0.0
H662 H 0.20889 0.7595 0.86914 0.0
H663 H 0.21637 0.74444 0.93641 0.0
C664 C 0.36286 0.67609 0.07032 0.0
C665 C 0.3521 0.6442 0.05109 0.0
C666 C 0.33833 0.70676 0.06724 0.0
C667 C 0.30276 0.70536 0.04534 0.0
C668 C 0.29092 0.67269 0.02797 0.0
C669 C 0.31568 0.64223 0.03067 0.0
C670 C 0.28063 0.73898 0.03692 0.0
C671 C 0.27686 0.74921 0.99914 0.0
C672 C 0.26603 0.76195 0.06552 0.0
C673 C 0.26662 0.75094 0.10573 0.0
C674 C 0.24967 0.71727 0.11726 0.0
C675 C 0.25077 0.70683 0.15505 0.0
C676 C 0.26847 0.72994 0.18169 0.0
C677 C 0.28494 0.76361 0.17059 0.0
C678 C 0.28396 0.77418 0.13281 0.0
C679 C 0.15915 0.86389 0.98401 0.0
C680 C 0.16404 0.89462 1.00691 0.0
C681 C 0.18712 0.8358 0.98573 0.0
C682 C 0.22139 0.83875 1.00908 0.0
C683 C 0.22825 0.87109 0.02934 0.0
C684 C 0.1993 0.89877 0.02871 0.0
C685 C 0.24524 0.80585 0.01756 0.0
C686 C 0.24895 0.79542 0.05546 0.0
C687 C 0.25913 0.78228 0.98903 0.0
C688 C 0.2553 0.79104 0.94852 0.0
C689 C 0.27503 0.82181 0.93316 0.0
C690 C 0.27106 0.82987 0.89489 0.0
C691 C 0.24699 0.80759 0.8719 0.0
C692 C 0.22744 0.7768 0.88697 0.0
C693 C 0.23183 0.76832 0.92506 0.0
H694 H 0.24361 0.81412 0.8424 0.0
H695 H 0.26933 0.72179 0.21093 0.0
H696 H 0.56805 0.3093 0.99062 0.0
H697 H 0.60827 0.25318 0.98759 0.0
H698 H 0.69432 0.29849 0.06686 0.0
H699 H 0.65371 0.35447 0.07043 0.0
H700 H 0.72892 0.27021 0.99952 0.0
H701 H 0.64057 0.23805 0.0998 0.0
H702 H 0.57651 0.22817 0.13484 0.0
H703 H 0.53699 0.14985 0.05288 0.0
H704 H 0.60064 0.15971 0.01698 0.0
H705 H 0.81772 0.11649 0.08917 0.0
H706 H 0.76365 0.16036 0.0796 0.0
H707 H 0.75328 0.12825 0.96359 0.0
H708 H 0.8096 0.08535 0.97211 0.0
H709 H 0.6785 0.14794 0.03964 0.0
H710 H 0.78056 0.1856 0.94152 0.0
H711 H 0.85136 0.19666 0.92055 0.0
H712 H 0.87136 0.26832 0.01398 0.0
H713 H 0.80115 0.25653 0.0363 0.0
C714 C 0.59551 0.307 1.00741 0.0
C715 C 0.60833 0.33571 0.03056 0.0
C716 C 0.61816 0.27516 1.0058 0.0
C717 C 0.65394 0.27215 0.02698 0.0
C718 C 0.66665 0.30073 0.05037 0.0
C719 C 0.64362 0.33236 0.05245 0.0
C720 C 0.6789 0.23953 0.02357 0.0
C721 C 0.71793 0.24337 1.00801 0.0
C722 C 0.66411 0.20491 0.03482 0.0
C723 C 0.625 0.20015 0.0553 0.0
C724 C 0.6179 0.21922 0.08886 0.0
C725 C 0.58176 0.21348 0.109 0.0
C726 C 0.5526 0.18853 0.096 0.0
C727 C 0.55953 0.16928 0.06283 0.0
C728 C 0.59561 0.17495 0.04256 0.0
C729 C 0.80345 0.11793 0.06176 0.0
C730 C 0.81838 0.09798 0.03113 0.0
C731 C 0.77279 0.1432 0.05637 0.0
C732 C 0.75598 0.14805 0.02066 0.0
C733 C 0.76723 0.12535 0.991 0.0
C734 C 0.79883 0.10059 0.99608 0.0
C735 C 0.72823 0.17842 0.01503 0.0
C736 C 0.68877 0.17449 0.02956 0.0
C737 C 0.74323 0.21317 1.00404 0.0
C738 C 0.78589 0.21932 0.99115 0.0
C739 C 0.80034 0.20293 0.95815 0.0
C740 C 0.84033 0.2095 0.94589 0.0
C741 C 0.86594 0.23297 0.96606 0.0
C742 C 0.85161 0.24993 0.99853 0.0
C743 C 0.81178 0.24318 0.01107 0.0
H744 H 0.89679 0.23819 0.95641 0.0
H745 H 0.52471 0.184 0.11171 0.0
H746 H 0.56626 0.69647 0.04694 0.0
H747 H 0.62251 0.74103 0.05136 0.0
H748 H 0.70622 0.66063 1.00888 0.0
H749 H 0.65055 0.61618 1.0047 0.0
H750 H 0.7361 0.70011 0.07093 0.0
H751 H 0.67072 0.71931 0.95001 0.0
H752 H 0.61161 0.73165 0.90915 0.0
H753 H 0.59226 0.83369 0.96516 0.0
H754 H 0.65097 0.82165 1.00675 0.0
H755 H 0.90145 0.80843 0.99946 0.0
H756 H 0.84246 0.76611 0.99929 0.0
H757 H 0.76883 0.84802 0.05309 0.0
H758 H 0.82756 0.88948 0.05451 0.0
H759 H 0.73262 0.80988 0.98853 0.0
H760 H 0.7987 0.79307 0.10755 0.0
H761 H 0.85825 0.78235 0.14829 0.0
H762 H 0.87572 0.67739 0.09772 0.0
H763 H 0.81675 0.68788 0.05599 0.0
C764 C 0.59672 0.68853 0.0386 0.0
C765 C 0.60425 0.6534 0.02482 0.0
C766 C 0.62861 0.71375 0.04123 0.0
C767 C 0.66811 0.70381 0.03031 0.0
C768 C 0.67578 0.66852 0.01742 0.0
C769 C 0.644 0.64347 0.01455 0.0
C770 C 0.70136 0.73064 0.03019 0.0
C771 C 0.73556 0.72401 0.05279 0.0
C772 C 0.69989 0.76194 1.00695 0.0
C773 C 0.66491 0.7694 0.98172 0.0
C774 C 0.65366 0.74424 0.95379 0.0
C775 C 0.62027 0.7512 0.93048 0.0
C776 C 0.59812 0.78339 0.93463 0.0
C777 C 0.60941 0.80874 0.96203 0.0
C778 C 0.64274 0.80187 0.98546 0.0
C779 C 0.87254 0.81706 0.01109 0.0
C780 C 0.86857 0.85146 0.02756 0.0
C781 C 0.83917 0.79322 0.01094 0.0
C782 C 0.80186 0.80433 0.02635 0.0
C783 C 0.7976 0.8393 0.04121 0.0
C784 C 0.83101 0.86264 0.04224 0.0
C785 C 0.76747 0.77898 0.02874 0.0
C786 C 0.73306 0.78602 1.00672 0.0
C787 C 0.76866 0.74824 0.0527 0.0
C788 C 0.80363 0.74147 0.07827 0.0
C789 C 0.81549 0.76787 0.1048 0.0
C790 C 0.8491 0.76182 0.12813 0.0
C791 C 0.87085 0.72926 0.12551 0.0
C792 C 0.8589 0.70264 0.09964 0.0
C793 C 0.82539 0.70863 0.07614 0.0
H794 H 0.89688 0.72463 0.14358 0.0
H795 H 0.57227 0.78873 0.91655 0.0
loop_
_geom_bond_atom_site_label_1
_geom_bond_atom_site_label_2
_geom_bond_distance
_geom_bond_site_symmetry_2
_ccdc_geom_bond_type
H0 C19 0.949 . S
H1 C20 0.950 . S
H2 C22 0.950 . S
H3 C23 0.950 . S
H4 C25 0.950 . S
H5 C28 0.950 . S
H6 C29 0.950 . S
H7 C31 0.951 . S
H8 C32 0.949 . S
H9 C34 0.949 . S
H10 C35 0.950 . S
H11 C37 0.950 . S
H12 C38 0.950 . S
H13 C40 0.950 . S
H14 C43 0.950 . S
H15 C44 0.950 . S
H16 C46 0.951 . S
H17 C47 0.949 . S
C18 C19 1.376 . S
C18 C23 1.386 1_455 S
C18 C24 1.483 . S
C19 H0 0.949 . S
C19 C18 1.376 . S
C19 C20 1.397 . S
C20 H1 0.950 . S
C20 C19 1.397 . S
C20 C21 1.391 . S
C21 C20 1.391 . S
C21 C22 1.405 1_455 S
C22 H2 0.950 . S
C22 C21 1.405 1_655 S
C22 C23 1.367 . S
C23 H3 0.950 . S
C23 C18 1.386 1_655 S
C23 C22 1.367 . S
C24 C18 1.483 . S
C24 C25 1.382 . S
C24 C26 1.403 1_455 S
C25 H4 0.950 . S
C25 C24 1.382 . S
C25 C41 1.411 . S
C26 C24 1.403 1_655 S
C26 C27 1.489 . S
C26 C40 1.411 . S
C27 C26 1.489 . S
C27 C28 1.383 1_655 S
C27 C32 1.382 . S
C28 H5 0.950 . S
C28 C27 1.383 1_455 S
C28 C29 1.395 . S
C29 H6 0.950 . S
C29 C28 1.395 . S
C29 C30 1.288 1_455 S
C30 C29 1.288 1_655 S
C30 C31 1.392 . S
C31 H7 0.951 . S
C31 C30 1.392 . S
C31 C32 1.392 . S
C32 H8 0.949 . S
C32 C27 1.382 . S
C32 C31 1.392 . S
C33 C34 1.376 . S
C33 C38 1.386 1_655 S
C33 C39 1.483 . S
C34 H9 0.949 . S
C34 C33 1.376 . S
C34 C35 1.397 . S
C35 H10 0.950 . S
C35 C34 1.397 . S
C35 C36 1.391 . S
C36 C35 1.391 . S
C36 C37 1.405 1_655 S
C37 H11 0.950 . S
C37 C36 1.405 1_455 S
C37 C38 1.367 . S
C38 H12 0.950 . S
C38 C33 1.386 1_455 S
C38 C37 1.367 . S
C39 C33 1.483 . S
C39 C40 1.382 . S
C39 C41 1.403 1_655 S
C40 H13 0.950 . S
C40 C26 1.411 . S
C40 C39 1.382 . S
C41 C25 1.411 . S
C41 C39 1.403 1_455 S
C41 C42 1.489 . S
C42 C41 1.489 . S
C42 C43 1.383 1_455 S
C42 C47 1.382 . S
C43 H14 0.950 . S
C43 C42 1.383 1_655 S
C43 C44 1.395 . S
C44 H15 0.950 . S
C44 C43 1.395 . S
C44 C45 1.288 1_655 S
C45 C44 1.288 1_455 S
C45 C46 1.392 . S
C46 H16 0.951 . S
C46 C45 1.392 . S
C46 C47 1.392 . S
C47 H17 0.949 . S
C47 C42 1.382 . S
C47 C46 1.392 . S
H48 C67 0.949 . S
H49 C68 0.950 . S
H50 C70 0.950 . S
H51 C71 0.950 . S
H52 C73 0.950 . S
H53 C76 0.950 . S
H54 C77 0.950 . S
H55 C79 0.951 . S
H56 C80 0.949 . S
H57 C82 0.949 . S
H58 C83 0.950 . S
H59 C85 0.950 . S
H60 C86 0.950 . S
H61 C88 0.950 . S
H62 C91 0.950 . S
H63 C92 0.950 . S
H64 C94 0.951 . S
H65 C95 0.949 . S
C66 C67 1.376 . S
C66 C71 1.386 1_545 S
C66 C72 1.483 . S
C67 H48 0.949 . S
C67 C66 1.376 . S
C67 C68 1.397 . S
C68 H49 0.950 . S
C68 C67 1.397 . S
C68 C69 1.391 . S
C69 C68 1.391 . S
C69 C70 1.405 1_545 S
C70 H50 0.950 . S
C70 C69 1.405 1_565 S
C70 C71 1.367 . S
C71 H51 0.950 . S
C71 C66 1.386 1_565 S
C71 C70 1.367 . S
C72 C66 1.483 . S
C72 C73 1.382 . S
C72 C74 1.403 1_545 S
C73 H52 0.950 . S
C73 C72 1.382 . S
C73 C89 1.411 . S
C74 C72 1.403 1_565 S
C74 C75 1.489 . S
C74 C88 1.411 . S
C75 C74 1.489 . S
C75 C76 1.383 1_565 S
C75 C80 1.382 . S
C76 H53 0.950 . S
C76 C75 1.383 1_545 S
C76 C77 1.395 . S
C77 H54 0.950 . S
C77 C76 1.395 . S
C77 C78 1.288 1_545 S
C78 C77 1.288 1_565 S
C78 C79 1.392 . S
C79 H55 0.951 . S
C79 C78 1.392 . S
C79 C80 1.392 . S
C80 H56 0.949 . S
C80 C75 1.382 . S
C80 C79 1.392 . S
C81 C82 1.376 . S
C81 C86 1.386 1_565 S
C81 C87 1.483 . S
C82 H57 0.949 . S
C82 C81 1.376 . S
C82 C83 1.397 . S
C83 H58 0.950 . S
C83 C82 1.397 . S
C83 C84 1.391 . S
C84 C83 1.391 . S
C84 C85 1.405 1_565 S
C85 H59 0.950 . S
C85 C84 1.405 1_545 S
C85 C86 1.367 . S
C86 H60 0.950 . S
C86 C81 1.386 1_545 S
C86 C85 1.367 . S
C87 C81 1.483 . S
C87 C88 1.382 . S
C87 C89 1.403 1_565 S
C88 H61 0.950 . S
C88 C74 1.411 . S
C88 C87 1.382 . S
C89 C73 1.411 . S
C89 C87 1.403 1_545 S
C89 C90 1.489 . S
C90 C89 1.489 . S
C90 C91 1.383 1_545 S
C90 C95 1.382 . S
C91 H62 0.950 . S
C91 C90 1.383 1_565 S
C91 C92 1.395 . S
C92 H63 0.950 . S
C92 C91 1.395 . S
C92 C93 1.288 1_565 S
C93 C92 1.288 1_545 S
C93 C94 1.392 . S
C94 H64 0.951 . S
C94 C93 1.392 . S
C94 C95 1.392 . S
C95 H65 0.949 . S
C95 C90 1.382 . S
C95 C94 1.392 . S
H96 C115 0.949 . S
H97 C116 0.950 . S
H98 C118 0.950 . S
H99 C119 0.950 . S
H100 C121 0.950 . S
H101 C124 0.950 1_556 S
H102 C125 0.950 1_556 S
H103 C127 0.951 . S
H104 C128 0.949 . S
H105 C130 0.949 . S
H106 C131 0.950 . S
H107 C133 0.950 . S
H108 C134 0.950 . S
H109 C136 0.950 . S
H110 C139 0.950 . S
H111 C140 0.950 . S
H112 C142 0.951 . S
H113 C143 0.949 . S
C114 C115 1.376 1_554 S
C114 C119 1.386 . S
C114 C120 1.483 . S
C115 H96 0.949 . S
C115 C114 1.376 1_556 S
C115 C116 1.397 . S
C116 H97 0.950 . S
C116 C115 1.397 . S
C116 C117 1.391 1_556 S
C117 C116 1.391 1_554 S
C117 C118 1.405 . S
C118 H98 0.950 . S
C118 C117 1.405 . S
C118 C119 1.367 . S
C119 H99 0.950 . S
C119 C114 1.386 . S
C119 C118 1.367 . S
C120 C114 1.483 . S
C120 C121 1.382 . S
C120 C122 1.403 . S
C121 H100 0.950 . S
C121 C120 1.382 . S
C121 C137 1.411 . S
C122 C120 1.403 . S
C122 C123 1.489 . S
C122 C136 1.411 . S
C123 C122 1.489 . S
C123 C124 1.383 . S
C123 C128 1.382 . S
C124 H101 0.950 1_554 S
C124 C123 1.383 . S
C124 C125 1.395 . S
C125 H102 0.950 1_554 S
C125 C124 1.395 . S
C125 C126 1.288 . S
C126 C125 1.288 . S
C126 C127 1.392 . S
C127 H103 0.951 . S
C127 C126 1.392 . S
C127 C128 1.392 . S
C128 H104 0.949 . S
C128 C123 1.382 . S
C128 C127 1.392 . S
C129 C130 1.376 . S
C129 C134 1.386 1_554 S
C129 C135 1.483 . S
C130 H105 0.949 . S
C130 C129 1.376 . S
C130 C131 1.397 . S
C131 H106 0.950 . S
C131 C130 1.397 . S
C131 C132 1.391 . S
C132 C131 1.391 . S
C132 C133 1.405 1_554 S
C133 H107 0.950 . S
C133 C132 1.405 1_556 S
C133 C134 1.367 . S
C134 H108 0.950 . S
C134 C129 1.386 1_556 S
C134 C133 1.367 . S
C135 C129 1.483 . S
C135 C136 1.382 . S
C135 C137 1.403 . S
C136 H109 0.950 . S
C136 C122 1.411 . S
C136 C135 1.382 . S
C137 C121 1.411 . S
C137 C135 1.403 . S
C137 C138 1.489 . S
C138 C137 1.489 . S
C138 C139 1.383 . S
C138 C143 1.382 1_554 S
C139 H110 0.950 . S
C139 C138 1.383 . S
C139 C140 1.395 . S
C140 H111 0.950 . S
C140 C139 1.395 . S
C140 C141 1.288 . S
C141 C140 1.288 . S
C141 C142 1.392 1_554 S
C142 H112 0.951 . S
C142 C141 1.392 1_556 S
C142 C143 1.392 . S
C143 H113 0.949 . S
C143 C138 1.382 1_556 S
C143 C142 1.392 . S
Zn144 O146 1.933 1_556 S
Zn144 O164 1.985 . S
Zn144 O175 1.955 . S
Zn145 O146 1.911 . S
Zn145 O165 1.970 . S
Zn145 O181 1.945 . S
Zn145 O188 1.981 . S
O146 Zn144 1.933 1_554 S
O146 Zn145 1.911 . S
O146 H147 0.841 . S
H147 O146 0.841 . S
C148 O149 1.246 . S
C148 O177 1.276 1_455 S
O149 C148 1.246 . S
Zn150 O152 1.911 . S
Zn150 O167 1.970 . S
Zn150 O184 1.945 . S
Zn150 O191 1.981 . S
Zn151 O152 1.933 1_556 S
Zn151 O166 1.985 . S
Zn151 O173 1.955 . S
O152 Zn150 1.911 . S
O152 Zn151 1.933 1_554 S
O152 H153 0.841 . S
H153 O152 0.841 . S
Zn154 O155 1.933 1_556 S
Zn154 O168 1.985 . S
Zn154 O177 1.955 . S
O155 Zn154 1.933 1_554 S
O155 Zn156 1.911 . S
O155 H157 0.841 . S
Zn156 O155 1.911 . S
Zn156 O169 1.970 . S
Zn156 O185 1.981 . S
Zn156 O187 1.945 . S
H157 O155 0.841 . S
Zn158 O159 1.933 1_556 S
Zn158 O171 1.985 . S
Zn158 O179 1.955 . S
O159 Zn158 1.933 1_554 S
O159 H160 0.841 . S
O159 Zn161 1.911 . S
H160 O159 0.841 . S
Zn161 O159 1.911 . S
Zn161 O172 1.970 . S
Zn161 O182 1.981 . S
Zn161 O190 1.945 . S
C162 O163 1.246 . S
C162 O179 1.276 1_655 S
O163 C162 1.246 . S
O164 Zn144 1.985 . S
O164 C174 1.245 1_556 S
O165 Zn145 1.970 . S
O165 C174 1.263 . S
O166 Zn151 1.985 . S
O166 C178 1.245 1_556 S
O167 Zn150 1.970 . S
O167 C178 1.263 . S
O168 Zn154 1.985 . S
O168 C183 1.245 1_556 S
O169 Zn156 1.970 . S
O169 C183 1.263 . S
C170 O181 1.264 . S
C170 O182 1.244 1_545 S
O171 Zn158 1.985 . S
O171 C189 1.245 1_556 S
O172 Zn161 1.970 . S
O172 C189 1.263 . S
O173 Zn151 1.955 . S
O173 C192 1.276 1_565 S
C174 O164 1.245 1_554 S
C174 O165 1.263 . S
O175 Zn144 1.955 . S
O175 C194 1.276 1_545 S
C176 O184 1.260 1_545 S
C176 O185 1.246 . S
O177 C148 1.276 1_655 S
O177 Zn154 1.955 . S
C178 O166 1.245 1_554 S
C178 O167 1.263 . S
O179 Zn158 1.955 . S
O179 C162 1.276 1_455 S
C180 O187 1.261 1_455 S
C180 O188 1.245 . S
O181 Zn145 1.945 . S
O181 C170 1.264 . S
O182 Zn161 1.981 . S
O182 C170 1.244 1_565 S
C183 O168 1.245 1_554 S
C183 O169 1.263 . S
O184 Zn150 1.945 . S
O184 C176 1.260 1_565 S
O185 Zn156 1.981 . S
O185 C176 1.246 . S
C186 O190 1.262 . S
C186 O191 1.245 1_455 S
O187 Zn156 1.945 . S
O187 C180 1.261 1_655 S
O188 Zn145 1.981 . S
O188 C180 1.245 . S
C189 O171 1.245 1_554 S
C189 O172 1.263 . S
O190 Zn161 1.945 . S
O190 C186 1.262 . S
O191 Zn150 1.981 . S
O191 C186 1.245 1_655 S
C192 O173 1.276 1_545 S
C192 O193 1.246 . S
O193 C192 1.246 . S
C194 O175 1.276 1_565 S
C194 O195 1.246 . S
O195 C194 1.246 . S
H196 C214 0.951 . S
H197 C216 0.951 . S
H198 C218 0.950 . S
H199 C219 0.950 . S
H200 C221 0.950 . S
H201 C224 0.950 . S
H202 C225 0.950 . S
H203 C227 0.950 . S
H204 C228 0.950 . S
H205 C229 0.951 . S
H206 C231 0.951 . S
H207 C233 0.950 . S
H208 C234 0.950 . S
H209 C236 0.950 . S
H210 C239 0.950 . S
H211 C240 0.950 . S
H212 C242 0.950 . S
H213 C243 0.950 . S
C214 H196 0.951 . S
C214 C215 1.366 1_655 S
C214 C216 1.388 . S
C215 C214 1.366 1_455 S
C215 C219 1.385 . S
C216 H197 0.951 . S
C216 C214 1.388 . S
C216 C217 1.366 1_655 S
C217 C216 1.366 1_455 S
C217 C218 1.414 . S
C217 C220 1.499 . S
C218 H198 0.950 . S
C218 C217 1.414 . S
C218 C219 1.374 . S
C219 H199 0.950 . S
C219 C215 1.385 . S
C219 C218 1.374 . S
C220 C217 1.499 . S
C220 C221 1.373 . S
C220 C222 1.389 1_455 S
C221 H200 0.950 . S
C221 C220 1.373 . S
C221 C237 1.377 . S
C222 C220 1.389 1_655 S
C222 C223 1.524 . S
C222 C236 1.377 . S
C223 C222 1.524 . S
C223 C224 1.397 1_655 S
C223 C228 1.363 . S
C224 H201 0.950 . S
C224 C223 1.397 1_455 S
C224 C225 1.334 . S
C225 H202 0.950 . S
C225 C224 1.334 . S
C225 C226 1.287 1_455 S
C226 C225 1.287 1_655 S
C226 C227 1.524 . S
C226 H245 0.913 . S
C227 H203 0.950 . S
C227 C226 1.524 . S
C227 C228 1.415 . S
C228 H204 0.950 . S
C228 C223 1.363 . S
C228 C227 1.415 . S
C229 H205 0.951 . S
C229 C230 1.366 . S
C229 C231 1.388 . S
C230 C229 1.366 . S
C230 C234 1.385 1_455 S
C231 H206 0.951 . S
C231 C229 1.388 . S
C231 C232 1.366 . S
C232 C231 1.366 . S
C232 C233 1.414 1_455 S
C232 C235 1.499 . S
C233 H207 0.950 . S
C233 C232 1.414 1_655 S
C233 C234 1.374 . S
C234 H208 0.950 . S
C234 C230 1.385 1_655 S
C234 C233 1.374 . S
C235 C232 1.499 . S
C235 C236 1.373 1_455 S
C235 C237 1.389 . S
C236 H209 0.950 . S
C236 C222 1.377 . S
C236 C235 1.373 1_655 S
C237 C221 1.377 . S
C237 C235 1.389 . S
C237 C238 1.524 . S
C238 C237 1.524 . S
C238 C239 1.397 1_455 S
C238 C243 1.363 . S
C239 H210 0.950 . S
C239 C238 1.397 1_655 S
C239 C240 1.334 . S
C240 H211 0.950 . S
C240 C239 1.334 . S
C240 C241 1.287 1_655 S
C241 C240 1.287 1_455 S
C241 C242 1.524 . S
C241 H244 0.999 . S
C242 H212 0.950 . S
C242 C241 1.524 . S
C242 C243 1.415 . S
C243 H213 0.950 . S
C243 C238 1.363 . S
C243 C242 1.415 . S
H244 C241 0.999 . S
H245 C226 0.913 . S
H246 C264 0.951 . S
H247 C266 0.951 . S
H248 C268 0.950 . S
H249 C269 0.950 . S
H250 C271 0.950 . S
H251 C274 0.950 . S
H252 C275 0.950 1_565 S
H253 C277 0.950 . S
H254 C278 0.950 . S
H255 C279 0.951 . S
H256 C281 0.951 . S
H257 C283 0.950 . S
H258 C284 0.950 . S
H259 C286 0.950 . S
H260 C289 0.950 . S
H261 C290 0.950 . S
H262 C292 0.950 . S
H263 C293 0.950 . S
C264 H246 0.951 . S
C264 C265 1.380 . S
C264 C266 1.388 . S
C265 C264 1.380 . S
C265 C269 1.371 1_545 S
C266 H247 0.951 . S
C266 C264 1.388 . S
C266 C267 1.366 . S
C267 C266 1.366 . S
C267 C268 1.414 1_545 S
C267 C270 1.499 . S
C268 H248 0.950 . S
C268 C267 1.414 1_565 S
C268 C269 1.374 . S
C269 H249 0.950 . S
C269 C265 1.371 1_565 S
C269 C268 1.374 . S
C270 C267 1.499 . S
C270 C271 1.373 1_545 S
C270 C272 1.389 . S
C271 H250 0.950 . S
C271 C270 1.373 1_565 S
C271 C287 1.377 . S
C272 C270 1.389 . S
C272 C273 1.524 . S
C272 C286 1.377 . S
C273 C272 1.524 . S
C273 C274 1.397 1_545 S
C273 C278 1.363 . S
C274 H251 0.950 . S
C274 C273 1.397 1_565 S
C274 C275 1.334 1_565 S
C275 H252 0.950 1_545 S
C275 C274 1.334 1_545 S
C275 C276 1.287 . S
C276 C275 1.287 . S
C276 C277 1.524 . S
C276 H295 0.913 . S
C277 H253 0.950 . S
C277 C276 1.524 . S
C277 C278 1.415 . S
C278 H254 0.950 . S
C278 C273 1.363 . S
C278 C277 1.415 . S
C279 H255 0.951 . S
C279 C280 1.366 1_565 S
C279 C281 1.388 . S
C280 C279 1.366 1_545 S
C280 C284 1.385 . S
C281 H256 0.951 . S
C281 C279 1.388 . S
C281 C282 1.366 1_565 S
C282 C281 1.366 1_545 S
C282 C283 1.414 . S
C282 C285 1.499 . S
C283 H257 0.950 . S
C283 C282 1.414 . S
C283 C284 1.374 . S
C284 H258 0.950 . S
C284 C280 1.385 . S
C284 C283 1.374 . S
C285 C282 1.499 . S
C285 C286 1.373 . S
C285 C287 1.389 1_545 S
C286 H259 0.950 . S
C286 C272 1.377 . S
C286 C285 1.373 . S
C287 C271 1.377 . S
C287 C285 1.389 1_565 S
C287 C288 1.524 . S
C288 C287 1.524 . S
C288 C289 1.397 1_565 S
C288 C293 1.363 . S
C289 H260 0.950 . S
C289 C288 1.397 1_545 S
C289 C290 1.334 . S
C290 H261 0.950 . S
C290 C289 1.334 . S
C290 C291 1.287 1_545 S
C291 C290 1.287 1_565 S
C291 C292 1.524 . S
C291 H294 0.999 . S
C292 H262 0.950 . S
C292 C291 1.524 . S
C292 C293 1.415 . S
C293 H263 0.950 . S
C293 C288 1.363 . S
C293 C292 1.415 . S
H294 C291 0.999 . S
H295 C276 0.913 . S
H296 C314 0.951 . S
H297 C316 0.951 . S
H298 C318 0.950 1_455 S
H299 C319 0.950 . S
H300 C321 0.950 . S
H301 C324 0.950 . S
H302 C325 0.950 . S
H303 C327 0.950 . S
H304 C328 0.950 . S
H305 C329 0.951 . S
H306 C331 0.951 . S
H307 C333 0.950 . S
H308 C334 0.950 . S
H309 C336 0.950 . S
H310 C339 0.950 . S
H311 C340 0.950 . S
H312 C342 0.950 . S
H313 C343 0.950 . S
C314 H296 0.951 . S
C314 C315 1.368 . S
C314 C316 1.388 . S
C315 C314 1.368 . S
C315 C319 1.384 1_655 S
C316 H297 0.951 . S
C316 C314 1.388 . S
C316 C317 1.366 . S
C317 C316 1.366 . S
C317 C318 1.414 . S
C317 C320 1.499 . S
C318 H298 0.950 1_655 S
C318 C317 1.414 . S
C318 C319 1.374 1_655 S
C319 H299 0.950 . S
C319 C315 1.384 1_455 S
C319 C318 1.374 1_455 S
C320 C317 1.499 . S
C320 C321 1.373 1_655 S
C320 C322 1.389 . S
C321 H300 0.950 . S
C321 C320 1.373 1_455 S
C321 C337 1.377 . S
C322 C320 1.389 . S
C322 C323 1.524 . S
C322 C336 1.377 . S
C323 C322 1.524 . S
C323 C324 1.397 . S
C323 C328 1.363 . S
C324 H301 0.950 . S
C324 C323 1.397 . S
C324 C325 1.334 . S
C325 H302 0.950 . S
C325 C324 1.334 . S
C325 C326 1.287 . S
C326 C325 1.287 . S
C326 C327 1.524 . S
C326 H345 0.913 . S
C327 H303 0.950 . S
C327 C326 1.524 . S
C327 C328 1.415 . S
C328 H304 0.950 . S
C328 C323 1.363 . S
C328 C327 1.415 . S
C329 H305 0.951 . S
C329 C330 1.366 . S
C329 C331 1.388 . S
C330 C329 1.366 . S
C330 C334 1.385 . S
C331 H306 0.951 . S
C331 C329 1.388 . S
C331 C332 1.366 . S
C332 C331 1.366 . S
C332 C333 1.414 . S
C332 C335 1.499 . S
C333 H307 0.950 . S
C333 C332 1.414 . S
C333 C334 1.374 . S
C334 H308 0.950 . S
C334 C330 1.385 . S
C334 C333 1.374 . S
C335 C332 1.499 . S
C335 C336 1.373 . S
C335 C337 1.389 1_655 S
C336 H309 0.950 . S
C336 C322 1.377 . S
C336 C335 1.373 . S
C337 C321 1.377 . S
C337 C335 1.389 1_455 S
C337 C338 1.524 . S
C338 C337 1.524 . S
C338 C339 1.397 . S
C338 C343 1.363 . S
C339 H310 0.950 . S
C339 C338 1.397 . S
C339 C340 1.334 . S
C340 H311 0.950 . S
C340 C339 1.334 . S
C340 C341 1.287 . S
C341 C340 1.287 . S
C341 C342 1.524 . S
C341 H344 0.999 . S
C342 H312 0.950 . S
C342 C341 1.524 . S
C342 C343 1.415 . S
C343 H313 0.950 . S
C343 C338 1.363 . S
C343 C342 1.415 . S
H344 C341 0.999 . S
H345 C326 0.913 . S
H346 C364 0.951 . S
H347 C366 0.951 . S
H348 C368 0.950 . S
H349 C369 0.950 . S
H350 C371 0.950 . S
H351 C374 0.950 . S
H352 C375 0.950 . S
H353 C377 0.950 . S
H354 C378 0.950 . S
H355 C379 0.951 . S
H356 C381 0.950 . S
H357 C383 0.950 . S
H358 C384 0.950 . S
H359 C386 0.950 . S
H360 C389 0.950 . S
H361 C390 0.950 . S
H362 C392 0.950 . S
H363 C393 0.950 . S
C364 H346 0.951 . S
C364 C365 1.367 . S
C364 C366 1.388 . S
C365 C364 1.367 . S
C365 C369 1.384 1_565 S
C366 H347 0.951 . S
C366 C364 1.388 . S
C366 C367 1.366 . S
C367 C366 1.366 . S
C367 C368 1.413 1_565 S
C367 C370 1.498 . S
C368 H348 0.950 . S
C368 C367 1.413 1_545 S
C368 C369 1.374 . S
C369 H349 0.950 . S
C369 C365 1.384 1_545 S
C369 C368 1.374 . S
C370 C367 1.498 . S
C370 C371 1.392 . S
C370 C372 1.374 1_565 S
C371 H350 0.950 . S
C371 C370 1.392 . S
C371 C387 1.377 . S
C372 C370 1.374 1_545 S
C372 C373 1.524 . S
C372 C386 1.377 . S
C373 C372 1.524 . S
C373 C374 1.397 . S
C373 C378 1.363 . S
C374 H351 0.950 . S
C374 C373 1.397 . S
C374 C375 1.334 . S
C375 H352 0.950 . S
C375 C374 1.334 . S
C375 C376 1.287 . S
C376 C375 1.287 . S
C376 C377 1.524 . S
C376 H395 0.913 . S
C377 H353 0.950 . S
C377 C376 1.524 . S
C377 C378 1.415 . S
C378 H354 0.950 . S
C378 C373 1.363 . S
C378 C377 1.415 . S
C379 H355 0.951 . S
C379 C380 1.366 . S
C379 C381 1.388 . S
C380 C379 1.366 . S
C380 C384 1.385 . S
C381 H356 0.950 . S
C381 C379 1.388 . S
C381 C382 1.366 . S
C382 C381 1.366 . S
C382 C383 1.414 . S
C382 C385 1.499 . S
C383 H357 0.950 . S
C383 C382 1.414 . S
C383 C384 1.374 . S
C384 H358 0.950 . S
C384 C380 1.385 . S
C384 C383 1.374 . S
C385 C382 1.499 . S
C385 C386 1.373 1_565 S
C385 C387 1.389 . S
C386 H359 0.950 . S
C386 C372 1.377 . S
C386 C385 1.373 1_545 S
C387 C371 1.377 . S
C387 C385 1.389 . S
C387 C388 1.524 . S
C388 C387 1.524 . S
C388 C389 1.397 . S
C388 C393 1.363 . S
C389 H360 0.950 . S
C389 C388 1.397 . S
C389 C390 1.334 . S
C390 H361 0.950 . S
C390 C389 1.334 . S
C390 C391 1.287 . S
C391 C390 1.287 . S
C391 C392 1.524 . S
C391 H394 0.999 . S
C392 H362 0.950 . S
C392 C391 1.524 . S
C392 C393 1.415 . S
C393 H363 0.950 . S
C393 C388 1.363 . S
C393 C392 1.415 . S
H394 C391 0.999 . S
H395 C376 0.913 . S
H396 C414 0.951 . S
H397 C416 0.951 . S
H398 C418 0.950 . S
H399 C419 0.950 . S
H400 C421 0.950 . S
H401 C424 0.950 . S
H402 C425 0.950 . S
H403 C427 0.950 . S
H404 C428 0.950 . S
H405 C429 0.951 . S
H406 C431 0.951 . S
H407 C433 0.950 . S
H408 C434 0.950 . S
H409 C436 0.950 . S
H410 C439 0.950 . S
H411 C440 0.950 . S
H412 C442 0.950 . S
H413 C443 0.950 . S
C414 H396 0.951 . S
C414 C415 1.366 1_455 S
C414 C416 1.388 . S
C415 C414 1.366 1_655 S
C415 C419 1.385 . S
C416 H397 0.951 . S
C416 C414 1.388 . S
C416 C417 1.366 1_455 S
C417 C416 1.366 1_655 S
C417 C418 1.414 . S
C417 C420 1.499 . S
C418 H398 0.950 . S
C418 C417 1.414 . S
C418 C419 1.374 . S
C419 H399 0.950 . S
C419 C415 1.385 . S
C419 C418 1.374 . S
C420 C417 1.499 . S
C420 C421 1.373 . S
C420 C422 1.389 1_655 S
C421 H400 0.950 . S
C421 C420 1.373 . S
C421 C437 1.377 . S
C422 C420 1.389 1_455 S
C422 C423 1.524 . S
C422 C436 1.377 . S
C423 C422 1.524 . S
C423 C424 1.397 . S
C423 C428 1.363 . S
C424 H401 0.950 . S
C424 C423 1.397 . S
C424 C425 1.334 . S
C425 H402 0.950 . S
C425 C424 1.334 . S
C425 C426 1.287 . S
C426 C425 1.287 . S
C426 C427 1.524 . S
C426 H445 0.913 . S
C427 H403 0.950 . S
C427 C426 1.524 . S
C427 C428 1.415 . S
C428 H404 0.950 . S
C428 C423 1.363 . S
C428 C427 1.415 . S
C429 H405 0.951 . S
C429 C430 1.366 . S
C429 C431 1.388 . S
C430 C429 1.366 . S
C430 C434 1.385 1_655 S
C431 H406 0.951 . S
C431 C429 1.388 . S
C431 C432 1.366 . S
C432 C431 1.366 . S
C432 C433 1.414 1_655 S
C432 C435 1.499 . S
C433 H407 0.950 . S
C433 C432 1.414 1_455 S
C433 C434 1.374 . S
C434 H408 0.950 . S
C434 C430 1.385 1_455 S
C434 C433 1.374 . S
C435 C432 1.499 . S
C435 C436 1.373 1_655 S
C435 C437 1.389 . S
C436 H409 0.950 . S
C436 C422 1.377 . S
C436 C435 1.373 1_455 S
C437 C421 1.377 . S
C437 C435 1.389 . S
C437 C438 1.524 . S
C438 C437 1.524 . S
C438 C439 1.397 . S
C438 C443 1.363 . S
C439 H410 0.950 . S
C439 C438 1.397 . S
C439 C440 1.334 . S
C440 H411 0.950 . S
C440 C439 1.334 . S
C440 C441 1.287 . S
C441 C440 1.287 . S
C441 C442 1.524 . S
C441 H444 0.999 . S
C442 H412 0.950 . S
C442 C441 1.524 . S
C442 C443 1.415 . S
C443 H413 0.950 . S
C443 C438 1.363 . S
C443 C442 1.415 . S
H444 C441 0.999 . S
H445 C426 0.913 . S
H446 C464 0.951 . S
H447 C466 0.951 . S
H448 C468 0.950 . S
H449 C469 0.950 . S
H450 C471 0.950 . S
H451 C474 0.950 . S
H452 C475 0.950 . S
H453 C477 0.950 . S
H454 C478 0.950 . S
H455 C479 0.951 1_545 S
H456 C481 0.946 1_545 S
H457 C483 0.950 . S
H458 C484 0.950 . S
H459 C486 0.950 . S
H460 C489 0.950 . S
H461 C490 0.950 . S
H462 C492 0.950 . S
H463 C493 0.950 . S
C464 H446 0.951 . S
C464 C465 1.372 . S
C464 C466 1.388 . S
C465 C464 1.372 . S
C465 C469 1.379 1_565 S
C466 H447 0.951 . S
C466 C464 1.388 . S
C466 C467 1.366 . S
C467 C466 1.366 . S
C467 C468 1.414 1_565 S
C467 C470 1.499 . S
C468 H448 0.950 . S
C468 C467 1.414 1_545 S
C468 C469 1.374 . S
C469 H449 0.950 . S
C469 C465 1.379 1_545 S
C469 C468 1.374 . S
C470 C467 1.499 . S
C470 C471 1.373 . S
C470 C472 1.389 1_565 S
C471 H450 0.950 . S
C471 C470 1.373 . S
C471 C487 1.377 . S
C472 C470 1.389 1_545 S
C472 C473 1.524 . S
C472 C486 1.377 . S
C473 C472 1.524 . S
C473 C474 1.397 . S
C473 C478 1.363 . S
C474 H451 0.950 . S
C474 C473 1.397 . S
C474 C475 1.334 . S
C475 H452 0.950 . S
C475 C474 1.334 . S
C475 C476 1.287 . S
C476 C475 1.287 . S
C476 C477 1.524 . S
C476 H495 0.913 . S
C477 H453 0.950 . S
C477 C476 1.524 . S
C477 C478 1.415 . S
C478 H454 0.950 . S
C478 C473 1.363 . S
C478 C477 1.415 . S
C479 H455 0.951 1_565 S
C479 C480 1.366 . S
C479 C481 1.388 . S
C480 C479 1.366 . S
C480 C484 1.385 . S
C481 H456 0.946 1_565 S
C481 C479 1.388 . S
C481 C482 1.371 . S
C482 C481 1.371 . S
C482 C483 1.414 . S
C482 C485 1.499 . S
C483 H457 0.950 . S
C483 C482 1.414 . S
C483 C484 1.374 . S
C484 H458 0.950 . S
C484 C480 1.385 . S
C484 C483 1.374 . S
C485 C482 1.499 . S
C485 C486 1.373 1_565 S
C485 C487 1.389 . S
C486 H459 0.950 . S
C486 C472 1.377 . S
C486 C485 1.373 1_545 S
C487 C471 1.377 . S
C487 C485 1.389 . S
C487 C488 1.524 . S
C488 C487 1.524 . S
C488 C489 1.397 . S
C488 C493 1.363 . S
C489 H460 0.950 . S
C489 C488 1.397 . S
C489 C490 1.334 . S
C490 H461 0.950 . S
C490 C489 1.334 . S
C490 C491 1.287 . S
C491 C490 1.287 . S
C491 C492 1.524 . S
C491 H494 0.999 . S
C492 H462 0.950 . S
C492 C491 1.524 . S
C492 C493 1.415 . S
C493 H463 0.950 . S
C493 C488 1.363 . S
C493 C492 1.415 . S
H494 C491 0.999 . S
H495 C476 0.913 . S
H496 C514 0.951 . S
H497 C516 0.951 . S
H498 C518 0.950 . S
H499 C519 0.950 . S
H500 C521 0.950 1_655 S
H501 C524 0.950 . S
H502 C525 0.950 . S
H503 C527 0.950 . S
H504 C528 0.950 1_655 S
H505 C529 0.951 . S
H506 C531 0.951 . S
H507 C533 0.950 . S
H508 C534 0.950 . S
H509 C536 0.950 . S
H510 C539 0.950 . S
H511 C540 0.950 . S
H512 C542 0.950 1_455 S
H513 C543 0.950 . S
C514 H496 0.951 . S
C514 C515 1.366 1_655 S
C514 C516 1.388 . S
C515 C514 1.366 1_455 S
C515 C519 1.385 . S
C516 H497 0.951 . S
C516 C514 1.388 . S
C516 C517 1.366 1_655 S
C517 C516 1.366 1_455 S
C517 C518 1.414 . S
C517 C520 1.499 . S
C518 H498 0.950 . S
C518 C517 1.414 . S
C518 C519 1.374 . S
C519 H499 0.950 . S
C519 C515 1.385 . S
C519 C518 1.374 . S
C520 C517 1.499 . S
C520 C521 1.373 . S
C520 C522 1.389 . S
C521 H500 0.950 1_455 S
C521 C520 1.373 . S
C521 C537 1.377 1_455 S
C522 C520 1.389 . S
C522 C523 1.524 . S
C522 C536 1.377 . S
C523 C522 1.524 . S
C523 C524 1.397 . S
C523 C528 1.363 . S
C524 H501 0.950 . S
C524 C523 1.397 . S
C524 C525 1.334 . S
C525 H502 0.950 . S
C525 C524 1.334 . S
C525 C526 1.287 . S
C526 C525 1.287 . S
C526 C527 1.524 . S
C526 H545 0.913 . S
C527 H503 0.950 . S
C527 C526 1.524 . S
C527 C528 1.415 . S
C528 H504 0.950 1_455 S
C528 C523 1.363 . S
C528 C527 1.415 . S
C529 H505 0.951 . S
C529 C530 1.366 . S
C529 C531 1.388 . S
C530 C529 1.366 . S
C530 C534 1.385 1_455 S
C531 H506 0.951 . S
C531 C529 1.388 . S
C531 C532 1.366 . S
C532 C531 1.366 . S
C532 C533 1.414 1_455 S
C532 C535 1.499 . S
C533 H507 0.950 . S
C533 C532 1.414 1_655 S
C533 C534 1.374 . S
C534 H508 0.950 . S
C534 C530 1.385 1_655 S
C534 C533 1.374 . S
C535 C532 1.499 . S
C535 C536 1.373 . S
C535 C537 1.389 1_455 S
C536 H509 0.950 . S
C536 C522 1.377 . S
C536 C535 1.373 . S
C537 C521 1.377 1_655 S
C537 C535 1.389 1_655 S
C537 C538 1.524 . S
C538 C537 1.524 . S
C538 C539 1.397 . S
C538 C543 1.363 1_655 S
C539 H510 0.950 . S
C539 C538 1.397 . S
C539 C540 1.334 . S
C540 H511 0.950 . S
C540 C539 1.334 . S
C540 C541 1.287 . S
C541 C540 1.287 . S
C541 C542 1.524 . S
C541 H544 0.999 . S
C542 H512 0.950 1_655 S
C542 C541 1.524 . S
C542 C543 1.415 1_655 S
C543 H513 0.950 . S
C543 C538 1.363 1_455 S
C543 C542 1.415 1_455 S
H544 C541 0.999 . S
H545 C526 0.913 . S
H546 C564 0.951 . S
H547 C566 0.951 . S
H548 C568 0.950 . S
H549 C569 0.950 . S
H550 C571 0.950 . S
H551 C574 0.950 . S
H552 C575 0.950 . S
H553 C577 0.950 . S
H554 C578 0.950 . S
H555 C579 0.951 . S
H556 C581 0.951 . S
H557 C583 0.950 . S
H558 C584 0.950 . S
H559 C586 0.950 . S
H560 C589 0.950 . S
H561 C590 0.950 . S
H562 C592 0.950 . S
H563 C593 0.950 . S
C564 H546 0.951 . S
C564 C565 1.348 1_565 S
C564 C566 1.388 . S
C565 C564 1.348 1_545 S
C565 C569 1.403 . S
C566 H547 0.951 . S
C566 C564 1.388 . S
C566 C567 1.366 1_565 S
C567 C566 1.366 1_545 S
C567 C568 1.414 . S
C567 C570 1.499 . S
C568 H548 0.950 . S
C568 C567 1.414 . S
C568 C569 1.374 . S
C569 H549 0.950 . S
C569 C565 1.403 . S
C569 C568 1.374 . S
C570 C567 1.499 . S
C570 C571 1.373 . S
C570 C572 1.389 1_545 S
C571 H550 0.950 . S
C571 C570 1.373 . S
C571 C587 1.377 . S
C572 C570 1.389 1_565 S
C572 C573 1.524 . S
C572 C586 1.377 . S
C573 C572 1.524 . S
C573 C574 1.397 . S
C573 C578 1.363 . S
C574 H551 0.950 . S
C574 C573 1.397 . S
C574 C575 1.334 . S
C575 H552 0.950 . S
C575 C574 1.334 . S
C575 C576 1.287 . S
C576 C575 1.287 . S
C576 C577 1.524 . S
C576 H595 0.913 . S
C577 H553 0.950 . S
C577 C576 1.524 . S
C577 C578 1.415 . S
C578 H554 0.950 . S
C578 C573 1.363 . S
C578 C577 1.415 . S
C579 H555 0.951 . S
C579 C580 1.366 . S
C579 C581 1.388 . S
C580 C579 1.366 . S
C580 C584 1.385 1_545 S
C581 H556 0.951 . S
C581 C579 1.388 . S
C581 C582 1.366 . S
C582 C581 1.366 . S
C582 C583 1.414 1_545 S
C582 C585 1.499 . S
C583 H557 0.950 . S
C583 C582 1.414 1_565 S
C583 C584 1.374 . S
C584 H558 0.950 . S
C584 C580 1.385 1_565 S
C584 C583 1.374 . S
C585 C582 1.499 . S
C585 C586 1.373 1_545 S
C585 C587 1.389 . S
C586 H559 0.950 . S
C586 C572 1.377 . S
C586 C585 1.373 1_565 S
C587 C571 1.377 . S
C587 C585 1.389 . S
C587 C588 1.524 . S
C588 C587 1.524 . S
C588 C589 1.397 . S
C588 C593 1.363 . S
C589 H560 0.950 . S
C589 C588 1.397 . S
C589 C590 1.334 . S
C590 H561 0.950 . S
C590 C589 1.334 . S
C590 C591 1.287 . S
C591 C590 1.287 . S
C591 C592 1.524 . S
C591 H594 0.999 . S
C592 H562 0.950 . S
C592 C591 1.524 . S
C592 C593 1.415 . S
C593 H563 0.950 . S
C593 C588 1.363 . S
C593 C592 1.415 . S
H594 C591 0.999 . S
H595 C576 0.913 . S
H596 C614 0.951 . S
H597 C616 0.951 . S
H598 C618 0.950 . S
H599 C619 0.950 . S
H600 C621 0.950 . S
H601 C624 0.950 . S
H602 C625 0.950 . S
H603 C627 0.950 . S
H604 C628 0.950 . S
H605 C629 0.951 . S
H606 C631 0.951 . S
H607 C633 0.950 . S
H608 C634 0.950 . S
H609 C636 0.950 . S
H610 C639 0.950 . S
H611 C640 0.950 . S
H612 C642 0.950 . S
H613 C643 0.950 . S
C614 H596 0.951 . S
C614 C615 1.366 . S
C614 C616 1.388 . S
C615 C614 1.366 . S
C615 C619 1.385 . S
C616 H597 0.951 . S
C616 C614 1.388 . S
C616 C617 1.366 . S
C617 C616 1.366 . S
C617 C618 1.414 . S
C617 C620 1.499 . S
C618 H598 0.950 . S
C618 C617 1.414 . S
C618 C619 1.374 . S
C619 H599 0.950 . S
C619 C615 1.385 . S
C619 C618 1.374 . S
C620 C617 1.499 . S
C620 C621 1.373 1_554 S
C620 C622 1.389 . S
C621 H600 0.950 . S
C621 C620 1.373 1_556 S
C621 C637 1.377 . S
C622 C620 1.389 . S
C622 C623 1.524 . S
C622 C636 1.377 . S
C623 C622 1.524 . S
C623 C624 1.397 . S
C623 C628 1.363 . S
C624 H601 0.950 . S
C624 C623 1.397 . S
C624 C625 1.334 . S
C625 H602 0.950 . S
C625 C624 1.334 . S
C625 C626 1.287 . S
C626 C625 1.287 . S
C626 C627 1.524 . S
C626 H645 0.913 . S
C627 H603 0.950 . S
C627 C626 1.524 . S
C627 C628 1.415 . S
C628 H604 0.950 . S
C628 C623 1.363 . S
C628 C627 1.415 . S
C629 H605 0.951 . S
C629 C630 1.366 . S
C629 C631 1.388 . S
C630 C629 1.366 . S
C630 C634 1.385 . S
C631 H606 0.951 . S
C631 C629 1.388 . S
C631 C632 1.366 . S
C632 C631 1.366 . S
C632 C633 1.414 . S
C632 C635 1.499 . S
C633 H607 0.950 . S
C633 C632 1.414 . S
C633 C634 1.374 . S
C634 H608 0.950 . S
C634 C630 1.385 . S
C634 C633 1.374 . S
C635 C632 1.499 . S
C635 C636 1.373 . S
C635 C637 1.389 1_554 S
C636 H609 0.950 . S
C636 C622 1.377 . S
C636 C635 1.373 . S
C637 C621 1.377 . S
C637 C635 1.389 1_556 S
C637 C638 1.524 . S
C638 C637 1.524 . S
C638 C639 1.397 . S
C638 C643 1.363 . S
C639 H610 0.950 . S
C639 C638 1.397 . S
C639 C640 1.334 . S
C640 H611 0.950 . S
C640 C639 1.334 . S
C640 C641 1.287 . S
C641 C640 1.287 . S
C641 C642 1.524 . S
C641 H644 0.999 . S
C642 H612 0.950 . S
C642 C641 1.524 . S
C642 C643 1.415 . S
C643 H613 0.950 . S
C643 C638 1.363 . S
C643 C642 1.415 . S
H644 C641 0.999 . S
H645 C626 0.913 . S
H646 C664 0.951 . S
H647 C666 0.951 . S
H648 C668 0.950 1_556 S
H649 C669 0.950 1_556 S
H650 C671 0.950 . S
H651 C674 0.950 . S
H652 C675 0.950 . S
H653 C677 0.950 . S
H654 C678 0.950 . S
H655 C679 0.946 1_556 S
H656 C681 0.949 . S
H657 C683 0.950 . S
H658 C684 0.950 . S
H659 C686 0.950 . S
H660 C689 0.950 . S
H661 C690 0.950 . S
H662 C692 0.950 . S
H663 C693 0.950 . S
C664 H646 0.951 . S
C664 C665 1.366 . S
C664 C666 1.388 . S
C665 C664 1.366 . S
C665 C669 1.385 . S
C666 H647 0.951 . S
C666 C664 1.388 . S
C666 C667 1.366 . S
C667 C666 1.366 . S
C667 C668 1.414 . S
C667 C670 1.499 . S
C668 H648 0.950 1_554 S
C668 C667 1.414 . S
C668 C669 1.374 . S
C669 H649 0.950 1_554 S
C669 C665 1.385 . S
C669 C668 1.374 . S
C670 C667 1.499 . S
C670 C671 1.373 1_554 S
C670 C672 1.389 . S
C671 H650 0.950 . S
C671 C670 1.373 1_556 S
C671 C687 1.377 . S
C672 C670 1.389 . S
C672 C673 1.524 . S
C672 C686 1.377 . S
C673 C672 1.524 . S
C673 C674 1.397 . S
C673 C678 1.363 . S
C674 H651 0.950 . S
C674 C673 1.397 . S
C674 C675 1.334 . S
C675 H652 0.950 . S
C675 C674 1.334 . S
C675 C676 1.287 . S
C676 C675 1.287 . S
C676 C677 1.524 . S
C676 H695 0.913 . S
C677 H653 0.950 . S
C677 C676 1.524 . S
C677 C678 1.415 . S
C678 H654 0.950 . S
C678 C673 1.363 . S
C678 C677 1.415 . S
C679 H655 0.946 1_554 S
C679 C680 1.371 . S
C679 C681 1.388 1_554 S
C680 C679 1.371 . S
C680 C684 1.385 . S
C681 H656 0.949 . S
C681 C679 1.388 1_556 S
C681 C682 1.367 1_556 S
C682 C681 1.367 1_554 S
C682 C683 1.414 . S
C682 C685 1.499 . S
C683 H657 0.950 . S
C683 C682 1.414 . S
C683 C684 1.374 . S
C684 H658 0.950 . S
C684 C680 1.385 . S
C684 C683 1.374 . S
C685 C682 1.499 . S
C685 C686 1.373 . S
C685 C687 1.389 1_554 S
C686 H659 0.950 . S
C686 C672 1.377 . S
C686 C685 1.373 . S
C687 C671 1.377 . S
C687 C685 1.389 1_556 S
C687 C688 1.524 . S
C688 C687 1.524 . S
C688 C689 1.397 . S
C688 C693 1.363 . S
C689 H660 0.950 . S
C689 C688 1.397 . S
C689 C690 1.334 . S
C690 H661 0.950 . S
C690 C689 1.334 . S
C690 C691 1.287 . S
C691 C690 1.287 . S
C691 C692 1.524 . S
C691 H694 0.999 . S
C692 H662 0.950 . S
C692 C691 1.524 . S
C692 C693 1.415 . S
C693 H663 0.950 . S
C693 C688 1.363 . S
C693 C692 1.415 . S
H694 C691 0.999 . S
H695 C676 0.913 . S
H696 C714 0.951 1_556 S
H697 C716 0.951 1_556 S
H698 C718 0.950 . S
H699 C719 0.950 . S
H700 C721 0.950 . S
H701 C724 0.950 . S
H702 C725 0.950 . S
H703 C727 0.950 . S
H704 C728 0.950 . S
H705 C729 0.951 . S
H706 C731 0.951 . S
H707 C733 0.950 1_556 S
H708 C734 0.950 1_556 S
H709 C736 0.950 . S
H710 C739 0.950 . S
H711 C740 0.950 . S
H712 C742 0.950 . S
H713 C743 0.950 . S
C714 H696 0.951 1_554 S
C714 C715 1.366 . S
C714 C716 1.388 . S
C715 C714 1.366 . S
C715 C719 1.385 . S
C716 H697 0.951 1_554 S
C716 C714 1.388 . S
C716 C717 1.366 . S
C717 C716 1.366 . S
C717 C718 1.414 . S
C717 C720 1.499 . S
C718 H698 0.950 . S
C718 C717 1.414 . S
C718 C719 1.374 . S
C719 H699 0.950 . S
C719 C715 1.385 . S
C719 C718 1.374 . S
C720 C717 1.499 . S
C720 C721 1.373 . S
C720 C722 1.389 . S
C721 H700 0.950 . S
C721 C720 1.373 . S
C721 C737 1.377 . S
C722 C720 1.389 . S
C722 C723 1.524 . S
C722 C736 1.377 . S
C723 C722 1.524 . S
C723 C724 1.397 . S
C723 C728 1.363 . S
C724 H701 0.950 . S
C724 C723 1.397 . S
C724 C725 1.334 . S
C725 H702 0.950 . S
C725 C724 1.334 . S
C725 C726 1.287 . S
C726 C725 1.287 . S
C726 C727 1.524 . S
C726 H745 0.913 . S
C727 H703 0.950 . S
C727 C726 1.524 . S
C727 C728 1.415 . S
C728 H704 0.950 . S
C728 C723 1.363 . S
C728 C727 1.415 . S
C729 H705 0.951 . S
C729 C730 1.366 . S
C729 C731 1.388 . S
C730 C729 1.366 . S
C730 C734 1.385 . S
C731 H706 0.951 . S
C731 C729 1.388 . S
C731 C732 1.366 . S
C732 C731 1.366 . S
C732 C733 1.414 . S
C732 C735 1.499 . S
C733 H707 0.950 1_554 S
C733 C732 1.414 . S
C733 C734 1.374 . S
C734 H708 0.950 1_554 S
C734 C730 1.385 . S
C734 C733 1.374 . S
C735 C732 1.499 . S
C735 C736 1.373 . S
C735 C737 1.389 . S
C736 H709 0.950 . S
C736 C722 1.377 . S
C736 C735 1.373 . S
C737 C721 1.377 . S
C737 C735 1.389 . S
C737 C738 1.524 1_554 S
C738 C737 1.524 1_556 S
C738 C739 1.397 . S
C738 C743 1.363 1_556 S
C739 H710 0.950 . S
C739 C738 1.397 . S
C739 C740 1.334 . S
C740 H711 0.950 . S
C740 C739 1.334 . S
C740 C741 1.287 . S
C741 C740 1.287 . S
C741 C742 1.524 . S
C741 H744 0.999 . S
C742 H712 0.950 . S
C742 C741 1.524 . S
C742 C743 1.415 1_556 S
C743 H713 0.950 . S
C743 C738 1.363 1_554 S
C743 C742 1.415 1_554 S
H744 C741 0.999 . S
H745 C726 0.913 . S
H746 C764 0.951 . S
H747 C766 0.951 . S
H748 C768 0.950 . S
H749 C769 0.950 . S
H750 C771 0.950 . S
H751 C774 0.950 . S
H752 C775 0.950 . S
H753 C777 0.950 . S
H754 C778 0.950 . S
H755 C779 0.951 . S
H756 C781 0.951 . S
H757 C783 0.950 . S
H758 C784 0.950 . S
H759 C786 0.950 1_556 S
H760 C789 0.950 . S
H761 C790 0.950 . S
H762 C792 0.950 . S
H763 C793 0.950 . S
C764 H746 0.951 . S
C764 C765 1.366 . S
C764 C766 1.388 . S
C765 C764 1.366 . S
C765 C769 1.385 . S
C766 H747 0.951 . S
C766 C764 1.388 . S
C766 C767 1.366 . S
C767 C766 1.366 . S
C767 C768 1.414 . S
C767 C770 1.499 . S
C768 H748 0.950 . S
C768 C767 1.414 . S
C768 C769 1.374 . S
C769 H749 0.950 . S
C769 C765 1.385 . S
C769 C768 1.374 . S
C770 C767 1.499 . S
C770 C771 1.373 . S
C770 C772 1.389 . S
C771 H750 0.950 . S
C771 C770 1.373 . S
C771 C787 1.377 . S
C772 C770 1.389 . S
C772 C773 1.524 1_554 S
C772 C786 1.377 . S
C773 C772 1.524 1_556 S
C773 C774 1.397 . S
C773 C778 1.363 . S
C774 H751 0.950 . S
C774 C773 1.397 . S
C774 C775 1.334 . S
C775 H752 0.950 . S
C775 C774 1.334 . S
C775 C776 1.287 . S
C776 C775 1.287 . S
C776 C777 1.524 . S
C776 H795 0.913 . S
C777 H753 0.950 . S
C777 C776 1.524 . S
C777 C778 1.415 . S
C778 H754 0.950 . S
C778 C773 1.363 . S
C778 C777 1.415 . S
C779 H755 0.951 . S
C779 C780 1.366 . S
C779 C781 1.388 . S
C780 C779 1.366 . S
C780 C784 1.385 . S
C781 H756 0.951 . S
C781 C779 1.388 . S
C781 C782 1.366 . S
C782 C781 1.366 . S
C782 C783 1.414 . S
C782 C785 1.499 . S
C783 H757 0.950 . S
C783 C782 1.414 . S
C783 C784 1.374 . S
C784 H758 0.950 . S
C784 C780 1.385 . S
C784 C783 1.374 . S
C785 C782 1.499 . S
C785 C786 1.373 . S
C785 C787 1.389 . S
C786 H759 0.950 1_554 S
C786 C772 1.377 . S
C786 C785 1.373 . S
C787 C771 1.377 . S
C787 C785 1.389 . S
C787 C788 1.524 . S
C788 C787 1.524 . S
C788 C789 1.397 . S
C788 C793 1.363 . S
C789 H760 0.950 . S
C789 C788 1.397 . S
C789 C790 1.334 . S
C790 H761 0.950 . S
C790 C789 1.334 . S
C790 C791 1.287 . S
C791 C790 1.287 . S
C791 C792 1.524 . S
C791 H794 0.999 . S
C792 H762 0.950 . S
C792 C791 1.524 . S
C792 C793 1.415 . S
C793 H763 0.950 . S
C793 C788 1.363 . S
C793 C792 1.415 . S
H794 C791 0.999 . S
H795 C776 0.913 . S
C230 C180 2.053 . S
C215 C36 2.135 1_455 S
C280 C176 1.302 . S
C265 C78 1.363 1_545 S
C330 C186 2.051 1_655 S
C315 C30 2.115 . S
C380 C170 1.302 1_565 S
C365 C69 1.372 1_565 S
C415 C21 2.274 1_655 S
C430 C162 2.170 . S
C480 C194 1.417 . S
C465 C93 1.497 1_565 S
C515 C45 2.251 . S
C530 C148 2.169 . S
C565 C84 1.512 1_545 S
C580 C192 1.420 . S
C615 C132 0.944 . S
C630 C174 0.932 . S
C665 C126 0.955 . S
C680 C189 0.939 . S
C730 C183 0.943 . S
C715 C141 0.956 . S
C780 C178 0.934 . S
C765 C117 0.946 . S
