# Generated by pormake.
# Topology pyr, (3,6)-cn, num edge types: 1
# Building blocks:
#     Node 0, Type 0, BuildingBlock: PAMTOO_clean_linker_0, # of connection points: 3
#     Node 1, Type 0, BuildingBlock: PAMTOO_clean_linker_0, # of connection points: 3
#     Node 2, Type 0, BuildingBlock: PAMTOO_clean_linker_0, # of connection points: 3
#     Node 3, Type 0, BuildingBlock: PAMTOO_clean_linker_0, # of connection points: 3
#     Node 4, Type 0, BuildingBlock: PAMTOO_clean_linker_0, # of connection points: 3
#     Node 5, Type 0, BuildingBlock: PAMTOO_clean_linker_0, # of connection points: 3
#     Node 6, Type 0, BuildingBlock: PAMTOO_clean_linker_0, # of connection points: 3
#     Node 7, Type 0, BuildingBlock: PAMTOO_clean_linker_0, # of connection points: 3
#     Node 8, Type 1, BuildingBlock: BETFEN_clean_sbu_0, # of connection points: 6
#     Node 9, Type 1, BuildingBlock: BETFEN_clean_sbu_0, # of connection points: 6
#     Node 10, Type 1, BuildingBlock: BETFEN_clean_sbu_0, # of connection points: 6
#     Node 11, Type 1, BuildingBlock: BETFEN_clean_sbu_0, # of connection points: 6
#     Edge 12, Type (0, 1), BuildingBlock: EZIPEK_clean_linker_0, # of connection points: 2
#     Edge 13, Type (0, 1), BuildingBlock: EZIPEK_clean_linker_0, # of connection points: 2
#     Edge 14, Type (0, 1), BuildingBlock: EZIPEK_clean_linker_0, # of connection points: 2
#     Edge 15, Type (0, 1), BuildingBlock: EZIPEK_clean_linker_0, # of connection points: 2
#     Edge 16, Type (0, 1), BuildingBlock: EZIPEK_clean_linker_0, # of connection points: 2
#     Edge 17, Type (0, 1), BuildingBlock: EZIPEK_clean_linker_0, # of connection points: 2
#     Edge 18, Type (0, 1), BuildingBlock: EZIPEK_clean_linker_0, # of connection points: 2
#     Edge 19, Type (0, 1), BuildingBlock: EZIPEK_clean_linker_0, # of connection points: 2
#     Edge 20, Type (0, 1), BuildingBlock: EZIPEK_clean_linker_0, # of connection points: 2
#     Edge 21, Type (0, 1), BuildingBlock: EZIPEK_clean_linker_0, # of connection points: 2
#     Edge 22, Type (0, 1), BuildingBlock: EZIPEK_clean_linker_0, # of connection points: 2
#     Edge 23, Type (0, 1), BuildingBlock: EZIPEK_clean_linker_0, # of connection points: 2
#     Edge 24, Type (0, 1), BuildingBlock: EZIPEK_clean_linker_0, # of connection points: 2
#     Edge 25, Type (0, 1), BuildingBlock: EZIPEK_clean_linker_0, # of connection points: 2
#     Edge 26, Type (0, 1), BuildingBlock: EZIPEK_clean_linker_0, # of connection points: 2
#     Edge 27, Type (0, 1), BuildingBlock: EZIPEK_clean_linker_0, # of connection points: 2
#     Edge 28, Type (0, 1), BuildingBlock: EZIPEK_clean_linker_0, # of connection points: 2
#     Edge 29, Type (0, 1), BuildingBlock: EZIPEK_clean_linker_0, # of connection points: 2
#     Edge 30, Type (0, 1), BuildingBlock: EZIPEK_clean_linker_0, # of connection points: 2
#     Edge 31, Type (0, 1), BuildingBlock: EZIPEK_clean_linker_0, # of connection points: 2
#     Edge 32, Type (0, 1), BuildingBlock: EZIPEK_clean_linker_0, # of connection points: 2
#     Edge 33, Type (0, 1), BuildingBlock: EZIPEK_clean_linker_0, # of connection points: 2
#     Edge 34, Type (0, 1), BuildingBlock: EZIPEK_clean_linker_0, # of connection points: 2
#     Edge 35, Type (0, 1), BuildingBlock: EZIPEK_clean_linker_0, # of connection points: 2
# Relax obj value: 0.250
# Max RMSD: 0.329
# Mean RMSD: 0.154
data_MOF--net-pyr--node1-BETFEN_clean_sbu_0--node2-PAMTOO_clean_linker_0--edge1-EZIPEK_clean_linker_0
_symmetry_space_group_name_H-M    P1
_symmetry_Int_Tables_number       1
_symmetry_cell_setting            triclinic
loop_
_symmetry_equiv_pos_as_xyz
'x, y, z'
_cell_length_a     26.383098
_cell_length_b     31.027838
_cell_length_c     27.597748
_cell_angle_alpha  92.617559
_cell_angle_beta   102.58709
_cell_angle_gamma 119.04104
loop_
_atom_site_label
_atom_site_type_symbol
_atom_site_fract_x
_atom_site_fract_y
_atom_site_fract_z
_atom_type_partial_charge
H0 H 0.38134 0.33958 0.31167 0.0
H1 H 0.51098 0.29882 0.29213 0.0
H2 H 0.5336 0.44046 0.26194 0.0
H3 H 0.64114 0.40125 0.22725 0.0
C4 C 0.59237 0.38036 0.22502 0.0
O5 O 0.58484 0.38625 0.27228 0.0
H6 H 0.5723 0.3989 0.20112 0.0
C7 C 0.42315 0.34846 0.30293 0.0
C8 C 0.45361 0.3924 0.28413 0.0
C9 C 0.44374 0.31433 0.30727 0.0
C10 C 0.49605 0.32556 0.29263 0.0
C11 C 0.53036 0.37246 0.2795 0.0
C12 C 0.50888 0.40569 0.27501 0.0
H13 H 0.28426 0.90759 0.75823 0.0
H14 H 0.2584 0.84222 0.6071 0.0
H15 H 0.36079 0.81738 0.73549 0.0
H16 H 0.41623 0.84426 0.66957 0.0
C17 C 0.38335 0.82097 0.63289 0.0
O18 O 0.32472 0.79992 0.63678 0.0
H19 H 0.39048 0.84804 0.60657 0.0
C20 C 0.28889 0.88286 0.73275 0.0
C21 C 0.32303 0.8614 0.75208 0.0
C22 C 0.26454 0.87574 0.68059 0.0
C23 C 0.27526 0.84671 0.64756 0.0
C24 C 0.30926 0.82456 0.6673 0.0
C25 C 0.33138 0.83116 0.71969 0.0
H26 H 0.71022 0.26855 0.93231 0.0
H27 H 0.54651 0.24333 0.82824 0.0
H28 H 0.71968 0.36415 0.82352 0.0
H29 H 0.61414 0.38058 0.82284 0.0
C30 C 0.59175 0.35762 0.78432 0.0
O31 O 0.6044 0.31918 0.78018 0.0
H32 H 0.54296 0.34086 0.78132 0.0
C33 C 0.68706 0.27813 0.90098 0.0
C34 C 0.72065 0.31999 0.88101 0.0
C35 C 0.62427 0.24984 0.883 0.0
C36 C 0.59516 0.26425 0.84265 0.0
C37 C 0.62993 0.30556 0.8205 0.0
C38 C 0.69268 0.33261 0.83982 0.0
H39 H 0.88475 0.71527 0.44414 0.0
H40 H 0.88044 0.58965 0.36601 0.0
H41 H 0.99756 0.74012 0.34448 0.0
H42 H 0.89971 0.62095 0.24957 0.0
C43 C 0.93122 0.61026 0.2712 0.0
O44 O 0.96371 0.64353 0.31788 0.0
H45 H 0.90074 0.57286 0.27911 0.0
C46 C 0.89995 0.70054 0.41767 0.0
C47 C 0.94403 0.73411 0.39641 0.0
C48 C 0.8762 0.6487 0.40722 0.0
C49 C 0.89742 0.62952 0.37333 0.0
C50 C 0.94013 0.66183 0.3485 0.0
C51 C 0.9632 0.71448 0.3609 0.0
H52 H 0.71537 0.76263 0.81035 0.0
H53 H 0.57623 0.64392 0.86003 0.0
H54 H 0.71246 0.62365 0.81892 0.0
H55 H 0.60728 0.54679 0.91596 0.0
C56 C 0.64065 0.58197 0.90649 0.0
O57 O 0.61936 0.58418 0.85678 0.0
H58 H 0.6407 0.61011 0.93268 0.0
C59 C 0.69373 0.72452 0.81753 0.0
C60 C 0.71811 0.69442 0.80959 0.0
C61 C 0.64375 0.70722 0.83686 0.0
C62 C 0.61507 0.6578 0.84519 0.0
C63 C 0.64065 0.62811 0.83982 0.0
C64 C 0.69197 0.64626 0.82178 0.0
H65 H 0.84047 0.11161 0.34321 0.0
H66 H 0.78811 0.22205 0.34788 0.0
H67 H 0.87335 0.19659 0.48605 0.0
H68 H 0.74002 0.19422 0.46463 0.0
C69 C 0.75603 0.2255 0.44337 0.0
O70 O 0.81594 0.2425 0.44594 0.0
H71 H 0.72716 0.20837 0.40396 0.0
C72 C 0.84016 0.14162 0.36464 0.0
C73 C 0.86434 0.1536 0.41725 0.0
C74 C 0.81246 0.16628 0.33996 0.0
C75 C 0.8114 0.20448 0.36736 0.0
C76 C 0.83066 0.214 0.42013 0.0
C77 C 0.85808 0.18909 0.44522 0.0
H78 H 0.43441 0.74892 0.14425 0.0
H79 H 0.43177 0.65035 0.24894 0.0
H80 H 0.58767 0.79812 0.27329 0.0
H81 H 0.49088 0.71649 0.35367 0.0
C82 C 0.53167 0.71385 0.35504 0.0
O83 O 0.5397 0.71016 0.30713 0.0
H84 H 0.56918 0.75038 0.37785 0.0
C85 C 0.4568 0.74191 0.17825 0.0
C86 C 0.51435 0.77944 0.20645 0.0
C87 C 0.42663 0.69608 0.19394 0.0
C88 C 0.45487 0.68635 0.23758 0.0
C89 C 0.51279 0.72256 0.26655 0.0
C90 C 0.54284 0.76975 0.25117 0.0
H91 H 0.11272 0.2857 0.80874 0.0
H92 H 0.2287 0.44074 0.79891 0.0
H93 H 0.21345 0.32292 0.69818 0.0
H94 H 0.34065 0.41817 0.75846 0.0
C95 C 0.32649 0.44041 0.73452 0.0
O96 O 0.26409 0.41932 0.72205 0.0
H97 H 0.34804 0.47706 0.75988 0.0
C98 C 0.14465 0.31362 0.79199 0.0
C99 C 0.16203 0.29776 0.75203 0.0
C100 C 0.16839 0.36577 0.80986 0.0
C101 C 0.21031 0.40109 0.78675 0.0
C102 C 0.22727 0.38565 0.74693 0.0
C103 C 0.20222 0.33447 0.72993 0.0
Pr104 Pr 1.0244 0.99892 0.59659 0.0
Pr105 Pr 0.09792 0.03868 0.5454 0.0
C106 C 0.93582 0.94923 0.64083 0.0
C107 C 0.91471 0.90484 0.66446 0.0
C108 C 0.85994 0.88588 0.67665 0.0
C109 C 0.84203 0.84662 0.70361 0.0
C110 C 0.87892 0.82621 0.71886 0.0
C111 C 0.93336 0.84453 0.70595 0.0
C112 C 0.95111 0.88369 0.6786 0.0
C113 C 0.10045 0.10105 0.64534 0.0
C114 C 0.13796 0.98428 0.62642 0.0
C115 C 0.18769 0.08004 0.50099 0.0
C116 C 0.22675 0.11715 0.47556 0.0
C117 C 0.27092 0.11024 0.46245 0.0
C118 C 0.3046 0.14063 0.43268 0.0
C119 C 0.29493 0.17873 0.41607 0.0
C120 C 0.25142 0.18647 0.43 0.0
C121 C 0.21693 0.15537 0.45945 0.0
C122 C 1.01935 0.93619 0.49754 0.0
C123 C 0.98664 0.05348 0.51169 0.0
O124 O 0.92704 0.94212 0.59201 0.0
O125 O 0.98917 0.98624 0.66485 0.0
O126 O 0.07745 0.08632 0.59795 0.0
O127 O 0.09197 0.06288 0.66709 0.0
O128 O 0.16034 0.02845 0.61348 0.0
O129 O 0.07917 0.95808 0.61688 0.0
O130 O 0.19703 0.0899 0.54969 0.0
O131 O 0.13124 0.05123 0.47617 0.0
O132 O 0.0446 0.95156 0.54445 0.0
O133 O 1.02792 0.97417 0.47555 0.0
O134 O 0.96355 1.01093 0.52827 0.0
O135 O 0.0454 0.07993 0.52166 0.0
H136 H 0.83165 0.90203 0.66616 0.0
H137 H 0.7996 0.8324 0.7131 0.0
H138 H 0.96192 0.82877 0.71723 0.0
H139 H 0.99361 0.89813 0.66931 0.0
H140 H 0.27829 0.08038 0.47417 0.0
H141 H 0.33816 0.13437 0.42236 0.0
H142 H 0.24381 0.21598 0.4176 0.0
H143 H 0.18218 0.16048 0.46886 0.0
Pr144 Pr 0.51236 1.01265 0.05918 0.0
Pr145 Pr 0.61141 1.01828 0.03415 0.0
C146 C 0.43736 0.02051 0.10611 0.0
C147 C 0.44308 0.06901 0.1201 0.0
C148 C 0.48306 0.10952 0.10143 0.0
C149 C 0.49929 0.15801 0.11979 0.0
C150 C 0.47585 0.16702 0.15726 0.0
C151 C 0.43346 0.12661 0.17464 0.0
C152 C 0.41745 0.07746 0.1563 0.0
C153 C 0.548 0.08267 0.99367 0.0
C154 C 0.64898 0.08366 0.1396 0.0
C155 C 0.68888 0.02105 0.98341 0.0
C156 C 0.6822 0.98167 0.94655 0.0
C157 C 0.72736 0.96918 0.95308 0.0
C158 C 0.71489 0.92374 0.92756 0.0
C159 C 0.65685 0.89013 0.89598 0.0
C160 C 0.61321 0.90424 0.88667 0.0
C161 C 0.62622 0.95008 0.91111 0.0
C162 C 0.57379 0.94721 0.09793 0.0
C163 C 0.47575 0.94139 0.95631 0.0
O164 O 0.48359 1.01752 0.12999 0.0
O165 O 0.42181 1.00471 0.0577 0.0
O166 O 0.58447 0.07963 0.03028 0.0
O167 O 0.49328 0.05032 0.9921 0.0
O168 O 0.67116 0.0823 0.10199 0.0
O169 O 0.59045 0.05855 0.13334 0.0
O170 O 0.65372 0.03936 0.96943 0.0
O171 O 0.69189 1.01158 0.02921 0.0
O172 O 0.53774 0.95045 0.06114 0.0
O173 O 0.62924 0.98137 0.10264 0.0
O174 O 0.45226 0.94789 0.99122 0.0
O175 O 0.53414 0.96157 0.96525 0.0
H176 H 0.50426 0.10388 0.07434 0.0
H177 H 0.53206 0.1888 0.10612 0.0
H178 H 0.41506 0.13334 0.20364 0.0
H179 H 0.38721 0.04659 0.17157 0.0
H180 H 0.77069 0.99282 0.98044 0.0
H181 H 0.749 0.91314 0.93528 0.0
H182 H 0.56815 0.87868 0.86267 0.0
H183 H 0.59092 0.95901 0.90474 0.0
Pr184 Pr 0.61639 0.57664 0.59242 0.0
Pr185 Pr 0.54753 0.48393 0.51276 0.0
C186 C 0.6358 0.66483 0.63624 0.0
C187 C 0.5998 0.68919 0.62408 0.0
C188 C 0.61809 0.73564 0.65191 0.0
C189 C 0.57902 0.7547 0.64549 0.0
C190 C 0.52116 0.7273 0.6115 0.0
C191 C 0.50413 0.68201 0.58185 0.0
C192 C 0.5433 0.66321 0.58796 0.0
C193 C 0.62448 0.50179 0.64266 0.0
C194 C 0.473 0.49061 0.58967 0.0
C195 C 0.53006 0.40522 0.45282 0.0
C196 C 0.5736 0.38772 0.4561 0.0
C197 C 0.59043 0.3799 0.41338 0.0
C198 C 0.62798 0.35968 0.41548 0.0
C199 C 0.6524 0.35006 0.46149 0.0
C200 C 0.64255 0.36497 0.50556 0.0
C201 C 0.60294 0.38291 0.5027 0.0
C202 C 0.53432 0.56465 0.48158 0.0
C203 C 0.69424 0.5647 0.51982 0.0
O204 O 0.66326 0.66178 0.60334 0.0
O205 O 0.60899 0.62307 0.65295 0.0
O206 O 0.59694 0.49509 0.59651 0.0
O207 O 0.65905 0.54964 0.6591 0.0
O208 O 0.47371 0.45892 0.55661 0.0
O209 O 0.51607 0.53835 0.60024 0.0
O210 O 0.50505 0.39992 0.48984 0.0
O211 O 0.54669 0.4485 0.43875 0.0
O212 O 0.5811 0.56574 0.50649 0.0
O213 O 0.49027 0.51808 0.47056 0.0
O214 O 0.69611 0.59635 0.55501 0.0
O215 O 0.64711 0.51886 0.50465 0.0
H216 H 0.66132 0.75604 0.68011 0.0
H217 H 0.59278 0.78968 0.66865 0.0
H218 H 0.4596 0.66021 0.55567 0.0
H219 H 0.52836 0.6272 0.56616 0.0
H220 H 0.57299 0.3881 0.37833 0.0
H221 H 0.63658 0.35034 0.38102 0.0
H222 H 0.66343 0.36061 0.54195 0.0
H223 H 0.59586 0.39322 0.5371 0.0
Pr224 Pr 0.06728 0.53384 1.01623 0.0
Pr225 Pr 0.07148 0.46219 0.08226 0.0
C226 C 1.03245 0.58503 0.95522 0.0
C227 C 0.98107 0.5933 0.94687 0.0
C228 C 0.96832 0.61142 0.98747 0.0
C229 C 0.9142 0.61118 0.98042 0.0
C230 C 0.87225 0.59292 0.93278 0.0
C231 C 0.88594 0.57687 0.8917 0.0
C232 C 0.94005 0.57702 0.89874 0.0
C233 C 0.18481 0.56182 0.07016 0.0
C234 C 1.02821 0.53959 0.12532 0.0
C235 C 0.10205 0.42129 0.15905 0.0
C236 C 0.16023 0.43069 0.18978 0.0
C237 C 0.165 0.39065 0.20664 0.0
C238 C 0.22166 0.39666 0.22704 0.0
C239 C 0.27393 0.44271 0.23058 0.0
C240 C 0.26927 0.48379 0.21676 0.0
C241 C 0.21246 0.47779 0.19645 0.0
C242 C 0.96261 0.41992 1.00876 0.0
C243 C 0.10282 0.45323 0.97023 0.0
O244 O 1.01778 0.53868 0.94102 0.0
O245 O 0.07419 0.60667 0.9984 0.0
O246 O 0.13971 0.54452 0.08719 0.0
O247 O 0.17057 0.56788 1.02399 0.0
O248 O 1.03135 0.49846 0.13047 0.0
O249 O 0.04187 0.56141 0.08583 0.0
O250 O 0.09022 0.45705 0.16508 0.0
O251 O 0.08807 0.40202 0.11177 0.0
O252 O 0.99107 0.46411 0.03274 0.0
O253 O 0.9865 0.39418 1.02699 0.0
O254 O 0.07852 0.48139 0.9587 0.0
O255 O 0.11369 0.44657 1.0181 0.0
H256 H 0.99912 0.62422 1.02498 0.0
H257 H 0.90443 0.62436 1.01224 0.0
H258 H 0.85412 0.56314 0.85458 0.0
H259 H 0.94892 0.56271 0.86699 0.0
H260 H 0.12514 0.3541 0.20145 0.0
H261 H 0.22487 0.3646 0.23734 0.0
H262 H 0.30937 0.51936 0.21889 0.0
H263 H 0.20944 0.50908 0.18338 0.0
C264 C 0.3451 0.23749 0.30421 0.0
C265 C 0.40827 0.26762 0.32678 0.0
C266 C 0.39511 0.24138 0.40709 0.0
C267 C 0.33231 0.21085 0.38514 0.0
N268 N 0.24845 0.17061 0.31009 0.0
N269 N 0.49104 0.27312 0.39039 0.0
C270 C 0.30736 0.20596 0.33269 0.0
C271 C 0.43293 0.26233 0.37548 0.0
N272 N 0.32159 0.2398 0.25581 0.0
N273 N 0.41893 0.25097 0.45821 0.0
H274 H 0.51761 0.28112 0.36566 0.0
H275 H 0.50917 0.2661 0.42451 0.0
H276 H 0.39246 0.23714 0.4831 0.0
H277 H 0.46427 0.27679 0.47577 0.0
H278 H 0.27561 0.22392 0.23894 0.0
H279 H 0.34901 0.25929 0.23307 0.0
H280 H 0.2292 0.16205 0.27125 0.0
H281 H 0.21968 0.14713 0.32994 0.0
C282 C 0.41912 0.92438 0.81348 0.0
C283 C 0.36216 0.8802 0.80427 0.0
C284 C 0.382 0.87288 0.89351 0.0
C285 C 0.43774 0.91871 0.90363 0.0
N286 N 0.51224 0.98676 0.8723 0.0
N287 N 0.28493 0.81529 0.83406 0.0
C288 C 0.45723 0.94394 0.86335 0.0
C289 C 0.34235 0.85513 0.84385 0.0
N290 N 0.43492 0.94962 0.77474 0.0
N291 N 0.3688 0.84484 0.93063 0.0
H292 H 0.25539 0.80074 0.79781 0.0
H293 H 0.26498 0.79886 0.86199 0.0
H294 H 0.39814 0.85542 0.96674 0.0
H295 H 0.33171 0.80887 0.92459 0.0
H296 H 0.47104 0.98586 0.77951 0.0
H297 H 0.40994 0.9357 0.73705 0.0
H298 H 0.53464 0.99988 0.84477 0.0
H299 H 0.53656 1.01015 0.90716 0.0
C300 C 0.56946 0.37418 0.69327 0.0
C301 C 0.60753 0.39072 0.74342 0.0
C302 C 0.64992 0.4771 0.7286 0.0
C303 C 0.61705 0.46177 0.67624 0.0
N304 N 0.54966 0.38989 0.60857 0.0
N305 N 0.70168 0.45664 0.79869 0.0
C306 C 0.57865 0.4086 0.65839 0.0
C307 C 0.65405 0.44152 0.75732 0.0
N308 N 0.52268 0.32579 0.67906 0.0
N309 N 0.67158 0.52417 0.75357 0.0
H310 H 0.70697 0.4317 0.82026 0.0
H311 H 0.73874 0.49303 0.80775 0.0
H312 H 0.65578 0.54728 0.73985 0.0
H313 H 0.69447 0.53577 0.79188 0.0
H314 H 0.48773 0.31329 0.64602 0.0
H315 H 0.51689 0.29862 0.70164 0.0
H316 H 0.52937 0.35215 0.5931 0.0
H317 H 0.54672 0.4116 0.58212 0.0
C318 C 1.00134 0.57666 0.25246 0.0
C319 C 0.96883 0.60196 0.23765 0.0
C320 C 0.97116 0.5827 0.14947 0.0
C321 C 1.00843 0.56159 0.16456 0.0
N322 N 0.07189 0.5524 0.2359 0.0
N323 N 0.94403 0.64355 0.17266 0.0
C324 C 1.02715 0.56256 0.21769 0.0
C325 C 0.96061 0.60955 0.18644 0.0
N326 N 1.00685 0.56487 0.29961 0.0
N327 N 0.94173 0.57442 0.09977 0.0
H328 H 0.94137 0.66719 0.1988 0.0
H329 H 0.94156 0.65305 0.1368 0.0
H330 H 0.94332 0.55164 0.07192 0.0
H331 H 0.90945 0.58464 0.08752 0.0
H332 H 1.0233 0.54132 0.31066 0.0
H333 H 0.99129 0.57597 0.32654 0.0
H334 H 0.09123 0.55684 0.27431 0.0
H335 H 0.0947 0.54541 0.21308 0.0
C336 C 0.51896 0.30129 0.15952 0.0
C337 C 0.56589 0.32502 0.20523 0.0
C338 C 0.55021 0.24295 0.22261 0.0
C339 C 0.50002 0.21978 0.17915 0.0
N340 N 0.42909 0.225 0.11196 0.0
N341 N 0.63378 0.32019 0.27638 0.0
C342 C 0.48196 0.2485 0.14961 0.0
C343 C 0.58387 0.29622 0.23569 0.0
N344 N 0.51287 0.32859 0.12353 0.0
N345 N 0.56527 0.21367 0.25098 0.0
H346 H 0.66144 0.35901 0.28533 0.0
H347 H 0.65005 0.30252 0.30089 0.0
H348 H 0.54126 0.17467 0.2423 0.0
H349 H 0.60019 0.22694 0.28394 0.0
H350 H 0.48225 0.31252 0.08794 0.0
H351 H 0.54412 0.36626 0.12583 0.0
H352 H 0.41023 0.24405 0.09242 0.0
H353 H 0.40099 0.18612 0.10384 0.0
C354 C 0.1788 0.89062 0.6783 0.0
C355 C 0.23084 0.90173 0.66247 0.0
C356 C 0.22207 0.96668 0.62027 0.0
C357 C 0.17465 0.95994 0.64193 0.0
N358 N 0.12113 0.92416 0.70377 0.0
N359 N 0.31068 0.95926 0.62892 0.0
C360 C 0.15681 0.92433 0.67447 0.0
C361 C 0.25514 0.94243 0.63661 0.0
N362 N 0.14992 0.84752 0.69666 0.0
N363 N 0.23382 0.99336 0.58205 0.0
H364 H 0.3368 0.94304 0.6406 0.0
H365 H 0.33315 0.99232 0.61531 0.0
H366 H 0.20908 1.00913 0.56544 0.0
H367 H 0.26381 0.99456 0.56228 0.0
H368 H 0.10863 0.83546 0.70444 0.0
H369 H 0.16406 0.82138 0.69901 0.0
H370 H 0.11081 0.9015 0.73103 0.0
H371 H 0.10818 0.95095 0.70532 0.0
C372 C 0.82761 0.34194 0.89561 0.0
C373 C 0.78494 0.3525 0.90759 0.0
C374 C 0.85772 0.40604 0.98695 0.0
C375 C 0.90128 0.39655 0.97424 0.0
N376 N 0.92675 0.35327 0.91697 0.0
N377 N 0.76056 0.40036 0.95937 0.0
C378 C 0.88603 0.36416 0.92873 0.0
C379 C 0.80075 0.38688 0.95142 0.0
N380 N 0.81357 0.31019 0.85272 0.0
N381 N 0.86835 0.42888 0.03466 0.0
H382 H 0.71762 0.38572 0.93475 0.0
H383 H 0.77132 0.42911 0.98775 0.0
H384 H 0.90664 0.43878 0.06379 0.0
H385 H 0.83634 0.4328 0.0476 0.0
H386 H 0.7718 0.2926 0.82567 0.0
H387 H 0.7718 0.2926 0.82567 0.0
H388 H 0.91649 0.32931 0.88397 0.0
H389 H 0.97065 0.3681 0.93955 0.0
C390 C 0.76725 0.59457 0.40902 0.0
C391 C 0.82959 0.61696 0.43407 0.0
C392 C 0.80298 0.5991 0.51496 0.0
C393 C 0.7415 0.58218 0.49072 0.0
N394 N 0.66674 0.57059 0.41488 0.0
N395 N 0.90752 0.64223 0.51164 0.0
C396 C 0.72401 0.58114 0.43766 0.0
C397 C 0.84745 0.61932 0.48728 0.0
N398 N 0.7492 0.58645 0.3575 0.0
N399 N 0.81865 0.59453 0.56418 0.0
H400 H 0.94064 0.65413 0.49239 0.0
H401 H 0.92478 0.65141 0.55071 0.0
H402 H 0.7875 0.58027 0.58527 0.0
H403 H 0.86116 0.60119 0.58306 0.0
H404 H 0.70428 0.56528 0.33637 0.0
H405 H 0.77947 0.59697 0.33556 0.0
H406 H 0.65299 0.575 0.37806 0.0
H407 H 0.63396 0.56189 0.43399 0.0
C408 C 0.38492 0.40473 0.21629 0.0
C409 C 0.42181 0.4193 0.26668 0.0
C410 C 0.3713 0.46163 0.29086 0.0
C411 C 0.33225 0.44456 0.2413 0.0
N412 N 0.31365 0.41515 0.1534 0.0
N413 N 0.4643 0.47447 0.34651 0.0
C414 C 0.34345 0.42151 0.20274 0.0
C415 C 0.41978 0.45227 0.30224 0.0
N416 N 0.38672 0.37228 0.18237 0.0
N417 N 0.36002 0.48414 0.32745 0.0
H418 H 0.50056 0.46835 0.35479 0.0
H419 H 0.46864 0.50274 0.37184 0.0
H420 H 0.3258 0.49277 0.31977 0.0
H421 H 0.38248 0.49178 0.36558 0.0
H422 H 0.35539 0.35523 0.1472 0.0
H423 H 0.4176 0.36002 0.19034 0.0
H424 H 0.3238 0.40266 0.1232 0.0
H425 H 0.28263 0.42697 0.14251 0.0
C426 C 0.55982 0.15646 0.884 0.0
C427 C 0.59267 0.20682 0.9095 0.0
C428 C 0.59608 0.17666 0.99109 0.0
C429 C 0.56185 0.12601 0.96533 0.0
N430 N 0.49011 0.07079 0.88704 0.0
N431 N 0.62466 0.26337 0.98694 0.0
C432 C 0.53696 0.11679 0.91182 0.0
C433 C 0.60529 0.21632 0.96304 0.0
N434 N 0.55271 0.1458 0.83357 0.0
N435 N 0.61898 0.18735 0.04235 0.0
H436 H 0.62969 0.29251 0.96724 0.0
H437 H 0.62943 0.27212 1.02515 0.0
H438 H 0.6084 0.16025 0.06526 0.0
H439 H 0.65072 0.22338 0.06212 0.0
H440 H 0.53512 0.10954 0.81464 0.0
H441 H 0.56912 0.17326 0.8116 0.0
H442 H 0.46734 0.0641 0.84905 0.0
H443 H 0.46941 0.04068 0.90491 0.0
C444 C 1.02314 0.81638 0.45631 0.0
C445 C 0.97007 0.78963 0.41532 0.0
C446 C 0.94815 0.85794 0.42913 0.0
C447 C 1.0027 0.88576 0.46877 0.0
N448 N 0.09998 0.89641 0.50881 0.0
N449 N 0.88813 0.7897 0.35681 0.0
C450 C 0.04235 0.86628 0.47921 0.0
C451 C 0.9347 0.81217 0.3999 0.0
N452 N 0.05453 0.79353 0.47474 0.0
N453 N 0.90755 0.87396 0.42081 0.0
H454 H 0.87749 0.75655 0.33495 0.0
H455 H 0.86387 0.80602 0.34025 0.0
H456 H 0.91526 0.90662 0.4414 0.0
H457 H 0.86423 0.85296 0.39652 0.0
H458 H 0.08878 0.80823 0.50847 0.0
H459 H 0.04358 0.75815 0.45807 0.0
H460 H 0.13274 0.88617 0.51422 0.0
H461 H 0.11715 0.93389 0.52301 0.0
C462 C 0.40976 0.75348 0.65502 0.0
C463 C 0.39997 0.78186 0.61884 0.0
C464 C 0.46162 0.76699 0.57288 0.0
C465 C 0.47595 0.74293 0.61157 0.0
N466 N 0.45167 0.70103 0.68167 0.0
N467 N 0.39438 0.79559 0.5333 0.0
C468 C 0.44632 0.73247 0.65037 0.0
C469 C 0.41896 0.78229 0.57447 0.0
N470 N 0.38406 0.74667 0.69391 0.0
N471 N 0.49029 0.77678 0.53561 0.0
H472 H 0.35949 0.80283 0.53237 0.0
H473 H 0.40281 0.79322 0.49842 0.0
H474 H 0.52087 0.76528 0.5328 0.0
H475 H 0.48684 0.7991 0.50953 0.0
H476 H 0.39776 0.7353 0.72667 0.0
H477 H 0.34674 0.75045 0.69201 0.0
H478 H 0.42737 0.68811 0.70803 0.0
H479 H 0.47744 0.68452 0.67889 0.0
C480 C 0.7735 0.7015 0.74337 0.0
C481 C 0.77412 0.71724 0.79263 0.0
C482 C 0.86673 0.7968 0.80004 0.0
C483 C 0.85821 0.78492 0.74772 0.0
N484 N 0.81531 0.72453 0.67169 0.0
N485 N 0.82776 0.76948 0.87276 0.0
C486 C 0.81641 0.73599 0.72052 0.0
C487 C 0.8243 0.7617 0.82287 0.0
N488 N 0.73105 0.65449 0.71812 0.0
N489 N 0.91257 0.84281 0.82607 0.0
H490 H 0.86273 0.80012 0.89941 0.0
H491 H 0.86273 0.80012 0.89941 0.0
H492 H 0.94459 0.86782 0.80949 0.0
H493 H 0.9195 0.85656 0.8634 0.0
H494 H 0.7313 0.63933 0.68398 0.0
H495 H 0.69644 0.62978 0.73226 0.0
H496 H 0.78331 0.69124 0.64714 0.0
H497 H 0.84787 0.74922 0.65538 0.0
C498 C 0.78762 0.17046 0.24776 0.0
C499 C 0.77221 0.14493 0.28819 0.0
C500 C 0.67846 0.07805 0.23103 0.0
C501 C 0.69024 0.10602 0.1912 0.0
N502 N 0.75083 0.18377 0.16472 0.0
N503 N 0.69581 0.08151 0.32088 0.0
C504 C 0.74354 0.15367 0.20034 0.0
C505 C 0.71546 0.10094 0.28065 0.0
N506 N 0.84443 0.21025 0.25457 0.0
N507 N 0.63454 0.02862 0.2217 0.0
H508 H 0.72114 0.09692 0.35833 0.0
H509 H 0.65177 0.05289 0.31716 0.0
H510 H 0.60765 1.00843 0.186 0.0
H511 H 0.62938 1.00586 0.24903 0.0
H512 H 0.86019 0.22726 0.22514 0.0
H513 H 0.87744 0.22345 0.28908 0.0
H514 H 0.78625 0.22064 0.17115 0.0
H515 H 0.71816 0.17374 0.13054 0.0
C516 C 0.58645 0.67431 0.4064 0.0
C517 C 0.53114 0.67129 0.38266 0.0
C518 C 0.47919 0.60207 0.42748 0.0
C519 C 0.5347 0.60522 0.45184 0.0
N520 N 0.6439 0.65923 0.47691 0.0
N521 N 0.4226 0.6212 0.35896 0.0
C522 C 0.58915 0.64513 0.44451 0.0
C523 C 0.47685 0.63192 0.38982 0.0
N524 N 0.63686 0.70451 0.39174 0.0
N525 N 0.42936 0.57398 0.44371 0.0
H526 H 0.41876 0.64015 0.3295 0.0
H527 H 0.38182 0.58974 0.35852 0.0
H528 H 0.43047 0.55591 0.47451 0.0
H529 H 0.38913 0.57394 0.43131 0.0
H530 H 0.67645 0.70325 0.40226 0.0
H531 H 0.63731 0.72682 0.36454 0.0
H532 H 0.68407 0.69051 0.47586 0.0
H533 H 0.64916 0.64577 0.51009 0.0
C534 C 0.10272 0.39721 0.83787 0.0
C535 C 0.14851 0.38452 0.85103 0.0
C536 C 0.16938 0.42214 0.94015 0.0
C537 C 0.11865 0.42955 0.92853 0.0
N538 N 1.03058 0.41403 0.86273 0.0
N539 N 0.21873 0.37805 0.91765 0.0
C540 C 0.0838 0.41444 0.87633 0.0
C541 C 0.17918 0.39449 0.90313 0.0
N542 N 0.07741 0.39368 0.788 0.0
N543 N 0.21207 0.44553 0.98524 0.0
H544 H 0.22834 0.35934 0.89193 0.0
H545 H 0.2376 0.37898 0.9553 0.0
H546 H 0.21148 0.4714 1.00993 0.0
H547 H 0.25237 0.4453 0.99466 0.0
H548 H 0.05039 0.40891 0.77548 0.0
H549 H 0.08716 0.37894 0.75896 0.0
H550 H 0.99996 0.39741 0.82718 0.0
H551 H 1.01326 0.42546 0.88751 0.0
C552 C 0.61208 0.76887 0.81386 0.0
C553 C 0.62627 0.74372 0.85142 0.0
C554 C 0.63992 0.80764 0.91652 0.0
C555 C 0.63952 0.83768 0.87943 0.0
N556 N 0.61937 0.84513 0.79133 0.0
N557 N 0.6551 0.74016 0.94016 0.0
C558 C 0.62307 0.81757 0.82769 0.0
C559 C 0.63923 0.76269 0.90326 0.0
N560 N 0.59066 0.74791 0.76412 0.0
N561 N 0.63974 0.82165 0.96419 0.0
H562 H 0.65239 0.70588 0.93305 0.0
H563 H 0.67386 0.75685 0.97811 0.0
H564 H 0.63879 0.85388 0.97492 0.0
H565 H 0.63397 0.79872 0.99137 0.0
H566 H 0.58027 0.71169 0.75089 0.0
H567 H 0.58027 0.71169 0.75089 0.0
H568 H 0.60746 0.83111 0.75297 0.0
H569 H 0.6296 0.88207 0.79948 0.0
C570 C 0.86842 0.09334 0.47448 0.0
C571 C 0.89426 0.12714 0.44222 0.0
C572 C 0.96821 0.10063 0.44576 0.0
C573 C 0.94941 0.07354 0.48469 0.0
N574 N 0.8857 0.05104 0.54186 0.0
N575 N 0.97659 0.17017 0.40511 0.0
C576 C 0.90036 0.07141 0.50058 0.0
C577 C 0.94653 0.13293 0.43023 0.0
N578 N 0.81259 0.08084 0.47907 0.0
N579 N 1.00488 0.09397 0.42197 0.0
H580 H 0.96314 0.19564 0.39421 0.0
H581 H 1.01824 0.17889 0.39985 0.0
H582 H 1.01814 0.06774 0.42952 0.0
H583 H 1.01577 0.10981 0.39055 0.0
H584 H 0.78897 0.0523 0.49781 0.0
H585 H 0.78735 0.09545 0.46004 0.0
H586 H 0.85508 0.05418 0.55788 0.0
H587 H 0.90758 0.03518 0.5633 0.0
C588 C 0.31915 0.67346 0.16179 0.0
C589 C 0.36356 0.65953 0.16542 0.0
C590 C 0.28689 0.57745 0.11504 0.0
C591 C 0.24569 0.59477 0.10409 0.0
N592 N 0.2236 0.66126 0.11336 0.0
N593 N 0.3918 0.60068 0.13923 0.0
C594 C 0.26206 0.64341 0.1264 0.0
C595 C 0.3481 0.61208 0.14041 0.0
N596 N 0.33083 0.71441 0.19338 0.0
N597 N 0.26708 0.5277 0.10312 0.0
H598 H 0.43749 0.62553 0.15637 0.0
H599 H 0.38319 0.56838 0.11731 0.0
H600 H 0.22142 0.50113 0.08869 0.0
H601 H 0.29449 0.5124 0.11353 0.0
H602 H 0.29811 0.72345 0.19566 0.0
H603 H 0.37155 0.73641 0.22115 0.0
H604 H 0.23619 0.69847 0.12423 0.0
H605 H 0.18055 0.64005 0.0885 0.0
C606 C 0.3656 0.491 0.66515 0.0
C607 C 0.35168 0.44755 0.68776 0.0
C608 C 0.41119 0.4291 0.64172 0.0
C609 C 0.42567 0.47253 0.61888 0.0
N610 N 0.40236 0.53684 0.59919 0.0
N611 N 0.34338 0.36646 0.68147 0.0
C612 C 0.39855 0.50113 0.6278 0.0
C613 C 0.36833 0.4137 0.67048 0.0
N614 N 0.34815 0.52318 0.67988 0.0
N615 N 0.44183 0.40441 0.63991 0.0
H616 H 0.3118 0.35344 0.70207 0.0
H617 H 0.34889 0.33853 0.66531 0.0
H618 H 0.47586 0.41553 0.62223 0.0
H619 H 0.43831 0.37644 0.66084 0.0
H620 H 0.36404 0.55886 0.67082 0.0
H621 H 0.31915 0.51482 0.70283 0.0
H622 H 0.37966 0.55631 0.6005 0.0
H623 H 0.42335 0.54344 0.57017 0.0
C624 C 0.7035 0.54093 0.90417 0.0
C625 C 0.70164 0.5854 0.91472 0.0
C626 C 0.8117 0.63505 0.92978 0.0
C627 C 0.81357 0.5903 0.92616 0.0
N628 N 0.76275 0.50058 0.91977 0.0
N629 N 0.75687 0.67575 0.94327 0.0
C630 C 0.7599 0.54318 0.9164 0.0
C631 C 0.75658 0.63275 0.92951 0.0
N632 N 0.65187 0.49683 0.8807 0.0
N633 N 0.86215 0.67971 0.93133 0.0
H634 H 0.71841 0.67798 0.94023 0.0
H635 H 0.79619 0.70945 0.96079 0.0
H636 H 0.90317 0.68282 0.93071 0.0
H637 H 0.86211 0.71301 0.9285 0.0
H638 H 0.65129 0.46399 0.87003 0.0
H639 H 0.60999 0.49366 0.86673 0.0
H640 H 0.72524 0.46589 0.91826 0.0
H641 H 0.80327 0.5006 0.92867 0.0
C642 C 0.57638 0.83571 0.1529 0.0
C643 C 0.5408 0.82818 0.18707 0.0
C644 C 0.5202 0.89355 0.15763 0.0
C645 C 0.55833 0.90325 0.12529 0.0
N646 N 0.62522 0.88472 0.09342 0.0
N647 N 0.48866 0.85619 0.22915 0.0
C648 C 0.58764 0.87495 0.12377 0.0
C649 C 0.51604 0.85933 0.19167 0.0
N650 N 0.59682 0.80351 0.14646 0.0
N651 N 0.4863 0.91587 0.15474 0.0
H652 H 0.48531 0.83167 0.25459 0.0
H653 H 0.47461 0.88086 0.23815 0.0
H654 H 0.48713 0.93986 0.12947 0.0
H655 H 0.45321 0.90699 0.17351 0.0
H656 H 0.61643 0.80222 0.11797 0.0
H657 H 0.59172 0.77615 0.1687 0.0
H658 H 0.65434 0.87086 0.09541 0.0
H659 H 0.62843 0.90784 0.06659 0.0
C660 C 0.17557 0.22169 0.74682 0.0
C661 C 0.13935 0.24331 0.73052 0.0
C662 C 0.07314 0.16881 0.6625 0.0
C663 C 0.11385 0.15042 0.67447 0.0
N664 N 0.20775 0.16318 0.72656 0.0
N665 N 0.05693 0.23947 0.66844 0.0
C666 C 0.16584 0.17778 0.71662 0.0
C667 C 0.08908 0.21731 0.6871 0.0
N668 N 0.21942 0.24321 0.79165 0.0
N669 N 1.01731 0.13876 0.62981 0.0
H670 H 0.06499 0.27331 0.68666 0.0
H671 H 1.02502 0.22593 0.63339 0.0
H672 H 1.00205 0.10209 0.614 0.0
H673 H 0.98359 0.14791 0.62303 0.0
H674 H 0.24366 0.22709 0.80878 0.0
H675 H 0.22771 0.27517 0.81411 0.0
H676 H 0.24963 0.18412 0.75296 0.0
H677 H 0.2029 0.13207 0.70532 0.0
C678 C 0.75794 0.30822 0.4325 0.0
C679 C 0.74506 0.26734 0.45914 0.0
C680 C 0.67113 0.28055 0.48687 0.0
C681 C 0.6869 0.32343 0.46342 0.0
N682 N 0.76085 0.38716 0.42931 0.0
N683 N 0.70865 0.23114 0.5289 0.0
C684 C 0.73535 0.34026 0.44116 0.0
C685 C 0.70817 0.25903 0.49217 0.0
N686 N 0.78934 0.31581 0.3974 0.0
N687 N 0.61908 0.2581 0.50134 0.0
H688 H 0.7396 0.21897 0.53727 0.0
H689 H 0.68458 0.22666 0.55549 0.0
H690 H 0.58756 0.26969 0.49461 0.0
H691 H 0.60401 0.22426 0.51461 0.0
H692 H 0.79224 0.34088 0.37273 0.0
H693 H 0.80959 0.29558 0.39063 0.0
H694 H 0.79964 0.40257 0.41687 0.0
H695 H 0.74747 0.41262 0.43744 0.0
loop_
_geom_bond_atom_site_label_1
_geom_bond_atom_site_label_2
_geom_bond_distance
_geom_bond_site_symmetry_2
_ccdc_geom_bond_type
H0 C7 0.929 . S
H1 C10 0.930 . S
H2 C12 0.929 . S
H3 C4 0.969 . S
C4 H3 0.969 . S
C4 O5 1.550 . S
C4 H6 0.973 . S
O5 C4 1.550 . S
O5 C11 1.412 . S
H6 C4 0.973 . S
C7 H0 0.929 . S
C7 C8 1.400 . S
C7 C9 1.364 . S
C8 C7 1.400 . S
C8 C12 1.377 . S
C9 C7 1.364 . S
C9 C10 1.374 . S
C10 H1 0.930 . S
C10 C9 1.374 . S
C10 C11 1.383 . S
C11 O5 1.412 . S
C11 C10 1.383 . S
C11 C12 1.394 . S
C12 H2 0.929 . S
C12 C8 1.377 . S
C12 C11 1.394 . S
H13 C20 0.929 . S
H14 C23 0.930 . S
H15 C25 0.929 . S
H16 C17 0.969 . S
C17 H16 0.969 . S
C17 O18 1.550 . S
C17 H19 0.973 . S
O18 C17 1.550 . S
O18 C24 1.412 . S
H19 C17 0.973 . S
C20 H13 0.929 . S
C20 C21 1.400 . S
C20 C22 1.364 . S
C21 C20 1.400 . S
C21 C25 1.377 . S
C22 C20 1.364 . S
C22 C23 1.374 . S
C23 H14 0.930 . S
C23 C22 1.374 . S
C23 C24 1.383 . S
C24 O18 1.412 . S
C24 C23 1.383 . S
C24 C25 1.394 . S
C25 H15 0.929 . S
C25 C21 1.377 . S
C25 C24 1.394 . S
H26 C33 0.929 . S
H27 C36 0.930 . S
H28 C38 0.929 . S
H29 C30 0.969 . S
C30 H29 0.969 . S
C30 O31 1.550 . S
C30 H32 0.973 . S
O31 C30 1.550 . S
O31 C37 1.412 . S
H32 C30 0.973 . S
C33 H26 0.929 . S
C33 C34 1.400 . S
C33 C35 1.364 . S
C34 C33 1.400 . S
C34 C38 1.377 . S
C35 C33 1.364 . S
C35 C36 1.374 . S
C36 H27 0.930 . S
C36 C35 1.374 . S
C36 C37 1.383 . S
C37 O31 1.412 . S
C37 C36 1.383 . S
C37 C38 1.394 . S
C38 H28 0.929 . S
C38 C34 1.377 . S
C38 C37 1.394 . S
H39 C46 0.929 . S
H40 C49 0.930 . S
H41 C51 0.929 . S
H42 C43 0.969 . S
C43 H42 0.969 . S
C43 O44 1.550 . S
C43 H45 0.973 . S
O44 C43 1.550 . S
O44 C50 1.412 . S
H45 C43 0.973 . S
C46 H39 0.929 . S
C46 C47 1.400 . S
C46 C48 1.364 . S
C47 C46 1.400 . S
C47 C51 1.377 . S
C48 C46 1.364 . S
C48 C49 1.374 . S
C49 H40 0.930 . S
C49 C48 1.374 . S
C49 C50 1.383 . S
C50 O44 1.412 . S
C50 C49 1.383 . S
C50 C51 1.394 . S
C51 H41 0.929 . S
C51 C47 1.377 . S
C51 C50 1.394 . S
H52 C59 0.929 . S
H53 C62 0.930 . S
H54 C64 0.929 . S
H55 C56 0.969 . S
C56 H55 0.969 . S
C56 O57 1.550 . S
C56 H58 0.973 . S
O57 C56 1.550 . S
O57 C63 1.412 . S
H58 C56 0.973 . S
C59 H52 0.929 . S
C59 C60 1.400 . S
C59 C61 1.364 . S
C60 C59 1.400 . S
C60 C64 1.377 . S
C61 C59 1.364 . S
C61 C62 1.374 . S
C62 H53 0.930 . S
C62 C61 1.374 . S
C62 C63 1.383 . S
C63 O57 1.412 . S
C63 C62 1.383 . S
C63 C64 1.394 . S
C64 H54 0.929 . S
C64 C60 1.377 . S
C64 C63 1.394 . S
H65 C72 0.929 . S
H66 C75 0.930 . S
H67 C77 0.929 . S
H68 C69 0.969 . S
C69 H68 0.969 . S
C69 O70 1.550 . S
C69 H71 0.973 . S
O70 C69 1.550 . S
O70 C76 1.412 . S
H71 C69 0.973 . S
C72 H65 0.929 . S
C72 C73 1.400 . S
C72 C74 1.364 . S
C73 C72 1.400 . S
C73 C77 1.377 . S
C74 C72 1.364 . S
C74 C75 1.374 . S
C75 H66 0.930 . S
C75 C74 1.374 . S
C75 C76 1.383 . S
C76 O70 1.412 . S
C76 C75 1.383 . S
C76 C77 1.394 . S
C77 H67 0.929 . S
C77 C73 1.377 . S
C77 C76 1.394 . S
H78 C85 0.929 . S
H79 C88 0.930 . S
H80 C90 0.929 . S
H81 C82 0.969 . S
C82 H81 0.969 . S
C82 O83 1.550 . S
C82 H84 0.973 . S
O83 C82 1.550 . S
O83 C89 1.412 . S
H84 C82 0.973 . S
C85 H78 0.929 . S
C85 C86 1.400 . S
C85 C87 1.364 . S
C86 C85 1.400 . S
C86 C90 1.377 . S
C87 C85 1.364 . S
C87 C88 1.374 . S
C88 H79 0.930 . S
C88 C87 1.374 . S
C88 C89 1.383 . S
C89 O83 1.412 . S
C89 C88 1.383 . S
C89 C90 1.394 . S
C90 H80 0.929 . S
C90 C86 1.377 . S
C90 C89 1.394 . S
H91 C98 0.929 . S
H92 C101 0.930 . S
H93 C103 0.929 . S
H94 C95 0.969 . S
C95 H94 0.969 . S
C95 O96 1.550 . S
C95 H97 0.973 . S
O96 C95 1.550 . S
O96 C102 1.412 . S
H97 C95 0.973 . S
C98 H91 0.929 . S
C98 C99 1.400 . S
C98 C100 1.364 . S
C99 C98 1.400 . S
C99 C103 1.377 . S
C100 C98 1.364 . S
C100 C101 1.374 . S
C101 H92 0.930 . S
C101 C100 1.374 . S
C101 C102 1.383 . S
C102 O96 1.412 . S
C102 C101 1.383 . S
C102 C103 1.394 . S
C103 H93 0.929 . S
C103 C99 1.377 . S
C103 C102 1.394 . S
Pr104 C106 2.880 . S
Pr104 O124 2.562 . S
Pr104 O125 2.490 . S
Pr104 O126 2.695 1_665 S
Pr104 O127 2.512 1_665 S
Pr104 O129 2.437 1_655 S
Pr104 O132 2.436 . S
Pr104 O134 2.438 1_565 S
Pr105 C115 2.880 . S
Pr105 O126 2.436 . S
Pr105 O128 2.438 1_545 S
Pr105 O130 2.562 . S
Pr105 O131 2.490 . S
Pr105 O132 2.695 1_445 S
Pr105 O133 2.512 1_545 S
Pr105 O135 2.437 . S
C106 Pr104 2.880 . S
C106 C107 1.491 . S
C106 O124 1.254 . S
C106 O125 1.225 . S
C107 C106 1.491 . S
C107 C108 1.392 . S
C107 C112 1.356 . S
C108 C107 1.392 . S
C108 C109 1.368 . S
C108 H136 0.929 . S
C109 C108 1.368 . S
C109 C110 1.386 . S
C109 H137 0.929 . S
C110 C109 1.386 . S
C110 C111 1.373 . S
C111 C110 1.373 . S
C111 C112 1.409 . S
C111 H138 0.931 . S
C112 C107 1.356 . S
C112 C111 1.409 . S
C112 H139 0.930 . S
C113 O126 1.270 . S
C113 O127 1.248 . S
C114 O128 1.267 . S
C114 O129 1.278 . S
C115 Pr105 2.880 . S
C115 C116 1.491 . S
C115 O130 1.254 . S
C115 O131 1.225 . S
C116 C115 1.491 . S
C116 C117 1.392 . S
C116 C121 1.356 . S
C117 C116 1.392 . S
C117 C118 1.368 . S
C117 H140 0.929 . S
C118 C117 1.368 . S
C118 C119 1.386 . S
C118 H141 0.929 . S
C119 C118 1.386 . S
C119 C120 1.373 . S
C120 C119 1.373 . S
C120 C121 1.409 . S
C120 H142 0.931 . S
C121 C116 1.356 . S
C121 C120 1.409 . S
C121 H143 0.930 . S
C122 O132 1.270 . S
C122 O133 1.248 1_655 S
C123 O134 1.267 . S
C123 O135 1.278 1_655 S
O124 Pr104 2.562 . S
O124 C106 1.254 . S
O125 Pr104 2.490 . S
O125 C106 1.225 . S
O126 Pr104 2.695 1_445 S
O126 Pr105 2.436 . S
O126 C113 1.270 . S
O127 Pr104 2.512 1_445 S
O127 C113 1.248 . S
O128 Pr105 2.438 1_565 S
O128 C114 1.267 . S
O129 Pr104 2.437 1_455 S
O129 C114 1.278 . S
O130 Pr105 2.562 . S
O130 C115 1.254 . S
O131 Pr105 2.490 . S
O131 C115 1.225 . S
O132 Pr104 2.436 . S
O132 Pr105 2.695 1_665 S
O132 C122 1.270 . S
O133 Pr105 2.512 1_565 S
O133 C122 1.248 1_455 S
O134 Pr104 2.438 1_545 S
O134 C123 1.267 . S
O135 Pr105 2.437 . S
O135 C123 1.278 1_455 S
H136 C108 0.929 . S
H137 C109 0.929 . S
H138 C111 0.931 . S
H139 C112 0.930 . S
H140 C117 0.929 . S
H141 C118 0.929 . S
H142 C120 0.931 . S
H143 C121 0.930 . S
Pr144 C146 2.880 . S
Pr144 O164 2.562 . S
Pr144 O165 2.490 . S
Pr144 O166 2.695 1_554 S
Pr144 O167 2.512 1_554 S
Pr144 O169 2.437 . S
Pr144 O172 2.436 1_545 S
Pr144 O174 2.438 1_544 S
Pr145 C155 2.880 1_554 S
Pr145 O166 2.436 1_564 S
Pr145 O168 2.438 1_565 S
Pr145 O170 2.562 1_554 S
Pr145 O171 2.490 1_554 S
Pr145 O172 2.695 . S
Pr145 O173 2.512 . S
Pr145 O175 2.437 1_554 S
C146 Pr144 2.880 . S
C146 C147 1.491 . S
C146 O164 1.254 . S
C146 O165 1.225 . S
C147 C146 1.491 . S
C147 C148 1.392 . S
C147 C152 1.356 . S
C148 C147 1.392 . S
C148 C149 1.368 . S
C148 H176 0.929 . S
C149 C148 1.368 . S
C149 C150 1.386 . S
C149 H177 0.929 . S
C150 C149 1.386 . S
C150 C151 1.373 . S
C151 C150 1.373 . S
C151 C152 1.409 . S
C151 H178 0.931 . S
C152 C147 1.356 . S
C152 C151 1.409 . S
C152 H179 0.930 . S
C153 O166 1.270 . S
C153 O167 1.248 . S
C154 O168 1.267 . S
C154 O169 1.278 . S
C155 Pr145 2.880 1_556 S
C155 C156 1.491 . S
C155 O170 1.254 . S
C155 O171 1.225 . S
C156 C155 1.491 . S
C156 C157 1.392 . S
C156 C161 1.356 . S
C157 C156 1.392 . S
C157 C158 1.368 . S
C157 H180 0.929 . S
C158 C157 1.368 . S
C158 C159 1.386 . S
C158 H181 0.929 . S
C159 C158 1.386 . S
C159 C160 1.373 . S
C160 C159 1.373 . S
C160 C161 1.409 . S
C160 H182 0.931 . S
C161 C156 1.356 . S
C161 C160 1.409 . S
C161 H183 0.930 . S
C162 O172 1.270 . S
C162 O173 1.248 . S
C163 O174 1.267 . S
C163 O175 1.278 . S
O164 Pr144 2.562 . S
O164 C146 1.254 . S
O165 Pr144 2.490 . S
O165 C146 1.225 . S
O166 Pr144 2.695 1_556 S
O166 Pr145 2.436 1_546 S
O166 C153 1.270 . S
O167 Pr144 2.512 1_556 S
O167 C153 1.248 . S
O168 Pr145 2.438 1_545 S
O168 C154 1.267 . S
O169 Pr144 2.437 . S
O169 C154 1.278 . S
O170 Pr145 2.562 1_556 S
O170 C155 1.254 . S
O171 Pr145 2.490 1_556 S
O171 C155 1.225 . S
O172 Pr144 2.436 1_565 S
O172 Pr145 2.695 . S
O172 C162 1.270 . S
O173 Pr145 2.512 . S
O173 C162 1.248 . S
O174 Pr144 2.438 1_566 S
O174 C163 1.267 . S
O175 Pr145 2.437 1_556 S
O175 C163 1.278 . S
H176 C148 0.929 . S
H177 C149 0.929 . S
H178 C151 0.931 . S
H179 C152 0.930 . S
H180 C157 0.929 . S
H181 C158 0.929 . S
H182 C160 0.931 . S
H183 C161 0.930 . S
Pr184 C186 2.880 . S
Pr184 O204 2.562 . S
Pr184 O205 2.490 . S
Pr184 O206 2.695 . S
Pr184 O207 2.512 . S
Pr184 O209 2.437 . S
Pr184 O212 2.436 . S
Pr184 O214 2.438 . S
Pr185 C195 2.880 . S
Pr185 O206 2.436 . S
Pr185 O208 2.438 . S
Pr185 O210 2.562 . S
Pr185 O211 2.490 . S
Pr185 O212 2.695 . S
Pr185 O213 2.512 . S
Pr185 O215 2.437 . S
C186 Pr184 2.880 . S
C186 C187 1.491 . S
C186 O204 1.254 . S
C186 O205 1.225 . S
C187 C186 1.491 . S
C187 C188 1.392 . S
C187 C192 1.356 . S
C188 C187 1.392 . S
C188 C189 1.368 . S
C188 H216 0.929 . S
C189 C188 1.368 . S
C189 C190 1.386 . S
C189 H217 0.929 . S
C190 C189 1.386 . S
C190 C191 1.373 . S
C191 C190 1.373 . S
C191 C192 1.409 . S
C191 H218 0.931 . S
C192 C187 1.356 . S
C192 C191 1.409 . S
C192 H219 0.930 . S
C193 O206 1.270 . S
C193 O207 1.248 . S
C194 O208 1.267 . S
C194 O209 1.278 . S
C195 Pr185 2.880 . S
C195 C196 1.491 . S
C195 O210 1.254 . S
C195 O211 1.225 . S
C196 C195 1.491 . S
C196 C197 1.392 . S
C196 C201 1.356 . S
C197 C196 1.392 . S
C197 C198 1.368 . S
C197 H220 0.929 . S
C198 C197 1.368 . S
C198 C199 1.386 . S
C198 H221 0.929 . S
C199 C198 1.386 . S
C199 C200 1.373 . S
C200 C199 1.373 . S
C200 C201 1.409 . S
C200 H222 0.931 . S
C201 C196 1.356 . S
C201 C200 1.409 . S
C201 H223 0.930 . S
C202 O212 1.270 . S
C202 O213 1.248 . S
C203 O214 1.267 . S
C203 O215 1.278 . S
O204 Pr184 2.562 . S
O204 C186 1.254 . S
O205 Pr184 2.490 . S
O205 C186 1.225 . S
O206 Pr184 2.695 . S
O206 Pr185 2.436 . S
O206 C193 1.270 . S
O207 Pr184 2.512 . S
O207 C193 1.248 . S
O208 Pr185 2.438 . S
O208 C194 1.267 . S
O209 Pr184 2.437 . S
O209 C194 1.278 . S
O210 Pr185 2.562 . S
O210 C195 1.254 . S
O211 Pr185 2.490 . S
O211 C195 1.225 . S
O212 Pr184 2.436 . S
O212 Pr185 2.695 . S
O212 C202 1.270 . S
O213 Pr185 2.512 . S
O213 C202 1.248 . S
O214 Pr184 2.438 . S
O214 C203 1.267 . S
O215 Pr185 2.437 . S
O215 C203 1.278 . S
H216 C188 0.929 . S
H217 C189 0.929 . S
H218 C191 0.931 . S
H219 C192 0.930 . S
H220 C197 0.929 . S
H221 C198 0.929 . S
H222 C200 0.931 . S
H223 C201 0.930 . S
Pr224 C226 2.880 . S
Pr224 O244 2.563 . S
Pr224 O245 2.491 . S
Pr224 O246 2.688 1_656 S
Pr224 O247 2.508 1_656 S
Pr224 O249 2.427 1_556 S
Pr224 O252 2.432 1_556 S
Pr224 O254 2.442 1_655 S
Pr225 C235 2.880 . S
Pr225 O246 2.436 . S
Pr225 O248 2.438 1_455 S
Pr225 O250 2.562 . S
Pr225 O251 2.490 . S
Pr225 O252 2.695 1_455 S
Pr225 O253 2.512 1_455 S
Pr225 O255 2.437 . S
C226 Pr224 2.880 . S
C226 C227 1.491 . S
C226 O244 1.254 . S
C226 O245 1.225 . S
C227 C226 1.491 . S
C227 C228 1.392 . S
C227 C232 1.356 . S
C228 C227 1.392 . S
C228 C229 1.368 . S
C228 H256 0.929 . S
C229 C228 1.368 . S
C229 C230 1.386 . S
C229 H257 0.929 . S
C230 C229 1.386 . S
C230 C231 1.373 . S
C231 C230 1.373 . S
C231 C232 1.409 . S
C231 H258 0.931 . S
C232 C227 1.356 . S
C232 C231 1.409 . S
C232 H259 0.930 . S
C233 O246 1.270 . S
C233 O247 1.248 . S
C234 O248 1.267 . S
C234 O249 1.278 . S
C235 Pr225 2.880 . S
C235 C236 1.491 . S
C235 O250 1.254 . S
C235 O251 1.225 . S
C236 C235 1.491 . S
C236 C237 1.392 . S
C236 C241 1.356 . S
C237 C236 1.392 . S
C237 C238 1.368 . S
C237 H260 0.929 . S
C238 C237 1.368 . S
C238 C239 1.386 . S
C238 H261 0.929 . S
C239 C238 1.386 . S
C239 C240 1.373 . S
C240 C239 1.373 . S
C240 C241 1.409 . S
C240 H262 0.931 . S
C241 C236 1.356 . S
C241 C240 1.409 . S
C241 H263 0.930 . S
C242 O252 1.270 . S
C242 O253 1.248 . S
C243 O254 1.267 . S
C243 O255 1.278 1_556 S
O244 Pr224 2.563 . S
O244 C226 1.254 . S
O245 Pr224 2.491 . S
O245 C226 1.225 . S
O246 Pr224 2.688 1_454 S
O246 Pr225 2.436 . S
O246 C233 1.270 . S
O247 Pr224 2.508 1_454 S
O247 C233 1.248 . S
O248 Pr225 2.438 1_655 S
O248 C234 1.267 . S
O249 Pr224 2.427 1_554 S
O249 C234 1.278 . S
O250 Pr225 2.562 . S
O250 C235 1.254 . S
O251 Pr225 2.490 . S
O251 C235 1.225 . S
O252 Pr224 2.432 1_554 S
O252 Pr225 2.695 1_655 S
O252 C242 1.270 . S
O253 Pr225 2.512 1_655 S
O253 C242 1.248 . S
O254 Pr224 2.442 1_455 S
O254 C243 1.267 . S
O255 Pr225 2.437 . S
O255 C243 1.278 1_554 S
H256 C228 0.929 . S
H257 C229 0.929 . S
H258 C231 0.931 . S
H259 C232 0.930 . S
H260 C237 0.929 . S
H261 C238 0.929 . S
H262 C240 0.931 . S
H263 C241 0.930 . S
C264 C265 1.363 . S
C264 C270 1.379 . S
C264 N272 1.356 . S
C265 C264 1.363 . S
C265 C271 1.363 . S
C266 C267 1.363 . S
C266 C271 1.379 . S
C266 N273 1.356 . S
C267 C266 1.363 . S
C267 C270 1.363 . S
N268 C270 1.356 . S
N268 H280 0.984 . S
N268 H281 0.985 . S
N269 C271 1.356 . S
N269 H274 0.984 . S
N269 H275 0.985 . S
C270 C264 1.379 . S
C270 C267 1.363 . S
C270 N268 1.356 . S
C271 C265 1.363 . S
C271 C266 1.379 . S
C271 N269 1.356 . S
N272 C264 1.356 . S
N272 H278 0.984 . S
N272 H279 0.984 . S
N273 C266 1.356 . S
N273 H276 0.984 . S
N273 H277 0.985 . S
H274 N269 0.984 . S
H275 N269 0.985 . S
H276 N273 0.984 . S
H277 N273 0.985 . S
H278 N272 0.984 . S
H279 N272 0.984 . S
H280 N268 0.984 . S
H281 N268 0.985 . S
C282 C283 1.363 . S
C282 C288 1.379 . S
C282 N290 1.356 . S
C283 C282 1.363 . S
C283 C289 1.363 . S
C284 C285 1.363 . S
C284 C289 1.379 . S
C284 N291 1.356 . S
C285 C284 1.363 . S
C285 C288 1.363 . S
N286 C288 1.356 . S
N286 H298 0.984 . S
N286 H299 0.985 . S
N287 C289 1.356 . S
N287 H292 0.984 . S
N287 H293 0.985 . S
C288 C282 1.379 . S
C288 C285 1.363 . S
C288 N286 1.356 . S
C289 C283 1.363 . S
C289 C284 1.379 . S
C289 N287 1.356 . S
N290 C282 1.356 . S
N290 H296 0.984 . S
N290 H297 0.984 . S
N291 C284 1.356 . S
N291 H294 0.984 . S
N291 H295 0.985 . S
H292 N287 0.984 . S
H293 N287 0.985 . S
H294 N291 0.984 . S
H295 N291 0.985 . S
H296 N290 0.984 . S
H297 N290 0.984 . S
H298 N286 0.984 . S
H299 N286 0.985 . S
C300 C301 1.363 . S
C300 C306 1.379 . S
C300 N308 1.356 . S
C301 C300 1.363 . S
C301 C307 1.363 . S
C302 C303 1.363 . S
C302 C307 1.379 . S
C302 N309 1.356 . S
C303 C302 1.363 . S
C303 C306 1.363 . S
N304 C306 1.356 . S
N304 H316 0.984 . S
N304 H317 0.985 . S
N305 C307 1.356 . S
N305 H310 0.984 . S
N305 H311 0.985 . S
C306 C300 1.379 . S
C306 C303 1.363 . S
C306 N304 1.356 . S
C307 C301 1.363 . S
C307 C302 1.379 . S
C307 N305 1.356 . S
N308 C300 1.356 . S
N308 H314 0.984 . S
N308 H315 0.984 . S
N309 C302 1.356 . S
N309 H312 0.984 . S
N309 H313 0.985 . S
H310 N305 0.984 . S
H311 N305 0.985 . S
H312 N309 0.984 . S
H313 N309 0.985 . S
H314 N308 0.984 . S
H315 N308 0.984 . S
H316 N304 0.984 . S
H317 N304 0.985 . S
C318 C319 1.363 . S
C318 C324 1.379 . S
C318 N326 1.356 . S
C319 C318 1.363 . S
C319 C325 1.363 . S
C320 C321 1.363 . S
C320 C325 1.379 . S
C320 N327 1.356 . S
C321 C320 1.363 . S
C321 C324 1.363 . S
N322 C324 1.356 . S
N322 H334 0.984 . S
N322 H335 0.985 . S
N323 C325 1.356 . S
N323 H328 0.984 . S
N323 H329 0.985 . S
C324 C318 1.379 . S
C324 C321 1.363 . S
C324 N322 1.356 . S
C325 C319 1.363 . S
C325 C320 1.379 . S
C325 N323 1.356 . S
N326 C318 1.356 . S
N326 H332 0.984 . S
N326 H333 0.984 . S
N327 C320 1.356 . S
N327 H330 0.984 . S
N327 H331 0.985 . S
H328 N323 0.984 . S
H329 N323 0.985 . S
H330 N327 0.984 . S
H331 N327 0.985 . S
H332 N326 0.984 . S
H333 N326 0.984 . S
H334 N322 0.984 . S
H335 N322 0.985 . S
C336 C337 1.363 . S
C336 C342 1.379 . S
C336 N344 1.356 . S
C337 C336 1.363 . S
C337 C343 1.363 . S
C338 C339 1.363 . S
C338 C343 1.379 . S
C338 N345 1.356 . S
C339 C338 1.363 . S
C339 C342 1.363 . S
N340 C342 1.356 . S
N340 H352 0.984 . S
N340 H353 0.985 . S
N341 C343 1.356 . S
N341 H346 0.984 . S
N341 H347 0.985 . S
C342 C336 1.379 . S
C342 C339 1.363 . S
C342 N340 1.356 . S
C343 C337 1.363 . S
C343 C338 1.379 . S
C343 N341 1.356 . S
N344 C336 1.356 . S
N344 H350 0.984 . S
N344 H351 0.984 . S
N345 C338 1.356 . S
N345 H348 0.984 . S
N345 H349 0.985 . S
H346 N341 0.984 . S
H347 N341 0.985 . S
H348 N345 0.984 . S
H349 N345 0.985 . S
H350 N344 0.984 . S
H351 N344 0.984 . S
H352 N340 0.984 . S
H353 N340 0.985 . S
C354 C355 1.363 . S
C354 C360 1.379 . S
C354 N362 1.356 . S
C355 C354 1.363 . S
C355 C361 1.363 . S
C356 C357 1.363 . S
C356 C361 1.379 . S
C356 N363 1.356 . S
C357 C356 1.363 . S
C357 C360 1.363 . S
N358 C360 1.356 . S
N358 H370 0.994 . S
N358 H371 0.985 . S
N359 C361 1.356 . S
N359 H364 0.984 . S
N359 H365 0.985 . S
C360 C354 1.379 . S
C360 C357 1.363 . S
C360 N358 1.356 . S
C361 C355 1.363 . S
C361 C356 1.379 . S
C361 N359 1.356 . S
N362 C354 1.356 . S
N362 H368 0.984 . S
N362 H369 0.984 . S
N363 C356 1.356 . S
N363 H366 0.984 . S
N363 H367 0.985 . S
H364 N359 0.984 . S
H365 N359 0.985 . S
H366 N363 0.984 . S
H367 N363 0.985 . S
H368 N362 0.984 . S
H369 N362 0.984 . S
H370 N358 0.994 . S
H371 N358 0.985 . S
C372 C373 1.363 . S
C372 C378 1.379 . S
C372 N380 1.356 . S
C373 C372 1.363 . S
C373 C379 1.363 . S
C374 C375 1.363 . S
C374 C379 1.379 . S
C374 N381 1.356 . S
C375 C374 1.363 . S
C375 C378 1.363 . S
N376 C378 1.356 . S
N376 H388 0.984 . S
N376 H389 0.985 1_556 S
N377 C379 1.356 . S
N377 H382 0.984 . S
N377 H383 0.985 . S
C378 C372 1.379 . S
C378 C375 1.363 . S
C378 N376 1.356 . S
C379 C373 1.363 . S
C379 C374 1.379 . S
C379 N377 1.356 . S
N380 C372 1.356 . S
N380 H386 0.984 . S
N380 H387 0.984 . S
N381 C374 1.356 . S
N381 H384 0.984 1_556 S
N381 H385 0.985 . S
H382 N377 0.984 . S
H383 N377 0.985 . S
H384 N381 0.984 1_554 S
H385 N381 0.985 . S
H386 N380 0.984 . S
H387 N380 0.984 . S
H388 N376 0.984 . S
H389 N376 0.985 1_554 S
C390 C391 1.363 . S
C390 C396 1.379 . S
C390 N398 1.356 . S
C391 C390 1.363 . S
C391 C397 1.363 . S
C392 C393 1.363 . S
C392 C397 1.379 . S
C392 N399 1.356 . S
C393 C392 1.363 . S
C393 C396 1.363 . S
N394 C396 1.356 . S
N394 H406 0.984 . S
N394 H407 0.985 . S
N395 C397 1.356 . S
N395 H400 0.984 . S
N395 H401 0.985 . S
C396 C390 1.379 . S
C396 C393 1.363 . S
C396 N394 1.356 . S
C397 C391 1.363 . S
C397 C392 1.379 . S
C397 N395 1.356 . S
N398 C390 1.356 . S
N398 H404 0.984 . S
N398 H405 0.984 . S
N399 C392 1.356 . S
N399 H402 0.984 . S
N399 H403 0.985 . S
H400 N395 0.984 . S
H401 N395 0.985 . S
H402 N399 0.984 . S
H403 N399 0.985 . S
H404 N398 0.984 . S
H405 N398 0.984 . S
H406 N394 0.984 . S
H407 N394 0.985 . S
C408 C409 1.363 . S
C408 C414 1.379 . S
C408 N416 1.356 . S
C409 C408 1.363 . S
C409 C415 1.363 . S
C410 C411 1.363 . S
C410 C415 1.379 . S
C410 N417 1.356 . S
C411 C410 1.363 . S
C411 C414 1.363 . S
N412 C414 1.356 . S
N412 H424 0.984 . S
N412 H425 0.985 . S
N413 C415 1.356 . S
N413 H418 0.984 . S
N413 H419 0.985 . S
C414 C408 1.379 . S
C414 C411 1.363 . S
C414 N412 1.356 . S
C415 C409 1.363 . S
C415 C410 1.379 . S
C415 N413 1.356 . S
N416 C408 1.356 . S
N416 H422 0.984 . S
N416 H423 0.984 . S
N417 C410 1.356 . S
N417 H420 0.984 . S
N417 H421 0.985 . S
H418 N413 0.984 . S
H419 N413 0.985 . S
H420 N417 0.984 . S
H421 N417 0.985 . S
H422 N416 0.984 . S
H423 N416 0.984 . S
H424 N412 0.984 . S
H425 N412 0.985 . S
C426 C427 1.363 . S
C426 C432 1.379 . S
C426 N434 1.356 . S
C427 C426 1.363 . S
C427 C433 1.363 . S
C428 C429 1.363 . S
C428 C433 1.379 . S
C428 N435 1.356 . S
C429 C428 1.363 . S
C429 C432 1.363 . S
N430 C432 1.356 . S
N430 H442 0.984 . S
N430 H443 0.985 . S
N431 C433 1.356 . S
N431 H436 0.984 . S
N431 H437 0.985 . S
C432 C426 1.379 . S
C432 C429 1.363 . S
C432 N430 1.356 . S
C433 C427 1.363 . S
C433 C428 1.379 . S
C433 N431 1.356 . S
N434 C426 1.356 . S
N434 H440 0.984 . S
N434 H441 0.984 . S
N435 C428 1.356 . S
N435 H438 0.984 . S
N435 H439 0.985 . S
H436 N431 0.984 . S
H437 N431 0.985 . S
H438 N435 0.984 . S
H439 N435 0.985 . S
H440 N434 0.984 . S
H441 N434 0.984 . S
H442 N430 0.984 . S
H443 N430 0.985 . S
C444 C445 1.363 . S
C444 C450 1.379 . S
C444 N452 1.356 . S
C445 C444 1.363 . S
C445 C451 1.363 . S
C446 C447 1.363 . S
C446 C451 1.379 . S
C446 N453 1.356 . S
C447 C446 1.363 . S
C447 C450 1.363 . S
N448 C450 1.356 . S
N448 H460 0.984 . S
N448 H461 0.985 . S
N449 C451 1.356 . S
N449 H454 0.984 . S
N449 H455 0.985 . S
C450 C444 1.379 . S
C450 C447 1.363 . S
C450 N448 1.356 . S
C451 C445 1.363 . S
C451 C446 1.379 . S
C451 N449 1.356 . S
N452 C444 1.356 . S
N452 H458 0.984 . S
N452 H459 0.984 . S
N453 C446 1.356 . S
N453 H456 0.984 . S
N453 H457 0.985 . S
H454 N449 0.984 . S
H455 N449 0.985 . S
H456 N453 0.984 . S
H457 N453 0.985 . S
H458 N452 0.984 . S
H459 N452 0.984 . S
H460 N448 0.984 . S
H461 N448 0.985 . S
C462 C463 1.363 . S
C462 C468 1.379 . S
C462 N470 1.356 . S
C463 C462 1.363 . S
C463 C469 1.363 . S
C464 C465 1.363 . S
C464 C469 1.379 . S
C464 N471 1.356 . S
C465 C464 1.363 . S
C465 C468 1.363 . S
N466 C468 1.356 . S
N466 H478 0.984 . S
N466 H479 0.985 . S
N467 C469 1.356 . S
N467 H472 0.984 . S
N467 H473 0.985 . S
C468 C462 1.379 . S
C468 C465 1.363 . S
C468 N466 1.356 . S
C469 C463 1.363 . S
C469 C464 1.379 . S
C469 N467 1.356 . S
N470 C462 1.356 . S
N470 H476 0.984 . S
N470 H477 0.984 . S
N471 C464 1.356 . S
N471 H474 0.984 . S
N471 H475 0.985 . S
H472 N467 0.984 . S
H473 N467 0.985 . S
H474 N471 0.984 . S
H475 N471 0.985 . S
H476 N470 0.984 . S
H477 N470 0.984 . S
H478 N466 0.984 . S
H479 N466 0.985 . S
C480 C481 1.363 . S
C480 C486 1.379 . S
C480 N488 1.356 . S
C481 C480 1.363 . S
C481 C487 1.363 . S
C482 C483 1.363 . S
C482 C487 1.379 . S
C482 N489 1.356 . S
C483 C482 1.363 . S
C483 C486 1.363 . S
N484 C486 1.356 . S
N484 H496 0.984 . S
N484 H497 0.985 . S
N485 C487 1.356 . S
N485 H490 0.984 . S
N485 H491 0.985 . S
C486 C480 1.379 . S
C486 C483 1.363 . S
C486 N484 1.356 . S
C487 C481 1.363 . S
C487 C482 1.379 . S
C487 N485 1.356 . S
N488 C480 1.356 . S
N488 H494 0.984 . S
N488 H495 0.984 . S
N489 C482 1.356 . S
N489 H492 0.984 . S
N489 H493 0.985 . S
H490 N485 0.984 . S
H491 N485 0.985 . S
H492 N489 0.984 . S
H493 N489 0.985 . S
H494 N488 0.984 . S
H495 N488 0.984 . S
H496 N484 0.984 . S
H497 N484 0.985 . S
C498 C499 1.363 . S
C498 C504 1.379 . S
C498 N506 1.356 . S
C499 C498 1.363 . S
C499 C505 1.363 . S
C500 C501 1.363 . S
C500 C505 1.379 . S
C500 N507 1.356 . S
C501 C500 1.363 . S
C501 C504 1.363 . S
N502 C504 1.356 . S
N502 H514 0.984 . S
N502 H515 0.985 . S
N503 C505 1.356 . S
N503 H508 0.984 . S
N503 H509 0.985 . S
C504 C498 1.379 . S
C504 C501 1.363 . S
C504 N502 1.356 . S
C505 C499 1.363 . S
C505 C500 1.379 . S
C505 N503 1.356 . S
N506 C498 1.356 . S
N506 H512 0.984 . S
N506 H513 0.984 . S
N507 C500 1.356 . S
N507 H510 0.984 . S
N507 H511 0.985 . S
H508 N503 0.984 . S
H509 N503 0.985 . S
H510 N507 0.984 . S
H511 N507 0.985 . S
H512 N506 0.984 . S
H513 N506 0.984 . S
H514 N502 0.984 . S
H515 N502 0.985 . S
C516 C517 1.363 . S
C516 C522 1.379 . S
C516 N524 1.356 . S
C517 C516 1.363 . S
C517 C523 1.363 . S
C518 C519 1.363 . S
C518 C523 1.379 . S
C518 N525 1.356 . S
C519 C518 1.363 . S
C519 C522 1.363 . S
N520 C522 1.356 . S
N520 H532 0.984 . S
N520 H533 0.985 . S
N521 C523 1.356 . S
N521 H526 0.984 . S
N521 H527 0.985 . S
C522 C516 1.379 . S
C522 C519 1.363 . S
C522 N520 1.356 . S
C523 C517 1.363 . S
C523 C518 1.379 . S
C523 N521 1.356 . S
N524 C516 1.356 . S
N524 H530 0.984 . S
N524 H531 0.984 . S
N525 C518 1.356 . S
N525 H528 0.984 . S
N525 H529 0.985 . S
H526 N521 0.984 . S
H527 N521 0.985 . S
H528 N525 0.984 . S
H529 N525 0.985 . S
H530 N524 0.984 . S
H531 N524 0.984 . S
H532 N520 0.984 . S
H533 N520 0.985 . S
C534 C535 1.363 . S
C534 C540 1.379 . S
C534 N542 1.356 . S
C535 C534 1.363 . S
C535 C541 1.363 . S
C536 C537 1.363 . S
C536 C541 1.379 . S
C536 N543 1.356 . S
C537 C536 1.363 . S
C537 C540 1.363 . S
N538 C540 1.356 . S
N538 H550 0.984 1_455 S
N538 H551 0.985 . S
N539 C541 1.356 . S
N539 H544 0.984 . S
N539 H545 0.985 . S
C540 C534 1.379 . S
C540 C537 1.363 . S
C540 N538 1.356 . S
C541 C535 1.363 . S
C541 C536 1.379 . S
C541 N539 1.356 . S
N542 C534 1.356 . S
N542 H548 0.984 . S
N542 H549 0.984 . S
N543 C536 1.356 . S
N543 H546 0.984 . S
N543 H547 0.985 . S
H544 N539 0.984 . S
H545 N539 0.985 . S
H546 N543 0.984 . S
H547 N543 0.985 . S
H548 N542 0.984 . S
H549 N542 0.984 . S
H550 N538 0.984 1_655 S
H551 N538 0.985 . S
C552 C553 1.363 . S
C552 C558 1.379 . S
C552 N560 1.356 . S
C553 C552 1.363 . S
C553 C559 1.363 . S
C554 C555 1.363 . S
C554 C559 1.379 . S
C554 N561 1.356 . S
C555 C554 1.363 . S
C555 C558 1.363 . S
N556 C558 1.356 . S
N556 H568 0.984 . S
N556 H569 0.985 . S
N557 C559 1.356 . S
N557 H562 0.984 . S
N557 H563 0.985 . S
C558 C552 1.379 . S
C558 C555 1.363 . S
C558 N556 1.356 . S
C559 C553 1.363 . S
C559 C554 1.379 . S
C559 N557 1.356 . S
N560 C552 1.356 . S
N560 H566 0.984 . S
N560 H567 0.984 . S
N561 C554 1.356 . S
N561 H564 0.984 . S
N561 H565 0.985 . S
H562 N557 0.984 . S
H563 N557 0.985 . S
H564 N561 0.984 . S
H565 N561 0.985 . S
H566 N560 0.984 . S
H567 N560 0.984 . S
H568 N556 0.984 . S
H569 N556 0.985 . S
C570 C571 1.363 . S
C570 C576 1.379 . S
C570 N578 1.356 . S
C571 C570 1.363 . S
C571 C577 1.363 . S
C572 C573 1.363 . S
C572 C577 1.379 . S
C572 N579 1.356 . S
C573 C572 1.363 . S
C573 C576 1.363 . S
N574 C576 1.356 . S
N574 H586 0.984 1_655 S
N574 H587 0.985 . S
N575 C577 1.356 . S
N575 H580 0.984 . S
N575 H581 0.985 . S
C576 C570 1.379 . S
C576 C573 1.363 . S
C576 N574 1.356 . S
C577 C571 1.363 . S
C577 C572 1.379 . S
C577 N575 1.356 . S
N578 C570 1.356 . S
N578 H584 0.984 . S
N578 H585 0.984 . S
N579 C572 1.356 . S
N579 H582 0.984 . S
N579 H583 0.985 . S
H580 N575 0.984 . S
H581 N575 0.985 . S
H582 N579 0.984 . S
H583 N579 0.985 . S
H584 N578 0.984 . S
H585 N578 0.984 . S
H586 N574 0.984 1_455 S
H587 N574 0.985 . S
C588 C589 1.363 . S
C588 C594 1.379 . S
C588 N596 1.356 . S
C589 C588 1.363 . S
C589 C595 1.363 . S
C590 C591 1.363 . S
C590 C595 1.379 . S
C590 N597 1.356 . S
C591 C590 1.363 . S
C591 C594 1.363 . S
N592 C594 1.356 . S
N592 H604 0.984 . S
N592 H605 0.985 . S
N593 C595 1.356 . S
N593 H598 0.984 . S
N593 H599 0.985 . S
C594 C588 1.379 . S
C594 C591 1.363 . S
C594 N592 1.356 . S
C595 C589 1.363 . S
C595 C590 1.379 . S
C595 N593 1.356 . S
N596 C588 1.356 . S
N596 H602 0.984 . S
N596 H603 0.984 . S
N597 C590 1.356 . S
N597 H600 0.984 . S
N597 H601 0.985 . S
H598 N593 0.984 . S
H599 N593 0.985 . S
H600 N597 0.984 . S
H601 N597 0.985 . S
H602 N596 0.984 . S
H603 N596 0.984 . S
H604 N592 0.984 . S
H605 N592 0.985 . S
C606 C607 1.363 . S
C606 C612 1.379 . S
C606 N614 1.356 . S
C607 C606 1.363 . S
C607 C613 1.363 . S
C608 C609 1.363 . S
C608 C613 1.379 . S
C608 N615 1.356 . S
C609 C608 1.363 . S
C609 C612 1.363 . S
N610 C612 1.356 . S
N610 H622 0.984 . S
N610 H623 0.985 . S
N611 C613 1.356 . S
N611 H616 0.984 . S
N611 H617 0.985 . S
C612 C606 1.379 . S
C612 C609 1.363 . S
C612 N610 1.356 . S
C613 C607 1.363 . S
C613 C608 1.379 . S
C613 N611 1.356 . S
N614 C606 1.356 . S
N614 H620 0.984 . S
N614 H621 0.984 . S
N615 C608 1.356 . S
N615 H618 0.984 . S
N615 H619 0.985 . S
H616 N611 0.984 . S
H617 N611 0.985 . S
H618 N615 0.984 . S
H619 N615 0.985 . S
H620 N614 0.984 . S
H621 N614 0.984 . S
H622 N610 0.984 . S
H623 N610 0.985 . S
C624 C625 1.363 . S
C624 C630 1.379 . S
C624 N632 1.356 . S
C625 C624 1.363 . S
C625 C631 1.363 . S
C626 C627 1.363 . S
C626 C631 1.379 . S
C626 N633 1.356 . S
C627 C626 1.363 . S
C627 C630 1.363 . S
N628 C630 1.356 . S
N628 H640 0.984 . S
N628 H641 0.985 . S
N629 C631 1.356 . S
N629 H634 0.984 . S
N629 H635 0.985 . S
C630 C624 1.379 . S
C630 C627 1.363 . S
C630 N628 1.356 . S
C631 C625 1.363 . S
C631 C626 1.379 . S
C631 N629 1.356 . S
N632 C624 1.356 . S
N632 H638 0.984 . S
N632 H639 0.984 . S
N633 C626 1.356 . S
N633 H636 0.984 . S
N633 H637 0.985 . S
H634 N629 0.984 . S
H635 N629 0.985 . S
H636 N633 0.984 . S
H637 N633 0.985 . S
H638 N632 0.984 . S
H639 N632 0.984 . S
H640 N628 0.984 . S
H641 N628 0.985 . S
C642 C643 1.363 . S
C642 C648 1.379 . S
C642 N650 1.356 . S
C643 C642 1.363 . S
C643 C649 1.363 . S
C644 C645 1.363 . S
C644 C649 1.379 . S
C644 N651 1.356 . S
C645 C644 1.363 . S
C645 C648 1.363 . S
N646 C648 1.356 . S
N646 H658 0.984 . S
N646 H659 0.985 . S
N647 C649 1.356 . S
N647 H652 0.984 . S
N647 H653 0.985 . S
C648 C642 1.379 . S
C648 C645 1.363 . S
C648 N646 1.356 . S
C649 C643 1.363 . S
C649 C644 1.379 . S
C649 N647 1.356 . S
N650 C642 1.356 . S
N650 H656 0.984 . S
N650 H657 0.984 . S
N651 C644 1.356 . S
N651 H654 0.984 . S
N651 H655 0.985 . S
H652 N647 0.984 . S
H653 N647 0.985 . S
H654 N651 0.984 . S
H655 N651 0.985 . S
H656 N650 0.984 . S
H657 N650 0.984 . S
H658 N646 0.984 . S
H659 N646 0.985 . S
C660 C661 1.363 . S
C660 C666 1.379 . S
C660 N668 1.356 . S
C661 C660 1.363 . S
C661 C667 1.363 . S
C662 C663 1.363 . S
C662 C667 1.379 . S
C662 N669 1.356 . S
C663 C662 1.363 . S
C663 C666 1.363 . S
N664 C666 1.356 . S
N664 H676 0.984 . S
N664 H677 0.985 . S
N665 C667 1.356 . S
N665 H670 0.984 . S
N665 H671 0.985 . S
C666 C660 1.379 . S
C666 C663 1.363 . S
C666 N664 1.356 . S
C667 C661 1.363 . S
C667 C662 1.379 . S
C667 N665 1.356 . S
N668 C660 1.356 . S
N668 H674 0.984 . S
N668 H675 0.984 . S
N669 C662 1.356 . S
N669 H672 0.984 . S
N669 H673 0.985 1_455 S
H670 N665 0.984 . S
H671 N665 0.985 . S
H672 N669 0.984 . S
H673 N669 0.985 1_655 S
H674 N668 0.984 . S
H675 N668 0.984 . S
H676 N664 0.984 . S
H677 N664 0.985 . S
C678 C679 1.363 . S
C678 C684 1.379 . S
C678 N686 1.356 . S
C679 C678 1.363 . S
C679 C685 1.363 . S
C680 C681 1.363 . S
C680 C685 1.379 . S
C680 N687 1.356 . S
C681 C680 1.363 . S
C681 C684 1.363 . S
N682 C684 1.356 . S
N682 H694 0.984 . S
N682 H695 0.985 . S
N683 C685 1.356 . S
N683 H688 0.984 . S
N683 H689 0.985 . S
C684 C678 1.379 . S
C684 C681 1.363 . S
C684 N682 1.356 . S
C685 C679 1.363 . S
C685 C680 1.379 . S
C685 N683 1.356 . S
N686 C678 1.356 . S
N686 H692 0.984 . S
N686 H693 0.984 . S
N687 C680 1.356 . S
N687 H690 0.984 . S
N687 H691 0.985 . S
H688 N683 0.984 . S
H689 N683 0.985 . S
H690 N687 0.984 . S
H691 N687 0.985 . S
H692 N686 0.984 . S
H693 N686 0.984 . S
H694 N682 0.984 . S
H695 N682 0.985 . S
C265 C9 1.400 . S
C267 C119 1.489 . S
C283 C21 1.446 . S
C285 C163 1.484 . S
C303 C193 2.257 . S
C301 C30 2.213 . S
C319 C43 2.524 . S
C321 C234 2.547 . S
C339 C150 0.957 . S
C337 C4 0.851 . S
C357 C114 2.769 . S
C355 C22 2.723 . S
C375 C242 1.020 1_556 S
C373 C34 0.993 . S
C393 C203 2.088 . S
C391 C48 2.145 . S
C409 C8 1.760 . S
C411 C239 1.848 . S
C429 C153 1.853 . S
C427 C35 1.856 . S
C445 C47 2.117 . S
C447 C122 2.049 . S
C463 C17 2.313 . S
C465 C190 2.238 . S
C483 C110 1.109 . S
C481 C60 1.055 . S
C499 C74 1.337 . S
C501 C154 1.377 . S
C517 C82 1.679 . S
C519 C202 1.942 . S
C535 C100 2.988 . S
C537 C243 2.937 . S
C553 C61 1.284 . S
C555 C159 1.393 . S
C573 C123 2.207 . S
C571 C73 2.150 . S
C591 C233 1.398 . S
C589 C87 1.449 . S
C609 C194 2.207 . S
C607 C95 2.360 . S
C625 C56 1.489 . S
C627 C230 1.472 . S
C645 C162 2.212 . S
C643 C86 2.254 . S
C663 C113 1.972 . S
C661 C99 2.003 . S
C679 C69 1.804 . S
C681 C199 1.997 . S
