# Generated by pormake.
# Topology zzz, (3,6)-cn, num edge types: 1
# Building blocks:
#     Node 0, Type 0, BuildingBlock: PAMTOO_clean_linker_0, # of connection points: 3
#     Node 1, Type 0, BuildingBlock: PAMTOO_clean_linker_0, # of connection points: 3
#     Node 2, Type 0, BuildingBlock: PAMTOO_clean_linker_0, # of connection points: 3
#     Node 3, Type 0, BuildingBlock: PAMTOO_clean_linker_0, # of connection points: 3
#     Node 4, Type 0, BuildingBlock: PAMTOO_clean_linker_0, # of connection points: 3
#     Node 5, Type 0, BuildingBlock: PAMTOO_clean_linker_0, # of connection points: 3
#     Node 6, Type 0, BuildingBlock: PAMTOO_clean_linker_0, # of connection points: 3
#     Node 7, Type 0, BuildingBlock: PAMTOO_clean_linker_0, # of connection points: 3
#     Node 8, Type 1, BuildingBlock: KUMBUR_clean_sbu_0, # of connection points: 6
#     Node 9, Type 1, BuildingBlock: KUMBUR_clean_sbu_0, # of connection points: 6
#     Node 10, Type 1, BuildingBlock: KUMBUR_clean_sbu_0, # of connection points: 6
#     Node 11, Type 1, BuildingBlock: KUMBUR_clean_sbu_0, # of connection points: 6
#     Edge 12, Type (0, 1), BuildingBlock: EZIPEK_clean_linker_0, # of connection points: 2
#     Edge 13, Type (0, 1), BuildingBlock: EZIPEK_clean_linker_0, # of connection points: 2
#     Edge 14, Type (0, 1), BuildingBlock: EZIPEK_clean_linker_0, # of connection points: 2
#     Edge 15, Type (0, 1), BuildingBlock: EZIPEK_clean_linker_0, # of connection points: 2
#     Edge 16, Type (0, 1), BuildingBlock: EZIPEK_clean_linker_0, # of connection points: 2
#     Edge 17, Type (0, 1), BuildingBlock: EZIPEK_clean_linker_0, # of connection points: 2
#     Edge 18, Type (0, 1), BuildingBlock: EZIPEK_clean_linker_0, # of connection points: 2
#     Edge 19, Type (0, 1), BuildingBlock: EZIPEK_clean_linker_0, # of connection points: 2
#     Edge 20, Type (0, 1), BuildingBlock: EZIPEK_clean_linker_0, # of connection points: 2
#     Edge 21, Type (0, 1), BuildingBlock: EZIPEK_clean_linker_0, # of connection points: 2
#     Edge 22, Type (0, 1), BuildingBlock: EZIPEK_clean_linker_0, # of connection points: 2
#     Edge 23, Type (0, 1), BuildingBlock: EZIPEK_clean_linker_0, # of connection points: 2
#     Edge 24, Type (0, 1), BuildingBlock: EZIPEK_clean_linker_0, # of connection points: 2
#     Edge 25, Type (0, 1), BuildingBlock: EZIPEK_clean_linker_0, # of connection points: 2
#     Edge 26, Type (0, 1), BuildingBlock: EZIPEK_clean_linker_0, # of connection points: 2
#     Edge 27, Type (0, 1), BuildingBlock: EZIPEK_clean_linker_0, # of connection points: 2
#     Edge 28, Type (0, 1), BuildingBlock: EZIPEK_clean_linker_0, # of connection points: 2
#     Edge 29, Type (0, 1), BuildingBlock: EZIPEK_clean_linker_0, # of connection points: 2
#     Edge 30, Type (0, 1), BuildingBlock: EZIPEK_clean_linker_0, # of connection points: 2
#     Edge 31, Type (0, 1), BuildingBlock: EZIPEK_clean_linker_0, # of connection points: 2
#     Edge 32, Type (0, 1), BuildingBlock: EZIPEK_clean_linker_0, # of connection points: 2
#     Edge 33, Type (0, 1), BuildingBlock: EZIPEK_clean_linker_0, # of connection points: 2
#     Edge 34, Type (0, 1), BuildingBlock: EZIPEK_clean_linker_0, # of connection points: 2
#     Edge 35, Type (0, 1), BuildingBlock: EZIPEK_clean_linker_0, # of connection points: 2
# Relax obj value: 0.231
# Max RMSD: 0.183
# Mean RMSD: 0.118
data_MOF--net-zzz--node1-KUMBUR_clean_sbu_0--node2-PAMTOO_clean_linker_0--edge1-EZIPEK_clean_linker_0
_symmetry_space_group_name_H-M    P1
_symmetry_Int_Tables_number       1
_symmetry_cell_setting            triclinic
loop_
_symmetry_equiv_pos_as_xyz
'x, y, z'
_cell_length_a     37.176161
_cell_length_b     36.93182
_cell_length_c     11.11212
_cell_angle_alpha  91.87312
_cell_angle_beta   89.477143
_cell_angle_gamma 89.859712
loop_
_atom_site_label
_atom_site_type_symbol
_atom_site_fract_x
_atom_site_fract_y
_atom_site_fract_z
_atom_type_partial_charge
H0 H 0.84848 0.59405 0.27099 0.0
H1 H 0.74316 0.59931 0.11727 0.0
H2 H 0.76598 0.52085 0.38459 0.0
H3 H 0.71341 0.50433 0.09242 0.0
C4 C 0.70264 0.53201 0.10881 0.0
O5 O 0.71491 0.54529 0.22277 0.0
H6 H 0.71642 0.54697 0.03656 0.0
C7 C 0.82095 0.58473 0.26559 0.0
C8 C 0.81087 0.5572 0.34337 0.0
C9 C 0.79732 0.59919 0.17984 0.0
C10 C 0.76156 0.58733 0.17859 0.0
C11 C 0.74988 0.55769 0.24364 0.0
C12 C 0.77477 0.54272 0.32901 0.0
H13 H 0.042 0.86338 0.26351 0.0
H14 H 0.03386 0.75889 0.08988 0.0
H15 H 0.98055 0.7793 0.43316 0.0
H16 H 1.01148 0.68682 0.32751 0.0
C17 C 0.01472 0.69835 0.23753 0.0
O18 O 0.99187 0.72912 0.23968 0.0
H19 H 0.04314 0.70763 0.23236 0.0
C20 C 0.03008 0.83656 0.26279 0.0
C21 C 1.00896 0.82641 0.36171 0.0
C22 C 0.04045 0.81179 0.17055 0.0
C23 C 0.02582 0.77729 0.16342 0.0
C24 C 1.00387 0.76463 0.25498 0.0
C25 C 0.99597 0.78912 0.35798 0.0
H26 H 0.67713 0.05145 0.27761 0.0
H27 H 0.78477 0.04265 0.1486 0.0
H28 H 0.75916 1.00751 0.50755 0.0
H29 H 0.85828 0.03516 0.37226 0.0
C30 C 0.84506 0.02457 0.28931 0.0
O31 O 0.81221 1.00703 0.32291 0.0
H32 H 0.83893 0.04938 0.23955 0.0
C33 C 0.70454 0.04327 0.29601 0.0
C34 C 0.71312 0.03002 0.40922 0.0
C35 C 0.73064 0.04939 0.20813 0.0
C36 C 0.76592 0.03808 0.2213 0.0
C37 C 0.77744 0.0219 0.32568 0.0
C38 C 0.75081 0.01877 0.42357 0.0
H39 H 0.59553 0.70549 0.33781 0.0
H40 H 0.6009 0.80654 0.15701 0.0
H41 H 0.51225 0.78493 0.39654 0.0
H42 H 0.49677 0.84724 0.16629 0.0
C43 C 0.52594 0.84516 0.14466 0.0
O44 O 0.54362 0.835 0.24984 0.0
H45 H 0.52675 0.82279 0.07562 0.0
C46 C 0.58434 0.73174 0.31864 0.0
C47 C 0.55191 0.74117 0.37617 0.0
C48 C 0.60041 0.75318 0.22999 0.0
C49 C 0.58735 0.78858 0.21728 0.0
C50 C 0.55531 0.80036 0.27282 0.0
C51 C 0.53704 0.77626 0.35251 0.0
H52 H 0.18146 0.45452 0.17439 0.0
H53 H 0.28649 0.44832 0.32994 0.0
H54 H 0.26376 0.5299 0.07346 0.0
H55 H 0.30678 0.51683 0.41753 0.0
C56 C 0.32649 0.52141 0.34399 0.0
O57 O 0.31454 0.50398 0.23537 0.0
H58 H 0.32393 0.55108 0.33397 0.0
C59 C 0.20876 0.46438 0.18262 0.0
C60 C 0.21907 0.49253 0.10745 0.0
C61 C 0.23196 0.44987 0.26962 0.0
C62 C 0.26777 0.46171 0.2731 0.0
C63 C 0.27945 0.49213 0.21265 0.0
C64 C 0.25487 0.50753 0.12659 0.0
H65 H 1.00091 0.18629 0.20373 0.0
H66 H 0.02324 0.28938 0.36531 0.0
H67 H 0.02749 0.27583 0.97703 0.0
H68 H 0.99148 0.33674 0.30807 0.0
C69 C 1.0054 0.35036 0.23333 0.0
O70 O 0.03065 0.32614 0.17582 0.0
H71 H 0.98304 0.35372 0.16993 0.0
C72 C 1.00986 0.21385 0.1913 0.0
C73 C 0.01752 0.22567 0.07491 0.0
C74 C 1.00958 0.23769 0.29145 0.0
C75 C 0.02238 0.27264 0.28358 0.0
C76 C 0.02644 0.28849 0.17259 0.0
C77 C 0.0242 0.26458 0.0651 0.0
H78 H 0.34046 1.00215 0.19433 0.0
H79 H 0.23673 0.02438 0.34727 0.0
H80 H 0.26854 0.07606 0.01903 0.0
H81 H 0.18176 0.03158 0.1376 0.0
C82 C 0.18032 0.05789 0.18766 0.0
O83 O 0.21565 0.07172 0.20341 0.0
H84 H 0.16695 0.07465 0.12052 0.0
C85 C 0.31531 1.01697 0.18894 0.0
C86 C 0.30967 0.03966 0.09146 0.0
C87 C 0.28856 1.01034 0.27528 0.0
C88 C 0.25617 0.02895 0.27615 0.0
C89 C 0.24787 0.05283 0.18678 0.0
C90 C 0.2747 0.05809 0.09105 0.0
H91 H 0.56148 0.36476 0.10682 0.0
H92 H 0.56401 0.2659 0.29717 0.0
H93 H 0.47445 0.28841 0.06447 0.0
H94 H 0.5491 0.20983 0.21284 0.0
C95 C 0.51952 0.20578 0.21068 0.0
O96 O 0.50264 0.23995 0.22372 0.0
H97 H 0.51302 0.19516 0.11885 0.0
C98 C 0.54927 0.33881 0.12542 0.0
C99 C 0.5164 0.32998 0.07219 0.0
C100 C 0.56622 0.31618 0.20609 0.0
C101 C 0.55065 0.28299 0.23389 0.0
C102 C 0.51777 0.27182 0.18371 0.0
C103 C 0.5004 0.2957 0.10121 0.0
Tb104 Tb 0.04158 1.01736 0.84778 0.0
C105 C 0.91687 0.99728 0.45505 0.0
C106 C 0.96943 0.96496 0.22789 0.0
C107 C 0.88189 0.93487 0.25443 0.0
C108 C 0.96156 0.99641 0.37184 0.0
C109 C 0.8768 0.96688 0.4036 0.0
C110 C 0.92886 0.93463 0.16461 0.0
C111 C 0.858 0.98018 0.60645 0.0
N112 N 0.91973 1.00528 0.57246 0.0
C113 C 0.88967 0.99945 0.64283 0.0
C114 C 0.85186 0.96291 0.49362 0.0
Tb115 Tb 0.97448 0.0333 0.6371 0.0
N116 N 0.98927 1.00249 0.4461 0.0
C117 C 0.0213 0.98584 0.4123 0.0
C118 C 1.00476 0.95607 0.21132 0.0
C119 C 0.02921 0.96645 0.30164 0.0
H120 H 0.88887 1.01034 0.73367 0.0
H121 H 0.05641 0.95619 0.29034 0.0
H122 H 0.93348 0.91522 0.09111 0.0
H123 H 0.83708 0.97744 0.67395 0.0
H124 H 0.04283 0.9859 0.47423 0.0
H125 H 0.03082 0.12602 0.18547 0.0
H126 H 1.01266 0.93706 0.13981 0.0
H127 H 0.11864 0.97782 0.75608 0.0
H128 H 1.01121 0.07175 0.07193 0.0
H129 H 0.18138 0.99586 0.71798 0.0
H130 H 0.86079 0.91615 0.22866 0.0
H131 H 0.08881 0.15473 0.13556 0.0
H132 H 0.14644 0.15254 0.01549 0.0
H133 H 0.82843 0.94607 0.47906 0.0
H134 H 0.18756 0.11722 0.88229 0.0
N135 N 0.05664 0.06958 0.95459 0.0
C136 C 0.03618 0.08393 0.0475 0.0
C137 C 0.08024 0.13075 0.08499 0.0
C138 C 0.10223 0.11474 0.99529 0.0
C139 C 0.04747 0.11471 0.11318 0.0
C140 C 0.08986 0.08332 0.93295 0.0
H141 H 0.20127 0.05799 0.77347 0.0
N142 N 0.10156 0.0306 0.8154 0.0
C143 C 0.16227 1.01544 0.75516 0.0
C144 C 0.1131 0.06327 0.85972 0.0
C145 C 0.12648 1.00545 0.77485 0.0
C146 C 0.17337 0.05052 0.78661 0.0
C147 C 0.14908 0.07444 0.84432 0.0
O148 O 0.06441 1.01343 0.01994 0.0
O149 O 1.00311 0.98914 0.7222 0.0
O150 O 0.95057 1.007 0.8048 0.0
O151 O 0.99044 0.02115 0.95619 0.0
O152 O 0.05263 0.96835 0.73807 0.0
O153 O 0.04305 0.96665 0.92979 0.0
O154 O 0.93048 0.05858 0.71985 0.0
O155 O 1.00244 0.05697 0.79506 0.0
O156 O 0.07012 0.0352 0.6798 0.0
O157 O 0.02618 0.04746 0.53723 0.0
O158 O 0.99839 0.0885 0.65033 0.0
O159 O 0.94482 0.07126 0.53809 0.0
C160 C 0.02309 0.96231 0.68179 0.0
C161 C 0.0979 0.95939 0.02999 0.0
C162 C 0.12984 0.90187 0.01014 0.0
C163 C 0.09775 0.92174 0.02542 0.0
C164 C 0.16268 0.92034 1.00357 0.0
C165 C 0.13107 0.97758 0.03234 0.0
C166 C 0.16327 0.95809 0.01811 0.0
C167 C 0.95751 1.01125 0.92375 0.0
C168 C 0.06339 0.97853 0.01654 0.0
C169 C 0.16022 0.10787 0.89482 0.0
C170 C 0.13683 0.12795 0.97084 0.0
C171 C 1.00913 0.08916 0.76043 0.0
C172 C 0.91461 0.11627 0.66474 0.0
C173 C 0.93213 0.14508 0.61185 0.0
C174 C 0.92391 0.18079 0.64847 0.0
C175 C 0.89849 0.18797 0.73988 0.0
C176 C 0.88866 0.12351 0.75549 0.0
C177 C 0.88088 0.15919 0.79335 0.0
C178 C 0.06107 0.04495 0.56926 0.0
C179 C 0.92322 0.07849 0.62954 0.0
H180 H 0.07211 0.90783 0.02946 0.0
H181 H 0.18767 0.9058 0.98772 0.0
H182 H 0.132 1.00683 0.0383 0.0
H183 H 0.18865 0.97236 0.01508 0.0
H184 H 0.95186 0.13996 0.54072 0.0
H185 H 0.89191 0.21559 0.76773 0.0
H186 H 0.8747 0.10152 0.79795 0.0
H187 H 0.86106 0.1645 0.8637 0.0
Tb188 Tb 0.5174 0.06689 0.82777 0.0
C189 C 0.536 0.92116 0.5871 0.0
C190 C 0.58606 0.92705 0.44763 0.0
C191 C 0.57118 0.86801 0.52376 0.0
C192 C 0.5576 0.94271 0.51674 0.0
C193 C 0.54236 0.88344 0.58999 0.0
C194 C 0.593 0.88976 0.4529 0.0
C195 C 0.49041 0.87837 0.71961 0.0
N196 N 0.50825 0.93705 0.65063 0.0
C197 C 0.48455 0.91562 0.71217 0.0
C198 C 0.5195 0.86222 0.65879 0.0
Tb199 Tb 0.49977 0.9983 0.61934 0.0
N200 N 0.54938 0.97853 0.5103 0.0
C201 C 0.56784 0.99955 0.43162 0.0
C202 C 0.60603 0.94906 0.37213 0.0
C203 C 0.59671 0.9854 0.36353 0.0
H204 H 0.46119 0.9269 0.75686 0.0
H205 H 0.61156 1.00257 0.30367 0.0
H206 H 0.61473 0.87734 0.40051 0.0
H207 H 0.47205 0.86201 0.77075 0.0
H208 H 0.56111 0.02754 0.42163 0.0
H209 H 0.44721 0.98637 0.16787 0.0
H210 H 0.62814 0.93809 0.31808 0.0
H211 H 0.49258 0.15108 0.74869 0.0
H212 H 0.47945 0.99546 0.98264 0.0
H213 H 0.46164 0.20331 0.83639 0.0
H214 H 0.57655 0.83917 0.52553 0.0
H215 H 0.42476 0.03857 0.28991 0.0
H216 H 0.41467 0.1051 0.30842 0.0
H217 H 0.52369 0.83326 0.66379 0.0
H218 H 0.41759 0.16445 0.21564 0.0
N219 N 0.48197 0.05333 0.99914 0.0
C220 C 0.47327 0.0192 0.03612 0.0
C221 C 0.44053 0.04299 0.20921 0.0
C222 C 0.44588 0.07763 0.16703 0.0
C223 C 0.45341 1.01359 0.14132 0.0
C224 C 0.46633 0.08187 0.05991 0.0
H225 H 0.43345 0.20073 0.03768 0.0
N226 N 0.4825 0.11617 0.89637 0.0
C227 C 0.46274 0.17852 0.88559 0.0
C228 C 0.46683 0.11463 1.00654 0.0
C229 C 0.48021 0.148 0.83558 0.0
C230 C 0.44708 0.17705 0.99915 0.0
C231 C 0.44855 0.14478 0.06056 0.0
O232 O 0.5415 0.11146 0.75268 0.0
O233 O 0.54101 0.038 0.66903 0.0
O234 O 0.52436 0.97135 0.77402 0.0
O235 O 0.53638 1.01647 0.91985 0.0
O236 O 0.57291 0.0447 0.81542 0.0
O237 O 0.55079 0.10009 0.93873 0.0
O238 O 0.49116 0.97385 0.44867 0.0
O239 O 0.47319 0.03813 0.74447 0.0
O240 O 0.49109 0.08997 0.66523 0.0
O241 O 0.50909 0.04882 0.52082 0.0
O242 O 0.45141 0.98874 0.73173 0.0
O243 O 0.44875 1.0027 0.53762 0.0
C244 C 0.57366 0.03268 0.70483 0.0
C245 C 0.59584 0.13213 0.8261 0.0
C246 C 0.65994 0.12755 0.85921 0.0
C247 C 0.62468 0.11711 0.88663 0.0
C248 C 0.6666 0.15276 0.77029 0.0
C249 C 0.60261 0.15774 0.73754 0.0
C250 C 0.63782 0.1678 0.70945 0.0
C251 C 0.53667 0.98141 0.8816 0.0
C252 C 0.55853 0.12115 0.8495 0.0
C253 C 0.43117 0.14149 0.17211 0.0
C254 C 0.42963 0.10781 0.22504 0.0
C255 C 0.44652 0.01968 0.78607 0.0
C256 C 0.43383 0.94606 0.44945 0.0
C257 C 0.39664 0.95042 0.44834 0.0
C258 C 0.37357 0.92098 0.46794 0.0
C259 C 0.38812 0.88671 0.48792 0.0
C260 C 0.44796 0.91092 0.46041 0.0
C261 C 0.42528 0.88157 0.48068 0.0
C262 C 0.49749 0.08194 0.54933 0.0
C263 C 0.45681 0.97881 0.45393 0.0
H264 H 0.6199 0.09749 0.95548 0.0
H265 H 0.69384 0.16091 0.74926 0.0
H266 H 0.5806 0.16969 0.68919 0.0
H267 H 0.64277 0.18733 0.64072 0.0
H268 H 0.38558 0.97722 0.43525 0.0
H269 H 0.37092 0.86402 0.50768 0.0
H270 H 0.47654 0.90605 0.45667 0.0
H271 H 0.43662 0.85493 0.49287 0.0
Tb272 Tb 0.54556 0.51642 0.6187 0.0
C273 C 0.40564 0.52245 0.87051 0.0
C274 C 0.36691 0.54686 0.71961 0.0
C275 C 0.34259 0.50499 0.86346 0.0
C276 C 0.40125 0.54312 0.77109 0.0
C277 C 0.37621 0.50375 0.91988 0.0
C278 C 0.33786 0.52682 0.76397 0.0
C279 C 0.41337 0.49046 0.08951 0.0
N280 N 0.43805 0.52342 0.92539 0.0
C281 C 0.44048 0.51196 0.04109 0.0
C282 C 0.38114 0.48587 0.02754 0.0
Tb283 Tb 0.48362 0.55371 0.82905 0.0
N284 N 0.43015 0.56152 0.72986 0.0
C285 C 0.42567 0.58644 0.64274 0.0
C286 C 0.3627 0.57117 0.62691 0.0
C287 C 0.39212 0.59145 0.58958 0.0
H288 H 0.46407 0.51813 0.09327 0.0
H289 H 0.38904 0.61095 0.51978 0.0
H290 H 0.31148 0.52868 0.72383 0.0
H291 H 0.41689 0.47849 0.17621 0.0
H292 H 0.44765 0.60316 0.61587 0.0
H293 H 0.60349 0.38832 0.75269 0.0
H294 H 0.33679 0.57493 0.58516 0.0
H295 H 0.58807 0.59662 0.57463 0.0
H296 H 0.56177 0.42611 0.64166 0.0
H297 H 0.64509 0.62459 0.62082 0.0
H298 H 0.31975 0.49051 0.89923 0.0
H299 H 0.66015 0.41456 0.83037 0.0
H300 H 0.70175 0.46762 0.84096 0.0
H301 H 0.3596 0.47037 0.067 0.0
H302 H 0.71346 0.53153 0.80093 0.0
N303 N 0.58766 0.47598 0.69211 0.0
C304 C 0.58452 0.43881 0.68543 0.0
C305 C 0.64049 0.43184 0.78917 0.0
C306 C 0.64725 0.46854 0.77349 0.0
C307 C 0.60882 0.4169 0.74455 0.0
C308 C 0.61981 0.49031 0.72552 0.0
H309 H 0.69265 0.58998 0.71981 0.0
N310 N 0.59911 0.54654 0.65948 0.0
C311 C 0.63997 0.59713 0.64747 0.0
C312 C 0.62604 0.52645 0.70598 0.0
C313 C 0.60661 0.5811 0.62477 0.0
C314 C 0.66679 0.57748 0.7024 0.0
C315 C 0.66032 0.54153 0.73037 0.0
O316 O 0.55113 0.47738 0.47744 0.0
O317 O 0.48958 0.53532 0.63964 0.0
O318 O 0.47863 0.49414 0.85179 0.0
O319 O 0.52848 0.47312 0.74467 0.0
O320 O 0.49807 0.48831 0.54261 0.0
O321 O 0.57343 0.53033 0.46012 0.0
O322 O 0.49031 0.57995 0.99866 0.0
O323 O 0.54168 0.54508 0.79122 0.0
O324 O 0.53138 0.57243 0.55524 0.0
O325 O 0.50514 0.60001 0.72537 0.0
O326 O 0.52455 0.53808 0.96241 0.0
O327 O 0.45584 0.60243 0.86759 0.0
C328 C 0.47291 0.50996 0.5801 0.0
C329 C 0.61003 0.4798 0.39709 0.0
C330 C 0.64561 0.42417 0.36739 0.0
C331 C 0.61224 0.44237 0.37085 0.0
C332 C 0.67722 0.44374 0.38903 0.0
C333 C 0.64219 0.49921 0.41516 0.0
C334 C 0.67544 0.48121 0.412 0.0
C335 C 0.5015 0.46766 0.82144 0.0
C336 C 0.57414 0.4969 0.41951 0.0
C337 C 0.68728 0.52021 0.78034 0.0
C338 C 0.68064 0.48386 0.80294 0.0
C339 C 0.553 0.536 0.89554 0.0
C340 C 0.48398 0.64358 0.99885 0.0
C341 C 0.52087 0.65092 0.99141 0.0
C342 C 0.53404 0.68544 0.02272 0.0
C343 C 0.50933 0.7131 0.05557 0.0
C344 C 0.45978 0.67148 0.03036 0.0
C345 C 0.47245 0.70628 0.05686 0.0
C346 C 0.51994 0.60236 0.61628 0.0
C347 C 0.47006 0.60719 0.97246 0.0
H348 H 0.58775 0.427 0.35614 0.0
H349 H 0.70307 0.43014 0.38744 0.0
H350 H 0.64171 0.5281 0.43507 0.0
H351 H 0.69989 0.49636 0.42819 0.0
H352 H 0.53911 0.62953 0.96363 0.0
H353 H 0.5186 0.74007 0.08081 0.0
H354 H 0.43113 0.6663 0.03468 0.0
H355 H 0.45372 0.7278 0.08162 0.0
Tb356 Tb 0.03141 0.56117 0.61936 0.0
C357 C 0.04435 0.42637 0.91615 0.0
C358 C 0.03119 0.37373 0.7898 0.0
C359 C 0.07202 0.36848 0.95785 0.0
C360 C 0.02766 0.41118 0.81713 0.0
C361 C 0.06652 0.40528 0.98858 0.0
C362 C 0.05414 0.35263 0.859 0.0
C363 C 0.07261 0.45738 0.12367 0.0
N364 N 0.03762 0.46178 0.94413 0.0
C365 C 0.04951 0.47672 0.05102 0.0
C366 C 0.08159 0.42158 0.09144 0.0
Tb367 Tb 1.00106 0.49252 0.81588 0.0
N368 N 1.00612 0.4327 0.75205 0.0
C369 C 0.98443 0.41731 0.66588 0.0
C370 C 1.01049 0.35841 0.69702 0.0
C371 C 0.98638 0.38019 0.63662 0.0
H372 H 0.04205 0.50393 0.07869 0.0
H373 H 0.96955 0.36855 0.56651 0.0
H374 H 0.05756 0.32393 0.83856 0.0
H375 H 0.08295 0.47017 0.20493 0.0
H376 H 0.96561 0.43366 0.61872 0.0
H377 H 0.06174 0.68438 0.87663 0.0
H378 H 1.0122 0.32973 0.67361 0.0
H379 H 0.99762 0.55607 0.34337 0.0
H380 H 0.06651 0.61975 0.81943 0.0
H381 H 0.95452 0.58893 0.22362 0.0
H382 H 0.08908 0.35181 0.01212 0.0
H383 H 0.01662 0.72279 0.77912 0.0
H384 H 0.96839 0.7283 0.62283 0.0
H385 H 0.09908 0.4063 0.14821 0.0
H386 H 0.93687 0.70123 0.44782 0.0
N387 N 0.02552 0.62077 0.68803 0.0
C388 C 0.0474 0.63607 0.77382 0.0
C389 C 0.01911 0.69442 0.75218 0.0
C390 C 0.99772 0.67922 0.66107 0.0
C391 C 0.04467 0.67289 0.80691 0.0
C392 C 1.00255 0.64225 0.62845 0.0
H393 H 0.93145 0.64912 0.29723 0.0
N394 N 0.99565 0.59361 0.49257 0.0
C395 C 0.96234 0.60008 0.31039 0.0
C396 C 0.98625 0.62779 0.52823 0.0
C397 C 0.98646 0.58092 0.37995 0.0
C398 C 0.94955 0.63385 0.35216 0.0
C399 C 0.96268 0.64877 0.46028 0.0
O400 O 0.06226 0.56274 0.46024 0.0
O401 O 0.02088 0.50302 0.63646 0.0
O402 O 0.06169 0.49148 0.82157 0.0
O403 O 0.07467 0.54884 0.75643 0.0
O404 O 0.03473 0.51873 0.47262 0.0
O405 O 0.08167 0.58669 0.62601 0.0
O406 O 0.97215 0.48843 0.97797 0.0
O407 O 1.01106 0.55055 0.7973 0.0
O408 O 0.97086 0.56035 0.60608 0.0
O409 O 0.95753 0.50365 0.67961 0.0
O410 O 0.99645 0.53567 0.96082 0.0
O411 O 0.95038 0.46785 0.81057 0.0
C412 C 0.02578 0.4901 0.52791 0.0
C413 C 0.12458 0.56368 0.49034 0.0
C414 C 0.16612 0.51282 0.48848 0.0
C415 C 0.13283 0.52815 0.52203 0.0
C416 C 0.19198 0.53463 0.4322 0.0
C417 C 0.15052 0.58494 0.43455 0.0
C418 C 0.18442 0.57062 0.40788 0.0
C419 C 0.08499 0.51883 0.81219 0.0
C420 C 0.08898 0.57902 0.51385 0.0
C421 C 0.95497 0.68463 0.4985 0.0
C422 C 0.97294 0.70004 0.59797 0.0
C423 C 1.00459 0.56415 0.90364 0.0
C424 C 0.90951 0.48741 0.95871 0.0
C425 C 0.89966 0.52262 0.92903 0.0
C426 C 0.86631 0.53674 0.96702 0.0
C427 C 0.84229 0.51441 0.02945 0.0
C428 C 0.88546 0.46554 0.02089 0.0
C429 C 0.8517 0.47893 0.05474 0.0
C430 C 0.94782 0.53289 0.61878 0.0
C431 C 0.94478 0.47299 0.92527 0.0
H432 H 0.11313 0.51245 0.56986 0.0
H433 H 0.21799 0.52366 0.40518 0.0
H434 H 0.1445 0.61258 0.41145 0.0
H435 H 0.20457 0.58714 0.36535 0.0
H436 H 0.91823 0.53885 0.8786 0.0
H437 H 0.8163 0.52459 0.06006 0.0
H438 H 0.8928 0.43815 0.04302 0.0
H439 H 0.83299 0.46195 0.10206 0.0
C440 C 0.14614 0.02271 0.35788 0.0
C441 C 0.15398 0.05628 0.30252 0.0
C442 C 0.09963 0.08206 0.41477 0.0
C443 C 0.09249 0.04893 0.4737 0.0
N444 N 0.11471 0.98874 0.50858 0.0
N445 N 0.13822 0.12 0.29861 0.0
C446 C 0.11758 0.01986 0.44714 0.0
C447 C 0.13101 0.08626 0.33774 0.0
N448 N 0.16494 0.99233 0.32184 0.0
N449 N 0.07666 0.11061 0.43272 0.0
H450 H 0.16078 0.1263 0.24683 0.0
H451 H 0.16078 0.1263 0.24683 0.0
H452 H 0.05323 0.10896 0.48441 0.0
H453 H 0.08054 0.13545 0.3923 0.0
H454 H 0.15636 0.96612 0.33846 0.0
H455 H 0.18829 0.99276 0.26974 0.0
H456 H 0.13481 0.96909 0.51055 0.0
H457 H 0.09338 0.98383 0.56583 0.0
C458 C 0.52666 0.13946 0.2749 0.0
C459 C 0.51125 0.17456 0.30188 0.0
C460 C 0.48082 0.14666 0.47787 0.0
C461 C 0.49786 0.11233 0.45458 0.0
N462 N 0.52242 0.07461 0.29135 0.0
N463 N 0.48271 0.21183 0.45903 0.0
C464 C 0.51693 0.10833 0.34257 0.0
C465 C 0.49064 0.17825 0.41119 0.0
N466 N 0.55231 0.13558 0.18625 0.0
N467 N 0.45226 0.14852 0.55567 0.0
H468 H 0.47081 0.21585 0.54372 0.0
H469 H 0.49269 0.23561 0.42452 0.0
H470 H 0.44155 0.12553 0.59419 0.0
H471 H 0.43623 0.17155 0.56808 0.0
H472 H 0.55995 0.15593 0.1287 0.0
H473 H 0.56889 0.11282 0.17743 0.0
H474 H 0.53391 0.07008 0.20636 0.0
H475 H 0.50928 0.05166 0.32027 0.0
C476 C 0.39683 0.53284 0.34938 0.0
C477 C 0.3663 0.51267 0.38926 0.0
C478 C 0.40708 0.48758 0.5476 0.0
C479 C 0.43609 0.51057 0.51361 0.0
N480 N 0.46093 0.54389 0.35021 0.0
N481 N 0.34622 0.46457 0.51527 0.0
C482 C 0.43153 0.52967 0.40521 0.0
C483 C 0.37282 0.48802 0.4847 0.0
N484 N 0.3942 0.55535 0.25529 0.0
N485 N 0.41212 0.46564 0.64276 0.0
H486 H 0.32138 0.46415 0.47414 0.0
H487 H 0.34892 0.4439 0.57571 0.0
H488 H 0.43678 0.4634 0.68556 0.0
H489 H 0.39204 0.45084 0.68402 0.0
H490 H 0.37109 0.55834 0.20396 0.0
H491 H 0.37109 0.55834 0.20396 0.0
H492 H 0.45926 0.55813 0.27083 0.0
H493 H 0.48697 0.5405 0.38218 0.0
C494 C 0.99995 0.42066 0.26597 0.0
C495 C 0.01865 0.38802 0.29289 0.0
C496 C 0.04271 0.42192 0.47555 0.0
C497 C 0.02054 0.45297 0.45676 0.0
N498 N 0.98186 0.48261 0.31815 0.0
N499 N 0.05974 0.3592 0.42514 0.0
C500 C 1.00027 0.45218 0.34731 0.0
C501 C 0.04085 0.38946 0.39766 0.0
N502 N 0.9807 0.4214 0.16207 0.0
N503 N 0.06648 0.42386 0.56773 0.0
H504 H 0.0626 0.33724 0.36485 0.0
H505 H 0.07226 0.35554 0.50721 0.0
H506 H 0.06641 0.44602 0.62748 0.0
H507 H 0.08668 0.405 0.58219 0.0
H508 H 0.9596 0.43925 0.1483 0.0
H509 H 0.98611 0.40388 0.08861 0.0
H510 H 0.97183 0.48758 0.2332 0.0
H511 H 0.97617 0.5032 0.38143 0.0
C512 C 0.91165 0.99038 0.24674 0.0
C513 C 0.8736 1.00169 0.20816 0.0
C514 C 0.89411 0.98776 0.99832 0.0
C515 C 0.9281 1.00356 0.02453 0.0
N516 N 0.94553 0.04566 0.18531 0.0
N517 N 0.83136 0.98502 0.0478 0.0
C518 C 0.93096 1.01323 0.1524 0.0
C519 C 0.86533 0.99258 0.08405 0.0
N520 N 0.92904 0.94824 0.35347 0.0
N521 N 0.88932 0.96622 0.89843 0.0
H522 H 0.80953 0.98372 0.10685 0.0
H523 H 0.80953 0.98372 0.10685 0.0
H524 H 0.91089 0.9575 0.84459 0.0
H525 H 0.8646 0.9542 0.87848 0.0
H526 H 0.95022 0.93236 0.38773 0.0
H527 H 0.95022 0.93236 0.38773 0.0
H528 H 0.94401 0.05587 0.27389 0.0
H529 H 0.95454 0.06338 0.12075 0.0
C530 C 0.52465 0.91522 0.13827 0.0
C531 C 0.53874 0.88203 0.09087 0.0
C532 C 0.56211 0.917 0.91856 0.0
C533 C 0.54603 0.94989 0.965 0.0
N534 N 0.53155 0.98038 0.15369 0.0
N535 N 0.5773 0.85433 0.93533 0.0
C536 C 0.5332 0.94918 0.08542 0.0
C537 C 0.55984 0.88391 0.98298 0.0
N538 N 0.50006 0.91361 0.22822 0.0
N539 N 0.5812 0.91721 0.81354 0.0
H540 H 0.57799 0.82921 0.97525 0.0
H541 H 0.57799 0.82921 0.97525 0.0
H542 H 0.58372 0.94027 0.76326 0.0
H543 H 0.59469 0.89442 0.7778 0.0
H544 H 0.48407 0.93572 0.25418 0.0
H545 H 0.48407 0.93572 0.25418 0.0
H546 H 0.52372 0.98093 0.24381 0.0
H547 H 0.54237 1.00461 0.1248 0.0
C548 C 0.63882 0.50279 0.06893 0.0
C549 C 0.66071 0.53452 0.08055 0.0
C550 C 0.61317 0.56688 0.96621 0.0
C551 C 0.59154 0.53504 0.95216 0.0
N552 N 0.58295 0.47351 0.00911 0.0
N553 N 0.66367 0.59873 0.06088 0.0
C554 C 0.60407 0.50359 0.01098 0.0
C555 C 0.64599 0.56713 0.03588 0.0
N556 N 0.65203 0.47073 0.10681 0.0
N557 N 0.60246 0.59704 0.90995 0.0
H558 H 0.68445 0.60008 0.1227 0.0
H559 H 0.65618 0.62394 0.03076 0.0
H560 H 0.57973 0.59625 0.85757 0.0
H561 H 0.61687 0.62102 0.90523 0.0
H562 H 0.64093 0.44584 0.08208 0.0
H563 H 0.67485 0.46883 0.15958 0.0
H564 H 0.58616 0.45198 0.06635 0.0
H565 H 0.56152 0.47062 0.95069 0.0
C566 C 0.03406 0.63441 0.15448 0.0
C567 C 1.01122 0.66558 0.13973 0.0
C568 C 0.9858 0.63165 0.95925 0.0
C569 C 1.00969 0.60156 0.97178 0.0
N570 N 0.06123 0.57872 0.07252 0.0
N571 N 0.97075 0.69505 1.00381 0.0
C572 C 0.03488 0.60441 0.06743 0.0
C573 C 0.98842 0.66444 0.03571 0.0
N574 N 0.05516 0.6327 0.25457 0.0
N575 N 0.96082 0.62916 0.87084 0.0
H576 H 0.97378 0.72 0.04767 0.0
H577 H 0.95612 0.69704 0.92495 0.0
H578 H 0.96187 0.6081 0.80675 0.0
H579 H 0.93913 0.64678 0.86313 0.0
H580 H 0.06739 0.609 0.28152 0.0
H581 H 0.05926 0.65401 0.3164 0.0
H582 H 0.08336 0.58051 0.12906 0.0
H583 H 0.06325 0.55729 0.00993 0.0
C584 C 0.94804 0.23128 0.37846 0.0
C585 C 0.98599 0.23043 0.39452 0.0
C586 C 0.97635 0.21894 0.6061 0.0
C587 C 0.94051 0.20969 0.58013 0.0
N588 N 0.88978 0.21272 0.4477 0.0
N589 N 0.03673 0.22512 0.52718 0.0
C590 C 0.92553 0.21795 0.46854 0.0
C591 C 1.00041 0.22532 0.51007 0.0
N592 N 0.93255 0.24493 0.27903 0.0
N593 N 0.98658 0.22293 0.72272 0.0
H594 H 0.05515 0.22957 0.45786 0.0
H595 H 0.04837 0.21807 0.60819 0.0
H596 H 0.96783 0.22046 0.79231 0.0
H597 H 1.01141 0.23368 0.74768 0.0
H598 H 0.94677 0.2577 0.21115 0.0
H599 H 0.94677 0.2577 0.21115 0.0
H600 H 0.87813 0.21765 0.36463 0.0
H601 H 0.87214 0.20381 0.514 0.0
C602 C 0.30391 0.98608 0.47689 0.0
C603 C 0.29337 0.97987 0.35585 0.0
C604 C 0.3167 0.91838 0.35583 0.0
C605 C 0.33446 0.9278 0.46396 0.0
N606 N 0.33181 0.96056 0.65263 0.0
N607 N 0.27781 0.93589 0.19819 0.0
C608 C 0.32213 0.95782 0.53481 0.0
C609 C 0.29491 0.94449 0.30301 0.0
N610 N 0.29964 0.01952 0.53124 0.0
N611 N 0.32262 0.88569 0.29861 0.0
H612 H 0.26089 0.95381 0.15472 0.0
H613 H 0.26089 0.95381 0.15472 0.0
H614 H 0.33796 0.86542 0.33628 0.0
H615 H 0.31104 0.87874 0.21578 0.0
H616 H 0.31017 0.02672 0.61512 0.0
H617 H 0.28636 0.04063 0.49004 0.0
H618 H 0.32278 0.9811 0.7118 0.0
H619 H 0.34686 0.94013 0.69155 0.0
C620 C 0.62813 0.34115 0.18471 0.0
C621 C 0.60009 0.32945 0.26232 0.0
C622 C 0.62852 0.36303 0.42729 0.0
C623 C 0.6458 0.38444 0.34286 0.0
N624 N 0.6724 0.38899 0.15013 0.0
N625 N 0.57529 0.32848 0.46589 0.0
C626 C 0.64966 0.37111 0.22377 0.0
C627 C 0.60144 0.3389 0.38736 0.0
N628 N 0.63239 0.3247 0.0737 0.0
N629 N 0.63769 0.3666 0.54498 0.0
H630 H 0.55372 0.31206 0.44158 0.0
H631 H 0.57395 0.33848 0.5547 0.0
H632 H 0.65779 0.3847 0.57263 0.0
H633 H 0.62865 0.34863 0.60904 0.0
H634 H 0.65307 0.33056 0.01383 0.0
H635 H 0.61645 0.30274 0.04626 0.0
H636 H 0.67586 0.38301 0.05844 0.0
H637 H 0.67586 0.38301 0.05844 0.0
C638 C 0.22961 0.43855 0.48606 0.0
C639 C 0.21758 0.42745 0.37099 0.0
C640 C 0.15789 0.44733 0.42508 0.0
C641 C 0.17451 0.47379 0.50254 0.0
N642 N 0.22197 0.48533 0.64441 0.0
N643 N 0.16802 0.39213 0.30076 0.0
C644 C 0.20872 0.46527 0.54997 0.0
C645 C 0.18052 0.42058 0.36868 0.0
N646 N 0.26057 0.42423 0.52758 0.0
N647 N 0.12256 0.44973 0.39652 0.0
H648 H 0.18595 0.37488 0.25374 0.0
H649 H 0.14106 0.38455 0.29901 0.0
H650 H 0.10557 0.46965 0.43288 0.0
H651 H 0.1101 0.43135 0.33799 0.0
H652 H 0.27073 0.43017 0.61313 0.0
H653 H 0.27073 0.43017 0.61313 0.0
H654 H 0.24827 0.48309 0.67486 0.0
H655 H 0.20608 0.50497 0.68928 0.0
C656 C 0.07052 0.82985 0.9769 0.0
C657 C 0.07274 0.81992 0.09831 0.0
C658 C 0.13341 0.84431 0.11389 0.0
C659 C 0.12699 0.86186 1.00522 0.0
N660 N 0.1017 0.85701 0.80886 0.0
N661 N 0.1091 0.80287 0.2616 0.0
C662 C 0.10036 0.84805 0.92654 0.0
C663 C 0.10586 0.82184 0.15922 0.0
N664 N 0.03935 0.82476 0.91472 0.0
N665 N 0.16371 0.85229 0.17758 0.0
H666 H 0.13245 0.80134 0.31235 0.0
H667 H 0.13245 0.80134 0.31235 0.0
H668 H 0.18458 0.86728 0.14105 0.0
H669 H 0.16837 0.84426 0.2649 0.0
H670 H 0.03497 0.8347 0.82946 0.0
H671 H 0.01723 0.81151 0.95113 0.0
H672 H 0.0836 0.84714 0.74514 0.0
H673 H 0.12299 0.87232 0.77565 0.0
C674 C 0.71523 0.05566 0.99113 0.0
C675 C 0.72138 0.07184 0.10622 0.0
C676 C 0.69728 0.12952 0.04307 0.0
C677 C 0.68919 0.1127 0.9305 0.0
N678 N 0.7014 0.06555 0.78224 0.0
N679 N 0.72994 0.12601 0.22984 0.0
C680 C 0.70203 0.0776 0.89938 0.0
C681 C 0.71639 0.10955 0.12808 0.0
N682 N 0.72009 0.01924 0.97161 0.0
N683 N 0.68494 0.1637 0.07065 0.0
H684 H 0.74456 0.11196 0.29313 0.0
H685 H 0.72967 0.15394 0.24592 0.0
H686 H 0.67215 0.17959 0.00785 0.0
H687 H 0.68591 0.17565 0.15675 0.0
H688 H 0.7121 1.00539 0.89321 0.0
H689 H 0.73017 1.00241 0.03698 0.0
H690 H 0.71327 0.04135 0.75171 0.0
H691 H 0.69258 0.08212 0.71432 0.0
C692 C 0.61434 0.74517 0.01666 0.0
C693 C 0.62427 0.73572 0.13303 0.0
C694 C 0.5977 0.67717 0.10309 0.0
C695 C 0.57321 0.69398 0.02242 0.0
N696 N 0.56572 0.74 0.87333 0.0
N697 N 0.65506 0.68472 0.20842 0.0
C698 C 0.58473 0.72623 0.96568 0.0
C699 C 0.62793 0.69808 0.14168 0.0
N700 N 0.63128 0.77284 0.9622 0.0
N701 N 0.59003 0.64523 0.15584 0.0
H702 H 0.67471 0.70203 0.24431 0.0
H703 H 0.65857 0.65721 0.22257 0.0
H704 H 0.56726 0.62994 0.13727 0.0
H705 H 0.60579 0.63479 0.22365 0.0
H706 H 0.62593 0.77992 0.87408 0.0
H707 H 0.65206 0.78687 1.00576 0.0
H708 H 0.57121 0.76518 0.83777 0.0
H709 H 0.54399 0.72614 0.83502 0.0
C710 C 0.79974 0.60842 0.96208 0.0
C711 C 0.81132 0.62106 0.07652 0.0
C712 C 0.87158 0.60278 0.02407 0.0
C713 C 0.85596 0.57503 0.94984 0.0
N714 N 0.80882 0.56043 0.80946 0.0
N715 N 0.86119 0.65537 0.15413 0.0
C716 C 0.82139 0.58165 0.90218 0.0
C717 C 0.8483 0.62875 0.07963 0.0
N718 N 0.76843 0.62081 0.91632 0.0
N719 N 0.90714 0.6029 0.05016 0.0
H720 H 0.8441 0.67293 0.20337 0.0
H721 H 0.8441 0.67293 0.20337 0.0
H722 H 0.92497 0.58336 0.0159 0.0
H723 H 0.9185 0.62374 0.10253 0.0
H724 H 0.75929 0.6132 0.83081 0.0
H725 H 0.75332 0.64061 0.96346 0.0
H726 H 0.78252 0.56198 0.77829 0.0
H727 H 0.82527 0.54092 0.76642 0.0
C728 C 0.98221 0.17367 0.96897 0.0
C729 C 1.01392 0.19562 0.97267 0.0
C730 C 0.04039 0.15059 0.82185 0.0
C731 C 1.01113 0.12566 0.83619 0.0
N732 N 0.95528 0.11431 0.9403 0.0
N733 N 0.07476 0.20229 0.90268 0.0
C734 C 0.9824 0.13762 0.91431 0.0
C735 C 0.04326 0.18347 0.89764 0.0
N736 N 0.9509 0.18821 0.0139 0.0
N737 N 0.06625 0.14248 0.73735 0.0
H738 H 0.07759 0.22613 0.95449 0.0
H739 H 0.09857 0.19317 0.86192 0.0
H740 H 0.06696 0.11779 0.68934 0.0
H741 H 0.0859 0.16074 0.71128 0.0
H742 H 0.92602 0.17551 1.00618 0.0
H743 H 0.94929 0.21512 0.04461 0.0
H744 H 0.9358 0.11981 1.00639 0.0
H745 H 0.95418 0.08804 0.90476 0.0
C746 C 0.35397 1.00357 0.95286 0.0
C747 C 0.34069 0.03825 0.99298 0.0
C748 C 0.39403 0.0633 0.87998 0.0
C749 C 0.41081 0.02831 0.86229 0.0
N750 N 0.40638 0.96574 0.9223 0.0
N751 N 0.35313 0.10216 1.00152 0.0
C752 C 0.39047 0.99874 0.90973 0.0
C753 C 0.36223 0.06843 0.95818 0.0
N754 N 0.3315 0.97443 0.9567 0.0
N755 N 0.40704 0.0916 0.81794 0.0
H756 H 0.33049 0.10678 0.05605 0.0
H757 H 0.36941 0.12473 0.98986 0.0
H758 H 0.4283 0.08837 0.75722 0.0
H759 H 0.39459 0.11692 0.81834 0.0
H760 H 0.33853 0.94887 0.9213 0.0
H761 H 0.30446 0.97704 0.98164 0.0
H762 H 0.39376 0.94452 0.9655 0.0
H763 H 0.43364 0.96105 0.90769 0.0
C764 C 0.50578 0.36281 0.87278 0.0
C765 C 0.5 0.3606 0.9994 0.0
C766 C 0.49502 0.42754 0.00979 0.0
C767 C 0.49848 0.43032 0.88189 0.0
N768 N 0.49763 0.39724 0.69123 0.0
N769 N 0.47803 0.39108 0.17925 0.0
C770 C 0.50092 0.39685 0.81331 0.0
C771 C 0.49021 0.39306 0.06344 0.0
N772 N 0.5172 0.33265 0.80942 0.0
N773 N 0.50064 0.45716 0.08304 0.0
H774 H 0.47481 0.36633 0.22089 0.0
H775 H 0.4677 0.41343 0.228 0.0
H776 H 0.50889 0.48162 0.04961 0.0
H777 H 0.502 0.45615 0.17653 0.0
H778 H 0.52597 0.33309 0.72018 0.0
H779 H 0.51954 0.30753 0.84911 0.0
H780 H 0.49618 0.37377 0.63691 0.0
H781 H 0.49294 0.42103 0.6458 0.0
C782 C 0.17723 0.47692 0.92758 0.0
C783 C 0.19032 0.50354 0.01254 0.0
C784 C 0.14129 0.5442 0.93964 0.0
C785 C 0.12381 0.51538 0.87141 0.0
N786 N 0.13073 0.45426 0.79315 0.0
N787 N 0.18096 0.5624 0.10486 0.0
C788 C 0.14349 0.48176 0.86473 0.0
C789 C 0.17128 0.53711 0.01919 0.0
N790 N 0.19833 0.44724 0.902 0.0
N791 N 0.13099 0.57915 0.92507 0.0
H792 H 0.20341 0.55921 0.15896 0.0
H793 H 0.16536 0.58516 0.12739 0.0
H794 H 0.11179 0.58638 0.86387 0.0
H795 H 0.14472 0.60131 0.96232 0.0
H796 H 0.19316 0.42825 0.83314 0.0
H797 H 0.22332 0.44355 0.94197 0.0
H798 H 0.13855 0.42729 0.79935 0.0
H799 H 0.11259 0.45917 0.72561 0.0
C800 C 0.97815 0.8753 0.51102 0.0
C801 C 1.0088 0.85485 0.46986 0.0
C802 C 0.04712 0.90211 0.57101 0.0
C803 C 0.01669 0.9244 0.61126 0.0
N804 N 0.95247 0.92384 0.64145 0.0
N805 N 0.07114 0.84357 0.50145 0.0
C806 C 0.98201 0.90823 0.58822 0.0
C807 C 0.04258 0.86694 0.51289 0.0
N808 N 0.94512 0.86383 0.47353 0.0
N809 N 0.08159 0.91392 0.58445 0.0
H810 H 0.0683 0.817 0.468 0.0
H811 H 0.09659 0.84885 0.53624 0.0
H812 H 0.0908 0.92926 0.65708 0.0
H813 H 0.10228 0.9052 0.52633 0.0
H814 H 0.9214 0.87833 0.48891 0.0
H815 H 0.94188 0.84009 0.42127 0.0
H816 H 0.92682 0.91266 0.63843 0.0
H817 H 0.9543 0.94687 0.6968 0.0
C818 C 0.65742 0.06261 0.50855 0.0
C819 C 0.68081 0.03144 0.5029 0.0
C820 C 0.63775 1.00543 0.65188 0.0
C821 C 0.61035 0.03211 0.63222 0.0
N822 N 0.59688 0.08697 0.52919 0.0
N823 N 0.68746 0.96987 0.56505 0.0
C824 C 0.62106 0.06077 0.55616 0.0
C825 C 0.66925 1.00189 0.57346 0.0
N826 N 0.67084 0.09523 0.47536 0.0
N827 N 0.63531 0.98472 0.7506 0.0
H828 H 0.7097 0.96586 0.50845 0.0
H829 H 0.67825 0.94663 0.60627 0.0
H830 H 0.61531 0.98901 0.8159 0.0
H831 H 0.65558 0.96685 0.77457 0.0
H832 H 0.65669 0.1195 0.48679 0.0
H833 H 0.69783 0.09854 0.4517 0.0
H834 H 0.60182 0.10617 0.46435 0.0
H835 H 0.57088 0.08756 0.56369 0.0
C836 C 0.5569 0.70047 0.55739 0.0
C837 C 0.5364 0.71176 0.45753 0.0
C838 C 0.50463 0.65223 0.46108 0.0
C839 C 0.52469 0.64082 0.56252 0.0
N840 N 0.56525 0.65914 0.71981 0.0
N841 N 0.4843 0.70136 0.33643 0.0
C842 C 0.54931 0.66668 0.61414 0.0
C843 C 0.50833 0.68846 0.41643 0.0
N844 N 0.5842 0.72234 0.59759 0.0
N845 N 0.48225 0.62814 0.40503 0.0
H846 H 0.48588 0.72761 0.30518 0.0
H847 H 0.46088 0.68776 0.31164 0.0
H848 H 0.47768 0.60276 0.43897 0.0
H849 H 0.47027 0.63239 0.32229 0.0
H850 H 0.60407 0.71437 0.65652 0.0
H851 H 0.5878 0.74859 0.56755 0.0
H852 H 0.58414 0.67522 0.76406 0.0
H853 H 0.55671 0.63763 0.76884 0.0
C854 C 0.8543 0.57296 0.51843 0.0
C855 C 0.84033 0.54621 0.43531 0.0
C856 C 0.8941 0.50781 0.48308 0.0
C857 C 0.90905 0.53551 0.56206 0.0
N858 N 0.89511 0.58907 0.68116 0.0
N859 N 0.84464 0.48523 0.3562 0.0
C860 C 0.88676 0.56664 0.58592 0.0
C861 C 0.85955 0.5127 0.42398 0.0
N862 N 0.83625 0.60511 0.53319 0.0
N863 N 0.91347 0.47692 0.46081 0.0
H864 H 0.82048 0.4882 0.31088 0.0
H865 H 0.8544 0.45883 0.35086 0.0
H866 H 0.93733 0.47168 0.50435 0.0
H867 H 0.90744 0.45734 0.39484 0.0
H868 H 0.84709 0.62809 0.57562 0.0
H869 H 0.81069 0.60926 0.4981 0.0
H870 H 0.87927 0.61071 0.71246 0.0
H871 H 0.91553 0.58265 0.73942 0.0
loop_
_geom_bond_atom_site_label_1
_geom_bond_atom_site_label_2
_geom_bond_distance
_geom_bond_site_symmetry_2
_ccdc_geom_bond_type
H0 C7 0.929 . S
H1 C10 0.930 . S
H2 C12 0.929 . S
H3 C4 0.969 . S
C4 H3 0.969 . S
C4 O5 1.550 . S
C4 H6 0.973 . S
O5 C4 1.550 . S
O5 C11 1.412 . S
H6 C4 0.973 . S
C7 H0 0.929 . S
C7 C8 1.400 . S
C7 C9 1.364 . S
C8 C7 1.400 . S
C8 C12 1.377 . S
C9 C7 1.364 . S
C9 C10 1.374 . S
C10 H1 0.930 . S
C10 C9 1.374 . S
C10 C11 1.383 . S
C11 O5 1.412 . S
C11 C10 1.383 . S
C11 C12 1.394 . S
C12 H2 0.929 . S
C12 C8 1.377 . S
C12 C11 1.394 . S
H13 C20 0.929 . S
H14 C23 0.930 . S
H15 C25 0.929 . S
H16 C17 0.969 . S
C17 H16 0.969 . S
C17 O18 1.550 . S
C17 H19 0.973 . S
O18 C17 1.550 . S
O18 C24 1.412 . S
H19 C17 0.973 . S
C20 H13 0.929 . S
C20 C21 1.400 . S
C20 C22 1.364 . S
C21 C20 1.400 . S
C21 C25 1.377 . S
C22 C20 1.364 . S
C22 C23 1.374 . S
C23 H14 0.930 . S
C23 C22 1.374 . S
C23 C24 1.383 . S
C24 O18 1.412 . S
C24 C23 1.383 . S
C24 C25 1.394 . S
C25 H15 0.929 . S
C25 C21 1.377 . S
C25 C24 1.394 . S
H26 C33 0.929 . S
H27 C36 0.930 . S
H28 C38 0.929 . S
H29 C30 0.949 1_545 S
C30 H29 0.949 1_565 S
C30 O31 1.550 . S
C30 H32 0.973 . S
O31 C30 1.550 . S
O31 C37 1.412 . S
H32 C30 0.973 . S
C33 H26 0.929 . S
C33 C34 1.400 . S
C33 C35 1.364 . S
C34 C33 1.400 . S
C34 C38 1.377 . S
C35 C33 1.364 . S
C35 C36 1.374 . S
C36 H27 0.930 . S
C36 C35 1.374 . S
C36 C37 1.383 . S
C37 O31 1.412 . S
C37 C36 1.383 . S
C37 C38 1.394 . S
C38 H28 0.929 . S
C38 C34 1.377 . S
C38 C37 1.394 . S
H39 C46 0.929 . S
H40 C49 0.930 . S
H41 C51 0.929 . S
H42 C43 0.969 . S
C43 H42 0.969 . S
C43 O44 1.550 . S
C43 H45 0.973 . S
O44 C43 1.550 . S
O44 C50 1.412 . S
H45 C43 0.973 . S
C46 H39 0.929 . S
C46 C47 1.400 . S
C46 C48 1.364 . S
C47 C46 1.400 . S
C47 C51 1.377 . S
C48 C46 1.364 . S
C48 C49 1.374 . S
C49 H40 0.930 . S
C49 C48 1.374 . S
C49 C50 1.383 . S
C50 O44 1.412 . S
C50 C49 1.383 . S
C50 C51 1.394 . S
C51 H41 0.929 . S
C51 C47 1.377 . S
C51 C50 1.394 . S
H52 C59 0.929 . S
H53 C62 0.930 . S
H54 C64 0.929 . S
H55 C56 0.969 . S
C56 H55 0.969 . S
C56 O57 1.550 . S
C56 H58 0.973 . S
O57 C56 1.550 . S
O57 C63 1.412 . S
H58 C56 0.973 . S
C59 H52 0.929 . S
C59 C60 1.400 . S
C59 C61 1.364 1_556 S
C60 C59 1.400 . S
C60 C64 1.377 . S
C61 C59 1.364 1_554 S
C61 C62 1.374 . S
C62 H53 0.930 . S
C62 C61 1.374 . S
C62 C63 1.383 . S
C63 O57 1.412 . S
C63 C62 1.383 . S
C63 C64 1.394 1_554 S
C64 H54 0.929 . S
C64 C60 1.377 . S
C64 C63 1.394 1_556 S
H65 C72 0.929 . S
H66 C75 0.930 . S
H67 C77 0.929 . S
H68 C69 0.969 . S
C69 H68 0.969 . S
C69 O70 1.550 . S
C69 H71 0.973 . S
O70 C69 1.550 . S
O70 C76 1.412 . S
H71 C69 0.973 . S
C72 H65 0.929 . S
C72 C73 1.400 . S
C72 C74 1.364 1_556 S
C73 C72 1.400 . S
C73 C77 1.377 . S
C74 C72 1.364 1_554 S
C74 C75 1.374 . S
C75 H66 0.930 . S
C75 C74 1.374 . S
C75 C76 1.383 . S
C76 O70 1.412 . S
C76 C75 1.383 . S
C76 C77 1.394 1_554 S
C77 H67 0.929 . S
C77 C73 1.377 . S
C77 C76 1.394 1_556 S
H78 C85 0.929 . S
H79 C88 0.930 . S
H80 C90 0.929 . S
H81 C82 0.969 . S
C82 H81 0.969 . S
C82 O83 1.550 . S
C82 H84 0.973 . S
O83 C82 1.550 . S
O83 C89 1.412 . S
H84 C82 0.973 . S
C85 H78 0.929 . S
C85 C86 1.400 . S
C85 C87 1.364 1_556 S
C86 C85 1.400 . S
C86 C90 1.377 . S
C87 C85 1.364 1_554 S
C87 C88 1.374 . S
C88 H79 0.930 . S
C88 C87 1.374 . S
C88 C89 1.383 . S
C89 O83 1.412 . S
C89 C88 1.383 . S
C89 C90 1.394 1_554 S
C90 H80 0.929 . S
C90 C86 1.377 . S
C90 C89 1.394 1_556 S
H91 C98 0.929 . S
H92 C101 0.930 . S
H93 C103 0.929 . S
H94 C95 0.969 . S
C95 H94 0.969 . S
C95 O96 1.550 . S
C95 H97 0.973 . S
O96 C95 1.550 . S
O96 C102 1.412 . S
H97 C95 0.973 . S
C98 H91 0.929 . S
C98 C99 1.400 . S
C98 C100 1.364 1_556 S
C99 C98 1.400 . S
C99 C103 1.377 . S
C100 C98 1.364 1_554 S
C100 C101 1.374 . S
C101 H92 0.930 . S
C101 C100 1.374 . S
C101 C102 1.383 . S
C102 O96 1.412 . S
C102 C101 1.383 . S
C102 C103 1.394 1_554 S
C103 H93 0.929 . S
C103 C99 1.377 . S
C103 C102 1.394 1_556 S
Tb104 N135 2.660 1_566 S
Tb104 N142 2.600 1_565 S
Tb104 O148 2.546 . S
Tb104 O149 2.610 1_455 S
Tb104 O151 2.320 1_455 S
Tb104 O152 2.552 . S
Tb104 O153 2.413 1_556 S
Tb104 O155 2.362 1_565 S
Tb104 O156 2.421 . S
Tb104 C168 2.833 . S
C105 C108 1.432 . S
C105 C109 1.414 . S
C105 N112 1.359 1_565 S
C106 C108 1.417 . S
C106 C110 1.432 . S
C106 C118 1.410 . S
C107 C109 1.444 . S
C107 C110 1.317 . S
C107 H130 0.929 . S
C108 C105 1.432 . S
C108 C106 1.417 . S
C108 N116 1.360 . S
C109 C105 1.414 . S
C109 C107 1.444 . S
C109 C114 1.385 1_565 S
C110 C106 1.432 . S
C110 C107 1.317 . S
C110 H122 0.930 . S
C111 C113 1.392 . S
C111 C114 1.370 . S
C111 H123 0.931 . S
N112 C105 1.359 1_545 S
N112 C113 1.327 . S
N112 Tb115 2.600 . S
C113 C111 1.392 . S
C113 N112 1.327 . S
C113 H120 0.930 . S
C114 C109 1.385 1_545 S
C114 C111 1.370 . S
C114 H133 0.930 . S
Tb115 N112 2.600 . S
Tb115 N116 2.660 1_545 S
Tb115 O149 2.362 1_545 S
Tb115 O150 2.421 . S
Tb115 O154 2.546 . S
Tb115 O155 2.610 1_655 S
Tb115 O157 2.320 1_655 S
Tb115 O158 2.552 1_655 S
Tb115 O159 2.413 . S
Tb115 C179 2.833 . S
N116 C108 1.360 . S
N116 Tb115 2.660 1_565 S
N116 C117 1.305 1_655 S
C117 N116 1.305 1_455 S
C117 C119 1.407 . S
C117 H124 0.930 . S
C118 C106 1.410 . S
C118 C119 1.345 1_655 S
C118 H126 0.930 . S
C119 C117 1.407 . S
C119 C118 1.345 1_455 S
C119 H121 0.930 . S
H120 C113 0.930 . S
H121 C119 0.930 . S
H122 C110 0.930 . S
H123 C111 0.931 . S
H124 C117 0.930 . S
H125 C139 0.930 1_655 S
H126 C118 0.930 . S
H127 C145 0.930 . S
H128 C136 0.930 1_655 S
H129 C143 0.931 . S
H130 C107 0.929 . S
H131 C137 0.930 . S
H132 C170 0.930 . S
H133 C114 0.930 . S
H134 C169 0.929 . S
N135 Tb104 2.660 1_544 S
N135 C136 1.305 . S
N135 C140 1.360 . S
C136 H128 0.930 1_455 S
C136 N135 1.305 . S
C136 C139 1.407 . S
C137 H131 0.930 . S
C137 C138 1.410 . S
C137 C139 1.345 . S
C138 C137 1.410 . S
C138 C140 1.417 . S
C138 C170 1.432 . S
C139 H125 0.930 1_455 S
C139 C136 1.407 . S
C139 C137 1.345 . S
C140 N135 1.360 . S
C140 C138 1.417 . S
C140 C144 1.432 . S
H141 C146 0.930 . S
N142 Tb104 2.600 1_545 S
N142 C144 1.359 1_556 S
N142 C145 1.327 1_545 S
C143 H129 0.931 . S
C143 C145 1.392 . S
C143 C146 1.370 1_566 S
C144 C140 1.432 . S
C144 N142 1.359 1_554 S
C144 C147 1.414 . S
C145 H127 0.930 . S
C145 N142 1.327 1_565 S
C145 C143 1.392 . S
C146 H141 0.930 . S
C146 C143 1.370 1_544 S
C146 C147 1.385 . S
C147 C144 1.414 . S
C147 C146 1.385 . S
C147 C169 1.444 . S
O148 Tb104 2.546 . S
O148 C168 1.251 . S
O149 Tb104 2.610 1_655 S
O149 Tb115 2.362 1_565 S
O149 C160 1.283 . S
O150 Tb115 2.421 . S
O150 C167 1.262 . S
O151 Tb104 2.320 1_655 S
O151 C167 1.260 1_565 S
O152 Tb104 2.552 . S
O152 C160 1.243 1_455 S
O153 Tb104 2.413 1_554 S
O153 C168 1.256 1_554 S
O154 Tb115 2.546 . S
O154 C179 1.251 . S
O155 Tb104 2.362 1_545 S
O155 Tb115 2.610 1_455 S
O155 C171 1.283 . S
O156 Tb104 2.421 . S
O156 C178 1.262 1_565 S
O157 Tb115 2.320 1_455 S
O157 C178 1.260 . S
O158 Tb115 2.552 1_455 S
O158 C171 1.243 . S
O159 Tb115 2.413 . S
O159 C179 1.256 . S
C160 O149 1.283 . S
C160 O152 1.243 1_655 S
C161 C163 1.382 . S
C161 C165 1.393 . S
C161 C168 1.500 1_554 S
C162 C163 1.400 . S
C162 C164 1.384 . S
C163 C161 1.382 . S
C163 C162 1.400 . S
C163 H180 0.930 . S
C164 C162 1.384 . S
C164 C166 1.392 . S
C164 H181 0.931 . S
C165 C161 1.393 . S
C165 C166 1.401 . S
C165 H182 0.930 . S
C166 C164 1.392 . S
C166 C165 1.401 . S
C166 H183 0.930 . S
C167 O150 1.262 . S
C167 O151 1.260 1_545 S
C168 Tb104 2.833 . S
C168 O148 1.251 . S
C168 O153 1.256 1_556 S
C168 C161 1.500 1_556 S
C169 H134 0.929 . S
C169 C147 1.444 . S
C169 C170 1.317 . S
C170 H132 0.930 . S
C170 C138 1.432 . S
C170 C169 1.317 . S
C171 O155 1.283 . S
C171 O158 1.243 . S
C172 C173 1.382 . S
C172 C176 1.393 . S
C172 C179 1.500 . S
C173 C172 1.382 . S
C173 C174 1.400 . S
C173 H184 0.930 1_655 S
C174 C173 1.400 . S
C174 C175 1.384 . S
C175 C174 1.384 . S
C175 C177 1.392 . S
C175 H185 0.931 . S
C176 C172 1.393 . S
C176 C177 1.401 . S
C176 H186 0.930 . S
C177 C175 1.392 . S
C177 C176 1.401 . S
C177 H187 0.930 . S
C178 O156 1.262 1_545 S
C178 O157 1.260 . S
C179 Tb115 2.833 . S
C179 O154 1.251 . S
C179 O159 1.256 . S
C179 C172 1.500 . S
H180 C163 0.930 . S
H181 C164 0.931 . S
H182 C165 0.930 . S
H183 C166 0.930 . S
H184 C173 0.930 1_455 S
H185 C175 0.931 . S
H186 C176 0.930 . S
H187 C177 0.930 . S
Tb188 N219 2.660 1_556 S
Tb188 N226 2.600 . S
Tb188 O232 2.546 . S
Tb188 O233 2.610 1_545 S
Tb188 O235 2.320 1_545 S
Tb188 O236 2.552 . S
Tb188 O237 2.413 1_556 S
Tb188 O239 2.362 . S
Tb188 O240 2.421 . S
Tb188 C252 2.833 . S
C189 C192 1.432 . S
C189 C193 1.414 . S
C189 N196 1.359 . S
C190 C192 1.417 . S
C190 C194 1.432 . S
C190 C202 1.410 . S
C191 C193 1.444 . S
C191 C194 1.317 . S
C191 H214 0.929 . S
C192 C189 1.432 . S
C192 C190 1.417 . S
C192 N200 1.360 . S
C193 C189 1.414 . S
C193 C191 1.444 . S
C193 C198 1.385 . S
C194 C190 1.432 . S
C194 C191 1.317 . S
C194 H206 0.930 . S
C195 C197 1.392 . S
C195 C198 1.370 . S
C195 H207 0.931 . S
N196 C189 1.359 . S
N196 C197 1.327 . S
N196 Tb199 2.600 . S
C197 C195 1.392 . S
C197 N196 1.327 . S
C197 H204 0.930 . S
C198 C193 1.385 . S
C198 C195 1.370 . S
C198 H217 0.930 . S
Tb199 N196 2.600 . S
Tb199 N200 2.660 . S
Tb199 O233 2.362 . S
Tb199 O234 2.421 . S
Tb199 O238 2.546 . S
Tb199 O239 2.610 1_565 S
Tb199 O241 2.320 1_565 S
Tb199 O242 2.552 1_565 S
Tb199 O243 2.413 . S
Tb199 C263 2.833 . S
N200 C192 1.360 . S
N200 Tb199 2.660 . S
N200 C201 1.305 1_565 S
C201 N200 1.305 1_545 S
C201 C203 1.407 . S
C201 H208 0.930 . S
C202 C190 1.410 . S
C202 C203 1.345 1_565 S
C202 H210 0.930 . S
C203 C201 1.407 . S
C203 C202 1.345 1_545 S
C203 H205 0.930 . S
H204 C197 0.930 . S
H205 C203 0.930 . S
H206 C194 0.930 . S
H207 C195 0.931 . S
H208 C201 0.930 . S
H209 C223 0.930 1_565 S
H210 C202 0.930 . S
H211 C229 0.930 . S
H212 C220 0.930 1_565 S
H213 C227 0.931 . S
H214 C191 0.929 . S
H215 C221 0.930 . S
H216 C254 0.930 . S
H217 C198 0.930 . S
H218 C253 0.929 . S
N219 Tb188 2.660 1_554 S
N219 C220 1.305 . S
N219 C224 1.360 . S
C220 H212 0.930 1_545 S
C220 N219 1.305 . S
C220 C223 1.407 . S
C221 H215 0.930 . S
C221 C222 1.410 . S
C221 C223 1.345 . S
C222 C221 1.410 . S
C222 C224 1.417 . S
C222 C254 1.432 . S
C223 H209 0.930 1_545 S
C223 C220 1.407 . S
C223 C221 1.345 . S
C224 N219 1.360 . S
C224 C222 1.417 . S
C224 C228 1.432 . S
H225 C230 0.930 . S
N226 Tb188 2.600 . S
N226 C228 1.359 1_556 S
N226 C229 1.327 . S
C227 H213 0.931 . S
C227 C229 1.392 . S
C227 C230 1.370 1_556 S
C228 C224 1.432 . S
C228 N226 1.359 1_554 S
C228 C231 1.414 . S
C229 H211 0.930 . S
C229 N226 1.327 . S
C229 C227 1.392 . S
C230 H225 0.930 . S
C230 C227 1.370 1_554 S
C230 C231 1.385 . S
C231 C228 1.414 . S
C231 C230 1.385 . S
C231 C253 1.444 . S
O232 Tb188 2.546 . S
O232 C252 1.251 . S
O233 Tb188 2.610 1_565 S
O233 Tb199 2.362 . S
O233 C244 1.283 . S
O234 Tb199 2.421 . S
O234 C251 1.262 . S
O235 Tb188 2.320 1_565 S
O235 C251 1.260 . S
O236 Tb188 2.552 . S
O236 C244 1.243 1_545 S
O237 Tb188 2.413 1_554 S
O237 C252 1.256 1_554 S
O238 Tb199 2.546 . S
O238 C263 1.251 . S
O239 Tb188 2.362 . S
O239 Tb199 2.610 1_545 S
O239 C255 1.283 . S
O240 Tb188 2.421 . S
O240 C262 1.262 . S
O241 Tb199 2.320 1_545 S
O241 C262 1.260 . S
O242 Tb199 2.552 1_545 S
O242 C255 1.243 . S
O243 Tb199 2.413 . S
O243 C263 1.256 . S
C244 O233 1.283 . S
C244 O236 1.243 1_565 S
C245 C247 1.382 . S
C245 C249 1.393 . S
C245 C252 1.500 1_554 S
C246 C247 1.400 . S
C246 C248 1.384 . S
C247 C245 1.382 . S
C247 C246 1.400 . S
C247 H264 0.930 . S
C248 C246 1.384 . S
C248 C250 1.392 . S
C248 H265 0.931 . S
C249 C245 1.393 . S
C249 C250 1.401 . S
C249 H266 0.930 . S
C250 C248 1.392 . S
C250 C249 1.401 . S
C250 H267 0.930 . S
C251 O234 1.262 . S
C251 O235 1.260 . S
C252 Tb188 2.833 . S
C252 O232 1.251 . S
C252 O237 1.256 1_556 S
C252 C245 1.500 1_556 S
C253 H218 0.929 . S
C253 C231 1.444 . S
C253 C254 1.317 . S
C254 H216 0.930 . S
C254 C222 1.432 . S
C254 C253 1.317 . S
C255 O239 1.283 . S
C255 O242 1.243 . S
C256 C257 1.382 . S
C256 C260 1.393 . S
C256 C263 1.500 . S
C257 C256 1.382 . S
C257 C258 1.400 . S
C257 H268 0.930 1_565 S
C258 C257 1.400 . S
C258 C259 1.384 . S
C259 C258 1.384 . S
C259 C261 1.392 . S
C259 H269 0.931 . S
C260 C256 1.393 . S
C260 C261 1.401 . S
C260 H270 0.930 . S
C261 C259 1.392 . S
C261 C260 1.401 . S
C261 H271 0.930 . S
C262 O240 1.262 . S
C262 O241 1.260 . S
C263 Tb199 2.833 . S
C263 O238 1.251 . S
C263 O243 1.256 . S
C263 C256 1.500 . S
H264 C247 0.930 . S
H265 C248 0.931 . S
H266 C249 0.930 . S
H267 C250 0.930 . S
H268 C257 0.930 1_545 S
H269 C259 0.931 . S
H270 C260 0.930 . S
H271 C261 0.930 . S
Tb272 N303 2.660 . S
Tb272 N310 2.600 . S
Tb272 O316 2.546 . S
Tb272 O317 2.610 . S
Tb272 O319 2.320 . S
Tb272 O320 2.552 . S
Tb272 O321 2.413 . S
Tb272 O323 2.362 . S
Tb272 O324 2.421 . S
Tb272 C336 2.833 . S
C273 C276 1.432 . S
C273 C277 1.414 . S
C273 N280 1.359 . S
C274 C276 1.417 . S
C274 C278 1.432 . S
C274 C286 1.410 . S
C275 C277 1.444 . S
C275 C278 1.317 . S
C275 H298 0.929 . S
C276 C273 1.432 . S
C276 C274 1.417 . S
C276 N284 1.360 . S
C277 C273 1.414 . S
C277 C275 1.444 . S
C277 C282 1.385 1_556 S
C278 C274 1.432 . S
C278 C275 1.317 . S
C278 H290 0.930 . S
C279 C281 1.392 . S
C279 C282 1.370 . S
C279 H291 0.931 . S
N280 C273 1.359 . S
N280 C281 1.327 1_556 S
N280 Tb283 2.600 . S
C281 C279 1.392 . S
C281 N280 1.327 1_554 S
C281 H288 0.930 . S
C282 C277 1.385 1_554 S
C282 C279 1.370 . S
C282 H301 0.930 . S
Tb283 N280 2.600 . S
Tb283 N284 2.660 . S
Tb283 O317 2.362 . S
Tb283 O318 2.421 . S
Tb283 O322 2.546 1_556 S
Tb283 O323 2.610 . S
Tb283 O325 2.320 . S
Tb283 O326 2.552 . S
Tb283 O327 2.413 . S
Tb283 C347 2.833 1_556 S
N284 C276 1.360 . S
N284 Tb283 2.660 . S
N284 C285 1.305 . S
C285 N284 1.305 . S
C285 C287 1.407 . S
C285 H292 0.930 . S
C286 C274 1.410 . S
C286 C287 1.345 . S
C286 H294 0.930 . S
C287 C285 1.407 . S
C287 C286 1.345 . S
C287 H289 0.930 . S
H288 C281 0.930 . S
H289 C287 0.930 . S
H290 C278 0.930 . S
H291 C279 0.931 . S
H292 C285 0.930 . S
H293 C307 0.930 . S
H294 C286 0.930 . S
H295 C313 0.930 . S
H296 C304 0.930 . S
H297 C311 0.931 . S
H298 C275 0.929 . S
H299 C305 0.930 . S
H300 C338 0.930 . S
H301 C282 0.930 . S
H302 C337 0.929 . S
N303 Tb272 2.660 . S
N303 C304 1.305 . S
N303 C308 1.360 . S
C304 H296 0.930 . S
C304 N303 1.305 . S
C304 C307 1.407 . S
C305 H299 0.930 . S
C305 C306 1.410 . S
C305 C307 1.345 . S
C306 C305 1.410 . S
C306 C308 1.417 . S
C306 C338 1.432 . S
C307 H293 0.930 . S
C307 C304 1.407 . S
C307 C305 1.345 . S
C308 N303 1.360 . S
C308 C306 1.417 . S
C308 C312 1.432 . S
H309 C314 0.930 . S
N310 Tb272 2.600 . S
N310 C312 1.359 . S
N310 C313 1.327 . S
C311 H297 0.931 . S
C311 C313 1.392 . S
C311 C314 1.370 . S
C312 C308 1.432 . S
C312 N310 1.359 . S
C312 C315 1.414 . S
C313 H295 0.930 . S
C313 N310 1.327 . S
C313 C311 1.392 . S
C314 H309 0.930 . S
C314 C311 1.370 . S
C314 C315 1.385 . S
C315 C312 1.414 . S
C315 C314 1.385 . S
C315 C337 1.444 . S
O316 Tb272 2.546 . S
O316 C336 1.251 . S
O317 Tb272 2.610 . S
O317 Tb283 2.362 . S
O317 C328 1.283 . S
O318 Tb283 2.421 . S
O318 C335 1.262 . S
O319 Tb272 2.320 . S
O319 C335 1.260 . S
O320 Tb272 2.552 . S
O320 C328 1.243 . S
O321 Tb272 2.413 . S
O321 C336 1.256 . S
O322 Tb283 2.546 1_554 S
O322 C347 1.251 . S
O323 Tb272 2.362 . S
O323 Tb283 2.610 . S
O323 C339 1.283 . S
O324 Tb272 2.421 . S
O324 C346 1.262 . S
O325 Tb283 2.320 . S
O325 C346 1.260 . S
O326 Tb283 2.552 . S
O326 C339 1.243 . S
O327 Tb283 2.413 . S
O327 C347 1.256 1_556 S
C328 O317 1.283 . S
C328 O320 1.243 . S
C329 C331 1.382 . S
C329 C333 1.393 . S
C329 C336 1.500 . S
C330 C331 1.400 . S
C330 C332 1.384 . S
C331 C329 1.382 . S
C331 C330 1.400 . S
C331 H348 0.930 . S
C332 C330 1.384 . S
C332 C334 1.392 . S
C332 H349 0.931 . S
C333 C329 1.393 . S
C333 C334 1.401 . S
C333 H350 0.930 . S
C334 C332 1.392 . S
C334 C333 1.401 . S
C334 H351 0.930 . S
C335 O318 1.262 . S
C335 O319 1.260 . S
C336 Tb272 2.833 . S
C336 O316 1.251 . S
C336 O321 1.256 . S
C336 C329 1.500 . S
C337 H302 0.929 . S
C337 C315 1.444 . S
C337 C338 1.317 . S
C338 H300 0.930 . S
C338 C306 1.432 . S
C338 C337 1.317 . S
C339 O323 1.283 . S
C339 O326 1.243 . S
C340 C341 1.382 . S
C340 C344 1.393 . S
C340 C347 1.500 . S
C341 C340 1.382 . S
C341 C342 1.400 . S
C341 H352 0.930 . S
C342 C341 1.400 . S
C342 C343 1.384 . S
C343 C342 1.384 . S
C343 C345 1.392 . S
C343 H353 0.931 . S
C344 C340 1.393 . S
C344 C345 1.401 . S
C344 H354 0.930 . S
C345 C343 1.392 . S
C345 C344 1.401 . S
C345 H355 0.930 . S
C346 O324 1.262 . S
C346 O325 1.260 . S
C347 Tb283 2.833 1_554 S
C347 O322 1.251 . S
C347 O327 1.256 1_554 S
C347 C340 1.500 . S
H348 C331 0.930 . S
H349 C332 0.931 . S
H350 C333 0.930 . S
H351 C334 0.930 . S
H352 C341 0.930 . S
H353 C343 0.931 . S
H354 C344 0.930 . S
H355 C345 0.930 . S
Tb356 N387 2.660 . S
Tb356 N394 2.600 . S
Tb356 O400 2.546 . S
Tb356 O401 2.610 . S
Tb356 O403 2.320 . S
Tb356 O404 2.552 . S
Tb356 O405 2.413 . S
Tb356 O407 2.362 . S
Tb356 O408 2.421 1_455 S
Tb356 C420 2.833 . S
C357 C360 1.432 . S
C357 C361 1.414 . S
C357 N364 1.366 . S
C358 C360 1.417 . S
C358 C362 1.432 . S
C358 C370 1.410 . S
C359 C361 1.444 . S
C359 C362 1.317 . S
C359 H382 0.929 . S
C360 C357 1.432 . S
C360 C358 1.417 . S
C360 N368 1.360 . S
C361 C357 1.414 . S
C361 C359 1.444 . S
C361 C366 1.385 1_656 S
C362 C358 1.432 . S
C362 C359 1.317 . S
C362 H374 0.930 . S
C363 C365 1.392 . S
C363 C366 1.370 . S
C363 H375 0.931 . S
N364 C357 1.366 . S
N364 C365 1.318 1_656 S
N364 Tb367 2.604 . S
C365 C363 1.392 . S
C365 N364 1.318 1_454 S
C365 H372 0.930 . S
C366 C361 1.385 1_454 S
C366 C363 1.370 . S
C366 H385 0.930 . S
Tb367 N364 2.604 . S
Tb367 N368 2.660 . S
Tb367 O401 2.362 1_655 S
Tb367 O402 2.421 1_655 S
Tb367 O406 2.546 1_556 S
Tb367 O407 2.610 1_655 S
Tb367 O409 2.320 . S
Tb367 O410 2.552 . S
Tb367 O411 2.413 . S
Tb367 C431 2.833 1_556 S
N368 C360 1.360 . S
N368 Tb367 2.660 . S
N368 C369 1.305 . S
C369 N368 1.305 . S
C369 C371 1.407 . S
C369 H376 0.930 . S
C370 C358 1.410 . S
C370 C371 1.345 . S
C370 H378 0.930 . S
C371 C369 1.407 . S
C371 C370 1.345 . S
C371 H373 0.930 . S
H372 C365 0.930 . S
H373 C371 0.930 . S
H374 C362 0.930 . S
H375 C363 0.931 . S
H376 C369 0.930 . S
H377 C391 0.930 . S
H378 C370 0.930 . S
H379 C397 0.930 . S
H380 C388 0.930 . S
H381 C395 0.931 . S
H382 C359 0.929 . S
H383 C389 0.930 . S
H384 C422 0.930 . S
H385 C366 0.930 . S
H386 C421 0.929 . S
N387 Tb356 2.660 . S
N387 C388 1.305 . S
N387 C392 1.360 . S
C388 H380 0.930 . S
C388 N387 1.305 . S
C388 C391 1.407 . S
C389 H383 0.930 . S
C389 C390 1.410 . S
C389 C391 1.345 . S
C390 C389 1.410 . S
C390 C392 1.417 . S
C390 C422 1.432 . S
C391 H377 0.930 . S
C391 C388 1.407 . S
C391 C389 1.345 . S
C392 N387 1.360 . S
C392 C390 1.417 . S
C392 C396 1.432 . S
H393 C398 0.930 1_655 S
N394 Tb356 2.600 . S
N394 C396 1.359 . S
N394 C397 1.327 1_455 S
C395 H381 0.931 . S
C395 C397 1.392 . S
C395 C398 1.370 1_655 S
C396 C392 1.432 . S
C396 N394 1.359 . S
C396 C399 1.414 . S
C397 H379 0.930 . S
C397 N394 1.327 1_655 S
C397 C395 1.392 . S
C398 H393 0.930 1_455 S
C398 C395 1.370 1_455 S
C398 C399 1.385 . S
C399 C396 1.414 . S
C399 C398 1.385 . S
C399 C421 1.444 . S
O400 Tb356 2.546 . S
O400 C420 1.251 . S
O401 Tb356 2.610 . S
O401 Tb367 2.362 1_455 S
O401 C412 1.283 . S
O402 Tb367 2.421 1_455 S
O402 C419 1.262 . S
O403 Tb356 2.320 . S
O403 C419 1.260 . S
O404 Tb356 2.552 . S
O404 C412 1.243 . S
O405 Tb356 2.413 . S
O405 C420 1.256 . S
O406 Tb367 2.546 1_554 S
O406 C431 1.251 . S
O407 Tb356 2.362 . S
O407 Tb367 2.610 1_455 S
O407 C423 1.283 1_455 S
O408 Tb356 2.421 1_655 S
O408 C430 1.262 . S
O409 Tb367 2.320 . S
O409 C430 1.260 . S
O410 Tb367 2.552 . S
O410 C423 1.243 . S
O411 Tb367 2.413 . S
O411 C431 1.256 1_556 S
C412 O401 1.283 . S
C412 O404 1.243 . S
C413 C415 1.382 . S
C413 C417 1.393 . S
C413 C420 1.500 . S
C414 C415 1.400 . S
C414 C416 1.384 . S
C415 C413 1.382 . S
C415 C414 1.400 . S
C415 H432 0.930 . S
C416 C414 1.384 . S
C416 C418 1.392 . S
C416 H433 0.931 . S
C417 C413 1.393 . S
C417 C418 1.401 . S
C417 H434 0.930 . S
C418 C416 1.392 . S
C418 C417 1.401 . S
C418 H435 0.930 . S
C419 O402 1.262 . S
C419 O403 1.260 . S
C420 Tb356 2.833 . S
C420 O400 1.251 . S
C420 O405 1.256 . S
C420 C413 1.500 . S
C421 H386 0.929 . S
C421 C399 1.444 . S
C421 C422 1.317 . S
C422 H384 0.930 . S
C422 C390 1.432 . S
C422 C421 1.317 . S
C423 O407 1.283 1_655 S
C423 O410 1.243 . S
C424 C425 1.382 . S
C424 C428 1.393 . S
C424 C431 1.500 . S
C425 C424 1.382 . S
C425 C426 1.400 . S
C425 H436 0.930 . S
C426 C425 1.400 . S
C426 C427 1.384 . S
C427 C426 1.384 . S
C427 C429 1.392 . S
C427 H437 0.931 . S
C428 C424 1.393 . S
C428 C429 1.401 . S
C428 H438 0.930 . S
C429 C427 1.392 . S
C429 C428 1.401 . S
C429 H439 0.930 . S
C430 O408 1.262 . S
C430 O409 1.260 . S
C431 Tb367 2.833 1_554 S
C431 O406 1.251 . S
C431 O411 1.256 1_554 S
C431 C424 1.500 . S
H432 C415 0.930 . S
H433 C416 0.931 . S
H434 C417 0.930 . S
H435 C418 0.930 . S
H436 C425 0.930 . S
H437 C427 0.931 . S
H438 C428 0.930 . S
H439 C429 0.930 . S
C440 C441 1.363 . S
C440 C446 1.379 . S
C440 N448 1.356 . S
C441 C440 1.363 . S
C441 C447 1.363 . S
C442 C443 1.363 . S
C442 C447 1.379 . S
C442 N449 1.356 . S
C443 C442 1.363 . S
C443 C446 1.363 . S
N444 C446 1.356 1_565 S
N444 H456 0.984 . S
N444 H457 0.985 . S
N445 C447 1.356 . S
N445 H450 0.984 . S
N445 H451 0.985 . S
C446 C440 1.379 . S
C446 C443 1.363 . S
C446 N444 1.356 1_545 S
C447 C441 1.363 . S
C447 C442 1.379 . S
C447 N445 1.356 . S
N448 C440 1.356 . S
N448 H454 0.984 1_545 S
N448 H455 0.984 . S
N449 C442 1.356 . S
N449 H452 0.984 . S
N449 H453 0.985 . S
H450 N445 0.984 . S
H451 N445 0.985 . S
H452 N449 0.984 . S
H453 N449 0.985 . S
H454 N448 0.984 1_565 S
H455 N448 0.984 . S
H456 N444 0.984 . S
H457 N444 0.985 . S
C458 C459 1.363 . S
C458 C464 1.379 . S
C458 N466 1.356 . S
C459 C458 1.363 . S
C459 C465 1.363 . S
C460 C461 1.363 . S
C460 C465 1.379 . S
C460 N467 1.356 . S
C461 C460 1.363 . S
C461 C464 1.363 . S
N462 C464 1.356 . S
N462 H474 0.984 . S
N462 H475 0.985 . S
N463 C465 1.356 . S
N463 H468 0.984 . S
N463 H469 0.985 . S
C464 C458 1.379 . S
C464 C461 1.363 . S
C464 N462 1.356 . S
C465 C459 1.363 . S
C465 C460 1.379 . S
C465 N463 1.356 . S
N466 C458 1.356 . S
N466 H472 0.984 . S
N466 H473 0.984 . S
N467 C460 1.356 . S
N467 H470 0.984 . S
N467 H471 0.985 . S
H468 N463 0.984 . S
H469 N463 0.985 . S
H470 N467 0.984 . S
H471 N467 0.985 . S
H472 N466 0.984 . S
H473 N466 0.984 . S
H474 N462 0.984 . S
H475 N462 0.985 . S
C476 C477 1.363 . S
C476 C482 1.379 . S
C476 N484 1.356 . S
C477 C476 1.363 . S
C477 C483 1.363 . S
C478 C479 1.363 . S
C478 C483 1.379 . S
C478 N485 1.356 . S
C479 C478 1.363 . S
C479 C482 1.363 . S
N480 C482 1.356 . S
N480 H492 0.984 . S
N480 H493 0.985 . S
N481 C483 1.356 . S
N481 H486 0.984 . S
N481 H487 0.985 . S
C482 C476 1.379 . S
C482 C479 1.363 . S
C482 N480 1.356 . S
C483 C477 1.363 . S
C483 C478 1.379 . S
C483 N481 1.356 . S
N484 C476 1.356 . S
N484 H490 0.984 . S
N484 H491 0.984 . S
N485 C478 1.356 . S
N485 H488 0.984 . S
N485 H489 0.985 . S
H486 N481 0.984 . S
H487 N481 0.985 . S
H488 N485 0.984 . S
H489 N485 0.985 . S
H490 N484 0.984 . S
H491 N484 0.984 . S
H492 N480 0.984 . S
H493 N480 0.985 . S
C494 C495 1.363 . S
C494 C500 1.379 . S
C494 N502 1.356 . S
C495 C494 1.363 . S
C495 C501 1.363 . S
C496 C497 1.363 . S
C496 C501 1.379 . S
C496 N503 1.356 . S
C497 C496 1.363 . S
C497 C500 1.363 . S
N498 C500 1.356 1_655 S
N498 H510 0.984 . S
N498 H511 0.985 . S
N499 C501 1.356 . S
N499 H504 0.984 . S
N499 H505 0.985 . S
C500 C494 1.379 . S
C500 C497 1.363 . S
C500 N498 1.356 1_455 S
C501 C495 1.363 . S
C501 C496 1.379 . S
C501 N499 1.356 . S
N502 C494 1.356 . S
N502 H508 0.984 1_455 S
N502 H509 0.984 . S
N503 C496 1.356 . S
N503 H506 0.984 . S
N503 H507 0.985 . S
H504 N499 0.984 . S
H505 N499 0.985 . S
H506 N503 0.984 . S
H507 N503 0.985 . S
H508 N502 0.984 1_655 S
H509 N502 0.984 . S
H510 N498 0.984 . S
H511 N498 0.985 . S
C512 C513 1.363 . S
C512 C518 1.379 . S
C512 N520 1.356 . S
C513 C512 1.363 . S
C513 C519 1.363 . S
C514 C515 1.363 1_554 S
C514 C519 1.379 . S
C514 N521 1.356 1_564 S
C515 C514 1.363 1_556 S
C515 C518 1.363 1_556 S
N516 C518 1.356 . S
N516 H528 0.984 . S
N516 H529 0.985 1_554 S
N517 C519 1.356 . S
N517 H522 0.984 . S
N517 H523 0.985 1_565 S
C518 C512 1.379 . S
C518 C515 1.363 1_554 S
C518 N516 1.356 . S
C519 C513 1.363 . S
C519 C514 1.379 . S
C519 N517 1.356 . S
N520 C512 1.356 . S
N520 H526 0.984 . S
N520 H527 0.984 . S
N521 C514 1.356 1_546 S
N521 H524 0.984 . S
N521 H525 0.985 . S
H522 N517 0.984 . S
H523 N517 0.985 1_545 S
H524 N521 0.984 . S
H525 N521 0.985 . S
H526 N520 0.984 . S
H527 N520 0.984 . S
H528 N516 0.984 . S
H529 N516 0.985 1_556 S
C530 C531 1.363 . S
C530 C536 1.379 . S
C530 N538 1.356 . S
C531 C530 1.363 . S
C531 C537 1.363 . S
C532 C533 1.363 1_554 S
C532 C537 1.379 . S
C532 N539 1.356 1_554 S
C533 C532 1.363 1_556 S
C533 C536 1.363 1_556 S
N534 C536 1.356 . S
N534 H546 0.984 . S
N534 H547 0.985 1_554 S
N535 C537 1.356 . S
N535 H540 0.984 . S
N535 H541 0.985 . S
C536 C530 1.379 . S
C536 C533 1.363 1_554 S
C536 N534 1.356 . S
C537 C531 1.363 . S
C537 C532 1.379 . S
C537 N535 1.356 . S
N538 C530 1.356 . S
N538 H544 0.984 . S
N538 H545 0.984 . S
N539 C532 1.356 1_556 S
N539 H542 0.984 . S
N539 H543 0.985 . S
H540 N535 0.984 . S
H541 N535 0.985 . S
H542 N539 0.984 . S
H543 N539 0.985 . S
H544 N538 0.984 . S
H545 N538 0.984 . S
H546 N534 0.984 . S
H547 N534 0.985 1_556 S
C548 C549 1.363 . S
C548 C554 1.379 . S
C548 N556 1.356 . S
C549 C548 1.363 . S
C549 C555 1.363 . S
C550 C551 1.363 1_554 S
C550 C555 1.379 . S
C550 N557 1.356 1_554 S
C551 C550 1.363 1_556 S
C551 C554 1.363 1_556 S
N552 C554 1.356 1_556 S
N552 H564 0.984 1_556 S
N552 H565 0.985 . S
N553 C555 1.356 . S
N553 H558 0.984 . S
N553 H559 0.985 . S
C554 C548 1.379 . S
C554 C551 1.363 1_554 S
C554 N552 1.356 1_554 S
C555 C549 1.363 . S
C555 C550 1.379 . S
C555 N553 1.356 . S
N556 C548 1.356 . S
N556 H562 0.984 . S
N556 H563 0.984 . S
N557 C550 1.356 1_556 S
N557 H560 0.984 . S
N557 H561 0.985 . S
H558 N553 0.984 . S
H559 N553 0.985 . S
H560 N557 0.984 . S
H561 N557 0.985 . S
H562 N556 0.984 . S
H563 N556 0.984 . S
H564 N552 0.984 1_554 S
H565 N552 0.985 . S
C566 C567 1.363 . S
C566 C572 1.374 1_655 S
C566 N574 1.356 1_655 S
C567 C566 1.363 . S
C567 C573 1.363 . S
C568 C569 1.363 1_554 S
C568 C573 1.379 . S
C568 N575 1.356 1_554 S
C569 C568 1.363 1_556 S
C569 C572 1.350 1_656 S
N570 C572 1.372 . S
N570 H582 0.984 . S
N570 H583 0.985 1_554 S
N571 C573 1.356 . S
N571 H576 0.984 . S
N571 H577 0.985 . S
C572 C566 1.374 1_455 S
C572 C569 1.350 1_454 S
C572 N570 1.372 . S
C573 C567 1.363 . S
C573 C568 1.379 . S
C573 N571 1.356 . S
N574 C566 1.356 1_455 S
N574 H580 0.984 . S
N574 H581 0.984 1_455 S
N575 C568 1.356 1_556 S
N575 H578 0.984 . S
N575 H579 0.985 . S
H576 N571 0.984 . S
H577 N571 0.985 . S
H578 N575 0.984 . S
H579 N575 0.985 . S
H580 N574 0.984 . S
H581 N574 0.984 1_655 S
H582 N570 0.984 . S
H583 N570 0.985 1_556 S
C584 C585 1.363 . S
C584 C590 1.379 1_455 S
C584 N592 1.356 . S
C585 C584 1.363 . S
C585 C591 1.363 . S
C586 C587 1.344 1_455 S
C586 C591 1.379 . S
C586 N593 1.356 . S
C587 C586 1.344 1_655 S
C587 C590 1.367 . S
N588 C590 1.356 . S
N588 H600 0.984 . S
N588 H601 0.985 . S
N589 C591 1.356 . S
N589 H594 0.984 . S
N589 H595 0.985 . S
C590 C584 1.379 1_655 S
C590 C587 1.367 . S
C590 N588 1.356 . S
C591 C585 1.363 . S
C591 C586 1.379 . S
C591 N589 1.356 . S
N592 C584 1.356 . S
N592 H598 0.982 1_454 S
N592 H599 0.984 . S
N593 C586 1.356 . S
N593 H596 0.984 . S
N593 H597 0.985 . S
H594 N589 0.984 . S
H595 N589 0.985 . S
H596 N593 0.984 . S
H597 N593 0.985 . S
H598 N592 0.982 1_656 S
H599 N592 0.984 . S
H600 N588 0.984 . S
H601 N588 0.985 . S
C602 C603 1.363 . S
C602 C608 1.379 . S
C602 N610 1.356 . S
C603 C602 1.363 . S
C603 C609 1.363 . S
C604 C605 1.371 . S
C604 C609 1.379 1_565 S
C604 N611 1.356 . S
C605 C604 1.371 . S
C605 C608 1.337 1_565 S
N606 C608 1.356 . S
N606 H618 0.984 . S
N606 H619 0.985 . S
N607 C609 1.356 . S
N607 H612 0.984 . S
N607 H613 0.985 1_545 S
C608 C602 1.379 . S
C608 C605 1.337 1_545 S
C608 N606 1.356 . S
C609 C603 1.363 . S
C609 C604 1.379 1_545 S
C609 N607 1.356 . S
N610 C602 1.356 . S
N610 H616 0.984 . S
N610 H617 0.984 . S
N611 C604 1.356 . S
N611 H614 0.984 . S
N611 H615 0.985 . S
H612 N607 0.984 . S
H613 N607 0.985 1_565 S
H614 N611 0.984 . S
H615 N611 0.985 . S
H616 N610 0.984 . S
H617 N610 0.984 . S
H618 N606 0.984 . S
H619 N606 0.985 . S
C620 C621 1.363 . S
C620 C626 1.379 . S
C620 N628 1.356 1_554 S
C621 C620 1.363 . S
C621 C627 1.363 . S
C622 C623 1.363 . S
C622 C627 1.379 . S
C622 N629 1.356 . S
C623 C622 1.363 . S
C623 C626 1.363 . S
N624 C626 1.356 . S
N624 H636 0.984 1_554 S
N624 H637 0.985 . S
N625 C627 1.356 . S
N625 H630 0.984 . S
N625 H631 0.985 . S
C626 C620 1.379 . S
C626 C623 1.363 . S
C626 N624 1.356 . S
C627 C621 1.363 . S
C627 C622 1.379 . S
C627 N625 1.356 . S
N628 C620 1.356 1_556 S
N628 H634 0.984 . S
N628 H635 0.984 . S
N629 C622 1.356 . S
N629 H632 0.984 . S
N629 H633 0.985 . S
H630 N625 0.984 . S
H631 N625 0.985 . S
H632 N629 0.984 . S
H633 N629 0.985 . S
H634 N628 0.984 . S
H635 N628 0.984 . S
H636 N624 0.984 1_556 S
H637 N624 0.985 . S
C638 C639 1.363 . S
C638 C644 1.379 . S
C638 N646 1.356 . S
C639 C638 1.363 . S
C639 C645 1.363 . S
C640 C641 1.363 . S
C640 C645 1.379 . S
C640 N647 1.356 . S
C641 C640 1.363 . S
C641 C644 1.363 . S
N642 C644 1.356 . S
N642 H654 0.984 . S
N642 H655 0.985 . S
N643 C645 1.356 . S
N643 H648 0.984 . S
N643 H649 0.985 . S
C644 C638 1.379 . S
C644 C641 1.363 . S
C644 N642 1.356 . S
C645 C639 1.363 . S
C645 C640 1.379 . S
C645 N643 1.356 . S
N646 C638 1.356 . S
N646 H652 0.984 . S
N646 H653 0.984 . S
N647 C640 1.356 . S
N647 H650 0.984 . S
N647 H651 0.985 . S
H648 N643 0.984 . S
H649 N643 0.985 . S
H650 N647 0.984 . S
H651 N647 0.985 . S
H652 N646 0.984 . S
H653 N646 0.984 . S
H654 N642 0.984 . S
H655 N642 0.985 . S
C656 C657 1.363 . S
C656 C662 1.379 . S
C656 N664 1.356 . S
C657 C656 1.363 . S
C657 C663 1.363 . S
C658 C659 1.363 . S
C658 C663 1.379 1_455 S
C658 N665 1.356 . S
C659 C658 1.363 . S
C659 C662 1.363 1_455 S
N660 C662 1.356 . S
N660 H672 0.984 . S
N660 H673 0.985 1_655 S
N661 C663 1.356 . S
N661 H666 0.984 . S
N661 H667 0.985 1_655 S
C662 C656 1.379 . S
C662 C659 1.363 1_655 S
C662 N660 1.356 . S
C663 C657 1.363 . S
C663 C658 1.379 1_655 S
C663 N661 1.356 . S
N664 C656 1.356 . S
N664 H670 0.984 . S
N664 H671 0.984 . S
N665 C658 1.356 . S
N665 H668 0.984 . S
N665 H669 0.985 . S
H666 N661 0.984 . S
H667 N661 0.985 1_455 S
H668 N665 0.984 . S
H669 N665 0.985 . S
H670 N664 0.984 . S
H671 N664 0.984 . S
H672 N660 0.984 . S
H673 N660 0.985 1_455 S
C674 C675 1.363 . S
C674 C680 1.379 1_565 S
C674 N682 1.356 . S
C675 C674 1.363 . S
C675 C681 1.363 . S
C676 C677 1.363 . S
C676 C681 1.379 1_545 S
C676 N683 1.356 . S
C677 C676 1.363 . S
C677 C680 1.363 . S
N678 C680 1.356 . S
N678 H690 0.984 1_554 S
N678 H691 0.985 . S
N679 C681 1.356 . S
N679 H684 0.984 . S
N679 H685 0.985 . S
C680 C674 1.379 1_545 S
C680 C677 1.363 . S
C680 N678 1.356 . S
C681 C675 1.363 . S
C681 C676 1.379 1_565 S
C681 N679 1.356 . S
N682 C674 1.356 . S
N682 H688 0.984 . S
N682 H689 0.984 . S
N683 C676 1.356 . S
N683 H686 0.984 . S
N683 H687 0.985 . S
H684 N679 0.984 . S
H685 N679 0.985 . S
H686 N683 0.984 . S
H687 N683 0.985 . S
H688 N682 0.984 . S
H689 N682 0.984 . S
H690 N678 0.984 1_556 S
H691 N678 0.985 . S
C692 C693 1.363 . S
C692 C698 1.379 . S
C692 N700 1.356 . S
C693 C692 1.363 . S
C693 C699 1.363 . S
C694 C695 1.363 . S
C694 C699 1.379 . S
C694 N701 1.356 . S
C695 C694 1.363 . S
C695 C698 1.363 . S
N696 C698 1.356 . S
N696 H708 0.984 . S
N696 H709 0.985 . S
N697 C699 1.356 . S
N697 H702 0.984 . S
N697 H703 0.985 . S
C698 C692 1.379 . S
C698 C695 1.363 . S
C698 N696 1.356 . S
C699 C693 1.363 . S
C699 C694 1.379 . S
C699 N697 1.356 . S
N700 C692 1.356 . S
N700 H706 0.984 . S
N700 H707 0.984 . S
N701 C694 1.356 . S
N701 H704 0.984 . S
N701 H705 0.985 . S
H702 N697 0.984 . S
H703 N697 0.985 . S
H704 N701 0.984 . S
H705 N701 0.985 . S
H706 N700 0.984 . S
H707 N700 0.984 . S
H708 N696 0.984 . S
H709 N696 0.985 . S
C710 C711 1.363 . S
C710 C716 1.379 . S
C710 N718 1.356 . S
C711 C710 1.363 . S
C711 C717 1.363 . S
C712 C713 1.363 . S
C712 C717 1.379 . S
C712 N719 1.356 . S
C713 C712 1.363 . S
C713 C716 1.363 . S
N714 C716 1.356 . S
N714 H726 0.984 1_554 S
N714 H727 0.985 . S
N715 C717 1.356 . S
N715 H720 0.984 . S
N715 H721 0.985 . S
C716 C710 1.379 . S
C716 C713 1.363 . S
C716 N714 1.356 . S
C717 C711 1.363 . S
C717 C712 1.379 . S
C717 N715 1.356 . S
N718 C710 1.356 . S
N718 H724 0.984 . S
N718 H725 0.984 . S
N719 C712 1.356 . S
N719 H722 0.984 . S
N719 H723 0.985 . S
H720 N715 0.984 . S
H721 N715 0.985 . S
H722 N719 0.984 . S
H723 N719 0.985 . S
H724 N718 0.984 . S
H725 N718 0.984 . S
H726 N714 0.984 1_556 S
H727 N714 0.985 . S
C728 C729 1.363 . S
C728 C734 1.379 . S
C728 N736 1.356 . S
C729 C728 1.363 . S
C729 C735 1.363 . S
C730 C731 1.363 . S
C730 C735 1.379 . S
C730 N737 1.356 . S
C731 C730 1.363 . S
C731 C734 1.363 . S
N732 C734 1.356 . S
N732 H744 0.984 1_455 S
N732 H745 0.985 . S
N733 C735 1.356 . S
N733 H738 0.984 . S
N733 H739 0.985 1_556 S
C734 C728 1.379 . S
C734 C731 1.363 . S
C734 N732 1.356 . S
C735 C729 1.363 . S
C735 C730 1.379 . S
C735 N733 1.356 . S
N736 C728 1.356 . S
N736 H742 0.984 . S
N736 H743 0.984 . S
N737 C730 1.356 . S
N737 H740 0.984 . S
N737 H741 0.985 1_556 S
H738 N733 0.984 . S
H739 N733 0.985 1_554 S
H740 N737 0.984 . S
H741 N737 0.985 1_554 S
H742 N736 0.984 . S
H743 N736 0.984 . S
H744 N732 0.984 1_655 S
H745 N732 0.985 . S
C746 C747 1.363 . S
C746 C752 1.379 . S
C746 N754 1.356 . S
C747 C746 1.363 . S
C747 C753 1.363 . S
C748 C749 1.363 . S
C748 C753 1.379 . S
C748 N755 1.356 . S
C749 C748 1.363 . S
C749 C752 1.363 . S
N750 C752 1.356 . S
N750 H762 0.984 . S
N750 H763 0.985 . S
N751 C753 1.356 . S
N751 H756 0.984 . S
N751 H757 0.985 1_556 S
C752 C746 1.379 . S
C752 C749 1.363 . S
C752 N750 1.356 . S
C753 C747 1.363 . S
C753 C748 1.379 . S
C753 N751 1.356 . S
N754 C746 1.356 . S
N754 H760 0.984 . S
N754 H761 0.984 . S
N755 C748 1.356 . S
N755 H758 0.984 . S
N755 H759 0.985 1_556 S
H756 N751 0.984 . S
H757 N751 0.985 1_554 S
H758 N755 0.984 . S
H759 N755 0.985 1_554 S
H760 N754 0.984 . S
H761 N754 0.984 . S
H762 N750 0.984 . S
H763 N750 0.985 . S
C764 C765 1.363 . S
C764 C770 1.379 . S
C764 N772 1.356 . S
C765 C764 1.363 . S
C765 C771 1.363 . S
C766 C767 1.363 . S
C766 C771 1.379 . S
C766 N773 1.356 . S
C767 C766 1.363 . S
C767 C770 1.363 . S
N768 C770 1.356 . S
N768 H780 0.984 . S
N768 H781 0.985 . S
N769 C771 1.356 . S
N769 H774 0.984 . S
N769 H775 0.985 1_556 S
C770 C764 1.379 . S
C770 C767 1.363 . S
C770 N768 1.356 . S
C771 C765 1.363 . S
C771 C766 1.379 . S
C771 N769 1.356 . S
N772 C764 1.356 . S
N772 H778 0.984 . S
N772 H779 0.984 . S
N773 C766 1.356 . S
N773 H776 0.984 . S
N773 H777 0.985 1_556 S
H774 N769 0.984 . S
H775 N769 0.985 1_554 S
H776 N773 0.984 . S
H777 N773 0.985 1_554 S
H778 N772 0.984 . S
H779 N772 0.984 . S
H780 N768 0.984 . S
H781 N768 0.985 . S
C782 C783 1.363 . S
C782 C788 1.379 . S
C782 N790 1.356 . S
C783 C782 1.363 . S
C783 C789 1.363 . S
C784 C785 1.363 . S
C784 C789 1.379 . S
C784 N791 1.356 . S
C785 C784 1.363 . S
C785 C788 1.363 . S
N786 C788 1.356 . S
N786 H798 0.984 1_556 S
N786 H799 0.985 . S
N787 C789 1.356 . S
N787 H792 0.984 . S
N787 H793 0.985 . S
C788 C782 1.379 . S
C788 C785 1.363 . S
C788 N786 1.356 . S
C789 C783 1.363 . S
C789 C784 1.379 . S
C789 N787 1.356 . S
N790 C782 1.356 . S
N790 H796 0.984 1_556 S
N790 H797 0.984 . S
N791 C784 1.356 . S
N791 H794 0.984 . S
N791 H795 0.985 . S
H792 N787 0.984 . S
H793 N787 0.985 . S
H794 N791 0.984 . S
H795 N791 0.985 . S
H796 N790 0.984 1_554 S
H797 N790 0.984 . S
H798 N786 0.984 1_554 S
H799 N786 0.985 . S
C800 C801 1.363 . S
C800 C806 1.379 . S
C800 N808 1.356 . S
C801 C800 1.363 . S
C801 C807 1.363 . S
C802 C803 1.363 . S
C802 C807 1.379 . S
C802 N809 1.356 1_655 S
C803 C802 1.363 . S
C803 C806 1.363 . S
N804 C806 1.356 . S
N804 H816 0.984 . S
N804 H817 0.985 . S
N805 C807 1.356 . S
N805 H810 0.984 . S
N805 H811 0.985 1_655 S
C806 C800 1.379 . S
C806 C803 1.363 . S
C806 N804 1.356 . S
C807 C801 1.363 . S
C807 C802 1.379 . S
C807 N805 1.356 . S
N808 C800 1.356 . S
N808 H814 0.984 . S
N808 H815 0.984 . S
N809 C802 1.356 1_455 S
N809 H812 0.984 . S
N809 H813 0.985 . S
H810 N805 0.984 . S
H811 N805 0.985 1_455 S
H812 N809 0.984 . S
H813 N809 0.985 . S
H814 N808 0.984 . S
H815 N808 0.984 . S
H816 N804 0.984 . S
H817 N804 0.985 . S
C818 C819 1.361 1_545 S
C818 C824 1.379 . S
C818 N826 1.358 . S
C819 C818 1.361 1_565 S
C819 C825 1.363 . S
C820 C821 1.363 . S
C820 C825 1.379 . S
C820 N827 1.356 . S
C821 C820 1.363 . S
C821 C824 1.363 1_565 S
N822 C824 1.356 . S
N822 H834 0.984 . S
N822 H835 0.985 . S
N823 C825 1.356 . S
N823 H828 0.984 . S
N823 H829 0.985 . S
C824 C818 1.379 . S
C824 C821 1.363 1_545 S
C824 N822 1.356 . S
C825 C819 1.363 . S
C825 C820 1.379 . S
C825 N823 1.356 . S
N826 C818 1.358 . S
N826 H832 0.984 . S
N826 H833 0.984 . S
N827 C820 1.356 . S
N827 H830 0.984 . S
N827 H831 0.985 . S
H828 N823 0.984 . S
H829 N823 0.985 . S
H830 N827 0.984 . S
H831 N827 0.985 . S
H832 N826 0.984 . S
H833 N826 0.984 . S
H834 N822 0.984 . S
H835 N822 0.985 . S
C836 C837 1.363 . S
C836 C842 1.379 . S
C836 N844 1.356 . S
C837 C836 1.363 . S
C837 C843 1.363 . S
C838 C839 1.363 . S
C838 C843 1.379 . S
C838 N845 1.356 . S
C839 C838 1.363 . S
C839 C842 1.363 . S
N840 C842 1.356 . S
N840 H852 0.984 . S
N840 H853 0.985 . S
N841 C843 1.356 . S
N841 H846 0.984 . S
N841 H847 0.985 . S
C842 C836 1.379 . S
C842 C839 1.363 . S
C842 N840 1.356 . S
C843 C837 1.363 . S
C843 C838 1.379 . S
C843 N841 1.356 . S
N844 C836 1.356 . S
N844 H850 0.984 . S
N844 H851 0.984 . S
N845 C838 1.356 . S
N845 H848 0.984 . S
N845 H849 0.985 . S
H846 N841 0.984 . S
H847 N841 0.985 . S
H848 N845 0.984 . S
H849 N845 0.985 . S
H850 N844 0.984 . S
H851 N844 0.984 . S
H852 N840 0.984 . S
H853 N840 0.985 . S
C854 C855 1.363 . S
C854 C860 1.379 . S
C854 N862 1.356 . S
C855 C854 1.363 . S
C855 C861 1.363 . S
C856 C857 1.363 . S
C856 C861 1.379 . S
C856 N863 1.356 . S
C857 C856 1.363 . S
C857 C860 1.363 . S
N858 C860 1.356 . S
N858 H870 0.984 . S
N858 H871 0.985 . S
N859 C861 1.356 . S
N859 H864 0.984 . S
N859 H865 0.985 . S
C860 C854 1.379 . S
C860 C857 1.363 . S
C860 N858 1.356 . S
C861 C855 1.363 . S
C861 C856 1.379 . S
C861 N859 1.356 . S
N862 C854 1.356 . S
N862 H868 0.984 . S
N862 H869 0.984 . S
N863 C856 1.356 . S
N863 H866 0.984 . S
N863 H867 0.985 . S
H864 N859 0.984 . S
H865 N859 0.985 . S
H866 N863 0.984 . S
H867 N863 0.985 . S
H868 N862 0.984 . S
H869 N862 0.984 . S
H870 N858 0.984 . S
H871 N858 0.985 . S
C441 C82 1.803 . S
C443 C178 2.083 . S
C461 C262 2.093 . S
C459 C95 1.817 . S
C479 C328 1.998 . S
C477 C56 1.894 . S
C497 C412 1.990 . S
C495 C69 1.880 . S
C515 C167 2.083 1_565 S
C513 C30 1.747 . S
C531 C43 1.753 . S
C533 C251 2.093 . S
C549 C4 1.823 . S
C551 C339 1.998 . S
C567 C17 1.817 . S
C569 C423 1.990 . S
C587 C174 0.964 . S
C585 C74 0.895 . S
C605 C258 0.933 . S
C603 C87 0.870 . S
C623 C330 0.887 . S
C621 C100 0.847 . S
C639 C61 0.870 . S
C641 C414 0.921 . S
C657 C22 0.892 . S
C659 C162 0.948 . S
C677 C246 0.912 . S
C675 C35 0.867 . S
C695 C342 0.887 . S
C693 C48 0.844 . S
C711 C9 0.867 . S
C713 C426 0.921 . S
C729 C73 2.108 . S
C731 C171 2.204 . S
C747 C86 2.086 . S
C749 C255 2.184 . S
C767 C335 2.278 . S
C765 C99 2.007 . S
C785 C419 2.298 . S
C783 C60 2.028 . S
C801 C21 2.103 . S
C803 C160 2.204 . S
C821 C244 2.184 . S
C819 C34 2.083 . S
C839 C346 2.278 . S
C837 C47 2.003 . S
C855 C8 2.023 . S
C857 C430 2.298 . S
