# Generated by pormake.
# Topology pyr, (3,6)-cn, num edge types: 1
# Building blocks:
#     Node 0, Type 0, BuildingBlock: ESEHIV_clean_linker_0, # of connection points: 3
#     Node 1, Type 0, BuildingBlock: ESEHIV_clean_linker_0, # of connection points: 3
#     Node 2, Type 0, BuildingBlock: ESEHIV_clean_linker_0, # of connection points: 3
#     Node 3, Type 0, BuildingBlock: ESEHIV_clean_linker_0, # of connection points: 3
#     Node 4, Type 0, BuildingBlock: ESEHIV_clean_linker_0, # of connection points: 3
#     Node 5, Type 0, BuildingBlock: ESEHIV_clean_linker_0, # of connection points: 3
#     Node 6, Type 0, BuildingBlock: ESEHIV_clean_linker_0, # of connection points: 3
#     Node 7, Type 0, BuildingBlock: ESEHIV_clean_linker_0, # of connection points: 3
#     Node 8, Type 1, BuildingBlock: PAMTUU_clean_sbu_0, # of connection points: 6
#     Node 9, Type 1, BuildingBlock: PAMTUU_clean_sbu_0, # of connection points: 6
#     Node 10, Type 1, BuildingBlock: PAMTUU_clean_sbu_0, # of connection points: 6
#     Node 11, Type 1, BuildingBlock: PAMTUU_clean_sbu_0, # of connection points: 6
#     Edge 12, Type (0, 1), BuildingBlock: ZUJKAS_clean_linker_0, # of connection points: 2
#     Edge 13, Type (0, 1), BuildingBlock: ZUJKAS_clean_linker_0, # of connection points: 2
#     Edge 14, Type (0, 1), BuildingBlock: ZUJKAS_clean_linker_0, # of connection points: 2
#     Edge 15, Type (0, 1), BuildingBlock: ZUJKAS_clean_linker_0, # of connection points: 2
#     Edge 16, Type (0, 1), BuildingBlock: ZUJKAS_clean_linker_0, # of connection points: 2
#     Edge 17, Type (0, 1), BuildingBlock: ZUJKAS_clean_linker_0, # of connection points: 2
#     Edge 18, Type (0, 1), BuildingBlock: ZUJKAS_clean_linker_0, # of connection points: 2
#     Edge 19, Type (0, 1), BuildingBlock: ZUJKAS_clean_linker_0, # of connection points: 2
#     Edge 20, Type (0, 1), BuildingBlock: ZUJKAS_clean_linker_0, # of connection points: 2
#     Edge 21, Type (0, 1), BuildingBlock: ZUJKAS_clean_linker_0, # of connection points: 2
#     Edge 22, Type (0, 1), BuildingBlock: ZUJKAS_clean_linker_0, # of connection points: 2
#     Edge 23, Type (0, 1), BuildingBlock: ZUJKAS_clean_linker_0, # of connection points: 2
#     Edge 24, Type (0, 1), BuildingBlock: ZUJKAS_clean_linker_0, # of connection points: 2
#     Edge 25, Type (0, 1), BuildingBlock: ZUJKAS_clean_linker_0, # of connection points: 2
#     Edge 26, Type (0, 1), BuildingBlock: ZUJKAS_clean_linker_0, # of connection points: 2
#     Edge 27, Type (0, 1), BuildingBlock: ZUJKAS_clean_linker_0, # of connection points: 2
#     Edge 28, Type (0, 1), BuildingBlock: ZUJKAS_clean_linker_0, # of connection points: 2
#     Edge 29, Type (0, 1), BuildingBlock: ZUJKAS_clean_linker_0, # of connection points: 2
#     Edge 30, Type (0, 1), BuildingBlock: ZUJKAS_clean_linker_0, # of connection points: 2
#     Edge 31, Type (0, 1), BuildingBlock: ZUJKAS_clean_linker_0, # of connection points: 2
#     Edge 32, Type (0, 1), BuildingBlock: ZUJKAS_clean_linker_0, # of connection points: 2
#     Edge 33, Type (0, 1), BuildingBlock: ZUJKAS_clean_linker_0, # of connection points: 2
#     Edge 34, Type (0, 1), BuildingBlock: ZUJKAS_clean_linker_0, # of connection points: 2
#     Edge 35, Type (0, 1), BuildingBlock: ZUJKAS_clean_linker_0, # of connection points: 2
# Relax obj value: 0.084
# Max RMSD: 0.123
# Mean RMSD: 0.050
data_MOF--net-pyr--node1-PAMTUU_clean_sbu_0--node2-ESEHIV_clean_linker_0--edge1-ZUJKAS_clean_linker_0
_symmetry_space_group_name_H-M    P1
_symmetry_Int_Tables_number       1
_symmetry_cell_setting            triclinic
loop_
_symmetry_equiv_pos_as_xyz
'x, y, z'
_cell_length_a     47.344801
_cell_length_b     48.097257
_cell_length_c     45.493774
_cell_angle_alpha  90.040008
_cell_angle_beta   89.56377
_cell_angle_gamma 100.77299
loop_
_atom_site_label
_atom_site_type_symbol
_atom_site_fract_x
_atom_site_fract_y
_atom_site_fract_z
_atom_type_partial_charge
H0 H 0.3034 0.31181 0.25082 0.0
H1 H 0.35902 0.25123 0.25702 0.0
H2 H 0.36122 0.30294 0.17961 0.0
C3 C 0.32069 0.30248 0.24178 0.0
C4 C 0.33123 0.31015 0.21342 0.0
C5 C 0.33047 0.2812 0.25767 0.0
C6 C 0.35235 0.26861 0.24554 0.0
C7 C 0.36372 0.27635 0.21744 0.0
C8 C 0.35305 0.29723 0.20153 0.0
H9 H 0.16395 0.80569 0.76945 0.0
H10 H 0.2311 0.75726 0.76136 0.0
H11 H 0.18164 0.77093 0.68568 0.0
C12 C 0.17599 0.79315 0.75619 0.0
C13 C 0.17035 0.79004 0.72599 0.0
C14 C 0.19802 0.78164 0.76916 0.0
C15 C 0.21315 0.76507 0.75189 0.0
C16 C 0.20711 0.76063 0.72185 0.0
C17 C 0.18562 0.77322 0.70905 0.0
H18 H 0.68984 0.34467 0.90048 0.0
H19 H 0.69654 0.41072 0.8359 0.0
H20 H 0.62318 0.34242 0.83639 0.0
C21 C 0.68106 0.35394 0.88177 0.0
C22 C 0.65476 0.34019 0.86983 0.0
C23 C 0.69622 0.37952 0.86996 0.0
C24 C 0.68464 0.39143 0.84555 0.0
C25 C 0.65841 0.37811 0.83286 0.0
C26 C 0.64371 0.35246 0.8453 0.0
H27 H 0.83668 0.70886 0.40052 0.0
H28 H 0.90125 0.70903 0.33363 0.0
H29 H 0.83238 0.63703 0.3433 0.0
C30 C 0.84544 0.69836 0.38248 0.0
C31 C 0.83153 0.67113 0.37394 0.0
C32 C 0.87056 0.71225 0.36814 0.0
C33 C 0.88182 0.6985 0.34467 0.0
C34 C 0.86816 0.67133 0.3353 0.0
C35 C 0.84304 0.65788 0.35021 0.0
H36 H 0.67094 0.80625 0.82689 0.0
H37 H 0.74083 0.76196 0.83886 0.0
H38 H 0.68906 0.77702 0.91296 0.0
C39 C 0.68337 0.79507 0.84105 0.0
C40 C 0.67697 0.79281 0.87128 0.0
C41 C 0.70649 0.78422 0.82913 0.0
C42 C 0.72243 0.76977 0.84762 0.0
C43 C 0.71607 0.76682 0.87777 0.0
C44 C 0.69308 0.77807 0.88946 0.0
H45 H 0.80134 0.2968 0.32838 0.0
H46 H 0.8678 0.24722 0.32742 0.0
H47 H 0.8547 0.29573 0.4042 0.0
C48 C 0.81982 0.29066 0.33866 0.0
C49 C 0.82696 0.29943 0.36754 0.0
C50 C 0.83435 0.27175 0.32407 0.0
C51 C 0.85703 0.2624 0.33833 0.0
C52 C 0.86444 0.27072 0.36732 0.0
C53 C 0.84939 0.28943 0.38173 0.0
H54 H 0.33336 0.707 0.17866 0.0
H55 H 0.3282 0.63933 0.24122 0.0
H56 H 0.39728 0.71152 0.24622 0.0
C57 C 0.34194 0.69793 0.19765 0.0
C58 C 0.36691 0.71283 0.21118 0.0
C59 C 0.32773 0.6715 0.20827 0.0
C60 C 0.33884 0.65982 0.23308 0.0
C61 C 0.36426 0.67383 0.24667 0.0
C62 C 0.37817 0.70031 0.23545 0.0
H63 H 0.12631 0.33429 0.74674 0.0
H64 H 0.18906 0.34119 0.67716 0.0
H65 H 0.19516 0.40696 0.74215 0.0
C66 C 0.14538 0.34599 0.73601 0.0
C67 C 0.15917 0.37226 0.7476 0.0
C68 C 0.15601 0.33475 0.7105 0.0
C69 C 0.18091 0.34982 0.69681 0.0
C70 C 0.19548 0.3757 0.7082 0.0
C71 C 0.18427 0.38686 0.73346 0.0
Tb72 Tb 0.04432 0.02777 0.51739 0.0
Tb73 Tb 0.98486 1.02044 0.55627 0.0
C74 C 0.9913 0.97869 0.50479 0.0
C75 C 0.11308 0.05853 0.48024 0.0
C76 C 0.15519 0.10456 0.46173 0.0
C77 C 0.15863 0.07659 0.45621 0.0
C78 C 0.13771 0.05378 0.46539 0.0
C79 C 0.1098 0.08631 0.48656 0.0
C80 C 0.13071 0.10919 0.47731 0.0
C81 C 0.09068 0.0344 0.48833 0.0
O82 O 0.02514 0.06382 0.50619 0.0
O83 O 0.97844 0.04362 0.51652 0.0
O84 O 1.0088 0.06225 0.56703 0.0
O85 O 0.05405 0.05436 0.5565 0.0
O86 O 0.93985 1.01307 0.55716 0.0
O87 O 0.96416 1.02126 0.59723 0.0
O88 O 0.01413 0.99891 0.58051 0.0
O89 O 0.04183 0.98893 0.54186 0.0
O90 O 0.01201 0.99786 0.49335 0.0
O91 O 0.98154 0.98137 0.53154 0.0
C92 C 0.99749 0.06332 0.50371 0.0
O93 O 0.0887 0.02807 0.51622 0.0
O94 O 0.06553 0.03401 0.47665 0.0
C95 C 0.03685 0.06929 0.56939 0.0
C96 C 0.92029 0.98906 0.59968 0.0
C97 C 0.88443 0.94271 0.62662 0.0
C98 C 0.88416 0.97048 0.63618 0.0
C99 C 0.90193 0.99347 0.62275 0.0
C100 C 0.9208 0.96139 0.59013 0.0
C101 C 0.90286 0.93837 0.6034 0.0
C102 C 0.93876 1.01345 0.58579 0.0
C103 C 0.03224 0.98432 0.56882 0.0
H104 H 0.17699 0.07232 0.44385 0.0
H105 H 0.14049 0.03242 0.46037 0.0
H106 H 0.09089 0.09027 0.4982 0.0
H107 H 0.12758 0.13048 0.48207 0.0
H108 H 0.86995 0.97446 0.65382 0.0
H109 H 0.90129 1.01471 0.63035 0.0
H110 H 0.93505 0.9576 0.57244 0.0
H111 H 0.90369 0.91718 0.59581 0.0
Tb112 Tb 0.54017 0.03133 0.06094 0.0
Tb113 Tb 0.48029 0.02418 1.02377 0.0
C114 C 0.52764 0.99047 1.00739 0.0
C115 C 0.60893 0.05808 0.1006 0.0
C116 C 0.65109 0.10003 0.12594 0.0
C117 C 0.65738 0.07345 0.11852 0.0
C118 C 0.63645 0.05267 0.106 0.0
C119 C 0.60259 0.08472 0.1073 0.0
C120 C 0.62354 0.10557 0.11995 0.0
C121 C 0.58753 0.0358 0.08734 0.0
O122 O 0.54262 0.07153 1.03834 0.0
O123 O 0.5121 0.05575 1.00039 0.0
O124 O 0.48129 0.06147 0.05063 0.0
O125 O 0.51219 0.05322 0.08696 0.0
O126 O 0.45949 1.01884 0.9831 0.0
O127 O 0.43573 0.02303 1.02315 0.0
O128 O 0.47071 0.99608 0.06179 0.0
O129 O 0.51628 0.98933 0.07204 0.0
O130 O 0.546 1.01116 1.01916 0.0
O131 O 0.49996 0.98861 1.0114 0.0
C132 C 0.53246 0.07499 1.01206 0.0
O133 O 0.56253 0.02973 0.10042 0.0
O134 O 0.58514 0.03726 0.05893 0.0
C135 C 0.49236 0.06651 0.07689 0.0
C136 C 0.41222 0.99283 0.98675 0.0
C137 C 0.3699 0.94681 0.96892 0.0
C138 C 0.36303 0.9738 0.97307 0.0
C139 C 0.38404 0.9966 0.98181 0.0
C140 C 0.41906 0.96581 0.98362 0.0
C141 C 0.39809 0.943 0.97467 0.0
C142 C 0.43413 1.01726 0.99514 0.0
C143 C 0.48823 0.98156 0.07448 0.0
H144 H 0.67851 0.06869 0.12241 0.0
H145 H 0.64173 0.03229 0.10057 0.0
H146 H 0.58143 0.08927 0.10299 0.0
H147 H 0.61798 0.12575 0.12566 0.0
H148 H 0.34141 0.97736 0.96939 0.0
H149 H 0.37834 1.01725 0.98449 0.0
H150 H 0.44071 0.96246 0.98765 0.0
H151 H 0.40419 0.9226 0.97144 0.0
Tb152 Tb 0.51204 0.49774 0.52165 0.0
Tb153 Tb 0.51172 0.55552 0.55946 0.0
C154 C 0.48368 0.54669 0.49598 0.0
C155 C 0.54136 0.44106 0.48596 0.0
C156 C 0.59006 0.41775 0.47168 0.0
C157 C 0.56221 0.40281 0.46554 0.0
C158 C 0.53804 0.41441 0.47266 0.0
C159 C 0.56904 0.45604 0.49215 0.0
C160 C 0.59317 0.44452 0.48504 0.0
C161 C 0.51613 0.45326 0.49373 0.0
O162 O 0.54713 0.52937 0.50452 0.0
O163 O 0.55617 0.55848 0.54458 0.0
O164 O 0.52287 0.52418 0.58981 0.0
O165 O 0.54319 0.49786 0.55691 0.0
O166 O 0.5196 0.59991 0.56261 0.0
O167 O 0.50371 0.57379 0.59985 0.0
O168 O 0.46731 0.53317 0.55955 0.0
O169 O 0.47548 0.48825 0.55182 0.0
O170 O 0.48222 0.51913 0.498 0.0
O171 O 0.49774 0.5643 0.51535 0.0
C172 C 0.56405 0.54932 0.5191 0.0
O173 O 0.51034 0.45377 0.52173 0.0
O174 O 0.51492 0.47735 0.48122 0.0
C175 C 0.53924 0.50559 0.5841 0.0
C176 C 0.48548 0.61527 0.59379 0.0
C177 C 0.43774 0.64069 0.60618 0.0
C178 C 0.45997 0.64185 0.62673 0.0
C179 C 0.48367 0.62927 0.62054 0.0
C180 C 0.4636 0.6145 0.57295 0.0
C181 C 0.44002 0.62731 0.57901 0.0
C182 C 0.5087 0.5993 0.58906 0.0
C183 C 0.45895 0.5056 0.56118 0.0
H184 H 0.55907 0.38202 0.45558 0.0
H185 H 0.51678 0.40254 0.46788 0.0
H186 H 0.57196 0.4767 0.50243 0.0
H187 H 0.61428 0.45676 0.48967 0.0
H188 H 0.45888 0.65224 0.64773 0.0
H189 H 0.50023 0.62984 0.63696 0.0
H190 H 0.46438 0.60337 0.55233 0.0
H191 H 0.42307 0.62584 0.56291 0.0
Tb192 Tb 0.01281 0.5516 1.0222 0.0
Tb193 Tb 0.01226 0.49285 0.05855 0.0
C194 C 0.041 0.50231 0.99621 0.0
C195 C 0.98647 0.6133 0.9944 0.0
C196 C 0.93956 0.64153 0.9903 0.0
C197 C 0.96145 0.64551 0.96872 0.0
C198 C 0.9847 0.63149 0.97078 0.0
C199 C 0.965 0.60958 1.01626 0.0
C200 C 0.94183 0.62367 1.0143 0.0
C201 C 1.00939 0.59657 0.99509 0.0
O202 O 0.96838 0.52898 1.02185 0.0
O203 O 0.97652 0.4839 1.02781 0.0
O204 O 0.98188 0.51387 0.08224 0.0
O205 O 0.99985 0.55924 0.06708 0.0
O206 O 1.00869 0.44868 0.05842 0.0
O207 O 0.01614 0.47237 0.09876 0.0
O208 O 0.0481 0.52365 0.07548 0.0
O209 O 0.05715 0.55446 1.03661 0.0
O210 O 0.02577 0.52192 0.99083 0.0
O211 O 0.04355 0.49315 1.02307 0.0
C212 C 0.96012 0.50149 1.01899 0.0
O213 O 0.02244 0.596 1.02014 0.0
O214 O 1.00265 0.57142 0.98362 0.0
C215 C 0.98446 0.54142 0.08551 0.0
C216 C 0.04182 0.43561 0.09188 0.0
C217 C 0.0932 0.41682 0.1054 0.0
C218 C 0.0714 0.41597 0.12677 0.0
C219 C 0.0459 0.42525 0.12003 0.0
C220 C 0.06343 0.43613 0.07042 0.0
C221 C 0.08878 0.42669 0.07707 0.0
C222 C 0.0164 0.44824 0.08585 0.0
C223 C 0.06501 0.54423 0.06143 0.0
H224 H 0.96017 0.65874 0.94971 0.0
H225 H 1.00092 0.63431 0.95356 0.0
H226 H 0.9659 0.59538 1.03457 0.0
H227 H 0.92557 0.62038 1.03147 0.0
H228 H 0.07413 0.40824 0.14873 0.0
H229 H 0.02962 0.42492 0.13696 0.0
H230 H 0.06104 0.44444 0.04867 0.0
H231 H 0.1053 0.42793 0.06026 0.0
H232 H 0.27259 0.27141 0.268 0.0
H233 H 0.24649 0.24764 0.30985 0.0
H234 H 0.32641 0.23793 0.34972 0.0
H235 H 0.35309 0.26312 0.30826 0.0
H236 H 0.24944 0.19252 0.32314 0.0
H237 H 0.28075 0.26258 0.4194 0.0
H238 H 0.28586 0.27507 0.38194 0.0
H239 H 0.30994 0.25445 0.39754 0.0
C240 C 0.28483 0.2652 0.28607 0.0
C241 C 0.31503 0.26939 0.2848 0.0
C242 C 0.26978 0.25136 0.3099 0.0
C243 C 0.2845 0.24123 0.33297 0.0
C244 C 0.31467 0.24603 0.33236 0.0
H245 H 0.21399 0.11174 0.46033 0.0
H246 H 0.24733 0.14732 0.43225 0.0
C247 C 0.32984 0.26011 0.3085 0.0
C248 C 0.26791 0.22298 0.35568 0.0
H249 H 0.25183 0.21751 0.42907 0.0
C250 C 0.24998 0.19802 0.34629 0.0
C251 C 0.26879 0.23019 0.38586 0.0
C252 C 0.28718 0.25713 0.3969 0.0
C253 C 0.23269 0.18016 0.36619 0.0
C254 C 0.23329 0.18748 0.39625 0.0
C255 C 0.25152 0.21214 0.40591 0.0
C256 C 0.21442 0.16962 0.41748 0.0
C257 C 0.21366 0.15358 0.35503 0.0
C258 C 0.18515 0.17101 0.4189 0.0
C259 C 0.16607 0.15068 0.43467 0.0
C260 C 0.17601 0.12858 0.44916 0.0
C261 C 0.20568 0.12829 0.44905 0.0
C262 C 0.22476 0.14869 0.4333 0.0
H263 H 0.21799 0.1494 0.33156 0.0
H264 H 0.21679 0.13505 0.36832 0.0
H265 H 0.19079 0.15565 0.35735 0.0
H266 H 0.17687 0.18697 0.40656 0.0
H267 H 0.14334 0.15134 0.43406 0.0
H268 H 0.21732 0.74951 0.81214 0.0
H269 H 0.24031 0.7665 0.85863 0.0
H270 H 0.22479 0.85026 0.84022 0.0
H271 H 0.20262 0.83389 0.79395 0.0
H272 H 0.28906 0.80794 0.86129 0.0
H273 H 0.20273 0.84141 0.92658 0.0
H274 H 0.1954 0.81714 0.89603 0.0
H275 H 0.20317 0.85481 0.88978 0.0
C276 C 0.21845 0.77145 0.81825 0.0
C277 C 0.20798 0.79028 0.79931 0.0
C278 C 0.2314 0.78105 0.84488 0.0
C279 C 0.23374 0.8095 0.85313 0.0
C280 C 0.22241 0.82802 0.83477 0.0
H281 H 0.33052 0.94962 0.9261 0.0
H282 H 0.29618 0.91093 0.90486 0.0
C283 C 0.20968 0.81855 0.80821 0.0
C284 C 0.25126 0.82124 0.87861 0.0
H285 H 0.25135 0.86817 0.93485 0.0
C286 C 0.28073 0.82036 0.87806 0.0
C287 C 0.24029 0.83728 0.90052 0.0
C288 C 0.20858 0.83746 0.90345 0.0
C289 C 0.29993 0.83738 0.89697 0.0
C290 C 0.28921 0.85543 0.91698 0.0
C291 C 0.25948 0.85445 0.91927 0.0
C292 C 0.30868 0.87851 0.9321 0.0
C293 C 0.33175 0.83774 0.8938 0.0
C294 C 0.32681 0.87304 0.95475 0.0
C295 C 0.34642 0.89525 0.9672 0.0
C296 C 0.34814 0.92322 0.95713 0.0
C297 C 0.32947 0.92849 0.93478 0.0
C298 C 0.3099 0.90638 0.9225 0.0
H299 H 0.33668 0.82377 0.87576 0.0
H300 H 0.34336 0.85964 0.88941 0.0
H301 H 0.34011 0.83058 0.91464 0.0
H302 H 0.32598 0.85163 0.96255 0.0
H303 H 0.36024 0.89053 0.98463 0.0
H304 H 0.65921 0.43453 0.82102 0.0
H305 H 0.6398 0.4553 0.77834 0.0
H306 H 0.61073 0.37201 0.7425 0.0
H307 H 0.63043 0.35103 0.78486 0.0
H308 H 0.65246 0.45189 0.71819 0.0
H309 H 0.53778 0.40634 0.74073 0.0
H310 H 0.56547 0.4067 0.76786 0.0
H311 H 0.56099 0.38081 0.73894 0.0
C312 C 0.64891 0.42054 0.804 0.0
C313 C 0.6464 0.39096 0.80669 0.0
C314 C 0.63767 0.43251 0.77959 0.0
C315 C 0.62338 0.41529 0.75726 0.0
C316 C 0.62107 0.38581 0.75966 0.0
H317 H 0.57859 0.46994 0.58173 0.0
H318 H 0.59961 0.44817 0.62295 0.0
C319 C 0.63235 0.3738 0.78403 0.0
C320 C 0.61118 0.42822 0.73143 0.0
H321 H 0.54834 0.43065 0.69554 0.0
C322 C 0.6297 0.4472 0.71324 0.0
C323 C 0.5814 0.4224 0.725 0.0
C324 C 0.56015 0.40316 0.74426 0.0
C325 C 0.61937 0.46019 0.68877 0.0
C326 C 0.58968 0.454 0.68208 0.0
C327 C 0.57112 0.43525 0.70043 0.0
C328 C 0.57731 0.46747 0.65677 0.0
C329 C 0.6402 0.48095 0.6706 0.0
C330 C 0.55749 0.48536 0.66185 0.0
C331 C 0.54553 0.49794 0.63834 0.0
C332 C 0.55279 0.4927 0.60901 0.0
C333 C 0.57254 0.4746 0.60394 0.0
C334 C 0.58469 0.46219 0.62754 0.0
H335 H 0.66103 0.48779 0.68197 0.0
H336 H 0.6445 0.47082 0.64952 0.0
H337 H 0.63097 0.49995 0.66541 0.0
H338 H 0.55134 0.48973 0.68412 0.0
H339 H 0.53033 0.51159 0.64322 0.0
H340 H 0.87142 0.615 0.32901 0.0
H341 H 0.8903 0.5919 0.2872 0.0
H342 H 0.91075 0.672 0.24214 0.0
H343 H 0.89154 0.69521 0.28357 0.0
H344 H 0.87339 0.58908 0.2277 0.0
H345 H 0.98698 0.64323 0.23884 0.0
H346 H 0.96065 0.64329 0.26774 0.0
H347 H 0.96178 0.66681 0.23689 0.0
C348 C 0.87973 0.62774 0.31015 0.0
C349 C 0.87999 0.6571 0.30989 0.0
C350 C 0.89066 0.61447 0.28628 0.0
C351 C 0.90237 0.63022 0.26163 0.0
C352 C 0.90244 0.65945 0.26113 0.0
H353 H 0.98059 0.59668 0.09571 0.0
H354 H 0.95965 0.6166 0.13814 0.0
C355 C 0.89146 0.67273 0.28495 0.0
C356 C 0.91411 0.61608 0.23628 0.0
H357 H 0.97513 0.61626 0.19549 0.0
C358 C 0.89568 0.59488 0.22075 0.0
C359 C 0.9432 0.62361 0.22718 0.0
C360 C 0.96442 0.64529 0.24365 0.0
C361 C 0.90531 0.58164 0.19593 0.0
C362 C 0.93437 0.58935 0.18667 0.0
C363 C 0.95285 0.61033 0.20245 0.0
C364 C 0.94602 0.57652 0.16032 0.0
C365 C 0.88401 0.56018 0.17931 0.0
C366 C 0.94544 0.54721 0.15843 0.0
C367 C 0.95736 0.53563 0.13396 0.0
C368 C 0.97041 0.55314 0.11096 0.0
C369 C 0.97082 0.58245 0.11293 0.0
C370 C 0.95884 0.59395 0.13728 0.0
H371 H 0.86147 0.5622 0.18432 0.0
H372 H 0.88765 0.56247 0.15522 0.0
H373 H 0.88665 0.53858 0.18575 0.0
H374 H 0.93625 0.53331 0.17614 0.0
H375 H 0.95682 0.51303 0.13336 0.0
H376 H 0.40977 0.25882 0.24282 0.0
H377 H 0.43934 0.22693 0.22182 0.0
H378 H 0.39294 0.22467 0.1404 0.0
H379 H 0.3632 0.25618 0.1612 0.0
H380 H 0.41826 0.17247 0.2019 0.0
H381 H 0.47646 0.2377 0.11241 0.0
H382 H 0.45889 0.25276 0.14223 0.0
H383 H 0.43839 0.23664 0.11147 0.0
C384 C 0.40611 0.25178 0.22032 0.0
C385 C 0.38418 0.26013 0.20366 0.0
C386 C 0.42306 0.23364 0.20836 0.0
C387 C 0.41858 0.22373 0.17944 0.0
C388 C 0.39725 0.23261 0.16251 0.0
H389 H 0.45158 0.09736 0.06289 0.0
H390 H 0.43726 0.1358 0.09057 0.0
C391 C 0.38027 0.25069 0.17445 0.0
C392 C 0.43436 0.20224 0.16764 0.0
H393 H 0.47378 0.1874 0.10852 0.0
C394 C 0.43088 0.17585 0.18179 0.0
C395 C 0.45086 0.20677 0.14146 0.0
C396 C 0.45664 0.23511 0.12616 0.0
C397 C 0.44204 0.15334 0.16949 0.0
C398 C 0.45734 0.15751 0.14257 0.0
C399 C 0.46192 0.18426 0.12913 0.0
C400 C 0.4664 0.13381 0.12654 0.0
C401 C 0.43607 0.12485 0.1845 0.0
C402 C 0.48759 0.11986 0.13766 0.0
C403 C 0.49591 0.09767 0.12182 0.0
C404 C 0.48318 0.08918 0.09461 0.0
C405 C 0.46189 0.10325 0.08374 0.0
C406 C 0.45368 0.12533 0.09949 0.0
H407 H 0.42024 0.12406 0.20277 0.0
H408 H 0.4278 0.10791 0.16847 0.0
H409 H 0.45637 0.12027 0.19364 0.0
H410 H 0.4979 0.12635 0.15837 0.0
H411 H 0.51248 0.08742 0.13074 0.0
H412 H 0.13089 0.77445 0.68196 0.0
H413 H 0.10313 0.80503 0.65595 0.0
H414 H 0.13892 0.87485 0.71201 0.0
H415 H 0.16726 0.84505 0.73731 0.0
H416 H 0.06245 0.84032 0.67799 0.0
H417 H 0.16156 0.90182 0.62671 0.0
H418 H 0.16042 0.86759 0.64344 0.0
H419 H 0.16292 0.89863 0.666 0.0
C420 C 0.13276 0.7963 0.68876 0.0
C421 C 0.15129 0.80727 0.71173 0.0
C422 C 0.11676 0.81364 0.67404 0.0
C423 C 0.11923 0.8422 0.68197 0.0
C424 C 0.1369 0.8529 0.70548 0.0
H425 H 0.02393 0.97178 0.62763 0.0
H426 H 0.04275 0.9356 0.65545 0.0
C427 C 0.15287 0.8357 0.7201 0.0
C428 C 0.10478 0.86146 0.66476 0.0
H429 H 0.11884 0.92013 0.62117 0.0
C430 C 0.07467 0.85771 0.66542 0.0
C431 C 0.12087 0.88392 0.64823 0.0
C432 C 0.15322 0.88818 0.64575 0.0
C433 C 0.06021 0.87628 0.65027 0.0
C434 C 0.0764 0.89924 0.63445 0.0
C435 C 0.10648 0.90264 0.63352 0.0
C436 C 0.06284 0.9196 0.61773 0.0
C437 C 0.02779 0.87098 0.65095 0.0
C438 C 0.0681 0.92272 0.58745 0.0
C439 C 0.05775 0.94346 0.57167 0.0
C440 C 0.04188 0.96163 0.58583 0.0
C441 C 0.03604 0.9581 0.61609 0.0
C442 C 0.04659 0.93732 0.63197 0.0
H443 H 0.01857 0.84904 0.65805 0.0
H444 H 0.0205 0.8858 0.66674 0.0
H445 H 0.01912 0.87471 0.62898 0.0
H446 H 0.08062 0.9093 0.57606 0.0
H447 H 0.06248 0.94538 0.54835 0.0
H448 H 0.71571 0.43629 0.88053 0.0
H449 H 0.76059 0.45869 0.90426 0.0
H450 H 0.78418 0.37696 0.91472 0.0
H451 H 0.74006 0.3546 0.89021 0.0
H452 H 0.77978 0.45085 0.96022 0.0
H453 H 0.85674 0.4222 0.87854 0.0
H454 H 0.81892 0.41907 0.87095 0.0
H455 H 0.83161 0.39211 0.89174 0.0
C456 C 0.73068 0.42312 0.88741 0.0
C457 C 0.72413 0.39357 0.88335 0.0
C458 C 0.75627 0.43595 0.90121 0.0
C459 C 0.77608 0.41962 0.91101 0.0
C460 C 0.76962 0.39017 0.90691 0.0
H461 H 0.93652 0.44603 1.00725 0.0
H462 H 0.89163 0.42749 0.98177 0.0
C463 C 0.74411 0.37734 0.89316 0.0
C464 C 0.80302 0.4331 0.92637 0.0
H465 H 0.87621 0.43921 0.92477 0.0
C466 C 0.80088 0.44852 0.95231 0.0
C467 C 0.83065 0.43013 0.91615 0.0
C468 C 0.83472 0.41523 0.88767 0.0
C469 C 0.8254 0.46021 0.9687 0.0
C470 C 0.85297 0.4568 0.95872 0.0
C471 C 0.85513 0.44172 0.93258 0.0
C472 C 0.87984 0.46836 0.97516 0.0
C473 C 0.82148 0.47536 0.99706 0.0
C474 C 0.88839 0.49759 0.97996 0.0
C475 C 0.91413 0.50831 0.99461 0.0
C476 C 0.93204 0.49005 1.00471 0.0
C477 C 0.92332 0.46077 0.99995 0.0
C478 C 0.89763 0.4501 0.98527 0.0
H479 H 0.79898 0.47006 1.00534 0.0
H480 H 0.83604 0.46999 1.01431 0.0
H481 H 0.82677 0.49855 0.99327 0.0
H482 H 0.87541 0.51222 0.97191 0.0
H483 H 0.92015 0.53098 0.99764 0.0
H484 H 0.81973 0.67156 0.43321 0.0
H485 H 0.77532 0.65049 0.45884 0.0
H486 H 0.73869 0.61659 0.37701 0.0
H487 H 0.7827 0.63836 0.35089 0.0
H488 H 0.71703 0.66067 0.44514 0.0
H489 H 0.72754 0.54777 0.43599 0.0
H490 H 0.75792 0.57653 0.43221 0.0
H491 H 0.73286 0.56828 0.40267 0.0
C492 C 0.8022 0.65984 0.42051 0.0
C493 C 0.80492 0.65686 0.38983 0.0
C494 C 0.77687 0.64765 0.4353 0.0
C495 C 0.75376 0.63182 0.4199 0.0
C496 C 0.75641 0.62842 0.3894 0.0
H497 H 0.58421 0.53945 0.46437 0.0
H498 H 0.63014 0.56014 0.4418 0.0
C499 C 0.78168 0.6408 0.37451 0.0
C500 C 0.72661 0.61961 0.43564 0.0
H501 H 0.68392 0.55705 0.45568 0.0
C502 C 0.7098 0.63802 0.4476 0.0
C503 C 0.71722 0.59008 0.43873 0.0
C504 C 0.73484 0.56939 0.42695 0.0
C505 C 0.68345 0.6277 0.46189 0.0
C506 C 0.67401 0.5981 0.4651 0.0
C507 C 0.69107 0.57972 0.45334 0.0
C508 C 0.64604 0.58565 0.47948 0.0
C509 C 0.66553 0.64865 0.47245 0.0
C510 C 0.63956 0.59274 0.50846 0.0
C511 C 0.61298 0.58109 0.52145 0.0
C512 C 0.59248 0.56176 0.50587 0.0
C513 C 0.59934 0.5543 0.4771 0.0
C514 C 0.62572 0.5661 0.4641 0.0
H515 H 0.6717 0.66941 0.46117 0.0
H516 H 0.64229 0.64058 0.46877 0.0
H517 H 0.66893 0.65226 0.49635 0.0
H518 H 0.65512 0.60717 0.52114 0.0
H519 H 0.60859 0.58712 0.54372 0.0
H520 H 0.31256 0.35858 0.22972 0.0
H521 H 0.27693 0.38038 0.20432 0.0
H522 H 0.28025 0.32514 0.13019 0.0
H523 H 0.31483 0.30229 0.15599 0.0
H524 H 0.27127 0.40682 0.15099 0.0
H525 H 0.19737 0.30255 0.15861 0.0
H526 H 0.23134 0.30986 0.17738 0.0
H527 H 0.23015 0.30212 0.13869 0.0
C528 C 0.30601 0.35134 0.20783 0.0
C529 C 0.31608 0.3283 0.19516 0.0
C530 C 0.28576 0.36392 0.19328 0.0
C531 C 0.27536 0.35381 0.16575 0.0
C532 C 0.28751 0.33278 0.15176 0.0
H533 H 0.12299 0.38394 0.07288 0.0
H534 H 0.1689 0.37028 0.08487 0.0
C535 C 0.30759 0.31999 0.1664 0.0
C536 C 0.24987 0.36324 0.15331 0.0
H537 H 0.17925 0.33966 0.13649 0.0
C538 C 0.2512 0.39214 0.14762 0.0
C539 C 0.22361 0.34403 0.1492 0.0
C540 C 0.22031 0.31295 0.15651 0.0
C541 C 0.22692 0.40235 0.13797 0.0
C542 C 0.20067 0.38317 0.13422 0.0
C543 C 0.19949 0.35424 0.1393 0.0
C544 C 0.17376 0.3927 0.1263 0.0
C545 C 0.22946 0.43355 0.13189 0.0
C546 C 0.16119 0.4095 0.14583 0.0
C547 C 0.13494 0.4172 0.13913 0.0
C548 C 0.12081 0.40822 0.11275 0.0
C549 C 0.13351 0.39139 0.09323 0.0
C550 C 0.15967 0.38355 0.10005 0.0
H551 H 0.25222 0.4442 0.12881 0.0
H552 H 0.21715 0.43708 0.11199 0.0
H553 H 0.22041 0.44365 0.1508 0.0
H554 H 0.1715 0.41634 0.16646 0.0
H555 H 0.12582 0.4304 0.15446 0.0
H556 H 0.62509 0.29273 0.84188 0.0
H557 H 0.60114 0.248 0.86407 0.0
H558 H 0.62641 0.28067 0.9501 0.0
H559 H 0.64899 0.32572 0.92838 0.0
H560 H 0.62279 0.20974 0.89535 0.0
H561 H 0.54318 0.24987 0.96519 0.0
H562 H 0.56364 0.27123 0.93696 0.0
H563 H 0.57911 0.26785 0.97255 0.0
C564 C 0.62506 0.29064 0.86558 0.0
C565 C 0.63908 0.31305 0.88323 0.0
C566 C 0.61153 0.26489 0.87825 0.0
C567 C 0.61149 0.26092 0.90889 0.0
C568 C 0.62545 0.28324 0.92651 0.0
H569 H 0.56794 0.12264 1.03243 0.0
H570 H 0.58603 0.16674 1.00606 0.0
C571 C 0.63881 0.30898 0.91392 0.0
C572 C 0.59796 0.23317 0.92241 0.0
H573 H 0.55127 0.20333 0.97648 0.0
C574 C 0.60689 0.20834 0.91283 0.0
C575 C 0.57709 0.23112 0.94525 0.0
C576 C 0.56497 0.2564 0.95537 0.0
C577 C 0.59634 0.1819 0.92607 0.0
C578 C 0.57618 0.18008 0.94944 0.0
C579 C 0.56687 0.20474 0.9587 0.0
C580 C 0.5651 0.15292 0.96511 0.0
C581 C 0.60748 0.15618 0.9156 0.0
C582 C 0.54707 0.13041 0.95098 0.0
C583 C 0.53647 0.1051 0.96609 0.0
C584 C 0.5438 0.10168 0.99565 0.0
C585 C 0.56191 0.12433 1.00967 0.0
C586 C 0.57225 0.14966 0.99464 0.0
H587 H 0.62648 0.16187 0.90084 0.0
H588 H 0.61345 0.14404 0.93459 0.0
H589 H 0.5903 0.14211 0.90334 0.0
H590 H 0.54097 0.13252 0.92831 0.0
H591 H 0.52255 0.08821 0.95458 0.0
H592 H 0.92833 0.73263 0.37579 0.0
H593 H 0.95122 0.77884 0.39532 0.0
H594 H 0.86826 0.80292 0.40341 0.0
H595 H 0.84535 0.7572 0.3832 0.0
H596 H 0.91054 0.84625 0.38082 0.0
H597 H 0.94767 0.80044 0.48236 0.0
H598 H 0.95928 0.78662 0.44858 0.0
H599 H 0.9217 0.78023 0.45801 0.0
C600 C 0.91499 0.7479 0.38136 0.0
C601 C 0.88493 0.74102 0.37817 0.0
C602 C 0.92809 0.77422 0.39282 0.0
C603 C 0.91142 0.79421 0.40136 0.0
C604 C 0.88156 0.78779 0.39721 0.0
H605 H 0.9494 0.93438 0.52207 0.0
H606 H 0.93114 0.89072 0.49551 0.0
C607 C 0.86847 0.76153 0.38583 0.0
C608 C 0.92481 0.82158 0.41522 0.0
H609 H 0.96125 0.84985 0.47614 0.0
C610 C 0.92177 0.84706 0.40159 0.0
C611 C 0.93914 0.82265 0.44252 0.0
C612 C 0.942 0.79607 0.45894 0.0
C613 C 0.9326 0.87349 0.4145 0.0
C614 C 0.94717 0.87455 0.44165 0.0
C615 C 0.95027 0.84907 0.45523 0.0
C616 C 0.95815 0.90173 0.45714 0.0
C617 C 0.92756 0.90004 0.39941 0.0
C618 C 0.97955 0.9226 0.44449 0.0
C619 C 0.9901 0.94778 0.45968 0.0
C620 C 0.97955 0.95256 0.4879 0.0
C621 C 0.95806 0.93159 0.50039 0.0
C622 C 0.94759 0.90649 0.48524 0.0
H623 H 0.91055 0.89541 0.38246 0.0
H624 H 0.9213 0.91514 0.41559 0.0
H625 H 0.94774 0.91052 0.3884 0.0
H626 H 0.98842 0.91924 0.42306 0.0
H627 H 1.00675 0.96332 0.44942 0.0
H628 H 0.22708 0.71253 0.7359 0.0
H629 H 0.26309 0.69172 0.70941 0.0
H630 H 0.26413 0.75248 0.63955 0.0
H631 H 0.22923 0.77439 0.66662 0.0
H632 H 0.26569 0.66768 0.65541 0.0
H633 H 0.34765 0.76655 0.66362 0.0
H634 H 0.31401 0.7616 0.68353 0.0
H635 H 0.31529 0.77047 0.64509 0.0
C636 C 0.23496 0.72149 0.71489 0.0
C637 C 0.22555 0.74539 0.70361 0.0
C638 C 0.2554 0.70944 0.69968 0.0
C639 C 0.26677 0.72095 0.67283 0.0
C640 C 0.25614 0.74369 0.66058 0.0
H641 H 0.41019 0.67416 0.57218 0.0
H642 H 0.36701 0.6932 0.58504 0.0
C643 C 0.23585 0.75593 0.67592 0.0
C644 C 0.29068 0.70986 0.65859 0.0
H645 H 0.36165 0.72802 0.63929 0.0
C646 C 0.2866 0.68092 0.65169 0.0
C647 C 0.31803 0.72717 0.65384 0.0
C648 C 0.3242 0.75811 0.66212 0.0
C649 C 0.30924 0.66876 0.64062 0.0
C650 C 0.3366 0.68596 0.63647 0.0
C651 C 0.34052 0.71501 0.64243 0.0
C652 C 0.36198 0.67382 0.62812 0.0
C653 C 0.30392 0.63754 0.63379 0.0
C654 C 0.37346 0.65695 0.64824 0.0
C655 C 0.39812 0.64632 0.6411 0.0
C656 C 0.41169 0.65229 0.61364 0.0
C657 C 0.40005 0.6691 0.59342 0.0
C658 C 0.37549 0.67999 0.60073 0.0
H659 H 0.2806 0.62855 0.63206 0.0
H660 H 0.31478 0.63352 0.61291 0.0
H661 H 0.31296 0.62622 0.65164 0.0
H662 H 0.36346 0.65225 0.66962 0.0
H663 H 0.40642 0.63318 0.65698 0.0
H664 H 0.71016 0.83489 0.80123 0.0
H665 H 0.73489 0.84978 0.75535 0.0
H666 H 0.75253 0.76581 0.74248 0.0
H667 H 0.72726 0.75047 0.78859 0.0
H668 H 0.80085 0.80605 0.74163 0.0
H669 H 0.72135 0.83934 0.66805 0.0
H670 H 0.71917 0.85423 0.70394 0.0
H671 H 0.71093 0.81636 0.69925 0.0
C672 C 0.71823 0.8192 0.78816 0.0
C673 C 0.71673 0.79146 0.79864 0.0
C674 C 0.73239 0.82778 0.76182 0.0
C675 C 0.74524 0.80882 0.74527 0.0
C676 C 0.74257 0.78071 0.75484 0.0
H677 H 0.85034 0.89727 0.6005 0.0
H678 H 0.81737 0.85845 0.62486 0.0
C679 C 0.72829 0.77205 0.78124 0.0
C680 C 0.76504 0.81984 0.72087 0.0
H681 H 0.77097 0.86482 0.66229 0.0
C682 C 0.79419 0.81823 0.72376 0.0
C683 C 0.75637 0.83537 0.69729 0.0
C684 C 0.72517 0.83615 0.69178 0.0
C685 C 0.81517 0.8339 0.70536 0.0
C686 C 0.80675 0.85185 0.68387 0.0
C687 C 0.77741 0.85139 0.67915 0.0
C688 C 0.82799 0.87378 0.66887 0.0
C689 C 0.8463 0.8321 0.70995 0.0
C690 C 0.84466 0.8952 0.68559 0.0
C691 C 0.8633 0.9173 0.67184 0.0
C692 C 0.86558 0.91844 0.64105 0.0
C693 C 0.84917 0.89674 0.62429 0.0
C694 C 0.83032 0.87466 0.63811 0.0
H695 H 0.84841 0.81143 0.71973 0.0
H696 H 0.85861 0.83502 0.68895 0.0
H697 H 0.85606 0.849 0.7254 0.0
H698 H 0.84277 0.89518 0.70934 0.0
H699 H 0.87585 0.9336 0.6853 0.0
H700 H 0.82652 0.21593 0.30925 0.0
H701 H 0.7998 0.19271 0.26766 0.0
H702 H 0.78728 0.2735 0.23481 0.0
H703 H 0.81476 0.29727 0.27625 0.0
H704 H 0.73824 0.20714 0.2607 0.0
H705 H 0.80964 0.22088 0.16163 0.0
H706 H 0.82422 0.21856 0.19796 0.0
H707 H 0.81055 0.24941 0.18766 0.0
C708 C 0.81909 0.22897 0.29268 0.0
C709 C 0.82276 0.25849 0.29609 0.0
C710 C 0.80367 0.2156 0.26901 0.0
C711 C 0.79174 0.23146 0.24827 0.0
C712 C 0.79661 0.26102 0.25056 0.0
H713 H 0.66452 0.15739 0.11624 0.0
H714 H 0.69888 0.19241 0.14365 0.0
C715 C 0.8121 0.27449 0.2743 0.0
C716 C 0.77086 0.21655 0.22708 0.0
H717 H 0.76367 0.19195 0.15663 0.0
C718 C 0.74363 0.20409 0.23784 0.0
C719 C 0.77806 0.21291 0.19735 0.0
C720 C 0.80719 0.22606 0.1852 0.0
C721 C 0.72361 0.18715 0.21982 0.0
C722 C 0.73125 0.18232 0.19045 0.0
C723 C 0.75804 0.19575 0.17924 0.0
C724 C 0.71237 0.16147 0.17216 0.0
C725 C 0.69467 0.17392 0.23249 0.0
C726 C 0.70903 0.13265 0.17902 0.0
C727 C 0.68943 0.11276 0.16369 0.0
C728 C 0.67285 0.12131 0.1411 0.0
C729 C 0.67676 0.15022 0.13377 0.0
C730 C 0.6965 0.17018 0.14917 0.0
H731 H 0.68977 0.18459 0.25307 0.0
H732 H 0.67733 0.17476 0.21639 0.0
H733 H 0.69458 0.15134 0.23762 0.0
H734 H 0.72117 0.12563 0.19675 0.0
H735 H 0.6867 0.09073 0.17013 0.0
H736 H 0.42009 0.66803 0.25597 0.0
H737 H 0.43946 0.6452 0.2974 0.0
H738 H 0.35532 0.62828 0.33791 0.0
H739 H 0.33574 0.65002 0.29594 0.0
H740 H 0.44545 0.65601 0.35242 0.0
H741 H 0.37346 0.55174 0.34506 0.0
H742 H 0.37462 0.57837 0.31701 0.0
H743 H 0.3534 0.57953 0.34993 0.0
C744 C 0.40571 0.65937 0.27369 0.0
C745 C 0.37629 0.66066 0.27246 0.0
C746 C 0.4168 0.64625 0.29743 0.0
C747 C 0.39886 0.63425 0.32076 0.0
C748 C 0.36959 0.6363 0.31989 0.0
H749 H 0.46794 0.59858 0.49226 0.0
H750 H 0.44701 0.61916 0.45053 0.0
C751 C 0.35839 0.64897 0.29592 0.0
C752 C 0.41097 0.62042 0.3462 0.0
H753 H 0.40071 0.56081 0.38913 0.0
C754 C 0.43569 0.6351 0.36026 0.0
C755 C 0.39879 0.59285 0.3564 0.0
C756 C 0.37381 0.5746 0.3411 0.0
C757 C 0.4482 0.62337 0.38419 0.0
C758 C 0.43509 0.59647 0.39542 0.0
C759 C 0.41065 0.58157 0.38105 0.0
C760 C 0.44658 0.58326 0.42164 0.0
C761 C 0.47588 0.63975 0.39653 0.0
C762 C 0.45198 0.55546 0.42031 0.0
C763 C 0.4633 0.54328 0.44459 0.0
C764 C 0.46974 0.55867 0.4708 0.0
C765 C 0.46368 0.5862 0.47234 0.0
C766 C 0.45191 0.59816 0.44827 0.0
H767 H 0.48782 0.65444 0.37992 0.0
H768 H 0.47089 0.6527 0.41539 0.0
H769 H 0.49014 0.6254 0.40422 0.0
H770 H 0.44793 0.54328 0.40025 0.0
H771 H 0.46769 0.52205 0.44255 0.0
H772 H 0.18893 0.40027 0.79396 0.0
H773 H 0.16971 0.42175 0.83662 0.0
H774 H 0.08359 0.39403 0.80461 0.0
H775 H 0.10263 0.37268 0.76174 0.0
H776 H 0.13776 0.46405 0.83903 0.0
H777 H 0.07642 0.3659 0.88929 0.0
H778 H 0.10287 0.36543 0.86059 0.0
H779 H 0.06735 0.3708 0.85164 0.0
C780 C 0.16589 0.39879 0.79587 0.0
C781 C 0.14738 0.38462 0.77427 0.0
C782 C 0.15491 0.41101 0.82041 0.0
C783 C 0.12514 0.40924 0.82416 0.0
C784 C 0.10659 0.39517 0.80266 0.0
H785 H 0.03925 0.51467 0.93739 0.0
H786 H 0.06031 0.49262 0.89631 0.0
C787 C 0.11755 0.38293 0.77809 0.0
C788 C 0.11365 0.42282 0.85008 0.0
H789 H 0.0684 0.4094 0.90951 0.0
C790 C 0.12266 0.45206 0.85448 0.0
C791 C 0.09421 0.4072 0.87055 0.0
C792 C 0.08482 0.37555 0.86803 0.0
C793 C 0.1124 0.46613 0.87833 0.0
C794 C 0.09222 0.45068 0.89823 0.0
C795 C 0.08364 0.42135 0.89417 0.0
C796 C 0.07978 0.46451 0.92339 0.0
C797 C 0.12365 0.49738 0.88225 0.0
C798 C 0.0832 0.45581 0.95242 0.0
C799 C 0.07107 0.46835 0.97606 0.0
C800 C 0.055 0.48977 0.97123 0.0
C801 C 0.05162 0.49842 0.94209 0.0
C802 C 0.06378 0.48589 0.91849 0.0
H803 H 0.14434 0.50434 0.87034 0.0
H804 H 0.10781 0.50943 0.8733 0.0
H805 H 0.12685 0.50285 0.90586 0.0
H806 H 0.09534 0.4393 0.95683 0.0
H807 H 0.07415 0.46107 0.9981 0.0
H808 H 0.67079 0.84652 0.85794 0.0
H809 H 0.63872 0.87443 0.8808 0.0
H810 H 0.6041 0.80421 0.93739 0.0
H811 H 0.63627 0.77581 0.91434 0.0
H812 H 0.57849 0.86515 0.88639 0.0
H813 H 0.63324 0.86944 0.99466 0.0
H814 H 0.64868 0.85755 0.96165 0.0
H815 H 0.61969 0.83474 0.98024 0.0
C816 C 0.656 0.83672 0.87484 0.0
C817 C 0.65598 0.80885 0.88423 0.0
C818 C 0.63776 0.85279 0.88798 0.0
C819 C 0.61922 0.84146 0.9109 0.0
C820 C 0.61856 0.81344 0.91996 0.0
H821 H 0.497 0.94092 0.98519 0.0
H822 H 0.51626 0.90248 0.96167 0.0
C823 C 0.63692 0.79728 0.90681 0.0
C824 C 0.6017 0.85977 0.92586 0.0
H825 H 0.59589 0.89506 0.99006 0.0
C826 C 0.58197 0.87146 0.90917 0.0
C827 C 0.6066 0.86813 0.95547 0.0
C828 C 0.62833 0.85705 0.9741 0.0
C829 C 0.56757 0.89192 0.92109 0.0
C830 C 0.57283 0.90057 0.95055 0.0
C831 C 0.59189 0.88826 0.96749 0.0
C832 C 0.56064 0.92397 0.96363 0.0
C833 C 0.54791 0.90507 0.90172 0.0
C834 C 0.57923 0.94867 0.97258 0.0
C835 C 0.56838 0.97054 0.98607 0.0
C836 C 0.53867 0.96813 0.99098 0.0
C837 C 0.51998 0.94352 0.98156 0.0
C838 C 0.53092 0.92155 0.96807 0.0
H839 H 0.55035 0.89987 0.87814 0.0
H840 H 0.52525 0.89704 0.90836 0.0
H841 H 0.55221 0.92844 0.90424 0.0
H842 H 0.60224 0.95093 0.9693 0.0
H843 H 0.58339 0.98917 0.99303 0.0
H844 H 0.8593 0.24925 0.4231 0.0
H845 H 0.88906 0.21922 0.44616 0.0
H846 H 0.94551 0.22926 0.37053 0.0
H847 H 0.91601 0.25973 0.34739 0.0
H848 H 0.92279 0.1729 0.38502 0.0
H849 H 0.96962 0.23265 0.48291 0.0
H850 H 0.93153 0.23066 0.47947 0.0
H851 H 0.95547 0.24941 0.45223 0.0
C852 C 0.87859 0.24591 0.41177 0.0
C853 C 0.88526 0.25684 0.38336 0.0
C854 C 0.89556 0.22867 0.42498 0.0
C855 C 0.91957 0.22217 0.41012 0.0
C856 C 0.92708 0.23409 0.38237 0.0
H857 H 0.03006 0.11246 0.48273 0.0
H858 H 0.01316 0.15161 0.45836 0.0
C859 C 0.91017 0.2514 0.36916 0.0
C860 C 0.93472 0.20042 0.42206 0.0
H861 H 0.97039 0.18297 0.48224 0.0
C862 C 0.93353 0.17524 0.40611 0.0
C863 C 0.94881 0.2036 0.44948 0.0
C864 C 0.95172 0.23064 0.46693 0.0
C865 C 0.94512 0.15271 0.41737 0.0
C866 C 0.95802 0.1554 0.44537 0.0
C867 C 0.96024 0.18095 0.46085 0.0
C868 C 0.96833 0.13148 0.4594 0.0
C869 C 0.94325 0.12606 0.39939 0.0
C870 C 0.94864 0.1073 0.46806 0.0
C871 C 0.95815 0.08495 0.48206 0.0
C872 C 0.98757 0.08638 0.4876 0.0
C873 C 1.00727 0.11059 0.47864 0.0
C874 C 0.99769 0.13303 0.46481 0.0
H875 H 0.9389 0.12972 0.37587 0.0
H876 H 0.96349 0.11762 0.40091 0.0
H877 H 0.92547 0.1097 0.40806 0.0
H878 H 0.92585 0.1059 0.46434 0.0
H879 H 0.9424 0.06667 0.48873 0.0
H880 H 0.31915 0.66352 0.14915 0.0
H881 H 0.27514 0.64119 0.12401 0.0
H882 H 0.23247 0.62272 0.20766 0.0
H883 H 0.27651 0.64517 0.23304 0.0
H884 H 0.24155 0.58326 0.1314 0.0
H885 H 0.18029 0.66797 0.15901 0.0
H886 H 0.21905 0.67346 0.16066 0.0
H887 H 0.19763 0.65374 0.18905 0.0
C888 C 0.3004 0.65475 0.16224 0.0
C889 C 0.30133 0.65633 0.19315 0.0
C890 C 0.27528 0.64188 0.14782 0.0
C891 C 0.25038 0.63056 0.1639 0.0
C892 C 0.25133 0.63158 0.19477 0.0
H893 H 0.09237 0.5223 0.10618 0.0
H894 H 0.13762 0.54298 0.12979 0.0
C895 C 0.27658 0.64423 0.20926 0.0
C896 C 0.22344 0.61794 0.14827 0.0
H897 H 0.15522 0.62798 0.1338 0.0
C898 C 0.22266 0.59301 0.13195 0.0
C899 C 0.1989 0.63084 0.14868 0.0
C900 C 0.19886 0.6581 0.16508 0.0
C901 C 0.19788 0.58042 0.11647 0.0
C902 C 0.17318 0.59306 0.11729 0.0
C903 C 0.17411 0.61824 0.13323 0.0
C904 C 0.146 0.58021 0.10216 0.0
C905 C 0.19839 0.55381 0.09905 0.0
C906 C 0.13541 0.59432 0.07881 0.0
C907 C 0.10947 0.58245 0.06506 0.0
C908 C 0.09335 0.55641 0.07471 0.0
C909 C 0.10411 0.54238 0.09811 0.0
C910 C 0.13011 0.55411 0.11161 0.0
H911 H 0.22066 0.55027 0.09531 0.0
H912 H 0.18633 0.53536 0.11133 0.0
H913 H 0.18785 0.55472 0.07744 0.0
H914 H 0.14724 0.61454 0.0712 0.0
H915 H 0.10181 0.59393 0.04725 0.0
H916 H 0.21264 0.43288 0.69793 0.0
H917 H 0.25632 0.45688 0.6725 0.0
H918 H 0.28298 0.37675 0.66001 0.0
H919 H 0.23978 0.3527 0.68565 0.0
H920 H 0.31524 0.45773 0.68527 0.0
H921 H 0.28592 0.40949 0.57634 0.0
H922 H 0.26009 0.40883 0.60586 0.0
H923 H 0.28441 0.38424 0.60563 0.0
C924 C 0.22791 0.42038 0.69 0.0
C925 C 0.22246 0.39077 0.69362 0.0
C926 C 0.25281 0.43413 0.67533 0.0
C927 C 0.27267 0.41856 0.66382 0.0
C928 C 0.26764 0.38914 0.66803 0.0
H929 H 0.43509 0.4498 0.57048 0.0
H930 H 0.38974 0.43038 0.59527 0.0
C931 C 0.24286 0.37541 0.6827 0.0
C932 C 0.29882 0.43294 0.64764 0.0
H933 H 0.33406 0.43415 0.58164 0.0
C934 C 0.31927 0.4528 0.66253 0.0
C935 C 0.30407 0.42648 0.61796 0.0
C936 C 0.28237 0.4063 0.60037 0.0
C937 C 0.34524 0.46561 0.64889 0.0
C938 C 0.35068 0.45883 0.61931 0.0
C939 C 0.32998 0.43932 0.6043 0.0
C940 C 0.37804 0.47103 0.60378 0.0
C941 C 0.36706 0.48553 0.66662 0.0
C942 C 0.38643 0.50039 0.59975 0.0
C943 C 0.41247 0.51163 0.58558 0.0
C944 C 0.4306 0.49372 0.5749 0.0
C945 C 0.42177 0.46428 0.5784 0.0
C946 C 0.39579 0.4531 0.5926 0.0
H947 H 0.36289 0.48294 0.69062 0.0
H948 H 0.3892 0.48211 0.66188 0.0
H949 H 0.36596 0.50768 0.6607 0.0
H950 H 0.37283 0.51465 0.60754 0.0
H951 H 0.41844 0.53438 0.58319 0.0
H952 H 0.77432 0.78028 0.87957 0.0
H953 H 0.80698 0.75775 0.9086 0.0
H954 H 0.73455 0.70324 0.94921 0.0
H955 H 0.7015 0.72576 0.91988 0.0
H956 H 0.80906 0.74973 0.97371 0.0
H957 H 0.78529 0.65025 0.90798 0.0
H958 H 0.77725 0.68318 0.89447 0.0
H959 H 0.75564 0.66429 0.9232 0.0
C960 C 0.76533 0.7635 0.8947 0.0
C961 C 0.73542 0.75441 0.89719 0.0
C962 C 0.78398 0.75083 0.9114 0.0
C963 C 0.77313 0.72874 0.93079 0.0
C964 C 0.74326 0.72017 0.93416 0.0
H965 H 0.88327 0.61823 1.00202 0.0
H966 H 0.84084 0.63925 0.99373 0.0
C967 C 0.72448 0.73305 0.91753 0.0
C968 C 0.79348 0.71393 0.94601 0.0
H969 H 0.82309 0.65465 0.94154 0.0
C970 C 0.81189 0.72875 0.96709 0.0
C971 C 0.79697 0.68656 0.93732 0.0
C972 C 0.77791 0.67002 0.91442 0.0
C973 C 0.83438 0.71721 0.9791 0.0
C974 C 0.83894 0.69051 0.96912 0.0
C975 C 0.81963 0.67515 0.94908 0.0
C976 C 0.86477 0.67901 0.97728 0.0
C977 C 0.85319 0.73387 1.00209 0.0
C978 C 0.89235 0.69442 0.97089 0.0
C979 C 0.91667 0.6826 0.9759 0.0
C980 C 0.9139 0.65495 0.98706 0.0
C981 C 0.88625 0.63973 0.99385 0.0
C982 C 0.86193 0.65163 0.98896 0.0
H983 H 0.84136 0.7481 1.01444 0.0
H984 H 0.86126 0.7197 1.01794 0.0
H985 H 0.87192 0.74731 0.99115 0.0
H986 H 0.89505 0.71531 0.96119 0.0
H987 H 0.93764 0.69501 0.97068 0.0
H988 H 0.34053 0.75554 0.19172 0.0
H989 H 0.36256 0.80091 0.17009 0.0
H990 H 0.44672 0.78165 0.18444 0.0
H991 H 0.42474 0.73552 0.20504 0.0
H992 H 0.39881 0.8462 0.19196 0.0
H993 H 0.45188 0.80226 0.09821 0.0
H994 H 0.42541 0.78053 0.12126 0.0
H995 H 0.4619 0.79079 0.13352 0.0
C996 C 0.36374 0.76069 0.18998 0.0
C997 C 0.38077 0.74147 0.19978 0.0
C998 C 0.37635 0.78686 0.17778 0.0
C999 C 0.40634 0.79464 0.17499 0.0
C1000 C 0.42351 0.77596 0.18562 0.0
H1001 H 0.51763 0.94453 0.10119 0.0
H1002 H 0.49797 0.90015 0.12638 0.0
C1003 C 0.41089 0.74966 0.19779 0.0
C1004 C 0.41938 0.82233 0.16107 0.0
H1005 H 0.46233 0.85203 0.10412 0.0
C1006 C 0.41267 0.84742 0.17272 0.0
C1007 C 0.43746 0.8241 0.13588 0.0
C1008 C 0.44442 0.798 0.12127 0.0
C1009 C 0.4237 0.87407 0.16019 0.0
C1010 C 0.44168 0.87581 0.13497 0.0
C1011 C 0.44859 0.85078 0.12345 0.0
C1012 C 0.45345 0.90332 0.12013 0.0
C1013 C 0.41639 0.9002 0.17439 0.0
C1014 C 0.43504 0.91998 0.10792 0.0
C1015 C 0.44624 0.94547 0.09342 0.0
C1016 C 0.47615 0.95491 0.09068 0.0
C1017 C 0.4945 0.93813 0.10292 0.0
C1018 C 0.48329 0.91263 0.11732 0.0
H1019 H 0.40893 0.89615 0.19748 0.0
H1020 H 0.43523 0.91785 0.17416 0.0
H1021 H 0.39881 0.90704 0.16193 0.0
H1022 H 0.41195 0.91305 0.10922 0.0
H1023 H 0.4314 0.95762 0.08413 0.0
H1024 H 0.13986 0.28386 0.73883 0.0
H1025 H 0.1204 0.23767 0.71684 0.0
H1026 H 0.11932 0.27744 0.63199 0.0
H1027 H 0.13971 0.32327 0.6537 0.0
H1028 H 0.07298 0.21564 0.68952 0.0
H1029 H 0.16271 0.21695 0.6109 0.0
H1030 H 0.16403 0.24281 0.6398 0.0
H1031 H 0.14593 0.24702 0.60582 0.0
C1032 C 0.13532 0.28269 0.71552 0.0
C1033 C 0.14159 0.30713 0.69793 0.0
C1034 C 0.12428 0.25627 0.70291 0.0
C1035 C 0.1191 0.25377 0.67251 0.0
C1036 C 0.12409 0.27847 0.65525 0.0
H1037 H 1.00982 0.11235 0.58604 0.0
H1038 H 0.03007 0.15592 0.61179 0.0
C1039 C 0.13552 0.30474 0.66773 0.0
C1040 C 0.1083 0.2255 0.65886 0.0
H1041 H 0.12035 0.18229 0.60218 0.0
C1042 C 0.0835 0.20829 0.67056 0.0
C1043 C 0.12227 0.21539 0.63448 0.0
C1044 C 0.15037 0.23137 0.62224 0.0
C1045 C 0.07188 0.18182 0.65814 0.0
C1046 C 0.0848 0.17256 0.6326 0.0
C1047 C 0.11008 0.18941 0.62144 0.0
C1048 C 0.07241 0.14571 0.61694 0.0
C1049 C 0.04617 0.16389 0.67298 0.0
C1050 C 0.08962 0.12568 0.60999 0.0
C1051 C 0.0782 0.10087 0.59458 0.0
C1052 C 0.04922 0.09542 0.58593 0.0
C1053 C 0.0321 0.11557 0.59276 0.0
C1054 C 0.04362 0.1405 0.60775 0.0
H1055 H 0.04526 0.16902 0.69675 0.0
H1056 H 0.02622 0.16823 0.66279 0.0
H1057 H 0.04652 0.14097 0.67073 0.0
H1058 H 0.11195 0.12919 0.61656 0.0
H1059 H 0.09204 0.0859 0.58961 0.0
H1060 H 0.80645 0.34551 0.34793 0.0
H1061 H 0.7694 0.3676 0.37103 0.0
H1062 H 0.76813 0.31299 0.44638 0.0
H1063 H 0.80466 0.29026 0.42304 0.0
H1064 H 0.71451 0.31153 0.42245 0.0
H1065 H 0.76954 0.42251 0.43949 0.0
H1066 H 0.77324 0.41014 0.40267 0.0
H1067 H 0.7889 0.39412 0.43267 0.0
C1068 C 0.79862 0.33854 0.36964 0.0
C1069 C 0.80845 0.31614 0.38366 0.0
C1070 C 0.77762 0.35133 0.38292 0.0
C1071 C 0.76622 0.34211 0.41054 0.0
C1072 C 0.77681 0.32053 0.42513 0.0
H1073 H 0.6387 0.41913 0.50431 0.0
H1074 H 0.68158 0.40015 0.49113 0.0
C1075 C 0.79784 0.30773 0.41187 0.0
C1076 C 0.7413 0.353 0.42274 0.0
H1077 H 0.71806 0.41362 0.44188 0.0
C1078 C 0.71536 0.33381 0.42703 0.0
C1079 C 0.74252 0.38202 0.42886 0.0
C1080 C 0.77012 0.40337 0.42597 0.0
C1081 C 0.69035 0.343 0.4364 0.0
C1082 C 0.69124 0.37219 0.44119 0.0
C1083 C 0.71739 0.39128 0.43787 0.0
C1084 C 0.66514 0.38338 0.44922 0.0
C1085 C 0.66318 0.32138 0.44109 0.0
C1086 C 0.64183 0.38044 0.42988 0.0
C1087 C 0.61736 0.39137 0.43725 0.0
C1088 C 0.61583 0.4056 0.46406 0.0
C1089 C 0.63931 0.40857 0.48335 0.0
C1090 C 0.66377 0.39764 0.47593 0.0
H1091 H 0.66783 0.29976 0.44412 0.0
H1092 H 0.651 0.32679 0.46056 0.0
H1093 H 0.64927 0.32101 0.42152 0.0
H1094 H 0.64272 0.36999 0.40887 0.0
H1095 H 0.59989 0.38916 0.42169 0.0
loop_
_geom_bond_atom_site_label_1
_geom_bond_atom_site_label_2
_geom_bond_distance
_geom_bond_site_symmetry_2
_ccdc_geom_bond_type
H0 C3 0.931 . S
H1 C6 0.928 . S
H2 C8 0.930 . S
C3 H0 0.931 . S
C3 C4 1.413 . S
C3 C5 1.360 . S
C4 C3 1.413 . S
C4 C8 1.429 . S
C5 C3 1.360 . S
C5 C6 1.372 . S
C6 H1 0.928 . S
C6 C5 1.372 . S
C6 C7 1.404 . S
C7 C6 1.404 . S
C7 C8 1.391 . S
C8 H2 0.930 . S
C8 C4 1.429 . S
C8 C7 1.391 . S
H9 C12 0.931 . S
H10 C15 0.928 . S
H11 C17 0.930 . S
C12 H9 0.931 . S
C12 C13 1.413 . S
C12 C14 1.360 . S
C13 C12 1.413 . S
C13 C17 1.429 . S
C14 C12 1.360 . S
C14 C15 1.372 . S
C15 H10 0.928 . S
C15 C14 1.372 . S
C15 C16 1.404 . S
C16 C15 1.404 . S
C16 C17 1.391 . S
C17 H11 0.930 . S
C17 C13 1.429 . S
C17 C16 1.391 . S
H18 C21 0.931 . S
H19 C24 0.928 . S
H20 C26 0.930 . S
C21 H18 0.931 . S
C21 C22 1.413 . S
C21 C23 1.360 . S
C22 C21 1.413 . S
C22 C26 1.429 . S
C23 C21 1.360 . S
C23 C24 1.372 . S
C24 H19 0.928 . S
C24 C23 1.372 . S
C24 C25 1.404 . S
C25 C24 1.404 . S
C25 C26 1.391 . S
C26 H20 0.930 . S
C26 C22 1.429 . S
C26 C25 1.391 . S
H27 C30 0.931 . S
H28 C33 0.928 . S
H29 C35 0.930 . S
C30 H27 0.931 . S
C30 C31 1.413 . S
C30 C32 1.360 . S
C31 C30 1.413 . S
C31 C35 1.429 . S
C32 C30 1.360 . S
C32 C33 1.372 . S
C33 H28 0.928 . S
C33 C32 1.372 . S
C33 C34 1.404 . S
C34 C33 1.404 . S
C34 C35 1.391 . S
C35 H29 0.930 . S
C35 C31 1.429 . S
C35 C34 1.391 . S
H36 C39 0.931 . S
H37 C42 0.928 . S
H38 C44 0.930 . S
C39 H36 0.931 . S
C39 C40 1.413 . S
C39 C41 1.360 . S
C40 C39 1.413 . S
C40 C44 1.429 . S
C41 C39 1.360 . S
C41 C42 1.372 . S
C42 H37 0.928 . S
C42 C41 1.372 . S
C42 C43 1.404 . S
C43 C42 1.404 . S
C43 C44 1.391 . S
C44 H38 0.930 . S
C44 C40 1.429 . S
C44 C43 1.391 . S
H45 C48 0.931 . S
H46 C51 0.928 . S
H47 C53 0.930 . S
C48 H45 0.931 . S
C48 C49 1.413 . S
C48 C50 1.360 . S
C49 C48 1.413 . S
C49 C53 1.429 . S
C50 C48 1.360 . S
C50 C51 1.372 . S
C51 H46 0.928 . S
C51 C50 1.372 . S
C51 C52 1.404 . S
C52 C51 1.404 . S
C52 C53 1.391 . S
C53 H47 0.930 . S
C53 C49 1.429 . S
C53 C52 1.391 . S
H54 C57 0.931 . S
H55 C60 0.928 . S
H56 C62 0.930 . S
C57 H54 0.931 . S
C57 C58 1.413 . S
C57 C59 1.360 . S
C58 C57 1.413 . S
C58 C62 1.429 . S
C59 C57 1.360 . S
C59 C60 1.372 . S
C60 H55 0.928 . S
C60 C59 1.372 . S
C60 C61 1.404 . S
C61 C60 1.404 . S
C61 C62 1.391 . S
C62 H56 0.930 . S
C62 C58 1.429 . S
C62 C61 1.391 . S
H63 C66 0.931 . S
H64 C69 0.928 . S
H65 C71 0.930 . S
C66 H63 0.931 . S
C66 C67 1.413 . S
C66 C68 1.360 . S
C67 C66 1.413 . S
C67 C71 1.429 . S
C68 C66 1.360 . S
C68 C69 1.372 . S
C69 H64 0.928 . S
C69 C68 1.372 . S
C69 C70 1.404 . S
C70 C69 1.404 . S
C70 C71 1.391 . S
C71 H65 0.930 . S
C71 C67 1.429 . S
C71 C70 1.391 . S
Tb72 C81 2.764 . S
Tb72 O82 2.325 1_455 S
Tb72 O85 2.303 . S
Tb72 O89 2.322 1_545 S
Tb72 O90 2.349 1_545 S
Tb72 O93 2.415 . S
Tb72 O94 2.399 . S
Tb73 O83 2.322 . S
Tb73 O84 2.349 . S
Tb73 O86 2.415 1_545 S
Tb73 O87 2.399 1_545 S
Tb73 O88 2.325 1_645 S
Tb73 O91 2.303 1_545 S
Tb73 C102 2.764 1_545 S
C74 O90 1.261 1_655 S
C74 O91 1.257 . S
C75 C78 1.358 . S
C75 C79 1.332 . S
C75 C81 1.504 . S
C76 C77 1.373 . S
C76 C80 1.308 . S
C77 C76 1.373 . S
C77 C78 1.429 . S
C77 H104 0.932 . S
C78 C75 1.358 . S
C78 C77 1.429 . S
C78 H105 0.930 . S
C79 C75 1.332 . S
C79 C80 1.394 . S
C79 H106 0.932 . S
C80 C76 1.308 . S
C80 C79 1.394 . S
C80 H107 0.929 . S
C81 Tb72 2.764 . S
C81 C75 1.504 . S
C81 O93 1.239 . S
C81 O94 1.263 . S
O82 Tb72 2.325 1_655 S
O82 C92 1.236 . S
O83 Tb73 2.322 . S
O83 C92 1.257 . S
O84 Tb73 2.349 . S
O84 C95 1.261 1_655 S
O85 Tb72 2.303 . S
O85 C95 1.257 . S
O86 Tb73 2.415 1_565 S
O86 C102 1.239 . S
O87 Tb73 2.399 1_565 S
O87 C102 1.263 . S
O88 Tb73 2.325 1_465 S
O88 C103 1.236 . S
O89 Tb72 2.322 1_565 S
O89 C103 1.257 . S
O90 Tb72 2.349 1_565 S
O90 C74 1.261 1_455 S
O91 Tb73 2.303 1_565 S
O91 C74 1.257 . S
C92 O82 1.236 . S
C92 O83 1.257 . S
O93 Tb72 2.415 . S
O93 C81 1.239 . S
O94 Tb72 2.399 . S
O94 C81 1.263 . S
C95 O84 1.261 1_455 S
C95 O85 1.257 . S
C96 C99 1.358 . S
C96 C100 1.332 . S
C96 C102 1.504 . S
C97 C98 1.373 . S
C97 C101 1.308 . S
C98 C97 1.373 . S
C98 C99 1.429 . S
C98 H108 0.932 . S
C99 C96 1.358 . S
C99 C98 1.429 . S
C99 H109 0.930 . S
C100 C96 1.332 . S
C100 C101 1.394 . S
C100 H110 0.932 . S
C101 C97 1.308 . S
C101 C100 1.394 . S
C101 H111 0.929 . S
C102 Tb73 2.764 1_565 S
C102 O86 1.239 . S
C102 O87 1.263 . S
C102 C96 1.504 . S
C103 O88 1.236 . S
C103 O89 1.257 . S
H104 C77 0.932 . S
H105 C78 0.930 . S
H106 C79 0.932 . S
H107 C80 0.929 . S
H108 C98 0.932 . S
H109 C99 0.930 . S
H110 C100 0.932 . S
H111 C101 0.929 . S
Tb112 C121 2.764 . S
Tb112 O122 2.325 1_554 S
Tb112 O125 2.303 . S
Tb112 O129 2.322 1_545 S
Tb112 O130 2.347 1_544 S
Tb112 O133 2.415 . S
Tb112 O134 2.399 . S
Tb113 O123 2.322 . S
Tb113 O124 2.349 1_556 S
Tb113 O126 2.415 1_545 S
Tb113 O127 2.399 1_545 S
Tb113 O128 2.325 1_546 S
Tb113 O131 2.303 1_545 S
Tb113 C142 2.764 1_545 S
C114 O130 1.264 . S
C114 O131 1.257 . S
C115 C118 1.358 . S
C115 C119 1.332 . S
C115 C121 1.504 . S
C116 C117 1.373 . S
C116 C120 1.308 . S
C117 C116 1.373 . S
C117 C118 1.429 . S
C117 H144 0.932 . S
C118 C115 1.358 . S
C118 C117 1.429 . S
C118 H145 0.930 . S
C119 C115 1.332 . S
C119 C120 1.394 . S
C119 H146 0.932 . S
C120 C116 1.308 . S
C120 C119 1.394 . S
C120 H147 0.929 . S
C121 Tb112 2.764 . S
C121 C115 1.504 . S
C121 O133 1.239 . S
C121 O134 1.263 . S
O122 Tb112 2.325 1_556 S
O122 C132 1.236 . S
O123 Tb113 2.322 . S
O123 C132 1.257 . S
O124 Tb113 2.349 1_554 S
O124 C135 1.261 . S
O125 Tb112 2.303 . S
O125 C135 1.257 . S
O126 Tb113 2.415 1_565 S
O126 C142 1.239 . S
O127 Tb113 2.399 1_565 S
O127 C142 1.263 . S
O128 Tb113 2.325 1_564 S
O128 C143 1.236 . S
O129 Tb112 2.322 1_565 S
O129 C143 1.257 . S
O130 Tb112 2.347 1_566 S
O130 C114 1.264 . S
O131 Tb113 2.303 1_565 S
O131 C114 1.257 . S
C132 O122 1.236 . S
C132 O123 1.257 . S
O133 Tb112 2.415 . S
O133 C121 1.239 . S
O134 Tb112 2.399 . S
O134 C121 1.263 . S
C135 O124 1.261 . S
C135 O125 1.257 . S
C136 C139 1.358 . S
C136 C140 1.332 . S
C136 C142 1.504 . S
C137 C138 1.373 . S
C137 C141 1.308 . S
C138 C137 1.373 . S
C138 C139 1.429 . S
C138 H148 0.932 . S
C139 C136 1.358 . S
C139 C138 1.429 . S
C139 H149 0.930 . S
C140 C136 1.332 . S
C140 C141 1.394 . S
C140 H150 0.932 . S
C141 C137 1.308 . S
C141 C140 1.394 . S
C141 H151 0.929 . S
C142 Tb113 2.764 1_565 S
C142 O126 1.239 . S
C142 O127 1.263 . S
C142 C136 1.504 . S
C143 O128 1.236 . S
C143 O129 1.257 . S
H144 C117 0.932 . S
H145 C118 0.930 . S
H146 C119 0.932 . S
H147 C120 0.929 . S
H148 C138 0.932 . S
H149 C139 0.930 . S
H150 C140 0.932 . S
H151 C141 0.929 . S
Tb152 C161 2.764 . S
Tb152 O162 2.325 . S
Tb152 O165 2.303 . S
Tb152 O169 2.322 . S
Tb152 O170 2.349 . S
Tb152 O173 2.415 . S
Tb152 O174 2.399 . S
Tb153 O163 2.322 . S
Tb153 O164 2.349 . S
Tb153 O166 2.415 . S
Tb153 O167 2.399 . S
Tb153 O168 2.325 . S
Tb153 O171 2.303 . S
Tb153 C182 2.764 . S
C154 O170 1.261 . S
C154 O171 1.257 . S
C155 C158 1.358 . S
C155 C159 1.332 . S
C155 C161 1.504 . S
C156 C157 1.373 . S
C156 C160 1.308 . S
C157 C156 1.373 . S
C157 C158 1.429 . S
C157 H184 0.932 . S
C158 C155 1.358 . S
C158 C157 1.429 . S
C158 H185 0.930 . S
C159 C155 1.332 . S
C159 C160 1.394 . S
C159 H186 0.932 . S
C160 C156 1.308 . S
C160 C159 1.394 . S
C160 H187 0.929 . S
C161 Tb152 2.764 . S
C161 C155 1.504 . S
C161 O173 1.239 . S
C161 O174 1.263 . S
O162 Tb152 2.325 . S
O162 C172 1.236 . S
O163 Tb153 2.322 . S
O163 C172 1.257 . S
O164 Tb153 2.349 . S
O164 C175 1.261 . S
O165 Tb152 2.303 . S
O165 C175 1.257 . S
O166 Tb153 2.415 . S
O166 C182 1.239 . S
O167 Tb153 2.399 . S
O167 C182 1.263 . S
O168 Tb153 2.325 . S
O168 C183 1.236 . S
O169 Tb152 2.322 . S
O169 C183 1.257 . S
O170 Tb152 2.349 . S
O170 C154 1.261 . S
O171 Tb153 2.303 . S
O171 C154 1.257 . S
C172 O162 1.236 . S
C172 O163 1.257 . S
O173 Tb152 2.415 . S
O173 C161 1.239 . S
O174 Tb152 2.399 . S
O174 C161 1.263 . S
C175 O164 1.261 . S
C175 O165 1.257 . S
C176 C179 1.358 . S
C176 C180 1.332 . S
C176 C182 1.504 . S
C177 C178 1.373 . S
C177 C181 1.308 . S
C178 C177 1.373 . S
C178 C179 1.429 . S
C178 H188 0.932 . S
C179 C176 1.358 . S
C179 C178 1.429 . S
C179 H189 0.930 . S
C180 C176 1.332 . S
C180 C181 1.394 . S
C180 H190 0.932 . S
C181 C177 1.308 . S
C181 C180 1.394 . S
C181 H191 0.929 . S
C182 Tb153 2.764 . S
C182 O166 1.239 . S
C182 O167 1.263 . S
C182 C176 1.504 . S
C183 O168 1.236 . S
C183 O169 1.257 . S
H184 C157 0.932 . S
H185 C158 0.930 . S
H186 C159 0.932 . S
H187 C160 0.929 . S
H188 C178 0.932 . S
H189 C179 0.930 . S
H190 C180 0.932 . S
H191 C181 0.929 . S
Tb192 C201 2.767 . S
Tb192 O202 2.327 . S
Tb192 O205 2.304 1_556 S
Tb192 O209 2.305 1_656 S
Tb192 O210 2.348 1_655 S
Tb192 O213 2.418 . S
Tb192 O214 2.401 . S
Tb193 O203 2.322 1_455 S
Tb193 O204 2.349 1_455 S
Tb193 O206 2.415 . S
Tb193 O207 2.399 . S
Tb193 O208 2.325 . S
Tb193 O211 2.303 1_554 S
Tb193 C222 2.764 . S
C194 O210 1.261 . S
C194 O211 1.257 . S
C195 C198 1.358 . S
C195 C199 1.332 . S
C195 C201 1.504 . S
C196 C197 1.373 . S
C196 C200 1.308 . S
C197 C196 1.373 . S
C197 C198 1.429 . S
C197 H224 0.932 . S
C198 C195 1.358 . S
C198 C197 1.429 . S
C198 H225 0.930 . S
C199 C195 1.332 . S
C199 C200 1.394 . S
C199 H226 0.932 . S
C200 C196 1.308 . S
C200 C199 1.394 . S
C200 H227 0.929 . S
C201 Tb192 2.767 . S
C201 C195 1.504 . S
C201 O213 1.239 . S
C201 O214 1.263 . S
O202 Tb192 2.327 . S
O202 C212 1.236 . S
O203 Tb193 2.322 1_655 S
O203 C212 1.257 1_554 S
O204 Tb193 2.349 1_655 S
O204 C215 1.261 . S
O205 Tb192 2.304 1_554 S
O205 C215 1.257 . S
O206 Tb193 2.415 . S
O206 C222 1.239 . S
O207 Tb193 2.399 . S
O207 C222 1.263 . S
O208 Tb193 2.325 . S
O208 C223 1.236 . S
O209 Tb192 2.305 1_454 S
O209 C223 1.281 . S
O210 Tb192 2.348 1_455 S
O210 C194 1.261 . S
O211 Tb193 2.303 1_556 S
O211 C194 1.257 . S
C212 O202 1.236 . S
C212 O203 1.257 1_556 S
O213 Tb192 2.418 . S
O213 C201 1.239 . S
O214 Tb192 2.401 . S
O214 C201 1.263 . S
C215 O204 1.261 . S
C215 O205 1.257 . S
C216 C219 1.358 . S
C216 C220 1.332 . S
C216 C222 1.504 . S
C217 C218 1.373 . S
C217 C221 1.308 . S
C218 C217 1.373 . S
C218 C219 1.429 . S
C218 H228 0.932 . S
C219 C216 1.358 . S
C219 C218 1.429 . S
C219 H229 0.930 . S
C220 C216 1.332 . S
C220 C221 1.394 . S
C220 H230 0.932 . S
C221 C217 1.308 . S
C221 C220 1.394 . S
C221 H231 0.929 . S
C222 Tb193 2.764 . S
C222 O206 1.239 . S
C222 O207 1.263 . S
C222 C216 1.504 . S
C223 O208 1.236 . S
C223 O209 1.281 . S
H224 C197 0.932 . S
H225 C198 0.930 . S
H226 C199 0.932 . S
H227 C200 0.929 . S
H228 C218 0.932 . S
H229 C219 0.930 . S
H230 C220 0.932 . S
H231 C221 0.929 . S
H232 C240 0.929 . S
H233 C242 0.930 . S
H234 C244 0.930 . S
H235 C247 0.929 . S
H236 C250 0.930 . S
H237 C252 0.960 . S
H238 C252 0.960 . S
H239 C252 0.960 . S
C240 H232 0.929 . S
C240 C241 1.377 . S
C240 C242 1.384 . S
C241 C240 1.377 . S
C241 C247 1.390 . S
C242 H233 0.930 . S
C242 C240 1.384 . S
C242 C243 1.372 . S
C243 C242 1.372 . S
C243 C244 1.400 . S
C243 C248 1.490 . S
C244 H234 0.930 . S
C244 C243 1.400 . S
C244 C247 1.386 . S
H245 C261 0.930 . S
H246 C262 0.931 . S
C247 H235 0.929 . S
C247 C241 1.390 . S
C247 C244 1.386 . S
C248 C243 1.490 . S
C248 C250 1.395 . S
C248 C251 1.403 . S
H249 C255 0.930 . S
C250 H236 0.930 . S
C250 C248 1.395 . S
C250 C253 1.403 . S
C251 C248 1.403 . S
C251 C252 1.524 . S
C251 C255 1.400 . S
C252 H237 0.960 . S
C252 H238 0.960 . S
C252 H239 0.960 . S
C252 C251 1.524 . S
C253 C250 1.403 . S
C253 C254 1.392 . S
C253 C257 1.495 . S
C254 C253 1.392 . S
C254 C255 1.385 . S
C254 C256 1.478 . S
C255 H249 0.930 . S
C255 C251 1.400 . S
C255 C254 1.385 . S
C256 C254 1.478 . S
C256 C258 1.381 . S
C256 C262 1.383 . S
C257 C253 1.495 . S
C257 H263 0.959 . S
C257 H264 0.961 . S
C257 H265 0.960 . S
C258 C256 1.381 . S
C258 C259 1.394 . S
C258 H266 0.930 . S
C259 C258 1.394 . S
C259 C260 1.383 . S
C259 H267 0.929 . S
C260 C259 1.383 . S
C260 C261 1.377 . S
C261 H245 0.930 . S
C261 C260 1.377 . S
C261 C262 1.379 . S
C262 H246 0.931 . S
C262 C256 1.383 . S
C262 C261 1.379 . S
H263 C257 0.959 . S
H264 C257 0.961 . S
H265 C257 0.960 . S
H266 C258 0.930 . S
H267 C259 0.929 . S
H268 C276 0.929 . S
H269 C278 0.930 . S
H270 C280 0.930 . S
H271 C283 0.929 . S
H272 C286 0.930 . S
H273 C288 0.960 . S
H274 C288 0.960 . S
H275 C288 0.960 . S
C276 H268 0.929 . S
C276 C277 1.377 . S
C276 C278 1.384 . S
C277 C276 1.377 . S
C277 C283 1.390 . S
C278 H269 0.930 . S
C278 C276 1.384 . S
C278 C279 1.372 . S
C279 C278 1.372 . S
C279 C280 1.400 . S
C279 C284 1.490 . S
C280 H270 0.930 . S
C280 C279 1.400 . S
C280 C283 1.386 . S
H281 C297 0.930 . S
H282 C298 0.931 . S
C283 H271 0.929 . S
C283 C277 1.390 . S
C283 C280 1.386 . S
C284 C279 1.490 . S
C284 C286 1.395 . S
C284 C287 1.403 . S
H285 C291 0.930 . S
C286 H272 0.930 . S
C286 C284 1.395 . S
C286 C289 1.403 . S
C287 C284 1.403 . S
C287 C288 1.524 . S
C287 C291 1.400 . S
C288 H273 0.960 . S
C288 H274 0.960 . S
C288 H275 0.960 . S
C288 C287 1.524 . S
C289 C286 1.403 . S
C289 C290 1.392 . S
C289 C293 1.495 . S
C290 C289 1.392 . S
C290 C291 1.385 . S
C290 C292 1.478 . S
C291 H285 0.930 . S
C291 C287 1.400 . S
C291 C290 1.385 . S
C292 C290 1.478 . S
C292 C294 1.381 . S
C292 C298 1.383 . S
C293 C289 1.495 . S
C293 H299 0.959 . S
C293 H300 0.961 . S
C293 H301 0.960 . S
C294 C292 1.381 . S
C294 C295 1.394 . S
C294 H302 0.930 . S
C295 C294 1.394 . S
C295 C296 1.383 . S
C295 H303 0.929 . S
C296 C295 1.383 . S
C296 C297 1.377 . S
C297 H281 0.930 . S
C297 C296 1.377 . S
C297 C298 1.379 . S
C298 H282 0.931 . S
C298 C292 1.383 . S
C298 C297 1.379 . S
H299 C293 0.959 . S
H300 C293 0.961 . S
H301 C293 0.960 . S
H302 C294 0.930 . S
H303 C295 0.929 . S
H304 C312 0.929 . S
H305 C314 0.930 . S
H306 C316 0.930 . S
H307 C319 0.929 . S
H308 C322 0.930 . S
H309 C324 0.960 . S
H310 C324 0.960 . S
H311 C324 0.960 . S
C312 H304 0.929 . S
C312 C313 1.377 . S
C312 C314 1.384 . S
C313 C312 1.377 . S
C313 C319 1.390 . S
C314 H305 0.930 . S
C314 C312 1.384 . S
C314 C315 1.372 . S
C315 C314 1.372 . S
C315 C316 1.400 . S
C315 C320 1.490 . S
C316 H306 0.930 . S
C316 C315 1.400 . S
C316 C319 1.386 . S
H317 C333 0.930 . S
H318 C334 0.931 . S
C319 H307 0.929 . S
C319 C313 1.390 . S
C319 C316 1.386 . S
C320 C315 1.490 . S
C320 C322 1.395 . S
C320 C323 1.403 . S
H321 C327 0.930 . S
C322 H308 0.930 . S
C322 C320 1.395 . S
C322 C325 1.403 . S
C323 C320 1.403 . S
C323 C324 1.524 . S
C323 C327 1.400 . S
C324 H309 0.960 . S
C324 H310 0.960 . S
C324 H311 0.960 . S
C324 C323 1.524 . S
C325 C322 1.403 . S
C325 C326 1.392 . S
C325 C329 1.495 . S
C326 C325 1.392 . S
C326 C327 1.385 . S
C326 C328 1.478 . S
C327 H321 0.930 . S
C327 C323 1.400 . S
C327 C326 1.385 . S
C328 C326 1.478 . S
C328 C330 1.381 . S
C328 C334 1.383 . S
C329 C325 1.495 . S
C329 H335 0.959 . S
C329 H336 0.961 . S
C329 H337 0.960 . S
C330 C328 1.381 . S
C330 C331 1.394 . S
C330 H338 0.930 . S
C331 C330 1.394 . S
C331 C332 1.383 . S
C331 H339 0.929 . S
C332 C331 1.383 . S
C332 C333 1.377 . S
C333 H317 0.930 . S
C333 C332 1.377 . S
C333 C334 1.379 . S
C334 H318 0.931 . S
C334 C328 1.383 . S
C334 C333 1.379 . S
H335 C329 0.959 . S
H336 C329 0.961 . S
H337 C329 0.960 . S
H338 C330 0.930 . S
H339 C331 0.929 . S
H340 C348 0.929 . S
H341 C350 0.930 . S
H342 C352 0.930 . S
H343 C355 0.929 . S
H344 C358 0.930 . S
H345 C360 0.960 . S
H346 C360 0.960 . S
H347 C360 0.960 . S
C348 H340 0.929 . S
C348 C349 1.377 . S
C348 C350 1.384 . S
C349 C348 1.377 . S
C349 C355 1.390 . S
C350 H341 0.930 . S
C350 C348 1.384 . S
C350 C351 1.372 . S
C351 C350 1.372 . S
C351 C352 1.400 . S
C351 C356 1.490 . S
C352 H342 0.930 . S
C352 C351 1.400 . S
C352 C355 1.386 . S
H353 C369 0.930 . S
H354 C370 0.931 . S
C355 H343 0.929 . S
C355 C349 1.390 . S
C355 C352 1.386 . S
C356 C351 1.490 . S
C356 C358 1.395 . S
C356 C359 1.403 . S
H357 C363 0.930 . S
C358 H344 0.930 . S
C358 C356 1.395 . S
C358 C361 1.403 . S
C359 C356 1.403 . S
C359 C360 1.524 . S
C359 C363 1.400 . S
C360 H345 0.960 . S
C360 H346 0.960 . S
C360 H347 0.960 . S
C360 C359 1.524 . S
C361 C358 1.403 . S
C361 C362 1.392 . S
C361 C365 1.495 . S
C362 C361 1.392 . S
C362 C363 1.385 . S
C362 C364 1.478 . S
C363 H357 0.930 . S
C363 C359 1.400 . S
C363 C362 1.385 . S
C364 C362 1.478 . S
C364 C366 1.381 . S
C364 C370 1.383 . S
C365 C361 1.495 . S
C365 H371 0.959 . S
C365 H372 0.961 . S
C365 H373 0.960 . S
C366 C364 1.381 . S
C366 C367 1.394 . S
C366 H374 0.930 . S
C367 C366 1.394 . S
C367 C368 1.383 . S
C367 H375 0.929 . S
C368 C367 1.383 . S
C368 C369 1.377 . S
C369 H353 0.930 . S
C369 C368 1.377 . S
C369 C370 1.379 . S
C370 H354 0.931 . S
C370 C364 1.383 . S
C370 C369 1.379 . S
H371 C365 0.959 . S
H372 C365 0.961 . S
H373 C365 0.960 . S
H374 C366 0.930 . S
H375 C367 0.929 . S
H376 C384 0.929 . S
H377 C386 0.930 . S
H378 C388 0.930 . S
H379 C391 0.929 . S
H380 C394 0.930 . S
H381 C396 0.960 . S
H382 C396 0.960 . S
H383 C396 0.960 . S
C384 H376 0.929 . S
C384 C385 1.377 . S
C384 C386 1.384 . S
C385 C384 1.377 . S
C385 C391 1.390 . S
C386 H377 0.930 . S
C386 C384 1.384 . S
C386 C387 1.372 . S
C387 C386 1.372 . S
C387 C388 1.400 . S
C387 C392 1.490 . S
C388 H378 0.930 . S
C388 C387 1.400 . S
C388 C391 1.386 . S
H389 C405 0.930 . S
H390 C406 0.931 . S
C391 H379 0.929 . S
C391 C385 1.390 . S
C391 C388 1.386 . S
C392 C387 1.490 . S
C392 C394 1.395 . S
C392 C395 1.403 . S
H393 C399 0.930 . S
C394 H380 0.930 . S
C394 C392 1.395 . S
C394 C397 1.403 . S
C395 C392 1.403 . S
C395 C396 1.524 . S
C395 C399 1.400 . S
C396 H381 0.960 . S
C396 H382 0.960 . S
C396 H383 0.960 . S
C396 C395 1.524 . S
C397 C394 1.403 . S
C397 C398 1.392 . S
C397 C401 1.495 . S
C398 C397 1.392 . S
C398 C399 1.385 . S
C398 C400 1.478 . S
C399 H393 0.930 . S
C399 C395 1.400 . S
C399 C398 1.385 . S
C400 C398 1.478 . S
C400 C402 1.381 . S
C400 C406 1.383 . S
C401 C397 1.495 . S
C401 H407 0.959 . S
C401 H408 0.961 . S
C401 H409 0.960 . S
C402 C400 1.381 . S
C402 C403 1.394 . S
C402 H410 0.930 . S
C403 C402 1.394 . S
C403 C404 1.383 . S
C403 H411 0.929 . S
C404 C403 1.383 . S
C404 C405 1.377 . S
C405 H389 0.930 . S
C405 C404 1.377 . S
C405 C406 1.379 . S
C406 H390 0.931 . S
C406 C400 1.383 . S
C406 C405 1.379 . S
H407 C401 0.959 . S
H408 C401 0.961 . S
H409 C401 0.960 . S
H410 C402 0.930 . S
H411 C403 0.929 . S
H412 C420 0.929 . S
H413 C422 0.930 . S
H414 C424 0.930 . S
H415 C427 0.929 . S
H416 C430 0.930 . S
H417 C432 0.960 . S
H418 C432 0.960 . S
H419 C432 0.960 . S
C420 H412 0.929 . S
C420 C421 1.377 . S
C420 C422 1.384 . S
C421 C420 1.377 . S
C421 C427 1.390 . S
C422 H413 0.930 . S
C422 C420 1.384 . S
C422 C423 1.372 . S
C423 C422 1.372 . S
C423 C424 1.400 . S
C423 C428 1.490 . S
C424 H414 0.930 . S
C424 C423 1.400 . S
C424 C427 1.386 . S
H425 C441 0.930 . S
H426 C442 0.931 . S
C427 H415 0.929 . S
C427 C421 1.390 . S
C427 C424 1.386 . S
C428 C423 1.490 . S
C428 C430 1.395 . S
C428 C431 1.403 . S
H429 C435 0.930 . S
C430 H416 0.930 . S
C430 C428 1.395 . S
C430 C433 1.403 . S
C431 C428 1.403 . S
C431 C432 1.524 . S
C431 C435 1.400 . S
C432 H417 0.960 . S
C432 H418 0.960 . S
C432 H419 0.960 . S
C432 C431 1.524 . S
C433 C430 1.403 . S
C433 C434 1.392 . S
C433 C437 1.495 . S
C434 C433 1.392 . S
C434 C435 1.385 . S
C434 C436 1.478 . S
C435 H429 0.930 . S
C435 C431 1.400 . S
C435 C434 1.385 . S
C436 C434 1.478 . S
C436 C438 1.381 . S
C436 C442 1.383 . S
C437 C433 1.495 . S
C437 H443 0.959 . S
C437 H444 0.961 . S
C437 H445 0.960 . S
C438 C436 1.381 . S
C438 C439 1.394 . S
C438 H446 0.930 . S
C439 C438 1.394 . S
C439 C440 1.383 . S
C439 H447 0.929 . S
C440 C439 1.383 . S
C440 C441 1.377 . S
C441 H425 0.930 . S
C441 C440 1.377 . S
C441 C442 1.379 . S
C442 H426 0.931 . S
C442 C436 1.383 . S
C442 C441 1.379 . S
H443 C437 0.959 . S
H444 C437 0.961 . S
H445 C437 0.960 . S
H446 C438 0.930 . S
H447 C439 0.929 . S
H448 C456 0.929 . S
H449 C458 0.930 . S
H450 C460 0.930 . S
H451 C463 0.929 . S
H452 C466 0.930 . S
H453 C468 0.960 . S
H454 C468 0.960 . S
H455 C468 0.960 . S
C456 H448 0.929 . S
C456 C457 1.377 . S
C456 C458 1.384 . S
C457 C456 1.377 . S
C457 C463 1.390 . S
C458 H449 0.930 . S
C458 C456 1.384 . S
C458 C459 1.372 . S
C459 C458 1.372 . S
C459 C460 1.400 . S
C459 C464 1.490 . S
C460 H450 0.930 . S
C460 C459 1.400 . S
C460 C463 1.386 . S
H461 C477 0.930 . S
H462 C478 0.931 . S
C463 H451 0.929 . S
C463 C457 1.390 . S
C463 C460 1.386 . S
C464 C459 1.490 . S
C464 C466 1.395 . S
C464 C467 1.403 . S
H465 C471 0.930 . S
C466 H452 0.930 . S
C466 C464 1.395 . S
C466 C469 1.403 . S
C467 C464 1.403 . S
C467 C468 1.524 . S
C467 C471 1.400 . S
C468 H453 0.960 . S
C468 H454 0.960 . S
C468 H455 0.960 . S
C468 C467 1.524 . S
C469 C466 1.403 . S
C469 C470 1.392 . S
C469 C473 1.495 . S
C470 C469 1.392 . S
C470 C471 1.385 . S
C470 C472 1.478 . S
C471 H465 0.930 . S
C471 C467 1.400 . S
C471 C470 1.385 . S
C472 C470 1.478 . S
C472 C474 1.381 . S
C472 C478 1.383 . S
C473 C469 1.495 . S
C473 H479 0.959 . S
C473 H480 0.961 . S
C473 H481 0.960 . S
C474 C472 1.381 . S
C474 C475 1.394 . S
C474 H482 0.930 . S
C475 C474 1.394 . S
C475 C476 1.383 . S
C475 H483 0.929 . S
C476 C475 1.383 . S
C476 C477 1.377 . S
C477 H461 0.930 . S
C477 C476 1.377 . S
C477 C478 1.379 . S
C478 H462 0.931 . S
C478 C472 1.383 . S
C478 C477 1.379 . S
H479 C473 0.959 . S
H480 C473 0.961 . S
H481 C473 0.960 . S
H482 C474 0.930 . S
H483 C475 0.929 . S
H484 C492 0.929 . S
H485 C494 0.930 . S
H486 C496 0.930 . S
H487 C499 0.929 . S
H488 C502 0.930 . S
H489 C504 0.960 . S
H490 C504 0.960 . S
H491 C504 0.960 . S
C492 H484 0.929 . S
C492 C493 1.377 . S
C492 C494 1.384 . S
C493 C492 1.377 . S
C493 C499 1.390 . S
C494 H485 0.930 . S
C494 C492 1.384 . S
C494 C495 1.372 . S
C495 C494 1.372 . S
C495 C496 1.400 . S
C495 C500 1.490 . S
C496 H486 0.930 . S
C496 C495 1.400 . S
C496 C499 1.386 . S
H497 C513 0.930 . S
H498 C514 0.931 . S
C499 H487 0.929 . S
C499 C493 1.390 . S
C499 C496 1.386 . S
C500 C495 1.490 . S
C500 C502 1.395 . S
C500 C503 1.403 . S
H501 C507 0.930 . S
C502 H488 0.930 . S
C502 C500 1.395 . S
C502 C505 1.403 . S
C503 C500 1.403 . S
C503 C504 1.524 . S
C503 C507 1.400 . S
C504 H489 0.960 . S
C504 H490 0.960 . S
C504 H491 0.960 . S
C504 C503 1.524 . S
C505 C502 1.403 . S
C505 C506 1.392 . S
C505 C509 1.495 . S
C506 C505 1.392 . S
C506 C507 1.385 . S
C506 C508 1.478 . S
C507 H501 0.930 . S
C507 C503 1.400 . S
C507 C506 1.385 . S
C508 C506 1.478 . S
C508 C510 1.381 . S
C508 C514 1.383 . S
C509 C505 1.495 . S
C509 H515 0.959 . S
C509 H516 0.961 . S
C509 H517 0.960 . S
C510 C508 1.381 . S
C510 C511 1.394 . S
C510 H518 0.930 . S
C511 C510 1.394 . S
C511 C512 1.383 . S
C511 H519 0.929 . S
C512 C511 1.383 . S
C512 C513 1.377 . S
C513 H497 0.930 . S
C513 C512 1.377 . S
C513 C514 1.379 . S
C514 H498 0.931 . S
C514 C508 1.383 . S
C514 C513 1.379 . S
H515 C509 0.959 . S
H516 C509 0.961 . S
H517 C509 0.960 . S
H518 C510 0.930 . S
H519 C511 0.929 . S
H520 C528 0.929 . S
H521 C530 0.930 . S
H522 C532 0.930 . S
H523 C535 0.929 . S
H524 C538 0.930 . S
H525 C540 0.960 . S
H526 C540 0.960 . S
H527 C540 0.960 . S
C528 H520 0.929 . S
C528 C529 1.377 . S
C528 C530 1.384 . S
C529 C528 1.377 . S
C529 C535 1.390 . S
C530 H521 0.930 . S
C530 C528 1.384 . S
C530 C531 1.372 . S
C531 C530 1.372 . S
C531 C532 1.400 . S
C531 C536 1.490 . S
C532 H522 0.930 . S
C532 C531 1.400 . S
C532 C535 1.386 . S
H533 C549 0.930 . S
H534 C550 0.931 . S
C535 H523 0.929 . S
C535 C529 1.390 . S
C535 C532 1.386 . S
C536 C531 1.490 . S
C536 C538 1.395 . S
C536 C539 1.403 . S
H537 C543 0.930 . S
C538 H524 0.930 . S
C538 C536 1.395 . S
C538 C541 1.403 . S
C539 C536 1.403 . S
C539 C540 1.524 . S
C539 C543 1.400 . S
C540 H525 0.960 . S
C540 H526 0.960 . S
C540 H527 0.960 . S
C540 C539 1.524 . S
C541 C538 1.403 . S
C541 C542 1.392 . S
C541 C545 1.495 . S
C542 C541 1.392 . S
C542 C543 1.385 . S
C542 C544 1.478 . S
C543 H537 0.930 . S
C543 C539 1.400 . S
C543 C542 1.385 . S
C544 C542 1.478 . S
C544 C546 1.381 . S
C544 C550 1.383 . S
C545 C541 1.495 . S
C545 H551 0.959 . S
C545 H552 0.961 . S
C545 H553 0.960 . S
C546 C544 1.381 . S
C546 C547 1.394 . S
C546 H554 0.930 . S
C547 C546 1.394 . S
C547 C548 1.383 . S
C547 H555 0.929 . S
C548 C547 1.383 . S
C548 C549 1.377 . S
C549 H533 0.930 . S
C549 C548 1.377 . S
C549 C550 1.379 . S
C550 H534 0.931 . S
C550 C544 1.383 . S
C550 C549 1.379 . S
H551 C545 0.959 . S
H552 C545 0.961 . S
H553 C545 0.960 . S
H554 C546 0.930 . S
H555 C547 0.929 . S
H556 C564 0.929 . S
H557 C566 0.930 . S
H558 C568 0.930 . S
H559 C571 0.929 . S
H560 C574 0.930 . S
H561 C576 0.960 . S
H562 C576 0.960 . S
H563 C576 0.960 . S
C564 H556 0.929 . S
C564 C565 1.377 . S
C564 C566 1.384 . S
C565 C564 1.377 . S
C565 C571 1.390 . S
C566 H557 0.930 . S
C566 C564 1.384 . S
C566 C567 1.372 . S
C567 C566 1.372 . S
C567 C568 1.400 . S
C567 C572 1.490 . S
C568 H558 0.930 . S
C568 C567 1.400 . S
C568 C571 1.386 . S
H569 C585 0.930 . S
H570 C586 0.931 . S
C571 H559 0.929 . S
C571 C565 1.390 . S
C571 C568 1.386 . S
C572 C567 1.490 . S
C572 C574 1.395 . S
C572 C575 1.403 . S
H573 C579 0.930 . S
C574 H560 0.930 . S
C574 C572 1.395 . S
C574 C577 1.403 . S
C575 C572 1.403 . S
C575 C576 1.524 . S
C575 C579 1.400 . S
C576 H561 0.960 . S
C576 H562 0.960 . S
C576 H563 0.960 . S
C576 C575 1.524 . S
C577 C574 1.403 . S
C577 C578 1.392 . S
C577 C581 1.495 . S
C578 C577 1.392 . S
C578 C579 1.385 . S
C578 C580 1.478 . S
C579 H573 0.930 . S
C579 C575 1.400 . S
C579 C578 1.385 . S
C580 C578 1.478 . S
C580 C582 1.381 . S
C580 C586 1.383 . S
C581 C577 1.495 . S
C581 H587 0.959 . S
C581 H588 0.961 . S
C581 H589 0.960 . S
C582 C580 1.381 . S
C582 C583 1.394 . S
C582 H590 0.930 . S
C583 C582 1.394 . S
C583 C584 1.383 . S
C583 H591 0.929 . S
C584 C583 1.383 . S
C584 C585 1.377 . S
C585 H569 0.930 . S
C585 C584 1.377 . S
C585 C586 1.379 . S
C586 H570 0.931 . S
C586 C580 1.383 . S
C586 C585 1.379 . S
H587 C581 0.959 . S
H588 C581 0.961 . S
H589 C581 0.960 . S
H590 C582 0.930 . S
H591 C583 0.929 . S
H592 C600 0.929 . S
H593 C602 0.930 . S
H594 C604 0.930 . S
H595 C607 0.929 . S
H596 C610 0.930 . S
H597 C612 0.960 . S
H598 C612 0.960 . S
H599 C612 0.960 . S
C600 H592 0.929 . S
C600 C601 1.377 . S
C600 C602 1.384 . S
C601 C600 1.377 . S
C601 C607 1.390 . S
C602 H593 0.930 . S
C602 C600 1.384 . S
C602 C603 1.372 . S
C603 C602 1.372 . S
C603 C604 1.400 . S
C603 C608 1.490 . S
C604 H594 0.930 . S
C604 C603 1.400 . S
C604 C607 1.386 . S
H605 C621 0.930 . S
H606 C622 0.931 . S
C607 H595 0.929 . S
C607 C601 1.390 . S
C607 C604 1.386 . S
C608 C603 1.490 . S
C608 C610 1.395 . S
C608 C611 1.403 . S
H609 C615 0.930 . S
C610 H596 0.930 . S
C610 C608 1.395 . S
C610 C613 1.403 . S
C611 C608 1.403 . S
C611 C612 1.524 . S
C611 C615 1.400 . S
C612 H597 0.960 . S
C612 H598 0.960 . S
C612 H599 0.960 . S
C612 C611 1.524 . S
C613 C610 1.403 . S
C613 C614 1.392 . S
C613 C617 1.495 . S
C614 C613 1.392 . S
C614 C615 1.385 . S
C614 C616 1.478 . S
C615 H609 0.930 . S
C615 C611 1.400 . S
C615 C614 1.385 . S
C616 C614 1.478 . S
C616 C618 1.381 . S
C616 C622 1.383 . S
C617 C613 1.495 . S
C617 H623 0.959 . S
C617 H624 0.961 . S
C617 H625 0.960 . S
C618 C616 1.381 . S
C618 C619 1.394 . S
C618 H626 0.930 . S
C619 C618 1.394 . S
C619 C620 1.383 . S
C619 H627 0.944 . S
C620 C619 1.383 . S
C620 C621 1.377 . S
C621 H605 0.930 . S
C621 C620 1.377 . S
C621 C622 1.379 . S
C622 H606 0.931 . S
C622 C616 1.383 . S
C622 C621 1.379 . S
H623 C617 0.959 . S
H624 C617 0.961 . S
H625 C617 0.960 . S
H626 C618 0.930 . S
H627 C619 0.944 . S
H628 C636 0.929 . S
H629 C638 0.930 . S
H630 C640 0.930 . S
H631 C643 0.929 . S
H632 C646 0.930 . S
H633 C648 0.960 . S
H634 C648 0.960 . S
H635 C648 0.960 . S
C636 H628 0.929 . S
C636 C637 1.377 . S
C636 C638 1.384 . S
C637 C636 1.377 . S
C637 C643 1.390 . S
C638 H629 0.930 . S
C638 C636 1.384 . S
C638 C639 1.372 . S
C639 C638 1.372 . S
C639 C640 1.400 . S
C639 C644 1.490 . S
C640 H630 0.930 . S
C640 C639 1.400 . S
C640 C643 1.386 . S
H641 C657 0.930 . S
H642 C658 0.931 . S
C643 H631 0.929 . S
C643 C637 1.390 . S
C643 C640 1.386 . S
C644 C639 1.490 . S
C644 C646 1.395 . S
C644 C647 1.403 . S
H645 C651 0.930 . S
C646 H632 0.930 . S
C646 C644 1.395 . S
C646 C649 1.403 . S
C647 C644 1.403 . S
C647 C648 1.524 . S
C647 C651 1.400 . S
C648 H633 0.960 . S
C648 H634 0.960 . S
C648 H635 0.960 . S
C648 C647 1.524 . S
C649 C646 1.403 . S
C649 C650 1.392 . S
C649 C653 1.495 . S
C650 C649 1.392 . S
C650 C651 1.385 . S
C650 C652 1.478 . S
C651 H645 0.930 . S
C651 C647 1.400 . S
C651 C650 1.385 . S
C652 C650 1.478 . S
C652 C654 1.381 . S
C652 C658 1.383 . S
C653 C649 1.495 . S
C653 H659 0.959 . S
C653 H660 0.961 . S
C653 H661 0.960 . S
C654 C652 1.381 . S
C654 C655 1.394 . S
C654 H662 0.930 . S
C655 C654 1.394 . S
C655 C656 1.383 . S
C655 H663 0.929 . S
C656 C655 1.383 . S
C656 C657 1.377 . S
C657 H641 0.930 . S
C657 C656 1.377 . S
C657 C658 1.379 . S
C658 H642 0.931 . S
C658 C652 1.383 . S
C658 C657 1.379 . S
H659 C653 0.959 . S
H660 C653 0.961 . S
H661 C653 0.960 . S
H662 C654 0.930 . S
H663 C655 0.929 . S
H664 C672 0.929 . S
H665 C674 0.930 . S
H666 C676 0.930 . S
H667 C679 0.929 . S
H668 C682 0.930 . S
H669 C684 0.960 . S
H670 C684 0.960 . S
H671 C684 0.960 . S
C672 H664 0.929 . S
C672 C673 1.377 . S
C672 C674 1.384 . S
C673 C672 1.377 . S
C673 C679 1.390 . S
C674 H665 0.930 . S
C674 C672 1.384 . S
C674 C675 1.372 . S
C675 C674 1.372 . S
C675 C676 1.400 . S
C675 C680 1.490 . S
C676 H666 0.930 . S
C676 C675 1.400 . S
C676 C679 1.386 . S
H677 C693 0.930 . S
H678 C694 0.931 . S
C679 H667 0.929 . S
C679 C673 1.390 . S
C679 C676 1.386 . S
C680 C675 1.490 . S
C680 C682 1.395 . S
C680 C683 1.403 . S
H681 C687 0.930 . S
C682 H668 0.930 . S
C682 C680 1.395 . S
C682 C685 1.403 . S
C683 C680 1.403 . S
C683 C684 1.524 . S
C683 C687 1.400 . S
C684 H669 0.960 . S
C684 H670 0.960 . S
C684 H671 0.960 . S
C684 C683 1.524 . S
C685 C682 1.403 . S
C685 C686 1.392 . S
C685 C689 1.495 . S
C686 C685 1.392 . S
C686 C687 1.385 . S
C686 C688 1.478 . S
C687 H681 0.930 . S
C687 C683 1.400 . S
C687 C686 1.385 . S
C688 C686 1.478 . S
C688 C690 1.381 . S
C688 C694 1.383 . S
C689 C685 1.495 . S
C689 H695 0.959 . S
C689 H696 0.961 . S
C689 H697 0.960 . S
C690 C688 1.381 . S
C690 C691 1.394 . S
C690 H698 0.930 . S
C691 C690 1.394 . S
C691 C692 1.383 . S
C691 H699 0.929 . S
C692 C691 1.383 . S
C692 C693 1.377 . S
C693 H677 0.930 . S
C693 C692 1.377 . S
C693 C694 1.379 . S
C694 H678 0.931 . S
C694 C688 1.383 . S
C694 C693 1.379 . S
H695 C689 0.959 . S
H696 C689 0.961 . S
H697 C689 0.960 . S
H698 C690 0.930 . S
H699 C691 0.929 . S
H700 C708 0.929 . S
H701 C710 0.930 . S
H702 C712 0.930 . S
H703 C715 0.929 . S
H704 C718 0.930 . S
H705 C720 0.960 . S
H706 C720 0.960 . S
H707 C720 0.960 . S
C708 H700 0.929 . S
C708 C709 1.377 . S
C708 C710 1.384 . S
C709 C708 1.377 . S
C709 C715 1.390 . S
C710 H701 0.930 . S
C710 C708 1.384 . S
C710 C711 1.372 . S
C711 C710 1.372 . S
C711 C712 1.400 . S
C711 C716 1.490 . S
C712 H702 0.930 . S
C712 C711 1.400 . S
C712 C715 1.386 . S
H713 C729 0.930 . S
H714 C730 0.931 . S
C715 H703 0.929 . S
C715 C709 1.390 . S
C715 C712 1.386 . S
C716 C711 1.490 . S
C716 C718 1.395 . S
C716 C719 1.403 . S
H717 C723 0.930 . S
C718 H704 0.930 . S
C718 C716 1.395 . S
C718 C721 1.403 . S
C719 C716 1.403 . S
C719 C720 1.524 . S
C719 C723 1.400 . S
C720 H705 0.960 . S
C720 H706 0.960 . S
C720 H707 0.960 . S
C720 C719 1.524 . S
C721 C718 1.403 . S
C721 C722 1.392 . S
C721 C725 1.495 . S
C722 C721 1.392 . S
C722 C723 1.385 . S
C722 C724 1.478 . S
C723 H717 0.930 . S
C723 C719 1.400 . S
C723 C722 1.385 . S
C724 C722 1.478 . S
C724 C726 1.381 . S
C724 C730 1.383 . S
C725 C721 1.495 . S
C725 H731 0.959 . S
C725 H732 0.961 . S
C725 H733 0.960 . S
C726 C724 1.381 . S
C726 C727 1.394 . S
C726 H734 0.930 . S
C727 C726 1.394 . S
C727 C728 1.383 . S
C727 H735 0.929 . S
C728 C727 1.383 . S
C728 C729 1.377 . S
C729 H713 0.930 . S
C729 C728 1.377 . S
C729 C730 1.379 . S
C730 H714 0.931 . S
C730 C724 1.383 . S
C730 C729 1.379 . S
H731 C725 0.959 . S
H732 C725 0.961 . S
H733 C725 0.960 . S
H734 C726 0.930 . S
H735 C727 0.929 . S
H736 C744 0.929 . S
H737 C746 0.930 . S
H738 C748 0.930 . S
H739 C751 0.929 . S
H740 C754 0.930 . S
H741 C756 0.960 . S
H742 C756 0.960 . S
H743 C756 0.960 . S
C744 H736 0.929 . S
C744 C745 1.377 . S
C744 C746 1.384 . S
C745 C744 1.377 . S
C745 C751 1.390 . S
C746 H737 0.930 . S
C746 C744 1.384 . S
C746 C747 1.372 . S
C747 C746 1.372 . S
C747 C748 1.400 . S
C747 C752 1.490 . S
C748 H738 0.930 . S
C748 C747 1.400 . S
C748 C751 1.386 . S
H749 C765 0.930 . S
H750 C766 0.931 . S
C751 H739 0.929 . S
C751 C745 1.390 . S
C751 C748 1.386 . S
C752 C747 1.490 . S
C752 C754 1.395 . S
C752 C755 1.403 . S
H753 C759 0.930 . S
C754 H740 0.930 . S
C754 C752 1.395 . S
C754 C757 1.403 . S
C755 C752 1.403 . S
C755 C756 1.524 . S
C755 C759 1.400 . S
C756 H741 0.960 . S
C756 H742 0.960 . S
C756 H743 0.960 . S
C756 C755 1.524 . S
C757 C754 1.403 . S
C757 C758 1.392 . S
C757 C761 1.495 . S
C758 C757 1.392 . S
C758 C759 1.385 . S
C758 C760 1.478 . S
C759 H753 0.930 . S
C759 C755 1.400 . S
C759 C758 1.385 . S
C760 C758 1.478 . S
C760 C762 1.381 . S
C760 C766 1.383 . S
C761 C757 1.495 . S
C761 H767 0.959 . S
C761 H768 0.961 . S
C761 H769 0.960 . S
C762 C760 1.381 . S
C762 C763 1.394 . S
C762 H770 0.930 . S
C763 C762 1.394 . S
C763 C764 1.383 . S
C763 H771 0.929 . S
C764 C763 1.383 . S
C764 C765 1.377 . S
C765 H749 0.930 . S
C765 C764 1.377 . S
C765 C766 1.379 . S
C766 H750 0.931 . S
C766 C760 1.383 . S
C766 C765 1.379 . S
H767 C761 0.959 . S
H768 C761 0.961 . S
H769 C761 0.960 . S
H770 C762 0.930 . S
H771 C763 0.929 . S
H772 C780 0.929 . S
H773 C782 0.930 . S
H774 C784 0.930 . S
H775 C787 0.929 . S
H776 C790 0.930 . S
H777 C792 0.960 . S
H778 C792 0.960 . S
H779 C792 0.960 . S
C780 H772 0.929 . S
C780 C781 1.377 . S
C780 C782 1.384 . S
C781 C780 1.377 . S
C781 C787 1.390 . S
C782 H773 0.930 . S
C782 C780 1.384 . S
C782 C783 1.372 . S
C783 C782 1.372 . S
C783 C784 1.400 . S
C783 C788 1.490 . S
C784 H774 0.930 . S
C784 C783 1.400 . S
C784 C787 1.386 . S
H785 C801 0.930 . S
H786 C802 0.931 . S
C787 H775 0.929 . S
C787 C781 1.390 . S
C787 C784 1.386 . S
C788 C783 1.490 . S
C788 C790 1.395 . S
C788 C791 1.403 . S
H789 C795 0.930 . S
C790 H776 0.930 . S
C790 C788 1.395 . S
C790 C793 1.403 . S
C791 C788 1.403 . S
C791 C792 1.524 . S
C791 C795 1.400 . S
C792 H777 0.960 . S
C792 H778 0.960 . S
C792 H779 0.960 . S
C792 C791 1.524 . S
C793 C790 1.403 . S
C793 C794 1.392 . S
C793 C797 1.495 . S
C794 C793 1.392 . S
C794 C795 1.385 . S
C794 C796 1.478 . S
C795 H789 0.930 . S
C795 C791 1.400 . S
C795 C794 1.385 . S
C796 C794 1.478 . S
C796 C798 1.381 . S
C796 C802 1.383 . S
C797 C793 1.495 . S
C797 H803 0.959 . S
C797 H804 0.961 . S
C797 H805 0.960 . S
C798 C796 1.381 . S
C798 C799 1.394 . S
C798 H806 0.930 . S
C799 C798 1.394 . S
C799 C800 1.383 . S
C799 H807 0.929 . S
C800 C799 1.383 . S
C800 C801 1.377 . S
C801 H785 0.930 . S
C801 C800 1.377 . S
C801 C802 1.379 . S
C802 H786 0.931 . S
C802 C796 1.383 . S
C802 C801 1.379 . S
H803 C797 0.959 . S
H804 C797 0.961 . S
H805 C797 0.960 . S
H806 C798 0.930 . S
H807 C799 0.929 . S
H808 C816 0.929 . S
H809 C818 0.930 . S
H810 C820 0.930 . S
H811 C823 0.929 . S
H812 C826 0.930 . S
H813 C828 0.960 . S
H814 C828 0.960 . S
H815 C828 0.960 . S
C816 H808 0.929 . S
C816 C817 1.377 . S
C816 C818 1.384 . S
C817 C816 1.377 . S
C817 C823 1.390 . S
C818 H809 0.930 . S
C818 C816 1.384 . S
C818 C819 1.372 . S
C819 C818 1.372 . S
C819 C820 1.400 . S
C819 C824 1.490 . S
C820 H810 0.930 . S
C820 C819 1.400 . S
C820 C823 1.386 . S
H821 C837 0.930 . S
H822 C838 0.931 . S
C823 H811 0.929 . S
C823 C817 1.390 . S
C823 C820 1.386 . S
C824 C819 1.490 . S
C824 C826 1.395 . S
C824 C827 1.403 . S
H825 C831 0.930 . S
C826 H812 0.930 . S
C826 C824 1.395 . S
C826 C829 1.403 . S
C827 C824 1.403 . S
C827 C828 1.524 . S
C827 C831 1.400 . S
C828 H813 0.960 . S
C828 H814 0.960 . S
C828 H815 0.960 . S
C828 C827 1.524 . S
C829 C826 1.403 . S
C829 C830 1.392 . S
C829 C833 1.495 . S
C830 C829 1.392 . S
C830 C831 1.385 . S
C830 C832 1.478 . S
C831 H825 0.930 . S
C831 C827 1.400 . S
C831 C830 1.385 . S
C832 C830 1.478 . S
C832 C834 1.381 . S
C832 C838 1.383 . S
C833 C829 1.495 . S
C833 H839 0.959 . S
C833 H840 0.961 . S
C833 H841 0.960 . S
C834 C832 1.381 . S
C834 C835 1.394 . S
C834 H842 0.930 . S
C835 C834 1.394 . S
C835 C836 1.383 . S
C835 H843 0.929 . S
C836 C835 1.383 . S
C836 C837 1.377 . S
C837 H821 0.930 . S
C837 C836 1.377 . S
C837 C838 1.379 . S
C838 H822 0.931 . S
C838 C832 1.383 . S
C838 C837 1.379 . S
H839 C833 0.959 . S
H840 C833 0.961 . S
H841 C833 0.960 . S
H842 C834 0.930 . S
H843 C835 0.929 . S
H844 C852 0.929 . S
H845 C854 0.930 . S
H846 C856 0.930 . S
H847 C859 0.929 . S
H848 C862 0.930 . S
H849 C864 0.960 . S
H850 C864 0.960 . S
H851 C864 0.960 . S
C852 H844 0.929 . S
C852 C853 1.377 . S
C852 C854 1.384 . S
C853 C852 1.377 . S
C853 C859 1.390 . S
C854 H845 0.930 . S
C854 C852 1.384 . S
C854 C855 1.372 . S
C855 C854 1.372 . S
C855 C856 1.400 . S
C855 C860 1.490 . S
C856 H846 0.930 . S
C856 C855 1.400 . S
C856 C859 1.386 . S
H857 C873 0.930 . S
H858 C874 0.931 . S
C859 H847 0.929 . S
C859 C853 1.390 . S
C859 C856 1.386 . S
C860 C855 1.490 . S
C860 C862 1.395 . S
C860 C863 1.403 . S
H861 C867 0.930 . S
C862 H848 0.930 . S
C862 C860 1.395 . S
C862 C865 1.403 . S
C863 C860 1.403 . S
C863 C864 1.524 . S
C863 C867 1.400 . S
C864 H849 0.960 . S
C864 H850 0.960 . S
C864 H851 0.960 . S
C864 C863 1.524 . S
C865 C862 1.403 . S
C865 C866 1.392 . S
C865 C869 1.495 . S
C866 C865 1.392 . S
C866 C867 1.385 . S
C866 C868 1.478 . S
C867 H861 0.930 . S
C867 C863 1.400 . S
C867 C866 1.385 . S
C868 C866 1.478 . S
C868 C870 1.381 . S
C868 C874 1.383 . S
C869 C865 1.495 . S
C869 H875 0.959 . S
C869 H876 0.961 . S
C869 H877 0.960 . S
C870 C868 1.381 . S
C870 C871 1.394 . S
C870 H878 0.930 . S
C871 C870 1.394 . S
C871 C872 1.383 . S
C871 H879 0.929 . S
C872 C871 1.383 . S
C872 C873 1.377 . S
C873 H857 0.930 . S
C873 C872 1.377 . S
C873 C874 1.379 . S
C874 H858 0.931 . S
C874 C868 1.383 . S
C874 C873 1.379 . S
H875 C869 0.959 . S
H876 C869 0.961 . S
H877 C869 0.960 . S
H878 C870 0.930 . S
H879 C871 0.929 . S
H880 C888 0.929 . S
H881 C890 0.930 . S
H882 C892 0.930 . S
H883 C895 0.929 . S
H884 C898 0.930 . S
H885 C900 0.960 . S
H886 C900 0.960 . S
H887 C900 0.960 . S
C888 H880 0.929 . S
C888 C889 1.377 . S
C888 C890 1.384 . S
C889 C888 1.377 . S
C889 C895 1.390 . S
C890 H881 0.930 . S
C890 C888 1.384 . S
C890 C891 1.372 . S
C891 C890 1.372 . S
C891 C892 1.400 . S
C891 C896 1.490 . S
C892 H882 0.930 . S
C892 C891 1.400 . S
C892 C895 1.386 . S
H893 C909 0.930 . S
H894 C910 0.931 . S
C895 H883 0.929 . S
C895 C889 1.390 . S
C895 C892 1.386 . S
C896 C891 1.490 . S
C896 C898 1.395 . S
C896 C899 1.403 . S
H897 C903 0.930 . S
C898 H884 0.930 . S
C898 C896 1.395 . S
C898 C901 1.403 . S
C899 C896 1.403 . S
C899 C900 1.524 . S
C899 C903 1.400 . S
C900 H885 0.960 . S
C900 H886 0.960 . S
C900 H887 0.960 . S
C900 C899 1.524 . S
C901 C898 1.403 . S
C901 C902 1.392 . S
C901 C905 1.495 . S
C902 C901 1.392 . S
C902 C903 1.385 . S
C902 C904 1.478 . S
C903 H897 0.930 . S
C903 C899 1.400 . S
C903 C902 1.385 . S
C904 C902 1.478 . S
C904 C906 1.381 . S
C904 C910 1.383 . S
C905 C901 1.495 . S
C905 H911 0.959 . S
C905 H912 0.961 . S
C905 H913 0.960 . S
C906 C904 1.381 . S
C906 C907 1.394 . S
C906 H914 0.930 . S
C907 C906 1.394 . S
C907 C908 1.383 . S
C907 H915 0.929 1_554 S
C908 C907 1.383 . S
C908 C909 1.377 . S
C909 H893 0.930 . S
C909 C908 1.377 . S
C909 C910 1.379 . S
C910 H894 0.931 . S
C910 C904 1.383 . S
C910 C909 1.379 . S
H911 C905 0.959 . S
H912 C905 0.961 . S
H913 C905 0.960 . S
H914 C906 0.930 . S
H915 C907 0.929 1_556 S
H916 C924 0.929 . S
H917 C926 0.930 . S
H918 C928 0.930 . S
H919 C931 0.929 . S
H920 C934 0.930 . S
H921 C936 0.960 . S
H922 C936 0.960 . S
H923 C936 0.960 . S
C924 H916 0.929 . S
C924 C925 1.377 . S
C924 C926 1.384 . S
C925 C924 1.377 . S
C925 C931 1.390 . S
C926 H917 0.930 . S
C926 C924 1.384 . S
C926 C927 1.372 . S
C927 C926 1.372 . S
C927 C928 1.400 . S
C927 C932 1.490 . S
C928 H918 0.930 . S
C928 C927 1.400 . S
C928 C931 1.386 . S
H929 C945 0.930 . S
H930 C946 0.931 . S
C931 H919 0.929 . S
C931 C925 1.390 . S
C931 C928 1.386 . S
C932 C927 1.490 . S
C932 C934 1.395 . S
C932 C935 1.403 . S
H933 C939 0.930 . S
C934 H920 0.930 . S
C934 C932 1.395 . S
C934 C937 1.403 . S
C935 C932 1.403 . S
C935 C936 1.524 . S
C935 C939 1.400 . S
C936 H921 0.960 . S
C936 H922 0.960 . S
C936 H923 0.960 . S
C936 C935 1.524 . S
C937 C934 1.403 . S
C937 C938 1.392 . S
C937 C941 1.495 . S
C938 C937 1.392 . S
C938 C939 1.385 . S
C938 C940 1.478 . S
C939 H933 0.930 . S
C939 C935 1.400 . S
C939 C938 1.385 . S
C940 C938 1.478 . S
C940 C942 1.381 . S
C940 C946 1.383 . S
C941 C937 1.495 . S
C941 H947 0.959 . S
C941 H948 0.961 . S
C941 H949 0.960 . S
C942 C940 1.381 . S
C942 C943 1.394 . S
C942 H950 0.930 . S
C943 C942 1.394 . S
C943 C944 1.383 . S
C943 H951 0.929 . S
C944 C943 1.383 . S
C944 C945 1.377 . S
C945 H929 0.930 . S
C945 C944 1.377 . S
C945 C946 1.379 . S
C946 H930 0.931 . S
C946 C940 1.383 . S
C946 C945 1.379 . S
H947 C941 0.959 . S
H948 C941 0.961 . S
H949 C941 0.960 . S
H950 C942 0.930 . S
H951 C943 0.929 . S
H952 C960 0.929 . S
H953 C962 0.930 . S
H954 C964 0.930 . S
H955 C967 0.929 . S
H956 C970 0.930 . S
H957 C972 0.960 . S
H958 C972 0.960 . S
H959 C972 0.960 . S
C960 H952 0.929 . S
C960 C961 1.377 . S
C960 C962 1.384 . S
C961 C960 1.377 . S
C961 C967 1.390 . S
C962 H953 0.930 . S
C962 C960 1.384 . S
C962 C963 1.372 . S
C963 C962 1.372 . S
C963 C964 1.400 . S
C963 C968 1.490 . S
C964 H954 0.930 . S
C964 C963 1.400 . S
C964 C967 1.386 . S
H965 C981 0.930 . S
H966 C982 0.931 . S
C967 H955 0.929 . S
C967 C961 1.390 . S
C967 C964 1.386 . S
C968 C963 1.490 . S
C968 C970 1.395 . S
C968 C971 1.403 . S
H969 C975 0.930 . S
C970 H956 0.930 . S
C970 C968 1.395 . S
C970 C973 1.403 . S
C971 C968 1.403 . S
C971 C972 1.524 . S
C971 C975 1.400 . S
C972 H957 0.960 . S
C972 H958 0.960 . S
C972 H959 0.960 . S
C972 C971 1.524 . S
C973 C970 1.403 . S
C973 C974 1.392 . S
C973 C977 1.495 . S
C974 C973 1.392 . S
C974 C975 1.385 . S
C974 C976 1.478 . S
C975 H969 0.930 . S
C975 C971 1.400 . S
C975 C974 1.385 . S
C976 C974 1.478 . S
C976 C978 1.381 . S
C976 C982 1.383 . S
C977 C973 1.495 . S
C977 H983 0.959 . S
C977 H984 0.961 . S
C977 H985 0.960 . S
C978 C976 1.381 . S
C978 C979 1.394 . S
C978 H986 0.930 . S
C979 C978 1.394 . S
C979 C980 1.383 . S
C979 H987 0.929 . S
C980 C979 1.383 . S
C980 C981 1.377 . S
C981 H965 0.930 . S
C981 C980 1.377 . S
C981 C982 1.379 . S
C982 H966 0.931 . S
C982 C976 1.383 . S
C982 C981 1.379 . S
H983 C977 0.959 . S
H984 C977 0.961 . S
H985 C977 0.960 . S
H986 C978 0.930 . S
H987 C979 0.929 . S
H988 C996 0.929 . S
H989 C998 0.930 . S
H990 C1000 0.930 . S
H991 C1003 0.929 . S
H992 C1006 0.930 . S
H993 C1008 0.960 . S
H994 C1008 0.960 . S
H995 C1008 0.960 . S
C996 H988 0.929 . S
C996 C997 1.377 . S
C996 C998 1.384 . S
C997 C996 1.377 . S
C997 C1003 1.390 . S
C998 H989 0.930 . S
C998 C996 1.384 . S
C998 C999 1.372 . S
C999 C998 1.372 . S
C999 C1000 1.400 . S
C999 C1004 1.490 . S
C1000 H990 0.930 . S
C1000 C999 1.400 . S
C1000 C1003 1.386 . S
H1001 C1017 0.930 . S
H1002 C1018 0.931 . S
C1003 H991 0.929 . S
C1003 C997 1.390 . S
C1003 C1000 1.386 . S
C1004 C999 1.490 . S
C1004 C1006 1.395 . S
C1004 C1007 1.403 . S
H1005 C1011 0.930 . S
C1006 H992 0.930 . S
C1006 C1004 1.395 . S
C1006 C1009 1.403 . S
C1007 C1004 1.403 . S
C1007 C1008 1.524 . S
C1007 C1011 1.400 . S
C1008 H993 0.960 . S
C1008 H994 0.960 . S
C1008 H995 0.960 . S
C1008 C1007 1.524 . S
C1009 C1006 1.403 . S
C1009 C1010 1.392 . S
C1009 C1013 1.495 . S
C1010 C1009 1.392 . S
C1010 C1011 1.385 . S
C1010 C1012 1.478 . S
C1011 H1005 0.930 . S
C1011 C1007 1.400 . S
C1011 C1010 1.385 . S
C1012 C1010 1.478 . S
C1012 C1014 1.381 . S
C1012 C1018 1.383 . S
C1013 C1009 1.495 . S
C1013 H1019 0.959 . S
C1013 H1020 0.961 . S
C1013 H1021 0.960 . S
C1014 C1012 1.381 . S
C1014 C1015 1.394 . S
C1014 H1022 0.930 . S
C1015 C1014 1.394 . S
C1015 C1016 1.383 . S
C1015 H1023 0.929 . S
C1016 C1015 1.383 . S
C1016 C1017 1.377 . S
C1017 H1001 0.930 . S
C1017 C1016 1.377 . S
C1017 C1018 1.379 . S
C1018 H1002 0.931 . S
C1018 C1012 1.383 . S
C1018 C1017 1.379 . S
H1019 C1013 0.959 . S
H1020 C1013 0.961 . S
H1021 C1013 0.960 . S
H1022 C1014 0.930 . S
H1023 C1015 0.929 . S
H1024 C1032 0.929 . S
H1025 C1034 0.930 . S
H1026 C1036 0.930 . S
H1027 C1039 0.929 . S
H1028 C1042 0.930 . S
H1029 C1044 0.960 . S
H1030 C1044 0.960 . S
H1031 C1044 0.960 . S
C1032 H1024 0.929 . S
C1032 C1033 1.377 . S
C1032 C1034 1.384 . S
C1033 C1032 1.377 . S
C1033 C1039 1.390 . S
C1034 H1025 0.930 . S
C1034 C1032 1.384 . S
C1034 C1035 1.372 . S
C1035 C1034 1.372 . S
C1035 C1036 1.400 . S
C1035 C1040 1.490 . S
C1036 H1026 0.930 . S
C1036 C1035 1.400 . S
C1036 C1039 1.386 . S
H1037 C1053 0.930 . S
H1038 C1054 0.931 . S
C1039 H1027 0.929 . S
C1039 C1033 1.390 . S
C1039 C1036 1.386 . S
C1040 C1035 1.490 . S
C1040 C1042 1.395 . S
C1040 C1043 1.403 . S
H1041 C1047 0.930 . S
C1042 H1028 0.930 . S
C1042 C1040 1.395 . S
C1042 C1045 1.403 . S
C1043 C1040 1.403 . S
C1043 C1044 1.524 . S
C1043 C1047 1.400 . S
C1044 H1029 0.960 . S
C1044 H1030 0.960 . S
C1044 H1031 0.960 . S
C1044 C1043 1.524 . S
C1045 C1042 1.403 . S
C1045 C1046 1.392 . S
C1045 C1049 1.495 . S
C1046 C1045 1.392 . S
C1046 C1047 1.385 . S
C1046 C1048 1.478 . S
C1047 H1041 0.930 . S
C1047 C1043 1.400 . S
C1047 C1046 1.385 . S
C1048 C1046 1.478 . S
C1048 C1050 1.381 . S
C1048 C1054 1.383 . S
C1049 C1045 1.495 . S
C1049 H1055 0.959 . S
C1049 H1056 0.961 . S
C1049 H1057 0.960 . S
C1050 C1048 1.381 . S
C1050 C1051 1.394 . S
C1050 H1058 0.930 . S
C1051 C1050 1.394 . S
C1051 C1052 1.383 . S
C1051 H1059 0.929 . S
C1052 C1051 1.383 . S
C1052 C1053 1.377 . S
C1053 H1037 0.930 . S
C1053 C1052 1.377 . S
C1053 C1054 1.379 . S
C1054 H1038 0.931 . S
C1054 C1048 1.383 . S
C1054 C1053 1.379 . S
H1055 C1049 0.959 . S
H1056 C1049 0.961 . S
H1057 C1049 0.960 . S
H1058 C1050 0.930 . S
H1059 C1051 0.929 . S
H1060 C1068 0.929 . S
H1061 C1070 0.930 . S
H1062 C1072 0.930 . S
H1063 C1075 0.929 . S
H1064 C1078 0.930 . S
H1065 C1080 0.960 . S
H1066 C1080 0.960 . S
H1067 C1080 0.960 . S
C1068 H1060 0.929 . S
C1068 C1069 1.377 . S
C1068 C1070 1.384 . S
C1069 C1068 1.377 . S
C1069 C1075 1.390 . S
C1070 H1061 0.930 . S
C1070 C1068 1.384 . S
C1070 C1071 1.372 . S
C1071 C1070 1.372 . S
C1071 C1072 1.400 . S
C1071 C1076 1.490 . S
C1072 H1062 0.930 . S
C1072 C1071 1.400 . S
C1072 C1075 1.386 . S
H1073 C1089 0.930 . S
H1074 C1090 0.931 . S
C1075 H1063 0.929 . S
C1075 C1069 1.390 . S
C1075 C1072 1.386 . S
C1076 C1071 1.490 . S
C1076 C1078 1.395 . S
C1076 C1079 1.403 . S
H1077 C1083 0.930 . S
C1078 H1064 0.930 . S
C1078 C1076 1.395 . S
C1078 C1081 1.403 . S
C1079 C1076 1.403 . S
C1079 C1080 1.524 . S
C1079 C1083 1.400 . S
C1080 H1065 0.960 . S
C1080 H1066 0.960 . S
C1080 H1067 0.960 . S
C1080 C1079 1.524 . S
C1081 C1078 1.403 . S
C1081 C1082 1.392 . S
C1081 C1085 1.495 . S
C1082 C1081 1.392 . S
C1082 C1083 1.385 . S
C1082 C1084 1.478 . S
C1083 H1077 0.930 . S
C1083 C1079 1.400 . S
C1083 C1082 1.385 . S
C1084 C1082 1.478 . S
C1084 C1086 1.381 . S
C1084 C1090 1.383 . S
C1085 C1081 1.495 . S
C1085 H1091 0.959 . S
C1085 H1092 0.961 . S
C1085 H1093 0.960 . S
C1086 C1084 1.381 . S
C1086 C1087 1.394 . S
C1086 H1094 0.930 . S
C1087 C1086 1.394 . S
C1087 C1088 1.383 . S
C1087 H1095 0.929 . S
C1088 C1087 1.383 . S
C1088 C1089 1.377 . S
C1089 H1073 0.930 . S
C1089 C1088 1.377 . S
C1089 C1090 1.379 . S
C1090 H1074 0.931 . S
C1090 C1084 1.383 . S
C1090 C1089 1.379 . S
H1091 C1085 0.959 . S
H1092 C1085 0.961 . S
H1093 C1085 0.960 . S
H1094 C1086 0.930 . S
H1095 C1087 0.929 . S
C241 C5 0.784 . S
C260 C76 0.800 . S
C277 C14 1.018 . S
C296 C137 1.027 . S
C332 C175 2.489 . S
C313 C25 2.556 . S
C349 C34 2.327 . S
C368 C215 2.289 . S
C404 C135 1.101 . S
C385 C7 1.102 . S
C440 C103 1.851 . S
C421 C13 1.801 . S
C476 C212 1.710 . S
C457 C23 1.718 . S
C512 C172 1.822 . S
C493 C31 1.847 . S
C529 C4 0.913 . S
C548 C217 0.913 . S
C584 C132 2.361 . S
C565 C22 2.367 . S
C601 C32 2.182 . S
C620 C74 2.130 . S
C637 C16 1.252 . S
C656 C177 1.268 . S
C692 C97 0.781 . S
C673 C41 0.771 . S
C709 C50 1.030 . S
C728 C116 1.034 . S
C745 C61 2.549 . S
C764 C154 2.490 . S
C781 C67 2.338 . S
C800 C194 2.285 . S
C817 C40 1.120 . S
C836 C114 1.138 . S
C872 C92 1.821 . S
C853 C52 1.776 . S
C908 C223 1.711 . S
C889 C59 1.724 . S
C944 C183 1.809 . S
C925 C70 1.840 . S
C961 C43 0.909 . S
C980 C196 0.916 . S
C1016 C143 2.373 . S
C997 C58 2.381 . S
C1052 C95 2.111 . S
C1033 C68 2.158 . S
C1069 C49 1.265 . S
C1088 C156 1.298 . S
