# Generated by pormake.
# Topology pts, (4,4)-cn, num edge types: 1
# Building blocks:
#     Node 0, Type 0, BuildingBlock: AZAVOO_clean_linker_0, # of connection points: 4
#     Node 1, Type 0, BuildingBlock: AZAVOO_clean_linker_0, # of connection points: 4
#     Node 2, Type 1, BuildingBlock: QUQFOY_clean_sbu_1, # of connection points: 4
#     Node 3, Type 1, BuildingBlock: QUQFOY_clean_sbu_1, # of connection points: 4
#     Edge 4, Type (0, 1), BuildingBlock: UVAHIK_clean_linker_0, # of connection points: 2
#     Edge 5, Type (0, 1), BuildingBlock: UVAHIK_clean_linker_0, # of connection points: 2
#     Edge 6, Type (0, 1), BuildingBlock: UVAHIK_clean_linker_0, # of connection points: 2
#     Edge 7, Type (0, 1), BuildingBlock: UVAHIK_clean_linker_0, # of connection points: 2
#     Edge 8, Type (0, 1), BuildingBlock: UVAHIK_clean_linker_0, # of connection points: 2
#     Edge 9, Type (0, 1), BuildingBlock: UVAHIK_clean_linker_0, # of connection points: 2
#     Edge 10, Type (0, 1), BuildingBlock: UVAHIK_clean_linker_0, # of connection points: 2
#     Edge 11, Type (0, 1), BuildingBlock: UVAHIK_clean_linker_0, # of connection points: 2
# Relax obj value: 0.189
# Max RMSD: 0.245
# Mean RMSD: 0.235
data_MOF--net-pts--node1-QUQFOY_clean_sbu_1--node2-AZAVOO_clean_linker_0--edge1-UVAHIK_clean_linker_0
_symmetry_space_group_name_H-M    P1
_symmetry_Int_Tables_number       1
_symmetry_cell_setting            triclinic
loop_
_symmetry_equiv_pos_as_xyz
'x, y, z'
_cell_length_a     31.059588
_cell_length_b     34.681421
_cell_length_c     60.9853
_cell_angle_alpha  90.761695
_cell_angle_beta   92.423889
_cell_angle_gamma 90.203703
loop_
_atom_site_label
_atom_site_type_symbol
_atom_site_fract_x
_atom_site_fract_y
_atom_site_fract_z
_atom_type_partial_charge
H0 H 0.45363 0.09145 0.86314 0.0
H1 H 0.8316 0.0549 0.04718 0.0
H2 H 0.4493 0.12599 -0.00294 0.0
H3 H 0.37814 0.12308 0.97817 0.0
H4 H 0.40199 0.00477 0.95905 0.0
H5 H 0.47208 0.00769 0.97856 0.0
H6 H 0.49986 0.12731 0.95514 0.0
H7 H 0.47518 0.12304 0.91655 0.0
H8 H 0.52957 0.00872 0.91203 0.0
H9 H 0.55342 0.01314 0.95075 0.0
H10 H 0.59993 0.13696 0.95846 0.0
H11 H 0.64276 0.1374 0.92574 0.0
H12 H 0.68639 0.02184 0.94009 0.0
H13 H 0.64258 0.02146 0.9726 0.0
H14 H 0.65668 0.13759 0.00138 0.0
H15 H 0.7336 0.14033 0.01182 0.0
H16 H 0.7255 0.02579 0.03858 0.0
H17 H 0.64875 0.02328 0.02784 0.0
H18 H 0.60879 0.13943 0.04464 0.0
H19 H 0.63677 0.14378 0.08258 0.0
H20 H 0.58787 0.02922 0.09421 0.0
H21 H 0.56194 0.02449 0.05581 0.0
H22 H 0.50634 0.13458 0.04515 0.0
H23 H 0.45377 0.13581 0.07384 0.0
H24 H 0.41701 0.01837 0.05686 0.0
H25 H 0.47133 0.01687 0.02902 0.0
O26 O 0.46368 0.09253 0.87838 0.0
O27 O 0.49275 0.0341 0.87683 0.0
O28 O 0.80379 0.11329 0.02871 0.0
O29 O 0.80127 0.05454 0.04279 0.0
C30 C 0.51191 0.07149 -0.00433 0.0
C31 C 0.54261 0.07298 0.97929 0.0
C32 C 0.58678 0.07687 0.98525 0.0
C33 C 0.60048 0.07859 0.00758 0.0
C34 C 0.56959 0.07816 0.02398 0.0
C35 C 0.52522 0.07486 0.01799 0.0
C36 C 0.46578 0.06714 0.98896 0.0
C37 C 0.43837 0.0991 0.98944 0.0
C38 C 0.39801 0.09747 0.97847 0.0
C39 C 0.3847 0.06388 0.96683 0.0
C40 C 0.41099 0.03097 0.96798 0.0
C41 C 0.45116 0.03259 0.97903 0.0
C42 C 0.52837 0.07054 0.95571 0.0
C43 C 0.50628 0.10134 0.94579 0.0
C44 C 0.4923 0.09884 0.92374 0.0
C45 C 0.50041 0.06553 0.91119 0.0
C46 C 0.5228 0.03478 0.92121 0.0
C47 C 0.53657 0.03726 0.94329 0.0
C48 C 0.61825 0.07918 0.96779 0.0
C49 C 0.6194 0.11206 0.95471 0.0
C50 C 0.64389 0.11226 0.93608 0.0
C51 C 0.6676 0.07952 0.93027 0.0
C52 C 0.66789 0.04724 0.94401 0.0
C53 C 0.64336 0.0471 0.96267 0.0
C54 C 0.64722 0.08021 0.0138 0.0
C55 C 0.67166 0.11305 0.00938 0.0
C56 C 0.71554 0.11458 0.01542 0.0
C57 C 0.73572 0.08325 0.02604 0.0
C58 C 0.71102 0.0504 0.03043 0.0
C59 C 0.66717 0.0489 0.02434 0.0
C60 C 0.5838 0.08152 0.04745 0.0
C61 C 0.60414 0.11532 0.05541 0.0
C62 C 0.61957 0.11791 0.07719 0.0
C63 C 0.61453 0.08684 0.09147 0.0
C64 C 0.59275 0.05347 0.08357 0.0
C65 C 0.5777 0.05078 0.06171 0.0
C66 C 0.49264 0.07564 0.03506 0.0
C67 C 0.48708 0.10908 0.04776 0.0
C68 C 0.45675 0.10981 0.06399 0.0
C69 C 0.43108 0.0772 0.06764 0.0
C70 C 0.43665 0.04379 0.05473 0.0
C71 C 0.46732 0.04298 0.03866 0.0
C72 C 0.48547 0.06296 0.88777 0.0
C73 C 0.7823 0.08475 0.03255 0.0
H74 H 0.00745 0.51104 0.3553 0.0
H75 H 0.08617 0.81159 0.53792 0.0
H76 H 0.99271 0.47803 0.47341 0.0
H77 H 0.00216 0.41271 0.4584 0.0
H78 H 0.13709 0.41704 0.47858 0.0
H79 H 0.12729 0.48213 0.49377 0.0
H80 H 0.98449 0.5606 0.44611 0.0
H81 H 0.98157 0.5431 0.40706 0.0
H82 H 0.11465 0.50687 0.41264 0.0
H83 H 0.11726 0.52495 0.45159 0.0
H84 H 0.98609 0.64435 0.47268 0.0
H85 H 0.98642 0.69792 0.44684 0.0
H86 H 0.11368 0.66492 0.42784 0.0
H87 H 0.1136 0.61206 0.45409 0.0
H88 H 0.98597 0.64217 0.52278 0.0
H89 H 0.98541 0.70899 0.53614 0.0
H90 H 0.11532 0.72434 0.51479 0.0
H91 H 0.11569 0.65722 0.50186 0.0
H92 H 0.98994 0.57166 0.54911 0.0
H93 H 0.98726 0.60808 0.58374 0.0
H94 H 0.12038 0.64177 0.57783 0.0
H95 H 0.12286 0.60473 0.54365 0.0
H96 H 0.99139 0.48482 0.52161 0.0
H97 H 0.9932 0.4311 0.54715 0.0
H98 H 0.12248 0.46389 0.56926 0.0
H99 H 0.12079 0.51685 0.54302 0.0
O100 O 0.00934 0.51783 0.37076 0.0
O101 O 0.07771 0.49934 0.37454 0.0
O102 O 0.01893 0.77552 0.54367 0.0
O103 O 0.08541 0.78516 0.53264 0.0
C104 C 0.05502 0.52548 0.4914 0.0
C105 C 0.05249 0.5545 0.47536 0.0
C106 C 0.05091 0.59365 0.4819 0.0
C107 C 0.05191 0.60367 0.50442 0.0
C108 C 0.05446 0.57452 0.52041 0.0
C109 C 0.05539 0.53543 0.51392 0.0
C110 C 0.05938 0.48466 0.48453 0.0
C111 C 0.02407 0.46451 0.47492 0.0
C112 C 0.02946 0.42729 0.46651 0.0
C113 C 0.07036 0.41004 0.46737 0.0
C114 C 0.10531 0.42984 0.4777 0.0
C115 C 0.09976 0.46682 0.48638 0.0
C116 C 0.051 0.54387 0.45167 0.0
C117 C 0.01298 0.54895 0.43884 0.0
C118 C 0.0114 0.53888 0.41655 0.0
C119 C 0.04786 0.52352 0.40673 0.0
C120 C 0.08597 0.51856 0.41968 0.0
C121 C 0.08752 0.52874 0.44195 0.0
C122 C 0.04982 0.62439 0.46523 0.0
C123 C 0.01399 0.64872 0.46292 0.0
C124 C 0.01425 0.67925 0.44824 0.0
C125 C 0.05011 0.68547 0.43543 0.0
C126 C 0.08552 0.66049 0.43741 0.0
C127 C 0.0855 0.63035 0.45233 0.0
C128 C 0.0509 0.64488 0.51142 0.0
C129 C 0.01426 0.66003 0.52102 0.0
C130 C 0.01402 0.6982 0.52861 0.0
C131 C 0.05038 0.72201 0.52657 0.0
C132 C 0.08682 0.70681 0.51664 0.0
C133 C 0.08708 0.66855 0.50916 0.0
C134 C 0.05649 0.58589 0.5439 0.0
C135 C 0.01894 0.58561 0.55583 0.0
C136 C 0.01736 0.60676 0.57543 0.0
C137 C 0.05339 0.62834 0.5833 0.0
C138 C 0.09217 0.62531 0.57233 0.0
C139 C 0.09369 0.60417 0.55278 0.0
C140 C 0.05592 0.50467 0.53054 0.0
C141 C 0.02002 0.48041 0.53204 0.0
C142 C 0.02106 0.44989 0.54671 0.0
C143 C 0.058 0.44321 0.56024 0.0
C144 C 0.09377 0.46796 0.55886 0.0
C145 C 0.09273 0.49844 0.54409 0.0
C146 C 0.04605 0.51279 0.38306 0.0
C147 C 0.05045 0.76246 0.53482 0.0
O148 O 0.97796 0.05475 0.24359 0.0
Cd149 Cd 0.03964 0.04211 0.25498 0.0
Cd150 Cd 0.04448 0.11926 0.25871 0.0
O151 O 0.98121 0.11806 0.24734 0.0
O152 O 0.03973 0.98596 0.26129 0.0
O153 O 0.05025 0.0312 0.28691 0.0
C154 C 0.04702 0.99511 0.28167 0.0
C155 C 0.06091 0.14625 0.29295 0.0
C156 C 0.96019 0.08761 0.24202 0.0
C157 C 0.10645 0.08191 0.22909 0.0
O158 O 0.09227 0.11357 0.23654 0.0
O159 O 0.09028 0.05007 0.23478 0.0
O160 O 0.05595 0.1676 0.27585 0.0
O161 O 0.05666 0.10938 0.29052 0.0
O162 O 0.9776 0.09474 0.75599 0.0
Cd163 Cd 0.03954 0.09501 0.74525 0.0
Cd164 Cd 0.02903 0.01622 0.74724 0.0
O165 O 0.96741 0.03183 0.75435 0.0
O166 O 0.04922 0.14971 0.73774 0.0
O167 O 0.05022 0.10229 0.71317 0.0
C168 C 0.05346 0.13871 0.7177 0.0
C169 C 0.03535 0.96249 0.72424 0.0
C170 C 0.95345 0.06553 0.75811 0.0
C171 C 0.09633 0.05303 0.77776 0.0
O172 O 0.07585 0.02257 0.77196 0.0
O173 O 0.0881 0.08474 0.76834 0.0
O174 O 0.02394 0.95935 0.74418 0.0
O175 O 0.0434 0.9966 0.71717 0.0
C176 C 0.39171 0.04548 0.09772 0.0
C177 C 0.39857 0.07805 0.0848 0.0
C178 C 0.3608 0.04614 0.11368 0.0
C179 C 0.30093 0.11123 0.14878 0.0
H180 H 0.21983 0.02626 0.1511 0.0
C181 C 0.15367 0.11633 0.20336 0.0
C182 C 0.14147 0.08201 0.21343 0.0
C183 C 0.18577 0.11608 0.188 0.0
C184 C 0.24261 0.04995 0.15092 0.0
H185 H 0.37798 0.13677 0.07848 0.0
H186 H 0.32467 0.13808 0.10671 0.0
H187 H 0.2749 0.02522 0.12381 0.0
H188 H 0.15413 0.02068 0.21573 0.0
H189 H 0.21086 0.02041 0.18943 0.0
H190 H 0.26922 0.13576 0.17608 0.0
C191 C 0.34344 0.11216 0.10448 0.0
C192 C 0.27404 0.04937 0.13523 0.0
C193 C 0.37406 0.1114 0.08837 0.0
C194 C 0.16253 0.04757 0.20811 0.0
C195 C 0.19489 0.04738 0.19292 0.0
C196 C 0.26975 0.11166 0.16462 0.0
C197 C 0.33641 0.07948 0.11721 0.0
C198 C 0.30341 0.08003 0.13399 0.0
C199 C 0.20666 0.08156 0.18253 0.0
C200 C 0.24015 0.08105 0.16585 0.0
H201 H 0.41056 0.01957 0.09569 0.0
H202 H 0.35635 0.02071 0.12347 0.0
H203 H 0.32353 0.13503 0.14831 0.0
H204 H 0.13789 0.14332 0.20702 0.0
H205 H 0.19358 0.14284 0.18009 0.0
C206 C 0.02269 0.40143 0.58756 0.0
C207 C 0.0591 0.41046 0.57569 0.0
C208 C 0.02354 0.37064 0.60206 0.0
C209 C 0.08209 0.28111 0.61638 0.0
H210 H 0.02862 0.29616 0.67214 0.0
C211 C 0.05496 0.15791 0.67817 0.0
C212 C 0.06015 0.16758 0.70058 0.0
C213 C 0.0574 0.18652 0.66227 0.0
C214 C 0.04407 0.29155 0.65673 0.0
H215 H 0.12475 0.39376 0.56946 0.0
H216 H 0.12661 0.34055 0.59526 0.0
H217 H 0.02788 0.34814 0.64585 0.0
H218 H 0.07434 0.21426 0.72385 0.0
H219 H 0.07944 0.26369 0.69624 0.0
H220 H 0.09908 0.22463 0.62762 0.0
C221 C 0.09723 0.35705 0.59314 0.0
C222 C 0.04311 0.32121 0.64152 0.0
C223 C 0.09635 0.38785 0.57858 0.0
C224 C 0.06962 0.20595 0.70672 0.0
C225 C 0.0723 0.23436 0.6909 0.0
C226 C 0.0831 0.25135 0.63166 0.0
C227 C 0.06088 0.34822 0.60512 0.0
C228 C 0.06206 0.31638 0.62117 0.0
C229 C 0.06525 0.22519 0.66853 0.0
C230 C 0.06423 0.25634 0.65205 0.0
H231 H 0.99361 0.41847 0.58588 0.0
H232 H 0.9948 0.36432 0.61084 0.0
H233 H 0.09663 0.27637 0.60075 0.0
H234 H 0.04761 0.12856 0.67296 0.0
H235 H 0.05162 0.17857 0.64517 0.0
C236 C 0.6365 0.12286 0.12623 0.0
C237 C 0.635 0.08826 0.11391 0.0
C238 C 0.66134 0.12556 0.14583 0.0
C239 C 0.72239 0.06888 0.18772 0.0
H240 H 0.80598 0.1519 0.1856 0.0
C241 C 0.89326 0.05713 0.2254 0.0
C242 C 0.9151 0.0903 0.2334 0.0
C243 C 0.85178 0.05977 0.2159 0.0
C244 C 0.78238 0.12908 0.18687 0.0
H245 H 0.65664 0.02881 0.11319 0.0
H246 H 0.6993 0.03343 0.14742 0.0
H247 H 0.74373 0.15119 0.16011 0.0
H248 H 0.90963 0.15206 0.23871 0.0
H249 H 0.83684 0.15659 0.22231 0.0
H250 H 0.76188 0.04606 0.21402 0.0
C251 C 0.68109 0.0584 0.14201 0.0
C252 C 0.74664 0.12868 0.17223 0.0
C253 C 0.65658 0.05577 0.12235 0.0
C254 C 0.89385 0.126 0.23248 0.0
C255 C 0.85218 0.12862 0.22305 0.0
C256 C 0.75799 0.0694 0.20249 0.0
C257 C 0.68479 0.09361 0.15359 0.0
C258 C 0.71716 0.09786 0.17198 0.0
C259 C 0.83099 0.09563 0.21428 0.0
C260 C 0.78925 0.09875 0.20166 0.0
H261 H 0.61951 0.14819 0.1204 0.0
H262 H 0.66329 0.15294 0.15458 0.0
H263 H 0.69979 0.04505 0.18806 0.0
H264 H 0.90863 0.02914 0.22588 0.0
H265 H 0.83677 0.03386 0.20899 0.0
C266 C 0.01312 0.68245 0.60035 0.0
C267 C 0.04914 0.65801 0.6008 0.0
C268 C 0.01158 0.71408 0.61466 0.0
C269 C 0.06098 0.75702 0.66556 0.0
H270 H 0.01878 0.85248 0.64027 0.0
C271 C 0.02783 0.89146 0.71833 0.0
C272 C 0.03868 0.92776 0.71014 0.0
C273 C 0.03035 0.8584 0.70521 0.0
C274 C 0.03106 0.82617 0.64752 0.0
H275 H 0.11095 0.64663 0.61724 0.0
H276 H 0.10855 0.70228 0.64208 0.0
H277 H 0.02016 0.79425 0.61757 0.0
H278 H 0.06104 0.95783 0.68181 0.0
H279 H 0.06594 0.89979 0.65886 0.0
H280 H 0.07277 0.78918 0.69539 0.0
C281 C 0.08135 0.69679 0.63076 0.0
C282 C 0.03127 0.79265 0.63461 0.0
C283 C 0.08286 0.66506 0.61645 0.0
C284 C 0.05234 0.93028 0.68854 0.0
C285 C 0.05494 0.89708 0.67539 0.0
C286 C 0.06084 0.79057 0.67847 0.0
C287 C 0.04609 0.72212 0.62968 0.0
C288 C 0.04598 0.75764 0.64351 0.0
C289 C 0.0439 0.86078 0.68359 0.0
C290 C 0.04566 0.82548 0.66963 0.0
H291 H 0.9869 0.67822 0.58827 0.0
H292 H 0.98363 0.73267 0.61367 0.0
H293 H 0.07233 0.73049 0.67293 0.0
H294 H 0.01701 0.88851 0.73488 0.0
H295 H 0.02092 0.83102 0.71191 0.0
C296 C 0.32022 0.03185 0.94805 0.0
C297 C 0.34683 0.0645 0.9512 0.0
C298 C 0.28913 0.03036 0.93083 0.0
C299 C 0.22865 0.08968 0.8903 0.0
H300 H 0.2322 -0.00214 0.85341 0.0
C301 C 0.1506 0.08568 0.80328 0.0
C302 C 0.12728 0.05232 0.79684 0.0
C303 C 0.17639 0.08625 0.82258 0.0
C304 C 0.23037 0.02348 0.86367 0.0
H305 H 0.36063 0.12167 0.93914 0.0
H306 H 0.30603 0.11927 0.90944 0.0
H307 H 0.27547 0.00101 0.88769 0.0
H308 H 0.11378 0.99302 0.80533 0.0
H309 H 0.15845 0.9942 0.83911 0.0
H310 H 0.18376 0.11228 0.86628 0.0
C311 C 0.30896 0.09495 0.92036 0.0
C312 C 0.25506 0.02524 0.88333 0.0
C313 C 0.34016 0.09637 0.93747 0.0
C314 C 0.13142 0.01917 0.80977 0.0
C315 C 0.1571 0.0198 0.82912 0.0
C316 C 0.20383 0.08788 0.8707 0.0
C317 C 0.2839 0.06157 0.91652 0.0
C318 C 0.25479 0.05852 0.89672 0.0
C319 C 0.17933 0.05355 0.83592 0.0
C320 C 0.20482 0.05493 0.85703 0.0
H321 H 0.32425 0.00703 0.95853 0.0
H322 H 0.26977 0.00448 0.92841 0.0
H323 H 0.22749 0.11553 0.90043 0.0
H324 H 0.14834 0.11164 0.79363 0.0
H325 H 0.19385 0.11245 0.82712 0.0
C326 C 0.10922 0.37123 0.43998 0.0
C327 C 0.07731 0.37335 0.45553 0.0
C328 C 0.1128 0.33848 0.42671 0.0
C329 C 0.04645 0.25684 0.40503 0.0
H330 H 0.1531 0.23056 0.37763 0.0
C331 C 0.05749 0.14525 0.33381 0.0
C332 C 0.07011 0.16381 0.31476 0.0
C333 C 0.0629 0.16364 0.35429 0.0
C334 C 0.12324 0.23731 0.38538 0.0
H335 H 0.02563 0.34243 0.47037 0.0
H336 H 0.03288 0.28424 0.44777 0.0
H337 H 0.15466 0.27478 0.40914 0.0
H338 H 0.10015 0.215 0.30215 0.0
H339 H 0.11081 0.24657 0.33805 0.0
H340 H 0.01529 0.21922 0.38109 0.0
C341 C 0.05435 0.3083 0.4453 0.0
C342 C 0.12396 0.26287 0.40328 0.0
C343 C 0.05029 0.34145 0.45834 0.0
C344 C 0.08995 0.20019 0.31659 0.0
C345 C 0.09631 0.2181 0.33708 0.0
C346 C 0.04591 0.23065 0.38744 0.0
C347 C 0.08493 0.30678 0.4289 0.0
C348 C 0.08535 0.27419 0.41277 0.0
C349 C 0.08211 0.20029 0.35601 0.0
C350 C 0.08409 0.22179 0.37703 0.0
H351 H 0.13004 0.39572 0.43731 0.0
H352 H 0.13611 0.33895 0.41401 0.0
H353 H 0.01596 0.26509 0.41163 0.0
H354 H 0.042 0.1172 0.33279 0.0
H355 H 0.05159 0.14955 0.36873 0.0
C356 C 0.71352 0.11053 0.90258 0.0
C357 C 0.69013 0.07839 0.90936 0.0
C358 C 0.73402 0.10958 0.88265 0.0
C359 C 0.7791 0.0416 0.84354 0.0
H360 H 0.78268 0.13077 0.80591 0.0
C361 C 0.88295 0.03835 0.76892 0.0
C362 C 0.91095 0.0701 0.76778 0.0
C363 C 0.84714 0.04022 0.78194 0.0
C364 C 0.78194 0.10565 0.81625 0.0
H365 H 0.66871 0.02053 0.90031 0.0
H366 H 0.70485 0.01874 0.86559 0.0
H367 H 0.73786 0.1321 0.83792 0.0
H368 H 0.92128 0.12979 0.77784 0.0
H369 H 0.85945 0.13276 0.80092 0.0
H370 H 0.82423 0.01558 0.82256 0.0
C371 C 0.70777 0.04448 0.87581 0.0
C372 C 0.75639 0.10644 0.83457 0.0
C373 C 0.68728 0.04543 0.89573 0.0
C374 C 0.90043 0.10476 0.77845 0.0
C375 C 0.8648 0.10652 0.79162 0.0
C376 C 0.80467 0.04084 0.82531 0.0
C377 C 0.7315 0.07647 0.86911 0.0
C378 C 0.75535 0.07466 0.84861 0.0
C379 C 0.83883 0.07375 0.79422 0.0
C380 C 0.807 0.07308 0.81167 0.0
H381 H 0.71654 0.13621 0.91284 0.0
H382 H 0.75269 0.13444 0.87809 0.0
H383 H 0.77944 0.01686 0.8542 0.0
H384 H 0.88982 0.01141 0.76061 0.0
H385 H 0.82709 0.01479 0.7832 0.0
C386 C 0.04004 0.75548 0.4276 0.0
C387 C 0.05098 0.71837 0.42032 0.0
C388 C 0.04181 0.78675 0.41348 0.0
C389 C 0.08795 0.81693 0.36116 0.0
H390 H 6e-05 0.89596 0.3629 0.0
C391 C 0.05615 0.92626 0.29215 0.0
C392 C 0.05098 0.965 0.29847 0.0
C393 C 0.05881 0.89749 0.3079 0.0
C394 C 0.02506 0.8743 0.36242 0.0
H395 H 0.07153 0.6845 0.3926 0.0
H396 H 0.07343 0.7388 0.36768 0.0
H397 H -0.00139 0.84264 0.38853 0.0
H398 H 0.04478 0.00413 0.32619 0.0
H399 H 0.04874 0.9535 0.35378 0.0
H400 H 0.11341 0.84812 0.3345 0.0
C401 C 0.06468 0.74412 0.38445 0.0
C402 C 0.02435 0.84379 0.37712 0.0
C403 C 0.06338 0.71296 0.39865 0.0
C404 C 0.0488 0.97449 0.32086 0.0
C405 C 0.05087 0.94559 0.33662 0.0
C406 C 0.08834 0.84718 0.34631 0.0
C407 C 0.05411 0.78145 0.39171 0.0
C408 C 0.05563 0.81458 0.37657 0.0
C409 C 0.05583 0.90685 0.33025 0.0
C410 C 0.05675 0.87598 0.34673 0.0
H411 H 0.03091 0.76043 0.44435 0.0
H412 H 0.03414 0.81516 0.41974 0.0
H413 H 0.11309 0.79543 0.36057 0.0
H414 H 0.05804 0.91809 0.27501 0.0
H415 H 0.06226 0.86777 0.30257 0.0
loop_
_geom_bond_atom_site_label_1
_geom_bond_atom_site_label_2
_geom_bond_distance
_geom_bond_site_symmetry_2
_ccdc_geom_bond_type
H0 O26 0.856 . S
H1 O29 0.854 . S
H2 C37 0.930 . S
H3 C38 0.930 . S
H4 C40 0.930 . S
H5 C41 0.930 . S
H6 C43 0.931 . S
H7 C44 0.930 . S
H8 C46 0.930 . S
H9 C47 0.929 . S
H10 C49 0.930 . S
H11 C50 0.931 . S
H12 C52 0.930 1_565 S
H13 C53 0.929 . S
H14 C55 0.931 . S
H15 C56 0.930 . S
H16 C58 0.930 . S
H17 C59 0.932 . S
H18 C61 0.930 . S
H19 C62 0.929 . S
H20 C64 0.931 . S
H21 C65 0.930 . S
H22 C67 0.929 . S
H23 C68 0.931 . S
H24 C70 0.930 . S
H25 C71 0.929 . S
O26 H0 0.856 . S
O26 C72 1.300 . S
O27 C72 1.209 . S
O28 C73 1.199 . S
O29 H1 0.854 . S
O29 C73 1.297 . S
C30 C31 1.404 . S
C30 C35 1.397 1_556 S
C30 C36 1.492 . S
C31 C30 1.404 . S
C31 C32 1.396 . S
C31 C42 1.492 . S
C32 C31 1.396 . S
C32 C33 1.397 1_556 S
C32 C48 1.509 . S
C33 C32 1.397 1_554 S
C33 C34 1.412 . S
C33 C54 1.485 . S
C34 C33 1.412 . S
C34 C35 1.388 . S
C34 C60 1.490 . S
C35 C30 1.397 1_554 S
C35 C34 1.388 . S
C35 C66 1.519 . S
C36 C30 1.492 . S
C36 C37 1.363 . S
C36 C41 1.390 . S
C37 H2 0.930 . S
C37 C36 1.363 . S
C37 C38 1.372 . S
C38 H3 0.930 . S
C38 C37 1.372 . S
C38 C39 1.383 . S
C39 C38 1.383 . S
C39 C40 1.395 . S
C40 H4 0.930 . S
C40 C39 1.395 . S
C40 C41 1.362 . S
C41 H5 0.930 . S
C41 C36 1.390 . S
C41 C40 1.362 . S
C42 C31 1.492 . S
C42 C43 1.377 . S
C42 C47 1.397 . S
C43 H6 0.931 . S
C43 C42 1.377 . S
C43 C44 1.376 . S
C44 H7 0.930 . S
C44 C43 1.376 . S
C44 C45 1.376 . S
C45 C44 1.376 . S
C45 C46 1.378 . S
C45 C72 1.486 . S
C46 H8 0.930 . S
C46 C45 1.378 . S
C46 C47 1.376 . S
C47 H9 0.929 . S
C47 C42 1.397 . S
C47 C46 1.376 . S
C48 C32 1.509 . S
C48 C49 1.391 . S
C48 C53 1.386 . S
C49 H10 0.930 . S
C49 C48 1.391 . S
C49 C50 1.375 . S
C50 H11 0.931 . S
C50 C49 1.375 . S
C50 C51 1.375 . S
C51 C50 1.375 . S
C51 C52 1.361 . S
C52 H12 0.930 1_545 S
C52 C51 1.361 . S
C52 C53 1.399 . S
C53 H13 0.929 . S
C53 C48 1.386 . S
C53 C52 1.399 . S
C54 C33 1.485 . S
C54 C55 1.394 . S
C54 C59 1.360 . S
C55 H14 0.931 . S
C55 C54 1.394 . S
C55 C56 1.372 . S
C56 H15 0.930 . S
C56 C55 1.372 . S
C56 C57 1.397 . S
C57 C56 1.397 . S
C57 C58 1.390 . S
C57 C73 1.476 . S
C58 H16 0.930 . S
C58 C57 1.390 . S
C58 C59 1.366 . S
C59 H17 0.932 . S
C59 C54 1.360 . S
C59 C58 1.366 . S
C60 C34 1.490 . S
C60 C61 1.380 . S
C60 C65 1.386 . S
C61 H18 0.930 . S
C61 C60 1.380 . S
C61 C62 1.381 . S
C62 H19 0.929 . S
C62 C61 1.381 . S
C62 C63 1.371 . S
C63 C62 1.371 . S
C63 C64 1.380 . S
C64 H20 0.931 . S
C64 C63 1.380 . S
C64 C65 1.387 . S
C65 H21 0.930 . S
C65 C60 1.386 . S
C65 C64 1.387 . S
C66 C35 1.519 . S
C66 C67 1.377 . S
C66 C71 1.361 . S
C67 H22 0.929 . S
C67 C66 1.377 . S
C67 C68 1.386 . S
C68 H23 0.931 . S
C68 C67 1.386 . S
C68 C69 1.363 . S
C69 C68 1.363 . S
C69 C70 1.385 . S
C70 H24 0.930 . S
C70 C69 1.385 . S
C70 C71 1.396 . S
C71 H25 0.929 . S
C71 C66 1.361 . S
C71 C70 1.396 . S
C72 O26 1.300 . S
C72 O27 1.209 . S
C72 C45 1.486 . S
C73 O28 1.199 . S
C73 O29 1.297 . S
C73 C57 1.476 . S
H74 O100 0.856 . S
H75 O103 0.854 . S
H76 C111 0.930 1_655 S
H77 C112 0.932 1_655 S
H78 C114 0.930 . S
H79 C115 0.930 . S
H80 C117 0.933 . S
H81 C118 0.930 . S
H82 C120 0.930 . S
H83 C121 0.929 . S
H84 C123 0.930 1_655 S
H85 C124 0.931 . S
H86 C126 0.930 . S
H87 C127 0.929 . S
H88 C129 0.931 1_655 S
H89 C130 0.928 . S
H90 C132 0.930 . S
H91 C133 0.932 . S
H92 C135 0.930 1_655 S
H93 C136 0.929 1_655 S
H94 C138 0.931 . S
H95 C139 0.930 . S
H96 C141 0.929 1_655 S
H97 C142 0.931 1_655 S
H98 C144 0.930 . S
H99 C145 0.929 . S
O100 H74 0.856 . S
O100 C146 1.300 . S
O101 C146 1.209 . S
O102 C147 1.199 . S
O103 H75 0.854 . S
O103 C147 1.297 . S
C104 C105 1.404 . S
C104 C109 1.397 . S
C104 C110 1.492 . S
C105 C104 1.404 . S
C105 C106 1.396 . S
C105 C116 1.492 . S
C106 C105 1.396 . S
C106 C107 1.397 . S
C106 C122 1.509 . S
C107 C106 1.397 . S
C107 C108 1.412 . S
C107 C128 1.485 . S
C108 C107 1.412 . S
C108 C109 1.388 . S
C108 C134 1.490 . S
C109 C104 1.397 . S
C109 C108 1.388 . S
C109 C140 1.519 . S
C110 C104 1.492 . S
C110 C111 1.363 . S
C110 C115 1.390 . S
C111 H76 0.930 1_455 S
C111 C110 1.363 . S
C111 C112 1.372 . S
C112 H77 0.932 1_455 S
C112 C111 1.372 . S
C112 C113 1.381 . S
C113 C112 1.381 . S
C113 C114 1.395 . S
C114 H78 0.930 . S
C114 C113 1.395 . S
C114 C115 1.362 . S
C115 H79 0.930 . S
C115 C110 1.390 . S
C115 C114 1.362 . S
C116 C105 1.492 . S
C116 C117 1.377 . S
C116 C121 1.397 . S
C117 H80 0.933 . S
C117 C116 1.377 . S
C117 C118 1.376 . S
C118 H81 0.930 . S
C118 C117 1.376 . S
C118 C119 1.376 . S
C119 C118 1.376 . S
C119 C120 1.378 . S
C119 C146 1.486 . S
C120 H82 0.930 . S
C120 C119 1.378 . S
C120 C121 1.376 . S
C121 H83 0.929 . S
C121 C116 1.397 . S
C121 C120 1.376 . S
C122 C106 1.509 . S
C122 C123 1.391 . S
C122 C127 1.386 . S
C123 H84 0.930 1_455 S
C123 C122 1.391 . S
C123 C124 1.375 . S
C124 H85 0.931 . S
C124 C123 1.375 . S
C124 C125 1.375 . S
C125 C124 1.375 . S
C125 C126 1.361 . S
C126 H86 0.930 . S
C126 C125 1.361 . S
C126 C127 1.399 . S
C127 H87 0.929 . S
C127 C122 1.386 . S
C127 C126 1.399 . S
C128 C107 1.485 . S
C128 C129 1.394 . S
C128 C133 1.360 . S
C129 H88 0.931 1_455 S
C129 C128 1.394 . S
C129 C130 1.372 . S
C130 H89 0.928 . S
C130 C129 1.372 . S
C130 C131 1.397 . S
C131 C130 1.397 . S
C131 C132 1.390 . S
C131 C147 1.476 . S
C132 H90 0.930 . S
C132 C131 1.390 . S
C132 C133 1.366 . S
C133 H91 0.932 . S
C133 C128 1.360 . S
C133 C132 1.366 . S
C134 C108 1.490 . S
C134 C135 1.380 . S
C134 C139 1.386 . S
C135 H92 0.930 1_455 S
C135 C134 1.380 . S
C135 C136 1.381 . S
C136 H93 0.929 1_455 S
C136 C135 1.381 . S
C136 C137 1.371 . S
C137 C136 1.371 . S
C137 C138 1.380 . S
C138 H94 0.931 . S
C138 C137 1.380 . S
C138 C139 1.387 . S
C139 H95 0.930 . S
C139 C134 1.386 . S
C139 C138 1.387 . S
C140 C109 1.519 . S
C140 C141 1.377 . S
C140 C145 1.361 . S
C141 H96 0.929 1_455 S
C141 C140 1.377 . S
C141 C142 1.386 . S
C142 H97 0.931 1_455 S
C142 C141 1.386 . S
C142 C143 1.363 . S
C143 C142 1.363 . S
C143 C144 1.385 . S
C144 H98 0.930 . S
C144 C143 1.385 . S
C144 C145 1.396 . S
C145 H99 0.929 . S
C145 C140 1.361 . S
C145 C144 1.396 . S
C146 O100 1.300 . S
C146 O101 1.209 . S
C146 C119 1.486 . S
C147 O102 1.199 . S
C147 O103 1.297 . S
C147 C131 1.476 . S
O148 Cd149 2.223 . S
O148 C156 1.315 1_455 S
Cd149 O148 2.223 . S
Cd149 O152 2.297 1_545 S
Cd149 O153 2.439 . S
Cd149 O159 2.240 . S
Cd150 O151 2.240 1_455 S
Cd150 O158 2.223 . S
Cd150 O160 2.297 . S
Cd150 O161 2.439 . S
O151 Cd150 2.240 1_655 S
O151 C156 1.279 . S
O152 Cd149 2.297 1_565 S
O152 C154 1.247 . S
O153 Cd149 2.439 . S
O153 C154 1.208 1_545 S
C154 O152 1.247 . S
C154 O153 1.208 1_565 S
C155 O160 1.247 . S
C155 O161 1.208 . S
C156 O148 1.315 1_655 S
C156 O151 1.279 . S
C157 O158 1.315 . S
C157 O159 1.279 . S
O158 Cd150 2.223 . S
O158 C157 1.315 . S
O159 Cd149 2.240 . S
O159 C157 1.279 . S
O160 Cd150 2.297 . S
O160 C155 1.247 . S
O161 Cd150 2.439 . S
O161 C155 1.208 . S
O162 Cd163 2.223 . S
O162 C170 1.315 1_455 S
Cd163 O162 2.223 . S
Cd163 O166 2.297 . S
Cd163 O167 2.439 . S
Cd163 O173 2.240 . S
Cd164 O165 2.240 1_465 S
Cd164 O172 2.223 . S
Cd164 O174 2.297 . S
Cd164 O175 2.439 . S
O165 Cd164 2.240 1_645 S
O165 C170 1.279 . S
O166 Cd163 2.297 . S
O166 C168 1.247 . S
O167 Cd163 2.439 . S
O167 C168 1.208 . S
C168 O166 1.247 . S
C168 O167 1.208 . S
C169 O174 1.247 . S
C169 O175 1.208 . S
C170 O162 1.315 1_655 S
C170 O165 1.279 . S
C171 O172 1.315 1_545 S
C171 O173 1.279 . S
O172 Cd164 2.223 . S
O172 C171 1.315 1_565 S
O173 Cd163 2.240 . S
O173 C171 1.279 . S
O174 Cd164 2.297 . S
O174 C169 1.247 . S
O175 Cd164 2.439 . S
O175 C169 1.208 . S
C176 C177 1.349 . S
C176 C178 1.327 . S
C176 H201 0.950 . S
C177 C176 1.349 . S
C177 C193 1.349 . S
C178 C176 1.327 . S
C178 C197 1.429 . S
C178 H202 0.950 . S
C179 C196 1.574 . S
C179 C198 1.368 . S
C179 H203 0.949 . S
H180 C184 0.949 . S
C181 C182 1.349 . S
C181 C183 1.327 . S
C181 H204 0.950 . S
C182 C181 1.349 . S
C182 C194 1.349 . S
C183 C181 1.327 . S
C183 C199 1.429 . S
C183 H205 0.950 . S
C184 H180 0.949 . S
C184 C192 1.574 . S
C184 C200 1.368 . S
H185 C193 0.950 . S
H186 C191 0.950 . S
H187 C192 0.949 . S
H188 C194 0.950 . S
H189 C195 0.950 . S
H190 C196 0.949 . S
C191 H186 0.950 . S
C191 C193 1.327 . S
C191 C197 1.429 . S
C192 C184 1.574 . S
C192 H187 0.949 . S
C192 C198 1.368 . S
C193 C177 1.349 . S
C193 H185 0.950 . S
C193 C191 1.327 . S
C194 C182 1.349 . S
C194 H188 0.950 . S
C194 C195 1.327 . S
C195 H189 0.950 . S
C195 C194 1.327 . S
C195 C199 1.429 . S
C196 C179 1.574 . S
C196 H190 0.949 . S
C196 C200 1.368 . S
C197 C178 1.429 . S
C197 C191 1.429 . S
C197 C198 1.523 . S
C198 C179 1.368 . S
C198 C192 1.368 . S
C198 C197 1.523 . S
C199 C183 1.429 . S
C199 C195 1.429 . S
C199 C200 1.523 . S
C200 C184 1.368 . S
C200 C196 1.368 . S
C200 C199 1.523 . S
H201 C176 0.950 . S
H202 C178 0.950 . S
H203 C179 0.949 . S
H204 C181 0.950 . S
H205 C183 0.950 . S
C206 C207 1.349 . S
C206 C208 1.327 . S
C206 H231 0.950 . S
C207 C206 1.349 . S
C207 C223 1.349 . S
C208 C206 1.327 . S
C208 C227 1.429 . S
C208 H232 0.930 1_455 S
C209 C226 1.574 . S
C209 C228 1.368 . S
C209 H233 0.949 . S
H210 C214 0.949 1_655 S
C211 C212 1.349 . S
C211 C213 1.327 . S
C211 H234 0.950 . S
C212 C211 1.349 . S
C212 C224 1.349 1_455 S
C213 C211 1.327 . S
C213 C229 1.429 . S
C213 H235 0.950 . S
C214 H210 0.949 1_455 S
C214 C222 1.574 . S
C214 C230 1.368 . S
H215 C223 0.950 . S
H216 C221 0.950 . S
H217 C222 0.949 1_655 S
H218 C224 0.950 . S
H219 C225 0.950 . S
H220 C226 0.949 . S
C221 H216 0.950 . S
C221 C223 1.327 . S
C221 C227 1.429 . S
C222 C214 1.574 . S
C222 H217 0.949 1_455 S
C222 C228 1.368 . S
C223 C207 1.349 . S
C223 H215 0.950 . S
C223 C221 1.327 . S
C224 C212 1.349 1_655 S
C224 H218 0.950 . S
C224 C225 1.327 . S
C225 H219 0.950 . S
C225 C224 1.327 . S
C225 C229 1.429 1_655 S
C226 C209 1.574 . S
C226 H220 0.949 . S
C226 C230 1.368 . S
C227 C208 1.429 . S
C227 C221 1.429 . S
C227 C228 1.523 . S
C228 C209 1.368 . S
C228 C222 1.368 . S
C228 C227 1.523 . S
C229 C213 1.429 . S
C229 C225 1.429 1_455 S
C229 C230 1.523 . S
C230 C214 1.368 . S
C230 C226 1.368 . S
C230 C229 1.523 . S
H231 C206 0.950 . S
H232 C208 0.930 1_655 S
H233 C209 0.949 . S
H234 C211 0.950 . S
H235 C213 0.950 . S
C236 C237 1.349 . S
C236 C238 1.327 . S
C236 H261 0.950 . S
C237 C236 1.349 . S
C237 C253 1.349 . S
C238 C236 1.327 . S
C238 C257 1.429 . S
C238 H262 0.950 . S
C239 C256 1.574 . S
C239 C258 1.368 . S
C239 H263 0.949 . S
H240 C244 0.949 . S
C241 C242 1.349 . S
C241 C243 1.327 . S
C241 H264 0.950 . S
C242 C241 1.349 . S
C242 C254 1.349 . S
C243 C241 1.327 . S
C243 C259 1.429 . S
C243 H265 0.950 . S
C244 H240 0.949 . S
C244 C252 1.574 . S
C244 C260 1.368 . S
H245 C253 0.950 . S
H246 C251 0.950 . S
H247 C252 0.949 . S
H248 C254 0.950 . S
H249 C255 0.950 . S
H250 C256 0.949 . S
C251 H246 0.950 . S
C251 C253 1.327 . S
C251 C257 1.429 . S
C252 C244 1.574 . S
C252 H247 0.949 . S
C252 C258 1.368 . S
C253 C237 1.349 . S
C253 H245 0.950 . S
C253 C251 1.327 . S
C254 C242 1.349 . S
C254 H248 0.950 . S
C254 C255 1.327 . S
C255 H249 0.950 . S
C255 C254 1.327 . S
C255 C259 1.429 . S
C256 C239 1.574 . S
C256 H250 0.949 . S
C256 C260 1.368 . S
C257 C238 1.429 . S
C257 C251 1.429 . S
C257 C258 1.523 . S
C258 C239 1.368 . S
C258 C252 1.368 . S
C258 C257 1.523 . S
C259 C243 1.429 . S
C259 C255 1.429 . S
C259 C260 1.523 . S
C260 C244 1.368 . S
C260 C256 1.368 . S
C260 C259 1.523 . S
H261 C236 0.950 . S
H262 C238 0.950 . S
H263 C239 0.949 . S
H264 C241 0.950 . S
H265 C243 0.950 . S
C266 C267 1.349 . S
C266 C268 1.327 . S
C266 H291 0.950 . S
C267 C266 1.349 . S
C267 C283 1.349 . S
C268 C266 1.327 . S
C268 C287 1.429 . S
C268 H292 0.950 . S
C269 C286 1.574 . S
C269 C288 1.368 . S
C269 H293 0.949 . S
H270 C274 0.949 . S
C271 C272 1.349 . S
C271 C273 1.327 . S
C271 H294 0.950 . S
C272 C271 1.349 . S
C272 C284 1.349 . S
C273 C271 1.327 . S
C273 C289 1.429 . S
C273 H295 0.950 . S
C274 H270 0.949 . S
C274 C282 1.574 . S
C274 C290 1.368 . S
H275 C283 0.950 . S
H276 C281 0.950 . S
H277 C282 0.949 . S
H278 C284 0.950 . S
H279 C285 0.950 . S
H280 C286 0.949 . S
C281 H276 0.950 . S
C281 C283 1.327 . S
C281 C287 1.429 . S
C282 C274 1.574 . S
C282 H277 0.949 . S
C282 C288 1.368 . S
C283 C267 1.349 . S
C283 H275 0.950 . S
C283 C281 1.327 . S
C284 C272 1.349 . S
C284 H278 0.950 . S
C284 C285 1.327 . S
C285 H279 0.950 . S
C285 C284 1.327 . S
C285 C289 1.429 . S
C286 C269 1.574 . S
C286 H280 0.949 . S
C286 C290 1.368 . S
C287 C268 1.429 . S
C287 C281 1.429 . S
C287 C288 1.523 . S
C288 C269 1.368 . S
C288 C282 1.368 . S
C288 C287 1.523 . S
C289 C273 1.429 . S
C289 C285 1.429 . S
C289 C290 1.523 . S
C290 C274 1.368 . S
C290 C286 1.368 . S
C290 C289 1.523 . S
H291 C266 0.950 . S
H292 C268 0.950 . S
H293 C269 0.949 . S
H294 C271 0.950 . S
H295 C273 0.950 . S
C296 C297 1.349 . S
C296 C298 1.327 . S
C296 H321 0.950 . S
C297 C296 1.349 . S
C297 C313 1.349 . S
C298 C296 1.327 . S
C298 C317 1.429 . S
C298 H322 0.950 . S
C299 C316 1.574 . S
C299 C318 1.368 . S
C299 H323 0.949 . S
H300 C304 0.949 . S
C301 C302 1.349 . S
C301 C303 1.327 . S
C301 H324 0.950 . S
C302 C301 1.349 . S
C302 C314 1.349 . S
C303 C301 1.327 . S
C303 C319 1.429 . S
C303 H325 0.950 . S
C304 H300 0.949 . S
C304 C312 1.574 . S
C304 C320 1.368 . S
H305 C313 0.950 . S
H306 C311 0.950 . S
H307 C312 0.949 . S
H308 C314 0.950 1_565 S
H309 C315 0.950 1_565 S
H310 C316 0.949 . S
C311 H306 0.950 . S
C311 C313 1.327 . S
C311 C317 1.429 . S
C312 C304 1.574 . S
C312 H307 0.949 . S
C312 C318 1.368 . S
C313 C297 1.349 . S
C313 H305 0.950 . S
C313 C311 1.327 . S
C314 C302 1.349 . S
C314 H308 0.950 1_545 S
C314 C315 1.327 . S
C315 H309 0.950 1_545 S
C315 C314 1.327 . S
C315 C319 1.429 . S
C316 C299 1.574 . S
C316 H310 0.949 . S
C316 C320 1.368 . S
C317 C298 1.429 . S
C317 C311 1.429 . S
C317 C318 1.523 . S
C318 C299 1.368 . S
C318 C312 1.368 . S
C318 C317 1.523 . S
C319 C303 1.429 . S
C319 C315 1.429 . S
C319 C320 1.523 . S
C320 C304 1.368 . S
C320 C316 1.368 . S
C320 C319 1.523 . S
H321 C296 0.950 . S
H322 C298 0.950 . S
H323 C299 0.949 . S
H324 C301 0.950 . S
H325 C303 0.950 . S
C326 C327 1.349 . S
C326 C328 1.327 . S
C326 H351 0.950 . S
C327 C326 1.349 . S
C327 C343 1.349 . S
C328 C326 1.327 . S
C328 C347 1.429 . S
C328 H352 0.950 . S
C329 C346 1.574 . S
C329 C348 1.368 . S
C329 H353 0.949 1_455 S
H330 C334 0.949 . S
C331 C332 1.349 . S
C331 C333 1.327 . S
C331 H354 0.950 . S
C332 C331 1.349 . S
C332 C344 1.349 . S
C333 C331 1.327 . S
C333 C349 1.429 . S
C333 H355 0.950 . S
C334 H330 0.949 . S
C334 C342 1.574 . S
C334 C350 1.368 . S
H335 C343 0.950 1_655 S
H336 C341 0.950 1_655 S
H337 C342 0.949 . S
H338 C344 0.950 . S
H339 C345 0.950 . S
H340 C346 0.949 1_655 S
C341 H336 0.950 1_455 S
C341 C343 1.327 . S
C341 C347 1.429 . S
C342 C334 1.574 . S
C342 H337 0.949 . S
C342 C348 1.368 . S
C343 C327 1.349 . S
C343 H335 0.950 1_455 S
C343 C341 1.327 . S
C344 C332 1.349 . S
C344 H338 0.950 . S
C344 C345 1.327 . S
C345 H339 0.950 . S
C345 C344 1.327 . S
C345 C349 1.429 . S
C346 C329 1.574 . S
C346 H340 0.949 1_455 S
C346 C350 1.368 . S
C347 C328 1.429 . S
C347 C341 1.429 . S
C347 C348 1.523 . S
C348 C329 1.368 . S
C348 C342 1.368 . S
C348 C347 1.523 . S
C349 C333 1.429 . S
C349 C345 1.429 . S
C349 C350 1.523 . S
C350 C334 1.368 . S
C350 C346 1.368 . S
C350 C349 1.523 . S
H351 C326 0.950 . S
H352 C328 0.950 . S
H353 C329 0.949 1_655 S
H354 C331 0.950 . S
H355 C333 0.950 . S
C356 C357 1.349 . S
C356 C358 1.327 . S
C356 H381 0.950 . S
C357 C356 1.349 . S
C357 C373 1.349 . S
C358 C356 1.327 . S
C358 C377 1.429 . S
C358 H382 0.950 . S
C359 C376 1.574 . S
C359 C378 1.368 . S
C359 H383 0.949 . S
H360 C364 0.949 . S
C361 C362 1.349 . S
C361 C363 1.327 . S
C361 H384 0.950 . S
C362 C361 1.349 . S
C362 C374 1.349 . S
C363 C361 1.327 . S
C363 C379 1.429 . S
C363 H385 0.950 . S
C364 H360 0.949 . S
C364 C372 1.574 . S
C364 C380 1.368 . S
H365 C373 0.950 . S
H366 C371 0.950 . S
H367 C372 0.949 . S
H368 C374 0.950 . S
H369 C375 0.950 . S
H370 C376 0.949 . S
C371 H366 0.950 . S
C371 C373 1.327 . S
C371 C377 1.429 . S
C372 C364 1.574 . S
C372 H367 0.949 . S
C372 C378 1.368 . S
C373 C357 1.349 . S
C373 H365 0.950 . S
C373 C371 1.327 . S
C374 C362 1.349 . S
C374 H368 0.950 . S
C374 C375 1.327 . S
C375 H369 0.950 . S
C375 C374 1.327 . S
C375 C379 1.429 . S
C376 C359 1.574 . S
C376 H370 0.949 . S
C376 C380 1.368 . S
C377 C358 1.429 . S
C377 C371 1.429 . S
C377 C378 1.523 . S
C378 C359 1.368 . S
C378 C372 1.368 . S
C378 C377 1.523 . S
C379 C363 1.429 . S
C379 C375 1.429 . S
C379 C380 1.523 . S
C380 C364 1.368 . S
C380 C376 1.368 . S
C380 C379 1.523 . S
H381 C356 0.950 . S
H382 C358 0.950 . S
H383 C359 0.949 . S
H384 C361 0.950 . S
H385 C363 0.950 . S
C386 C387 1.349 . S
C386 C388 1.327 . S
C386 H411 0.950 . S
C387 C386 1.349 . S
C387 C403 1.349 . S
C388 C386 1.327 . S
C388 C407 1.429 . S
C388 H412 0.950 . S
C389 C406 1.574 . S
C389 C408 1.368 . S
C389 H413 0.949 . S
H390 C394 0.949 . S
C391 C392 1.349 . S
C391 C393 1.327 . S
C391 H414 0.950 . S
C392 C391 1.349 . S
C392 C404 1.349 . S
C393 C391 1.327 . S
C393 C409 1.429 . S
C393 H415 0.950 . S
C394 H390 0.949 . S
C394 C402 1.574 . S
C394 C410 1.368 . S
H395 C403 0.950 . S
H396 C401 0.950 . S
H397 C402 0.949 . S
H398 C404 0.950 1_645 S
H399 C405 0.950 . S
H400 C406 0.949 . S
C401 H396 0.950 . S
C401 C403 1.327 . S
C401 C407 1.429 . S
C402 C394 1.574 . S
C402 H397 0.949 . S
C402 C408 1.368 . S
C403 C387 1.349 . S
C403 H395 0.950 . S
C403 C401 1.327 . S
C404 C392 1.349 . S
C404 H398 0.950 1_465 S
C404 C405 1.327 . S
C405 H399 0.950 . S
C405 C404 1.327 . S
C405 C409 1.429 . S
C406 C389 1.574 . S
C406 H400 0.949 . S
C406 C410 1.368 . S
C407 C388 1.429 . S
C407 C401 1.429 . S
C407 C408 1.523 . S
C408 C389 1.368 . S
C408 C402 1.368 . S
C408 C407 1.523 . S
C409 C393 1.429 . S
C409 C405 1.429 . S
C409 C410 1.523 . S
C410 C394 1.368 . S
C410 C406 1.368 . S
C410 C409 1.523 . S
H411 C386 0.950 . S
H412 C388 0.950 . S
H413 C389 0.949 . S
H414 C391 0.950 . S
H415 C393 0.950 . S
C182 C157 2.293 . S
C177 C69 2.286 . S
C212 C168 2.311 . S
C207 C143 2.380 . S
C242 C156 1.530 . S
C237 C63 1.440 . S
C272 C169 1.504 . S
C267 C137 1.471 . S
C302 C171 1.581 . S
C297 C39 1.486 . S
C332 C155 1.423 . S
C327 C113 1.401 . S
C362 C170 0.754 . S
C357 C51 0.754 . S
C387 C125 0.800 . S
C392 C154 0.793 . S
