# Generated by pormake.
# Topology zzz, (3,6)-cn, num edge types: 1
# Building blocks:
#     Node 0, Type 0, BuildingBlock: QEWDON_clean_linker_0, # of connection points: 3
#     Node 1, Type 0, BuildingBlock: QEWDON_clean_linker_0, # of connection points: 3
#     Node 2, Type 0, BuildingBlock: QEWDON_clean_linker_0, # of connection points: 3
#     Node 3, Type 0, BuildingBlock: QEWDON_clean_linker_0, # of connection points: 3
#     Node 4, Type 0, BuildingBlock: QEWDON_clean_linker_0, # of connection points: 3
#     Node 5, Type 0, BuildingBlock: QEWDON_clean_linker_0, # of connection points: 3
#     Node 6, Type 0, BuildingBlock: QEWDON_clean_linker_0, # of connection points: 3
#     Node 7, Type 0, BuildingBlock: QEWDON_clean_linker_0, # of connection points: 3
#     Node 8, Type 1, BuildingBlock: HISSIN_clean_sbu_0, # of connection points: 6
#     Node 9, Type 1, BuildingBlock: HISSIN_clean_sbu_0, # of connection points: 6
#     Node 10, Type 1, BuildingBlock: HISSIN_clean_sbu_0, # of connection points: 6
#     Node 11, Type 1, BuildingBlock: HISSIN_clean_sbu_0, # of connection points: 6
#     Edge 12, Type (0, 1), BuildingBlock: UVAHIK_clean_linker_0, # of connection points: 2
#     Edge 13, Type (0, 1), BuildingBlock: UVAHIK_clean_linker_0, # of connection points: 2
#     Edge 14, Type (0, 1), BuildingBlock: UVAHIK_clean_linker_0, # of connection points: 2
#     Edge 15, Type (0, 1), BuildingBlock: UVAHIK_clean_linker_0, # of connection points: 2
#     Edge 16, Type (0, 1), BuildingBlock: UVAHIK_clean_linker_0, # of connection points: 2
#     Edge 17, Type (0, 1), BuildingBlock: UVAHIK_clean_linker_0, # of connection points: 2
#     Edge 18, Type (0, 1), BuildingBlock: UVAHIK_clean_linker_0, # of connection points: 2
#     Edge 19, Type (0, 1), BuildingBlock: UVAHIK_clean_linker_0, # of connection points: 2
#     Edge 20, Type (0, 1), BuildingBlock: UVAHIK_clean_linker_0, # of connection points: 2
#     Edge 21, Type (0, 1), BuildingBlock: UVAHIK_clean_linker_0, # of connection points: 2
#     Edge 22, Type (0, 1), BuildingBlock: UVAHIK_clean_linker_0, # of connection points: 2
#     Edge 23, Type (0, 1), BuildingBlock: UVAHIK_clean_linker_0, # of connection points: 2
#     Edge 24, Type (0, 1), BuildingBlock: UVAHIK_clean_linker_0, # of connection points: 2
#     Edge 25, Type (0, 1), BuildingBlock: UVAHIK_clean_linker_0, # of connection points: 2
#     Edge 26, Type (0, 1), BuildingBlock: UVAHIK_clean_linker_0, # of connection points: 2
#     Edge 27, Type (0, 1), BuildingBlock: UVAHIK_clean_linker_0, # of connection points: 2
#     Edge 28, Type (0, 1), BuildingBlock: UVAHIK_clean_linker_0, # of connection points: 2
#     Edge 29, Type (0, 1), BuildingBlock: UVAHIK_clean_linker_0, # of connection points: 2
#     Edge 30, Type (0, 1), BuildingBlock: UVAHIK_clean_linker_0, # of connection points: 2
#     Edge 31, Type (0, 1), BuildingBlock: UVAHIK_clean_linker_0, # of connection points: 2
#     Edge 32, Type (0, 1), BuildingBlock: UVAHIK_clean_linker_0, # of connection points: 2
#     Edge 33, Type (0, 1), BuildingBlock: UVAHIK_clean_linker_0, # of connection points: 2
#     Edge 34, Type (0, 1), BuildingBlock: UVAHIK_clean_linker_0, # of connection points: 2
#     Edge 35, Type (0, 1), BuildingBlock: UVAHIK_clean_linker_0, # of connection points: 2
# Relax obj value: 0.154
# Max RMSD: 0.182
# Mean RMSD: 0.061
data_MOF--net-zzz--node1-HISSIN_clean_sbu_0--node2-QEWDON_clean_linker_0--edge1-UVAHIK_clean_linker_0
_symmetry_space_group_name_H-M    P1
_symmetry_Int_Tables_number       1
_symmetry_cell_setting            triclinic
loop_
_symmetry_equiv_pos_as_xyz
'x, y, z'
_cell_length_a     68.586223
_cell_length_b     68.704881
_cell_length_c     20.397088
_cell_angle_alpha  90.13856
_cell_angle_beta   91.429767
_cell_angle_gamma 90.249669
loop_
_atom_site_label
_atom_site_type_symbol
_atom_site_fract_x
_atom_site_fract_y
_atom_site_fract_z
_atom_type_partial_charge
H0 H 0.76086 0.5469 0.17015 0.0
C1 C 0.77145 0.54662 0.21032 0.0
C2 C 0.79093 0.54363 0.19501 0.0
C3 C 0.76595 0.55007 0.27557 0.0
H4 H 0.82045 0.54222 0.23187 0.0
C5 C 0.80535 0.54458 0.24439 0.0
C6 C 0.80065 0.54824 0.30962 0.0
C7 C 0.78086 0.55045 0.32549 0.0
C8 C 0.74494 0.55446 0.2896 0.0
H9 H 0.77731 0.55282 0.37625 0.0
C10 C 0.7296 0.54816 0.24649 0.0
C11 C 0.71023 0.55441 0.25436 0.0
C12 C 0.74008 0.56624 0.34336 0.0
H13 H 0.75115 0.57192 0.37696 0.0
C14 C 0.72077 0.57163 0.35335 0.0
H15 H 0.73254 0.53844 0.2062 0.0
C16 C 0.70599 0.56597 0.30902 0.0
H17 H 0.69134 0.5712 0.31652 0.0
H18 H 0.71734 0.58081 0.39466 0.0
H19 H 1.00407 0.76042 0.1393 0.0
C20 C 1.00453 0.7711 0.17824 0.0
C21 C 1.00583 0.79061 0.15995 0.0
C22 C 1.00314 0.76561 0.24455 0.0
H23 H 1.00579 0.82035 0.19281 0.0
C24 C 1.00484 0.80521 0.20753 0.0
C25 C 1.00323 0.80063 0.27398 0.0
C26 C 1.00294 0.78079 0.2927 0.0
C27 C 1.00076 0.74427 0.2615 0.0
H28 H 1.00224 0.77745 0.34434 0.0
C29 C 1.00596 0.72914 0.21717 0.0
C30 C 1.00118 0.70943 0.22912 0.0
C31 C 0.99183 0.73877 0.32014 0.0
H32 H 0.98707 0.74945 0.35519 0.0
C33 C 0.98814 0.71923 0.33395 0.0
H34 H 1.01325 0.73247 0.17225 0.0
C35 C 0.99257 0.70473 0.28884 0.0
H36 H 0.98914 0.68977 0.30072 0.0
H37 H 0.9813 0.71533 0.37937 0.0
H38 H 0.78579 0.99273 0.127 0.0
C39 C 0.77488 0.99764 0.16065 0.0
C40 C 0.7553 0.99338 0.14585 0.0
C41 C 0.78045 1.00792 0.21791 0.0
H42 H 0.72577 0.99574 0.17851 0.0
C43 C 0.74099 0.99875 0.19033 0.0
C44 C 0.74582 1.00842 0.24912 0.0
C45 C 0.76566 1.01303 0.26287 0.0
C46 C 0.80173 1.01277 0.22978 0.0
H47 H 0.76935 0.02105 0.30722 0.0
C48 C 0.81472 0.01549 0.17693 0.0
C49 C 0.83499 0.01847 0.18824 0.0
C50 C 0.8095 1.01373 0.29413 0.0
H51 H 0.80039 1.01136 0.33592 0.0
C52 C 0.82937 0.01709 0.3057 0.0
H53 H 0.80915 0.01549 0.12685 0.0
C54 C 0.842 0.01928 0.2536 0.0
H55 H 0.8574 0.02118 0.2648 0.0
H56 H 0.83512 0.01758 0.3556 0.0
H57 H 0.50209 0.7901 0.14748 0.0
C58 C 0.50778 0.7789 0.17988 0.0
C59 C 0.4997 0.76017 0.17543 0.0
C60 C 0.52252 0.78325 0.22725 0.0
H61 H 0.50023 0.73101 0.2135 0.0
C62 C 0.50643 0.74554 0.2177 0.0
C63 C 0.52115 0.74925 0.26476 0.0
C64 C 0.52914 0.76814 0.26974 0.0
C65 C 0.53039 0.80362 0.2336 0.0
H66 H 0.54073 0.77083 0.30564 0.0
C67 C 0.5316 0.8162 0.17866 0.0
C68 C 0.53826 0.83562 0.18596 0.0
C69 C 0.53611 0.81092 0.29572 0.0
H70 H 0.53492 0.80211 0.33935 0.0
C71 C 0.54293 0.82996 0.30302 0.0
H72 H 0.52764 0.8109 0.13009 0.0
C73 C 0.54396 0.84222 0.2489 0.0
H74 H 0.54882 0.85709 0.25673 0.0
H75 H 0.54714 0.83537 0.35125 0.0
H76 H 0.29262 0.52423 0.15123 0.0
C77 C 0.28211 0.5186 0.11544 0.0
C78 C 0.26236 0.51861 0.13114 0.0
C79 C 0.28821 0.51162 0.05418 0.0
H80 H 0.23304 0.51285 0.09622 0.0
C81 C 0.24839 0.51219 0.08476 0.0
C82 C 0.2538 0.50602 0.02247 0.0
C83 C 0.27372 0.50558 0.00729 0.0
C84 C 0.30956 0.51123 0.03947 0.0
H85 H 0.27777 0.50029 0.95952 0.0
C86 C 0.32388 0.50879 0.09015 0.0
C87 C 0.34398 0.50955 0.07709 0.0
C88 C 0.3159 0.51396 0.97502 0.0
H89 H 0.30561 0.51639 0.93484 0.0
C90 C 0.33575 0.51417 0.96153 0.0
H91 H 0.3195 0.50612 0.13996 0.0
C92 C 0.34969 0.51207 0.01198 0.0
H93 H 0.36498 0.51294 1.00016 0.0
H94 H 0.34038 0.51638 0.91174 0.0
H95 H 0.06242 0.29156 0.12275 0.0
C96 C 0.05798 0.28163 0.08391 0.0
C97 C 0.06427 0.26232 0.08846 0.0
C98 C 0.04647 0.28798 0.02976 0.0
H99 H 0.06419 0.23411 0.04225 0.0
C100 C 0.05959 0.24917 0.03799 0.0
C101 C 0.04796 0.25466 0.98419 0.0
C102 C 0.04107 0.27398 0.98057 0.0
C103 C 0.04101 0.30921 0.02371 0.0
H104 H 0.03163 0.27792 0.93949 0.0
C105 C 0.04021 0.32185 0.07923 0.0
C106 C 0.03725 0.34212 0.07163 0.0
C107 C 0.03787 0.31742 0.96109 0.0
H108 H 0.03888 0.30876 0.91698 0.0
C109 C 0.03406 0.33721 0.95371 0.0
H110 H 0.0423 0.3162 0.12831 0.0
C111 C 0.03387 0.34946 0.00816 0.0
H112 H 0.03113 0.36482 1.00048 0.0
H113 H 0.03167 0.34319 0.90513 0.0
H114 H 0.26783 0.01603 0.18074 0.0
C115 C 0.27817 0.01923 0.14299 0.0
C116 C 0.29792 0.0155 0.15615 0.0
C117 C 0.27175 0.02651 0.08173 0.0
H118 H 0.32673 0.01497 0.117 0.0
C119 C 0.31153 0.0184 0.10702 0.0
C120 C 0.30581 0.02514 0.04471 0.0
C121 C 0.28593 0.02971 0.03271 0.0
C122 C 0.25015 0.02901 0.06848 0.0
H123 H 0.28158 0.03521 0.98491 0.0
C124 C 0.23694 0.03309 0.11966 0.0
C125 C 0.21645 0.03311 0.10796 0.0
C126 C 0.24234 0.02569 1.00502 0.0
H127 H 0.25161 0.02202 0.96473 0.0
C128 C 0.22226 0.02612 0.99282 0.0
H129 H 0.2425 0.03631 0.16858 0.0
C130 C 0.20946 0.02956 0.04354 0.0
H131 H 0.19397 0.02891 0.03216 0.0
H132 H 0.21653 0.02324 0.94381 0.0
H133 H 0.54136 0.26588 0.16159 0.0
C134 C 0.53665 0.27721 0.12817 0.0
C135 C 0.54488 0.29581 0.1364 0.0
C136 C 0.52301 0.27325 0.07674 0.0
H137 H 0.54637 0.32493 0.09753 0.0
C138 C 0.54012 0.31049 0.09132 0.0
C139 C 0.52672 0.30715 0.03979 0.0
C140 C 0.51773 0.28875 0.03375 0.0
C141 C 0.51506 0.25291 0.0664 0.0
H142 H 0.50691 0.28667 0.99489 0.0
C143 C 0.51462 0.23899 0.118 0.0
C144 C 0.50859 0.21955 0.10605 0.0
C145 C 0.50875 0.24685 1.00323 0.0
H146 H 0.50944 0.25642 0.96139 0.0
C147 C 0.50188 0.228 0.99201 0.0
H148 H 0.51927 0.243 0.16721 0.0
C149 C 0.50179 0.21448 0.04267 0.0
H150 H 0.49647 0.19992 0.03193 0.0
H151 H 0.49694 0.22371 0.94324 0.0
Eu152 Eu 1.00953 0.03597 0.5769 0.0
Eu153 Eu 0.03682 0.01861 0.69414 0.0
C154 C 0.03006 0.06472 0.68475 0.0
C155 C 1.00058 0.06876 0.43982 0.0
C156 C 0.0208 0.06847 0.43116 0.0
C157 C 0.99965 0.1016 0.39628 0.0
C158 C 0.03046 0.08465 0.40703 0.0
C159 C 0.98997 0.0853 0.42108 0.0
C160 C 0.02011 0.10161 0.39068 0.0
C161 C 0.99177 0.05349 0.47997 0.0
O162 O 1.00586 1.01213 0.72504 0.0
O163 O 0.98907 0.0343 0.66216 0.0
C164 C 0.99002 0.02233 0.71231 0.0
O165 O 1.00237 1.0037 0.57433 0.0
O166 O 0.0426 1.0104 0.7962 0.0
O167 O 0.06362 1.00352 0.72263 0.0
O168 O 0.0312 0.99402 0.62173 0.0
C169 C 1.0152 0.98999 0.58759 0.0
O170 O 0.03911 0.02992 0.53351 0.0
O171 O 0.05812 0.033 0.62615 0.0
O172 O 0.03255 0.04994 0.72488 0.0
O173 O 0.99932 0.03616 0.47457 0.0
O174 O 0.98958 0.05845 0.54104 0.0
O175 O 0.02567 0.06182 0.62232 0.0
C176 C 0.05494 0.97872 0.79309 0.0
C177 C 0.03831 0.96945 0.76629 0.0
C178 C 0.06739 0.94737 0.82847 0.0
C179 C 0.03623 0.94938 0.77007 0.0
C180 C 0.06956 0.96762 0.82398 0.0
C181 C 0.05065 0.93808 0.80152 0.0
C182 C 0.05741 0.99957 0.78093 0.0
C183 C 0.05634 0.03247 0.56192 0.0
H184 H 0.02937 0.0561 0.44671 0.0
H185 H 0.9912 0.11436 0.38325 0.0
H186 H 0.04621 0.08415 0.40473 0.0
H187 H 0.97439 0.08595 0.42843 0.0
H188 H 0.02702 0.97772 0.7411 0.0
H189 H 0.07866 0.93902 0.85347 0.0
H190 H 0.02338 0.94269 0.74758 0.0
H191 H 0.08264 0.97454 0.84387 0.0
Eu192 Eu 0.53269 0.03805 0.69246 0.0
Eu193 Eu 0.51451 1.01053 0.57681 0.0
C194 C 0.5282 0.99248 0.71288 0.0
C195 C 0.57014 0.04918 0.81446 0.0
C196 C 0.57171 0.0301 0.83887 0.0
C197 C 0.60549 0.05086 0.8098 0.0
C198 C 0.58983 0.02121 0.84566 0.0
C199 C 0.58725 0.05974 0.80249 0.0
C200 C 0.60689 0.03124 0.82905 0.0
C201 C 0.55128 0.05595 0.78671 0.0
O202 O 0.48756 0.02157 0.62742 0.0
O203 O 0.5012 0.03458 0.72195 0.0
C204 C 0.48585 0.0289 0.68675 0.0
O205 O 0.51819 0.05901 0.62168 0.0
O206 O 0.51282 0.98211 0.52925 0.0
O207 O 0.49571 1.00613 0.49031 0.0
O208 O 0.52072 0.03979 0.53064 0.0
C209 C 0.51832 0.057 0.55761 0.0
O210 O 0.55756 0.03443 0.62249 0.0
O211 O 0.54724 1.00761 0.56422 0.0
O212 O 0.5136 0.99325 0.67049 0.0
O213 O 0.55182 0.06177 0.7259 0.0
O214 O 0.53626 0.04468 0.79675 0.0
O215 O 0.54075 1.0069 0.71642 0.0
C216 C 0.4808 0.97551 0.49085 0.0
C217 C 0.46991 0.97243 0.43292 0.0
C218 C 0.45466 0.96118 0.55321 0.0
C219 C 0.45124 0.96436 0.43517 0.0
C220 C 0.47329 0.96941 0.55092 0.0
C221 C 0.44313 0.95918 0.49559 0.0
C222 C 0.49861 0.98737 0.48943 0.0
C223 C 0.561 0.02019 0.58127 0.0
H224 H 0.55886 0.02142 0.84828 0.0
H225 H 0.61841 0.05915 0.79823 0.0
H226 H 0.59028 1.00607 0.86022 0.0
H227 H 0.58646 0.07442 0.78331 0.0
H228 H 0.47541 0.97726 0.3863 0.0
H229 H 0.44899 0.95718 0.6004 0.0
H230 H 0.44272 0.96343 0.38985 0.0
H231 H 0.48146 0.97182 0.5964 0.0
Eu232 Eu 0.51131 0.53824 0.71556 0.0
Eu233 Eu 0.5437 0.52158 0.61533 0.0
C234 C 0.55598 0.53557 0.75895 0.0
C235 C 0.47666 0.57318 0.79535 0.0
C236 C 0.48798 0.5901 0.78877 0.0
C237 C 0.44813 0.59329 0.81207 0.0
C238 C 0.47961 0.60841 0.79595 0.0
C239 C 0.45662 0.5749 0.80578 0.0
C240 C 0.45962 0.6103 0.80874 0.0
C241 C 0.48575 0.55381 0.79219 0.0
O242 O 0.53816 0.49688 0.68516 0.0
O243 O 0.5081 0.50543 0.72278 0.0
C244 C 0.522 0.4925 0.71528 0.0
O245 O 0.49714 0.53798 0.61491 0.0
O246 O 0.57397 0.51404 0.59831 0.0
O247 O 0.55233 0.50975 0.52071 0.0
O248 O 0.51414 0.51267 0.5726 0.0
C249 C 0.49869 0.52391 0.57187 0.0
O250 O 0.5252 0.56513 0.67157 0.0
O251 O 0.53755 0.55184 0.57797 0.0
O252 O 0.5598 0.53783 0.69673 0.0
O253 O 0.4809 0.54302 0.74163 0.0
O254 O 0.50441 0.55315 0.8061 0.0
O255 O 0.53825 0.53116 0.77642 0.0
C256 C 0.57688 0.48606 0.53216 0.0
C257 C 0.57887 0.47333 0.58573 0.0
C258 C 0.58512 0.45964 0.45895 0.0
C259 C 0.58387 0.45388 0.57592 0.0
C260 C 0.58029 0.47914 0.4689 0.0
C261 C 0.58674 0.44669 0.51228 0.0
C262 C 0.57009 0.50616 0.5413 0.0
C263 C 0.5322 0.56705 0.61234 0.0
H264 H 0.50345 0.58922 0.77979 0.0
H265 H 0.43265 0.59414 0.82065 0.0
H266 H 0.48911 0.62101 0.79418 0.0
H267 H 0.44758 0.56201 0.81006 0.0
H268 H 0.57621 0.4783 0.63514 0.0
H269 H 0.58684 0.45458 0.40913 0.0
H270 H 0.5852 0.44441 0.61816 0.0
H271 H 0.57866 0.48869 0.42694 0.0
Eu272 Eu 0.0354 0.53816 0.61289 0.0
Eu273 Eu 0.01899 0.50686 0.71842 0.0
C274 C 0.06496 0.51398 0.70966 0.0
C275 C 0.07187 0.56615 0.51794 0.0
C276 C 0.08584 0.55269 0.54009 0.0
C277 C 0.09744 0.58529 0.46886 0.0
C278 C 0.10548 0.55552 0.52699 0.0
C279 C 0.07772 0.58249 0.48243 0.0
C280 C 0.11152 0.57184 0.49124 0.0
C281 C 0.05147 0.56353 0.53565 0.0
O282 O 0.02555 0.53464 0.77518 0.0
O283 O 0.02073 0.55594 0.69109 0.0
C284 C 0.02217 0.5524 0.75423 0.0
O285 O 1.00378 0.53415 0.58182 0.0
O286 O 1.01473 0.4971 0.81902 0.0
O287 O 1.00191 0.48077 0.73824 0.0
O288 O 0.99259 0.52331 0.68019 0.0
C289 C 0.98934 0.53013 0.62084 0.0
O290 O 0.04223 0.50874 0.56828 0.0
O291 O 0.02006 0.49027 0.62288 0.0
O292 O 0.05132 0.50091 0.71993 0.0
O293 O 0.04302 0.54758 0.5145 0.0
O294 O 0.04806 0.56684 0.59718 0.0
O295 O 0.06095 0.53055 0.68024 0.0
C296 C 0.98216 0.48688 0.82652 0.0
C297 C 0.97363 0.50532 0.821 0.0
C298 C 0.95121 0.4737 0.86131 0.0
C299 C 0.95403 0.5079 0.83412 0.0
C300 C 0.97092 0.47107 0.84712 0.0
C301 C 0.9425 0.49214 0.85415 0.0
C302 C 1.00174 0.48409 0.80105 0.0
C303 C 0.03211 0.49256 0.57448 0.0
H304 H 0.08153 0.54 0.56771 0.0
H305 H 0.1017 0.59802 0.44136 0.0
H306 H 0.1159 0.54471 0.54381 0.0
H307 H 0.0671 0.5931 0.46562 0.0
H308 H 0.98198 0.51767 0.80411 0.0
H309 H 0.94279 0.4613 0.87732 0.0
H310 H 0.94781 0.5222 0.82648 0.0
H311 H 0.97722 0.45666 0.8506 0.0
C312 C 0.18409 0.04521 0.14916 0.0
C313 C 0.20211 0.03601 0.16207 0.0
C314 C 0.16967 0.04607 0.19662 0.0
C315 C 0.15493 0.02334 0.3561 0.0
H316 H 0.116 0.06406 0.34861 0.0
C317 C 0.09299 0.03228 0.54779 0.0
C318 C 0.07402 0.03414 0.52043 0.0
C319 C 0.10946 0.03319 0.508 0.0
C320 C 0.12673 0.05255 0.35132 0.0
H321 H 0.21909 0.02124 0.23783 0.0
H322 H 0.19447 0.02367 0.32165 0.0
H323 H 0.14344 0.06528 0.27534 0.0
H324 H 0.05779 0.03839 0.42896 0.0
H325 H 0.08636 0.04077 0.36067 0.0
H326 H 0.13824 1.01106 0.43392 0.0
C327 C 0.19114 0.02963 0.27363 0.0
C328 C 0.1425 0.05312 0.30875 0.0
C329 C 0.20552 0.02853 0.22559 0.0
C330 C 0.07206 0.03714 0.45228 0.0
C331 C 0.0885 0.03849 0.41288 0.0
C332 C 0.13933 0.023 0.39963 0.0
C333 C 0.17278 0.03814 0.25969 0.0
C334 C 0.15674 0.03832 0.30929 0.0
C335 C 0.10743 0.03641 0.44002 0.0
C336 C 0.12483 0.03743 0.39703 0.0
H337 H 0.18088 0.05158 0.10165 0.0
H338 H 0.15584 0.05253 0.18266 0.0
H339 H 0.16523 1.01146 0.35812 0.0
H340 H 0.09514 0.02983 0.5999 0.0
H341 H 0.12383 0.03157 0.53055 0.0
C342 C 0.51588 0.18521 0.14112 0.0
C343 C 0.50999 0.20415 0.1579 0.0
C344 C 0.51622 0.17027 0.18748 0.0
C345 C 0.51839 0.15942 0.36444 0.0
H346 H 0.49723 0.10956 0.30764 0.0
C347 C 0.51264 0.093 0.54095 0.0
C348 C 0.51645 0.07447 0.51466 0.0
C349 C 0.51113 0.10939 0.50012 0.0
C350 C 0.50344 0.12327 0.3243 0.0
H351 H 0.50047 0.2222 0.23829 0.0
H352 H 0.50139 0.19602 0.31994 0.0
H353 H 0.49633 0.13708 0.23289 0.0
H354 H 0.52185 0.05885 0.42443 0.0
H355 H 0.51961 0.08723 0.35395 0.0
H356 H 0.52587 0.14546 0.45557 0.0
C357 C 0.50563 0.19283 0.27028 0.0
C358 C 0.50286 0.13912 0.28134 0.0
C359 C 0.50515 0.20785 0.22348 0.0
C360 C 0.51875 0.0728 0.44656 0.0
C361 C 0.51734 0.08915 0.4059 0.0
C362 C 0.51911 0.14348 0.40747 0.0
C363 C 0.51086 0.17376 0.25247 0.0
C364 C 0.51054 0.15734 0.30042 0.0
C365 C 0.51344 0.10771 0.43189 0.0
C366 C 0.51186 0.12508 0.38769 0.0
H367 H 0.5203 0.18184 0.09178 0.0
H368 H 0.52079 0.1559 0.17234 0.0
H369 H 0.52454 0.17321 0.38062 0.0
H370 H 0.51075 0.09487 0.59314 0.0
H371 H 0.5079 0.12334 0.52204 0.0
C372 C 0.37645 0.49826 0.1237 0.0
C373 C 0.35903 0.50871 0.13127 0.0
C374 C 0.39122 0.49875 0.17245 0.0
C375 C 0.4099 0.52944 0.3092 0.0
H376 H 0.43952 0.48368 0.35948 0.0
C377 C 0.46525 0.53154 0.52658 0.0
C378 C 0.48272 0.52103 0.52188 0.0
C379 C 0.45021 0.5293 0.47956 0.0
C380 C 0.43159 0.49667 0.34547 0.0
H381 H 0.34348 0.52766 0.19692 0.0
H382 H 0.36913 0.52838 0.28208 0.0
H383 H 0.41308 0.48088 0.27746 0.0
H384 H 0.49794 0.49977 0.4637 0.0
H385 H 0.47181 0.49612 0.38073 0.0
H386 H 0.42847 0.54535 0.37606 0.0
C387 C 0.37143 0.5199 0.23813 0.0
C388 C 0.41636 0.49504 0.2985 0.0
C389 C 0.35661 0.5193 0.18959 0.0
C390 C 0.48468 0.50807 0.46899 0.0
C391 C 0.46962 0.5059 0.42155 0.0
C392 C 0.42516 0.5311 0.35575 0.0
C393 C 0.38903 0.50983 0.22989 0.0
C394 C 0.40524 0.5114 0.28001 0.0
C395 C 0.45219 0.51659 0.42597 0.0
C396 C 0.43618 0.51473 0.37498 0.0
H397 H 0.37875 0.48981 0.0797 0.0
H398 H 0.4046 0.4909 0.16424 0.0
H399 H 0.40194 0.54243 0.29522 0.0
H400 H 0.46309 0.54153 0.56689 0.0
H401 H 0.43692 0.53747 0.4857 0.0
C402 C 0.04859 0.37376 0.12237 0.0
C403 C 0.03838 0.35605 0.1284 0.0
C404 C 0.04865 0.38772 0.17249 0.0
C405 C 0.03799 0.39563 0.34955 0.0
H406 H 0.03548 0.44971 0.29618 0.0
C407 C 0.02392 0.45872 0.53356 0.0
C408 C 0.03392 0.47648 0.52533 0.0
C409 C 0.02505 0.44374 0.48694 0.0
C410 C 0.03644 0.43472 0.3122 0.0
H411 H 0.02067 0.33903 0.19357 0.0
H412 H 0.02057 0.36352 0.28126 0.0
H413 H 0.03613 0.42421 0.21336 0.0
H414 H 0.05319 0.49211 0.46106 0.0
H415 H 0.05522 0.46599 0.37994 0.0
H416 H 0.03808 0.40626 0.4486 0.0
C417 C 0.02871 0.36654 0.23762 0.0
C418 C 0.03683 0.42 0.26447 0.0
C419 C 0.02874 0.35245 0.18728 0.0
C420 C 0.04524 0.47871 0.4692 0.0
C421 C 0.0463 0.46373 0.42235 0.0
C422 C 0.03755 0.41038 0.39739 0.0
C423 C 0.03842 0.38455 0.23052 0.0
C424 C 0.0377 0.40019 0.28223 0.0
C425 C 0.03615 0.44602 0.43034 0.0
C426 C 0.03682 0.43018 0.37945 0.0
H427 H 0.05655 0.3769 0.07841 0.0
H428 H 0.05678 0.40107 0.16554 0.0
H429 H 0.03892 0.38063 0.36551 0.0
H430 H 1.01502 0.45638 0.57598 0.0
H431 H 0.01683 0.43048 0.49468 0.0
C432 C 0.86542 0.03261 0.13841 0.0
C433 C 0.84911 0.02009 0.133 0.0
C434 C 0.87976 0.03281 0.09051 0.0
C435 C 0.89026 0.01867 0.91817 0.0
H436 H 0.94409 0.02173 0.98024 0.0
C437 C 0.95545 0.03065 0.74296 0.0
C438 C 0.97301 0.02073 0.75688 0.0
C439 C 0.93988 0.02998 0.78652 0.0
C440 C 0.92917 0.02072 0.96182 0.0
H441 H 0.83508 0.99835 0.07047 0.0
H442 H 0.85996 0.99888 0.98651 0.0
H443 H 0.91791 0.02191 0.0588 0.0
H444 H 0.98759 1.00202 0.82799 0.0
H445 H 0.96058 1.00085 0.90351 0.0
H446 H 0.90163 0.01736 0.82105 0.0
C447 C 0.86162 1.00859 0.02818 0.0
C448 C 0.91407 0.02106 0.00705 0.0
C449 C 0.84726 1.00833 0.07643 0.0
C450 C 0.97438 1.00989 0.81534 0.0
C451 C 0.95887 1.00933 0.85908 0.0
C452 C 0.9054 0.01849 0.87279 0.0
C453 C 0.87829 0.02058 0.03511 0.0
C454 C 0.89435 0.02008 0.98608 0.0
C455 C 0.94141 0.01948 0.84569 0.0
C456 C 0.92512 0.01949 0.89389 0.0
H457 H 0.86724 0.04226 0.18019 0.0
H458 H 0.89206 0.04261 0.09705 0.0
H459 H 0.87532 0.018 0.89989 0.0
H460 H 0.95377 0.03919 0.69863 0.0
H461 H 0.9268 0.03814 0.77454 0.0
C462 C 0.5543 0.86277 0.12388 0.0
C463 C 0.5388 0.84941 0.12927 0.0
C464 C 0.55391 0.87721 0.07555 0.0
C465 C 0.52986 0.89219 0.91808 0.0
H466 H 0.54646 0.94382 0.9734 0.0
C467 C 0.516 0.96062 0.75713 0.0
C468 C 0.53024 0.97543 0.75755 0.0
C469 C 0.51758 0.94479 0.80016 0.0
C470 C 0.54203 0.92947 0.95661 0.0
H471 H 0.511 0.84047 0.08594 0.0
H472 H 0.51034 0.86563 1.00124 0.0
H473 H 0.54835 0.91694 0.0507 0.0
H474 H 0.55755 0.98491 0.80325 0.0
H475 H 0.56046 0.95725 0.87754 0.0
H476 H 0.52353 0.90476 0.8239 0.0
C477 C 0.52288 0.86487 0.03445 0.0
C478 C 0.5431 0.914 1.00114 0.0
C479 C 0.52327 0.85039 0.08301 0.0
C480 C 0.54623 0.97387 0.80174 0.0
C481 C 0.54784 0.95801 0.84471 0.0
C482 C 0.52885 0.90768 0.87339 0.0
C483 C 0.53802 0.87873 0.03091 0.0
C484 C 0.53703 0.89512 0.98262 0.0
C485 C 0.53348 0.94327 0.84484 0.0
C486 C 0.53488 0.92658 0.89201 0.0
H487 H 0.56671 0.86224 0.15772 0.0
H488 H 0.56606 0.88728 0.07346 0.0
H489 H 0.52528 0.87784 0.90172 0.0
H490 H 0.50344 0.96133 0.72397 0.0
H491 H 0.50607 0.93395 0.79923 0.0
C492 C 0.67545 0.54589 0.22139 0.0
C493 C 0.69471 0.55005 0.2035 0.0
C494 C 0.66061 0.54345 0.17355 0.0
C495 C 0.65162 0.53425 0.99502 0.0
H496 H 0.6013 0.55726 0.02828 0.0
C497 C 0.59122 0.54116 0.79199 0.0
C498 C 0.57187 0.53746 0.80974 0.0
C499 C 0.60622 0.54241 0.83985 0.0
C500 C 0.61517 0.55054 0.01838 0.0
H501 H 0.71334 0.55475 0.12059 0.0
H502 H 0.68756 0.5505 0.03742 0.0
H503 H 0.62727 0.5593 0.11168 0.0
H504 H 0.55319 0.53222 0.89221 0.0
H505 H 0.57926 0.53428 0.97531 0.0
H506 H 0.63951 0.52559 0.90151 0.0
C507 C 0.68394 0.54884 0.08848 0.0
C508 C 0.63011 0.55169 0.06638 0.0
C509 C 0.69878 0.55125 0.13632 0.0
C510 C 0.56789 0.53516 0.87662 0.0
C511 C 0.58286 0.53644 0.92444 0.0
C512 C 0.63668 0.53312 0.94696 0.0
C513 C 0.66458 0.54514 0.1064 0.0
C514 C 0.64856 0.54357 0.05544 0.0
C515 C 0.60226 0.54004 0.90678 0.0
C516 C 0.61824 0.54126 0.95794 0.0
H517 H 0.6718 0.54458 0.27255 0.0
H518 H 0.64599 0.54024 0.18929 0.0
H519 H 0.66552 0.52758 0.98508 0.0
H520 H 0.59485 0.54303 0.74101 0.0
H521 H 0.62091 0.54545 0.82438 0.0
C522 C 0.98966 0.67937 0.16796 0.0
C523 C 1.00405 0.6938 0.17853 0.0
C524 C 0.99211 0.66448 0.12188 0.0
C525 C 0.0205 0.65026 0.97553 0.0
H526 H 1.0011 0.59877 0.01699 0.0
C527 C 0.01641 0.58782 0.7815 0.0
C528 C 0.02029 0.56868 0.80252 0.0
C529 C 1.01491 0.60313 0.82691 0.0
C530 C 1.00679 0.61298 1.00455 0.0
H531 H 0.03237 0.70377 0.14739 0.0
H532 H 0.03672 0.6777 0.06703 0.0
H533 H 0.99829 0.62498 0.0964 0.0
H534 H 0.02575 0.55086 0.88856 0.0
H535 H 0.02341 0.57742 0.96725 0.0
H536 H 0.02937 0.63808 0.88409 0.0
C537 C 0.02338 0.67804 0.09425 0.0
C538 C 1.00494 0.62817 0.05002 0.0
C539 C 0.0209 0.69303 0.1405 0.0
C540 C 0.02264 0.56533 0.87031 0.0
C541 C 0.02118 0.58063 0.91568 0.0
C542 C 0.02236 0.63503 0.92995 0.0
C543 C 1.00906 0.66343 0.08455 0.0
C544 C 1.01164 0.64711 0.03621 0.0
C545 C 0.01727 0.5998 0.89481 0.0
C546 C 1.01549 0.61613 0.94363 0.0
H547 H 0.97625 0.67967 0.19489 0.0
H548 H 0.9805 0.65389 0.115 0.0
H549 H 0.02572 0.66461 0.9626 0.0
H550 H 1.01446 0.59102 0.72979 0.0
H551 H 1.01161 0.61756 0.80866 0.0
C552 C 0.0897 0.24257 0.14597 0.0
C553 C 0.07325 0.25457 0.14938 0.0
C554 C 0.09319 0.22849 0.19397 0.0
C555 C 0.07206 0.2051 0.34191 0.0
H556 H 0.06942 0.16037 0.22569 0.0
C557 C 0.02519 0.13782 0.39525 0.0
C558 C 0.03094 0.11947 0.37227 0.0
C559 C 0.036 0.15447 0.38075 0.0
C560 C 0.0706 0.17246 0.2597 0.0
H561 H 0.04949 0.26363 0.21006 0.0
H562 H 0.05527 0.23892 0.29319 0.0
H563 H 0.08168 0.19089 0.18564 0.0
H564 H 0.05265 0.10431 0.31589 0.0
H565 H 0.07185 0.13311 0.29303 0.0
H566 H 0.06012 0.18659 0.41525 0.0
C567 C 0.0656 0.24027 0.25413 0.0
C568 C 0.07775 0.19008 0.23668 0.0
C569 C 0.06224 0.25448 0.20641 0.0
C570 C 0.04785 0.11816 0.33492 0.0
C571 C 0.0588 0.13475 0.32129 0.0
C572 C 0.06503 0.18733 0.36527 0.0
C573 C 0.08005 0.2261 0.24521 0.0
C574 C 0.07784 0.2068 0.27656 0.0
C575 C 0.05293 0.15314 0.34351 0.0
C576 C 0.06348 0.17102 0.32348 0.0
H577 H 0.09851 0.24259 0.10259 0.0
H578 H 0.10476 0.21807 0.18684 0.0
H579 H 0.07208 0.21771 0.37388 0.0
H580 H 1.01247 0.13934 0.4252 0.0
H581 H 0.03081 0.16842 0.3977 0.0
C582 C 0.32074 0.01626 0.25301 0.0
C583 C 0.3045 1.00787 0.22069 0.0
C584 C 0.32851 1.00788 0.30991 0.0
C585 C 0.33437 0.96023 0.38293 0.0
H586 H 0.36442 0.9913 0.50811 0.0
C587 C 0.41248 0.94462 0.44651 0.0
C588 C 0.42197 0.95453 0.49855 0.0
C589 C 0.39224 0.94542 0.43875 0.0
C590 C 0.35581 0.98208 0.47536 0.0
H591 H 0.28298 0.98473 0.22398 0.0
H592 H 0.29668 0.96991 0.3241 0.0
H593 H 0.33804 1.00613 0.44582 0.0
H594 H 0.41733 0.97043 0.58902 0.0
H595 H 0.38206 0.97087 0.57737 0.0
H596 H 0.35251 0.93628 0.41119 0.0
C597 C 0.30339 0.98298 0.30519 0.0
C598 C 0.34077 0.99076 0.43885 0.0
C599 C 0.29552 0.99148 0.24819 0.0
C600 C 0.4106 0.96279 0.54781 0.0
C601 C 0.39029 0.96326 0.5407 0.0
C602 C 0.34926 0.95144 0.42022 0.0
C603 C 0.32024 0.99086 0.33583 0.0
C604 C 0.33092 0.9803 0.38887 0.0
C605 C 0.381 0.9559 0.48354 0.0
C606 C 0.36114 0.96265 0.46322 0.0
H607 H 0.32781 0.029 0.23307 0.0
H608 H 0.34169 1.01418 0.33143 0.0
H609 H 0.32689 0.95168 0.34532 0.0
H610 H 0.42079 0.93755 0.40884 0.0
H611 H 0.38577 0.93941 0.39416 0.0
C612 C 0.5739 0.3126 0.18782 0.0
C613 C 0.55736 0.30071 0.19457 0.0
C614 C 0.58263 0.32156 0.2426 0.0
C615 C 0.5654 0.34136 0.39475 0.0
H616 H 0.61807 0.3619 0.40876 0.0
C617 C 0.57961 0.41157 0.53655 0.0
C618 C 0.58989 0.42556 0.50067 0.0
C619 C 0.58022 0.39191 0.51916 0.0
C620 C 0.60332 0.35624 0.40577 0.0
H621 H 0.53838 0.28705 0.26445 0.0
H622 H 0.55384 0.30249 0.3605 0.0
H623 H 0.61129 0.3332 0.34076 0.0
H624 H 0.61032 0.42953 0.42228 0.0
H625 H 0.61065 0.39548 0.38996 0.0
H626 H 0.55705 0.36495 0.45567 0.0
C627 C 0.55982 0.30518 0.3127 0.0
C628 C 0.59946 0.33977 0.36702 0.0
C629 C 0.55106 0.29622 0.25778 0.0
C630 C 0.60185 0.41921 0.44996 0.0
C631 C 0.60231 0.39958 0.43215 0.0
C632 C 0.56923 0.3578 0.43318 0.0
C633 C 0.57499 0.31879 0.30525 0.0
C634 C 0.58028 0.33267 0.35884 0.0
C635 C 0.59093 0.38579 0.46501 0.0
C636 C 0.58807 0.36595 0.43691 0.0
H637 H 0.57925 0.31604 0.13966 0.0
H638 H 0.59425 0.33197 0.23486 0.0
H639 H 0.55041 0.3365 0.38901 0.0
H640 H 0.57019 0.41586 0.57581 0.0
H641 H 0.57156 0.38163 0.54629 0.0
C642 C 0.26085 0.54516 0.21516 0.0
C643 C 0.25579 0.52624 0.19464 0.0
C644 C 0.25148 0.5537 0.26811 0.0
C645 C 0.21684 0.54346 0.40222 0.0
H646 H 0.19316 0.59207 0.34694 0.0
C647 C 0.14716 0.56981 0.52104 0.0
C648 C 0.13232 0.57405 0.47454 0.0
C649 C 0.16662 0.56901 0.50254 0.0
C650 C 0.19976 0.57859 0.36349 0.0
H651 H 0.2384 0.50079 0.21613 0.0
H652 H 0.22199 0.51556 0.30786 0.0
H653 H 0.22094 0.57947 0.2885 0.0
H654 H 0.12631 0.58186 0.37319 0.0
H655 H 0.16008 0.58023 0.34063 0.0
H656 H 0.19464 0.5417 0.47346 0.0
C657 C 0.23318 0.5239 0.28383 0.0
C658 C 0.21586 0.57148 0.33052 0.0
C659 C 0.24243 0.51545 0.23088 0.0
C660 C 0.13743 0.57871 0.41024 0.0
C661 C 0.15685 0.57784 0.39168 0.0
C662 C 0.20069 0.55052 0.43496 0.0
C663 C 0.23704 0.54336 0.30151 0.0
C664 C 0.22393 0.55334 0.34744 0.0
C665 C 0.1716 0.57237 0.43711 0.0
C666 C 0.19138 0.56767 0.4138 0.0
H667 H 0.27111 0.55376 0.18778 0.0
H668 H 0.25487 0.56866 0.28098 0.0
H669 H 0.22297 0.5296 0.41708 0.0
H670 H 0.14366 0.56651 0.57132 0.0
H671 H 0.17767 0.56506 0.53892 0.0
C672 C 0.02512 0.78843 0.05812 0.0
C673 C 1.00902 0.79591 0.09102 0.0
C674 C 0.03036 0.79618 0.99777 0.0
C675 C 1.01501 0.83038 0.86579 0.0
H676 H 0.06568 0.85411 0.89962 0.0
C677 C 0.02908 0.90959 0.82262 0.0
C678 C 0.04764 0.91681 0.80778 0.0
C679 C 0.026 0.88974 0.83042 0.0
C680 C 0.05179 0.84724 0.88763 0.0
H681 H 0.98471 0.81584 0.08472 0.0
H682 H 0.99373 0.82936 0.97932 0.0
H683 H 0.05614 0.82573 0.96185 0.0
H684 H 0.07741 0.90877 0.78719 0.0
H685 H 0.07208 0.87378 0.8024 0.0
H686 H 1.01018 0.85277 0.79465 0.0
C687 C 1.00233 0.81754 0.9997 0.0
C688 C 0.04631 0.83092 0.9234 0.0
C689 C 0.99727 0.81 0.06032 0.0
C690 C 0.06301 0.90363 0.79955 0.0
C691 C 0.05993 0.88363 0.80765 0.0
C692 C 0.02056 0.8466 0.82959 0.0
C693 C 0.01939 0.81129 0.96921 0.0
C694 C 0.02738 0.82321 0.91591 0.0
C695 C 0.04141 0.87652 0.82394 0.0
C696 C 0.03844 0.85601 0.84364 0.0
H697 H 0.03437 0.77753 0.0811 0.0
H698 H 0.04355 0.79114 0.97521 0.0
H699 H 1.00045 0.82447 0.85841 0.0
H700 H 0.01701 0.91936 0.8305 0.0
H701 H 1.0117 0.88487 0.84491 0.0
C702 C 0.75747 0.99246 0.02337 0.0
C703 C 0.74933 0.98516 0.08099 0.0
C704 C 0.74825 0.98907 0.96254 0.0
C705 C 0.70194 0.96798 0.88754 0.0
H706 H 0.69569 0.0214 0.83022 0.0
C707 C 0.63026 1.00698 0.87757 0.0
C708 C 0.62585 0.0209 0.82913 0.0
C709 C 0.64795 0.99712 0.87767 0.0
C710 C 0.69746 1.00625 0.84376 0.0
H711 H 0.72725 0.96587 0.11892 0.0
H712 H 0.71056 0.96092 0.01452 0.0
H713 H 0.72557 1.01181 0.88568 0.0
H714 H 0.63635 0.03472 0.74099 0.0
H715 H 0.66786 0.01813 0.74354 0.0
H716 H 0.67264 0.96331 0.85178 0.0
C717 C 0.72405 0.96916 0.01508 0.0
C718 C 0.71473 1.00064 0.87561 0.0
C719 C 0.73344 0.97227 0.07559 0.0
C720 C 0.63947 0.02444 0.77996 0.0
C721 C 0.65736 0.01474 0.78067 0.0
C722 C 0.68451 0.97371 0.85654 0.0
C723 C 0.73052 0.97871 0.95854 0.0
C724 C 0.71655 0.98185 0.90258 0.0
C725 C 0.66179 1.0011 0.82987 0.0
C726 C 0.68169 0.99325 0.83874 0.0
H727 H 0.76989 1.00224 0.02561 0.0
H728 H 0.75404 0.99609 0.91966 0.0
H729 H 0.70313 0.9532 0.90544 0.0
H730 H 0.62027 1.00406 0.91669 0.0
H731 H 0.6512 0.98707 0.91728 0.0
C732 C 0.48971 0.75411 0.05901 0.0
C733 C 0.48471 0.75508 0.12516 0.0
C734 C 0.47788 0.74372 0.01419 0.0
C735 C 0.44785 0.70048 0.02399 0.0
H736 H 0.44506 0.705 0.83468 0.0
C737 C 0.43782 0.63177 0.87468 0.0
C738 C 0.45153 0.6298 0.82497 0.0
C739 C 0.43348 0.65009 0.90014 0.0
C740 C 0.44567 0.70351 0.88752 0.0
H741 H 0.46265 0.74813 0.19541 0.0
H742 H 0.44162 0.73053 0.11689 0.0
H743 H 0.45296 0.73367 0.90171 0.0
H744 H 0.46928 0.64594 0.757 0.0
H745 H 0.4629 0.67756 0.80436 0.0
H746 H 0.44216 0.6703 0.01089 0.0
C747 C 0.45483 0.73729 0.09967 0.0
C748 C 0.45012 0.71996 0.92585 0.0
C749 C 0.46676 0.74744 0.14451 0.0
C750 C 0.45923 0.64679 0.797 0.0
C751 C 0.45525 0.66507 0.82347 0.0
C752 C 0.44359 0.68409 0.98592 0.0
C753 C 0.46088 0.73427 0.03505 0.0
C754 C 0.45193 0.71845 0.99446 0.0
C755 C 0.4431 0.66685 0.8777 0.0
C756 C 0.44317 0.68518 0.91704 0.0
H757 H 0.50358 0.75981 0.04332 0.0
H758 H 0.48303 0.74162 0.96493 0.0
H759 H 0.44944 0.69862 0.07657 0.0
H760 H 0.43142 0.61912 0.89745 0.0
H761 H 0.42351 0.65095 0.94038 0.0
C762 C 0.78992 0.52244 0.09539 0.0
C763 C 0.79662 0.5394 0.12731 0.0
C764 C 0.79871 0.51615 0.03796 0.0
C765 C 0.83566 0.53007 0.91492 0.0
H766 H 0.85714 0.4791 0.9533 0.0
C767 C 0.9153 0.5127 0.89467 0.0
C768 C 0.92147 0.49518 0.86636 0.0
C769 C 0.89558 0.51627 0.90321 0.0
C770 C 0.85093 0.49309 0.94048 0.0
H771 H 0.81621 0.56407 0.12213 0.0
H772 H 0.83153 0.55328 0.02232 0.0
H773 H 0.82787 0.48972 0.00807 0.0
H774 H 0.91159 0.46752 0.82549 0.0
H775 H 0.8769 0.47348 0.84392 0.0
H776 H 0.85987 0.53407 0.85203 0.0
C777 C 0.81953 0.54476 0.04072 0.0
C778 C 0.83411 0.49919 0.97168 0.0
C779 C 0.81091 0.5509 0.09822 0.0
C780 C 0.90736 0.48109 0.84809 0.0
C781 C 0.88753 0.48455 0.85781 0.0
C782 C 0.85253 0.52402 0.88414 0.0
C783 C 0.81414 0.52689 0.01157 0.0
C784 C 0.82707 0.51821 0.96232 0.0
C785 C 0.88152 0.50228 0.88479 0.0
C786 C 0.86092 0.50596 0.8998 0.0
H787 H 0.77889 0.51338 0.1173 0.0
H788 H 0.79422 0.50238 0.01633 0.0
H789 H 0.83031 0.54465 0.90581 0.0
H790 H 0.92572 0.52367 0.91101 0.0
H791 H 0.89136 0.52982 0.92603 0.0
C792 C 0.05806 0.23129 0.89734 0.0
C793 C 0.04308 0.23935 0.93442 0.0
C794 C 0.05528 0.21367 0.86337 0.0
C795 C 0.02584 0.1684 0.87045 0.0
H796 H 0.0502 0.15669 0.70559 0.0
C797 C 0.03483 0.08889 0.77766 0.0
C798 C 0.03186 0.08514 0.71024 0.0
C799 C 0.03551 0.10806 0.80189 0.0
C800 C 0.04316 0.15968 0.75143 0.0
H801 H 1.01331 0.23536 0.96413 0.0
H802 H 1.00821 0.20469 0.90395 0.0
H803 H 0.05146 0.18982 0.74909 0.0
H804 H 0.02745 0.09897 0.61552 0.0
H805 H 0.02868 0.13223 0.65762 0.0
H806 H 0.01751 0.13829 0.87281 0.0
C807 C 0.02219 0.21199 0.90109 0.0
C808 C 0.04403 0.17872 0.77675 0.0
C809 C 0.02496 0.22974 0.93471 0.0
C810 C 0.02984 0.10118 0.66771 0.0
C811 C 0.03062 0.12035 0.6919 0.0
C812 C 0.02507 0.14934 0.84533 0.0
C813 C 0.03749 0.20342 0.86627 0.0
C814 C 0.03548 0.18338 0.83688 0.0
C815 C 0.03333 0.12411 0.75947 0.0
C816 C 0.03382 0.14462 0.78561 0.0
H817 H 0.07234 0.23812 0.8976 0.0
H818 H 0.0675 0.20754 0.83794 0.0
H819 H 0.01927 0.17126 0.91721 0.0
H820 H 0.03644 0.07699 0.81207 0.0
H821 H 0.03792 0.11028 0.85404 0.0
C822 C 0.32554 0.04364 0.96102 0.0
C823 C 0.32099 0.02616 0.99308 0.0
C824 C 0.34196 0.04488 0.92083 0.0
C825 C 0.37841 0.01434 0.83251 0.0
H826 H 0.41185 0.05974 0.85052 0.0
C827 C 0.44942 0.02229 0.68326 0.0
C828 C 0.466 0.03021 0.71589 0.0
C829 C 0.43099 0.02275 0.71203 0.0
C830 C 0.40276 0.04688 0.84499 0.0
H831 H 0.32971 0.99612 1.00574 0.0
H832 H 0.35792 0.99817 0.93604 0.0
H833 H 0.38097 0.05862 0.90757 0.0
H834 H 0.47579 0.04503 0.80483 0.0
H835 H 0.44389 0.04575 0.85478 0.0
H836 H 0.40038 1.00235 0.77151 0.0
C837 C 0.34895 1.01098 0.94133 0.0
C838 C 0.38484 0.04635 0.87718 0.0
C839 C 0.33275 1.00981 0.98167 0.0
C840 C 0.46346 0.03882 0.77785 0.0
C841 C 0.44503 0.03935 0.80649 0.0
C842 C 0.39626 0.0149 0.80014 0.0
C843 C 0.3541 0.02861 0.9111 0.0
C844 C 0.37248 0.02995 0.87222 0.0
C845 C 0.42848 0.0312 0.77434 0.0
C846 C 0.40888 0.03108 0.8064 0.0
H847 H 0.31691 0.05654 0.96921 0.0
H848 H 0.34527 0.05867 0.89795 0.0
H849 H 0.36929 1.00153 0.82663 0.0
H850 H 0.45068 0.01549 0.63559 0.0
H851 H 0.41866 0.01652 0.6851 0.0
C852 C 0.53828 0.33146 0.95853 0.0
C853 C 0.52275 0.32323 0.99268 0.0
C854 C 0.53566 0.34841 0.92159 0.0
C855 C 0.52426 0.37992 0.82336 0.0
H856 H 0.49897 0.42298 0.9096 0.0
C857 C 0.53523 0.45907 0.73812 0.0
C858 C 0.51986 0.47248 0.7425 0.0
C859 C 0.53363 0.44034 0.76432 0.0
C860 C 0.50579 0.41107 0.88409 0.0
H861 H 0.49218 0.32611 0.01423 0.0
H862 H 0.48751 0.35602 0.94964 0.0
H863 H 0.49909 0.39083 0.96039 0.0
H864 H 0.49056 0.4764 0.77768 0.0
H865 H 0.48762 0.44357 0.82254 0.0
H866 H 0.53105 0.40001 0.7472 0.0
C867 C 0.50173 0.34924 0.95133 0.0
C868 C 0.50586 0.39259 0.91335 0.0
C869 C 0.50432 0.33204 0.9877 0.0
C870 C 0.50273 0.46652 0.77353 0.0
C871 C 0.5011 0.44769 0.79963 0.0
C872 C 0.52408 0.39832 0.79389 0.0
C873 C 0.51746 0.35778 0.91851 0.0
C874 C 0.51543 0.37687 0.88399 0.0
C875 C 0.51655 0.43431 0.79549 0.0
C876 C 0.51521 0.4143 0.82442 0.0
H877 H 0.55268 0.32504 0.96208 0.0
H878 H 0.54814 0.35464 0.89769 0.0
H879 H 0.53151 0.36808 0.79883 0.0
H880 H 0.54871 0.46305 0.71493 0.0
H881 H 0.54603 0.43071 0.76114 0.0
C882 C 0.22401 0.48708 0.98861 0.0
C883 C 0.23799 0.5013 0.97379 0.0
C884 C 0.20648 0.48572 0.95225 0.0
C885 C 0.17959 0.50402 0.8022 0.0
H886 H 0.13446 0.49515 0.90917 0.0
C887 C 0.10052 0.52322 0.71693 0.0
C888 C 0.08535 0.51041 0.73359 0.0
C889 C 0.11959 0.52035 0.74105 0.0
C890 C 0.14688 0.49738 0.87824 0.0
H891 H 0.24495 0.52475 0.90778 0.0
H892 H 0.21423 0.52267 0.84454 0.0
H893 H 0.16698 0.49286 0.95834 0.0
H894 H 0.07862 0.48427 0.7881 0.0
H895 H 0.11186 0.47933 0.83042 0.0
H896 H 0.15923 0.50913 0.72253 0.0
C897 C 0.21687 0.51225 0.88343 0.0
C898 C 0.16564 0.49601 0.90645 0.0
C899 C 0.23456 0.51343 0.91948 0.0
C900 C 0.08986 0.49447 0.77432 0.0
C901 C 0.10893 0.49169 0.79889 0.0
C902 C 0.16077 0.50553 0.77406 0.0
C903 C 0.20228 0.4988 0.90075 0.0
C904 C 0.18232 0.49935 0.86901 0.0
C905 C 0.12404 0.50467 0.78296 0.0
C906 C 0.14415 0.50231 0.81181 0.0
H907 H 0.22627 0.47761 0.03049 0.0
H908 H 0.19592 0.47482 0.96612 0.0
H909 H 0.192 0.50647 0.77144 0.0
H910 H 0.09766 0.53565 0.6856 0.0
H911 H 0.13077 0.53076 0.72822 0.0
C912 C 0.98707 0.83131 0.31034 0.0
C913 C 1.00157 0.81718 0.32137 0.0
C914 C 0.98737 0.84894 0.34498 0.0
C915 C 1.00991 0.8756 0.48865 0.0
H916 H 0.99659 0.92094 0.3842 0.0
C917 C 0.02554 0.95486 0.57948 0.0
C918 C 1.01227 0.96969 0.56192 0.0
C919 C 0.02343 0.93594 0.55405 0.0
C920 C 1.00009 0.90849 0.41466 0.0
H921 H 0.02741 0.81032 0.37947 0.0
H922 H 0.02805 0.84123 0.44038 0.0
H923 H 0.9944 0.88872 0.33521 0.0
H924 H 0.98607 0.97583 0.50428 0.0
H925 H 0.98229 0.94287 0.46025 0.0
H926 H 1.01579 0.89554 0.568 0.0
C927 C 0.01626 0.83858 0.40517 0.0
C928 C 0.99883 0.88987 0.38639 0.0
C929 C 1.01589 0.82078 0.37048 0.0
C930 C 0.99663 0.9649 0.51882 0.0
C931 C 0.99455 0.94594 0.49316 0.0
C932 C 1.01118 0.89429 0.517 0.0
C933 C 1.0023 0.85318 0.39155 0.0
C934 C 1.00366 0.87307 0.42284 0.0
C935 C 1.00801 0.93116 0.50996 0.0
C936 C 1.00628 0.91107 0.48045 0.0
H937 H 0.97582 0.82897 0.27286 0.0
H938 H 0.97604 0.85946 0.33408 0.0
H939 H 1.01358 0.86312 0.51872 0.0
H940 H 0.03777 0.95787 0.6126 0.0
H941 H 0.03424 0.92516 0.56785 0.0
C942 C 0.71299 0.0234 0.26694 0.0
C943 C 0.72945 1.01373 0.29328 0.0
C944 C 0.69577 0.02493 0.30225 0.0
C945 C 0.67385 0.01935 0.46773 0.0
H946 H 0.62626 1.01174 0.36405 0.0
C947 C 0.59629 0.03094 0.57439 0.0
C948 C 0.5809 0.01869 0.55244 0.0
C949 C 0.61478 0.03006 0.54616 0.0
C950 C 0.63934 1.01373 0.39416 0.0
H951 H 0.74083 0.99883 0.3792 0.0
H952 H 0.71074 1.00158 0.44152 0.0
H953 H 0.65758 1.01127 0.31092 0.0
H954 H 0.57336 0.9956 0.48371 0.0
H955 H 0.60545 0.994 0.43484 0.0
H956 H 0.65547 0.0215 0.55123 0.0
C957 C 0.71119 1.00808 0.39329 0.0
C958 C 0.65743 1.01374 0.36335 0.0
C959 C 0.72853 1.00657 0.35772 0.0
C960 C 0.58472 1.00534 0.50193 0.0
C961 C 0.60319 1.00452 0.47348 0.0
C962 C 0.65568 0.01942 0.49862 0.0
C963 C 0.69432 0.01678 0.36524 0.0
C964 C 0.67503 0.01664 0.3994 0.0
C965 C 0.61852 0.01697 0.49472 0.0
C966 C 0.63809 0.01662 0.46232 0.0
H967 H 0.71318 0.02916 0.21757 0.0
H968 H 0.68342 0.03222 0.27934 0.0
H969 H 0.68696 0.02171 0.49738 0.0
H970 H 0.59405 0.04139 0.6133 0.0
H971 H 0.62602 0.04003 0.56375 0.0
C972 C 0.5245 0.73292 0.37493 0.0
C973 C 0.52781 0.73287 0.30724 0.0
C974 C 0.52693 0.71581 0.41196 0.0
C975 C 0.52716 0.66207 0.38709 0.0
H976 H 0.54443 0.66022 0.56934 0.0
C977 C 0.54035 0.58893 0.51809 0.0
C978 C 0.53354 0.58678 0.5822 0.0
C979 C 0.54069 0.60719 0.48784 0.0
C980 C 0.53942 0.66051 0.51859 0.0
H981 H 0.53734 0.71533 0.22599 0.0
H982 H 0.54236 0.68586 0.29035 0.0
H983 H 0.54403 0.69137 0.51118 0.0
H984 H 0.52208 0.60251 0.66508 0.0
H985 H 0.52268 0.63443 0.61209 0.0
H986 H 0.52254 0.63134 0.39415 0.0
C987 C 0.53729 0.6988 0.31499 0.0
C988 C 0.53918 0.6784 0.48517 0.0
C989 C 0.53468 0.71576 0.27812 0.0
C990 C 0.52745 0.60356 0.61573 0.0
C991 C 0.52787 0.6219 0.58542 0.0
C992 C 0.52748 0.64427 0.42026 0.0
C993 C 0.53281 0.69833 0.38199 0.0
C994 C 0.53317 0.67941 0.41869 0.0
C995 C 0.53425 0.62392 0.52068 0.0
C996 C 0.53371 0.64317 0.48635 0.0
H997 H 0.51894 0.74585 0.39838 0.0
H998 H 0.52326 0.71607 0.46326 0.0
H999 H 0.52187 0.66222 0.33663 0.0
H1000 H 0.54525 0.57644 0.49064 0.0
H1001 H 0.54602 0.60819 0.43841 0.0
C1002 C 0.83322 0.56174 0.34408 0.0
C1003 C 0.81701 0.55009 0.35887 0.0
C1004 C 0.85031 0.5611 0.38264 0.0
C1005 C 0.87717 0.52854 0.49796 0.0
H1006 H 0.91237 0.5728 0.51057 0.0
C1007 C 0.95313 0.52559 0.63262 0.0
C1008 C 0.96882 0.53346 0.59794 0.0
C1009 C 0.93381 0.5283 0.61039 0.0
C1010 C 0.90274 0.56028 0.50727 0.0
H1011 H 0.8057 0.5294 0.42822 0.0
H1012 H 0.83553 0.5286 0.49737 0.0
H1013 H 0.87957 0.57706 0.46443 0.0
H1014 H 0.97633 0.55058 0.513 0.0
H1015 H 0.94267 0.55552 0.47484 0.0
H1016 H 0.90049 0.51184 0.54141 0.0
C1017 C 0.83513 0.53796 0.45474 0.0
C1018 C 0.88389 0.56269 0.48064 0.0
C1019 C 0.81792 0.5386 0.41574 0.0
C1020 C 0.96466 0.5443 0.54093 0.0
C1021 C 0.94534 0.54723 0.51924 0.0
C1022 C 0.89599 0.52619 0.52539 0.0
C1023 C 0.85175 0.54887 0.43778 0.0
C1024 C 0.87094 0.54677 0.47406 0.0
C1025 C 0.92967 0.53918 0.55347 0.0
C1026 C 0.90915 0.54195 0.52908 0.0
H1027 H 0.83295 0.57082 0.30069 0.0
H1028 H 0.86271 0.56955 0.36704 0.0
H1029 H 0.86782 0.51586 0.49315 0.0
H1030 H 0.95574 0.51712 0.67666 0.0
H1031 H 0.9221 0.52202 0.63814 0.0
loop_
_geom_bond_atom_site_label_1
_geom_bond_atom_site_label_2
_geom_bond_distance
_geom_bond_site_symmetry_2
_ccdc_geom_bond_type
H0 C1 0.949 . S
C1 H0 0.949 . S
C1 C2 1.395 . S
C1 C3 1.391 . S
C2 C1 1.395 . S
C2 C5 1.390 . S
C3 C1 1.391 . S
C3 C7 1.387 . S
C3 C8 1.491 . S
H4 C5 0.950 . S
C5 C2 1.390 . S
C5 H4 0.950 . S
C5 C6 1.378 . S
C6 C5 1.378 . S
C6 C7 1.409 . S
C7 C3 1.387 . S
C7 C6 1.409 . S
C7 H9 0.951 . S
C8 C3 1.491 . S
C8 C10 1.382 . S
C8 C12 1.404 . S
H9 C7 0.951 . S
C10 C8 1.382 . S
C10 C11 1.390 . S
C10 H15 0.949 . S
C11 C10 1.390 . S
C11 C16 1.399 . S
C12 C8 1.404 . S
C12 H13 0.950 . S
C12 C14 1.375 . S
H13 C12 0.950 . S
C14 C12 1.375 . S
C14 C16 1.382 . S
C14 H18 0.950 . S
H15 C10 0.949 . S
C16 C11 1.399 . S
C16 C14 1.382 . S
C16 H17 0.952 . S
H17 C16 0.952 . S
H18 C14 0.950 . S
H19 C20 0.949 . S
C20 H19 0.949 . S
C20 C21 1.395 . S
C20 C22 1.391 . S
C21 C20 1.395 . S
C21 C24 1.390 . S
C22 C20 1.391 . S
C22 C26 1.387 . S
C22 C27 1.491 . S
H23 C24 0.950 . S
C24 C21 1.390 . S
C24 H23 0.950 . S
C24 C25 1.378 . S
C25 C24 1.378 . S
C25 C26 1.409 . S
C26 C22 1.387 . S
C26 C25 1.409 . S
C26 H28 0.951 . S
C27 C22 1.491 . S
C27 C29 1.382 . S
C27 C31 1.404 . S
H28 C26 0.951 . S
C29 C27 1.382 . S
C29 C30 1.390 . S
C29 H34 0.949 . S
C30 C29 1.390 . S
C30 C35 1.399 . S
C31 C27 1.404 . S
C31 H32 0.950 . S
C31 C33 1.375 . S
H32 C31 0.950 . S
C33 C31 1.375 . S
C33 C35 1.382 . S
C33 H37 0.950 . S
H34 C29 0.949 . S
C35 C30 1.399 . S
C35 C33 1.382 . S
C35 H36 0.952 . S
H36 C35 0.952 . S
H37 C33 0.950 . S
H38 C39 0.949 . S
C39 H38 0.949 . S
C39 C40 1.395 . S
C39 C41 1.391 . S
C40 C39 1.395 . S
C40 C43 1.390 . S
C41 C39 1.391 . S
C41 C45 1.387 . S
C41 C46 1.491 . S
H42 C43 0.950 . S
C43 C40 1.390 . S
C43 H42 0.950 . S
C43 C44 1.378 . S
C44 C43 1.378 . S
C44 C45 1.409 . S
C45 C41 1.387 . S
C45 C44 1.409 . S
C45 H47 0.951 . S
C46 C41 1.491 . S
C46 C48 1.382 . S
C46 C50 1.404 . S
H47 C45 0.951 . S
C48 C46 1.382 . S
C48 C49 1.390 . S
C48 H53 0.949 . S
C49 C48 1.390 . S
C49 C54 1.399 . S
C50 C46 1.404 . S
C50 H51 0.950 . S
C50 C52 1.375 . S
H51 C50 0.950 . S
C52 C50 1.375 . S
C52 C54 1.382 . S
C52 H56 0.950 . S
H53 C48 0.949 . S
C54 C49 1.399 . S
C54 C52 1.382 . S
C54 H55 0.952 . S
H55 C54 0.952 . S
H56 C52 0.950 . S
H57 C58 0.949 . S
C58 H57 0.949 . S
C58 C59 1.395 . S
C58 C60 1.391 . S
C59 C58 1.395 . S
C59 C62 1.390 . S
C60 C58 1.391 . S
C60 C64 1.387 . S
C60 C65 1.491 . S
H61 C62 0.950 . S
C62 C59 1.390 . S
C62 H61 0.950 . S
C62 C63 1.378 . S
C63 C62 1.378 . S
C63 C64 1.409 . S
C64 C60 1.387 . S
C64 C63 1.409 . S
C64 H66 0.951 . S
C65 C60 1.491 . S
C65 C67 1.382 . S
C65 C69 1.404 . S
H66 C64 0.951 . S
C67 C65 1.382 . S
C67 C68 1.390 . S
C67 H72 0.949 . S
C68 C67 1.390 . S
C68 C73 1.399 . S
C69 C65 1.404 . S
C69 H70 0.950 . S
C69 C71 1.375 . S
H70 C69 0.950 . S
C71 C69 1.375 . S
C71 C73 1.382 . S
C71 H75 0.950 . S
H72 C67 0.949 . S
C73 C68 1.399 . S
C73 C71 1.382 . S
C73 H74 0.952 . S
H74 C73 0.952 . S
H75 C71 0.950 . S
H76 C77 0.949 . S
C77 H76 0.949 . S
C77 C78 1.395 . S
C77 C79 1.391 . S
C78 C77 1.395 . S
C78 C81 1.390 . S
C79 C77 1.391 . S
C79 C83 1.387 . S
C79 C84 1.491 . S
H80 C81 0.950 . S
C81 C78 1.390 . S
C81 H80 0.950 . S
C81 C82 1.378 1_554 S
C82 C81 1.378 1_556 S
C82 C83 1.409 1_556 S
C83 C79 1.387 . S
C83 C82 1.409 1_554 S
C83 H85 0.951 1_554 S
C84 C79 1.491 . S
C84 C86 1.382 . S
C84 C88 1.404 . S
H85 C83 0.951 1_556 S
C86 C84 1.382 . S
C86 C87 1.390 . S
C86 H91 0.949 . S
C87 C86 1.390 . S
C87 C92 1.399 . S
C88 C84 1.404 . S
C88 H89 0.950 1_554 S
C88 C90 1.375 . S
H89 C88 0.950 1_556 S
C90 C88 1.375 . S
C90 C92 1.382 . S
C90 H94 0.955 . S
H91 C86 0.949 . S
C92 C87 1.399 . S
C92 C90 1.382 . S
C92 H93 0.952 . S
H93 C92 0.952 . S
H94 C90 0.955 . S
H95 C96 0.949 . S
C96 H95 0.949 . S
C96 C97 1.395 . S
C96 C98 1.391 . S
C97 C96 1.395 . S
C97 C100 1.390 . S
C98 C96 1.391 . S
C98 C102 1.387 1_554 S
C98 C103 1.491 . S
H99 C100 0.950 . S
C100 C97 1.390 . S
C100 H99 0.950 . S
C100 C101 1.378 1_554 S
C101 C100 1.378 1_556 S
C101 C102 1.409 . S
C102 C98 1.387 1_556 S
C102 C101 1.409 . S
C102 H104 0.951 . S
C103 C98 1.491 . S
C103 C105 1.382 . S
C103 C107 1.404 1_554 S
H104 C102 0.951 . S
C105 C103 1.382 . S
C105 C106 1.390 . S
C105 H110 0.949 . S
C106 C105 1.390 . S
C106 C111 1.399 . S
C107 C103 1.404 1_556 S
C107 H108 0.950 . S
C107 C109 1.375 . S
H108 C107 0.950 . S
C109 C107 1.375 . S
C109 C111 1.382 1_556 S
C109 H113 0.950 . S
H110 C105 0.949 . S
C111 C106 1.399 . S
C111 C109 1.382 1_554 S
C111 H112 0.952 . S
H112 C111 0.952 . S
H113 C109 0.950 . S
H114 C115 0.949 . S
C115 H114 0.949 . S
C115 C116 1.395 . S
C115 C117 1.391 1_554 S
C116 C115 1.395 . S
C116 C119 1.390 1_554 S
C117 C115 1.391 1_556 S
C117 C121 1.387 . S
C117 C122 1.491 . S
H118 C119 0.950 . S
C119 C116 1.390 1_556 S
C119 H118 0.950 . S
C119 C120 1.378 . S
C120 C119 1.378 . S
C120 C121 1.409 . S
C121 C117 1.387 . S
C121 C120 1.409 . S
C121 H123 0.951 . S
C122 C117 1.491 . S
C122 C124 1.382 1_556 S
C122 C126 1.404 . S
H123 C121 0.951 . S
C124 C122 1.382 1_554 S
C124 C125 1.390 . S
C124 H129 0.949 . S
C125 C124 1.390 . S
C125 C130 1.399 1_554 S
C126 C122 1.404 . S
C126 H127 0.950 . S
C126 C128 1.375 . S
H127 C126 0.950 . S
C128 C126 1.375 . S
C128 C130 1.382 . S
C128 H132 0.950 . S
H129 C124 0.949 . S
C130 C125 1.399 1_556 S
C130 C128 1.382 . S
C130 H131 0.952 . S
H131 C130 0.952 . S
H132 C128 0.950 . S
H133 C134 0.949 . S
C134 H133 0.949 . S
C134 C135 1.395 . S
C134 C136 1.391 . S
C135 C134 1.395 . S
C135 C138 1.390 . S
C136 C134 1.391 . S
C136 C140 1.387 1_554 S
C136 C141 1.491 . S
H137 C138 0.950 . S
C138 C135 1.390 . S
C138 H137 0.950 . S
C138 C139 1.378 1_554 S
C139 C138 1.378 1_556 S
C139 C140 1.409 . S
C140 C136 1.387 1_556 S
C140 C139 1.409 . S
C140 H142 0.951 . S
C141 C136 1.491 . S
C141 C143 1.382 . S
C141 C145 1.404 . S
H142 C140 0.951 . S
C143 C141 1.382 . S
C143 C144 1.390 . S
C143 H148 0.949 . S
C144 C143 1.390 . S
C144 C149 1.399 . S
C145 C141 1.404 . S
C145 H146 0.950 1_554 S
C145 C147 1.375 . S
H146 C145 0.950 1_556 S
C147 C145 1.375 . S
C147 C149 1.382 . S
C147 H151 0.950 1_554 S
H148 C143 0.949 . S
C149 C144 1.399 . S
C149 C147 1.382 . S
C149 H150 0.952 . S
H150 C149 0.952 . S
H151 C147 0.950 1_556 S
Eu152 C161 2.824 1_655 S
Eu152 O163 2.392 . S
Eu152 O165 2.418 1_545 S
Eu152 O170 2.373 1_655 S
Eu152 O173 2.488 . S
Eu152 O174 2.471 1_655 S
Eu152 O175 2.349 1_655 S
Eu153 O162 2.380 1_455 S
Eu153 O166 2.488 . S
Eu153 O167 2.471 . S
Eu153 O168 2.349 . S
Eu153 O171 2.392 1_565 S
Eu153 O172 2.418 1_565 S
Eu153 C182 2.828 . S
C154 O172 1.244 . S
C154 O175 1.265 . S
C155 C156 1.379 . S
C155 C159 1.373 1_455 S
C155 C161 1.510 . S
C156 C155 1.379 . S
C156 C158 1.369 . S
C156 H184 0.930 . S
C157 C159 1.369 1_455 S
C157 C160 1.421 . S
C157 H185 0.910 1_455 S
C158 C156 1.369 . S
C158 C160 1.392 . S
C158 H186 0.930 . S
C159 C155 1.373 1_655 S
C159 C157 1.369 1_655 S
C159 H187 0.931 . S
C160 C157 1.421 . S
C160 C158 1.392 . S
C161 Eu152 2.824 1_455 S
C161 C155 1.510 . S
C161 O173 1.242 1_455 S
C161 O174 1.247 . S
O162 Eu153 2.380 1_655 S
O162 C164 1.249 1_565 S
O163 Eu152 2.392 . S
O163 C164 1.242 . S
C164 O162 1.249 1_545 S
C164 O163 1.242 . S
O165 Eu152 2.418 1_565 S
O165 C169 1.266 . S
O166 Eu153 2.488 . S
O166 C182 1.249 . S
O167 Eu153 2.471 . S
O167 C182 1.244 . S
O168 Eu153 2.349 . S
O168 C169 1.246 1_455 S
C169 O165 1.266 . S
C169 O168 1.246 1_655 S
O170 Eu152 2.373 1_455 S
O170 C183 1.258 . S
O171 Eu153 2.392 1_545 S
O171 C183 1.242 . S
O172 Eu153 2.418 1_545 S
O172 C154 1.244 . S
O173 Eu152 2.488 . S
O173 C161 1.242 1_655 S
O174 Eu152 2.471 1_455 S
O174 C161 1.247 . S
O175 Eu152 2.349 1_455 S
O175 C154 1.265 . S
C176 C177 1.379 . S
C176 C180 1.373 . S
C176 C182 1.505 . S
C177 C176 1.379 . S
C177 C179 1.369 1_455 S
C177 H188 0.930 1_455 S
C178 C180 1.383 . S
C178 C181 1.382 . S
C178 H189 0.930 1_556 S
C179 C177 1.369 1_655 S
C179 C181 1.392 1_655 S
C179 H190 0.930 . S
C180 C176 1.373 . S
C180 C178 1.383 . S
C180 H191 0.931 . S
C181 C178 1.382 . S
C181 C179 1.392 1_455 S
C182 Eu153 2.828 . S
C182 O166 1.249 . S
C182 O167 1.244 . S
C182 C176 1.505 . S
C183 O170 1.258 . S
C183 O171 1.242 . S
H184 C156 0.930 . S
H185 C157 0.910 1_655 S
H186 C158 0.930 . S
H187 C159 0.931 . S
H188 C177 0.930 1_655 S
H189 C178 0.930 1_554 S
H190 C179 0.930 . S
H191 C180 0.931 . S
Eu192 C201 2.828 . S
Eu192 O203 2.392 . S
Eu192 O205 2.418 . S
Eu192 O210 2.373 . S
Eu192 O213 2.488 . S
Eu192 O214 2.471 . S
Eu192 O215 2.349 1_545 S
Eu193 O202 2.373 1_565 S
Eu193 O206 2.488 . S
Eu193 O207 2.471 1_565 S
Eu193 O208 2.349 1_565 S
Eu193 O211 2.392 . S
Eu193 O212 2.418 . S
Eu193 C222 2.828 . S
C194 O212 1.244 . S
C194 O215 1.265 . S
C195 C196 1.432 . S
C195 C199 1.373 . S
C195 C201 1.505 . S
C196 C195 1.432 . S
C196 C198 1.364 1_545 S
C196 H224 0.883 1_545 S
C197 C199 1.383 . S
C197 C200 1.382 . S
C197 H225 0.930 . S
C198 C196 1.364 1_565 S
C198 C200 1.360 1_565 S
C198 H226 0.967 . S
C199 C195 1.373 . S
C199 C197 1.383 . S
C199 H227 0.931 . S
C200 C197 1.382 . S
C200 C198 1.360 1_545 S
C201 Eu192 2.828 . S
C201 C195 1.505 . S
C201 O213 1.249 . S
C201 O214 1.244 . S
O202 Eu193 2.373 1_545 S
O202 C204 1.258 . S
O203 Eu192 2.392 . S
O203 C204 1.242 . S
C204 O202 1.258 . S
C204 O203 1.242 . S
O205 Eu192 2.418 . S
O205 C209 1.244 . S
O206 Eu193 2.488 . S
O206 C222 1.249 . S
O207 Eu193 2.471 1_545 S
O207 C222 1.244 1_545 S
O208 Eu193 2.349 1_545 S
O208 C209 1.265 . S
C209 O205 1.244 . S
C209 O208 1.265 . S
O210 Eu192 2.373 . S
O210 C223 1.230 1_545 S
O211 Eu193 2.392 . S
O211 C223 1.261 . S
O212 Eu193 2.418 . S
O212 C194 1.244 . S
O213 Eu192 2.488 . S
O213 C201 1.249 . S
O214 Eu192 2.471 . S
O214 C201 1.244 . S
O215 Eu192 2.349 1_565 S
O215 C194 1.265 . S
C216 C217 1.370 1_565 S
C216 C220 1.381 . S
C216 C222 1.506 . S
C217 C216 1.370 1_545 S
C217 C219 1.369 . S
C217 H228 0.930 . S
C218 C220 1.383 . S
C218 C221 1.382 1_565 S
C218 H229 0.930 . S
C219 C217 1.369 . S
C219 C221 1.392 . S
C219 H230 0.930 . S
C220 C216 1.381 . S
C220 C218 1.383 . S
C220 H231 0.931 . S
C221 C218 1.382 1_545 S
C221 C219 1.392 . S
C222 Eu193 2.828 . S
C222 O206 1.249 . S
C222 O207 1.244 1_565 S
C222 C216 1.506 . S
C223 O210 1.230 1_565 S
C223 O211 1.261 . S
H224 C196 0.883 1_565 S
H225 C197 0.930 . S
H226 C198 0.967 . S
H227 C199 0.931 . S
H228 C217 0.930 . S
H229 C218 0.930 . S
H230 C219 0.930 . S
H231 C220 0.931 . S
Eu232 C241 2.828 . S
Eu232 O243 2.392 . S
Eu232 O245 2.418 . S
Eu232 O250 2.373 . S
Eu232 O253 2.488 . S
Eu232 O254 2.471 . S
Eu232 O255 2.349 . S
Eu233 O242 2.373 . S
Eu233 O246 2.488 . S
Eu233 O247 2.471 . S
Eu233 O248 2.349 . S
Eu233 O251 2.392 . S
Eu233 O252 2.418 . S
Eu233 C262 2.828 . S
C234 O252 1.244 . S
C234 O255 1.265 . S
C235 C236 1.379 . S
C235 C239 1.373 . S
C235 C241 1.505 . S
C236 C235 1.379 . S
C236 C238 1.369 . S
C236 H264 0.930 . S
C237 C239 1.383 . S
C237 C240 1.382 . S
C237 H265 0.930 . S
C238 C236 1.369 . S
C238 C240 1.392 . S
C238 H266 0.930 . S
C239 C235 1.373 . S
C239 C237 1.383 . S
C239 H267 0.931 . S
C240 C237 1.382 . S
C240 C238 1.392 . S
C241 Eu232 2.828 . S
C241 C235 1.505 . S
C241 O253 1.249 . S
C241 O254 1.244 . S
O242 Eu233 2.373 . S
O242 C244 1.258 . S
O243 Eu232 2.392 . S
O243 C244 1.242 . S
C244 O242 1.258 . S
C244 O243 1.242 . S
O245 Eu232 2.418 . S
O245 C249 1.244 . S
O246 Eu233 2.488 . S
O246 C262 1.249 . S
O247 Eu233 2.471 . S
O247 C262 1.244 . S
O248 Eu233 2.349 . S
O248 C249 1.265 . S
C249 O245 1.244 . S
C249 O248 1.265 . S
O250 Eu232 2.373 . S
O250 C263 1.258 . S
O251 Eu233 2.392 . S
O251 C263 1.242 . S
O252 Eu233 2.418 . S
O252 C234 1.244 . S
O253 Eu232 2.488 . S
O253 C241 1.249 . S
O254 Eu232 2.471 . S
O254 C241 1.244 . S
O255 Eu232 2.349 . S
O255 C234 1.265 . S
C256 C257 1.379 . S
C256 C260 1.373 . S
C256 C262 1.505 . S
C257 C256 1.379 . S
C257 C259 1.369 . S
C257 H268 0.930 . S
C258 C260 1.383 . S
C258 C261 1.382 . S
C258 H269 0.930 . S
C259 C257 1.369 . S
C259 C261 1.392 . S
C259 H270 0.930 . S
C260 C256 1.373 . S
C260 C258 1.383 . S
C260 H271 0.931 . S
C261 C258 1.382 . S
C261 C259 1.392 . S
C262 Eu233 2.828 . S
C262 O246 1.249 . S
C262 O247 1.244 . S
C262 C256 1.505 . S
C263 O250 1.258 . S
C263 O251 1.242 . S
H264 C236 0.930 . S
H265 C237 0.930 . S
H266 C238 0.930 . S
H267 C239 0.931 . S
H268 C257 0.930 . S
H269 C258 0.930 . S
H270 C259 0.930 . S
H271 C260 0.931 . S
Eu272 C281 2.828 . S
Eu272 O283 2.392 . S
Eu272 O285 2.418 1_455 S
Eu272 O290 2.373 . S
Eu272 O293 2.488 . S
Eu272 O294 2.471 . S
Eu272 O295 2.349 . S
Eu273 O282 2.374 . S
Eu273 O286 2.488 . S
Eu273 O287 2.471 . S
Eu273 O288 2.349 . S
Eu273 O291 2.392 1_655 S
Eu273 O292 2.418 1_655 S
Eu273 C302 2.828 . S
C274 O292 1.244 . S
C274 O295 1.265 . S
C275 C276 1.379 . S
C275 C279 1.373 . S
C275 C281 1.505 . S
C276 C275 1.379 . S
C276 C278 1.369 . S
C276 H304 0.930 . S
C277 C279 1.383 . S
C277 C280 1.382 . S
C277 H305 0.930 . S
C278 C276 1.369 . S
C278 C280 1.392 . S
C278 H306 0.930 . S
C279 C275 1.373 . S
C279 C277 1.383 . S
C279 H307 0.931 . S
C280 C277 1.382 . S
C280 C278 1.392 . S
C281 Eu272 2.828 . S
C281 C275 1.505 . S
C281 O293 1.249 . S
C281 O294 1.244 . S
O282 Eu273 2.374 . S
O282 C284 1.255 1_655 S
O283 Eu272 2.392 . S
O283 C284 1.242 . S
C284 O282 1.255 1_455 S
C284 O283 1.242 . S
O285 Eu272 2.418 1_655 S
O285 C289 1.244 . S
O286 Eu273 2.488 . S
O286 C302 1.249 . S
O287 Eu273 2.471 . S
O287 C302 1.244 . S
O288 Eu273 2.349 . S
O288 C289 1.265 . S
C289 O285 1.244 . S
C289 O288 1.265 . S
O290 Eu272 2.373 . S
O290 C303 1.258 . S
O291 Eu273 2.392 1_455 S
O291 C303 1.242 . S
O292 Eu273 2.418 1_455 S
O292 C274 1.244 . S
O293 Eu272 2.488 . S
O293 C281 1.249 . S
O294 Eu272 2.471 . S
O294 C281 1.244 . S
O295 Eu272 2.349 . S
O295 C274 1.265 . S
C296 C297 1.379 . S
C296 C300 1.373 . S
C296 C302 1.505 . S
C297 C296 1.379 . S
C297 C299 1.369 . S
C297 H308 0.930 . S
C298 C300 1.383 . S
C298 C301 1.382 . S
C298 H309 0.930 . S
C299 C297 1.369 . S
C299 C301 1.392 . S
C299 H310 0.930 . S
C300 C296 1.373 . S
C300 C298 1.383 . S
C300 H311 0.931 . S
C301 C298 1.382 . S
C301 C299 1.392 . S
C302 Eu273 2.828 . S
C302 O286 1.249 . S
C302 O287 1.244 . S
C302 C296 1.505 . S
C303 O290 1.258 . S
C303 O291 1.242 . S
H304 C276 0.930 . S
H305 C277 0.930 . S
H306 C278 0.930 . S
H307 C279 0.931 . S
H308 C297 0.930 . S
H309 C298 0.930 . S
H310 C299 0.930 . S
H311 C300 0.931 . S
C312 C313 1.349 . S
C312 C314 1.327 . S
C312 H337 0.950 . S
C313 C312 1.349 . S
C313 C329 1.349 . S
C314 C312 1.327 . S
C314 C333 1.429 . S
C314 H338 0.950 . S
C315 C332 1.574 . S
C315 C334 1.368 . S
C315 H339 0.949 . S
H316 C320 0.949 . S
C317 C318 1.349 . S
C317 C319 1.327 . S
C317 H340 0.950 1_545 S
C318 C317 1.349 . S
C318 C330 1.349 . S
C319 C317 1.327 . S
C319 C335 1.429 . S
C319 H341 0.950 1_545 S
C320 H316 0.949 . S
C320 C328 1.574 . S
C320 C336 1.368 . S
H321 C329 0.950 . S
H322 C327 0.950 . S
H323 C328 0.949 . S
H324 C330 0.950 . S
H325 C331 0.950 . S
H326 C332 0.952 1_565 S
C327 H322 0.950 . S
C327 C329 1.327 . S
C327 C333 1.429 . S
C328 C320 1.574 . S
C328 H323 0.949 . S
C328 C334 1.368 . S
C329 C313 1.349 . S
C329 H321 0.950 . S
C329 C327 1.327 . S
C330 C318 1.349 . S
C330 H324 0.950 . S
C330 C331 1.327 . S
C331 H325 0.950 . S
C331 C330 1.327 . S
C331 C335 1.429 . S
C332 C315 1.574 . S
C332 H326 0.952 1_545 S
C332 C336 1.368 . S
C333 C314 1.429 . S
C333 C327 1.429 . S
C333 C334 1.523 . S
C334 C315 1.368 . S
C334 C328 1.368 . S
C334 C333 1.523 . S
C335 C319 1.429 . S
C335 C331 1.429 . S
C335 C336 1.523 . S
C336 C320 1.368 . S
C336 C332 1.368 . S
C336 C335 1.523 . S
H337 C312 0.950 . S
H338 C314 0.950 . S
H339 C315 0.949 . S
H340 C317 0.950 1_565 S
H341 C319 0.950 1_565 S
C342 C343 1.349 . S
C342 C344 1.327 . S
C342 H367 0.950 . S
C343 C342 1.349 . S
C343 C359 1.349 . S
C344 C342 1.327 . S
C344 C363 1.429 . S
C344 H368 0.950 . S
C345 C362 1.574 . S
C345 C364 1.368 . S
C345 H369 0.949 . S
H346 C350 0.949 . S
C347 C348 1.349 . S
C347 C349 1.327 . S
C347 H370 0.950 . S
C348 C347 1.349 . S
C348 C360 1.349 . S
C349 C347 1.327 . S
C349 C365 1.429 . S
C349 H371 0.950 . S
C350 H346 0.949 . S
C350 C358 1.574 . S
C350 C366 1.368 . S
H351 C359 0.950 . S
H352 C357 0.950 . S
H353 C358 0.949 . S
H354 C360 0.950 . S
H355 C361 0.950 . S
H356 C362 0.949 . S
C357 H352 0.950 . S
C357 C359 1.327 . S
C357 C363 1.429 . S
C358 C350 1.574 . S
C358 H353 0.949 . S
C358 C364 1.368 . S
C359 C343 1.349 . S
C359 H351 0.950 . S
C359 C357 1.327 . S
C360 C348 1.349 . S
C360 H354 0.950 . S
C360 C361 1.327 . S
C361 H355 0.950 . S
C361 C360 1.327 . S
C361 C365 1.429 . S
C362 C345 1.574 . S
C362 H356 0.949 . S
C362 C366 1.368 . S
C363 C344 1.429 . S
C363 C357 1.429 . S
C363 C364 1.523 . S
C364 C345 1.368 . S
C364 C358 1.368 . S
C364 C363 1.523 . S
C365 C349 1.429 . S
C365 C361 1.429 . S
C365 C366 1.523 . S
C366 C350 1.368 . S
C366 C362 1.368 . S
C366 C365 1.523 . S
H367 C342 0.950 . S
H368 C344 0.950 . S
H369 C345 0.949 . S
H370 C347 0.950 . S
H371 C349 0.950 . S
C372 C373 1.349 . S
C372 C374 1.327 . S
C372 H397 0.950 . S
C373 C372 1.349 . S
C373 C389 1.349 . S
C374 C372 1.327 . S
C374 C393 1.429 . S
C374 H398 0.950 . S
C375 C392 1.574 . S
C375 C394 1.368 . S
C375 H399 0.949 . S
H376 C380 0.949 . S
C377 C378 1.349 . S
C377 C379 1.327 . S
C377 H400 0.950 . S
C378 C377 1.349 . S
C378 C390 1.349 . S
C379 C377 1.327 . S
C379 C395 1.429 . S
C379 H401 0.950 . S
C380 H376 0.949 . S
C380 C388 1.574 . S
C380 C396 1.368 . S
H381 C389 0.950 . S
H382 C387 0.950 . S
H383 C388 0.949 . S
H384 C390 0.950 . S
H385 C391 0.950 . S
H386 C392 0.949 . S
C387 H382 0.950 . S
C387 C389 1.327 . S
C387 C393 1.429 . S
C388 C380 1.574 . S
C388 H383 0.949 . S
C388 C394 1.368 . S
C389 C373 1.349 . S
C389 H381 0.950 . S
C389 C387 1.327 . S
C390 C378 1.349 . S
C390 H384 0.950 . S
C390 C391 1.327 . S
C391 H385 0.950 . S
C391 C390 1.327 . S
C391 C395 1.429 . S
C392 C375 1.574 . S
C392 H386 0.949 . S
C392 C396 1.368 . S
C393 C374 1.429 . S
C393 C387 1.429 . S
C393 C394 1.523 . S
C394 C375 1.368 . S
C394 C388 1.368 . S
C394 C393 1.523 . S
C395 C379 1.429 . S
C395 C391 1.429 . S
C395 C396 1.523 . S
C396 C380 1.368 . S
C396 C392 1.368 . S
C396 C395 1.523 . S
H397 C372 0.950 . S
H398 C374 0.950 . S
H399 C375 0.949 . S
H400 C377 0.950 . S
H401 C379 0.950 . S
C402 C403 1.349 . S
C402 C404 1.327 . S
C402 H427 0.950 . S
C403 C402 1.349 . S
C403 C419 1.349 . S
C404 C402 1.327 . S
C404 C423 1.429 . S
C404 H428 0.950 . S
C405 C422 1.574 . S
C405 C424 1.368 . S
C405 H429 0.949 . S
H406 C410 0.949 . S
C407 C408 1.349 . S
C407 C409 1.327 . S
C407 H430 0.950 . S
C408 C407 1.349 . S
C408 C420 1.349 . S
C409 C407 1.327 . S
C409 C425 1.429 . S
C409 H431 0.950 . S
C410 H406 0.949 . S
C410 C418 1.574 . S
C410 C426 1.368 . S
H411 C419 0.950 . S
H412 C417 0.950 . S
H413 C418 0.949 . S
H414 C420 0.950 . S
H415 C421 0.950 . S
H416 C422 0.949 . S
C417 H412 0.950 . S
C417 C419 1.327 . S
C417 C423 1.429 . S
C418 C410 1.574 . S
C418 H413 0.949 . S
C418 C424 1.368 . S
C419 C403 1.349 . S
C419 H411 0.950 . S
C419 C417 1.327 . S
C420 C408 1.349 . S
C420 H414 0.950 . S
C420 C421 1.327 . S
C421 H415 0.950 . S
C421 C420 1.327 . S
C421 C425 1.429 . S
C422 C405 1.574 . S
C422 H416 0.949 . S
C422 C426 1.368 . S
C423 C404 1.429 . S
C423 C417 1.429 . S
C423 C424 1.523 . S
C424 C405 1.368 . S
C424 C418 1.368 . S
C424 C423 1.523 . S
C425 C409 1.429 . S
C425 C421 1.429 . S
C425 C426 1.523 . S
C426 C410 1.368 . S
C426 C422 1.368 . S
C426 C425 1.523 . S
H427 C402 0.950 . S
H428 C404 0.950 . S
H429 C405 0.949 . S
H430 C407 0.950 . S
H431 C409 0.950 . S
C432 C433 1.349 . S
C432 C434 1.327 . S
C432 H457 0.953 1_565 S
C433 C432 1.349 . S
C433 C449 1.349 . S
C434 C432 1.327 . S
C434 C453 1.429 . S
C434 H458 0.950 1_565 S
C435 C452 1.574 . S
C435 C454 1.368 1_556 S
C435 H459 0.949 . S
H436 C440 0.949 . S
C437 C438 1.349 . S
C437 C439 1.327 . S
C437 H460 0.950 . S
C438 C437 1.349 . S
C438 C450 1.349 1_565 S
C439 C437 1.327 . S
C439 C455 1.429 . S
C439 H461 0.950 . S
C440 H436 0.949 . S
C440 C448 1.578 1_556 S
C440 C456 1.368 1_545 S
H441 C449 0.950 . S
H442 C447 0.950 . S
H443 C448 0.968 . S
H444 C450 0.950 . S
H445 C451 0.950 . S
H446 C452 0.949 . S
C447 H442 0.950 . S
C447 C449 1.327 . S
C447 C453 1.429 . S
C448 C440 1.578 1_554 S
C448 H443 0.968 . S
C448 C454 1.344 1_545 S
C449 C433 1.349 . S
C449 H441 0.950 . S
C449 C447 1.327 . S
C450 C438 1.349 1_545 S
C450 H444 0.950 . S
C450 C451 1.327 . S
C451 H445 0.950 . S
C451 C450 1.327 . S
C451 C455 1.429 1_545 S
C452 C435 1.574 . S
C452 H446 0.949 . S
C452 C456 1.368 . S
C453 C434 1.429 . S
C453 C447 1.429 . S
C453 C454 1.523 . S
C454 C435 1.368 1_554 S
C454 C448 1.344 1_565 S
C454 C453 1.523 . S
C455 C439 1.429 . S
C455 C451 1.429 1_565 S
C455 C456 1.523 . S
C456 C440 1.368 1_565 S
C456 C452 1.368 . S
C456 C455 1.523 . S
H457 C432 0.953 1_545 S
H458 C434 0.950 1_545 S
H459 C435 0.949 . S
H460 C437 0.950 . S
H461 C439 0.950 . S
C462 C463 1.349 . S
C462 C464 1.327 . S
C462 H487 0.950 . S
C463 C462 1.349 . S
C463 C479 1.349 . S
C464 C462 1.327 . S
C464 C483 1.429 . S
C464 H488 0.950 . S
C465 C482 1.574 . S
C465 C484 1.368 . S
C465 H489 0.949 . S
H466 C470 0.949 . S
C467 C468 1.349 . S
C467 C469 1.327 . S
C467 H490 0.950 . S
C468 C467 1.349 . S
C468 C480 1.349 . S
C469 C467 1.327 . S
C469 C485 1.429 . S
C469 H491 0.950 . S
C470 H466 0.949 . S
C470 C478 1.574 . S
C470 C486 1.368 . S
H471 C479 0.950 . S
H472 C477 0.950 1_556 S
H473 C478 0.949 1_554 S
H474 C480 0.950 . S
H475 C481 0.950 . S
H476 C482 0.949 . S
C477 H472 0.950 1_554 S
C477 C479 1.327 . S
C477 C483 1.429 . S
C478 C470 1.574 . S
C478 H473 0.949 1_556 S
C478 C484 1.368 . S
C479 C463 1.349 . S
C479 H471 0.950 . S
C479 C477 1.327 . S
C480 C468 1.349 . S
C480 H474 0.950 . S
C480 C481 1.327 . S
C481 H475 0.950 . S
C481 C480 1.327 . S
C481 C485 1.429 . S
C482 C465 1.574 . S
C482 H476 0.949 . S
C482 C486 1.368 . S
C483 C464 1.429 . S
C483 C477 1.429 . S
C483 C484 1.523 1_554 S
C484 C465 1.368 . S
C484 C478 1.368 . S
C484 C483 1.523 1_556 S
C485 C469 1.429 . S
C485 C481 1.429 . S
C485 C486 1.523 . S
C486 C470 1.368 . S
C486 C482 1.368 . S
C486 C485 1.523 . S
H487 C462 0.950 . S
H488 C464 0.950 . S
H489 C465 0.949 . S
H490 C467 0.950 . S
H491 C469 0.950 . S
C492 C493 1.349 . S
C492 C494 1.327 . S
C492 H517 0.950 . S
C493 C492 1.349 . S
C493 C509 1.349 . S
C494 C492 1.327 . S
C494 C513 1.429 . S
C494 H518 0.950 . S
C495 C512 1.574 . S
C495 C514 1.368 . S
C495 H519 0.949 . S
H496 C500 0.949 . S
C497 C498 1.349 . S
C497 C499 1.327 . S
C497 H520 0.950 . S
C498 C497 1.349 . S
C498 C510 1.349 . S
C499 C497 1.327 . S
C499 C515 1.429 . S
C499 H521 0.950 . S
C500 H496 0.949 . S
C500 C508 1.574 . S
C500 C516 1.368 . S
H501 C509 0.950 . S
H502 C507 0.950 1_556 S
H503 C508 0.949 1_554 S
H504 C510 0.950 . S
H505 C511 0.950 . S
H506 C512 0.949 . S
C507 H502 0.950 1_554 S
C507 C509 1.327 . S
C507 C513 1.429 . S
C508 C500 1.574 . S
C508 H503 0.949 1_556 S
C508 C514 1.368 . S
C509 C493 1.349 . S
C509 H501 0.950 . S
C509 C507 1.327 . S
C510 C498 1.349 . S
C510 H504 0.950 . S
C510 C511 1.327 . S
C511 H505 0.950 . S
C511 C510 1.327 . S
C511 C515 1.429 . S
C512 C495 1.574 . S
C512 H506 0.949 . S
C512 C516 1.368 . S
C513 C494 1.429 . S
C513 C507 1.429 . S
C513 C514 1.523 1_554 S
C514 C495 1.368 . S
C514 C508 1.368 . S
C514 C513 1.523 1_556 S
C515 C499 1.429 . S
C515 C511 1.429 . S
C515 C516 1.523 . S
C516 C500 1.368 . S
C516 C512 1.368 . S
C516 C515 1.523 . S
H517 C492 0.950 . S
H518 C494 0.950 . S
H519 C495 0.949 . S
H520 C497 0.950 . S
H521 C499 0.950 . S
C522 C523 1.349 . S
C522 C524 1.327 . S
C522 H547 0.950 . S
C523 C522 1.349 . S
C523 C539 1.349 . S
C524 C522 1.327 . S
C524 C543 1.429 . S
C524 H548 0.950 . S
C525 C542 1.579 . S
C525 C544 1.368 1_556 S
C525 H549 0.949 1_655 S
H526 C530 0.949 . S
C527 C528 1.349 1_455 S
C527 C529 1.327 . S
C527 H550 0.950 . S
C528 C527 1.349 1_655 S
C528 C540 1.349 . S
C529 C527 1.327 . S
C529 C545 1.429 1_455 S
C529 H551 0.950 . S
C530 H526 0.949 . S
C530 C538 1.574 1_556 S
C530 C546 1.368 . S
H531 C539 0.950 . S
H532 C537 0.950 . S
H533 C538 0.949 . S
H534 C540 0.950 . S
H535 C541 0.950 . S
H536 C542 0.929 1_455 S
C537 H532 0.950 . S
C537 C539 1.327 . S
C537 C543 1.429 . S
C538 C530 1.574 1_554 S
C538 H533 0.949 . S
C538 C544 1.368 . S
C539 C523 1.349 . S
C539 H531 0.950 . S
C539 C537 1.327 . S
C540 C528 1.349 . S
C540 H534 0.950 . S
C540 C541 1.327 . S
C541 H535 0.950 . S
C541 C540 1.327 . S
C541 C545 1.429 . S
C542 C525 1.579 . S
C542 H536 0.929 1_655 S
C542 C546 1.385 . S
C543 C524 1.429 . S
C543 C537 1.429 . S
C543 C544 1.523 . S
C544 C525 1.368 1_554 S
C544 C538 1.368 . S
C544 C543 1.523 . S
C545 C529 1.429 1_655 S
C545 C541 1.429 . S
C545 C546 1.523 . S
C546 C530 1.368 . S
C546 C542 1.385 . S
C546 C545 1.523 . S
H547 C522 0.950 . S
H548 C524 0.950 . S
H549 C525 0.949 1_455 S
H550 C527 0.950 . S
H551 C529 0.950 . S
C552 C553 1.349 . S
C552 C554 1.327 . S
C552 H577 0.950 . S
C553 C552 1.349 . S
C553 C569 1.349 . S
C554 C552 1.327 . S
C554 C573 1.429 . S
C554 H578 0.950 . S
C555 C572 1.574 . S
C555 C574 1.368 . S
C555 H579 0.949 . S
H556 C560 0.949 . S
C557 C558 1.349 . S
C557 C559 1.327 . S
C557 H580 0.950 . S
C558 C557 1.349 . S
C558 C570 1.349 . S
C559 C557 1.327 . S
C559 C575 1.429 . S
C559 H581 0.950 . S
C560 H556 0.949 . S
C560 C568 1.574 . S
C560 C576 1.368 . S
H561 C569 0.950 . S
H562 C567 0.950 . S
H563 C568 0.949 . S
H564 C570 0.950 . S
H565 C571 0.950 . S
H566 C572 0.949 . S
C567 H562 0.950 . S
C567 C569 1.327 . S
C567 C573 1.429 . S
C568 C560 1.574 . S
C568 H563 0.949 . S
C568 C574 1.368 . S
C569 C553 1.349 . S
C569 H561 0.950 . S
C569 C567 1.327 . S
C570 C558 1.349 . S
C570 H564 0.950 . S
C570 C571 1.327 . S
C571 H565 0.950 . S
C571 C570 1.327 . S
C571 C575 1.429 . S
C572 C555 1.574 . S
C572 H566 0.949 . S
C572 C576 1.368 . S
C573 C554 1.429 . S
C573 C567 1.429 . S
C573 C574 1.523 . S
C574 C555 1.368 . S
C574 C568 1.368 . S
C574 C573 1.523 . S
C575 C559 1.429 . S
C575 C571 1.429 . S
C575 C576 1.523 . S
C576 C560 1.368 . S
C576 C572 1.368 . S
C576 C575 1.523 . S
H577 C552 0.950 . S
H578 C554 0.950 . S
H579 C555 0.949 . S
H580 C557 0.950 . S
H581 C559 0.950 . S
C582 C583 1.349 . S
C582 C584 1.327 . S
C582 H607 0.950 . S
C583 C582 1.349 . S
C583 C599 1.349 . S
C584 C582 1.327 . S
C584 C603 1.429 . S
C584 H608 0.950 . S
C585 C602 1.574 . S
C585 C604 1.368 . S
C585 H609 0.949 . S
H586 C590 0.949 . S
C587 C588 1.349 1_565 S
C587 C589 1.327 . S
C587 H610 0.950 . S
C588 C587 1.349 1_545 S
C588 C600 1.349 . S
C589 C587 1.327 . S
C589 C605 1.429 1_565 S
C589 H611 0.950 . S
C590 H586 0.949 . S
C590 C598 1.574 . S
C590 C606 1.368 . S
H591 C599 0.950 . S
H592 C597 0.950 . S
H593 C598 0.949 . S
H594 C600 0.950 . S
H595 C601 0.950 . S
H596 C602 0.949 1_565 S
C597 H592 0.950 . S
C597 C599 1.327 . S
C597 C603 1.429 . S
C598 C590 1.574 . S
C598 H593 0.949 . S
C598 C604 1.368 . S
C599 C583 1.349 . S
C599 H591 0.950 . S
C599 C597 1.327 . S
C600 C588 1.349 . S
C600 H594 0.950 . S
C600 C601 1.327 . S
C601 H595 0.950 . S
C601 C600 1.327 . S
C601 C605 1.429 . S
C602 C585 1.574 . S
C602 H596 0.949 1_545 S
C602 C606 1.368 . S
C603 C584 1.429 . S
C603 C597 1.429 . S
C603 C604 1.523 . S
C604 C585 1.368 . S
C604 C598 1.368 . S
C604 C603 1.523 . S
C605 C589 1.429 1_545 S
C605 C601 1.429 . S
C605 C606 1.523 . S
C606 C590 1.368 . S
C606 C602 1.368 . S
C606 C605 1.523 . S
H607 C582 0.950 . S
H608 C584 0.950 . S
H609 C585 0.949 . S
H610 C587 0.950 . S
H611 C589 0.950 . S
C612 C613 1.349 . S
C612 C614 1.327 . S
C612 H637 0.950 . S
C613 C612 1.349 . S
C613 C629 1.349 . S
C614 C612 1.327 . S
C614 C633 1.429 . S
C614 H638 0.950 . S
C615 C632 1.574 . S
C615 C634 1.368 . S
C615 H639 0.949 . S
H616 C620 0.949 . S
C617 C618 1.349 . S
C617 C619 1.327 . S
C617 H640 0.950 . S
C618 C617 1.349 . S
C618 C630 1.349 . S
C619 C617 1.327 . S
C619 C635 1.429 . S
C619 H641 0.950 . S
C620 H616 0.949 . S
C620 C628 1.574 . S
C620 C636 1.368 . S
H621 C629 0.950 . S
H622 C627 0.950 . S
H623 C628 0.949 . S
H624 C630 0.950 . S
H625 C631 0.950 . S
H626 C632 0.949 . S
C627 H622 0.950 . S
C627 C629 1.327 . S
C627 C633 1.429 . S
C628 C620 1.574 . S
C628 H623 0.949 . S
C628 C634 1.368 . S
C629 C613 1.349 . S
C629 H621 0.950 . S
C629 C627 1.327 . S
C630 C618 1.349 . S
C630 H624 0.950 . S
C630 C631 1.327 . S
C631 H625 0.950 . S
C631 C630 1.327 . S
C631 C635 1.429 . S
C632 C615 1.574 . S
C632 H626 0.949 . S
C632 C636 1.368 . S
C633 C614 1.429 . S
C633 C627 1.429 . S
C633 C634 1.523 . S
C634 C615 1.368 . S
C634 C628 1.368 . S
C634 C633 1.523 . S
C635 C619 1.429 . S
C635 C631 1.429 . S
C635 C636 1.523 . S
C636 C620 1.368 . S
C636 C632 1.368 . S
C636 C635 1.523 . S
H637 C612 0.950 . S
H638 C614 0.950 . S
H639 C615 0.949 . S
H640 C617 0.950 . S
H641 C619 0.950 . S
C642 C643 1.349 . S
C642 C644 1.327 . S
C642 H667 0.950 . S
C643 C642 1.349 . S
C643 C659 1.349 . S
C644 C642 1.327 . S
C644 C663 1.429 . S
C644 H668 0.950 . S
C645 C662 1.574 . S
C645 C664 1.368 . S
C645 H669 0.949 . S
H646 C650 0.949 . S
C647 C648 1.349 . S
C647 C649 1.327 . S
C647 H670 0.950 . S
C648 C647 1.349 . S
C648 C660 1.349 . S
C649 C647 1.327 . S
C649 C665 1.429 . S
C649 H671 0.950 . S
C650 H646 0.949 . S
C650 C658 1.574 . S
C650 C666 1.368 . S
H651 C659 0.950 . S
H652 C657 0.950 . S
H653 C658 0.949 . S
H654 C660 0.950 . S
H655 C661 0.950 . S
H656 C662 0.949 . S
C657 H652 0.950 . S
C657 C659 1.327 . S
C657 C663 1.429 . S
C658 C650 1.574 . S
C658 H653 0.949 . S
C658 C664 1.368 . S
C659 C643 1.349 . S
C659 H651 0.950 . S
C659 C657 1.327 . S
C660 C648 1.349 . S
C660 H654 0.950 . S
C660 C661 1.327 . S
C661 H655 0.950 . S
C661 C660 1.327 . S
C661 C665 1.429 . S
C662 C645 1.574 . S
C662 H656 0.949 . S
C662 C666 1.368 . S
C663 C644 1.429 . S
C663 C657 1.429 . S
C663 C664 1.523 . S
C664 C645 1.368 . S
C664 C658 1.368 . S
C664 C663 1.523 . S
C665 C649 1.429 . S
C665 C661 1.429 . S
C665 C666 1.523 . S
C666 C650 1.368 . S
C666 C662 1.368 . S
C666 C665 1.523 . S
H667 C642 0.950 . S
H668 C644 0.950 . S
H669 C645 0.949 . S
H670 C647 0.950 . S
H671 C649 0.950 . S
C672 C673 1.349 . S
C672 C674 1.327 . S
C672 H697 0.950 . S
C673 C672 1.349 . S
C673 C689 1.349 . S
C674 C672 1.327 . S
C674 C693 1.429 . S
C674 H698 0.950 . S
C675 C692 1.574 . S
C675 C694 1.368 . S
C675 H699 0.949 . S
H676 C680 0.962 . S
C677 C678 1.349 1_655 S
C677 C679 1.327 . S
C677 H700 0.950 . S
C678 C677 1.349 1_455 S
C678 C690 1.349 1_556 S
C679 C677 1.327 . S
C679 C695 1.429 1_556 S
C679 H701 0.950 . S
C680 H676 0.962 . S
C680 C688 1.568 1_455 S
C680 C696 1.359 1_455 S
H681 C689 0.950 . S
H682 C687 0.950 . S
H683 C688 0.935 1_455 S
H684 C690 0.950 . S
H685 C691 0.950 . S
H686 C692 0.949 1_556 S
C687 H682 0.950 . S
C687 C689 1.327 . S
C687 C693 1.429 . S
C688 C680 1.568 1_655 S
C688 H683 0.935 1_655 S
C688 C694 1.368 . S
C689 C673 1.349 . S
C689 H681 0.950 . S
C689 C687 1.327 . S
C690 C678 1.349 1_554 S
C690 H684 0.950 . S
C690 C691 1.327 . S
C691 H685 0.950 . S
C691 C690 1.327 . S
C691 C695 1.429 1_455 S
C692 C675 1.574 . S
C692 H686 0.949 1_554 S
C692 C696 1.368 . S
C693 C674 1.429 . S
C693 C687 1.429 . S
C693 C694 1.523 . S
C694 C675 1.368 . S
C694 C688 1.368 . S
C694 C693 1.523 . S
C695 C679 1.429 1_554 S
C695 C691 1.429 1_655 S
C695 C696 1.523 . S
C696 C680 1.359 1_655 S
C696 C692 1.368 . S
C696 C695 1.523 . S
H697 C672 0.950 . S
H698 C674 0.950 . S
H699 C675 0.949 . S
H700 C677 0.950 . S
H701 C679 0.950 . S
C702 C703 1.349 . S
C702 C704 1.327 . S
C702 H727 0.950 1_565 S
C703 C702 1.349 . S
C703 C719 1.349 . S
C704 C702 1.327 . S
C704 C723 1.429 . S
C704 H728 0.950 1_565 S
C705 C722 1.574 . S
C705 C724 1.368 . S
C705 H729 0.949 . S
H706 C710 0.949 . S
C707 C708 1.349 1_565 S
C707 C709 1.327 . S
C707 H730 0.950 . S
C708 C707 1.349 1_545 S
C708 C720 1.349 . S
C709 C707 1.327 . S
C709 C725 1.429 1_565 S
C709 H731 0.950 . S
C710 H706 0.949 . S
C710 C718 1.574 . S
C710 C726 1.352 1_545 S
H711 C719 0.950 . S
H712 C717 0.950 . S
H713 C718 0.949 . S
H714 C720 0.950 . S
H715 C721 0.950 . S
H716 C722 0.949 . S
C717 H712 0.950 . S
C717 C719 1.327 . S
C717 C723 1.429 . S
C718 C710 1.574 . S
C718 H713 0.949 . S
C718 C724 1.368 1_545 S
C719 C703 1.349 . S
C719 H711 0.950 . S
C719 C717 1.327 . S
C720 C708 1.349 . S
C720 H714 0.950 . S
C720 C721 1.327 . S
C721 H715 0.950 . S
C721 C720 1.327 . S
C721 C725 1.429 . S
C722 C705 1.574 . S
C722 H716 0.949 . S
C722 C726 1.389 . S
C723 C704 1.429 . S
C723 C717 1.429 . S
C723 C724 1.523 . S
C724 C705 1.368 . S
C724 C718 1.368 1_565 S
C724 C723 1.523 . S
C725 C709 1.429 1_545 S
C725 C721 1.429 . S
C725 C726 1.518 1_546 S
C726 C710 1.352 1_565 S
C726 C722 1.389 . S
C726 C725 1.518 1_564 S
H727 C702 0.950 1_545 S
H728 C704 0.950 1_545 S
H729 C705 0.949 . S
H730 C707 0.950 . S
H731 C709 0.950 . S
C732 C733 1.349 . S
C732 C734 1.327 . S
C732 H757 0.950 . S
C733 C732 1.349 . S
C733 C749 1.349 . S
C734 C732 1.327 . S
C734 C753 1.429 . S
C734 H758 0.950 . S
C735 C752 1.574 . S
C735 C754 1.368 . S
C735 H759 0.949 . S
H736 C740 0.949 . S
C737 C738 1.349 . S
C737 C739 1.327 . S
C737 H760 0.950 . S
C738 C737 1.349 . S
C738 C750 1.349 . S
C739 C737 1.327 . S
C739 C755 1.429 . S
C739 H761 0.950 . S
C740 H736 0.949 . S
C740 C748 1.576 . S
C740 C756 1.368 . S
H741 C749 0.950 . S
H742 C747 0.950 . S
H743 C748 0.950 . S
H744 C750 0.950 . S
H745 C751 0.950 . S
H746 C752 0.949 . S
C747 H742 0.950 . S
C747 C749 1.327 . S
C747 C753 1.429 . S
C748 C740 1.576 . S
C748 H743 0.950 . S
C748 C754 1.365 1_556 S
C749 C733 1.349 . S
C749 H741 0.950 . S
C749 C747 1.327 . S
C750 C738 1.349 . S
C750 H744 0.950 . S
C750 C751 1.327 . S
C751 H745 0.950 . S
C751 C750 1.327 . S
C751 C755 1.429 . S
C752 C735 1.574 . S
C752 H746 0.949 . S
C752 C756 1.368 1_554 S
C753 C734 1.429 . S
C753 C747 1.429 . S
C753 C754 1.523 . S
C754 C735 1.368 . S
C754 C748 1.365 1_554 S
C754 C753 1.523 . S
C755 C739 1.429 . S
C755 C751 1.429 . S
C755 C756 1.523 . S
C756 C740 1.368 . S
C756 C752 1.368 1_556 S
C756 C755 1.523 . S
H757 C732 0.950 . S
H758 C734 0.950 . S
H759 C735 0.949 . S
H760 C737 0.950 . S
H761 C739 0.950 . S
C762 C763 1.349 . S
C762 C764 1.327 . S
C762 H787 0.950 . S
C763 C762 1.349 . S
C763 C779 1.349 . S
C764 C762 1.327 . S
C764 C783 1.429 . S
C764 H788 0.950 . S
C765 C782 1.574 . S
C765 C784 1.368 . S
C765 H789 0.949 . S
H766 C770 0.949 . S
C767 C768 1.349 . S
C767 C769 1.327 . S
C767 H790 0.950 . S
C768 C767 1.349 . S
C768 C780 1.349 . S
C769 C767 1.327 . S
C769 C785 1.436 . S
C769 H791 0.950 . S
C770 H766 0.949 . S
C770 C778 1.574 . S
C770 C786 1.368 . S
H771 C779 0.950 . S
H772 C777 0.950 . S
H773 C778 0.949 . S
H774 C780 0.950 1_554 S
H775 C781 0.950 . S
H776 C782 0.949 1_556 S
C777 H772 0.950 . S
C777 C779 1.327 . S
C777 C783 1.429 . S
C778 C770 1.574 . S
C778 H773 0.949 . S
C778 C784 1.368 . S
C779 C763 1.349 . S
C779 H771 0.950 . S
C779 C777 1.327 . S
C780 C768 1.349 . S
C780 H774 0.950 1_556 S
C780 C781 1.327 1_556 S
C781 H775 0.950 . S
C781 C780 1.327 1_554 S
C781 C785 1.426 1_554 S
C782 C765 1.574 . S
C782 H776 0.949 1_554 S
C782 C786 1.368 . S
C783 C764 1.429 . S
C783 C777 1.429 . S
C783 C784 1.523 . S
C784 C765 1.368 . S
C784 C778 1.368 . S
C784 C783 1.523 . S
C785 C769 1.436 . S
C785 C781 1.426 1_556 S
C785 C786 1.518 1_556 S
C786 C770 1.368 . S
C786 C782 1.368 . S
C786 C785 1.518 1_554 S
H787 C762 0.950 . S
H788 C764 0.950 . S
H789 C765 0.949 . S
H790 C767 0.950 . S
H791 C769 0.950 . S
C792 C793 1.349 . S
C792 C794 1.327 . S
C792 H817 0.950 . S
C793 C792 1.349 . S
C793 C809 1.349 . S
C794 C792 1.327 . S
C794 C813 1.429 . S
C794 H818 0.950 . S
C795 C812 1.574 . S
C795 C814 1.368 . S
C795 H819 0.949 . S
H796 C800 0.949 . S
C797 C798 1.349 . S
C797 C799 1.327 . S
C797 H820 0.950 . S
C798 C797 1.349 . S
C798 C810 1.349 . S
C799 C797 1.327 . S
C799 C815 1.429 . S
C799 H821 0.950 . S
C800 H796 0.949 . S
C800 C808 1.574 . S
C800 C816 1.368 . S
H801 C809 0.950 . S
H802 C807 0.950 . S
H803 C808 0.949 . S
H804 C810 0.950 . S
H805 C811 0.950 . S
H806 C812 0.949 . S
C807 H802 0.950 . S
C807 C809 1.327 . S
C807 C813 1.429 . S
C808 C800 1.574 . S
C808 H803 0.949 . S
C808 C814 1.368 . S
C809 C793 1.349 . S
C809 H801 0.950 . S
C809 C807 1.327 . S
C810 C798 1.349 . S
C810 H804 0.950 . S
C810 C811 1.327 . S
C811 H805 0.950 . S
C811 C810 1.327 . S
C811 C815 1.429 . S
C812 C795 1.574 . S
C812 H806 0.949 . S
C812 C816 1.368 . S
C813 C794 1.429 . S
C813 C807 1.429 . S
C813 C814 1.523 . S
C814 C795 1.368 . S
C814 C808 1.368 . S
C814 C813 1.523 . S
C815 C799 1.429 . S
C815 C811 1.429 . S
C815 C816 1.523 . S
C816 C800 1.368 . S
C816 C812 1.368 . S
C816 C815 1.523 . S
H817 C792 0.950 . S
H818 C794 0.950 . S
H819 C795 0.949 . S
H820 C797 0.950 . S
H821 C799 0.950 . S
C822 C823 1.349 . S
C822 C824 1.327 . S
C822 H847 0.950 . S
C823 C822 1.349 . S
C823 C839 1.349 . S
C824 C822 1.327 . S
C824 C843 1.429 . S
C824 H848 0.950 . S
C825 C842 1.574 . S
C825 C844 1.368 . S
C825 H849 0.949 . S
H826 C830 0.949 . S
C827 C828 1.349 . S
C827 C829 1.327 . S
C827 H850 0.950 . S
C828 C827 1.349 . S
C828 C840 1.349 . S
C829 C827 1.327 . S
C829 C845 1.429 . S
C829 H851 0.950 . S
C830 H826 0.949 . S
C830 C838 1.574 . S
C830 C846 1.368 . S
H831 C839 0.950 . S
H832 C837 0.950 . S
H833 C838 0.949 . S
H834 C840 0.950 . S
H835 C841 0.950 . S
H836 C842 0.949 . S
C837 H832 0.950 . S
C837 C839 1.327 . S
C837 C843 1.429 . S
C838 C830 1.574 . S
C838 H833 0.949 . S
C838 C844 1.368 . S
C839 C823 1.349 . S
C839 H831 0.950 . S
C839 C837 1.327 . S
C840 C828 1.349 . S
C840 H834 0.950 . S
C840 C841 1.327 . S
C841 H835 0.950 . S
C841 C840 1.327 . S
C841 C845 1.429 . S
C842 C825 1.574 . S
C842 H836 0.949 . S
C842 C846 1.368 . S
C843 C824 1.429 . S
C843 C837 1.429 . S
C843 C844 1.523 . S
C844 C825 1.368 . S
C844 C838 1.368 . S
C844 C843 1.523 . S
C845 C829 1.429 . S
C845 C841 1.429 . S
C845 C846 1.523 . S
C846 C830 1.368 . S
C846 C842 1.368 . S
C846 C845 1.523 . S
H847 C822 0.950 . S
H848 C824 0.950 . S
H849 C825 0.949 . S
H850 C827 0.950 . S
H851 C829 0.950 . S
C852 C853 1.349 . S
C852 C854 1.327 . S
C852 H877 0.950 . S
C853 C852 1.349 . S
C853 C869 1.349 . S
C854 C852 1.327 . S
C854 C873 1.429 . S
C854 H878 0.950 . S
C855 C872 1.574 . S
C855 C874 1.368 . S
C855 H879 0.949 . S
H856 C860 0.949 . S
C857 C858 1.349 . S
C857 C859 1.327 . S
C857 H880 0.950 . S
C858 C857 1.349 . S
C858 C870 1.349 . S
C859 C857 1.327 . S
C859 C875 1.429 . S
C859 H881 0.950 . S
C860 H856 0.949 . S
C860 C868 1.574 . S
C860 C876 1.368 . S
H861 C869 0.950 . S
H862 C867 0.950 . S
H863 C868 0.949 . S
H864 C870 0.950 . S
H865 C871 0.950 . S
H866 C872 0.949 . S
C867 H862 0.950 . S
C867 C869 1.327 . S
C867 C873 1.429 . S
C868 C860 1.574 . S
C868 H863 0.949 . S
C868 C874 1.368 . S
C869 C853 1.349 . S
C869 H861 0.950 . S
C869 C867 1.327 . S
C870 C858 1.349 . S
C870 H864 0.950 . S
C870 C871 1.327 . S
C871 H865 0.950 . S
C871 C870 1.327 . S
C871 C875 1.429 . S
C872 C855 1.574 . S
C872 H866 0.949 . S
C872 C876 1.368 . S
C873 C854 1.429 . S
C873 C867 1.429 . S
C873 C874 1.523 . S
C874 C855 1.368 . S
C874 C868 1.368 . S
C874 C873 1.523 . S
C875 C859 1.429 . S
C875 C871 1.429 . S
C875 C876 1.523 . S
C876 C860 1.368 . S
C876 C872 1.368 . S
C876 C875 1.523 . S
H877 C852 0.950 . S
H878 C854 0.950 . S
H879 C855 0.949 . S
H880 C857 0.950 . S
H881 C859 0.950 . S
C882 C883 1.349 . S
C882 C884 1.327 . S
C882 H907 0.950 1_556 S
C883 C882 1.349 . S
C883 C899 1.349 . S
C884 C882 1.327 . S
C884 C903 1.429 . S
C884 H908 0.950 . S
C885 C902 1.574 . S
C885 C904 1.368 . S
C885 H909 0.949 . S
H886 C890 0.949 . S
C887 C888 1.349 . S
C887 C889 1.327 . S
C887 H910 0.950 . S
C888 C887 1.349 . S
C888 C900 1.349 . S
C889 C887 1.327 . S
C889 C905 1.429 . S
C889 H911 0.950 . S
C890 H886 0.949 . S
C890 C898 1.574 . S
C890 C906 1.368 . S
H891 C899 0.950 . S
H892 C897 0.950 . S
H893 C898 0.949 . S
H894 C900 0.950 . S
H895 C901 0.950 . S
H896 C902 0.949 . S
C897 H892 0.950 . S
C897 C899 1.327 . S
C897 C903 1.429 . S
C898 C890 1.574 . S
C898 H893 0.949 . S
C898 C904 1.368 . S
C899 C883 1.349 . S
C899 H891 0.950 . S
C899 C897 1.327 . S
C900 C888 1.349 . S
C900 H894 0.950 . S
C900 C901 1.327 . S
C901 H895 0.950 . S
C901 C900 1.327 . S
C901 C905 1.429 . S
C902 C885 1.574 . S
C902 H896 0.949 . S
C902 C906 1.368 . S
C903 C884 1.429 . S
C903 C897 1.429 . S
C903 C904 1.523 . S
C904 C885 1.368 . S
C904 C898 1.368 . S
C904 C903 1.523 . S
C905 C889 1.429 . S
C905 C901 1.429 . S
C905 C906 1.523 . S
C906 C890 1.368 . S
C906 C902 1.368 . S
C906 C905 1.523 . S
H907 C882 0.950 1_554 S
H908 C884 0.950 . S
H909 C885 0.949 . S
H910 C887 0.950 . S
H911 C889 0.950 . S
C912 C913 1.349 . S
C912 C914 1.327 . S
C912 H937 0.950 . S
C913 C912 1.349 . S
C913 C929 1.349 . S
C914 C912 1.327 . S
C914 C933 1.429 . S
C914 H938 0.950 . S
C915 C932 1.574 . S
C915 C934 1.368 . S
C915 H939 0.949 . S
H916 C920 0.949 . S
C917 C918 1.349 1_455 S
C917 C919 1.327 . S
C917 H940 0.950 . S
C918 C917 1.349 1_655 S
C918 C930 1.349 . S
C919 C917 1.327 . S
C919 C935 1.429 1_455 S
C919 H941 0.950 . S
C920 H916 0.949 . S
C920 C928 1.574 . S
C920 C936 1.368 . S
H921 C929 0.950 . S
H922 C927 0.950 . S
H923 C928 0.949 . S
H924 C930 0.950 . S
H925 C931 0.950 . S
H926 C932 0.949 1_455 S
C927 H922 0.950 . S
C927 C929 1.327 . S
C927 C933 1.429 . S
C928 C920 1.574 . S
C928 H923 0.949 . S
C928 C934 1.368 . S
C929 C913 1.349 . S
C929 H921 0.950 . S
C929 C927 1.327 . S
C930 C918 1.349 . S
C930 H924 0.950 . S
C930 C931 1.327 . S
C931 H925 0.950 . S
C931 C930 1.327 . S
C931 C935 1.429 . S
C932 C915 1.574 . S
C932 H926 0.949 1_655 S
C932 C936 1.368 . S
C933 C914 1.429 . S
C933 C927 1.429 . S
C933 C934 1.523 . S
C934 C915 1.368 . S
C934 C928 1.368 . S
C934 C933 1.523 . S
C935 C919 1.429 1_655 S
C935 C931 1.429 . S
C935 C936 1.523 . S
C936 C920 1.368 . S
C936 C932 1.368 . S
C936 C935 1.523 . S
H937 C912 0.950 . S
H938 C914 0.950 . S
H939 C915 0.949 . S
H940 C917 0.950 . S
H941 C919 0.950 . S
C942 C943 1.349 . S
C942 C944 1.327 . S
C942 H967 0.950 . S
C943 C942 1.349 . S
C943 C959 1.349 . S
C944 C942 1.327 . S
C944 C963 1.429 . S
C944 H968 0.950 . S
C945 C962 1.574 . S
C945 C964 1.368 . S
C945 H969 0.949 . S
H946 C950 0.949 . S
C947 C948 1.349 . S
C947 C949 1.327 . S
C947 H970 0.950 . S
C948 C947 1.349 . S
C948 C960 1.365 . S
C949 C947 1.327 . S
C949 C965 1.429 . S
C949 H971 0.950 . S
C950 H946 0.949 . S
C950 C958 1.574 . S
C950 C966 1.368 . S
H951 C959 0.950 . S
H952 C957 0.950 . S
H953 C958 0.949 . S
H954 C960 0.930 1_545 S
H955 C961 0.936 1_545 S
H956 C962 0.949 . S
C957 H952 0.950 . S
C957 C959 1.327 . S
C957 C963 1.429 . S
C958 C950 1.574 . S
C958 H953 0.949 . S
C958 C964 1.368 . S
C959 C943 1.349 . S
C959 H951 0.950 . S
C959 C957 1.327 . S
C960 C948 1.365 . S
C960 H954 0.930 1_565 S
C960 C961 1.334 . S
C961 H955 0.936 1_565 S
C961 C960 1.334 . S
C961 C965 1.429 . S
C962 C945 1.574 . S
C962 H956 0.949 . S
C962 C966 1.368 . S
C963 C944 1.429 . S
C963 C957 1.429 . S
C963 C964 1.523 . S
C964 C945 1.368 . S
C964 C958 1.368 . S
C964 C963 1.523 . S
C965 C949 1.429 . S
C965 C961 1.429 . S
C965 C966 1.523 . S
C966 C950 1.368 . S
C966 C962 1.368 . S
C966 C965 1.523 . S
H967 C942 0.950 . S
H968 C944 0.950 . S
H969 C945 0.949 . S
H970 C947 0.950 . S
H971 C949 0.950 . S
C972 C973 1.349 . S
C972 C974 1.327 . S
C972 H997 0.950 . S
C973 C972 1.349 . S
C973 C989 1.349 . S
C974 C972 1.327 . S
C974 C993 1.429 . S
C974 H998 0.950 . S
C975 C992 1.574 . S
C975 C994 1.368 . S
C975 H999 0.949 . S
H976 C980 0.949 . S
C977 C978 1.349 . S
C977 C979 1.327 . S
C977 H1000 0.950 . S
C978 C977 1.349 . S
C978 C990 1.349 . S
C979 C977 1.327 . S
C979 C995 1.429 . S
C979 H1001 0.950 . S
C980 H976 0.949 . S
C980 C988 1.574 . S
C980 C996 1.368 . S
H981 C989 0.950 . S
H982 C987 0.950 . S
H983 C988 0.949 . S
H984 C990 0.950 . S
H985 C991 0.950 . S
H986 C992 0.949 . S
C987 H982 0.950 . S
C987 C989 1.327 . S
C987 C993 1.429 . S
C988 C980 1.574 . S
C988 H983 0.949 . S
C988 C994 1.368 . S
C989 C973 1.349 . S
C989 H981 0.950 . S
C989 C987 1.327 . S
C990 C978 1.349 . S
C990 H984 0.950 . S
C990 C991 1.327 . S
C991 H985 0.950 . S
C991 C990 1.327 . S
C991 C995 1.429 . S
C992 C975 1.574 . S
C992 H986 0.949 . S
C992 C996 1.368 . S
C993 C974 1.429 . S
C993 C987 1.429 . S
C993 C994 1.523 . S
C994 C975 1.368 . S
C994 C988 1.368 . S
C994 C993 1.523 . S
C995 C979 1.429 . S
C995 C991 1.429 . S
C995 C996 1.523 . S
C996 C980 1.368 . S
C996 C992 1.368 . S
C996 C995 1.523 . S
H997 C972 0.950 . S
H998 C974 0.950 . S
H999 C975 0.949 . S
H1000 C977 0.950 . S
H1001 C979 0.950 . S
C1002 C1003 1.349 . S
C1002 C1004 1.327 . S
C1002 H1027 0.950 . S
C1003 C1002 1.349 . S
C1003 C1019 1.349 . S
C1004 C1002 1.327 . S
C1004 C1023 1.429 . S
C1004 H1028 0.950 . S
C1005 C1022 1.574 . S
C1005 C1024 1.368 . S
C1005 H1029 0.949 . S
H1006 C1010 0.949 . S
C1007 C1008 1.349 . S
C1007 C1009 1.327 . S
C1007 H1030 0.950 . S
C1008 C1007 1.349 . S
C1008 C1020 1.349 . S
C1009 C1007 1.327 . S
C1009 C1025 1.429 . S
C1009 H1031 0.950 . S
C1010 H1006 0.949 . S
C1010 C1018 1.574 . S
C1010 C1026 1.368 . S
H1011 C1019 0.950 . S
H1012 C1017 0.950 . S
H1013 C1018 0.949 . S
H1014 C1020 0.950 . S
H1015 C1021 0.950 . S
H1016 C1022 0.949 . S
C1017 H1012 0.950 . S
C1017 C1019 1.327 . S
C1017 C1023 1.429 . S
C1018 C1010 1.574 . S
C1018 H1013 0.949 . S
C1018 C1024 1.368 . S
C1019 C1003 1.349 . S
C1019 H1011 0.950 . S
C1019 C1017 1.327 . S
C1020 C1008 1.349 . S
C1020 H1014 0.950 . S
C1020 C1021 1.327 . S
C1021 H1015 0.950 . S
C1021 C1020 1.327 . S
C1021 C1025 1.429 . S
C1022 C1005 1.574 . S
C1022 H1016 0.949 . S
C1022 C1026 1.368 . S
C1023 C1004 1.429 . S
C1023 C1017 1.429 . S
C1023 C1024 1.523 . S
C1024 C1005 1.368 . S
C1024 C1018 1.368 . S
C1024 C1023 1.523 . S
C1025 C1009 1.429 . S
C1025 C1021 1.429 . S
C1025 C1026 1.523 . S
C1026 C1010 1.368 . S
C1026 C1022 1.368 . S
C1026 C1025 1.523 . S
H1027 C1002 0.950 . S
H1028 C1004 0.950 . S
H1029 C1005 0.949 . S
H1030 C1007 0.950 . S
H1031 C1009 0.950 . S
C313 C125 2.214 . S
C318 C183 2.295 . S
C348 C209 1.692 . S
C343 C144 1.672 . S
C378 C249 1.849 . S
C373 C87 1.767 . S
C408 C303 2.399 . S
C403 C106 2.294 . S
C438 C164 2.295 1_565 S
C433 C49 2.274 . S
C463 C68 1.636 . S
C468 C194 1.693 . S
C493 C11 1.828 . S
C498 C234 1.850 . S
C523 C30 2.373 . S
C528 C284 2.398 1_655 S
C558 C160 0.397 . S
C553 C97 0.472 . S
C588 C221 0.601 . S
C583 C116 0.611 . S
C618 C261 0.488 . S
C613 C135 0.509 . S
C643 C78 0.432 . S
C648 C280 0.301 . S
C673 C21 0.469 . S
C678 C181 0.397 . S
C708 C200 0.601 . S
C703 C40 0.610 . S
C738 C240 0.488 . S
C733 C59 0.508 . S
C763 C2 0.429 . S
C768 C301 0.301 . S
C793 C101 1.825 . S
C798 C154 1.979 . S
C823 C120 2.415 . S
C828 C204 2.583 . S
C858 C244 2.307 . S
C853 C139 2.168 . S
C888 C274 1.701 . S
C883 C82 1.583 . S
C913 C25 1.829 . S
C918 C169 1.984 . S
C948 C223 2.590 . S
C943 C44 2.418 . S
C978 C263 2.307 . S
C973 C63 2.165 . S
C1003 C6 1.586 . S
C1008 C289 1.700 . S
