# Generated by pormake.
# Topology eea, (3,6)-cn, num edge types: 1
# Building blocks:
#     Node 0, Type 0, BuildingBlock: BELTOD_clean_linker_0, # of connection points: 3
#     Node 1, Type 0, BuildingBlock: BELTOD_clean_linker_0, # of connection points: 3
#     Node 2, Type 0, BuildingBlock: BELTOD_clean_linker_0, # of connection points: 3
#     Node 3, Type 0, BuildingBlock: BELTOD_clean_linker_0, # of connection points: 3
#     Node 4, Type 0, BuildingBlock: BELTOD_clean_linker_0, # of connection points: 3
#     Node 5, Type 0, BuildingBlock: BELTOD_clean_linker_0, # of connection points: 3
#     Node 6, Type 0, BuildingBlock: BELTOD_clean_linker_0, # of connection points: 3
#     Node 7, Type 0, BuildingBlock: BELTOD_clean_linker_0, # of connection points: 3
#     Node 8, Type 0, BuildingBlock: BELTOD_clean_linker_0, # of connection points: 3
#     Node 9, Type 0, BuildingBlock: BELTOD_clean_linker_0, # of connection points: 3
#     Node 10, Type 0, BuildingBlock: BELTOD_clean_linker_0, # of connection points: 3
#     Node 11, Type 0, BuildingBlock: BELTOD_clean_linker_0, # of connection points: 3
#     Node 12, Type 0, BuildingBlock: BELTOD_clean_linker_0, # of connection points: 3
#     Node 13, Type 0, BuildingBlock: BELTOD_clean_linker_0, # of connection points: 3
#     Node 14, Type 0, BuildingBlock: BELTOD_clean_linker_0, # of connection points: 3
#     Node 15, Type 0, BuildingBlock: BELTOD_clean_linker_0, # of connection points: 3
#     Node 16, Type 0, BuildingBlock: BELTOD_clean_linker_0, # of connection points: 3
#     Node 17, Type 0, BuildingBlock: BELTOD_clean_linker_0, # of connection points: 3
#     Node 18, Type 1, BuildingBlock: KUMJIN_clean_sbu_0, # of connection points: 6
#     Node 19, Type 1, BuildingBlock: KUMJIN_clean_sbu_0, # of connection points: 6
#     Node 20, Type 1, BuildingBlock: KUMJIN_clean_sbu_0, # of connection points: 6
#     Node 21, Type 1, BuildingBlock: KUMJIN_clean_sbu_0, # of connection points: 6
#     Node 22, Type 1, BuildingBlock: KUMJIN_clean_sbu_0, # of connection points: 6
#     Node 23, Type 1, BuildingBlock: KUMJIN_clean_sbu_0, # of connection points: 6
#     Node 24, Type 1, BuildingBlock: KUMJIN_clean_sbu_0, # of connection points: 6
#     Node 25, Type 1, BuildingBlock: KUMJIN_clean_sbu_0, # of connection points: 6
#     Node 26, Type 1, BuildingBlock: KUMJIN_clean_sbu_0, # of connection points: 6
#     Edge 27, Type (0, 1), BuildingBlock: XUDNAN_clean_linker_2, # of connection points: 2
#     Edge 28, Type (0, 1), BuildingBlock: XUDNAN_clean_linker_2, # of connection points: 2
#     Edge 29, Type (0, 1), BuildingBlock: XUDNAN_clean_linker_2, # of connection points: 2
#     Edge 30, Type (0, 1), BuildingBlock: XUDNAN_clean_linker_2, # of connection points: 2
#     Edge 31, Type (0, 1), BuildingBlock: XUDNAN_clean_linker_2, # of connection points: 2
#     Edge 32, Type (0, 1), BuildingBlock: XUDNAN_clean_linker_2, # of connection points: 2
#     Edge 33, Type (0, 1), BuildingBlock: XUDNAN_clean_linker_2, # of connection points: 2
#     Edge 34, Type (0, 1), BuildingBlock: XUDNAN_clean_linker_2, # of connection points: 2
#     Edge 35, Type (0, 1), BuildingBlock: XUDNAN_clean_linker_2, # of connection points: 2
#     Edge 36, Type (0, 1), BuildingBlock: XUDNAN_clean_linker_2, # of connection points: 2
#     Edge 37, Type (0, 1), BuildingBlock: XUDNAN_clean_linker_2, # of connection points: 2
#     Edge 38, Type (0, 1), BuildingBlock: XUDNAN_clean_linker_2, # of connection points: 2
#     Edge 39, Type (0, 1), BuildingBlock: XUDNAN_clean_linker_2, # of connection points: 2
#     Edge 40, Type (0, 1), BuildingBlock: XUDNAN_clean_linker_2, # of connection points: 2
#     Edge 41, Type (0, 1), BuildingBlock: XUDNAN_clean_linker_2, # of connection points: 2
#     Edge 42, Type (0, 1), BuildingBlock: XUDNAN_clean_linker_2, # of connection points: 2
#     Edge 43, Type (0, 1), BuildingBlock: XUDNAN_clean_linker_2, # of connection points: 2
#     Edge 44, Type (0, 1), BuildingBlock: XUDNAN_clean_linker_2, # of connection points: 2
#     Edge 45, Type (0, 1), BuildingBlock: XUDNAN_clean_linker_2, # of connection points: 2
#     Edge 46, Type (0, 1), BuildingBlock: XUDNAN_clean_linker_2, # of connection points: 2
#     Edge 47, Type (0, 1), BuildingBlock: XUDNAN_clean_linker_2, # of connection points: 2
#     Edge 48, Type (0, 1), BuildingBlock: XUDNAN_clean_linker_2, # of connection points: 2
#     Edge 49, Type (0, 1), BuildingBlock: XUDNAN_clean_linker_2, # of connection points: 2
#     Edge 50, Type (0, 1), BuildingBlock: XUDNAN_clean_linker_2, # of connection points: 2
#     Edge 51, Type (0, 1), BuildingBlock: XUDNAN_clean_linker_2, # of connection points: 2
#     Edge 52, Type (0, 1), BuildingBlock: XUDNAN_clean_linker_2, # of connection points: 2
#     Edge 53, Type (0, 1), BuildingBlock: XUDNAN_clean_linker_2, # of connection points: 2
#     Edge 54, Type (0, 1), BuildingBlock: XUDNAN_clean_linker_2, # of connection points: 2
#     Edge 55, Type (0, 1), BuildingBlock: XUDNAN_clean_linker_2, # of connection points: 2
#     Edge 56, Type (0, 1), BuildingBlock: XUDNAN_clean_linker_2, # of connection points: 2
#     Edge 57, Type (0, 1), BuildingBlock: XUDNAN_clean_linker_2, # of connection points: 2
#     Edge 58, Type (0, 1), BuildingBlock: XUDNAN_clean_linker_2, # of connection points: 2
#     Edge 59, Type (0, 1), BuildingBlock: XUDNAN_clean_linker_2, # of connection points: 2
#     Edge 60, Type (0, 1), BuildingBlock: XUDNAN_clean_linker_2, # of connection points: 2
#     Edge 61, Type (0, 1), BuildingBlock: XUDNAN_clean_linker_2, # of connection points: 2
#     Edge 62, Type (0, 1), BuildingBlock: XUDNAN_clean_linker_2, # of connection points: 2
#     Edge 63, Type (0, 1), BuildingBlock: XUDNAN_clean_linker_2, # of connection points: 2
#     Edge 64, Type (0, 1), BuildingBlock: XUDNAN_clean_linker_2, # of connection points: 2
#     Edge 65, Type (0, 1), BuildingBlock: XUDNAN_clean_linker_2, # of connection points: 2
#     Edge 66, Type (0, 1), BuildingBlock: XUDNAN_clean_linker_2, # of connection points: 2
#     Edge 67, Type (0, 1), BuildingBlock: XUDNAN_clean_linker_2, # of connection points: 2
#     Edge 68, Type (0, 1), BuildingBlock: XUDNAN_clean_linker_2, # of connection points: 2
#     Edge 69, Type (0, 1), BuildingBlock: XUDNAN_clean_linker_2, # of connection points: 2
#     Edge 70, Type (0, 1), BuildingBlock: XUDNAN_clean_linker_2, # of connection points: 2
#     Edge 71, Type (0, 1), BuildingBlock: XUDNAN_clean_linker_2, # of connection points: 2
#     Edge 72, Type (0, 1), BuildingBlock: XUDNAN_clean_linker_2, # of connection points: 2
#     Edge 73, Type (0, 1), BuildingBlock: XUDNAN_clean_linker_2, # of connection points: 2
#     Edge 74, Type (0, 1), BuildingBlock: XUDNAN_clean_linker_2, # of connection points: 2
#     Edge 75, Type (0, 1), BuildingBlock: XUDNAN_clean_linker_2, # of connection points: 2
#     Edge 76, Type (0, 1), BuildingBlock: XUDNAN_clean_linker_2, # of connection points: 2
#     Edge 77, Type (0, 1), BuildingBlock: XUDNAN_clean_linker_2, # of connection points: 2
#     Edge 78, Type (0, 1), BuildingBlock: XUDNAN_clean_linker_2, # of connection points: 2
#     Edge 79, Type (0, 1), BuildingBlock: XUDNAN_clean_linker_2, # of connection points: 2
#     Edge 80, Type (0, 1), BuildingBlock: XUDNAN_clean_linker_2, # of connection points: 2
# Relax obj value: 0.008
# Max RMSD: 0.087
# Mean RMSD: 0.067
data_MOF--net-eea--node1-KUMJIN_clean_sbu_0--node2-BELTOD_clean_linker_0--edge1-XUDNAN_clean_linker_2
_symmetry_space_group_name_H-M    P1
_symmetry_Int_Tables_number       1
_symmetry_cell_setting            triclinic
loop_
_symmetry_equiv_pos_as_xyz
'x, y, z'
_cell_length_a     58.712764
_cell_length_b     59.662577
_cell_length_c     82.163594
_cell_angle_alpha  90.655893
_cell_angle_beta   90.190316
_cell_angle_gamma 120.0436
loop_
_atom_site_label
_atom_site_type_symbol
_atom_site_fract_x
_atom_site_fract_y
_atom_site_fract_z
_atom_type_partial_charge
P0 P 0.27465 0.13333 0.41332 0.0
H1 H 0.24126 0.11079 0.38454 0.0
H2 H 0.21597 0.06653 0.37393 0.0
H3 H 0.23716 0.03888 0.41653 0.0
H4 H 0.26282 0.08338 0.42696 0.0
H5 H 0.29632 0.18212 0.39559 0.0
H6 H 0.27766 0.20906 0.38752 0.0
H7 H 0.20416 0.1552 0.40986 0.0
H8 H 0.22248 0.12776 0.41735 0.0
H9 H 0.32223 0.1515 0.43341 0.0
H10 H 0.23922 0.12048 0.44123 0.0
O11 O 0.30335 0.14377 0.40397 0.0
H12 H 0.33006 0.15623 0.4628 0.0
H13 H 0.24702 0.12556 0.47065 0.0
C14 C 0.25339 0.10032 0.40673 0.0
C15 C 0.24004 0.09516 0.39177 0.0
C16 C 0.22555 0.0698 0.38571 0.0
C17 C 0.22441 0.04912 0.39442 0.0
C18 C 0.23775 0.05438 0.40948 0.0
C19 C 0.25222 0.07979 0.41554 0.0
C20 C 0.26088 0.15306 0.40725 0.0
C21 C 0.27614 0.17597 0.39866 0.0
C22 C 0.26546 0.1913 0.39399 0.0
C23 C 0.23953 0.18417 0.39811 0.0
C24 C 0.22428 0.16117 0.40665 0.0
C25 C 0.2348 0.14562 0.41104 0.0
C26 C 0.28016 0.13597 0.43506 0.0
C27 C 0.30565 0.1457 0.44142 0.0
C28 C 0.31012 0.14828 0.45825 0.0
C29 C 0.28918 0.14139 0.46904 0.0
C30 C 0.2636 0.13137 0.46263 0.0
C31 C 0.25913 0.1285 0.44579 0.0
P32 P 0.91397 0.10239 0.43757 0.0
H33 H 0.89974 0.05266 0.42237 0.0
H34 H 0.86043 0.01998 0.40811 0.0
H35 H 0.82663 0.06967 0.41169 0.0
H36 H 0.86577 0.10196 0.42644 0.0
H37 H 0.97097 0.12641 0.4374 0.0
H38 H 0.00482 0.15675 0.41922 0.0
H39 H 0.94585 0.16338 0.39159 0.0
H40 H 0.91167 0.13251 0.40989 0.0
H41 H 0.90942 0.09289 0.47251 0.0
H42 H 0.89846 0.14234 0.43942 0.0
O43 O 0.92708 0.08577 0.44565 0.0
H44 H 0.8964 0.11032 0.49514 0.0
H45 H 0.88329 0.15855 0.46186 0.0
C46 C 0.88552 0.07955 0.42584 0.0
C47 C 0.88388 0.05656 0.42012 0.0
C48 C 0.86141 0.03793 0.41179 0.0
C49 C 0.84018 0.04204 0.40881 0.0
C50 C 0.84234 0.06559 0.41405 0.0
C51 C 0.86482 0.08418 0.42246 0.0
C52 C 0.93871 0.12677 0.42481 0.0
C53 C 0.9652 0.1343 0.42745 0.0
C54 C 0.98456 0.15161 0.41701 0.0
C55 C 0.97792 0.16208 0.40382 0.0
C56 C 0.95149 0.1555 0.40162 0.0
C57 C 0.93198 0.13785 0.41203 0.0
C58 C 0.90496 0.1163 0.45423 0.0
C59 C 0.90405 0.10745 0.47007 0.0
C60 C 0.8962 0.11725 0.48305 0.0
C61 C 0.88842 0.13576 0.48047 0.0
C62 C 0.88945 0.14464 0.46449 0.0
C63 C 0.89787 0.13517 0.45154 0.0
P64 P 0.86861 0.7433 0.4156 0.0
H65 H 0.83741 0.73275 0.38589 0.0
H66 H 0.81422 0.75289 0.3737 0.0
H67 H 0.84569 0.81238 0.41123 0.0
H68 H 0.86911 0.79207 0.42334 0.0
H69 H 0.90037 0.71897 0.41909 0.0
H70 H 0.94133 0.72655 0.40713 0.0
H71 H 0.94804 0.79269 0.38181 0.0
H72 H 0.90737 0.78571 0.39475 0.0
H73 H 0.82825 0.74086 0.43726 0.0
H74 H 0.90428 0.74697 0.44255 0.0
O75 O 0.84918 0.71209 0.41068 0.0
H76 H 0.82134 0.73426 0.46654 0.0
H77 H 0.89706 0.73957 0.47172 0.0
C78 C 0.85452 0.76058 0.40573 0.0
C79 C 0.83946 0.7502 0.39147 0.0
C80 C 0.82609 0.76169 0.38454 0.0
C81 C 0.82772 0.78402 0.39163 0.0
C82 C 0.844 0.79519 0.40545 0.0
C83 C 0.85733 0.78357 0.41243 0.0
C84 C 0.90082 0.75183 0.40797 0.0
C85 C 0.9109 0.73547 0.41126 0.0
C86 C 0.93423 0.73964 0.40416 0.0
C87 C 0.94786 0.75993 0.39315 0.0
C88 C 0.93817 0.77691 0.39023 0.0
C89 C 0.91483 0.77288 0.3976 0.0
C90 C 0.86691 0.74473 0.43758 0.0
C91 C 0.84376 0.74144 0.44473 0.0
C92 C 0.83976 0.73752 0.4615 0.0
C93 C 0.85859 0.73622 0.47144 0.0
C94 C 0.88208 0.74022 0.46435 0.0
C95 C 0.88625 0.74455 0.44761 0.0
P96 P 0.13202 0.26649 0.60552 0.0
H97 H 0.10697 0.28869 0.6257 0.0
H98 H 0.06256 0.27142 0.6361 0.0
H99 H 0.03887 0.19858 0.61136 0.0
H100 H 0.08379 0.21596 0.60127 0.0
H101 H 0.17748 0.26432 0.5933 0.0
H102 H 0.20164 0.24366 0.60335 0.0
H103 H 0.14413 0.20715 0.64115 0.0
H104 H 0.12004 0.22784 0.631 0.0
H105 H 0.14636 0.31225 0.58603 0.0
H106 H 0.1189 0.23128 0.57718 0.0
O107 O 0.15083 0.29536 0.61445 0.0
H108 H 0.14815 0.3195 0.5568 0.0
H109 H 0.12077 0.23842 0.54771 0.0
C110 C 0.0988 0.25352 0.61282 0.0
C111 C 0.09229 0.26897 0.62251 0.0
C112 C 0.06673 0.25912 0.62837 0.0
C113 C 0.04702 0.23356 0.62462 0.0
C114 C 0.05359 0.21821 0.61471 0.0
C115 C 0.07923 0.22814 0.60883 0.0
C116 C 0.14655 0.24713 0.6111 0.0
C117 C 0.16971 0.25138 0.60351 0.0
C118 C 0.18369 0.23979 0.6094 0.0
C119 C 0.17488 0.22378 0.6231 0.0
C120 C 0.15129 0.21908 0.63046 0.0
C121 C 0.13742 0.23086 0.62461 0.0
C122 C 0.13287 0.27129 0.5838 0.0
C123 C 0.14087 0.29602 0.57779 0.0
C124 C 0.142 0.30018 0.56102 0.0
C125 C 0.13487 0.27962 0.54986 0.0
C126 C 0.12632 0.25468 0.55595 0.0
C127 C 0.12532 0.25057 0.57279 0.0
P128 P 0.79524 0.90027 0.58013 0.0
H129 H 0.80272 0.90898 0.61541 0.0
H130 H 0.80525 0.94256 0.63333 0.0
H131 H 0.78945 0.97815 0.59258 0.0
H132 H 0.785 0.94311 0.57477 0.0
H133 H 0.82862 0.87666 0.58158 0.0
H134 H 0.82565 0.8405 0.59704 0.0
H135 H 0.75377 0.82869 0.61896 0.0
H136 H 0.75704 0.86517 0.60364 0.0
H137 H 0.79165 0.92365 0.54993 0.0
H138 H 0.74536 0.85096 0.57433 0.0
O139 O 0.82485 0.91598 0.5716 0.0
H140 H 0.76124 0.90687 0.52663 0.0
H141 H 0.71546 0.83422 0.55112 0.0
C142 C 0.79292 0.92296 0.59372 0.0
C143 C 0.79876 0.92333 0.61032 0.0
C144 C 0.80071 0.94296 0.62058 0.0
C145 C 0.79791 0.96333 0.6144 0.0
C146 C 0.79141 0.96263 0.59783 0.0
C147 C 0.78895 0.94259 0.58758 0.0
C148 C 0.79302 0.87355 0.59146 0.0
C149 C 0.81229 0.8664 0.58976 0.0
C150 C 0.81065 0.84584 0.59864 0.0
C151 C 0.7895 0.83189 0.60919 0.0
C152 C 0.77018 0.83904 0.61083 0.0
C153 C 0.77204 0.85983 0.60211 0.0
C154 C 0.77097 0.88866 0.56394 0.0
C155 C 0.77479 0.90428 0.55043 0.0
C156 C 0.75742 0.8947 0.53713 0.0
C157 C 0.73612 0.86919 0.53707 0.0
C158 C 0.73188 0.85387 0.5508 0.0
C159 C 0.74905 0.86356 0.56416 0.0
P160 P 0.13072 0.85872 0.60476 0.0
H161 H 0.17406 0.87753 0.62828 0.0
H162 H 0.20052 0.91905 0.64233 0.0
H163 H 0.15624 0.94922 0.61824 0.0
H164 H 0.12942 0.90723 0.60426 0.0
H165 H 0.1088 0.82539 0.63269 0.0
H166 H 0.06503 0.8034 0.64464 0.0
H167 H 0.03754 0.83571 0.60783 0.0
H168 H 0.08172 0.85811 0.59612 0.0
H169 H 0.1616 0.9018 0.58245 0.0
H170 H 0.10022 0.82171 0.57901 0.0
O171 O 0.14425 0.84038 0.60826 0.0
H172 H 0.16434 0.90383 0.55286 0.0
H173 H 0.10348 0.82352 0.54924 0.0
C174 C 0.15005 0.88945 0.61505 0.0
C175 C 0.17001 0.89302 0.62596 0.0
C176 C 0.18507 0.91674 0.63404 0.0
C177 C 0.18049 0.93736 0.63131 0.0
C178 C 0.16036 0.93372 0.62041 0.0
C179 C 0.14502 0.90979 0.61249 0.0
C180 C 0.09826 0.84279 0.61328 0.0
C181 C 0.09331 0.82764 0.62715 0.0
C182 C 0.06826 0.81504 0.63395 0.0
C183 C 0.04767 0.81754 0.6271 0.0
C184 C 0.05296 0.83345 0.61346 0.0
C185 C 0.07812 0.84607 0.60665 0.0
C186 C 0.13017 0.86175 0.58298 0.0
C187 C 0.14816 0.88482 0.57538 0.0
C188 C 0.14982 0.88597 0.55842 0.0
C189 C 0.13404 0.86387 0.54878 0.0
C190 C 0.11584 0.84084 0.5564 0.0
C191 C 0.11388 0.83985 0.57337 0.0
P192 P 0.95056 0.47785 0.74291 0.0
H193 H 0.96194 0.45055 0.71725 0.0
H194 H 0.93682 0.40671 0.70579 0.0
H195 H 0.87207 0.39103 0.73743 0.0
H196 H 0.89754 0.43495 0.7491 0.0
H197 H 0.97428 0.53378 0.74373 0.0
H198 H 0.96081 0.56329 0.73303 0.0
H199 H 0.88922 0.49803 0.71396 0.0
H200 H 0.90217 0.46865 0.72553 0.0
H201 H 0.95108 0.43988 0.76457 0.0
H202 H 0.9511 0.51198 0.76951 0.0
O203 O 0.98181 0.49027 0.73724 0.0
H204 H 0.95635 0.4391 0.794 0.0
H205 H 0.95673 0.51143 0.79892 0.0
C206 C 0.93164 0.44587 0.7341 0.0
C207 C 0.94238 0.43772 0.72177 0.0
C208 C 0.92804 0.41267 0.71523 0.0
C209 C 0.90257 0.39553 0.72077 0.0
C210 C 0.89161 0.40394 0.7329 0.0
C211 C 0.90614 0.4289 0.7396 0.0
C212 C 0.93928 0.49901 0.73552 0.0
C213 C 0.95552 0.52582 0.73743 0.0
C214 C 0.94788 0.54269 0.73111 0.0
C215 C 0.92403 0.53312 0.7224 0.0
C216 C 0.90758 0.50614 0.72072 0.0
C217 C 0.91509 0.48924 0.72729 0.0
C218 C 0.95025 0.47575 0.76478 0.0
C219 C 0.95164 0.45527 0.77199 0.0
C220 C 0.95469 0.45485 0.78883 0.0
C221 C 0.95694 0.47521 0.79875 0.0
C222 C 0.9552 0.49556 0.79154 0.0
C223 C 0.95186 0.49581 0.77469 0.0
P224 P 0.5844 0.43508 0.76515 0.0
H225 H 0.57015 0.38327 0.7528 0.0
H226 H 0.53072 0.34911 0.73928 0.0
H227 H 0.49774 0.39972 0.73859 0.0
H228 H 0.53639 0.43291 0.75315 0.0
H229 H 0.64173 0.46683 0.76401 0.0
H230 H 0.67168 0.5023 0.7466 0.0
H231 H 0.6051 0.49478 0.71929 0.0
H232 H 0.5754 0.45993 0.73695 0.0
H233 H 0.54218 0.4095 0.78857 0.0
H234 H 0.60394 0.48744 0.77913 0.0
O235 O 0.60061 0.42141 0.77313 0.0
H236 H 0.52961 0.42483 0.81274 0.0
H237 H 0.59123 0.50301 0.80314 0.0
C238 C 0.55609 0.41054 0.7541 0.0
C239 C 0.55436 0.38694 0.74977 0.0
C240 C 0.53184 0.36747 0.74185 0.0
C241 C 0.51077 0.37142 0.73788 0.0
C242 C 0.51315 0.39559 0.74177 0.0
C243 C 0.53543 0.41479 0.74995 0.0
C244 C 0.60629 0.46042 0.75169 0.0
C245 C 0.6336 0.47266 0.75418 0.0
C246 C 0.65073 0.49286 0.74414 0.0
C247 C 0.64084 0.50134 0.73147 0.0
C248 C 0.61342 0.4889 0.729 0.0
C249 C 0.59634 0.46877 0.73907 0.0
C250 C 0.57373 0.44734 0.78188 0.0
C251 C 0.55273 0.43 0.79154 0.0
C252 C 0.54551 0.43882 0.80535 0.0
C253 C 0.55936 0.46519 0.80991 0.0
C254 C 0.58028 0.48255 0.80009 0.0
C255 C 0.58745 0.47369 0.78625 0.0
P256 P 0.5407 0.08565 0.7483 0.0
H257 H 0.48509 0.06441 0.75366 0.0
H258 H 0.45201 0.07288 0.74199 0.0
H259 H 0.51229 0.13656 0.71504 0.0
H260 H 0.54573 0.12816 0.72712 0.0
H261 H 0.55197 0.07768 0.71513 0.0
H262 H 0.59279 0.08763 0.70142 0.0
H263 H 0.63766 0.13379 0.74291 0.0
H264 H 0.59653 0.12364 0.75672 0.0
H265 H 0.51767 0.10119 0.77524 0.0
H266 H 0.57231 0.07332 0.76973 0.0
O267 O 0.52583 0.05395 0.74415 0.0
H268 H 0.51689 0.09477 0.80461 0.0
H269 H 0.57198 0.06734 0.79912 0.0
C270 C 0.51787 0.09554 0.74124 0.0
C271 C 0.49134 0.08047 0.74544 0.0
C272 C 0.47239 0.08524 0.73866 0.0
C273 C 0.47943 0.10513 0.72736 0.0
C274 C 0.50625 0.12111 0.72371 0.0
C275 C 0.52536 0.11628 0.73057 0.0
C276 C 0.57114 0.09948 0.73707 0.0
C277 C 0.57058 0.09046 0.72116 0.0
C278 C 0.59392 0.09611 0.71333 0.0
C279 C 0.61838 0.11122 0.72118 0.0
C280 C 0.61908 0.12213 0.73658 0.0
C281 C 0.59557 0.11624 0.7445 0.0
C282 C 0.54522 0.08791 0.77019 0.0
C283 C 0.52995 0.09421 0.78031 0.0
C284 C 0.52939 0.0904 0.79715 0.0
C285 C 0.54425 0.0804 0.80422 0.0
C286 C 0.56051 0.07533 0.79412 0.0
C287 C 0.56079 0.07884 0.77729 0.0
P288 P 0.79344 0.59448 0.93727 0.0
H289 H 0.76937 0.57233 0.96847 0.0
H290 H 0.72429 0.5533 0.9786 0.0
H291 H 0.69837 0.56437 0.93176 0.0
H292 H 0.74315 0.58212 0.92134 0.0
H293 H 0.84835 0.60999 0.93325 0.0
H294 H 0.87521 0.59156 0.94171 0.0
H295 H 0.80613 0.52592 0.96155 0.0
H296 H 0.77923 0.54351 0.95174 0.0
H297 H 0.79219 0.63589 0.91962 0.0
H298 H 0.80086 0.57001 0.9078 0.0
O299 O 0.80818 0.62257 0.94756 0.0
H300 H 0.79917 0.64885 0.89119 0.0
H301 H 0.8086 0.58322 0.87928 0.0
C302 C 0.7596 0.57781 0.94396 0.0
C303 C 0.75388 0.56992 0.96019 0.0
C304 C 0.7282 0.5593 0.96603 0.0
C305 C 0.70796 0.55735 0.95592 0.0
C306 C 0.7137 0.56563 0.93976 0.0
C307 C 0.73927 0.57564 0.93379 0.0
C308 C 0.81185 0.57848 0.94214 0.0
C309 C 0.83895 0.59144 0.93924 0.0
C310 C 0.85438 0.58097 0.94432 0.0
C311 C 0.84314 0.55741 0.95274 0.0
C312 C 0.81568 0.54402 0.95509 0.0
C313 C 0.80018 0.55431 0.94967 0.0
C314 C 0.79649 0.60228 0.9159 0.0
C315 C 0.79568 0.62424 0.91089 0.0
C316 C 0.79987 0.63172 0.89461 0.0
C317 C 0.80495 0.61738 0.88293 0.0
C318 C 0.80473 0.59474 0.8879 0.0
C319 C 0.80045 0.58722 0.90424 0.0
P320 P 0.47998 0.2348 0.91488 0.0
H321 H 0.51659 0.28625 0.92847 0.0
H322 H 0.5099 0.31834 0.94302 0.0
H323 H 0.42589 0.26509 0.94232 0.0
H324 H 0.43278 0.23391 0.92687 0.0
H325 H 0.50606 0.20414 0.91407 0.0
H326 H 0.50457 0.17094 0.93193 0.0
H327 H 0.44698 0.17635 0.96175 0.0
H328 H 0.44878 0.20965 0.944 0.0
H329 H 0.46629 0.25975 0.88969 0.0
H330 H 0.44181 0.18155 0.9038 0.0
O331 O 0.50983 0.25013 0.90663 0.0
H332 H 0.4361 0.24327 0.86637 0.0
H333 H 0.41118 0.16487 0.88069 0.0
C334 C 0.47515 0.25788 0.92641 0.0
C335 C 0.49674 0.28157 0.93141 0.0
C336 C 0.49287 0.29981 0.93992 0.0
C337 C 0.46731 0.29447 0.94382 0.0
C338 C 0.44581 0.27022 0.93923 0.0
C339 C 0.4497 0.25223 0.93049 0.0
C340 C 0.47805 0.20985 0.92791 0.0
C341 C 0.49319 0.19824 0.92449 0.0
C342 C 0.49215 0.17911 0.93463 0.0
C343 C 0.4758 0.17117 0.94834 0.0
C344 C 0.46013 0.1824 0.95146 0.0
C345 C 0.46113 0.20145 0.94128 0.0
C346 C 0.45624 0.22192 0.89849 0.0
C347 C 0.45417 0.23901 0.88785 0.0
C348 C 0.43677 0.22954 0.87459 0.0
C349 C 0.42116 0.20273 0.87167 0.0
C350 C 0.42311 0.18563 0.8825 0.0
C351 C 0.44054 0.19515 0.89578 0.0
P352 P 0.79854 0.196 0.93925 0.0
H353 H 0.82299 0.22439 0.96941 0.0
H354 H 0.85092 0.27068 0.97574 0.0
H355 H 0.84031 0.28878 0.92657 0.0
H356 H 0.8121 0.24269 0.92037 0.0
H357 H 0.75319 0.14605 0.93068 0.0
H358 H 0.70921 0.1212 0.94199 0.0
H359 H 0.72728 0.18367 0.97619 0.0
H360 H 0.77085 0.2088 0.96434 0.0
H361 H 0.83712 0.19227 0.91895 0.0
H362 H 0.76408 0.19174 0.91187 0.0
O363 O 0.81404 0.1826 0.94852 0.0
H364 H 0.84046 0.1878 0.88961 0.0
H365 H 0.76742 0.18763 0.88239 0.0
C366 C 0.81587 0.23006 0.94436 0.0
C367 C 0.82636 0.23836 0.96008 0.0
C368 C 0.84216 0.26477 0.96371 0.0
C369 C 0.84792 0.28323 0.95159 0.0
C370 C 0.83636 0.27489 0.93607 0.0
C371 C 0.82027 0.24852 0.93253 0.0
C372 C 0.76515 0.17951 0.9464 0.0
C373 C 0.74749 0.15462 0.94038 0.0
C374 C 0.72244 0.14028 0.94703 0.0
C375 C 0.7147 0.15033 0.96011 0.0
C376 C 0.73241 0.17544 0.966 0.0
C377 C 0.75744 0.18985 0.95924 0.0
C378 C 0.80002 0.19165 0.9176 0.0
C379 C 0.82169 0.19099 0.91107 0.0
C380 C 0.8237 0.18871 0.89426 0.0
C381 C 0.80417 0.18729 0.88363 0.0
C382 C 0.78258 0.18824 0.89025 0.0
C383 C 0.78063 0.19058 0.90709 0.0
P384 P 0.62281 0.80673 0.07694 0.0
H385 H 0.63792 0.77264 0.05994 0.0
H386 H 0.61244 0.72809 0.04971 0.0
H387 H 0.54153 0.72321 0.06872 0.0
H388 H 0.56715 0.76805 0.07853 0.0
H389 H 0.6203 0.82123 0.04382 0.0
H390 H 0.5979 0.8417 0.03083 0.0
H391 H 0.56846 0.84882 0.07754 0.0
H392 H 0.59035 0.82767 0.09045 0.0
H393 H 0.60987 0.76733 0.1019 0.0
H394 H 0.64144 0.84992 0.10025 0.0
O395 O 0.65351 0.82018 0.07003 0.0
H396 H 0.61566 0.77001 0.13127 0.0
H397 H 0.64668 0.8527 0.12992 0.0
C398 C 0.60433 0.77366 0.06983 0.0
C399 C 0.61689 0.76199 0.06189 0.0
C400 C 0.60231 0.73642 0.05616 0.0
C401 C 0.5749 0.72207 0.05834 0.0
C402 C 0.56251 0.73381 0.06658 0.0
C403 C 0.57712 0.75939 0.07226 0.0
C404 C 0.60753 0.82349 0.06813 0.0
C405 C 0.6092 0.82738 0.05129 0.0
C406 C 0.59627 0.83891 0.04388 0.0
C407 C 0.58155 0.84691 0.05321 0.0
C408 C 0.57996 0.84309 0.07012 0.0
C409 C 0.59256 0.83113 0.0775 0.0
C410 C 0.62461 0.80837 0.09887 0.0
C411 C 0.6175 0.78602 0.10786 0.0
C412 C 0.62079 0.78757 0.12475 0.0
C413 C 0.63142 0.81154 0.13303 0.0
C414 C 0.63857 0.83394 0.12395 0.0
C415 C 0.63535 0.83236 0.10701 0.0
P416 P 0.24334 0.77124 0.10152 0.0
H417 H 0.22131 0.71574 0.09502 0.0
H418 H 0.18269 0.6839 0.07969 0.0
H419 H 0.16224 0.7426 0.06941 0.0
H420 H 0.20135 0.77454 0.08463 0.0
H421 H 0.28659 0.82457 0.10672 0.0
H422 H 0.31985 0.85597 0.08843 0.0
H423 H 0.28314 0.80268 0.04799 0.0
H424 H 0.24988 0.77156 0.06622 0.0
H425 H 0.2228 0.7486 0.13281 0.0
H426 H 0.23931 0.81816 0.10772 0.0
O427 O 0.2596 0.75705 0.10861 0.0
H428 H 0.20766 0.76263 0.15642 0.0
H429 H 0.22476 0.83266 0.13157 0.0
C430 C 0.21418 0.74749 0.09089 0.0
C431 C 0.20847 0.72176 0.08955 0.0
C432 C 0.18625 0.70351 0.08086 0.0
C433 C 0.16935 0.7107 0.07334 0.0
C434 C 0.17501 0.7365 0.07492 0.0
C435 C 0.19724 0.75473 0.08366 0.0
C436 C 0.26518 0.79604 0.08778 0.0
C437 C 0.2852 0.81997 0.09384 0.0
C438 C 0.30424 0.83788 0.08338 0.0
C439 C 0.30399 0.83181 0.06677 0.0
C440 C 0.28381 0.80789 0.06073 0.0
C441 C 0.26464 0.79017 0.07115 0.0
C442 C 0.23297 0.78271 0.11874 0.0
C443 C 0.22343 0.76704 0.13245 0.0
C444 C 0.2146 0.77497 0.14589 0.0
C445 C 0.21521 0.79881 0.14585 0.0
C446 C 0.22443 0.81436 0.13198 0.0
C447 C 0.23287 0.80616 0.1184 0.0
P448 P 0.20342 0.41464 0.08056 0.0
H449 H 0.15374 0.41066 0.08942 0.0
H450 H 0.12949 0.43093 0.07887 0.0
H451 H 0.19567 0.48033 0.04879 0.0
H452 H 0.21992 0.46016 0.05953 0.0
H453 H 0.25997 0.44607 0.08996 0.0
H454 H 0.30042 0.45569 0.07532 0.0
H455 H 0.2537 0.41492 0.03294 0.0
H456 H 0.21376 0.40564 0.04743 0.0
H457 H 0.21181 0.44951 0.10869 0.0
H458 H 0.20008 0.37301 0.10036 0.0
O459 O 0.18229 0.38487 0.07359 0.0
H460 H 0.20978 0.44269 0.13815 0.0
H461 H 0.19674 0.36546 0.12947 0.0
C462 C 0.18864 0.43388 0.07532 0.0
C463 C 0.16324 0.42624 0.08081 0.0
C464 C 0.1493 0.43766 0.07463 0.0
C465 C 0.16049 0.45702 0.06281 0.0
C466 C 0.1865 0.46555 0.05792 0.0
C467 C 0.2004 0.45398 0.06407 0.0
C468 C 0.23383 0.42458 0.0699 0.0
C469 C 0.25854 0.43947 0.07747 0.0
C470 C 0.28161 0.4451 0.06907 0.0
C471 C 0.28015 0.43581 0.05304 0.0
C472 C 0.25541 0.42207 0.04533 0.0
C473 C 0.23256 0.41668 0.05363 0.0
C474 C 0.20573 0.41165 0.10232 0.0
C475 C 0.20893 0.4313 0.11321 0.0
C476 C 0.2075 0.42722 0.13007 0.0
C477 C 0.20275 0.40334 0.13637 0.0
C478 C 0.20072 0.38421 0.1253 0.0
C479 C 0.20242 0.38842 0.10852 0.0
P480 P 0.46098 0.92557 0.27209 0.0
H481 H 0.4338 0.94819 0.28947 0.0
H482 H 0.38965 0.93041 0.30015 0.0
H483 H 0.36964 0.8549 0.2809 0.0
H484 H 0.41461 0.87278 0.27094 0.0
H485 H 0.5089 0.92791 0.26075 0.0
H486 H 0.53516 0.90952 0.27078 0.0
H487 H 0.4766 0.86762 0.30715 0.0
H488 H 0.45048 0.8864 0.29719 0.0
H489 H 0.49222 0.96985 0.25124 0.0
H490 H 0.4337 0.8893 0.24471 0.0
O491 O 0.47864 0.95496 0.28062 0.0
H492 H 0.49666 0.97483 0.22192 0.0
H493 H 0.43732 0.89431 0.21515 0.0
C494 C 0.42767 0.91181 0.27948 0.0
C495 C 0.42002 0.92776 0.28758 0.0
C496 C 0.39452 0.91757 0.29357 0.0
C497 C 0.37583 0.89115 0.29142 0.0
C498 C 0.38351 0.87525 0.28304 0.0
C499 C 0.40919 0.88549 0.27716 0.0
C500 C 0.47736 0.90805 0.27792 0.0
C501 C 0.50139 0.91436 0.27067 0.0
C502 C 0.51655 0.90405 0.27652 0.0
C503 C 0.50798 0.88717 0.28977 0.0
C504 C 0.48357 0.88036 0.29681 0.0
C505 C 0.46855 0.891 0.29106 0.0
C506 C 0.46228 0.92929 0.25025 0.0
C507 C 0.47991 0.95328 0.2435 0.0
C508 C 0.48235 0.95615 0.22663 0.0
C509 C 0.4672 0.93504 0.21605 0.0
C510 C 0.44946 0.91097 0.22288 0.0
C511 C 0.44714 0.90812 0.23982 0.0
P512 P 0.13882 0.5664 0.24521 0.0
H513 H 0.17952 0.60756 0.26475 0.0
H514 H 0.18 0.63994 0.28334 0.0
H515 H 0.09774 0.61127 0.27286 0.0
H516 H 0.09739 0.5786 0.25415 0.0
H517 H 0.17538 0.54874 0.25461 0.0
H518 H 0.16997 0.51222 0.27066 0.0
H519 H 0.08971 0.49163 0.28081 0.0
H520 H 0.09533 0.52845 0.26472 0.0
H521 H 0.12011 0.59116 0.22242 0.0
H522 H 0.10438 0.51386 0.23228 0.0
O523 O 0.16784 0.57941 0.23592 0.0
H524 H 0.09142 0.57478 0.19831 0.0
H525 H 0.07509 0.49733 0.20881 0.0
C526 C 0.1386 0.59109 0.25783 0.0
C527 C 0.16164 0.60839 0.26629 0.0
C528 C 0.16183 0.62675 0.27702 0.0
C529 C 0.13888 0.62808 0.27958 0.0
C530 C 0.11576 0.61081 0.27099 0.0
C531 C 0.11555 0.5922 0.2603 0.0
C532 C 0.1356 0.54101 0.25829 0.0
C533 C 0.15669 0.53654 0.26039 0.0
C534 C 0.15363 0.51574 0.26966 0.0
C535 C 0.12937 0.49899 0.27691 0.0
C536 C 0.10853 0.50406 0.27521 0.0
C537 C 0.11173 0.52508 0.26609 0.0
C538 C 0.11393 0.55371 0.22942 0.0
C539 C 0.10988 0.57058 0.2197 0.0
C540 C 0.09344 0.56117 0.20593 0.0
C541 C 0.08102 0.53473 0.20158 0.0
C542 C 0.0846 0.51784 0.21167 0.0
C543 C 0.10112 0.52728 0.22531 0.0
P544 P 0.45815 0.53317 0.26786 0.0
H545 H 0.48176 0.5586 0.29887 0.0
H546 H 0.51133 0.6041 0.3066 0.0
H547 H 0.50363 0.62718 0.25824 0.0
H548 H 0.47342 0.58186 0.25072 0.0
H549 H 0.41813 0.47878 0.26846 0.0
H550 H 0.37512 0.45514 0.28114 0.0
H551 H 0.38377 0.52741 0.2992 0.0
H552 H 0.42619 0.55096 0.28567 0.0
H553 H 0.50159 0.55461 0.24524 0.0
H554 H 0.41749 0.50431 0.24233 0.0
O555 O 0.47404 0.51918 0.27582 0.0
H556 H 0.50477 0.54998 0.21601 0.0
H557 H 0.4206 0.49781 0.2133 0.0
C558 C 0.47605 0.5668 0.27409 0.0
C559 C 0.48608 0.5735 0.29002 0.0
C560 C 0.50283 0.59945 0.29445 0.0
C561 C 0.50996 0.61901 0.28294 0.0
C562 C 0.49864 0.61237 0.26727 0.0
C563 C 0.48149 0.58647 0.26295 0.0
C564 C 0.42534 0.5166 0.27604 0.0
C565 C 0.41057 0.48954 0.27495 0.0
C566 C 0.38609 0.47603 0.28243 0.0
C567 C 0.376 0.48927 0.29146 0.0
C568 C 0.39072 0.51652 0.29227 0.0
C569 C 0.41513 0.53006 0.28457 0.0
C570 C 0.45933 0.53 0.24601 0.0
C571 C 0.48377 0.54247 0.23829 0.0
C572 C 0.48557 0.53948 0.22153 0.0
C573 C 0.46298 0.52329 0.21211 0.0
C574 C 0.43844 0.51078 0.21997 0.0
C575 C 0.43663 0.51425 0.23672 0.0
Eu576 Eu 0.4899 0.98158 0.98684 0.0
C577 C 0.55212 0.06829 0.03904 0.0
C578 C 0.59698 0.0781 0.03496 0.0
C579 C 0.58839 0.11178 0.04461 0.0
C580 C 0.56965 0.06048 0.03431 0.0
C581 C 0.56131 0.09376 0.04482 0.0
C582 C 0.6062 0.10397 0.03964 0.0
C583 C 0.51674 0.08076 0.05253 0.0
N584 N 0.52617 0.05034 0.03928 0.0
C585 C 0.50863 0.05574 0.04666 0.0
C586 C 0.54313 0.10001 0.0513 0.0
Eu587 Eu 0.51349 0.00865 0.02872 0.0
N588 N 0.56005 0.03524 0.03011 0.0
C589 C 0.57686 0.02592 0.0277 0.0
C590 C 0.61422 0.06897 0.03142 0.0
C591 C 0.60411 0.04266 0.02809 0.0
H592 H 0.48817 0.04088 0.04748 0.0
H593 H 0.61728 0.03527 0.02572 0.0
H594 H 0.6271 0.11786 0.04 0.0
H595 H 0.50264 0.08518 0.05793 0.0
H596 H 0.56952 0.00574 0.02497 0.0
H597 H 0.38499 0.94965 0.99075 0.0
H598 H 0.63533 0.08189 0.0317 0.0
H599 H 0.51877 0.9524 0.96839 0.0
H600 H 0.43248 0.98079 0.99231 0.0
H601 H 0.50663 0.90962 0.95627 0.0
H602 H 0.59582 0.13156 0.04879 0.0
H603 H 0.36908 0.9044 0.98188 0.0
H604 H 0.37962 0.87103 0.9712 0.0
H605 H 0.5494 0.11935 0.05591 0.0
H606 H 0.4127 0.86011 0.96177 0.0
N607 N 0.44372 0.95337 0.98494 0.0
C608 C 0.42597 0.96117 0.98839 0.0
C609 C 0.39004 0.91801 0.98257 0.0
C610 C 0.40827 0.91053 0.97811 0.0
C611 C 0.39894 0.94354 0.98754 0.0
C612 C 0.43533 0.92895 0.97936 0.0
H613 H 0.46007 0.87449 0.95591 0.0
N614 N 0.47961 0.94123 0.97506 0.0
C615 C 0.4916 0.91298 0.96137 0.0
C616 C 0.45388 0.92269 0.97424 0.0
C617 C 0.49841 0.93715 0.9682 0.0
C618 C 0.46531 0.89319 0.96122 0.0
C619 C 0.446 0.89801 0.96749 0.0
O620 O 0.51 0.99419 0.96347 0.0
O621 O 0.52181 0.01217 1.00218 0.0
O622 O 0.50572 0.03737 0.0156 0.0
O623 O 0.47884 0.01205 0.99382 0.0
O624 O 0.53354 0.9968 0.98355 0.0
O625 O 0.47587 0.99787 0.96833 0.0
O626 O 0.49364 0.99821 0.05221 0.0
O627 O 0.48159 0.9779 0.01344 0.0
O628 O 0.49723 0.95249 0.99981 0.0
O629 O 0.5234 0.97724 0.02195 0.0
O630 O 0.46978 0.99312 0.03205 0.0
O631 O 0.5268 0.9927 0.04793 0.0
C632 C 0.54163 0.01399 0.99508 0.0
C633 C 0.48384 0.99179 0.94086 0.0
C634 C 0.48787 3e-05 0.91155 0.0
C635 C 0.49692 0.00803 0.92769 0.0
C636 C 0.46554 0.97544 0.90891 0.0
C637 C 0.46167 0.9674 0.93787 0.0
C638 C 0.45262 0.95932 0.92197 0.0
C639 C 0.48968 0.0333 1.00311 0.0
C640 C 0.49341 0.00056 0.95763 0.0
C641 C 0.41914 0.87927 0.96677 0.0
C642 C 0.40031 0.8855 0.97212 0.0
C643 C 0.46166 0.97567 0.02066 0.0
C644 C 0.52027 0.00254 0.07489 0.0
C645 C 0.50861 0.98761 0.08877 0.0
C646 C 0.51791 0.99803 0.1045 0.0
C647 C 0.53909 0.02357 0.10604 0.0
C648 C 0.54145 0.02786 0.07676 0.0
C649 C 0.55075 0.0383 0.09226 0.0
C650 C 0.51313 0.95631 0.01234 0.0
C651 C 0.50988 0.99177 0.05855 0.0
H652 H 0.51393 0.02697 0.93004 0.0
H653 H 0.45828 0.96843 0.89669 0.0
H654 H 0.45134 0.95465 0.94782 0.0
H655 H 0.43554 0.94042 0.91975 0.0
H656 H 0.49212 0.96808 0.08733 0.0
H657 H 0.54698 0.03204 0.11792 0.0
H658 H 0.55081 0.03956 0.06626 0.0
H659 H 0.56713 0.05786 0.0936 0.0
Eu660 Eu 0.02449 0.51707 0.98625 0.0
C661 C 0.92013 0.46368 0.02696 0.0
C662 C 0.90237 0.4924 0.0245 0.0
C663 C 0.87286 0.44632 0.02826 0.0
C664 C 0.92398 0.48821 0.02462 0.0
C665 C 0.89459 0.44254 0.02924 0.0
C666 C 0.87674 0.47122 0.02588 0.0
C667 C 0.91418 0.41616 0.03493 0.0
N668 N 0.94153 0.46077 0.02796 0.0
C669 C 0.93908 0.4377 0.03247 0.0
C670 C 0.89178 0.41845 0.033 0.0
Eu671 Eu 0.98298 0.49775 0.02328 0.0
N672 N 0.949 0.50823 0.02347 0.0
C673 C 0.95391 0.53316 0.02361 0.0
C674 C 0.90723 0.51782 0.02356 0.0
C675 C 0.93315 0.53831 0.02344 0.0
H676 H 0.95634 0.43579 0.03378 0.0
H677 H 0.93718 0.5581 0.02318 0.0
H678 H 0.85987 0.474 0.02562 0.0
H679 H 0.91228 0.39779 0.03822 0.0
H680 H 0.97381 0.54921 0.0234 0.0
H681 H 0.06957 0.45601 0.98779 0.0
H682 H 0.89119 0.52187 0.0234 0.0
H683 H 0.05217 0.57907 0.97558 0.0
H684 H 0.0332 0.46521 0.98646 0.0
H685 H 0.09667 0.61721 0.97253 0.0
H686 H 0.85306 0.43027 0.0298 0.0
H687 H 0.11567 0.49201 0.98815 0.0
H688 H 0.14738 0.53982 0.98627 0.0
H689 H 0.87251 0.40172 0.03487 0.0
H690 H 0.15481 0.58379 0.98214 0.0
N691 N 0.05824 0.50619 0.98654 0.0
C692 C 0.05314 0.48119 0.98654 0.0
C693 C 0.09975 0.49621 0.98755 0.0
C694 C 0.10486 0.5217 0.98649 0.0
C695 C 0.07376 0.47584 0.98731 0.0
C696 C 0.08339 0.52609 0.98585 0.0
H697 H 0.13601 0.61281 0.97676 0.0
N698 N 0.06638 0.55391 0.98216 0.0
C699 C 0.09442 0.59867 0.97577 0.0
C700 C 0.0876 0.55077 0.98364 0.0
C701 C 0.0693 0.57711 0.97749 0.0
C702 C 0.11657 0.59612 0.97821 0.0
C703 C 0.11333 0.57184 0.98187 0.0
O704 O 0.0173 0.52839 0.96246 0.0
O705 O 0.98693 0.50958 0.99743 0.0
O706 O 0.96163 0.46568 0.0044 0.0
O707 O 0.99696 0.47339 0.98776 0.0
O708 O 0.0047 0.5411 0.98237 0.0
O709 O 0.01849 0.4929 0.96473 0.0
O710 O 0.98947 0.48608 0.04719 0.0
O711 O 0.02065 0.50531 0.01218 0.0
O712 O 0.04502 0.54966 0.0045 0.0
O713 O 0.01071 0.54168 0.02233 0.0
O714 O 0.00237 0.47341 0.02692 0.0
O715 O 0.99079 0.52287 0.0445 0.0
C716 C 0.98439 0.52743 0.99123 0.0
C717 C 0.03082 0.51415 0.93956 0.0
C718 C 0.02993 0.51016 0.90996 0.0
C719 C 0.01672 0.50479 0.9249 0.0
C720 C 0.05757 0.52512 0.90994 0.0
C721 C 0.05836 0.52886 0.93936 0.0
C722 C 0.07165 0.53432 0.92458 0.0
C723 C 0.97232 0.45872 0.99261 0.0
C724 C 0.0163 0.50865 0.95484 0.0
C725 C 0.13486 0.56781 0.98328 0.0
C726 C 0.13063 0.54278 0.98561 0.0
C727 C 0.02299 0.48731 0.01836 0.0
C728 C 0.97841 0.50276 0.07012 0.0
C729 C 0.99149 0.50259 0.08435 0.0
C730 C 0.97979 0.49981 0.09964 0.0
C731 C 0.9547 0.49726 0.1005 0.0
C732 C 0.95322 0.49983 0.07109 0.0
C733 C 0.94146 0.49713 0.08627 0.0
C734 C 0.03449 0.55667 0.01627 0.0
C735 C 0.99193 0.50666 0.05454 0.0
H736 H 0.9954 0.49365 0.92513 0.0
H737 H 0.0683 0.5294 0.89863 0.0
H738 H 0.06953 0.53614 0.95058 0.0
H739 H 0.09292 0.54569 0.92446 0.0
H740 H 0.01107 0.5051 0.08353 0.0
H741 H 0.94521 0.49502 0.11214 0.0
H742 H 0.94279 0.49983 0.06019 0.0
H743 H 0.92206 0.49496 0.08701 0.0
Eu744 Eu 0.50614 0.49196 0.02418 0.0
C745 C 0.44928 0.53467 0.97957 0.0
C746 C 0.4027 0.50329 0.97957 0.0
C747 C 0.41736 0.54901 0.9766 0.0
C748 C 0.42916 0.50937 0.98091 0.0
C749 C 0.44366 0.55476 0.97713 0.0
C750 C 0.39691 0.5233 0.9778 0.0
C751 C 0.49039 0.58443 0.97488 0.0
N752 N 0.47444 0.5395 0.98007 0.0
C753 C 0.49495 0.56383 0.97728 0.0
C754 C 0.46464 0.57994 0.97498 0.0
Eu755 Eu 0.48071 0.50399 0.98542 0.0
N756 N 0.43547 0.49053 0.98253 0.0
C757 C 0.4164 0.46509 0.9814 0.0
C758 C 0.38293 0.47723 0.97955 0.0
C759 C 0.38986 0.45803 0.98017 0.0
H760 H 0.51492 0.56752 0.97738 0.0
H761 H 0.37478 0.4378 0.97975 0.0
H762 H 0.3767 0.51904 0.97696 0.0
H763 H 0.50673 0.60377 0.97304 0.0
H764 H 0.42151 0.45009 0.98184 0.0
H765 H 0.61092 0.56422 0.02344 0.0
H766 H 0.36237 0.47174 0.9786 0.0
H767 H 0.47731 0.42961 0.03458 0.0
H768 H 0.56334 0.54858 0.02333 0.0
H769 H 0.48947 0.396 0.03914 0.0
H770 H 0.41263 0.56421 0.97489 0.0
H771 H 0.62692 0.53309 0.02565 0.0
H772 H 0.61645 0.48708 0.02918 0.0
H773 H 0.46116 0.59593 0.97311 0.0
H774 H 0.58341 0.44128 0.03333 0.0
N775 N 0.55228 0.50884 0.02512 0.0
C776 C 0.56996 0.53475 0.0244 0.0
C777 C 0.60597 0.5261 0.02568 0.0
C778 C 0.58777 0.4997 0.02724 0.0
C779 C 0.59701 0.54372 0.02445 0.0
C780 C 0.5607 0.49161 0.02705 0.0
H781 H 0.53604 0.40717 0.0372 0.0
N782 N 0.51646 0.45914 0.02965 0.0
C783 C 0.5045 0.41557 0.03633 0.0
C784 C 0.54219 0.46591 0.02928 0.0
C785 C 0.49768 0.43463 0.03378 0.0
C786 C 0.53079 0.42194 0.03518 0.0
C787 C 0.55009 0.44747 0.03189 0.0
O788 O 0.48638 0.48071 0.04759 0.0
O789 O 0.47274 0.49198 0.01134 0.0
O790 O 0.48361 0.53281 0.00445 0.0
O791 O 0.51662 0.53427 0.02102 0.0
O792 O 0.46304 0.46302 0.02824 0.0
O793 O 0.52193 0.51782 0.04547 0.0
O794 O 0.50018 0.51547 0.96187 0.0
O795 O 0.51338 0.5025 0.99813 0.0
O796 O 0.49804 0.45953 0.00619 0.0
O797 O 0.46723 0.46129 0.98885 0.0
O798 O 0.52457 0.53202 0.98195 0.0
O799 O 0.46632 0.47707 0.96468 0.0
C800 C 0.45378 0.4728 0.01807 0.0
C801 C 0.51273 0.49738 0.07109 0.0
C802 C 0.50905 0.49628 0.10081 0.0
C803 C 0.50274 0.50215 0.08542 0.0
C804 C 0.52594 0.48588 0.10145 0.0
C805 C 0.5297 0.48731 0.07208 0.0
C806 C 0.53631 0.48167 0.0872 0.0
C807 C 0.50234 0.54431 0.01563 0.0
C808 C 0.50391 0.50153 0.05523 0.0
C809 C 0.57696 0.45521 0.03151 0.0
C810 C 0.59577 0.48129 0.02917 0.0
C811 C 0.53313 0.52096 0.99162 0.0
C812 C 0.4753 0.49462 0.93814 0.0
C813 C 0.49035 0.49434 0.92497 0.0
C814 C 0.48259 0.49494 0.90882 0.0
C815 C 0.45937 0.49578 0.90608 0.0
C816 C 0.45236 0.49572 0.9352 0.0
C817 C 0.44445 0.49625 0.9192 0.0
C818 C 0.47933 0.44935 0.9948 0.0
C819 C 0.48397 0.49346 0.95475 0.0
H820 H 0.49 0.51036 0.08447 0.0
H821 H 0.53083 0.48047 0.11291 0.0
H822 H 0.53754 0.4835 0.06117 0.0
H823 H 0.5492 0.47362 0.08789 0.0
H824 H 0.50795 0.49325 0.92734 0.0
H825 H 0.45295 0.49649 0.89382 0.0
H826 H 0.44058 0.49607 0.94521 0.0
H827 H 0.42671 0.49707 0.91696 0.0
Eu828 Eu 0.15984 0.31495 0.32209 0.0
C829 C 0.19731 0.41203 0.36711 0.0
C830 C 0.24468 0.43118 0.36846 0.0
C831 C 0.22513 0.45868 0.37022 0.0
C832 C 0.21934 0.40929 0.36675 0.0
C833 C 0.1999 0.43669 0.36921 0.0
C834 C 0.24748 0.45594 0.36983 0.0
C835 C 0.15246 0.41582 0.37033 0.0
N836 N 0.17324 0.39041 0.36614 0.0
C837 C 0.15091 0.39178 0.36831 0.0
C838 C 0.17706 0.4384 0.37062 0.0
Eu839 Eu 0.17224 0.35071 0.36166 0.0
N840 N 0.21593 0.3851 0.36548 0.0
C841 C 0.23687 0.38124 0.3671 0.0
C842 C 0.26639 0.42747 0.36913 0.0
C843 C 0.26242 0.40236 0.3687 0.0
H844 H 0.13187 0.37432 0.36797 0.0
H845 H 0.27903 0.39924 0.36949 0.0
H846 H 0.26681 0.47301 0.37098 0.0
H847 H 0.13471 0.41692 0.37164 0.0
H848 H 0.23406 0.36194 0.36663 0.0
H849 H 0.0524 0.26327 0.3175 0.0
H850 H 0.28621 0.44379 0.37034 0.0
H851 H 0.20118 0.29381 0.31225 0.0
H852 H 0.09677 0.30136 0.31996 0.0
H853 H 0.19982 0.25246 0.3063 0.0
H854 H 0.22755 0.47783 0.37167 0.0
H855 H 0.04682 0.21952 0.31421 0.0
H856 H 0.06769 0.19187 0.31065 0.0
H857 H 0.17822 0.457 0.37224 0.0
H858 H 0.10781 0.1889 0.30758 0.0
N859 N 0.11641 0.27956 0.31858 0.0
C860 C 0.09477 0.28249 0.31848 0.0
C861 C 0.06642 0.23622 0.31529 0.0
C862 C 0.08871 0.2335 0.31445 0.0
C863 C 0.06949 0.26088 0.3171 0.0
C864 C 0.11376 0.25586 0.31604 0.0
H865 H 0.15717 0.21142 0.30576 0.0
N866 N 0.15985 0.27624 0.31543 0.0
C867 C 0.18178 0.25263 0.30862 0.0
C868 C 0.13622 0.25415 0.31443 0.0
C869 C 0.18248 0.27601 0.31198 0.0
C870 C 0.15768 0.22951 0.30837 0.0
C871 C 0.13444 0.2301 0.31104 0.0
O872 O 0.18383 0.32916 0.30023 0.0
O873 O 0.18626 0.35042 0.3366 0.0
O874 O 0.16497 0.37293 0.3423 0.0
O875 O 0.13969 0.33931 0.32397 0.0
O876 O 0.20443 0.3355 0.32228 0.0
O877 O 0.14413 0.3223 0.29981 0.0
O878 O 0.14904 0.34164 0.38385 0.0
O879 O 0.14634 0.31489 0.34743 0.0
O880 O 0.17038 0.29325 0.34031 0.0
O881 O 0.19006 0.32433 0.36135 0.0
O882 O 0.12746 0.32871 0.36192 0.0
O883 O 0.18683 0.34349 0.38436 0.0
C884 C 0.20838 0.35408 0.33215 0.0
C885 C 0.162 0.31861 0.27475 0.0
C886 C 0.16611 0.32548 0.24528 0.0
C887 C 0.16819 0.33512 0.26133 0.0
C888 C 0.15757 0.29901 0.24297 0.0
C889 C 0.15342 0.29231 0.2721 0.0
C890 C 0.15123 0.28261 0.25627 0.0
C891 C 0.14835 0.36304 0.32988 0.0
C892 C 0.16539 0.32922 0.29144 0.0
C893 C 0.10959 0.2076 0.31003 0.0
C894 C 0.08675 0.2093 0.31176 0.0
C895 C 0.124 0.30991 0.35238 0.0
C896 C 0.17216 0.35287 0.40895 0.0
C897 C 0.16432 0.33772 0.42305 0.0
C898 C 0.16884 0.34944 0.43866 0.0
C899 C 0.18146 0.37666 0.43978 0.0
C900 C 0.18482 0.37989 0.41041 0.0
C901 C 0.18944 0.39168 0.42577 0.0
C902 C 0.18389 0.30191 0.35416 0.0
C903 C 0.1666 0.34014 0.39282 0.0
H904 H 0.17503 0.3555 0.26341 0.0
H905 H 0.15536 0.29085 0.23083 0.0
H906 H 0.14853 0.27933 0.28224 0.0
H907 H 0.14457 0.26227 0.25431 0.0
H908 H 0.15488 0.31685 0.4218 0.0
H909 H 0.18481 0.38643 0.45146 0.0
H910 H 0.191 0.39183 0.39971 0.0
H911 H 0.19906 0.41256 0.42682 0.0
Eu912 Eu 0.69154 0.84892 0.32217 0.0
C913 C 0.58584 0.7939 0.36177 0.0
C914 C 0.56763 0.82226 0.35954 0.0
C915 C 0.53849 0.77604 0.36298 0.0
C916 C 0.58944 0.81837 0.35964 0.0
C917 C 0.56039 0.77251 0.36386 0.0
C918 C 0.54211 0.80088 0.36082 0.0
C919 C 0.58033 0.74631 0.36905 0.0
N920 N 0.6074 0.79121 0.36265 0.0
C921 C 0.60514 0.76808 0.36681 0.0
C922 C 0.5578 0.74841 0.36728 0.0
Eu923 Eu 0.64876 0.82866 0.35856 0.0
N924 N 0.61436 0.83859 0.35852 0.0
C925 C 0.61897 0.86342 0.35859 0.0
C926 C 0.57219 0.84758 0.3586 0.0
C927 C 0.598 0.86827 0.35838 0.0
H928 H 0.6225 0.76631 0.36802 0.0
H929 H 0.60177 0.88796 0.35801 0.0
H930 H 0.5251 0.80345 0.36058 0.0
H931 H 0.5786 0.72791 0.37206 0.0
H932 H 0.63877 0.87962 0.35836 0.0
H933 H 0.73705 0.78828 0.32141 0.0
H934 H 0.55598 0.85139 0.35843 0.0
H935 H 0.71902 0.9121 0.31459 0.0
H936 H 0.70053 0.79729 0.32112 0.0
H937 H 0.76344 0.95041 0.31182 0.0
H938 H 0.51875 0.75981 0.36439 0.0
H939 H 0.78308 0.82442 0.322 0.0
H940 H 0.81458 0.87237 0.32104 0.0
H941 H 0.5386 0.73151 0.36899 0.0
H942 H 0.82179 0.91649 0.31829 0.0
N943 N 0.72541 0.83828 0.3219 0.0
C944 C 0.72043 0.81333 0.32132 0.0
C945 C 0.76708 0.82854 0.32185 0.0
C946 C 0.77206 0.85405 0.32149 0.0
C947 C 0.74114 0.80809 0.3215 0.0
C948 C 0.75051 0.85833 0.32138 0.0
H949 H 0.80283 0.94567 0.31441 0.0
N950 N 0.73332 0.8863 0.31909 0.0
C951 C 0.76123 0.93161 0.31415 0.0
C952 C 0.75459 0.88312 0.31992 0.0
C953 C 0.73615 0.90993 0.3157 0.0
C954 C 0.78341 0.92887 0.31567 0.0
C955 C 0.78027 0.90437 0.31842 0.0
O956 O 0.6869 0.86211 0.29835 0.0
O957 O 0.65345 0.84097 0.33277 0.0
O958 O 0.62822 0.79716 0.33929 0.0
O959 O 0.66407 0.80506 0.3231 0.0
O960 O 0.67174 0.87294 0.31813 0.0
O961 O 0.68467 0.82488 0.30049 0.0
O962 O 0.65282 0.81661 0.38296 0.0
O963 O 0.68648 0.83596 0.34781 0.0
O964 O 0.71214 0.8793 0.34191 0.0
O965 O 0.67596 0.87264 0.3572 0.0
O966 O 0.6686 0.80472 0.36296 0.0
O967 O 0.65741 0.85462 0.37939 0.0
C968 C 0.65096 0.85879 0.3265 0.0
C969 C 0.69915 0.84638 0.27551 0.0
C970 C 0.69861 0.84277 0.24585 0.0
C971 C 0.68531 0.8392 0.26067 0.0
C972 C 0.72618 0.85401 0.24621 0.0
C973 C 0.72657 0.85753 0.27565 0.0
C974 C 0.74 0.86136 0.26102 0.0
C975 C 0.63927 0.79032 0.32767 0.0
C976 C 0.68441 0.84176 0.29065 0.0
C977 C 0.80188 0.90037 0.31924 0.0
C978 C 0.79778 0.87525 0.3208 0.0
C979 C 0.68899 0.81819 0.35414 0.0
C980 C 0.64095 0.83491 0.40468 0.0
C981 C 0.65122 0.83315 0.41971 0.0
C982 C 0.63828 0.83234 0.43421 0.0
C983 C 0.61472 0.83297 0.43356 0.0
C984 C 0.61713 0.83508 0.40413 0.0
C985 C 0.60408 0.83406 0.41854 0.0
C986 C 0.70103 0.88685 0.35302 0.0
C987 C 0.65611 0.8378 0.38989 0.0
H988 H 0.66413 0.83097 0.26071 0.0
H989 H 0.73705 0.85672 0.23509 0.0
H990 H 0.73752 0.86315 0.28701 0.0
H991 H 0.76118 0.86989 0.26116 0.0
H992 H 0.66971 0.83318 0.42017 0.0
H993 H 0.60452 0.83245 0.44464 0.0
H994 H 0.60884 0.83639 0.39265 0.0
H995 H 0.58582 0.83439 0.41808 0.0
Eu996 Eu 0.17652 0.82797 0.36296 0.0
C997 C 0.10787 0.85139 0.31543 0.0
C998 C 0.06304 0.81582 0.31704 0.0
C999 C 0.07138 0.85899 0.31074 0.0
C1000 C 0.09038 0.82558 0.31842 0.0
C1001 C 0.09859 0.86831 0.31129 0.0
C1002 C 0.05364 0.83277 0.31355 0.0
C1003 C 0.1437 0.90178 0.30709 0.0
N1004 N 0.134 0.85969 0.31579 0.0
C1005 C 0.15192 0.88421 0.31113 0.0
C1006 C 0.11693 0.89389 0.30736 0.0
Eu1007 Eu 0.14638 0.82907 0.32326 0.0
N1008 N 0.10009 0.80965 0.32152 0.0
C1009 C 0.08371 0.78347 0.32189 0.0
C1010 C 0.04602 0.78917 0.3186 0.0
C1011 C 0.05644 0.77288 0.32073 0.0
H1012 H 0.17265 0.8904 0.31101 0.0
H1013 H 0.04349 0.75216 0.3215 0.0
H1014 H 0.0327 0.82567 0.31261 0.0
H1015 H 0.15799 0.92138 0.30379 0.0
H1016 H 0.09159 0.7707 0.32344 0.0
H1017 H 0.27872 0.90496 0.35568 0.0
H1018 H 0.02489 0.78091 0.31768 0.0
H1019 H 0.15423 0.77146 0.38158 0.0
H1020 H 0.23072 0.88611 0.35691 0.0
H1021 H 0.17084 0.74316 0.39127 0.0
H1022 H 0.06386 0.87172 0.30771 0.0
H1023 H 0.29868 0.87779 0.36115 0.0
H1024 H 0.29267 0.8349 0.36989 0.0
H1025 H 0.11059 0.9075 0.30414 0.0
H1026 H 0.26327 0.79076 0.37966 0.0
N1027 N 0.22315 0.84823 0.36254 0.0
C1028 C 0.23902 0.87394 0.35939 0.0
C1029 C 0.27752 0.86936 0.36171 0.0
C1030 C 0.2613 0.84347 0.36599 0.0
C1031 C 0.26633 0.88477 0.35866 0.0
C1032 C 0.23386 0.83341 0.3664 0.0
H1033 H 0.21787 0.7566 0.38806 0.0
N1034 N 0.19135 0.8003 0.37276 0.0
C1035 C 0.18413 0.76145 0.38568 0.0
C1036 C 0.21739 0.8086 0.37169 0.0
C1037 C 0.1748 0.77753 0.3802 0.0
C1038 C 0.21067 0.76906 0.3838 0.0
C1039 C 0.22777 0.7931 0.37698 0.0
O1040 O 0.15899 0.82125 0.38711 0.0
O1041 O 0.14047 0.82172 0.34982 0.0
O1042 O 0.14757 0.8601 0.33998 0.0
O1043 O 0.18356 0.8678 0.35588 0.0
O1044 O 0.13487 0.79642 0.36847 0.0
O1045 O 0.19123 0.8591 0.38124 0.0
O1046 O 0.16241 0.83951 0.29875 0.0
O1047 O 0.18144 0.83299 0.33619 0.0
O1048 O 0.17069 0.793 0.34847 0.0
O1049 O 0.13965 0.7885 0.32863 0.0
O1050 O 0.18918 0.85886 0.3179 0.0
O1051 O 0.1333 0.79966 0.30403 0.0
C1052 C 0.12328 0.80244 0.35746 0.0
C1053 C 0.1877 0.84569 0.40847 0.0
C1054 C 0.18776 0.85047 0.438 0.0
C1055 C 0.17724 0.85041 0.42258 0.0
C1056 C 0.209 0.84589 0.43909 0.0
C1057 C 0.20902 0.84139 0.40978 0.0
C1058 C 0.21959 0.84149 0.42503 0.0
C1059 C 0.16684 0.87471 0.3503 0.0
C1060 C 0.17558 0.84439 0.39257 0.0
C1061 C 0.25494 0.80249 0.37585 0.0
C1062 C 0.27168 0.82763 0.37031 0.0
C1063 C 0.1998 0.85084 0.32835 0.0
C1064 C 0.13446 0.814 0.27711 0.0
C1065 C 0.14885 0.81806 0.26276 0.0
C1066 C 0.1367 0.81477 0.24746 0.0
C1067 C 0.11 0.80762 0.24666 0.0
C1068 C 0.10789 0.80724 0.27612 0.0
C1069 C 0.09578 0.8041 0.26094 0.0
C1070 C 0.15347 0.77987 0.33663 0.0
C1071 C 0.14741 0.81616 0.29286 0.0
H1072 H 0.16062 0.85353 0.42156 0.0
H1073 H 0.21762 0.84604 0.45079 0.0
H1074 H 0.21741 0.83787 0.39905 0.0
H1075 H 0.23603 0.83812 0.42597 0.0
H1076 H 0.16934 0.82316 0.2635 0.0
H1077 H 0.10024 0.80499 0.235 0.0
H1078 H 0.09646 0.80413 0.28702 0.0
H1079 H 0.07525 0.79875 0.26023 0.0
Eu1080 Eu 0.82088 0.64943 0.65607 0.0
C1081 C 0.87604 0.75273 0.69611 0.0
C1082 C 0.92233 0.76605 0.69586 0.0
C1083 C 0.90893 0.79855 0.69608 0.0
C1084 C 0.89562 0.74637 0.69571 0.0
C1085 C 0.88244 0.77889 0.69669 0.0
C1086 C 0.92885 0.79213 0.69566 0.0
C1087 C 0.83616 0.76424 0.69973 0.0
N1088 N 0.8507 0.73331 0.69671 0.0
C1089 C 0.83084 0.73863 0.6992 0.0
C1090 C 0.86206 0.78448 0.69826 0.0
Eu1091 Eu 0.84277 0.69036 0.69401 0.0
N1092 N 0.88861 0.72096 0.69581 0.0
C1093 C 0.90744 0.71406 0.6976 0.0
C1094 C 0.94167 0.75894 0.69655 0.0
C1095 C 0.93416 0.73284 0.69774 0.0
H1096 H 0.81075 0.72297 0.70013 0.0
H1097 H 0.94893 0.72713 0.69875 0.0
H1098 H 0.94923 0.80749 0.69556 0.0
H1099 H 0.8203 0.76836 0.7012 0.0
H1100 H 0.90223 0.69413 0.69877 0.0
H1101 H 0.71393 0.60315 0.65082 0.0
H1102 H 0.96238 0.77343 0.69661 0.0
H1103 H 0.85955 0.62381 0.64925 0.0
H1104 H 0.75934 0.63948 0.65353 0.0
H1105 H 0.85529 0.58083 0.64513 0.0
H1106 H 0.91424 0.81875 0.69632 0.0
H1107 H 0.7055 0.55826 0.64837 0.0
H1108 H 0.72365 0.52815 0.64602 0.0
H1109 H 0.86615 0.80432 0.69871 0.0
H1110 H 0.76206 0.52204 0.64467 0.0
N1111 N 0.77661 0.61551 0.65351 0.0
C1112 C 0.75603 0.62003 0.65266 0.0
C1113 C 0.72552 0.57417 0.64969 0.0
C1114 C 0.74679 0.56976 0.64963 0.0
C1115 C 0.7302 0.59946 0.65105 0.0
C1116 C 0.77245 0.59113 0.65153 0.0
H1117 H 0.81119 0.54154 0.64431 0.0
N1118 N 0.81835 0.60895 0.65141 0.0
C1119 C 0.83788 0.58248 0.64665 0.0
C1120 C 0.794 0.58773 0.65053 0.0
C1121 C 0.84021 0.6068 0.64895 0.0
C1122 C 0.81296 0.56035 0.64625 0.0
C1123 C 0.7906 0.56282 0.64791 0.0
O1124 O 0.84133 0.65799 0.63284 0.0
O1125 O 0.85133 0.6858 0.66828 0.0
O1126 O 0.83379 0.71096 0.67412 0.0
O1127 O 0.8036 0.6761 0.65805 0.0
O1128 O 0.86515 0.6678 0.65292 0.0
O1129 O 0.80435 0.65757 0.6345 0.0
O1130 O 0.82967 0.69442 0.71814 0.0
O1131 O 0.81162 0.65425 0.68182 0.0
O1132 O 0.82913 0.62779 0.67551 0.0
O1133 O 0.85908 0.66287 0.6916 0.0
O1134 O 0.7987 0.67383 0.69656 0.0
O1135 O 0.85171 0.67461 0.71561 0.0
C1136 C 0.87188 0.68768 0.66226 0.0
C1137 C 0.81629 0.64887 0.60863 0.0
C1138 C 0.8169 0.65436 0.57911 0.0
C1139 C 0.82239 0.66495 0.59503 0.0
C1140 C 0.80503 0.62733 0.57708 0.0
C1141 C 0.80436 0.62201 0.60634 0.0
C1142 C 0.79875 0.61134 0.59061 0.0
C1143 C 0.81461 0.70051 0.66312 0.0
C1144 C 0.82346 0.6606 0.62504 0.0
C1145 C 0.76508 0.54134 0.64661 0.0
C1146 C 0.74322 0.54482 0.64737 0.0
C1147 C 0.79139 0.65362 0.68744 0.0
C1148 C 0.82048 0.66139 0.73695 0.0
C1149 C 0.82741 0.66242 0.75351 0.0
C1150 C 0.80913 0.6447 0.7647 0.0
C1151 C 0.78386 0.62627 0.75896 0.0
C1152 C 0.79537 0.64237 0.73163 0.0
C1153 C 0.77713 0.6252 0.74259 0.0
C1154 C 0.84896 0.63876 0.68602 0.0
C1155 C 0.8387 0.68121 0.72552 0.0
H1156 H 0.83188 0.68575 0.59685 0.0
H1157 H 0.80026 0.61852 0.56504 0.0
H1158 H 0.79959 0.60937 0.61667 0.0
H1159 H 0.78953 0.59057 0.58889 0.0
H1160 H 0.84686 0.67704 0.75763 0.0
H1161 H 0.76893 0.61302 0.76718 0.0
H1162 H 0.78959 0.6411 0.71909 0.0
H1163 H 0.75745 0.61139 0.73843 0.0
Eu1164 Eu 0.34769 0.17121 0.6588 0.0
C1165 C 0.24733 0.13578 0.70322 0.0
C1166 C 0.23397 0.16731 0.69782 0.0
C1167 C 0.2013 0.12366 0.70552 0.0
C1168 C 0.25362 0.16033 0.69867 0.0
C1169 C 0.22122 0.11731 0.70715 0.0
C1170 C 0.20767 0.14864 0.70084 0.0
C1171 C 0.23702 0.08888 0.71575 0.0
N1172 N 0.26711 0.13052 0.70489 0.0
C1173 C 0.26261 0.108 0.71184 0.0
C1174 C 0.21614 0.09339 0.71315 0.0
Eu1175 Eu 0.3098 0.16271 0.69704 0.0
N1176 N 0.27923 0.17781 0.69594 0.0
C1177 C 0.28681 0.20325 0.69361 0.0
C1178 C 0.24146 0.193 0.69442 0.0
C1179 C 0.26807 0.21114 0.69258 0.0
H1180 H 0.27878 0.10466 0.71411 0.0
H1181 H 0.27418 0.23119 0.6903 0.0
H1182 H 0.19225 0.15353 0.70005 0.0
H1183 H 0.23347 0.07077 0.72085 0.0
H1184 H 0.30722 0.21753 0.69205 0.0
H1185 H 0.38652 0.10507 0.65623 0.0
H1186 H 0.22699 0.19914 0.69359 0.0
H1187 H 0.37805 0.23405 0.64913 0.0
H1188 H 0.3522 0.11731 0.6574 0.0
H1189 H 0.42326 0.27019 0.64478 0.0
H1190 H 0.18106 0.10965 0.7083 0.0
H1191 H 0.43344 0.13899 0.65521 0.0
H1192 H 0.46722 0.18619 0.65312 0.0
H1193 H 0.19636 0.07865 0.71631 0.0
H1194 H 0.47724 0.23119 0.65 0.0
N1195 N 0.3794 0.1578 0.65791 0.0
C1196 C 0.37261 0.13233 0.65715 0.0
C1197 C 0.41845 0.1445 0.65586 0.0
C1198 C 0.42519 0.17054 0.65552 0.0
C1199 C 0.392 0.1253 0.6564 0.0
C1200 C 0.40492 0.17665 0.65641 0.0
H1201 H 0.46093 0.2626 0.64654 0.0
N1202 N 0.39024 0.20664 0.6539 0.0
C1203 C 0.41996 0.25109 0.64749 0.0
C1204 C 0.41052 0.20187 0.65433 0.0
C1205 C 0.39441 0.2306 0.64991 0.0
C1206 C 0.44118 0.24674 0.64856 0.0
C1207 C 0.43659 0.22182 0.65174 0.0
O1208 O 0.34178 0.18155 0.63436 0.0
O1209 O 0.31215 0.16898 0.6702 0.0
O1210 O 0.28612 0.12629 0.68191 0.0
O1211 O 0.31726 0.12843 0.66296 0.0
O1212 O 0.33088 0.19732 0.65304 0.0
O1213 O 0.33688 0.14358 0.63855 0.0
O1214 O 0.32013 0.1565 0.72149 0.0
O1215 O 0.34313 0.16165 0.68502 0.0
O1216 O 0.3733 0.20268 0.67725 0.0
O1217 O 0.3397 0.20433 0.69086 0.0
O1218 O 0.32548 0.13607 0.70388 0.0
O1219 O 0.32238 0.19287 0.71584 0.0
C1220 C 0.31076 0.18635 0.66242 0.0
C1221 C 0.35119 0.16167 0.6125 0.0
C1222 C 0.35134 0.16168 0.58271 0.0
C1223 C 0.33832 0.15909 0.59757 0.0
C1224 C 0.37747 0.16671 0.58316 0.0
C1225 C 0.37718 0.16664 0.61263 0.0
C1226 C 0.39019 0.16908 0.59801 0.0
C1227 C 0.29432 0.11594 0.67062 0.0
C1228 C 0.33736 0.15972 0.62777 0.0
C1229 C 0.45705 0.21609 0.65183 0.0
C1230 C 0.45135 0.19047 0.65363 0.0
C1231 C 0.34399 0.14437 0.6933 0.0
C1232 C 0.31321 0.1785 0.7431 0.0
C1233 C 0.32593 0.1766 0.75704 0.0
C1234 C 0.31603 0.17633 0.77263 0.0
C1235 C 0.29316 0.17816 0.77409 0.0
C1236 C 0.29017 0.17991 0.74471 0.0
C1237 C 0.28028 0.17981 0.76019 0.0
C1238 C 0.36481 0.21452 0.68714 0.0
C1239 C 0.32443 0.17876 0.72711 0.0
H1240 H 0.31811 0.15494 0.59758 0.0
H1241 H 0.38831 0.1693 0.57204 0.0
H1242 H 0.38743 0.16873 0.62399 0.0
H1243 H 0.41032 0.17304 0.59819 0.0
H1244 H 0.3438 0.17564 0.75573 0.0
H1245 H 0.28504 0.17791 0.78595 0.0
H1246 H 0.27991 0.18111 0.73407 0.0
H1247 H 0.26254 0.18096 0.76141 0.0
Eu1248 Eu 0.84672 0.16989 0.69507 0.0
C1249 C 0.77979 0.19533 0.64771 0.0
C1250 C 0.73467 0.16036 0.64945 0.0
C1251 C 0.74387 0.20381 0.64315 0.0
C1252 C 0.76192 0.16961 0.65074 0.0
C1253 C 0.77098 0.21264 0.64362 0.0
C1254 C 0.72575 0.1777 0.64597 0.0
C1255 C 0.81628 0.24541 0.63917 0.0
N1256 N 0.80582 0.2031 0.64788 0.0
C1257 C 0.82403 0.22745 0.64309 0.0
C1258 C 0.78965 0.23807 0.63961 0.0
Eu1259 Eu 0.81737 0.17182 0.65523 0.0
N1260 N 0.77117 0.15324 0.65368 0.0
C1261 C 0.75435 0.12716 0.65415 0.0
C1262 C 0.71723 0.1338 0.65107 0.0
C1263 C 0.72714 0.11708 0.65313 0.0
H1264 H 0.84464 0.23321 0.64278 0.0
H1265 H 0.71385 0.09643 0.65397 0.0
H1266 H 0.70489 0.17099 0.64508 0.0
H1267 H 0.83082 0.26488 0.63579 0.0
H1268 H 0.76187 0.11408 0.65567 0.0
H1269 H 0.94889 0.24789 0.68957 0.0
H1270 H 0.69615 0.12594 0.65023 0.0
H1271 H 0.824 0.11128 0.71099 0.0
H1272 H 0.90085 0.22859 0.69023 0.0
H1273 H 0.84062 0.08228 0.71921 0.0
H1274 H 0.73671 0.21685 0.64014 0.0
H1275 H 0.96903 0.22071 0.6944 0.0
H1276 H 0.96313 0.17738 0.70188 0.0
H1277 H 0.78368 0.25196 0.63645 0.0
H1278 H 0.93368 0.13232 0.71005 0.0
N1279 N 0.89339 0.19052 0.69507 0.0
C1280 C 0.90918 0.21642 0.69247 0.0
C1281 C 0.94783 0.21209 0.69476 0.0
C1282 C 0.93165 0.1859 0.69836 0.0
C1283 C 0.93655 0.2275 0.69206 0.0
C1284 C 0.90416 0.17562 0.69855 0.0
H1285 H 0.88802 0.09682 0.71682 0.0
N1286 N 0.86151 0.14161 0.70378 0.0
C1287 C 0.85407 0.10134 0.71462 0.0
C1288 C 0.88768 0.15035 0.70307 0.0
C1289 C 0.84473 0.11781 0.71 0.0
C1290 C 0.88082 0.1096 0.71322 0.0
C1291 C 0.89807 0.13451 0.7076 0.0
O1292 O 0.82985 0.16113 0.71943 0.0
O1293 O 0.81096 0.16427 0.68182 0.0
O1294 O 0.81882 0.203 0.6718 0.0
O1295 O 0.85389 0.20998 0.6885 0.0
O1296 O 0.80484 0.13843 0.70017 0.0
O1297 O 0.86009 0.20018 0.71383 0.0
O1298 O 0.83565 0.18179 0.63133 0.0
O1299 O 0.85215 0.17541 0.66839 0.0
O1300 O 0.84204 0.13624 0.67982 0.0
O1301 O 0.81015 0.13102 0.66051 0.0
O1302 O 0.86038 0.2016 0.65025 0.0
O1303 O 0.80221 0.14355 0.63513 0.0
C1304 C 0.79351 0.1449 0.68925 0.0
C1305 C 0.85874 0.18588 0.74073 0.0
C1306 C 0.85784 0.18521 0.77049 0.0
C1307 C 0.84594 0.18453 0.75541 0.0
C1308 C 0.88283 0.18732 0.77055 0.0
C1309 C 0.88363 0.18801 0.7411 0.0
C1310 C 0.89558 0.18875 0.75596 0.0
C1311 C 0.83797 0.21741 0.68222 0.0
C1312 C 0.84558 0.18436 0.72516 0.0
C1313 C 0.92533 0.14426 0.70677 0.0
C1314 C 0.94209 0.16992 0.70213 0.0
C1315 C 0.87074 0.19344 0.6608 0.0
C1316 C 0.80778 0.16147 0.60881 0.0
C1317 C 0.8205 0.16137 0.59436 0.0
C1318 C 0.81179 0.1654 0.57928 0.0
C1319 C 0.79004 0.16917 0.57877 0.0
C1320 C 0.78586 0.16493 0.60804 0.0
C1321 C 0.77703 0.1687 0.59308 0.0
C1322 C 0.82459 0.12283 0.66819 0.0
C1323 C 0.81867 0.15973 0.62459 0.0
H1324 H 0.82681 0.18311 0.75505 0.0
H1325 H 0.89238 0.18743 0.78187 0.0
H1326 H 0.89379 0.18903 0.72995 0.0
H1327 H 0.91474 0.19027 0.75616 0.0
H1328 H 0.83759 0.15893 0.59488 0.0
H1329 H 0.78303 0.17233 0.56729 0.0
H1330 H 0.77577 0.16501 0.61898 0.0
H1331 H 0.7602 0.17152 0.59259 0.0
H1332 H 0.32572 0.88445 0.0637 0.0
H1333 H 0.332 0.81899 0.04603 0.0
H1334 H 0.37071 0.84845 0.02984 0.0
H1335 H 0.34706 0.92168 0.02522 0.0
H1336 H 0.36468 0.95227 0.03598 0.0
H1337 H 0.33587 0.92575 0.04486 0.0
H1338 H 0.36308 0.92948 0.07074 0.0
H1339 H 0.39187 0.95589 0.0619 0.0
H1340 H 0.39272 0.92772 0.06874 0.0
H1341 H 0.41209 0.8853 0.01883 0.0
H1342 H 0.45159 0.92674 0.01246 0.0
H1343 H 0.41706 0.9684 0.03532 0.0
C1344 C 0.33506 0.87634 0.05623 0.0
C1345 C 0.32583 0.84945 0.05606 0.0
C1346 C 0.33854 0.8395 0.04617 0.0
C1347 C 0.36056 0.85607 0.03695 0.0
C1348 C 0.36938 0.88252 0.03755 0.0
C1349 C 0.35684 0.89259 0.04676 0.0
C1350 C 0.37101 0.92186 0.04582 0.0
C1351 C 0.35361 0.93092 0.03747 0.0
C1352 C 0.38021 0.93447 0.06281 0.0
C1353 C 0.39406 0.92672 0.03522 0.0
C1354 C 0.39268 0.90376 0.03051 0.0
C1355 C 0.41298 0.90338 0.02202 0.0
C1356 C 0.43533 0.92706 0.01835 0.0
C1357 C 0.43695 0.95082 0.02278 0.0
C1358 C 0.41594 0.95052 0.03128 0.0
H1359 H 0.10922 0.42933 0.05229 0.0
H1360 H 0.17569 0.50756 0.05555 0.0
H1361 H 0.1487 0.52402 0.04281 0.0
H1362 H 0.08412 0.43657 0.01337 0.0
H1363 H 0.05019 0.41649 0.01902 0.0
H1364 H 0.07509 0.41085 0.02768 0.0
H1365 H 0.06079 0.41554 0.05676 0.0
H1366 H 0.03571 0.42094 0.04822 0.0
H1367 H 0.05976 0.44437 0.06223 0.0
H1368 H 0.113 0.53198 0.03109 0.0
H1369 H 0.07218 0.53046 0.02149 0.0
H1370 H 0.02984 0.44695 0.02568 0.0
C1371 C 0.11812 0.44995 0.05041 0.0
C1372 C 0.14456 0.46718 0.05503 0.0
C1373 C 0.15554 0.49398 0.05204 0.0
C1374 C 0.14034 0.50349 0.04483 0.0
C1375 C 0.11427 0.48594 0.04052 0.0
C1376 C 0.10333 0.45971 0.04315 0.0
C1377 C 0.07478 0.44486 0.03774 0.0
C1378 C 0.07082 0.42608 0.02361 0.0
C1379 C 0.0567 0.4306 0.0521 0.0
C1380 C 0.07106 0.46686 0.03207 0.0
C1381 C 0.09408 0.49043 0.0336 0.0
C1382 C 0.09501 0.51357 0.02965 0.0
C1383 C 0.07179 0.51254 0.02411 0.0
C1384 C 0.04811 0.48852 0.02244 0.0
C1385 C 0.04785 0.4655 0.02653 0.0
H1386 H 0.58776 0.68351 0.05822 0.0
H1387 H 0.52669 0.69994 0.04318 0.0
H1388 H 0.50086 0.65574 0.03166 0.0
H1389 H 0.58421 0.64657 0.0227 0.0
H1390 H 0.58997 0.62379 0.0336 0.0
H1391 H 0.60319 0.65636 0.04136 0.0
H1392 H 0.57968 0.63848 0.06878 0.0
H1393 H 0.56635 0.60585 0.06107 0.0
H1394 H 0.54464 0.61652 0.06886 0.0
H1395 H 0.48224 0.61042 0.02106 0.0
H1396 H 0.47204 0.56687 0.012 0.0
H1397 H 0.54564 0.58 0.03329 0.0
C1398 C 0.56899 0.67786 0.05247 0.0
C1399 C 0.55921 0.69522 0.0517 0.0
C1400 C 0.53441 0.68691 0.04419 0.0
C1401 C 0.51965 0.66187 0.03752 0.0
C1402 C 0.52992 0.64534 0.03844 0.0
C1403 C 0.55399 0.65294 0.04572 0.0
C1404 C 0.56073 0.63153 0.04479 0.0
C1405 C 0.58602 0.64008 0.03503 0.0
C1406 C 0.56298 0.62257 0.06189 0.0
C1407 C 0.53678 0.61081 0.03571 0.0
C1408 C 0.51923 0.61917 0.03222 0.0
C1409 C 0.49583 0.60365 0.02373 0.0
C1410 C 0.49028 0.57895 0.01856 0.0
C1411 C 0.50813 0.57005 0.0218 0.0
C1412 C 0.53156 0.58618 0.03064 0.0
H1413 H 0.85101 0.31493 0.97722 0.0
H1414 H 0.89024 0.31322 0.93295 0.0
H1415 H 0.92574 0.35801 0.93854 0.0
H1416 H 0.86758 0.38286 0.97401 0.0
H1417 H 0.87226 0.38885 0.99566 0.0
H1418 H 0.84937 0.35685 0.98796 0.0
H1419 H 0.87376 0.33823 0.00439 0.0
H1420 H 0.89667 0.3702 0.01203 0.0
H1421 H 0.9086 0.35143 1.00159 0.0
H1422 H 0.95838 0.4011 0.9498 0.0
H1423 H 0.98476 0.44213 0.96469 0.0
H1424 H 0.92333 0.41806 1.00083 0.0
C1425 C 0.86699 0.32415 0.96867 0.0
C1426 C 0.86791 0.31073 0.95462 0.0
C1427 C 0.88906 0.32332 0.94367 0.0
C1428 C 0.90935 0.34867 0.94679 0.0
C1429 C 0.90804 0.36129 0.9608 0.0
C1430 C 0.88726 0.34971 0.97146 0.0
C1431 C 0.89081 0.36781 0.98561 0.0
C1432 C 0.86869 0.37449 0.98581 0.0
C1433 C 0.89257 0.35622 1.00186 0.0
C1434 C 0.917 0.39118 0.9813 0.0
C1435 C 0.92661 0.38682 0.96702 0.0
C1436 C 0.95093 0.4049 0.9609 0.0
C1437 C 0.96583 0.4282 0.96953 0.0
C1438 C 0.95627 0.43348 0.98406 0.0
C1439 C 0.93136 0.41468 0.9899 0.0
H1440 H 0.68045 0.58296 0.95931 0.0
H1441 H 0.67525 0.50889 0.96725 0.0
H1442 H 0.63004 0.49144 0.97784 0.0
H1443 H 0.64543 0.58171 0.99624 0.0
H1444 H 0.62955 0.59761 0.98696 0.0
H1445 H 0.66129 0.6041 0.97992 0.0
H1446 H 0.6426 0.59097 0.95052 0.0
H1447 H 0.61085 0.5845 0.95748 0.0
H1448 H 0.61398 0.55963 0.9468 0.0
H1449 H 0.58427 0.48142 0.98568 0.0
H1450 H 0.54295 0.48057 0.99245 0.0
H1451 H 0.57922 0.56225 0.98176 0.0
C1452 C 0.66968 0.56306 0.96326 0.0
C1453 C 0.68105 0.54709 0.96235 0.0
C1454 C 0.6667 0.5213 0.96783 0.0
C1455 C 0.64108 0.51128 0.97384 0.0
C1456 C 0.63034 0.52749 0.97455 0.0
C1457 C 0.64432 0.55294 0.96962 0.0
C1458 C 0.6285 0.56646 0.97203 0.0
C1459 C 0.642 0.5888 0.98453 0.0
C1460 C 0.6237 0.57594 0.95574 0.0
C1461 C 0.60321 0.54449 0.9787 0.0
C1462 C 0.60463 0.52215 0.98001 0.0
C1463 C 0.58318 0.49896 0.98505 0.0
C1464 C 0.55981 0.4987 0.989 0.0
C1465 C 0.55823 0.5216 0.98832 0.0
C1466 C 0.58016 0.54466 0.98288 0.0
H1467 H 0.4753 0.1261 0.94031 0.0
H1468 H 0.47619 0.17248 0.98166 0.0
H1469 H 0.47743 0.14097 1.00035 0.0
H1470 H 0.43463 0.06318 0.95856 0.0
H1471 H 0.45266 0.04926 0.94939 0.0
H1472 H 0.45054 0.0748 0.93928 0.0
H1473 H 0.50146 0.10193 0.93825 0.0
H1474 H 0.50365 0.07642 0.94831 0.0
H1475 H 0.52033 0.10877 0.95685 0.0
H1476 H 0.48119 0.10573 0.0145 0.0
H1477 H 0.48607 0.06875 0.02292 0.0
H1478 H 0.48274 0.04564 0.97238 0.0
C1479 C 0.47573 0.12962 0.9533 0.0
C1480 C 0.47558 0.15171 0.95953 0.0
C1481 C 0.47593 0.1555 0.97661 0.0
C1482 C 0.47675 0.13778 0.98733 0.0
C1483 C 0.47706 0.11631 0.98077 0.0
C1484 C 0.47645 0.11209 0.96415 0.0
C1485 C 0.47755 0.0878 0.96023 0.0
C1486 C 0.45234 0.06756 0.95134 0.0
C1487 C 0.50222 0.09412 0.95033 0.0
C1488 C 0.47923 0.07922 0.97723 0.0
C1489 C 0.47892 0.09589 0.98891 0.0
C1490 C 0.48132 0.09247 0.00545 0.0
C1491 C 0.48432 0.07154 0.01014 0.0
C1492 C 0.48482 0.05434 0.99836 0.0
C1493 C 0.48196 0.05817 0.98172 0.0
H1494 H 0.68912 0.09814 0.96601 0.0
H1495 H 0.68091 0.16621 0.97152 0.0
H1496 H 0.63707 0.13924 0.9836 0.0
H1497 H 0.62408 0.05567 0.95319 0.0
H1498 H 0.62123 0.02804 0.9637 0.0
H1499 H 0.65295 0.05317 0.95714 0.0
H1500 H 0.67078 0.05886 0.9867 0.0
H1501 H 0.63899 0.03393 0.99346 0.0
H1502 H 0.65438 0.06563 1.00291 0.0
H1503 H 0.59271 0.10411 0.99338 0.0
H1504 H 0.55127 0.06368 0.99912 0.0
H1505 H 0.58826 0.01879 0.98629 0.0
C1506 C 0.67816 0.10746 0.96971 0.0
C1507 C 0.68855 0.13436 0.96778 0.0
C1508 C 0.67359 0.14573 0.97306 0.0
C1509 C 0.64863 0.13055 0.97991 0.0
C1510 C 0.63892 0.10405 0.98144 0.0
C1511 C 0.65325 0.09263 0.97648 0.0
C1512 C 0.63787 0.06358 0.97858 0.0
C1513 C 0.63379 0.04928 0.96218 0.0
C1514 C 0.65131 0.055 0.99116 0.0
C1515 C 0.6123 0.0603 0.98501 0.0
C1516 C 0.6134 0.08389 0.98687 0.0
C1517 C 0.59176 0.08559 0.99216 0.0
C1518 C 0.56836 0.06256 0.99546 0.0
C1519 C 0.56689 0.03826 0.9935 0.0
C1520 C 0.58912 0.0372 0.98816 0.0
H1521 H 0.89438 0.5854 0.96426 0.0
H1522 H 0.83076 0.5064 0.95614 0.0
H1523 H 0.85871 0.49013 0.96727 0.0
H1524 H 0.94542 0.57377 0.95104 0.0
H1525 H 0.96915 0.59603 0.96567 0.0
H1526 H 0.94326 0.60124 0.95836 0.0
H1527 H 0.92944 0.60224 0.98801 0.0
H1528 H 0.95448 0.59598 0.99569 0.0
H1529 H 0.92048 0.57485 1.00086 0.0
H1530 H 0.89445 0.4824 0.97872 0.0
H1531 H 0.93569 0.48414 0.98745 0.0
H1532 H 0.97651 0.56794 0.98609 0.0
C1533 C 0.88621 0.56464 0.9646 0.0
C1534 C 0.86008 0.5473 0.9593 0.0
C1535 C 0.85039 0.52026 0.96038 0.0
C1536 C 0.86621 0.51077 0.96663 0.0
C1537 C 0.89183 0.52847 0.97164 0.0
C1538 C 0.90183 0.55484 0.97052 0.0
C1539 C 0.93042 0.56984 0.97589 0.0
C1540 C 0.9481 0.58618 0.9619 0.0
C1541 C 0.93391 0.58672 0.99101 0.0
C1542 C 0.93513 0.5478 0.97995 0.0
C1543 C 0.91253 0.52406 0.97771 0.0
C1544 C 0.91221 0.5009 0.98056 0.0
C1545 C 0.93567 0.50205 0.98561 0.0
C1546 C 0.95909 0.52619 0.98771 0.0
C1547 C 0.95875 0.54927 0.98476 0.0
H1548 H 0.49817 0.33095 0.96733 0.0
H1549 H 0.42701 0.30412 0.93817 0.0
H1550 H 0.42033 0.33806 0.95045 0.0
H1551 H 0.47618 0.35135 1.00364 0.0
H1552 H 0.50792 0.37973 0.00713 0.0
H1553 H 0.50566 0.35128 0.99765 0.0
H1554 H 0.53231 0.37879 0.97312 0.0
H1555 H 0.53455 0.40719 0.98259 0.0
H1556 H 0.52091 0.39753 0.96234 0.0
H1557 H 0.42269 0.3763 0.96395 0.0
H1558 H 0.4348 0.41787 0.97728 0.0
H1559 H 0.50553 0.42191 0.99704 0.0
C1560 C 0.4811 0.33209 0.96356 0.0
C1561 C 0.46293 0.31447 0.95189 0.0
C1562 C 0.44086 0.31677 0.94739 0.0
C1563 C 0.43693 0.33613 0.95423 0.0
C1564 C 0.45527 0.3532 0.96554 0.0
C1565 C 0.47698 0.3515 0.97018 0.0
C1566 C 0.49466 0.37358 0.98171 0.0
C1567 C 0.49618 0.36336 0.99853 0.0
C1568 C 0.52223 0.39026 0.9745 0.0
C1569 C 0.47977 0.38823 0.98246 0.0
C1570 C 0.45694 0.37587 0.9732 0.0
C1571 C 0.4404 0.38609 0.97134 0.0
C1572 C 0.44755 0.40982 0.97894 0.0
C1573 C 0.47113 0.42321 0.98823 0.0
C1574 C 0.48722 0.412 0.9902 0.0
H1575 H 0.13469 0.65969 0.0802 0.0
H1576 H 0.15299 0.71821 0.0437 0.0
H1577 H 0.11727 0.68569 0.02612 0.0
H1578 H 0.12286 0.6092 0.05288 0.0
H1579 H 0.09631 0.5841 0.06424 0.0
H1580 H 0.12151 0.61249 0.07464 0.0
H1581 H 0.08593 0.62114 0.08688 0.0
H1582 H 0.0606 0.59274 0.07647 0.0
H1583 H 0.06298 0.62373 0.0735 0.0
H1584 H 0.08294 0.64608 0.01134 0.0
H1585 H 0.05127 0.60215 1.00082 0.0
H1586 H 0.05471 0.56947 0.04692 0.0
C1587 C 0.13103 0.66572 0.06857 0.0
C1588 C 0.14658 0.69154 0.06336 0.0
C1589 C 0.14109 0.69866 0.04807 0.0
C1590 C 0.1209 0.6803 0.03797 0.0
C1591 C 0.10623 0.65495 0.04338 0.0
C1592 C 0.1109 0.64766 0.05837 0.0
C1593 C 0.09318 0.61888 0.06094 0.0
C1594 C 0.10944 0.60539 0.06331 0.0
C1595 C 0.07457 0.61384 0.0753 0.0
C1596 C 0.07825 0.61102 0.0449 0.0
C1597 C 0.08603 0.63214 0.03496 0.0
C1598 C 0.0764 0.62948 0.0191 0.0
C1599 C 0.05858 0.60454 0.0132 0.0
C1600 C 0.0506 0.58278 0.02317 0.0
C1601 C 0.06019 0.58604 0.03926 0.0
H1602 H 0.32898 0.47952 0.04831 0.0
H1603 H 0.28439 0.39654 0.03945 0.0
H1604 H 0.32288 0.39829 0.02631 0.0
H1605 H 0.36578 0.49487 0.00963 0.0
H1606 H 0.39615 0.52017 0.0184 0.0
H1607 H 0.36506 0.5138 0.02664 0.0
H1608 H 0.37834 0.50676 0.05528 0.0
H1609 H 0.40993 0.51412 0.04752 0.0
H1610 H 0.3898 0.48405 0.05782 0.0
H1611 H 0.36689 0.40748 0.01776 0.0
H1612 H 0.41415 0.42431 0.01287 0.0
H1613 H 0.43063 0.50209 0.02431 0.0
C1614 C 0.32737 0.46183 0.04345 0.0
C1615 C 0.30365 0.43787 0.04483 0.0
C1616 C 0.30224 0.4151 0.03836 0.0
C1617 C 0.32399 0.4159 0.03086 0.0
C1618 C 0.34702 0.43971 0.02963 0.0
C1619 C 0.34889 0.46236 0.03557 0.0
C1620 C 0.37643 0.48518 0.03304 0.0
C1621 C 0.37582 0.50466 0.02122 0.0
C1622 C 0.38938 0.49829 0.04939 0.0
C1623 C 0.38991 0.47157 0.02544 0.0
C1624 C 0.37243 0.44532 0.02356 0.0
C1625 C 0.38062 0.42807 0.01866 0.0
C1626 C 0.40743 0.43776 0.01588 0.0
C1627 C 0.42565 0.46453 0.01751 0.0
C1628 C 0.41677 0.48174 0.02214 0.0
H1629 H 0.58312 0.89223 0.06166 0.0
H1630 H 0.5491 0.8287 0.02657 0.0
H1631 H 0.52692 0.84917 0.01257 0.0
H1632 H 0.52736 0.9028 0.06403 0.0
H1633 H 0.54766 0.93753 0.06545 0.0
H1634 H 0.55972 0.91721 0.07315 0.0
H1635 H 0.6008 0.94061 0.05487 0.0
H1636 H 0.5888 0.96092 0.04709 0.0
H1637 H 0.59649 0.94205 0.03324 0.0
H1638 H 0.50818 0.87647 1.00259 0.0
H1639 H 0.49614 0.9096 0.99651 0.0
H1640 H 0.54469 0.95654 0.03719 0.0
C1641 C 0.57075 0.88253 0.05114 0.0
C1642 C 0.56767 0.85886 0.0452 0.0
C1643 C 0.55173 0.84691 0.03124 0.0
C1644 C 0.539 0.85832 0.02327 0.0
C1645 C 0.5426 0.88179 0.02935 0.0
C1646 C 0.55819 0.89384 0.04291 0.0
C1647 C 0.55969 0.91949 0.04655 0.0
C1648 C 0.5479 0.91923 0.06329 0.0
C1649 C 0.58814 0.9421 0.04536 0.0
C1650 C 0.54261 0.92001 0.03288 0.0
C1651 C 0.53271 0.89799 0.0232 0.0
C1652 C 0.51605 0.89394 0.01 0.0
C1653 C 0.50947 0.913 0.00655 0.0
C1654 C 0.51988 0.93604 0.01609 0.0
C1655 C 0.53656 0.93936 0.02949 0.0
H1656 H 0.98833 0.20957 0.39249 0.0
H1657 H 0.01483 0.15362 0.38961 0.0
H1658 H 0.05235 0.18366 0.37284 0.0
H1659 H 0.01007 0.23673 0.35063 0.0
H1660 H 0.02014 0.26917 0.35759 0.0
H1661 H 0.99316 0.24185 0.36728 0.0
H1662 H 0.01685 0.25806 0.39524 0.0
H1663 H 0.04383 0.28527 0.38561 0.0
H1664 H 0.04986 0.26372 0.3977 0.0
H1665 H 0.08982 0.22137 0.35976 0.0
H1666 H 0.12471 0.26429 0.35127 0.0
H1667 H 0.07416 0.29618 0.36156 0.0
C1668 C 1.00165 0.20343 0.38792 0.0
C1669 C 0.99869 0.17927 0.39232 0.0
C1670 C 0.01685 0.17211 0.38645 0.0
C1671 C 0.0381 0.18895 0.37682 0.0
C1672 C 0.04089 0.21289 0.37304 0.0
C1673 C 0.02312 0.22012 0.37831 0.0
C1674 C 0.03206 0.24788 0.37374 0.0
C1675 C 0.0127 0.24896 0.36159 0.0
C1676 C 0.03588 0.26471 0.38898 0.0
C1677 C 0.0581 0.25538 0.36572 0.0
C1678 C 0.06258 0.23475 0.36521 0.0
C1679 C 0.08624 0.23748 0.35969 0.0
C1680 C 0.10597 0.26199 0.35479 0.0
C1681 C 0.10188 0.28344 0.3552 0.0
C1682 C 0.07751 0.27994 0.36063 0.0
H1683 H 0.77614 0.75718 0.38155 0.0
H1684 H 0.84247 0.83518 0.38692 0.0
H1685 H 0.81498 0.85266 0.37637 0.0
H1686 H 0.74967 0.76764 0.34429 0.0
H1687 H 0.71584 0.74733 0.3501 0.0
H1688 H 0.74072 0.74062 0.35749 0.0
H1689 H 0.72793 0.74296 0.38727 0.0
H1690 H 0.70255 0.74908 0.38017 0.0
H1691 H 0.72721 0.77129 0.39439 0.0
H1692 H 0.77926 0.86152 0.36596 0.0
H1693 H 0.73834 0.86086 0.35773 0.0
H1694 H 0.69575 0.77706 0.35932 0.0
C1695 C 0.78506 0.77793 0.38028 0.0
C1696 C 0.81156 0.7948 0.38497 0.0
C1697 C 0.8222 0.82188 0.38348 0.0
C1698 C 0.80678 0.83197 0.3774 0.0
C1699 C 0.7807 0.81474 0.37291 0.0
C1700 C 0.76994 0.78829 0.37434 0.0
C1701 C 0.74116 0.7739 0.36937 0.0
C1702 C 0.73658 0.75634 0.35442 0.0
C1703 C 0.72369 0.7584 0.38365 0.0
C1704 C 0.73721 0.79636 0.36514 0.0
C1705 C 0.76029 0.81978 0.36707 0.0
C1706 C 0.76119 0.84325 0.36427 0.0
C1707 C 0.73789 0.8427 0.35949 0.0
C1708 C 0.71409 0.81887 0.35748 0.0
C1709 C 0.71383 0.7955 0.36046 0.0
H1710 H 0.2406 0.01321 0.39438 0.0
H1711 H 0.17673 0.02473 0.37837 0.0
H1712 H 0.15474 0.98124 0.36539 0.0
H1713 H 0.24301 0.97998 0.35901 0.0
H1714 H 0.24987 0.95788 0.36985 0.0
H1715 H 0.26013 0.98952 0.37834 0.0
H1716 H 0.23459 0.96871 0.40477 0.0
H1717 H 0.2244 0.937 0.39639 0.0
H1718 H 0.20011 0.94476 0.40348 0.0
H1719 H 0.14016 0.93657 0.35368 0.0
H1720 H 0.13399 0.89427 0.34456 0.0
H1721 H 0.20762 0.9125 0.36833 0.0
C1722 C 0.22177 0.00645 0.38839 0.0
C1723 C 0.21038 0.02239 0.38742 0.0
C1724 C 0.18596 0.01297 0.37914 0.0
C1725 C 0.17326 0.98825 0.3718 0.0
C1726 C 0.1852 0.97317 0.37286 0.0
C1727 C 0.20886 0.98188 0.381 0.0
C1728 C 0.21782 0.96212 0.38013 0.0
C1729 C 0.24427 0.97303 0.37131 0.0
C1730 C 0.21931 0.95259 0.39721 0.0
C1731 C 0.19561 0.941 0.37012 0.0
C1732 C 0.17693 0.94766 0.36606 0.0
C1733 C 0.15468 0.93118 0.35679 0.0
C1734 C 0.15143 0.90724 0.35158 0.0
C1735 C 0.17041 0.90009 0.35558 0.0
C1736 C 0.19272 0.9173 0.36501 0.0
H1737 H 0.5135 0.6506 0.30871 0.0
H1738 H 0.55451 0.64731 0.26575 0.0
H1739 H 0.592 0.69058 0.27267 0.0
H1740 H 0.53547 0.71983 0.30604 0.0
H1741 H 0.53842 0.72488 0.3278 0.0
H1742 H 0.51461 0.69378 0.31934 0.0
H1743 H 0.53485 0.67185 0.33663 0.0
H1744 H 0.55861 0.70294 0.34503 0.0
H1745 H 0.56952 0.68294 0.3351 0.0
H1746 H 0.62602 0.73239 0.28511 0.0
H1747 H 0.65301 0.77273 0.30065 0.0
H1748 H 0.58883 0.75114 0.33449 0.0
C1749 C 0.53033 0.65917 0.30074 0.0
C1750 C 0.53121 0.64576 0.28669 0.0
C1751 C 0.55344 0.65746 0.27648 0.0
C1752 C 0.57484 0.68192 0.28036 0.0
C1753 C 0.57353 0.69457 0.29436 0.0
C1754 C 0.5517 0.68388 0.30426 0.0
C1755 C 0.55533 0.7019 0.31846 0.0
C1756 C 0.53473 0.71062 0.31787 0.0
C1757 C 0.55454 0.68914 0.33477 0.0
C1758 C 0.58269 0.7242 0.31506 0.0
C1759 C 0.59288 0.71937 0.3012 0.0
C1760 C 0.61816 0.73655 0.29589 0.0
C1761 C 0.63337 0.75945 0.30486 0.0
C1762 C 0.62318 0.76526 0.31891 0.0
C1763 C 0.5974 0.74731 0.32397 0.0
H1764 H 0.34536 0.91448 0.29318 0.0
H1765 H 0.34458 0.8433 0.30497 0.0
H1766 H 0.29992 0.82557 0.31606 0.0
H1767 H 0.31159 0.9164 0.3297 0.0
H1768 H 0.29373 0.92946 0.31942 0.0
H1769 H 0.32562 0.93666 0.31223 0.0
H1770 H 0.30586 0.91883 0.28356 0.0
H1771 H 0.27394 0.9117 0.29059 0.0
H1772 H 0.27819 0.88644 0.28145 0.0
H1773 H 0.25472 0.81509 0.32529 0.0
H1774 H 0.21288 0.81301 0.33216 0.0
H1775 H 0.24384 0.89173 0.31579 0.0
C1776 C 0.33603 0.89527 0.29825 0.0
C1777 C 0.34868 0.88032 0.29808 0.0
C1778 C 0.33531 0.85505 0.30463 0.0
C1779 C 0.30997 0.84486 0.31111 0.0
C1780 C 0.29821 0.86018 0.3111 0.0
C1781 C 0.31085 0.88487 0.3049 0.0
C1782 C 0.29387 0.89734 0.30634 0.0
C1783 C 0.30699 0.92139 0.31759 0.0
C1784 C 0.2876 0.90396 0.28948 0.0
C1785 C 0.26952 0.87564 0.31407 0.0
C1786 C 0.27247 0.8544 0.31678 0.0
C1787 C 0.25236 0.83174 0.3234 0.0
C1788 C 0.22867 0.83079 0.32738 0.0
C1789 C 0.22537 0.85248 0.32499 0.0
C1790 C 0.24603 0.87505 0.31807 0.0
H1791 H 0.16227 0.49534 0.2992 0.0
H1792 H 0.08813 0.44963 0.27334 0.0
H1793 H 0.08345 0.40982 0.28542 0.0
H1794 H 0.18551 0.45174 0.29411 0.0
H1795 H 0.20064 0.45736 0.31399 0.0
H1796 H 0.19719 0.48248 0.3044 0.0
H1797 H 0.17165 0.48528 0.32943 0.0
H1798 H 0.17593 0.46064 0.33904 0.0
H1799 H 0.1434 0.4562 0.33656 0.0
H1800 H 0.08921 0.37473 0.29798 0.0
H1801 H 0.10348 0.34712 0.31174 0.0
H1802 H 0.17294 0.41587 0.33029 0.0
C1803 C 0.14492 0.47697 0.29624 0.0
C1804 C 0.1255 0.47554 0.28538 0.0
C1805 C 0.10304 0.45117 0.28181 0.0
C1806 C 0.10028 0.42847 0.28855 0.0
C1807 C 0.11999 0.4305 0.299 0.0
C1808 C 0.14172 0.45416 0.303 0.0
C1809 C 0.16048 0.45095 0.31413 0.0
C1810 C 0.18755 0.46124 0.30617 0.0
C1811 C 0.16298 0.46404 0.33078 0.0
C1812 C 0.14617 0.42176 0.31548 0.0
C1813 C 0.12289 0.41031 0.30663 0.0
C1814 C 0.10717 0.38348 0.30517 0.0
C1815 C 0.11548 0.36797 0.31296 0.0
C1816 C 0.13914 0.37935 0.3222 0.0
C1817 C 0.1545 0.4066 0.32355 0.0
H1818 H 0.35628 0.44249 0.30677 0.0
H1819 H 0.33742 0.50236 0.29564 0.0
H1820 H 0.29428 0.47668 0.30876 0.0
H1821 H 0.29495 0.39064 0.29641 0.0
H1822 H 0.29469 0.36963 0.31208 0.0
H1823 H 0.32547 0.39456 0.30426 0.0
H1824 H 0.34066 0.41298 0.33355 0.0
H1825 H 0.30972 0.38812 0.34144 0.0
H1826 H 0.32061 0.42173 0.34562 0.0
H1827 H 0.25125 0.44229 0.32082 0.0
H1828 H 0.21181 0.40141 0.32871 0.0
H1829 H 0.25832 0.36357 0.33048 0.0
C1830 C 0.34321 0.45036 0.3071 0.0
C1831 C 0.35044 0.47457 0.30013 0.0
C1832 C 0.33267 0.48412 0.30109 0.0
C1833 C 0.30804 0.46962 0.30852 0.0
C1834 C 0.30144 0.44563 0.31499 0.0
C1835 C 0.31855 0.43608 0.3143 0.0
C1836 C 0.30597 0.4088 0.32071 0.0
C1837 C 0.30522 0.3898 0.30758 0.0
C1838 C 0.32009 0.40787 0.33625 0.0
C1839 C 0.27872 0.40402 0.32446 0.0
C1840 C 0.27662 0.4257 0.32152 0.0
C1841 C 0.25283 0.42536 0.32338 0.0
C1842 C 0.23054 0.40211 0.32795 0.0
C1843 C 0.23227 0.37958 0.33051 0.0
C1844 C 0.25671 0.38072 0.3289 0.0
H1845 H 0.56061 0.91542 0.29702 0.0
H1846 H 0.49382 0.83735 0.29789 0.0
H1847 H 0.52275 0.82142 0.3083 0.0
H1848 H 0.60833 0.89957 0.28377 0.0
H1849 H 0.63447 0.92366 0.29643 0.0
H1850 H 0.60829 0.92879 0.28959 0.0
H1851 H 0.59863 0.93525 0.31946 0.0
H1852 H 0.62456 0.92987 0.32652 0.0
H1853 H 0.59162 0.91033 0.33405 0.0
H1854 H 0.56004 0.8138 0.31676 0.0
H1855 H 0.60177 0.81561 0.32423 0.0
H1856 H 0.64356 0.89896 0.31899 0.0
C1857 C 0.55208 0.89496 0.29938 0.0
C1858 C 0.525 0.87756 0.29654 0.0
C1859 C 0.51449 0.851 0.30003 0.0
C1860 C 0.53078 0.84179 0.30589 0.0
C1861 C 0.55747 0.85946 0.3084 0.0
C1862 C 0.56796 0.88553 0.30541 0.0
C1863 C 0.59721 0.90056 0.30912 0.0
C1864 C 0.613 0.91392 0.29381 0.0
C1865 C 0.60337 0.92016 0.32312 0.0
C1866 C 0.60173 0.87883 0.3143 0.0
C1867 C 0.57859 0.85524 0.31382 0.0
C1868 C 0.57816 0.83224 0.31743 0.0
C1869 C 0.60193 0.83346 0.32176 0.0
C1870 C 0.62569 0.85753 0.32273 0.0
C1871 C 0.62554 0.88039 0.31873 0.0
H1872 H 0.11938 0.66126 0.27585 0.0
H1873 H 0.15981 0.63812 0.3102 0.0
H1874 H 0.16481 0.67245 0.32932 0.0
H1875 H 0.15912 0.72823 0.28239 0.0
H1876 H 0.13302 0.73571 0.28079 0.0
H1877 H 0.13015 0.70774 0.27031 0.0
H1878 H 0.08599 0.67841 0.28473 0.0
H1879 H 0.08869 0.70637 0.29521 0.0
H1880 H 0.08468 0.67904 0.30665 0.0
H1881 H 0.17012 0.71177 0.34318 0.0
H1882 H 0.17338 0.7527 0.35184 0.0
H1883 H 0.12742 0.74992 0.30956 0.0
C1884 C 0.12873 0.66309 0.28755 0.0
C1885 C 0.13931 0.64711 0.29154 0.0
C1886 C 0.15184 0.65035 0.30684 0.0
C1887 C 0.15463 0.66968 0.31782 0.0
C1888 C 0.14461 0.68553 0.31338 0.0
C1889 C 0.1317 0.68238 0.29871 0.0
C1890 C 0.12413 0.70309 0.29666 0.0
C1891 C 0.1374 0.71966 0.28165 0.0
C1892 C 0.09408 0.69099 0.29577 0.0
C1893 C 0.1353 0.71858 0.31233 0.0
C1894 C 0.14697 0.70802 0.32176 0.0
C1895 C 0.16046 0.71988 0.33612 0.0
C1896 C 0.16212 0.74319 0.341 0.0
C1897 C 0.15007 0.75436 0.33171 0.0
C1898 C 0.13632 0.74167 0.3172 0.0
H1899 H 0.83546 0.0091 0.38355 0.0
H1900 H 0.78914 0.02776 0.41623 0.0
H1901 H 0.74841 0.99201 0.40413 0.0
H1902 H 0.79068 0.98944 0.34848 0.0
H1903 H 0.79693 0.96378 0.34281 0.0
H1904 H 0.82209 0.99231 0.35311 0.0
H1905 H 0.82502 0.96319 0.37533 0.0
H1906 H 0.79961 0.93479 0.36504 0.0
H1907 H 0.79571 0.94099 0.38608 0.0
H1908 H 0.71272 0.95232 0.38976 0.0
H1909 H 0.6849 0.91192 0.37421 0.0
H1910 H 0.75467 0.91858 0.35144 0.0
C1911 C 0.81678 0.00575 0.38818 0.0
C1912 C 0.81561 0.02143 0.40083 0.0
C1913 C 0.79065 0.01642 0.40636 0.0
C1914 C 0.76737 0.99602 0.39963 0.0
C1915 C 0.76929 0.98079 0.38734 0.0
C1916 C 0.79337 0.98543 0.38165 0.0
C1917 C 0.79007 0.96559 0.36879 0.0
C1918 C 0.80056 0.97857 0.35232 0.0
C1919 C 0.80339 0.95023 0.37414 0.0
C1920 C 0.76039 0.94871 0.36839 0.0
C1921 C 0.74875 0.95792 0.37908 0.0
C1922 C 0.7216 0.94505 0.38125 0.0
C1923 C 0.70596 0.92206 0.37237 0.0
C1924 C 0.7175 0.91207 0.36149 0.0
C1925 C 0.74511 0.92582 0.35944 0.0
H1926 H 0.99434 0.80443 0.38465 0.0
H1927 H 0.95428 0.72042 0.38138 0.0
H1928 H 0.99359 0.72285 0.36932 0.0
H1929 H 0.02952 0.81466 0.3457 0.0
H1930 H 0.05956 0.8426 0.35277 0.0
H1931 H 0.0283 0.83602 0.36086 0.0
H1932 H 0.04321 0.83547 0.39022 0.0
H1933 H 0.07516 0.84345 0.3828 0.0
H1934 H 0.05691 0.81523 0.39514 0.0
H1935 H 0.03853 0.73345 0.36199 0.0
H1936 H 0.08599 0.75226 0.35679 0.0
H1937 H 0.09692 0.82947 0.36106 0.0
C1938 C 0.99364 0.78657 0.38109 0.0
C1939 C 0.9712 0.76219 0.38436 0.0
C1940 C 0.97133 0.73933 0.37954 0.0
C1941 C 0.99353 0.74048 0.37248 0.0
C1942 C 0.01546 0.76465 0.36987 0.0
C1943 C 0.01567 0.78735 0.37374 0.0
C1944 C 0.04234 0.81072 0.37001 0.0
C1945 C 0.0398 0.82698 0.35653 0.0
C1946 C 0.05516 0.82718 0.38546 0.0
C1947 C 0.05726 0.79748 0.36409 0.0
C1948 C 0.04124 0.77085 0.36417 0.0
C1949 C 0.05107 0.75423 0.3613 0.0
C1950 C 0.078 0.76504 0.35837 0.0
C1951 C 0.09469 0.79217 0.35779 0.0
C1952 C 0.08419 0.80864 0.36058 0.0
H1953 H 0.23748 0.20365 0.36832 0.0
H1954 H 0.21757 0.20319 0.41914 0.0
H1955 H 0.20094 0.233 0.41321 0.0
H1956 H 0.25873 0.27013 0.36068 0.0
H1957 H 0.24439 0.26436 0.34055 0.0
H1958 H 0.25463 0.24285 0.34867 0.0
H1959 H 0.20775 0.2038 0.34366 0.0
H1960 H 0.19748 0.22527 0.33547 0.0
H1961 H 0.17983 0.20451 0.35214 0.0
H1962 H 0.18905 0.26452 0.40226 0.0
H1963 H 0.17889 0.29339 0.38648 0.0
H1964 H 0.20387 0.27186 0.34227 0.0
C1965 C 0.22955 0.20985 0.37814 0.0
C1966 C 0.22881 0.20127 0.3942 0.0
C1967 C 0.21814 0.2095 0.40677 0.0
C1968 C 0.20875 0.22646 0.40352 0.0
C1969 C 0.20984 0.23467 0.38759 0.0
C1970 C 0.21962 0.22643 0.37504 0.0
C1971 C 0.21805 0.23793 0.35897 0.0
C1972 C 0.24559 0.25482 0.3518 0.0
C1973 C 0.19968 0.2166 0.34685 0.0
C1974 C 0.20627 0.25423 0.36453 0.0
C1975 C 0.2019 0.25216 0.38111 0.0
C1976 C 0.19217 0.26614 0.38926 0.0
C1977 C 0.18664 0.2826 0.38021 0.0
C1978 C 0.19055 0.28474 0.36318 0.0
C1979 C 0.20035 0.27026 0.35523 0.0
H1980 H 0.68953 0.5137 0.7192 0.0
H1981 H 0.63339 0.54083 0.72163 0.0
H1982 H 0.66401 0.57989 0.70672 0.0
H1983 H 0.74438 0.57129 0.72723 0.0
H1984 H 0.7669 0.56939 0.71318 0.0
H1985 H 0.7397 0.54032 0.72106 0.0
H1986 H 0.72198 0.52202 0.69296 0.0
H1987 H 0.74908 0.54989 0.68381 0.0
H1988 H 0.71557 0.54063 0.67849 0.0
H1989 H 0.70202 0.61819 0.69516 0.0
H1990 H 0.7458 0.6539 0.68758 0.0
H1991 H 0.77801 0.60281 0.69174 0.0
C1992 C 0.68356 0.52772 0.71641 0.0
C1993 C 0.65887 0.524 0.72148 0.0
C1994 C 0.65187 0.54287 0.7176 0.0
C1995 C 0.66919 0.5652 0.70916 0.0
C1996 C 0.6934 0.56839 0.7045 0.0
C1997 C 0.70061 0.55014 0.70788 0.0
C1998 C 0.72859 0.55927 0.70247 0.0
C1999 C 0.74595 0.56018 0.71683 0.0
C2000 C 0.72884 0.54194 0.68859 0.0
C2001 C 0.73645 0.58615 0.69643 0.0
C2002 C 0.71558 0.5907 0.69744 0.0
C2003 C 0.71835 0.61472 0.69393 0.0
C2004 C 0.74322 0.63486 0.68964 0.0
C2005 C 0.76491 0.63082 0.68867 0.0
C2006 C 0.76142 0.60603 0.69181 0.0
H2007 H 0.47658 0.14945 0.72125 0.0
H2008 H 0.43443 0.06603 0.71398 0.0
H2009 H 0.39735 0.06815 0.70165 0.0
H2010 H 0.42098 0.15465 0.73228 0.0
H2011 H 0.43128 0.18472 0.72198 0.0
H2012 H 0.45547 0.17699 0.72923 0.0
H2013 H 0.47434 0.18415 0.70053 0.0
H2014 H 0.44931 0.18995 0.69222 0.0
H2015 H 0.45416 0.16459 0.68378 0.0
H2016 H 0.3626 0.07778 0.69407 0.0
H2017 H 0.33291 0.09524 0.68943 0.0
H2018 H 0.39737 0.17299 0.69881 0.0
C2019 C 0.45973 0.13175 0.71677 0.0
C2020 C 0.45835 0.10752 0.71873 0.0
C2021 C 0.43581 0.08475 0.71287 0.0
C2022 C 0.41469 0.08576 0.70574 0.0
C2023 C 0.41634 0.10974 0.70433 0.0
C2024 C 0.43828 0.1324 0.70954 0.0
C2025 C 0.43415 0.1554 0.70724 0.0
C2026 C 0.43555 0.16871 0.72366 0.0
C2027 C 0.45415 0.17468 0.69522 0.0
C2028 C 0.40634 0.14197 0.70017 0.0
C2029 C 0.39649 0.11557 0.69874 0.0
C2030 C 0.37029 0.09848 0.69458 0.0
C2031 C 0.35358 0.10852 0.69194 0.0
C2032 C 0.36324 0.13546 0.69292 0.0
C2033 C 0.38999 0.15246 0.69703 0.0
H2034 H 0.92021 0.36129 0.71761 0.0
H2035 H 0.85178 0.36945 0.70928 0.0
H2036 H 0.82757 0.32469 0.69797 0.0
H2037 H 0.91375 0.32351 0.68171 0.0
H2038 H 0.9242 0.30348 0.69182 0.0
H2039 H 0.93604 0.33619 0.69889 0.0
H2040 H 0.91874 0.31939 0.7278 0.0
H2041 H 0.90688 0.28664 0.7208 0.0
H2042 H 0.88464 0.29522 0.73034 0.0
H2043 H 0.81143 0.27916 0.68698 0.0
H2044 H 0.8037 0.23579 0.67894 0.0
H2045 H 0.88254 0.25774 0.69555 0.0
C2046 C 0.90019 0.35369 0.7133 0.0
C2047 C 0.88785 0.36876 0.71417 0.0
C2048 C 0.86148 0.35808 0.70871 0.0
C2049 C 0.84767 0.33279 0.70223 0.0
C2050 C 0.86048 0.31845 0.70148 0.0
C2051 C 0.88608 0.32847 0.707 0.0
C2052 C 0.89517 0.30892 0.70532 0.0
C2053 C 0.91868 0.31861 0.69374 0.0
C2054 C 0.90174 0.30215 0.72206 0.0
C2055 C 0.87074 0.28633 0.69793 0.0
C2056 C 0.85098 0.29219 0.69567 0.0
C2057 C 0.82674 0.27434 0.68877 0.0
C2058 C 0.82257 0.24981 0.68419 0.0
C2059 C 0.8425 0.24338 0.68667 0.0
C2060 C 0.86684 0.26196 0.69361 0.0
H2061 H 0.20548 0.98632 0.6186 0.0
H2062 H 0.19173 0.94465 0.66377 0.0
H2063 H 0.21961 0.98592 0.67854 0.0
H2064 H 0.27333 0.03301 0.62682 0.0
H2065 H 0.27196 0.05955 0.61755 0.0
H2066 H 0.25028 0.02687 0.61047 0.0
H2067 H 0.20992 0.0325 0.61572 0.0
H2068 H 0.2315 0.06525 0.62274 0.0
H2069 H 0.2055 0.04269 0.63563 0.0
H2070 H 0.24882 0.0311 0.6884 0.0
H2071 H 0.27818 0.07804 0.69279 0.0
H2072 H 0.27399 0.09107 0.64139 0.0
C2073 C 0.20818 0.98599 0.63162 0.0
C2074 C 0.19648 0.96235 0.64009 0.0
C2075 C 0.2007 0.96256 0.65708 0.0
C2076 C 0.21642 0.98587 0.66556 0.0
C2077 C 0.2279 0.0088 0.65686 0.0
C2078 C 0.22407 0.00912 0.64028 0.0
C2079 C 0.23921 0.03648 0.63386 0.0
C2080 C 0.25993 0.03912 0.62144 0.0
C2081 C 0.22041 0.04471 0.62656 0.0
C2082 C 0.25205 0.05144 0.64944 0.0
C2083 C 0.24512 0.03503 0.66255 0.0
C2084 C 0.25424 0.04416 0.67826 0.0
C2085 C 0.27066 0.07084 0.68068 0.0
C2086 C 0.27778 0.088 0.66751 0.0
C2087 C 0.2687 0.0782 0.65165 0.0
H2088 H 0.01807 0.25824 0.62803 0.0
H2089 H 0.01451 0.18482 0.63637 0.0
H2090 H 0.96978 0.16715 0.64738 0.0
H2091 H 0.9831 0.25756 0.66475 0.0
H2092 H 0.9661 0.27206 0.65511 0.0
H2093 H 0.99811 0.27938 0.64807 0.0
H2094 H 0.97948 0.2645 0.61885 0.0
H2095 H 0.94747 0.25737 0.62569 0.0
H2096 H 0.95146 0.2326 0.61558 0.0
H2097 H 0.92495 0.15704 0.65684 0.0
H2098 H 0.88319 0.15502 0.66357 0.0
H2099 H 0.91582 0.23519 0.64985 0.0
C2100 C 0.00804 0.23852 0.63233 0.0
C2101 C 0.01992 0.22292 0.63126 0.0
C2102 C 0.0058 0.19708 0.6368 0.0
C2103 C 0.98043 0.18692 0.64322 0.0
C2104 C 0.96937 0.20283 0.64409 0.0
C2105 C 0.98271 0.22808 0.6388 0.0
C2106 C 0.96612 0.2409 0.64078 0.0
C2107 C 0.97914 0.26384 0.6529 0.0
C2108 C 0.96082 0.24933 0.62424 0.0
C2109 C 0.9412 0.21878 0.64772 0.0
C2110 C 0.9436 0.19707 0.64967 0.0
C2111 C 0.92299 0.17402 0.65553 0.0
C2112 C 0.89932 0.17312 0.65946 0.0
C2113 C 0.89644 0.19517 0.65771 0.0
C2114 C 0.91765 0.21819 0.6516 0.0
H2115 H 0.82769 0.82964 0.62713 0.0
H2116 H 0.74637 0.78368 0.6111 0.0
H2117 H 0.74312 0.74543 0.62467 0.0
H2118 H 0.84517 0.78161 0.62139 0.0
H2119 H 0.86597 0.79025 0.63924 0.0
H2120 H 0.86146 0.81442 0.6292 0.0
H2121 H 0.84541 0.82465 0.65625 0.0
H2122 H 0.85044 0.80075 0.66624 0.0
H2123 H 0.81877 0.79866 0.66706 0.0
H2124 H 0.74995 0.71155 0.63766 0.0
H2125 H 0.76564 0.6846 0.6507 0.0
H2126 H 0.84194 0.753 0.65942 0.0
C2127 C 0.80917 0.81154 0.6266 0.0
C2128 C 0.78725 0.80949 0.6181 0.0
C2129 C 0.76328 0.78561 0.6177 0.0
C2130 C 0.76128 0.76382 0.62532 0.0
C2131 C 0.78333 0.7664 0.63347 0.0
C2132 C 0.80674 0.7897 0.63434 0.0
C2133 C 0.82765 0.78709 0.64355 0.0
C2134 C 0.85146 0.79373 0.63269 0.0
C2135 C 0.83604 0.80378 0.65921 0.0
C2136 C 0.81253 0.75853 0.64737 0.0
C2137 C 0.78701 0.74696 0.64144 0.0
C2138 C 0.76976 0.72043 0.64257 0.0
C2139 C 0.77888 0.70529 0.64991 0.0
C2140 C 0.8049 0.71679 0.65612 0.0
C2141 C 0.8218 0.74379 0.65499 0.0
H2142 H 0.0218 0.76743 0.63756 0.0
H2143 H 0.01236 0.83456 0.63184 0.0
H2144 H 0.96704 0.80958 0.64237 0.0
H2145 H 0.95842 0.72075 0.62475 0.0
H2146 H 0.955 0.69669 0.63913 0.0
H2147 H 0.98715 0.72049 0.63231 0.0
H2148 H 1.00206 0.73413 0.66223 0.0
H2149 H 0.96981 0.71071 0.66928 0.0
H2150 H 0.984 0.74434 0.67507 0.0
H2151 H 0.92163 0.77612 0.652 0.0
H2152 H 0.87999 0.73681 0.6592 0.0
H2153 H 0.9198 0.69222 0.6589 0.0
C2154 C 0.01043 0.77709 0.63881 0.0
C2155 C 0.02071 0.80302 0.63393 0.0
C2156 C 0.00486 0.81467 0.63538 0.0
C2157 C 0.97918 0.8007 0.64147 0.0
C2158 C 0.96966 0.77514 0.6461 0.0
C2159 C 0.98485 0.76348 0.64484 0.0
C2160 C 0.96967 0.73541 0.64982 0.0
C2161 C 0.96743 0.71728 0.63566 0.0
C2162 C 0.98213 0.73089 0.665 0.0
C2163 C 0.94332 0.73285 0.65368 0.0
C2164 C 0.94374 0.75603 0.65168 0.0
C2165 C 0.92124 0.758 0.65385 0.0
C2166 C 0.89773 0.73565 0.65804 0.0
C2167 C 0.89704 0.7118 0.66011 0.0
C2168 C 0.92008 0.71044 0.65783 0.0
H2169 H 0.22844 0.24871 0.62777 0.0
H2170 H 0.15748 0.17465 0.63444 0.0
H2171 H 0.18416 0.15708 0.64613 0.0
H2172 H 0.2703 0.22398 0.61593 0.0
H2173 H 0.29876 0.24895 0.62662 0.0
H2174 H 0.2739 0.25555 0.61912 0.0
H2175 H 0.26881 0.26975 0.64812 0.0
H2176 H 0.2933 0.26278 0.6559 0.0
H2177 H 0.261 0.24769 0.66474 0.0
H2178 H 0.21935 0.14716 0.65608 0.0
H2179 H 0.2597 0.14634 0.66399 0.0
H2180 H 0.30711 0.22714 0.6513 0.0
C2181 C 0.21849 0.22872 0.63156 0.0
C2182 C 0.19083 0.21301 0.63009 0.0
C2183 C 0.1786 0.18711 0.63552 0.0
C2184 C 0.19361 0.17694 0.64213 0.0
C2185 C 0.22084 0.19296 0.64336 0.0
C2186 C 0.23312 0.21834 0.63827 0.0
C2187 C 0.26262 0.23161 0.64092 0.0
C2188 C 0.27725 0.24054 0.62468 0.0
C2189 C 0.27198 0.2543 0.65315 0.0
C2190 C 0.26514 0.20964 0.64801 0.0
C2191 C 0.24085 0.18748 0.64938 0.0
C2192 C 0.23841 0.1645 0.65521 0.0
C2193 C 0.26139 0.16423 0.65977 0.0
C2194 C 0.28638 0.18688 0.65868 0.0
C2195 C 0.28818 0.20971 0.65256 0.0
H2196 H 0.77357 0.99292 0.61486 0.0
H2197 H 0.83687 0.98613 0.63744 0.0
H2198 H 0.84808 0.02415 0.65471 0.0
H2199 H 0.80939 0.062 0.61297 0.0
H2200 H 0.78145 0.06589 0.61721 0.0
H2201 H 0.77671 0.03674 0.60732 0.0
H2202 H 0.74418 0.00926 0.62985 0.0
H2203 H 0.74888 0.03837 0.63981 0.0
H2204 H 0.75463 0.01572 0.65087 0.0
H2205 H 0.85428 0.06365 0.66848 0.0
H2206 H 0.85585 0.10353 0.67778 0.0
H2207 H 0.78917 0.08631 0.64633 0.0
C2208 C 0.78974 0.99938 0.62346 0.0
C2209 C 0.80399 0.98612 0.62495 0.0
C2210 C 0.82508 0.99535 0.63636 0.0
C2211 C 0.83177 0.0171 0.64617 0.0
C2212 C 0.81735 0.02962 0.6444 0.0
C2213 C 0.79685 0.02127 0.63333 0.0
C2214 C 0.78545 0.03917 0.63345 0.0
C2215 C 0.78844 0.05169 0.61675 0.0
C2216 C 0.75657 0.02476 0.63882 0.0
C2217 C 0.80301 0.05897 0.6462 0.0
C2218 C 0.82111 0.05288 0.65239 0.0
C2219 C 0.84001 0.0685 0.66389 0.0
C2220 C 0.8406 0.09111 0.66918 0.0
C2221 C 0.82234 0.09796 0.66303 0.0
C2222 C 0.80322 0.08153 0.65141 0.0
H2223 H 0.50455 0.33315 0.71571 0.0
H2224 H 0.46033 0.36071 0.74358 0.0
H2225 H 0.41919 0.3257 0.73184 0.0
H2226 H 0.46211 0.31087 0.67959 0.0
H2227 H 0.46523 0.28251 0.67684 0.0
H2228 H 0.49163 0.31129 0.68624 0.0
H2229 H 0.48978 0.28429 0.71128 0.0
H2230 H 0.46321 0.25566 0.70186 0.0
H2231 H 0.45913 0.26588 0.72184 0.0
H2232 H 0.38281 0.28738 0.71825 0.0
H2233 H 0.35265 0.24627 0.70449 0.0
H2234 H 0.4193 0.24105 0.68625 0.0
C2235 C 0.48626 0.33188 0.71939 0.0
C2236 C 0.48595 0.35018 0.73044 0.0
C2237 C 0.46141 0.34762 0.7348 0.0
C2238 C 0.4378 0.32762 0.72828 0.0
C2239 C 0.43887 0.31004 0.71749 0.0
C2240 C 0.46236 0.31177 0.71312 0.0
C2241 C 0.45766 0.28934 0.70194 0.0
C2242 C 0.46988 0.2991 0.68515 0.0
C2243 C 0.46806 0.27282 0.7097 0.0
C2244 C 0.42783 0.27468 0.7009 0.0
C2245 C 0.41753 0.28721 0.70986 0.0
C2246 C 0.39059 0.27739 0.71115 0.0
C2247 C 0.37361 0.25392 0.70326 0.0
C2248 C 0.38352 0.24031 0.69423 0.0
C2249 C 0.41107 0.25105 0.69292 0.0
H2250 H 0.66722 0.15425 0.71504 0.0
H2251 H 0.62352 0.07033 0.71199 0.0
H2252 H 0.66276 0.07032 0.70145 0.0
H2253 H 0.70358 0.16278 0.67786 0.0
H2254 H 0.73448 0.18958 0.68499 0.0
H2255 H 0.70385 0.18504 0.6929 0.0
H2256 H 0.71705 0.18307 0.7224 0.0
H2257 H 0.74874 0.18953 0.71532 0.0
H2258 H 0.72904 0.16148 0.72752 0.0
H2259 H 0.70736 0.07867 0.69466 0.0
H2260 H 0.75446 0.09536 0.68919 0.0
H2261 H 0.76938 0.17406 0.69318 0.0
C2262 C 0.66599 0.13595 0.71203 0.0
C2263 C 0.64228 0.11225 0.71426 0.0
C2264 C 0.64137 0.08868 0.7102 0.0
C2265 C 0.66357 0.08847 0.70425 0.0
C2266 C 0.68658 0.11204 0.70215 0.0
C2267 C 0.68799 0.1354 0.70572 0.0
C2268 C 0.71536 0.15787 0.70224 0.0
C2269 C 0.71429 0.17485 0.68869 0.0
C2270 C 0.72831 0.17393 0.7178 0.0
C2271 C 0.72917 0.14339 0.69658 0.0
C2272 C 0.71213 0.11693 0.69681 0.0
C2273 C 0.72072 0.09932 0.69394 0.0
C2274 C 0.74745 0.10892 0.69084 0.0
C2275 C 0.76515 0.13586 0.69006 0.0
C2276 C 0.7559 0.15336 0.6929 0.0
H2277 H 0.87466 0.52803 0.71913 0.0
H2278 H 0.95714 0.57943 0.70807 0.0
H2279 H 0.94621 0.61091 0.69684 0.0
H2280 H 0.84919 0.54254 0.68185 0.0
H2281 H 0.82112 0.54046 0.69208 0.0
H2282 H 0.83509 0.52125 0.69888 0.0
H2283 H 0.84079 0.54088 0.72795 0.0
H2284 H 0.82699 0.5602 0.7212 0.0
H2285 H 0.85905 0.57556 0.73077 0.0
H2286 H 0.9275 0.6382 0.68879 0.0
H2287 H 0.90117 0.65887 0.6827 0.0
H2288 H 0.83015 0.58911 0.69671 0.0
C2289 C 0.89039 0.54568 0.7141 0.0
C2290 C 0.91688 0.55133 0.71477 0.0
C2291 C 0.93682 0.57486 0.70817 0.0
C2292 C 0.93079 0.5928 0.70158 0.0
C2293 C 0.90465 0.5868 0.70136 0.0
C2294 C 0.88467 0.56371 0.70721 0.0
C2295 C 0.85823 0.56236 0.70563 0.0
C2296 C 0.83982 0.54034 0.69391 0.0
C2297 C 0.84553 0.55959 0.72239 0.0
C2298 C 0.86668 0.58862 0.6984 0.0
C2299 C 0.89358 0.60233 0.69606 0.0
C2300 C 0.9064 0.62759 0.69041 0.0
C2301 C 0.89135 0.63923 0.68713 0.0
C2302 C 0.86382 0.62556 0.68939 0.0
C2303 C 0.85121 0.5998 0.69483 0.0
H2304 H 0.47593 0.97703 0.19776 0.0
H2305 H 0.46685 0.90036 0.19347 0.0
H2306 H 0.47521 0.90665 0.16398 0.0
H2307 H 0.44711 0.97703 0.15824 0.0
H2308 H 0.47037 0.01073 0.1549 0.0
H2309 H 0.46109 0.99912 0.17533 0.0
H2310 H 0.51015 0.01736 0.18306 0.0
H2311 H 0.51957 0.02899 0.16269 0.0
H2312 H 0.52968 0.00763 0.17127 0.0
H2313 H 0.48754 0.92262 0.13505 0.0
H2314 H 0.50376 0.94727 0.10959 0.0
H2315 H 0.50577 0.0137 0.13314 0.0
C2316 C 0.47562 0.96148 0.19066 0.0
C2317 C 0.47061 0.93813 0.19804 0.0
C2318 C 0.47015 0.91825 0.18815 0.0
C2319 C 0.47502 0.9217 0.17136 0.0
C2320 C 0.48029 0.94511 0.16458 0.0
C2321 C 0.48057 0.96464 0.17394 0.0
C2322 C 0.48808 0.98847 0.16392 0.0
C2323 C 0.4653 0.99416 0.16305 0.0
C2324 C 0.51337 0.01199 0.17064 0.0
C2325 C 0.49263 0.97957 0.14754 0.0
C2326 C 0.48771 0.95439 0.14808 0.0
C2327 C 0.49124 0.94228 0.13448 0.0
C2328 C 0.50034 0.95638 0.12004 0.0
C2329 C 0.50607 0.98242 0.11935 0.0
C2330 C 0.50178 0.99391 0.13329 0.0
H2331 H 0.0466 0.54804 0.18764 0.0
H2332 H 0.08182 0.49981 0.1801 0.0
H2333 H 0.05768 0.48388 0.15412 0.0
H2334 H 0.98259 0.50339 0.16978 0.0
H2335 H 0.979 0.52858 0.16033 0.0
H2336 H 0.99797 0.53536 0.17886 0.0
H2337 H 0.03819 0.57308 0.16488 0.0
H2338 H 0.01931 0.56648 0.14634 0.0
H2339 H 0.05022 0.56689 0.14618 0.0
H2340 H 0.03159 0.47453 0.12849 0.0
H2341 H 0.00514 0.47263 0.10454 0.0
H2342 H 0.98703 0.52716 0.1282 0.0
C2343 C 0.0492 0.53411 0.18054 0.0
C2344 C 0.06589 0.52496 0.18606 0.0
C2345 C 0.0687 0.50668 0.17637 0.0
C2346 C 0.05519 0.4976 0.16152 0.0
C2347 C 0.03892 0.50697 0.15646 0.0
C2348 C 0.03584 0.52481 0.16564 0.0
C2349 C 0.01773 0.5323 0.15709 0.0
C2350 C 0.99285 0.52443 0.16712 0.0
C2351 C 0.03224 0.56141 0.1534 0.0
C2352 C 0.01139 0.51607 0.14162 0.0
C2353 C 0.02378 0.50157 0.14157 0.0
C2354 C 0.02168 0.4857 0.12841 0.0
C2355 C 0.00672 0.48482 0.11485 0.0
C2356 C 0.99404 0.49971 0.11455 0.0
C2357 C 0.9962 0.5153 0.12821 0.0
H2358 H 0.5038 0.52237 0.19601 0.0
H2359 H 0.4272 0.51499 0.18753 0.0
H2360 H 0.43042 0.50703 0.15836 0.0
H2361 H 0.53311 0.55769 0.15906 0.0
H2362 H 0.55274 0.54253 0.156 0.0
H2363 H 0.54398 0.54692 0.1763 0.0
H2364 H 0.52342 0.49774 0.18126 0.0
H2365 H 0.53195 0.49317 0.16095 0.0
H2366 H 0.49829 0.47489 0.16752 0.0
H2367 H 0.44141 0.49821 0.13009 0.0
H2368 H 0.46015 0.4916 0.10496 0.0
H2369 H 0.53164 0.50981 0.13159 0.0
C2370 C 0.48779 0.51952 0.18809 0.0
C2371 C 0.46514 0.51919 0.1943 0.0
C2372 C 0.44454 0.51481 0.18331 0.0
C2373 C 0.44627 0.51047 0.16663 0.0
C2374 C 0.46886 0.51092 0.16101 0.0
C2375 C 0.48937 0.51563 0.17139 0.0
C2376 C 0.51173 0.51559 0.16226 0.0
C2377 C 0.53687 0.54227 0.16348 0.0
C2378 C 0.51662 0.49407 0.16836 0.0
C2379 C 0.50047 0.50985 0.14512 0.0
C2380 C 0.47567 0.50706 0.14466 0.0
C2381 C 0.46101 0.50076 0.13027 0.0
C2382 C 0.47199 0.49727 0.11598 0.0
C2383 C 0.49763 0.50039 0.11606 0.0
C2384 C 0.51195 0.50693 0.13094 0.0
H2385 H 0.99398 0.51613 0.81688 0.0
H2386 H 0.93304 0.43553 0.82034 0.0
H2387 H 0.94436 0.43593 0.84942 0.0
H2388 H 0.04087 0.51193 0.84187 0.0
H2389 H 0.05335 0.54344 0.85125 0.0
H2390 H 0.03942 0.5373 0.83103 0.0
H2391 H 0.00648 0.55177 0.84017 0.0
H2392 H 0.02045 0.55816 0.86041 0.0
H2393 H 0.98566 0.53654 0.85739 0.0
H2394 H 0.96319 0.44489 0.87788 0.0
H2395 H 0.98848 0.46155 0.90359 0.0
H2396 H 0.03732 0.53623 0.88138 0.0
C2397 C 0.9827 0.4987 0.82384 0.0
C2398 C 0.96252 0.47582 0.81642 0.0
C2399 C 0.94863 0.45322 0.82581 0.0
C2400 C 0.95485 0.4533 0.84232 0.0
C2401 C 0.97508 0.47611 0.84922 0.0
C2402 C 0.98879 0.4984 0.84028 0.0
C2403 C 0.01033 0.52006 0.8504 0.0
C2404 C 0.0376 0.52868 0.8432 0.0
C2405 C 0.00542 0.54298 0.8522 0.0
C2406 C 0.00673 0.50643 0.86641 0.0
C2407 C 0.98619 0.48115 0.86551 0.0
C2408 C 0.97924 0.46469 0.87875 0.0
C2409 C 0.99364 0.47435 0.89331 0.0
C2410 C 0.01485 0.50018 0.89448 0.0
C2411 C 0.02139 0.51633 0.8808 0.0
H2412 H 0.51021 0.4502 0.82233 0.0
H2413 H 0.59357 0.50042 0.8324 0.0
H2414 H 0.58297 0.5144 0.85826 0.0
H2415 H 0.48849 0.49256 0.83951 0.0
H2416 H 0.45887 0.46637 0.84787 0.0
H2417 H 0.47294 0.46101 0.82982 0.0
H2418 H 0.47485 0.42332 0.84387 0.0
H2419 H 0.46079 0.42855 0.86195 0.0
H2420 H 0.49172 0.42911 0.86317 0.0
H2421 H 0.56343 0.52166 0.88359 0.0
H2422 H 0.53629 0.52243 0.90625 0.0
H2423 H 0.46561 0.46711 0.87998 0.0
C2424 C 0.52625 0.46413 0.82997 0.0
C2425 C 0.55276 0.47428 0.82523 0.0
C2426 C 0.57312 0.49266 0.83557 0.0
C2427 C 0.5673 0.50061 0.85035 0.0
C2428 C 0.54101 0.4901 0.85467 0.0
C2429 C 0.5208 0.47233 0.84477 0.0
C2430 C 0.49422 0.46373 0.85238 0.0
C2431 C 0.47766 0.47138 0.84176 0.0
C2432 C 0.47954 0.43444 0.85553 0.0
C2433 C 0.50266 0.47925 0.86819 0.0
C2434 C 0.52974 0.49434 0.86926 0.0
C2435 C 0.54221 0.50996 0.88287 0.0
C2436 C 0.52663 0.51015 0.89572 0.0
C2437 C 0.49881 0.49483 0.89493 0.0
C2438 C 0.48678 0.47929 0.88089 0.0
H2439 H 0.49877 0.0548 0.82179 0.0
H2440 H 0.58349 0.08976 0.82623 0.0
H2441 H 0.5786 0.07538 0.85478 0.0
H2442 H 0.48694 0.06931 0.86349 0.0
H2443 H 0.45671 0.03884 0.86516 0.0
H2444 H 0.46717 0.05376 0.84559 0.0
H2445 H 0.4646 0.0119 0.83412 0.0
H2446 H 0.45428 0.99692 0.85366 0.0
H2447 H 0.48285 0.99898 0.8441 0.0
H2448 H 0.56408 0.05511 0.88257 0.0
H2449 H 0.54121 0.0297 0.9068 0.0
H2450 H 0.46599 0.00805 0.88409 0.0
C2451 C 0.51634 0.05995 0.82888 0.0
C2452 C 0.54155 0.07362 0.8218 0.0
C2453 C 0.56399 0.0793 0.83138 0.0
C2454 C 0.5614 0.0713 0.84763 0.0
C2455 C 0.53623 0.05756 0.85415 0.0
C2456 C 0.51409 0.05196 0.84506 0.0
C2457 C 0.4892 0.03567 0.85461 0.0
C2458 C 0.47412 0.05027 0.85738 0.0
C2459 C 0.47171 0.00931 0.84612 0.0
C2460 C 0.50073 0.03265 0.87041 0.0
C2461 C 0.52789 0.04563 0.86999 0.0
C2462 C 0.54282 0.04507 0.88306 0.0
C2463 C 0.52964 0.03067 0.89683 0.0
C2464 C 0.50177 0.01683 0.89742 0.0
C2465 C 0.48728 0.01819 0.88402 0.0
H2466 H 0.17372 0.32051 0.53313 0.0
H2467 H 0.09898 0.24959 0.52613 0.0
H2468 H 0.1003 0.25856 0.49672 0.0
H2469 H 0.16138 0.35889 0.50575 0.0
H2470 H 0.19462 0.37646 0.49838 0.0
H2471 H 0.18841 0.3637 0.51865 0.0
H2472 H 0.21298 0.33875 0.51219 0.0
H2473 H 0.21934 0.3515 0.4919 0.0
H2474 H 0.20286 0.31701 0.49483 0.0
H2475 H 0.10872 0.27687 0.46818 0.0
H2476 H 0.12383 0.30227 0.44303 0.0
H2477 H 0.19374 0.36055 0.4687 0.0
C2478 C 0.1576 0.30683 0.52543 0.0
C2479 C 0.1362 0.28433 0.53199 0.0
C2480 C 0.11571 0.2668 0.5214 0.0
C2481 C 0.11624 0.2718 0.50468 0.0
C2482 C 0.13749 0.29432 0.49867 0.0
C2483 C 0.15788 0.31146 0.50873 0.0
C2484 C 0.17824 0.33447 0.49933 0.0
C2485 C 0.1808 0.35988 0.50592 0.0
C2486 C 0.20493 0.33548 0.49958 0.0
C2487 C 0.16593 0.32787 0.48245 0.0
C2488 C 0.14248 0.30462 0.48229 0.0
C2489 C 0.12722 0.29496 0.46815 0.0
C2490 C 0.13609 0.3095 0.45386 0.0
C2491 C 0.16008 0.3335 0.45373 0.0
C2492 C 0.17518 0.34251 0.46829 0.0
H2493 H 0.71255 0.89034 0.51881 0.0
H2494 H 0.72233 0.82312 0.52207 0.0
H2495 H 0.6962 0.80512 0.49677 0.0
H2496 H 0.64495 0.85547 0.50296 0.0
H2497 H 0.64983 0.88144 0.48979 0.0
H2498 H 0.66839 0.88853 0.50852 0.0
H2499 H 0.71189 0.91314 0.49253 0.0
H2500 H 0.69349 0.90615 0.47376 0.0
H2501 H 0.71819 0.89686 0.47602 0.0
H2502 H 0.67239 0.79628 0.47004 0.0
H2503 H 0.65011 0.79605 0.44433 0.0
H2504 H 0.65374 0.86774 0.4591 0.0
C2505 C 0.70902 0.87176 0.51422 0.0
C2506 C 0.71934 0.85804 0.52236 0.0
C2507 C 0.7143 0.83376 0.51607 0.0
C2508 C 0.69958 0.82344 0.50171 0.0
C2509 C 0.68979 0.83751 0.49391 0.0
C2510 C 0.69405 0.86101 0.5 0.0
C2511 C 0.68162 0.87236 0.48913 0.0
C2512 C 0.6599 0.87457 0.49814 0.0
C2513 C 0.70255 0.89868 0.48247 0.0
C2514 C 0.67019 0.85183 0.47579 0.0
C2515 C 0.67518 0.83192 0.47877 0.0
C2516 C 0.66798 0.81153 0.46769 0.0
C2517 C 0.65543 0.81156 0.45316 0.0
C2518 C 0.64999 0.83166 0.44997 0.0
C2519 C 0.65723 0.85189 0.46149 0.0
H2520 H 0.14205 0.83005 0.53049 0.0
H2521 H 0.13632 0.89952 0.52715 0.0
H2522 H 0.14667 0.90217 0.49778 0.0
H2523 H 0.197 0.85138 0.50531 0.0
H2524 H 0.18661 0.82017 0.49602 0.0
H2525 H 0.176 0.82219 0.51623 0.0
H2526 H 0.12729 0.79356 0.50715 0.0
H2527 H 0.13776 0.79131 0.48691 0.0
H2528 H 0.11508 0.80299 0.48992 0.0
H2529 H 0.15961 0.89813 0.46903 0.0
H2530 H 0.17604 0.88891 0.44356 0.0
H2531 H 0.17472 0.82295 0.4662 0.0
C2532 C 0.14238 0.84546 0.52347 0.0
C2533 C 0.13808 0.86441 0.53097 0.0
C2534 C 0.13946 0.88477 0.52155 0.0
C2535 C 0.14523 0.88636 0.50489 0.0
C2536 C 0.14973 0.86754 0.4979 0.0
C2537 C 0.14843 0.84751 0.50691 0.0
C2538 C 0.15592 0.83083 0.49683 0.0
C2539 C 0.18033 0.83118 0.50403 0.0
C2540 C 0.13262 0.80302 0.4951 0.0
C2541 C 0.16201 0.84479 0.48079 0.0
C2542 C 0.15799 0.8657 0.48156 0.0
C2543 C 0.16269 0.88172 0.46827 0.0
C2544 C 0.17194 0.87631 0.45386 0.0
C2545 C 0.17669 0.85528 0.45296 0.0
C2546 C 0.17145 0.83928 0.46659 0.0
H2547 H 0.67373 0.84885 0.15065 0.0
H2548 H 0.59915 0.7776 0.15604 0.0
H2549 H 0.60787 0.77829 0.18548 0.0
H2550 H 0.71038 0.83491 0.17859 0.0
H2551 H 0.72924 0.86743 0.1867 0.0
H2552 H 0.71674 0.8621 0.16614 0.0
H2553 H 0.69298 0.88789 0.17242 0.0
H2554 H 0.70562 0.89353 0.19298 0.0
H2555 H 0.6707 0.8786 0.18932 0.0
H2556 H 0.62578 0.78535 0.21398 0.0
H2557 H 0.65078 0.79919 0.23983 0.0
H2558 H 0.71267 0.86713 0.21622 0.0
C2559 C 0.65897 0.83364 0.15804 0.0
C2560 C 0.63578 0.81309 0.15096 0.0
C2561 C 0.61724 0.79334 0.1611 0.0
C2562 C 0.62193 0.79364 0.17786 0.0
C2563 C 0.64516 0.81394 0.18437 0.0
C2564 C 0.66327 0.83371 0.17482 0.0
C2565 C 0.68689 0.85302 0.18482 0.0
C2566 C 0.71231 0.85443 0.17869 0.0
C2567 C 0.68917 0.87985 0.18489 0.0
C2568 C 0.67944 0.84076 0.20142 0.0
C2569 C 0.65527 0.81827 0.2009 0.0
C2570 C 0.64457 0.80313 0.2146 0.0
C2571 C 0.65889 0.81126 0.22926 0.0
C2572 C 0.68365 0.83441 0.23017 0.0
C2573 C 0.69393 0.84927 0.21598 0.0
H2574 H 0.16976 0.77098 0.16293 0.0
H2575 H 0.24134 0.8457 0.16169 0.0
H2576 H 0.22847 0.85872 0.18723 0.0
H2577 H 0.12764 0.7949 0.17881 0.0
H2578 H 0.10887 0.7668 0.19115 0.0
H2579 H 0.12336 0.76397 0.1725 0.0
H2580 H 0.14744 0.74448 0.18836 0.0
H2581 H 0.13313 0.74734 0.20705 0.0
H2582 H 0.16836 0.7622 0.20544 0.0
H2583 H 0.20938 0.86195 0.21413 0.0
H2584 H 0.18377 0.85653 0.23915 0.0
H2585 H 0.12378 0.78051 0.222 0.0
C2586 C 0.18262 0.79015 0.16799 0.0
C2587 C 0.20656 0.80736 0.1604 0.0
C2588 C 0.22282 0.83234 0.16729 0.0
C2589 C 0.21572 0.83983 0.1818 0.0
C2590 C 0.19213 0.82223 0.18911 0.0
C2591 C 0.17566 0.79803 0.18232 0.0
C2592 C 0.15149 0.78267 0.19261 0.0
C2593 C 0.12635 0.77674 0.1832 0.0
C2594 C 0.15004 0.7577 0.19873 0.0
C2595 C 0.15713 0.80179 0.20643 0.0
C2596 C 0.18072 0.82446 0.20424 0.0
C2597 C 0.19071 0.84444 0.21585 0.0
C2598 C 0.17613 0.84118 0.23003 0.0
C2599 C 0.15176 0.81825 0.23236 0.0
C2600 C 0.14215 0.79841 0.22036 0.0
H2601 H 0.2161 0.37306 0.15502 0.0
H2602 H 0.17876 0.42004 0.15834 0.0
H2603 H 0.16859 0.40813 0.18711 0.0
H2604 H 0.16847 0.32113 0.17786 0.0
H2605 H 0.1916 0.31399 0.18762 0.0
H2606 H 0.1987 0.32857 0.16786 0.0
H2607 H 0.24282 0.36641 0.17891 0.0
H2608 H 0.23588 0.35191 0.19872 0.0
H2609 H 0.2428 0.38474 0.1965 0.0
H2610 H 0.15982 0.38869 0.21532 0.0
H2611 H 0.15232 0.36257 0.23999 0.0
H2612 H 0.19361 0.32693 0.21783 0.0
C2613 C 0.20583 0.38097 0.16172 0.0
C2614 C 0.19844 0.39771 0.15422 0.0
C2615 C 0.18525 0.40769 0.16372 0.0
C2616 C 0.17918 0.40086 0.18011 0.0
C2617 C 0.18632 0.38396 0.18696 0.0
C2618 C 0.19938 0.37416 0.17805 0.0
C2619 C 0.20352 0.35517 0.18795 0.0
C2620 C 0.18974 0.32812 0.17984 0.0
C2621 C 0.23301 0.36516 0.19068 0.0
C2622 C 0.19026 0.35537 0.20371 0.0
C2623 C 0.18077 0.37237 0.203 0.0
C2624 C 0.16735 0.37546 0.21603 0.0
C2625 C 0.16327 0.36062 0.23004 0.0
C2626 C 0.17233 0.34265 0.2309 0.0
C2627 C 0.18624 0.34032 0.21755 0.0
H2628 H 0.78876 0.58806 0.85449 0.0
H2629 H 0.83483 0.66731 0.87241 0.0
H2630 H 0.84335 0.68278 0.84417 0.0
H2631 H 0.83019 0.59586 0.81915 0.0
H2632 H 0.80246 0.57472 0.80635 0.0
H2633 H 0.80102 0.56975 0.828 0.0
H2634 H 0.75845 0.57259 0.82935 0.0
H2635 H 0.75978 0.5776 0.80774 0.0
H2636 H 0.75855 0.60072 0.82148 0.0
H2637 H 0.84475 0.68993 0.81387 0.0
H2638 H 0.83834 0.68803 0.78407 0.0
H2639 H 0.79352 0.60405 0.78582 0.0
C2640 C 0.801 0.60863 0.85251 0.0
C2641 C 0.81096 0.62643 0.86577 0.0
C2642 C 0.82655 0.65325 0.86253 0.0
C2643 C 0.83172 0.66225 0.8465 0.0
C2644 C 0.82138 0.64423 0.83374 0.0
C2645 C 0.80644 0.61796 0.83656 0.0
C2646 C 0.79688 0.60273 0.82069 0.0
C2647 C 0.80833 0.5847 0.81842 0.0
C2648 C 0.76662 0.58752 0.81977 0.0
C2649 C 0.80833 0.62456 0.80855 0.0
C2650 C 0.82254 0.64834 0.8163 0.0
C2651 C 0.83394 0.67138 0.80765 0.0
C2652 C 0.83035 0.67009 0.79067 0.0
C2653 C 0.81544 0.64592 0.78245 0.0
C2654 C 0.80481 0.62291 0.79163 0.0
H2655 H 0.3899 0.22047 0.85872 0.0
H2656 H 0.41353 0.16286 0.85124 0.0
H2657 H 0.38674 0.14792 0.82604 0.0
H2658 H 0.32277 0.18154 0.84274 0.0
H2659 H 0.3231 0.20877 0.83322 0.0
H2660 H 0.3425 0.21362 0.85135 0.0
H2661 H 0.38437 0.24716 0.83635 0.0
H2662 H 0.36513 0.24242 0.8182 0.0
H2663 H 0.39329 0.23796 0.81749 0.0
H2664 H 0.36011 0.14136 0.80067 0.0
H2665 H 0.33476 0.14311 0.77715 0.0
H2666 H 0.32875 0.20522 0.80094 0.0
C2667 C 0.38936 0.20463 0.85183 0.0
C2668 C 0.40375 0.19276 0.85702 0.0
C2669 C 0.40235 0.17198 0.84768 0.0
C2670 C 0.38729 0.16343 0.83329 0.0
C2671 C 0.37362 0.17577 0.82844 0.0
C2672 C 0.3744 0.19584 0.83745 0.0
C2673 C 0.35872 0.20646 0.82921 0.0
C2674 C 0.33539 0.20234 0.83976 0.0
C2675 C 0.37644 0.2352 0.82507 0.0
C2676 C 0.34943 0.18956 0.81399 0.0
C2677 C 0.35815 0.17191 0.81382 0.0
C2678 C 0.353 0.15495 0.80073 0.0
C2679 C 0.33872 0.15619 0.7874 0.0
C2680 C 0.32976 0.17426 0.78724 0.0
C2681 C 0.33499 0.19094 0.80083 0.0
H2682 H 0.84847 0.21246 0.86492 0.0
H2683 H 0.765 0.1563 0.86187 0.0
H2684 H 0.76911 0.15101 0.83234 0.0
H2685 H 0.85342 0.24214 0.82579 0.0
H2686 H 0.88547 0.24636 0.82167 0.0
H2687 H 0.87558 0.24661 0.84237 0.0
H2688 H 0.88511 0.2098 0.84928 0.0
H2689 H 0.89498 0.2094 0.82861 0.0
H2690 H 0.86938 0.18011 0.83746 0.0
H2691 H 0.78296 0.15027 0.80331 0.0
H2692 H 0.80525 0.1544 0.77716 0.0
H2693 H 0.87953 0.21148 0.79929 0.0
C2694 C 0.83104 0.199 0.85807 0.0
C2695 C 0.80639 0.18478 0.86574 0.0
C2696 C 0.78402 0.16764 0.85625 0.0
C2697 C 0.78619 0.16442 0.83948 0.0
C2698 C 0.81084 0.17857 0.83235 0.0
C2699 C 0.83284 0.1956 0.84134 0.0
C2700 C 0.85716 0.20809 0.83086 0.0
C2701 C 0.86857 0.23755 0.83013 0.0
C2702 C 0.87787 0.20144 0.83692 0.0
C2703 C 0.8455 0.19513 0.81461 0.0
C2704 C 0.81874 0.17825 0.81568 0.0
C2705 C 0.80386 0.16362 0.8023 0.0
C2706 C 0.8167 0.16622 0.78746 0.0
C2707 C 0.84417 0.18332 0.78609 0.0
C2708 C 0.85858 0.19805 0.7999 0.0
H2709 H 0.31984 0.12869 0.48774 0.0
H2710 H 0.26988 0.16292 0.49058 0.0
H2711 H 0.27929 0.17078 0.5201 0.0
H2712 H 0.30157 0.09684 0.52691 0.0
H2713 H 0.33422 0.1027 0.53131 0.0
H2714 H 0.32295 0.09918 0.51052 0.0
H2715 H 0.36325 0.14378 0.50385 0.0
H2716 H 0.3746 0.14746 0.52462 0.0
H2717 H 0.36934 0.17195 0.51564 0.0
H2718 H 0.29597 0.17687 0.54905 0.0
H2719 H 0.31748 0.17952 0.5754 0.0
H2720 H 0.35515 0.13965 0.55389 0.0
C2721 C 0.31089 0.13784 0.49459 0.0
C2722 C 0.29412 0.14521 0.48688 0.0
C2723 C 0.28256 0.15688 0.49628 0.0
C2724 C 0.28788 0.16152 0.51303 0.0
C2725 C 0.30461 0.15416 0.52023 0.0
C2726 C 0.31578 0.14239 0.51134 0.0
C2727 C 0.33311 0.1364 0.52201 0.0
C2728 C 0.32231 0.10703 0.52273 0.0
C2729 C 0.36177 0.15076 0.51618 0.0
C2730 C 0.33034 0.14708 0.53823 0.0
C2731 C 0.31378 0.1572 0.53696 0.0
C2732 C 0.30873 0.16873 0.55023 0.0
C2733 C 0.32093 0.16998 0.5652 0.0
C2734 C 0.33795 0.15966 0.56684 0.0
C2735 C 0.3425 0.14796 0.5531 0.0
H2736 H 0.86104 0.10918 0.5077 0.0
H2737 H 0.8947 0.18451 0.48501 0.0
H2738 H 0.87865 0.20009 0.50767 0.0
H2739 H 0.80399 0.10684 0.52398 0.0
H2740 H 0.80501 0.09197 0.54273 0.0
H2741 H 0.81851 0.08644 0.52449 0.0
H2742 H 0.86327 0.10286 0.53927 0.0
H2743 H 0.8499 0.10839 0.55758 0.0
H2744 H 0.87931 0.13444 0.54892 0.0
H2745 H 0.85754 0.20709 0.53247 0.0
H2746 H 0.83516 0.20553 0.5583 0.0
H2747 H 0.81906 0.12721 0.56595 0.0
C2748 C 0.8655 0.12911 0.50751 0.0
C2749 C 0.87912 0.14548 0.49435 0.0
C2750 C 0.88385 0.17126 0.49464 0.0
C2751 C 0.87501 0.18042 0.50757 0.0
C2752 C 0.86174 0.16374 0.52029 0.0
C2753 C 0.85725 0.13872 0.52044 0.0
C2754 C 0.84294 0.12483 0.5357 0.0
C2755 C 0.81602 0.10112 0.53147 0.0
C2756 C 0.85987 0.11719 0.54597 0.0
C2757 C 0.8399 0.14591 0.54408 0.0
C2758 C 0.85069 0.16815 0.53492 0.0
C2759 C 0.84929 0.18988 0.53982 0.0
C2760 C 0.83653 0.18883 0.55444 0.0
C2761 C 0.8257 0.16637 0.56409 0.0
C2762 C 0.82756 0.14473 0.55887 0.0
H2763 H 0.86463 0.69985 0.48806 0.0
H2764 H 0.83916 0.75623 0.49413 0.0
H2765 H 0.82751 0.74284 0.52272 0.0
H2766 H 0.8134 0.65042 0.51091 0.0
H2767 H 0.83364 0.63877 0.51969 0.0
H2768 H 0.84177 0.6541 0.50016 0.0
H2769 H 0.88845 0.68727 0.51086 0.0
H2770 H 0.8805 0.67196 0.53042 0.0
H2771 H 0.89201 0.7061 0.52899 0.0
H2772 H 0.81763 0.72235 0.55059 0.0
H2773 H 0.8086 0.69532 0.57497 0.0
H2774 H 0.83955 0.65162 0.55041 0.0
C2775 C 0.85704 0.7097 0.4955 0.0
C2776 C 0.85302 0.72927 0.48891 0.0
C2777 C 0.8424 0.74121 0.49893 0.0
C2778 C 0.83582 0.73378 0.51519 0.0
C2779 C 0.8398 0.71425 0.52126 0.0
C2780 C 0.8501 0.70232 0.51169 0.0
C2781 C 0.85117 0.68094 0.52086 0.0
C2782 C 0.83397 0.6545 0.5124 0.0
C2783 C 0.87973 0.68694 0.5229 0.0
C2784 C 0.83967 0.68253 0.53703 0.0
C2785 C 0.83349 0.70204 0.53709 0.0
C2786 C 0.82249 0.70709 0.55068 0.0
C2787 C 0.81753 0.6917 0.56451 0.0
C2788 C 0.82331 0.67131 0.56463 0.0
C2789 C 0.83466 0.66687 0.55067 0.0
loop_
_geom_bond_atom_site_label_1
_geom_bond_atom_site_label_2
_geom_bond_distance
_geom_bond_site_symmetry_2
_ccdc_geom_bond_type
P0 O11 1.490 . S
P0 C14 1.812 . S
P0 C20 1.803 . S
P0 C26 1.819 . S
H1 C15 0.941 . S
H2 C16 0.939 . S
H3 C18 0.940 . S
H4 C19 0.940 . S
H5 C21 0.939 . S
H6 C22 0.942 . S
H7 C24 0.940 . S
H8 C25 0.939 . S
H9 C27 0.941 . S
H10 C31 0.939 . S
O11 P0 1.490 . S
H12 C28 0.939 . S
H13 C30 0.940 . S
C14 P0 1.812 . S
C14 C15 1.389 . S
C14 C19 1.391 . S
C15 H1 0.941 . S
C15 C14 1.389 . S
C15 C16 1.397 . S
C16 H2 0.939 . S
C16 C15 1.397 . S
C16 C17 1.378 . S
C17 C16 1.378 . S
C17 C18 1.378 . S
C18 H3 0.940 . S
C18 C17 1.378 . S
C18 C19 1.396 . S
C19 H4 0.940 . S
C19 C14 1.391 . S
C19 C18 1.396 . S
C20 P0 1.803 . S
C20 C21 1.378 . S
C20 C25 1.400 . S
C21 H5 0.939 . S
C21 C20 1.378 . S
C21 C22 1.361 . S
C22 H6 0.942 . S
C22 C21 1.361 . S
C22 C23 1.369 . S
C23 C22 1.369 . S
C23 C24 1.404 . S
C24 H7 0.940 . S
C24 C23 1.404 . S
C24 C25 1.389 . S
C25 H8 0.939 . S
C25 C20 1.400 . S
C25 C24 1.389 . S
C26 P0 1.819 . S
C26 C27 1.391 . S
C26 C31 1.391 . S
C27 H9 0.941 . S
C27 C26 1.391 . S
C27 C28 1.396 . S
C28 H12 0.939 . S
C28 C27 1.396 . S
C28 C29 1.397 . S
C29 C28 1.397 . S
C29 C30 1.385 . S
C30 H13 0.940 . S
C30 C29 1.385 . S
C30 C31 1.388 . S
C31 H10 0.939 . S
C31 C26 1.391 . S
C31 C30 1.388 . S
P32 O43 1.490 . S
P32 C46 1.812 . S
P32 C52 1.803 . S
P32 C58 1.819 . S
H33 C47 0.941 . S
H34 C48 0.939 . S
H35 C50 0.940 . S
H36 C51 0.940 . S
H37 C53 0.939 . S
H38 C54 0.942 . S
H39 C56 0.940 . S
H40 C57 0.939 . S
H41 C59 0.941 . S
H42 C63 0.939 . S
O43 P32 1.490 . S
H44 C60 0.939 . S
H45 C62 0.940 . S
C46 P32 1.812 . S
C46 C47 1.389 . S
C46 C51 1.391 . S
C47 H33 0.941 . S
C47 C46 1.389 . S
C47 C48 1.397 . S
C48 H34 0.939 . S
C48 C47 1.397 . S
C48 C49 1.378 . S
C49 C48 1.378 . S
C49 C50 1.378 . S
C50 H35 0.940 . S
C50 C49 1.378 . S
C50 C51 1.396 . S
C51 H36 0.940 . S
C51 C46 1.391 . S
C51 C50 1.396 . S
C52 P32 1.803 . S
C52 C53 1.378 . S
C52 C57 1.400 . S
C53 H37 0.939 . S
C53 C52 1.378 . S
C53 C54 1.361 . S
C54 H38 0.942 . S
C54 C53 1.361 . S
C54 C55 1.369 . S
C55 C54 1.369 . S
C55 C56 1.404 . S
C56 H39 0.940 . S
C56 C55 1.404 . S
C56 C57 1.389 . S
C57 H40 0.939 . S
C57 C52 1.400 . S
C57 C56 1.389 . S
C58 P32 1.819 . S
C58 C59 1.391 . S
C58 C63 1.391 . S
C59 H41 0.941 . S
C59 C58 1.391 . S
C59 C60 1.396 . S
C60 H44 0.939 . S
C60 C59 1.396 . S
C60 C61 1.397 . S
C61 C60 1.397 . S
C61 C62 1.385 . S
C62 H45 0.940 . S
C62 C61 1.385 . S
C62 C63 1.388 . S
C63 H42 0.939 . S
C63 C58 1.391 . S
C63 C62 1.388 . S
P64 O75 1.490 . S
P64 C78 1.812 . S
P64 C84 1.803 . S
P64 C90 1.819 . S
H65 C79 0.941 . S
H66 C80 0.939 . S
H67 C82 0.940 . S
H68 C83 0.940 . S
H69 C85 0.939 . S
H70 C86 0.942 . S
H71 C88 0.940 . S
H72 C89 0.939 . S
H73 C91 0.941 . S
H74 C95 0.939 . S
O75 P64 1.490 . S
H76 C92 0.939 . S
H77 C94 0.940 . S
C78 P64 1.812 . S
C78 C79 1.389 . S
C78 C83 1.391 . S
C79 H65 0.941 . S
C79 C78 1.389 . S
C79 C80 1.397 . S
C80 H66 0.939 . S
C80 C79 1.397 . S
C80 C81 1.378 . S
C81 C80 1.378 . S
C81 C82 1.378 . S
C82 H67 0.940 . S
C82 C81 1.378 . S
C82 C83 1.396 . S
C83 H68 0.940 . S
C83 C78 1.391 . S
C83 C82 1.396 . S
C84 P64 1.803 . S
C84 C85 1.378 . S
C84 C89 1.400 . S
C85 H69 0.939 . S
C85 C84 1.378 . S
C85 C86 1.361 . S
C86 H70 0.942 . S
C86 C85 1.361 . S
C86 C87 1.369 . S
C87 C86 1.369 . S
C87 C88 1.404 . S
C88 H71 0.940 . S
C88 C87 1.404 . S
C88 C89 1.389 . S
C89 H72 0.939 . S
C89 C84 1.400 . S
C89 C88 1.389 . S
C90 P64 1.819 . S
C90 C91 1.391 . S
C90 C95 1.391 . S
C91 H73 0.941 . S
C91 C90 1.391 . S
C91 C92 1.396 . S
C92 H76 0.939 . S
C92 C91 1.396 . S
C92 C93 1.397 . S
C93 C92 1.397 . S
C93 C94 1.385 . S
C94 H77 0.940 . S
C94 C93 1.385 . S
C94 C95 1.388 . S
C95 H74 0.939 . S
C95 C90 1.391 . S
C95 C94 1.388 . S
P96 O107 1.490 . S
P96 C110 1.812 . S
P96 C116 1.803 . S
P96 C122 1.819 . S
H97 C111 0.941 . S
H98 C112 0.939 . S
H99 C114 0.940 . S
H100 C115 0.940 . S
H101 C117 0.939 . S
H102 C118 0.942 . S
H103 C120 0.940 . S
H104 C121 0.939 . S
H105 C123 0.941 . S
H106 C127 0.939 . S
O107 P96 1.490 . S
H108 C124 0.939 . S
H109 C126 0.940 . S
C110 P96 1.812 . S
C110 C111 1.389 . S
C110 C115 1.391 . S
C111 H97 0.941 . S
C111 C110 1.389 . S
C111 C112 1.397 . S
C112 H98 0.939 . S
C112 C111 1.397 . S
C112 C113 1.378 . S
C113 C112 1.378 . S
C113 C114 1.378 . S
C114 H99 0.940 . S
C114 C113 1.378 . S
C114 C115 1.396 . S
C115 H100 0.940 . S
C115 C110 1.391 . S
C115 C114 1.396 . S
C116 P96 1.803 . S
C116 C117 1.378 . S
C116 C121 1.400 . S
C117 H101 0.939 . S
C117 C116 1.378 . S
C117 C118 1.361 . S
C118 H102 0.942 . S
C118 C117 1.361 . S
C118 C119 1.369 . S
C119 C118 1.369 . S
C119 C120 1.404 . S
C120 H103 0.940 . S
C120 C119 1.404 . S
C120 C121 1.389 . S
C121 H104 0.939 . S
C121 C116 1.400 . S
C121 C120 1.389 . S
C122 P96 1.819 . S
C122 C123 1.391 . S
C122 C127 1.391 . S
C123 H105 0.941 . S
C123 C122 1.391 . S
C123 C124 1.396 . S
C124 H108 0.939 . S
C124 C123 1.396 . S
C124 C125 1.397 . S
C125 C124 1.397 . S
C125 C126 1.385 . S
C126 H109 0.940 . S
C126 C125 1.385 . S
C126 C127 1.388 . S
C127 H106 0.939 . S
C127 C122 1.391 . S
C127 C126 1.388 . S
P128 O139 1.490 . S
P128 C142 1.812 . S
P128 C148 1.803 . S
P128 C154 1.819 . S
H129 C143 0.941 . S
H130 C144 0.939 . S
H131 C146 0.940 . S
H132 C147 0.940 . S
H133 C149 0.939 . S
H134 C150 0.942 . S
H135 C152 0.940 . S
H136 C153 0.939 . S
H137 C155 0.941 . S
H138 C159 0.939 . S
O139 P128 1.490 . S
H140 C156 0.939 . S
H141 C158 0.940 . S
C142 P128 1.812 . S
C142 C143 1.389 . S
C142 C147 1.391 . S
C143 H129 0.941 . S
C143 C142 1.389 . S
C143 C144 1.397 . S
C144 H130 0.939 . S
C144 C143 1.397 . S
C144 C145 1.378 . S
C145 C144 1.378 . S
C145 C146 1.378 . S
C146 H131 0.940 . S
C146 C145 1.378 . S
C146 C147 1.396 . S
C147 H132 0.940 . S
C147 C142 1.391 . S
C147 C146 1.396 . S
C148 P128 1.803 . S
C148 C149 1.378 . S
C148 C153 1.400 . S
C149 H133 0.939 . S
C149 C148 1.378 . S
C149 C150 1.361 . S
C150 H134 0.942 . S
C150 C149 1.361 . S
C150 C151 1.369 . S
C151 C150 1.369 . S
C151 C152 1.404 . S
C152 H135 0.940 . S
C152 C151 1.404 . S
C152 C153 1.389 . S
C153 H136 0.939 . S
C153 C148 1.400 . S
C153 C152 1.389 . S
C154 P128 1.819 . S
C154 C155 1.391 . S
C154 C159 1.391 . S
C155 H137 0.941 . S
C155 C154 1.391 . S
C155 C156 1.396 . S
C156 H140 0.939 . S
C156 C155 1.396 . S
C156 C157 1.397 . S
C157 C156 1.397 . S
C157 C158 1.385 . S
C158 H141 0.940 . S
C158 C157 1.385 . S
C158 C159 1.388 . S
C159 H138 0.939 . S
C159 C154 1.391 . S
C159 C158 1.388 . S
P160 O171 1.490 . S
P160 C174 1.812 . S
P160 C180 1.803 . S
P160 C186 1.819 . S
H161 C175 0.941 . S
H162 C176 0.939 . S
H163 C178 0.940 . S
H164 C179 0.940 . S
H165 C181 0.939 . S
H166 C182 0.942 . S
H167 C184 0.940 . S
H168 C185 0.939 . S
H169 C187 0.941 . S
H170 C191 0.939 . S
O171 P160 1.490 . S
H172 C188 0.939 . S
H173 C190 0.940 . S
C174 P160 1.812 . S
C174 C175 1.389 . S
C174 C179 1.391 . S
C175 H161 0.941 . S
C175 C174 1.389 . S
C175 C176 1.397 . S
C176 H162 0.939 . S
C176 C175 1.397 . S
C176 C177 1.378 . S
C177 C176 1.378 . S
C177 C178 1.378 . S
C178 H163 0.940 . S
C178 C177 1.378 . S
C178 C179 1.396 . S
C179 H164 0.940 . S
C179 C174 1.391 . S
C179 C178 1.396 . S
C180 P160 1.803 . S
C180 C181 1.378 . S
C180 C185 1.400 . S
C181 H165 0.939 . S
C181 C180 1.378 . S
C181 C182 1.361 . S
C182 H166 0.942 . S
C182 C181 1.361 . S
C182 C183 1.369 . S
C183 C182 1.369 . S
C183 C184 1.404 . S
C184 H167 0.940 . S
C184 C183 1.404 . S
C184 C185 1.389 . S
C185 H168 0.939 . S
C185 C180 1.400 . S
C185 C184 1.389 . S
C186 P160 1.819 . S
C186 C187 1.391 . S
C186 C191 1.391 . S
C187 H169 0.941 . S
C187 C186 1.391 . S
C187 C188 1.396 . S
C188 H172 0.939 . S
C188 C187 1.396 . S
C188 C189 1.397 . S
C189 C188 1.397 . S
C189 C190 1.385 . S
C190 H173 0.940 . S
C190 C189 1.385 . S
C190 C191 1.388 . S
C191 H170 0.939 . S
C191 C186 1.391 . S
C191 C190 1.388 . S
P192 O203 1.490 . S
P192 C206 1.812 . S
P192 C212 1.803 . S
P192 C218 1.819 . S
H193 C207 0.941 . S
H194 C208 0.939 . S
H195 C210 0.940 . S
H196 C211 0.940 . S
H197 C213 0.939 . S
H198 C214 0.942 . S
H199 C216 0.940 . S
H200 C217 0.939 . S
H201 C219 0.941 . S
H202 C223 0.939 . S
O203 P192 1.490 . S
H204 C220 0.939 . S
H205 C222 0.940 . S
C206 P192 1.812 . S
C206 C207 1.389 . S
C206 C211 1.391 . S
C207 H193 0.941 . S
C207 C206 1.389 . S
C207 C208 1.397 . S
C208 H194 0.939 . S
C208 C207 1.397 . S
C208 C209 1.378 . S
C209 C208 1.378 . S
C209 C210 1.378 . S
C210 H195 0.940 . S
C210 C209 1.378 . S
C210 C211 1.396 . S
C211 H196 0.940 . S
C211 C206 1.391 . S
C211 C210 1.396 . S
C212 P192 1.803 . S
C212 C213 1.378 . S
C212 C217 1.400 . S
C213 H197 0.939 . S
C213 C212 1.378 . S
C213 C214 1.361 . S
C214 H198 0.942 . S
C214 C213 1.361 . S
C214 C215 1.369 . S
C215 C214 1.369 . S
C215 C216 1.404 . S
C216 H199 0.940 . S
C216 C215 1.404 . S
C216 C217 1.389 . S
C217 H200 0.939 . S
C217 C212 1.400 . S
C217 C216 1.389 . S
C218 P192 1.819 . S
C218 C219 1.391 . S
C218 C223 1.391 . S
C219 H201 0.941 . S
C219 C218 1.391 . S
C219 C220 1.396 . S
C220 H204 0.939 . S
C220 C219 1.396 . S
C220 C221 1.397 . S
C221 C220 1.397 . S
C221 C222 1.385 . S
C222 H205 0.940 . S
C222 C221 1.385 . S
C222 C223 1.388 . S
C223 H202 0.939 . S
C223 C218 1.391 . S
C223 C222 1.388 . S
P224 O235 1.490 . S
P224 C238 1.812 . S
P224 C244 1.803 . S
P224 C250 1.819 . S
H225 C239 0.941 . S
H226 C240 0.939 . S
H227 C242 0.940 . S
H228 C243 0.940 . S
H229 C245 0.939 . S
H230 C246 0.942 . S
H231 C248 0.940 . S
H232 C249 0.939 . S
H233 C251 0.941 . S
H234 C255 0.939 . S
O235 P224 1.490 . S
H236 C252 0.939 . S
H237 C254 0.940 . S
C238 P224 1.812 . S
C238 C239 1.389 . S
C238 C243 1.391 . S
C239 H225 0.941 . S
C239 C238 1.389 . S
C239 C240 1.397 . S
C240 H226 0.939 . S
C240 C239 1.397 . S
C240 C241 1.378 . S
C241 C240 1.378 . S
C241 C242 1.378 . S
C242 H227 0.940 . S
C242 C241 1.378 . S
C242 C243 1.396 . S
C243 H228 0.940 . S
C243 C238 1.391 . S
C243 C242 1.396 . S
C244 P224 1.803 . S
C244 C245 1.378 . S
C244 C249 1.400 . S
C245 H229 0.939 . S
C245 C244 1.378 . S
C245 C246 1.361 . S
C246 H230 0.942 . S
C246 C245 1.361 . S
C246 C247 1.369 . S
C247 C246 1.369 . S
C247 C248 1.404 . S
C248 H231 0.940 . S
C248 C247 1.404 . S
C248 C249 1.389 . S
C249 H232 0.939 . S
C249 C244 1.400 . S
C249 C248 1.389 . S
C250 P224 1.819 . S
C250 C251 1.391 . S
C250 C255 1.391 . S
C251 H233 0.941 . S
C251 C250 1.391 . S
C251 C252 1.396 . S
C252 H236 0.939 . S
C252 C251 1.396 . S
C252 C253 1.397 . S
C253 C252 1.397 . S
C253 C254 1.385 . S
C254 H237 0.940 . S
C254 C253 1.385 . S
C254 C255 1.388 . S
C255 H234 0.939 . S
C255 C250 1.391 . S
C255 C254 1.388 . S
P256 O267 1.490 . S
P256 C270 1.812 . S
P256 C276 1.803 . S
P256 C282 1.819 . S
H257 C271 0.941 . S
H258 C272 0.939 . S
H259 C274 0.940 . S
H260 C275 0.940 . S
H261 C277 0.939 . S
H262 C278 0.942 . S
H263 C280 0.940 . S
H264 C281 0.939 . S
H265 C283 0.941 . S
H266 C287 0.939 . S
O267 P256 1.490 . S
H268 C284 0.939 . S
H269 C286 0.940 . S
C270 P256 1.812 . S
C270 C271 1.389 . S
C270 C275 1.391 . S
C271 H257 0.941 . S
C271 C270 1.389 . S
C271 C272 1.397 . S
C272 H258 0.939 . S
C272 C271 1.397 . S
C272 C273 1.378 . S
C273 C272 1.378 . S
C273 C274 1.378 . S
C274 H259 0.940 . S
C274 C273 1.378 . S
C274 C275 1.396 . S
C275 H260 0.940 . S
C275 C270 1.391 . S
C275 C274 1.396 . S
C276 P256 1.803 . S
C276 C277 1.378 . S
C276 C281 1.400 . S
C277 H261 0.939 . S
C277 C276 1.378 . S
C277 C278 1.361 . S
C278 H262 0.942 . S
C278 C277 1.361 . S
C278 C279 1.369 . S
C279 C278 1.369 . S
C279 C280 1.404 . S
C280 H263 0.940 . S
C280 C279 1.404 . S
C280 C281 1.389 . S
C281 H264 0.939 . S
C281 C276 1.400 . S
C281 C280 1.389 . S
C282 P256 1.819 . S
C282 C283 1.391 . S
C282 C287 1.391 . S
C283 H265 0.941 . S
C283 C282 1.391 . S
C283 C284 1.396 . S
C284 H268 0.939 . S
C284 C283 1.396 . S
C284 C285 1.397 . S
C285 C284 1.397 . S
C285 C286 1.385 . S
C286 H269 0.940 . S
C286 C285 1.385 . S
C286 C287 1.388 . S
C287 H266 0.939 . S
C287 C282 1.391 . S
C287 C286 1.388 . S
P288 O299 1.490 . S
P288 C302 1.812 . S
P288 C308 1.803 . S
P288 C314 1.819 . S
H289 C303 0.941 . S
H290 C304 0.939 . S
H291 C306 0.940 . S
H292 C307 0.940 . S
H293 C309 0.939 . S
H294 C310 0.942 . S
H295 C312 0.940 . S
H296 C313 0.939 . S
H297 C315 0.941 . S
H298 C319 0.939 . S
O299 P288 1.490 . S
H300 C316 0.939 . S
H301 C318 0.940 . S
C302 P288 1.812 . S
C302 C303 1.389 . S
C302 C307 1.391 . S
C303 H289 0.941 . S
C303 C302 1.389 . S
C303 C304 1.397 . S
C304 H290 0.939 . S
C304 C303 1.397 . S
C304 C305 1.378 . S
C305 C304 1.378 . S
C305 C306 1.378 . S
C306 H291 0.940 . S
C306 C305 1.378 . S
C306 C307 1.396 . S
C307 H292 0.940 . S
C307 C302 1.391 . S
C307 C306 1.396 . S
C308 P288 1.803 . S
C308 C309 1.378 . S
C308 C313 1.400 . S
C309 H293 0.939 . S
C309 C308 1.378 . S
C309 C310 1.361 . S
C310 H294 0.942 . S
C310 C309 1.361 . S
C310 C311 1.369 . S
C311 C310 1.369 . S
C311 C312 1.404 . S
C312 H295 0.940 . S
C312 C311 1.404 . S
C312 C313 1.389 . S
C313 H296 0.939 . S
C313 C308 1.400 . S
C313 C312 1.389 . S
C314 P288 1.819 . S
C314 C315 1.391 . S
C314 C319 1.391 . S
C315 H297 0.941 . S
C315 C314 1.391 . S
C315 C316 1.396 . S
C316 H300 0.939 . S
C316 C315 1.396 . S
C316 C317 1.397 . S
C317 C316 1.397 . S
C317 C318 1.385 . S
C318 H301 0.940 . S
C318 C317 1.385 . S
C318 C319 1.388 . S
C319 H298 0.939 . S
C319 C314 1.391 . S
C319 C318 1.388 . S
P320 O331 1.490 . S
P320 C334 1.812 . S
P320 C340 1.803 . S
P320 C346 1.819 . S
H321 C335 0.941 . S
H322 C336 0.939 . S
H323 C338 0.940 . S
H324 C339 0.940 . S
H325 C341 0.939 . S
H326 C342 0.942 . S
H327 C344 0.940 . S
H328 C345 0.939 . S
H329 C347 0.941 . S
H330 C351 0.939 . S
O331 P320 1.490 . S
H332 C348 0.939 . S
H333 C350 0.940 . S
C334 P320 1.812 . S
C334 C335 1.389 . S
C334 C339 1.391 . S
C335 H321 0.941 . S
C335 C334 1.389 . S
C335 C336 1.397 . S
C336 H322 0.939 . S
C336 C335 1.397 . S
C336 C337 1.378 . S
C337 C336 1.378 . S
C337 C338 1.378 . S
C338 H323 0.940 . S
C338 C337 1.378 . S
C338 C339 1.396 . S
C339 H324 0.940 . S
C339 C334 1.391 . S
C339 C338 1.396 . S
C340 P320 1.803 . S
C340 C341 1.378 . S
C340 C345 1.400 . S
C341 H325 0.939 . S
C341 C340 1.378 . S
C341 C342 1.361 . S
C342 H326 0.942 . S
C342 C341 1.361 . S
C342 C343 1.369 . S
C343 C342 1.369 . S
C343 C344 1.404 . S
C344 H327 0.940 . S
C344 C343 1.404 . S
C344 C345 1.389 . S
C345 H328 0.939 . S
C345 C340 1.400 . S
C345 C344 1.389 . S
C346 P320 1.819 . S
C346 C347 1.391 . S
C346 C351 1.391 . S
C347 H329 0.941 . S
C347 C346 1.391 . S
C347 C348 1.396 . S
C348 H332 0.939 . S
C348 C347 1.396 . S
C348 C349 1.397 . S
C349 C348 1.397 . S
C349 C350 1.385 . S
C350 H333 0.940 . S
C350 C349 1.385 . S
C350 C351 1.388 . S
C351 H330 0.939 . S
C351 C346 1.391 . S
C351 C350 1.388 . S
P352 O363 1.490 . S
P352 C366 1.812 . S
P352 C372 1.803 . S
P352 C378 1.819 . S
H353 C367 0.941 . S
H354 C368 0.939 . S
H355 C370 0.940 . S
H356 C371 0.940 . S
H357 C373 0.939 . S
H358 C374 0.942 . S
H359 C376 0.940 . S
H360 C377 0.939 . S
H361 C379 0.941 . S
H362 C383 0.939 . S
O363 P352 1.490 . S
H364 C380 0.939 . S
H365 C382 0.940 . S
C366 P352 1.812 . S
C366 C367 1.389 . S
C366 C371 1.391 . S
C367 H353 0.941 . S
C367 C366 1.389 . S
C367 C368 1.397 . S
C368 H354 0.939 . S
C368 C367 1.397 . S
C368 C369 1.378 . S
C369 C368 1.378 . S
C369 C370 1.378 . S
C370 H355 0.940 . S
C370 C369 1.378 . S
C370 C371 1.396 . S
C371 H356 0.940 . S
C371 C366 1.391 . S
C371 C370 1.396 . S
C372 P352 1.803 . S
C372 C373 1.378 . S
C372 C377 1.400 . S
C373 H357 0.939 . S
C373 C372 1.378 . S
C373 C374 1.361 . S
C374 H358 0.942 . S
C374 C373 1.361 . S
C374 C375 1.369 . S
C375 C374 1.369 . S
C375 C376 1.404 . S
C376 H359 0.940 . S
C376 C375 1.404 . S
C376 C377 1.389 . S
C377 H360 0.939 . S
C377 C372 1.400 . S
C377 C376 1.389 . S
C378 P352 1.819 . S
C378 C379 1.391 . S
C378 C383 1.391 . S
C379 H361 0.941 . S
C379 C378 1.391 . S
C379 C380 1.396 . S
C380 H364 0.939 . S
C380 C379 1.396 . S
C380 C381 1.397 . S
C381 C380 1.397 . S
C381 C382 1.385 . S
C382 H365 0.940 . S
C382 C381 1.385 . S
C382 C383 1.388 . S
C383 H362 0.939 . S
C383 C378 1.391 . S
C383 C382 1.388 . S
P384 O395 1.490 . S
P384 C398 1.812 . S
P384 C404 1.803 . S
P384 C410 1.819 . S
H385 C399 0.941 . S
H386 C400 0.939 . S
H387 C402 0.940 . S
H388 C403 0.940 . S
H389 C405 0.939 . S
H390 C406 0.942 . S
H391 C408 0.940 . S
H392 C409 0.939 . S
H393 C411 0.941 . S
H394 C415 0.939 . S
O395 P384 1.490 . S
H396 C412 0.939 . S
H397 C414 0.940 . S
C398 P384 1.812 . S
C398 C399 1.389 . S
C398 C403 1.391 . S
C399 H385 0.941 . S
C399 C398 1.389 . S
C399 C400 1.397 . S
C400 H386 0.939 . S
C400 C399 1.397 . S
C400 C401 1.378 . S
C401 C400 1.378 . S
C401 C402 1.378 . S
C402 H387 0.940 . S
C402 C401 1.378 . S
C402 C403 1.396 . S
C403 H388 0.940 . S
C403 C398 1.391 . S
C403 C402 1.396 . S
C404 P384 1.803 . S
C404 C405 1.378 . S
C404 C409 1.400 . S
C405 H389 0.939 . S
C405 C404 1.378 . S
C405 C406 1.361 . S
C406 H390 0.942 . S
C406 C405 1.361 . S
C406 C407 1.369 . S
C407 C406 1.369 . S
C407 C408 1.404 . S
C408 H391 0.940 . S
C408 C407 1.404 . S
C408 C409 1.389 . S
C409 H392 0.939 . S
C409 C404 1.400 . S
C409 C408 1.389 . S
C410 P384 1.819 . S
C410 C411 1.391 . S
C410 C415 1.391 . S
C411 H393 0.941 . S
C411 C410 1.391 . S
C411 C412 1.396 . S
C412 H396 0.939 . S
C412 C411 1.396 . S
C412 C413 1.397 . S
C413 C412 1.397 . S
C413 C414 1.385 . S
C414 H397 0.940 . S
C414 C413 1.385 . S
C414 C415 1.388 . S
C415 H394 0.939 . S
C415 C410 1.391 . S
C415 C414 1.388 . S
P416 O427 1.490 . S
P416 C430 1.812 . S
P416 C436 1.803 . S
P416 C442 1.819 . S
H417 C431 0.941 . S
H418 C432 0.939 . S
H419 C434 0.940 . S
H420 C435 0.940 . S
H421 C437 0.939 . S
H422 C438 0.942 . S
H423 C440 0.940 . S
H424 C441 0.939 . S
H425 C443 0.941 . S
H426 C447 0.939 . S
O427 P416 1.490 . S
H428 C444 0.939 . S
H429 C446 0.940 . S
C430 P416 1.812 . S
C430 C431 1.389 . S
C430 C435 1.391 . S
C431 H417 0.941 . S
C431 C430 1.389 . S
C431 C432 1.397 . S
C432 H418 0.939 . S
C432 C431 1.397 . S
C432 C433 1.378 . S
C433 C432 1.378 . S
C433 C434 1.378 . S
C434 H419 0.940 . S
C434 C433 1.378 . S
C434 C435 1.396 . S
C435 H420 0.940 . S
C435 C430 1.391 . S
C435 C434 1.396 . S
C436 P416 1.803 . S
C436 C437 1.378 . S
C436 C441 1.400 . S
C437 H421 0.939 . S
C437 C436 1.378 . S
C437 C438 1.361 . S
C438 H422 0.942 . S
C438 C437 1.361 . S
C438 C439 1.369 . S
C439 C438 1.369 . S
C439 C440 1.404 . S
C440 H423 0.940 . S
C440 C439 1.404 . S
C440 C441 1.389 . S
C441 H424 0.939 . S
C441 C436 1.400 . S
C441 C440 1.389 . S
C442 P416 1.819 . S
C442 C443 1.391 . S
C442 C447 1.391 . S
C443 H425 0.941 . S
C443 C442 1.391 . S
C443 C444 1.396 . S
C444 H428 0.939 . S
C444 C443 1.396 . S
C444 C445 1.397 . S
C445 C444 1.397 . S
C445 C446 1.385 . S
C446 H429 0.940 . S
C446 C445 1.385 . S
C446 C447 1.388 . S
C447 H426 0.939 . S
C447 C442 1.391 . S
C447 C446 1.388 . S
P448 O459 1.490 . S
P448 C462 1.812 . S
P448 C468 1.803 . S
P448 C474 1.819 . S
H449 C463 0.941 . S
H450 C464 0.939 . S
H451 C466 0.940 . S
H452 C467 0.940 . S
H453 C469 0.939 . S
H454 C470 0.942 . S
H455 C472 0.940 . S
H456 C473 0.939 . S
H457 C475 0.941 . S
H458 C479 0.939 . S
O459 P448 1.490 . S
H460 C476 0.939 . S
H461 C478 0.940 . S
C462 P448 1.812 . S
C462 C463 1.389 . S
C462 C467 1.391 . S
C463 H449 0.941 . S
C463 C462 1.389 . S
C463 C464 1.397 . S
C464 H450 0.939 . S
C464 C463 1.397 . S
C464 C465 1.378 . S
C465 C464 1.378 . S
C465 C466 1.378 . S
C466 H451 0.940 . S
C466 C465 1.378 . S
C466 C467 1.396 . S
C467 H452 0.940 . S
C467 C462 1.391 . S
C467 C466 1.396 . S
C468 P448 1.803 . S
C468 C469 1.378 . S
C468 C473 1.400 . S
C469 H453 0.939 . S
C469 C468 1.378 . S
C469 C470 1.361 . S
C470 H454 0.942 . S
C470 C469 1.361 . S
C470 C471 1.369 . S
C471 C470 1.369 . S
C471 C472 1.404 . S
C472 H455 0.940 . S
C472 C471 1.404 . S
C472 C473 1.389 . S
C473 H456 0.939 . S
C473 C468 1.400 . S
C473 C472 1.389 . S
C474 P448 1.819 . S
C474 C475 1.391 . S
C474 C479 1.391 . S
C475 H457 0.941 . S
C475 C474 1.391 . S
C475 C476 1.396 . S
C476 H460 0.939 . S
C476 C475 1.396 . S
C476 C477 1.397 . S
C477 C476 1.397 . S
C477 C478 1.385 . S
C478 H461 0.940 . S
C478 C477 1.385 . S
C478 C479 1.388 . S
C479 H458 0.939 . S
C479 C474 1.391 . S
C479 C478 1.388 . S
P480 O491 1.490 . S
P480 C494 1.812 . S
P480 C500 1.803 . S
P480 C506 1.819 . S
H481 C495 0.941 . S
H482 C496 0.939 . S
H483 C498 0.940 . S
H484 C499 0.940 . S
H485 C501 0.939 . S
H486 C502 0.942 . S
H487 C504 0.940 . S
H488 C505 0.939 . S
H489 C507 0.941 . S
H490 C511 0.939 . S
O491 P480 1.490 . S
H492 C508 0.939 . S
H493 C510 0.940 . S
C494 P480 1.812 . S
C494 C495 1.389 . S
C494 C499 1.391 . S
C495 H481 0.941 . S
C495 C494 1.389 . S
C495 C496 1.397 . S
C496 H482 0.939 . S
C496 C495 1.397 . S
C496 C497 1.378 . S
C497 C496 1.378 . S
C497 C498 1.378 . S
C498 H483 0.940 . S
C498 C497 1.378 . S
C498 C499 1.396 . S
C499 H484 0.940 . S
C499 C494 1.391 . S
C499 C498 1.396 . S
C500 P480 1.803 . S
C500 C501 1.378 . S
C500 C505 1.400 . S
C501 H485 0.939 . S
C501 C500 1.378 . S
C501 C502 1.361 . S
C502 H486 0.942 . S
C502 C501 1.361 . S
C502 C503 1.369 . S
C503 C502 1.369 . S
C503 C504 1.404 . S
C504 H487 0.940 . S
C504 C503 1.404 . S
C504 C505 1.389 . S
C505 H488 0.939 . S
C505 C500 1.400 . S
C505 C504 1.389 . S
C506 P480 1.819 . S
C506 C507 1.391 . S
C506 C511 1.391 . S
C507 H489 0.941 . S
C507 C506 1.391 . S
C507 C508 1.396 . S
C508 H492 0.939 . S
C508 C507 1.396 . S
C508 C509 1.397 . S
C509 C508 1.397 . S
C509 C510 1.385 . S
C510 H493 0.940 . S
C510 C509 1.385 . S
C510 C511 1.388 . S
C511 H490 0.939 . S
C511 C506 1.391 . S
C511 C510 1.388 . S
P512 O523 1.490 . S
P512 C526 1.812 . S
P512 C532 1.803 . S
P512 C538 1.819 . S
H513 C527 0.941 . S
H514 C528 0.939 . S
H515 C530 0.940 . S
H516 C531 0.940 . S
H517 C533 0.939 . S
H518 C534 0.942 . S
H519 C536 0.940 . S
H520 C537 0.939 . S
H521 C539 0.941 . S
H522 C543 0.939 . S
O523 P512 1.490 . S
H524 C540 0.939 . S
H525 C542 0.940 . S
C526 P512 1.812 . S
C526 C527 1.389 . S
C526 C531 1.391 . S
C527 H513 0.941 . S
C527 C526 1.389 . S
C527 C528 1.397 . S
C528 H514 0.939 . S
C528 C527 1.397 . S
C528 C529 1.378 . S
C529 C528 1.378 . S
C529 C530 1.378 . S
C530 H515 0.940 . S
C530 C529 1.378 . S
C530 C531 1.396 . S
C531 H516 0.940 . S
C531 C526 1.391 . S
C531 C530 1.396 . S
C532 P512 1.803 . S
C532 C533 1.378 . S
C532 C537 1.400 . S
C533 H517 0.939 . S
C533 C532 1.378 . S
C533 C534 1.361 . S
C534 H518 0.942 . S
C534 C533 1.361 . S
C534 C535 1.369 . S
C535 C534 1.369 . S
C535 C536 1.404 . S
C536 H519 0.940 . S
C536 C535 1.404 . S
C536 C537 1.389 . S
C537 H520 0.939 . S
C537 C532 1.400 . S
C537 C536 1.389 . S
C538 P512 1.819 . S
C538 C539 1.391 . S
C538 C543 1.391 . S
C539 H521 0.941 . S
C539 C538 1.391 . S
C539 C540 1.396 . S
C540 H524 0.939 . S
C540 C539 1.396 . S
C540 C541 1.397 . S
C541 C540 1.397 . S
C541 C542 1.385 . S
C542 H525 0.940 . S
C542 C541 1.385 . S
C542 C543 1.388 . S
C543 H522 0.939 . S
C543 C538 1.391 . S
C543 C542 1.388 . S
P544 O555 1.490 . S
P544 C558 1.812 . S
P544 C564 1.803 . S
P544 C570 1.819 . S
H545 C559 0.941 . S
H546 C560 0.939 . S
H547 C562 0.940 . S
H548 C563 0.940 . S
H549 C565 0.939 . S
H550 C566 0.942 . S
H551 C568 0.940 . S
H552 C569 0.939 . S
H553 C571 0.941 . S
H554 C575 0.939 . S
O555 P544 1.490 . S
H556 C572 0.939 . S
H557 C574 0.940 . S
C558 P544 1.812 . S
C558 C559 1.389 . S
C558 C563 1.391 . S
C559 H545 0.941 . S
C559 C558 1.389 . S
C559 C560 1.397 . S
C560 H546 0.939 . S
C560 C559 1.397 . S
C560 C561 1.378 . S
C561 C560 1.378 . S
C561 C562 1.378 . S
C562 H547 0.940 . S
C562 C561 1.378 . S
C562 C563 1.396 . S
C563 H548 0.940 . S
C563 C558 1.391 . S
C563 C562 1.396 . S
C564 P544 1.803 . S
C564 C565 1.378 . S
C564 C569 1.400 . S
C565 H549 0.939 . S
C565 C564 1.378 . S
C565 C566 1.361 . S
C566 H550 0.942 . S
C566 C565 1.361 . S
C566 C567 1.369 . S
C567 C566 1.369 . S
C567 C568 1.404 . S
C568 H551 0.940 . S
C568 C567 1.404 . S
C568 C569 1.389 . S
C569 H552 0.939 . S
C569 C564 1.400 . S
C569 C568 1.389 . S
C570 P544 1.819 . S
C570 C571 1.391 . S
C570 C575 1.391 . S
C571 H553 0.941 . S
C571 C570 1.391 . S
C571 C572 1.396 . S
C572 H556 0.939 . S
C572 C571 1.396 . S
C572 C573 1.397 . S
C573 C572 1.397 . S
C573 C574 1.385 . S
C574 H557 0.940 . S
C574 C573 1.385 . S
C574 C575 1.388 . S
C575 H554 0.939 . S
C575 C570 1.391 . S
C575 C574 1.388 . S
Eu576 N607 2.657 . S
Eu576 N614 2.609 . S
Eu576 O620 2.558 . S
Eu576 O621 2.612 1_565 S
Eu576 O623 2.339 1_565 S
Eu576 O624 2.563 1_565 S
Eu576 O625 2.419 . S
Eu576 O627 2.380 1_556 S
Eu576 O628 2.432 . S
Eu576 C640 2.848 . S
C577 C580 1.429 . S
C577 C581 1.411 . S
C577 N584 1.377 . S
C578 C580 1.420 . S
C578 C582 1.423 . S
C578 C590 1.392 . S
C579 C581 1.420 . S
C579 C582 1.351 . S
C579 H602 0.931 . S
C580 C577 1.429 . S
C580 C578 1.420 . S
C580 N588 1.362 . S
C581 C577 1.411 . S
C581 C579 1.420 . S
C581 C586 1.395 . S
C582 C578 1.423 . S
C582 C579 1.351 . S
C582 H594 0.930 . S
C583 C585 1.400 . S
C583 C586 1.386 . S
C583 H595 0.930 . S
N584 C577 1.377 . S
N584 C585 1.321 . S
N584 Eu587 2.609 . S
C585 C583 1.400 . S
C585 N584 1.321 . S
C585 H592 0.930 . S
C586 C581 1.395 . S
C586 C583 1.386 . S
C586 H605 0.930 . S
Eu587 N584 2.609 . S
Eu587 N588 2.657 . S
Eu587 O621 2.380 1_554 S
Eu587 O622 2.432 . S
Eu587 O626 2.558 . S
Eu587 O627 2.612 1_545 S
Eu587 O629 2.339 1_545 S
Eu587 O630 2.563 1_545 S
Eu587 O631 2.419 . S
Eu587 C651 2.848 . S
N588 C580 1.362 . S
N588 Eu587 2.657 . S
N588 C589 1.334 . S
C589 N588 1.334 . S
C589 C591 1.413 . S
C589 H596 0.929 . S
C590 C578 1.392 . S
C590 C591 1.367 . S
C590 H598 0.930 . S
C591 C589 1.413 . S
C591 C590 1.367 . S
C591 H593 0.930 . S
H592 C585 0.930 . S
H593 C591 0.930 . S
H594 C582 0.930 . S
H595 C583 0.930 . S
H596 C589 0.929 . S
H597 C611 0.930 . S
H598 C590 0.930 . S
H599 C617 0.930 . S
H600 C608 0.929 . S
H601 C615 0.930 . S
H602 C579 0.931 . S
H603 C609 0.930 . S
H604 C642 0.930 . S
H605 C586 0.930 . S
H606 C641 0.931 . S
N607 Eu576 2.657 . S
N607 C608 1.334 . S
N607 C612 1.362 . S
C608 H600 0.929 . S
C608 N607 1.334 . S
C608 C611 1.413 . S
C609 H603 0.930 . S
C609 C610 1.392 . S
C609 C611 1.367 . S
C610 C609 1.392 . S
C610 C612 1.420 . S
C610 C642 1.423 . S
C611 H597 0.930 . S
C611 C608 1.413 . S
C611 C609 1.367 . S
C612 N607 1.362 . S
C612 C610 1.420 . S
C612 C616 1.429 . S
H613 C618 0.930 . S
N614 Eu576 2.609 . S
N614 C616 1.377 . S
N614 C617 1.321 . S
C615 H601 0.930 . S
C615 C617 1.400 . S
C615 C618 1.386 . S
C616 C612 1.429 . S
C616 N614 1.377 . S
C616 C619 1.411 . S
C617 H599 0.930 . S
C617 N614 1.321 . S
C617 C615 1.400 . S
C618 H613 0.930 . S
C618 C615 1.386 . S
C618 C619 1.395 . S
C619 C616 1.411 . S
C619 C618 1.395 . S
C619 C641 1.420 . S
O620 Eu576 2.558 . S
O620 C640 1.257 . S
O621 Eu576 2.612 1_545 S
O621 Eu587 2.380 1_556 S
O621 C632 1.276 . S
O622 Eu587 2.432 . S
O622 C639 1.264 1_554 S
O623 Eu576 2.339 1_545 S
O623 C639 1.254 . S
O624 Eu576 2.563 1_545 S
O624 C632 1.235 . S
O625 Eu576 2.419 . S
O625 C640 1.249 . S
O626 Eu587 2.558 . S
O626 C651 1.257 . S
O627 Eu576 2.380 1_554 S
O627 Eu587 2.612 1_565 S
O627 C643 1.276 . S
O628 Eu576 2.432 . S
O628 C650 1.264 1_556 S
O629 Eu587 2.339 1_565 S
O629 C650 1.254 . S
O630 Eu587 2.563 1_565 S
O630 C643 1.235 . S
O631 Eu587 2.419 . S
O631 C651 1.249 . S
C632 O621 1.276 . S
C632 O624 1.235 . S
C633 C635 1.393 1_565 S
C633 C637 1.395 . S
C633 C640 1.492 . S
C634 C635 1.392 . S
C634 C636 1.386 1_545 S
C635 C633 1.393 1_545 S
C635 C634 1.392 . S
C635 H652 0.930 . S
C636 C634 1.386 1_565 S
C636 C638 1.395 . S
C636 H653 0.930 . S
C637 C633 1.395 . S
C637 C638 1.379 . S
C637 H654 0.930 . S
C638 C636 1.395 . S
C638 C637 1.379 . S
C638 H655 0.930 . S
C639 O622 1.264 1_556 S
C639 O623 1.254 . S
C640 Eu576 2.848 . S
C640 O620 1.257 . S
C640 O625 1.249 . S
C640 C633 1.492 . S
C641 H606 0.931 . S
C641 C619 1.420 . S
C641 C642 1.351 . S
C642 H604 0.930 . S
C642 C610 1.423 . S
C642 C641 1.351 . S
C643 O627 1.276 . S
C643 O630 1.235 . S
C644 C645 1.393 1_545 S
C644 C648 1.395 . S
C644 C651 1.492 . S
C645 C644 1.393 1_565 S
C645 C646 1.392 . S
C645 H656 0.930 . S
C646 C645 1.392 . S
C646 C647 1.386 1_565 S
C647 C646 1.386 1_545 S
C647 C649 1.395 . S
C647 H657 0.930 . S
C648 C644 1.395 . S
C648 C649 1.379 . S
C648 H658 0.930 . S
C649 C647 1.395 . S
C649 C648 1.379 . S
C649 H659 0.930 . S
C650 O628 1.264 1_554 S
C650 O629 1.254 . S
C651 Eu587 2.848 . S
C651 O626 1.257 . S
C651 O631 1.249 . S
C651 C644 1.492 . S
H652 C635 0.930 . S
H653 C636 0.930 . S
H654 C637 0.930 . S
H655 C638 0.930 . S
H656 C645 0.930 . S
H657 C647 0.930 . S
H658 C648 0.930 . S
H659 C649 0.930 . S
Eu660 N691 2.657 . S
Eu660 N698 2.609 . S
Eu660 O704 2.558 . S
Eu660 O705 2.612 1_455 S
Eu660 O707 2.339 1_455 S
Eu660 O708 2.563 1_455 S
Eu660 O709 2.419 . S
Eu660 O711 2.380 1_556 S
Eu660 O712 2.432 . S
Eu660 C724 2.848 . S
C661 C664 1.429 . S
C661 C665 1.411 . S
C661 N668 1.377 . S
C662 C664 1.420 . S
C662 C666 1.423 . S
C662 C674 1.392 . S
C663 C665 1.420 . S
C663 C666 1.351 . S
C663 H686 0.931 . S
C664 C661 1.429 . S
C664 C662 1.420 . S
C664 N672 1.362 . S
C665 C661 1.411 . S
C665 C663 1.420 . S
C665 C670 1.395 . S
C666 C662 1.423 . S
C666 C663 1.351 . S
C666 H678 0.930 . S
C667 C669 1.400 . S
C667 C670 1.386 . S
C667 H679 0.930 . S
N668 C661 1.377 . S
N668 C669 1.321 . S
N668 Eu671 2.609 . S
C669 C667 1.400 . S
C669 N668 1.321 . S
C669 H676 0.930 . S
C670 C665 1.395 . S
C670 C667 1.386 . S
C670 H689 0.930 . S
Eu671 N668 2.609 . S
Eu671 N672 2.657 . S
Eu671 O705 2.380 1_554 S
Eu671 O706 2.432 . S
Eu671 O710 2.558 . S
Eu671 O711 2.612 1_655 S
Eu671 O713 2.339 1_655 S
Eu671 O714 2.563 1_655 S
Eu671 O715 2.419 . S
Eu671 C735 2.848 . S
N672 C664 1.362 . S
N672 Eu671 2.657 . S
N672 C673 1.334 . S
C673 N672 1.334 . S
C673 C675 1.413 . S
C673 H680 0.929 . S
C674 C662 1.392 . S
C674 C675 1.367 . S
C674 H682 0.930 . S
C675 C673 1.413 . S
C675 C674 1.367 . S
C675 H677 0.930 . S
H676 C669 0.930 . S
H677 C675 0.930 . S
H678 C666 0.930 . S
H679 C667 0.930 . S
H680 C673 0.929 . S
H681 C695 0.930 . S
H682 C674 0.930 . S
H683 C701 0.930 . S
H684 C692 0.929 . S
H685 C699 0.930 . S
H686 C663 0.931 . S
H687 C693 0.930 . S
H688 C726 0.930 . S
H689 C670 0.930 . S
H690 C725 0.931 . S
N691 Eu660 2.657 . S
N691 C692 1.334 . S
N691 C696 1.362 . S
C692 H684 0.929 . S
C692 N691 1.334 . S
C692 C695 1.413 . S
C693 H687 0.930 . S
C693 C694 1.392 . S
C693 C695 1.367 . S
C694 C693 1.392 . S
C694 C696 1.420 . S
C694 C726 1.423 . S
C695 H681 0.930 . S
C695 C692 1.413 . S
C695 C693 1.367 . S
C696 N691 1.362 . S
C696 C694 1.420 . S
C696 C700 1.429 . S
H697 C702 0.930 . S
N698 Eu660 2.609 . S
N698 C700 1.377 . S
N698 C701 1.321 . S
C699 H685 0.930 . S
C699 C701 1.400 . S
C699 C702 1.386 . S
C700 C696 1.429 . S
C700 N698 1.377 . S
C700 C703 1.411 . S
C701 H683 0.930 . S
C701 N698 1.321 . S
C701 C699 1.400 . S
C702 H697 0.930 . S
C702 C699 1.386 . S
C702 C703 1.395 . S
C703 C700 1.411 . S
C703 C702 1.395 . S
C703 C725 1.420 . S
O704 Eu660 2.558 . S
O704 C724 1.257 . S
O705 Eu660 2.612 1_655 S
O705 Eu671 2.380 1_556 S
O705 C716 1.276 . S
O706 Eu671 2.432 . S
O706 C723 1.264 1_554 S
O707 Eu660 2.339 1_655 S
O707 C723 1.254 . S
O708 Eu660 2.563 1_655 S
O708 C716 1.235 . S
O709 Eu660 2.419 . S
O709 C724 1.249 . S
O710 Eu671 2.558 . S
O710 C735 1.257 . S
O711 Eu660 2.380 1_554 S
O711 Eu671 2.612 1_455 S
O711 C727 1.276 . S
O712 Eu660 2.432 . S
O712 C734 1.264 1_556 S
O713 Eu671 2.339 1_455 S
O713 C734 1.254 . S
O714 Eu671 2.563 1_455 S
O714 C727 1.235 . S
O715 Eu671 2.419 . S
O715 C735 1.249 . S
C716 O705 1.276 . S
C716 O708 1.235 . S
C717 C719 1.393 1_455 S
C717 C721 1.395 . S
C717 C724 1.492 . S
C718 C719 1.392 . S
C718 C720 1.386 1_655 S
C719 C717 1.393 1_655 S
C719 C718 1.392 . S
C719 H736 0.930 . S
C720 C718 1.386 1_455 S
C720 C722 1.395 . S
C720 H737 0.930 . S
C721 C717 1.395 . S
C721 C722 1.379 . S
C721 H738 0.930 . S
C722 C720 1.395 . S
C722 C721 1.379 . S
C722 H739 0.930 . S
C723 O706 1.264 1_556 S
C723 O707 1.254 . S
C724 Eu660 2.848 . S
C724 O704 1.257 . S
C724 O709 1.249 . S
C724 C717 1.492 . S
C725 H690 0.931 . S
C725 C703 1.420 . S
C725 C726 1.351 . S
C726 H688 0.930 . S
C726 C694 1.423 . S
C726 C725 1.351 . S
C727 O711 1.276 . S
C727 O714 1.235 . S
C728 C729 1.393 1_655 S
C728 C732 1.395 . S
C728 C735 1.492 . S
C729 C728 1.393 1_455 S
C729 C730 1.392 . S
C729 H740 0.930 . S
C730 C729 1.392 . S
C730 C731 1.386 1_455 S
C731 C730 1.386 1_655 S
C731 C733 1.395 . S
C731 H741 0.930 . S
C732 C728 1.395 . S
C732 C733 1.379 . S
C732 H742 0.930 . S
C733 C731 1.395 . S
C733 C732 1.379 . S
C733 H743 0.930 . S
C734 O712 1.264 1_554 S
C734 O713 1.254 . S
C735 Eu671 2.848 . S
C735 O710 1.257 . S
C735 O715 1.249 . S
C735 C728 1.492 . S
H736 C719 0.930 . S
H737 C720 0.930 . S
H738 C721 0.930 . S
H739 C722 0.930 . S
H740 C729 0.930 . S
H741 C731 0.930 . S
H742 C732 0.930 . S
H743 C733 0.930 . S
Eu744 N775 2.657 . S
Eu744 N782 2.609 . S
Eu744 O788 2.558 . S
Eu744 O789 2.612 . S
Eu744 O791 2.339 . S
Eu744 O792 2.563 . S
Eu744 O793 2.419 . S
Eu744 O795 2.380 1_554 S
Eu744 O796 2.432 . S
Eu744 C808 2.848 . S
C745 C748 1.429 . S
C745 C749 1.411 . S
C745 N752 1.377 . S
C746 C748 1.420 . S
C746 C750 1.423 . S
C746 C758 1.392 . S
C747 C749 1.420 . S
C747 C750 1.351 . S
C747 H770 0.931 . S
C748 C745 1.429 . S
C748 C746 1.420 . S
C748 N756 1.362 . S
C749 C745 1.411 . S
C749 C747 1.420 . S
C749 C754 1.395 . S
C750 C746 1.423 . S
C750 C747 1.351 . S
C750 H762 0.930 . S
C751 C753 1.400 . S
C751 C754 1.386 . S
C751 H763 0.930 . S
N752 C745 1.377 . S
N752 C753 1.321 . S
N752 Eu755 2.609 . S
C753 C751 1.400 . S
C753 N752 1.321 . S
C753 H760 0.930 . S
C754 C749 1.395 . S
C754 C751 1.386 . S
C754 H773 0.930 . S
Eu755 N752 2.609 . S
Eu755 N756 2.657 . S
Eu755 O789 2.380 1_556 S
Eu755 O790 2.432 . S
Eu755 O794 2.558 . S
Eu755 O795 2.612 . S
Eu755 O797 2.339 . S
Eu755 O798 2.563 . S
Eu755 O799 2.419 . S
Eu755 C819 2.848 . S
N756 C748 1.362 . S
N756 Eu755 2.657 . S
N756 C757 1.334 . S
C757 N756 1.334 . S
C757 C759 1.413 . S
C757 H764 0.929 . S
C758 C746 1.392 . S
C758 C759 1.367 . S
C758 H766 0.930 . S
C759 C757 1.413 . S
C759 C758 1.367 . S
C759 H761 0.930 . S
H760 C753 0.930 . S
H761 C759 0.930 . S
H762 C750 0.930 . S
H763 C751 0.930 . S
H764 C757 0.929 . S
H765 C779 0.930 . S
H766 C758 0.930 . S
H767 C785 0.930 . S
H768 C776 0.929 . S
H769 C783 0.930 . S
H770 C747 0.931 . S
H771 C777 0.930 . S
H772 C810 0.930 . S
H773 C754 0.930 . S
H774 C809 0.931 . S
N775 Eu744 2.657 . S
N775 C776 1.334 . S
N775 C780 1.362 . S
C776 H768 0.929 . S
C776 N775 1.334 . S
C776 C779 1.413 . S
C777 H771 0.930 . S
C777 C778 1.392 . S
C777 C779 1.367 . S
C778 C777 1.392 . S
C778 C780 1.420 . S
C778 C810 1.423 . S
C779 H765 0.930 . S
C779 C776 1.413 . S
C779 C777 1.367 . S
C780 N775 1.362 . S
C780 C778 1.420 . S
C780 C784 1.429 . S
H781 C786 0.930 . S
N782 Eu744 2.609 . S
N782 C784 1.377 . S
N782 C785 1.321 . S
C783 H769 0.930 . S
C783 C785 1.400 . S
C783 C786 1.386 . S
C784 C780 1.429 . S
C784 N782 1.377 . S
C784 C787 1.411 . S
C785 H767 0.930 . S
C785 N782 1.321 . S
C785 C783 1.400 . S
C786 H781 0.930 . S
C786 C783 1.386 . S
C786 C787 1.395 . S
C787 C784 1.411 . S
C787 C786 1.395 . S
C787 C809 1.420 . S
O788 Eu744 2.558 . S
O788 C808 1.257 . S
O789 Eu744 2.612 . S
O789 Eu755 2.380 1_554 S
O789 C800 1.276 . S
O790 Eu755 2.432 . S
O790 C807 1.264 1_556 S
O791 Eu744 2.339 . S
O791 C807 1.254 . S
O792 Eu744 2.563 . S
O792 C800 1.235 . S
O793 Eu744 2.419 . S
O793 C808 1.249 . S
O794 Eu755 2.558 . S
O794 C819 1.257 . S
O795 Eu744 2.380 1_556 S
O795 Eu755 2.612 . S
O795 C811 1.276 . S
O796 Eu744 2.432 . S
O796 C818 1.264 1_554 S
O797 Eu755 2.339 . S
O797 C818 1.254 . S
O798 Eu755 2.563 . S
O798 C811 1.235 . S
O799 Eu755 2.419 . S
O799 C819 1.249 . S
C800 O789 1.276 . S
C800 O792 1.235 . S
C801 C803 1.393 . S
C801 C805 1.395 . S
C801 C808 1.492 . S
C802 C803 1.392 . S
C802 C804 1.386 . S
C803 C801 1.393 . S
C803 C802 1.392 . S
C803 H820 0.930 . S
C804 C802 1.386 . S
C804 C806 1.395 . S
C804 H821 0.930 . S
C805 C801 1.395 . S
C805 C806 1.379 . S
C805 H822 0.930 . S
C806 C804 1.395 . S
C806 C805 1.379 . S
C806 H823 0.930 . S
C807 O790 1.264 1_554 S
C807 O791 1.254 . S
C808 Eu744 2.848 . S
C808 O788 1.257 . S
C808 O793 1.249 . S
C808 C801 1.492 . S
C809 H774 0.931 . S
C809 C787 1.420 . S
C809 C810 1.351 . S
C810 H772 0.930 . S
C810 C778 1.423 . S
C810 C809 1.351 . S
C811 O795 1.276 . S
C811 O798 1.235 . S
C812 C813 1.393 . S
C812 C816 1.395 . S
C812 C819 1.492 . S
C813 C812 1.393 . S
C813 C814 1.392 . S
C813 H824 0.930 . S
C814 C813 1.392 . S
C814 C815 1.386 . S
C815 C814 1.386 . S
C815 C817 1.395 . S
C815 H825 0.930 . S
C816 C812 1.395 . S
C816 C817 1.379 . S
C816 H826 0.930 . S
C817 C815 1.395 . S
C817 C816 1.379 . S
C817 H827 0.930 . S
C818 O796 1.264 1_556 S
C818 O797 1.254 . S
C819 Eu755 2.848 . S
C819 O794 1.257 . S
C819 O799 1.249 . S
C819 C812 1.492 . S
H820 C803 0.930 . S
H821 C804 0.930 . S
H822 C805 0.930 . S
H823 C806 0.930 . S
H824 C813 0.930 . S
H825 C815 0.930 . S
H826 C816 0.930 . S
H827 C817 0.930 . S
Eu828 N859 2.657 . S
Eu828 N866 2.609 . S
Eu828 O872 2.558 . S
Eu828 O873 2.612 . S
Eu828 O875 2.339 . S
Eu828 O876 2.563 . S
Eu828 O877 2.419 . S
Eu828 O879 2.380 . S
Eu828 O880 2.432 . S
Eu828 C892 2.848 . S
C829 C832 1.429 . S
C829 C833 1.411 . S
C829 N836 1.377 . S
C830 C832 1.420 . S
C830 C834 1.423 . S
C830 C842 1.392 . S
C831 C833 1.420 . S
C831 C834 1.351 . S
C831 H854 0.931 . S
C832 C829 1.429 . S
C832 C830 1.420 . S
C832 N840 1.362 . S
C833 C829 1.411 . S
C833 C831 1.420 . S
C833 C838 1.395 . S
C834 C830 1.423 . S
C834 C831 1.351 . S
C834 H846 0.930 . S
C835 C837 1.400 . S
C835 C838 1.386 . S
C835 H847 0.930 . S
N836 C829 1.377 . S
N836 C837 1.321 . S
N836 Eu839 2.609 . S
C837 C835 1.400 . S
C837 N836 1.321 . S
C837 H844 0.930 . S
C838 C833 1.395 . S
C838 C835 1.386 . S
C838 H857 0.930 . S
Eu839 N836 2.609 . S
Eu839 N840 2.657 . S
Eu839 O873 2.380 . S
Eu839 O874 2.432 . S
Eu839 O878 2.558 . S
Eu839 O879 2.612 . S
Eu839 O881 2.339 . S
Eu839 O882 2.563 . S
Eu839 O883 2.419 . S
Eu839 C903 2.848 . S
N840 C832 1.362 . S
N840 Eu839 2.657 . S
N840 C841 1.334 . S
C841 N840 1.334 . S
C841 C843 1.413 . S
C841 H848 0.929 . S
C842 C830 1.392 . S
C842 C843 1.367 . S
C842 H850 0.930 . S
C843 C841 1.413 . S
C843 C842 1.367 . S
C843 H845 0.930 . S
H844 C837 0.930 . S
H845 C843 0.930 . S
H846 C834 0.930 . S
H847 C835 0.930 . S
H848 C841 0.929 . S
H849 C863 0.930 . S
H850 C842 0.930 . S
H851 C869 0.930 . S
H852 C860 0.929 . S
H853 C867 0.930 . S
H854 C831 0.931 . S
H855 C861 0.930 . S
H856 C894 0.930 . S
H857 C838 0.930 . S
H858 C893 0.931 . S
N859 Eu828 2.657 . S
N859 C860 1.334 . S
N859 C864 1.362 . S
C860 H852 0.929 . S
C860 N859 1.334 . S
C860 C863 1.413 . S
C861 H855 0.930 . S
C861 C862 1.392 . S
C861 C863 1.367 . S
C862 C861 1.392 . S
C862 C864 1.420 . S
C862 C894 1.423 . S
C863 H849 0.930 . S
C863 C860 1.413 . S
C863 C861 1.367 . S
C864 N859 1.362 . S
C864 C862 1.420 . S
C864 C868 1.429 . S
H865 C870 0.930 . S
N866 Eu828 2.609 . S
N866 C868 1.377 . S
N866 C869 1.321 . S
C867 H853 0.930 . S
C867 C869 1.400 . S
C867 C870 1.386 . S
C868 C864 1.429 . S
C868 N866 1.377 . S
C868 C871 1.411 . S
C869 H851 0.930 . S
C869 N866 1.321 . S
C869 C867 1.400 . S
C870 H865 0.930 . S
C870 C867 1.386 . S
C870 C871 1.395 . S
C871 C868 1.411 . S
C871 C870 1.395 . S
C871 C893 1.420 . S
O872 Eu828 2.558 . S
O872 C892 1.257 . S
O873 Eu828 2.612 . S
O873 Eu839 2.380 . S
O873 C884 1.276 . S
O874 Eu839 2.432 . S
O874 C891 1.264 . S
O875 Eu828 2.339 . S
O875 C891 1.254 . S
O876 Eu828 2.563 . S
O876 C884 1.235 . S
O877 Eu828 2.419 . S
O877 C892 1.249 . S
O878 Eu839 2.558 . S
O878 C903 1.257 . S
O879 Eu828 2.380 . S
O879 Eu839 2.612 . S
O879 C895 1.276 . S
O880 Eu828 2.432 . S
O880 C902 1.264 . S
O881 Eu839 2.339 . S
O881 C902 1.254 . S
O882 Eu839 2.563 . S
O882 C895 1.235 . S
O883 Eu839 2.419 . S
O883 C903 1.249 . S
C884 O873 1.276 . S
C884 O876 1.235 . S
C885 C887 1.393 . S
C885 C889 1.395 . S
C885 C892 1.492 . S
C886 C887 1.392 . S
C886 C888 1.386 . S
C887 C885 1.393 . S
C887 C886 1.392 . S
C887 H904 0.930 . S
C888 C886 1.386 . S
C888 C890 1.395 . S
C888 H905 0.930 . S
C889 C885 1.395 . S
C889 C890 1.379 . S
C889 H906 0.930 . S
C890 C888 1.395 . S
C890 C889 1.379 . S
C890 H907 0.930 . S
C891 O874 1.264 . S
C891 O875 1.254 . S
C892 Eu828 2.848 . S
C892 O872 1.257 . S
C892 O877 1.249 . S
C892 C885 1.492 . S
C893 H858 0.931 . S
C893 C871 1.420 . S
C893 C894 1.351 . S
C894 H856 0.930 . S
C894 C862 1.423 . S
C894 C893 1.351 . S
C895 O879 1.276 . S
C895 O882 1.235 . S
C896 C897 1.393 . S
C896 C900 1.395 . S
C896 C903 1.492 . S
C897 C896 1.393 . S
C897 C898 1.392 . S
C897 H908 0.930 . S
C898 C897 1.392 . S
C898 C899 1.386 . S
C899 C898 1.386 . S
C899 C901 1.395 . S
C899 H909 0.930 . S
C900 C896 1.395 . S
C900 C901 1.379 . S
C900 H910 0.930 . S
C901 C899 1.395 . S
C901 C900 1.379 . S
C901 H911 0.930 . S
C902 O880 1.264 . S
C902 O881 1.254 . S
C903 Eu839 2.848 . S
C903 O878 1.257 . S
C903 O883 1.249 . S
C903 C896 1.492 . S
H904 C887 0.930 . S
H905 C888 0.930 . S
H906 C889 0.930 . S
H907 C890 0.930 . S
H908 C897 0.930 . S
H909 C899 0.930 . S
H910 C900 0.930 . S
H911 C901 0.930 . S
Eu912 N943 2.657 . S
Eu912 N950 2.609 . S
Eu912 O956 2.558 . S
Eu912 O957 2.612 . S
Eu912 O959 2.339 . S
Eu912 O960 2.563 . S
Eu912 O961 2.419 . S
Eu912 O963 2.380 . S
Eu912 O964 2.432 . S
Eu912 C976 2.848 . S
C913 C916 1.429 . S
C913 C917 1.411 . S
C913 N920 1.377 . S
C914 C916 1.420 . S
C914 C918 1.423 . S
C914 C926 1.392 . S
C915 C917 1.420 . S
C915 C918 1.351 . S
C915 H938 0.931 . S
C916 C913 1.429 . S
C916 C914 1.420 . S
C916 N924 1.362 . S
C917 C913 1.411 . S
C917 C915 1.420 . S
C917 C922 1.395 . S
C918 C914 1.423 . S
C918 C915 1.351 . S
C918 H930 0.930 . S
C919 C921 1.400 . S
C919 C922 1.386 . S
C919 H931 0.930 . S
N920 C913 1.377 . S
N920 C921 1.321 . S
N920 Eu923 2.609 . S
C921 C919 1.400 . S
C921 N920 1.321 . S
C921 H928 0.930 . S
C922 C917 1.395 . S
C922 C919 1.386 . S
C922 H941 0.930 . S
Eu923 N920 2.609 . S
Eu923 N924 2.657 . S
Eu923 O957 2.380 . S
Eu923 O958 2.432 . S
Eu923 O962 2.558 . S
Eu923 O963 2.612 . S
Eu923 O965 2.339 . S
Eu923 O966 2.563 . S
Eu923 O967 2.419 . S
Eu923 C987 2.848 . S
N924 C916 1.362 . S
N924 Eu923 2.657 . S
N924 C925 1.334 . S
C925 N924 1.334 . S
C925 C927 1.413 . S
C925 H932 0.929 . S
C926 C914 1.392 . S
C926 C927 1.367 . S
C926 H934 0.930 . S
C927 C925 1.413 . S
C927 C926 1.367 . S
C927 H929 0.930 . S
H928 C921 0.930 . S
H929 C927 0.930 . S
H930 C918 0.930 . S
H931 C919 0.930 . S
H932 C925 0.929 . S
H933 C947 0.930 . S
H934 C926 0.930 . S
H935 C953 0.930 . S
H936 C944 0.929 . S
H937 C951 0.930 . S
H938 C915 0.931 . S
H939 C945 0.930 . S
H940 C978 0.930 . S
H941 C922 0.930 . S
H942 C977 0.931 . S
N943 Eu912 2.657 . S
N943 C944 1.334 . S
N943 C948 1.362 . S
C944 H936 0.929 . S
C944 N943 1.334 . S
C944 C947 1.413 . S
C945 H939 0.930 . S
C945 C946 1.392 . S
C945 C947 1.367 . S
C946 C945 1.392 . S
C946 C948 1.420 . S
C946 C978 1.423 . S
C947 H933 0.930 . S
C947 C944 1.413 . S
C947 C945 1.367 . S
C948 N943 1.362 . S
C948 C946 1.420 . S
C948 C952 1.429 . S
H949 C954 0.930 . S
N950 Eu912 2.609 . S
N950 C952 1.377 . S
N950 C953 1.321 . S
C951 H937 0.930 . S
C951 C953 1.400 . S
C951 C954 1.386 . S
C952 C948 1.429 . S
C952 N950 1.377 . S
C952 C955 1.411 . S
C953 H935 0.930 . S
C953 N950 1.321 . S
C953 C951 1.400 . S
C954 H949 0.930 . S
C954 C951 1.386 . S
C954 C955 1.395 . S
C955 C952 1.411 . S
C955 C954 1.395 . S
C955 C977 1.420 . S
O956 Eu912 2.558 . S
O956 C976 1.257 . S
O957 Eu912 2.612 . S
O957 Eu923 2.380 . S
O957 C968 1.276 . S
O958 Eu923 2.432 . S
O958 C975 1.264 . S
O959 Eu912 2.339 . S
O959 C975 1.254 . S
O960 Eu912 2.563 . S
O960 C968 1.235 . S
O961 Eu912 2.419 . S
O961 C976 1.249 . S
O962 Eu923 2.558 . S
O962 C987 1.257 . S
O963 Eu912 2.380 . S
O963 Eu923 2.612 . S
O963 C979 1.276 . S
O964 Eu912 2.432 . S
O964 C986 1.264 . S
O965 Eu923 2.339 . S
O965 C986 1.254 . S
O966 Eu923 2.563 . S
O966 C979 1.235 . S
O967 Eu923 2.419 . S
O967 C987 1.249 . S
C968 O957 1.276 . S
C968 O960 1.235 . S
C969 C971 1.393 . S
C969 C973 1.395 . S
C969 C976 1.492 . S
C970 C971 1.392 . S
C970 C972 1.386 . S
C971 C969 1.393 . S
C971 C970 1.392 . S
C971 H988 0.930 . S
C972 C970 1.386 . S
C972 C974 1.395 . S
C972 H989 0.930 . S
C973 C969 1.395 . S
C973 C974 1.379 . S
C973 H990 0.930 . S
C974 C972 1.395 . S
C974 C973 1.379 . S
C974 H991 0.930 . S
C975 O958 1.264 . S
C975 O959 1.254 . S
C976 Eu912 2.848 . S
C976 O956 1.257 . S
C976 O961 1.249 . S
C976 C969 1.492 . S
C977 H942 0.931 . S
C977 C955 1.420 . S
C977 C978 1.351 . S
C978 H940 0.930 . S
C978 C946 1.423 . S
C978 C977 1.351 . S
C979 O963 1.276 . S
C979 O966 1.235 . S
C980 C981 1.393 . S
C980 C984 1.395 . S
C980 C987 1.492 . S
C981 C980 1.393 . S
C981 C982 1.392 . S
C981 H992 0.930 . S
C982 C981 1.392 . S
C982 C983 1.386 . S
C983 C982 1.386 . S
C983 C985 1.395 . S
C983 H993 0.930 . S
C984 C980 1.395 . S
C984 C985 1.379 . S
C984 H994 0.930 . S
C985 C983 1.395 . S
C985 C984 1.379 . S
C985 H995 0.930 . S
C986 O964 1.264 . S
C986 O965 1.254 . S
C987 Eu923 2.848 . S
C987 O962 1.257 . S
C987 O967 1.249 . S
C987 C980 1.492 . S
H988 C971 0.930 . S
H989 C972 0.930 . S
H990 C973 0.930 . S
H991 C974 0.930 . S
H992 C981 0.930 . S
H993 C983 0.930 . S
H994 C984 0.930 . S
H995 C985 0.930 . S
Eu996 N1027 2.657 . S
Eu996 N1034 2.609 . S
Eu996 O1040 2.558 . S
Eu996 O1041 2.612 . S
Eu996 O1043 2.339 . S
Eu996 O1044 2.563 . S
Eu996 O1045 2.419 . S
Eu996 O1047 2.380 . S
Eu996 O1048 2.432 . S
Eu996 C1060 2.848 . S
C997 C1000 1.429 . S
C997 C1001 1.411 . S
C997 N1004 1.377 . S
C998 C1000 1.420 . S
C998 C1002 1.423 . S
C998 C1010 1.392 . S
C999 C1001 1.420 . S
C999 C1002 1.351 . S
C999 H1022 0.931 . S
C1000 C997 1.429 . S
C1000 C998 1.420 . S
C1000 N1008 1.362 . S
C1001 C997 1.411 . S
C1001 C999 1.420 . S
C1001 C1006 1.395 . S
C1002 C998 1.423 . S
C1002 C999 1.351 . S
C1002 H1014 0.930 . S
C1003 C1005 1.400 . S
C1003 C1006 1.386 . S
C1003 H1015 0.930 . S
N1004 C997 1.377 . S
N1004 C1005 1.321 . S
N1004 Eu1007 2.609 . S
C1005 C1003 1.400 . S
C1005 N1004 1.321 . S
C1005 H1012 0.930 . S
C1006 C1001 1.395 . S
C1006 C1003 1.386 . S
C1006 H1025 0.930 . S
Eu1007 N1004 2.609 . S
Eu1007 N1008 2.657 . S
Eu1007 O1041 2.380 . S
Eu1007 O1042 2.432 . S
Eu1007 O1046 2.558 . S
Eu1007 O1047 2.612 . S
Eu1007 O1049 2.339 . S
Eu1007 O1050 2.563 . S
Eu1007 O1051 2.419 . S
Eu1007 C1071 2.848 . S
N1008 C1000 1.362 . S
N1008 Eu1007 2.657 . S
N1008 C1009 1.334 . S
C1009 N1008 1.334 . S
C1009 C1011 1.413 . S
C1009 H1016 0.929 . S
C1010 C998 1.392 . S
C1010 C1011 1.367 . S
C1010 H1018 0.930 . S
C1011 C1009 1.413 . S
C1011 C1010 1.367 . S
C1011 H1013 0.930 . S
H1012 C1005 0.930 . S
H1013 C1011 0.930 . S
H1014 C1002 0.930 . S
H1015 C1003 0.930 . S
H1016 C1009 0.929 . S
H1017 C1031 0.930 . S
H1018 C1010 0.930 . S
H1019 C1037 0.930 . S
H1020 C1028 0.929 . S
H1021 C1035 0.930 . S
H1022 C999 0.931 . S
H1023 C1029 0.930 . S
H1024 C1062 0.930 . S
H1025 C1006 0.930 . S
H1026 C1061 0.931 . S
N1027 Eu996 2.657 . S
N1027 C1028 1.334 . S
N1027 C1032 1.362 . S
C1028 H1020 0.929 . S
C1028 N1027 1.334 . S
C1028 C1031 1.413 . S
C1029 H1023 0.930 . S
C1029 C1030 1.392 . S
C1029 C1031 1.367 . S
C1030 C1029 1.392 . S
C1030 C1032 1.420 . S
C1030 C1062 1.423 . S
C1031 H1017 0.930 . S
C1031 C1028 1.413 . S
C1031 C1029 1.367 . S
C1032 N1027 1.362 . S
C1032 C1030 1.420 . S
C1032 C1036 1.429 . S
H1033 C1038 0.930 . S
N1034 Eu996 2.609 . S
N1034 C1036 1.377 . S
N1034 C1037 1.321 . S
C1035 H1021 0.930 . S
C1035 C1037 1.400 . S
C1035 C1038 1.386 . S
C1036 C1032 1.429 . S
C1036 N1034 1.377 . S
C1036 C1039 1.411 . S
C1037 H1019 0.930 . S
C1037 N1034 1.321 . S
C1037 C1035 1.400 . S
C1038 H1033 0.930 . S
C1038 C1035 1.386 . S
C1038 C1039 1.395 . S
C1039 C1036 1.411 . S
C1039 C1038 1.395 . S
C1039 C1061 1.420 . S
O1040 Eu996 2.558 . S
O1040 C1060 1.257 . S
O1041 Eu996 2.612 . S
O1041 Eu1007 2.380 . S
O1041 C1052 1.276 . S
O1042 Eu1007 2.432 . S
O1042 C1059 1.264 . S
O1043 Eu996 2.339 . S
O1043 C1059 1.254 . S
O1044 Eu996 2.563 . S
O1044 C1052 1.235 . S
O1045 Eu996 2.419 . S
O1045 C1060 1.249 . S
O1046 Eu1007 2.558 . S
O1046 C1071 1.257 . S
O1047 Eu996 2.380 . S
O1047 Eu1007 2.612 . S
O1047 C1063 1.276 . S
O1048 Eu996 2.432 . S
O1048 C1070 1.264 . S
O1049 Eu1007 2.339 . S
O1049 C1070 1.254 . S
O1050 Eu1007 2.563 . S
O1050 C1063 1.235 . S
O1051 Eu1007 2.419 . S
O1051 C1071 1.249 . S
C1052 O1041 1.276 . S
C1052 O1044 1.235 . S
C1053 C1055 1.393 . S
C1053 C1057 1.395 . S
C1053 C1060 1.492 . S
C1054 C1055 1.392 . S
C1054 C1056 1.386 . S
C1055 C1053 1.393 . S
C1055 C1054 1.392 . S
C1055 H1072 0.930 . S
C1056 C1054 1.386 . S
C1056 C1058 1.395 . S
C1056 H1073 0.930 . S
C1057 C1053 1.395 . S
C1057 C1058 1.379 . S
C1057 H1074 0.930 . S
C1058 C1056 1.395 . S
C1058 C1057 1.379 . S
C1058 H1075 0.930 . S
C1059 O1042 1.264 . S
C1059 O1043 1.254 . S
C1060 Eu996 2.848 . S
C1060 O1040 1.257 . S
C1060 O1045 1.249 . S
C1060 C1053 1.492 . S
C1061 H1026 0.931 . S
C1061 C1039 1.420 . S
C1061 C1062 1.351 . S
C1062 H1024 0.930 . S
C1062 C1030 1.423 . S
C1062 C1061 1.351 . S
C1063 O1047 1.276 . S
C1063 O1050 1.235 . S
C1064 C1065 1.393 . S
C1064 C1068 1.395 . S
C1064 C1071 1.492 . S
C1065 C1064 1.393 . S
C1065 C1066 1.392 . S
C1065 H1076 0.930 . S
C1066 C1065 1.392 . S
C1066 C1067 1.386 . S
C1067 C1066 1.386 . S
C1067 C1069 1.395 . S
C1067 H1077 0.930 . S
C1068 C1064 1.395 . S
C1068 C1069 1.379 . S
C1068 H1078 0.930 . S
C1069 C1067 1.395 . S
C1069 C1068 1.379 . S
C1069 H1079 0.930 . S
C1070 O1048 1.264 . S
C1070 O1049 1.254 . S
C1071 Eu1007 2.848 . S
C1071 O1046 1.257 . S
C1071 O1051 1.249 . S
C1071 C1064 1.492 . S
H1072 C1055 0.930 . S
H1073 C1056 0.930 . S
H1074 C1057 0.930 . S
H1075 C1058 0.930 . S
H1076 C1065 0.930 . S
H1077 C1067 0.930 . S
H1078 C1068 0.930 . S
H1079 C1069 0.930 . S
Eu1080 N1111 2.657 . S
Eu1080 N1118 2.609 . S
Eu1080 O1124 2.558 . S
Eu1080 O1125 2.612 . S
Eu1080 O1127 2.339 . S
Eu1080 O1128 2.563 . S
Eu1080 O1129 2.419 . S
Eu1080 O1131 2.380 . S
Eu1080 O1132 2.432 . S
Eu1080 C1144 2.848 . S
C1081 C1084 1.429 . S
C1081 C1085 1.411 . S
C1081 N1088 1.377 . S
C1082 C1084 1.420 . S
C1082 C1086 1.423 . S
C1082 C1094 1.392 . S
C1083 C1085 1.420 . S
C1083 C1086 1.351 . S
C1083 H1106 0.931 . S
C1084 C1081 1.429 . S
C1084 C1082 1.420 . S
C1084 N1092 1.362 . S
C1085 C1081 1.411 . S
C1085 C1083 1.420 . S
C1085 C1090 1.395 . S
C1086 C1082 1.423 . S
C1086 C1083 1.351 . S
C1086 H1098 0.930 . S
C1087 C1089 1.400 . S
C1087 C1090 1.386 . S
C1087 H1099 0.930 . S
N1088 C1081 1.377 . S
N1088 C1089 1.321 . S
N1088 Eu1091 2.609 . S
C1089 C1087 1.400 . S
C1089 N1088 1.321 . S
C1089 H1096 0.930 . S
C1090 C1085 1.395 . S
C1090 C1087 1.386 . S
C1090 H1109 0.930 . S
Eu1091 N1088 2.609 . S
Eu1091 N1092 2.657 . S
Eu1091 O1125 2.380 . S
Eu1091 O1126 2.432 . S
Eu1091 O1130 2.558 . S
Eu1091 O1131 2.612 . S
Eu1091 O1133 2.339 . S
Eu1091 O1134 2.563 . S
Eu1091 O1135 2.419 . S
Eu1091 C1155 2.848 . S
N1092 C1084 1.362 . S
N1092 Eu1091 2.657 . S
N1092 C1093 1.334 . S
C1093 N1092 1.334 . S
C1093 C1095 1.413 . S
C1093 H1100 0.929 . S
C1094 C1082 1.392 . S
C1094 C1095 1.367 . S
C1094 H1102 0.930 . S
C1095 C1093 1.413 . S
C1095 C1094 1.367 . S
C1095 H1097 0.930 . S
H1096 C1089 0.930 . S
H1097 C1095 0.930 . S
H1098 C1086 0.930 . S
H1099 C1087 0.930 . S
H1100 C1093 0.929 . S
H1101 C1115 0.930 . S
H1102 C1094 0.930 . S
H1103 C1121 0.930 . S
H1104 C1112 0.929 . S
H1105 C1119 0.930 . S
H1106 C1083 0.931 . S
H1107 C1113 0.930 . S
H1108 C1146 0.930 . S
H1109 C1090 0.930 . S
H1110 C1145 0.931 . S
N1111 Eu1080 2.657 . S
N1111 C1112 1.334 . S
N1111 C1116 1.362 . S
C1112 H1104 0.929 . S
C1112 N1111 1.334 . S
C1112 C1115 1.413 . S
C1113 H1107 0.930 . S
C1113 C1114 1.392 . S
C1113 C1115 1.367 . S
C1114 C1113 1.392 . S
C1114 C1116 1.420 . S
C1114 C1146 1.423 . S
C1115 H1101 0.930 . S
C1115 C1112 1.413 . S
C1115 C1113 1.367 . S
C1116 N1111 1.362 . S
C1116 C1114 1.420 . S
C1116 C1120 1.429 . S
H1117 C1122 0.930 . S
N1118 Eu1080 2.609 . S
N1118 C1120 1.377 . S
N1118 C1121 1.321 . S
C1119 H1105 0.930 . S
C1119 C1121 1.400 . S
C1119 C1122 1.386 . S
C1120 C1116 1.429 . S
C1120 N1118 1.377 . S
C1120 C1123 1.411 . S
C1121 H1103 0.930 . S
C1121 N1118 1.321 . S
C1121 C1119 1.400 . S
C1122 H1117 0.930 . S
C1122 C1119 1.386 . S
C1122 C1123 1.395 . S
C1123 C1120 1.411 . S
C1123 C1122 1.395 . S
C1123 C1145 1.420 . S
O1124 Eu1080 2.558 . S
O1124 C1144 1.257 . S
O1125 Eu1080 2.612 . S
O1125 Eu1091 2.380 . S
O1125 C1136 1.276 . S
O1126 Eu1091 2.432 . S
O1126 C1143 1.264 . S
O1127 Eu1080 2.339 . S
O1127 C1143 1.254 . S
O1128 Eu1080 2.563 . S
O1128 C1136 1.235 . S
O1129 Eu1080 2.419 . S
O1129 C1144 1.249 . S
O1130 Eu1091 2.558 . S
O1130 C1155 1.257 . S
O1131 Eu1080 2.380 . S
O1131 Eu1091 2.612 . S
O1131 C1147 1.276 . S
O1132 Eu1080 2.432 . S
O1132 C1154 1.264 . S
O1133 Eu1091 2.339 . S
O1133 C1154 1.254 . S
O1134 Eu1091 2.563 . S
O1134 C1147 1.235 . S
O1135 Eu1091 2.419 . S
O1135 C1155 1.249 . S
C1136 O1125 1.276 . S
C1136 O1128 1.235 . S
C1137 C1139 1.393 . S
C1137 C1141 1.395 . S
C1137 C1144 1.492 . S
C1138 C1139 1.392 . S
C1138 C1140 1.386 . S
C1139 C1137 1.393 . S
C1139 C1138 1.392 . S
C1139 H1156 0.930 . S
C1140 C1138 1.386 . S
C1140 C1142 1.395 . S
C1140 H1157 0.930 . S
C1141 C1137 1.395 . S
C1141 C1142 1.379 . S
C1141 H1158 0.930 . S
C1142 C1140 1.395 . S
C1142 C1141 1.379 . S
C1142 H1159 0.930 . S
C1143 O1126 1.264 . S
C1143 O1127 1.254 . S
C1144 Eu1080 2.848 . S
C1144 O1124 1.257 . S
C1144 O1129 1.249 . S
C1144 C1137 1.492 . S
C1145 H1110 0.931 . S
C1145 C1123 1.420 . S
C1145 C1146 1.351 . S
C1146 H1108 0.930 . S
C1146 C1114 1.423 . S
C1146 C1145 1.351 . S
C1147 O1131 1.276 . S
C1147 O1134 1.235 . S
C1148 C1149 1.393 . S
C1148 C1152 1.395 . S
C1148 C1155 1.492 . S
C1149 C1148 1.393 . S
C1149 C1150 1.392 . S
C1149 H1160 0.930 . S
C1150 C1149 1.392 . S
C1150 C1151 1.386 . S
C1151 C1150 1.386 . S
C1151 C1153 1.395 . S
C1151 H1161 0.930 . S
C1152 C1148 1.395 . S
C1152 C1153 1.379 . S
C1152 H1162 0.930 . S
C1153 C1151 1.395 . S
C1153 C1152 1.379 . S
C1153 H1163 0.930 . S
C1154 O1132 1.264 . S
C1154 O1133 1.254 . S
C1155 Eu1091 2.848 . S
C1155 O1130 1.257 . S
C1155 O1135 1.249 . S
C1155 C1148 1.492 . S
H1156 C1139 0.930 . S
H1157 C1140 0.930 . S
H1158 C1141 0.930 . S
H1159 C1142 0.930 . S
H1160 C1149 0.930 . S
H1161 C1151 0.930 . S
H1162 C1152 0.930 . S
H1163 C1153 0.930 . S
Eu1164 N1195 2.657 . S
Eu1164 N1202 2.609 . S
Eu1164 O1208 2.558 . S
Eu1164 O1209 2.612 . S
Eu1164 O1211 2.339 . S
Eu1164 O1212 2.563 . S
Eu1164 O1213 2.419 . S
Eu1164 O1215 2.380 . S
Eu1164 O1216 2.432 . S
Eu1164 C1228 2.848 . S
C1165 C1168 1.429 . S
C1165 C1169 1.411 . S
C1165 N1172 1.377 . S
C1166 C1168 1.420 . S
C1166 C1170 1.423 . S
C1166 C1178 1.392 . S
C1167 C1169 1.420 . S
C1167 C1170 1.351 . S
C1167 H1190 0.931 . S
C1168 C1165 1.429 . S
C1168 C1166 1.420 . S
C1168 N1176 1.362 . S
C1169 C1165 1.411 . S
C1169 C1167 1.420 . S
C1169 C1174 1.395 . S
C1170 C1166 1.423 . S
C1170 C1167 1.351 . S
C1170 H1182 0.930 . S
C1171 C1173 1.400 . S
C1171 C1174 1.386 . S
C1171 H1183 0.930 . S
N1172 C1165 1.377 . S
N1172 C1173 1.321 . S
N1172 Eu1175 2.609 . S
C1173 C1171 1.400 . S
C1173 N1172 1.321 . S
C1173 H1180 0.930 . S
C1174 C1169 1.395 . S
C1174 C1171 1.386 . S
C1174 H1193 0.930 . S
Eu1175 N1172 2.609 . S
Eu1175 N1176 2.657 . S
Eu1175 O1209 2.380 . S
Eu1175 O1210 2.432 . S
Eu1175 O1214 2.558 . S
Eu1175 O1215 2.612 . S
Eu1175 O1217 2.339 . S
Eu1175 O1218 2.563 . S
Eu1175 O1219 2.419 . S
Eu1175 C1239 2.848 . S
N1176 C1168 1.362 . S
N1176 Eu1175 2.657 . S
N1176 C1177 1.334 . S
C1177 N1176 1.334 . S
C1177 C1179 1.413 . S
C1177 H1184 0.929 . S
C1178 C1166 1.392 . S
C1178 C1179 1.367 . S
C1178 H1186 0.930 . S
C1179 C1177 1.413 . S
C1179 C1178 1.367 . S
C1179 H1181 0.930 . S
H1180 C1173 0.930 . S
H1181 C1179 0.930 . S
H1182 C1170 0.930 . S
H1183 C1171 0.930 . S
H1184 C1177 0.929 . S
H1185 C1199 0.930 . S
H1186 C1178 0.930 . S
H1187 C1205 0.930 . S
H1188 C1196 0.929 . S
H1189 C1203 0.930 . S
H1190 C1167 0.931 . S
H1191 C1197 0.930 . S
H1192 C1230 0.930 . S
H1193 C1174 0.930 . S
H1194 C1229 0.931 . S
N1195 Eu1164 2.657 . S
N1195 C1196 1.334 . S
N1195 C1200 1.362 . S
C1196 H1188 0.929 . S
C1196 N1195 1.334 . S
C1196 C1199 1.413 . S
C1197 H1191 0.930 . S
C1197 C1198 1.392 . S
C1197 C1199 1.367 . S
C1198 C1197 1.392 . S
C1198 C1200 1.420 . S
C1198 C1230 1.423 . S
C1199 H1185 0.930 . S
C1199 C1196 1.413 . S
C1199 C1197 1.367 . S
C1200 N1195 1.362 . S
C1200 C1198 1.420 . S
C1200 C1204 1.429 . S
H1201 C1206 0.930 . S
N1202 Eu1164 2.609 . S
N1202 C1204 1.377 . S
N1202 C1205 1.321 . S
C1203 H1189 0.930 . S
C1203 C1205 1.400 . S
C1203 C1206 1.386 . S
C1204 C1200 1.429 . S
C1204 N1202 1.377 . S
C1204 C1207 1.411 . S
C1205 H1187 0.930 . S
C1205 N1202 1.321 . S
C1205 C1203 1.400 . S
C1206 H1201 0.930 . S
C1206 C1203 1.386 . S
C1206 C1207 1.395 . S
C1207 C1204 1.411 . S
C1207 C1206 1.395 . S
C1207 C1229 1.420 . S
O1208 Eu1164 2.558 . S
O1208 C1228 1.257 . S
O1209 Eu1164 2.612 . S
O1209 Eu1175 2.380 . S
O1209 C1220 1.276 . S
O1210 Eu1175 2.432 . S
O1210 C1227 1.264 . S
O1211 Eu1164 2.339 . S
O1211 C1227 1.254 . S
O1212 Eu1164 2.563 . S
O1212 C1220 1.235 . S
O1213 Eu1164 2.419 . S
O1213 C1228 1.249 . S
O1214 Eu1175 2.558 . S
O1214 C1239 1.257 . S
O1215 Eu1164 2.380 . S
O1215 Eu1175 2.612 . S
O1215 C1231 1.276 . S
O1216 Eu1164 2.432 . S
O1216 C1238 1.264 . S
O1217 Eu1175 2.339 . S
O1217 C1238 1.254 . S
O1218 Eu1175 2.563 . S
O1218 C1231 1.235 . S
O1219 Eu1175 2.419 . S
O1219 C1239 1.249 . S
C1220 O1209 1.276 . S
C1220 O1212 1.235 . S
C1221 C1223 1.393 . S
C1221 C1225 1.395 . S
C1221 C1228 1.492 . S
C1222 C1223 1.392 . S
C1222 C1224 1.386 . S
C1223 C1221 1.393 . S
C1223 C1222 1.392 . S
C1223 H1240 0.930 . S
C1224 C1222 1.386 . S
C1224 C1226 1.395 . S
C1224 H1241 0.930 . S
C1225 C1221 1.395 . S
C1225 C1226 1.379 . S
C1225 H1242 0.930 . S
C1226 C1224 1.395 . S
C1226 C1225 1.379 . S
C1226 H1243 0.930 . S
C1227 O1210 1.264 . S
C1227 O1211 1.254 . S
C1228 Eu1164 2.848 . S
C1228 O1208 1.257 . S
C1228 O1213 1.249 . S
C1228 C1221 1.492 . S
C1229 H1194 0.931 . S
C1229 C1207 1.420 . S
C1229 C1230 1.351 . S
C1230 H1192 0.930 . S
C1230 C1198 1.423 . S
C1230 C1229 1.351 . S
C1231 O1215 1.276 . S
C1231 O1218 1.235 . S
C1232 C1233 1.393 . S
C1232 C1236 1.395 . S
C1232 C1239 1.492 . S
C1233 C1232 1.393 . S
C1233 C1234 1.392 . S
C1233 H1244 0.930 . S
C1234 C1233 1.392 . S
C1234 C1235 1.386 . S
C1235 C1234 1.386 . S
C1235 C1237 1.395 . S
C1235 H1245 0.930 . S
C1236 C1232 1.395 . S
C1236 C1237 1.379 . S
C1236 H1246 0.930 . S
C1237 C1235 1.395 . S
C1237 C1236 1.379 . S
C1237 H1247 0.930 . S
C1238 O1216 1.264 . S
C1238 O1217 1.254 . S
C1239 Eu1175 2.848 . S
C1239 O1214 1.257 . S
C1239 O1219 1.249 . S
C1239 C1232 1.492 . S
H1240 C1223 0.930 . S
H1241 C1224 0.930 . S
H1242 C1225 0.930 . S
H1243 C1226 0.930 . S
H1244 C1233 0.930 . S
H1245 C1235 0.930 . S
H1246 C1236 0.930 . S
H1247 C1237 0.930 . S
Eu1248 N1279 2.657 . S
Eu1248 N1286 2.609 . S
Eu1248 O1292 2.558 . S
Eu1248 O1293 2.612 . S
Eu1248 O1295 2.339 . S
Eu1248 O1296 2.563 . S
Eu1248 O1297 2.419 . S
Eu1248 O1299 2.380 . S
Eu1248 O1300 2.432 . S
Eu1248 C1312 2.848 . S
C1249 C1252 1.429 . S
C1249 C1253 1.411 . S
C1249 N1256 1.377 . S
C1250 C1252 1.420 . S
C1250 C1254 1.423 . S
C1250 C1262 1.392 . S
C1251 C1253 1.420 . S
C1251 C1254 1.351 . S
C1251 H1274 0.931 . S
C1252 C1249 1.429 . S
C1252 C1250 1.420 . S
C1252 N1260 1.362 . S
C1253 C1249 1.411 . S
C1253 C1251 1.420 . S
C1253 C1258 1.395 . S
C1254 C1250 1.423 . S
C1254 C1251 1.351 . S
C1254 H1266 0.930 . S
C1255 C1257 1.400 . S
C1255 C1258 1.386 . S
C1255 H1267 0.930 . S
N1256 C1249 1.377 . S
N1256 C1257 1.321 . S
N1256 Eu1259 2.609 . S
C1257 C1255 1.400 . S
C1257 N1256 1.321 . S
C1257 H1264 0.930 . S
C1258 C1253 1.395 . S
C1258 C1255 1.386 . S
C1258 H1277 0.930 . S
Eu1259 N1256 2.609 . S
Eu1259 N1260 2.657 . S
Eu1259 O1293 2.380 . S
Eu1259 O1294 2.432 . S
Eu1259 O1298 2.558 . S
Eu1259 O1299 2.612 . S
Eu1259 O1301 2.339 . S
Eu1259 O1302 2.563 . S
Eu1259 O1303 2.419 . S
Eu1259 C1323 2.848 . S
N1260 C1252 1.362 . S
N1260 Eu1259 2.657 . S
N1260 C1261 1.334 . S
C1261 N1260 1.334 . S
C1261 C1263 1.413 . S
C1261 H1268 0.929 . S
C1262 C1250 1.392 . S
C1262 C1263 1.367 . S
C1262 H1270 0.930 . S
C1263 C1261 1.413 . S
C1263 C1262 1.367 . S
C1263 H1265 0.930 . S
H1264 C1257 0.930 . S
H1265 C1263 0.930 . S
H1266 C1254 0.930 . S
H1267 C1255 0.930 . S
H1268 C1261 0.929 . S
H1269 C1283 0.930 . S
H1270 C1262 0.930 . S
H1271 C1289 0.930 . S
H1272 C1280 0.929 . S
H1273 C1287 0.930 . S
H1274 C1251 0.931 . S
H1275 C1281 0.930 . S
H1276 C1314 0.930 . S
H1277 C1258 0.930 . S
H1278 C1313 0.931 . S
N1279 Eu1248 2.657 . S
N1279 C1280 1.334 . S
N1279 C1284 1.362 . S
C1280 H1272 0.929 . S
C1280 N1279 1.334 . S
C1280 C1283 1.413 . S
C1281 H1275 0.930 . S
C1281 C1282 1.392 . S
C1281 C1283 1.367 . S
C1282 C1281 1.392 . S
C1282 C1284 1.420 . S
C1282 C1314 1.423 . S
C1283 H1269 0.930 . S
C1283 C1280 1.413 . S
C1283 C1281 1.367 . S
C1284 N1279 1.362 . S
C1284 C1282 1.420 . S
C1284 C1288 1.429 . S
H1285 C1290 0.930 . S
N1286 Eu1248 2.609 . S
N1286 C1288 1.377 . S
N1286 C1289 1.321 . S
C1287 H1273 0.930 . S
C1287 C1289 1.400 . S
C1287 C1290 1.386 . S
C1288 C1284 1.429 . S
C1288 N1286 1.377 . S
C1288 C1291 1.411 . S
C1289 H1271 0.930 . S
C1289 N1286 1.321 . S
C1289 C1287 1.400 . S
C1290 H1285 0.930 . S
C1290 C1287 1.386 . S
C1290 C1291 1.395 . S
C1291 C1288 1.411 . S
C1291 C1290 1.395 . S
C1291 C1313 1.420 . S
O1292 Eu1248 2.558 . S
O1292 C1312 1.257 . S
O1293 Eu1248 2.612 . S
O1293 Eu1259 2.380 . S
O1293 C1304 1.276 . S
O1294 Eu1259 2.432 . S
O1294 C1311 1.264 . S
O1295 Eu1248 2.339 . S
O1295 C1311 1.254 . S
O1296 Eu1248 2.563 . S
O1296 C1304 1.235 . S
O1297 Eu1248 2.419 . S
O1297 C1312 1.249 . S
O1298 Eu1259 2.558 . S
O1298 C1323 1.257 . S
O1299 Eu1248 2.380 . S
O1299 Eu1259 2.612 . S
O1299 C1315 1.276 . S
O1300 Eu1248 2.432 . S
O1300 C1322 1.264 . S
O1301 Eu1259 2.339 . S
O1301 C1322 1.254 . S
O1302 Eu1259 2.563 . S
O1302 C1315 1.235 . S
O1303 Eu1259 2.419 . S
O1303 C1323 1.249 . S
C1304 O1293 1.276 . S
C1304 O1296 1.235 . S
C1305 C1307 1.393 . S
C1305 C1309 1.395 . S
C1305 C1312 1.492 . S
C1306 C1307 1.392 . S
C1306 C1308 1.386 . S
C1307 C1305 1.393 . S
C1307 C1306 1.392 . S
C1307 H1324 0.930 . S
C1308 C1306 1.386 . S
C1308 C1310 1.395 . S
C1308 H1325 0.930 . S
C1309 C1305 1.395 . S
C1309 C1310 1.379 . S
C1309 H1326 0.930 . S
C1310 C1308 1.395 . S
C1310 C1309 1.379 . S
C1310 H1327 0.930 . S
C1311 O1294 1.264 . S
C1311 O1295 1.254 . S
C1312 Eu1248 2.848 . S
C1312 O1292 1.257 . S
C1312 O1297 1.249 . S
C1312 C1305 1.492 . S
C1313 H1278 0.931 . S
C1313 C1291 1.420 . S
C1313 C1314 1.351 . S
C1314 H1276 0.930 . S
C1314 C1282 1.423 . S
C1314 C1313 1.351 . S
C1315 O1299 1.276 . S
C1315 O1302 1.235 . S
C1316 C1317 1.393 . S
C1316 C1320 1.395 . S
C1316 C1323 1.492 . S
C1317 C1316 1.393 . S
C1317 C1318 1.392 . S
C1317 H1328 0.930 . S
C1318 C1317 1.392 . S
C1318 C1319 1.386 . S
C1319 C1318 1.386 . S
C1319 C1321 1.395 . S
C1319 H1329 0.930 . S
C1320 C1316 1.395 . S
C1320 C1321 1.379 . S
C1320 H1330 0.930 . S
C1321 C1319 1.395 . S
C1321 C1320 1.379 . S
C1321 H1331 0.930 . S
C1322 O1300 1.264 . S
C1322 O1301 1.254 . S
C1323 Eu1259 2.848 . S
C1323 O1298 1.257 . S
C1323 O1303 1.249 . S
C1323 C1316 1.492 . S
H1324 C1307 0.930 . S
H1325 C1308 0.930 . S
H1326 C1309 0.930 . S
H1327 C1310 0.930 . S
H1328 C1317 0.930 . S
H1329 C1319 0.930 . S
H1330 C1320 0.930 . S
H1331 C1321 0.930 . S
H1332 C1344 0.930 . S
H1333 C1346 0.930 . S
H1334 C1347 0.930 . S
H1335 C1351 0.959 . S
H1336 C1351 0.959 . S
H1337 C1351 0.961 . S
H1338 C1352 0.960 . S
H1339 C1352 0.961 . S
H1340 C1352 0.959 . S
H1341 C1355 0.931 . S
H1342 C1356 0.931 1_556 S
H1343 C1358 0.930 . S
C1344 H1332 0.930 . S
C1344 C1345 1.399 . S
C1344 C1349 1.399 . S
C1345 C1344 1.399 . S
C1345 C1346 1.376 . S
C1346 H1333 0.930 . S
C1346 C1345 1.376 . S
C1346 C1347 1.388 . S
C1347 H1334 0.930 . S
C1347 C1346 1.388 . S
C1347 C1348 1.390 . S
C1348 C1347 1.390 . S
C1348 C1349 1.394 . S
C1348 C1354 1.465 . S
C1349 C1344 1.399 . S
C1349 C1348 1.394 . S
C1349 C1350 1.516 . S
C1350 C1349 1.516 . S
C1350 C1351 1.502 . S
C1350 C1352 1.561 . S
C1350 C1353 1.526 . S
C1351 H1335 0.959 . S
C1351 H1336 0.959 . S
C1351 H1337 0.961 . S
C1351 C1350 1.502 . S
C1352 H1338 0.960 . S
C1352 H1339 0.961 . S
C1352 H1340 0.959 . S
C1352 C1350 1.561 . S
C1353 C1350 1.526 . S
C1353 C1354 1.396 . S
C1353 C1358 1.390 . S
C1354 C1348 1.465 . S
C1354 C1353 1.396 . S
C1354 C1355 1.399 . S
C1355 H1341 0.931 . S
C1355 C1354 1.399 . S
C1355 C1356 1.385 . S
C1356 H1342 0.931 1_554 S
C1356 C1355 1.385 . S
C1356 C1357 1.389 . S
C1357 C1356 1.389 . S
C1357 C1358 1.387 . S
C1358 H1343 0.930 . S
C1358 C1353 1.390 . S
C1358 C1357 1.387 . S
H1359 C1371 0.930 . S
H1360 C1373 0.930 . S
H1361 C1374 0.930 . S
H1362 C1378 0.959 . S
H1363 C1378 0.959 1_556 S
H1364 C1378 0.961 . S
H1365 C1379 0.960 . S
H1366 C1379 0.961 . S
H1367 C1379 0.959 . S
H1368 C1382 0.929 . S
H1369 C1383 0.931 . S
H1370 C1385 0.930 . S
C1371 H1359 0.930 . S
C1371 C1372 1.399 . S
C1371 C1376 1.399 . S
C1372 C1371 1.399 . S
C1372 C1373 1.376 . S
C1373 H1360 0.930 . S
C1373 C1372 1.376 . S
C1373 C1374 1.388 . S
C1374 H1361 0.930 . S
C1374 C1373 1.388 . S
C1374 C1375 1.390 . S
C1375 C1374 1.390 . S
C1375 C1376 1.394 . S
C1375 C1381 1.465 . S
C1376 C1371 1.399 . S
C1376 C1375 1.394 . S
C1376 C1377 1.516 . S
C1377 C1376 1.516 . S
C1377 C1378 1.502 . S
C1377 C1379 1.561 . S
C1377 C1380 1.526 . S
C1378 H1362 0.959 . S
C1378 H1363 0.959 1_554 S
C1378 H1364 0.961 . S
C1378 C1377 1.502 . S
C1379 H1365 0.960 . S
C1379 H1366 0.961 . S
C1379 H1367 0.959 . S
C1379 C1377 1.561 . S
C1380 C1377 1.526 . S
C1380 C1381 1.396 . S
C1380 C1385 1.390 . S
C1381 C1375 1.465 . S
C1381 C1380 1.396 . S
C1381 C1382 1.399 . S
C1382 H1368 0.929 . S
C1382 C1381 1.399 . S
C1382 C1383 1.385 . S
C1383 H1369 0.931 . S
C1383 C1382 1.385 . S
C1383 C1384 1.389 . S
C1384 C1383 1.389 . S
C1384 C1385 1.387 . S
C1385 H1370 0.930 . S
C1385 C1380 1.390 . S
C1385 C1384 1.387 . S
H1386 C1398 0.930 . S
H1387 C1400 0.930 . S
H1388 C1401 0.930 . S
H1389 C1405 0.959 . S
H1390 C1405 0.959 . S
H1391 C1405 0.961 . S
H1392 C1406 0.960 . S
H1393 C1406 0.961 . S
H1394 C1406 0.959 . S
H1395 C1409 0.929 . S
H1396 C1410 0.931 1_556 S
H1397 C1412 0.930 . S
C1398 H1386 0.930 . S
C1398 C1399 1.399 . S
C1398 C1403 1.399 . S
C1399 C1398 1.399 . S
C1399 C1400 1.376 . S
C1400 H1387 0.930 . S
C1400 C1399 1.376 . S
C1400 C1401 1.388 . S
C1401 H1388 0.930 . S
C1401 C1400 1.388 . S
C1401 C1402 1.390 . S
C1402 C1401 1.390 . S
C1402 C1403 1.394 . S
C1402 C1408 1.465 . S
C1403 C1398 1.399 . S
C1403 C1402 1.394 . S
C1403 C1404 1.516 . S
C1404 C1403 1.516 . S
C1404 C1405 1.502 . S
C1404 C1406 1.561 . S
C1404 C1407 1.526 . S
C1405 H1389 0.959 . S
C1405 H1390 0.959 . S
C1405 H1391 0.961 . S
C1405 C1404 1.502 . S
C1406 H1392 0.960 . S
C1406 H1393 0.961 . S
C1406 H1394 0.959 . S
C1406 C1404 1.561 . S
C1407 C1404 1.526 . S
C1407 C1408 1.396 . S
C1407 C1412 1.390 . S
C1408 C1402 1.465 . S
C1408 C1407 1.396 . S
C1408 C1409 1.399 . S
C1409 H1395 0.929 . S
C1409 C1408 1.399 . S
C1409 C1410 1.385 . S
C1410 H1396 0.931 1_554 S
C1410 C1409 1.385 . S
C1410 C1411 1.389 . S
C1411 C1410 1.389 . S
C1411 C1412 1.387 . S
C1412 H1397 0.930 . S
C1412 C1407 1.390 . S
C1412 C1411 1.387 . S
H1413 C1425 0.930 . S
H1414 C1427 0.930 . S
H1415 C1428 0.930 . S
H1416 C1432 0.959 . S
H1417 C1432 0.959 1_554 S
H1418 C1432 0.961 . S
H1419 C1433 0.960 . S
H1420 C1433 0.961 . S
H1421 C1433 0.959 1_556 S
H1422 C1436 0.929 . S
H1423 C1437 0.931 . S
H1424 C1439 0.881 1_554 S
C1425 H1413 0.930 . S
C1425 C1426 1.399 . S
C1425 C1430 1.399 . S
C1426 C1425 1.399 . S
C1426 C1427 1.376 . S
C1427 H1414 0.930 . S
C1427 C1426 1.376 . S
C1427 C1428 1.388 . S
C1428 H1415 0.930 . S
C1428 C1427 1.388 . S
C1428 C1429 1.390 . S
C1429 C1428 1.390 . S
C1429 C1430 1.394 . S
C1429 C1435 1.465 . S
C1430 C1425 1.399 . S
C1430 C1429 1.394 . S
C1430 C1431 1.516 . S
C1431 C1430 1.516 . S
C1431 C1432 1.502 . S
C1431 C1433 1.561 1_556 S
C1431 C1434 1.526 . S
C1432 H1416 0.959 . S
C1432 H1417 0.959 1_556 S
C1432 H1418 0.961 . S
C1432 C1431 1.502 . S
C1433 H1419 0.960 . S
C1433 H1420 0.961 . S
C1433 H1421 0.959 1_554 S
C1433 C1431 1.561 1_554 S
C1434 C1431 1.526 . S
C1434 C1435 1.396 . S
C1434 C1439 1.390 . S
C1435 C1429 1.465 . S
C1435 C1434 1.396 . S
C1435 C1436 1.399 . S
C1436 H1422 0.929 . S
C1436 C1435 1.399 . S
C1436 C1437 1.385 . S
C1437 H1423 0.931 . S
C1437 C1436 1.385 . S
C1437 C1438 1.389 . S
C1438 C1437 1.389 . S
C1438 C1439 1.387 . S
C1439 H1424 0.881 1_556 S
C1439 C1434 1.390 . S
C1439 C1438 1.387 . S
H1440 C1452 0.930 . S
H1441 C1454 0.930 . S
H1442 C1455 0.930 . S
H1443 C1459 0.959 . S
H1444 C1459 0.959 . S
H1445 C1459 0.961 . S
H1446 C1460 0.960 . S
H1447 C1460 0.961 . S
H1448 C1460 0.959 . S
H1449 C1463 0.929 . S
H1450 C1464 0.931 1_554 S
H1451 C1466 0.930 . S
C1452 H1440 0.930 . S
C1452 C1453 1.399 . S
C1452 C1457 1.399 . S
C1453 C1452 1.399 . S
C1453 C1454 1.376 . S
C1454 H1441 0.930 . S
C1454 C1453 1.376 . S
C1454 C1455 1.388 . S
C1455 H1442 0.930 . S
C1455 C1454 1.388 . S
C1455 C1456 1.390 . S
C1456 C1455 1.390 . S
C1456 C1457 1.394 . S
C1456 C1462 1.465 . S
C1457 C1452 1.399 . S
C1457 C1456 1.394 . S
C1457 C1458 1.516 . S
C1458 C1457 1.516 . S
C1458 C1459 1.502 . S
C1458 C1460 1.561 . S
C1458 C1461 1.526 . S
C1459 H1443 0.959 . S
C1459 H1444 0.959 . S
C1459 H1445 0.961 . S
C1459 C1458 1.502 . S
C1460 H1446 0.960 . S
C1460 H1447 0.961 . S
C1460 H1448 0.959 . S
C1460 C1458 1.561 . S
C1461 C1458 1.526 . S
C1461 C1462 1.396 . S
C1461 C1466 1.390 . S
C1462 C1456 1.465 . S
C1462 C1461 1.396 . S
C1462 C1463 1.399 . S
C1463 H1449 0.929 . S
C1463 C1462 1.399 . S
C1463 C1464 1.385 . S
C1464 H1450 0.931 1_556 S
C1464 C1463 1.385 . S
C1464 C1465 1.389 . S
C1465 C1464 1.389 . S
C1465 C1466 1.387 . S
C1466 H1451 0.930 . S
C1466 C1461 1.390 . S
C1466 C1465 1.387 . S
H1467 C1479 0.930 . S
H1468 C1481 0.930 . S
H1469 C1482 0.930 . S
H1470 C1486 0.959 . S
H1471 C1486 0.959 . S
H1472 C1486 0.961 . S
H1473 C1487 0.960 . S
H1474 C1487 0.961 . S
H1475 C1487 0.959 . S
H1476 C1490 0.929 1_554 S
H1477 C1491 0.931 1_554 S
H1478 C1493 0.930 . S
C1479 H1467 0.930 . S
C1479 C1480 1.399 . S
C1479 C1484 1.399 . S
C1480 C1479 1.399 . S
C1480 C1481 1.376 . S
C1481 H1468 0.930 . S
C1481 C1480 1.376 . S
C1481 C1482 1.388 . S
C1482 H1469 0.930 . S
C1482 C1481 1.388 . S
C1482 C1483 1.390 . S
C1483 C1482 1.390 . S
C1483 C1484 1.394 . S
C1483 C1489 1.465 . S
C1484 C1479 1.399 . S
C1484 C1483 1.394 . S
C1484 C1485 1.516 . S
C1485 C1484 1.516 . S
C1485 C1486 1.502 . S
C1485 C1487 1.561 . S
C1485 C1488 1.526 . S
C1486 H1470 0.959 . S
C1486 H1471 0.959 . S
C1486 H1472 0.961 . S
C1486 C1485 1.502 . S
C1487 H1473 0.960 . S
C1487 H1474 0.961 . S
C1487 H1475 0.959 . S
C1487 C1485 1.561 . S
C1488 C1485 1.526 . S
C1488 C1489 1.396 . S
C1488 C1493 1.390 . S
C1489 C1483 1.465 . S
C1489 C1488 1.396 . S
C1489 C1490 1.399 . S
C1490 H1476 0.929 1_556 S
C1490 C1489 1.399 . S
C1490 C1491 1.385 . S
C1491 H1477 0.931 1_556 S
C1491 C1490 1.385 . S
C1491 C1492 1.389 . S
C1492 C1491 1.389 . S
C1492 C1493 1.387 . S
C1493 H1478 0.930 . S
C1493 C1488 1.390 . S
C1493 C1492 1.387 . S
H1494 C1506 0.930 . S
H1495 C1508 0.930 . S
H1496 C1509 0.930 . S
H1497 C1513 0.959 . S
H1498 C1513 0.959 1_554 S
H1499 C1513 0.961 1_554 S
H1500 C1514 0.961 1_554 S
H1501 C1514 0.961 1_554 S
H1502 C1514 0.959 . S
H1503 C1517 0.929 . S
H1504 C1518 0.931 . S
H1505 C1520 0.930 1_554 S
C1506 H1494 0.930 . S
C1506 C1507 1.399 . S
C1506 C1511 1.399 . S
C1507 C1506 1.399 . S
C1507 C1508 1.376 . S
C1508 H1495 0.930 . S
C1508 C1507 1.376 . S
C1508 C1509 1.388 . S
C1509 H1496 0.930 . S
C1509 C1508 1.388 . S
C1509 C1510 1.390 . S
C1510 C1509 1.390 . S
C1510 C1511 1.394 . S
C1510 C1516 1.465 . S
C1511 C1506 1.399 . S
C1511 C1510 1.394 . S
C1511 C1512 1.516 . S
C1512 C1511 1.516 . S
C1512 C1513 1.502 . S
C1512 C1514 1.561 . S
C1512 C1515 1.526 . S
C1513 H1497 0.959 . S
C1513 H1498 0.959 1_556 S
C1513 H1499 0.961 1_556 S
C1513 C1512 1.502 . S
C1514 H1500 0.961 1_556 S
C1514 H1501 0.961 1_556 S
C1514 H1502 0.959 . S
C1514 C1512 1.561 . S
C1515 C1512 1.526 . S
C1515 C1516 1.396 . S
C1515 C1520 1.390 . S
C1516 C1510 1.465 . S
C1516 C1515 1.396 . S
C1516 C1517 1.399 . S
C1517 H1503 0.929 . S
C1517 C1516 1.399 . S
C1517 C1518 1.385 . S
C1518 H1504 0.931 . S
C1518 C1517 1.385 . S
C1518 C1519 1.389 . S
C1519 C1518 1.389 . S
C1519 C1520 1.387 . S
C1520 H1505 0.930 1_556 S
C1520 C1515 1.390 . S
C1520 C1519 1.387 . S
H1521 C1533 0.930 . S
H1522 C1535 0.930 . S
H1523 C1536 0.930 . S
H1524 C1540 0.959 . S
H1525 C1540 0.959 . S
H1526 C1540 0.961 . S
H1527 C1541 0.958 1_554 S
H1528 C1541 0.948 1_554 S
H1529 C1541 0.955 1_554 S
H1530 C1544 0.929 . S
H1531 C1545 0.931 . S
H1532 C1547 0.930 . S
C1533 H1521 0.930 . S
C1533 C1534 1.399 . S
C1533 C1538 1.399 . S
C1534 C1533 1.399 . S
C1534 C1535 1.376 . S
C1535 H1522 0.930 . S
C1535 C1534 1.376 . S
C1535 C1536 1.388 . S
C1536 H1523 0.930 . S
C1536 C1535 1.388 . S
C1536 C1537 1.390 . S
C1537 C1536 1.390 . S
C1537 C1538 1.394 . S
C1537 C1543 1.465 . S
C1538 C1533 1.399 . S
C1538 C1537 1.394 . S
C1538 C1539 1.516 . S
C1539 C1538 1.516 . S
C1539 C1540 1.502 . S
C1539 C1541 1.577 . S
C1539 C1542 1.526 . S
C1540 H1524 0.959 . S
C1540 H1525 0.959 . S
C1540 H1526 0.961 . S
C1540 C1539 1.502 . S
C1541 H1527 0.958 1_556 S
C1541 H1528 0.948 1_556 S
C1541 H1529 0.955 1_556 S
C1541 C1539 1.577 . S
C1542 C1539 1.526 . S
C1542 C1543 1.396 . S
C1542 C1547 1.390 . S
C1543 C1537 1.465 . S
C1543 C1542 1.396 . S
C1543 C1544 1.399 . S
C1544 H1530 0.929 . S
C1544 C1543 1.399 . S
C1544 C1545 1.385 . S
C1545 H1531 0.931 . S
C1545 C1544 1.385 . S
C1545 C1546 1.389 . S
C1546 C1545 1.389 . S
C1546 C1547 1.387 . S
C1547 H1532 0.930 . S
C1547 C1542 1.390 . S
C1547 C1546 1.387 . S
H1548 C1560 0.930 . S
H1549 C1562 0.930 . S
H1550 C1563 0.930 . S
H1551 C1567 0.959 . S
H1552 C1567 0.959 . S
H1553 C1567 0.961 . S
H1554 C1568 0.960 . S
H1555 C1568 0.961 . S
H1556 C1568 0.959 . S
H1557 C1571 0.929 . S
H1558 C1572 0.931 . S
H1559 C1574 0.930 1_554 S
C1560 H1548 0.930 . S
C1560 C1561 1.399 . S
C1560 C1565 1.399 . S
C1561 C1560 1.399 . S
C1561 C1562 1.376 . S
C1562 H1549 0.930 . S
C1562 C1561 1.376 . S
C1562 C1563 1.388 . S
C1563 H1550 0.930 . S
C1563 C1562 1.388 . S
C1563 C1564 1.390 . S
C1564 C1563 1.390 . S
C1564 C1565 1.394 . S
C1564 C1570 1.465 . S
C1565 C1560 1.399 . S
C1565 C1564 1.394 . S
C1565 C1566 1.516 . S
C1566 C1565 1.516 . S
C1566 C1567 1.502 1_556 S
C1566 C1568 1.561 . S
C1566 C1569 1.526 . S
C1567 H1551 0.959 . S
C1567 H1552 0.959 . S
C1567 H1553 0.961 . S
C1567 C1566 1.502 1_554 S
C1568 H1554 0.960 . S
C1568 H1555 0.961 . S
C1568 H1556 0.959 . S
C1568 C1566 1.561 . S
C1569 C1566 1.526 . S
C1569 C1570 1.396 . S
C1569 C1574 1.390 . S
C1570 C1564 1.465 . S
C1570 C1569 1.396 . S
C1570 C1571 1.399 . S
C1571 H1557 0.929 . S
C1571 C1570 1.399 . S
C1571 C1572 1.385 . S
C1572 H1558 0.931 . S
C1572 C1571 1.385 . S
C1572 C1573 1.389 . S
C1573 C1572 1.389 . S
C1573 C1574 1.387 . S
C1574 H1559 0.930 1_556 S
C1574 C1569 1.390 . S
C1574 C1573 1.387 . S
H1575 C1587 0.930 . S
H1576 C1589 0.930 . S
H1577 C1590 0.930 . S
H1578 C1594 0.959 . S
H1579 C1594 0.959 . S
H1580 C1594 0.961 . S
H1581 C1595 0.960 . S
H1582 C1595 0.961 . S
H1583 C1595 0.959 . S
H1584 C1598 0.978 . S
H1585 C1599 0.931 1_556 S
H1586 C1601 0.930 . S
C1587 H1575 0.930 . S
C1587 C1588 1.399 . S
C1587 C1592 1.399 . S
C1588 C1587 1.399 . S
C1588 C1589 1.376 . S
C1589 H1576 0.930 . S
C1589 C1588 1.376 . S
C1589 C1590 1.388 . S
C1590 H1577 0.930 . S
C1590 C1589 1.388 . S
C1590 C1591 1.390 . S
C1591 C1590 1.390 . S
C1591 C1592 1.394 . S
C1591 C1597 1.465 . S
C1592 C1587 1.399 . S
C1592 C1591 1.394 . S
C1592 C1593 1.516 . S
C1593 C1592 1.516 . S
C1593 C1594 1.502 . S
C1593 C1595 1.561 . S
C1593 C1596 1.526 . S
C1594 H1578 0.959 . S
C1594 H1579 0.959 . S
C1594 H1580 0.961 . S
C1594 C1593 1.502 . S
C1595 H1581 0.960 . S
C1595 H1582 0.961 . S
C1595 H1583 0.959 . S
C1595 C1593 1.561 . S
C1596 C1593 1.526 . S
C1596 C1597 1.396 . S
C1596 C1601 1.390 . S
C1597 C1591 1.465 . S
C1597 C1596 1.396 . S
C1597 C1598 1.399 . S
C1598 H1584 0.978 . S
C1598 C1597 1.399 . S
C1598 C1599 1.385 . S
C1599 H1585 0.931 1_554 S
C1599 C1598 1.385 . S
C1599 C1600 1.389 . S
C1600 C1599 1.389 . S
C1600 C1601 1.387 . S
C1601 H1586 0.930 . S
C1601 C1596 1.390 . S
C1601 C1600 1.387 . S
H1602 C1614 0.930 . S
H1603 C1616 0.930 . S
H1604 C1617 0.930 . S
H1605 C1621 0.959 . S
H1606 C1621 0.959 . S
H1607 C1621 0.961 . S
H1608 C1622 0.960 . S
H1609 C1622 0.961 . S
H1610 C1622 0.959 . S
H1611 C1625 0.929 . S
H1612 C1626 0.931 . S
H1613 C1628 0.930 . S
C1614 H1602 0.930 . S
C1614 C1615 1.399 . S
C1614 C1619 1.399 . S
C1615 C1614 1.399 . S
C1615 C1616 1.376 . S
C1616 H1603 0.930 . S
C1616 C1615 1.376 . S
C1616 C1617 1.388 . S
C1617 H1604 0.930 . S
C1617 C1616 1.388 . S
C1617 C1618 1.390 . S
C1618 C1617 1.390 . S
C1618 C1619 1.394 . S
C1618 C1624 1.465 . S
C1619 C1614 1.399 . S
C1619 C1618 1.394 . S
C1619 C1620 1.516 . S
C1620 C1619 1.516 . S
C1620 C1621 1.502 . S
C1620 C1622 1.561 . S
C1620 C1623 1.526 . S
C1621 H1605 0.959 . S
C1621 H1606 0.959 . S
C1621 H1607 0.961 . S
C1621 C1620 1.502 . S
C1622 H1608 0.960 . S
C1622 H1609 0.961 . S
C1622 H1610 0.959 . S
C1622 C1620 1.561 . S
C1623 C1620 1.526 . S
C1623 C1624 1.396 . S
C1623 C1628 1.390 . S
C1624 C1618 1.465 . S
C1624 C1623 1.396 . S
C1624 C1625 1.399 . S
C1625 H1611 0.929 . S
C1625 C1624 1.399 . S
C1625 C1626 1.385 . S
C1626 H1612 0.931 . S
C1626 C1625 1.385 . S
C1626 C1627 1.389 . S
C1627 C1626 1.389 . S
C1627 C1628 1.387 . S
C1628 H1613 0.930 . S
C1628 C1623 1.390 . S
C1628 C1627 1.387 . S
H1629 C1641 0.930 . S
H1630 C1643 0.930 . S
H1631 C1644 0.930 . S
H1632 C1648 0.959 . S
H1633 C1648 0.959 . S
H1634 C1648 0.961 . S
H1635 C1649 0.960 . S
H1636 C1649 0.961 . S
H1637 C1649 0.959 . S
H1638 C1652 0.929 . S
H1639 C1653 0.931 . S
H1640 C1655 0.930 . S
C1641 H1629 0.930 . S
C1641 C1642 1.399 . S
C1641 C1646 1.399 . S
C1642 C1641 1.399 . S
C1642 C1643 1.376 . S
C1643 H1630 0.930 . S
C1643 C1642 1.376 . S
C1643 C1644 1.388 . S
C1644 H1631 0.930 . S
C1644 C1643 1.388 . S
C1644 C1645 1.390 . S
C1645 C1644 1.390 . S
C1645 C1646 1.394 . S
C1645 C1651 1.465 . S
C1646 C1641 1.399 . S
C1646 C1645 1.394 . S
C1646 C1647 1.516 . S
C1647 C1646 1.516 . S
C1647 C1648 1.502 . S
C1647 C1649 1.561 . S
C1647 C1650 1.526 . S
C1648 H1632 0.959 . S
C1648 H1633 0.959 . S
C1648 H1634 0.961 . S
C1648 C1647 1.502 . S
C1649 H1635 0.960 . S
C1649 H1636 0.961 . S
C1649 H1637 0.959 . S
C1649 C1647 1.561 . S
C1650 C1647 1.526 . S
C1650 C1651 1.396 . S
C1650 C1655 1.390 . S
C1651 C1645 1.465 . S
C1651 C1650 1.396 . S
C1651 C1652 1.399 . S
C1652 H1638 0.929 . S
C1652 C1651 1.399 . S
C1652 C1653 1.385 . S
C1653 H1639 0.931 . S
C1653 C1652 1.385 . S
C1653 C1654 1.389 . S
C1654 C1653 1.389 . S
C1654 C1655 1.387 . S
C1655 H1640 0.930 . S
C1655 C1650 1.390 . S
C1655 C1654 1.387 . S
H1656 C1668 0.930 . S
H1657 C1670 0.930 . S
H1658 C1671 0.930 . S
H1659 C1675 0.959 . S
H1660 C1675 0.959 . S
H1661 C1675 0.961 . S
H1662 C1676 0.960 . S
H1663 C1676 0.961 . S
H1664 C1676 0.959 . S
H1665 C1679 0.929 . S
H1666 C1680 0.931 . S
H1667 C1682 0.930 . S
C1668 H1656 0.930 . S
C1668 C1669 1.399 . S
C1668 C1673 1.399 1_655 S
C1669 C1668 1.399 . S
C1669 C1670 1.376 . S
C1670 H1657 0.930 . S
C1670 C1669 1.376 . S
C1670 C1671 1.388 1_655 S
C1671 H1658 0.930 . S
C1671 C1670 1.388 1_455 S
C1671 C1672 1.390 . S
C1672 C1671 1.390 . S
C1672 C1673 1.394 . S
C1672 C1678 1.465 . S
C1673 C1668 1.399 1_455 S
C1673 C1672 1.394 . S
C1673 C1674 1.516 . S
C1674 C1673 1.516 . S
C1674 C1675 1.502 . S
C1674 C1676 1.561 . S
C1674 C1677 1.526 . S
C1675 H1659 0.959 . S
C1675 H1660 0.959 . S
C1675 H1661 0.961 . S
C1675 C1674 1.502 . S
C1676 H1662 0.960 . S
C1676 H1663 0.961 . S
C1676 H1664 0.959 . S
C1676 C1674 1.561 . S
C1677 C1674 1.526 . S
C1677 C1678 1.396 . S
C1677 C1682 1.390 . S
C1678 C1672 1.465 . S
C1678 C1677 1.396 . S
C1678 C1679 1.399 . S
C1679 H1665 0.929 . S
C1679 C1678 1.399 . S
C1679 C1680 1.385 . S
C1680 H1666 0.931 . S
C1680 C1679 1.385 . S
C1680 C1681 1.389 . S
C1681 C1680 1.389 . S
C1681 C1682 1.387 . S
C1682 H1667 0.930 . S
C1682 C1677 1.390 . S
C1682 C1681 1.387 . S
H1683 C1695 0.930 . S
H1684 C1697 0.930 . S
H1685 C1698 0.930 . S
H1686 C1702 0.959 . S
H1687 C1702 0.959 . S
H1688 C1702 0.961 . S
H1689 C1703 0.960 . S
H1690 C1703 0.961 . S
H1691 C1703 0.959 . S
H1692 C1706 0.929 . S
H1693 C1707 0.931 . S
H1694 C1709 0.930 . S
C1695 H1683 0.930 . S
C1695 C1696 1.399 . S
C1695 C1700 1.399 . S
C1696 C1695 1.399 . S
C1696 C1697 1.376 . S
C1697 H1684 0.930 . S
C1697 C1696 1.376 . S
C1697 C1698 1.388 . S
C1698 H1685 0.930 . S
C1698 C1697 1.388 . S
C1698 C1699 1.390 . S
C1699 C1698 1.390 . S
C1699 C1700 1.394 . S
C1699 C1705 1.465 . S
C1700 C1695 1.399 . S
C1700 C1699 1.394 . S
C1700 C1701 1.516 . S
C1701 C1700 1.516 . S
C1701 C1702 1.502 . S
C1701 C1703 1.561 . S
C1701 C1704 1.526 . S
C1702 H1686 0.959 . S
C1702 H1687 0.959 . S
C1702 H1688 0.961 . S
C1702 C1701 1.502 . S
C1703 H1689 0.960 . S
C1703 H1690 0.961 . S
C1703 H1691 0.959 . S
C1703 C1701 1.561 . S
C1704 C1701 1.526 . S
C1704 C1705 1.396 . S
C1704 C1709 1.390 . S
C1705 C1699 1.465 . S
C1705 C1704 1.396 . S
C1705 C1706 1.399 . S
C1706 H1692 0.929 . S
C1706 C1705 1.399 . S
C1706 C1707 1.385 . S
C1707 H1693 0.931 . S
C1707 C1706 1.385 . S
C1707 C1708 1.389 . S
C1708 C1707 1.389 . S
C1708 C1709 1.387 . S
C1709 H1694 0.930 . S
C1709 C1704 1.390 . S
C1709 C1708 1.387 . S
H1710 C1722 0.930 . S
H1711 C1724 0.930 . S
H1712 C1725 0.930 . S
H1713 C1729 0.959 . S
H1714 C1729 0.959 . S
H1715 C1729 0.961 . S
H1716 C1730 0.960 . S
H1717 C1730 0.961 . S
H1718 C1730 0.959 . S
H1719 C1733 0.929 . S
H1720 C1734 0.931 . S
H1721 C1736 0.930 . S
C1722 H1710 0.930 . S
C1722 C1723 1.399 . S
C1722 C1727 1.399 1_545 S
C1723 C1722 1.399 . S
C1723 C1724 1.376 . S
C1724 H1711 0.930 . S
C1724 C1723 1.376 . S
C1724 C1725 1.388 . S
C1725 H1712 0.930 . S
C1725 C1724 1.388 . S
C1725 C1726 1.390 1_545 S
C1726 C1725 1.390 1_565 S
C1726 C1727 1.394 . S
C1726 C1732 1.465 . S
C1727 C1722 1.399 1_565 S
C1727 C1726 1.394 . S
C1727 C1728 1.516 . S
C1728 C1727 1.516 . S
C1728 C1729 1.502 . S
C1728 C1730 1.561 . S
C1728 C1731 1.526 . S
C1729 H1713 0.959 . S
C1729 H1714 0.959 . S
C1729 H1715 0.961 . S
C1729 C1728 1.502 . S
C1730 H1716 0.960 . S
C1730 H1717 0.961 . S
C1730 H1718 0.959 . S
C1730 C1728 1.561 . S
C1731 C1728 1.526 . S
C1731 C1732 1.396 . S
C1731 C1736 1.390 . S
C1732 C1726 1.465 . S
C1732 C1731 1.396 . S
C1732 C1733 1.399 . S
C1733 H1719 0.929 . S
C1733 C1732 1.399 . S
C1733 C1734 1.385 . S
C1734 H1720 0.931 . S
C1734 C1733 1.385 . S
C1734 C1735 1.389 . S
C1735 C1734 1.389 . S
C1735 C1736 1.387 . S
C1736 H1721 0.930 . S
C1736 C1731 1.390 . S
C1736 C1735 1.387 . S
H1737 C1749 0.930 . S
H1738 C1751 0.930 . S
H1739 C1752 0.930 . S
H1740 C1756 0.959 . S
H1741 C1756 0.959 . S
H1742 C1756 0.961 . S
H1743 C1757 0.960 . S
H1744 C1757 0.961 . S
H1745 C1757 0.959 . S
H1746 C1760 0.929 . S
H1747 C1761 0.931 . S
H1748 C1763 0.930 . S
C1749 H1737 0.930 . S
C1749 C1750 1.399 . S
C1749 C1754 1.399 . S
C1750 C1749 1.399 . S
C1750 C1751 1.376 . S
C1751 H1738 0.930 . S
C1751 C1750 1.376 . S
C1751 C1752 1.388 . S
C1752 H1739 0.930 . S
C1752 C1751 1.388 . S
C1752 C1753 1.390 . S
C1753 C1752 1.390 . S
C1753 C1754 1.394 . S
C1753 C1759 1.465 . S
C1754 C1749 1.399 . S
C1754 C1753 1.394 . S
C1754 C1755 1.516 . S
C1755 C1754 1.516 . S
C1755 C1756 1.502 . S
C1755 C1757 1.561 . S
C1755 C1758 1.526 . S
C1756 H1740 0.959 . S
C1756 H1741 0.959 . S
C1756 H1742 0.961 . S
C1756 C1755 1.502 . S
C1757 H1743 0.960 . S
C1757 H1744 0.961 . S
C1757 H1745 0.959 . S
C1757 C1755 1.561 . S
C1758 C1755 1.526 . S
C1758 C1759 1.396 . S
C1758 C1763 1.390 . S
C1759 C1753 1.465 . S
C1759 C1758 1.396 . S
C1759 C1760 1.399 . S
C1760 H1746 0.929 . S
C1760 C1759 1.399 . S
C1760 C1761 1.385 . S
C1761 H1747 0.931 . S
C1761 C1760 1.385 . S
C1761 C1762 1.389 . S
C1762 C1761 1.389 . S
C1762 C1763 1.387 . S
C1763 H1748 0.930 . S
C1763 C1758 1.390 . S
C1763 C1762 1.387 . S
H1764 C1776 0.930 . S
H1765 C1778 0.930 . S
H1766 C1779 0.930 . S
H1767 C1783 0.959 . S
H1768 C1783 0.959 . S
H1769 C1783 0.961 . S
H1770 C1784 0.960 . S
H1771 C1784 0.961 . S
H1772 C1784 0.959 . S
H1773 C1787 0.929 . S
H1774 C1788 0.931 . S
H1775 C1790 0.930 . S
C1776 H1764 0.930 . S
C1776 C1777 1.399 . S
C1776 C1781 1.399 . S
C1777 C1776 1.399 . S
C1777 C1778 1.376 . S
C1778 H1765 0.930 . S
C1778 C1777 1.376 . S
C1778 C1779 1.388 . S
C1779 H1766 0.930 . S
C1779 C1778 1.388 . S
C1779 C1780 1.390 . S
C1780 C1779 1.390 . S
C1780 C1781 1.394 . S
C1780 C1786 1.465 . S
C1781 C1776 1.399 . S
C1781 C1780 1.394 . S
C1781 C1782 1.516 . S
C1782 C1781 1.516 . S
C1782 C1783 1.502 . S
C1782 C1784 1.561 . S
C1782 C1785 1.526 . S
C1783 H1767 0.959 . S
C1783 H1768 0.959 . S
C1783 H1769 0.961 . S
C1783 C1782 1.502 . S
C1784 H1770 0.960 . S
C1784 H1771 0.961 . S
C1784 H1772 0.959 . S
C1784 C1782 1.561 . S
C1785 C1782 1.526 . S
C1785 C1786 1.396 . S
C1785 C1790 1.390 . S
C1786 C1780 1.465 . S
C1786 C1785 1.396 . S
C1786 C1787 1.399 . S
C1787 H1773 0.929 . S
C1787 C1786 1.399 . S
C1787 C1788 1.385 . S
C1788 H1774 0.931 . S
C1788 C1787 1.385 . S
C1788 C1789 1.389 . S
C1789 C1788 1.389 . S
C1789 C1790 1.387 . S
C1790 H1775 0.930 . S
C1790 C1785 1.390 . S
C1790 C1789 1.387 . S
H1791 C1803 0.930 . S
H1792 C1805 0.930 . S
H1793 C1806 0.930 . S
H1794 C1810 0.959 . S
H1795 C1810 0.959 . S
H1796 C1810 0.961 . S
H1797 C1811 0.960 . S
H1798 C1811 0.961 . S
H1799 C1811 0.959 . S
H1800 C1814 0.929 . S
H1801 C1815 0.931 . S
H1802 C1817 0.930 . S
C1803 H1791 0.930 . S
C1803 C1804 1.399 . S
C1803 C1808 1.399 . S
C1804 C1803 1.399 . S
C1804 C1805 1.376 . S
C1805 H1792 0.930 . S
C1805 C1804 1.376 . S
C1805 C1806 1.388 . S
C1806 H1793 0.930 . S
C1806 C1805 1.388 . S
C1806 C1807 1.390 . S
C1807 C1806 1.390 . S
C1807 C1808 1.394 . S
C1807 C1813 1.465 . S
C1808 C1803 1.399 . S
C1808 C1807 1.394 . S
C1808 C1809 1.516 . S
C1809 C1808 1.516 . S
C1809 C1810 1.502 . S
C1809 C1811 1.561 . S
C1809 C1812 1.526 . S
C1810 H1794 0.959 . S
C1810 H1795 0.959 . S
C1810 H1796 0.961 . S
C1810 C1809 1.502 . S
C1811 H1797 0.960 . S
C1811 H1798 0.961 . S
C1811 H1799 0.959 . S
C1811 C1809 1.561 . S
C1812 C1809 1.526 . S
C1812 C1813 1.396 . S
C1812 C1817 1.390 . S
C1813 C1807 1.465 . S
C1813 C1812 1.396 . S
C1813 C1814 1.399 . S
C1814 H1800 0.929 . S
C1814 C1813 1.399 . S
C1814 C1815 1.385 . S
C1815 H1801 0.931 . S
C1815 C1814 1.385 . S
C1815 C1816 1.389 . S
C1816 C1815 1.389 . S
C1816 C1817 1.387 . S
C1817 H1802 0.930 . S
C1817 C1812 1.390 . S
C1817 C1816 1.387 . S
H1818 C1830 0.930 . S
H1819 C1832 0.930 . S
H1820 C1833 0.930 . S
H1821 C1837 0.959 . S
H1822 C1837 0.959 . S
H1823 C1837 0.961 . S
H1824 C1838 0.960 . S
H1825 C1838 0.961 . S
H1826 C1838 0.959 . S
H1827 C1841 0.929 . S
H1828 C1842 0.931 . S
H1829 C1844 0.930 . S
C1830 H1818 0.930 . S
C1830 C1831 1.399 . S
C1830 C1835 1.399 . S
C1831 C1830 1.399 . S
C1831 C1832 1.376 . S
C1832 H1819 0.930 . S
C1832 C1831 1.376 . S
C1832 C1833 1.388 . S
C1833 H1820 0.930 . S
C1833 C1832 1.388 . S
C1833 C1834 1.390 . S
C1834 C1833 1.390 . S
C1834 C1835 1.394 . S
C1834 C1840 1.465 . S
C1835 C1830 1.399 . S
C1835 C1834 1.394 . S
C1835 C1836 1.516 . S
C1836 C1835 1.516 . S
C1836 C1837 1.502 . S
C1836 C1838 1.561 . S
C1836 C1839 1.526 . S
C1837 H1821 0.959 . S
C1837 H1822 0.959 . S
C1837 H1823 0.961 . S
C1837 C1836 1.502 . S
C1838 H1824 0.960 . S
C1838 H1825 0.961 . S
C1838 H1826 0.959 . S
C1838 C1836 1.561 . S
C1839 C1836 1.526 . S
C1839 C1840 1.396 . S
C1839 C1844 1.390 . S
C1840 C1834 1.465 . S
C1840 C1839 1.396 . S
C1840 C1841 1.399 . S
C1841 H1827 0.929 . S
C1841 C1840 1.399 . S
C1841 C1842 1.385 . S
C1842 H1828 0.931 . S
C1842 C1841 1.385 . S
C1842 C1843 1.389 . S
C1843 C1842 1.389 . S
C1843 C1844 1.387 . S
C1844 H1829 0.930 . S
C1844 C1839 1.390 . S
C1844 C1843 1.387 . S
H1845 C1857 0.930 . S
H1846 C1859 0.930 . S
H1847 C1860 0.930 . S
H1848 C1864 0.959 . S
H1849 C1864 0.959 . S
H1850 C1864 0.961 . S
H1851 C1865 0.960 . S
H1852 C1865 0.961 . S
H1853 C1865 0.959 . S
H1854 C1868 0.929 . S
H1855 C1869 0.931 . S
H1856 C1871 0.930 . S
C1857 H1845 0.930 . S
C1857 C1858 1.399 . S
C1857 C1862 1.399 . S
C1858 C1857 1.399 . S
C1858 C1859 1.376 . S
C1859 H1846 0.930 . S
C1859 C1858 1.376 . S
C1859 C1860 1.388 . S
C1860 H1847 0.930 . S
C1860 C1859 1.388 . S
C1860 C1861 1.390 . S
C1861 C1860 1.390 . S
C1861 C1862 1.394 . S
C1861 C1867 1.465 . S
C1862 C1857 1.399 . S
C1862 C1861 1.394 . S
C1862 C1863 1.516 . S
C1863 C1862 1.516 . S
C1863 C1864 1.502 . S
C1863 C1865 1.561 . S
C1863 C1866 1.526 . S
C1864 H1848 0.959 . S
C1864 H1849 0.959 . S
C1864 H1850 0.961 . S
C1864 C1863 1.502 . S
C1865 H1851 0.960 . S
C1865 H1852 0.961 . S
C1865 H1853 0.959 . S
C1865 C1863 1.561 . S
C1866 C1863 1.526 . S
C1866 C1867 1.396 . S
C1866 C1871 1.390 . S
C1867 C1861 1.465 . S
C1867 C1866 1.396 . S
C1867 C1868 1.399 . S
C1868 H1854 0.929 . S
C1868 C1867 1.399 . S
C1868 C1869 1.385 . S
C1869 H1855 0.931 . S
C1869 C1868 1.385 . S
C1869 C1870 1.389 . S
C1870 C1869 1.389 . S
C1870 C1871 1.387 . S
C1871 H1856 0.930 . S
C1871 C1866 1.390 . S
C1871 C1870 1.387 . S
H1872 C1884 0.930 . S
H1873 C1886 0.930 . S
H1874 C1887 0.930 . S
H1875 C1891 0.959 . S
H1876 C1891 0.959 . S
H1877 C1891 0.961 . S
H1878 C1892 0.960 . S
H1879 C1892 0.961 . S
H1880 C1892 0.959 . S
H1881 C1895 0.929 . S
H1882 C1896 0.931 . S
H1883 C1898 0.930 . S
C1884 H1872 0.930 . S
C1884 C1885 1.399 . S
C1884 C1889 1.399 . S
C1885 C1884 1.399 . S
C1885 C1886 1.376 . S
C1886 H1873 0.930 . S
C1886 C1885 1.376 . S
C1886 C1887 1.388 . S
C1887 H1874 0.930 . S
C1887 C1886 1.388 . S
C1887 C1888 1.390 . S
C1888 C1887 1.390 . S
C1888 C1889 1.394 . S
C1888 C1894 1.465 . S
C1889 C1884 1.399 . S
C1889 C1888 1.394 . S
C1889 C1890 1.516 . S
C1890 C1889 1.516 . S
C1890 C1891 1.502 . S
C1890 C1892 1.561 . S
C1890 C1893 1.526 . S
C1891 H1875 0.959 . S
C1891 H1876 0.959 . S
C1891 H1877 0.961 . S
C1891 C1890 1.502 . S
C1892 H1878 0.960 . S
C1892 H1879 0.961 . S
C1892 H1880 0.959 . S
C1892 C1890 1.561 . S
C1893 C1890 1.526 . S
C1893 C1894 1.396 . S
C1893 C1898 1.390 . S
C1894 C1888 1.465 . S
C1894 C1893 1.396 . S
C1894 C1895 1.399 . S
C1895 H1881 0.929 . S
C1895 C1894 1.399 . S
C1895 C1896 1.385 . S
C1896 H1882 0.931 . S
C1896 C1895 1.385 . S
C1896 C1897 1.389 . S
C1897 C1896 1.389 . S
C1897 C1898 1.387 . S
C1898 H1883 0.930 . S
C1898 C1893 1.390 . S
C1898 C1897 1.387 . S
H1899 C1911 0.930 . S
H1900 C1913 0.930 . S
H1901 C1914 0.930 . S
H1902 C1918 0.959 . S
H1903 C1918 0.959 . S
H1904 C1918 0.961 1_545 S
H1905 C1919 0.960 . S
H1906 C1919 0.961 . S
H1907 C1919 0.959 . S
H1908 C1922 0.929 . S
H1909 C1923 0.931 . S
H1910 C1925 0.930 . S
C1911 H1899 0.930 . S
C1911 C1912 1.399 . S
C1911 C1916 1.399 1_545 S
C1912 C1911 1.399 . S
C1912 C1913 1.376 . S
C1913 H1900 0.930 . S
C1913 C1912 1.376 . S
C1913 C1914 1.388 1_545 S
C1914 H1901 0.930 . S
C1914 C1913 1.388 1_565 S
C1914 C1915 1.390 . S
C1915 C1914 1.390 . S
C1915 C1916 1.394 . S
C1915 C1921 1.465 . S
C1916 C1911 1.399 1_565 S
C1916 C1915 1.394 . S
C1916 C1917 1.516 . S
C1917 C1916 1.516 . S
C1917 C1918 1.502 . S
C1917 C1919 1.561 . S
C1917 C1920 1.526 . S
C1918 H1902 0.959 . S
C1918 H1903 0.959 . S
C1918 H1904 0.961 1_565 S
C1918 C1917 1.502 . S
C1919 H1905 0.960 . S
C1919 H1906 0.961 . S
C1919 H1907 0.959 . S
C1919 C1917 1.561 . S
C1920 C1917 1.526 . S
C1920 C1921 1.396 . S
C1920 C1925 1.390 . S
C1921 C1915 1.465 . S
C1921 C1920 1.396 . S
C1921 C1922 1.399 . S
C1922 H1908 0.929 . S
C1922 C1921 1.399 . S
C1922 C1923 1.385 . S
C1923 H1909 0.931 . S
C1923 C1922 1.385 . S
C1923 C1924 1.389 . S
C1924 C1923 1.389 . S
C1924 C1925 1.387 . S
C1925 H1910 0.930 . S
C1925 C1920 1.390 . S
C1925 C1924 1.387 . S
H1926 C1938 0.930 . S
H1927 C1940 0.930 . S
H1928 C1941 0.930 . S
H1929 C1945 0.959 . S
H1930 C1945 0.959 . S
H1931 C1945 0.961 . S
H1932 C1946 0.960 . S
H1933 C1946 0.961 . S
H1934 C1946 0.959 . S
H1935 C1949 0.929 . S
H1936 C1950 0.931 . S
H1937 C1952 0.930 . S
C1938 H1926 0.930 . S
C1938 C1939 1.399 1_455 S
C1938 C1943 1.399 . S
C1939 C1938 1.399 1_655 S
C1939 C1940 1.376 . S
C1940 H1927 0.930 . S
C1940 C1939 1.376 . S
C1940 C1941 1.388 . S
C1941 H1928 0.930 . S
C1941 C1940 1.388 . S
C1941 C1942 1.390 1_655 S
C1942 C1941 1.390 1_455 S
C1942 C1943 1.394 . S
C1942 C1948 1.465 . S
C1943 C1938 1.399 . S
C1943 C1942 1.394 . S
C1943 C1944 1.516 . S
C1944 C1943 1.516 . S
C1944 C1945 1.502 . S
C1944 C1946 1.561 . S
C1944 C1947 1.526 . S
C1945 H1929 0.959 . S
C1945 H1930 0.959 . S
C1945 H1931 0.961 . S
C1945 C1944 1.502 . S
C1946 H1932 0.960 . S
C1946 H1933 0.961 . S
C1946 H1934 0.959 . S
C1946 C1944 1.561 . S
C1947 C1944 1.526 . S
C1947 C1948 1.396 . S
C1947 C1952 1.390 . S
C1948 C1942 1.465 . S
C1948 C1947 1.396 . S
C1948 C1949 1.399 . S
C1949 H1935 0.929 . S
C1949 C1948 1.399 . S
C1949 C1950 1.385 . S
C1950 H1936 0.931 . S
C1950 C1949 1.385 . S
C1950 C1951 1.389 . S
C1951 C1950 1.389 . S
C1951 C1952 1.387 . S
C1952 H1937 0.930 . S
C1952 C1947 1.390 . S
C1952 C1951 1.387 . S
H1953 C1965 0.930 . S
H1954 C1967 0.930 . S
H1955 C1968 0.930 . S
H1956 C1972 0.959 . S
H1957 C1972 0.959 . S
H1958 C1972 0.961 . S
H1959 C1973 0.960 . S
H1960 C1973 0.961 . S
H1961 C1973 0.959 . S
H1962 C1976 0.929 . S
H1963 C1977 0.931 . S
H1964 C1979 0.930 . S
C1965 H1953 0.930 . S
C1965 C1966 1.399 . S
C1965 C1970 1.399 . S
C1966 C1965 1.399 . S
C1966 C1967 1.376 . S
C1967 H1954 0.930 . S
C1967 C1966 1.376 . S
C1967 C1968 1.388 . S
C1968 H1955 0.930 . S
C1968 C1967 1.388 . S
C1968 C1969 1.390 . S
C1969 C1968 1.390 . S
C1969 C1970 1.394 . S
C1969 C1975 1.465 . S
C1970 C1965 1.399 . S
C1970 C1969 1.394 . S
C1970 C1971 1.516 . S
C1971 C1970 1.516 . S
C1971 C1972 1.502 . S
C1971 C1973 1.561 . S
C1971 C1974 1.526 . S
C1972 H1956 0.959 . S
C1972 H1957 0.959 . S
C1972 H1958 0.961 . S
C1972 C1971 1.502 . S
C1973 H1959 0.960 . S
C1973 H1960 0.961 . S
C1973 H1961 0.959 . S
C1973 C1971 1.561 . S
C1974 C1971 1.526 . S
C1974 C1975 1.396 . S
C1974 C1979 1.390 . S
C1975 C1969 1.465 . S
C1975 C1974 1.396 . S
C1975 C1976 1.399 . S
C1976 H1962 0.929 . S
C1976 C1975 1.399 . S
C1976 C1977 1.385 . S
C1977 H1963 0.931 . S
C1977 C1976 1.385 . S
C1977 C1978 1.389 . S
C1978 C1977 1.389 . S
C1978 C1979 1.387 . S
C1979 H1964 0.930 . S
C1979 C1974 1.390 . S
C1979 C1978 1.387 . S
H1980 C1992 0.930 . S
H1981 C1994 0.930 . S
H1982 C1995 0.930 . S
H1983 C1999 0.959 . S
H1984 C1999 0.959 . S
H1985 C1999 0.961 . S
H1986 C2000 0.960 . S
H1987 C2000 0.961 . S
H1988 C2000 0.959 . S
H1989 C2003 0.929 . S
H1990 C2004 0.931 . S
H1991 C2006 0.930 . S
C1992 H1980 0.930 . S
C1992 C1993 1.399 . S
C1992 C1997 1.399 . S
C1993 C1992 1.399 . S
C1993 C1994 1.376 . S
C1994 H1981 0.930 . S
C1994 C1993 1.376 . S
C1994 C1995 1.388 . S
C1995 H1982 0.930 . S
C1995 C1994 1.388 . S
C1995 C1996 1.390 . S
C1996 C1995 1.390 . S
C1996 C1997 1.394 . S
C1996 C2002 1.465 . S
C1997 C1992 1.399 . S
C1997 C1996 1.394 . S
C1997 C1998 1.516 . S
C1998 C1997 1.516 . S
C1998 C1999 1.502 . S
C1998 C2000 1.561 . S
C1998 C2001 1.526 . S
C1999 H1983 0.959 . S
C1999 H1984 0.959 . S
C1999 H1985 0.961 . S
C1999 C1998 1.502 . S
C2000 H1986 0.960 . S
C2000 H1987 0.961 . S
C2000 H1988 0.959 . S
C2000 C1998 1.561 . S
C2001 C1998 1.526 . S
C2001 C2002 1.396 . S
C2001 C2006 1.390 . S
C2002 C1996 1.465 . S
C2002 C2001 1.396 . S
C2002 C2003 1.399 . S
C2003 H1989 0.929 . S
C2003 C2002 1.399 . S
C2003 C2004 1.385 . S
C2004 H1990 0.931 . S
C2004 C2003 1.385 . S
C2004 C2005 1.389 . S
C2005 C2004 1.389 . S
C2005 C2006 1.387 . S
C2006 H1991 0.930 . S
C2006 C2001 1.390 . S
C2006 C2005 1.387 . S
H2007 C2019 0.930 . S
H2008 C2021 0.930 . S
H2009 C2022 0.930 . S
H2010 C2026 0.959 . S
H2011 C2026 0.959 . S
H2012 C2026 0.961 . S
H2013 C2027 0.960 . S
H2014 C2027 0.961 . S
H2015 C2027 0.959 . S
H2016 C2030 0.929 . S
H2017 C2031 0.931 . S
H2018 C2033 0.930 . S
C2019 H2007 0.930 . S
C2019 C2020 1.399 . S
C2019 C2024 1.399 . S
C2020 C2019 1.399 . S
C2020 C2021 1.376 . S
C2021 H2008 0.930 . S
C2021 C2020 1.376 . S
C2021 C2022 1.388 . S
C2022 H2009 0.930 . S
C2022 C2021 1.388 . S
C2022 C2023 1.390 . S
C2023 C2022 1.390 . S
C2023 C2024 1.394 . S
C2023 C2029 1.465 . S
C2024 C2019 1.399 . S
C2024 C2023 1.394 . S
C2024 C2025 1.516 . S
C2025 C2024 1.516 . S
C2025 C2026 1.502 . S
C2025 C2027 1.561 . S
C2025 C2028 1.526 . S
C2026 H2010 0.959 . S
C2026 H2011 0.959 . S
C2026 H2012 0.961 . S
C2026 C2025 1.502 . S
C2027 H2013 0.960 . S
C2027 H2014 0.961 . S
C2027 H2015 0.959 . S
C2027 C2025 1.561 . S
C2028 C2025 1.526 . S
C2028 C2029 1.396 . S
C2028 C2033 1.390 . S
C2029 C2023 1.465 . S
C2029 C2028 1.396 . S
C2029 C2030 1.399 . S
C2030 H2016 0.929 . S
C2030 C2029 1.399 . S
C2030 C2031 1.385 . S
C2031 H2017 0.931 . S
C2031 C2030 1.385 . S
C2031 C2032 1.389 . S
C2032 C2031 1.389 . S
C2032 C2033 1.387 . S
C2033 H2018 0.930 . S
C2033 C2028 1.390 . S
C2033 C2032 1.387 . S
H2034 C2046 0.930 . S
H2035 C2048 0.930 . S
H2036 C2049 0.930 . S
H2037 C2053 0.959 . S
H2038 C2053 0.959 . S
H2039 C2053 0.961 . S
H2040 C2054 0.960 . S
H2041 C2054 0.961 . S
H2042 C2054 0.959 . S
H2043 C2057 0.929 . S
H2044 C2058 0.931 . S
H2045 C2060 0.930 . S
C2046 H2034 0.930 . S
C2046 C2047 1.399 . S
C2046 C2051 1.399 . S
C2047 C2046 1.399 . S
C2047 C2048 1.376 . S
C2048 H2035 0.930 . S
C2048 C2047 1.376 . S
C2048 C2049 1.388 . S
C2049 H2036 0.930 . S
C2049 C2048 1.388 . S
C2049 C2050 1.390 . S
C2050 C2049 1.390 . S
C2050 C2051 1.394 . S
C2050 C2056 1.465 . S
C2051 C2046 1.399 . S
C2051 C2050 1.394 . S
C2051 C2052 1.516 . S
C2052 C2051 1.516 . S
C2052 C2053 1.502 . S
C2052 C2054 1.561 . S
C2052 C2055 1.526 . S
C2053 H2037 0.959 . S
C2053 H2038 0.959 . S
C2053 H2039 0.961 . S
C2053 C2052 1.502 . S
C2054 H2040 0.960 . S
C2054 H2041 0.961 . S
C2054 H2042 0.959 . S
C2054 C2052 1.561 . S
C2055 C2052 1.526 . S
C2055 C2056 1.396 . S
C2055 C2060 1.390 . S
C2056 C2050 1.465 . S
C2056 C2055 1.396 . S
C2056 C2057 1.399 . S
C2057 H2043 0.929 . S
C2057 C2056 1.399 . S
C2057 C2058 1.385 . S
C2058 H2044 0.931 . S
C2058 C2057 1.385 . S
C2058 C2059 1.389 . S
C2059 C2058 1.389 . S
C2059 C2060 1.387 . S
C2060 H2045 0.930 . S
C2060 C2055 1.390 . S
C2060 C2059 1.387 . S
H2061 C2073 0.930 . S
H2062 C2075 0.930 . S
H2063 C2076 0.930 . S
H2064 C2080 0.959 . S
H2065 C2080 0.959 . S
H2066 C2080 0.961 . S
H2067 C2081 0.960 . S
H2068 C2081 0.961 . S
H2069 C2081 0.959 . S
H2070 C2084 0.929 . S
H2071 C2085 0.931 . S
H2072 C2087 0.930 . S
C2073 H2061 0.930 . S
C2073 C2074 1.399 . S
C2073 C2078 1.399 1_565 S
C2074 C2073 1.399 . S
C2074 C2075 1.376 . S
C2075 H2062 0.930 . S
C2075 C2074 1.376 . S
C2075 C2076 1.388 . S
C2076 H2063 0.930 . S
C2076 C2075 1.388 . S
C2076 C2077 1.390 1_565 S
C2077 C2076 1.390 1_545 S
C2077 C2078 1.394 . S
C2077 C2083 1.465 . S
C2078 C2073 1.399 1_545 S
C2078 C2077 1.394 . S
C2078 C2079 1.516 . S
C2079 C2078 1.516 . S
C2079 C2080 1.502 . S
C2079 C2081 1.561 . S
C2079 C2082 1.526 . S
C2080 H2064 0.959 . S
C2080 H2065 0.959 . S
C2080 H2066 0.961 . S
C2080 C2079 1.502 . S
C2081 H2067 0.960 . S
C2081 H2068 0.961 . S
C2081 H2069 0.959 . S
C2081 C2079 1.561 . S
C2082 C2079 1.526 . S
C2082 C2083 1.396 . S
C2082 C2087 1.390 . S
C2083 C2077 1.465 . S
C2083 C2082 1.396 . S
C2083 C2084 1.399 . S
C2084 H2070 0.929 . S
C2084 C2083 1.399 . S
C2084 C2085 1.385 . S
C2085 H2071 0.931 . S
C2085 C2084 1.385 . S
C2085 C2086 1.389 . S
C2086 C2085 1.389 . S
C2086 C2087 1.387 . S
C2087 H2072 0.930 . S
C2087 C2082 1.390 . S
C2087 C2086 1.387 . S
H2088 C2100 0.930 . S
H2089 C2102 0.930 . S
H2090 C2103 0.930 . S
H2091 C2107 0.959 . S
H2092 C2107 0.959 . S
H2093 C2107 0.961 1_455 S
H2094 C2108 0.960 . S
H2095 C2108 0.961 . S
H2096 C2108 0.959 . S
H2097 C2111 0.929 . S
H2098 C2112 0.931 . S
H2099 C2114 0.930 . S
C2100 H2088 0.930 . S
C2100 C2101 1.399 . S
C2100 C2105 1.399 1_455 S
C2101 C2100 1.399 . S
C2101 C2102 1.376 . S
C2102 H2089 0.930 . S
C2102 C2101 1.376 . S
C2102 C2103 1.388 1_455 S
C2103 H2090 0.930 . S
C2103 C2102 1.388 1_655 S
C2103 C2104 1.390 . S
C2104 C2103 1.390 . S
C2104 C2105 1.394 . S
C2104 C2110 1.465 . S
C2105 C2100 1.399 1_655 S
C2105 C2104 1.394 . S
C2105 C2106 1.516 . S
C2106 C2105 1.516 . S
C2106 C2107 1.502 . S
C2106 C2108 1.561 . S
C2106 C2109 1.526 . S
C2107 H2091 0.959 . S
C2107 H2092 0.959 . S
C2107 H2093 0.961 1_655 S
C2107 C2106 1.502 . S
C2108 H2094 0.960 . S
C2108 H2095 0.961 . S
C2108 H2096 0.959 . S
C2108 C2106 1.561 . S
C2109 C2106 1.526 . S
C2109 C2110 1.396 . S
C2109 C2114 1.390 . S
C2110 C2104 1.465 . S
C2110 C2109 1.396 . S
C2110 C2111 1.399 . S
C2111 H2097 0.929 . S
C2111 C2110 1.399 . S
C2111 C2112 1.385 . S
C2112 H2098 0.931 . S
C2112 C2111 1.385 . S
C2112 C2113 1.389 . S
C2113 C2112 1.389 . S
C2113 C2114 1.387 . S
C2114 H2099 0.930 . S
C2114 C2109 1.390 . S
C2114 C2113 1.387 . S
H2115 C2127 0.930 . S
H2116 C2129 0.930 . S
H2117 C2130 0.930 . S
H2118 C2134 0.959 . S
H2119 C2134 0.959 . S
H2120 C2134 0.961 . S
H2121 C2135 0.960 . S
H2122 C2135 0.961 . S
H2123 C2135 0.959 . S
H2124 C2138 0.929 . S
H2125 C2139 0.931 . S
H2126 C2141 0.930 . S
C2127 H2115 0.930 . S
C2127 C2128 1.399 . S
C2127 C2132 1.399 . S
C2128 C2127 1.399 . S
C2128 C2129 1.376 . S
C2129 H2116 0.930 . S
C2129 C2128 1.376 . S
C2129 C2130 1.388 . S
C2130 H2117 0.930 . S
C2130 C2129 1.388 . S
C2130 C2131 1.390 . S
C2131 C2130 1.390 . S
C2131 C2132 1.394 . S
C2131 C2137 1.465 . S
C2132 C2127 1.399 . S
C2132 C2131 1.394 . S
C2132 C2133 1.516 . S
C2133 C2132 1.516 . S
C2133 C2134 1.502 . S
C2133 C2135 1.561 . S
C2133 C2136 1.526 . S
C2134 H2118 0.959 . S
C2134 H2119 0.959 . S
C2134 H2120 0.961 . S
C2134 C2133 1.502 . S
C2135 H2121 0.960 . S
C2135 H2122 0.961 . S
C2135 H2123 0.959 . S
C2135 C2133 1.561 . S
C2136 C2133 1.526 . S
C2136 C2137 1.396 . S
C2136 C2141 1.390 . S
C2137 C2131 1.465 . S
C2137 C2136 1.396 . S
C2137 C2138 1.399 . S
C2138 H2124 0.929 . S
C2138 C2137 1.399 . S
C2138 C2139 1.385 . S
C2139 H2125 0.931 . S
C2139 C2138 1.385 . S
C2139 C2140 1.389 . S
C2140 C2139 1.389 . S
C2140 C2141 1.387 . S
C2141 H2126 0.930 . S
C2141 C2136 1.390 . S
C2141 C2140 1.387 . S
H2142 C2154 0.930 . S
H2143 C2156 0.930 . S
H2144 C2157 0.930 . S
H2145 C2161 0.959 . S
H2146 C2161 0.959 . S
H2147 C2161 0.961 . S
H2148 C2162 0.960 . S
H2149 C2162 0.961 . S
H2150 C2162 0.959 . S
H2151 C2165 0.929 . S
H2152 C2166 0.931 . S
H2153 C2168 0.930 . S
C2154 H2142 0.930 . S
C2154 C2155 1.399 . S
C2154 C2159 1.399 1_455 S
C2155 C2154 1.399 . S
C2155 C2156 1.376 . S
C2156 H2143 0.930 . S
C2156 C2155 1.376 . S
C2156 C2157 1.388 1_455 S
C2157 H2144 0.930 . S
C2157 C2156 1.388 1_655 S
C2157 C2158 1.390 . S
C2158 C2157 1.390 . S
C2158 C2159 1.394 . S
C2158 C2164 1.465 . S
C2159 C2154 1.399 1_655 S
C2159 C2158 1.394 . S
C2159 C2160 1.516 . S
C2160 C2159 1.516 . S
C2160 C2161 1.502 . S
C2160 C2162 1.561 . S
C2160 C2163 1.526 . S
C2161 H2145 0.959 . S
C2161 H2146 0.959 . S
C2161 H2147 0.961 . S
C2161 C2160 1.502 . S
C2162 H2148 0.960 . S
C2162 H2149 0.961 . S
C2162 H2150 0.959 . S
C2162 C2160 1.561 . S
C2163 C2160 1.526 . S
C2163 C2164 1.396 . S
C2163 C2168 1.390 . S
C2164 C2158 1.465 . S
C2164 C2163 1.396 . S
C2164 C2165 1.399 . S
C2165 H2151 0.929 . S
C2165 C2164 1.399 . S
C2165 C2166 1.385 . S
C2166 H2152 0.931 . S
C2166 C2165 1.385 . S
C2166 C2167 1.389 . S
C2167 C2166 1.389 . S
C2167 C2168 1.387 . S
C2168 H2153 0.930 . S
C2168 C2163 1.390 . S
C2168 C2167 1.387 . S
H2169 C2181 0.930 . S
H2170 C2183 0.930 . S
H2171 C2184 0.930 . S
H2172 C2188 0.959 . S
H2173 C2188 0.959 . S
H2174 C2188 0.961 . S
H2175 C2189 0.960 . S
H2176 C2189 0.961 . S
H2177 C2189 0.959 . S
H2178 C2192 0.929 . S
H2179 C2193 0.931 . S
H2180 C2195 0.930 . S
C2181 H2169 0.930 . S
C2181 C2182 1.399 . S
C2181 C2186 1.399 . S
C2182 C2181 1.399 . S
C2182 C2183 1.376 . S
C2183 H2170 0.930 . S
C2183 C2182 1.376 . S
C2183 C2184 1.388 . S
C2184 H2171 0.930 . S
C2184 C2183 1.388 . S
C2184 C2185 1.390 . S
C2185 C2184 1.390 . S
C2185 C2186 1.394 . S
C2185 C2191 1.465 . S
C2186 C2181 1.399 . S
C2186 C2185 1.394 . S
C2186 C2187 1.516 . S
C2187 C2186 1.516 . S
C2187 C2188 1.502 . S
C2187 C2189 1.561 . S
C2187 C2190 1.526 . S
C2188 H2172 0.959 . S
C2188 H2173 0.959 . S
C2188 H2174 0.961 . S
C2188 C2187 1.502 . S
C2189 H2175 0.960 . S
C2189 H2176 0.961 . S
C2189 H2177 0.959 . S
C2189 C2187 1.561 . S
C2190 C2187 1.526 . S
C2190 C2191 1.396 . S
C2190 C2195 1.390 . S
C2191 C2185 1.465 . S
C2191 C2190 1.396 . S
C2191 C2192 1.399 . S
C2192 H2178 0.929 . S
C2192 C2191 1.399 . S
C2192 C2193 1.385 . S
C2193 H2179 0.931 . S
C2193 C2192 1.385 . S
C2193 C2194 1.389 . S
C2194 C2193 1.389 . S
C2194 C2195 1.387 . S
C2195 H2180 0.930 . S
C2195 C2190 1.390 . S
C2195 C2194 1.387 . S
H2196 C2208 0.930 . S
H2197 C2210 0.930 . S
H2198 C2211 0.930 . S
H2199 C2215 0.959 . S
H2200 C2215 0.959 . S
H2201 C2215 0.961 . S
H2202 C2216 0.960 1_565 S
H2203 C2216 0.961 . S
H2204 C2216 0.959 . S
H2205 C2219 0.929 . S
H2206 C2220 0.931 . S
H2207 C2222 0.930 . S
C2208 H2196 0.930 . S
C2208 C2209 1.399 . S
C2208 C2213 1.399 1_565 S
C2209 C2208 1.399 . S
C2209 C2210 1.376 . S
C2210 H2197 0.930 . S
C2210 C2209 1.376 . S
C2210 C2211 1.388 1_565 S
C2211 H2198 0.930 . S
C2211 C2210 1.388 1_545 S
C2211 C2212 1.390 . S
C2212 C2211 1.390 . S
C2212 C2213 1.394 . S
C2212 C2218 1.465 . S
C2213 C2208 1.399 1_545 S
C2213 C2212 1.394 . S
C2213 C2214 1.516 . S
C2214 C2213 1.516 . S
C2214 C2215 1.502 . S
C2214 C2216 1.561 . S
C2214 C2217 1.526 . S
C2215 H2199 0.959 . S
C2215 H2200 0.959 . S
C2215 H2201 0.961 . S
C2215 C2214 1.502 . S
C2216 H2202 0.960 1_545 S
C2216 H2203 0.961 . S
C2216 H2204 0.959 . S
C2216 C2214 1.561 . S
C2217 C2214 1.526 . S
C2217 C2218 1.396 . S
C2217 C2222 1.390 . S
C2218 C2212 1.465 . S
C2218 C2217 1.396 . S
C2218 C2219 1.399 . S
C2219 H2205 0.929 . S
C2219 C2218 1.399 . S
C2219 C2220 1.385 . S
C2220 H2206 0.931 . S
C2220 C2219 1.385 . S
C2220 C2221 1.389 . S
C2221 C2220 1.389 . S
C2221 C2222 1.387 . S
C2222 H2207 0.930 . S
C2222 C2217 1.390 . S
C2222 C2221 1.387 . S
H2223 C2235 0.930 . S
H2224 C2237 0.930 . S
H2225 C2238 0.930 . S
H2226 C2242 0.959 . S
H2227 C2242 0.959 . S
H2228 C2242 0.961 . S
H2229 C2243 0.960 . S
H2230 C2243 0.961 . S
H2231 C2243 0.959 . S
H2232 C2246 0.929 . S
H2233 C2247 0.931 . S
H2234 C2249 0.930 . S
C2235 H2223 0.930 . S
C2235 C2236 1.399 . S
C2235 C2240 1.399 . S
C2236 C2235 1.399 . S
C2236 C2237 1.376 . S
C2237 H2224 0.930 . S
C2237 C2236 1.376 . S
C2237 C2238 1.388 . S
C2238 H2225 0.930 . S
C2238 C2237 1.388 . S
C2238 C2239 1.390 . S
C2239 C2238 1.390 . S
C2239 C2240 1.394 . S
C2239 C2245 1.465 . S
C2240 C2235 1.399 . S
C2240 C2239 1.394 . S
C2240 C2241 1.516 . S
C2241 C2240 1.516 . S
C2241 C2242 1.502 . S
C2241 C2243 1.561 . S
C2241 C2244 1.526 . S
C2242 H2226 0.959 . S
C2242 H2227 0.959 . S
C2242 H2228 0.961 . S
C2242 C2241 1.502 . S
C2243 H2229 0.960 . S
C2243 H2230 0.961 . S
C2243 H2231 0.959 . S
C2243 C2241 1.561 . S
C2244 C2241 1.526 . S
C2244 C2245 1.396 . S
C2244 C2249 1.390 . S
C2245 C2239 1.465 . S
C2245 C2244 1.396 . S
C2245 C2246 1.399 . S
C2246 H2232 0.929 . S
C2246 C2245 1.399 . S
C2246 C2247 1.385 . S
C2247 H2233 0.931 . S
C2247 C2246 1.385 . S
C2247 C2248 1.389 . S
C2248 C2247 1.389 . S
C2248 C2249 1.387 . S
C2249 H2234 0.930 . S
C2249 C2244 1.390 . S
C2249 C2248 1.387 . S
H2250 C2262 0.930 . S
H2251 C2264 0.930 . S
H2252 C2265 0.930 . S
H2253 C2269 0.959 . S
H2254 C2269 0.959 . S
H2255 C2269 0.961 . S
H2256 C2270 0.960 . S
H2257 C2270 0.961 . S
H2258 C2270 0.959 . S
H2259 C2273 0.929 . S
H2260 C2274 0.931 . S
H2261 C2276 0.930 . S
C2262 H2250 0.930 . S
C2262 C2263 1.399 . S
C2262 C2267 1.399 . S
C2263 C2262 1.399 . S
C2263 C2264 1.376 . S
C2264 H2251 0.930 . S
C2264 C2263 1.376 . S
C2264 C2265 1.388 . S
C2265 H2252 0.930 . S
C2265 C2264 1.388 . S
C2265 C2266 1.390 . S
C2266 C2265 1.390 . S
C2266 C2267 1.394 . S
C2266 C2272 1.465 . S
C2267 C2262 1.399 . S
C2267 C2266 1.394 . S
C2267 C2268 1.516 . S
C2268 C2267 1.516 . S
C2268 C2269 1.502 . S
C2268 C2270 1.561 . S
C2268 C2271 1.526 . S
C2269 H2253 0.959 . S
C2269 H2254 0.959 . S
C2269 H2255 0.961 . S
C2269 C2268 1.502 . S
C2270 H2256 0.960 . S
C2270 H2257 0.961 . S
C2270 H2258 0.959 . S
C2270 C2268 1.561 . S
C2271 C2268 1.526 . S
C2271 C2272 1.396 . S
C2271 C2276 1.390 . S
C2272 C2266 1.465 . S
C2272 C2271 1.396 . S
C2272 C2273 1.399 . S
C2273 H2259 0.929 . S
C2273 C2272 1.399 . S
C2273 C2274 1.385 . S
C2274 H2260 0.931 . S
C2274 C2273 1.385 . S
C2274 C2275 1.389 . S
C2275 C2274 1.389 . S
C2275 C2276 1.387 . S
C2276 H2261 0.930 . S
C2276 C2271 1.390 . S
C2276 C2275 1.387 . S
H2277 C2289 0.930 . S
H2278 C2291 0.930 . S
H2279 C2292 0.930 . S
H2280 C2296 0.959 . S
H2281 C2296 0.959 . S
H2282 C2296 0.961 . S
H2283 C2297 0.960 . S
H2284 C2297 0.961 . S
H2285 C2297 0.959 . S
H2286 C2300 0.929 . S
H2287 C2301 0.931 . S
H2288 C2303 0.930 . S
C2289 H2277 0.930 . S
C2289 C2290 1.399 . S
C2289 C2294 1.399 . S
C2290 C2289 1.399 . S
C2290 C2291 1.376 . S
C2291 H2278 0.930 . S
C2291 C2290 1.376 . S
C2291 C2292 1.388 . S
C2292 H2279 0.930 . S
C2292 C2291 1.388 . S
C2292 C2293 1.390 . S
C2293 C2292 1.390 . S
C2293 C2294 1.394 . S
C2293 C2299 1.465 . S
C2294 C2289 1.399 . S
C2294 C2293 1.394 . S
C2294 C2295 1.516 . S
C2295 C2294 1.516 . S
C2295 C2296 1.502 . S
C2295 C2297 1.561 . S
C2295 C2298 1.526 . S
C2296 H2280 0.959 . S
C2296 H2281 0.959 . S
C2296 H2282 0.961 . S
C2296 C2295 1.502 . S
C2297 H2283 0.960 . S
C2297 H2284 0.961 . S
C2297 H2285 0.959 . S
C2297 C2295 1.561 . S
C2298 C2295 1.526 . S
C2298 C2299 1.396 . S
C2298 C2303 1.390 . S
C2299 C2293 1.465 . S
C2299 C2298 1.396 . S
C2299 C2300 1.399 . S
C2300 H2286 0.929 . S
C2300 C2299 1.399 . S
C2300 C2301 1.385 . S
C2301 H2287 0.931 . S
C2301 C2300 1.385 . S
C2301 C2302 1.389 . S
C2302 C2301 1.389 . S
C2302 C2303 1.387 . S
C2303 H2288 0.930 . S
C2303 C2298 1.390 . S
C2303 C2302 1.387 . S
H2304 C2316 0.930 . S
H2305 C2318 0.930 . S
H2306 C2319 0.930 . S
H2307 C2323 0.959 . S
H2308 C2323 0.959 . S
H2309 C2323 0.961 . S
H2310 C2324 0.960 . S
H2311 C2324 0.961 1_545 S
H2312 C2324 0.959 1_545 S
H2313 C2327 0.929 . S
H2314 C2328 0.931 . S
H2315 C2330 0.930 . S
C2316 H2304 0.930 . S
C2316 C2317 1.399 . S
C2316 C2321 1.399 . S
C2317 C2316 1.399 . S
C2317 C2318 1.376 . S
C2318 H2305 0.930 . S
C2318 C2317 1.376 . S
C2318 C2319 1.388 . S
C2319 H2306 0.930 . S
C2319 C2318 1.388 . S
C2319 C2320 1.390 . S
C2320 C2319 1.390 . S
C2320 C2321 1.394 . S
C2320 C2326 1.465 . S
C2321 C2316 1.399 . S
C2321 C2320 1.394 . S
C2321 C2322 1.516 . S
C2322 C2321 1.516 . S
C2322 C2323 1.502 . S
C2322 C2324 1.561 . S
C2322 C2325 1.526 . S
C2323 H2307 0.959 . S
C2323 H2308 0.959 . S
C2323 H2309 0.961 . S
C2323 C2322 1.502 . S
C2324 H2310 0.960 . S
C2324 H2311 0.961 1_565 S
C2324 H2312 0.959 1_565 S
C2324 C2322 1.561 . S
C2325 C2322 1.526 . S
C2325 C2326 1.396 . S
C2325 C2330 1.390 . S
C2326 C2320 1.465 . S
C2326 C2325 1.396 . S
C2326 C2327 1.399 . S
C2327 H2313 0.929 . S
C2327 C2326 1.399 . S
C2327 C2328 1.385 . S
C2328 H2314 0.931 . S
C2328 C2327 1.385 . S
C2328 C2329 1.389 . S
C2329 C2328 1.389 . S
C2329 C2330 1.387 . S
C2330 H2315 0.930 . S
C2330 C2325 1.390 . S
C2330 C2329 1.387 . S
H2331 C2343 0.930 . S
H2332 C2345 0.930 . S
H2333 C2346 0.930 . S
H2334 C2350 0.959 . S
H2335 C2350 0.959 . S
H2336 C2350 0.961 . S
H2337 C2351 0.960 . S
H2338 C2351 0.961 . S
H2339 C2351 0.959 . S
H2340 C2354 0.929 . S
H2341 C2355 0.931 . S
H2342 C2357 0.930 . S
C2343 H2331 0.930 . S
C2343 C2344 1.399 . S
C2343 C2348 1.399 . S
C2344 C2343 1.399 . S
C2344 C2345 1.376 . S
C2345 H2332 0.930 . S
C2345 C2344 1.376 . S
C2345 C2346 1.388 . S
C2346 H2333 0.930 . S
C2346 C2345 1.388 . S
C2346 C2347 1.390 . S
C2347 C2346 1.390 . S
C2347 C2348 1.394 . S
C2347 C2353 1.465 . S
C2348 C2343 1.399 . S
C2348 C2347 1.394 . S
C2348 C2349 1.516 . S
C2349 C2348 1.516 . S
C2349 C2350 1.502 . S
C2349 C2351 1.561 . S
C2349 C2352 1.526 . S
C2350 H2334 0.959 . S
C2350 H2335 0.959 . S
C2350 H2336 0.961 . S
C2350 C2349 1.502 . S
C2351 H2337 0.960 . S
C2351 H2338 0.961 . S
C2351 H2339 0.959 . S
C2351 C2349 1.561 . S
C2352 C2349 1.526 . S
C2352 C2353 1.396 . S
C2352 C2357 1.390 . S
C2353 C2347 1.465 . S
C2353 C2352 1.396 . S
C2353 C2354 1.399 . S
C2354 H2340 0.929 . S
C2354 C2353 1.399 . S
C2354 C2355 1.385 . S
C2355 H2341 0.931 . S
C2355 C2354 1.385 . S
C2355 C2356 1.389 . S
C2356 C2355 1.389 . S
C2356 C2357 1.387 . S
C2357 H2342 0.930 . S
C2357 C2352 1.390 . S
C2357 C2356 1.387 . S
H2358 C2370 0.930 . S
H2359 C2372 0.930 . S
H2360 C2373 0.930 . S
H2361 C2377 0.959 . S
H2362 C2377 0.959 . S
H2363 C2377 0.961 . S
H2364 C2378 0.960 . S
H2365 C2378 0.961 . S
H2366 C2378 0.959 . S
H2367 C2381 0.929 . S
H2368 C2382 0.931 . S
H2369 C2384 0.930 . S
C2370 H2358 0.930 . S
C2370 C2371 1.399 . S
C2370 C2375 1.399 . S
C2371 C2370 1.399 . S
C2371 C2372 1.376 . S
C2372 H2359 0.930 . S
C2372 C2371 1.376 . S
C2372 C2373 1.388 . S
C2373 H2360 0.930 . S
C2373 C2372 1.388 . S
C2373 C2374 1.390 . S
C2374 C2373 1.390 . S
C2374 C2375 1.394 . S
C2374 C2380 1.465 . S
C2375 C2370 1.399 . S
C2375 C2374 1.394 . S
C2375 C2376 1.516 . S
C2376 C2375 1.516 . S
C2376 C2377 1.502 . S
C2376 C2378 1.561 . S
C2376 C2379 1.526 . S
C2377 H2361 0.959 . S
C2377 H2362 0.959 . S
C2377 H2363 0.961 . S
C2377 C2376 1.502 . S
C2378 H2364 0.960 . S
C2378 H2365 0.961 . S
C2378 H2366 0.959 . S
C2378 C2376 1.561 . S
C2379 C2376 1.526 . S
C2379 C2380 1.396 . S
C2379 C2384 1.390 . S
C2380 C2374 1.465 . S
C2380 C2379 1.396 . S
C2380 C2381 1.399 . S
C2381 H2367 0.929 . S
C2381 C2380 1.399 . S
C2381 C2382 1.385 . S
C2382 H2368 0.931 . S
C2382 C2381 1.385 . S
C2382 C2383 1.389 . S
C2383 C2382 1.389 . S
C2383 C2384 1.387 . S
C2384 H2369 0.930 . S
C2384 C2379 1.390 . S
C2384 C2383 1.387 . S
H2385 C2397 0.930 . S
H2386 C2399 0.930 . S
H2387 C2400 0.930 . S
H2388 C2404 0.959 . S
H2389 C2404 0.959 . S
H2390 C2404 0.961 . S
H2391 C2405 0.960 . S
H2392 C2405 0.961 . S
H2393 C2405 0.959 . S
H2394 C2408 0.929 . S
H2395 C2409 0.931 . S
H2396 C2411 0.930 . S
C2397 H2385 0.930 . S
C2397 C2398 1.399 . S
C2397 C2402 1.399 . S
C2398 C2397 1.399 . S
C2398 C2399 1.376 . S
C2399 H2386 0.930 . S
C2399 C2398 1.376 . S
C2399 C2400 1.388 . S
C2400 H2387 0.930 . S
C2400 C2399 1.388 . S
C2400 C2401 1.390 . S
C2401 C2400 1.390 . S
C2401 C2402 1.394 . S
C2401 C2407 1.465 . S
C2402 C2397 1.399 . S
C2402 C2401 1.394 . S
C2402 C2403 1.516 . S
C2403 C2402 1.516 . S
C2403 C2404 1.502 1_655 S
C2403 C2405 1.561 . S
C2403 C2406 1.526 . S
C2404 H2388 0.959 . S
C2404 H2389 0.959 . S
C2404 H2390 0.961 . S
C2404 C2403 1.502 1_455 S
C2405 H2391 0.960 . S
C2405 H2392 0.961 . S
C2405 H2393 0.959 . S
C2405 C2403 1.561 . S
C2406 C2403 1.526 . S
C2406 C2407 1.396 . S
C2406 C2411 1.390 . S
C2407 C2401 1.465 . S
C2407 C2406 1.396 . S
C2407 C2408 1.399 . S
C2408 H2394 0.929 . S
C2408 C2407 1.399 . S
C2408 C2409 1.385 . S
C2409 H2395 0.931 . S
C2409 C2408 1.385 . S
C2409 C2410 1.389 . S
C2410 C2409 1.389 . S
C2410 C2411 1.387 . S
C2411 H2396 0.930 . S
C2411 C2406 1.390 . S
C2411 C2410 1.387 . S
H2412 C2424 0.930 . S
H2413 C2426 0.930 . S
H2414 C2427 0.930 . S
H2415 C2431 0.959 . S
H2416 C2431 0.959 . S
H2417 C2431 0.961 . S
H2418 C2432 0.960 . S
H2419 C2432 0.961 . S
H2420 C2432 0.959 . S
H2421 C2435 0.929 . S
H2422 C2436 0.931 . S
H2423 C2438 0.930 . S
C2424 H2412 0.930 . S
C2424 C2425 1.399 . S
C2424 C2429 1.399 . S
C2425 C2424 1.399 . S
C2425 C2426 1.376 . S
C2426 H2413 0.930 . S
C2426 C2425 1.376 . S
C2426 C2427 1.388 . S
C2427 H2414 0.930 . S
C2427 C2426 1.388 . S
C2427 C2428 1.390 . S
C2428 C2427 1.390 . S
C2428 C2429 1.394 . S
C2428 C2434 1.465 . S
C2429 C2424 1.399 . S
C2429 C2428 1.394 . S
C2429 C2430 1.516 . S
C2430 C2429 1.516 . S
C2430 C2431 1.502 . S
C2430 C2432 1.561 . S
C2430 C2433 1.526 . S
C2431 H2415 0.959 . S
C2431 H2416 0.959 . S
C2431 H2417 0.961 . S
C2431 C2430 1.502 . S
C2432 H2418 0.960 . S
C2432 H2419 0.961 . S
C2432 H2420 0.959 . S
C2432 C2430 1.561 . S
C2433 C2430 1.526 . S
C2433 C2434 1.396 . S
C2433 C2438 1.390 . S
C2434 C2428 1.465 . S
C2434 C2433 1.396 . S
C2434 C2435 1.399 . S
C2435 H2421 0.929 . S
C2435 C2434 1.399 . S
C2435 C2436 1.385 . S
C2436 H2422 0.931 . S
C2436 C2435 1.385 . S
C2436 C2437 1.389 . S
C2437 C2436 1.389 . S
C2437 C2438 1.387 . S
C2438 H2423 0.930 . S
C2438 C2433 1.390 . S
C2438 C2437 1.387 . S
H2439 C2451 0.930 . S
H2440 C2453 0.930 . S
H2441 C2454 0.930 . S
H2442 C2458 0.959 . S
H2443 C2458 0.959 1_565 S
H2444 C2458 0.961 . S
H2445 C2459 0.960 1_565 S
H2446 C2459 0.961 1_565 S
H2447 C2459 0.959 . S
H2448 C2462 0.929 . S
H2449 C2463 0.931 . S
H2450 C2465 0.930 . S
C2451 H2439 0.930 . S
C2451 C2452 1.399 . S
C2451 C2456 1.399 . S
C2452 C2451 1.399 . S
C2452 C2453 1.376 . S
C2453 H2440 0.930 . S
C2453 C2452 1.376 . S
C2453 C2454 1.388 . S
C2454 H2441 0.930 . S
C2454 C2453 1.388 . S
C2454 C2455 1.390 . S
C2455 C2454 1.390 . S
C2455 C2456 1.394 . S
C2455 C2461 1.465 . S
C2456 C2451 1.399 . S
C2456 C2455 1.394 . S
C2456 C2457 1.516 . S
C2457 C2456 1.516 . S
C2457 C2458 1.502 . S
C2457 C2459 1.561 . S
C2457 C2460 1.526 . S
C2458 H2442 0.959 . S
C2458 H2443 0.959 1_545 S
C2458 H2444 0.961 . S
C2458 C2457 1.502 . S
C2459 H2445 0.960 1_545 S
C2459 H2446 0.961 1_545 S
C2459 H2447 0.959 . S
C2459 C2457 1.561 . S
C2460 C2457 1.526 . S
C2460 C2461 1.396 . S
C2460 C2465 1.390 . S
C2461 C2455 1.465 . S
C2461 C2460 1.396 . S
C2461 C2462 1.399 . S
C2462 H2448 0.929 . S
C2462 C2461 1.399 . S
C2462 C2463 1.385 . S
C2463 H2449 0.931 . S
C2463 C2462 1.385 . S
C2463 C2464 1.389 . S
C2464 C2463 1.389 . S
C2464 C2465 1.387 . S
C2465 H2450 0.930 . S
C2465 C2460 1.390 . S
C2465 C2464 1.387 . S
H2466 C2478 0.930 . S
H2467 C2480 0.930 . S
H2468 C2481 0.930 . S
H2469 C2485 0.959 . S
H2470 C2485 0.959 . S
H2471 C2485 0.961 . S
H2472 C2486 0.960 . S
H2473 C2486 0.961 . S
H2474 C2486 0.959 . S
H2475 C2489 0.929 . S
H2476 C2490 0.931 . S
H2477 C2492 0.930 . S
C2478 H2466 0.930 . S
C2478 C2479 1.399 . S
C2478 C2483 1.399 . S
C2479 C2478 1.399 . S
C2479 C2480 1.376 . S
C2480 H2467 0.930 . S
C2480 C2479 1.376 . S
C2480 C2481 1.388 . S
C2481 H2468 0.930 . S
C2481 C2480 1.388 . S
C2481 C2482 1.390 . S
C2482 C2481 1.390 . S
C2482 C2483 1.394 . S
C2482 C2488 1.465 . S
C2483 C2478 1.399 . S
C2483 C2482 1.394 . S
C2483 C2484 1.516 . S
C2484 C2483 1.516 . S
C2484 C2485 1.502 . S
C2484 C2486 1.561 . S
C2484 C2487 1.526 . S
C2485 H2469 0.959 . S
C2485 H2470 0.959 . S
C2485 H2471 0.961 . S
C2485 C2484 1.502 . S
C2486 H2472 0.960 . S
C2486 H2473 0.961 . S
C2486 H2474 0.959 . S
C2486 C2484 1.561 . S
C2487 C2484 1.526 . S
C2487 C2488 1.396 . S
C2487 C2492 1.390 . S
C2488 C2482 1.465 . S
C2488 C2487 1.396 . S
C2488 C2489 1.399 . S
C2489 H2475 0.929 . S
C2489 C2488 1.399 . S
C2489 C2490 1.385 . S
C2490 H2476 0.931 . S
C2490 C2489 1.385 . S
C2490 C2491 1.389 . S
C2491 C2490 1.389 . S
C2491 C2492 1.387 . S
C2492 H2477 0.930 . S
C2492 C2487 1.390 . S
C2492 C2491 1.387 . S
H2493 C2505 0.930 . S
H2494 C2507 0.930 . S
H2495 C2508 0.930 . S
H2496 C2512 0.959 . S
H2497 C2512 0.959 . S
H2498 C2512 0.961 . S
H2499 C2513 0.960 . S
H2500 C2513 0.961 . S
H2501 C2513 0.959 . S
H2502 C2516 0.929 . S
H2503 C2517 0.931 . S
H2504 C2519 0.930 . S
C2505 H2493 0.930 . S
C2505 C2506 1.399 . S
C2505 C2510 1.399 . S
C2506 C2505 1.399 . S
C2506 C2507 1.376 . S
C2507 H2494 0.930 . S
C2507 C2506 1.376 . S
C2507 C2508 1.388 . S
C2508 H2495 0.930 . S
C2508 C2507 1.388 . S
C2508 C2509 1.390 . S
C2509 C2508 1.390 . S
C2509 C2510 1.394 . S
C2509 C2515 1.465 . S
C2510 C2505 1.399 . S
C2510 C2509 1.394 . S
C2510 C2511 1.516 . S
C2511 C2510 1.516 . S
C2511 C2512 1.502 . S
C2511 C2513 1.561 . S
C2511 C2514 1.526 . S
C2512 H2496 0.959 . S
C2512 H2497 0.959 . S
C2512 H2498 0.961 . S
C2512 C2511 1.502 . S
C2513 H2499 0.960 . S
C2513 H2500 0.961 . S
C2513 H2501 0.959 . S
C2513 C2511 1.561 . S
C2514 C2511 1.526 . S
C2514 C2515 1.396 . S
C2514 C2519 1.390 . S
C2515 C2509 1.465 . S
C2515 C2514 1.396 . S
C2515 C2516 1.399 . S
C2516 H2502 0.929 . S
C2516 C2515 1.399 . S
C2516 C2517 1.385 . S
C2517 H2503 0.931 . S
C2517 C2516 1.385 . S
C2517 C2518 1.389 . S
C2518 C2517 1.389 . S
C2518 C2519 1.387 . S
C2519 H2504 0.930 . S
C2519 C2514 1.390 . S
C2519 C2518 1.387 . S
H2520 C2532 0.930 . S
H2521 C2534 0.930 . S
H2522 C2535 0.930 . S
H2523 C2539 0.959 . S
H2524 C2539 0.959 . S
H2525 C2539 0.961 . S
H2526 C2540 0.960 . S
H2527 C2540 0.961 . S
H2528 C2540 0.959 . S
H2529 C2543 0.929 . S
H2530 C2544 0.931 . S
H2531 C2546 0.930 . S
C2532 H2520 0.930 . S
C2532 C2533 1.399 . S
C2532 C2537 1.399 . S
C2533 C2532 1.399 . S
C2533 C2534 1.376 . S
C2534 H2521 0.930 . S
C2534 C2533 1.376 . S
C2534 C2535 1.388 . S
C2535 H2522 0.930 . S
C2535 C2534 1.388 . S
C2535 C2536 1.390 . S
C2536 C2535 1.390 . S
C2536 C2537 1.394 . S
C2536 C2542 1.465 . S
C2537 C2532 1.399 . S
C2537 C2536 1.394 . S
C2537 C2538 1.516 . S
C2538 C2537 1.516 . S
C2538 C2539 1.502 . S
C2538 C2540 1.561 . S
C2538 C2541 1.526 . S
C2539 H2523 0.959 . S
C2539 H2524 0.959 . S
C2539 H2525 0.961 . S
C2539 C2538 1.502 . S
C2540 H2526 0.960 . S
C2540 H2527 0.961 . S
C2540 H2528 0.959 . S
C2540 C2538 1.561 . S
C2541 C2538 1.526 . S
C2541 C2542 1.396 . S
C2541 C2546 1.390 . S
C2542 C2536 1.465 . S
C2542 C2541 1.396 . S
C2542 C2543 1.399 . S
C2543 H2529 0.929 . S
C2543 C2542 1.399 . S
C2543 C2544 1.385 . S
C2544 H2530 0.931 . S
C2544 C2543 1.385 . S
C2544 C2545 1.389 . S
C2545 C2544 1.389 . S
C2545 C2546 1.387 . S
C2546 H2531 0.930 . S
C2546 C2541 1.390 . S
C2546 C2545 1.387 . S
H2547 C2559 0.930 . S
H2548 C2561 0.930 . S
H2549 C2562 0.930 . S
H2550 C2566 0.959 . S
H2551 C2566 0.959 . S
H2552 C2566 0.961 . S
H2553 C2567 0.960 . S
H2554 C2567 0.961 . S
H2555 C2567 0.959 . S
H2556 C2570 0.929 . S
H2557 C2571 0.931 . S
H2558 C2573 0.930 . S
C2559 H2547 0.930 . S
C2559 C2560 1.399 . S
C2559 C2564 1.399 . S
C2560 C2559 1.399 . S
C2560 C2561 1.376 . S
C2561 H2548 0.930 . S
C2561 C2560 1.376 . S
C2561 C2562 1.388 . S
C2562 H2549 0.930 . S
C2562 C2561 1.388 . S
C2562 C2563 1.390 . S
C2563 C2562 1.390 . S
C2563 C2564 1.394 . S
C2563 C2569 1.465 . S
C2564 C2559 1.399 . S
C2564 C2563 1.394 . S
C2564 C2565 1.516 . S
C2565 C2564 1.516 . S
C2565 C2566 1.502 . S
C2565 C2567 1.561 . S
C2565 C2568 1.526 . S
C2566 H2550 0.959 . S
C2566 H2551 0.959 . S
C2566 H2552 0.961 . S
C2566 C2565 1.502 . S
C2567 H2553 0.960 . S
C2567 H2554 0.961 . S
C2567 H2555 0.959 . S
C2567 C2565 1.561 . S
C2568 C2565 1.526 . S
C2568 C2569 1.396 . S
C2568 C2573 1.390 . S
C2569 C2563 1.465 . S
C2569 C2568 1.396 . S
C2569 C2570 1.399 . S
C2570 H2556 0.929 . S
C2570 C2569 1.399 . S
C2570 C2571 1.385 . S
C2571 H2557 0.931 . S
C2571 C2570 1.385 . S
C2571 C2572 1.389 . S
C2572 C2571 1.389 . S
C2572 C2573 1.387 . S
C2573 H2558 0.930 . S
C2573 C2568 1.390 . S
C2573 C2572 1.387 . S
H2574 C2586 0.930 . S
H2575 C2588 0.930 . S
H2576 C2589 0.930 . S
H2577 C2593 0.959 . S
H2578 C2593 0.959 . S
H2579 C2593 0.961 . S
H2580 C2594 0.960 . S
H2581 C2594 0.961 . S
H2582 C2594 0.959 . S
H2583 C2597 0.929 . S
H2584 C2598 0.931 . S
H2585 C2600 0.930 . S
C2586 H2574 0.930 . S
C2586 C2587 1.399 . S
C2586 C2591 1.399 . S
C2587 C2586 1.399 . S
C2587 C2588 1.376 . S
C2588 H2575 0.930 . S
C2588 C2587 1.376 . S
C2588 C2589 1.388 . S
C2589 H2576 0.930 . S
C2589 C2588 1.388 . S
C2589 C2590 1.390 . S
C2590 C2589 1.390 . S
C2590 C2591 1.394 . S
C2590 C2596 1.465 . S
C2591 C2586 1.399 . S
C2591 C2590 1.394 . S
C2591 C2592 1.516 . S
C2592 C2591 1.516 . S
C2592 C2593 1.502 . S
C2592 C2594 1.561 . S
C2592 C2595 1.526 . S
C2593 H2577 0.959 . S
C2593 H2578 0.959 . S
C2593 H2579 0.961 . S
C2593 C2592 1.502 . S
C2594 H2580 0.960 . S
C2594 H2581 0.961 . S
C2594 H2582 0.959 . S
C2594 C2592 1.561 . S
C2595 C2592 1.526 . S
C2595 C2596 1.396 . S
C2595 C2600 1.390 . S
C2596 C2590 1.465 . S
C2596 C2595 1.396 . S
C2596 C2597 1.399 . S
C2597 H2583 0.929 . S
C2597 C2596 1.399 . S
C2597 C2598 1.385 . S
C2598 H2584 0.931 . S
C2598 C2597 1.385 . S
C2598 C2599 1.389 . S
C2599 C2598 1.389 . S
C2599 C2600 1.387 . S
C2600 H2585 0.930 . S
C2600 C2595 1.390 . S
C2600 C2599 1.387 . S
H2601 C2613 0.930 . S
H2602 C2615 0.930 . S
H2603 C2616 0.930 . S
H2604 C2620 0.959 . S
H2605 C2620 0.959 . S
H2606 C2620 0.961 . S
H2607 C2621 0.960 . S
H2608 C2621 0.961 . S
H2609 C2621 0.959 . S
H2610 C2624 0.929 . S
H2611 C2625 0.931 . S
H2612 C2627 0.930 . S
C2613 H2601 0.930 . S
C2613 C2614 1.399 . S
C2613 C2618 1.399 . S
C2614 C2613 1.399 . S
C2614 C2615 1.376 . S
C2615 H2602 0.930 . S
C2615 C2614 1.376 . S
C2615 C2616 1.388 . S
C2616 H2603 0.930 . S
C2616 C2615 1.388 . S
C2616 C2617 1.390 . S
C2617 C2616 1.390 . S
C2617 C2618 1.394 . S
C2617 C2623 1.465 . S
C2618 C2613 1.399 . S
C2618 C2617 1.394 . S
C2618 C2619 1.516 . S
C2619 C2618 1.516 . S
C2619 C2620 1.502 . S
C2619 C2621 1.561 . S
C2619 C2622 1.526 . S
C2620 H2604 0.959 . S
C2620 H2605 0.959 . S
C2620 H2606 0.961 . S
C2620 C2619 1.502 . S
C2621 H2607 0.960 . S
C2621 H2608 0.961 . S
C2621 H2609 0.959 . S
C2621 C2619 1.561 . S
C2622 C2619 1.526 . S
C2622 C2623 1.396 . S
C2622 C2627 1.390 . S
C2623 C2617 1.465 . S
C2623 C2622 1.396 . S
C2623 C2624 1.399 . S
C2624 H2610 0.929 . S
C2624 C2623 1.399 . S
C2624 C2625 1.385 . S
C2625 H2611 0.931 . S
C2625 C2624 1.385 . S
C2625 C2626 1.389 . S
C2626 C2625 1.389 . S
C2626 C2627 1.387 . S
C2627 H2612 0.930 . S
C2627 C2622 1.390 . S
C2627 C2626 1.387 . S
H2628 C2640 0.930 . S
H2629 C2642 0.930 . S
H2630 C2643 0.930 . S
H2631 C2647 0.959 . S
H2632 C2647 0.959 . S
H2633 C2647 0.961 . S
H2634 C2648 0.960 . S
H2635 C2648 0.961 . S
H2636 C2648 0.959 . S
H2637 C2651 0.929 . S
H2638 C2652 0.931 . S
H2639 C2654 0.930 . S
C2640 H2628 0.930 . S
C2640 C2641 1.399 . S
C2640 C2645 1.399 . S
C2641 C2640 1.399 . S
C2641 C2642 1.376 . S
C2642 H2629 0.930 . S
C2642 C2641 1.376 . S
C2642 C2643 1.388 . S
C2643 H2630 0.930 . S
C2643 C2642 1.388 . S
C2643 C2644 1.390 . S
C2644 C2643 1.390 . S
C2644 C2645 1.394 . S
C2644 C2650 1.465 . S
C2645 C2640 1.399 . S
C2645 C2644 1.394 . S
C2645 C2646 1.516 . S
C2646 C2645 1.516 . S
C2646 C2647 1.502 . S
C2646 C2648 1.561 . S
C2646 C2649 1.526 . S
C2647 H2631 0.959 . S
C2647 H2632 0.959 . S
C2647 H2633 0.961 . S
C2647 C2646 1.502 . S
C2648 H2634 0.960 . S
C2648 H2635 0.961 . S
C2648 H2636 0.959 . S
C2648 C2646 1.561 . S
C2649 C2646 1.526 . S
C2649 C2650 1.396 . S
C2649 C2654 1.390 . S
C2650 C2644 1.465 . S
C2650 C2649 1.396 . S
C2650 C2651 1.399 . S
C2651 H2637 0.929 . S
C2651 C2650 1.399 . S
C2651 C2652 1.385 . S
C2652 H2638 0.931 . S
C2652 C2651 1.385 . S
C2652 C2653 1.389 . S
C2653 C2652 1.389 . S
C2653 C2654 1.387 . S
C2654 H2639 0.930 . S
C2654 C2649 1.390 . S
C2654 C2653 1.387 . S
H2655 C2667 0.930 . S
H2656 C2669 0.930 . S
H2657 C2670 0.930 . S
H2658 C2674 0.959 . S
H2659 C2674 0.959 . S
H2660 C2674 0.961 . S
H2661 C2675 0.960 . S
H2662 C2675 0.961 . S
H2663 C2675 0.959 . S
H2664 C2678 0.929 . S
H2665 C2679 0.931 . S
H2666 C2681 0.930 . S
C2667 H2655 0.930 . S
C2667 C2668 1.399 . S
C2667 C2672 1.399 . S
C2668 C2667 1.399 . S
C2668 C2669 1.376 . S
C2669 H2656 0.930 . S
C2669 C2668 1.376 . S
C2669 C2670 1.388 . S
C2670 H2657 0.930 . S
C2670 C2669 1.388 . S
C2670 C2671 1.390 . S
C2671 C2670 1.390 . S
C2671 C2672 1.394 . S
C2671 C2677 1.465 . S
C2672 C2667 1.399 . S
C2672 C2671 1.394 . S
C2672 C2673 1.516 . S
C2673 C2672 1.516 . S
C2673 C2674 1.502 . S
C2673 C2675 1.561 . S
C2673 C2676 1.526 . S
C2674 H2658 0.959 . S
C2674 H2659 0.959 . S
C2674 H2660 0.961 . S
C2674 C2673 1.502 . S
C2675 H2661 0.960 . S
C2675 H2662 0.961 . S
C2675 H2663 0.959 . S
C2675 C2673 1.561 . S
C2676 C2673 1.526 . S
C2676 C2677 1.396 . S
C2676 C2681 1.390 . S
C2677 C2671 1.465 . S
C2677 C2676 1.396 . S
C2677 C2678 1.399 . S
C2678 H2664 0.929 . S
C2678 C2677 1.399 . S
C2678 C2679 1.385 . S
C2679 H2665 0.931 . S
C2679 C2678 1.385 . S
C2679 C2680 1.389 . S
C2680 C2679 1.389 . S
C2680 C2681 1.387 . S
C2681 H2666 0.930 . S
C2681 C2676 1.390 . S
C2681 C2680 1.387 . S
H2682 C2694 0.930 . S
H2683 C2696 0.930 . S
H2684 C2697 0.930 . S
H2685 C2701 0.959 . S
H2686 C2701 0.959 . S
H2687 C2701 0.961 . S
H2688 C2702 0.960 . S
H2689 C2702 0.961 . S
H2690 C2702 0.959 . S
H2691 C2705 0.929 . S
H2692 C2706 0.931 . S
H2693 C2708 0.930 . S
C2694 H2682 0.930 . S
C2694 C2695 1.399 . S
C2694 C2699 1.399 . S
C2695 C2694 1.399 . S
C2695 C2696 1.376 . S
C2696 H2683 0.930 . S
C2696 C2695 1.376 . S
C2696 C2697 1.388 . S
C2697 H2684 0.930 . S
C2697 C2696 1.388 . S
C2697 C2698 1.390 . S
C2698 C2697 1.390 . S
C2698 C2699 1.394 . S
C2698 C2704 1.465 . S
C2699 C2694 1.399 . S
C2699 C2698 1.394 . S
C2699 C2700 1.516 . S
C2700 C2699 1.516 . S
C2700 C2701 1.502 . S
C2700 C2702 1.561 . S
C2700 C2703 1.526 . S
C2701 H2685 0.959 . S
C2701 H2686 0.959 . S
C2701 H2687 0.961 . S
C2701 C2700 1.502 . S
C2702 H2688 0.960 . S
C2702 H2689 0.961 . S
C2702 H2690 0.959 . S
C2702 C2700 1.561 . S
C2703 C2700 1.526 . S
C2703 C2704 1.396 . S
C2703 C2708 1.390 . S
C2704 C2698 1.465 . S
C2704 C2703 1.396 . S
C2704 C2705 1.399 . S
C2705 H2691 0.929 . S
C2705 C2704 1.399 . S
C2705 C2706 1.385 . S
C2706 H2692 0.931 . S
C2706 C2705 1.385 . S
C2706 C2707 1.389 . S
C2707 C2706 1.389 . S
C2707 C2708 1.387 . S
C2708 H2693 0.930 . S
C2708 C2703 1.390 . S
C2708 C2707 1.387 . S
H2709 C2721 0.930 . S
H2710 C2723 0.930 . S
H2711 C2724 0.930 . S
H2712 C2728 0.959 . S
H2713 C2728 0.959 . S
H2714 C2728 0.961 . S
H2715 C2729 0.960 . S
H2716 C2729 0.961 . S
H2717 C2729 0.959 . S
H2718 C2732 0.929 . S
H2719 C2733 0.931 . S
H2720 C2735 0.930 . S
C2721 H2709 0.930 . S
C2721 C2722 1.399 . S
C2721 C2726 1.399 . S
C2722 C2721 1.399 . S
C2722 C2723 1.376 . S
C2723 H2710 0.930 . S
C2723 C2722 1.376 . S
C2723 C2724 1.388 . S
C2724 H2711 0.930 . S
C2724 C2723 1.388 . S
C2724 C2725 1.390 . S
C2725 C2724 1.390 . S
C2725 C2726 1.394 . S
C2725 C2731 1.465 . S
C2726 C2721 1.399 . S
C2726 C2725 1.394 . S
C2726 C2727 1.516 . S
C2727 C2726 1.516 . S
C2727 C2728 1.502 . S
C2727 C2729 1.561 . S
C2727 C2730 1.526 . S
C2728 H2712 0.959 . S
C2728 H2713 0.959 . S
C2728 H2714 0.961 . S
C2728 C2727 1.502 . S
C2729 H2715 0.960 . S
C2729 H2716 0.961 . S
C2729 H2717 0.959 . S
C2729 C2727 1.561 . S
C2730 C2727 1.526 . S
C2730 C2731 1.396 . S
C2730 C2735 1.390 . S
C2731 C2725 1.465 . S
C2731 C2730 1.396 . S
C2731 C2732 1.399 . S
C2732 H2718 0.929 . S
C2732 C2731 1.399 . S
C2732 C2733 1.385 . S
C2733 H2719 0.931 . S
C2733 C2732 1.385 . S
C2733 C2734 1.389 . S
C2734 C2733 1.389 . S
C2734 C2735 1.387 . S
C2735 H2720 0.930 . S
C2735 C2730 1.390 . S
C2735 C2734 1.387 . S
H2736 C2748 0.930 . S
H2737 C2750 0.930 . S
H2738 C2751 0.930 . S
H2739 C2755 0.959 . S
H2740 C2755 0.959 . S
H2741 C2755 0.961 . S
H2742 C2756 0.960 . S
H2743 C2756 0.961 . S
H2744 C2756 0.959 . S
H2745 C2759 0.929 . S
H2746 C2760 0.931 . S
H2747 C2762 0.930 . S
C2748 H2736 0.930 . S
C2748 C2749 1.399 . S
C2748 C2753 1.399 . S
C2749 C2748 1.399 . S
C2749 C2750 1.376 . S
C2750 H2737 0.930 . S
C2750 C2749 1.376 . S
C2750 C2751 1.388 . S
C2751 H2738 0.930 . S
C2751 C2750 1.388 . S
C2751 C2752 1.390 . S
C2752 C2751 1.390 . S
C2752 C2753 1.394 . S
C2752 C2758 1.465 . S
C2753 C2748 1.399 . S
C2753 C2752 1.394 . S
C2753 C2754 1.516 . S
C2754 C2753 1.516 . S
C2754 C2755 1.502 . S
C2754 C2756 1.561 . S
C2754 C2757 1.526 . S
C2755 H2739 0.959 . S
C2755 H2740 0.959 . S
C2755 H2741 0.961 . S
C2755 C2754 1.502 . S
C2756 H2742 0.960 . S
C2756 H2743 0.961 . S
C2756 H2744 0.959 . S
C2756 C2754 1.561 . S
C2757 C2754 1.526 . S
C2757 C2758 1.396 . S
C2757 C2762 1.390 . S
C2758 C2752 1.465 . S
C2758 C2757 1.396 . S
C2758 C2759 1.399 . S
C2759 H2745 0.929 . S
C2759 C2758 1.399 . S
C2759 C2760 1.385 . S
C2760 H2746 0.931 . S
C2760 C2759 1.385 . S
C2760 C2761 1.389 . S
C2761 C2760 1.389 . S
C2761 C2762 1.387 . S
C2762 H2747 0.930 . S
C2762 C2757 1.390 . S
C2762 C2761 1.387 . S
H2763 C2775 0.930 . S
H2764 C2777 0.930 . S
H2765 C2778 0.930 . S
H2766 C2782 0.959 . S
H2767 C2782 0.959 . S
H2768 C2782 0.961 . S
H2769 C2783 0.960 . S
H2770 C2783 0.961 . S
H2771 C2783 0.959 . S
H2772 C2786 0.929 . S
H2773 C2787 0.931 . S
H2774 C2789 0.930 . S
C2775 H2763 0.930 . S
C2775 C2776 1.399 . S
C2775 C2780 1.399 . S
C2776 C2775 1.399 . S
C2776 C2777 1.376 . S
C2777 H2764 0.930 . S
C2777 C2776 1.376 . S
C2777 C2778 1.388 . S
C2778 H2765 0.930 . S
C2778 C2777 1.388 . S
C2778 C2779 1.390 . S
C2779 C2778 1.390 . S
C2779 C2780 1.394 . S
C2779 C2785 1.465 . S
C2780 C2775 1.399 . S
C2780 C2779 1.394 . S
C2780 C2781 1.516 . S
C2781 C2780 1.516 . S
C2781 C2782 1.502 . S
C2781 C2783 1.561 . S
C2781 C2784 1.526 . S
C2782 H2766 0.959 . S
C2782 H2767 0.959 . S
C2782 H2768 0.961 . S
C2782 C2781 1.502 . S
C2783 H2769 0.960 . S
C2783 H2770 0.961 . S
C2783 H2771 0.959 . S
C2783 C2781 1.561 . S
C2784 C2781 1.526 . S
C2784 C2785 1.396 . S
C2784 C2789 1.390 . S
C2785 C2779 1.465 . S
C2785 C2784 1.396 . S
C2785 C2786 1.399 . S
C2786 H2772 0.929 . S
C2786 C2785 1.399 . S
C2786 C2787 1.385 . S
C2787 H2773 0.931 . S
C2787 C2786 1.385 . S
C2787 C2788 1.389 . S
C2788 C2787 1.389 . S
C2788 C2789 1.387 . S
C2789 H2774 0.930 . S
C2789 C2784 1.390 . S
C2789 C2788 1.387 . S
C1345 C439 1.342 . S
C1357 C643 1.373 . S
C1372 C465 1.508 . S
C1384 C727 1.406 . S
C1399 C401 1.470 . S
C1411 C807 1.433 . S
C1426 C369 1.417 . S
C1438 C723 1.382 . S
C1465 C811 1.424 . S
C1453 C305 1.448 . S
C1480 C343 1.342 . S
C1492 C639 1.300 . S
C1519 C632 1.332 . S
C1507 C375 1.444 . S
C1546 C716 1.410 . S
C1534 C311 1.487 . S
C1561 C337 1.399 . S
C1573 C818 1.428 . S
C1588 C433 1.412 . S
C1600 C734 1.364 . S
C1615 C471 1.393 . S
C1627 C800 1.342 . S
C1654 C650 1.326 . S
C1642 C407 1.393 . S
C1681 C895 1.365 . S
C1669 C55 1.312 . S
C1696 C81 1.517 . S
C1708 C979 1.440 . S
C1723 C17 1.466 . S
C1735 C1059 1.420 . S
C1750 C561 1.413 . S
C1762 C975 1.373 . S
C1777 C497 1.460 . S
C1789 C1063 1.371 . S
C1804 C535 1.344 . S
C1816 C891 1.315 . S
C1831 C567 1.445 . S
C1843 C884 1.336 . S
C1858 C503 1.481 . S
C1870 C968 1.372 . S
C1897 C1070 1.408 . S
C1885 C529 1.438 . S
C1912 C49 1.360 . S
C1924 C986 1.403 . S
C1951 C1052 1.348 . S
C1939 C87 1.392 . S
C1966 C23 1.416 . S
C1978 C902 1.387 . S
C2005 C1147 1.280 . S
C1993 C247 1.365 . S
C2020 C273 1.491 . S
C2032 C1231 1.464 . S
C2059 C1311 1.456 . S
C2047 C209 1.476 . S
C2086 C1227 1.375 . S
C2074 C177 1.418 . S
C2113 C1315 1.380 . S
C2101 C113 1.461 . S
C2128 C151 1.341 . S
C2140 C1143 1.319 . S
C2155 C183 1.433 . S
C2167 C1136 1.408 . S
C2182 C119 1.484 . S
C2194 C1220 1.430 . S
C2221 C1322 1.458 . S
C2209 C145 1.377 . S
C2236 C241 1.348 . S
C2248 C1238 1.417 . S
C2263 C279 1.401 . S
C2275 C1304 1.309 . S
C2290 C215 1.393 . S
C2302 C1154 1.325 . S
C2317 C509 1.433 . S
C2329 C646 1.393 . S
C2356 C730 1.332 . S
C2344 C541 1.416 . S
C2371 C573 1.473 . S
C2383 C802 1.397 . S
C2398 C221 1.511 . S
C2410 C718 1.422 . S
C2425 C253 1.386 . S
C2437 C814 1.353 . S
C2464 C634 1.394 . S
C2452 C285 1.456 . S
C2479 C125 1.461 . S
C2491 C898 1.414 . S
C2506 C157 1.421 . S
C2518 C982 1.321 . S
C2533 C189 1.479 . S
C2545 C1054 1.402 . S
C2560 C413 1.511 . S
C2572 C970 1.422 . S
C2599 C1066 1.301 . S
C2587 C445 1.403 . S
C2614 C477 1.424 . S
C2626 C886 1.322 . S
C2641 C317 1.418 . S
C2653 C1150 1.300 . S
C2668 C349 1.422 . S
C2680 C1234 1.320 . S
C2707 C1306 1.291 . S
C2695 C381 1.423 . S
C2722 C29 1.460 . S
C2734 C1222 1.302 . S
C2749 C61 1.414 . S
C2761 C1318 1.282 . S
C2776 C93 1.445 . S
C2788 C1138 1.358 . S
