# Generated by pormake.
# Topology hwx, (6,3)-cn, num edge types: 1
# Building blocks:
#     Node 0, Type 0, BuildingBlock: OJICUG_clean_sbu_0, # of connection points: 6
#     Node 1, Type 0, BuildingBlock: OJICUG_clean_sbu_0, # of connection points: 6
#     Node 2, Type 0, BuildingBlock: OJICUG_clean_sbu_0, # of connection points: 6
#     Node 3, Type 0, BuildingBlock: OJICUG_clean_sbu_0, # of connection points: 6
#     Node 4, Type 1, BuildingBlock: ESEHIV_clean_linker_0, # of connection points: 3
#     Node 5, Type 1, BuildingBlock: ESEHIV_clean_linker_0, # of connection points: 3
#     Node 6, Type 1, BuildingBlock: ESEHIV_clean_linker_0, # of connection points: 3
#     Node 7, Type 1, BuildingBlock: ESEHIV_clean_linker_0, # of connection points: 3
#     Node 8, Type 1, BuildingBlock: ESEHIV_clean_linker_0, # of connection points: 3
#     Node 9, Type 1, BuildingBlock: ESEHIV_clean_linker_0, # of connection points: 3
#     Node 10, Type 1, BuildingBlock: ESEHIV_clean_linker_0, # of connection points: 3
#     Node 11, Type 1, BuildingBlock: ESEHIV_clean_linker_0, # of connection points: 3
#     Edge 12, Type (0, 1), BuildingBlock: TEMPAE_clean_linker_10, # of connection points: 2
#     Edge 13, Type (0, 1), BuildingBlock: TEMPAE_clean_linker_10, # of connection points: 2
#     Edge 14, Type (0, 1), BuildingBlock: TEMPAE_clean_linker_10, # of connection points: 2
#     Edge 15, Type (0, 1), BuildingBlock: TEMPAE_clean_linker_10, # of connection points: 2
#     Edge 16, Type (0, 1), BuildingBlock: TEMPAE_clean_linker_10, # of connection points: 2
#     Edge 17, Type (0, 1), BuildingBlock: TEMPAE_clean_linker_10, # of connection points: 2
#     Edge 18, Type (0, 1), BuildingBlock: TEMPAE_clean_linker_10, # of connection points: 2
#     Edge 19, Type (0, 1), BuildingBlock: TEMPAE_clean_linker_10, # of connection points: 2
#     Edge 20, Type (0, 1), BuildingBlock: TEMPAE_clean_linker_10, # of connection points: 2
#     Edge 21, Type (0, 1), BuildingBlock: TEMPAE_clean_linker_10, # of connection points: 2
#     Edge 22, Type (0, 1), BuildingBlock: TEMPAE_clean_linker_10, # of connection points: 2
#     Edge 23, Type (0, 1), BuildingBlock: TEMPAE_clean_linker_10, # of connection points: 2
#     Edge 24, Type (0, 1), BuildingBlock: TEMPAE_clean_linker_10, # of connection points: 2
#     Edge 25, Type (0, 1), BuildingBlock: TEMPAE_clean_linker_10, # of connection points: 2
#     Edge 26, Type (0, 1), BuildingBlock: TEMPAE_clean_linker_10, # of connection points: 2
#     Edge 27, Type (0, 1), BuildingBlock: TEMPAE_clean_linker_10, # of connection points: 2
#     Edge 28, Type (0, 1), BuildingBlock: TEMPAE_clean_linker_10, # of connection points: 2
#     Edge 29, Type (0, 1), BuildingBlock: TEMPAE_clean_linker_10, # of connection points: 2
#     Edge 30, Type (0, 1), BuildingBlock: TEMPAE_clean_linker_10, # of connection points: 2
#     Edge 31, Type (0, 1), BuildingBlock: TEMPAE_clean_linker_10, # of connection points: 2
#     Edge 32, Type (0, 1), BuildingBlock: TEMPAE_clean_linker_10, # of connection points: 2
#     Edge 33, Type (0, 1), BuildingBlock: TEMPAE_clean_linker_10, # of connection points: 2
#     Edge 34, Type (0, 1), BuildingBlock: TEMPAE_clean_linker_10, # of connection points: 2
#     Edge 35, Type (0, 1), BuildingBlock: TEMPAE_clean_linker_10, # of connection points: 2
# Relax obj value: 0.076
# Max RMSD: 0.101
# Mean RMSD: 0.093
data_MOF--net-hwx--node1-OJICUG_clean_sbu_0--node2-ESEHIV_clean_linker_0--edge1-TEMPAE_clean_linker_10
_symmetry_space_group_name_H-M    P1
_symmetry_Int_Tables_number       1
_symmetry_cell_setting            triclinic
loop_
_symmetry_equiv_pos_as_xyz
'x, y, z'
_cell_length_a     47.921947
_cell_length_b     47.871964
_cell_length_c     21.669465
_cell_angle_alpha  89.887839
_cell_angle_beta   90.095061
_cell_angle_gamma 89.963602
loop_
_atom_site_label
_atom_site_type_symbol
_atom_site_fract_x
_atom_site_fract_y
_atom_site_fract_z
_atom_type_partial_charge
Sc0 Sc 0.20752 0.20911 0.09985 0.0
Sc1 Sc 0.16114 0.16258 0.02635 0.0
Sc2 Sc 0.20714 0.2037 0.93838 0.0
O3 O 0.19194 0.19175 0.02159 0.0
C4 C 0.20455 0.26161 0.01112 0.0
C5 C 0.14243 0.20505 0.13088 0.0
C6 C 0.14209 0.19971 0.91118 0.0
C7 C 0.2012 0.14537 0.13841 0.0
C8 C 0.26247 0.20166 0.01778 0.0
C9 C 0.199 0.13804 0.91921 0.0
O10 O 0.20293 0.25078 0.06454 0.0
O11 O 0.13686 0.18698 0.08985 0.0
O12 O 0.16615 0.2099 0.90143 0.0
O13 O 0.21317 0.16899 0.14267 0.0
O14 O 0.24954 0.19857 0.96713 0.0
O15 O 0.18188 0.13475 0.9633 0.0
O16 O 0.25023 0.20688 0.0685 0.0
O17 O 0.18164 0.14046 0.10021 0.0
O18 O 0.20884 0.16174 0.9044 0.0
O19 O 0.167 0.21392 0.14082 0.0
O20 O 0.20753 0.2473 0.96226 0.0
O21 O 0.13732 0.18171 0.95309 0.0
Sc22 Sc 0.28389 0.70575 0.40484 0.0
Sc23 Sc 0.33103 0.6586 0.47264 0.0
Sc24 Sc 0.28615 0.69875 0.56487 0.0
O25 O 0.30042 0.68763 0.48074 0.0
C26 C 0.28649 0.75723 0.49324 0.0
C27 C 0.34854 0.70138 0.36897 0.0
C28 C 0.35108 0.69563 0.58796 0.0
C29 C 0.28922 0.64306 0.36264 0.0
C30 C 0.23011 0.6969 0.49022 0.0
C31 C 0.29626 0.63325 0.58214 0.0
O32 O 0.29074 0.74702 0.44004 0.0
O33 O 0.35512 0.68455 0.41196 0.0
O34 O 0.32761 0.70743 0.59633 0.0
O35 O 0.27566 0.66584 0.36425 0.0
O36 O 0.24354 0.69074 0.53905 0.0
O37 O 0.30977 0.62954 0.53248 0.0
O38 O 0.24201 0.70502 0.44095 0.0
O39 O 0.3109 0.63831 0.39508 0.0
O40 O 0.28854 0.65709 0.60108 0.0
O41 O 0.32353 0.70899 0.35884 0.0
O42 O 0.28198 0.74221 0.54061 0.0
O43 O 0.35477 0.67619 0.54863 0.0
Sc44 Sc 0.78762 0.78938 0.92226 0.0
Sc45 Sc 0.83683 0.82613 0.0107 0.0
Sc46 Sc 0.78488 0.78583 0.08367 0.0
O47 O 0.80312 0.80045 0.00574 0.0
C48 C 0.73135 0.79419 0.0001 0.0
C49 C 0.79984 0.85336 0.90285 0.0
C50 C 0.79811 0.84944 0.11815 0.0
C51 C 0.85329 0.78931 0.89659 0.0
C52 C 0.7864 0.73219 0.99532 0.0
C53 C 0.84924 0.78299 0.12028 0.0
O54 O 0.74492 0.79103 0.95049 0.0
O55 O 0.82111 0.85335 0.93821 0.0
O56 O 0.78556 0.82633 0.12678 0.0
O57 O 0.82809 0.78577 0.88034 0.0
O58 O 0.78311 0.74387 0.04758 0.0
O59 O 0.85672 0.80209 0.08295 0.0
O60 O 0.78956 0.7457 0.94515 0.0
O61 O 0.8603 0.80156 0.94608 0.0
O62 O 0.82416 0.77468 0.12446 0.0
O63 O 0.78413 0.83229 0.89525 0.0
O64 O 0.74302 0.7949 0.05272 0.0
O65 O 0.81664 0.85285 0.07682 0.0
Sc66 Sc 0.70173 0.29103 0.5647 0.0
Sc67 Sc 0.66458 0.33756 0.47139 0.0
Sc68 Sc 0.70628 0.28528 0.4047 0.0
O69 O 0.69085 0.30464 0.47991 0.0
C70 C 0.75904 0.28977 0.49544 0.0
C71 C 0.69966 0.35704 0.5847 0.0
C72 C 0.70803 0.34863 0.36195 0.0
C73 C 0.63784 0.30137 0.58055 0.0
C74 C 0.69924 0.2332 0.49123 0.0
C75 C 0.64266 0.29685 0.36713 0.0
O76 O 0.74521 0.29589 0.54369 0.0
O77 O 0.68929 0.36287 0.53238 0.0
O78 O 0.71809 0.32408 0.36248 0.0
O79 O 0.65874 0.28535 0.58785 0.0
O80 O 0.69632 0.24413 0.43823 0.0
O81 O 0.63811 0.31505 0.40863 0.0
O82 O 0.7035 0.24767 0.53931 0.0
O83 O 0.63817 0.32308 0.5464 0.0
O84 O 0.66647 0.28569 0.3586 0.0
O85 O 0.70202 0.3322 0.6047 0.0
O86 O 0.74762 0.28318 0.44432 0.0
O87 O 0.6877 0.35591 0.39604 0.0
H88 H 0.23816 0.54729 0.956 0.0
H89 H 0.21807 0.46768 0.87775 0.0
H90 H 0.21454 0.47874 0.0743 0.0
C91 C 0.23068 0.52613 0.96249 0.0
C92 C 0.22649 0.51549 0.02232 0.0
C93 C 0.22719 0.50912 0.91047 0.0
C94 C 0.21964 0.48112 0.91785 0.0
C95 C 0.21533 0.47015 0.97708 0.0
C96 C 0.21826 0.48745 0.02887 0.0
H97 H 0.94166 0.72434 0.52268 0.0
H98 H 0.01491 0.71087 0.41165 0.0
H99 H 0.02054 0.70932 0.61005 0.0
C100 C 0.96368 0.71937 0.5188 0.0
C101 C 0.97961 0.71644 0.57255 0.0
C102 C 0.97624 0.71789 0.46039 0.0
C103 C 0.00482 0.71149 0.45636 0.0
C104 C 0.0209 0.70821 0.51028 0.0
C105 C 0.00817 0.71096 0.56824 0.0
H106 H 0.76511 0.44332 0.95427 0.0
H107 H 0.77379 0.51497 0.0726 0.0
H108 H 0.77934 0.5244 0.87552 0.0
C109 C 0.76925 0.46541 0.96044 0.0
C110 C 0.77263 0.48245 0.90836 0.0
C111 C 0.76936 0.47691 0.02001 0.0
C112 C 0.77422 0.50566 0.02704 0.0
C113 C 0.77841 0.52273 0.97511 0.0
C114 C 0.77746 0.51106 0.91583 0.0
H115 H 0.04269 0.23771 0.52105 0.0
H116 H 0.96879 0.26005 0.62126 0.0
H117 H 0.96946 0.26434 0.42258 0.0
C118 C 0.0212 0.24482 0.52129 0.0
C119 C 0.00773 0.25052 0.46522 0.0
C120 C 0.00729 0.24803 0.57761 0.0
C121 C 0.97979 0.25787 0.57785 0.0
C122 C 0.96609 0.26399 0.52208 0.0
C123 C 0.98026 0.26058 0.46582 0.0
H124 H 0.77225 0.95287 0.50859 0.0
H125 H 0.73819 0.02376 0.60463 0.0
H126 H 0.75013 0.02686 0.40789 0.0
C127 C 0.76392 0.97392 0.5082 0.0
C128 C 0.7618 0.98818 0.45185 0.0
C129 C 0.75529 0.98631 0.56372 0.0
C130 C 0.74484 0.01376 0.56231 0.0
C131 C 0.74328 0.02856 0.50627 0.0
C132 C 0.75156 0.01557 0.45121 0.0
H133 H 0.54111 0.26804 0.97424 0.0
H134 H 0.46948 0.23976 0.07485 0.0
H135 H 0.47024 0.2348 0.8766 0.0
C136 C 0.52044 0.25887 0.97439 0.0
C137 C 0.50766 0.25159 0.91831 0.0
C138 C 0.50699 0.25443 0.03091 0.0
C139 C 0.48026 0.2427 0.03135 0.0
C140 C 0.46682 0.23601 0.97577 0.0
C141 C 0.48056 0.24043 0.91934 0.0
H142 H 0.22734 0.03986 0.53841 0.0
H143 H 0.25164 0.97022 0.42585 0.0
H144 H 0.25021 0.96204 0.62376 0.0
C145 C 0.23398 0.01828 0.53432 0.0
C146 C 0.23776 0.0022 0.58783 0.0
C147 C 0.23891 0.007 0.47574 0.0
C148 C 0.2482 0.97934 0.47096 0.0
C149 C 0.25254 0.96315 0.52421 0.0
C150 C 0.24758 0.97474 0.58267 0.0
H151 H 0.44962 0.73357 0.96982 0.0
H152 H 0.52553 0.75879 0.88003 0.0
H153 H 0.51944 0.7611 0.07824 0.0
C154 C 0.4709 0.74118 0.97257 0.0
C155 C 0.48264 0.74687 0.03042 0.0
C156 C 0.48621 0.74512 0.91814 0.0
C157 C 0.51333 0.75607 0.92171 0.0
C158 C 0.52534 0.7618 0.97956 0.0
C159 C 0.50991 0.75723 0.03364 0.0
C160 C 0.09172 0.20794 0.15878 0.0
C161 C 0.11954 0.21547 0.17053 0.0
C162 C 0.07029 0.21569 0.19934 0.0
C163 C 0.07692 0.23106 0.25307 0.0
C164 C 0.10468 0.23998 0.26347 0.0
C165 C 0.12562 0.23217 0.22197 0.0
C166 C 0.04083 0.20621 0.18632 0.0
C167 C 0.1126 0.25634 0.32041 0.0
C168 C 0.02319 0.26412 0.35875 0.0
C169 C 0.02235 0.24444 0.40668 0.0
C170 C 0.03983 0.2595 0.30642 0.0
C171 C 0.05591 0.23473 0.30252 0.0
C172 C 0.05385 0.21418 0.3493 0.0
C173 C 0.03698 0.21925 0.4006 0.0
C174 C 0.04127 0.28167 0.25692 0.0
C175 C 0.07058 0.18743 0.34684 0.0
H176 H 0.08672 0.1954 0.11867 0.0
H177 H 0.14698 0.23834 0.23126 0.0
H178 H 0.03512 0.18925 0.21891 0.0
H179 H 0.02587 0.22359 0.19347 0.0
H180 H 0.0384 0.19823 0.13851 0.0
H181 H 0.13452 0.26383 0.31883 0.0
H182 H 0.09862 0.27464 0.32601 0.0
H183 H 0.11006 0.24295 0.36189 0.0
H184 H 0.01181 0.28358 0.36338 0.0
H185 H 0.0358 0.20373 0.43703 0.0
H186 H 0.03941 0.27214 0.21046 0.0
H187 H 0.06181 0.29229 0.25913 0.0
H188 H 0.02464 0.29765 0.26233 0.0
H189 H 0.06695 0.17655 0.30243 0.0
H190 H 0.06529 0.17293 0.38515 0.0
H191 H 0.09318 0.19235 0.34963 0.0
C192 C 0.27425 0.58655 0.59701 0.0
C193 C 0.2892 0.60918 0.62099 0.0
C194 C 0.26347 0.5659 0.63654 0.0
C195 C 0.26843 0.56788 0.70086 0.0
C196 C 0.28513 0.58983 0.72437 0.0
C197 C 0.29495 0.61045 0.68417 0.0
C198 C 0.2454 0.54307 0.61003 0.0
C199 C 0.29149 0.59237 0.79247 0.0
C200 C 0.21973 0.54345 0.82604 0.0
C201 C 0.23425 0.52036 0.84918 0.0
C202 C 0.22929 0.55762 0.77359 0.0
C203 C 0.25437 0.54884 0.745 0.0
C204 C 0.26806 0.52438 0.76595 0.0
C205 C 0.25766 0.51024 0.8178 0.0
C206 C 0.21374 0.58326 0.75181 0.0
C207 C 0.29499 0.51455 0.73719 0.0
H208 H 0.26965 0.58588 0.54802 0.0
H209 H 0.30666 0.62801 0.70231 0.0
H210 H 0.25132 0.52244 0.6294 0.0
H211 H 0.22333 0.54697 0.62285 0.0
H212 H 0.24681 0.54214 0.5589 0.0
H213 H 0.30708 0.60896 0.80217 0.0
H214 H 0.27207 0.59738 0.81798 0.0
H215 H 0.29955 0.57226 0.81082 0.0
H216 H 0.20155 0.55108 0.85055 0.0
H217 H 0.2689 0.49242 0.8363 0.0
H218 H 0.21167 0.58323 0.70081 0.0
H219 H 0.22562 0.60225 0.76488 0.0
H220 H 0.19259 0.58469 0.77249 0.0
H221 H 0.29371 0.51531 0.68611 0.0
H222 H 0.30041 0.49295 0.75171 0.0
H223 H 0.31218 0.52867 0.7515 0.0
C224 C 0.86251 0.74921 0.20371 0.0
C225 C 0.87032 0.77037 0.16221 0.0
C226 C 0.88144 0.7386 0.24719 0.0
C227 C 0.90893 0.74933 0.24928 0.0
C228 C 0.91742 0.76962 0.2056 0.0
C229 C 0.898 0.77995 0.16261 0.0
C230 C 0.87157 0.71695 0.293 0.0
C231 C 0.94663 0.78142 0.20617 0.0
C232 C 0.94263 0.74965 0.40724 0.0
C233 C 0.95997 0.72606 0.40483 0.0
C234 C 0.92633 0.7576 0.35658 0.0
C235 C 0.92753 0.74174 0.30164 0.0
C236 C 0.94556 0.71832 0.29808 0.0
C237 C 0.96163 0.71074 0.34987 0.0
C238 C 0.90743 0.78275 0.3623 0.0
C239 C 0.94744 0.70104 0.24008 0.0
H240 H 0.84129 0.74137 0.20348 0.0
H241 H 0.90438 0.79608 0.13043 0.0
H242 H 0.88642 0.69919 0.29509 0.0
H243 H 0.87071 0.72632 0.33976 0.0
H244 H 0.85053 0.70875 0.28135 0.0
H245 H 0.95095 0.79444 0.16478 0.0
H246 H 0.94952 0.79453 0.24785 0.0
H247 H 0.96225 0.76433 0.20846 0.0
H248 H 0.94183 0.76204 0.44903 0.0
H249 H 0.97504 0.69252 0.3478 0.0
H250 H 0.88537 0.77633 0.35585 0.0
H251 H 0.91235 0.7982 0.3257 0.0
H252 H 0.90941 0.79316 0.40788 0.0
H253 H 0.92704 0.69092 0.23083 0.0
H254 H 0.96369 0.68454 0.24347 0.0
H255 H 0.9522 0.71461 0.1999 0.0
C256 C 0.70599 0.37805 0.68813 0.0
C257 C 0.70994 0.37973 0.62429 0.0
C258 C 0.71733 0.39819 0.72756 0.0
C259 C 0.73372 0.42005 0.70256 0.0
C260 C 0.7375 0.42206 0.63791 0.0
C261 C 0.72518 0.40199 0.59929 0.0
C262 C 0.71217 0.39571 0.79615 0.0
C263 C 0.7554 0.44468 0.60989 0.0
C264 C 0.74309 0.4796 0.81464 0.0
C265 C 0.76679 0.47066 0.84696 0.0
C266 C 0.73303 0.46438 0.7641 0.0
C267 C 0.74742 0.44004 0.74514 0.0
C268 C 0.77285 0.43251 0.77422 0.0
C269 C 0.78203 0.44771 0.8256 0.0
C270 C 0.70563 0.47284 0.73507 0.0
C271 C 0.78918 0.40712 0.75424 0.0
H272 H 0.69403 0.36088 0.70726 0.0
H273 H 0.72844 0.40302 0.54983 0.0
H274 H 0.73213 0.39155 0.82048 0.0
H275 H 0.7037 0.41562 0.81439 0.0
H276 H 0.69733 0.37864 0.8075 0.0
H277 H 0.75464 0.44451 0.55864 0.0
H278 H 0.74867 0.46553 0.62641 0.0
H279 H 0.77737 0.44174 0.62478 0.0
H280 H 0.73121 0.49723 0.83185 0.0
H281 H 0.80038 0.44093 0.85087 0.0
H282 H 0.68909 0.45813 0.75018 0.0
H283 H 0.7068 0.47172 0.68403 0.0
H284 H 0.69934 0.49432 0.74851 0.0
H285 H 0.77822 0.38796 0.76978 0.0
H286 H 0.81057 0.40694 0.77407 0.0
H287 H 0.7907 0.40625 0.70319 0.0
C288 C 0.5922 0.2981 0.33649 0.0
C289 C 0.61956 0.28892 0.32533 0.0
C290 C 0.57058 0.29206 0.29487 0.0
C291 C 0.5766 0.27676 0.24076 0.0
C292 C 0.60393 0.26668 0.23024 0.0
C293 C 0.62504 0.27277 0.27277 0.0
C294 C 0.54155 0.30279 0.30781 0.0
C295 C 0.61116 0.25036 0.17279 0.0
C296 C 0.52223 0.24296 0.13849 0.0
C297 C 0.52133 0.26189 0.08909 0.0
C298 C 0.5389 0.24829 0.19039 0.0
C299 C 0.55507 0.273 0.19237 0.0
C300 C 0.55291 0.29292 0.14428 0.0
C301 C 0.53593 0.28716 0.09333 0.0
C302 C 0.54048 0.22676 0.24126 0.0
C303 C 0.56982 0.31954 0.14477 0.0
H304 H 0.5877 0.31034 0.37731 0.0
H305 H 0.64606 0.2655 0.26376 0.0
H306 H 0.536 0.31917 0.27362 0.0
H307 H 0.52607 0.28571 0.30292 0.0
H308 H 0.53971 0.31183 0.35481 0.0
H309 H 0.6331 0.24283 0.17312 0.0
H310 H 0.59713 0.23208 0.16802 0.0
H311 H 0.60806 0.26373 0.13144 0.0
H312 H 0.51097 0.22338 0.13527 0.0
H313 H 0.53475 0.3021 0.05574 0.0
H314 H 0.53891 0.23689 0.28713 0.0
H315 H 0.56095 0.21596 0.23934 0.0
H316 H 0.52373 0.21083 0.23717 0.0
H317 H 0.56706 0.3307 0.18914 0.0
H318 H 0.56396 0.33386 0.10646 0.0
H319 H 0.59232 0.31441 0.14037 0.0
C320 C 0.2241 0.11737 0.82949 0.0
C321 C 0.20718 0.11357 0.88163 0.0
C322 C 0.23 0.09518 0.78975 0.0
C323 C 0.21894 0.06841 0.80264 0.0
C324 C 0.2033 0.06394 0.85707 0.0
C325 C 0.19744 0.08666 0.89588 0.0
C326 C 0.24676 0.10083 0.73201 0.0
C327 C 0.19165 0.03553 0.87281 0.0
C328 C 0.20583 0.02947 0.65489 0.0
C329 C 0.23076 0.01448 0.64839 0.0
C330 C 0.20076 0.04553 0.70746 0.0
C331 C 0.22105 0.04638 0.75491 0.0
C332 C 0.24513 0.0293 0.75111 0.0
C333 C 0.24978 0.01352 0.69752 0.0
C334 C 0.17475 0.06337 0.70973 0.0
C335 C 0.26693 0.02928 0.80141 0.0
H336 H 0.23202 0.13796 0.8183 0.0
H337 H 0.18468 0.08342 0.9365 0.0
H338 H 0.26424 0.08575 0.72822 0.0
H339 H 0.23328 0.09805 0.69078 0.0
H340 H 0.25547 0.12233 0.73103 0.0
H341 H 0.1843 0.03442 0.92135 0.0
H342 H 0.17376 0.03086 0.84198 0.0
H343 H 0.20758 0.01905 0.86541 0.0
H344 H 0.19081 0.02964 0.61739 0.0
H345 H 0.269 0.00178 0.69263 0.0
H346 H 0.18059 0.08569 0.70483 0.0
H347 H 0.16409 0.06093 0.75478 0.0
H348 H 0.15977 0.05805 0.67237 0.0
H349 H 0.27952 0.04866 0.79818 0.0
H350 H 0.28125 0.01111 0.79748 0.0
H351 H 0.25703 0.02894 0.84765 0.0
C352 C 0.39864 0.70395 0.33638 0.0
C353 C 0.37066 0.7116 0.32702 0.0
C354 C 0.41931 0.71144 0.29369 0.0
C355 C 0.41174 0.72679 0.24039 0.0
C356 C 0.38384 0.73572 0.23216 0.0
C357 C 0.36365 0.72808 0.27564 0.0
C358 C 0.44895 0.70182 0.30418 0.0
C359 C 0.37498 0.75212 0.17578 0.0
C360 C 0.46527 0.76048 0.13517 0.0
C361 C 0.46649 0.74096 0.0871 0.0
C362 C 0.44825 0.75576 0.1868 0.0
C363 C 0.43215 0.73102 0.18996 0.0
C364 C 0.43414 0.71082 0.1426 0.0
C365 C 0.45138 0.716 0.09188 0.0
C366 C 0.44672 0.77763 0.23675 0.0
C367 C 0.41733 0.68414 0.1444 0.0
H368 H 0.40435 0.69148 0.37625 0.0
H369 H 0.34216 0.73433 0.26815 0.0
H370 H 0.45433 0.68548 0.26998 0.0
H371 H 0.46372 0.71939 0.29738 0.0
H372 H 0.45206 0.69307 0.35121 0.0
H373 H 0.35304 0.75949 0.1789 0.0
H374 H 0.38875 0.7705 0.16918 0.0
H375 H 0.37702 0.73882 0.13415 0.0
H376 H 0.4769 0.77982 0.13145 0.0
H377 H 0.45277 0.70062 0.05536 0.0
H378 H 0.4498 0.76792 0.28278 0.0
H379 H 0.42571 0.78738 0.23662 0.0
H380 H 0.46255 0.79433 0.23038 0.0
H381 H 0.42132 0.67273 0.18814 0.0
H382 H 0.42224 0.67006 0.10519 0.0
H383 H 0.39472 0.68915 0.14288 0.0
C384 C 0.81391 0.88987 0.82759 0.0
C385 C 0.79356 0.87844 0.86626 0.0
C386 C 0.80685 0.91056 0.78434 0.0
C387 C 0.77901 0.92055 0.7815 0.0
C388 C 0.75901 0.91062 0.82419 0.0
C389 C 0.76639 0.88917 0.86525 0.0
C390 C 0.82861 0.92006 0.73859 0.0
C391 C 0.72944 0.92151 0.82428 0.0
C392 C 0.76737 0.98335 0.67679 0.0
C393 C 0.75802 0.97037 0.6225 0.0
C394 C 0.77304 0.9676 0.73022 0.0
C395 C 0.77004 0.9382 0.72859 0.0
C396 C 0.7596 0.92516 0.67476 0.0
C397 C 0.75317 0.94145 0.62301 0.0
C398 C 0.78307 0.98232 0.78764 0.0
C399 C 0.75634 0.8938 0.67076 0.0
H400 H 0.83486 0.8813 0.82835 0.0
H401 H 0.75076 0.88034 0.89573 0.0
H402 H 0.82284 0.91263 0.69178 0.0
H403 H 0.82951 0.94318 0.73673 0.0
H404 H 0.84972 0.91195 0.75005 0.0
H405 H 0.71812 0.91553 0.86701 0.0
H406 H 0.72921 0.9446 0.81982 0.0
H407 H 0.71793 0.91285 0.78421 0.0
H408 H 0.77123 0.00564 0.67701 0.0
H409 H 0.74501 0.93133 0.5821 0.0
H410 H 0.80553 0.97781 0.79501 0.0
H411 H 0.77167 0.97457 0.82878 0.0
H412 H 0.78034 0.00532 0.78439 0.0
H413 H 0.77677 0.88352 0.67905 0.0
H414 H 0.74831 0.88696 0.6251 0.0
H415 H 0.74179 0.88631 0.7069 0.0
C416 C 0.89862 0.76484 0.87974 0.0
C417 C 0.87517 0.77853 0.8556 0.0
C418 C 0.91844 0.75271 0.84032 0.0
C419 C 0.91496 0.75518 0.77565 0.0
C420 C 0.89169 0.7698 0.75132 0.0
C421 C 0.87185 0.78091 0.79166 0.0
C422 C 0.94257 0.73661 0.86768 0.0
C423 C 0.88763 0.77356 0.68262 0.0
C424 C 0.97404 0.74817 0.66164 0.0
C425 C 0.96685 0.72318 0.63232 0.0
C426 C 0.95829 0.75815 0.71134 0.0
C427 C 0.93524 0.74237 0.73256 0.0
C428 C 0.92936 0.71598 0.70608 0.0
C429 C 0.94502 0.70688 0.65535 0.0
C430 C 0.96484 0.78664 0.73737 0.0
C431 C 0.90541 0.69823 0.72858 0.0
H432 H 0.90094 0.7628 0.92933 0.0
H433 H 0.85374 0.79169 0.77321 0.0
H434 H 0.94143 0.71447 0.85279 0.0
H435 H 0.96265 0.74509 0.85056 0.0
H436 H 0.94266 0.73727 0.91893 0.0
H437 H 0.86931 0.78689 0.67156 0.0
H438 H 0.90649 0.78319 0.66189 0.0
H439 H 0.88464 0.75293 0.66038 0.0
H440 H 0.99082 0.7608 0.64298 0.0
H441 H 0.93958 0.68756 0.63222 0.0
H442 H 0.96489 0.78612 0.78852 0.0
H443 H 0.94842 0.80163 0.72276 0.0
H444 H 0.98535 0.7946 0.72124 0.0
H445 H 0.90519 0.69735 0.77975 0.0
H446 H 0.9065 0.6766 0.71029 0.0
H447 H 0.88538 0.70767 0.71341 0.0
C448 C 0.70905 0.39649 0.31458 0.0
C449 C 0.71988 0.36927 0.31809 0.0
C450 C 0.71869 0.41548 0.27008 0.0
C451 C 0.73962 0.40705 0.22803 0.0
C452 C 0.75145 0.38005 0.23289 0.0
C453 C 0.74147 0.36151 0.27786 0.0
C454 C 0.70569 0.44418 0.26645 0.0
C455 C 0.77382 0.37031 0.18884 0.0
C456 C 0.73964 0.44043 0.06955 0.0
C457 C 0.76197 0.45925 0.07391 0.0
C458 C 0.73219 0.42343 0.11947 0.0
C459 C 0.74728 0.42542 0.17545 0.0
C460 C 0.76965 0.44459 0.18058 0.0
C461 C 0.77675 0.46133 0.12963 0.0
C462 C 0.70815 0.40328 0.1122 0.0
C463 C 0.78616 0.44726 0.23965 0.0
H464 H 0.69254 0.40282 0.3457 0.0
H465 H 0.75018 0.34064 0.28035 0.0
H466 H 0.72212 0.46048 0.26531 0.0
H467 H 0.69348 0.4461 0.22309 0.0
H468 H 0.69158 0.44841 0.30597 0.0
H469 H 0.78253 0.34964 0.20209 0.0
H470 H 0.76498 0.36869 0.14162 0.0
H471 H 0.7911 0.38569 0.18696 0.0
H472 H 0.72772 0.43918 0.02709 0.0
H473 H 0.79409 0.47578 0.1331 0.0
H474 H 0.69181 0.40784 0.14697 0.0
H475 H 0.71545 0.38159 0.12047 0.0
H476 H 0.69856 0.40434 0.06553 0.0
H477 H 0.77201 0.45242 0.27847 0.0
H478 H 0.80255 0.46361 0.23656 0.0
H479 H 0.79627 0.42702 0.25094 0.0
C480 C 0.12427 0.22647 0.8204 0.0
C481 C 0.1189 0.20877 0.87067 0.0
C482 C 0.10312 0.23376 0.77886 0.0
C483 C 0.07586 0.22324 0.78795 0.0
C484 C 0.0699 0.20647 0.84008 0.0
C485 C 0.09155 0.19931 0.88081 0.0
C486 C 0.1103 0.25166 0.72359 0.0
C487 C 0.04094 0.19521 0.85148 0.0
C488 C 0.02158 0.25805 0.68654 0.0
C489 C 0.02158 0.2401 0.63554 0.0
C490 C 0.03794 0.25201 0.73867 0.0
C491 C 0.0546 0.22758 0.73922 0.0
C492 C 0.0533 0.20861 0.68934 0.0
C493 C 0.0367 0.21507 0.6382 0.0
C494 C 0.03862 0.27253 0.79145 0.0
C495 C 0.07073 0.1823 0.68825 0.0
H496 H 0.14524 0.23409 0.81232 0.0
H497 H 0.08712 0.18589 0.91992 0.0
H498 H 0.10783 0.23926 0.68071 0.0
H499 H 0.09583 0.2697 0.72034 0.0
H500 H 0.13203 0.25969 0.72554 0.0
H501 H 0.03896 0.18552 0.8979 0.0
H502 H 0.02522 0.21212 0.84705 0.0
H503 H 0.03589 0.1792 0.81624 0.0
H504 H 0.00983 0.27739 0.68452 0.0
H505 H 0.03617 0.20087 0.59928 0.0
H506 H 0.05881 0.28385 0.79119 0.0
H507 H 0.03701 0.26145 0.83633 0.0
H508 H 0.02149 0.28812 0.78818 0.0
H509 H 0.09316 0.18791 0.68547 0.0
H510 H 0.06554 0.16869 0.64837 0.0
H511 H 0.06773 0.17017 0.73138 0.0
C512 C 0.25185 0.61304 0.31942 0.0
C513 C 0.27974 0.62167 0.3191 0.0
C514 C 0.24195 0.59413 0.27518 0.0
C515 C 0.26017 0.58472 0.22824 0.0
C516 C 0.28846 0.59334 0.22813 0.0
C517 C 0.29805 0.61137 0.27444 0.0
C518 C 0.21197 0.58455 0.27817 0.0
C519 C 0.30828 0.58444 0.17774 0.0
C520 C 0.24461 0.52095 0.13073 0.0
C521 C 0.23284 0.53299 0.07747 0.0
C522 C 0.25241 0.53742 0.18132 0.0
C523 C 0.24947 0.56676 0.17775 0.0
C524 C 0.23733 0.57909 0.12473 0.0
C525 C 0.22863 0.56203 0.07586 0.0
C526 C 0.26444 0.52346 0.238 0.0
C527 C 0.23437 0.6104 0.11869 0.0
H528 H 0.23783 0.62109 0.35438 0.0
H529 H 0.31954 0.61845 0.27414 0.0
H530 H 0.20028 0.59263 0.23768 0.0
H531 H 0.21095 0.56141 0.27644 0.0
H532 H 0.20134 0.59181 0.32076 0.0
H533 H 0.3296 0.59304 0.18443 0.0
H534 H 0.30969 0.56134 0.176 0.0
H535 H 0.30025 0.59159 0.13231 0.0
H536 H 0.24854 0.49869 0.13255 0.0
H537 H 0.21892 0.57159 0.03588 0.0
H538 H 0.25383 0.53119 0.28014 0.0
H539 H 0.28688 0.52874 0.24242 0.0
H540 H 0.26239 0.50036 0.23626 0.0
H541 H 0.22139 0.61871 0.15679 0.0
H542 H 0.22475 0.61669 0.07411 0.0
H543 H 0.2552 0.62039 0.12237 0.0
C544 C 0.36999 0.72162 0.67864 0.0
C545 C 0.37483 0.70453 0.62722 0.0
C546 C 0.39167 0.72893 0.71879 0.0
C547 C 0.41903 0.71916 0.70706 0.0
C548 C 0.4244 0.703 0.65377 0.0
C549 C 0.40217 0.69568 0.61463 0.0
C550 C 0.385 0.74604 0.77544 0.0
C551 C 0.45341 0.69264 0.63928 0.0
C552 C 0.47287 0.75491 0.80814 0.0
C553 C 0.4736 0.73661 0.85864 0.0
C554 C 0.45673 0.74858 0.75574 0.0
C555 C 0.44101 0.72352 0.75446 0.0
C556 C 0.44348 0.70409 0.80344 0.0
C557 C 0.45987 0.71083 0.85473 0.0
C558 C 0.45501 0.76955 0.70381 0.0
C559 C 0.42712 0.67712 0.80402 0.0
H560 H 0.349 0.72869 0.68878 0.0
H561 H 0.4062 0.68276 0.57458 0.0
H562 H 0.38876 0.73333 0.81753 0.0
H563 H 0.39888 0.76453 0.77799 0.0
H564 H 0.36299 0.75334 0.77594 0.0
H565 H 0.45483 0.68376 0.59205 0.0
H566 H 0.46879 0.70984 0.64368 0.0
H567 H 0.45943 0.67619 0.67288 0.0
H568 H 0.4836 0.77479 0.81099 0.0
H569 H 0.46096 0.69638 0.89328 0.0
H570 H 0.43474 0.7807 0.70614 0.0
H571 H 0.45601 0.75893 0.65839 0.0
H572 H 0.47203 0.78526 0.70644 0.0
H573 H 0.40456 0.68183 0.80894 0.0
H574 H 0.43347 0.66314 0.84254 0.0
H575 H 0.42987 0.66576 0.7599 0.0
C576 C 0.80294 0.89971 0.14902 0.0
C577 C 0.79158 0.87309 0.15973 0.0
C578 C 0.7983 0.92172 0.19045 0.0
C579 C 0.78214 0.91691 0.24397 0.0
C580 C 0.76994 0.89038 0.25408 0.0
C581 C 0.77471 0.86885 0.21175 0.0
C582 C 0.81133 0.94986 0.1779 0.0
C583 C 0.75262 0.88442 0.31082 0.0
C584 C 0.79357 0.95724 0.39147 0.0
C585 C 0.76938 0.97368 0.39391 0.0
C586 C 0.79875 0.93972 0.34114 0.0
C587 C 0.77936 0.93883 0.29185 0.0
C588 C 0.75591 0.95683 0.292 0.0
C589 C 0.75114 0.97404 0.34326 0.0
C590 C 0.82405 0.92089 0.3426 0.0
C591 C 0.73497 0.95665 0.2399 0.0
H592 H 0.8158 0.90329 0.10868 0.0
H593 H 0.76577 0.84843 0.22046 0.0
H594 H 0.7954 0.96661 0.18139 0.0
H595 H 0.82755 0.95425 0.21316 0.0
H596 H 0.82114 0.95093 0.13153 0.0
H597 H 0.74359 0.86305 0.31042 0.0
H598 H 0.76574 0.88665 0.35277 0.0
H599 H 0.73534 0.89974 0.31448 0.0
H600 H 0.80798 0.95736 0.43009 0.0
H601 H 0.73237 0.98665 0.34509 0.0
H602 H 0.83584 0.92258 0.29876 0.0
H603 H 0.81726 0.89884 0.34744 0.0
H604 H 0.83832 0.92592 0.38148 0.0
H605 H 0.74572 0.95734 0.19462 0.0
H606 H 0.72024 0.97454 0.24271 0.0
H607 H 0.72273 0.937 0.24157 0.0
C608 C 0.60154 0.26804 0.61522 0.0
C609 C 0.61268 0.29504 0.61628 0.0
C610 C 0.58012 0.26039 0.65582 0.0
C611 C 0.57067 0.27992 0.70006 0.0
C612 C 0.58094 0.30769 0.69901 0.0
C613 C 0.60161 0.31505 0.65623 0.0
C614 C 0.56893 0.23094 0.6539 0.0
C615 C 0.57192 0.32892 0.7464 0.0
C616 C 0.50927 0.2665 0.80683 0.0
C617 C 0.52293 0.25612 0.85947 0.0
C618 C 0.52433 0.27325 0.75324 0.0
C619 C 0.55371 0.27026 0.75315 0.0
C620 C 0.56744 0.25894 0.80537 0.0
C621 C 0.55182 0.25149 0.85724 0.0
C622 C 0.50892 0.28429 0.69749 0.0
C623 C 0.59881 0.25561 0.80746 0.0
H624 H 0.61009 0.25271 0.58367 0.0
H625 H 0.61049 0.33588 0.65695 0.0
H626 H 0.57791 0.21868 0.69261 0.0
H627 H 0.54591 0.23088 0.6594 0.0
H628 H 0.57432 0.22026 0.61003 0.0
H629 H 0.57979 0.3502 0.73562 0.0
H630 H 0.54885 0.32972 0.74961 0.0
H631 H 0.57999 0.32266 0.79245 0.0
H632 H 0.48696 0.27019 0.80804 0.0
H633 H 0.56243 0.24257 0.89685 0.0
H634 H 0.51609 0.27351 0.65506 0.0
H635 H 0.51343 0.30686 0.69162 0.0
H636 H 0.48598 0.2816 0.70179 0.0
H637 H 0.6058 0.24147 0.77009 0.0
H638 H 0.60623 0.24703 0.85224 0.0
H639 H 0.60898 0.27614 0.79978 0.0
C640 C 0.19998 0.09547 0.17295 0.0
C641 C 0.2097 0.12286 0.18137 0.0
C642 C 0.20615 0.07443 0.21592 0.0
C643 C 0.2222 0.08103 0.26872 0.0
C644 C 0.233 0.10831 0.2763 0.0
C645 C 0.22671 0.12888 0.23238 0.0
C646 C 0.19458 0.04544 0.20607 0.0
C647 C 0.25011 0.11613 0.33226 0.0
C648 C 0.20987 0.04101 0.41658 0.0
C649 C 0.23379 0.0242 0.42002 0.0
C650 C 0.2056 0.05914 0.36678 0.0
C651 C 0.2256 0.06025 0.3189 0.0
C652 C 0.24926 0.04255 0.32077 0.0
C653 C 0.25312 0.02472 0.37155 0.0
C654 C 0.18007 0.07768 0.36635 0.0
C655 C 0.27086 0.04308 0.27015 0.0
H656 H 0.18711 0.09052 0.13326 0.0
H657 H 0.2344 0.14994 0.23922 0.0
H658 H 0.21129 0.02958 0.21167 0.0
H659 H 0.17843 0.04098 0.24136 0.0
H660 H 0.18503 0.04298 0.15964 0.0
H661 H 0.25864 0.13765 0.32899 0.0
H662 H 0.23696 0.11472 0.37425 0.0
H663 H 0.26772 0.10132 0.33834 0.0
H664 H 0.19459 0.04021 0.45338 0.0
H665 H 0.2717 0.01184 0.37423 0.0
H666 H 0.16802 0.07453 0.32318 0.0
H667 H 0.18653 0.09993 0.36761 0.0
H668 H 0.16612 0.07359 0.40624 0.0
H669 H 0.26071 0.04057 0.22444 0.0
H670 H 0.28678 0.0264 0.27595 0.0
H671 H 0.2816 0.0636 0.26992 0.0
C672 C 0.18902 0.30819 0.04949 0.0
C673 C 0.20338 0.29227 0.00557 0.0
C674 C 0.18831 0.33741 0.04533 0.0
C675 C 0.20289 0.35089 -0.00299 0.0
C676 C 0.2172 0.33489 0.95222 0.0
C677 C 0.21699 0.30571 0.95666 0.0
C678 C 0.17235 0.35385 0.09308 0.0
C679 C 0.23346 0.34861 0.90076 0.0
C680 C 0.18901 0.42641 0.95379 0.0
C681 C 0.21062 0.43997 0.98526 0.0
C682 C 0.18556 0.39741 0.95892 0.0
C683 C 0.20463 0.38177 0.99511 0.0
C684 C 0.22631 0.3955 0.02744 0.0
C685 C 0.22888 0.42452 0.02254 0.0
C686 C 0.16186 0.38346 0.9249 0.0
C687 C 0.24737 0.37945 0.06549 0.0
H688 H 0.1782 0.29779 0.08695 0.0
H689 H 0.22822 0.29343 0.92283 0.0
H690 H 0.18702 0.36662 0.12083 0.0
H691 H 0.15763 0.36847 0.07013 0.0
H692 H 0.16038 0.34012 0.12484 0.0
H693 H 0.24294 0.33312 0.86894 0.0
H694 H 0.21967 0.36264 0.87364 0.0
H695 H 0.25036 0.36168 0.92053 0.0
H696 H 0.17489 0.43853 0.92516 0.0
H697 H 0.24578 0.4351 0.04621 0.0
H698 H 0.14954 0.37033 0.95714 0.0
H699 H 0.17031 0.36944 0.88878 0.0
H700 H 0.14767 0.39884 0.90261 0.0
H701 H 0.23661 0.36683 0.1012 0.0
H702 H 0.26264 0.3934 0.08867 0.0
H703 H 0.25897 0.36472 0.03547 0.0
C704 C 0.18382 0.71024 0.44628 0.0
C705 C 0.19928 0.69559 0.49088 0.0
C706 C 0.15461 0.71061 0.44784 0.0
C707 C 0.14049 0.69562 0.4946 0.0
C708 C 0.15588 0.67998 0.53852 0.0
C709 C 0.18515 0.68034 0.53646 0.0
C710 C 0.13892 0.72787 0.40074 0.0
C711 C 0.14144 0.66341 0.58847 0.0
C712 C 0.06906 0.72232 0.5397 0.0
C713 C 0.05144 0.70447 0.5065 0.0
C714 C 0.09808 0.71945 0.5366 0.0
C715 C 0.10972 0.69799 0.49992 0.0
C716 C 0.09202 0.67967 0.46678 0.0
C717 C 0.06299 0.6833 0.47003 0.0
C718 C 0.11628 0.73971 0.57173 0.0
C719 C 0.10376 0.65635 0.42785 0.0
H720 H 0.19456 0.72217 0.411 0.0
H721 H 0.19696 0.66874 0.57068 0.0
H722 H 0.12324 0.71481 0.3766 0.0
H723 H 0.12744 0.74491 0.42435 0.0
H724 H 0.15299 0.73732 0.36576 0.0
H725 H 0.15629 0.65055 0.61585 0.0
H726 H 0.13044 0.67783 0.62024 0.0
H727 H 0.12547 0.64945 0.56792 0.0
H728 H 0.06007 0.73891 0.56729 0.0
H729 H 0.04927 0.66943 0.44467 0.0
H730 H 0.12986 0.75131 0.53912 0.0
H731 H 0.13015 0.7282 0.60397 0.0
H732 H 0.10387 0.75505 0.59861 0.0
H733 H 0.11668 0.66517 0.39013 0.0
H734 H 0.08713 0.64318 0.40714 0.0
H735 H 0.11758 0.64287 0.45629 0.0
C736 C 0.77657 0.68744 0.94078 0.0
C737 C 0.78657 0.70142 0.99304 0.0
C738 C 0.77583 0.65818 0.93886 0.0
C739 C 0.78603 0.64265 0.98979 0.0
C740 C 0.79678 0.65668 0.04209 0.0
C741 C 0.79658 0.68595 0.04342 0.0
C742 C 0.76365 0.64391 0.88286 0.0
C743 C 0.80846 0.64078 0.09658 0.0
C744 C 0.75994 0.56851 0.01025 0.0
C745 C 0.78128 0.55318 0.98215 0.0
C746 C 0.76129 0.59771 0.01329 0.0
C747 C 0.78484 0.6117 0.9888 0.0
C748 C 0.80683 0.59616 0.96193 0.0
C749 C 0.80459 0.56701 0.95816 0.0
C750 C 0.73718 0.61362 0.04111 0.0
C751 C 0.83253 0.61034 0.93665 0.0
H752 H 0.76866 0.69941 0.90197 0.0
H753 H 0.80461 0.69677 0.08362 0.0
H754 H 0.77943 0.62997 0.86167 0.0
H755 H 0.74574 0.63065 0.89682 0.0
H756 H 0.75639 0.65906 0.84739 0.0
H757 H 0.81725 0.65486 0.13237 0.0
H758 H 0.79185 0.62788 0.11796 0.0
H759 H 0.82511 0.6263 0.08101 0.0
H760 H 0.7418 0.55766 0.0281 0.0
H761 H 0.82105 0.55495 0.93656 0.0
H762 H 0.72805 0.6279 0.00607 0.0
H763 H 0.74461 0.62672 0.07996 0.0
H764 H 0.72049 0.59955 0.05835 0.0
H765 H 0.82672 0.62402 0.89729 0.0
H766 H 0.84844 0.59511 0.92067 0.0
H767 H 0.84204 0.62386 0.97252 0.0
C768 C 0.80528 0.27435 0.45561 0.0
C769 C 0.7898 0.28948 0.49907 0.0
C770 C 0.83435 0.27255 0.46 0.0
C771 C 0.84828 0.28655 0.5085 0.0
C772 C 0.83292 0.30266 0.55131 0.0
C773 C 0.80376 0.30375 0.5464 0.0
C774 C 0.85004 0.25485 0.41395 0.0
C775 C 0.84723 0.31821 0.603 0.0
C776 C 0.91734 0.25488 0.55544 0.0
C777 C 0.93621 0.27143 0.52232 0.0
C778 C 0.88866 0.26014 0.55275 0.0
C779 C 0.87872 0.28266 0.51648 0.0
C780 C 0.89775 0.30006 0.48463 0.0
C781 C 0.92638 0.29407 0.48751 0.0
C782 C 0.86894 0.24089 0.58667 0.0
C783 C 0.88783 0.32449 0.44626 0.0
H784 H 0.7946 0.2632 0.41903 0.0
H785 H 0.79191 0.31573 0.57971 0.0
H786 H 0.8666 0.26738 0.39133 0.0
H787 H 0.86045 0.23725 0.43819 0.0
H788 H 0.83616 0.24615 0.37766 0.0
H789 H 0.83253 0.33165 0.6292 0.0
H790 H 0.85689 0.30308 0.63548 0.0
H791 H 0.86424 0.33145 0.58436 0.0
H792 H 0.92497 0.23714 0.58173 0.0
H793 H 0.94108 0.30695 0.46228 0.0
H794 H 0.85554 0.22972 0.55298 0.0
H795 H 0.85497 0.25311 0.61715 0.0
H796 H 0.88017 0.22515 0.61515 0.0
H797 H 0.87573 0.31677 0.40608 0.0
H798 H 0.90542 0.33741 0.42896 0.0
H799 H 0.87369 0.33795 0.47374 0.0
C800 C 0.7123 0.19006 0.54936 0.0
C801 C 0.70025 0.20238 0.49683 0.0
C802 C 0.71677 0.16118 0.55262 0.0
C803 C 0.70857 0.1441 0.5026 0.0
C804 C 0.69494 0.15614 0.45098 0.0
C805 C 0.69115 0.18521 0.44843 0.0
C806 C 0.73172 0.14919 0.60812 0.0
C807 C 0.68541 0.13846 0.39733 0.0
C808 C 0.7508 0.07825 0.47727 0.0
C809 C 0.73393 0.05796 0.50503 0.0
C810 C 0.74263 0.10633 0.47585 0.0
C811 C 0.71672 0.11418 0.50196 0.0
C812 C 0.69938 0.09367 0.52926 0.0
C813 C 0.70835 0.06574 0.53105 0.0
C814 C 0.76197 0.12766 0.44737 0.0
C815 C 0.67144 0.10124 0.55661 0.0
H816 H 0.71946 0.20312 0.58699 0.0
H817 H 0.68159 0.19453 0.40796 0.0
H818 H 0.71983 0.13138 0.62758 0.0
H819 H 0.75243 0.14108 0.59387 0.0
H820 H 0.7349 0.16496 0.64501 0.0
H821 H 0.67226 0.15045 0.36432 0.0
H822 H 0.70385 0.13033 0.37222 0.0
H823 H 0.67337 0.12017 0.41408 0.0
H824 H 0.7707 0.07218 0.45763 0.0
H825 H 0.69526 0.04991 0.55205 0.0
H826 H 0.76784 0.14352 0.48233 0.0
H827 H 0.75121 0.13878 0.4092 0.0
H828 H 0.78135 0.11805 0.42896 0.0
H829 H 0.67438 0.1159 0.59566 0.0
H830 H 0.65991 0.08263 0.57354 0.0
H831 H 0.65843 0.11212 0.5216 0.0
C832 C 0.30713 0.18638 0.96959 0.0
C833 C 0.29321 0.20111 0.01621 0.0
C834 C 0.33614 0.18834 0.96295 0.0
C835 C 0.35139 0.20593 0.00305 0.0
C836 C 0.33759 0.21997 0.05172 0.0
C837 C 0.30864 0.21714 0.05812 0.0
C838 C 0.35028 0.17251 0.91153 0.0
C839 C 0.35316 0.2392 0.09491 0.0
C840 C 0.43021 0.2036 0.01526 0.0
C841 C 0.43774 0.22604 0.97718 0.0
C842 C 0.40216 0.19595 0.02214 0.0
C843 C 0.3813 0.21156 0.99121 0.0
C844 C 0.38893 0.23374 0.95131 0.0
C845 C 0.41715 0.24056 0.94436 0.0
C846 C 0.3948 0.17178 0.06388 0.0
C847 C 0.36722 0.25109 0.91816 0.0
H848 H 0.29525 0.1737 0.93753 0.0
H849 H 0.29792 0.22865 0.09402 0.0
H850 H 0.35769 0.18741 0.87588 0.0
H851 H 0.36884 0.16119 0.92936 0.0
H852 H 0.33605 0.15725 0.88919 0.0
H853 H 0.33963 0.24732 0.13241 0.0
H854 H 0.37116 0.22816 0.11601 0.0
H855 H 0.36158 0.2572 0.06853 0.0
H856 H 0.44629 0.19234 0.04033 0.0
H857 H 0.42307 0.25809 0.91544 0.0
H858 H 0.38059 0.15711 0.03974 0.0
H859 H 0.38359 0.17961 0.10511 0.0
H860 H 0.41357 0.16011 0.07955 0.0
H861 H 0.35344 0.23747 0.89016 0.0
H862 H 0.3767 0.26702 0.88733 0.0
H863 H 0.35386 0.26191 0.9524 0.0
C864 C 0.27026 0.79964 0.54897 0.0
C865 C 0.28528 0.78785 0.50003 0.0
C866 C 0.26696 0.8286 0.5537 0.0
C867 C 0.27943 0.84616 0.50903 0.0
C868 C 0.29562 0.83449 0.46098 0.0
C869 C 0.29811 0.80537 0.45665 0.0
C870 C 0.24914 0.8403 0.60499 0.0
C871 C 0.30965 0.8527 0.4133 0.0
C872 C 0.24425 0.91578 0.48169 0.0
C873 C 0.26042 0.93354 0.51843 0.0
C874 C 0.25051 0.8873 0.47759 0.0
C875 C 0.27376 0.87655 0.51027 0.0
C876 C 0.2906 0.89457 0.54622 0.0
C877 C 0.28351 0.92292 0.55045 0.0
C878 C 0.23176 0.8686 0.43972 0.0
C879 C 0.31582 0.88383 0.58073 0.0
H880 H 0.26018 0.78617 0.58246 0.0
H881 H 0.30999 0.79633 0.41911 0.0
H882 H 0.26096 0.8562 0.63142 0.0
H883 H 0.23057 0.85086 0.58503 0.0
H884 H 0.2419 0.82386 0.63748 0.0
H885 H 0.32358 0.84054 0.38245 0.0
H886 H 0.29362 0.86327 0.38458 0.0
H887 H 0.3221 0.86926 0.43621 0.0
H888 H 0.22623 0.92408 0.45749 0.0
H889 H 0.29603 0.93685 0.57852 0.0
H890 H 0.2222 0.85249 0.46988 0.0
H891 H 0.24413 0.8575 0.40417 0.0
H892 H 0.2148 0.88041 0.41633 0.0
H893 H 0.30919 0.86875 0.61676 0.0
H894 H 0.32776 0.90091 0.6032 0.0
H895 H 0.32989 0.8725 0.54876 0.0
C896 C 0.6874 0.78219 0.9451 0.0
C897 C 0.70057 0.79459 0.99602 0.0
C898 C 0.65836 0.7796 0.94246 0.0
C899 C 0.64199 0.79025 0.9913 0.0
C900 C 0.655 0.80409 0.04137 0.0
C901 C 0.68426 0.80578 0.04359 0.0
C902 C 0.64534 0.76413 0.88893 0.0
C903 C 0.63808 0.81631 0.09345 0.0
C904 C 0.56447 0.7946 0.95636 0.0
C905 C 0.55485 0.77007 0.98433 0.0
C906 C 0.59269 0.80225 0.9607 0.0
C907 C 0.6116 0.78446 0.99222 0.0
C908 C 0.60179 0.75974 0.02083 0.0
C909 C 0.57343 0.75301 0.01706 0.0
C910 C 0.60236 0.82905 0.93085 0.0
C911 C 0.62138 0.73987 0.05355 0.0
H912 H 0.69988 0.77333 0.90832 0.0
H913 H 0.69434 0.8156 0.08274 0.0
H914 H 0.63516 0.74479 0.90601 0.0
H915 H 0.62893 0.77709 0.86684 0.0
H916 H 0.66092 0.75828 0.85331 0.0
H917 H 0.65101 0.82928 0.12488 0.0
H918 H 0.62083 0.82932 0.07486 0.0
H919 H 0.6285 0.79922 0.12078 0.0
H920 H 0.54989 0.80781 0.9315 0.0
H921 H 0.56583 0.73396 0.03833 0.0
H922 H 0.61643 0.82424 0.89168 0.0
H923 H 0.61447 0.84169 0.96437 0.0
H924 H 0.58465 0.84179 0.91331 0.0
H925 H 0.63699 0.7317 0.02039 0.0
H926 H 0.61023 0.72189 0.07461 0.0
H927 H 0.63298 0.75098 0.09037 0.0
loop_
_geom_bond_atom_site_label_1
_geom_bond_atom_site_label_2
_geom_bond_distance
_geom_bond_site_symmetry_2
_ccdc_geom_bond_type
Sc0 O3 2.030 . S
Sc0 O10 2.105 . S
Sc0 O13 2.105 . S
Sc0 O16 2.105 . S
Sc0 O19 2.105 . S
Sc1 O3 2.025 . S
Sc1 O11 2.108 . S
Sc1 O15 2.101 1_554 S
Sc1 O17 2.108 . S
Sc1 O21 2.101 1_554 S
Sc2 O3 2.021 1_556 S
Sc2 O12 2.105 . S
Sc2 O14 2.105 . S
Sc2 O18 2.105 . S
Sc2 O20 2.105 . S
O3 Sc0 2.030 . S
O3 Sc1 2.025 . S
O3 Sc2 2.021 1_554 S
C4 O10 1.271 . S
C4 O20 1.265 1_554 S
C5 O11 1.268 . S
C5 O19 1.268 . S
C6 O12 1.268 . S
C6 O21 1.268 . S
C7 O13 1.268 . S
C7 O17 1.268 . S
C8 O14 1.262 1_554 S
C8 O16 1.274 . S
C9 O15 1.268 . S
C9 O18 1.268 . S
O10 Sc0 2.105 . S
O10 C4 1.271 . S
O11 Sc1 2.108 . S
O11 C5 1.268 . S
O12 Sc2 2.105 . S
O12 C6 1.268 . S
O13 Sc0 2.105 . S
O13 C7 1.268 . S
O14 Sc2 2.105 . S
O14 C8 1.262 1_556 S
O15 Sc1 2.101 1_556 S
O15 C9 1.268 . S
O16 Sc0 2.105 . S
O16 C8 1.274 . S
O17 Sc1 2.108 . S
O17 C7 1.268 . S
O18 Sc2 2.105 . S
O18 C9 1.268 . S
O19 Sc0 2.105 . S
O19 C5 1.268 . S
O20 Sc2 2.105 . S
O20 C4 1.265 1_556 S
O21 Sc1 2.101 1_556 S
O21 C6 1.268 . S
Sc22 O25 2.025 . S
Sc22 O32 2.105 . S
Sc22 O35 2.105 . S
Sc22 O38 2.105 . S
Sc22 O41 2.105 . S
Sc23 O25 2.025 . S
Sc23 O33 2.105 . S
Sc23 O37 2.105 . S
Sc23 O39 2.105 . S
Sc23 O43 2.105 . S
Sc24 O25 2.025 . S
Sc24 O34 2.105 . S
Sc24 O36 2.105 . S
Sc24 O40 2.105 . S
Sc24 O42 2.105 . S
O25 Sc22 2.025 . S
O25 Sc23 2.025 . S
O25 Sc24 2.025 . S
C26 O32 1.268 . S
C26 O42 1.268 . S
C27 O33 1.268 . S
C27 O41 1.268 . S
C28 O34 1.268 . S
C28 O43 1.268 . S
C29 O35 1.268 . S
C29 O39 1.268 . S
C30 O36 1.268 . S
C30 O38 1.268 . S
C31 O37 1.268 . S
C31 O40 1.268 . S
O32 Sc22 2.105 . S
O32 C26 1.268 . S
O33 Sc23 2.105 . S
O33 C27 1.268 . S
O34 Sc24 2.105 . S
O34 C28 1.268 . S
O35 Sc22 2.105 . S
O35 C29 1.268 . S
O36 Sc24 2.105 . S
O36 C30 1.268 . S
O37 Sc23 2.105 . S
O37 C31 1.268 . S
O38 Sc22 2.105 . S
O38 C30 1.268 . S
O39 Sc23 2.105 . S
O39 C29 1.268 . S
O40 Sc24 2.105 . S
O40 C31 1.268 . S
O41 Sc22 2.105 . S
O41 C27 1.268 . S
O42 Sc24 2.105 . S
O42 C26 1.268 . S
O43 Sc23 2.105 . S
O43 C28 1.268 . S
Sc44 O47 2.021 1_556 S
Sc44 O54 2.105 . S
Sc44 O57 2.105 . S
Sc44 O60 2.105 . S
Sc44 O63 2.105 . S
Sc45 O47 2.025 . S
Sc45 O55 2.101 1_554 S
Sc45 O59 2.108 . S
Sc45 O61 2.101 1_554 S
Sc45 O65 2.108 . S
Sc46 O47 2.030 . S
Sc46 O56 2.105 . S
Sc46 O58 2.105 . S
Sc46 O62 2.105 . S
Sc46 O64 2.105 . S
O47 Sc44 2.021 1_554 S
O47 Sc45 2.025 . S
O47 Sc46 2.030 . S
C48 O54 1.265 1_554 S
C48 O64 1.271 . S
C49 O55 1.268 . S
C49 O63 1.268 . S
C50 O56 1.268 . S
C50 O65 1.268 . S
C51 O57 1.268 . S
C51 O61 1.268 . S
C52 O58 1.274 . S
C52 O60 1.262 1_554 S
C53 O59 1.268 . S
C53 O62 1.268 . S
O54 Sc44 2.105 . S
O54 C48 1.265 1_556 S
O55 Sc45 2.101 1_556 S
O55 C49 1.268 . S
O56 Sc46 2.105 . S
O56 C50 1.268 . S
O57 Sc44 2.105 . S
O57 C51 1.268 . S
O58 Sc46 2.105 . S
O58 C52 1.274 . S
O59 Sc45 2.108 . S
O59 C53 1.268 . S
O60 Sc44 2.105 . S
O60 C52 1.262 1_556 S
O61 Sc45 2.101 1_556 S
O61 C51 1.268 . S
O62 Sc46 2.105 . S
O62 C53 1.268 . S
O63 Sc44 2.105 . S
O63 C49 1.268 . S
O64 Sc46 2.105 . S
O64 C48 1.271 . S
O65 Sc45 2.108 . S
O65 C50 1.268 . S
Sc66 O69 2.025 . S
Sc66 O76 2.105 . S
Sc66 O79 2.105 . S
Sc66 O82 2.105 . S
Sc66 O85 2.105 . S
Sc67 O69 2.025 . S
Sc67 O77 2.105 . S
Sc67 O81 2.105 . S
Sc67 O83 2.105 . S
Sc67 O87 2.105 . S
Sc68 O69 2.025 . S
Sc68 O78 2.105 . S
Sc68 O80 2.105 . S
Sc68 O84 2.105 . S
Sc68 O86 2.105 . S
O69 Sc66 2.025 . S
O69 Sc67 2.025 . S
O69 Sc68 2.025 . S
C70 O76 1.268 . S
C70 O86 1.268 . S
C71 O77 1.268 . S
C71 O85 1.268 . S
C72 O78 1.268 . S
C72 O87 1.268 . S
C73 O79 1.268 . S
C73 O83 1.268 . S
C74 O80 1.268 . S
C74 O82 1.268 . S
C75 O81 1.268 . S
C75 O84 1.268 . S
O76 Sc66 2.105 . S
O76 C70 1.268 . S
O77 Sc67 2.105 . S
O77 C71 1.268 . S
O78 Sc68 2.105 . S
O78 C72 1.268 . S
O79 Sc66 2.105 . S
O79 C73 1.268 . S
O80 Sc68 2.105 . S
O80 C74 1.268 . S
O81 Sc67 2.105 . S
O81 C75 1.268 . S
O82 Sc66 2.105 . S
O82 C74 1.268 . S
O83 Sc67 2.105 . S
O83 C73 1.268 . S
O84 Sc68 2.105 . S
O84 C75 1.268 . S
O85 Sc66 2.105 . S
O85 C71 1.268 . S
O86 Sc68 2.105 . S
O86 C70 1.268 . S
O87 Sc67 2.105 . S
O87 C72 1.268 . S
H88 C91 0.931 . S
H89 C94 0.928 . S
H90 C96 0.930 . S
C91 H88 0.931 . S
C91 C92 1.399 1_556 S
C91 C93 1.374 . S
C92 C91 1.399 1_554 S
C92 C96 1.429 . S
C93 C91 1.374 . S
C93 C94 1.372 . S
C94 H89 0.928 . S
C94 C93 1.372 . S
C94 C95 1.406 . S
C95 C94 1.406 . S
C95 C96 1.388 1_556 S
C96 H90 0.930 . S
C96 C92 1.429 . S
C96 C95 1.388 1_554 S
H97 C100 0.931 . S
H98 C103 0.928 1_455 S
H99 C105 0.930 1_455 S
C100 H97 0.931 . S
C100 C101 1.413 . S
C100 C102 1.360 . S
C101 C100 1.413 . S
C101 C105 1.429 . S
C102 C100 1.360 . S
C102 C103 1.372 . S
C103 H98 0.928 1_655 S
C103 C102 1.372 . S
C103 C104 1.404 1_655 S
C104 C103 1.404 1_455 S
C104 C105 1.391 1_455 S
C105 H99 0.930 1_655 S
C105 C101 1.429 . S
C105 C104 1.391 1_655 S
H106 C109 0.931 . S
H107 C112 0.928 . S
H108 C114 0.930 . S
C109 H106 0.931 . S
C109 C110 1.413 1_554 S
C109 C111 1.360 . S
C110 C109 1.413 1_556 S
C110 C114 1.429 . S
C111 C109 1.360 . S
C111 C112 1.372 . S
C112 H107 0.928 . S
C112 C111 1.372 . S
C112 C113 1.418 . S
C113 C112 1.418 . S
C113 C114 1.376 1_554 S
C114 H108 0.930 . S
C114 C110 1.429 . S
C114 C113 1.376 1_556 S
H115 C118 0.931 . S
H116 C121 0.928 1_655 S
H117 C123 0.930 1_655 S
C118 H115 0.931 . S
C118 C119 1.413 . S
C118 C120 1.360 . S
C119 C118 1.413 . S
C119 C123 1.429 . S
C120 C118 1.360 . S
C120 C121 1.372 . S
C121 H116 0.928 1_455 S
C121 C120 1.372 . S
C121 C122 1.404 1_455 S
C122 C121 1.404 1_655 S
C122 C123 1.391 1_655 S
C123 H117 0.930 1_455 S
C123 C119 1.429 . S
C123 C122 1.391 1_455 S
H124 C127 0.931 . S
H125 C130 0.928 1_545 S
H126 C132 0.930 1_545 S
C127 H124 0.931 . S
C127 C128 1.413 . S
C127 C129 1.360 . S
C128 C127 1.413 . S
C128 C132 1.429 . S
C129 C127 1.360 . S
C129 C130 1.372 . S
C130 H125 0.928 1_565 S
C130 C129 1.372 . S
C130 C131 1.404 1_565 S
C131 C130 1.404 1_545 S
C131 C132 1.391 1_545 S
C132 H126 0.930 1_565 S
C132 C128 1.429 . S
C132 C131 1.391 1_565 S
H133 C136 0.931 . S
H134 C139 0.928 . S
H135 C141 0.930 . S
C136 H133 0.931 . S
C136 C137 1.413 1_554 S
C136 C138 1.360 . S
C137 C136 1.413 1_556 S
C137 C141 1.429 . S
C138 C136 1.360 . S
C138 C139 1.372 . S
C139 H134 0.928 . S
C139 C138 1.372 . S
C139 C140 1.418 . S
C140 C139 1.418 . S
C140 C141 1.376 1_554 S
C141 H135 0.930 . S
C141 C137 1.429 . S
C141 C140 1.376 1_556 S
H142 C145 0.931 . S
H143 C148 0.928 1_565 S
H144 C150 0.930 1_565 S
C145 H142 0.931 . S
C145 C146 1.413 . S
C145 C147 1.360 . S
C146 C145 1.413 . S
C146 C150 1.429 . S
C147 C145 1.360 . S
C147 C148 1.372 . S
C148 H143 0.928 1_545 S
C148 C147 1.372 . S
C148 C149 1.404 1_545 S
C149 C148 1.404 1_565 S
C149 C150 1.391 1_565 S
C150 H144 0.930 1_545 S
C150 C146 1.429 . S
C150 C149 1.391 1_545 S
H151 C154 0.931 . S
H152 C157 0.928 . S
H153 C159 0.930 . S
C154 H151 0.931 . S
C154 C155 1.399 1_556 S
C154 C156 1.374 . S
C155 C154 1.399 1_554 S
C155 C159 1.429 . S
C156 C154 1.374 . S
C156 C157 1.372 . S
C157 H152 0.928 . S
C157 C156 1.372 . S
C157 C158 1.406 . S
C158 C157 1.406 . S
C158 C159 1.388 1_556 S
C159 H153 0.930 . S
C159 C155 1.429 . S
C159 C158 1.388 1_554 S
C160 C161 1.391 . S
C160 C162 1.394 . S
C160 H176 0.931 . S
C161 C160 1.391 . S
C161 C165 1.376 . S
C162 C160 1.394 . S
C162 C163 1.369 . S
C162 C166 1.531 . S
C163 C162 1.369 . S
C163 C164 1.410 . S
C163 C171 1.503 . S
C164 C163 1.410 . S
C164 C165 1.392 . S
C164 C167 1.511 . S
C165 C161 1.376 . S
C165 C164 1.392 . S
C165 H177 0.929 . S
C166 C162 1.531 . S
C166 H178 0.960 . S
C166 H179 0.962 . S
C166 H180 0.960 . S
C167 C164 1.511 . S
C167 H181 0.961 . S
C167 H182 0.961 . S
C167 H183 0.961 . S
C168 C169 1.370 . S
C168 C170 1.363 . S
C168 H184 0.931 . S
C169 C168 1.370 . S
C169 C173 1.408 . S
C170 C168 1.363 . S
C170 C171 1.370 . S
C170 C174 1.524 . S
C171 C163 1.503 . S
C171 C170 1.370 . S
C171 C172 1.403 . S
C172 C171 1.403 . S
C172 C173 1.404 . S
C172 C175 1.539 . S
C173 C169 1.408 . S
C173 C172 1.404 . S
C173 H185 0.930 . S
C174 C170 1.524 . S
C174 H186 0.956 . S
C174 H187 0.961 . S
C174 H188 0.961 . S
C175 C172 1.539 . S
C175 H189 0.958 . S
C175 H190 0.961 . S
C175 H191 0.960 . S
H176 C160 0.931 . S
H177 C165 0.929 . S
H178 C166 0.960 . S
H179 C166 0.962 . S
H180 C166 0.960 . S
H181 C167 0.961 . S
H182 C167 0.961 . S
H183 C167 0.961 . S
H184 C168 0.931 . S
H185 C173 0.930 . S
H186 C174 0.956 . S
H187 C174 0.961 . S
H188 C174 0.961 . S
H189 C175 0.958 . S
H190 C175 0.961 . S
H191 C175 0.960 . S
C192 C193 1.391 . S
C192 C194 1.394 . S
C192 H208 0.931 . S
C193 C192 1.391 . S
C193 C197 1.376 . S
C194 C192 1.394 . S
C194 C195 1.369 . S
C194 C198 1.531 . S
C195 C194 1.369 . S
C195 C196 1.410 . S
C195 C203 1.503 . S
C196 C195 1.410 . S
C196 C197 1.392 . S
C196 C199 1.511 . S
C197 C193 1.376 . S
C197 C196 1.392 . S
C197 H209 0.929 . S
C198 C194 1.531 . S
C198 H210 0.960 . S
C198 H211 0.962 . S
C198 H212 0.960 . S
C199 C196 1.511 . S
C199 H213 0.961 . S
C199 H214 0.961 . S
C199 H215 0.961 . S
C200 C201 1.370 . S
C200 C202 1.363 . S
C200 H216 0.931 . S
C201 C200 1.370 . S
C201 C205 1.408 . S
C202 C200 1.363 . S
C202 C203 1.370 . S
C202 C206 1.524 . S
C203 C195 1.503 . S
C203 C202 1.370 . S
C203 C204 1.403 . S
C204 C203 1.403 . S
C204 C205 1.404 . S
C204 C207 1.539 . S
C205 C201 1.408 . S
C205 C204 1.404 . S
C205 H217 0.930 . S
C206 C202 1.524 . S
C206 H218 0.956 . S
C206 H219 0.961 . S
C206 H220 0.961 . S
C207 C204 1.539 . S
C207 H221 0.958 . S
C207 H222 0.961 . S
C207 H223 0.960 . S
H208 C192 0.931 . S
H209 C197 0.929 . S
H210 C198 0.960 . S
H211 C198 0.962 . S
H212 C198 0.960 . S
H213 C199 0.961 . S
H214 C199 0.961 . S
H215 C199 0.961 . S
H216 C200 0.931 . S
H217 C205 0.930 . S
H218 C206 0.956 . S
H219 C206 0.961 . S
H220 C206 0.961 . S
H221 C207 0.958 . S
H222 C207 0.961 . S
H223 C207 0.960 . S
C224 C225 1.391 . S
C224 C226 1.394 . S
C224 H240 0.931 . S
C225 C224 1.391 . S
C225 C229 1.376 . S
C226 C224 1.394 . S
C226 C227 1.369 . S
C226 C230 1.531 . S
C227 C226 1.369 . S
C227 C228 1.410 . S
C227 C235 1.503 . S
C228 C227 1.410 . S
C228 C229 1.392 . S
C228 C231 1.511 . S
C229 C225 1.376 . S
C229 C228 1.392 . S
C229 H241 0.929 . S
C230 C226 1.531 . S
C230 H242 0.960 . S
C230 H243 0.962 . S
C230 H244 0.960 . S
C231 C228 1.511 . S
C231 H245 0.961 . S
C231 H246 0.961 . S
C231 H247 0.961 . S
C232 C233 1.370 . S
C232 C234 1.363 . S
C232 H248 0.931 . S
C233 C232 1.370 . S
C233 C237 1.408 . S
C234 C232 1.363 . S
C234 C235 1.370 . S
C234 C238 1.524 . S
C235 C227 1.503 . S
C235 C234 1.370 . S
C235 C236 1.403 . S
C236 C235 1.403 . S
C236 C237 1.404 . S
C236 C239 1.539 . S
C237 C233 1.408 . S
C237 C236 1.404 . S
C237 H249 0.930 . S
C238 C234 1.524 . S
C238 H250 0.956 . S
C238 H251 0.961 . S
C238 H252 0.961 . S
C239 C236 1.539 . S
C239 H253 0.958 . S
C239 H254 0.961 . S
C239 H255 0.960 . S
H240 C224 0.931 . S
H241 C229 0.929 . S
H242 C230 0.960 . S
H243 C230 0.962 . S
H244 C230 0.960 . S
H245 C231 0.961 . S
H246 C231 0.961 . S
H247 C231 0.961 . S
H248 C232 0.931 . S
H249 C237 0.930 . S
H250 C238 0.956 . S
H251 C238 0.961 . S
H252 C238 0.961 . S
H253 C239 0.958 . S
H254 C239 0.961 . S
H255 C239 0.960 . S
C256 C257 1.391 . S
C256 C258 1.394 . S
C256 H272 0.931 . S
C257 C256 1.391 . S
C257 C261 1.376 . S
C258 C256 1.394 . S
C258 C259 1.369 . S
C258 C262 1.531 . S
C259 C258 1.369 . S
C259 C260 1.410 . S
C259 C267 1.503 . S
C260 C259 1.410 . S
C260 C261 1.392 . S
C260 C263 1.511 . S
C261 C257 1.376 . S
C261 C260 1.392 . S
C261 H273 0.929 . S
C262 C258 1.531 . S
C262 H274 0.960 . S
C262 H275 0.962 . S
C262 H276 0.960 . S
C263 C260 1.511 . S
C263 H277 0.961 . S
C263 H278 0.961 . S
C263 H279 0.961 . S
C264 C265 1.370 . S
C264 C266 1.363 . S
C264 H280 0.931 . S
C265 C264 1.370 . S
C265 C269 1.408 . S
C266 C264 1.363 . S
C266 C267 1.370 . S
C266 C270 1.524 . S
C267 C259 1.503 . S
C267 C266 1.370 . S
C267 C268 1.403 . S
C268 C267 1.403 . S
C268 C269 1.404 . S
C268 C271 1.539 . S
C269 C265 1.408 . S
C269 C268 1.404 . S
C269 H281 0.930 . S
C270 C266 1.524 . S
C270 H282 0.956 . S
C270 H283 0.961 . S
C270 H284 0.961 . S
C271 C268 1.539 . S
C271 H285 0.958 . S
C271 H286 0.961 . S
C271 H287 0.960 . S
H272 C256 0.931 . S
H273 C261 0.929 . S
H274 C262 0.960 . S
H275 C262 0.962 . S
H276 C262 0.960 . S
H277 C263 0.961 . S
H278 C263 0.961 . S
H279 C263 0.961 . S
H280 C264 0.931 . S
H281 C269 0.930 . S
H282 C270 0.956 . S
H283 C270 0.961 . S
H284 C270 0.961 . S
H285 C271 0.958 . S
H286 C271 0.961 . S
H287 C271 0.960 . S
C288 C289 1.391 . S
C288 C290 1.394 . S
C288 H304 0.931 . S
C289 C288 1.391 . S
C289 C293 1.376 . S
C290 C288 1.394 . S
C290 C291 1.369 . S
C290 C294 1.531 . S
C291 C290 1.369 . S
C291 C292 1.410 . S
C291 C299 1.503 . S
C292 C291 1.410 . S
C292 C293 1.392 . S
C292 C295 1.511 . S
C293 C289 1.376 . S
C293 C292 1.392 . S
C293 H305 0.929 . S
C294 C290 1.531 . S
C294 H306 0.960 . S
C294 H307 0.962 . S
C294 H308 0.960 . S
C295 C292 1.511 . S
C295 H309 0.961 . S
C295 H310 0.961 . S
C295 H311 0.961 . S
C296 C297 1.370 . S
C296 C298 1.363 . S
C296 H312 0.931 . S
C297 C296 1.370 . S
C297 C301 1.408 . S
C298 C296 1.363 . S
C298 C299 1.370 . S
C298 C302 1.524 . S
C299 C291 1.503 . S
C299 C298 1.370 . S
C299 C300 1.403 . S
C300 C299 1.403 . S
C300 C301 1.404 . S
C300 C303 1.539 . S
C301 C297 1.408 . S
C301 C300 1.404 . S
C301 H313 0.930 . S
C302 C298 1.524 . S
C302 H314 0.956 . S
C302 H315 0.961 . S
C302 H316 0.961 . S
C303 C300 1.539 . S
C303 H317 0.958 . S
C303 H318 0.961 . S
C303 H319 0.960 . S
H304 C288 0.931 . S
H305 C293 0.929 . S
H306 C294 0.960 . S
H307 C294 0.962 . S
H308 C294 0.960 . S
H309 C295 0.961 . S
H310 C295 0.961 . S
H311 C295 0.961 . S
H312 C296 0.931 . S
H313 C301 0.930 . S
H314 C302 0.956 . S
H315 C302 0.961 . S
H316 C302 0.961 . S
H317 C303 0.958 . S
H318 C303 0.961 . S
H319 C303 0.960 . S
C320 C321 1.391 . S
C320 C322 1.394 . S
C320 H336 0.931 . S
C321 C320 1.391 . S
C321 C325 1.376 . S
C322 C320 1.394 . S
C322 C323 1.369 . S
C322 C326 1.531 . S
C323 C322 1.369 . S
C323 C324 1.410 . S
C323 C331 1.503 . S
C324 C323 1.410 . S
C324 C325 1.392 . S
C324 C327 1.511 . S
C325 C321 1.376 . S
C325 C324 1.392 . S
C325 H337 0.929 . S
C326 C322 1.531 . S
C326 H338 0.960 . S
C326 H339 0.962 . S
C326 H340 0.960 . S
C327 C324 1.511 . S
C327 H341 0.961 . S
C327 H342 0.961 . S
C327 H343 0.961 . S
C328 C329 1.370 . S
C328 C330 1.363 . S
C328 H344 0.931 . S
C329 C328 1.370 . S
C329 C333 1.408 . S
C330 C328 1.363 . S
C330 C331 1.370 . S
C330 C334 1.524 . S
C331 C323 1.503 . S
C331 C330 1.370 . S
C331 C332 1.403 . S
C332 C331 1.403 . S
C332 C333 1.404 . S
C332 C335 1.539 . S
C333 C329 1.408 . S
C333 C332 1.404 . S
C333 H345 0.930 . S
C334 C330 1.524 . S
C334 H346 0.956 . S
C334 H347 0.961 . S
C334 H348 0.961 . S
C335 C332 1.539 . S
C335 H349 0.958 . S
C335 H350 0.961 . S
C335 H351 0.960 . S
H336 C320 0.931 . S
H337 C325 0.929 . S
H338 C326 0.960 . S
H339 C326 0.962 . S
H340 C326 0.960 . S
H341 C327 0.961 . S
H342 C327 0.961 . S
H343 C327 0.961 . S
H344 C328 0.931 . S
H345 C333 0.930 . S
H346 C334 0.956 . S
H347 C334 0.961 . S
H348 C334 0.961 . S
H349 C335 0.958 . S
H350 C335 0.961 . S
H351 C335 0.960 . S
C352 C353 1.391 . S
C352 C354 1.394 . S
C352 H368 0.931 . S
C353 C352 1.391 . S
C353 C357 1.376 . S
C354 C352 1.394 . S
C354 C355 1.369 . S
C354 C358 1.531 . S
C355 C354 1.369 . S
C355 C356 1.410 . S
C355 C363 1.503 . S
C356 C355 1.410 . S
C356 C357 1.392 . S
C356 C359 1.511 . S
C357 C353 1.376 . S
C357 C356 1.392 . S
C357 H369 0.929 . S
C358 C354 1.531 . S
C358 H370 0.960 . S
C358 H371 0.962 . S
C358 H372 0.960 . S
C359 C356 1.511 . S
C359 H373 0.961 . S
C359 H374 0.961 . S
C359 H375 0.961 . S
C360 C361 1.370 . S
C360 C362 1.363 . S
C360 H376 0.931 . S
C361 C360 1.370 . S
C361 C365 1.408 . S
C362 C360 1.363 . S
C362 C363 1.370 . S
C362 C366 1.524 . S
C363 C355 1.503 . S
C363 C362 1.370 . S
C363 C364 1.403 . S
C364 C363 1.403 . S
C364 C365 1.404 . S
C364 C367 1.539 . S
C365 C361 1.408 . S
C365 C364 1.404 . S
C365 H377 0.930 . S
C366 C362 1.524 . S
C366 H378 0.956 . S
C366 H379 0.961 . S
C366 H380 0.961 . S
C367 C364 1.539 . S
C367 H381 0.958 . S
C367 H382 0.961 . S
C367 H383 0.960 . S
H368 C352 0.931 . S
H369 C357 0.929 . S
H370 C358 0.960 . S
H371 C358 0.962 . S
H372 C358 0.960 . S
H373 C359 0.961 . S
H374 C359 0.961 . S
H375 C359 0.961 . S
H376 C360 0.931 . S
H377 C365 0.930 . S
H378 C366 0.956 . S
H379 C366 0.961 . S
H380 C366 0.961 . S
H381 C367 0.958 . S
H382 C367 0.961 . S
H383 C367 0.960 . S
C384 C385 1.391 . S
C384 C386 1.394 . S
C384 H400 0.931 . S
C385 C384 1.391 . S
C385 C389 1.376 . S
C386 C384 1.394 . S
C386 C387 1.369 . S
C386 C390 1.531 . S
C387 C386 1.369 . S
C387 C388 1.410 . S
C387 C395 1.503 . S
C388 C387 1.410 . S
C388 C389 1.392 . S
C388 C391 1.511 . S
C389 C385 1.376 . S
C389 C388 1.392 . S
C389 H401 0.929 . S
C390 C386 1.531 . S
C390 H402 0.960 . S
C390 H403 0.962 . S
C390 H404 0.960 . S
C391 C388 1.511 . S
C391 H405 0.961 . S
C391 H406 0.961 . S
C391 H407 0.961 . S
C392 C393 1.370 . S
C392 C394 1.363 . S
C392 H408 0.931 . S
C393 C392 1.370 . S
C393 C397 1.408 . S
C394 C392 1.363 . S
C394 C395 1.370 . S
C394 C398 1.524 . S
C395 C387 1.503 . S
C395 C394 1.370 . S
C395 C396 1.403 . S
C396 C395 1.403 . S
C396 C397 1.404 . S
C396 C399 1.539 . S
C397 C393 1.408 . S
C397 C396 1.404 . S
C397 H409 0.930 . S
C398 C394 1.524 . S
C398 H410 0.956 . S
C398 H411 0.961 . S
C398 H412 0.961 . S
C399 C396 1.539 . S
C399 H413 0.958 . S
C399 H414 0.961 . S
C399 H415 0.960 . S
H400 C384 0.931 . S
H401 C389 0.929 . S
H402 C390 0.960 . S
H403 C390 0.962 . S
H404 C390 0.960 . S
H405 C391 0.961 . S
H406 C391 0.961 . S
H407 C391 0.961 . S
H408 C392 0.931 . S
H409 C397 0.930 . S
H410 C398 0.956 . S
H411 C398 0.961 . S
H412 C398 0.961 . S
H413 C399 0.958 . S
H414 C399 0.961 . S
H415 C399 0.960 . S
C416 C417 1.391 . S
C416 C418 1.394 . S
C416 H432 0.931 . S
C417 C416 1.391 . S
C417 C421 1.376 . S
C418 C416 1.394 . S
C418 C419 1.369 . S
C418 C422 1.531 . S
C419 C418 1.369 . S
C419 C420 1.410 . S
C419 C427 1.503 . S
C420 C419 1.410 . S
C420 C421 1.392 . S
C420 C423 1.511 . S
C421 C417 1.376 . S
C421 C420 1.392 . S
C421 H433 0.929 . S
C422 C418 1.531 . S
C422 H434 0.960 . S
C422 H435 0.962 . S
C422 H436 0.960 . S
C423 C420 1.511 . S
C423 H437 0.961 . S
C423 H438 0.961 . S
C423 H439 0.961 . S
C424 C425 1.370 . S
C424 C426 1.363 . S
C424 H440 0.931 . S
C425 C424 1.370 . S
C425 C429 1.408 . S
C426 C424 1.363 . S
C426 C427 1.370 . S
C426 C430 1.524 . S
C427 C419 1.503 . S
C427 C426 1.370 . S
C427 C428 1.403 . S
C428 C427 1.403 . S
C428 C429 1.404 . S
C428 C431 1.539 . S
C429 C425 1.408 . S
C429 C428 1.404 . S
C429 H441 0.930 . S
C430 C426 1.524 . S
C430 H442 0.956 . S
C430 H443 0.961 . S
C430 H444 0.961 . S
C431 C428 1.539 . S
C431 H445 0.958 . S
C431 H446 0.961 . S
C431 H447 0.960 . S
H432 C416 0.931 . S
H433 C421 0.929 . S
H434 C422 0.960 . S
H435 C422 0.962 . S
H436 C422 0.960 . S
H437 C423 0.961 . S
H438 C423 0.961 . S
H439 C423 0.961 . S
H440 C424 0.931 . S
H441 C429 0.930 . S
H442 C430 0.956 . S
H443 C430 0.961 . S
H444 C430 0.961 . S
H445 C431 0.958 . S
H446 C431 0.961 . S
H447 C431 0.960 . S
C448 C449 1.391 . S
C448 C450 1.394 . S
C448 H464 0.931 . S
C449 C448 1.391 . S
C449 C453 1.376 . S
C450 C448 1.394 . S
C450 C451 1.369 . S
C450 C454 1.531 . S
C451 C450 1.369 . S
C451 C452 1.410 . S
C451 C459 1.503 . S
C452 C451 1.410 . S
C452 C453 1.392 . S
C452 C455 1.511 . S
C453 C449 1.376 . S
C453 C452 1.392 . S
C453 H465 0.929 . S
C454 C450 1.531 . S
C454 H466 0.960 . S
C454 H467 0.962 . S
C454 H468 0.960 . S
C455 C452 1.511 . S
C455 H469 0.961 . S
C455 H470 0.961 . S
C455 H471 0.961 . S
C456 C457 1.370 . S
C456 C458 1.363 . S
C456 H472 0.931 . S
C457 C456 1.370 . S
C457 C461 1.408 . S
C458 C456 1.363 . S
C458 C459 1.370 . S
C458 C462 1.524 . S
C459 C451 1.503 . S
C459 C458 1.370 . S
C459 C460 1.403 . S
C460 C459 1.403 . S
C460 C461 1.404 . S
C460 C463 1.539 . S
C461 C457 1.408 . S
C461 C460 1.404 . S
C461 H473 0.930 . S
C462 C458 1.524 . S
C462 H474 0.956 . S
C462 H475 0.961 . S
C462 H476 0.961 . S
C463 C460 1.539 . S
C463 H477 0.958 . S
C463 H478 0.961 . S
C463 H479 0.960 . S
H464 C448 0.931 . S
H465 C453 0.929 . S
H466 C454 0.960 . S
H467 C454 0.962 . S
H468 C454 0.960 . S
H469 C455 0.961 . S
H470 C455 0.961 . S
H471 C455 0.961 . S
H472 C456 0.931 . S
H473 C461 0.930 . S
H474 C462 0.956 . S
H475 C462 0.961 . S
H476 C462 0.961 . S
H477 C463 0.958 . S
H478 C463 0.961 . S
H479 C463 0.960 . S
C480 C481 1.391 . S
C480 C482 1.394 . S
C480 H496 0.931 . S
C481 C480 1.391 . S
C481 C485 1.376 . S
C482 C480 1.394 . S
C482 C483 1.369 . S
C482 C486 1.531 . S
C483 C482 1.369 . S
C483 C484 1.410 . S
C483 C491 1.503 . S
C484 C483 1.410 . S
C484 C485 1.392 . S
C484 C487 1.511 . S
C485 C481 1.376 . S
C485 C484 1.392 . S
C485 H497 0.929 . S
C486 C482 1.531 . S
C486 H498 0.960 . S
C486 H499 0.962 . S
C486 H500 0.960 . S
C487 C484 1.511 . S
C487 H501 0.961 . S
C487 H502 0.961 . S
C487 H503 0.961 . S
C488 C489 1.370 . S
C488 C490 1.363 . S
C488 H504 0.931 . S
C489 C488 1.370 . S
C489 C493 1.408 . S
C490 C488 1.363 . S
C490 C491 1.370 . S
C490 C494 1.524 . S
C491 C483 1.503 . S
C491 C490 1.370 . S
C491 C492 1.403 . S
C492 C491 1.403 . S
C492 C493 1.404 . S
C492 C495 1.539 . S
C493 C489 1.408 . S
C493 C492 1.404 . S
C493 H505 0.930 . S
C494 C490 1.524 . S
C494 H506 0.956 . S
C494 H507 0.961 . S
C494 H508 0.961 . S
C495 C492 1.539 . S
C495 H509 0.958 . S
C495 H510 0.961 . S
C495 H511 0.960 . S
H496 C480 0.931 . S
H497 C485 0.929 . S
H498 C486 0.960 . S
H499 C486 0.962 . S
H500 C486 0.960 . S
H501 C487 0.961 . S
H502 C487 0.961 . S
H503 C487 0.961 . S
H504 C488 0.931 . S
H505 C493 0.930 . S
H506 C494 0.956 . S
H507 C494 0.961 . S
H508 C494 0.961 . S
H509 C495 0.958 . S
H510 C495 0.961 . S
H511 C495 0.960 . S
C512 C513 1.391 . S
C512 C514 1.394 . S
C512 H528 0.931 . S
C513 C512 1.391 . S
C513 C517 1.376 . S
C514 C512 1.394 . S
C514 C515 1.369 . S
C514 C518 1.531 . S
C515 C514 1.369 . S
C515 C516 1.410 . S
C515 C523 1.503 . S
C516 C515 1.410 . S
C516 C517 1.392 . S
C516 C519 1.511 . S
C517 C513 1.376 . S
C517 C516 1.392 . S
C517 H529 0.929 . S
C518 C514 1.531 . S
C518 H530 0.960 . S
C518 H531 0.962 . S
C518 H532 0.960 . S
C519 C516 1.511 . S
C519 H533 0.961 . S
C519 H534 0.961 . S
C519 H535 0.961 . S
C520 C521 1.370 . S
C520 C522 1.363 . S
C520 H536 0.931 . S
C521 C520 1.370 . S
C521 C525 1.408 . S
C522 C520 1.363 . S
C522 C523 1.370 . S
C522 C526 1.524 . S
C523 C515 1.503 . S
C523 C522 1.370 . S
C523 C524 1.403 . S
C524 C523 1.403 . S
C524 C525 1.404 . S
C524 C527 1.539 . S
C525 C521 1.408 . S
C525 C524 1.404 . S
C525 H537 0.930 . S
C526 C522 1.524 . S
C526 H538 0.956 . S
C526 H539 0.961 . S
C526 H540 0.961 . S
C527 C524 1.539 . S
C527 H541 0.958 . S
C527 H542 0.961 . S
C527 H543 0.960 . S
H528 C512 0.931 . S
H529 C517 0.929 . S
H530 C518 0.960 . S
H531 C518 0.962 . S
H532 C518 0.960 . S
H533 C519 0.961 . S
H534 C519 0.961 . S
H535 C519 0.961 . S
H536 C520 0.931 . S
H537 C525 0.930 . S
H538 C526 0.956 . S
H539 C526 0.961 . S
H540 C526 0.961 . S
H541 C527 0.958 . S
H542 C527 0.961 . S
H543 C527 0.960 . S
C544 C545 1.391 . S
C544 C546 1.394 . S
C544 H560 0.931 . S
C545 C544 1.391 . S
C545 C549 1.376 . S
C546 C544 1.394 . S
C546 C547 1.369 . S
C546 C550 1.531 . S
C547 C546 1.369 . S
C547 C548 1.410 . S
C547 C555 1.503 . S
C548 C547 1.410 . S
C548 C549 1.392 . S
C548 C551 1.511 . S
C549 C545 1.376 . S
C549 C548 1.392 . S
C549 H561 0.929 . S
C550 C546 1.531 . S
C550 H562 0.960 . S
C550 H563 0.962 . S
C550 H564 0.960 . S
C551 C548 1.511 . S
C551 H565 0.961 . S
C551 H566 0.961 . S
C551 H567 0.961 . S
C552 C553 1.370 . S
C552 C554 1.363 . S
C552 H568 0.931 . S
C553 C552 1.370 . S
C553 C557 1.408 . S
C554 C552 1.363 . S
C554 C555 1.370 . S
C554 C558 1.524 . S
C555 C547 1.503 . S
C555 C554 1.370 . S
C555 C556 1.403 . S
C556 C555 1.403 . S
C556 C557 1.404 . S
C556 C559 1.539 . S
C557 C553 1.408 . S
C557 C556 1.404 . S
C557 H569 0.930 . S
C558 C554 1.524 . S
C558 H570 0.956 . S
C558 H571 0.961 . S
C558 H572 0.961 . S
C559 C556 1.539 . S
C559 H573 0.958 . S
C559 H574 0.961 . S
C559 H575 0.960 . S
H560 C544 0.931 . S
H561 C549 0.929 . S
H562 C550 0.960 . S
H563 C550 0.962 . S
H564 C550 0.960 . S
H565 C551 0.961 . S
H566 C551 0.961 . S
H567 C551 0.961 . S
H568 C552 0.931 . S
H569 C557 0.930 . S
H570 C558 0.956 . S
H571 C558 0.961 . S
H572 C558 0.961 . S
H573 C559 0.958 . S
H574 C559 0.961 . S
H575 C559 0.960 . S
C576 C577 1.391 . S
C576 C578 1.394 . S
C576 H592 0.931 . S
C577 C576 1.391 . S
C577 C581 1.376 . S
C578 C576 1.394 . S
C578 C579 1.369 . S
C578 C582 1.531 . S
C579 C578 1.369 . S
C579 C580 1.410 . S
C579 C587 1.503 . S
C580 C579 1.410 . S
C580 C581 1.392 . S
C580 C583 1.511 . S
C581 C577 1.376 . S
C581 C580 1.392 . S
C581 H593 0.929 . S
C582 C578 1.531 . S
C582 H594 0.960 . S
C582 H595 0.962 . S
C582 H596 0.960 . S
C583 C580 1.511 . S
C583 H597 0.961 . S
C583 H598 0.961 . S
C583 H599 0.961 . S
C584 C585 1.370 . S
C584 C586 1.363 . S
C584 H600 0.931 . S
C585 C584 1.370 . S
C585 C589 1.408 . S
C586 C584 1.363 . S
C586 C587 1.370 . S
C586 C590 1.524 . S
C587 C579 1.503 . S
C587 C586 1.370 . S
C587 C588 1.403 . S
C588 C587 1.403 . S
C588 C589 1.404 . S
C588 C591 1.539 . S
C589 C585 1.408 . S
C589 C588 1.404 . S
C589 H601 0.930 . S
C590 C586 1.524 . S
C590 H602 0.956 . S
C590 H603 0.961 . S
C590 H604 0.961 . S
C591 C588 1.539 . S
C591 H605 0.958 . S
C591 H606 0.961 . S
C591 H607 0.960 . S
H592 C576 0.931 . S
H593 C581 0.929 . S
H594 C582 0.960 . S
H595 C582 0.962 . S
H596 C582 0.960 . S
H597 C583 0.961 . S
H598 C583 0.961 . S
H599 C583 0.961 . S
H600 C584 0.931 . S
H601 C589 0.930 . S
H602 C590 0.956 . S
H603 C590 0.961 . S
H604 C590 0.961 . S
H605 C591 0.958 . S
H606 C591 0.961 . S
H607 C591 0.960 . S
C608 C609 1.391 . S
C608 C610 1.394 . S
C608 H624 0.931 . S
C609 C608 1.391 . S
C609 C613 1.376 . S
C610 C608 1.394 . S
C610 C611 1.369 . S
C610 C614 1.531 . S
C611 C610 1.369 . S
C611 C612 1.410 . S
C611 C619 1.503 . S
C612 C611 1.410 . S
C612 C613 1.392 . S
C612 C615 1.511 . S
C613 C609 1.376 . S
C613 C612 1.392 . S
C613 H625 0.929 . S
C614 C610 1.531 . S
C614 H626 0.960 . S
C614 H627 0.962 . S
C614 H628 0.960 . S
C615 C612 1.511 . S
C615 H629 0.961 . S
C615 H630 0.961 . S
C615 H631 0.961 . S
C616 C617 1.370 . S
C616 C618 1.363 . S
C616 H632 0.931 . S
C617 C616 1.370 . S
C617 C621 1.408 . S
C618 C616 1.363 . S
C618 C619 1.370 . S
C618 C622 1.524 . S
C619 C611 1.503 . S
C619 C618 1.370 . S
C619 C620 1.403 . S
C620 C619 1.403 . S
C620 C621 1.404 . S
C620 C623 1.539 . S
C621 C617 1.408 . S
C621 C620 1.404 . S
C621 H633 0.930 . S
C622 C618 1.524 . S
C622 H634 0.956 . S
C622 H635 0.961 . S
C622 H636 0.961 . S
C623 C620 1.539 . S
C623 H637 0.958 . S
C623 H638 0.961 . S
C623 H639 0.960 . S
H624 C608 0.931 . S
H625 C613 0.929 . S
H626 C614 0.960 . S
H627 C614 0.962 . S
H628 C614 0.960 . S
H629 C615 0.961 . S
H630 C615 0.961 . S
H631 C615 0.961 . S
H632 C616 0.931 . S
H633 C621 0.930 . S
H634 C622 0.956 . S
H635 C622 0.961 . S
H636 C622 0.961 . S
H637 C623 0.958 . S
H638 C623 0.961 . S
H639 C623 0.960 . S
C640 C641 1.391 . S
C640 C642 1.394 . S
C640 H656 0.931 . S
C641 C640 1.391 . S
C641 C645 1.376 . S
C642 C640 1.394 . S
C642 C643 1.369 . S
C642 C646 1.531 . S
C643 C642 1.369 . S
C643 C644 1.410 . S
C643 C651 1.503 . S
C644 C643 1.410 . S
C644 C645 1.392 . S
C644 C647 1.511 . S
C645 C641 1.376 . S
C645 C644 1.392 . S
C645 H657 0.929 . S
C646 C642 1.531 . S
C646 H658 0.960 . S
C646 H659 0.962 . S
C646 H660 0.960 . S
C647 C644 1.511 . S
C647 H661 0.961 . S
C647 H662 0.961 . S
C647 H663 0.961 . S
C648 C649 1.370 . S
C648 C650 1.363 . S
C648 H664 0.931 . S
C649 C648 1.370 . S
C649 C653 1.408 . S
C650 C648 1.363 . S
C650 C651 1.370 . S
C650 C654 1.524 . S
C651 C643 1.503 . S
C651 C650 1.370 . S
C651 C652 1.403 . S
C652 C651 1.403 . S
C652 C653 1.404 . S
C652 C655 1.539 . S
C653 C649 1.408 . S
C653 C652 1.404 . S
C653 H665 0.930 . S
C654 C650 1.524 . S
C654 H666 0.956 . S
C654 H667 0.961 . S
C654 H668 0.961 . S
C655 C652 1.539 . S
C655 H669 0.958 . S
C655 H670 0.961 . S
C655 H671 0.960 . S
H656 C640 0.931 . S
H657 C645 0.929 . S
H658 C646 0.960 . S
H659 C646 0.962 . S
H660 C646 0.960 . S
H661 C647 0.961 . S
H662 C647 0.961 . S
H663 C647 0.961 . S
H664 C648 0.931 . S
H665 C653 0.930 . S
H666 C654 0.956 . S
H667 C654 0.961 . S
H668 C654 0.961 . S
H669 C655 0.958 . S
H670 C655 0.961 . S
H671 C655 0.960 . S
C672 C673 1.391 . S
C672 C674 1.394 . S
C672 H688 0.931 . S
C673 C672 1.391 . S
C673 C677 1.376 1_554 S
C674 C672 1.394 . S
C674 C675 1.369 . S
C674 C678 1.531 . S
C675 C674 1.369 . S
C675 C676 1.410 1_554 S
C675 C683 1.503 . S
C676 C675 1.410 1_556 S
C676 C677 1.392 . S
C676 C679 1.511 . S
C677 C673 1.376 1_556 S
C677 C676 1.392 . S
C677 H689 0.929 . S
C678 C674 1.531 . S
C678 H690 0.960 . S
C678 H691 0.962 . S
C678 H692 0.960 . S
C679 C676 1.511 . S
C679 H693 0.961 . S
C679 H694 0.961 . S
C679 H695 0.961 . S
C680 C681 1.370 1_556 S
C680 C682 1.363 . S
C680 H696 0.931 . S
C681 C680 1.370 1_554 S
C681 C685 1.408 . S
C682 C680 1.363 . S
C682 C683 1.370 1_556 S
C682 C686 1.524 . S
C683 C675 1.503 . S
C683 C682 1.370 1_554 S
C683 C684 1.403 . S
C684 C683 1.403 . S
C684 C685 1.404 . S
C684 C687 1.539 . S
C685 C681 1.408 . S
C685 C684 1.404 . S
C685 H697 0.930 . S
C686 C682 1.524 . S
C686 H698 0.956 . S
C686 H699 0.961 . S
C686 H700 0.961 . S
C687 C684 1.539 . S
C687 H701 0.958 . S
C687 H702 0.961 . S
C687 H703 0.960 . S
H688 C672 0.931 . S
H689 C677 0.929 . S
H690 C678 0.960 . S
H691 C678 0.962 . S
H692 C678 0.960 . S
H693 C679 0.961 . S
H694 C679 0.961 . S
H695 C679 0.961 . S
H696 C680 0.931 . S
H697 C685 0.930 . S
H698 C686 0.956 . S
H699 C686 0.961 . S
H700 C686 0.961 . S
H701 C687 0.958 . S
H702 C687 0.961 . S
H703 C687 0.960 . S
C704 C705 1.391 . S
C704 C706 1.394 . S
C704 H720 0.931 . S
C705 C704 1.391 . S
C705 C709 1.376 . S
C706 C704 1.394 . S
C706 C707 1.369 . S
C706 C710 1.531 . S
C707 C706 1.369 . S
C707 C708 1.410 . S
C707 C715 1.503 . S
C708 C707 1.410 . S
C708 C709 1.392 . S
C708 C711 1.511 . S
C709 C705 1.376 . S
C709 C708 1.392 . S
C709 H721 0.929 . S
C710 C706 1.531 . S
C710 H722 0.960 . S
C710 H723 0.962 . S
C710 H724 0.960 . S
C711 C708 1.511 . S
C711 H725 0.961 . S
C711 H726 0.961 . S
C711 H727 0.961 . S
C712 C713 1.370 . S
C712 C714 1.363 . S
C712 H728 0.931 . S
C713 C712 1.370 . S
C713 C717 1.408 . S
C714 C712 1.363 . S
C714 C715 1.370 . S
C714 C718 1.524 . S
C715 C707 1.503 . S
C715 C714 1.370 . S
C715 C716 1.403 . S
C716 C715 1.403 . S
C716 C717 1.404 . S
C716 C719 1.539 . S
C717 C713 1.408 . S
C717 C716 1.404 . S
C717 H729 0.930 . S
C718 C714 1.524 . S
C718 H730 0.956 . S
C718 H731 0.961 . S
C718 H732 0.961 . S
C719 C716 1.539 . S
C719 H733 0.958 . S
C719 H734 0.961 . S
C719 H735 0.960 . S
H720 C704 0.931 . S
H721 C709 0.929 . S
H722 C710 0.960 . S
H723 C710 0.962 . S
H724 C710 0.960 . S
H725 C711 0.961 . S
H726 C711 0.961 . S
H727 C711 0.961 . S
H728 C712 0.931 . S
H729 C717 0.930 . S
H730 C718 0.956 . S
H731 C718 0.961 . S
H732 C718 0.961 . S
H733 C719 0.958 . S
H734 C719 0.961 . S
H735 C719 0.960 . S
C736 C737 1.391 . S
C736 C738 1.394 . S
C736 H752 0.931 . S
C737 C736 1.391 . S
C737 C741 1.376 1_556 S
C738 C736 1.394 . S
C738 C739 1.369 . S
C738 C742 1.531 . S
C739 C738 1.369 . S
C739 C740 1.410 1_556 S
C739 C747 1.503 . S
C740 C739 1.410 1_554 S
C740 C741 1.392 . S
C740 C743 1.511 . S
C741 C737 1.376 1_554 S
C741 C740 1.392 . S
C741 H753 0.929 . S
C742 C738 1.531 . S
C742 H754 0.960 . S
C742 H755 0.962 . S
C742 H756 0.960 . S
C743 C740 1.511 . S
C743 H757 0.961 . S
C743 H758 0.961 . S
C743 H759 0.961 . S
C744 C745 1.370 . S
C744 C746 1.363 . S
C744 H760 0.931 . S
C745 C744 1.370 . S
C745 C749 1.409 1_554 S
C746 C744 1.363 . S
C746 C747 1.370 1_554 S
C746 C750 1.524 . S
C747 C739 1.503 . S
C747 C746 1.370 1_556 S
C747 C748 1.403 . S
C748 C747 1.403 . S
C748 C749 1.404 . S
C748 C751 1.539 . S
C749 C745 1.409 1_556 S
C749 C748 1.404 . S
C749 H761 0.930 . S
C750 C746 1.524 . S
C750 H762 0.956 1_554 S
C750 H763 0.961 . S
C750 H764 0.961 . S
C751 C748 1.539 . S
C751 H765 0.958 . S
C751 H766 0.961 . S
C751 H767 0.960 . S
H752 C736 0.931 . S
H753 C741 0.929 . S
H754 C742 0.960 . S
H755 C742 0.962 . S
H756 C742 0.960 . S
H757 C743 0.961 . S
H758 C743 0.961 . S
H759 C743 0.961 . S
H760 C744 0.931 . S
H761 C749 0.930 . S
H762 C750 0.956 1_556 S
H763 C750 0.961 . S
H764 C750 0.961 . S
H765 C751 0.958 . S
H766 C751 0.961 . S
H767 C751 0.960 . S
C768 C769 1.391 . S
C768 C770 1.394 . S
C768 H784 0.931 . S
C769 C768 1.391 . S
C769 C773 1.376 . S
C770 C768 1.394 . S
C770 C771 1.369 . S
C770 C774 1.531 . S
C771 C770 1.369 . S
C771 C772 1.410 . S
C771 C779 1.503 . S
C772 C771 1.410 . S
C772 C773 1.392 . S
C772 C775 1.511 . S
C773 C769 1.376 . S
C773 C772 1.392 . S
C773 H785 0.929 . S
C774 C770 1.531 . S
C774 H786 0.960 . S
C774 H787 0.962 . S
C774 H788 0.960 . S
C775 C772 1.511 . S
C775 H789 0.961 . S
C775 H790 0.961 . S
C775 H791 0.961 . S
C776 C777 1.370 . S
C776 C778 1.363 . S
C776 H792 0.931 . S
C777 C776 1.370 . S
C777 C781 1.408 . S
C778 C776 1.363 . S
C778 C779 1.370 . S
C778 C782 1.524 . S
C779 C771 1.503 . S
C779 C778 1.370 . S
C779 C780 1.403 . S
C780 C779 1.403 . S
C780 C781 1.404 . S
C780 C783 1.539 . S
C781 C777 1.408 . S
C781 C780 1.404 . S
C781 H793 0.930 . S
C782 C778 1.524 . S
C782 H794 0.956 . S
C782 H795 0.961 . S
C782 H796 0.961 . S
C783 C780 1.539 . S
C783 H797 0.958 . S
C783 H798 0.961 . S
C783 H799 0.960 . S
H784 C768 0.931 . S
H785 C773 0.929 . S
H786 C774 0.960 . S
H787 C774 0.962 . S
H788 C774 0.960 . S
H789 C775 0.961 . S
H790 C775 0.961 . S
H791 C775 0.961 . S
H792 C776 0.931 . S
H793 C781 0.930 . S
H794 C782 0.956 . S
H795 C782 0.961 . S
H796 C782 0.961 . S
H797 C783 0.958 . S
H798 C783 0.961 . S
H799 C783 0.960 . S
C800 C801 1.391 . S
C800 C802 1.394 . S
C800 H816 0.931 . S
C801 C800 1.391 . S
C801 C805 1.376 . S
C802 C800 1.394 . S
C802 C803 1.369 . S
C802 C806 1.531 . S
C803 C802 1.369 . S
C803 C804 1.410 . S
C803 C811 1.503 . S
C804 C803 1.410 . S
C804 C805 1.392 . S
C804 C807 1.511 . S
C805 C801 1.376 . S
C805 C804 1.392 . S
C805 H817 0.929 . S
C806 C802 1.531 . S
C806 H818 0.960 . S
C806 H819 0.962 . S
C806 H820 0.960 . S
C807 C804 1.511 . S
C807 H821 0.961 . S
C807 H822 0.961 . S
C807 H823 0.961 . S
C808 C809 1.370 . S
C808 C810 1.363 . S
C808 H824 0.931 . S
C809 C808 1.370 . S
C809 C813 1.408 . S
C810 C808 1.363 . S
C810 C811 1.370 . S
C810 C814 1.524 . S
C811 C803 1.503 . S
C811 C810 1.370 . S
C811 C812 1.403 . S
C812 C811 1.403 . S
C812 C813 1.404 . S
C812 C815 1.539 . S
C813 C809 1.408 . S
C813 C812 1.404 . S
C813 H825 0.930 . S
C814 C810 1.524 . S
C814 H826 0.956 . S
C814 H827 0.961 . S
C814 H828 0.961 . S
C815 C812 1.539 . S
C815 H829 0.958 . S
C815 H830 0.961 . S
C815 H831 0.960 . S
H816 C800 0.931 . S
H817 C805 0.929 . S
H818 C806 0.960 . S
H819 C806 0.962 . S
H820 C806 0.960 . S
H821 C807 0.961 . S
H822 C807 0.961 . S
H823 C807 0.961 . S
H824 C808 0.931 . S
H825 C813 0.930 . S
H826 C814 0.956 . S
H827 C814 0.961 . S
H828 C814 0.961 . S
H829 C815 0.958 . S
H830 C815 0.961 . S
H831 C815 0.960 . S
C832 C833 1.391 . S
C832 C834 1.394 . S
C832 H848 0.931 . S
C833 C832 1.391 . S
C833 C837 1.376 . S
C834 C832 1.394 . S
C834 C835 1.369 . S
C834 C838 1.531 . S
C835 C834 1.369 . S
C835 C836 1.410 . S
C835 C843 1.503 . S
C836 C835 1.410 . S
C836 C837 1.392 . S
C836 C839 1.511 . S
C837 C833 1.376 . S
C837 C836 1.392 . S
C837 H849 0.929 . S
C838 C834 1.531 . S
C838 H850 0.960 . S
C838 H851 0.962 1_556 S
C838 H852 0.960 . S
C839 C836 1.511 . S
C839 H853 0.961 . S
C839 H854 0.961 . S
C839 H855 0.961 . S
C840 C841 1.370 1_554 S
C840 C842 1.363 . S
C840 H856 0.931 . S
C841 C840 1.370 1_556 S
C841 C845 1.408 . S
C842 C840 1.363 . S
C842 C843 1.370 1_554 S
C842 C846 1.524 . S
C843 C835 1.503 . S
C843 C842 1.370 1_556 S
C843 C844 1.403 . S
C844 C843 1.403 . S
C844 C845 1.404 . S
C844 C847 1.539 . S
C845 C841 1.408 . S
C845 C844 1.404 . S
C845 H857 0.930 . S
C846 C842 1.524 . S
C846 H858 0.956 . S
C846 H859 0.961 . S
C846 H860 0.961 . S
C847 C844 1.539 . S
C847 H861 0.958 . S
C847 H862 0.961 . S
C847 H863 0.960 . S
H848 C832 0.931 . S
H849 C837 0.929 . S
H850 C838 0.960 . S
H851 C838 0.962 1_554 S
H852 C838 0.960 . S
H853 C839 0.961 . S
H854 C839 0.961 . S
H855 C839 0.961 . S
H856 C840 0.931 . S
H857 C845 0.930 . S
H858 C846 0.956 . S
H859 C846 0.961 . S
H860 C846 0.961 . S
H861 C847 0.958 . S
H862 C847 0.961 . S
H863 C847 0.960 . S
C864 C865 1.391 . S
C864 C866 1.394 . S
C864 H880 0.931 . S
C865 C864 1.391 . S
C865 C869 1.376 . S
C866 C864 1.394 . S
C866 C867 1.369 . S
C866 C870 1.531 . S
C867 C866 1.369 . S
C867 C868 1.410 . S
C867 C875 1.503 . S
C868 C867 1.410 . S
C868 C869 1.392 . S
C868 C871 1.511 . S
C869 C865 1.376 . S
C869 C868 1.392 . S
C869 H881 0.929 . S
C870 C866 1.531 . S
C870 H882 0.960 . S
C870 H883 0.962 . S
C870 H884 0.960 . S
C871 C868 1.511 . S
C871 H885 0.961 . S
C871 H886 0.961 . S
C871 H887 0.961 . S
C872 C873 1.370 . S
C872 C874 1.363 . S
C872 H888 0.931 . S
C873 C872 1.370 . S
C873 C877 1.408 . S
C874 C872 1.363 . S
C874 C875 1.370 . S
C874 C878 1.524 . S
C875 C867 1.503 . S
C875 C874 1.370 . S
C875 C876 1.403 . S
C876 C875 1.403 . S
C876 C877 1.404 . S
C876 C879 1.539 . S
C877 C873 1.408 . S
C877 C876 1.404 . S
C877 H889 0.930 . S
C878 C874 1.524 . S
C878 H890 0.956 . S
C878 H891 0.961 . S
C878 H892 0.961 . S
C879 C876 1.539 . S
C879 H893 0.958 . S
C879 H894 0.961 . S
C879 H895 0.960 . S
H880 C864 0.931 . S
H881 C869 0.929 . S
H882 C870 0.960 . S
H883 C870 0.962 . S
H884 C870 0.960 . S
H885 C871 0.961 . S
H886 C871 0.961 . S
H887 C871 0.961 . S
H888 C872 0.931 . S
H889 C877 0.930 . S
H890 C878 0.956 . S
H891 C878 0.961 . S
H892 C878 0.961 . S
H893 C879 0.958 . S
H894 C879 0.961 . S
H895 C879 0.960 . S
C896 C897 1.391 1_556 S
C896 C898 1.394 . S
C896 H912 0.931 . S
C897 C896 1.391 1_554 S
C897 C901 1.376 . S
C898 C896 1.394 . S
C898 C899 1.369 1_556 S
C898 C902 1.531 . S
C899 C898 1.369 1_554 S
C899 C900 1.410 . S
C899 C907 1.503 . S
C900 C899 1.410 . S
C900 C901 1.392 . S
C900 C903 1.511 . S
C901 C897 1.376 . S
C901 C900 1.392 . S
C901 H913 0.929 . S
C902 C898 1.531 . S
C902 H914 0.960 . S
C902 H915 0.962 . S
C902 H916 0.960 . S
C903 C900 1.511 . S
C903 H917 0.961 . S
C903 H918 0.961 . S
C903 H919 0.961 . S
C904 C905 1.370 1_556 S
C904 C906 1.363 . S
C904 H920 0.931 . S
C905 C904 1.370 1_554 S
C905 C909 1.408 . S
C906 C904 1.363 . S
C906 C907 1.370 1_556 S
C906 C910 1.524 . S
C907 C899 1.503 . S
C907 C906 1.370 1_554 S
C907 C908 1.403 . S
C908 C907 1.403 . S
C908 C909 1.404 . S
C908 C911 1.539 . S
C909 C905 1.408 . S
C909 C908 1.404 . S
C909 H921 0.930 . S
C910 C906 1.524 . S
C910 H922 0.956 . S
C910 H923 0.961 . S
C910 H924 0.961 . S
C911 C908 1.539 . S
C911 H925 0.958 . S
C911 H926 0.961 . S
C911 H927 0.960 . S
H912 C896 0.931 . S
H913 C901 0.929 . S
H914 C902 0.960 . S
H915 C902 0.962 . S
H916 C902 0.960 . S
H917 C903 0.961 . S
H918 C903 0.961 . S
H919 C903 0.961 . S
H920 C904 0.931 . S
H921 C909 0.930 . S
H922 C910 0.956 . S
H923 C910 0.961 . S
H924 C910 0.961 . S
H925 C911 0.958 . S
H926 C911 0.961 . S
H927 C911 0.960 . S
C161 C5 1.388 . S
C169 C119 1.427 . S
C193 C31 1.421 . S
C201 C93 1.436 . S
C233 C102 1.440 . S
C225 C53 1.427 . S
C257 C71 1.397 . S
C265 C110 1.433 . S
C297 C138 1.431 . S
C289 C75 1.384 . S
C329 C146 1.437 . S
C321 C9 1.434 . S
C361 C155 1.427 . S
C353 C27 1.383 . S
C393 C129 1.433 . S
C385 C49 1.389 . S
C417 C51 1.415 . S
C425 C101 1.436 . S
C449 C72 1.434 . S
C457 C111 1.439 . S
C481 C6 1.389 . S
C489 C120 1.427 . S
C521 C92 1.432 . S
C513 C29 1.397 . S
C545 C28 1.392 . S
C553 C156 1.427 . S
C585 C128 1.440 . S
C577 C50 1.433 . S
C617 C137 1.432 . S
C609 C73 1.397 . S
C641 C7 1.434 . S
C649 C147 1.439 . S
C681 C95 1.478 1_554 S
C673 C4 1.459 . S
C713 C104 1.482 . S
C705 C30 1.472 . S
C737 C52 1.483 1_556 S
C745 C113 1.483 . S
C769 C70 1.481 . S
C777 C122 1.482 . S
C809 C131 1.482 . S
C801 C74 1.475 . S
C833 C8 1.469 1_556 S
C841 C140 1.480 1_556 S
C865 C26 1.477 . S
C873 C149 1.482 . S
C897 C48 1.460 . S
C905 C158 1.477 1_554 S
