# Generated by pormake.
# Topology eea, (3,6)-cn, num edge types: 1
# Building blocks:
#     Node 0, Type 0, BuildingBlock: KAKCAD_clean_linker_0, # of connection points: 3
#     Node 1, Type 0, BuildingBlock: KAKCAD_clean_linker_0, # of connection points: 3
#     Node 2, Type 0, BuildingBlock: KAKCAD_clean_linker_0, # of connection points: 3
#     Node 3, Type 0, BuildingBlock: KAKCAD_clean_linker_0, # of connection points: 3
#     Node 4, Type 0, BuildingBlock: KAKCAD_clean_linker_0, # of connection points: 3
#     Node 5, Type 0, BuildingBlock: KAKCAD_clean_linker_0, # of connection points: 3
#     Node 6, Type 0, BuildingBlock: KAKCAD_clean_linker_0, # of connection points: 3
#     Node 7, Type 0, BuildingBlock: KAKCAD_clean_linker_0, # of connection points: 3
#     Node 8, Type 0, BuildingBlock: KAKCAD_clean_linker_0, # of connection points: 3
#     Node 9, Type 0, BuildingBlock: KAKCAD_clean_linker_0, # of connection points: 3
#     Node 10, Type 0, BuildingBlock: KAKCAD_clean_linker_0, # of connection points: 3
#     Node 11, Type 0, BuildingBlock: KAKCAD_clean_linker_0, # of connection points: 3
#     Node 12, Type 0, BuildingBlock: KAKCAD_clean_linker_0, # of connection points: 3
#     Node 13, Type 0, BuildingBlock: KAKCAD_clean_linker_0, # of connection points: 3
#     Node 14, Type 0, BuildingBlock: KAKCAD_clean_linker_0, # of connection points: 3
#     Node 15, Type 0, BuildingBlock: KAKCAD_clean_linker_0, # of connection points: 3
#     Node 16, Type 0, BuildingBlock: KAKCAD_clean_linker_0, # of connection points: 3
#     Node 17, Type 0, BuildingBlock: KAKCAD_clean_linker_0, # of connection points: 3
#     Node 18, Type 1, BuildingBlock: KUMJIN_clean_sbu_0, # of connection points: 6
#     Node 19, Type 1, BuildingBlock: KUMJIN_clean_sbu_0, # of connection points: 6
#     Node 20, Type 1, BuildingBlock: KUMJIN_clean_sbu_0, # of connection points: 6
#     Node 21, Type 1, BuildingBlock: KUMJIN_clean_sbu_0, # of connection points: 6
#     Node 22, Type 1, BuildingBlock: KUMJIN_clean_sbu_0, # of connection points: 6
#     Node 23, Type 1, BuildingBlock: KUMJIN_clean_sbu_0, # of connection points: 6
#     Node 24, Type 1, BuildingBlock: KUMJIN_clean_sbu_0, # of connection points: 6
#     Node 25, Type 1, BuildingBlock: KUMJIN_clean_sbu_0, # of connection points: 6
#     Node 26, Type 1, BuildingBlock: KUMJIN_clean_sbu_0, # of connection points: 6
#     Edge 27, Type (0, 1), None
#     Edge 28, Type (0, 1), None
#     Edge 29, Type (0, 1), None
#     Edge 30, Type (0, 1), None
#     Edge 31, Type (0, 1), None
#     Edge 32, Type (0, 1), None
#     Edge 33, Type (0, 1), None
#     Edge 34, Type (0, 1), None
#     Edge 35, Type (0, 1), None
#     Edge 36, Type (0, 1), None
#     Edge 37, Type (0, 1), None
#     Edge 38, Type (0, 1), None
#     Edge 39, Type (0, 1), None
#     Edge 40, Type (0, 1), None
#     Edge 41, Type (0, 1), None
#     Edge 42, Type (0, 1), None
#     Edge 43, Type (0, 1), None
#     Edge 44, Type (0, 1), None
#     Edge 45, Type (0, 1), None
#     Edge 46, Type (0, 1), None
#     Edge 47, Type (0, 1), None
#     Edge 48, Type (0, 1), None
#     Edge 49, Type (0, 1), None
#     Edge 50, Type (0, 1), None
#     Edge 51, Type (0, 1), None
#     Edge 52, Type (0, 1), None
#     Edge 53, Type (0, 1), None
#     Edge 54, Type (0, 1), None
#     Edge 55, Type (0, 1), None
#     Edge 56, Type (0, 1), None
#     Edge 57, Type (0, 1), None
#     Edge 58, Type (0, 1), None
#     Edge 59, Type (0, 1), None
#     Edge 60, Type (0, 1), None
#     Edge 61, Type (0, 1), None
#     Edge 62, Type (0, 1), None
#     Edge 63, Type (0, 1), None
#     Edge 64, Type (0, 1), None
#     Edge 65, Type (0, 1), None
#     Edge 66, Type (0, 1), None
#     Edge 67, Type (0, 1), None
#     Edge 68, Type (0, 1), None
#     Edge 69, Type (0, 1), None
#     Edge 70, Type (0, 1), None
#     Edge 71, Type (0, 1), None
#     Edge 72, Type (0, 1), None
#     Edge 73, Type (0, 1), None
#     Edge 74, Type (0, 1), None
#     Edge 75, Type (0, 1), None
#     Edge 76, Type (0, 1), None
#     Edge 77, Type (0, 1), None
#     Edge 78, Type (0, 1), None
#     Edge 79, Type (0, 1), None
#     Edge 80, Type (0, 1), None
# Relax obj value: 0.007
# Max RMSD: 0.109
# Mean RMSD: 0.092
data_MOF--net-eea--node1-KUMJIN_clean_sbu_0--node2-KAKCAD_clean_linker_0--edge1-none
_symmetry_space_group_name_H-M    P1
_symmetry_Int_Tables_number       1
_symmetry_cell_setting            triclinic
loop_
_symmetry_equiv_pos_as_xyz
'x, y, z'
_cell_length_a     33.321093
_cell_length_b     34.661139
_cell_length_c     53.839413
_cell_angle_alpha  89.707471
_cell_angle_beta   89.587883
_cell_angle_gamma 120.0477
loop_
_atom_site_label
_atom_site_type_symbol
_atom_site_fract_x
_atom_site_fract_y
_atom_site_fract_z
_atom_type_partial_charge
C0 C 0.33328 0.17866 0.51613 0.0
C1 C 0.36775 0.16711 0.51968 0.0
C2 C 0.30895 0.16887 0.49384 0.0
C3 C 0.31851 0.14727 0.47462 0.0
C4 C 0.35355 0.13645 0.47801 0.0
C5 C 0.37788 0.14626 0.50028 0.0
C6 C 0.29126 0.13496 0.45135 0.0
C7 C 0.27986 0.16464 0.43985 0.0
C8 C 0.2536 0.15278 0.41798 0.0
C9 C 0.23947 0.11092 0.40748 0.0
C10 C 0.25079 0.08092 0.41859 0.0
C11 C 0.27624 0.0931 0.44068 0.0
C12 C 0.2364 0.03706 0.40703 0.0
C13 C 0.19332 0.01298 0.39518 0.0
C14 C 0.26598 0.01906 0.40761 0.0
C15 C 0.25259 0.97781 0.39699 0.0
C16 C 0.20966 0.95393 0.38515 0.0
C17 C 0.2405 0.18376 0.40616 0.0
C18 C 0.2286 0.21007 0.42085 0.0
C19 C 0.2389 0.1867 0.38012 0.0
C20 C 0.2251 0.2147 0.3691 0.0
C21 C 0.21334 0.24082 0.38383 0.0
C22 C 0.21558 0.23859 0.40977 0.0
C23 C 0.18027 0.97202 0.38416 0.0
H24 H 0.32504 0.19526 0.5306 0.0
H25 H 0.28196 0.17737 0.49189 0.0
H26 H 0.36214 0.12029 0.46344 0.0
H27 H 0.40394 0.13659 0.50247 0.0
H28 H 0.29229 0.19737 0.4477 0.0
H29 H 0.28359 0.06954 0.44995 0.0
H30 H 0.21951 0.10162 0.39057 0.0
H31 H 0.16927 0.02537 0.39471 0.0
H32 H 0.29982 0.03703 0.41604 0.0
H33 H 0.27618 0.96489 0.39783 0.0
H34 H 0.2286 0.20817 0.44093 0.0
H35 H 0.24889 0.16783 0.36817 0.0
H36 H 0.14679 0.95414 0.3753 0.0
H37 H 0.20648 0.25837 0.42154 0.0
H38 H 0.22497 0.21682 0.34909 0.0
C39 C 0.85559 0.20197 0.50033 0.0
C40 C 0.83887 0.17069 0.51998 0.0
C41 C 0.87011 0.19246 0.47789 0.0
C42 C 0.86795 0.15128 0.47446 0.0
C43 C 0.85176 0.1202 0.4942 0.0
C44 C 0.8376 0.12987 0.51674 0.0
C45 C 0.88162 0.14041 0.45021 0.0
C46 C 0.92175 0.17209 0.43748 0.0
C47 C 0.93466 0.16204 0.41453 0.0
C48 C 0.90707 0.11957 0.40434 0.0
C49 C 0.86594 0.08761 0.41647 0.0
C50 C 0.85378 0.09853 0.43943 0.0
C51 C 0.83457 0.04356 0.40488 0.0
C52 C 0.82852 0.03983 0.37895 0.0
C53 C 0.80884 0.00508 0.41972 0.0
C54 C 0.77729 0.96445 0.40903 0.0
C55 C 0.77152 0.96102 0.38322 0.0
C56 C 0.97644 0.19678 0.40111 0.0
C57 C 0.98245 0.23956 0.39786 0.0
C58 C 0.01159 0.18855 0.39281 0.0
C59 C 0.0532 0.22334 0.38285 0.0
C60 C 0.05968 0.26653 0.38055 0.0
C61 C 0.02352 0.27397 0.38767 0.0
C62 C 0.79756 -0.00107 0.36826 0.0
H63 H 0.85744 0.23391 0.50231 0.0
H64 H 0.88211 0.21701 0.46301 0.0
H65 H 0.85008 0.08833 0.49223 0.0
H66 H 0.82463 0.10495 0.53144 0.0
H67 H 0.94349 0.20453 0.44562 0.0
H68 H 0.8216 0.07501 0.44864 0.0
H69 H 0.91737 0.11185 0.38677 0.0
H70 H 0.84674 0.06871 0.36688 0.0
H71 H 0.81308 0.00618 0.43967 0.0
H72 H 0.75787 0.93548 0.42094 0.0
H73 H 0.95569 0.24668 0.40378 0.0
H74 H 0.0078 0.15583 0.39513 0.0
H75 H 0.79288 0.99736 0.34838 0.0
H76 H 0.02773 0.30699 0.38618 0.0
H77 H 0.08088 0.21691 0.37794 0.0
C78 C 0.87812 0.70249 0.51422 0.0
C79 C 0.83224 0.66777 0.51831 0.0
C80 C 0.89145 0.72578 0.49139 0.0
C81 C 0.85909 0.7153 0.47223 0.0
C82 C 0.81314 0.68104 0.47657 0.0
C83 C 0.79996 0.65771 0.49921 0.0
C84 C 0.87263 0.73949 0.44771 0.0
C85 C 0.91409 0.74902 0.43543 0.0
C86 C 0.92545 0.7693 0.41161 0.0
C87 C 0.89488 0.78101 0.40021 0.0
C88 C 0.85277 0.77097 0.4121 0.0
C89 C 0.84248 0.7508 0.4358 0.0
C90 C 0.81681 0.77757 0.3996 0.0
C91 C 0.82468 0.82025 0.39325 0.0
C92 C 0.77211 0.74074 0.39658 0.0
C93 C 0.73582 0.74636 0.38803 0.0
C94 C 0.74316 0.78894 0.38214 0.0
C95 C 0.96754 0.77448 0.39833 0.0
C96 C 1.00331 0.81622 0.38972 0.0
C97 C 0.97368 0.73739 0.3961 0.0
C98 C 0.01521 0.74208 0.38682 0.0
C99 C 0.05214 0.78402 0.37958 0.0
C100 C 0.0455 0.82107 0.38069 0.0
C101 C 0.78801 0.82596 0.38483 0.0
H102 H 0.90398 0.71096 0.52843 0.0
H103 H 0.92705 0.75217 0.4888 0.0
H104 H 0.78729 0.67155 0.46225 0.0
H105 H 0.76423 0.63156 0.50172 0.0
H106 H 0.93709 0.73941 0.4441 0.0
H107 H 0.81034 0.74359 0.44495 0.0
H108 H 0.90256 0.79556 0.3817 0.0
H109 H 0.85862 0.84926 0.39573 0.0
H110 H 0.76496 0.70751 0.40147 0.0
H111 H 0.7016 0.71732 0.38642 0.0
H112 H 0.99961 0.84543 0.39122 0.0
H113 H 0.94668 0.70474 0.4023 0.0
H114 H 0.79444 0.85931 0.38103 0.0
H115 H 0.07349 0.85399 0.3757 0.0
H116 H 0.01919 0.71292 0.38629 0.0
C117 C 0.18049 0.29099 0.52949 0.0
C118 C 0.17532 0.3285 0.52588 0.0
C119 C 0.16775 0.26748 0.55223 0.0
C120 C 0.14879 0.28042 0.57178 0.0
C121 C 0.14224 0.31704 0.56781 0.0
C122 C 0.15554 0.34085 0.54526 0.0
C123 C 0.13756 0.25712 0.59655 0.0
C124 C 0.16921 0.24722 0.60795 0.0
C125 C 0.16052 0.22751 0.63181 0.0
C126 C 0.11847 0.21634 0.6442 0.0
C127 C 0.08655 0.22674 0.63329 0.0
C128 C 0.09654 0.247 0.60951 0.0
C129 C 0.04424 0.22014 0.64694 0.0
C130 C 0.00856 0.17763 0.65462 0.0
C131 C 0.03755 0.25672 0.65013 0.0
C132 C 0.99566 0.25093 0.65957 0.0
C133 C 0.95892 0.20836 0.666 0.0
C134 C 0.19767 0.22223 0.64398 0.0
C135 C 0.19036 0.18027 0.6516 0.0
C136 C 0.24245 0.25941 0.64596 0.0
C137 C 0.27931 0.25475 0.65462 0.0
C138 C 0.27256 0.2128 0.6616 0.0
C139 C 0.22762 0.17549 0.65999 0.0
C140 C 0.966 0.17169 0.66383 0.0
H141 H 0.1958 0.2807 0.51503 0.0
H142 H 0.17296 0.23924 0.55456 0.0
H143 H 0.1281 0.32821 0.58244 0.0
H144 H 0.15072 0.36934 0.54307 0.0
H145 H 0.20162 0.25613 0.59851 0.0
H146 H 0.07208 0.25492 0.60106 0.0
H147 H 0.11184 0.20192 0.66273 0.0
H148 H 0.01266 0.14878 0.65228 0.0
H149 H 0.06439 0.28986 0.64454 0.0
H150 H 0.99135 0.27983 0.66094 0.0
H151 H 0.15633 0.15097 0.65006 0.0
H152 H 0.24918 0.29216 0.64023 0.0
H153 H 0.93814 0.13837 0.66825 0.0
H154 H 0.2215 0.14252 0.66456 0.0
H155 H 0.31355 0.28401 0.65534 0.0
C156 C 0.63918 0.79608 0.54307 0.0
C157 C 0.65239 0.82792 0.52386 0.0
C158 C 0.66483 0.80639 0.56495 0.0
C159 C 0.70374 0.84891 0.56814 0.0
C160 C 0.71691 0.88066 0.54891 0.0
C161 C 0.69165 0.87021 0.52697 0.0
C162 C 0.72983 0.86084 0.59172 0.0
C163 C 0.74362 0.83245 0.6026 0.0
C164 C 0.76849 0.84401 0.62499 0.0
C165 C 0.77944 0.88453 0.63627 0.0
C166 C 0.7659 0.91325 0.62562 0.0
C167 C 0.74097 0.90101 0.60339 0.0
C168 C 0.77777 0.956 0.63775 0.0
C169 C 0.7765 0.95869 0.66379 0.0
C170 C 0.79069 0.99456 0.62338 0.0
C171 C 0.802 0.03475 0.63478 0.0
C172 C 0.80144 0.03737 0.66075 0.0
C173 C 0.7825 0.8137 0.63685 0.0
C174 C 0.75296 0.76729 0.63617 0.0
C175 C 0.82497 0.8308 0.64941 0.0
C176 C 0.83737 0.80218 0.66106 0.0
C177 C 0.80796 0.75585 0.66002 0.0
C178 C 0.76568 0.73875 0.64744 0.0
C179 C 0.78854 -0.00091 0.67515 0.0
H180 H 0.6093 0.76309 0.54107 0.0
H181 H 0.65376 0.78141 0.57957 0.0
H182 H 0.74693 0.91361 0.55081 0.0
H183 H 0.70248 0.89547 0.51253 0.0
H184 H 0.73582 0.80187 0.59329 0.0
H185 H 0.72917 0.92229 0.59537 0.0
H186 H 0.79846 0.89373 0.65349 0.0
H187 H 0.76561 0.92947 0.67543 0.0
H188 H 0.79278 0.99393 0.60331 0.0
H189 H 0.81214 0.06403 0.62329 0.0
H190 H 0.7196 0.75286 0.6272 0.0
H191 H 0.84904 0.86632 0.64999 0.0
H192 H 0.78654 1e-05 0.69513 0.0
H193 H 0.74204 0.70319 0.64644 0.0
H194 H 0.87038 0.81632 0.67041 0.0
C195 C 0.13567 0.81923 0.53038 0.0
C196 C 0.18228 0.83123 0.52635 0.0
C197 C 0.12138 0.82828 0.55311 0.0
C198 C 0.15353 0.85 0.57213 0.0
C199 C 0.20013 0.86224 0.56796 0.0
C200 C 0.21429 0.8529 0.5454 0.0
C201 C 0.13899 0.86018 0.59629 0.0
C202 C 0.09898 0.82799 0.60888 0.0
C203 C 0.08635 0.8371 0.63221 0.0
C204 C 0.11418 0.87917 0.64292 0.0
C205 C 0.15483 0.91167 0.63069 0.0
C206 C 0.16632 0.90191 0.60726 0.0
C207 C 0.1864 0.95549 0.64232 0.0
C208 C 0.16889 0.97911 0.65531 0.0
C209 C 0.23479 0.97466 0.63981 0.0
C210 C 0.26484 0.01677 0.64935 0.0
C211 C 0.2474 0.04071 0.66196 0.0
C212 C 0.04474 0.8017 0.64543 0.0
C213 C 0.00907 0.80919 0.65366 0.0
C214 C 0.03899 0.75891 0.64814 0.0
C215 C 0.99762 0.72379 0.65768 0.0
C216 C 0.96096 0.73054 0.66468 0.0
C217 C 0.96721 0.77372 0.66291 0.0
C218 C 0.19907 0.02128 0.66501 0.0
H219 H 0.11013 0.80222 0.51612 0.0
H220 H 0.08529 0.81871 0.5557 0.0
H221 H 0.22569 0.87864 0.5823 0.0
H222 H 0.25052 0.86298 0.54282 0.0
H223 H 0.07789 0.79549 0.60066 0.0
H224 H 0.19664 0.92714 0.59732 0.0
H225 H 0.10511 0.88583 0.66114 0.0
H226 H 0.13186 0.96556 0.65742 0.0
H227 H 0.24963 0.95705 0.63044 0.0
H228 H 0.30181 0.03043 0.64688 0.0
H229 H 0.01261 0.84187 0.6517 0.0
H230 H 0.06609 0.75232 0.64218 0.0
H231 H 0.18444 0.03901 0.67444 0.0
H232 H 0.93918 0.77972 0.66762 0.0
H233 H 0.99358 0.69079 0.65867 0.0
C234 C 0.99995 0.512 0.84946 0.0
C235 C 0.03442 0.50045 0.85302 0.0
C236 C 0.97562 0.50221 0.82718 0.0
C237 C 0.98518 0.4806 0.80796 0.0
C238 C 0.02022 0.46979 0.81135 0.0
C239 C 0.04455 0.47959 0.83361 0.0
C240 C 0.95793 0.46829 0.78469 0.0
C241 C 0.94653 0.49797 0.77319 0.0
C242 C 0.92027 0.48611 0.75131 0.0
C243 C 0.90613 0.44425 0.74082 0.0
C244 C 0.91746 0.41426 0.75192 0.0
C245 C 0.94291 0.42644 0.77402 0.0
C246 C 0.90307 0.37039 0.74037 0.0
C247 C 0.85999 0.34631 0.72851 0.0
C248 C 0.93265 0.35239 0.74094 0.0
C249 C 0.91926 0.31114 0.73032 0.0
C250 C 0.87633 0.28726 0.71849 0.0
C251 C 0.90716 0.51709 0.7395 0.0
C252 C 0.89526 0.5434 0.75418 0.0
C253 C 0.90557 0.52003 0.71345 0.0
C254 C 0.89176 0.54802 0.70243 0.0
C255 C 0.88001 0.57415 0.71716 0.0
C256 C 0.88225 0.57192 0.74311 0.0
C257 C 0.84694 0.30535 0.71749 0.0
H258 H 0.99171 0.52859 0.86393 0.0
H259 H 0.94863 0.5107 0.82522 0.0
H260 H 0.02881 0.45362 0.79678 0.0
H261 H 0.07061 0.46992 0.83581 0.0
H262 H 0.95896 0.5307 0.78103 0.0
H263 H 0.95026 0.40287 0.78328 0.0
H264 H 0.88618 0.43495 0.72391 0.0
H265 H 0.83594 0.3587 0.72804 0.0
H266 H 0.96649 0.37036 0.74938 0.0
H267 H 0.94285 0.29822 0.73116 0.0
H268 H 0.89527 0.5415 0.77426 0.0
H269 H 0.91556 0.50116 0.7015 0.0
H270 H 0.81346 0.28747 0.70864 0.0
H271 H 0.87314 0.5917 0.75488 0.0
H272 H 0.89164 0.55015 0.68242 0.0
C273 C 0.52225 0.5353 0.83366 0.0
C274 C 0.50553 0.50402 0.85331 0.0
C275 C 0.53678 0.52579 0.81122 0.0
C276 C 0.53462 0.48462 0.80779 0.0
C277 C 0.51843 0.45353 0.82754 0.0
C278 C 0.50426 0.4632 0.85007 0.0
C279 C 0.54828 0.47374 0.78354 0.0
C280 C 0.58842 0.50542 0.77081 0.0
C281 C 0.60133 0.49538 0.74786 0.0
C282 C 0.57374 0.4529 0.73768 0.0
C283 C 0.5326 0.42094 0.7498 0.0
C284 C 0.52045 0.43186 0.77276 0.0
C285 C 0.50123 0.37689 0.73821 0.0
C286 C 0.49519 0.37316 0.71228 0.0
C287 C 0.4755 0.33841 0.75306 0.0
C288 C 0.44396 0.29778 0.74236 0.0
C289 C 0.43819 0.29435 0.71655 0.0
C290 C 0.64311 0.53011 0.73445 0.0
C291 C 0.64911 0.57289 0.73119 0.0
C292 C 0.67826 0.52188 0.72614 0.0
C293 C 0.71987 0.55667 0.71619 0.0
C294 C 0.72635 0.59986 0.71388 0.0
C295 C 0.69019 0.6073 0.721 0.0
C296 C 0.46423 0.33226 0.70159 0.0
H297 H 0.52411 0.56724 0.83564 0.0
H298 H 0.54877 0.55035 0.79634 0.0
H299 H 0.51674 0.42166 0.82556 0.0
H300 H 0.4913 0.43828 0.86477 0.0
H301 H 0.61016 0.53786 0.77895 0.0
H302 H 0.48826 0.40834 0.78197 0.0
H303 H 0.58403 0.44518 0.7201 0.0
H304 H 0.51341 0.40204 0.70021 0.0
H305 H 0.47975 0.33951 0.773 0.0
H306 H 0.42454 0.26881 0.75427 0.0
H307 H 0.62236 0.58001 0.73711 0.0
H308 H 0.67447 0.48916 0.72847 0.0
H309 H 0.45955 0.33069 0.68171 0.0
H310 H 0.69439 0.64032 0.71951 0.0
H311 H 0.74754 0.55024 0.71128 0.0
C312 C 0.54479 0.03582 0.84755 0.0
C313 C 0.49891 0.0011 0.85165 0.0
C314 C 0.55812 0.05911 0.82473 0.0
C315 C 0.52576 0.04863 0.80556 0.0
C316 C 0.47981 0.01437 0.80991 0.0
C317 C 0.46663 0.99104 0.83254 0.0
C318 C 0.5393 0.07282 0.78104 0.0
C319 C 0.58076 0.08235 0.76876 0.0
C320 C 0.59212 0.10263 0.74494 0.0
C321 C 0.56155 0.11434 0.73354 0.0
C322 C 0.51944 0.1043 0.74543 0.0
C323 C 0.50915 0.08413 0.76913 0.0
C324 C 0.48347 0.1109 0.73294 0.0
C325 C 0.49135 0.15358 0.72658 0.0
C326 C 0.43878 0.07408 0.72991 0.0
C327 C 0.40249 0.0797 0.72136 0.0
C328 C 0.40982 0.12227 0.71548 0.0
C329 C 0.63421 0.10781 0.73167 0.0
C330 C 0.66998 0.14955 0.72305 0.0
C331 C 0.64035 0.07072 0.72943 0.0
C332 C 0.68188 0.07541 0.72015 0.0
C333 C 0.71881 0.11735 0.71292 0.0
C334 C 0.71217 0.1544 0.71402 0.0
C335 C 0.45468 0.15929 0.71817 0.0
H336 H 0.57064 0.04429 0.86177 0.0
H337 H 0.59372 0.0855 0.82213 0.0
H338 H 0.45396 0.00489 0.79558 0.0
H339 H 0.4309 0.96489 0.83505 0.0
H340 H 0.60375 0.07274 0.77744 0.0
H341 H 0.477 0.07692 0.77828 0.0
H342 H 0.56923 0.12889 0.71503 0.0
H343 H 0.52529 0.18259 0.72906 0.0
H344 H 0.43163 0.04084 0.7348 0.0
H345 H 0.36827 0.05065 0.71975 0.0
H346 H 0.66628 0.17877 0.72456 0.0
H347 H 0.61335 0.03807 0.73564 0.0
H348 H 0.46111 0.19264 0.71436 0.0
H349 H 0.74016 0.18732 0.70904 0.0
H350 H 0.68586 0.04625 0.71962 0.0
C351 C 0.84716 0.62432 0.86282 0.0
C352 C 0.84198 0.66183 0.85921 0.0
C353 C 0.83441 0.60081 0.88556 0.0
C354 C 0.81545 0.61375 0.90511 0.0
C355 C 0.80891 0.65037 0.90114 0.0
C356 C 0.82221 0.67418 0.87859 0.0
C357 C 0.80423 0.59045 0.92988 0.0
C358 C 0.83588 0.58055 0.94128 0.0
C359 C 0.82719 0.56084 0.96514 0.0
C360 C 0.78514 0.54967 0.97753 0.0
C361 C 0.75321 0.56007 0.96662 0.0
C362 C 0.76321 0.58033 0.94284 0.0
C363 C 0.71091 0.55347 0.98027 0.0
C364 C 0.67522 0.51096 0.98795 0.0
C365 C 0.70421 0.59005 0.98346 0.0
C366 C 0.66233 0.58427 0.9929 0.0
C367 C 0.62558 0.5417 0.99933 0.0
C368 C 0.86434 0.55557 0.97732 0.0
C369 C 0.85702 0.5136 0.98494 0.0
C370 C 0.90911 0.59275 0.97929 0.0
C371 C 0.94597 0.58809 0.98795 0.0
C372 C 0.93922 0.54613 0.99494 0.0
C373 C 0.89429 0.50882 0.99333 0.0
C374 C 0.63267 0.50503 0.99717 0.0
H375 H 0.86246 0.61403 0.84836 0.0
H376 H 0.83962 0.57257 0.88789 0.0
H377 H 0.79477 0.66155 0.91577 0.0
H378 H 0.81739 0.70267 0.8764 0.0
H379 H 0.86828 0.58946 0.93185 0.0
H380 H 0.73874 0.58825 0.93439 0.0
H381 H 0.7785 0.53526 0.99607 0.0
H382 H 0.67933 0.48211 0.98562 0.0
H383 H 0.73106 0.6232 0.97787 0.0
H384 H 0.65801 0.61317 0.99427 0.0
H385 H 0.823 0.4843 0.98339 0.0
H386 H 0.91585 0.62549 0.97357 0.0
H387 H 0.6048 0.4717 1.00159 0.0
H388 H 0.88817 0.47585 0.99789 0.0
H389 H 0.98021 0.61735 0.98868 0.0
C390 C 0.30584 0.12942 0.8764 0.0
C391 C 0.31905 0.16125 0.85719 0.0
C392 C 0.33149 0.13972 0.89829 0.0
C393 C 0.37041 0.18224 0.90147 0.0
C394 C 0.38358 0.214 0.88224 0.0
C395 C 0.35831 0.20355 0.8603 0.0
C396 C 0.3965 0.19417 0.92505 0.0
C397 C 0.41028 0.16578 0.93594 0.0
C398 C 0.43515 0.17734 0.95832 0.0
C399 C 0.4461 0.21786 0.9696 0.0
C400 C 0.43256 0.24659 0.95896 0.0
C401 C 0.40764 0.23434 0.93672 0.0
C402 C 0.44443 0.28934 0.97108 0.0
C403 C 0.44317 0.29203 0.99712 0.0
C404 C 0.45735 0.3279 0.95671 0.0
C405 C 0.46866 0.36808 0.96811 0.0
C406 C 0.4681 0.3707 0.99408 0.0
C407 C 0.44916 0.14703 0.97019 0.0
C408 C 0.41962 0.10062 0.96951 0.0
C409 C 0.49163 0.16414 0.98275 0.0
C410 C 0.50403 0.13552 0.99439 0.0
C411 C 0.47462 0.08918 0.99335 0.0
C412 C 0.43235 0.07208 0.98078 0.0
C413 C 0.45521 0.33243 1.00848 0.0
H414 H 0.27596 0.09642 0.8744 0.0
H415 H 0.32042 0.11475 0.9129 0.0
H416 H 0.4136 0.24694 0.88414 0.0
H417 H 0.36915 0.22881 0.84586 0.0
H418 H 0.40249 0.1352 0.92663 0.0
H419 H 0.39583 0.25562 0.92871 0.0
H420 H 0.46512 0.22706 0.98682 0.0
H421 H 0.43228 0.2628 1.00876 0.0
H422 H 0.45944 0.32727 0.93665 0.0
H423 H 0.47881 0.39737 0.95662 0.0
H424 H 0.38627 0.08619 0.96053 0.0
H425 H 0.5157 0.19966 0.98333 0.0
H426 H 0.4532 0.33335 0.02846 0.0
H427 H 0.40871 0.03652 0.97977 0.0
H428 H 0.53705 0.14966 1.00374 0.0
C429 C 0.80234 0.15256 0.86372 0.0
C430 C 0.84895 0.16456 0.85968 0.0
C431 C 0.78805 0.16161 0.88644 0.0
C432 C 0.82019 0.18333 0.90546 0.0
C433 C 0.8668 0.19557 0.9013 0.0
C434 C 0.88096 0.18623 0.87874 0.0
C435 C 0.80566 0.19351 0.92963 0.0
C436 C 0.76565 0.16133 0.94221 0.0
C437 C 0.75302 0.17043 0.96554 0.0
C438 C 0.78084 0.2125 0.97625 0.0
C439 C 0.82149 0.245 0.96403 0.0
C440 C 0.83298 0.23524 0.9406 0.0
C441 C 0.85306 0.28882 0.97566 0.0
C442 C 0.83555 0.31244 0.98864 0.0
C443 C 0.90145 0.30799 0.97315 0.0
C444 C 0.9315 0.3501 0.98269 0.0
C445 C 0.91406 0.37404 0.99529 0.0
C446 C 0.7114 0.13503 0.97876 0.0
C447 C 0.67574 0.14252 0.987 0.0
C448 C 0.70565 0.09224 0.98148 0.0
C449 C 0.66428 0.05712 0.99101 0.0
C450 C 0.62762 0.06388 0.99801 0.0
C451 C 0.63388 0.10706 0.99625 0.0
C452 C 0.86574 0.35461 0.99835 0.0
H453 H 0.77679 0.13555 0.84946 0.0
H454 H 0.75196 0.15204 0.88903 0.0
H455 H 0.89236 0.21197 0.91564 0.0
H456 H 0.91718 0.19631 0.87615 0.0
H457 H 0.74455 0.12883 0.93399 0.0
H458 H 0.8633 0.26047 0.93066 0.0
H459 H 0.77177 0.21916 0.99447 0.0
H460 H 0.79853 0.2989 0.99076 0.0
H461 H 0.91629 0.29038 0.96378 0.0
H462 H 0.96847 0.36377 0.98022 0.0
H463 H 0.67927 0.17521 0.98504 0.0
H464 H 0.73275 0.08565 0.97552 0.0
H465 H 0.85111 0.37235 1.00778 0.0
H466 H 0.60585 0.11305 1.00095 0.0
H467 H 0.66024 0.02412 0.992 0.0
C468 C 0.66661 0.84533 0.18279 0.0
C469 C 0.70108 0.83378 0.18635 0.0
C470 C 0.64228 0.83554 0.16051 0.0
C471 C 0.65184 0.81394 0.14129 0.0
C472 C 0.68688 0.80312 0.14468 0.0
C473 C 0.71121 0.81293 0.16694 0.0
C474 C 0.62459 0.80162 0.11802 0.0
C475 C 0.61319 0.8313 0.10652 0.0
C476 C 0.58693 0.81944 0.08465 0.0
C477 C 0.5728 0.77759 0.07415 0.0
C478 C 0.58412 0.74759 0.08525 0.0
C479 C 0.60957 0.75977 0.10735 0.0
C480 C 0.56973 0.70372 0.0737 0.0
C481 C 0.52665 0.67964 0.06185 0.0
C482 C 0.59931 0.68573 0.07427 0.0
C483 C 0.58592 0.64448 0.06365 0.0
C484 C 0.54299 0.6206 0.05182 0.0
C485 C 0.57383 0.85042 0.07283 0.0
C486 C 0.56192 0.87673 0.08751 0.0
C487 C 0.57223 0.85336 0.04679 0.0
C488 C 0.55842 0.88136 0.03576 0.0
C489 C 0.54667 0.90748 0.05049 0.0
C490 C 0.54891 0.90525 0.07644 0.0
C491 C 0.5136 0.63868 0.05083 0.0
H492 H 0.65837 0.86192 0.19726 0.0
H493 H 0.61529 0.84403 0.15856 0.0
H494 H 0.69547 0.78695 0.13011 0.0
H495 H 0.73727 0.80326 0.16914 0.0
H496 H 0.62562 0.86403 0.11437 0.0
H497 H 0.61692 0.73621 0.11662 0.0
H498 H 0.55284 0.76828 0.05724 0.0
H499 H 0.5026 0.69203 0.06137 0.0
H500 H 0.63315 0.7037 0.08271 0.0
H501 H 0.60951 0.63156 0.0645 0.0
H502 H 0.56193 0.87483 0.1076 0.0
H503 H 0.58222 0.83449 0.03484 0.0
H504 H 0.48012 0.6208 0.04197 0.0
H505 H 0.5398 0.92504 0.08821 0.0
H506 H 0.5583 0.88349 1.01575 0.0
C507 C 0.18891 0.86864 0.167 0.0
C508 C 0.1722 0.83735 0.18664 0.0
C509 C 0.20344 0.85913 0.14455 0.0
C510 C 0.20128 0.81795 0.14112 0.0
C511 C 0.18509 0.78686 0.16087 0.0
C512 C 0.17092 0.79653 0.18341 0.0
C513 C 0.21494 0.80708 0.11687 0.0
C514 C 0.25508 0.83875 0.10414 0.0
C515 C 0.26799 0.82871 0.08119 0.0
C516 C 0.2404 0.78623 0.07101 0.0
C517 C 0.19927 0.75427 0.08313 0.0
C518 C 0.18711 0.76519 0.1061 0.0
C519 C 0.1679 0.71022 0.07154 0.0
C520 C 0.16186 0.70649 0.04562 0.0
C521 C 0.14217 0.67174 0.08639 0.0
C522 C 0.11062 0.63111 0.0757 0.0
C523 C 0.10485 0.62768 0.04988 0.0
C524 C 0.30977 0.86345 0.06778 0.0
C525 C 0.31577 0.90623 0.06452 0.0
C526 C 0.34492 0.85522 0.05947 0.0
C527 C 0.38653 0.89001 0.04952 0.0
C528 C 0.39301 0.93319 0.04722 0.0
C529 C 0.35685 0.94063 0.05433 0.0
C530 C 0.13089 0.66559 0.03493 0.0
H531 H 0.19077 0.90057 0.16897 0.0
H532 H 0.21543 0.88368 0.12968 0.0
H533 H 0.1834 0.755 0.1589 0.0
H534 H 0.15796 0.77161 0.1981 0.0
H535 H 0.27682 0.8712 0.11229 0.0
H536 H 0.15492 0.74167 0.1153 0.0
H537 H 0.2507 0.77852 0.05344 0.0
H538 H 0.18007 0.73537 0.03355 0.0
H539 H 0.14641 0.67284 0.10634 0.0
H540 H 0.09121 0.60214 0.0876 0.0
H541 H 0.28902 0.91334 0.07044 0.0
H542 H 0.34113 0.82249 0.0618 0.0
H543 H 0.12621 0.66402 1.01505 0.0
H544 H 0.36106 0.97366 0.05284 0.0
H545 H 0.4142 0.88357 0.04461 0.0
C546 C 0.21145 0.36915 0.18088 0.0
C547 C 0.16558 0.33444 0.18498 0.0
C548 C 0.22479 0.39245 0.15806 0.0
C549 C 0.19243 0.38196 0.13889 0.0
C550 C 0.14648 0.3477 0.14324 0.0
C551 C 0.1333 0.32438 0.16587 0.0
C552 C 0.20596 0.40615 0.11437 0.0
C553 C 0.24743 0.41568 0.10209 0.0
C554 C 0.25879 0.43597 0.07827 0.0
C555 C 0.22821 0.44767 0.06688 0.0
C556 C 0.1861 0.43763 0.07877 0.0
C557 C 0.17581 0.41746 0.10246 0.0
C558 C 0.15014 0.44423 0.06627 0.0
C559 C 0.15802 0.48691 0.05991 0.0
C560 C 0.10544 0.40741 0.06324 0.0
C561 C 0.06915 0.41303 0.05469 0.0
C562 C 0.07649 0.4556 0.04881 0.0
C563 C 0.30087 0.44115 0.065 0.0
C564 C 0.33664 0.48288 0.05638 0.0
C565 C 0.30701 0.40406 0.06277 0.0
C566 C 0.34855 0.40874 0.05348 0.0
C567 C 0.38548 0.45069 0.04625 0.0
C568 C 0.37883 0.48773 0.04736 0.0
C569 C 0.12134 0.49262 0.0515 0.0
H570 H 0.23731 0.37763 0.1951 0.0
H571 H 0.26038 0.41883 0.15547 0.0
H572 H 0.12063 0.33822 0.12892 0.0
H573 H 0.09756 0.29823 0.16838 0.0
H574 H 0.27042 0.40608 0.11077 0.0
H575 H 0.14367 0.41026 0.11162 0.0
H576 H 0.23589 0.46222 0.04837 0.0
H577 H 0.19196 0.51593 0.06239 0.0
H578 H 0.09829 0.37418 0.06814 0.0
H579 H 0.03493 0.38398 0.05308 0.0
H580 H 0.33295 0.5121 0.05789 0.0
H581 H 0.28001 0.37141 0.06897 0.0
H582 H 0.12778 0.52597 0.0477 0.0
H583 H 0.40683 0.52065 0.04237 0.0
H584 H 0.35253 0.37958 0.05295 0.0
C585 C 0.51382 0.95766 0.19616 0.0
C586 C 0.50865 0.99516 0.19255 0.0
C587 C 0.50108 0.93415 0.21889 0.0
C588 C 0.48212 0.94709 0.23845 0.0
C589 C 0.47557 0.9837 0.23447 0.0
C590 C 0.48888 0.00751 0.21193 0.0
C591 C 0.47089 0.92379 0.26321 0.0
C592 C 0.50254 0.91389 0.27462 0.0
C593 C 0.49385 0.89418 0.29848 0.0
C594 C 0.4518 0.88301 0.31087 0.0
C595 C 0.41988 0.89341 0.29996 0.0
C596 C 0.42987 0.91366 0.27618 0.0
C597 C 0.37757 0.8868 0.3136 0.0
C598 C 0.34189 0.8443 0.32129 0.0
C599 C 0.37088 0.92339 0.3168 0.0
C600 C 0.32899 0.9176 0.32623 0.0
C601 C 0.29225 0.87503 0.33266 0.0
C602 C 0.531 0.8889 0.31065 0.0
C603 C 0.52369 0.84694 0.31827 0.0
C604 C 0.57578 0.92608 0.31263 0.0
C605 C 0.61264 0.92142 0.32129 0.0
C606 C 0.60589 0.87947 0.32827 0.0
C607 C 0.56095 0.84216 0.32666 0.0
C608 C 0.29933 0.83836 0.3305 0.0
H609 H 0.52913 0.94736 0.1817 0.0
H610 H 0.50629 0.90591 0.22123 0.0
H611 H 0.46143 0.99488 0.2491 0.0
H612 H 0.48405 0.03601 0.20974 0.0
H613 H 0.53495 0.9228 0.26518 0.0
H614 H 0.40541 0.92159 0.26772 0.0
H615 H 0.44517 0.86859 0.3294 0.0
H616 H 0.34599 0.81545 0.31895 0.0
H617 H 0.39772 0.95653 0.31121 0.0
H618 H 0.32468 0.9465 0.3276 0.0
H619 H 0.48967 0.81763 0.31673 0.0
H620 H 0.58251 0.95883 0.3069 0.0
H621 H 0.27147 0.80504 0.33492 0.0
H622 H 0.55483 0.80919 0.33123 0.0
H623 H 0.64688 0.95068 0.32201 0.0
C624 C 0.97251 0.46275 0.20974 0.0
C625 C 0.98572 0.49458 0.19053 0.0
C626 C 0.99816 0.47306 0.23162 0.0
C627 C 0.03707 0.51558 0.2348 0.0
C628 C 0.05024 0.54733 0.21557 0.0
C629 C 0.02498 0.53688 0.19363 0.0
C630 C 0.06316 0.5275 0.25838 0.0
C631 C 0.07695 0.49912 0.26927 0.0
C632 C 0.10182 0.51068 0.29165 0.0
C633 C 0.11277 0.55119 0.30293 0.0
C634 C 0.09923 0.57992 0.29229 0.0
C635 C 0.0743 0.56768 0.27006 0.0
C636 C 0.1111 0.62267 0.30442 0.0
C637 C 0.10983 0.62536 0.33045 0.0
C638 C 0.12402 0.66123 0.29004 0.0
C639 C 0.13533 0.70142 0.30144 0.0
C640 C 0.13477 0.70404 0.32742 0.0
C641 C 0.11583 0.48037 0.30352 0.0
C642 C 0.08629 0.43396 0.30284 0.0
C643 C 0.1583 0.49747 0.31608 0.0
C644 C 0.1707 0.46885 0.32773 0.0
C645 C 0.14129 0.42252 0.32668 0.0
C646 C 0.09901 0.40542 0.31411 0.0
C647 C 0.12187 0.66576 0.34182 0.0
H648 H 0.94263 0.42976 0.20773 0.0
H649 H 0.98709 0.44808 0.24623 0.0
H650 H 0.08026 0.58027 0.21748 0.0
H651 H 0.03581 0.56214 0.17919 0.0
H652 H 0.06915 0.46853 0.25996 0.0
H653 H 0.0625 0.58896 0.26204 0.0
H654 H 0.13179 0.56039 0.32015 0.0
H655 H 0.09894 0.59614 0.34209 0.0
H656 H 0.12611 0.6606 0.26998 0.0
H657 H 0.14547 0.7307 0.28995 0.0
H658 H 0.05294 0.41952 0.29386 0.0
H659 H 0.18237 0.53299 0.31666 0.0
H660 H 0.11987 0.66668 0.36179 0.0
H661 H 0.07538 0.36986 0.3131 0.0
H662 H 0.20372 0.48299 0.33707 0.0
C663 C 0.469 0.4859 0.19705 0.0
C664 C 0.51561 0.4979 0.19302 0.0
C665 C 0.45471 0.49495 0.21977 0.0
C666 C 0.48686 0.51667 0.2388 0.0
C667 C 0.53347 0.52891 0.23463 0.0
C668 C 0.54763 0.51957 0.21207 0.0
C669 C 0.47233 0.52685 0.26296 0.0
C670 C 0.43231 0.49467 0.27554 0.0
C671 C 0.41969 0.50377 0.29887 0.0
C672 C 0.44751 0.54584 0.30959 0.0
C673 C 0.48816 0.57834 0.29736 0.0
C674 C 0.49965 0.56858 0.27393 0.0
C675 C 0.51973 0.62216 0.30899 0.0
C676 C 0.50222 0.64578 0.32197 0.0
C677 C 0.56812 0.64133 0.30648 0.0
C678 C 0.59817 0.68344 0.31602 0.0
C679 C 0.58073 0.70738 0.32863 0.0
C680 C 0.37807 0.46837 0.3121 0.0
C681 C 0.3424 0.47586 0.32033 0.0
C682 C 0.37232 0.42558 0.31481 0.0
C683 C 0.33095 0.39046 0.32434 0.0
C684 C 0.29429 0.39721 0.33134 0.0
C685 C 0.30055 0.44039 0.32958 0.0
C686 C 0.5324 0.68795 0.33168 0.0
H687 H 0.44346 0.46889 0.18279 0.0
H688 H 0.41863 0.48538 0.22237 0.0
H689 H 0.55902 0.54531 0.24897 0.0
H690 H 0.58385 0.52965 0.20949 0.0
H691 H 0.41122 0.46216 0.26733 0.0
H692 H 0.52997 0.59381 0.26399 0.0
H693 H 0.43844 0.5525 0.32781 0.0
H694 H 0.4652 0.63223 0.32409 0.0
H695 H 0.58296 0.62372 0.29711 0.0
H696 H 0.63514 0.6971 0.31355 0.0
H697 H 0.34594 0.50854 0.31837 0.0
H698 H 0.39942 0.41899 0.30885 0.0
H699 H 0.51778 0.70568 0.34111 0.0
H700 H 0.27252 0.44639 0.33428 0.0
H701 H 0.32691 0.35746 0.32534 0.0
Eu702 Eu 0.49019 0.96551 0.99281 0.0
C703 C 0.59075 0.13758 0.05811 0.0
C704 C 0.67178 0.15848 0.05615 0.0
C705 C 0.65044 0.21559 0.06113 0.0
C706 C 0.62438 0.12567 0.05555 0.0
C707 C 0.60333 0.18257 0.06143 0.0
C708 C 0.68461 0.20356 0.05846 0.0
C709 C 0.52203 0.15856 0.0668 0.0
N710 N 0.54566 0.10489 0.0584 0.0
C711 C 0.51135 0.11443 0.06352 0.0
C712 C 0.56821 0.19287 0.06547 0.0
Eu713 Eu 0.52989 0.03131 0.05117 0.0
N714 N 0.61076 0.08183 0.0534 0.0
C715 C 0.64279 0.06821 0.05359 0.0
C716 C 0.70481 0.14487 0.05493 0.0
C717 C 0.69021 0.09948 0.05399 0.0
H718 H 0.47558 0.08802 0.0644 0.0
H719 H 0.71545 0.08854 0.05347 0.0
H720 H 0.72084 0.22928 0.05872 0.0
H721 H 0.49467 0.16609 0.07031 0.0
H722 H 0.6321 0.03331 0.05271 0.0
H723 H 0.30339 0.9037 0.99402 0.0
H724 H 0.74155 0.16902 0.05522 0.0
H725 H 0.54466 0.91225 0.97343 0.0
H726 H 0.38621 0.96034 0.99326 0.0
H727 H 0.52735 0.83527 0.96539 0.0
H728 H 0.66081 0.25039 0.06342 0.0
H729 H 0.27912 0.82365 0.9921 0.0
H730 H 0.30167 0.76492 0.98673 0.0
H731 H 0.57642 0.22703 0.06808 0.0
H732 H 0.36278 0.74619 0.97877 0.0
N733 N 0.40935 0.9132 0.99178 0.0
C734 C 0.37643 0.9257 0.99232 0.0
C735 C 0.31568 0.84845 0.99179 0.0
C736 C 0.34947 0.83599 0.98945 0.0
C737 C 0.32924 0.89359 0.99279 0.0
C738 C 0.39659 0.86964 0.98931 0.0
H739 H 0.44705 0.77231 0.97029 0.0
N740 N 0.47524 0.8928 0.98348 0.0
C741 C 0.49985 0.84143 0.97105 0.0
C742 C 0.43073 0.85908 0.98499 0.0
C743 C 0.50952 0.88496 0.97558 0.0
C744 C 0.45451 0.80598 0.9739 0.0
C745 C 0.41908 0.81463 0.9805 0.0
O746 O 0.5272 0.98062 0.9571 0.0
O747 O 0.54654 0.02482 1.0118 0.0
O748 O 0.52006 0.07325 0.02203 0.0
O749 O 0.46689 0.01685 0.99647 0.0
O750 O 0.56702 0.98998 0.989 0.0
O751 O 0.46477 0.98429 0.9601 0.0
O752 O 0.49206 0.01912 0.08641 0.0
O753 O 0.47363 0.97115 0.03259 0.0
O754 O 0.50516 0.9242 0.01986 0.0
O755 O 0.55068 0.97796 0.04934 0.0
O756 O 0.45345 0.00775 0.05438 0.0
O757 O 0.55392 0.01396 0.08499 0.0
C758 C 0.58154 0.02442 1.00298 0.0
C759 C 0.4833 0.96703 0.92062 0.0
C760 C 0.48464 0.97385 0.87513 0.0
C761 C 0.49852 0.99354 0.89878 0.0
C762 C 0.45604 0.92723 0.87389 0.0
C763 C 0.45465 0.92077 0.91874 0.0
C764 C 0.44128 0.90106 0.89549 0.0
C765 C 0.48826 0.05847 1.00445 0.0
C766 C 0.49753 0.98769 0.94529 0.0
C767 C 0.37242 0.78063 0.98188 0.0
C768 C 0.33764 0.79129 0.9864 0.0
C769 C 0.43883 0.97221 0.04129 0.0
C770 C 0.53304 0.03137 0.12394 0.0
C771 C 0.51667 0.00405 0.14547 0.0
C772 C 0.52624 0.02311 0.16939 0.0
C773 C 0.55302 0.06979 0.17127 0.0
C774 C 0.55976 0.07771 0.12642 0.0
C775 C 0.56974 0.09671 0.14998 0.0
C776 C 0.53335 0.93806 0.03915 0.0
C777 C 0.52055 0.01137 0.09902 0.0
H778 H 0.52037 0.02937 0.90024 0.0
H779 H 0.4453 0.91081 0.85613 0.0
H780 H 0.44264 0.89991 0.93524 0.0
H781 H 0.41931 0.86527 0.89418 0.0
H782 H 0.4957 0.96821 0.14358 0.0
H783 H 0.56151 0.08554 0.18928 0.0
H784 H 0.57261 0.09916 0.11016 0.0
H785 H 0.5904 0.13255 0.15176 0.0
Eu786 Eu 0.04433 0.51447 0.99321 0.0
C787 C 0.86208 0.44589 0.0541 0.0
C788 C 0.84555 0.50617 0.05009 0.0
C789 C 0.78218 0.4297 0.05371 0.0
C790 C 0.87756 0.4909 0.0513 0.0
C791 C 0.81425 0.4149 0.05614 0.0
C792 C 0.79787 0.47527 0.05053 0.0
C793 C 0.83362 0.35757 0.06454 0.0
N794 N 0.89391 0.43261 0.05599 0.0
C795 C 0.88067 0.38956 0.06227 0.0
C796 C 0.80021 0.37015 0.06105 0.0
Eu797 Eu 0.97246 0.4881 0.05017 0.0
N798 N 0.92391 0.51989 0.0504 0.0
C799 C 0.94056 0.56483 0.05037 0.0
C800 C 0.86242 0.55209 0.04871 0.0
C801 C 0.91013 0.58156 0.04929 0.0
H802 H 0.90654 0.37976 0.06463 0.0
H803 H 0.92355 0.61716 0.04863 0.0
H804 H 0.77304 0.48652 0.04883 0.0
H805 H 0.82315 0.32323 0.06881 0.0
H806 H 0.9773 0.58812 0.05041 0.0
H807 H 0.10946 0.39758 0.99728 0.0
H808 H 0.83892 0.56512 0.04765 0.0
H809 H 0.10206 0.6202 0.9724 0.0
H810 H 0.0502 0.41988 0.99358 0.0
H811 H 0.18328 0.68142 0.96733 0.0
H812 H 0.74525 0.4063 0.05472 0.0
H813 H 0.19244 0.45513 0.99994 0.0
H814 H 0.25322 0.53647 0.99932 0.0
H815 H 0.76378 0.3453 0.06276 0.0
H816 H 0.27389 0.61403 0.99002 0.0
N817 N 0.09887 0.48945 0.99413 0.0
C818 C 0.08623 0.44537 0.99424 0.0
C819 C 0.16654 0.46509 0.99797 0.0
C820 C 0.1794 0.51012 0.9961 0.0
C821 C 0.11978 0.43254 0.99641 0.0
C822 C 0.14433 0.52126 0.9936 0.0
H823 H 0.24792 0.66825 0.97725 0.0
N824 N 0.12089 0.57344 0.98529 0.0
C825 C 0.17604 0.64883 0.97363 0.0
C826 C 0.15576 0.56477 0.98906 0.0
C827 C 0.13016 0.61411 0.97639 0.0
C828 C 0.21243 0.6413 0.97931 0.0
C829 C 0.20254 0.59859 0.98667 0.0
O830 O 0.03395 0.53504 0.95653 0.0
O831 O 0.98021 0.50846 1.01038 0.0
O832 O 0.93024 0.43588 0.02178 0.0
O833 O 0.98986 0.44016 0.99691 0.0
O834 O 0.01757 0.56259 0.98718 0.0
O835 O 0.0305 0.47144 0.96113 0.0
O836 O 0.97707 0.45993 0.08557 0.0
O837 O 0.03707 0.49465 0.03326 0.0
O838 O 0.08608 0.57118 0.01936 0.0
O839 O 0.03066 0.56095 0.04971 0.0
O840 O 0.99761 0.43862 0.0551 0.0
O841 O 0.98556 0.5262 0.08436 0.0
C842 C 0.98051 0.54185 1.00067 0.0
C843 C 0.05675 0.50824 0.92242 0.0
C844 C 0.05885 0.50902 0.8771 0.0
C845 C 0.03412 0.50096 0.89963 0.0
C846 C 0.10678 0.5246 0.87781 0.0
C847 C 0.10449 0.5237 0.92281 0.0
C848 C 0.12935 0.53187 0.90055 0.0
C849 C 0.94618 0.41906 1.00501 0.0
C850 C 0.02993 0.49999 0.9455 0.0
C851 C 0.23769 0.58834 0.99105 0.0
C852 C 0.22603 0.54416 0.99604 0.0
C853 C 0.03585 0.46054 0.04262 0.0
C854 C 0.95781 0.48479 0.12188 0.0
C855 C 0.9825 0.49477 0.14411 0.0
C856 C 0.9591 0.48377 0.16714 0.0
C857 C 0.91043 0.46261 0.16761 0.0
C858 C 0.90932 0.46411 0.12258 0.0
C859 C 0.88578 0.45309 0.14542 0.0
C860 C 0.07192 0.58454 0.0388 0.0
C861 C 0.98354 0.49438 0.09834 0.0
H862 H 0.99707 0.48839 0.89951 0.0
H863 H 0.12691 0.53157 0.86081 0.0
H864 H 0.12244 0.52941 0.94024 0.0
H865 H 0.16623 0.54393 0.90092 0.0
H866 H 0.01998 0.51031 0.14344 0.0
H867 H 0.89154 0.454 0.18511 0.0
H868 H 0.88976 0.4562 0.10559 0.0
H869 H 0.84833 0.43702 0.14592 0.0
Eu870 Eu 0.52262 0.48024 0.05244 0.0
C871 C 0.4328 0.5639 0.98473 0.0
C872 C 0.35114 0.50877 0.98253 0.0
C873 C 0.37648 0.58716 0.97599 0.0
C874 C 0.39753 0.51991 0.98638 0.0
C875 C 0.42269 0.59802 0.9794 0.0
C876 C 0.3409 0.5426 0.97727 0.0
C877 C 0.50504 0.65049 0.97846 0.0
N878 N 0.47722 0.57307 0.98694 0.0
C879 C 0.51336 0.61541 0.98314 0.0
C880 C 0.45948 0.64181 0.97671 0.0
Eu881 Eu 0.48862 0.5119 0.99424 0.0
N882 N 0.40878 0.4878 0.99041 0.0
C883 C 0.3754 0.44379 0.99003 0.0
C884 C 0.31656 0.46383 0.98326 0.0
C885 C 0.3288 0.43119 0.98693 0.0
H886 H 0.54867 0.62224 0.98425 0.0
H887 H 0.30242 0.39629 0.98717 0.0
H888 H 0.30576 0.53446 0.9734 0.0
H889 H 0.53375 0.68411 0.97598 0.0
H890 H 0.38435 0.41813 0.99253 0.0
H891 H 0.71091 0.58781 0.05475 0.0
H892 H 0.28048 0.45396 0.98055 0.0
H893 H 0.45963 0.37397 0.07135 0.0
H894 H 0.62963 0.57023 0.05286 0.0
H895 H 0.4704 0.3101 0.08101 0.0
H896 H 0.36803 0.61281 0.97163 0.0
H897 H 0.729 0.52709 0.05906 0.0
H898 H 0.69982 0.44533 0.06605 0.0
H899 H 0.45312 0.66895 0.9727 0.0
H900 H 0.63447 0.36958 0.07262 0.0
N901 N 0.60172 0.50002 0.05464 0.0
C902 C 0.63691 0.54332 0.0545 0.0
C903 C 0.69321 0.51909 0.05793 0.0
C904 C 0.65687 0.47497 0.05982 0.0
C905 C 0.68313 0.55347 0.05561 0.0
C906 C 0.61091 0.46643 0.05814 0.0
H907 H 0.54871 0.31883 0.07862 0.0
N908 N 0.53074 0.4179 0.06247 0.0
C909 C 0.49988 0.34185 0.07559 0.0
C910 C 0.57416 0.42391 0.06217 0.0
C911 C 0.49392 0.37814 0.07009 0.0
C912 C 0.54408 0.34686 0.07412 0.0
C913 C 0.58206 0.38852 0.06789 0.0
O914 O 0.48608 0.46112 0.08828 0.0
O915 O 0.46798 0.48882 0.03338 0.0
O916 O 0.49658 0.56122 0.02374 0.0
O917 O 0.54968 0.55494 0.04872 0.0
O918 O 0.44495 0.43316 0.05561 0.0
O919 O 0.55087 0.52308 0.08481 0.0
O920 O 0.52621 0.53763 0.95909 0.0
O921 O 0.54323 0.50243 1.01284 0.0
O922 O 0.50837 0.42552 0.02535 0.0
O923 O 0.46493 0.43779 0.99552 0.0
O924 O 0.56595 0.55975 0.99174 0.0
O925 O 0.46421 0.47263 0.96034 0.0
C926 C 0.4318 0.45505 0.04173 0.0
C927 C 0.53276 0.48653 0.12386 0.0
C928 C 0.53105 0.48736 0.16926 0.0
C929 C 0.51662 0.49522 0.14616 0.0
C930 C 0.56127 0.47003 0.16961 0.0
C931 C 0.563 0.46946 0.12469 0.0
C932 C 0.577 0.46111 0.14746 0.0
C933 C 0.52875 0.5767 0.04102 0.0
C934 C 0.51804 0.49557 0.09987 0.0
C935 C 0.62764 0.39633 0.06834 0.0
C936 C 0.66495 0.43952 0.06444 0.0
C937 C 0.5792 0.53674 1.00459 0.0
C938 C 0.48322 0.51252 0.92217 0.0
C939 C 0.49973 0.50338 0.90013 0.0
C940 C 0.48821 0.5135 0.87677 0.0
C941 C 0.45966 0.53264 0.8759 0.0
C942 C 0.45467 0.53141 0.92082 0.0
C943 C 0.44297 0.54138 0.89778 0.0
C944 C 0.48091 0.4134 1.00583 0.0
C945 C 0.49702 0.50314 0.94635 0.0
H946 H 0.49366 0.5089 0.1455 0.0
H947 H 0.57254 0.46309 0.18705 0.0
H948 H 0.57592 0.46276 0.10777 0.0
H949 H 0.60025 0.4478 0.14796 0.0
H950 H 0.52214 0.48912 0.90121 0.0
H951 H 0.44968 0.54031 0.85826 0.0
H952 H 0.44156 0.53856 0.9375 0.0
H953 H 0.42087 0.55594 0.89687 0.0
Eu954 Eu 0.15686 0.29884 0.32614 0.0
C955 C 0.25742 0.47092 0.39145 0.0
C956 C 0.33845 0.49181 0.38948 0.0
C957 C 0.3171 0.54893 0.39446 0.0
C958 C 0.29105 0.45901 0.38888 0.0
C959 C 0.27 0.51591 0.39476 0.0
C960 C 0.35128 0.5369 0.39179 0.0
C961 C 0.1887 0.4919 0.40013 0.0
N962 N 0.21233 0.43822 0.39173 0.0
C963 C 0.17802 0.44776 0.39686 0.0
C964 C 0.23488 0.52621 0.39881 0.0
Eu965 Eu 0.19656 0.36465 0.38451 0.0
N966 N 0.27743 0.41517 0.38673 0.0
C967 C 0.30946 0.40155 0.38692 0.0
C968 C 0.37148 0.47821 0.38826 0.0
C969 C 0.35688 0.43282 0.38732 0.0
H970 H 0.14225 0.42135 0.39773 0.0
H971 H 0.38212 0.42188 0.3868 0.0
H972 H 0.3875 0.56261 0.39205 0.0
H973 H 0.16134 0.49943 0.40364 0.0
H974 H 0.29878 0.36665 0.38604 0.0
H975 H 0.97006 0.23704 0.32735 0.0
H976 H 0.40822 0.50235 0.38855 0.0
H977 H 0.21133 0.24559 0.30677 0.0
H978 H 0.05288 0.29367 0.3266 0.0
H979 H 0.19403 0.1686 0.29872 0.0
H980 H 0.32748 0.58373 0.39676 0.0
H981 H 0.94579 0.15698 0.32543 0.0
H982 H 0.96834 0.09826 0.32006 0.0
H983 H 0.24308 0.56036 0.40142 0.0
H984 H 0.02945 0.07953 0.31211 0.0
N985 N 0.07602 0.24654 0.32511 0.0
C986 C 0.0431 0.25903 0.32565 0.0
C987 C 0.98235 0.18179 0.32513 0.0
C988 C 0.01614 0.16932 0.32279 0.0
C989 C 0.99591 0.22692 0.32613 0.0
C990 C 0.06326 0.20298 0.32264 0.0
H991 H 0.11372 0.10565 0.30362 0.0
N992 N 0.14191 0.22613 0.31682 0.0
C993 C 0.16652 0.17477 0.30438 0.0
C994 C 0.0974 0.19242 0.31832 0.0
C995 C 0.17619 0.2183 0.30891 0.0
C996 C 0.12118 0.13932 0.30724 0.0
C997 C 0.08575 0.14797 0.31383 0.0
O998 O 0.19387 0.31395 0.29043 0.0
O999 O 0.21321 0.35816 0.34513 0.0
O1000 O 0.18673 0.40659 0.35536 0.0
O1001 O 0.13355 0.35018 0.32981 0.0
O1002 O 0.23369 0.32332 0.32233 0.0
O1003 O 0.13144 0.31763 0.29343 0.0
O1004 O 0.15873 0.35245 0.41975 0.0
O1005 O 0.1403 0.30449 0.36593 0.0
O1006 O 0.17183 0.25754 0.35319 0.0
O1007 O 0.21735 0.3113 0.38267 0.0
O1008 O 0.12012 0.34109 0.38771 0.0
O1009 O 0.22059 0.34729 0.41833 0.0
C1010 C 0.24821 0.35776 0.33631 0.0
C1011 C 0.14997 0.30036 0.25396 0.0
C1012 C 0.15131 0.30719 0.20847 0.0
C1013 C 0.16519 0.32688 0.23211 0.0
C1014 C 0.12271 0.26056 0.20722 0.0
C1015 C 0.12132 0.25411 0.25207 0.0
C1016 C 0.10795 0.23439 0.22882 0.0
C1017 C 0.15493 0.39181 0.33779 0.0
C1018 C 0.1642 0.32102 0.27862 0.0
C1019 C 0.03909 0.11396 0.31522 0.0
C1020 C 1.00431 0.12463 0.31974 0.0
C1021 C 0.1055 0.30555 0.37463 0.0
C1022 C 0.1997 0.3647 0.45727 0.0
C1023 C 0.18334 0.33739 0.4788 0.0
C1024 C 0.19291 0.35645 0.50273 0.0
C1025 C 0.21969 0.40313 0.5046 0.0
C1026 C 0.22643 0.41104 0.45976 0.0
C1027 C 0.23641 0.43005 0.48331 0.0
C1028 C 0.20002 0.27139 0.37249 0.0
C1029 C 0.18722 0.3447 0.43236 0.0
H1030 H 0.18704 0.3627 0.23357 0.0
H1031 H 0.11197 0.24414 0.18946 0.0
H1032 H 0.10931 0.23325 0.26858 0.0
H1033 H 0.08598 0.19861 0.22751 0.0
H1034 H 0.16237 0.30155 0.47691 0.0
H1035 H 0.22818 0.41888 0.52262 0.0
H1036 H 0.23928 0.4325 0.44349 0.0
H1037 H 0.25707 0.46588 0.48509 0.0
Eu1038 Eu 0.71099 0.8478 0.32654 0.0
C1039 C 0.52875 0.77923 0.38743 0.0
C1040 C 0.51222 0.83951 0.38342 0.0
C1041 C 0.44885 0.76304 0.38705 0.0
C1042 C 0.54423 0.82424 0.38463 0.0
C1043 C 0.48092 0.74824 0.38947 0.0
C1044 C 0.46454 0.80861 0.38387 0.0
C1045 C 0.50029 0.69091 0.39787 0.0
N1046 N 0.56057 0.76595 0.38933 0.0
C1047 C 0.54733 0.72289 0.3956 0.0
C1048 C 0.46687 0.70349 0.39439 0.0
Eu1049 Eu 0.63913 0.82144 0.38351 0.0
N1050 N 0.59058 0.85323 0.38373 0.0
C1051 C 0.60723 0.89817 0.3837 0.0
C1052 C 0.52909 0.88543 0.38204 0.0
C1053 C 0.5768 0.91489 0.38263 0.0
H1054 H 0.5732 0.71309 0.39796 0.0
H1055 H 0.59022 0.9505 0.38196 0.0
H1056 H 0.43971 0.81986 0.38217 0.0
H1057 H 0.48982 0.65657 0.40215 0.0
H1058 H 0.64397 0.92146 0.38374 0.0
H1059 H 0.77614 0.73092 0.33061 0.0
H1060 H 0.50559 0.89846 0.38098 0.0
H1061 H 0.76872 0.95354 0.30573 0.0
H1062 H 0.71687 0.75322 0.32691 0.0
H1063 H 0.84993 0.01476 0.30066 0.0
H1064 H 0.41192 0.73964 0.38805 0.0
H1065 H 0.85911 0.78848 0.33327 0.0
H1066 H 0.91989 0.86982 0.33265 0.0
H1067 H 0.43044 0.67864 0.39609 0.0
H1068 H 0.94056 0.94738 0.32335 0.0
N1069 N 0.76554 0.82279 0.32746 0.0
C1070 C 0.7529 0.77872 0.32757 0.0
C1071 C 0.83322 0.79844 0.33131 0.0
C1072 C 0.84607 0.84347 0.32943 0.0
C1073 C 0.78645 0.76589 0.32975 0.0
C1074 C 0.811 0.8546 0.32693 0.0
H1075 H 0.91459 0.0016 0.31058 0.0
N1076 N 0.78755 0.90678 0.31862 0.0
C1077 C 0.8427 0.98217 0.30696 0.0
C1078 C 0.82242 0.89811 0.32239 0.0
C1079 C 0.79682 0.94745 0.30972 0.0
C1080 C 0.87909 0.97465 0.31264 0.0
C1081 C 0.86921 0.93194 0.32 0.0
O1082 O 0.70061 0.86838 0.28986 0.0
O1083 O 0.64688 0.8418 0.34371 0.0
O1084 O 0.59691 0.76922 0.35511 0.0
O1085 O 0.65653 0.7735 0.33024 0.0
O1086 O 0.68424 0.89593 0.32052 0.0
O1087 O 0.69716 0.80478 0.29446 0.0
O1088 O 0.64374 0.79326 0.4189 0.0
O1089 O 0.70374 0.82799 0.3666 0.0
O1090 O 0.75275 0.90452 0.35269 0.0
O1091 O 0.69733 0.89429 0.38304 0.0
O1092 O 0.66428 0.77196 0.38844 0.0
O1093 O 0.65222 0.85953 0.41769 0.0
C1094 C 0.64717 0.87519 0.334 0.0
C1095 C 0.72341 0.84157 0.25575 0.0
C1096 C 0.72552 0.84236 0.21044 0.0
C1097 C 0.70079 0.8343 0.23296 0.0
C1098 C 0.77345 0.85794 0.21115 0.0
C1099 C 0.77115 0.85704 0.25614 0.0
C1100 C 0.79601 0.86521 0.23389 0.0
C1101 C 0.61285 0.75239 0.33834 0.0
C1102 C 0.6966 0.83332 0.27883 0.0
C1103 C 0.90436 0.92168 0.32439 0.0
C1104 C 0.8927 0.87751 0.32938 0.0
C1105 C 0.70252 0.79388 0.37596 0.0
C1106 C 0.62448 0.81812 0.45521 0.0
C1107 C 0.64917 0.8281 0.47744 0.0
C1108 C 0.62577 0.81711 0.50048 0.0
C1109 C 0.5771 0.79594 0.50094 0.0
C1110 C 0.57599 0.79745 0.45592 0.0
C1111 C 0.55245 0.78643 0.47875 0.0
C1112 C 0.73859 0.91788 0.37213 0.0
C1113 C 0.65021 0.82771 0.43167 0.0
H1114 H 0.66373 0.82172 0.23285 0.0
H1115 H 0.79357 0.8649 0.19414 0.0
H1116 H 0.78911 0.86275 0.27357 0.0
H1117 H 0.8329 0.87727 0.23425 0.0
H1118 H 0.68665 0.84364 0.47678 0.0
H1119 H 0.55821 0.78733 0.51844 0.0
H1120 H 0.55643 0.78953 0.43893 0.0
H1121 H 0.515 0.77035 0.47925 0.0
Eu1122 Eu 0.18929 0.81358 0.38577 0.0
C1123 C 0.09945 0.89723 0.31806 0.0
C1124 C 0.0178 0.8421 0.31586 0.0
C1125 C 0.04314 0.92048 0.30932 0.0
C1126 C 0.06419 0.85324 0.31971 0.0
C1127 C 0.08934 0.93134 0.31273 0.0
C1128 C 0.00756 0.87592 0.31061 0.0
C1129 C 0.17169 0.98382 0.31179 0.0
N1130 N 0.14388 0.9064 0.32027 0.0
C1131 C 0.18002 0.94874 0.31648 0.0
C1132 C 0.12613 0.97514 0.31004 0.0
Eu1133 Eu 0.15528 0.84523 0.32757 0.0
N1134 N 0.07544 0.82113 0.32374 0.0
C1135 C 0.04207 0.77712 0.32336 0.0
C1136 C 0.98322 0.79715 0.31659 0.0
C1137 C 0.99546 0.76451 0.32027 0.0
H1138 H 0.21533 0.95557 0.31758 0.0
H1139 H 0.96908 0.72961 0.3205 0.0
H1140 H 0.97242 0.86778 0.30673 0.0
H1141 H 0.20041 0.01744 0.30931 0.0
H1142 H 0.05101 0.75146 0.32586 0.0
H1143 H 0.37757 0.92115 0.38808 0.0
H1144 H 0.94714 0.78728 0.31388 0.0
H1145 H 0.1263 0.70731 0.40468 0.0
H1146 H 0.2963 0.90356 0.3862 0.0
H1147 H 0.13707 0.64343 0.41435 0.0
H1148 H 0.03468 0.94613 0.30497 0.0
H1149 H 0.39567 0.86043 0.39239 0.0
H1150 H 0.36648 0.77866 0.39938 0.0
H1151 H 0.11977 0.00227 0.30603 0.0
H1152 H 0.30113 0.70291 0.40595 0.0
N1153 N 0.26839 0.83335 0.38797 0.0
C1154 C 0.30358 0.87665 0.38784 0.0
C1155 C 0.35987 0.85243 0.39127 0.0
C1156 C 0.32353 0.8083 0.39315 0.0
C1157 C 0.34979 0.88681 0.38894 0.0
C1158 C 0.27757 0.79976 0.39147 0.0
H1159 H 0.21537 0.65216 0.41195 0.0
N1160 N 0.19741 0.75124 0.39581 0.0
C1161 C 0.16655 0.67518 0.40892 0.0
C1162 C 0.24082 0.75724 0.3955 0.0
C1163 C 0.16059 0.71147 0.40342 0.0
C1164 C 0.21075 0.68019 0.40745 0.0
C1165 C 0.24873 0.72185 0.40122 0.0
O1166 O 0.15275 0.79446 0.42161 0.0
O1167 O 0.13464 0.82215 0.36671 0.0
O1168 O 0.16324 0.89456 0.35707 0.0
O1169 O 0.21634 0.88828 0.38206 0.0
O1170 O 0.11161 0.76649 0.38894 0.0
O1171 O 0.21754 0.85641 0.41814 0.0
O1172 O 0.19287 0.87097 0.29242 0.0
O1173 O 0.20989 0.83577 0.34617 0.0
O1174 O 0.17503 0.75885 0.35868 0.0
O1175 O 0.13159 0.77112 0.32885 0.0
O1176 O 0.23262 0.89309 0.32508 0.0
O1177 O 0.13088 0.80596 0.29367 0.0
C1178 C 0.09847 0.78839 0.37506 0.0
C1179 C 0.19943 0.81986 0.45719 0.0
C1180 C 0.19772 0.82069 0.5026 0.0
C1181 C 0.18329 0.82855 0.4795 0.0
C1182 C 0.22794 0.80336 0.50294 0.0
C1183 C 0.22967 0.80279 0.45802 0.0
C1184 C 0.24366 0.79444 0.4808 0.0
C1185 C 0.19542 0.91003 0.37435 0.0
C1186 C 0.18471 0.8289 0.43321 0.0
C1187 C 0.2943 0.72967 0.40167 0.0
C1188 C 0.33161 0.77285 0.39777 0.0
C1189 C 0.24587 0.87007 0.33792 0.0
C1190 C 0.14989 0.84586 0.2555 0.0
C1191 C 0.16639 0.83672 0.23347 0.0
C1192 C 0.15487 0.84683 0.2101 0.0
C1193 C 0.12632 0.86598 0.20923 0.0
C1194 C 0.12133 0.86474 0.25415 0.0
C1195 C 0.10963 0.87471 0.23111 0.0
C1196 C 0.14758 0.74673 0.33916 0.0
C1197 C 0.16369 0.83648 0.27968 0.0
H1198 H 0.16032 0.84223 0.47883 0.0
H1199 H 0.23921 0.79642 0.52038 0.0
H1200 H 0.24259 0.79609 0.44111 0.0
H1201 H 0.26692 0.78114 0.48129 0.0
H1202 H 0.1888 0.82245 0.23454 0.0
H1203 H 0.11634 0.87365 0.19159 0.0
H1204 H 0.10822 0.87189 0.27084 0.0
H1205 H 0.08753 0.88927 0.23021 0.0
Eu1206 Eu 0.82352 0.63217 0.65948 0.0
C1207 C 0.92409 0.80425 0.72478 0.0
C1208 C 1.00511 0.82514 0.72281 0.0
C1209 C 0.98377 0.88226 0.72779 0.0
C1210 C 0.95772 0.79234 0.72222 0.0
C1211 C 0.93667 0.84924 0.7281 0.0
C1212 C 0.01794 0.87023 0.72512 0.0
C1213 C 0.85537 0.82523 0.73346 0.0
N1214 N 0.879 0.77155 0.72506 0.0
C1215 C 0.84469 0.78109 0.73019 0.0
C1216 C 0.90154 0.85954 0.73214 0.0
Eu1217 Eu 0.86323 0.69798 0.71784 0.0
N1218 N 0.9441 0.7485 0.72006 0.0
C1219 C 0.97612 0.73488 0.72025 0.0
C1220 C 0.03815 0.81154 0.72159 0.0
C1221 C 0.02354 0.76615 0.72066 0.0
H1222 H 0.80892 0.75469 0.73107 0.0
H1223 H 0.04878 0.75521 0.72014 0.0
H1224 H 0.05417 0.89594 0.72538 0.0
H1225 H 0.82801 0.83276 0.73697 0.0
H1226 H 0.96544 0.69998 0.71938 0.0
H1227 H 0.63673 0.57037 0.66069 0.0
H1228 H 0.07489 0.83568 0.72189 0.0
H1229 H 0.87799 0.57892 0.6401 0.0
H1230 H 0.71955 0.627 0.65993 0.0
H1231 H 0.86069 0.50193 0.63206 0.0
H1232 H 0.99415 0.91706 0.73009 0.0
H1233 H 0.61246 0.49031 0.65877 0.0
H1234 H 0.63501 0.43159 0.6534 0.0
H1235 H 0.90975 0.8937 0.73475 0.0
H1236 H 0.69612 0.41286 0.64544 0.0
N1237 N 0.74268 0.57987 0.65844 0.0
C1238 C 0.70977 0.59236 0.65899 0.0
C1239 C 0.64902 0.51512 0.65846 0.0
C1240 C 0.68281 0.50266 0.65612 0.0
C1241 C 0.66258 0.56025 0.65946 0.0
C1242 C 0.72993 0.53631 0.65598 0.0
H1243 H 0.78039 0.43898 0.63695 0.0
N1244 N 0.80858 0.55946 0.65015 0.0
C1245 C 0.83319 0.5081 0.63771 0.0
C1246 C 0.76407 0.52575 0.65166 0.0
C1247 C 0.84286 0.55163 0.64224 0.0
C1248 C 0.78785 0.47265 0.64057 0.0
C1249 C 0.75242 0.4813 0.64716 0.0
O1250 O 0.86054 0.64728 0.62376 0.0
O1251 O 0.87988 0.69149 0.67847 0.0
O1252 O 0.8534 0.73992 0.68869 0.0
O1253 O 0.80022 0.68351 0.66314 0.0
O1254 O 0.90035 0.65665 0.65567 0.0
O1255 O 0.79811 0.65096 0.62677 0.0
O1256 O 0.82539 0.68578 0.75308 0.0
O1257 O 0.80697 0.63782 0.69926 0.0
O1258 O 0.83849 0.59087 0.68653 0.0
O1259 O 0.88401 0.64463 0.71601 0.0
O1260 O 0.78679 0.67442 0.72104 0.0
O1261 O 0.88726 0.68062 0.75166 0.0
C1262 C 0.91487 0.69109 0.66965 0.0
C1263 C 0.81664 0.6337 0.58729 0.0
C1264 C 0.81797 0.64052 0.5418 0.0
C1265 C 0.83186 0.66021 0.56545 0.0
C1266 C 0.78937 0.5939 0.54055 0.0
C1267 C 0.78799 0.58744 0.5854 0.0
C1268 C 0.77462 0.56772 0.56215 0.0
C1269 C 0.8216 0.72514 0.67112 0.0
C1270 C 0.83087 0.65435 0.61196 0.0
C1271 C 0.70576 0.44729 0.64855 0.0
C1272 C 0.67098 0.45796 0.65307 0.0
C1273 C 0.77217 0.63888 0.70796 0.0
C1274 C 0.86637 0.69803 0.7906 0.0
C1275 C 0.85 0.67072 0.81214 0.0
C1276 C 0.85957 0.68978 0.83606 0.0
C1277 C 0.88636 0.73646 0.83793 0.0
C1278 C 0.8931 0.74437 0.79309 0.0
C1279 C 0.90308 0.76338 0.81664 0.0
C1280 C 0.86669 0.60472 0.70582 0.0
C1281 C 0.85388 0.67803 0.76569 0.0
H1282 H 0.85371 0.69604 0.56691 0.0
H1283 H 0.77863 0.57748 0.52279 0.0
H1284 H 0.77598 0.56658 0.60191 0.0
H1285 H 0.75265 0.53194 0.56085 0.0
H1286 H 0.82903 0.63488 0.81025 0.0
H1287 H 0.89485 0.75221 0.85595 0.0
H1288 H 0.90594 0.76583 0.77682 0.0
H1289 H 0.92373 0.79921 0.81842 0.0
Eu1290 Eu 0.37766 0.18113 0.65987 0.0
C1291 C 0.19542 0.11255 0.72077 0.0
C1292 C 0.17889 0.17284 0.71675 0.0
C1293 C 0.11551 0.09637 0.72038 0.0
C1294 C 0.2109 0.15757 0.71797 0.0
C1295 C 0.14759 0.08157 0.7228 0.0
C1296 C 0.13121 0.14193 0.7172 0.0
C1297 C 0.16696 0.02424 0.7312 0.0
N1298 N 0.22724 0.09928 0.72266 0.0
C1299 C 0.214 0.05622 0.72893 0.0
C1300 C 0.13354 0.03682 0.72772 0.0
Eu1301 Eu 0.3058 0.15477 0.71684 0.0
N1302 N 0.25725 0.18656 0.71707 0.0
C1303 C 0.2739 0.2315 0.71703 0.0
C1304 C 0.19575 0.21876 0.71538 0.0
C1305 C 0.24347 0.24822 0.71596 0.0
H1306 H 0.23987 0.04642 0.73129 0.0
H1307 H 0.25688 0.28383 0.71529 0.0
H1308 H 0.10637 0.15319 0.7155 0.0
H1309 H 0.15649 0.9899 0.73548 0.0
H1310 H 0.31064 0.25478 0.71707 0.0
H1311 H 0.44281 0.06425 0.66395 0.0
H1312 H 0.17226 0.23179 0.71431 0.0
H1313 H 0.43539 0.28687 0.63906 0.0
H1314 H 0.38354 0.08655 0.66024 0.0
H1315 H 0.51661 0.34809 0.634 0.0
H1316 H 0.07859 0.07297 0.72138 0.0
H1317 H 0.52578 0.1218 0.6666 0.0
H1318 H 0.58656 0.20314 0.66598 0.0
H1319 H 0.09711 0.01197 0.72942 0.0
H1320 H 0.60723 0.2807 0.65668 0.0
N1321 N 0.43221 0.15612 0.66079 0.0
C1322 C 0.41957 0.11204 0.6609 0.0
C1323 C 0.49988 0.13177 0.66464 0.0
C1324 C 0.51274 0.17679 0.66276 0.0
C1325 C 0.45312 0.09921 0.66308 0.0
C1326 C 0.47767 0.18793 0.66026 0.0
H1327 H 0.58126 0.33492 0.64391 0.0
N1328 N 0.45422 0.24011 0.65196 0.0
C1329 C 0.50937 0.3155 0.64029 0.0
C1330 C 0.48909 0.23144 0.65572 0.0
C1331 C 0.46349 0.28078 0.64305 0.0
C1332 C 0.54576 0.30797 0.64598 0.0
C1333 C 0.53588 0.26527 0.65333 0.0
O1334 O 0.36729 0.20171 0.6232 0.0
O1335 O 0.31355 0.17513 0.67704 0.0
O1336 O 0.26358 0.10255 0.68844 0.0
O1337 O 0.3232 0.10683 0.66357 0.0
O1338 O 0.35091 0.22926 0.65385 0.0
O1339 O 0.36383 0.13811 0.62779 0.0
O1340 O 0.31041 0.12659 0.75224 0.0
O1341 O 0.37041 0.16132 0.69993 0.0
O1342 O 0.41942 0.23785 0.68602 0.0
O1343 O 0.364 0.22762 0.71637 0.0
O1344 O 0.33095 0.10529 0.72177 0.0
O1345 O 0.31889 0.19286 0.75102 0.0
C1346 C 0.31384 0.20852 0.66734 0.0
C1347 C 0.39008 0.1749 0.58908 0.0
C1348 C 0.39219 0.17569 0.54377 0.0
C1349 C 0.36746 0.16763 0.5663 0.0
C1350 C 0.44012 0.19127 0.54448 0.0
C1351 C 0.43782 0.19037 0.58948 0.0
C1352 C 0.46268 0.19854 0.56722 0.0
C1353 C 0.27952 0.08572 0.67167 0.0
C1354 C 0.36327 0.16666 0.61217 0.0
C1355 C 0.57102 0.25501 0.65772 0.0
C1356 C 0.55937 0.21084 0.66271 0.0
C1357 C 0.36919 0.12721 0.70929 0.0
C1358 C 0.29115 0.15145 0.78854 0.0
C1359 C 0.31583 0.16144 0.81077 0.0
C1360 C 0.29244 0.15044 0.83381 0.0
C1361 C 0.24376 0.12928 0.83427 0.0
C1362 C 0.24266 0.13078 0.78925 0.0
C1363 C 0.21912 0.11976 0.81208 0.0
C1364 C 0.40526 0.25121 0.70546 0.0
C1365 C 0.31688 0.16104 0.765 0.0
H1366 H 0.3304 0.15505 0.56618 0.0
H1367 H 0.46024 0.19823 0.52747 0.0
H1368 H 0.45578 0.19608 0.6069 0.0
H1369 H 0.49957 0.2106 0.56759 0.0
H1370 H 0.35332 0.17697 0.81011 0.0
H1371 H 0.22487 0.12067 0.85177 0.0
H1372 H 0.22309 0.12286 0.77226 0.0
H1373 H 0.18167 0.10369 0.81259 0.0
Eu1374 Eu 0.85596 0.14691 0.7191 0.0
C1375 C 0.76613 0.23056 0.6514 0.0
C1376 C 0.68447 0.17543 0.6492 0.0
C1377 C 0.70981 0.25382 0.64265 0.0
C1378 C 0.73087 0.18657 0.65304 0.0
C1379 C 0.75602 0.26468 0.64607 0.0
C1380 C 0.67423 0.20925 0.64394 0.0
C1381 C 0.83837 0.31715 0.64513 0.0
N1382 N 0.81055 0.23974 0.65361 0.0
C1383 C 0.84669 0.28208 0.64981 0.0
C1384 C 0.79281 0.30847 0.64338 0.0
Eu1385 Eu 0.82195 0.17856 0.66091 0.0
N1386 N 0.74211 0.15446 0.65708 0.0
C1387 C 0.70874 0.11045 0.6567 0.0
C1388 C 0.64989 0.13049 0.64992 0.0
C1389 C 0.66214 0.09785 0.6536 0.0
H1390 H 0.882 0.2889 0.65092 0.0
H1391 H 0.63575 0.06295 0.65383 0.0
H1392 H 0.63909 0.20112 0.64006 0.0
H1393 H 0.86708 0.35077 0.64264 0.0
H1394 H 0.71768 0.0848 0.65919 0.0
H1395 H 0.04424 0.25448 0.72142 0.0
H1396 H 0.61381 0.12062 0.64721 0.0
H1397 H 0.79297 0.04064 0.73802 0.0
H1398 H 0.96297 0.2369 0.71953 0.0
H1399 H 0.80374 0.97676 0.74768 0.0
H1400 H 0.70136 0.27947 0.6383 0.0
H1401 H 0.06234 0.19376 0.72573 0.0
H1402 H 0.03315 0.11199 0.73272 0.0
H1403 H 0.78645 0.33561 0.63937 0.0
H1404 H 0.9678 0.03625 0.73929 0.0
N1405 N 0.93506 0.16668 0.72131 0.0
C1406 C 0.97025 0.20998 0.72117 0.0
C1407 C 0.02654 0.18576 0.7246 0.0
C1408 C 0.9902 0.14163 0.72649 0.0
C1409 C 0.01646 0.22014 0.72228 0.0
C1410 C 0.94424 0.13309 0.72481 0.0
H1411 H 0.88204 0.98549 0.74528 0.0
N1412 N 0.86408 0.08457 0.72914 0.0
C1413 C 0.83322 0.00851 0.74226 0.0
C1414 C 0.90749 0.09057 0.72883 0.0
C1415 C 0.82726 0.0448 0.73676 0.0
C1416 C 0.87742 0.01353 0.74078 0.0
C1417 C 0.9154 0.05518 0.73455 0.0
O1418 O 0.81942 0.12779 0.75495 0.0
O1419 O 0.80131 0.15548 0.70005 0.0
O1420 O 0.82991 0.22789 0.69041 0.0
O1421 O 0.88301 0.22161 0.71539 0.0
O1422 O 0.77828 0.09983 0.72228 0.0
O1423 O 0.88421 0.18974 0.75148 0.0
O1424 O 0.85954 0.2043 0.62576 0.0
O1425 O 0.87657 0.1691 0.67951 0.0
O1426 O 0.8417 0.09218 0.69202 0.0
O1427 O 0.79826 0.10446 0.66219 0.0
O1428 O 0.89929 0.22642 0.65841 0.0
O1429 O 0.79755 0.13929 0.62701 0.0
C1430 C 0.76514 0.12172 0.7084 0.0
C1431 C 0.86609 0.15319 0.79052 0.0
C1432 C 0.86439 0.15402 0.83593 0.0
C1433 C 0.84995 0.16188 0.81283 0.0
C1434 C 0.89461 0.1367 0.83628 0.0
C1435 C 0.89633 0.13612 0.79135 0.0
C1436 C 0.91033 0.12777 0.81413 0.0
C1437 C 0.86209 0.24336 0.70769 0.0
C1438 C 0.85138 0.16223 0.76654 0.0
C1439 C 0.96097 0.063 0.73501 0.0
C1440 C 0.99828 0.10618 0.73111 0.0
C1441 C 0.91254 0.2034 0.67125 0.0
C1442 C 0.81656 0.17919 0.58884 0.0
C1443 C 0.83306 0.17005 0.5668 0.0
C1444 C 0.82154 0.18017 0.54344 0.0
C1445 C 0.79299 0.19931 0.54256 0.0
C1446 C 0.78801 0.19808 0.58748 0.0
C1447 C 0.77631 0.20805 0.56445 0.0
C1448 C 0.81425 0.08006 0.67249 0.0
C1449 C 0.83036 0.16981 0.61302 0.0
H1450 H 0.82699 0.17556 0.81217 0.0
H1451 H 0.90587 0.12975 0.85372 0.0
H1452 H 0.90926 0.12942 0.77444 0.0
H1453 H 0.93358 0.11447 0.81463 0.0
H1454 H 0.85548 0.15579 0.56788 0.0
H1455 H 0.78302 0.20698 0.52493 0.0
H1456 H 0.77489 0.20522 0.60417 0.0
H1457 H 0.75421 0.2226 0.56354 0.0
loop_
_geom_bond_atom_site_label_1
_geom_bond_atom_site_label_2
_geom_bond_distance
_geom_bond_site_symmetry_2
_ccdc_geom_bond_type
C0 C1 1.386 . S
C0 C2 1.397 . S
C0 H24 0.931 . S
C1 C0 1.386 . S
C1 C5 1.397 . S
C2 C0 1.397 . S
C2 C3 1.384 . S
C2 H25 0.930 . S
C3 C2 1.384 . S
C3 C4 1.377 . S
C3 C6 1.481 . S
C4 C3 1.377 . S
C4 C5 1.389 . S
C4 H26 0.929 . S
C5 C1 1.397 . S
C5 C4 1.389 . S
C5 H27 0.931 . S
C6 C3 1.481 . S
C6 C7 1.387 . S
C6 C11 1.390 . S
C7 C6 1.387 . S
C7 C8 1.401 . S
C7 H28 0.930 . S
C8 C7 1.401 . S
C8 C9 1.376 . S
C8 C17 1.511 . S
C9 C8 1.376 . S
C9 C10 1.392 . S
C9 H30 0.931 . S
C10 C9 1.392 . S
C10 C11 1.361 . S
C10 C12 1.500 . S
C11 C6 1.390 . S
C11 C10 1.361 . S
C11 H29 0.931 . S
C12 C10 1.500 . S
C12 C13 1.371 . S
C12 C14 1.365 . S
C13 C12 1.371 . S
C13 C23 1.386 1_545 S
C13 H31 0.931 . S
C14 C12 1.365 . S
C14 C15 1.409 1_545 S
C14 H32 0.929 . S
C15 C14 1.409 1_565 S
C15 C16 1.380 . S
C15 H33 0.930 . S
C16 C15 1.380 . S
C16 C23 1.357 . S
C17 C8 1.511 . S
C17 C18 1.341 . S
C17 C19 1.371 . S
C18 C17 1.341 . S
C18 C22 1.394 . S
C18 H34 0.930 . S
C19 C17 1.371 . S
C19 C20 1.392 . S
C19 H35 0.931 . S
C20 C19 1.392 . S
C20 C21 1.331 . S
C20 H38 0.932 . S
C21 C20 1.331 . S
C21 C22 1.336 . S
C22 C18 1.394 . S
C22 C21 1.336 . S
C22 H37 0.929 . S
C23 C13 1.386 1_565 S
C23 C16 1.357 . S
C23 H36 0.928 . S
H24 C0 0.931 . S
H25 C2 0.930 . S
H26 C4 0.929 . S
H27 C5 0.931 . S
H28 C7 0.930 . S
H29 C11 0.931 . S
H30 C9 0.931 . S
H31 C13 0.931 . S
H32 C14 0.929 . S
H33 C15 0.930 . S
H34 C18 0.930 . S
H35 C19 0.931 . S
H36 C23 0.928 . S
H37 C22 0.929 . S
H38 C20 0.932 . S
C39 C40 1.386 . S
C39 C41 1.397 . S
C39 H63 0.931 . S
C40 C39 1.386 . S
C40 C44 1.397 . S
C41 C39 1.397 . S
C41 C42 1.384 . S
C41 H64 0.930 . S
C42 C41 1.384 . S
C42 C43 1.377 . S
C42 C45 1.481 . S
C43 C42 1.377 . S
C43 C44 1.389 . S
C43 H65 0.929 . S
C44 C40 1.397 . S
C44 C43 1.389 . S
C44 H66 0.931 . S
C45 C42 1.481 . S
C45 C46 1.387 . S
C45 C50 1.390 . S
C46 C45 1.387 . S
C46 C47 1.401 . S
C46 H67 0.930 . S
C47 C46 1.401 . S
C47 C48 1.376 . S
C47 C56 1.511 . S
C48 C47 1.376 . S
C48 C49 1.392 . S
C48 H69 0.931 . S
C49 C48 1.392 . S
C49 C50 1.361 . S
C49 C51 1.500 . S
C50 C45 1.390 . S
C50 C49 1.361 . S
C50 H68 0.931 . S
C51 C49 1.500 . S
C51 C52 1.371 . S
C51 C53 1.365 . S
C52 C51 1.371 . S
C52 C62 1.386 . S
C52 H70 0.931 . S
C53 C51 1.365 . S
C53 C54 1.409 1_545 S
C53 H71 0.929 . S
C54 C53 1.409 1_565 S
C54 C55 1.380 . S
C54 H72 0.930 . S
C55 C54 1.380 . S
C55 C62 1.357 1_565 S
C56 C47 1.511 . S
C56 C57 1.341 . S
C56 C58 1.371 . S
C57 C56 1.341 . S
C57 C61 1.394 1_655 S
C57 H73 0.930 . S
C58 C56 1.371 . S
C58 C59 1.392 1_655 S
C58 H74 0.931 . S
C59 C58 1.392 1_455 S
C59 C60 1.331 . S
C59 H77 0.932 . S
C60 C59 1.331 . S
C60 C61 1.336 . S
C61 C57 1.394 1_455 S
C61 C60 1.336 . S
C61 H76 0.929 . S
C62 C52 1.386 . S
C62 C55 1.357 1_545 S
C62 H75 0.928 . S
H63 C39 0.931 . S
H64 C41 0.930 . S
H65 C43 0.929 . S
H66 C44 0.931 . S
H67 C46 0.930 . S
H68 C50 0.931 . S
H69 C48 0.931 . S
H70 C52 0.931 . S
H71 C53 0.929 . S
H72 C54 0.930 . S
H73 C57 0.930 . S
H74 C58 0.931 . S
H75 C62 0.928 . S
H76 C61 0.929 . S
H77 C59 0.932 . S
C78 C79 1.386 . S
C78 C80 1.397 . S
C78 H102 0.931 . S
C79 C78 1.386 . S
C79 C83 1.397 . S
C80 C78 1.397 . S
C80 C81 1.384 . S
C80 H103 0.930 . S
C81 C80 1.384 . S
C81 C82 1.377 . S
C81 C84 1.481 . S
C82 C81 1.377 . S
C82 C83 1.389 . S
C82 H104 0.929 . S
C83 C79 1.397 . S
C83 C82 1.389 . S
C83 H105 0.931 . S
C84 C81 1.481 . S
C84 C85 1.387 . S
C84 C89 1.390 . S
C85 C84 1.387 . S
C85 C86 1.401 . S
C85 H106 0.930 . S
C86 C85 1.401 . S
C86 C87 1.376 . S
C86 C95 1.511 . S
C87 C86 1.376 . S
C87 C88 1.392 . S
C87 H108 0.931 . S
C88 C87 1.392 . S
C88 C89 1.361 . S
C88 C90 1.500 . S
C89 C84 1.390 . S
C89 C88 1.361 . S
C89 H107 0.931 . S
C90 C88 1.500 . S
C90 C91 1.371 . S
C90 C92 1.365 . S
C91 C90 1.371 . S
C91 C101 1.386 . S
C91 H109 0.931 . S
C92 C90 1.365 . S
C92 C93 1.409 . S
C92 H110 0.929 . S
C93 C92 1.409 . S
C93 C94 1.380 . S
C93 H111 0.930 . S
C94 C93 1.380 . S
C94 C101 1.357 . S
C95 C86 1.511 . S
C95 C96 1.341 1_655 S
C95 C97 1.371 . S
C96 C95 1.341 1_455 S
C96 C100 1.394 . S
C96 H112 0.930 . S
C97 C95 1.371 . S
C97 C98 1.392 1_655 S
C97 H113 0.931 . S
C98 C97 1.392 1_455 S
C98 C99 1.331 . S
C98 H116 0.932 . S
C99 C98 1.331 . S
C99 C100 1.336 . S
C100 C96 1.394 . S
C100 C99 1.336 . S
C100 H115 0.929 . S
C101 C91 1.386 . S
C101 C94 1.357 . S
C101 H114 0.928 . S
H102 C78 0.931 . S
H103 C80 0.930 . S
H104 C82 0.929 . S
H105 C83 0.931 . S
H106 C85 0.930 . S
H107 C89 0.931 . S
H108 C87 0.931 . S
H109 C91 0.931 . S
H110 C92 0.929 . S
H111 C93 0.930 . S
H112 C96 0.930 . S
H113 C97 0.931 . S
H114 C101 0.928 . S
H115 C100 0.929 . S
H116 C98 0.932 . S
C117 C118 1.386 . S
C117 C119 1.397 . S
C117 H141 0.931 . S
C118 C117 1.386 . S
C118 C122 1.397 . S
C119 C117 1.397 . S
C119 C120 1.384 . S
C119 H142 0.930 . S
C120 C119 1.384 . S
C120 C121 1.377 . S
C120 C123 1.481 . S
C121 C120 1.377 . S
C121 C122 1.389 . S
C121 H143 0.929 . S
C122 C118 1.397 . S
C122 C121 1.389 . S
C122 H144 0.931 . S
C123 C120 1.481 . S
C123 C124 1.387 . S
C123 C128 1.390 . S
C124 C123 1.387 . S
C124 C125 1.401 . S
C124 H145 0.930 . S
C125 C124 1.401 . S
C125 C126 1.376 . S
C125 C134 1.511 . S
C126 C125 1.376 . S
C126 C127 1.392 . S
C126 H147 0.931 . S
C127 C126 1.392 . S
C127 C128 1.361 . S
C127 C129 1.500 . S
C128 C123 1.390 . S
C128 C127 1.361 . S
C128 H146 0.931 . S
C129 C127 1.500 . S
C129 C130 1.371 . S
C129 C131 1.365 . S
C130 C129 1.371 . S
C130 C140 1.386 1_455 S
C130 H148 0.931 . S
C131 C129 1.365 . S
C131 C132 1.409 1_455 S
C131 H149 0.929 . S
C132 C131 1.409 1_655 S
C132 C133 1.380 . S
C132 H150 0.930 . S
C133 C132 1.380 . S
C133 C140 1.357 . S
C134 C125 1.511 . S
C134 C135 1.341 . S
C134 C136 1.371 . S
C135 C134 1.341 . S
C135 C139 1.394 . S
C135 H151 0.930 . S
C136 C134 1.371 . S
C136 C137 1.392 . S
C136 H152 0.931 . S
C137 C136 1.392 . S
C137 C138 1.331 . S
C137 H155 0.932 . S
C138 C137 1.331 . S
C138 C139 1.336 . S
C139 C135 1.394 . S
C139 C138 1.336 . S
C139 H154 0.929 . S
C140 C130 1.386 1_655 S
C140 C133 1.357 . S
C140 H153 0.928 . S
H141 C117 0.931 . S
H142 C119 0.930 . S
H143 C121 0.929 . S
H144 C122 0.931 . S
H145 C124 0.930 . S
H146 C128 0.931 . S
H147 C126 0.931 . S
H148 C130 0.931 . S
H149 C131 0.929 . S
H150 C132 0.930 . S
H151 C135 0.930 . S
H152 C136 0.931 . S
H153 C140 0.928 . S
H154 C139 0.929 . S
H155 C137 0.932 . S
C156 C157 1.386 . S
C156 C158 1.397 . S
C156 H180 0.931 . S
C157 C156 1.386 . S
C157 C161 1.397 . S
C158 C156 1.397 . S
C158 C159 1.384 . S
C158 H181 0.930 . S
C159 C158 1.384 . S
C159 C160 1.377 . S
C159 C162 1.481 . S
C160 C159 1.377 . S
C160 C161 1.389 . S
C160 H182 0.929 . S
C161 C157 1.397 . S
C161 C160 1.389 . S
C161 H183 0.931 . S
C162 C159 1.481 . S
C162 C163 1.387 . S
C162 C167 1.390 . S
C163 C162 1.387 . S
C163 C164 1.401 . S
C163 H184 0.930 . S
C164 C163 1.401 . S
C164 C165 1.376 . S
C164 C173 1.511 . S
C165 C164 1.376 . S
C165 C166 1.392 . S
C165 H186 0.931 . S
C166 C165 1.392 . S
C166 C167 1.361 . S
C166 C168 1.500 . S
C167 C162 1.390 . S
C167 C166 1.361 . S
C167 H185 0.931 . S
C168 C166 1.500 . S
C168 C169 1.371 . S
C168 C170 1.365 . S
C169 C168 1.371 . S
C169 C179 1.386 . S
C169 H187 0.931 . S
C170 C168 1.365 . S
C170 C171 1.409 1_565 S
C170 H188 0.929 . S
C171 C170 1.409 1_545 S
C171 C172 1.380 . S
C171 H189 0.930 . S
C172 C171 1.380 . S
C172 C179 1.357 1_545 S
C173 C164 1.511 . S
C173 C174 1.341 . S
C173 C175 1.371 . S
C174 C173 1.341 . S
C174 C178 1.394 . S
C174 H190 0.930 . S
C175 C173 1.371 . S
C175 C176 1.392 . S
C175 H191 0.931 . S
C176 C175 1.392 . S
C176 C177 1.331 . S
C176 H194 0.932 . S
C177 C176 1.331 . S
C177 C178 1.336 . S
C178 C174 1.394 . S
C178 C177 1.336 . S
C178 H193 0.929 . S
C179 C169 1.386 . S
C179 C172 1.357 1_565 S
C179 H192 0.928 . S
H180 C156 0.931 . S
H181 C158 0.930 . S
H182 C160 0.929 . S
H183 C161 0.931 . S
H184 C163 0.930 . S
H185 C167 0.931 . S
H186 C165 0.931 . S
H187 C169 0.931 . S
H188 C170 0.929 . S
H189 C171 0.930 . S
H190 C174 0.930 . S
H191 C175 0.931 . S
H192 C179 0.928 . S
H193 C178 0.929 . S
H194 C176 0.932 . S
C195 C196 1.386 . S
C195 C197 1.397 . S
C195 H219 0.931 . S
C196 C195 1.386 . S
C196 C200 1.397 . S
C197 C195 1.397 . S
C197 C198 1.384 . S
C197 H220 0.930 . S
C198 C197 1.384 . S
C198 C199 1.377 . S
C198 C201 1.481 . S
C199 C198 1.377 . S
C199 C200 1.389 . S
C199 H221 0.929 . S
C200 C196 1.397 . S
C200 C199 1.389 . S
C200 H222 0.931 . S
C201 C198 1.481 . S
C201 C202 1.387 . S
C201 C206 1.390 . S
C202 C201 1.387 . S
C202 C203 1.401 . S
C202 H223 0.930 . S
C203 C202 1.401 . S
C203 C204 1.376 . S
C203 C212 1.511 . S
C204 C203 1.376 . S
C204 C205 1.392 . S
C204 H225 0.931 . S
C205 C204 1.392 . S
C205 C206 1.361 . S
C205 C207 1.500 . S
C206 C201 1.390 . S
C206 C205 1.361 . S
C206 H224 0.931 . S
C207 C205 1.500 . S
C207 C208 1.371 . S
C207 C209 1.365 . S
C208 C207 1.371 . S
C208 C218 1.386 1_565 S
C208 H226 0.931 . S
C209 C207 1.365 . S
C209 C210 1.409 1_565 S
C209 H227 0.929 . S
C210 C209 1.409 1_545 S
C210 C211 1.380 . S
C210 H228 0.930 . S
C211 C210 1.380 . S
C211 C218 1.357 . S
C212 C203 1.511 . S
C212 C213 1.341 1_455 S
C212 C214 1.371 . S
C213 C212 1.341 1_655 S
C213 C217 1.394 . S
C213 H229 0.930 . S
C214 C212 1.371 . S
C214 C215 1.392 1_455 S
C214 H230 0.931 . S
C215 C214 1.392 1_655 S
C215 C216 1.331 . S
C215 H233 0.932 . S
C216 C215 1.331 . S
C216 C217 1.336 . S
C217 C213 1.394 . S
C217 C216 1.336 . S
C217 H232 0.929 . S
C218 C208 1.386 1_545 S
C218 C211 1.357 . S
C218 H231 0.928 . S
H219 C195 0.931 . S
H220 C197 0.930 . S
H221 C199 0.929 . S
H222 C200 0.931 . S
H223 C202 0.930 . S
H224 C206 0.931 . S
H225 C204 0.931 . S
H226 C208 0.931 . S
H227 C209 0.929 . S
H228 C210 0.930 . S
H229 C213 0.930 . S
H230 C214 0.931 . S
H231 C218 0.928 . S
H232 C217 0.929 . S
H233 C215 0.932 . S
C234 C235 1.386 . S
C234 C236 1.397 . S
C234 H258 0.931 . S
C235 C234 1.386 . S
C235 C239 1.397 . S
C236 C234 1.397 . S
C236 C237 1.384 . S
C236 H259 0.930 . S
C237 C236 1.384 . S
C237 C238 1.377 . S
C237 C240 1.481 . S
C238 C237 1.377 . S
C238 C239 1.389 . S
C238 H260 0.929 . S
C239 C235 1.397 . S
C239 C238 1.389 . S
C239 H261 0.931 1_655 S
C240 C237 1.481 . S
C240 C241 1.387 . S
C240 C245 1.390 . S
C241 C240 1.387 . S
C241 C242 1.401 . S
C241 H262 0.930 . S
C242 C241 1.401 . S
C242 C243 1.376 . S
C242 C251 1.511 . S
C243 C242 1.376 . S
C243 C244 1.392 . S
C243 H264 0.931 . S
C244 C243 1.392 . S
C244 C245 1.361 . S
C244 C246 1.500 . S
C245 C240 1.390 . S
C245 C244 1.361 . S
C245 H263 0.931 . S
C246 C244 1.500 . S
C246 C247 1.371 . S
C246 C248 1.365 . S
C247 C246 1.371 . S
C247 C257 1.386 . S
C247 H265 0.931 . S
C248 C246 1.365 . S
C248 C249 1.409 . S
C248 H266 0.929 . S
C249 C248 1.409 . S
C249 C250 1.380 . S
C249 H267 0.930 . S
C250 C249 1.380 . S
C250 C257 1.357 . S
C251 C242 1.511 . S
C251 C252 1.341 . S
C251 C253 1.371 . S
C252 C251 1.341 . S
C252 C256 1.394 . S
C252 H268 0.930 . S
C253 C251 1.371 . S
C253 C254 1.392 . S
C253 H269 0.931 . S
C254 C253 1.392 . S
C254 C255 1.331 . S
C254 H272 0.932 . S
C255 C254 1.331 . S
C255 C256 1.336 . S
C256 C252 1.394 . S
C256 C255 1.336 . S
C256 H271 0.929 . S
C257 C247 1.386 . S
C257 C250 1.357 . S
C257 H270 0.928 . S
H258 C234 0.931 . S
H259 C236 0.930 . S
H260 C238 0.929 . S
H261 C239 0.931 1_455 S
H262 C241 0.930 . S
H263 C245 0.931 . S
H264 C243 0.931 . S
H265 C247 0.931 . S
H266 C248 0.929 . S
H267 C249 0.930 . S
H268 C252 0.930 . S
H269 C253 0.931 . S
H270 C257 0.928 . S
H271 C256 0.929 . S
H272 C254 0.932 . S
C273 C274 1.386 . S
C273 C275 1.397 . S
C273 H297 0.931 . S
C274 C273 1.386 . S
C274 C278 1.397 . S
C275 C273 1.397 . S
C275 C276 1.384 . S
C275 H298 0.930 . S
C276 C275 1.384 . S
C276 C277 1.377 . S
C276 C279 1.481 . S
C277 C276 1.377 . S
C277 C278 1.389 . S
C277 H299 0.929 . S
C278 C274 1.397 . S
C278 C277 1.389 . S
C278 H300 0.931 . S
C279 C276 1.481 . S
C279 C280 1.387 . S
C279 C284 1.390 . S
C280 C279 1.387 . S
C280 C281 1.401 . S
C280 H301 0.930 . S
C281 C280 1.401 . S
C281 C282 1.376 . S
C281 C290 1.511 . S
C282 C281 1.376 . S
C282 C283 1.392 . S
C282 H303 0.931 . S
C283 C282 1.392 . S
C283 C284 1.361 . S
C283 C285 1.500 . S
C284 C279 1.390 . S
C284 C283 1.361 . S
C284 H302 0.931 . S
C285 C283 1.500 . S
C285 C286 1.371 . S
C285 C287 1.365 . S
C286 C285 1.371 . S
C286 C296 1.386 . S
C286 H304 0.931 . S
C287 C285 1.365 . S
C287 C288 1.409 . S
C287 H305 0.929 . S
C288 C287 1.409 . S
C288 C289 1.380 . S
C288 H306 0.930 . S
C289 C288 1.380 . S
C289 C296 1.357 . S
C290 C281 1.511 . S
C290 C291 1.341 . S
C290 C292 1.371 . S
C291 C290 1.341 . S
C291 C295 1.394 . S
C291 H307 0.930 . S
C292 C290 1.371 . S
C292 C293 1.392 . S
C292 H308 0.931 . S
C293 C292 1.392 . S
C293 C294 1.331 . S
C293 H311 0.932 . S
C294 C293 1.331 . S
C294 C295 1.336 . S
C295 C291 1.394 . S
C295 C294 1.336 . S
C295 H310 0.929 . S
C296 C286 1.386 . S
C296 C289 1.357 . S
C296 H309 0.928 . S
H297 C273 0.931 . S
H298 C275 0.930 . S
H299 C277 0.929 . S
H300 C278 0.931 . S
H301 C280 0.930 . S
H302 C284 0.931 . S
H303 C282 0.931 . S
H304 C286 0.931 . S
H305 C287 0.929 . S
H306 C288 0.930 . S
H307 C291 0.930 . S
H308 C292 0.931 . S
H309 C296 0.928 . S
H310 C295 0.929 . S
H311 C293 0.932 . S
C312 C313 1.386 . S
C312 C314 1.397 . S
C312 H336 0.931 . S
C313 C312 1.386 . S
C313 C317 1.397 . S
C314 C312 1.397 . S
C314 C315 1.384 . S
C314 H337 0.930 . S
C315 C314 1.384 . S
C315 C316 1.377 . S
C315 C318 1.481 . S
C316 C315 1.377 . S
C316 C317 1.389 . S
C316 H338 0.929 . S
C317 C313 1.397 . S
C317 C316 1.389 . S
C317 H339 0.931 . S
C318 C315 1.481 . S
C318 C319 1.387 . S
C318 C323 1.390 . S
C319 C318 1.387 . S
C319 C320 1.401 . S
C319 H340 0.930 . S
C320 C319 1.401 . S
C320 C321 1.376 . S
C320 C329 1.511 . S
C321 C320 1.376 . S
C321 C322 1.392 . S
C321 H342 0.931 . S
C322 C321 1.392 . S
C322 C323 1.361 . S
C322 C324 1.500 . S
C323 C318 1.390 . S
C323 C322 1.361 . S
C323 H341 0.931 . S
C324 C322 1.500 . S
C324 C325 1.371 . S
C324 C326 1.365 . S
C325 C324 1.371 . S
C325 C335 1.386 . S
C325 H343 0.931 . S
C326 C324 1.365 . S
C326 C327 1.409 . S
C326 H344 0.929 . S
C327 C326 1.409 . S
C327 C328 1.380 . S
C327 H345 0.930 . S
C328 C327 1.380 . S
C328 C335 1.357 . S
C329 C320 1.511 . S
C329 C330 1.341 . S
C329 C331 1.371 . S
C330 C329 1.341 . S
C330 C334 1.394 . S
C330 H346 0.930 . S
C331 C329 1.371 . S
C331 C332 1.392 . S
C331 H347 0.931 . S
C332 C331 1.392 . S
C332 C333 1.331 . S
C332 H350 0.932 . S
C333 C332 1.331 . S
C333 C334 1.336 . S
C334 C330 1.394 . S
C334 C333 1.336 . S
C334 H349 0.929 . S
C335 C325 1.386 . S
C335 C328 1.357 . S
C335 H348 0.928 . S
H336 C312 0.931 . S
H337 C314 0.930 . S
H338 C316 0.929 . S
H339 C317 0.931 . S
H340 C319 0.930 . S
H341 C323 0.931 . S
H342 C321 0.931 . S
H343 C325 0.931 . S
H344 C326 0.929 . S
H345 C327 0.930 . S
H346 C330 0.930 . S
H347 C331 0.931 . S
H348 C335 0.928 . S
H349 C334 0.929 . S
H350 C332 0.932 . S
C351 C352 1.386 . S
C351 C353 1.397 . S
C351 H375 0.931 . S
C352 C351 1.386 . S
C352 C356 1.397 . S
C353 C351 1.397 . S
C353 C354 1.384 . S
C353 H376 0.930 . S
C354 C353 1.384 . S
C354 C355 1.377 . S
C354 C357 1.481 . S
C355 C354 1.377 . S
C355 C356 1.389 . S
C355 H377 0.929 . S
C356 C352 1.397 . S
C356 C355 1.389 . S
C356 H378 0.931 . S
C357 C354 1.481 . S
C357 C358 1.387 . S
C357 C362 1.390 . S
C358 C357 1.387 . S
C358 C359 1.401 . S
C358 H379 0.930 . S
C359 C358 1.401 . S
C359 C360 1.376 . S
C359 C368 1.511 . S
C360 C359 1.376 . S
C360 C361 1.392 . S
C360 H381 0.931 . S
C361 C360 1.392 . S
C361 C362 1.361 . S
C361 C363 1.500 . S
C362 C357 1.390 . S
C362 C361 1.361 . S
C362 H380 0.931 . S
C363 C361 1.500 . S
C363 C364 1.371 . S
C363 C365 1.365 . S
C364 C363 1.371 . S
C364 C374 1.386 . S
C364 H382 0.931 . S
C365 C363 1.365 . S
C365 C366 1.409 . S
C365 H383 0.929 . S
C366 C365 1.409 . S
C366 C367 1.380 . S
C366 H384 0.930 . S
C367 C366 1.380 . S
C367 C374 1.357 . S
C368 C359 1.511 . S
C368 C369 1.341 . S
C368 C370 1.371 . S
C369 C368 1.341 . S
C369 C373 1.394 . S
C369 H385 0.930 . S
C370 C368 1.371 . S
C370 C371 1.392 . S
C370 H386 0.931 . S
C371 C370 1.392 . S
C371 C372 1.331 . S
C371 H389 0.932 1_556 S
C372 C371 1.331 . S
C372 C373 1.336 . S
C373 C369 1.394 . S
C373 C372 1.336 . S
C373 H388 0.929 . S
C374 C364 1.386 . S
C374 C367 1.357 . S
C374 H387 0.928 . S
H375 C351 0.931 . S
H376 C353 0.930 . S
H377 C355 0.929 . S
H378 C356 0.931 . S
H379 C358 0.930 . S
H380 C362 0.931 . S
H381 C360 0.931 . S
H382 C364 0.931 . S
H383 C365 0.929 . S
H384 C366 0.930 . S
H385 C369 0.930 . S
H386 C370 0.931 . S
H387 C374 0.928 . S
H388 C373 0.929 . S
H389 C371 0.932 1_554 S
C390 C391 1.386 . S
C390 C392 1.397 . S
C390 H414 0.931 . S
C391 C390 1.386 . S
C391 C395 1.397 . S
C392 C390 1.397 . S
C392 C393 1.384 . S
C392 H415 0.930 . S
C393 C392 1.384 . S
C393 C394 1.377 . S
C393 C396 1.481 . S
C394 C393 1.377 . S
C394 C395 1.389 . S
C394 H416 0.929 . S
C395 C391 1.397 . S
C395 C394 1.389 . S
C395 H417 0.931 . S
C396 C393 1.481 . S
C396 C397 1.387 . S
C396 C401 1.390 . S
C397 C396 1.387 . S
C397 C398 1.401 . S
C397 H418 0.930 . S
C398 C397 1.401 . S
C398 C399 1.376 . S
C398 C407 1.511 . S
C399 C398 1.376 . S
C399 C400 1.392 . S
C399 H420 0.931 . S
C400 C399 1.392 . S
C400 C401 1.361 . S
C400 C402 1.500 . S
C401 C396 1.390 . S
C401 C400 1.361 . S
C401 H419 0.931 . S
C402 C400 1.500 . S
C402 C403 1.371 . S
C402 C404 1.365 . S
C403 C402 1.371 . S
C403 C413 1.386 . S
C403 H421 0.931 . S
C404 C402 1.365 . S
C404 C405 1.409 . S
C404 H422 0.929 . S
C405 C404 1.409 . S
C405 C406 1.380 . S
C405 H423 0.930 . S
C406 C405 1.380 . S
C406 C413 1.357 . S
C407 C398 1.511 . S
C407 C408 1.341 . S
C407 C409 1.371 . S
C408 C407 1.341 . S
C408 C412 1.394 . S
C408 H424 0.930 . S
C409 C407 1.371 . S
C409 C410 1.392 . S
C409 H425 0.931 . S
C410 C409 1.392 . S
C410 C411 1.331 . S
C410 H428 0.932 1_556 S
C411 C410 1.331 . S
C411 C412 1.336 . S
C412 C408 1.394 . S
C412 C411 1.336 . S
C412 H427 0.929 . S
C413 C403 1.386 . S
C413 C406 1.357 . S
C413 H426 0.928 1_556 S
H414 C390 0.931 . S
H415 C392 0.930 . S
H416 C394 0.929 . S
H417 C395 0.931 . S
H418 C397 0.930 . S
H419 C401 0.931 . S
H420 C399 0.931 . S
H421 C403 0.931 . S
H422 C404 0.929 . S
H423 C405 0.930 . S
H424 C408 0.930 . S
H425 C409 0.931 . S
H426 C413 0.928 1_554 S
H427 C412 0.929 . S
H428 C410 0.932 1_554 S
C429 C430 1.386 . S
C429 C431 1.397 . S
C429 H453 0.931 . S
C430 C429 1.386 . S
C430 C434 1.397 . S
C431 C429 1.397 . S
C431 C432 1.384 . S
C431 H454 0.930 . S
C432 C431 1.384 . S
C432 C433 1.377 . S
C432 C435 1.481 . S
C433 C432 1.377 . S
C433 C434 1.389 . S
C433 H455 0.929 . S
C434 C430 1.397 . S
C434 C433 1.389 . S
C434 H456 0.931 . S
C435 C432 1.481 . S
C435 C436 1.387 . S
C435 C440 1.390 . S
C436 C435 1.387 . S
C436 C437 1.401 . S
C436 H457 0.930 . S
C437 C436 1.401 . S
C437 C438 1.376 . S
C437 C446 1.511 . S
C438 C437 1.376 . S
C438 C439 1.392 . S
C438 H459 0.931 . S
C439 C438 1.392 . S
C439 C440 1.361 . S
C439 C441 1.500 . S
C440 C435 1.390 . S
C440 C439 1.361 . S
C440 H458 0.931 . S
C441 C439 1.500 . S
C441 C442 1.371 . S
C441 C443 1.365 . S
C442 C441 1.371 . S
C442 C452 1.386 . S
C442 H460 0.931 . S
C443 C441 1.365 . S
C443 C444 1.409 . S
C443 H461 0.929 . S
C444 C443 1.409 . S
C444 C445 1.380 . S
C444 H462 0.930 . S
C445 C444 1.380 . S
C445 C452 1.357 . S
C446 C437 1.511 . S
C446 C447 1.341 . S
C446 C448 1.371 . S
C447 C446 1.341 . S
C447 C451 1.394 . S
C447 H463 0.930 . S
C448 C446 1.371 . S
C448 C449 1.392 . S
C448 H464 0.931 . S
C449 C448 1.392 . S
C449 C450 1.331 . S
C449 H467 0.932 1_556 S
C450 C449 1.331 . S
C450 C451 1.336 . S
C451 C447 1.394 . S
C451 C450 1.336 . S
C451 H466 0.929 . S
C452 C442 1.386 . S
C452 C445 1.357 . S
C452 H465 0.912 1_556 S
H453 C429 0.931 . S
H454 C431 0.930 . S
H455 C433 0.929 . S
H456 C434 0.931 . S
H457 C436 0.930 . S
H458 C440 0.931 . S
H459 C438 0.931 . S
H460 C442 0.931 . S
H461 C443 0.929 . S
H462 C444 0.930 . S
H463 C447 0.930 . S
H464 C448 0.931 . S
H465 C452 0.912 1_554 S
H466 C451 0.929 . S
H467 C449 0.932 1_554 S
C468 C469 1.386 . S
C468 C470 1.397 . S
C468 H492 0.931 . S
C469 C468 1.386 . S
C469 C473 1.397 . S
C470 C468 1.397 . S
C470 C471 1.384 . S
C470 H493 0.930 . S
C471 C470 1.384 . S
C471 C472 1.377 . S
C471 C474 1.481 . S
C472 C471 1.377 . S
C472 C473 1.389 . S
C472 H494 0.929 . S
C473 C469 1.397 . S
C473 C472 1.389 . S
C473 H495 0.931 . S
C474 C471 1.481 . S
C474 C475 1.387 . S
C474 C479 1.390 . S
C475 C474 1.387 . S
C475 C476 1.401 . S
C475 H496 0.930 . S
C476 C475 1.401 . S
C476 C477 1.376 . S
C476 C485 1.511 . S
C477 C476 1.376 . S
C477 C478 1.392 . S
C477 H498 0.931 . S
C478 C477 1.392 . S
C478 C479 1.361 . S
C478 C480 1.500 . S
C479 C474 1.390 . S
C479 C478 1.361 . S
C479 H497 0.931 . S
C480 C478 1.500 . S
C480 C481 1.371 . S
C480 C482 1.365 . S
C481 C480 1.371 . S
C481 C491 1.386 . S
C481 H499 0.931 . S
C482 C480 1.365 . S
C482 C483 1.409 . S
C482 H500 0.929 . S
C483 C482 1.409 . S
C483 C484 1.380 . S
C483 H501 0.930 . S
C484 C483 1.380 . S
C484 C491 1.357 . S
C485 C476 1.511 . S
C485 C486 1.341 . S
C485 C487 1.371 . S
C486 C485 1.341 . S
C486 C490 1.394 . S
C486 H502 0.930 . S
C487 C485 1.371 . S
C487 C488 1.392 . S
C487 H503 0.931 . S
C488 C487 1.392 . S
C488 C489 1.331 . S
C488 H506 0.932 1_554 S
C489 C488 1.331 . S
C489 C490 1.336 . S
C490 C486 1.394 . S
C490 C489 1.336 . S
C490 H505 0.929 . S
C491 C481 1.386 . S
C491 C484 1.357 . S
C491 H504 0.928 . S
H492 C468 0.931 . S
H493 C470 0.930 . S
H494 C472 0.929 . S
H495 C473 0.931 . S
H496 C475 0.930 . S
H497 C479 0.931 . S
H498 C477 0.931 . S
H499 C481 0.931 . S
H500 C482 0.929 . S
H501 C483 0.930 . S
H502 C486 0.930 . S
H503 C487 0.931 . S
H504 C491 0.928 . S
H505 C490 0.929 . S
H506 C488 0.932 1_556 S
C507 C508 1.386 . S
C507 C509 1.397 . S
C507 H531 0.931 . S
C508 C507 1.386 . S
C508 C512 1.397 . S
C509 C507 1.397 . S
C509 C510 1.384 . S
C509 H532 0.930 . S
C510 C509 1.384 . S
C510 C511 1.377 . S
C510 C513 1.481 . S
C511 C510 1.377 . S
C511 C512 1.389 . S
C511 H533 0.929 . S
C512 C508 1.397 . S
C512 C511 1.389 . S
C512 H534 0.931 . S
C513 C510 1.481 . S
C513 C514 1.387 . S
C513 C518 1.390 . S
C514 C513 1.387 . S
C514 C515 1.401 . S
C514 H535 0.930 . S
C515 C514 1.401 . S
C515 C516 1.376 . S
C515 C524 1.511 . S
C516 C515 1.376 . S
C516 C517 1.392 . S
C516 H537 0.931 . S
C517 C516 1.392 . S
C517 C518 1.361 . S
C517 C519 1.500 . S
C518 C513 1.390 . S
C518 C517 1.361 . S
C518 H536 0.931 . S
C519 C517 1.500 . S
C519 C520 1.371 . S
C519 C521 1.365 . S
C520 C519 1.371 . S
C520 C530 1.386 . S
C520 H538 0.931 . S
C521 C519 1.365 . S
C521 C522 1.409 . S
C521 H539 0.929 . S
C522 C521 1.409 . S
C522 C523 1.380 . S
C522 H540 0.930 . S
C523 C522 1.380 . S
C523 C530 1.357 . S
C524 C515 1.511 . S
C524 C525 1.341 . S
C524 C526 1.371 . S
C525 C524 1.341 . S
C525 C529 1.394 . S
C525 H541 0.930 . S
C526 C524 1.371 . S
C526 C527 1.392 . S
C526 H542 0.931 . S
C527 C526 1.392 . S
C527 C528 1.331 . S
C527 H545 0.932 . S
C528 C527 1.331 . S
C528 C529 1.336 . S
C529 C525 1.394 . S
C529 C528 1.336 . S
C529 H544 0.929 . S
C530 C520 1.386 . S
C530 C523 1.357 . S
C530 H543 0.928 1_554 S
H531 C507 0.931 . S
H532 C509 0.930 . S
H533 C511 0.929 . S
H534 C512 0.931 . S
H535 C514 0.930 . S
H536 C518 0.931 . S
H537 C516 0.931 . S
H538 C520 0.931 . S
H539 C521 0.929 . S
H540 C522 0.930 . S
H541 C525 0.930 . S
H542 C526 0.931 . S
H543 C530 0.928 1_556 S
H544 C529 0.929 . S
H545 C527 0.932 . S
C546 C547 1.386 . S
C546 C548 1.397 . S
C546 H570 0.931 . S
C547 C546 1.386 . S
C547 C551 1.397 . S
C548 C546 1.397 . S
C548 C549 1.384 . S
C548 H571 0.930 . S
C549 C548 1.384 . S
C549 C550 1.377 . S
C549 C552 1.481 . S
C550 C549 1.377 . S
C550 C551 1.389 . S
C550 H572 0.929 . S
C551 C547 1.397 . S
C551 C550 1.389 . S
C551 H573 0.931 . S
C552 C549 1.481 . S
C552 C553 1.387 . S
C552 C557 1.390 . S
C553 C552 1.387 . S
C553 C554 1.401 . S
C553 H574 0.930 . S
C554 C553 1.401 . S
C554 C555 1.376 . S
C554 C563 1.511 . S
C555 C554 1.376 . S
C555 C556 1.392 . S
C555 H576 0.931 . S
C556 C555 1.392 . S
C556 C557 1.361 . S
C556 C558 1.500 . S
C557 C552 1.390 . S
C557 C556 1.361 . S
C557 H575 0.931 . S
C558 C556 1.500 . S
C558 C559 1.371 . S
C558 C560 1.365 . S
C559 C558 1.371 . S
C559 C569 1.386 . S
C559 H577 0.931 . S
C560 C558 1.365 . S
C560 C561 1.409 . S
C560 H578 0.929 . S
C561 C560 1.409 . S
C561 C562 1.380 . S
C561 H579 0.930 . S
C562 C561 1.380 . S
C562 C569 1.357 . S
C563 C554 1.511 . S
C563 C564 1.341 . S
C563 C565 1.371 . S
C564 C563 1.341 . S
C564 C568 1.394 . S
C564 H580 0.930 . S
C565 C563 1.371 . S
C565 C566 1.392 . S
C565 H581 0.931 . S
C566 C565 1.392 . S
C566 C567 1.331 . S
C566 H584 0.932 1_554 S
C567 C566 1.331 . S
C567 C568 1.336 . S
C568 C564 1.394 . S
C568 C567 1.336 . S
C568 H583 0.929 . S
C569 C559 1.386 . S
C569 C562 1.357 . S
C569 H582 0.928 . S
H570 C546 0.931 . S
H571 C548 0.930 . S
H572 C550 0.929 . S
H573 C551 0.931 . S
H574 C553 0.930 . S
H575 C557 0.931 . S
H576 C555 0.931 . S
H577 C559 0.931 . S
H578 C560 0.929 . S
H579 C561 0.930 . S
H580 C564 0.930 . S
H581 C565 0.931 . S
H582 C569 0.928 . S
H583 C568 0.929 . S
H584 C566 0.932 1_556 S
C585 C586 1.386 . S
C585 C587 1.397 . S
C585 H609 0.931 . S
C586 C585 1.386 . S
C586 C590 1.397 . S
C587 C585 1.397 . S
C587 C588 1.384 . S
C587 H610 0.930 . S
C588 C587 1.384 . S
C588 C589 1.377 . S
C588 C591 1.481 . S
C589 C588 1.377 . S
C589 C590 1.389 . S
C589 H611 0.929 . S
C590 C586 1.397 . S
C590 C589 1.389 . S
C590 H612 0.931 . S
C591 C588 1.481 . S
C591 C592 1.387 . S
C591 C596 1.390 . S
C592 C591 1.387 . S
C592 C593 1.401 . S
C592 H613 0.930 . S
C593 C592 1.401 . S
C593 C594 1.376 . S
C593 C602 1.511 . S
C594 C593 1.376 . S
C594 C595 1.392 . S
C594 H615 0.931 . S
C595 C594 1.392 . S
C595 C596 1.361 . S
C595 C597 1.500 . S
C596 C591 1.390 . S
C596 C595 1.361 . S
C596 H614 0.931 . S
C597 C595 1.500 . S
C597 C598 1.371 . S
C597 C599 1.365 . S
C598 C597 1.371 . S
C598 C608 1.386 . S
C598 H616 0.931 . S
C599 C597 1.365 . S
C599 C600 1.409 . S
C599 H617 0.929 . S
C600 C599 1.409 . S
C600 C601 1.380 . S
C600 H618 0.930 . S
C601 C600 1.380 . S
C601 C608 1.357 . S
C602 C593 1.511 . S
C602 C603 1.341 . S
C602 C604 1.371 . S
C603 C602 1.341 . S
C603 C607 1.394 . S
C603 H619 0.930 . S
C604 C602 1.371 . S
C604 C605 1.392 . S
C604 H620 0.931 . S
C605 C604 1.392 . S
C605 C606 1.331 . S
C605 H623 0.932 . S
C606 C605 1.331 . S
C606 C607 1.336 . S
C607 C603 1.394 . S
C607 C606 1.336 . S
C607 H622 0.929 . S
C608 C598 1.386 . S
C608 C601 1.357 . S
C608 H621 0.928 . S
H609 C585 0.931 . S
H610 C587 0.930 . S
H611 C589 0.929 . S
H612 C590 0.931 . S
H613 C592 0.930 . S
H614 C596 0.931 . S
H615 C594 0.931 . S
H616 C598 0.931 . S
H617 C599 0.929 . S
H618 C600 0.930 . S
H619 C603 0.930 . S
H620 C604 0.931 . S
H621 C608 0.928 . S
H622 C607 0.929 . S
H623 C605 0.932 . S
C624 C625 1.386 . S
C624 C626 1.397 . S
C624 H648 0.931 1_455 S
C625 C624 1.386 . S
C625 C629 1.397 . S
C626 C624 1.397 . S
C626 C627 1.384 . S
C626 H649 0.930 . S
C627 C626 1.384 . S
C627 C628 1.377 . S
C627 C630 1.481 . S
C628 C627 1.377 . S
C628 C629 1.389 . S
C628 H650 0.929 . S
C629 C625 1.397 . S
C629 C628 1.389 . S
C629 H651 0.931 . S
C630 C627 1.481 . S
C630 C631 1.387 . S
C630 C635 1.390 . S
C631 C630 1.387 . S
C631 C632 1.401 . S
C631 H652 0.930 . S
C632 C631 1.401 . S
C632 C633 1.376 . S
C632 C641 1.511 . S
C633 C632 1.376 . S
C633 C634 1.392 . S
C633 H654 0.931 . S
C634 C633 1.392 . S
C634 C635 1.361 . S
C634 C636 1.500 . S
C635 C630 1.390 . S
C635 C634 1.361 . S
C635 H653 0.931 . S
C636 C634 1.500 . S
C636 C637 1.371 . S
C636 C638 1.365 . S
C637 C636 1.371 . S
C637 C647 1.386 . S
C637 H655 0.931 . S
C638 C636 1.365 . S
C638 C639 1.409 . S
C638 H656 0.929 . S
C639 C638 1.409 . S
C639 C640 1.380 . S
C639 H657 0.930 . S
C640 C639 1.380 . S
C640 C647 1.357 . S
C641 C632 1.511 . S
C641 C642 1.341 . S
C641 C643 1.371 . S
C642 C641 1.341 . S
C642 C646 1.394 . S
C642 H658 0.930 . S
C643 C641 1.371 . S
C643 C644 1.392 . S
C643 H659 0.931 . S
C644 C643 1.392 . S
C644 C645 1.331 . S
C644 H662 0.932 . S
C645 C644 1.331 . S
C645 C646 1.336 . S
C646 C642 1.394 . S
C646 C645 1.336 . S
C646 H661 0.929 . S
C647 C637 1.386 . S
C647 C640 1.357 . S
C647 H660 0.928 . S
H648 C624 0.931 1_655 S
H649 C626 0.930 . S
H650 C628 0.929 . S
H651 C629 0.931 . S
H652 C631 0.930 . S
H653 C635 0.931 . S
H654 C633 0.931 . S
H655 C637 0.931 . S
H656 C638 0.929 . S
H657 C639 0.930 . S
H658 C642 0.930 . S
H659 C643 0.931 . S
H660 C647 0.928 . S
H661 C646 0.929 . S
H662 C644 0.932 . S
C663 C664 1.386 . S
C663 C665 1.397 . S
C663 H687 0.931 . S
C664 C663 1.386 . S
C664 C668 1.397 . S
C665 C663 1.397 . S
C665 C666 1.384 . S
C665 H688 0.930 . S
C666 C665 1.384 . S
C666 C667 1.377 . S
C666 C669 1.481 . S
C667 C666 1.377 . S
C667 C668 1.389 . S
C667 H689 0.929 . S
C668 C664 1.397 . S
C668 C667 1.389 . S
C668 H690 0.931 . S
C669 C666 1.481 . S
C669 C670 1.387 . S
C669 C674 1.390 . S
C670 C669 1.387 . S
C670 C671 1.401 . S
C670 H691 0.930 . S
C671 C670 1.401 . S
C671 C672 1.376 . S
C671 C680 1.511 . S
C672 C671 1.376 . S
C672 C673 1.392 . S
C672 H693 0.931 . S
C673 C672 1.392 . S
C673 C674 1.361 . S
C673 C675 1.500 . S
C674 C669 1.390 . S
C674 C673 1.361 . S
C674 H692 0.931 . S
C675 C673 1.500 . S
C675 C676 1.371 . S
C675 C677 1.365 . S
C676 C675 1.371 . S
C676 C686 1.386 . S
C676 H694 0.931 . S
C677 C675 1.365 . S
C677 C678 1.409 . S
C677 H695 0.929 . S
C678 C677 1.409 . S
C678 C679 1.380 . S
C678 H696 0.930 . S
C679 C678 1.380 . S
C679 C686 1.357 . S
C680 C671 1.511 . S
C680 C681 1.341 . S
C680 C682 1.371 . S
C681 C680 1.341 . S
C681 C685 1.394 . S
C681 H697 0.930 . S
C682 C680 1.371 . S
C682 C683 1.392 . S
C682 H698 0.931 . S
C683 C682 1.392 . S
C683 C684 1.331 . S
C683 H701 0.932 . S
C684 C683 1.331 . S
C684 C685 1.336 . S
C685 C681 1.394 . S
C685 C684 1.336 . S
C685 H700 0.929 . S
C686 C676 1.386 . S
C686 C679 1.357 . S
C686 H699 0.928 . S
H687 C663 0.931 . S
H688 C665 0.930 . S
H689 C667 0.929 . S
H690 C668 0.931 . S
H691 C670 0.930 . S
H692 C674 0.931 . S
H693 C672 0.931 . S
H694 C676 0.931 . S
H695 C677 0.929 . S
H696 C678 0.930 . S
H697 C681 0.930 . S
H698 C682 0.931 . S
H699 C686 0.928 . S
H700 C685 0.929 . S
H701 C683 0.932 . S
Eu702 N733 2.657 . S
Eu702 N740 2.609 . S
Eu702 O746 2.558 . S
Eu702 O747 2.612 1_565 S
Eu702 O749 2.339 1_565 S
Eu702 O750 2.563 1_565 S
Eu702 O751 2.419 . S
Eu702 O753 2.380 1_556 S
Eu702 O754 2.432 . S
Eu702 C766 2.848 . S
C703 C706 1.429 . S
C703 C707 1.411 . S
C703 N710 1.377 . S
C704 C706 1.420 . S
C704 C708 1.423 . S
C704 C716 1.392 . S
C705 C707 1.420 . S
C705 C708 1.351 . S
C705 H728 0.931 . S
C706 C703 1.429 . S
C706 C704 1.420 . S
C706 N714 1.362 . S
C707 C703 1.411 . S
C707 C705 1.420 . S
C707 C712 1.395 . S
C708 C704 1.423 . S
C708 C705 1.351 . S
C708 H720 0.930 . S
C709 C711 1.400 . S
C709 C712 1.386 . S
C709 H721 0.930 . S
N710 C703 1.377 . S
N710 C711 1.321 . S
N710 Eu713 2.609 . S
C711 C709 1.400 . S
C711 N710 1.321 . S
C711 H718 0.930 . S
C712 C707 1.395 . S
C712 C709 1.386 . S
C712 H731 0.930 . S
Eu713 N710 2.609 . S
Eu713 N714 2.657 . S
Eu713 O747 2.380 1_554 S
Eu713 O748 2.432 . S
Eu713 O752 2.558 . S
Eu713 O753 2.612 1_545 S
Eu713 O755 2.339 1_545 S
Eu713 O756 2.563 1_545 S
Eu713 O757 2.419 . S
Eu713 C777 2.848 . S
N714 C706 1.362 . S
N714 Eu713 2.657 . S
N714 C715 1.334 . S
C715 N714 1.334 . S
C715 C717 1.413 . S
C715 H722 0.929 . S
C716 C704 1.392 . S
C716 C717 1.367 . S
C716 H724 0.930 . S
C717 C715 1.413 . S
C717 C716 1.367 . S
C717 H719 0.930 . S
H718 C711 0.930 . S
H719 C717 0.930 . S
H720 C708 0.930 . S
H721 C709 0.930 . S
H722 C715 0.929 . S
H723 C737 0.930 . S
H724 C716 0.930 . S
H725 C743 0.930 . S
H726 C734 0.929 . S
H727 C741 0.930 . S
H728 C705 0.931 . S
H729 C735 0.930 . S
H730 C768 0.930 . S
H731 C712 0.930 . S
H732 C767 0.931 . S
N733 Eu702 2.657 . S
N733 C734 1.334 . S
N733 C738 1.362 . S
C734 H726 0.929 . S
C734 N733 1.334 . S
C734 C737 1.413 . S
C735 H729 0.930 . S
C735 C736 1.392 . S
C735 C737 1.367 . S
C736 C735 1.392 . S
C736 C738 1.420 . S
C736 C768 1.423 . S
C737 H723 0.930 . S
C737 C734 1.413 . S
C737 C735 1.367 . S
C738 N733 1.362 . S
C738 C736 1.420 . S
C738 C742 1.429 . S
H739 C744 0.930 . S
N740 Eu702 2.609 . S
N740 C742 1.377 . S
N740 C743 1.321 . S
C741 H727 0.930 . S
C741 C743 1.400 . S
C741 C744 1.386 . S
C742 C738 1.429 . S
C742 N740 1.377 . S
C742 C745 1.411 . S
C743 H725 0.930 . S
C743 N740 1.321 . S
C743 C741 1.400 . S
C744 H739 0.930 . S
C744 C741 1.386 . S
C744 C745 1.395 . S
C745 C742 1.411 . S
C745 C744 1.395 . S
C745 C767 1.420 . S
O746 Eu702 2.558 . S
O746 C766 1.257 . S
O747 Eu702 2.612 1_545 S
O747 Eu713 2.380 1_556 S
O747 C758 1.276 . S
O748 Eu713 2.432 . S
O748 C765 1.264 1_554 S
O749 Eu702 2.339 1_545 S
O749 C765 1.254 . S
O750 Eu702 2.563 1_545 S
O750 C758 1.235 . S
O751 Eu702 2.419 . S
O751 C766 1.249 . S
O752 Eu713 2.558 . S
O752 C777 1.257 . S
O753 Eu702 2.380 1_554 S
O753 Eu713 2.612 1_565 S
O753 C769 1.276 . S
O754 Eu702 2.432 . S
O754 C776 1.264 1_556 S
O755 Eu713 2.339 1_565 S
O755 C776 1.254 . S
O756 Eu713 2.563 1_565 S
O756 C769 1.235 . S
O757 Eu713 2.419 . S
O757 C777 1.249 . S
C758 O747 1.276 . S
C758 O750 1.235 . S
C759 C761 1.393 1_565 S
C759 C763 1.395 . S
C759 C766 1.492 . S
C760 C761 1.392 . S
C760 C762 1.386 1_545 S
C761 C759 1.393 1_545 S
C761 C760 1.392 . S
C761 H778 0.930 . S
C762 C760 1.386 1_565 S
C762 C764 1.395 . S
C762 H779 0.930 . S
C763 C759 1.395 . S
C763 C764 1.379 . S
C763 H780 0.930 . S
C764 C762 1.395 . S
C764 C763 1.379 . S
C764 H781 0.930 . S
C765 O748 1.264 1_556 S
C765 O749 1.254 . S
C766 Eu702 2.848 . S
C766 O746 1.257 . S
C766 O751 1.249 . S
C766 C759 1.492 . S
C767 H732 0.931 . S
C767 C745 1.420 . S
C767 C768 1.351 . S
C768 H730 0.930 . S
C768 C736 1.423 . S
C768 C767 1.351 . S
C769 O753 1.276 . S
C769 O756 1.235 . S
C770 C771 1.393 1_545 S
C770 C774 1.395 . S
C770 C777 1.492 . S
C771 C770 1.393 1_565 S
C771 C772 1.392 . S
C771 H782 0.930 . S
C772 C771 1.392 . S
C772 C773 1.386 1_565 S
C773 C772 1.386 1_545 S
C773 C775 1.395 . S
C773 H783 0.930 . S
C774 C770 1.395 . S
C774 C775 1.379 . S
C774 H784 0.930 . S
C775 C773 1.395 . S
C775 C774 1.379 . S
C775 H785 0.930 . S
C776 O754 1.264 1_554 S
C776 O755 1.254 . S
C777 Eu713 2.848 . S
C777 O752 1.257 . S
C777 O757 1.249 . S
C777 C770 1.492 . S
H778 C761 0.930 . S
H779 C762 0.930 . S
H780 C763 0.930 . S
H781 C764 0.930 . S
H782 C771 0.930 . S
H783 C773 0.930 . S
H784 C774 0.930 . S
H785 C775 0.930 . S
Eu786 N817 2.657 . S
Eu786 N824 2.609 . S
Eu786 O830 2.558 . S
Eu786 O831 2.612 1_455 S
Eu786 O833 2.339 1_455 S
Eu786 O834 2.563 1_455 S
Eu786 O835 2.419 . S
Eu786 O837 2.380 1_556 S
Eu786 O838 2.432 . S
Eu786 C850 2.848 . S
C787 C790 1.429 . S
C787 C791 1.411 . S
C787 N794 1.377 . S
C788 C790 1.420 . S
C788 C792 1.423 . S
C788 C800 1.392 . S
C789 C791 1.420 . S
C789 C792 1.351 . S
C789 H812 0.931 . S
C790 C787 1.429 . S
C790 C788 1.420 . S
C790 N798 1.362 . S
C791 C787 1.411 . S
C791 C789 1.420 . S
C791 C796 1.395 . S
C792 C788 1.423 . S
C792 C789 1.351 . S
C792 H804 0.930 . S
C793 C795 1.400 . S
C793 C796 1.386 . S
C793 H805 0.930 . S
N794 C787 1.377 . S
N794 C795 1.321 . S
N794 Eu797 2.609 . S
C795 C793 1.400 . S
C795 N794 1.321 . S
C795 H802 0.930 . S
C796 C791 1.395 . S
C796 C793 1.386 . S
C796 H815 0.930 . S
Eu797 N794 2.609 . S
Eu797 N798 2.657 . S
Eu797 O831 2.380 1_554 S
Eu797 O832 2.432 . S
Eu797 O836 2.558 . S
Eu797 O837 2.612 1_655 S
Eu797 O839 2.339 1_655 S
Eu797 O840 2.563 1_655 S
Eu797 O841 2.419 . S
Eu797 C861 2.848 . S
N798 C790 1.362 . S
N798 Eu797 2.657 . S
N798 C799 1.334 . S
C799 N798 1.334 . S
C799 C801 1.413 . S
C799 H806 0.929 . S
C800 C788 1.392 . S
C800 C801 1.367 . S
C800 H808 0.930 . S
C801 C799 1.413 . S
C801 C800 1.367 . S
C801 H803 0.930 . S
H802 C795 0.930 . S
H803 C801 0.930 . S
H804 C792 0.930 . S
H805 C793 0.930 . S
H806 C799 0.929 . S
H807 C821 0.930 . S
H808 C800 0.930 . S
H809 C827 0.930 . S
H810 C818 0.929 . S
H811 C825 0.930 . S
H812 C789 0.931 . S
H813 C819 0.930 . S
H814 C852 0.930 . S
H815 C796 0.930 . S
H816 C851 0.931 . S
N817 Eu786 2.657 . S
N817 C818 1.334 . S
N817 C822 1.362 . S
C818 H810 0.929 . S
C818 N817 1.334 . S
C818 C821 1.413 . S
C819 H813 0.930 . S
C819 C820 1.392 . S
C819 C821 1.367 . S
C820 C819 1.392 . S
C820 C822 1.420 . S
C820 C852 1.423 . S
C821 H807 0.930 . S
C821 C818 1.413 . S
C821 C819 1.367 . S
C822 N817 1.362 . S
C822 C820 1.420 . S
C822 C826 1.429 . S
H823 C828 0.930 . S
N824 Eu786 2.609 . S
N824 C826 1.377 . S
N824 C827 1.321 . S
C825 H811 0.930 . S
C825 C827 1.400 . S
C825 C828 1.386 . S
C826 C822 1.429 . S
C826 N824 1.377 . S
C826 C829 1.411 . S
C827 H809 0.930 . S
C827 N824 1.321 . S
C827 C825 1.400 . S
C828 H823 0.930 . S
C828 C825 1.386 . S
C828 C829 1.395 . S
C829 C826 1.411 . S
C829 C828 1.395 . S
C829 C851 1.420 . S
O830 Eu786 2.558 . S
O830 C850 1.257 . S
O831 Eu786 2.612 1_655 S
O831 Eu797 2.380 1_556 S
O831 C842 1.276 . S
O832 Eu797 2.432 . S
O832 C849 1.264 1_554 S
O833 Eu786 2.339 1_655 S
O833 C849 1.254 . S
O834 Eu786 2.563 1_655 S
O834 C842 1.235 . S
O835 Eu786 2.419 . S
O835 C850 1.249 . S
O836 Eu797 2.558 . S
O836 C861 1.257 . S
O837 Eu786 2.380 1_554 S
O837 Eu797 2.612 1_455 S
O837 C853 1.276 . S
O838 Eu786 2.432 . S
O838 C860 1.264 1_556 S
O839 Eu797 2.339 1_455 S
O839 C860 1.254 . S
O840 Eu797 2.563 1_455 S
O840 C853 1.235 . S
O841 Eu797 2.419 . S
O841 C861 1.249 . S
C842 O831 1.276 . S
C842 O834 1.235 . S
C843 C845 1.393 1_455 S
C843 C847 1.395 . S
C843 C850 1.492 . S
C844 C845 1.392 . S
C844 C846 1.386 1_655 S
C845 C843 1.393 1_655 S
C845 C844 1.392 . S
C845 H862 0.930 . S
C846 C844 1.386 1_455 S
C846 C848 1.395 . S
C846 H863 0.930 . S
C847 C843 1.395 . S
C847 C848 1.379 . S
C847 H864 0.930 . S
C848 C846 1.395 . S
C848 C847 1.379 . S
C848 H865 0.930 . S
C849 O832 1.264 1_556 S
C849 O833 1.254 . S
C850 Eu786 2.848 . S
C850 O830 1.257 . S
C850 O835 1.249 . S
C850 C843 1.492 . S
C851 H816 0.931 . S
C851 C829 1.420 . S
C851 C852 1.351 . S
C852 H814 0.930 . S
C852 C820 1.423 . S
C852 C851 1.351 . S
C853 O837 1.276 . S
C853 O840 1.235 . S
C854 C855 1.393 1_655 S
C854 C858 1.395 . S
C854 C861 1.492 . S
C855 C854 1.393 1_455 S
C855 C856 1.392 . S
C855 H866 0.930 . S
C856 C855 1.392 . S
C856 C857 1.386 1_455 S
C857 C856 1.386 1_655 S
C857 C859 1.395 . S
C857 H867 0.930 . S
C858 C854 1.395 . S
C858 C859 1.379 . S
C858 H868 0.930 . S
C859 C857 1.395 . S
C859 C858 1.379 . S
C859 H869 0.930 . S
C860 O838 1.264 1_554 S
C860 O839 1.254 . S
C861 Eu797 2.848 . S
C861 O836 1.257 . S
C861 O841 1.249 . S
C861 C854 1.492 . S
H862 C845 0.930 . S
H863 C846 0.930 . S
H864 C847 0.930 . S
H865 C848 0.930 . S
H866 C855 0.930 . S
H867 C857 0.930 . S
H868 C858 0.930 . S
H869 C859 0.930 . S
Eu870 N901 2.657 . S
Eu870 N908 2.609 . S
Eu870 O914 2.558 . S
Eu870 O915 2.612 . S
Eu870 O917 2.339 . S
Eu870 O918 2.563 . S
Eu870 O919 2.419 . S
Eu870 O921 2.380 1_554 S
Eu870 O922 2.432 . S
Eu870 C934 2.848 . S
C871 C874 1.429 . S
C871 C875 1.411 . S
C871 N878 1.377 . S
C872 C874 1.420 . S
C872 C876 1.423 . S
C872 C884 1.392 . S
C873 C875 1.420 . S
C873 C876 1.351 . S
C873 H896 0.931 . S
C874 C871 1.429 . S
C874 C872 1.420 . S
C874 N882 1.362 . S
C875 C871 1.411 . S
C875 C873 1.420 . S
C875 C880 1.395 . S
C876 C872 1.423 . S
C876 C873 1.351 . S
C876 H888 0.930 . S
C877 C879 1.400 . S
C877 C880 1.386 . S
C877 H889 0.930 . S
N878 C871 1.377 . S
N878 C879 1.321 . S
N878 Eu881 2.609 . S
C879 C877 1.400 . S
C879 N878 1.321 . S
C879 H886 0.930 . S
C880 C875 1.395 . S
C880 C877 1.386 . S
C880 H899 0.930 . S
Eu881 N878 2.609 . S
Eu881 N882 2.657 . S
Eu881 O915 2.380 1_556 S
Eu881 O916 2.432 . S
Eu881 O920 2.558 . S
Eu881 O921 2.612 . S
Eu881 O923 2.339 . S
Eu881 O924 2.563 . S
Eu881 O925 2.419 . S
Eu881 C945 2.848 . S
N882 C874 1.362 . S
N882 Eu881 2.657 . S
N882 C883 1.334 . S
C883 N882 1.334 . S
C883 C885 1.413 . S
C883 H890 0.929 . S
C884 C872 1.392 . S
C884 C885 1.367 . S
C884 H892 0.930 . S
C885 C883 1.413 . S
C885 C884 1.367 . S
C885 H887 0.930 . S
H886 C879 0.930 . S
H887 C885 0.930 . S
H888 C876 0.930 . S
H889 C877 0.930 . S
H890 C883 0.929 . S
H891 C905 0.930 . S
H892 C884 0.930 . S
H893 C911 0.930 . S
H894 C902 0.929 . S
H895 C909 0.930 . S
H896 C873 0.931 . S
H897 C903 0.930 . S
H898 C936 0.930 . S
H899 C880 0.930 . S
H900 C935 0.931 . S
N901 Eu870 2.657 . S
N901 C902 1.334 . S
N901 C906 1.362 . S
C902 H894 0.929 . S
C902 N901 1.334 . S
C902 C905 1.413 . S
C903 H897 0.930 . S
C903 C904 1.392 . S
C903 C905 1.367 . S
C904 C903 1.392 . S
C904 C906 1.420 . S
C904 C936 1.423 . S
C905 H891 0.930 . S
C905 C902 1.413 . S
C905 C903 1.367 . S
C906 N901 1.362 . S
C906 C904 1.420 . S
C906 C910 1.429 . S
H907 C912 0.930 . S
N908 Eu870 2.609 . S
N908 C910 1.377 . S
N908 C911 1.321 . S
C909 H895 0.930 . S
C909 C911 1.400 . S
C909 C912 1.386 . S
C910 C906 1.429 . S
C910 N908 1.377 . S
C910 C913 1.411 . S
C911 H893 0.930 . S
C911 N908 1.321 . S
C911 C909 1.400 . S
C912 H907 0.930 . S
C912 C909 1.386 . S
C912 C913 1.395 . S
C913 C910 1.411 . S
C913 C912 1.395 . S
C913 C935 1.420 . S
O914 Eu870 2.558 . S
O914 C934 1.257 . S
O915 Eu870 2.612 . S
O915 Eu881 2.380 1_554 S
O915 C926 1.276 . S
O916 Eu881 2.432 . S
O916 C933 1.264 1_556 S
O917 Eu870 2.339 . S
O917 C933 1.254 . S
O918 Eu870 2.563 . S
O918 C926 1.235 . S
O919 Eu870 2.419 . S
O919 C934 1.249 . S
O920 Eu881 2.558 . S
O920 C945 1.257 . S
O921 Eu870 2.380 1_556 S
O921 Eu881 2.612 . S
O921 C937 1.276 . S
O922 Eu870 2.432 . S
O922 C944 1.264 1_554 S
O923 Eu881 2.339 . S
O923 C944 1.254 . S
O924 Eu881 2.563 . S
O924 C937 1.235 . S
O925 Eu881 2.419 . S
O925 C945 1.249 . S
C926 O915 1.276 . S
C926 O918 1.235 . S
C927 C929 1.393 . S
C927 C931 1.395 . S
C927 C934 1.492 . S
C928 C929 1.392 . S
C928 C930 1.386 . S
C929 C927 1.393 . S
C929 C928 1.392 . S
C929 H946 0.930 . S
C930 C928 1.386 . S
C930 C932 1.395 . S
C930 H947 0.930 . S
C931 C927 1.395 . S
C931 C932 1.379 . S
C931 H948 0.930 . S
C932 C930 1.395 . S
C932 C931 1.379 . S
C932 H949 0.930 . S
C933 O916 1.264 1_554 S
C933 O917 1.254 . S
C934 Eu870 2.848 . S
C934 O914 1.257 . S
C934 O919 1.249 . S
C934 C927 1.492 . S
C935 H900 0.931 . S
C935 C913 1.420 . S
C935 C936 1.351 . S
C936 H898 0.930 . S
C936 C904 1.423 . S
C936 C935 1.351 . S
C937 O921 1.276 . S
C937 O924 1.235 . S
C938 C939 1.393 . S
C938 C942 1.395 . S
C938 C945 1.492 . S
C939 C938 1.393 . S
C939 C940 1.392 . S
C939 H950 0.930 . S
C940 C939 1.392 . S
C940 C941 1.386 . S
C941 C940 1.386 . S
C941 C943 1.395 . S
C941 H951 0.930 . S
C942 C938 1.395 . S
C942 C943 1.379 . S
C942 H952 0.930 . S
C943 C941 1.395 . S
C943 C942 1.379 . S
C943 H953 0.930 . S
C944 O922 1.264 1_556 S
C944 O923 1.254 . S
C945 Eu881 2.848 . S
C945 O920 1.257 . S
C945 O925 1.249 . S
C945 C938 1.492 . S
H946 C929 0.930 . S
H947 C930 0.930 . S
H948 C931 0.930 . S
H949 C932 0.930 . S
H950 C939 0.930 . S
H951 C941 0.930 . S
H952 C942 0.930 . S
H953 C943 0.930 . S
Eu954 N985 2.657 . S
Eu954 N992 2.609 . S
Eu954 O998 2.558 . S
Eu954 O999 2.612 . S
Eu954 O1001 2.339 . S
Eu954 O1002 2.563 . S
Eu954 O1003 2.419 . S
Eu954 O1005 2.380 . S
Eu954 O1006 2.432 . S
Eu954 C1018 2.848 . S
C955 C958 1.429 . S
C955 C959 1.411 . S
C955 N962 1.377 . S
C956 C958 1.420 . S
C956 C960 1.423 . S
C956 C968 1.392 . S
C957 C959 1.420 . S
C957 C960 1.351 . S
C957 H980 0.931 . S
C958 C955 1.429 . S
C958 C956 1.420 . S
C958 N966 1.362 . S
C959 C955 1.411 . S
C959 C957 1.420 . S
C959 C964 1.395 . S
C960 C956 1.423 . S
C960 C957 1.351 . S
C960 H972 0.930 . S
C961 C963 1.400 . S
C961 C964 1.386 . S
C961 H973 0.930 . S
N962 C955 1.377 . S
N962 C963 1.321 . S
N962 Eu965 2.609 . S
C963 C961 1.400 . S
C963 N962 1.321 . S
C963 H970 0.930 . S
C964 C959 1.395 . S
C964 C961 1.386 . S
C964 H983 0.930 . S
Eu965 N962 2.609 . S
Eu965 N966 2.657 . S
Eu965 O999 2.380 . S
Eu965 O1000 2.432 . S
Eu965 O1004 2.558 . S
Eu965 O1005 2.612 . S
Eu965 O1007 2.339 . S
Eu965 O1008 2.563 . S
Eu965 O1009 2.419 . S
Eu965 C1029 2.848 . S
N966 C958 1.362 . S
N966 Eu965 2.657 . S
N966 C967 1.334 . S
C967 N966 1.334 . S
C967 C969 1.413 . S
C967 H974 0.929 . S
C968 C956 1.392 . S
C968 C969 1.367 . S
C968 H976 0.930 . S
C969 C967 1.413 . S
C969 C968 1.367 . S
C969 H971 0.930 . S
H970 C963 0.930 . S
H971 C969 0.930 . S
H972 C960 0.930 . S
H973 C961 0.930 . S
H974 C967 0.929 . S
H975 C989 0.930 . S
H976 C968 0.930 . S
H977 C995 0.930 . S
H978 C986 0.929 . S
H979 C993 0.930 . S
H980 C957 0.931 . S
H981 C987 0.930 . S
H982 C1020 0.930 . S
H983 C964 0.930 . S
H984 C1019 0.931 . S
N985 Eu954 2.657 . S
N985 C986 1.334 . S
N985 C990 1.362 . S
C986 H978 0.929 . S
C986 N985 1.334 . S
C986 C989 1.413 1_455 S
C987 H981 0.930 . S
C987 C988 1.392 . S
C987 C989 1.367 . S
C988 C987 1.392 . S
C988 C990 1.420 1_655 S
C988 C1020 1.423 . S
C989 H975 0.930 . S
C989 C986 1.413 1_655 S
C989 C987 1.367 . S
C990 N985 1.362 . S
C990 C988 1.420 1_455 S
C990 C994 1.429 . S
H991 C996 0.930 . S
N992 Eu954 2.609 . S
N992 C994 1.377 . S
N992 C995 1.321 . S
C993 H979 0.930 . S
C993 C995 1.400 . S
C993 C996 1.386 . S
C994 C990 1.429 . S
C994 N992 1.377 . S
C994 C997 1.411 . S
C995 H977 0.930 . S
C995 N992 1.321 . S
C995 C993 1.400 . S
C996 H991 0.930 . S
C996 C993 1.386 . S
C996 C997 1.395 . S
C997 C994 1.411 . S
C997 C996 1.395 . S
C997 C1019 1.420 1_455 S
O998 Eu954 2.558 . S
O998 C1018 1.257 . S
O999 Eu954 2.612 . S
O999 Eu965 2.380 . S
O999 C1010 1.276 . S
O1000 Eu965 2.432 . S
O1000 C1017 1.264 . S
O1001 Eu954 2.339 . S
O1001 C1017 1.254 . S
O1002 Eu954 2.563 . S
O1002 C1010 1.235 . S
O1003 Eu954 2.419 . S
O1003 C1018 1.249 . S
O1004 Eu965 2.558 . S
O1004 C1029 1.257 . S
O1005 Eu954 2.380 . S
O1005 Eu965 2.612 . S
O1005 C1021 1.276 . S
O1006 Eu954 2.432 . S
O1006 C1028 1.264 . S
O1007 Eu965 2.339 . S
O1007 C1028 1.254 . S
O1008 Eu965 2.563 . S
O1008 C1021 1.235 . S
O1009 Eu965 2.419 . S
O1009 C1029 1.249 . S
C1010 O999 1.276 . S
C1010 O1002 1.235 . S
C1011 C1013 1.393 . S
C1011 C1015 1.395 . S
C1011 C1018 1.492 . S
C1012 C1013 1.392 . S
C1012 C1014 1.386 . S
C1013 C1011 1.393 . S
C1013 C1012 1.392 . S
C1013 H1030 0.930 . S
C1014 C1012 1.386 . S
C1014 C1016 1.395 . S
C1014 H1031 0.930 . S
C1015 C1011 1.395 . S
C1015 C1016 1.379 . S
C1015 H1032 0.930 . S
C1016 C1014 1.395 . S
C1016 C1015 1.379 . S
C1016 H1033 0.930 . S
C1017 O1000 1.264 . S
C1017 O1001 1.254 . S
C1018 Eu954 2.848 . S
C1018 O998 1.257 . S
C1018 O1003 1.249 . S
C1018 C1011 1.492 . S
C1019 H984 0.931 . S
C1019 C997 1.420 1_655 S
C1019 C1020 1.351 . S
C1020 H982 0.930 . S
C1020 C988 1.423 . S
C1020 C1019 1.351 . S
C1021 O1005 1.276 . S
C1021 O1008 1.235 . S
C1022 C1023 1.393 . S
C1022 C1026 1.395 . S
C1022 C1029 1.492 . S
C1023 C1022 1.393 . S
C1023 C1024 1.392 . S
C1023 H1034 0.930 . S
C1024 C1023 1.392 . S
C1024 C1025 1.386 . S
C1025 C1024 1.386 . S
C1025 C1027 1.395 . S
C1025 H1035 0.930 . S
C1026 C1022 1.395 . S
C1026 C1027 1.379 . S
C1026 H1036 0.930 . S
C1027 C1025 1.395 . S
C1027 C1026 1.379 . S
C1027 H1037 0.930 . S
C1028 O1006 1.264 . S
C1028 O1007 1.254 . S
C1029 Eu965 2.848 . S
C1029 O1004 1.257 . S
C1029 O1009 1.249 . S
C1029 C1022 1.492 . S
H1030 C1013 0.930 . S
H1031 C1014 0.930 . S
H1032 C1015 0.930 . S
H1033 C1016 0.930 . S
H1034 C1023 0.930 . S
H1035 C1025 0.930 . S
H1036 C1026 0.930 . S
H1037 C1027 0.930 . S
Eu1038 N1069 2.657 . S
Eu1038 N1076 2.609 . S
Eu1038 O1082 2.558 . S
Eu1038 O1083 2.612 . S
Eu1038 O1085 2.339 . S
Eu1038 O1086 2.563 . S
Eu1038 O1087 2.419 . S
Eu1038 O1089 2.380 . S
Eu1038 O1090 2.432 . S
Eu1038 C1102 2.848 . S
C1039 C1042 1.429 . S
C1039 C1043 1.411 . S
C1039 N1046 1.377 . S
C1040 C1042 1.420 . S
C1040 C1044 1.423 . S
C1040 C1052 1.392 . S
C1041 C1043 1.420 . S
C1041 C1044 1.351 . S
C1041 H1064 0.931 . S
C1042 C1039 1.429 . S
C1042 C1040 1.420 . S
C1042 N1050 1.362 . S
C1043 C1039 1.411 . S
C1043 C1041 1.420 . S
C1043 C1048 1.395 . S
C1044 C1040 1.423 . S
C1044 C1041 1.351 . S
C1044 H1056 0.930 . S
C1045 C1047 1.400 . S
C1045 C1048 1.386 . S
C1045 H1057 0.930 . S
N1046 C1039 1.377 . S
N1046 C1047 1.321 . S
N1046 Eu1049 2.609 . S
C1047 C1045 1.400 . S
C1047 N1046 1.321 . S
C1047 H1054 0.930 . S
C1048 C1043 1.395 . S
C1048 C1045 1.386 . S
C1048 H1067 0.930 . S
Eu1049 N1046 2.609 . S
Eu1049 N1050 2.657 . S
Eu1049 O1083 2.380 . S
Eu1049 O1084 2.432 . S
Eu1049 O1088 2.558 . S
Eu1049 O1089 2.612 . S
Eu1049 O1091 2.339 . S
Eu1049 O1092 2.563 . S
Eu1049 O1093 2.419 . S
Eu1049 C1113 2.848 . S
N1050 C1042 1.362 . S
N1050 Eu1049 2.657 . S
N1050 C1051 1.334 . S
C1051 N1050 1.334 . S
C1051 C1053 1.413 . S
C1051 H1058 0.929 . S
C1052 C1040 1.392 . S
C1052 C1053 1.367 . S
C1052 H1060 0.930 . S
C1053 C1051 1.413 . S
C1053 C1052 1.367 . S
C1053 H1055 0.930 . S
H1054 C1047 0.930 . S
H1055 C1053 0.930 . S
H1056 C1044 0.930 . S
H1057 C1045 0.930 . S
H1058 C1051 0.929 . S
H1059 C1073 0.930 . S
H1060 C1052 0.930 . S
H1061 C1079 0.930 . S
H1062 C1070 0.929 . S
H1063 C1077 0.930 . S
H1064 C1041 0.931 . S
H1065 C1071 0.930 . S
H1066 C1104 0.930 . S
H1067 C1048 0.930 . S
H1068 C1103 0.931 . S
N1069 Eu1038 2.657 . S
N1069 C1070 1.334 . S
N1069 C1074 1.362 . S
C1070 H1062 0.929 . S
C1070 N1069 1.334 . S
C1070 C1073 1.413 . S
C1071 H1065 0.930 . S
C1071 C1072 1.392 . S
C1071 C1073 1.367 . S
C1072 C1071 1.392 . S
C1072 C1074 1.420 . S
C1072 C1104 1.423 . S
C1073 H1059 0.930 . S
C1073 C1070 1.413 . S
C1073 C1071 1.367 . S
C1074 N1069 1.362 . S
C1074 C1072 1.420 . S
C1074 C1078 1.429 . S
H1075 C1080 0.930 . S
N1076 Eu1038 2.609 . S
N1076 C1078 1.377 . S
N1076 C1079 1.321 . S
C1077 H1063 0.930 . S
C1077 C1079 1.400 . S
C1077 C1080 1.386 . S
C1078 C1074 1.429 . S
C1078 N1076 1.377 . S
C1078 C1081 1.411 . S
C1079 H1061 0.930 . S
C1079 N1076 1.321 . S
C1079 C1077 1.400 . S
C1080 H1075 0.930 . S
C1080 C1077 1.386 . S
C1080 C1081 1.395 . S
C1081 C1078 1.411 . S
C1081 C1080 1.395 . S
C1081 C1103 1.420 . S
O1082 Eu1038 2.558 . S
O1082 C1102 1.257 . S
O1083 Eu1038 2.612 . S
O1083 Eu1049 2.380 . S
O1083 C1094 1.276 . S
O1084 Eu1049 2.432 . S
O1084 C1101 1.264 . S
O1085 Eu1038 2.339 . S
O1085 C1101 1.254 . S
O1086 Eu1038 2.563 . S
O1086 C1094 1.235 . S
O1087 Eu1038 2.419 . S
O1087 C1102 1.249 . S
O1088 Eu1049 2.558 . S
O1088 C1113 1.257 . S
O1089 Eu1038 2.380 . S
O1089 Eu1049 2.612 . S
O1089 C1105 1.276 . S
O1090 Eu1038 2.432 . S
O1090 C1112 1.264 . S
O1091 Eu1049 2.339 . S
O1091 C1112 1.254 . S
O1092 Eu1049 2.563 . S
O1092 C1105 1.235 . S
O1093 Eu1049 2.419 . S
O1093 C1113 1.249 . S
C1094 O1083 1.276 . S
C1094 O1086 1.235 . S
C1095 C1097 1.393 . S
C1095 C1099 1.395 . S
C1095 C1102 1.492 . S
C1096 C1097 1.392 . S
C1096 C1098 1.386 . S
C1097 C1095 1.393 . S
C1097 C1096 1.392 . S
C1097 H1114 0.930 . S
C1098 C1096 1.386 . S
C1098 C1100 1.395 . S
C1098 H1115 0.930 . S
C1099 C1095 1.395 . S
C1099 C1100 1.379 . S
C1099 H1116 0.930 . S
C1100 C1098 1.395 . S
C1100 C1099 1.379 . S
C1100 H1117 0.930 . S
C1101 O1084 1.264 . S
C1101 O1085 1.254 . S
C1102 Eu1038 2.848 . S
C1102 O1082 1.257 . S
C1102 O1087 1.249 . S
C1102 C1095 1.492 . S
C1103 H1068 0.931 . S
C1103 C1081 1.420 . S
C1103 C1104 1.351 . S
C1104 H1066 0.930 . S
C1104 C1072 1.423 . S
C1104 C1103 1.351 . S
C1105 O1089 1.276 . S
C1105 O1092 1.235 . S
C1106 C1107 1.393 . S
C1106 C1110 1.395 . S
C1106 C1113 1.492 . S
C1107 C1106 1.393 . S
C1107 C1108 1.392 . S
C1107 H1118 0.930 . S
C1108 C1107 1.392 . S
C1108 C1109 1.386 . S
C1109 C1108 1.386 . S
C1109 C1111 1.395 . S
C1109 H1119 0.930 . S
C1110 C1106 1.395 . S
C1110 C1111 1.379 . S
C1110 H1120 0.930 . S
C1111 C1109 1.395 . S
C1111 C1110 1.379 . S
C1111 H1121 0.930 . S
C1112 O1090 1.264 . S
C1112 O1091 1.254 . S
C1113 Eu1049 2.848 . S
C1113 O1088 1.257 . S
C1113 O1093 1.249 . S
C1113 C1106 1.492 . S
H1114 C1097 0.930 . S
H1115 C1098 0.930 . S
H1116 C1099 0.930 . S
H1117 C1100 0.930 . S
H1118 C1107 0.930 . S
H1119 C1109 0.930 . S
H1120 C1110 0.930 . S
H1121 C1111 0.930 . S
Eu1122 N1153 2.657 . S
Eu1122 N1160 2.609 . S
Eu1122 O1166 2.558 . S
Eu1122 O1167 2.612 . S
Eu1122 O1169 2.339 . S
Eu1122 O1170 2.563 . S
Eu1122 O1171 2.419 . S
Eu1122 O1173 2.380 . S
Eu1122 O1174 2.432 . S
Eu1122 C1186 2.848 . S
C1123 C1126 1.429 . S
C1123 C1127 1.411 . S
C1123 N1130 1.377 . S
C1124 C1126 1.420 1_655 S
C1124 C1128 1.423 . S
C1124 C1136 1.392 . S
C1125 C1127 1.420 1_655 S
C1125 C1128 1.351 . S
C1125 H1148 0.931 . S
C1126 C1123 1.429 . S
C1126 C1124 1.420 1_455 S
C1126 N1134 1.362 . S
C1127 C1123 1.411 . S
C1127 C1125 1.420 1_455 S
C1127 C1132 1.395 . S
C1128 C1124 1.423 . S
C1128 C1125 1.351 . S
C1128 H1140 0.930 . S
C1129 C1131 1.400 . S
C1129 C1132 1.386 . S
C1129 H1141 0.930 . S
N1130 C1123 1.377 . S
N1130 C1131 1.321 . S
N1130 Eu1133 2.609 . S
C1131 C1129 1.400 . S
C1131 N1130 1.321 . S
C1131 H1138 0.930 . S
C1132 C1127 1.395 . S
C1132 C1129 1.386 . S
C1132 H1151 0.930 . S
Eu1133 N1130 2.609 . S
Eu1133 N1134 2.657 . S
Eu1133 O1167 2.380 . S
Eu1133 O1168 2.432 . S
Eu1133 O1172 2.558 . S
Eu1133 O1173 2.612 . S
Eu1133 O1175 2.339 . S
Eu1133 O1176 2.563 . S
Eu1133 O1177 2.419 . S
Eu1133 C1197 2.848 . S
N1134 C1126 1.362 . S
N1134 Eu1133 2.657 . S
N1134 C1135 1.334 . S
C1135 N1134 1.334 . S
C1135 C1137 1.413 1_455 S
C1135 H1142 0.929 . S
C1136 C1124 1.392 . S
C1136 C1137 1.367 . S
C1136 H1144 0.930 . S
C1137 C1135 1.413 1_655 S
C1137 C1136 1.367 . S
C1137 H1139 0.930 . S
H1138 C1131 0.930 . S
H1139 C1137 0.930 . S
H1140 C1128 0.930 . S
H1141 C1129 0.930 . S
H1142 C1135 0.929 . S
H1143 C1157 0.930 . S
H1144 C1136 0.930 . S
H1145 C1163 0.930 . S
H1146 C1154 0.929 . S
H1147 C1161 0.930 . S
H1148 C1125 0.931 . S
H1149 C1155 0.930 . S
H1150 C1188 0.930 . S
H1151 C1132 0.930 . S
H1152 C1187 0.931 . S
N1153 Eu1122 2.657 . S
N1153 C1154 1.334 . S
N1153 C1158 1.362 . S
C1154 H1146 0.929 . S
C1154 N1153 1.334 . S
C1154 C1157 1.413 . S
C1155 H1149 0.930 . S
C1155 C1156 1.392 . S
C1155 C1157 1.367 . S
C1156 C1155 1.392 . S
C1156 C1158 1.420 . S
C1156 C1188 1.423 . S
C1157 H1143 0.930 . S
C1157 C1154 1.413 . S
C1157 C1155 1.367 . S
C1158 N1153 1.362 . S
C1158 C1156 1.420 . S
C1158 C1162 1.429 . S
H1159 C1164 0.930 . S
N1160 Eu1122 2.609 . S
N1160 C1162 1.377 . S
N1160 C1163 1.321 . S
C1161 H1147 0.930 . S
C1161 C1163 1.400 . S
C1161 C1164 1.386 . S
C1162 C1158 1.429 . S
C1162 N1160 1.377 . S
C1162 C1165 1.411 . S
C1163 H1145 0.930 . S
C1163 N1160 1.321 . S
C1163 C1161 1.400 . S
C1164 H1159 0.930 . S
C1164 C1161 1.386 . S
C1164 C1165 1.395 . S
C1165 C1162 1.411 . S
C1165 C1164 1.395 . S
C1165 C1187 1.420 . S
O1166 Eu1122 2.558 . S
O1166 C1186 1.257 . S
O1167 Eu1122 2.612 . S
O1167 Eu1133 2.380 . S
O1167 C1178 1.276 . S
O1168 Eu1133 2.432 . S
O1168 C1185 1.264 . S
O1169 Eu1122 2.339 . S
O1169 C1185 1.254 . S
O1170 Eu1122 2.563 . S
O1170 C1178 1.235 . S
O1171 Eu1122 2.419 . S
O1171 C1186 1.249 . S
O1172 Eu1133 2.558 . S
O1172 C1197 1.257 . S
O1173 Eu1122 2.380 . S
O1173 Eu1133 2.612 . S
O1173 C1189 1.276 . S
O1174 Eu1122 2.432 . S
O1174 C1196 1.264 . S
O1175 Eu1133 2.339 . S
O1175 C1196 1.254 . S
O1176 Eu1133 2.563 . S
O1176 C1189 1.235 . S
O1177 Eu1133 2.419 . S
O1177 C1197 1.249 . S
C1178 O1167 1.276 . S
C1178 O1170 1.235 . S
C1179 C1181 1.393 . S
C1179 C1183 1.395 . S
C1179 C1186 1.492 . S
C1180 C1181 1.392 . S
C1180 C1182 1.386 . S
C1181 C1179 1.393 . S
C1181 C1180 1.392 . S
C1181 H1198 0.930 . S
C1182 C1180 1.386 . S
C1182 C1184 1.395 . S
C1182 H1199 0.930 . S
C1183 C1179 1.395 . S
C1183 C1184 1.379 . S
C1183 H1200 0.930 . S
C1184 C1182 1.395 . S
C1184 C1183 1.379 . S
C1184 H1201 0.930 . S
C1185 O1168 1.264 . S
C1185 O1169 1.254 . S
C1186 Eu1122 2.848 . S
C1186 O1166 1.257 . S
C1186 O1171 1.249 . S
C1186 C1179 1.492 . S
C1187 H1152 0.931 . S
C1187 C1165 1.420 . S
C1187 C1188 1.351 . S
C1188 H1150 0.930 . S
C1188 C1156 1.423 . S
C1188 C1187 1.351 . S
C1189 O1173 1.276 . S
C1189 O1176 1.235 . S
C1190 C1191 1.393 . S
C1190 C1194 1.395 . S
C1190 C1197 1.492 . S
C1191 C1190 1.393 . S
C1191 C1192 1.392 . S
C1191 H1202 0.930 . S
C1192 C1191 1.392 . S
C1192 C1193 1.386 . S
C1193 C1192 1.386 . S
C1193 C1195 1.395 . S
C1193 H1203 0.930 . S
C1194 C1190 1.395 . S
C1194 C1195 1.379 . S
C1194 H1204 0.930 . S
C1195 C1193 1.395 . S
C1195 C1194 1.379 . S
C1195 H1205 0.930 . S
C1196 O1174 1.264 . S
C1196 O1175 1.254 . S
C1197 Eu1133 2.848 . S
C1197 O1172 1.257 . S
C1197 O1177 1.249 . S
C1197 C1190 1.492 . S
H1198 C1181 0.930 . S
H1199 C1182 0.930 . S
H1200 C1183 0.930 . S
H1201 C1184 0.930 . S
H1202 C1191 0.930 . S
H1203 C1193 0.930 . S
H1204 C1194 0.930 . S
H1205 C1195 0.930 . S
Eu1206 N1237 2.657 . S
Eu1206 N1244 2.609 . S
Eu1206 O1250 2.558 . S
Eu1206 O1251 2.612 . S
Eu1206 O1253 2.339 . S
Eu1206 O1254 2.563 . S
Eu1206 O1255 2.419 . S
Eu1206 O1257 2.380 . S
Eu1206 O1258 2.432 . S
Eu1206 C1270 2.848 . S
C1207 C1210 1.429 . S
C1207 C1211 1.411 . S
C1207 N1214 1.377 . S
C1208 C1210 1.420 1_455 S
C1208 C1212 1.423 . S
C1208 C1220 1.392 . S
C1209 C1211 1.420 1_455 S
C1209 C1212 1.351 . S
C1209 H1232 0.931 . S
C1210 C1207 1.429 . S
C1210 C1208 1.420 1_655 S
C1210 N1218 1.362 . S
C1211 C1207 1.411 . S
C1211 C1209 1.420 1_655 S
C1211 C1216 1.395 . S
C1212 C1208 1.423 . S
C1212 C1209 1.351 . S
C1212 H1224 0.930 . S
C1213 C1215 1.400 . S
C1213 C1216 1.386 . S
C1213 H1225 0.930 . S
N1214 C1207 1.377 . S
N1214 C1215 1.321 . S
N1214 Eu1217 2.609 . S
C1215 C1213 1.400 . S
C1215 N1214 1.321 . S
C1215 H1222 0.930 . S
C1216 C1211 1.395 . S
C1216 C1213 1.386 . S
C1216 H1235 0.930 . S
Eu1217 N1214 2.609 . S
Eu1217 N1218 2.657 . S
Eu1217 O1251 2.380 . S
Eu1217 O1252 2.432 . S
Eu1217 O1256 2.558 . S
Eu1217 O1257 2.612 . S
Eu1217 O1259 2.339 . S
Eu1217 O1260 2.563 . S
Eu1217 O1261 2.419 . S
Eu1217 C1281 2.848 . S
N1218 C1210 1.362 . S
N1218 Eu1217 2.657 . S
N1218 C1219 1.334 . S
C1219 N1218 1.334 . S
C1219 C1221 1.413 1_655 S
C1219 H1226 0.929 . S
C1220 C1208 1.392 . S
C1220 C1221 1.367 . S
C1220 H1228 0.930 . S
C1221 C1219 1.413 1_455 S
C1221 C1220 1.367 . S
C1221 H1223 0.930 . S
H1222 C1215 0.930 . S
H1223 C1221 0.930 . S
H1224 C1212 0.930 . S
H1225 C1213 0.930 . S
H1226 C1219 0.929 . S
H1227 C1241 0.930 . S
H1228 C1220 0.930 . S
H1229 C1247 0.930 . S
H1230 C1238 0.929 . S
H1231 C1245 0.930 . S
H1232 C1209 0.931 . S
H1233 C1239 0.930 . S
H1234 C1272 0.930 . S
H1235 C1216 0.930 . S
H1236 C1271 0.931 . S
N1237 Eu1206 2.657 . S
N1237 C1238 1.334 . S
N1237 C1242 1.362 . S
C1238 H1230 0.929 . S
C1238 N1237 1.334 . S
C1238 C1241 1.413 . S
C1239 H1233 0.930 . S
C1239 C1240 1.392 . S
C1239 C1241 1.367 . S
C1240 C1239 1.392 . S
C1240 C1242 1.420 . S
C1240 C1272 1.423 . S
C1241 H1227 0.930 . S
C1241 C1238 1.413 . S
C1241 C1239 1.367 . S
C1242 N1237 1.362 . S
C1242 C1240 1.420 . S
C1242 C1246 1.429 . S
H1243 C1248 0.930 . S
N1244 Eu1206 2.609 . S
N1244 C1246 1.377 . S
N1244 C1247 1.321 . S
C1245 H1231 0.930 . S
C1245 C1247 1.400 . S
C1245 C1248 1.386 . S
C1246 C1242 1.429 . S
C1246 N1244 1.377 . S
C1246 C1249 1.411 . S
C1247 H1229 0.930 . S
C1247 N1244 1.321 . S
C1247 C1245 1.400 . S
C1248 H1243 0.930 . S
C1248 C1245 1.386 . S
C1248 C1249 1.395 . S
C1249 C1246 1.411 . S
C1249 C1248 1.395 . S
C1249 C1271 1.420 . S
O1250 Eu1206 2.558 . S
O1250 C1270 1.257 . S
O1251 Eu1206 2.612 . S
O1251 Eu1217 2.380 . S
O1251 C1262 1.276 . S
O1252 Eu1217 2.432 . S
O1252 C1269 1.264 . S
O1253 Eu1206 2.339 . S
O1253 C1269 1.254 . S
O1254 Eu1206 2.563 . S
O1254 C1262 1.235 . S
O1255 Eu1206 2.419 . S
O1255 C1270 1.249 . S
O1256 Eu1217 2.558 . S
O1256 C1281 1.257 . S
O1257 Eu1206 2.380 . S
O1257 Eu1217 2.612 . S
O1257 C1273 1.276 . S
O1258 Eu1206 2.432 . S
O1258 C1280 1.264 . S
O1259 Eu1217 2.339 . S
O1259 C1280 1.254 . S
O1260 Eu1217 2.563 . S
O1260 C1273 1.235 . S
O1261 Eu1217 2.419 . S
O1261 C1281 1.249 . S
C1262 O1251 1.276 . S
C1262 O1254 1.235 . S
C1263 C1265 1.393 . S
C1263 C1267 1.395 . S
C1263 C1270 1.492 . S
C1264 C1265 1.392 . S
C1264 C1266 1.386 . S
C1265 C1263 1.393 . S
C1265 C1264 1.392 . S
C1265 H1282 0.930 . S
C1266 C1264 1.386 . S
C1266 C1268 1.395 . S
C1266 H1283 0.930 . S
C1267 C1263 1.395 . S
C1267 C1268 1.379 . S
C1267 H1284 0.930 . S
C1268 C1266 1.395 . S
C1268 C1267 1.379 . S
C1268 H1285 0.930 . S
C1269 O1252 1.264 . S
C1269 O1253 1.254 . S
C1270 Eu1206 2.848 . S
C1270 O1250 1.257 . S
C1270 O1255 1.249 . S
C1270 C1263 1.492 . S
C1271 H1236 0.931 . S
C1271 C1249 1.420 . S
C1271 C1272 1.351 . S
C1272 H1234 0.930 . S
C1272 C1240 1.423 . S
C1272 C1271 1.351 . S
C1273 O1257 1.276 . S
C1273 O1260 1.235 . S
C1274 C1275 1.393 . S
C1274 C1278 1.395 . S
C1274 C1281 1.492 . S
C1275 C1274 1.393 . S
C1275 C1276 1.392 . S
C1275 H1286 0.930 . S
C1276 C1275 1.392 . S
C1276 C1277 1.386 . S
C1277 C1276 1.386 . S
C1277 C1279 1.395 . S
C1277 H1287 0.930 . S
C1278 C1274 1.395 . S
C1278 C1279 1.379 . S
C1278 H1288 0.930 . S
C1279 C1277 1.395 . S
C1279 C1278 1.379 . S
C1279 H1289 0.930 . S
C1280 O1258 1.264 . S
C1280 O1259 1.254 . S
C1281 Eu1217 2.848 . S
C1281 O1256 1.257 . S
C1281 O1261 1.249 . S
C1281 C1274 1.492 . S
H1282 C1265 0.930 . S
H1283 C1266 0.930 . S
H1284 C1267 0.930 . S
H1285 C1268 0.930 . S
H1286 C1275 0.930 . S
H1287 C1277 0.930 . S
H1288 C1278 0.930 . S
H1289 C1279 0.930 . S
Eu1290 N1321 2.657 . S
Eu1290 N1328 2.609 . S
Eu1290 O1334 2.558 . S
Eu1290 O1335 2.612 . S
Eu1290 O1337 2.339 . S
Eu1290 O1338 2.563 . S
Eu1290 O1339 2.419 . S
Eu1290 O1341 2.380 . S
Eu1290 O1342 2.432 . S
Eu1290 C1354 2.848 . S
C1291 C1294 1.429 . S
C1291 C1295 1.411 . S
C1291 N1298 1.377 . S
C1292 C1294 1.420 . S
C1292 C1296 1.423 . S
C1292 C1304 1.392 . S
C1293 C1295 1.420 . S
C1293 C1296 1.351 . S
C1293 H1316 0.931 . S
C1294 C1291 1.429 . S
C1294 C1292 1.420 . S
C1294 N1302 1.362 . S
C1295 C1291 1.411 . S
C1295 C1293 1.420 . S
C1295 C1300 1.395 . S
C1296 C1292 1.423 . S
C1296 C1293 1.351 . S
C1296 H1308 0.930 . S
C1297 C1299 1.400 . S
C1297 C1300 1.386 . S
C1297 H1309 0.930 . S
N1298 C1291 1.377 . S
N1298 C1299 1.321 . S
N1298 Eu1301 2.609 . S
C1299 C1297 1.400 . S
C1299 N1298 1.321 . S
C1299 H1306 0.930 . S
C1300 C1295 1.395 . S
C1300 C1297 1.386 . S
C1300 H1319 0.930 . S
Eu1301 N1298 2.609 . S
Eu1301 N1302 2.657 . S
Eu1301 O1335 2.380 . S
Eu1301 O1336 2.432 . S
Eu1301 O1340 2.558 . S
Eu1301 O1341 2.612 . S
Eu1301 O1343 2.339 . S
Eu1301 O1344 2.563 . S
Eu1301 O1345 2.419 . S
Eu1301 C1365 2.848 . S
N1302 C1294 1.362 . S
N1302 Eu1301 2.657 . S
N1302 C1303 1.334 . S
C1303 N1302 1.334 . S
C1303 C1305 1.413 . S
C1303 H1310 0.929 . S
C1304 C1292 1.392 . S
C1304 C1305 1.367 . S
C1304 H1312 0.930 . S
C1305 C1303 1.413 . S
C1305 C1304 1.367 . S
C1305 H1307 0.930 . S
H1306 C1299 0.930 . S
H1307 C1305 0.930 . S
H1308 C1296 0.930 . S
H1309 C1297 0.930 . S
H1310 C1303 0.929 . S
H1311 C1325 0.930 . S
H1312 C1304 0.930 . S
H1313 C1331 0.930 . S
H1314 C1322 0.929 . S
H1315 C1329 0.930 . S
H1316 C1293 0.931 . S
H1317 C1323 0.930 . S
H1318 C1356 0.930 . S
H1319 C1300 0.930 . S
H1320 C1355 0.931 . S
N1321 Eu1290 2.657 . S
N1321 C1322 1.334 . S
N1321 C1326 1.362 . S
C1322 H1314 0.929 . S
C1322 N1321 1.334 . S
C1322 C1325 1.413 . S
C1323 H1317 0.930 . S
C1323 C1324 1.392 . S
C1323 C1325 1.367 . S
C1324 C1323 1.392 . S
C1324 C1326 1.420 . S
C1324 C1356 1.423 . S
C1325 H1311 0.930 . S
C1325 C1322 1.413 . S
C1325 C1323 1.367 . S
C1326 N1321 1.362 . S
C1326 C1324 1.420 . S
C1326 C1330 1.429 . S
H1327 C1332 0.930 . S
N1328 Eu1290 2.609 . S
N1328 C1330 1.377 . S
N1328 C1331 1.321 . S
C1329 H1315 0.930 . S
C1329 C1331 1.400 . S
C1329 C1332 1.386 . S
C1330 C1326 1.429 . S
C1330 N1328 1.377 . S
C1330 C1333 1.411 . S
C1331 H1313 0.930 . S
C1331 N1328 1.321 . S
C1331 C1329 1.400 . S
C1332 H1327 0.930 . S
C1332 C1329 1.386 . S
C1332 C1333 1.395 . S
C1333 C1330 1.411 . S
C1333 C1332 1.395 . S
C1333 C1355 1.420 . S
O1334 Eu1290 2.558 . S
O1334 C1354 1.257 . S
O1335 Eu1290 2.612 . S
O1335 Eu1301 2.380 . S
O1335 C1346 1.276 . S
O1336 Eu1301 2.432 . S
O1336 C1353 1.264 . S
O1337 Eu1290 2.339 . S
O1337 C1353 1.254 . S
O1338 Eu1290 2.563 . S
O1338 C1346 1.235 . S
O1339 Eu1290 2.419 . S
O1339 C1354 1.249 . S
O1340 Eu1301 2.558 . S
O1340 C1365 1.257 . S
O1341 Eu1290 2.380 . S
O1341 Eu1301 2.612 . S
O1341 C1357 1.276 . S
O1342 Eu1290 2.432 . S
O1342 C1364 1.264 . S
O1343 Eu1301 2.339 . S
O1343 C1364 1.254 . S
O1344 Eu1301 2.563 . S
O1344 C1357 1.235 . S
O1345 Eu1301 2.419 . S
O1345 C1365 1.249 . S
C1346 O1335 1.276 . S
C1346 O1338 1.235 . S
C1347 C1349 1.393 . S
C1347 C1351 1.395 . S
C1347 C1354 1.492 . S
C1348 C1349 1.392 . S
C1348 C1350 1.386 . S
C1349 C1347 1.393 . S
C1349 C1348 1.392 . S
C1349 H1366 0.930 . S
C1350 C1348 1.386 . S
C1350 C1352 1.395 . S
C1350 H1367 0.930 . S
C1351 C1347 1.395 . S
C1351 C1352 1.379 . S
C1351 H1368 0.930 . S
C1352 C1350 1.395 . S
C1352 C1351 1.379 . S
C1352 H1369 0.930 . S
C1353 O1336 1.264 . S
C1353 O1337 1.254 . S
C1354 Eu1290 2.848 . S
C1354 O1334 1.257 . S
C1354 O1339 1.249 . S
C1354 C1347 1.492 . S
C1355 H1320 0.931 . S
C1355 C1333 1.420 . S
C1355 C1356 1.351 . S
C1356 H1318 0.930 . S
C1356 C1324 1.423 . S
C1356 C1355 1.351 . S
C1357 O1341 1.276 . S
C1357 O1344 1.235 . S
C1358 C1359 1.393 . S
C1358 C1362 1.395 . S
C1358 C1365 1.492 . S
C1359 C1358 1.393 . S
C1359 C1360 1.392 . S
C1359 H1370 0.930 . S
C1360 C1359 1.392 . S
C1360 C1361 1.386 . S
C1361 C1360 1.386 . S
C1361 C1363 1.395 . S
C1361 H1371 0.930 . S
C1362 C1358 1.395 . S
C1362 C1363 1.379 . S
C1362 H1372 0.930 . S
C1363 C1361 1.395 . S
C1363 C1362 1.379 . S
C1363 H1373 0.930 . S
C1364 O1342 1.264 . S
C1364 O1343 1.254 . S
C1365 Eu1301 2.848 . S
C1365 O1340 1.257 . S
C1365 O1345 1.249 . S
C1365 C1358 1.492 . S
H1366 C1349 0.930 . S
H1367 C1350 0.930 . S
H1368 C1351 0.930 . S
H1369 C1352 0.930 . S
H1370 C1359 0.930 . S
H1371 C1361 0.930 . S
H1372 C1362 0.930 . S
H1373 C1363 0.930 . S
Eu1374 N1405 2.657 . S
Eu1374 N1412 2.609 . S
Eu1374 O1418 2.558 . S
Eu1374 O1419 2.612 . S
Eu1374 O1421 2.339 . S
Eu1374 O1422 2.563 . S
Eu1374 O1423 2.419 . S
Eu1374 O1425 2.380 . S
Eu1374 O1426 2.432 . S
Eu1374 C1438 2.848 . S
C1375 C1378 1.429 . S
C1375 C1379 1.411 . S
C1375 N1382 1.377 . S
C1376 C1378 1.420 . S
C1376 C1380 1.423 . S
C1376 C1388 1.392 . S
C1377 C1379 1.420 . S
C1377 C1380 1.351 . S
C1377 H1400 0.931 . S
C1378 C1375 1.429 . S
C1378 C1376 1.420 . S
C1378 N1386 1.362 . S
C1379 C1375 1.411 . S
C1379 C1377 1.420 . S
C1379 C1384 1.395 . S
C1380 C1376 1.423 . S
C1380 C1377 1.351 . S
C1380 H1392 0.930 . S
C1381 C1383 1.400 . S
C1381 C1384 1.386 . S
C1381 H1393 0.930 . S
N1382 C1375 1.377 . S
N1382 C1383 1.321 . S
N1382 Eu1385 2.609 . S
C1383 C1381 1.400 . S
C1383 N1382 1.321 . S
C1383 H1390 0.930 . S
C1384 C1379 1.395 . S
C1384 C1381 1.386 . S
C1384 H1403 0.930 . S
Eu1385 N1382 2.609 . S
Eu1385 N1386 2.657 . S
Eu1385 O1419 2.380 . S
Eu1385 O1420 2.432 . S
Eu1385 O1424 2.558 . S
Eu1385 O1425 2.612 . S
Eu1385 O1427 2.339 . S
Eu1385 O1428 2.563 . S
Eu1385 O1429 2.419 . S
Eu1385 C1449 2.848 . S
N1386 C1378 1.362 . S
N1386 Eu1385 2.657 . S
N1386 C1387 1.334 . S
C1387 N1386 1.334 . S
C1387 C1389 1.413 . S
C1387 H1394 0.929 . S
C1388 C1376 1.392 . S
C1388 C1389 1.367 . S
C1388 H1396 0.930 . S
C1389 C1387 1.413 . S
C1389 C1388 1.367 . S
C1389 H1391 0.930 . S
H1390 C1383 0.930 . S
H1391 C1389 0.930 . S
H1392 C1380 0.930 . S
H1393 C1381 0.930 . S
H1394 C1387 0.929 . S
H1395 C1409 0.930 . S
H1396 C1388 0.930 . S
H1397 C1415 0.930 . S
H1398 C1406 0.929 . S
H1399 C1413 0.930 . S
H1400 C1377 0.931 . S
H1401 C1407 0.930 . S
H1402 C1440 0.930 . S
H1403 C1384 0.930 . S
H1404 C1439 0.931 . S
N1405 Eu1374 2.657 . S
N1405 C1406 1.334 . S
N1405 C1410 1.362 . S
C1406 H1398 0.929 . S
C1406 N1405 1.334 . S
C1406 C1409 1.413 1_655 S
C1407 H1401 0.930 . S
C1407 C1408 1.392 . S
C1407 C1409 1.367 . S
C1408 C1407 1.392 . S
C1408 C1410 1.420 1_455 S
C1408 C1440 1.423 . S
C1409 H1395 0.930 . S
C1409 C1406 1.413 1_455 S
C1409 C1407 1.367 . S
C1410 N1405 1.362 . S
C1410 C1408 1.420 1_655 S
C1410 C1414 1.429 . S
H1411 C1416 0.930 . S
N1412 Eu1374 2.609 . S
N1412 C1414 1.377 . S
N1412 C1415 1.321 . S
C1413 H1399 0.930 . S
C1413 C1415 1.400 . S
C1413 C1416 1.386 . S
C1414 C1410 1.429 . S
C1414 N1412 1.377 . S
C1414 C1417 1.411 . S
C1415 H1397 0.930 . S
C1415 N1412 1.321 . S
C1415 C1413 1.400 . S
C1416 H1411 0.930 . S
C1416 C1413 1.386 . S
C1416 C1417 1.395 . S
C1417 C1414 1.411 . S
C1417 C1416 1.395 . S
C1417 C1439 1.420 1_655 S
O1418 Eu1374 2.558 . S
O1418 C1438 1.257 . S
O1419 Eu1374 2.612 . S
O1419 Eu1385 2.380 . S
O1419 C1430 1.276 . S
O1420 Eu1385 2.432 . S
O1420 C1437 1.264 . S
O1421 Eu1374 2.339 . S
O1421 C1437 1.254 . S
O1422 Eu1374 2.563 . S
O1422 C1430 1.235 . S
O1423 Eu1374 2.419 . S
O1423 C1438 1.249 . S
O1424 Eu1385 2.558 . S
O1424 C1449 1.257 . S
O1425 Eu1374 2.380 . S
O1425 Eu1385 2.612 . S
O1425 C1441 1.276 . S
O1426 Eu1374 2.432 . S
O1426 C1448 1.264 . S
O1427 Eu1385 2.339 . S
O1427 C1448 1.254 . S
O1428 Eu1385 2.563 . S
O1428 C1441 1.235 . S
O1429 Eu1385 2.419 . S
O1429 C1449 1.249 . S
C1430 O1419 1.276 . S
C1430 O1422 1.235 . S
C1431 C1433 1.393 . S
C1431 C1435 1.395 . S
C1431 C1438 1.492 . S
C1432 C1433 1.392 . S
C1432 C1434 1.386 . S
C1433 C1431 1.393 . S
C1433 C1432 1.392 . S
C1433 H1450 0.930 . S
C1434 C1432 1.386 . S
C1434 C1436 1.395 . S
C1434 H1451 0.930 . S
C1435 C1431 1.395 . S
C1435 C1436 1.379 . S
C1435 H1452 0.930 . S
C1436 C1434 1.395 . S
C1436 C1435 1.379 . S
C1436 H1453 0.930 . S
C1437 O1420 1.264 . S
C1437 O1421 1.254 . S
C1438 Eu1374 2.848 . S
C1438 O1418 1.257 . S
C1438 O1423 1.249 . S
C1438 C1431 1.492 . S
C1439 H1404 0.931 . S
C1439 C1417 1.420 1_455 S
C1439 C1440 1.351 . S
C1440 H1402 0.930 . S
C1440 C1408 1.423 . S
C1440 C1439 1.351 . S
C1441 O1425 1.276 . S
C1441 O1428 1.235 . S
C1442 C1443 1.393 . S
C1442 C1446 1.395 . S
C1442 C1449 1.492 . S
C1443 C1442 1.393 . S
C1443 C1444 1.392 . S
C1443 H1454 0.930 . S
C1444 C1443 1.392 . S
C1444 C1445 1.386 . S
C1445 C1444 1.386 . S
C1445 C1447 1.395 . S
C1445 H1455 0.930 . S
C1446 C1442 1.395 . S
C1446 C1447 1.379 . S
C1446 H1456 0.930 . S
C1447 C1445 1.395 . S
C1447 C1446 1.379 . S
C1447 H1457 0.930 . S
C1448 O1426 1.264 . S
C1448 O1427 1.254 . S
C1449 Eu1385 2.848 . S
C1449 O1424 1.257 . S
C1449 O1429 1.249 . S
C1449 C1442 1.492 . S
H1450 C1433 0.930 . S
H1451 C1434 0.930 . S
H1452 C1435 0.930 . S
H1453 C1436 0.930 . S
H1454 C1443 0.930 . S
H1455 C1445 0.930 . S
H1456 C1446 0.930 . S
H1457 C1447 0.930 . S
C528 C769 1.561 . S
C562 C853 1.570 . S
C484 C933 1.578 . S
C445 C849 1.453 . S
C937 C367 1.464 . S
C411 C765 1.484 . S
C758 C450 1.557 . S
C842 C372 1.552 . S
C406 C944 1.569 . S
C523 C860 1.445 . S
C567 C926 1.443 . S
C776 C489 1.485 . S
C1021 C60 1.561 . S
C94 C1105 1.570 . S
C16 C1185 1.578 . S
C679 C1101 1.453 . S
C601 C1189 1.464 . S
C645 C1017 1.485 . S
C684 C1010 1.557 . S
C606 C1094 1.552 . S
C1196 C640 1.570 . S
C55 C1112 1.445 . S
C1178 C99 1.443 . S
C21 C1028 1.485 . S
C1273 C294 1.561 . S
C328 C1357 1.570 . S
C1437 C250 1.578 . S
C1353 C211 1.453 . S
C1441 C133 1.464 . S
C177 C1269 1.485 . S
C216 C1262 1.557 . S
C138 C1346 1.552 . S
C1448 C172 1.570 . S
C289 C1364 1.445 . S
C333 C1430 1.443 . S
C255 C1280 1.486 . S
C586 C772 1.611 . S
C856 C625 1.395 . S
C664 C928 1.467 . S
C235 C844 1.409 . S
C274 C940 1.449 . S
C760 C313 1.615 . S
C118 C1024 1.611 . S
C157 C1108 1.396 . S
C196 C1180 1.466 . S
C469 C1096 1.409 . S
C1192 C508 1.449 . S
C547 C1012 1.616 . S
C352 C1276 1.611 . S
C391 C1360 1.396 . S
C1432 C430 1.467 . S
C1 C1348 1.409 . S
C40 C1444 1.449 . S
C79 C1264 1.616 . S
