# Generated by pormake.
# Topology anh, (6,3)-cn, num edge types: 1
# Building blocks:
#     Node 0, Type 0, BuildingBlock: CUWYAW_clean_sbu_0, # of connection points: 6
#     Node 1, Type 0, BuildingBlock: CUWYAW_clean_sbu_0, # of connection points: 6
#     Node 2, Type 0, BuildingBlock: CUWYAW_clean_sbu_0, # of connection points: 6
#     Node 3, Type 1, BuildingBlock: ESEHIV_clean_linker_0, # of connection points: 3
#     Node 4, Type 1, BuildingBlock: ESEHIV_clean_linker_0, # of connection points: 3
#     Node 5, Type 1, BuildingBlock: ESEHIV_clean_linker_0, # of connection points: 3
#     Node 6, Type 1, BuildingBlock: ESEHIV_clean_linker_0, # of connection points: 3
#     Node 7, Type 1, BuildingBlock: ESEHIV_clean_linker_0, # of connection points: 3
#     Node 8, Type 1, BuildingBlock: ESEHIV_clean_linker_0, # of connection points: 3
#     Edge 9, Type (0, 1), BuildingBlock: EZIPEK_clean_linker_0, # of connection points: 2
#     Edge 10, Type (0, 1), BuildingBlock: EZIPEK_clean_linker_0, # of connection points: 2
#     Edge 11, Type (0, 1), BuildingBlock: EZIPEK_clean_linker_0, # of connection points: 2
#     Edge 12, Type (0, 1), BuildingBlock: EZIPEK_clean_linker_0, # of connection points: 2
#     Edge 13, Type (0, 1), BuildingBlock: EZIPEK_clean_linker_0, # of connection points: 2
#     Edge 14, Type (0, 1), BuildingBlock: EZIPEK_clean_linker_0, # of connection points: 2
#     Edge 15, Type (0, 1), BuildingBlock: EZIPEK_clean_linker_0, # of connection points: 2
#     Edge 16, Type (0, 1), BuildingBlock: EZIPEK_clean_linker_0, # of connection points: 2
#     Edge 17, Type (0, 1), BuildingBlock: EZIPEK_clean_linker_0, # of connection points: 2
#     Edge 18, Type (0, 1), BuildingBlock: EZIPEK_clean_linker_0, # of connection points: 2
#     Edge 19, Type (0, 1), BuildingBlock: EZIPEK_clean_linker_0, # of connection points: 2
#     Edge 20, Type (0, 1), BuildingBlock: EZIPEK_clean_linker_0, # of connection points: 2
#     Edge 21, Type (0, 1), BuildingBlock: EZIPEK_clean_linker_0, # of connection points: 2
#     Edge 22, Type (0, 1), BuildingBlock: EZIPEK_clean_linker_0, # of connection points: 2
#     Edge 23, Type (0, 1), BuildingBlock: EZIPEK_clean_linker_0, # of connection points: 2
#     Edge 24, Type (0, 1), BuildingBlock: EZIPEK_clean_linker_0, # of connection points: 2
#     Edge 25, Type (0, 1), BuildingBlock: EZIPEK_clean_linker_0, # of connection points: 2
#     Edge 26, Type (0, 1), BuildingBlock: EZIPEK_clean_linker_0, # of connection points: 2
# Relax obj value: 0.457
# Max RMSD: 0.215
# Mean RMSD: 0.180
data_MOF--net-anh--node1-CUWYAW_clean_sbu_0--node2-ESEHIV_clean_linker_0--edge1-EZIPEK_clean_linker_0
_symmetry_space_group_name_H-M    P1
_symmetry_Int_Tables_number       1
_symmetry_cell_setting            triclinic
loop_
_symmetry_equiv_pos_as_xyz
'x, y, z'
_cell_length_a     20.24457
_cell_length_b     20.410449
_cell_length_c     37.443351
_cell_angle_alpha  89.906653
_cell_angle_beta   89.29814
_cell_angle_gamma 118.80279
loop_
_atom_site_label
_atom_site_type_symbol
_atom_site_fract_x
_atom_site_fract_y
_atom_site_fract_z
_atom_type_partial_charge
C0 C 1.02621 0.34131 0.17225 0.0
Eu1 Eu 1.12317 0.48138 0.1598 0.0
C2 C 0.94387 0.3083 0.169 0.0
C3 C 0.90007 0.28506 0.20054 0.0
C4 C 0.83744 0.29609 0.20437 0.0
C5 C 0.81785 0.32931 0.17652 0.0
C6 C 0.85238 0.33801 0.14294 0.0
C7 C 0.91488 0.32692 0.13902 0.0
C8 C 0.1785 0.56253 0.22125 0.0
C9 C 1.00953 0.55578 0.14067 0.0
C10 C 0.23878 0.77647 0.15961 0.0
Eu11 Eu 0.19277 0.63704 0.14809 0.0
C12 C 0.26569 0.85589 0.16667 0.0
C13 C 0.23792 0.89632 0.14725 0.0
C14 C 0.25706 0.96942 0.15699 0.0
C15 C 0.30414 1.00229 0.18615 0.0
C16 C 0.33106 0.9616 0.20565 0.0
C17 C 0.31202 0.88905 0.19604 0.0
C18 C 0.18335 0.56693 0.08587 0.0
C19 C 0.3052 0.56012 0.142 0.0
O20 O 1.06668 0.36364 0.14297 0.0
O21 O 1.05362 0.39186 0.19699 0.0
O22 O 0.1943 0.51158 0.21015 0.0
O23 O 1.14024 0.5727 0.19759 0.0
O24 O 1.0156 0.49426 0.14677 0.0
O25 O 1.0724 0.6207 0.14066 0.0
O26 O 0.25416 0.73484 0.181 0.0
O27 O 0.20417 0.74409 0.1302 0.0
O28 O 0.24075 0.62975 0.09493 0.0
O29 O 1.13183 0.54401 0.10975 0.0
O30 O 0.30098 0.62178 0.15075 0.0
O31 O 0.24005 0.49629 0.14022 0.0
H32 H 0.9207 0.26961 0.22391 0.0
H33 H 0.81027 0.28742 0.23038 0.0
H34 H 0.83586 0.36043 0.12079 0.0
H35 H 0.94635 0.34359 0.11401 0.0
H36 H 0.20074 0.87117 0.12492 0.0
H37 H 0.23686 1.00079 0.14144 0.0
H38 H 0.36842 0.98687 0.22795 0.0
H39 H 0.33323 0.85884 0.21181 0.0
C40 C 0.60104 0.27284 0.48504 0.0
Eu41 Eu 0.64941 0.17536 0.48452 0.0
C42 C 0.63897 0.35227 0.49481 0.0
C43 C 0.69371 0.37807 0.5215 0.0
C44 C 0.73588 0.45432 0.52821 0.0
C45 C 0.72444 0.50604 0.50826 0.0
C46 C 0.66912 0.48064 0.48187 0.0
C47 C 0.62663 0.40393 0.47512 0.0
C48 C 0.68334 0.12825 0.54692 0.0
C49 C 0.84068 0.28016 0.47361 0.0
C50 C 0.79337 1.01585 0.4694 0.0
Eu51 Eu 0.73058 1.1009 0.46877 0.0
C52 C 0.86455 1.02353 0.48257 0.0
C53 C 0.86625 0.95968 0.49486 0.0
C54 C 0.92983 0.96637 0.51195 0.0
C55 C 0.99268 1.03698 0.51692 0.0
C56 C 0.99273 1.10087 0.50309 0.0
C57 C 0.92857 1.09421 0.48611 0.0
C58 C 0.69658 0.15511 0.4096 0.0
C59 C 0.54081 0.99419 0.4678 0.0
O60 O 0.62873 0.25748 0.45662 0.0
O61 O 0.5875 0.22484 0.51095 0.0
O62 O 0.6184 0.12221 0.53932 0.0
O63 O 0.72852 0.15724 0.52032 0.0
O64 O 0.77345 0.27825 0.47541 0.0
O65 O 0.83923 0.21452 0.47531 0.0
O66 O 0.79801 1.05808 0.4422 0.0
O67 O 0.74595 1.01327 0.49414 0.0
O68 O 0.76145 0.15881 0.41436 0.0
O69 O 0.65222 0.12054 0.43509 0.0
O70 O 0.6079 0.9962 0.46771 0.0
O71 O 0.54201 1.05994 0.4721 0.0
H72 H 0.70517 0.33943 0.53661 0.0
H73 H 0.77839 0.4732 0.54869 0.0
H74 H 0.65981 0.5201 0.46626 0.0
H75 H 0.58545 0.38504 0.45405 0.0
H76 H 0.81726 0.90492 0.49252 0.0
H77 H 0.92868 0.91655 0.52271 0.0
H78 H 1.04073 0.15571 0.50687 0.0
H79 H 0.928 0.14426 0.47691 0.0
C80 C 0.95251 0.73797 0.82183 0.0
Eu81 Eu 0.80607 0.66047 0.82076 0.0
C82 C 1.01085 0.71426 0.8193 0.0
C83 C 1.03323 0.6918 0.85027 0.0
C84 C 1.07584 0.65511 0.84765 0.0
C85 C 1.09773 0.64106 0.81413 0.0
C86 C 1.08171 0.66936 0.78323 0.0
C87 C 1.03813 0.70554 0.78579 0.0
C88 C 0.71918 0.60148 0.88154 0.0
C89 C 0.7336 0.47951 0.80493 0.0
C90 C 0.50389 0.49624 0.80092 0.0
Eu91 Eu 0.64862 0.58527 0.80441 0.0
C92 C 0.45171 0.41776 0.80934 0.0
C93 C 0.37465 0.39107 0.80499 0.0
C94 C 0.32289 0.32412 0.82127 0.0
C95 C 0.34771 0.28365 0.84297 0.0
C96 C 0.42498 0.30495 0.84221 0.0
C97 C 0.47679 0.37228 0.82596 0.0
C98 C 0.74292 0.64236 0.74682 0.0
C99 C 0.72133 0.76714 0.80424 0.0
O100 O 0.91323 0.72925 0.79312 0.0
O101 O 0.91013 0.71737 0.8507 0.0
O102 O 0.78031 0.59887 0.87362 0.0
O103 O 0.70553 0.6356 0.85647 0.0
O104 O 0.79745 0.54493 0.80506 0.0
O105 O 0.66944 0.482 0.80996 0.0
O106 O 0.55018 0.50914 0.77403 0.0
O107 O 0.5366 0.53851 0.8284 0.0
O108 O 0.67987 0.6439 0.75006 0.0
O109 O 0.74899 0.60687 0.7727 0.0
O110 O 0.65724 0.70275 0.80641 0.0
O111 O 0.78553 0.7635 0.80757 0.0
H112 H 1.01441 0.69881 0.8765 0.0
H113 H 1.08882 0.63448 0.8718 0.0
H114 H 1.09925 0.65979 0.7572 0.0
H115 H 1.02278 0.72332 0.76145 0.0
H116 H 0.35438 0.42496 0.79161 0.0
H117 H 0.26401 0.30954 0.82016 0.0
H118 H 0.44625 0.27392 0.85716 0.0
H119 H 0.53628 0.3913 0.82893 0.0
H120 H 0.48096 0.18885 0.29909 0.0
H121 H 0.7059 0.3643 0.28154 0.0
H122 H 0.52365 0.34931 0.21702 0.0
C123 C 0.51939 0.24158 0.28627 0.0
C124 C 0.49654 0.26444 0.25578 0.0
C125 C 0.59515 0.2793 0.29633 0.0
C126 C 0.64658 0.3415 0.27589 0.0
C127 C 0.62274 0.36826 0.24636 0.0
C128 C 0.54504 0.33309 0.23955 0.0
H129 H 1.06551 0.89027 0.65168 0.0
H130 H 0.87485 0.68715 0.61879 0.0
H131 H 0.99955 0.8556 0.54083 0.0
C132 C 1.03041 0.85611 0.6304 0.0
C133 C 1.04337 0.8825 0.59479 0.0
C134 C 0.96641 0.78799 0.63921 0.0
C135 C 0.92324 0.74061 0.61196 0.0
C136 C 0.93623 0.76408 0.57634 0.0
C137 C 0.99445 0.83578 0.56809 0.0
H138 H 1.141 0.51828 0.91426 0.0
H139 H 0.19341 0.3622 0.96722 0.0
H140 H 0.20877 0.38298 0.85258 0.0
C141 C 1.15692 0.47459 0.91299 0.0
C142 C 1.17216 0.45286 0.8798 0.0
C143 C 1.16798 0.44488 0.94464 0.0
C144 C 0.18673 0.38705 0.94285 0.0
C145 C 0.20112 0.36409 0.90976 0.0
C146 C 0.19511 0.3983 0.87824 0.0
H147 H 1.09343 0.52326 0.38182 0.0
H148 H 0.29691 0.73337 0.37739 0.0
H149 H 0.193 0.63847 0.48028 0.0
C150 C 1.13681 0.57001 0.39617 0.0
C151 C 1.13243 0.56985 0.4339 0.0
C152 C 0.1957 0.6271 0.37594 0.0
C153 C 0.25277 0.68983 0.39356 0.0
C154 C 0.25477 0.6979 0.43126 0.0
C155 C 0.19329 0.63569 0.45143 0.0
H156 H 0.72984 0.23058 0.70731 0.0
H157 H 0.72759 1.01924 0.70703 0.0
H158 H 0.72655 0.12303 0.80781 0.0
C159 C 0.73006 0.18525 0.72234 0.0
C160 C 0.72984 0.18812 0.76024 0.0
C161 C 0.72805 0.12474 0.70305 0.0
C162 C 0.72885 1.0651 0.72213 0.0
C163 C 0.72859 1.06158 0.76001 0.0
C164 C 0.72874 0.12442 0.77892 0.0
H165 H 0.56157 0.57443 0.04158 0.0
H166 H 0.77254 0.57246 0.04147 0.0
H167 H 0.65324 0.54976 0.14161 0.0
C168 C 0.60484 0.57003 0.05649 0.0
C169 C 0.59737 0.5623 0.09422 0.0
C170 C 0.66713 0.57322 0.03744 0.0
C171 C 0.7248 0.56885 0.05651 0.0
C172 C 0.72242 0.55916 0.09417 0.0
C173 C 0.65716 0.55614 0.11286 0.0
C174 C 0.44424 0.62503 0.11426 0.0
C175 C 0.38343 0.56283 0.13277 0.0
C176 C 0.46422 0.49927 0.12736 0.0
C177 C 0.52689 0.56389 0.11192 0.0
N178 N 0.57852 0.69487 0.09901 0.0
N179 N 0.3501 0.44776 0.16458 0.0
C180 C 0.51709 0.62848 0.10815 0.0
C181 C 0.39787 0.50206 0.14138 0.0
N182 N 0.43201 0.6797 0.09993 0.0
N183 N 0.46609 0.43337 0.12746 0.0
H184 H 0.30484 0.44952 0.1772 0.0
H185 H 0.36073 0.40614 0.17459 0.0
H186 H 0.51198 0.42894 0.11734 0.0
H187 H 0.41978 0.38239 0.13457 0.0
H188 H 0.47043 0.72124 0.08281 0.0
H189 H 0.38058 0.6792 0.10147 0.0
H190 H 0.57831 0.74581 0.09955 0.0
H191 H 0.63185 0.70002 0.09469 0.0
C192 C 0.93688 0.42576 0.48355 0.0
C193 C 0.91831 0.35556 0.46671 0.0
C194 C 1.05 0.42392 0.43975 0.0
C195 C 1.0637 0.49646 0.45122 0.0
N196 N 1.01257 0.56275 0.48424 0.0
N197 N 0.95964 0.29838 0.42144 0.0
C198 C 1.00487 0.49588 0.47335 0.0
C199 C 0.97605 0.35786 0.4431 0.0
N200 N 0.89103 0.42546 0.51063 0.0
N201 N 1.1092 0.41714 0.42606 0.0
H202 H 0.90657 0.25158 0.42044 0.0
H203 H 0.99599 0.29958 0.40119 0.0
H204 H 1.16376 0.46226 0.42443 0.0
H205 H 1.10595 0.36566 0.42048 0.0
H206 H 0.90375 0.47128 0.52684 0.0
H207 H 0.84384 0.37676 0.5194 0.0
H208 H 0.97067 0.56797 0.49815 0.0
H209 H 1.05974 0.61346 0.47764 0.0
C210 C 0.77871 0.91554 0.80811 0.0
C211 C 0.72099 0.84388 0.79579 0.0
C212 C 0.66016 0.91653 0.76984 0.0
C213 C 0.72317 0.98798 0.7772 0.0
N214 N 0.84844 1.05186 0.80046 0.0
N215 N 0.61244 0.78503 0.75704 0.0
C216 C 0.78391 0.98606 0.79558 0.0
C217 C 0.66311 0.8471 0.77478 0.0
N218 N 0.82708 0.91713 0.83358 0.0
N219 N 0.5953 0.91432 0.75846 0.0
H220 H 0.61252 0.73424 0.75726 0.0
H221 H 0.57555 0.78636 0.73826 0.0
H222 H 0.59027 0.96252 0.7552 0.0
H223 H 0.54444 0.86487 0.75634 0.0
H224 H 0.86548 0.96603 0.84615 0.0
H225 H 0.82265 0.86891 0.84537 0.0
H226 H 0.89816 1.05469 0.80958 0.0
H227 H 0.85362 1.10331 0.79278 0.0
C228 C 0.8864 0.50805 0.1029 0.0
C229 C 0.93208 0.55243 0.13151 0.0
C230 C 0.83899 0.6015 0.13775 0.0
C231 C 0.78983 0.5517 0.11125 0.0
N232 N 0.76156 0.44177 0.07694 0.0
N233 N 0.94013 0.6319 0.18052 0.0
C234 C 0.81234 0.50041 0.09651 0.0
C235 C 0.90461 0.59623 0.15012 0.0
N236 N 0.91504 0.47562 0.08009 0.0
N237 N 0.8259 0.65711 0.15007 0.0
H238 H 0.98672 0.62917 0.1904 0.0
H239 H 0.91899 0.65767 0.1977 0.0
H240 H 0.78054 0.6637 0.14173 0.0
H241 H 0.86349 0.70033 0.16613 0.0
H242 H 0.88839 0.4495 0.05657 0.0
H243 H 0.96832 0.48039 0.08307 0.0
H244 H 0.77127 0.39862 0.06825 0.0
H245 H 0.70652 0.43184 0.07315 0.0
C246 C 0.40621 0.91391 0.43801 0.0
C247 C 0.46431 0.9178 0.4611 0.0
C248 C 0.38318 0.77608 0.46702 0.0
C249 C 0.3227 0.77353 0.44633 0.0
N250 N 0.27449 0.84868 0.4195 0.0
N251 N 0.49493 0.84776 0.50342 0.0
C252 C 0.3341 0.84528 0.43425 0.0
C253 C 0.44869 0.84723 0.47709 0.0
N254 N 0.42109 0.97473 0.4173 0.0
N255 N 0.38012 0.70996 0.47618 0.0
H256 H 0.54058 0.89681 0.51236 0.0
H257 H 0.48347 0.80095 0.51891 0.0
H258 H 0.33419 0.65835 0.47014 0.0
H259 H 0.42526 0.70636 0.4872 0.0
H260 H 0.38562 0.97362 0.39712 0.0
H261 H 0.47271 1.0237 0.41731 0.0
H262 H 0.27506 0.89883 0.41355 0.0
H263 H 0.22167 0.80157 0.41696 0.0
C264 C 0.78215 0.37959 0.81169 0.0
C265 C 0.73197 0.40271 0.79597 0.0
C266 C 0.67022 0.27662 0.76617 0.0
C267 C 0.72651 0.25774 0.7774 0.0
N268 N 0.83993 0.29761 0.81076 0.0
N269 N 0.6376 0.37333 0.75097 0.0
C270 C 0.78327 0.31114 0.80033 0.0
C271 C 0.67841 0.35074 0.77148 0.0
N272 N 0.82771 0.422 0.8385 0.0
N273 N 0.60624 0.22219 0.75108 0.0
H274 H 0.64435 0.42722 0.75169 0.0
H275 H 0.60383 0.34159 0.73011 0.0
H276 H 0.59643 0.16742 0.74805 0.0
H277 H 0.55955 0.22901 0.74563 0.0
H278 H 0.86051 0.40646 0.85381 0.0
H279 H 0.82764 0.47013 0.8477 0.0
H280 H 0.8856 0.3345 0.82573 0.0
H281 H 0.84323 0.25035 0.80286 0.0
C282 C 1.10236 1.01555 0.52655 0.0
C283 C 1.05357 1.04174 0.53995 0.0
C284 C 1.07691 1.01492 0.6003 0.0
C285 C 1.09602 0.96274 0.58557 0.0
N286 N 1.16768 0.94411 0.5397 0.0
N287 N 1.00737 1.08188 0.59053 0.0
C288 C 1.12615 0.97693 0.55048 0.0
C289 C 1.04689 1.04864 0.5773 0.0
N290 N 1.11959 1.02226 0.49095 0.0
N291 N 1.08787 1.03181 0.6356 0.0
H292 H 0.98655 0.10883 0.5741 0.0
H293 H 0.99355 1.08036 0.61753 0.0
H294 H 1.11575 1.01127 0.65157 0.0
H295 H 1.07795 1.07247 0.64746 0.0
H296 H 1.1522 1.00162 0.47879 0.0
H297 H 1.10179 1.05083 0.47376 0.0
H298 H 0.19067 0.9495 0.51417 0.0
H299 H 0.18057 0.91293 0.55776 0.0
C300 C 1.08393 0.51341 0.80947 0.0
C301 C 1.13214 0.59147 0.81274 0.0
C302 C 0.22531 0.56972 0.84354 0.0
C303 C 1.16983 0.49374 0.84755 0.0
N304 N 1.05913 0.38769 0.82559 0.0
N305 N 0.25536 0.69418 0.82229 0.0
C306 C 1.10369 0.46348 0.82695 0.0
C307 C 0.20609 0.6195 0.82566 0.0
N308 N 1.01743 0.4882 0.79185 0.0
N309 N 0.29435 0.59365 0.85847 0.0
H310 H 0.24109 0.73005 0.80855 0.0
H311 H 0.31022 0.72026 0.83165 0.0
H312 H 0.30899 0.55653 0.87071 0.0
H313 H 0.33761 0.64866 0.85798 0.0
H314 H 0.97743 0.43232 0.7894 0.0
H315 H 1.00269 0.52412 0.77861 0.0
H316 H 1.01168 0.3607 0.80985 0.0
H317 H 1.07283 0.35088 0.83875 0.0
C318 C 0.40831 0.12866 0.18 0.0
C319 C 0.33594 1.08233 0.19425 0.0
C320 C 0.36113 0.1709 0.24296 0.0
C321 C 0.43859 0.20596 0.23321 0.0
N322 N 0.53705 0.20248 0.19666 0.0
N323 N 0.23914 1.05915 0.23788 0.0
C324 C 0.46274 0.18183 0.20243 0.0
C325 C 0.31036 1.10427 0.22502 0.0
N326 N 0.42659 0.11739 0.14622 0.0
N327 N 0.33694 0.20033 0.2695 0.0
H328 H 0.20086 1.01182 0.22407 0.0
H329 H 0.21928 1.06723 0.26235 0.0
H330 H 0.37376 0.24864 0.2831 0.0
H331 H 0.28028 0.18029 0.27607 0.0
H332 H 0.47804 0.1534 0.13387 0.0
H333 H 0.38715 1.07699 0.12951 0.0
H334 H 0.5793 0.2339 0.2146 0.0
H335 H 0.5553 0.17964 0.17645 0.0
C336 C 0.74918 0.62144 0.54177 0.0
C337 C 0.77233 0.58668 0.51554 0.0
C338 C 0.90339 0.68533 0.52024 0.0
C339 C 0.88111 0.71551 0.54924 0.0
N340 N 0.78235 0.73302 0.57641 0.0
N341 N 0.8629 0.59797 0.47062 0.0
C342 C 0.80345 0.69057 0.55603 0.0
C343 C 0.84676 0.62368 0.50137 0.0
N344 N 0.67658 0.58636 0.55444 0.0
N345 N 0.97809 0.71205 0.51224 0.0
H346 H 0.82192 0.55203 0.45702 0.0
H347 H 0.91421 0.62564 0.4569 0.0
H348 H 1.02145 0.75352 0.5268 0.0
H349 H 0.99813 0.69186 0.49175 0.0
H350 H 0.65873 0.60451 0.5767 0.0
H351 H 0.63488 0.53679 0.54358 0.0
H352 H 0.72646 0.7206 0.58027 0.0
H353 H 0.82162 0.78494 0.58637 0.0
C354 C 0.22083 0.20687 0.86912 0.0
C355 C 0.29919 0.2391 0.87389 0.0
C356 C 0.297 0.32017 0.91982 0.0
C357 C 0.22535 0.30626 0.9072 0.0
N358 N 1.10751 0.21734 0.8812 0.0
N359 N 0.38305 0.26908 0.92317 0.0
C360 C 0.18238 0.24161 0.88615 0.0
C361 C 0.32632 0.27445 0.90674 0.0
N362 N 0.18804 0.15209 0.84439 0.0
N363 N 0.33984 0.37971 0.94099 0.0
H364 H 0.40303 0.23403 0.91322 0.0
H365 H 0.40345 0.29281 0.94801 0.0
H366 H 0.32268 0.4174 0.94998 0.0
H367 H 0.39518 0.3943 0.94746 0.0
H368 H 1.13179 0.12839 0.8371 0.0
H369 H 0.21956 0.13092 0.83129 0.0
H370 H 1.07277 0.17062 0.86625 0.0
H371 H 1.0796 0.24266 0.89397 0.0
C372 C 0.70565 0.35097 0.1688 0.0
C373 C 0.77511 0.36949 0.18511 0.0
C374 C 0.75525 0.45161 0.22657 0.0
C375 C 0.67874 0.41347 0.21725 0.0
N376 N 0.61076 0.38737 0.16182 0.0
N377 N 0.8799 0.46337 0.21813 0.0
C378 C 0.66326 0.38337 0.18247 0.0
C379 C 0.80513 0.42929 0.21019 0.0
N380 N 0.67926 0.30282 0.14086 0.0
N381 N 0.77641 0.50221 0.25352 0.0
H382 H 0.91755 0.44938 0.20549 0.0
H383 H 0.90551 0.50868 0.23517 0.0
H384 H 0.73748 0.51584 0.26521 0.0
H385 H 0.83018 0.5294 0.26419 0.0
H386 H 0.62795 0.28943 0.12893 0.0
H387 H 0.70664 0.27453 0.13085 0.0
H388 H 0.58359 0.41766 0.16939 0.0
H389 H 0.58359 0.41766 0.16939 0.0
C390 C 0.20461 0.58533 0.01911 0.0
C391 C 1.17307 0.53644 0.04892 0.0
C392 C 1.12036 0.43073 0.00786 0.0
C393 C 1.1654 0.4778 0.97968 0.0
N394 N 0.26601 0.60027 0.96186 0.0
N395 N 1.12009 0.40977 0.07074 0.0
C396 C 0.2119 0.55547 0.98607 0.0
C397 C 1.13502 0.45815 0.04309 0.0
N398 N 0.22525 0.65943 0.02163 0.0
N399 N 1.06456 0.35985 0.00128 0.0
H400 H 1.14339 0.42942 0.09547 0.0
H401 H 1.09684 0.35215 0.06752 0.0
H402 H 1.05079 0.33867 0.97549 0.0
H403 H 1.02725 0.32575 0.02119 0.0
H404 H 0.2437 0.69541 -0.00044 0.0
H405 H 0.21423 0.6824 0.04428 0.0
H406 H 0.3048 0.65579 0.9672 0.0
H407 H 0.27809 0.58016 0.93851 0.0
C408 C 0.70342 0.26511 0.37602 0.0
C409 C 0.67635 0.18693 0.37848 0.0
C410 C 0.60798 0.17132 0.32292 0.0
C411 C 0.62311 0.24709 0.32463 0.0
N412 N 0.67365 0.36163 0.35841 0.0
N413 N 0.59518 1.06344 0.35589 0.0
C414 C 0.66753 0.29281 0.35284 0.0
C415 C 0.62569 0.1392 0.35258 0.0
N416 N 0.76486 0.31335 0.39481 0.0
N417 N 0.58137 0.13134 0.29228 0.0
H418 H 0.60973 1.03799 0.37623 0.0
H419 H 0.55172 1.02613 0.33977 0.0
H420 H 0.5738 0.15447 0.26887 0.0
H421 H 0.57554 1.07817 0.28882 0.0
H422 H 0.78964 0.37129 0.39212 0.0
H423 H 0.79701 0.29521 0.40887 0.0
H424 H 0.69992 0.39381 0.38071 0.0
H425 H 0.64558 0.38287 0.34301 0.0
C426 C 0.85359 0.65497 0.71039 0.0
C427 C 0.80623 0.68577 0.72091 0.0
C428 C 0.89108 0.80224 0.68856 0.0
C429 C 0.93344 0.76841 0.67588 0.0
N430 N 0.97273 0.67641 0.68376 0.0
N431 N 0.77666 0.78784 0.71579 0.0
C432 C 0.92062 0.69942 0.69026 0.0
C433 C 0.82443 0.75944 0.70924 0.0
N434 N 0.83065 0.58085 0.71633 0.0
N435 N 0.91558 0.87621 0.6815 0.0
H436 H 0.72827 0.76192 0.73127 0.0
H437 H 0.78121 0.83542 0.70325 0.0
H438 H 0.96401 0.90961 0.66664 0.0
H439 H 0.89344 0.90726 0.69377 0.0
H440 H 0.8597 0.55386 0.70685 0.0
H441 H 0.77785 0.5435 0.72695 0.0
H442 H 0.97158 0.63005 0.69603 0.0
H443 H 1.02172 0.70914 0.66876 0.0
C444 C 0.76598 0.18431 0.60292 0.0
C445 C 0.70361 0.12421 0.58573 0.0
C446 C 0.65636 1.06582 0.64542 0.0
C447 C 0.72142 0.12264 0.66231 0.0
N448 N 0.84663 0.22653 0.65492 0.0
N449 N 0.60031 0.99859 0.59095 0.0
C450 C 0.77879 0.17888 0.6403 0.0
C451 C 0.65242 1.06223 0.60719 0.0
N452 N 0.81074 0.24888 0.58449 0.0
N453 N 0.59592 1.01728 0.66579 0.0
H454 H 0.59668 0.99293 0.56325 0.0
H455 H 0.56648 0.94896 0.60481 0.0
H456 H 0.59479 1.01934 0.69358 0.0
H457 H 0.54406 0.97999 0.65502 0.0
H458 H 0.85115 0.29727 0.59669 0.0
H459 H 0.80327 0.25696 0.55775 0.0
H460 H 0.89336 0.26354 0.63974 0.0
H461 H 0.85841 0.22373 0.68175 0.0
C462 C 0.73774 0.66031 0.94332 0.0
C463 C 0.69575 0.59853 0.92048 0.0
C464 C 0.63181 0.52065 0.97403 0.0
C465 C 0.67337 0.58268 0.99686 0.0
N466 N 0.75426 0.7152 0.0025 0.0
N467 N 0.59284 0.47425 0.9136 0.0
C468 C 0.7228 0.65359 0.98117 0.0
C469 C 0.63951 0.53012 0.9358 0.0
N470 N 0.79397 0.72512 0.9289 0.0
N471 N 0.58718 0.45173 0.98896 0.0
H472 H 0.59759 0.47966 0.88584 0.0
H473 H 0.54579 0.42549 0.92236 0.0
H474 H 0.57954 0.44288 0.0165 0.0
H475 H 0.56154 0.40251 0.97438 0.0
H476 H 0.83338 0.76892 0.94405 0.0
H477 H 0.80383 0.73375 0.90145 0.0
H478 H 0.78428 0.76972 0.99274 0.0
H479 H 0.74501 0.71236 0.03007 0.0
C480 C 1.12506 0.58918 0.2791 0.0
C481 C 0.18549 0.58673 0.26012 0.0
C482 C 0.25355 0.61056 0.31738 0.0
C483 C 0.19616 0.61956 0.33545 0.0
N484 N 1.08701 0.6367 0.33029 0.0
N485 N 0.31546 0.61399 0.26089 0.0
C486 C 1.1352 0.61514 0.3152 0.0
C487 C 0.25217 0.60316 0.27923 0.0
N488 N 1.05572 0.56159 0.26405 0.0
N489 N 0.30778 0.60546 0.33663 0.0
H490 H 0.31786 0.61171 0.23311 0.0
H491 H 0.36767 0.6332 0.27289 0.0
H492 H 0.31034 0.60918 0.36439 0.0
H493 H 0.34597 0.59064 0.32535 0.0
H494 H 1.00834 0.55508 0.27827 0.0
H495 H 1.04277 0.53667 0.23909 0.0
H496 H 1.04614 0.64193 0.31579 0.0
H497 H 1.09324 0.65704 0.35628 0.0
loop_
_geom_bond_atom_site_label_1
_geom_bond_atom_site_label_2
_geom_bond_distance
_geom_bond_site_symmetry_2
_ccdc_geom_bond_type
C0 Eu1 2.835 . S
C0 C2 1.500 . S
C0 O20 1.257 . S
C0 O21 1.260 . S
Eu1 C0 2.835 . S
Eu1 O20 2.473 . S
Eu1 O21 2.480 . S
Eu1 O22 2.430 . S
Eu1 O23 2.670 1_655 S
Eu1 O24 2.394 . S
Eu1 O29 2.355 1_655 S
Eu1 O31 2.374 1_655 S
C2 C0 1.500 . S
C2 C3 1.377 . S
C2 C7 1.377 . S
C3 C2 1.377 . S
C3 C4 1.395 . S
C3 H32 0.931 . S
C4 C3 1.395 . S
C4 C5 1.383 . S
C4 H33 0.931 . S
C5 C4 1.383 . S
C5 C6 1.394 . S
C6 C5 1.394 . S
C6 C7 1.378 . S
C6 H34 0.931 . S
C7 C2 1.377 . S
C7 C6 1.378 . S
C7 H35 0.931 . S
C8 O22 1.259 1_455 S
C8 O23 1.270 . S
C9 O24 1.251 . S
C9 O25 1.251 . S
C10 Eu11 2.835 . S
C10 C12 1.500 . S
C10 O26 1.257 . S
C10 O27 1.260 . S
Eu11 C10 2.835 . S
Eu11 O23 2.355 . S
Eu11 O25 2.374 1_455 S
Eu11 O26 2.473 . S
Eu11 O27 2.480 . S
Eu11 O28 2.430 . S
Eu11 O29 2.670 . S
Eu11 O30 2.394 . S
C12 C10 1.500 . S
C12 C13 1.377 . S
C12 C17 1.377 . S
C13 C12 1.377 . S
C13 C14 1.395 . S
C13 H36 0.931 . S
C14 C13 1.395 . S
C14 C15 1.383 . S
C14 H37 0.931 . S
C15 C14 1.383 . S
C15 C16 1.394 . S
C16 C15 1.394 . S
C16 C17 1.378 . S
C16 H38 0.931 . S
C17 C12 1.377 . S
C17 C16 1.378 . S
C17 H39 0.931 . S
C18 O28 1.259 . S
C18 O29 1.270 . S
C19 O30 1.251 . S
C19 O31 1.251 . S
O20 C0 1.257 . S
O20 Eu1 2.473 . S
O21 C0 1.260 . S
O21 Eu1 2.480 . S
O22 Eu1 2.430 . S
O22 C8 1.259 1_655 S
O23 Eu1 2.670 1_455 S
O23 C8 1.270 . S
O23 Eu11 2.355 . S
O24 Eu1 2.394 . S
O24 C9 1.251 . S
O25 C9 1.251 . S
O25 Eu11 2.374 1_655 S
O26 C10 1.257 . S
O26 Eu11 2.473 . S
O27 C10 1.260 . S
O27 Eu11 2.480 . S
O28 Eu11 2.430 . S
O28 C18 1.259 . S
O29 Eu1 2.355 1_455 S
O29 Eu11 2.670 . S
O29 C18 1.270 . S
O30 Eu11 2.394 . S
O30 C19 1.251 . S
O31 Eu1 2.374 1_455 S
O31 C19 1.251 . S
H32 C3 0.931 . S
H33 C4 0.931 . S
H34 C6 0.931 . S
H35 C7 0.931 . S
H36 C13 0.931 . S
H37 C14 0.931 . S
H38 C16 0.931 . S
H39 C17 0.931 . S
C40 Eu41 2.835 . S
C40 C42 1.500 . S
C40 O60 1.257 . S
C40 O61 1.260 . S
Eu41 C40 2.835 . S
Eu41 O60 2.473 . S
Eu41 O61 2.480 . S
Eu41 O62 2.430 . S
Eu41 O63 2.670 . S
Eu41 O64 2.394 . S
Eu41 O69 2.355 . S
Eu41 O71 2.374 1_545 S
C42 C40 1.500 . S
C42 C43 1.377 . S
C42 C47 1.377 . S
C43 C42 1.377 . S
C43 C44 1.395 . S
C43 H72 0.931 . S
C44 C43 1.395 . S
C44 C45 1.383 . S
C44 H73 0.931 . S
C45 C44 1.383 . S
C45 C46 1.394 . S
C46 C45 1.394 . S
C46 C47 1.378 . S
C46 H74 0.931 . S
C47 C42 1.377 . S
C47 C46 1.378 . S
C47 H75 0.931 . S
C48 O62 1.259 . S
C48 O63 1.270 . S
C49 O64 1.251 . S
C49 O65 1.251 . S
C50 Eu51 2.835 . S
C50 C52 1.500 . S
C50 O66 1.257 . S
C50 O67 1.260 . S
Eu51 C50 2.835 . S
Eu51 O63 2.355 1_565 S
Eu51 O65 2.374 1_565 S
Eu51 O66 2.473 . S
Eu51 O67 2.480 . S
Eu51 O68 2.430 . S
Eu51 O69 2.670 1_565 S
Eu51 O70 2.394 . S
C52 C50 1.500 . S
C52 C53 1.377 . S
C52 C57 1.377 . S
C53 C52 1.377 . S
C53 C54 1.395 . S
C53 H76 0.931 . S
C54 C53 1.395 . S
C54 C55 1.383 . S
C54 H77 0.931 . S
C55 C54 1.383 . S
C55 C56 1.394 . S
C56 C55 1.394 . S
C56 C57 1.378 . S
C56 H78 0.931 . S
C57 C52 1.377 . S
C57 C56 1.378 . S
C57 H79 0.931 . S
C58 O68 1.259 1_545 S
C58 O69 1.270 . S
C59 O70 1.251 . S
C59 O71 1.251 . S
O60 C40 1.257 . S
O60 Eu41 2.473 . S
O61 C40 1.260 . S
O61 Eu41 2.480 . S
O62 Eu41 2.430 . S
O62 C48 1.259 . S
O63 Eu41 2.670 . S
O63 C48 1.270 . S
O63 Eu51 2.355 1_545 S
O64 Eu41 2.394 . S
O64 C49 1.251 . S
O65 C49 1.251 . S
O65 Eu51 2.374 1_545 S
O66 C50 1.257 . S
O66 Eu51 2.473 . S
O67 C50 1.260 . S
O67 Eu51 2.480 . S
O68 Eu51 2.430 . S
O68 C58 1.259 1_565 S
O69 Eu41 2.355 . S
O69 Eu51 2.670 1_545 S
O69 C58 1.270 . S
O70 Eu51 2.394 . S
O70 C59 1.251 . S
O71 Eu41 2.374 1_565 S
O71 C59 1.251 . S
H72 C43 0.931 . S
H73 C44 0.931 . S
H74 C46 0.931 . S
H75 C47 0.931 . S
H76 C53 0.931 . S
H77 C54 0.931 . S
H78 C56 0.931 . S
H79 C57 0.931 . S
C80 Eu81 2.835 . S
C80 C82 1.500 . S
C80 O100 1.257 . S
C80 O101 1.260 . S
Eu81 C80 2.835 . S
Eu81 O100 2.473 . S
Eu81 O101 2.480 . S
Eu81 O102 2.430 . S
Eu81 O103 2.670 . S
Eu81 O104 2.394 . S
Eu81 O109 2.355 . S
Eu81 O111 2.374 . S
C82 C80 1.500 . S
C82 C83 1.377 . S
C82 C87 1.377 . S
C83 C82 1.377 . S
C83 C84 1.395 . S
C83 H112 0.931 . S
C84 C83 1.395 . S
C84 C85 1.383 . S
C84 H113 0.931 . S
C85 C84 1.383 . S
C85 C86 1.394 . S
C86 C85 1.394 . S
C86 C87 1.378 . S
C86 H114 0.931 . S
C87 C82 1.377 . S
C87 C86 1.378 . S
C87 H115 0.931 . S
C88 O102 1.259 . S
C88 O103 1.270 . S
C89 O104 1.251 . S
C89 O105 1.251 . S
C90 Eu91 2.835 . S
C90 C92 1.500 . S
C90 O106 1.257 . S
C90 O107 1.260 . S
Eu91 C90 2.835 . S
Eu91 O103 2.355 . S
Eu91 O105 2.374 . S
Eu91 O106 2.473 . S
Eu91 O107 2.480 . S
Eu91 O108 2.430 . S
Eu91 O109 2.670 . S
Eu91 O110 2.394 . S
C92 C90 1.500 . S
C92 C93 1.377 . S
C92 C97 1.377 . S
C93 C92 1.377 . S
C93 C94 1.395 . S
C93 H116 0.931 . S
C94 C93 1.395 . S
C94 C95 1.383 . S
C94 H117 0.931 . S
C95 C94 1.383 . S
C95 C96 1.394 . S
C96 C95 1.394 . S
C96 C97 1.378 . S
C96 H118 0.931 . S
C97 C92 1.377 . S
C97 C96 1.378 . S
C97 H119 0.931 . S
C98 O108 1.259 . S
C98 O109 1.270 . S
C99 O110 1.251 . S
C99 O111 1.251 . S
O100 C80 1.257 . S
O100 Eu81 2.473 . S
O101 C80 1.260 . S
O101 Eu81 2.480 . S
O102 Eu81 2.430 . S
O102 C88 1.259 . S
O103 Eu81 2.670 . S
O103 C88 1.270 . S
O103 Eu91 2.355 . S
O104 Eu81 2.394 . S
O104 C89 1.251 . S
O105 C89 1.251 . S
O105 Eu91 2.374 . S
O106 C90 1.257 . S
O106 Eu91 2.473 . S
O107 C90 1.260 . S
O107 Eu91 2.480 . S
O108 Eu91 2.430 . S
O108 C98 1.259 . S
O109 Eu81 2.355 . S
O109 Eu91 2.670 . S
O109 C98 1.270 . S
O110 Eu91 2.394 . S
O110 C99 1.251 . S
O111 Eu81 2.374 . S
O111 C99 1.251 . S
H112 C83 0.931 . S
H113 C84 0.931 . S
H114 C86 0.931 . S
H115 C87 0.931 . S
H116 C93 0.931 . S
H117 C94 0.931 . S
H118 C96 0.931 . S
H119 C97 0.931 . S
H120 C123 0.931 1_565 S
H121 C126 0.928 . S
H122 C128 0.930 . S
C123 H120 0.931 1_545 S
C123 C124 1.413 . S
C123 C125 1.360 . S
C124 C123 1.413 . S
C124 C128 1.429 . S
C125 C123 1.360 . S
C125 C126 1.372 . S
C126 H121 0.928 . S
C126 C125 1.372 . S
C126 C127 1.404 . S
C127 C126 1.404 . S
C127 C128 1.391 . S
C128 H122 0.930 . S
C128 C124 1.429 . S
C128 C127 1.391 . S
H129 C132 0.931 . S
H130 C135 0.928 . S
H131 C137 0.930 . S
C132 H129 0.931 . S
C132 C133 1.413 . S
C132 C134 1.360 . S
C133 C132 1.413 . S
C133 C137 1.429 . S
C134 C132 1.360 . S
C134 C135 1.372 . S
C135 H130 0.928 . S
C135 C134 1.372 . S
C135 C136 1.404 . S
C136 C135 1.404 . S
C136 C137 1.391 . S
C137 H131 0.930 . S
C137 C133 1.429 . S
C137 C136 1.391 . S
H138 C141 0.931 . S
H139 C144 0.928 . S
H140 C146 0.930 . S
C141 H138 0.931 . S
C141 C142 1.413 . S
C141 C143 1.360 1_655 S
C142 C141 1.413 . S
C142 C146 1.429 1_655 S
C143 C141 1.360 1_455 S
C143 C144 1.372 . S
C144 H139 0.928 . S
C144 C143 1.372 . S
C144 C145 1.404 . S
C145 C144 1.404 . S
C145 C146 1.391 . S
C146 H140 0.930 . S
C146 C142 1.429 1_455 S
C146 C145 1.391 . S
H147 C150 0.931 1_655 S
H148 C153 0.928 . S
H149 C155 0.930 . S
C150 H147 0.931 1_455 S
C150 C151 1.413 . S
C150 C152 1.360 . S
C151 C150 1.413 . S
C151 C155 1.429 . S
C152 C150 1.360 . S
C152 C153 1.372 . S
C153 H148 0.928 . S
C153 C152 1.372 . S
C153 C154 1.404 . S
C154 C153 1.404 . S
C154 C155 1.391 . S
C155 H149 0.930 . S
C155 C151 1.429 . S
C155 C154 1.391 . S
H156 C159 0.931 . S
H157 C162 0.928 . S
H158 C164 0.930 . S
C159 H156 0.931 . S
C159 C160 1.413 . S
C159 C161 1.360 . S
C160 C159 1.413 . S
C160 C164 1.429 . S
C161 C159 1.360 . S
C161 C162 1.372 1_545 S
C162 H157 0.928 . S
C162 C161 1.372 1_565 S
C162 C163 1.404 . S
C163 C162 1.404 . S
C163 C164 1.391 1_565 S
C164 H158 0.930 . S
C164 C160 1.429 . S
C164 C163 1.391 1_545 S
H165 C168 0.931 . S
H166 C171 0.928 . S
H167 C173 0.930 . S
C168 H165 0.931 . S
C168 C169 1.413 . S
C168 C170 1.360 . S
C169 C168 1.413 . S
C169 C173 1.429 . S
C170 C168 1.360 . S
C170 C171 1.372 . S
C171 H166 0.928 . S
C171 C170 1.372 . S
C171 C172 1.404 . S
C172 C171 1.404 . S
C172 C173 1.391 . S
C173 H167 0.930 . S
C173 C169 1.429 . S
C173 C172 1.391 . S
C174 C175 1.363 . S
C174 C180 1.379 . S
C174 N182 1.356 . S
C175 C174 1.363 . S
C175 C181 1.363 . S
C176 C177 1.363 . S
C176 C181 1.379 . S
C176 N183 1.356 . S
C177 C176 1.363 . S
C177 C180 1.363 . S
N178 C180 1.356 . S
N178 H190 0.984 . S
N178 H191 0.985 . S
N179 C181 1.356 . S
N179 H184 0.984 . S
N179 H185 0.985 . S
C180 C174 1.379 . S
C180 C177 1.363 . S
C180 N178 1.356 . S
C181 C175 1.363 . S
C181 C176 1.379 . S
C181 N179 1.356 . S
N182 C174 1.356 . S
N182 H188 0.984 . S
N182 H189 0.984 . S
N183 C176 1.356 . S
N183 H186 0.984 . S
N183 H187 0.985 . S
H184 N179 0.984 . S
H185 N179 0.985 . S
H186 N183 0.984 . S
H187 N183 0.985 . S
H188 N182 0.984 . S
H189 N182 0.984 . S
H190 N178 0.984 . S
H191 N178 0.985 . S
C192 C193 1.363 . S
C192 C198 1.379 . S
C192 N200 1.356 . S
C193 C192 1.363 . S
C193 C199 1.363 . S
C194 C195 1.363 . S
C194 C199 1.379 . S
C194 N201 1.356 . S
C195 C194 1.363 . S
C195 C198 1.363 . S
N196 C198 1.356 . S
N196 H208 0.984 . S
N196 H209 0.985 . S
N197 C199 1.356 . S
N197 H202 0.984 . S
N197 H203 0.985 . S
C198 C192 1.379 . S
C198 C195 1.363 . S
C198 N196 1.356 . S
C199 C193 1.363 . S
C199 C194 1.379 . S
C199 N197 1.356 . S
N200 C192 1.356 . S
N200 H206 0.984 . S
N200 H207 0.984 . S
N201 C194 1.356 . S
N201 H204 0.984 . S
N201 H205 0.985 . S
H202 N197 0.984 . S
H203 N197 0.985 . S
H204 N201 0.984 . S
H205 N201 0.985 . S
H206 N200 0.984 . S
H207 N200 0.984 . S
H208 N196 0.984 . S
H209 N196 0.985 . S
C210 C211 1.363 . S
C210 C216 1.379 . S
C210 N218 1.356 . S
C211 C210 1.363 . S
C211 C217 1.363 . S
C212 C213 1.363 . S
C212 C217 1.379 . S
C212 N219 1.356 . S
C213 C212 1.363 . S
C213 C216 1.363 . S
N214 C216 1.356 . S
N214 H226 0.984 . S
N214 H227 0.985 . S
N215 C217 1.356 . S
N215 H220 0.984 . S
N215 H221 0.985 . S
C216 C210 1.379 . S
C216 C213 1.363 . S
C216 N214 1.356 . S
C217 C211 1.363 . S
C217 C212 1.379 . S
C217 N215 1.356 . S
N218 C210 1.356 . S
N218 H224 0.984 . S
N218 H225 0.984 . S
N219 C212 1.356 . S
N219 H222 0.984 . S
N219 H223 0.985 . S
H220 N215 0.984 . S
H221 N215 0.985 . S
H222 N219 0.984 . S
H223 N219 0.985 . S
H224 N218 0.984 . S
H225 N218 0.984 . S
H226 N214 0.984 . S
H227 N214 0.985 . S
C228 C229 1.363 . S
C228 C234 1.379 . S
C228 N236 1.356 . S
C229 C228 1.363 . S
C229 C235 1.363 . S
C230 C231 1.363 . S
C230 C235 1.379 . S
C230 N237 1.356 . S
C231 C230 1.363 . S
C231 C234 1.363 . S
N232 C234 1.356 . S
N232 H244 0.984 . S
N232 H245 0.985 . S
N233 C235 1.356 . S
N233 H238 0.984 . S
N233 H239 0.985 . S
C234 C228 1.379 . S
C234 C231 1.363 . S
C234 N232 1.356 . S
C235 C229 1.363 . S
C235 C230 1.379 . S
C235 N233 1.356 . S
N236 C228 1.356 . S
N236 H242 0.984 . S
N236 H243 0.984 . S
N237 C230 1.356 . S
N237 H240 0.984 . S
N237 H241 0.985 . S
H238 N233 0.984 . S
H239 N233 0.985 . S
H240 N237 0.984 . S
H241 N237 0.985 . S
H242 N236 0.984 . S
H243 N236 0.984 . S
H244 N232 0.984 . S
H245 N232 0.985 . S
C246 C247 1.363 . S
C246 C252 1.379 . S
C246 N254 1.356 . S
C247 C246 1.363 . S
C247 C253 1.363 . S
C248 C249 1.363 . S
C248 C253 1.379 . S
C248 N255 1.356 . S
C249 C248 1.363 . S
C249 C252 1.363 . S
N250 C252 1.356 . S
N250 H262 0.984 . S
N250 H263 0.985 . S
N251 C253 1.356 . S
N251 H256 0.984 . S
N251 H257 0.985 . S
C252 C246 1.379 . S
C252 C249 1.363 . S
C252 N250 1.356 . S
C253 C247 1.363 . S
C253 C248 1.379 . S
C253 N251 1.356 . S
N254 C246 1.356 . S
N254 H260 0.984 . S
N254 H261 0.984 . S
N255 C248 1.356 . S
N255 H258 0.984 . S
N255 H259 0.985 . S
H256 N251 0.984 . S
H257 N251 0.985 . S
H258 N255 0.984 . S
H259 N255 0.985 . S
H260 N254 0.984 . S
H261 N254 0.984 . S
H262 N250 0.984 . S
H263 N250 0.985 . S
C264 C265 1.363 . S
C264 C270 1.379 . S
C264 N272 1.356 . S
C265 C264 1.363 . S
C265 C271 1.363 . S
C266 C267 1.363 . S
C266 C271 1.379 . S
C266 N273 1.356 . S
C267 C266 1.363 . S
C267 C270 1.363 . S
N268 C270 1.356 . S
N268 H280 0.984 . S
N268 H281 0.985 . S
N269 C271 1.356 . S
N269 H274 0.984 . S
N269 H275 0.985 . S
C270 C264 1.379 . S
C270 C267 1.363 . S
C270 N268 1.356 . S
C271 C265 1.363 . S
C271 C266 1.379 . S
C271 N269 1.356 . S
N272 C264 1.356 . S
N272 H278 0.984 . S
N272 H279 0.984 . S
N273 C266 1.356 . S
N273 H276 0.984 . S
N273 H277 0.985 . S
H274 N269 0.984 . S
H275 N269 0.985 . S
H276 N273 0.984 . S
H277 N273 0.985 . S
H278 N272 0.984 . S
H279 N272 0.984 . S
H280 N268 0.984 . S
H281 N268 0.985 . S
C282 C283 1.363 . S
C282 C288 1.379 . S
C282 N290 1.356 . S
C283 C282 1.363 . S
C283 C289 1.363 . S
C284 C285 1.363 . S
C284 C289 1.379 . S
C284 N291 1.356 . S
C285 C284 1.363 . S
C285 C288 1.363 . S
N286 C288 1.356 . S
N286 H298 0.984 . S
N286 H299 0.985 . S
N287 C289 1.356 . S
N287 H292 0.984 . S
N287 H293 0.985 . S
C288 C282 1.379 . S
C288 C285 1.363 . S
C288 N286 1.356 . S
C289 C283 1.363 . S
C289 C284 1.379 . S
C289 N287 1.356 . S
N290 C282 1.356 . S
N290 H296 0.984 . S
N290 H297 0.984 . S
N291 C284 1.356 . S
N291 H294 0.984 . S
N291 H295 0.985 . S
H292 N287 0.984 . S
H293 N287 0.985 . S
H294 N291 0.984 . S
H295 N291 0.985 . S
H296 N290 0.984 . S
H297 N290 0.984 . S
H298 N286 0.984 . S
H299 N286 0.985 . S
C300 C301 1.363 . S
C300 C306 1.379 . S
C300 N308 1.356 . S
C301 C300 1.363 . S
C301 C307 1.363 . S
C302 C303 1.363 . S
C302 C307 1.379 . S
C302 N309 1.356 1_655 S
C303 C302 1.363 . S
C303 C306 1.363 . S
N304 C306 1.356 . S
N304 H316 0.984 . S
N304 H317 0.985 . S
N305 C307 1.356 . S
N305 H310 0.984 . S
N305 H311 0.985 1_655 S
C306 C300 1.379 . S
C306 C303 1.363 . S
C306 N304 1.356 . S
C307 C301 1.363 . S
C307 C302 1.379 . S
C307 N305 1.356 . S
N308 C300 1.356 . S
N308 H314 0.984 . S
N308 H315 0.984 . S
N309 C302 1.356 1_455 S
N309 H312 0.984 . S
N309 H313 0.985 . S
H310 N305 0.984 . S
H311 N305 0.985 1_455 S
H312 N309 0.984 . S
H313 N309 0.985 . S
H314 N308 0.984 . S
H315 N308 0.984 . S
H316 N304 0.984 . S
H317 N304 0.985 . S
C318 C319 1.363 . S
C318 C324 1.379 . S
C318 N326 1.356 . S
C319 C318 1.363 . S
C319 C325 1.363 . S
C320 C321 1.363 . S
C320 C325 1.379 . S
C320 N327 1.356 . S
C321 C320 1.363 . S
C321 C324 1.363 . S
N322 C324 1.356 1_545 S
N322 H334 0.984 . S
N322 H335 0.985 . S
N323 C325 1.356 . S
N323 H328 0.984 . S
N323 H329 0.985 . S
C324 C318 1.379 . S
C324 C321 1.363 . S
C324 N322 1.356 1_565 S
C325 C319 1.363 . S
C325 C320 1.379 . S
C325 N323 1.356 . S
N326 C318 1.356 . S
N326 H332 0.984 1_565 S
N326 H333 0.984 . S
N327 C320 1.356 . S
N327 H330 0.984 . S
N327 H331 0.985 . S
H328 N323 0.984 . S
H329 N323 0.985 . S
H330 N327 0.984 . S
H331 N327 0.985 . S
H332 N326 0.984 1_545 S
H333 N326 0.984 . S
H334 N322 0.984 . S
H335 N322 0.985 . S
C336 C337 1.363 . S
C336 C342 1.379 . S
C336 N344 1.356 . S
C337 C336 1.363 . S
C337 C343 1.363 . S
C338 C339 1.363 . S
C338 C343 1.379 . S
C338 N345 1.356 . S
C339 C338 1.363 . S
C339 C342 1.363 . S
N340 C342 1.356 . S
N340 H352 0.984 . S
N340 H353 0.985 . S
N341 C343 1.356 . S
N341 H346 0.984 . S
N341 H347 0.985 . S
C342 C336 1.379 . S
C342 C339 1.363 . S
C342 N340 1.356 . S
C343 C337 1.363 . S
C343 C338 1.379 . S
C343 N341 1.356 . S
N344 C336 1.356 . S
N344 H350 0.984 . S
N344 H351 0.984 . S
N345 C338 1.356 . S
N345 H348 0.984 . S
N345 H349 0.985 . S
H346 N341 0.984 . S
H347 N341 0.985 . S
H348 N345 0.984 . S
H349 N345 0.985 . S
H350 N344 0.984 . S
H351 N344 0.984 . S
H352 N340 0.984 . S
H353 N340 0.985 . S
C354 C355 1.363 . S
C354 C360 1.379 . S
C354 N362 1.356 . S
C355 C354 1.363 . S
C355 C361 1.363 . S
C356 C357 1.363 . S
C356 C361 1.379 . S
C356 N363 1.356 . S
C357 C356 1.363 . S
C357 C360 1.363 . S
N358 C360 1.356 . S
N358 H370 0.984 1_455 S
N358 H371 0.985 1_455 S
N359 C361 1.356 . S
N359 H364 0.984 . S
N359 H365 0.985 . S
C360 C354 1.379 . S
C360 C357 1.363 . S
C360 N358 1.356 . S
C361 C355 1.363 . S
C361 C356 1.379 . S
C361 N359 1.356 . S
N362 C354 1.356 . S
N362 H368 0.984 . S
N362 H369 0.984 . S
N363 C356 1.356 . S
N363 H366 0.984 . S
N363 H367 0.985 . S
H364 N359 0.984 . S
H365 N359 0.985 . S
H366 N363 0.984 . S
H367 N363 0.985 . S
H368 N362 0.984 . S
H369 N362 0.984 . S
H370 N358 0.984 1_655 S
H371 N358 0.985 1_655 S
C372 C373 1.363 . S
C372 C378 1.379 . S
C372 N380 1.356 . S
C373 C372 1.363 . S
C373 C379 1.363 . S
C374 C375 1.363 . S
C374 C379 1.379 . S
C374 N381 1.356 . S
C375 C374 1.363 . S
C375 C378 1.363 . S
N376 C378 1.356 . S
N376 H388 0.984 . S
N376 H389 0.985 . S
N377 C379 1.356 . S
N377 H382 0.984 . S
N377 H383 0.985 . S
C378 C372 1.379 . S
C378 C375 1.363 . S
C378 N376 1.356 . S
C379 C373 1.363 . S
C379 C374 1.379 . S
C379 N377 1.356 . S
N380 C372 1.356 . S
N380 H386 0.984 . S
N380 H387 0.984 . S
N381 C374 1.356 . S
N381 H384 0.984 . S
N381 H385 0.985 . S
H382 N377 0.984 . S
H383 N377 0.985 . S
H384 N381 0.984 . S
H385 N381 0.985 . S
H386 N380 0.984 . S
H387 N380 0.984 . S
H388 N376 0.984 . S
H389 N376 0.985 . S
C390 C391 1.363 . S
C390 C396 1.379 1_554 S
C390 N398 1.356 . S
C391 C390 1.363 . S
C391 C397 1.363 1_455 S
C392 C393 1.363 1_654 S
C392 C397 1.379 . S
C392 N399 1.360 . S
C393 C392 1.363 1_456 S
C393 C396 1.363 . S
N394 C396 1.356 . S
N394 H406 0.984 . S
N394 H407 0.985 . S
N395 C397 1.356 . S
N395 H400 0.985 1_655 S
N395 H401 0.985 . S
C396 C390 1.379 1_556 S
C396 C393 1.363 . S
C396 N394 1.356 . S
C397 C391 1.363 1_655 S
C397 C392 1.379 . S
C397 N395 1.356 . S
N398 C390 1.356 . S
N398 H404 0.984 . S
N398 H405 0.984 . S
N399 C392 1.360 . S
N399 H402 0.977 1_554 S
N399 H403 0.988 . S
H400 N395 0.985 1_455 S
H401 N395 0.985 . S
H402 N399 0.977 1_556 S
H403 N399 0.988 . S
H404 N398 0.984 . S
H405 N398 0.984 . S
H406 N394 0.984 . S
H407 N394 0.985 . S
C408 C409 1.363 . S
C408 C414 1.379 . S
C408 N416 1.356 . S
C409 C408 1.363 . S
C409 C415 1.363 1_545 S
C410 C411 1.363 . S
C410 C415 1.379 1_545 S
C410 N417 1.356 1_545 S
C411 C410 1.363 . S
C411 C414 1.363 . S
N412 C414 1.356 . S
N412 H424 0.984 . S
N412 H425 0.985 . S
N413 C415 1.356 . S
N413 H418 0.984 . S
N413 H419 0.985 . S
C414 C408 1.379 . S
C414 C411 1.363 . S
C414 N412 1.356 . S
C415 C409 1.363 1_565 S
C415 C410 1.379 1_565 S
C415 N413 1.356 . S
N416 C408 1.356 . S
N416 H422 0.984 . S
N416 H423 0.984 . S
N417 C410 1.356 1_565 S
N417 H420 0.984 . S
N417 H421 0.985 . S
H418 N413 0.984 . S
H419 N413 0.985 . S
H420 N417 0.984 . S
H421 N417 0.985 . S
H422 N416 0.984 . S
H423 N416 0.984 . S
H424 N412 0.984 . S
H425 N412 0.985 . S
C426 C427 1.363 . S
C426 C432 1.379 . S
C426 N434 1.356 . S
C427 C426 1.363 . S
C427 C433 1.363 . S
C428 C429 1.363 . S
C428 C433 1.379 . S
C428 N435 1.356 . S
C429 C428 1.363 . S
C429 C432 1.363 . S
N430 C432 1.356 . S
N430 H442 0.984 . S
N430 H443 0.985 . S
N431 C433 1.356 . S
N431 H436 0.984 . S
N431 H437 0.985 . S
C432 C426 1.379 . S
C432 C429 1.363 . S
C432 N430 1.356 . S
C433 C427 1.363 . S
C433 C428 1.379 . S
C433 N431 1.356 . S
N434 C426 1.356 . S
N434 H440 0.984 . S
N434 H441 0.984 . S
N435 C428 1.356 . S
N435 H438 0.984 . S
N435 H439 0.985 . S
H436 N431 0.984 . S
H437 N431 0.985 . S
H438 N435 0.984 . S
H439 N435 0.985 . S
H440 N434 0.984 . S
H441 N434 0.984 . S
H442 N430 0.984 . S
H443 N430 0.985 . S
C444 C445 1.363 . S
C444 C450 1.379 . S
C444 N452 1.356 . S
C445 C444 1.363 . S
C445 C451 1.363 1_545 S
C446 C447 1.363 1_565 S
C446 C451 1.379 . S
C446 N453 1.356 . S
C447 C446 1.363 1_545 S
C447 C450 1.363 . S
N448 C450 1.356 . S
N448 H460 0.984 . S
N448 H461 0.985 . S
N449 C451 1.356 . S
N449 H454 0.984 . S
N449 H455 0.985 . S
C450 C444 1.379 . S
C450 C447 1.363 . S
C450 N448 1.356 . S
C451 C445 1.363 1_565 S
C451 C446 1.379 . S
C451 N449 1.356 . S
N452 C444 1.356 . S
N452 H458 0.984 . S
N452 H459 0.984 . S
N453 C446 1.356 . S
N453 H456 0.984 . S
N453 H457 0.985 . S
H454 N449 0.984 . S
H455 N449 0.985 . S
H456 N453 0.984 . S
H457 N453 0.985 . S
H458 N452 0.984 . S
H459 N452 0.984 . S
H460 N448 0.984 . S
H461 N448 0.985 . S
C462 C463 1.363 . S
C462 C468 1.379 . S
C462 N470 1.356 . S
C463 C462 1.363 . S
C463 C469 1.363 . S
C464 C465 1.363 1_556 S
C464 C469 1.379 . S
C464 N471 1.356 1_556 S
C465 C464 1.363 1_554 S
C465 C468 1.363 1_554 S
N466 C468 1.356 1_554 S
N466 H478 0.984 . S
N466 H479 0.985 . S
N467 C469 1.356 . S
N467 H472 0.984 . S
N467 H473 0.985 . S
C468 C462 1.379 . S
C468 C465 1.363 1_556 S
C468 N466 1.356 1_556 S
C469 C463 1.363 . S
C469 C464 1.379 . S
C469 N467 1.356 . S
N470 C462 1.356 . S
N470 H476 0.984 . S
N470 H477 0.984 . S
N471 C464 1.356 1_554 S
N471 H474 0.984 . S
N471 H475 0.985 . S
H472 N467 0.984 . S
H473 N467 0.985 . S
H474 N471 0.984 . S
H475 N471 0.985 . S
H476 N470 0.984 . S
H477 N470 0.984 . S
H478 N466 0.984 . S
H479 N466 0.985 . S
C480 C481 1.363 1_655 S
C480 C486 1.379 . S
C480 N488 1.356 . S
C481 C480 1.363 1_455 S
C481 C487 1.363 . S
C482 C483 1.363 . S
C482 C487 1.379 . S
C482 N489 1.356 . S
C483 C482 1.363 . S
C483 C486 1.363 1_455 S
N484 C486 1.356 . S
N484 H496 0.984 . S
N484 H497 0.985 . S
N485 C487 1.356 . S
N485 H490 0.984 . S
N485 H491 0.985 . S
C486 C480 1.379 . S
C486 C483 1.363 1_655 S
C486 N484 1.356 . S
C487 C481 1.363 . S
C487 C482 1.379 . S
C487 N485 1.356 . S
N488 C480 1.356 . S
N488 H494 0.984 . S
N488 H495 0.984 . S
N489 C482 1.356 . S
N489 H492 0.984 . S
N489 H493 0.985 . S
H490 N485 0.984 . S
H491 N485 0.985 . S
H492 N489 0.984 . S
H493 N489 0.985 . S
H494 N488 0.984 . S
H495 N488 0.984 . S
H496 N484 0.984 . S
H497 N484 0.985 . S
C175 C19 2.950 . S
C177 C169 2.955 . S
C193 C49 3.042 . S
C195 C151 3.014 1_655 S
C211 C99 2.940 . S
C213 C163 2.934 . S
C229 C9 3.032 . S
C231 C172 2.994 . S
C249 C154 2.934 . S
C247 C59 2.940 . S
C267 C160 3.014 . S
C265 C89 3.042 . S
C283 C55 0.929 . S
C285 C133 0.995 . S
C301 C85 0.971 . S
C303 C142 1.131 . S
C319 C15 0.926 . S
C321 C124 0.992 1_565 S
C339 C136 1.130 . S
C337 C45 0.963 . S
C357 C145 0.984 . S
C355 C95 0.919 . S
C373 C5 0.964 . S
C375 C127 1.131 . S
C393 C143 0.877 . S
C391 C18 0.877 . S
C409 C58 0.878 . S
C411 C125 0.879 . S
C427 C98 0.879 . S
C429 C134 0.880 . S
C447 C161 1.848 . S
C445 C48 1.744 . S
C465 C170 1.847 . S
C463 C88 1.745 . S
C481 C8 1.744 . S
C483 C152 1.849 . S
