# Generated by pormake.
# Topology pts, (4,4)-cn, num edge types: 1
# Building blocks:
#     Node 0, Type 0, BuildingBlock: MIFKUJ_clean_linker_1, # of connection points: 4
#     Node 1, Type 0, BuildingBlock: MIFKUJ_clean_linker_1, # of connection points: 4
#     Node 2, Type 1, BuildingBlock: UXUYUI_clean_sbu_0, # of connection points: 4
#     Node 3, Type 1, BuildingBlock: UXUYUI_clean_sbu_0, # of connection points: 4
#     Edge 4, Type (0, 1), BuildingBlock: AJUNOK_clean_linker_0, # of connection points: 2
#     Edge 5, Type (0, 1), BuildingBlock: AJUNOK_clean_linker_0, # of connection points: 2
#     Edge 6, Type (0, 1), BuildingBlock: AJUNOK_clean_linker_0, # of connection points: 2
#     Edge 7, Type (0, 1), BuildingBlock: AJUNOK_clean_linker_0, # of connection points: 2
#     Edge 8, Type (0, 1), BuildingBlock: AJUNOK_clean_linker_0, # of connection points: 2
#     Edge 9, Type (0, 1), BuildingBlock: AJUNOK_clean_linker_0, # of connection points: 2
#     Edge 10, Type (0, 1), BuildingBlock: AJUNOK_clean_linker_0, # of connection points: 2
#     Edge 11, Type (0, 1), BuildingBlock: AJUNOK_clean_linker_0, # of connection points: 2
# Relax obj value: 0.001
# Max RMSD: 0.016
# Mean RMSD: 0.014
data_MOF--net-pts--node1-UXUYUI_clean_sbu_0--node2-MIFKUJ_clean_linker_1--edge1-AJUNOK_clean_linker_0
_symmetry_space_group_name_H-M    P1
_symmetry_Int_Tables_number       1
_symmetry_cell_setting            triclinic
loop_
_symmetry_equiv_pos_as_xyz
'x, y, z'
_cell_length_a     29.31511
_cell_length_b     29.301376
_cell_length_c     39.918184
_cell_angle_alpha  89.981333
_cell_angle_beta   90.003721
_cell_angle_gamma 89.903342
loop_
_atom_site_label
_atom_site_type_symbol
_atom_site_fract_x
_atom_site_fract_y
_atom_site_fract_z
_atom_type_partial_charge
H0 H 0.58808 0.94194 0.06814 0.0
H1 H 0.65827 0.94104 0.10169 0.0
H2 H 0.68988 0.07716 0.06758 0.0
H3 H 0.61969 0.07796 0.03407 0.0
H4 H 0.51491 1.00586 0.07382 0.0
H5 H 0.61352 0.94575 0.98218 0.0
H6 H 0.68145 0.94613 0.94641 0.0
H7 H 0.66139 0.0901 0.92761 0.0
H8 H 0.59208 0.0886 0.96176 0.0
H9 H 0.44547 0.07545 0.94608 0.0
H10 H 0.37655 0.07333 0.91169 0.0
H11 H 0.33157 0.95305 0.9648 0.0
H12 H 0.40194 0.95344 0.99751 0.0
H13 H 0.51354 0.02079 0.95004 0.0
H14 H 0.40179 0.07254 0.02785 0.0
H15 H 0.33127 0.07138 0.06073 0.0
H16 H 0.37749 0.95005 0.11184 0.0
H17 H 0.44744 0.95029 0.07823 0.0
C18 C 0.59898 0.00984 0.04844 0.0
C19 C 0.61032 0.97143 0.06773 0.0
C20 C 0.65041 0.97085 0.0867 0.0
C21 C 0.67947 0.00892 0.08694 0.0
C22 C 0.66799 0.04741 0.06771 0.0
C23 C 0.62815 0.04778 0.04848 0.0
C24 C 0.55577 0.01098 0.02926 0.0
C25 C 0.51434 0.00851 0.04671 0.0
C26 C 0.55529 0.01605 0.99414 0.0
C27 C 0.59784 0.01707 0.97433 0.0
C28 C 0.62384 0.97728 0.97021 0.0
C29 C 0.66266 0.97764 0.94988 0.0
C30 C 0.67639 0.01795 0.93358 0.0
C31 C 0.65093 0.05811 0.93876 0.0
C32 C 0.61163 0.05749 0.95857 0.0
C33 C 0.42892 0.01479 0.97459 0.0
C34 C 0.42097 0.04837 0.95015 0.0
C35 C 0.38137 0.04735 0.93068 0.0
C36 C 0.34878 0.01277 0.93527 0.0
C37 C 0.35647 0.97953 0.96008 0.0
C38 C 0.3964 0.98017 0.97921 0.0
C39 C 0.47187 0.01528 0.99445 0.0
C40 C 0.51352 0.01819 0.97716 0.0
C41 C 0.47228 0.01113 0.02988 0.0
C42 C 0.42969 0.01104 0.05011 0.0
C43 C 0.39655 0.04526 0.04575 0.0
C44 C 0.35635 0.04468 0.06456 0.0
C45 C 0.34897 0.01038 0.08852 0.0
C46 C 0.38249 0.9768 0.09347 0.0
C47 C 0.42241 0.977 0.07434 0.0
H48 H 0.07825 0.44282 0.44912 0.0
H49 H 0.07866 0.37184 0.41665 0.0
H50 H 0.95045 0.33328 0.46171 0.0
H51 H 0.95039 0.40397 0.49431 0.0
H52 H 0.01799 0.51289 0.44929 0.0
H53 H 0.07816 0.4081 0.53173 0.0
H54 H 0.08023 0.3383 0.5657 0.0
H55 H 0.94708 0.37045 0.6054 0.0
H56 H 0.94513 0.44038 0.5715 0.0
H57 H 0.95029 0.58163 0.57749 0.0
H58 H 0.95256 0.65062 0.61189 0.0
H59 H 0.07176 0.69624 0.55787 0.0
H60 H 0.07123 0.62591 0.52517 0.0
H61 H 1.00645 0.51388 0.57327 0.0
H62 H 0.94841 0.62183 0.49199 0.0
H63 H 0.94862 0.69221 0.45861 0.0
H64 H 0.07818 0.65363 0.41565 0.0
H65 H 0.07808 0.58355 0.44918 0.0
C66 C 0.01461 0.42841 0.47445 0.0
C67 C 0.05032 0.41898 0.45207 0.0
C68 C 0.05051 0.3785 0.43354 0.0
C69 C 0.01491 0.34677 0.43701 0.0
C70 C 0.97893 0.35652 0.45917 0.0
C71 C 0.97879 0.39696 0.47772 0.0
C72 C 0.01425 0.4716 0.49384 0.0
C73 C 0.016 0.51317 0.47643 0.0
C74 C 0.01058 0.47197 0.52915 0.0
C75 C 0.01143 0.42929 0.54907 0.0
C76 C 0.04935 0.40001 0.54765 0.0
C77 C 0.05062 0.36039 0.56713 0.0
C78 C 0.0139 0.34934 0.58821 0.0
C79 C 0.97573 0.37831 0.58927 0.0
C80 C 0.97468 0.41822 0.57008 0.0
C81 C 0.01033 0.5986 0.54847 0.0
C82 C 0.9771 0.60635 0.57319 0.0
C83 C 0.97823 0.64595 0.59268 0.0
C84 C 0.0126 0.67871 0.58786 0.0
C85 C 0.04544 0.67123 0.56276 0.0
C86 C 0.04467 0.63134 0.54359 0.0
C87 C 0.01003 0.55551 0.52877 0.0
C88 C 0.00818 0.51382 0.54612 0.0
C89 C 0.01357 0.5551 0.49337 0.0
C90 C 0.01345 0.59769 0.47328 0.0
C91 C 0.97699 0.6287 0.47555 0.0
C92 C 0.97702 0.66869 0.45642 0.0
C93 C 0.01364 0.67844 0.4349 0.0
C94 C 0.04992 0.64723 0.43248 0.0
C95 C 0.04972 0.60711 0.4514 0.0
Li96 Li 0.01457 0.05389 0.28508 0.0
Li97 Li 0.0114 0.97064 0.28253 0.0
Li98 Li 0.05437 0.01417 0.23847 0.0
Li99 Li 0.9705 0.0123 0.24004 0.0
C100 C 0.10597 0.02564 0.30136 0.0
N101 N 0.18646 0.05725 0.32893 0.0
C102 C 0.12219 1.00737 0.33146 0.0
C103 C 0.13114 0.05944 0.28503 0.0
C104 C 0.1628 0.02398 0.34509 0.0
C105 C 0.17163 0.0751 0.29941 0.0
C106 C 0.93704 0.99394 0.31503 0.0
C107 C 0.88741 0.93498 0.33607 0.0
N108 N 0.89329 0.95126 0.36768 0.0
C109 C 0.94236 0.0103 0.34768 0.0
C110 C 0.9091 0.95621 0.30909 0.0
C111 C 0.92001 0.98818 0.37398 0.0
C112 C 0.98967 0.14274 0.30481 0.0
N113 N 0.0149 0.10578 0.31389 0.0
C114 C 0.03937 0.14346 0.36386 0.0
C115 C 0.03913 0.10528 0.34294 0.0
C116 C 0.01392 0.18227 0.355 0.0
C117 C 0.9889 0.18165 0.325 0.0
H118 H 0.9702 0.14197 0.2818 0.0
H119 H 0.05808 0.07518 0.35003 0.0
C120 C 1.00381 0.87573 0.29669 0.0
N121 N 0.01186 0.91754 0.31019 0.0
C122 C 1.00369 0.83693 0.31704 0.0
C123 C 0.02049 0.88489 0.36471 0.0
C124 C 0.02006 0.92276 0.34349 0.0
C125 C 0.01247 0.84128 0.35146 0.0
H126 H 0.99763 0.87247 0.27012 0.0
H127 H 0.02595 0.95646 0.3536 0.0
C128 C 0.0222 0.10562 0.21965 0.0
N129 N 0.04445 0.18537 0.18642 0.0
C130 C 1.0024 0.11569 0.18864 0.0
C131 C 0.05278 0.13657 0.23397 0.0
C132 C 0.01426 0.15603 0.17216 0.0
C133 C 0.06372 0.17657 0.21674 0.0
C134 C 0.99602 0.93701 0.20686 0.0
C135 C 0.01768 0.93875 0.17569 0.0
C136 C 0.95585 0.91183 0.2105 0.0
C137 C 0.99841 0.9157 0.14853 0.0
C138 C 0.93761 0.88936 0.18271 0.0
N139 N 0.95908 0.89177 0.15255 0.0
C140 C 0.14131 0.9849 0.21799 0.0
C141 C 0.10912 0.04142 0.18267 0.0
C142 C 0.18046 0.98293 0.19806 0.0
N143 N 0.10675 0.01395 0.21007 0.0
C144 C 0.14775 0.04086 0.16224 0.0
C145 C 0.18396 0.01108 0.16968 0.0
H146 H 0.13837 0.9632 0.23981 0.0
H147 H 0.08108 0.06369 0.17649 0.0
C148 C 0.87547 0.01489 0.22651 0.0
N149 N 0.91756 0.01386 0.21221 0.0
C150 C 0.83639 0.0143 0.20646 0.0
C151 C 0.88471 0.01194 0.15742 0.0
C152 C 0.92279 0.01312 0.17836 0.0
C153 C 0.84089 0.01219 0.17149 0.0
H154 H 0.87226 0.01591 0.25347 0.0
H155 H 0.95661 0.01301 0.1676 0.0
O156 O 0.06621 0.00968 0.28773 0.0
O157 O 0.95939 0.01456 0.28906 0.0
O158 O 0.01082 0.06621 0.2361 0.0
O159 O 0.01406 0.95988 0.23362 0.0
H160 H 0.10357 0.98076 0.34427 0.0
H161 H 0.11997 0.07303 0.26129 0.0
H162 H 0.17556 0.01034 0.36847 0.0
H163 H 0.19138 0.1013 0.28703 0.0
H164 H 0.86595 0.90553 0.33188 0.0
H165 H 0.96382 0.03949 0.3527 0.0
H166 H 0.90455 0.9432 0.28397 0.0
H167 H 0.92402 1.00029 0.3994 0.0
H168 H 0.05965 0.14277 0.38653 0.0
H169 H 0.96862 0.21082 0.31741 0.0
H170 H 0.99749 0.80378 0.30594 0.0
H171 H 0.0266 0.88968 0.39124 0.0
H172 H 0.97831 0.09253 0.17729 0.0
H173 H 0.06749 0.13022 0.25832 0.0
H174 H 0.9994 0.16404 0.14806 0.0
H175 H 0.08737 0.20074 0.22755 0.0
H176 H 0.04886 0.95792 0.17243 0.0
H177 H 0.93861 0.91018 0.23441 0.0
H178 H 0.01468 0.91694 0.12422 0.0
H179 H 0.90632 0.87012 0.18509 0.0
H180 H 0.20751 0.95934 0.20462 0.0
H181 H 0.14939 0.06386 0.14104 0.0
H182 H 0.80303 0.01471 0.21812 0.0
H183 H 0.88943 0.01112 0.13051 0.0
Li184 Li 0.97102 0.01594 0.78264 0.0
Li185 Li 0.05504 0.01278 0.78454 0.0
Li186 Li 0.01299 0.05695 0.7399 0.0
Li187 Li 0.01508 0.97306 0.73799 0.0
C188 C 0.99804 0.0935 0.81431 0.0
N189 N 0.96305 0.1457 0.8659 0.0
C190 C 0.01914 0.09324 0.84572 0.0
C191 C 0.95949 0.12068 0.80902 0.0
C192 C 1.00085 0.1198 0.87151 0.0
C193 C 0.94221 0.1467 0.83546 0.0
C194 C 0.02084 0.92245 0.80401 0.0
C195 C 0.06139 0.85104 0.80857 0.0
N196 N 0.0408 0.84316 0.83855 0.0
C197 C 0.99975 0.91346 0.83471 0.0
C198 C 0.05165 0.89086 0.79069 0.0
C199 C 0.01043 0.87325 0.85185 0.0
C200 C 0.87648 0.00807 0.79491 0.0
N201 N 0.91755 0.015 0.80983 0.0
C202 C 0.88192 0.02181 0.86346 0.0
C203 C 0.92101 0.02079 0.84352 0.0
C204 C 0.83882 0.01566 0.84873 0.0
C205 C 0.83654 0.00781 0.81401 0.0
H206 H 0.87476 1.00248 0.76816 0.0
H207 H 0.95415 0.02479 0.85495 0.0
C208 C 0.14243 0.04043 0.80503 0.0
N209 N 0.10738 0.01205 0.81291 0.0
C210 C 0.18183 0.04114 0.82473 0.0
C211 C 0.14823 0.98359 0.86038 0.0
C212 C 0.10931 0.98438 0.84024 0.0
C213 C 0.18512 0.01205 0.85255 0.0
H214 H 0.13978 0.06237 0.78331 0.0
H215 H 0.08069 0.96305 0.84662 0.0
C216 C 0.93629 0.03242 0.70794 0.0
N217 N 0.88749 0.07118 0.65601 0.0
C218 C 0.93922 0.01408 0.6757 0.0
C219 C 0.90812 0.07007 0.71389 0.0
C220 C 0.91437 0.03427 0.64975 0.0
C221 C 0.88387 0.08931 0.68727 0.0
C222 C 0.1068 1.00265 0.72097 0.0
C223 C 0.12183 0.02308 0.69133 0.0
C224 C 0.13302 0.96836 0.73589 0.0
C225 C 0.16265 0.00836 0.67683 0.0
C226 C 0.17367 0.95462 0.72064 0.0
N227 N 0.1875 0.9747 0.69165 0.0
C228 C 0.01558 0.15197 0.72692 0.0
C229 C 0.01503 0.10523 0.67845 0.0
C230 C 0.0165 0.1913 0.70716 0.0
N231 N 0.01458 0.11006 0.71233 0.0
C232 C 0.01523 0.14365 0.65774 0.0
C233 C 0.01617 0.18728 0.67214 0.0
H234 H 0.0158 0.15486 0.7539 0.0
H235 H 0.01528 0.07151 0.6675 0.0
C236 C 0.98673 0.8857 0.71785 0.0
N237 N 0.01521 0.9206 0.70979 0.0
C238 C 0.98572 0.84621 0.69825 0.0
C239 C 0.0431 0.87946 0.66229 0.0
C240 C 0.04262 0.91849 0.68234 0.0
C241 C 0.01457 0.84267 0.67033 0.0
H242 H 0.96497 0.88852 0.73963 0.0
H243 H 0.06396 0.94708 0.67582 0.0
O244 O 0.01534 0.06755 0.78884 0.0
O245 O 0.01071 0.96169 0.78696 0.0
O246 O 0.96071 0.01343 0.73358 0.0
O247 O 0.06685 0.01669 0.73539 0.0
H248 H 0.04912 0.07253 0.85018 0.0
H249 H 0.94296 0.12146 0.78481 0.0
H250 H 0.01666 0.11978 0.89599 0.0
H251 H 0.91222 0.16767 0.83179 0.0
H252 H 0.08522 0.82633 0.79857 0.0
H253 H 0.9756 0.93739 0.84529 0.0
H254 H 0.06759 0.89673 0.76667 0.0
H255 H 0.99456 0.86598 0.87572 0.0
H256 H 0.88541 0.02775 0.89011 0.0
H257 H 0.80435 1.00106 0.8017 0.0
H258 H 0.20968 0.06362 0.81805 0.0
H259 H 0.14934 0.96132 0.88203 0.0
H260 H 0.96076 0.98483 0.67073 0.0
H261 H 0.90518 0.08436 0.73877 0.0
H262 H 0.91651 0.02063 0.62461 0.0
H263 H 0.86214 0.11864 0.69145 0.0
H264 H 0.10206 0.04988 0.67957 0.0
H265 H 0.12239 0.9528 0.75913 0.0
H266 H 0.1746 0.02371 0.6538 0.0
H267 H 0.19429 0.92809 0.73191 0.0
H268 H 0.01697 0.22451 0.71908 0.0
H269 H 0.0153 0.13937 0.63078 0.0
H270 H 0.96319 0.81846 0.70509 0.0
H271 H 0.06516 0.8782 0.64054 0.0
C272 C 0.30883 0.00995 0.14378 0.0
C273 C 0.30653 0.00988 0.10861 0.0
C274 C 0.26907 0.01016 0.1633 0.0
C275 C 0.22555 0.00994 0.14835 0.0
H276 H 0.34164 0.01059 0.15628 0.0
H277 H 0.27246 0.01123 0.19031 0.0
S278 S 0.20151 1.00523 0.05708 0.0
N279 N 0.25771 1.00712 0.05954 0.0
N280 N 0.18285 1.00645 0.09611 0.0
C281 C 0.22293 0.0088 0.11313 0.0
C282 C 0.26343 0.00901 0.0933 0.0
C283 C 0.9809 0.27492 0.60702 0.0
C284 C 0.01554 0.30791 0.60943 0.0
C285 C 0.98167 0.23561 0.62709 0.0
C286 C 0.01664 0.22847 0.65065 0.0
H287 H 0.95322 0.27943 0.58933 0.0
H288 H 0.9544 0.21095 0.62453 0.0
S289 S 0.11506 0.30464 0.66668 0.0
N290 N 0.08573 0.33085 0.63701 0.0
N291 N 0.08687 0.25721 0.67503 0.0
C292 C 0.05137 0.26122 0.65333 0.0
C293 C 0.05093 0.30087 0.6326 0.0
C294 C 0.72759 0.04399 0.13175 0.0
C295 C 0.72104 0.00911 0.10804 0.0
C296 C 0.76623 0.04449 0.15246 0.0
C297 C 0.79999 0.01055 0.14975 0.0
H298 H 0.70236 0.07078 0.13458 0.0
H299 H 0.77001 0.0719 0.17045 0.0
S300 S 0.79913 0.91208 0.09144 0.0
N301 N 0.75147 0.93993 0.08294 0.0
N302 N 0.82435 0.94106 0.1217 0.0
C303 C 0.79397 0.97565 0.12602 0.0
C304 C 0.75439 0.97484 0.10524 0.0
C305 C 0.9737 0.7452 0.61543 0.0
C306 C 0.01403 0.72048 0.60903 0.0
C307 C 0.97406 0.78452 0.63545 0.0
C308 C 0.01483 0.8008 0.64956 0.0
H309 H 0.94163 0.73436 0.60458 0.0
H310 H 0.94234 0.8027 0.63955 0.0
S311 S 0.12897 0.74702 0.64286 0.0
N312 N 0.09537 0.71383 0.62035 0.0
N313 N 0.09605 0.78838 0.65724 0.0
C314 C 0.05527 0.77635 0.64369 0.0
C315 C 0.05489 0.73607 0.6236 0.0
C316 C 0.28224 0.05205 0.90807 0.0
C317 C 0.30697 0.01161 0.91415 0.0
C318 C 0.24303 0.05201 0.88794 0.0
C319 C 0.22686 0.01146 0.87343 0.0
H320 H 0.29303 0.08397 0.91921 0.0
H321 H 0.22487 0.08381 0.88406 0.0
S322 S 0.28054 0.89716 0.87934 0.0
N323 N 0.31364 0.93041 0.9022 0.0
N324 N 0.23926 0.93032 0.86514 0.0
C325 C 0.25125 0.9709 0.87904 0.0
C326 C 0.29143 0.97096 0.89923 0.0
C327 C 0.02252 0.30627 0.38206 0.0
C328 C 0.0148 0.3042 0.41682 0.0
C329 C 0.02193 0.26674 0.3623 0.0
C330 C 0.01395 0.22357 0.37657 0.0
H331 H 0.02854 0.33881 0.36995 0.0
H332 H 0.02822 0.26996 0.33566 0.0
S333 S 0.99213 0.19958 0.46643 0.0
N334 N 0.99958 0.25539 0.46478 0.0
N335 N 0.99763 0.18116 0.42755 0.0
C336 C 1.00627 0.22099 0.41131 0.0
C337 C 1.0068 0.26127 0.43143 0.0
C338 C 0.75733 0.99531 0.92147 0.0
C339 C 0.71722 0.0179 0.91136 0.0
C340 C 0.79623 0.99464 0.90106 0.0
C341 C 0.79679 0.01673 0.86972 0.0
H342 H 0.75889 0.97827 0.94553 0.0
H343 H 0.82603 0.9763 0.90986 0.0
S344 S 0.70053 0.08074 0.83147 0.0
N345 N 0.68003 0.06184 0.86738 0.0
N346 N 0.75387 0.06276 0.8299 0.0
C347 C 0.75696 0.03965 0.85935 0.0
C348 C 0.71712 0.03982 0.87996 0.0
C349 C 0.97636 0.73078 0.39354 0.0
C350 C 0.01363 0.72071 0.41448 0.0
C351 C 0.9763 0.76978 0.37315 0.0
C352 C 0.0132 0.80041 0.37338 0.0
H353 H 0.94738 0.70793 0.3925 0.0
H354 H 0.94703 0.77619 0.35724 0.0
S355 S 0.11851 0.78998 0.42433 0.0
N356 N 0.08799 0.74478 0.43467 0.0
N357 N 0.0879 0.8181 0.39636 0.0
C358 C 0.05043 0.79098 0.3945 0.0
C359 C 0.05067 0.75109 0.415 0.0
loop_
_geom_bond_atom_site_label_1
_geom_bond_atom_site_label_2
_geom_bond_distance
_geom_bond_site_symmetry_2
_ccdc_geom_bond_type
H0 C19 0.949 . S
H1 C20 0.950 . S
H2 C22 0.950 . S
H3 C23 0.950 . S
H4 C25 0.950 1_565 S
H5 C28 0.950 . S
H6 C29 0.950 . S
H7 C31 0.951 . S
H8 C32 0.949 . S
H9 C34 0.949 . S
H10 C35 0.950 . S
H11 C37 0.950 . S
H12 C38 0.950 . S
H13 C40 0.950 . S
H14 C43 0.950 . S
H15 C44 0.950 . S
H16 C46 0.951 . S
H17 C47 0.949 . S
C18 C19 1.376 1_545 S
C18 C23 1.386 . S
C18 C24 1.483 . S
C19 H0 0.949 . S
C19 C18 1.376 1_565 S
C19 C20 1.397 . S
C20 H1 0.950 . S
C20 C19 1.397 . S
C20 C21 1.391 1_565 S
C21 C20 1.391 1_545 S
C21 C22 1.405 . S
C22 H2 0.950 . S
C22 C21 1.405 . S
C22 C23 1.367 . S
C23 H3 0.950 . S
C23 C18 1.386 . S
C23 C22 1.367 . S
C24 C18 1.483 . S
C24 C25 1.381 . S
C24 C26 1.403 1_554 S
C25 H4 0.950 1_545 S
C25 C24 1.381 . S
C25 C41 1.411 . S
C26 C24 1.403 1_556 S
C26 C27 1.489 . S
C26 C40 1.411 . S
C27 C26 1.489 . S
C27 C28 1.383 1_545 S
C27 C32 1.382 . S
C28 H5 0.950 . S
C28 C27 1.383 1_565 S
C28 C29 1.395 . S
C29 H6 0.950 . S
C29 C28 1.395 . S
C29 C30 1.288 1_565 S
C30 C29 1.288 1_545 S
C30 C31 1.392 . S
C31 H7 0.951 . S
C31 C30 1.392 . S
C31 C32 1.392 . S
C32 H8 0.949 . S
C32 C27 1.382 . S
C32 C31 1.392 . S
C33 C34 1.376 . S
C33 C38 1.386 1_545 S
C33 C39 1.483 . S
C34 H9 0.949 . S
C34 C33 1.376 . S
C34 C35 1.397 . S
C35 H10 0.950 . S
C35 C34 1.397 . S
C35 C36 1.391 . S
C36 C35 1.391 . S
C36 C37 1.405 1_545 S
C37 H11 0.950 . S
C37 C36 1.405 1_565 S
C37 C38 1.367 . S
C38 H12 0.950 . S
C38 C33 1.386 1_565 S
C38 C37 1.367 . S
C39 C33 1.483 . S
C39 C40 1.382 . S
C39 C41 1.403 1_556 S
C40 H13 0.950 . S
C40 C26 1.411 . S
C40 C39 1.382 . S
C41 C25 1.411 . S
C41 C39 1.403 1_554 S
C41 C42 1.489 . S
C42 C41 1.489 . S
C42 C43 1.383 . S
C42 C47 1.382 1_545 S
C43 H14 0.950 . S
C43 C42 1.383 . S
C43 C44 1.395 . S
C44 H15 0.950 . S
C44 C43 1.395 . S
C44 C45 1.288 . S
C45 C44 1.288 . S
C45 C46 1.392 1_545 S
C46 H16 0.951 . S
C46 C45 1.392 1_565 S
C46 C47 1.392 . S
C47 H17 0.949 . S
C47 C42 1.382 1_565 S
C47 C46 1.392 . S
H48 C67 0.949 . S
H49 C68 0.950 . S
H50 C70 0.950 . S
H51 C71 0.950 . S
H52 C73 0.950 . S
H53 C76 0.950 . S
H54 C77 0.950 . S
H55 C79 0.951 . S
H56 C80 0.949 . S
H57 C82 0.949 . S
H58 C83 0.950 . S
H59 C85 0.950 . S
H60 C86 0.950 . S
H61 C88 0.950 1_655 S
H62 C91 0.950 . S
H63 C92 0.950 . S
H64 C94 0.951 . S
H65 C95 0.949 . S
C66 C67 1.376 . S
C66 C71 1.386 1_455 S
C66 C72 1.483 . S
C67 H48 0.949 . S
C67 C66 1.376 . S
C67 C68 1.397 . S
C68 H49 0.950 . S
C68 C67 1.397 . S
C68 C69 1.391 . S
C69 C68 1.391 . S
C69 C70 1.405 1_455 S
C70 H50 0.950 . S
C70 C69 1.405 1_655 S
C70 C71 1.367 . S
C71 H51 0.950 . S
C71 C66 1.386 1_655 S
C71 C70 1.367 . S
C72 C66 1.483 . S
C72 C73 1.382 . S
C72 C74 1.403 . S
C73 H52 0.950 . S
C73 C72 1.382 . S
C73 C89 1.411 . S
C74 C72 1.403 . S
C74 C75 1.489 . S
C74 C88 1.411 . S
C75 C74 1.489 . S
C75 C76 1.383 . S
C75 C80 1.382 1_455 S
C76 H53 0.950 . S
C76 C75 1.383 . S
C76 C77 1.395 . S
C77 H54 0.950 . S
C77 C76 1.395 . S
C77 C78 1.288 . S
C78 C77 1.288 . S
C78 C79 1.392 1_455 S
C79 H55 0.951 . S
C79 C78 1.392 1_655 S
C79 C80 1.392 . S
C80 H56 0.949 . S
C80 C75 1.382 1_655 S
C80 C79 1.392 . S
C81 C82 1.376 1_455 S
C81 C86 1.386 . S
C81 C87 1.483 . S
C82 H57 0.949 . S
C82 C81 1.376 1_655 S
C82 C83 1.397 . S
C83 H58 0.950 . S
C83 C82 1.397 . S
C83 C84 1.391 1_655 S
C84 C83 1.391 1_455 S
C84 C85 1.405 . S
C85 H59 0.950 . S
C85 C84 1.405 . S
C85 C86 1.367 . S
C86 H60 0.950 . S
C86 C81 1.386 . S
C86 C85 1.367 . S
C87 C81 1.483 . S
C87 C88 1.381 . S
C87 C89 1.403 . S
C88 H61 0.950 1_455 S
C88 C74 1.411 . S
C88 C87 1.381 . S
C89 C73 1.411 . S
C89 C87 1.403 . S
C89 C90 1.489 . S
C90 C89 1.489 . S
C90 C91 1.383 1_455 S
C90 C95 1.382 . S
C91 H62 0.950 . S
C91 C90 1.383 1_655 S
C91 C92 1.395 . S
C92 H63 0.950 . S
C92 C91 1.395 . S
C92 C93 1.288 1_655 S
C93 C92 1.288 1_455 S
C93 C94 1.392 . S
C94 H64 0.951 . S
C94 C93 1.392 . S
C94 C95 1.392 . S
C95 H65 0.949 . S
C95 C90 1.382 . S
C95 C94 1.392 . S
Li96 N113 1.990 . S
Li96 O156 1.956 . S
Li96 O157 1.970 1_455 S
Li96 O158 1.961 . S
Li97 N121 1.990 . S
Li97 O156 1.970 1_565 S
Li97 O157 1.956 1_465 S
Li97 O159 1.961 . S
Li98 N143 1.990 . S
Li98 O156 1.961 . S
Li98 O158 1.956 . S
Li98 O159 1.970 1_545 S
Li99 N149 1.990 . S
Li99 O157 1.961 . S
Li99 O158 1.970 1_655 S
Li99 O159 1.956 1_645 S
C100 C102 1.348 1_545 S
C100 C103 1.356 . S
C100 O156 1.325 . S
N101 C104 1.314 1_545 S
N101 C105 1.279 . S
C102 C100 1.348 1_565 S
C102 C104 1.353 . S
C102 H160 0.929 . S
C103 C100 1.356 . S
C103 C105 1.358 . S
C103 H161 0.930 . S
C104 N101 1.314 1_565 S
C104 C102 1.353 . S
C104 H162 0.930 . S
C105 N101 1.279 . S
C105 C103 1.358 . S
C105 H163 0.930 . S
C106 C109 1.348 . S
C106 C110 1.356 1_545 S
C106 O157 1.325 . S
C107 N108 1.279 1_565 S
C107 C110 1.358 . S
C107 H164 0.930 . S
N108 C107 1.279 1_545 S
N108 C111 1.314 . S
C109 C106 1.348 . S
C109 C111 1.353 . S
C109 H165 0.929 . S
C110 C106 1.356 1_565 S
C110 C107 1.358 . S
C110 H166 0.930 . S
C111 N108 1.314 . S
C111 C109 1.353 . S
C111 H167 0.930 . S
C112 N113 1.314 1_655 S
C112 C117 1.353 . S
C112 H118 0.930 . S
N113 Li96 1.990 . S
N113 C112 1.314 1_455 S
N113 C115 1.279 . S
C114 C115 1.358 . S
C114 C116 1.356 . S
C114 H168 0.930 . S
C115 N113 1.279 . S
C115 C114 1.358 . S
C115 H119 0.930 . S
C116 C114 1.356 . S
C116 C117 1.348 1_455 S
C117 C112 1.353 . S
C117 C116 1.348 1_655 S
C117 H169 0.929 . S
H118 C112 0.930 . S
H119 C115 0.930 . S
C120 N121 1.314 . S
C120 C122 1.353 . S
C120 H126 0.930 . S
N121 Li97 1.990 . S
N121 C120 1.314 . S
N121 C124 1.279 1_455 S
C122 C120 1.353 . S
C122 C125 1.348 . S
C122 H170 0.929 . S
C123 C124 1.358 . S
C123 C125 1.356 1_655 S
C123 H171 0.930 . S
C124 N121 1.279 1_655 S
C124 C123 1.358 . S
C124 H127 0.930 . S
C125 C122 1.348 . S
C125 C123 1.356 1_455 S
H126 C120 0.930 . S
H127 C124 0.930 . S
C128 C130 1.348 1_455 S
C128 C131 1.356 . S
C128 O158 1.325 . S
N129 C132 1.314 1_455 S
N129 C133 1.279 . S
C130 C128 1.348 1_655 S
C130 C132 1.353 . S
C130 H172 0.929 . S
C131 C128 1.356 . S
C131 C133 1.358 . S
C131 H173 0.930 . S
C132 N129 1.314 1_655 S
C132 C130 1.353 . S
C132 H174 0.930 . S
C133 N129 1.279 . S
C133 C131 1.358 . S
C133 H175 0.930 . S
C134 C135 1.348 . S
C134 C136 1.356 1_455 S
C134 O159 1.325 . S
C135 C134 1.348 . S
C135 C137 1.353 . S
C135 H176 0.929 . S
C136 C134 1.356 1_655 S
C136 C138 1.358 . S
C136 H177 0.930 . S
C137 C135 1.353 . S
C137 N139 1.314 . S
C137 H178 0.930 . S
C138 C136 1.358 . S
C138 N139 1.279 1_655 S
C138 H179 0.930 . S
N139 C137 1.314 . S
N139 C138 1.279 1_455 S
C140 C142 1.353 . S
C140 N143 1.314 1_565 S
C140 H146 0.930 . S
C141 N143 1.279 . S
C141 C144 1.358 . S
C141 H147 0.930 . S
C142 C140 1.353 . S
C142 C145 1.348 1_565 S
C142 H180 0.929 . S
N143 Li98 1.990 . S
N143 C140 1.314 1_545 S
N143 C141 1.279 . S
C144 C141 1.358 . S
C144 C145 1.356 . S
C144 H181 0.930 . S
C145 C142 1.348 1_545 S
C145 C144 1.356 . S
H146 C140 0.930 . S
H147 C141 0.930 . S
C148 N149 1.314 . S
C148 C150 1.353 . S
C148 H154 0.930 . S
N149 Li99 1.990 . S
N149 C148 1.314 . S
N149 C152 1.279 1_545 S
C150 C148 1.353 . S
C150 C153 1.348 . S
C150 H182 0.929 . S
C151 C152 1.358 . S
C151 C153 1.356 1_565 S
C151 H183 0.930 . S
C152 N149 1.279 1_565 S
C152 C151 1.358 . S
C152 H155 0.930 . S
C153 C150 1.348 . S
C153 C151 1.356 1_545 S
H154 C148 0.930 . S
H155 C152 0.930 . S
O156 Li96 1.956 . S
O156 Li97 1.970 1_545 S
O156 Li98 1.961 . S
O156 C100 1.325 . S
O157 Li96 1.970 1_655 S
O157 Li97 1.956 1_645 S
O157 Li99 1.961 . S
O157 C106 1.325 . S
O158 Li96 1.961 . S
O158 Li98 1.956 . S
O158 Li99 1.970 1_455 S
O158 C128 1.325 . S
O159 Li97 1.961 . S
O159 Li98 1.970 1_565 S
O159 Li99 1.956 1_465 S
O159 C134 1.325 . S
H160 C102 0.929 . S
H161 C103 0.930 . S
H162 C104 0.930 . S
H163 C105 0.930 . S
H164 C107 0.930 . S
H165 C109 0.929 . S
H166 C110 0.930 . S
H167 C111 0.930 . S
H168 C114 0.930 . S
H169 C117 0.929 . S
H170 C122 0.929 . S
H171 C123 0.930 . S
H172 C130 0.929 . S
H173 C131 0.930 . S
H174 C132 0.930 . S
H175 C133 0.930 . S
H176 C135 0.929 . S
H177 C136 0.930 . S
H178 C137 0.930 . S
H179 C138 0.930 . S
H180 C142 0.929 . S
H181 C144 0.930 . S
H182 C150 0.929 . S
H183 C151 0.930 . S
Li184 N201 1.990 . S
Li184 O244 1.956 1_655 S
Li184 O245 1.970 1_645 S
Li184 O246 1.961 . S
Li185 N209 1.990 . S
Li185 O244 1.970 . S
Li185 O245 1.956 1_545 S
Li185 O247 1.961 . S
Li186 N231 1.990 . S
Li186 O244 1.961 . S
Li186 O246 1.956 1_455 S
Li186 O247 1.970 . S
Li187 N237 1.990 . S
Li187 O245 1.961 . S
Li187 O246 1.970 1_465 S
Li187 O247 1.956 1_565 S
C188 C190 1.348 . S
C188 C191 1.356 1_455 S
C188 O244 1.325 . S
N189 C192 1.314 . S
N189 C193 1.279 1_455 S
C190 C188 1.348 . S
C190 C192 1.353 . S
C190 H248 0.929 . S
C191 C188 1.356 1_655 S
C191 C193 1.358 . S
C191 H249 0.930 . S
C192 N189 1.314 . S
C192 C190 1.353 . S
C192 H250 0.930 . S
C193 N189 1.279 1_655 S
C193 C191 1.358 . S
C193 H251 0.930 . S
C194 C197 1.348 1_455 S
C194 C198 1.356 . S
C194 O245 1.325 . S
C195 N196 1.279 . S
C195 C198 1.358 . S
C195 H252 0.930 . S
N196 C195 1.279 . S
N196 C199 1.314 1_455 S
C197 C194 1.348 1_655 S
C197 C199 1.353 . S
C197 H253 0.929 . S
C198 C194 1.356 . S
C198 C195 1.358 . S
C198 H254 0.930 . S
C199 N196 1.314 1_655 S
C199 C197 1.353 . S
C199 H255 0.930 . S
C200 N201 1.314 1_565 S
C200 C205 1.353 . S
C200 H206 0.930 . S
N201 Li184 1.990 . S
N201 C200 1.314 1_545 S
N201 C203 1.279 . S
C202 C203 1.358 . S
C202 C204 1.356 . S
C202 H256 0.930 . S
C203 N201 1.279 . S
C203 C202 1.358 . S
C203 H207 0.930 . S
C204 C202 1.356 . S
C204 C205 1.348 1_545 S
C205 C200 1.353 . S
C205 C204 1.348 1_565 S
C205 H257 0.929 . S
H206 C200 0.930 . S
H207 C203 0.930 . S
C208 N209 1.314 . S
C208 C210 1.353 . S
C208 H214 0.930 . S
N209 Li185 1.990 . S
N209 C208 1.314 . S
N209 C212 1.279 1_545 S
C210 C208 1.353 . S
C210 C213 1.348 . S
C210 H258 0.929 . S
C211 C212 1.358 . S
C211 C213 1.356 1_565 S
C211 H259 0.930 . S
C212 N209 1.279 1_565 S
C212 C211 1.358 . S
C212 H215 0.930 . S
C213 C210 1.348 . S
C213 C211 1.356 1_545 S
H214 C208 0.930 . S
H215 C212 0.930 . S
C216 C218 1.348 1_545 S
C216 C219 1.356 . S
C216 O246 1.325 . S
N217 C220 1.314 1_545 S
N217 C221 1.279 . S
C218 C216 1.348 1_565 S
C218 C220 1.353 . S
C218 H260 0.929 . S
C219 C216 1.356 . S
C219 C221 1.358 . S
C219 H261 0.930 . S
C220 N217 1.314 1_565 S
C220 C218 1.353 . S
C220 H262 0.930 . S
C221 N217 1.279 . S
C221 C219 1.358 . S
C221 H263 0.930 . S
C222 C223 1.348 . S
C222 C224 1.356 1_545 S
C222 O247 1.325 . S
C223 C222 1.348 . S
C223 C225 1.353 . S
C223 H264 0.929 . S
C224 C222 1.356 1_565 S
C224 C226 1.358 . S
C224 H265 0.930 . S
C225 C223 1.353 . S
C225 N227 1.314 . S
C225 H266 0.930 . S
C226 C224 1.358 . S
C226 N227 1.279 1_565 S
C226 H267 0.930 . S
N227 C225 1.314 . S
N227 C226 1.279 1_545 S
C228 C230 1.353 . S
C228 N231 1.314 . S
C228 H234 0.930 . S
C229 N231 1.279 1_655 S
C229 C232 1.358 . S
C229 H235 0.930 . S
C230 C228 1.353 . S
C230 C233 1.348 . S
C230 H268 0.929 . S
N231 Li186 1.990 . S
N231 C228 1.314 . S
N231 C229 1.279 1_455 S
C232 C229 1.358 . S
C232 C233 1.356 1_655 S
C232 H269 0.930 . S
C233 C230 1.348 . S
C233 C232 1.356 1_455 S
H234 C228 0.930 . S
H235 C229 0.930 . S
C236 N237 1.314 1_655 S
C236 C238 1.353 . S
C236 H242 0.930 . S
N237 Li187 1.990 . S
N237 C236 1.314 1_455 S
N237 C240 1.279 . S
C238 C236 1.353 . S
C238 C241 1.348 1_655 S
C238 H270 0.929 . S
C239 C240 1.358 . S
C239 C241 1.356 . S
C239 H271 0.930 . S
C240 N237 1.279 . S
C240 C239 1.358 . S
C240 H243 0.930 . S
C241 C238 1.348 1_455 S
C241 C239 1.356 . S
H242 C236 0.930 . S
H243 C240 0.930 . S
O244 Li184 1.956 1_455 S
O244 Li185 1.970 . S
O244 Li186 1.961 . S
O244 C188 1.325 . S
O245 Li184 1.970 1_465 S
O245 Li185 1.956 1_565 S
O245 Li187 1.961 . S
O245 C194 1.325 . S
O246 Li184 1.961 . S
O246 Li186 1.956 1_655 S
O246 Li187 1.970 1_645 S
O246 C216 1.325 . S
O247 Li185 1.961 . S
O247 Li186 1.970 . S
O247 Li187 1.956 1_545 S
O247 C222 1.325 . S
H248 C190 0.929 . S
H249 C191 0.930 . S
H250 C192 0.930 . S
H251 C193 0.930 . S
H252 C195 0.930 . S
H253 C197 0.929 . S
H254 C198 0.930 . S
H255 C199 0.930 . S
H256 C202 0.930 . S
H257 C205 0.929 . S
H258 C210 0.929 . S
H259 C211 0.930 . S
H260 C218 0.929 . S
H261 C219 0.930 . S
H262 C220 0.930 . S
H263 C221 0.930 . S
H264 C223 0.929 . S
H265 C224 0.930 . S
H266 C225 0.930 . S
H267 C226 0.930 . S
H268 C230 0.929 . S
H269 C232 0.930 . S
H270 C238 0.929 . S
H271 C239 0.930 . S
C272 C273 1.369 . S
C272 C274 1.419 . S
C272 H276 0.930 . S
C273 C272 1.369 . S
C273 C282 1.429 1_545 S
C274 C272 1.419 . S
C274 C275 1.363 . S
C274 H277 0.929 . S
C275 C274 1.363 . S
C275 C281 1.428 1_545 S
H276 C272 0.930 . S
H277 C274 0.929 . S
S278 N279 1.613 . S
S278 N280 1.610 . S
N279 S278 1.613 . S
N279 C282 1.350 . S
N280 S278 1.610 . S
N280 C281 1.351 . S
C281 C275 1.428 1_565 S
C281 N280 1.351 . S
C281 C282 1.434 . S
C282 C273 1.429 1_565 S
C282 N279 1.350 . S
C282 C281 1.434 . S
C283 C284 1.369 1_655 S
C283 C285 1.419 . S
C283 H287 0.930 . S
C284 C283 1.369 1_455 S
C284 C293 1.429 . S
C285 C283 1.419 . S
C285 C286 1.363 1_655 S
C285 H288 0.929 . S
C286 C285 1.363 1_455 S
C286 C292 1.428 . S
H287 C283 0.930 . S
H288 C285 0.929 . S
S289 N290 1.613 . S
S289 N291 1.610 . S
N290 S289 1.613 . S
N290 C293 1.350 . S
N291 S289 1.610 . S
N291 C292 1.351 . S
C292 C286 1.428 . S
C292 N291 1.351 . S
C292 C293 1.434 . S
C293 C284 1.429 . S
C293 N290 1.350 . S
C293 C292 1.434 . S
C294 C295 1.369 . S
C294 C296 1.419 . S
C294 H298 0.930 . S
C295 C294 1.369 . S
C295 C304 1.429 1_545 S
C296 C294 1.419 . S
C296 C297 1.363 . S
C296 H299 0.929 . S
C297 C296 1.363 . S
C297 C303 1.428 1_545 S
H298 C294 0.930 . S
H299 C296 0.929 . S
S300 N301 1.613 . S
S300 N302 1.610 . S
N301 S300 1.613 . S
N301 C304 1.350 . S
N302 S300 1.610 . S
N302 C303 1.351 . S
C303 C297 1.428 1_565 S
C303 N302 1.351 . S
C303 C304 1.434 . S
C304 C295 1.429 1_565 S
C304 N301 1.350 . S
C304 C303 1.434 . S
C305 C306 1.369 1_655 S
C305 C307 1.419 . S
C305 H309 0.930 . S
C306 C305 1.369 1_455 S
C306 C315 1.429 . S
C307 C305 1.419 . S
C307 C308 1.363 1_655 S
C307 H310 0.929 . S
C308 C307 1.363 1_455 S
C308 C314 1.428 . S
H309 C305 0.930 . S
H310 C307 0.929 . S
S311 N312 1.613 . S
S311 N313 1.610 . S
N312 S311 1.613 . S
N312 C315 1.350 . S
N313 S311 1.610 . S
N313 C314 1.351 . S
C314 C308 1.428 . S
C314 N313 1.351 . S
C314 C315 1.434 . S
C315 C306 1.429 . S
C315 N312 1.350 . S
C315 C314 1.434 . S
C316 C317 1.369 . S
C316 C318 1.419 . S
C316 H320 0.930 . S
C317 C316 1.369 . S
C317 C326 1.429 1_545 S
C318 C316 1.419 . S
C318 C319 1.363 . S
C318 H321 0.929 . S
C319 C318 1.363 . S
C319 C325 1.428 1_545 S
H320 C316 0.930 . S
H321 C318 0.929 . S
S322 N323 1.613 . S
S322 N324 1.610 . S
N323 S322 1.613 . S
N323 C326 1.350 . S
N324 S322 1.610 . S
N324 C325 1.351 . S
C325 C319 1.428 1_565 S
C325 N324 1.351 . S
C325 C326 1.434 . S
C326 C317 1.429 1_565 S
C326 N323 1.350 . S
C326 C325 1.434 . S
C327 C328 1.369 . S
C327 C329 1.419 . S
C327 H331 0.930 . S
C328 C327 1.369 . S
C328 C337 1.429 1_455 S
C329 C327 1.419 . S
C329 C330 1.363 . S
C329 H332 0.929 . S
C330 C329 1.363 . S
C330 C336 1.428 1_455 S
H331 C327 0.930 . S
H332 C329 0.929 . S
S333 N334 1.613 . S
S333 N335 1.610 . S
N334 S333 1.613 . S
N334 C337 1.350 . S
N335 S333 1.610 . S
N335 C336 1.351 . S
C336 C330 1.428 1_655 S
C336 N335 1.351 . S
C336 C337 1.434 . S
C337 C328 1.429 1_655 S
C337 N334 1.350 . S
C337 C336 1.434 . S
C338 C339 1.369 . S
C338 C340 1.419 . S
C338 H342 0.930 . S
C339 C338 1.369 . S
C339 C348 1.429 1_545 S
C340 C338 1.419 . S
C340 C341 1.363 . S
C340 H343 0.929 . S
C341 C340 1.363 . S
C341 C347 1.428 1_545 S
H342 C338 0.930 . S
H343 C340 0.929 . S
S344 N345 1.613 . S
S344 N346 1.610 . S
N345 S344 1.613 . S
N345 C348 1.350 . S
N346 S344 1.610 . S
N346 C347 1.351 . S
C347 C341 1.428 1_565 S
C347 N346 1.351 . S
C347 C348 1.434 . S
C348 C339 1.429 1_565 S
C348 N345 1.350 . S
C348 C347 1.434 . S
C349 C350 1.369 1_655 S
C349 C351 1.419 . S
C349 H353 0.930 . S
C350 C349 1.369 1_455 S
C350 C359 1.429 . S
C351 C349 1.419 . S
C351 C352 1.363 1_655 S
C351 H354 0.929 . S
C352 C351 1.363 1_455 S
C352 C358 1.428 . S
H353 C349 0.930 . S
H354 C351 0.929 . S
S355 N356 1.613 . S
S355 N357 1.610 . S
N356 S355 1.613 . S
N356 C359 1.350 . S
N357 S355 1.610 . S
N357 C358 1.351 . S
C358 C352 1.428 . S
C358 N357 1.351 . S
C358 C359 1.434 . S
C359 C350 1.429 . S
C359 N356 1.350 . S
C359 C358 1.434 . S
C275 C145 1.512 . S
C273 C45 1.507 . S
C286 C233 1.512 . S
C284 C78 1.509 . S
C297 C153 1.512 . S
C295 C21 1.511 . S
C308 C241 1.512 . S
C306 C84 1.512 . S
C319 C213 1.512 . S
C317 C36 1.511 . S
C330 C116 1.512 . S
C328 C69 1.511 . S
C341 C204 1.512 . S
C339 C30 1.508 . S
C350 C93 1.505 . S
C352 C125 1.512 . S
