# Generated by pormake.
# Topology nom, (4,4)-cn, num edge types: 1
# Building blocks:
#     Node 0, Type 0, BuildingBlock: NAHDIM_clean_linker_0, # of connection points: 4
#     Node 1, Type 0, BuildingBlock: NAHDIM_clean_linker_0, # of connection points: 4
#     Node 2, Type 0, BuildingBlock: NAHDIM_clean_linker_0, # of connection points: 4
#     Node 3, Type 0, BuildingBlock: NAHDIM_clean_linker_0, # of connection points: 4
#     Node 4, Type 0, BuildingBlock: NAHDIM_clean_linker_0, # of connection points: 4
#     Node 5, Type 0, BuildingBlock: NAHDIM_clean_linker_0, # of connection points: 4
#     Node 6, Type 1, BuildingBlock: UXUYUI_clean_sbu_0, # of connection points: 4
#     Node 7, Type 1, BuildingBlock: UXUYUI_clean_sbu_0, # of connection points: 4
#     Node 8, Type 1, BuildingBlock: UXUYUI_clean_sbu_0, # of connection points: 4
#     Node 9, Type 1, BuildingBlock: UXUYUI_clean_sbu_0, # of connection points: 4
#     Node 10, Type 1, BuildingBlock: UXUYUI_clean_sbu_0, # of connection points: 4
#     Node 11, Type 1, BuildingBlock: UXUYUI_clean_sbu_0, # of connection points: 4
#     Edge 12, Type (0, 1), BuildingBlock: ZUJKAS_clean_linker_0, # of connection points: 2
#     Edge 13, Type (0, 1), BuildingBlock: ZUJKAS_clean_linker_0, # of connection points: 2
#     Edge 14, Type (0, 1), BuildingBlock: ZUJKAS_clean_linker_0, # of connection points: 2
#     Edge 15, Type (0, 1), BuildingBlock: ZUJKAS_clean_linker_0, # of connection points: 2
#     Edge 16, Type (0, 1), BuildingBlock: ZUJKAS_clean_linker_0, # of connection points: 2
#     Edge 17, Type (0, 1), BuildingBlock: ZUJKAS_clean_linker_0, # of connection points: 2
#     Edge 18, Type (0, 1), BuildingBlock: ZUJKAS_clean_linker_0, # of connection points: 2
#     Edge 19, Type (0, 1), BuildingBlock: ZUJKAS_clean_linker_0, # of connection points: 2
#     Edge 20, Type (0, 1), BuildingBlock: ZUJKAS_clean_linker_0, # of connection points: 2
#     Edge 21, Type (0, 1), BuildingBlock: ZUJKAS_clean_linker_0, # of connection points: 2
#     Edge 22, Type (0, 1), BuildingBlock: ZUJKAS_clean_linker_0, # of connection points: 2
#     Edge 23, Type (0, 1), BuildingBlock: ZUJKAS_clean_linker_0, # of connection points: 2
#     Edge 24, Type (0, 1), BuildingBlock: ZUJKAS_clean_linker_0, # of connection points: 2
#     Edge 25, Type (0, 1), BuildingBlock: ZUJKAS_clean_linker_0, # of connection points: 2
#     Edge 26, Type (0, 1), BuildingBlock: ZUJKAS_clean_linker_0, # of connection points: 2
#     Edge 27, Type (0, 1), BuildingBlock: ZUJKAS_clean_linker_0, # of connection points: 2
#     Edge 28, Type (0, 1), BuildingBlock: ZUJKAS_clean_linker_0, # of connection points: 2
#     Edge 29, Type (0, 1), BuildingBlock: ZUJKAS_clean_linker_0, # of connection points: 2
#     Edge 30, Type (0, 1), BuildingBlock: ZUJKAS_clean_linker_0, # of connection points: 2
#     Edge 31, Type (0, 1), BuildingBlock: ZUJKAS_clean_linker_0, # of connection points: 2
#     Edge 32, Type (0, 1), BuildingBlock: ZUJKAS_clean_linker_0, # of connection points: 2
#     Edge 33, Type (0, 1), BuildingBlock: ZUJKAS_clean_linker_0, # of connection points: 2
#     Edge 34, Type (0, 1), BuildingBlock: ZUJKAS_clean_linker_0, # of connection points: 2
#     Edge 35, Type (0, 1), BuildingBlock: ZUJKAS_clean_linker_0, # of connection points: 2
# Relax obj value: 0.084
# Max RMSD: 0.155
# Mean RMSD: 0.137
data_MOF--net-nom--node1-UXUYUI_clean_sbu_0--node2-NAHDIM_clean_linker_0--edge1-ZUJKAS_clean_linker_0
_symmetry_space_group_name_H-M    P1
_symmetry_Int_Tables_number       1
_symmetry_cell_setting            triclinic
loop_
_symmetry_equiv_pos_as_xyz
'x, y, z'
_cell_length_a     79.362815
_cell_length_b     79.356368
_cell_length_c     97.140712
_cell_angle_alpha  90.099224
_cell_angle_beta   90.067803
_cell_angle_gamma 120.00234
loop_
_atom_site_label
_atom_site_type_symbol
_atom_site_fract_x
_atom_site_fract_y
_atom_site_fract_z
_atom_type_partial_charge
C0 C 0.13477 0.57356 0.26903 0.0
C1 C 0.14321 0.57933 0.28363 0.0
C2 C 0.11255 0.56931 0.29594 0.0
C3 C 0.10565 0.54917 0.29598 0.0
C4 C 0.08624 0.5359 0.29939 0.0
C5 C 0.07345 0.54287 0.30271 0.0
C6 C 0.08052 0.56315 0.30309 0.0
C7 C 0.10008 0.5761 0.29988 0.0
C8 C 0.07926 0.51438 0.29912 0.0
C9 C 0.06727 0.57113 0.30642 0.0
C10 C 0.9562 0.48422 0.22573 0.0
C11 C 0.96855 0.49513 0.2377 0.0
C12 C 0.98812 0.49206 0.25586 0.0
C13 C 0.99028 0.50812 0.26349 0.0
C14 C 0.00095 0.51368 0.2758 0.0
C15 C 0.00957 0.50294 0.28064 0.0
C16 C 0.00743 0.48677 0.27303 0.0
C17 C 0.9967 0.48155 0.26071 0.0
C18 C 0.00304 0.53107 0.28365 0.0
C19 C 0.01644 0.47503 0.27795 0.0
C20 C 0.92317 0.4487 0.34734 0.0
C21 C 0.931 0.46881 0.3456 0.0
C22 C 0.95121 0.48146 0.34571 0.0
C23 C 0.96379 0.47378 0.34748 0.0
C24 C 0.95588 0.45365 0.34991 0.0
C25 C 0.93561 0.44138 0.34997 0.0
C26 C 0.95914 0.50296 0.34359 0.0
C27 C 0.96886 0.44502 0.35199 0.0
C28 C 0.09053 0.57135 0.39703 0.0
C29 C 0.08318 0.55097 0.40296 0.0
C30 C 0.05101 0.53214 0.39333 0.0
C31 C 0.03905 0.53901 0.38839 0.0
C32 C 0.02748 0.53074 0.37664 0.0
C33 C 0.02756 0.51486 0.37001 0.0
C34 C 0.03883 0.50716 0.37551 0.0
C35 C 0.05065 0.51607 0.38706 0.0
C36 C 0.01559 0.53928 0.37112 0.0
C37 C 0.03869 0.48979 0.36905 0.0
C38 C 0.05239 0.52894 0.30463 0.0
C39 C 0.04094 0.52168 0.29278 0.0
C40 C 0.02094 0.50881 0.29364 0.0
C41 C 0.01199 0.50274 0.30665 0.0
C42 C 0.99194 0.4896 0.30785 0.0
C43 C 0.98315 0.48411 0.32069 0.0
C44 C 0.99407 0.49166 0.33285 0.0
C45 C 0.98514 0.48663 0.34595 0.0
C46 C 0.99644 0.49419 0.35783 0.0
C47 C 0.01652 0.5069 0.35701 0.0
C48 C 0.02568 0.51229 0.34399 0.0
C49 C 0.04581 0.52527 0.34276 0.0
C50 C 0.05466 0.53051 0.3299 0.0
C51 C 0.04367 0.52328 0.31776 0.0
C52 C 0.02338 0.51015 0.31876 0.0
C53 C 0.01439 0.50462 0.33188 0.0
C54 C 0.87923 0.4188 0.32965 0.0
C55 C 0.8909 0.43777 0.33773 0.0
O56 O 0.13089 0.58261 0.29192 0.0
O57 O 0.06309 0.54139 0.40404 0.0
O58 O 0.90377 0.43598 0.34644 0.0
O59 O 0.9779 0.4863 0.24386 0.0
H60 H 0.14513 0.56753 0.28813 0.0
H61 H 0.12065 0.55973 0.26919 0.0
H62 H 0.13241 0.58507 0.26449 0.0
H63 H 0.14483 0.57135 0.26231 0.0
H64 H 0.1152 0.54367 0.29324 0.0
H65 H 0.10558 0.59165 0.29993 0.0
H66 H 0.06915 0.50755 0.29031 0.0
H67 H 0.09145 0.51138 0.29805 0.0
H68 H 0.07112 0.50739 0.30868 0.0
H69 H 0.07486 0.58725 0.30575 0.0
H70 H 0.05469 0.56492 0.29922 0.0
H71 H 0.06143 0.56675 0.31699 0.0
H72 H 0.97841 0.51101 0.23592 0.0
H73 H 0.96322 0.49411 0.21667 0.0
H74 H 0.96072 0.47339 0.22255 0.0
H75 H 0.92792 0.47589 0.2323 0.0
H76 H 0.9837 0.51641 0.25992 0.0
H77 H 0.99496 0.46918 0.25479 0.0
H78 H 0.99635 0.52642 0.29398 0.0
H79 H 0.01869 0.54184 0.28521 0.0
H80 H 0.99604 0.53832 0.27826 0.0
H81 H 0.01292 0.46248 0.27108 0.0
H82 H 0.0325 0.48449 0.27847 0.0
H83 H 0.01125 0.46954 0.2885 0.0
H84 H 0.89896 0.44932 0.32991 0.0
H85 H 0.92136 0.47462 0.34411 0.0
H86 H 0.92938 0.42587 0.35154 0.0
H87 H 0.96626 0.50726 0.33337 0.0
H88 H 0.94755 0.50691 0.34407 0.0
H89 H 0.97034 0.51145 0.35151 0.0
H90 H 0.96043 0.42902 0.35356 0.0
H91 H 0.97844 0.44816 0.34289 0.0
H92 H 0.97839 0.45186 0.36108 0.0
H93 H 0.08764 0.54284 0.39587 0.0
H94 H 0.10664 0.57923 0.39608 0.0
H95 H 0.08426 0.57024 0.38661 0.0
H96 H 0.08619 0.57987 0.40376 0.0
H97 H 0.03938 0.55135 0.39346 0.0
H98 H 0.05966 0.51059 0.3912 0.0
H99 H 0.01911 0.54318 0.3601 0.0
H100 H -0.00011 0.52826 0.37174 0.0
H101 H 0.01818 0.55244 0.37692 0.0
H102 H 0.04594 0.4839 0.37568 0.0
H103 H 0.02351 0.47809 0.367 0.0
H104 H 0.04641 0.49409 0.35903 0.0
H105 H 0.04765 0.52637 0.28274 0.0
H106 H 0.98278 0.48342 0.29885 0.0
H107 H 0.96765 0.47396 0.32096 0.0
H108 H 0.98948 0.4903 0.36784 0.0
H109 H 0.05499 0.53155 0.35173 0.0
H110 H 0.0702 0.54048 0.32958 0.0
H111 H 0.86878 0.41988 0.32259 0.0
H112 H 0.88924 0.41595 0.32339 0.0
H113 H 0.87106 0.40632 0.33673 0.0
C114 C 0.48381 0.91334 0.54766 0.0
C115 C 0.47178 0.90752 0.53432 0.0
C116 C 0.48037 0.94001 0.52565 0.0
C117 C 0.49947 0.94562 0.52157 0.0
C118 C 0.51244 0.96484 0.51758 0.0
C119 C 0.50618 0.97869 0.51762 0.0
C120 C 0.48678 0.97292 0.52121 0.0
C121 C 0.4741 0.95359 0.52511 0.0
C122 C 0.53299 0.9705 0.51363 0.0
C123 C 0.47961 0.98731 0.52126 0.0
C124 C 0.58642 0.04578 0.59117 0.0
C125 C 0.57795 0.05826 0.58611 0.0
C126 C 0.57617 0.05856 0.56122 0.0
C127 C 0.55763 0.05608 0.55892 0.0
C128 C 0.54758 0.04772 0.54663 0.0
C129 C 0.55622 0.04155 0.53654 0.0
C130 C 0.57518 0.04455 0.53873 0.0
C131 C 0.58507 0.05341 0.55098 0.0
C132 C 0.52757 0.04513 0.54453 0.0
C133 C 0.58475 0.03786 0.52835 0.0
C134 C 0.60026 0.12446 0.46725 0.0
C135 C 0.58107 0.11905 0.47082 0.0
C136 C 0.5666 0.09936 0.47143 0.0
C137 C 0.57153 0.08486 0.46859 0.0
C138 C 0.59064 0.09033 0.46431 0.0
C139 C 0.60471 0.11014 0.46353 0.0
C140 C 0.54619 0.09404 0.4755 0.0
C141 C 0.59635 0.07526 0.46105 0.0
C142 C 0.46484 0.95097 0.42486 0.0
C143 C 0.48565 0.96122 0.4193 0.0
C144 C 0.50322 0.99438 0.42774 0.0
C145 C 0.49703 0.00684 0.43283 0.0
C146 C 0.50707 0.01982 0.44364 0.0
C147 C 0.52394 0.02057 0.44917 0.0
C148 C 0.53096 0.00886 0.44339 0.0
C149 C 0.52044 0.9958 0.43275 0.0
C150 C 0.49931 0.03223 0.44947 0.0
C151 C 0.54929 0.00979 0.44869 0.0
C152 C 0.52029 0.99945 0.51484 0.0
C153 C 0.53116 0.01097 0.52594 0.0
C154 C 0.54486 0.03064 0.52424 0.0
C155 C 0.54778 0.03922 0.51107 0.0
C156 C 0.5612 0.05903 0.509 0.0
C157 C 0.56432 0.0672 0.49594 0.0
C158 C 0.55398 0.05591 0.48444 0.0
C159 C 0.55716 0.06405 0.47109 0.0
C160 C 0.54699 0.05231 0.45984 0.0
C161 C 0.53351 0.03255 0.46157 0.0
C162 C 0.52979 0.02425 0.47489 0.0
C163 C 0.51598 0.00452 0.47703 0.0
C164 C 0.51276 0.99638 0.49011 0.0
C165 C 0.52321 0.00764 0.50155 0.0
C166 C 0.53703 0.02761 0.49966 0.0
C167 C 0.54021 0.03595 0.48633 0.0
C168 C 0.63701 0.16879 0.48212 0.0
C169 C 0.61624 0.15748 0.47649 0.0
O170 O 0.46766 0.92188 0.53041 0.0
O171 O 0.49227 0.98097 0.41808 0.0
O172 O 0.61485 0.14329 0.46747 0.0
O173 O 0.58568 0.06581 0.57329 0.0
H174 H 0.48001 0.90521 0.52598 0.0
H175 H 0.49812 0.92666 0.54611 0.0
H176 H 0.47603 0.91622 0.55602 0.0
H177 H 0.48656 0.90152 0.55097 0.0
H178 H 0.5045 0.93523 0.52164 0.0
H179 H 0.4593 0.9491 0.52814 0.0
H180 H 0.54332 0.98118 0.5212 0.0
H181 H 0.53527 0.95779 0.51326 0.0
H182 H 0.53652 0.97766 0.50339 0.0
H183 H 0.46394 0.9804 0.52392 0.0
H184 H 0.48814 0.99906 0.52882 0.0
H185 H 0.48191 0.99419 0.51097 0.0
H186 H 0.56186 0.04865 0.58544 0.0
H187 H 0.58028 0.03941 0.60139 0.0
H188 H 0.58267 0.03369 0.5838 0.0
H189 H 0.60252 0.05464 0.59202 0.0
H190 H 0.55105 0.06064 0.56677 0.0
H191 H 0.59951 0.05561 0.55286 0.0
H192 H 0.51653 0.02943 0.54525 0.0
H193 H 0.5241 0.05316 0.55235 0.0
H194 H 0.52638 0.05019 0.53412 0.0
H195 H 0.59882 0.03977 0.53215 0.0
H196 H 0.57495 0.02226 0.52581 0.0
H197 H 0.58749 0.04627 0.51869 0.0
H198 H 0.60663 0.15065 0.48557 0.0
H199 H 0.5774 0.13016 0.47321 0.0
H200 H 0.6195 0.11452 0.46056 0.0
H201 H 0.54311 0.08767 0.48599 0.0
H202 H 0.54408 0.10686 0.47553 0.0
H203 H 0.53547 0.08288 0.46835 0.0
H204 H 0.61195 0.08192 0.45823 0.0
H205 H 0.59347 0.06565 0.47009 0.0
H206 H 0.58736 0.06598 0.45238 0.0
H207 H 0.49473 0.95859 0.42679 0.0
H208 H 0.45927 0.9351 0.42592 0.0
H209 H 0.46459 0.95691 0.43518 0.0
H210 H 0.45505 0.95325 0.41789 0.0
H211 H 0.48385 0.0058 0.42869 0.0
H212 H 0.52557 0.9866 0.4284 0.0
H213 H 0.49606 0.02899 0.46058 0.0
H214 H 0.51053 0.04784 0.44858 0.0
H215 H 0.48589 0.02978 0.44411 0.0
H216 H 0.55416 0.00171 0.44196 0.0
H217 H 0.56119 0.02516 0.44949 0.0
H218 H 0.54664 0.00339 0.45916 0.0
H219 H 0.52901 0.00447 0.53608 0.0
H220 H 0.56953 0.06842 0.51747 0.0
H221 H 0.575 0.08249 0.49498 0.0
H222 H 0.54976 0.05857 0.4496 0.0
H223 H 0.50751 0.99511 0.46862 0.0
H224 H 0.50203 0.9811 0.49114 0.0
H225 H 0.63848 0.18027 0.4894 0.0
H226 H 0.64052 0.15874 0.48773 0.0
H227 H 0.64767 0.17568 0.47363 0.0
C228 C 0.5956 0.48467 0.7139 0.0
C229 C 0.589 0.4722 0.70076 0.0
C230 C 0.56537 0.48099 0.69181 0.0
C231 C 0.57902 0.49986 0.6874 0.0
C232 C 0.573 0.5129 0.68308 0.0
C233 C 0.55297 0.50694 0.68313 0.0
C234 C 0.53916 0.48776 0.68705 0.0
C235 C 0.54557 0.475 0.69127 0.0
C236 C 0.58806 0.5332 0.67877 0.0
C237 C 0.51767 0.48093 0.68715 0.0
C238 C 0.57051 0.59192 0.75634 0.0
C239 C 0.54997 0.58237 0.75027 0.0
C240 C 0.54724 0.58001 0.72538 0.0
C241 C 0.53075 0.56157 0.72372 0.0
C242 C 0.52794 0.55083 0.71159 0.0
C243 C 0.54206 0.55868 0.70102 0.0
C244 C 0.55838 0.5776 0.70252 0.0
C245 C 0.56053 0.58818 0.71462 0.0
C246 C 0.51014 0.53092 0.71022 0.0
C247 C 0.57393 0.58635 0.6916 0.0
C248 C 0.50028 0.59938 0.63096 0.0
C249 C 0.48683 0.58063 0.63558 0.0
C250 C 0.49202 0.56616 0.63653 0.0
C251 C 0.51116 0.5707 0.63306 0.0
C252 C 0.52444 0.58936 0.62782 0.0
C253 C 0.51868 0.60337 0.62665 0.0
C254 C 0.47721 0.54618 0.64158 0.0
C255 C 0.54491 0.59469 0.62388 0.0
C256 C 0.545 0.46829 0.59194 0.0
C257 C 0.55311 0.48786 0.58457 0.0
C258 C 0.53549 0.50338 0.59309 0.0
C259 C 0.51672 0.49619 0.59827 0.0
C260 C 0.5131 0.50589 0.60895 0.0
C261 C 0.52863 0.52338 0.61432 0.0
C262 C 0.54741 0.53134 0.60848 0.0
C263 C 0.55065 0.52122 0.59792 0.0
C264 C 0.49288 0.49715 0.61485 0.0
C265 C 0.56418 0.55029 0.61364 0.0
C266 C 0.54659 0.52121 0.68007 0.0
C267 C 0.54646 0.53265 0.69095 0.0
C268 C 0.54069 0.54646 0.689 0.0
C269 C 0.53454 0.5488 0.67583 0.0
C270 C 0.52818 0.5622 0.67355 0.0
C271 C 0.52265 0.56474 0.66047 0.0
C272 C 0.52312 0.55385 0.64916 0.0
C273 C 0.51771 0.55646 0.63578 0.0
C274 C 0.51912 0.54596 0.6247 0.0
C275 C 0.52568 0.53273 0.62662 0.0
C276 C 0.53045 0.52939 0.63999 0.0
C277 C 0.53648 0.5157 0.64234 0.0
C278 C 0.54159 0.51285 0.65548 0.0
C279 C 0.54104 0.52369 0.66674 0.0
C280 C 0.53492 0.53749 0.66463 0.0
C281 C 0.52938 0.54016 0.65127 0.0
C282 C 0.49362 0.63794 0.64374 0.0
C283 C 0.48415 0.6164 0.63989 0.0
O284 O 0.57056 0.46825 0.69687 0.0
O285 O 0.53868 0.4928 0.58353 0.0
O286 O 0.49608 0.61398 0.63066 0.0
O287 O 0.5508 0.59009 0.73733 0.0
H288 H 0.59947 0.48004 0.69231 0.0
H289 H 0.59681 0.49903 0.71209 0.0
H290 H 0.58503 0.47728 0.72237 0.0
H291 H 0.61013 0.48728 0.7172 0.0
H292 H 0.59439 0.50467 0.68747 0.0
H293 H 0.53513 0.46037 0.69455 0.0
H294 H 0.58811 0.5439 0.68618 0.0
H295 H 0.60293 0.53518 0.67835 0.0
H296 H 0.58432 0.5365 0.66849 0.0
H297 H 0.50874 0.46538 0.69011 0.0
H298 H 0.51475 0.48989 0.6945 0.0
H299 H 0.51301 0.48292 0.67679 0.0
H300 H 0.54466 0.56647 0.74958 0.0
H301 H 0.57024 0.58588 0.7667 0.0
H302 H 0.58003 0.58898 0.74957 0.0
H303 H 0.57682 0.60793 0.75721 0.0
H304 H 0.52017 0.55554 0.73195 0.0
H305 H 0.5731 0.60255 0.716 0.0
H306 H 0.5145 0.51967 0.7111 0.0
H307 H 0.49917 0.52819 0.7183 0.0
H308 H 0.50332 0.52925 0.69994 0.0
H309 H 0.58647 0.60052 0.69487 0.0
H310 H 0.57932 0.57621 0.68909 0.0
H311 H 0.5677 0.58868 0.68205 0.0
H312 H 0.48287 0.60841 0.64962 0.0
H313 H 0.47231 0.57729 0.63849 0.0
H314 H 0.52882 0.61781 0.62288 0.0
H315 H 0.481 0.54416 0.65222 0.0
H316 H 0.46226 0.54403 0.64167 0.0
H317 H 0.47732 0.53477 0.635 0.0
H318 H 0.55384 0.61022 0.62087 0.0
H319 H 0.55216 0.59182 0.63262 0.0
H320 H 0.54443 0.58549 0.6151 0.0
H321 H 0.56557 0.49882 0.59081 0.0
H322 H 0.55635 0.46405 0.59278 0.0
H323 H 0.54031 0.46946 0.6025 0.0
H324 H 0.53225 0.45673 0.58629 0.0
H325 H 0.50506 0.48254 0.59428 0.0
H326 H 0.56502 0.5272 0.59347 0.0
H327 H 0.49318 0.49383 0.62592 0.0
H328 H 0.48774 0.50782 0.61416 0.0
H329 H 0.48232 0.48358 0.60943 0.0
H330 H 0.57733 0.55552 0.60709 0.0
H331 H 0.55993 0.56166 0.61398 0.0
H332 H 0.56798 0.54831 0.62429 0.0
H333 H 0.55112 0.53091 0.7011 0.0
H334 H 0.52749 0.57095 0.68186 0.0
H335 H 0.5181 0.57544 0.65934 0.0
H336 H 0.51543 0.54839 0.61441 0.0
H337 H 0.53729 0.507 0.63405 0.0
H338 H 0.54616 0.50215 0.65668 0.0
H339 H 0.48446 0.64026 0.65129 0.0
H340 H 0.50809 0.64286 0.64851 0.0
H341 H 0.49566 0.64694 0.63446 0.0
C342 C 0.12833 0.59148 0.88797 0.0
C343 C 0.13475 0.58865 0.87367 0.0
C344 C 0.10297 0.56638 0.86301 0.0
C345 C 0.09696 0.58015 0.86103 0.0
C346 C 0.07806 0.57435 0.85642 0.0
C347 C 0.06493 0.55445 0.85373 0.0
C348 C 0.07109 0.54065 0.85539 0.0
C349 C 0.09008 0.54685 0.85994 0.0
C350 C 0.07197 0.58944 0.8546 0.0
C351 C 0.05746 0.51929 0.85266 0.0
C352 C 0.9473 0.48871 0.92425 0.0
C353 C 0.95566 0.49052 0.91028 0.0
C354 C 0.97282 0.51456 0.89239 0.0
C355 C 0.97703 0.50227 0.88446 0.0
C356 C 0.98927 0.50935 0.87299 0.0
C357 C 0.99763 0.52918 0.86936 0.0
C358 C 0.99323 0.54157 0.87714 0.0
C359 C 0.98075 0.53404 0.88853 0.0
C360 C 0.99348 0.49564 0.86485 0.0
C361 C 0.00189 0.56275 0.87347 0.0
C362 C 0.92608 0.51026 0.79405 0.0
C363 C 0.93078 0.49628 0.79844 0.0
C364 C 0.95024 0.50131 0.80058 0.0
C365 C 0.96518 0.52086 0.79868 0.0
C366 C 0.96046 0.53478 0.79377 0.0
C367 C 0.94093 0.52918 0.79129 0.0
C368 C 0.95478 0.48583 0.80513 0.0
C369 C 0.97598 0.55569 0.79148 0.0
C370 C 0.09772 0.54111 0.76017 0.0
C371 C 0.08912 0.5524 0.75317 0.0
C372 C 0.05645 0.53963 0.76199 0.0
C373 C 0.04319 0.5215 0.76743 0.0
C374 C 0.03045 0.51989 0.77801 0.0
C375 C 0.03071 0.53683 0.78291 0.0
C376 C 0.04345 0.5551 0.77691 0.0
C377 C 0.05632 0.55633 0.76655 0.0
C378 C 0.01699 0.50015 0.78411 0.0
C379 C 0.04359 0.57333 0.78155 0.0
C380 C 0.04449 0.54797 0.84985 0.0
C381 C 0.03109 0.54354 0.86048 0.0
C382 C 0.01147 0.53684 0.85768 0.0
C383 C 0.0051 0.53525 0.84391 0.0
C384 C 0.98568 0.52953 0.84077 0.0
C385 C 0.97938 0.52735 0.82717 0.0
C386 C 0.99211 0.53015 0.81621 0.0
C387 C 0.9856 0.52696 0.80238 0.0
C388 C 0.99856 0.52952 0.79178 0.0
C389 C 0.01802 0.53541 0.79458 0.0
C390 C 0.02491 0.53908 0.80832 0.0
C391 C 0.04447 0.54529 0.8115 0.0
C392 C 0.05104 0.54865 0.82506 0.0
C393 C 0.03819 0.54541 0.83599 0.0
C394 C 0.01842 0.53914 0.83303 0.0
C395 C 0.01183 0.53622 0.81917 0.0
C396 C 0.87955 0.50293 0.8038 0.0
C397 C 0.892 0.49362 0.80081 0.0
O398 O 0.12083 0.5711 0.86798 0.0
O399 O 0.0691 0.54063 0.75224 0.0
O400 O 0.90738 0.50602 0.79246 0.0
O401 O 0.96151 0.50821 0.90387 0.0
H402 H 0.13701 0.60082 0.86682 0.0
H403 H 0.1147 0.5921 0.88725 0.0
H404 H 0.12572 0.57926 0.89487 0.0
H405 H 0.13969 0.60536 0.89262 0.0
H406 H 0.1068 0.59538 0.86317 0.0
H407 H 0.09487 0.53636 0.86142 0.0
H408 H 0.06011 0.58654 0.86194 0.0
H409 H 0.08419 0.60447 0.85636 0.0
H410 H 0.06617 0.58847 0.84404 0.0
H411 H 0.06467 0.51049 0.85406 0.0
H412 H 0.04487 0.51377 0.85977 0.0
H413 H 0.0517 0.51716 0.84199 0.0
H414 H 0.94697 0.47777 0.9034 0.0
H415 H 0.9675 0.48683 0.93724 0.0
H416 H 0.94355 0.50062 0.92518 0.0
H417 H 0.93172 0.47667 0.92334 0.0
H418 H 0.97093 0.48712 0.8872 0.0
H419 H 0.97742 0.54342 0.89465 0.0
H420 H 0.98927 0.49539 0.85391 0.0
H421 H 0.00933 0.50088 0.86511 0.0
H422 H 0.98559 0.48054 0.86889 0.0
H423 H 0.99659 0.57037 0.88028 0.0
H424 H 0.018 0.57013 0.87426 0.0
H425 H 0.99824 0.56409 0.86263 0.0
H426 H 0.89757 0.49181 0.81092 0.0
H427 H 0.91928 0.48145 0.80015 0.0
H428 H 0.93709 0.53975 0.78771 0.0
H429 H 0.95878 0.48789 0.8162 0.0
H430 H 0.94214 0.47095 0.80371 0.0
H431 H 0.96735 0.48702 0.79929 0.0
H432 H 0.96976 0.56499 0.78854 0.0
H433 H 0.98483 0.56172 0.80097 0.0
H434 H 0.98591 0.55642 0.78316 0.0
H435 H 0.09297 0.56553 0.75953 0.0
H436 H 0.11378 0.55035 0.7611 0.0
H437 H 0.09158 0.53672 0.77068 0.0
H438 H 0.09422 0.5278 0.75419 0.0
H439 H 0.04328 0.50869 0.76365 0.0
H440 H 0.06619 0.57026 0.76194 0.0
H441 H 0.01924 0.50057 0.79542 0.0
H442 H 0.00165 0.49627 0.7823 0.0
H443 H 0.01928 0.48857 0.77962 0.0
H444 H 0.0529 0.58601 0.77491 0.0
H445 H 0.02856 0.57094 0.7815 0.0
H446 H 0.04911 0.57686 0.79228 0.0
H447 H 0.03587 0.5447 0.87109 0.0
H448 H 0.97516 0.52679 0.84879 0.0
H449 H 0.9643 0.52309 0.82539 0.0
H450 H 0.9934 0.52675 0.78122 0.0
H451 H 0.05496 0.54768 0.80353 0.0
H452 H 0.06625 0.5535 0.82689 0.0
H453 H 0.87358 0.50528 0.79409 0.0
H454 H 0.8673 0.4935 0.81074 0.0
H455 H 0.88854 0.51723 0.80895 0.0
C456 C 0.46898 0.92078 0.93057 0.0
C457 C 0.46546 0.91106 0.94475 0.0
C458 C 0.4849 0.94066 0.95844 0.0
C459 C 0.47091 0.94649 0.95968 0.0
C460 C 0.47626 0.96541 0.96396 0.0
C461 C 0.49603 0.97887 0.96683 0.0
C462 C 0.51008 0.97291 0.96587 0.0
C463 C 0.50422 0.95373 0.96193 0.0
C464 C 0.46081 0.97113 0.96517 0.0
C465 C 0.53136 0.98693 0.96861 0.0
C466 C 0.48492 0.04658 0.89248 0.0
C467 C 0.50526 0.05799 0.89881 0.0
C468 C 0.50631 0.05862 0.92374 0.0
C469 C 0.52259 0.05665 0.92641 0.0
C470 C 0.52419 0.04852 0.93882 0.0
C471 C 0.50904 0.04204 0.94863 0.0
C472 C 0.49289 0.04464 0.94611 0.0
C473 C 0.49196 0.05329 0.93376 0.0
C474 C 0.54181 0.04641 0.94129 0.0
C475 C 0.47627 0.0376 0.95619 0.0
C476 C 0.54401 0.12291 0.02036 0.0
C477 C 0.55773 0.11794 0.01578 0.0
C478 C 0.55276 0.09836 0.01453 0.0
C479 C 0.53353 0.08352 0.01755 0.0
C480 C 0.51991 0.08857 0.02265 0.0
C481 C 0.52549 0.10826 0.02422 0.0
C482 C 0.56796 0.09357 0.00973 0.0
C483 C 0.49933 0.07322 0.02613 0.0
C484 C 0.49077 0.94576 0.0559 0.0
C485 C 0.48573 0.95775 0.06568 0.0
C486 C 0.5055 0.99076 0.05717 0.0
C487 C 0.52457 0.00175 0.05238 0.0
C488 C 0.52924 0.01545 0.04182 0.0
C489 C 0.51446 0.01836 0.03617 0.0
C490 C 0.4954 0.00816 0.04162 0.0
C491 C 0.49113 0.99448 0.05209 0.0
C492 C 0.54974 0.02625 0.03634 0.0
C493 C 0.47941 0.01133 0.03609 0.0
C494 C 0.50215 0.99948 0.96992 0.0
C495 C 0.50358 0.01137 0.95889 0.0
C496 C 0.50916 0.03091 0.96087 0.0
C497 C 0.51397 0.03909 0.97423 0.0
C498 C 0.52014 0.05882 0.97656 0.0
C499 C 0.52445 0.06661 0.9898 0.0
C500 C 0.52299 0.05503 0.0012 0.0
C501 C 0.52733 0.06281 0.01472 0.0
C502 C 0.52502 0.05068 0.02586 0.0
C503 C 0.51843 0.03089 0.02388 0.0
C504 C 0.51456 0.02298 0.01043 0.0
C505 C 0.50826 0.0032 0.00808 0.0
C506 C 0.50419 0.99546 0.99483 0.0
C507 C 0.50626 0.0072 0.98342 0.0
C508 C 0.51241 0.02714 0.98556 0.0
C509 C 0.51678 0.03509 0.99906 0.0
C510 C 0.55015 0.16839 0.00882 0.0
C511 C 0.55976 0.15626 0.01197 0.0
O512 O 0.48048 0.92278 0.95369 0.0
O513 O 0.50135 0.9766 0.0666 0.0
O514 O 0.54812 0.14166 0.02112 0.0
O515 O 0.50399 0.06535 0.91149 0.0
H516 H 0.45139 0.90857 0.94895 0.0
H517 H 0.46927 0.93488 0.9314 0.0
H518 H 0.4831 0.92351 0.92628 0.0
H519 H 0.45712 0.91141 0.9233 0.0
H520 H 0.45581 0.93642 0.9573 0.0
H521 H 0.51488 0.94905 0.96103 0.0
H522 H 0.46252 0.98118 0.95666 0.0
H523 H 0.44588 0.95833 0.96464 0.0
H524 H 0.46247 0.97894 0.97503 0.0
H525 H 0.54062 0.98046 0.96626 0.0
H526 H 0.53639 0.00027 0.96231 0.0
H527 H 0.53345 0.99139 0.97959 0.0
H528 H 0.51076 0.0476 0.90002 0.0
H529 H 0.48556 0.04044 0.88233 0.0
H530 H 0.47529 0.03436 0.89936 0.0
H531 H 0.47849 0.05611 0.89109 0.0
H532 H 0.53395 0.06135 0.91873 0.0
H533 H 0.47956 0.0551 0.9316 0.0
H534 H 0.53756 0.03082 0.94045 0.0
H535 H 0.55356 0.05479 0.93372 0.0
H536 H 0.5476 0.0514 0.95184 0.0
H537 H 0.46412 0.03935 0.95218 0.0
H538 H 0.4706 0.022 0.9586 0.0
H539 H 0.48152 0.04589 0.96596 0.0
H540 H 0.56073 0.14977 0.00201 0.0
H541 H 0.5723 0.12933 0.0132 0.0
H542 H 0.51515 0.11232 0.02796 0.0
H543 H 0.56499 0.08855 0.99887 0.0
H544 H 0.58287 0.1064 0.01032 0.0
H545 H 0.56743 0.08163 0.016 0.0
H546 H 0.48998 0.07959 0.02847 0.0
H547 H 0.49273 0.06277 0.01745 0.0
H548 H 0.4995 0.06492 0.03526 0.0
H549 H 0.47272 0.95774 0.06143 0.0
H550 H 0.47848 0.93054 0.05526 0.0
H551 H 0.49354 0.95212 0.04541 0.0
H552 H 0.50401 0.94564 0.05948 0.0
H553 H 0.53564 0.99901 0.05656 0.0
H554 H 0.47655 0.9867 0.05626 0.0
H555 H 0.54975 0.02234 0.02536 0.0
H556 H 0.55537 0.04217 0.03682 0.0
H557 H 0.55974 0.02289 0.04218 0.0
H558 H 0.46578 0.00341 0.04215 0.0
H559 H 0.48421 0.02708 0.03618 0.0
H560 H 0.47623 0.00625 0.02524 0.0
H561 H 0.50005 0.00524 0.94858 0.0
H562 H 0.52164 0.06843 0.96817 0.0
H563 H 0.5289 0.08184 0.99095 0.0
H564 H 0.52796 0.05662 0.03622 0.0
H565 H 0.50642 0.99344 0.01645 0.0
H566 H 0.49934 0.98013 0.99365 0.0
H567 H 0.54854 0.17519 0.01837 0.0
H568 H 0.55898 0.18001 0.00128 0.0
H569 H 0.53548 0.15894 0.00431 0.0
C570 C 0.56234 0.45166 0.10517 0.0
C571 C 0.57236 0.45459 0.11921 0.0
C572 C 0.56493 0.4786 0.12935 0.0
C573 C 0.54506 0.46571 0.13182 0.0
C574 C 0.53266 0.47272 0.13573 0.0
C575 C 0.54028 0.49298 0.13726 0.0
C576 C 0.56039 0.50592 0.13533 0.0
C577 C 0.57247 0.49852 0.13146 0.0
C578 C 0.51131 0.45853 0.13792 0.0
C579 C 0.56901 0.52761 0.13697 0.0
C580 C 0.48168 0.54918 0.06078 0.0
C581 C 0.49255 0.54747 0.07266 0.0
C582 C 0.48783 0.52693 0.09261 0.0
C583 C 0.50521 0.54049 0.09919 0.0
C584 C 0.51107 0.53587 0.11156 0.0
C585 C 0.49943 0.51726 0.11743 0.0
C586 C 0.48186 0.50362 0.11093 0.0
C587 C 0.47623 0.50871 0.09862 0.0
C588 C 0.52984 0.55081 0.11827 0.0
C589 C 0.46919 0.48365 0.11694 0.0
C590 C 0.44796 0.54751 0.1875 0.0
C591 C 0.4674 0.56055 0.18405 0.0
C592 C 0.4811 0.5543 0.18345 0.0
C593 C 0.47507 0.53452 0.18602 0.0
C594 C 0.45566 0.52158 0.19008 0.0
C595 C 0.44242 0.52838 0.19098 0.0
C596 C 0.50189 0.56874 0.17974 0.0
C597 C 0.44873 0.50045 0.19305 0.0
C598 C 0.57424 0.49956 0.22791 0.0
C599 C 0.55483 0.48956 0.23561 0.0
C600 C 0.5379 0.50591 0.22759 0.0
C601 C 0.54503 0.52486 0.22281 0.0
C602 C 0.53582 0.52869 0.21191 0.0
C603 C 0.51881 0.51318 0.20596 0.0
C604 C 0.51083 0.49418 0.21142 0.0
C605 C 0.52057 0.49072 0.22214 0.0
C606 C 0.54461 0.54914 0.20642 0.0
C607 C 0.49234 0.47745 0.20566 0.0
C608 C 0.52699 0.50069 0.13991 0.0
C609 C 0.5187 0.50451 0.12851 0.0
C610 C 0.50617 0.51196 0.13008 0.0
C611 C 0.50138 0.51537 0.14341 0.0
C612 C 0.48843 0.52238 0.14536 0.0
C613 C 0.484 0.52592 0.15852 0.0
C614 C 0.49268 0.52299 0.17023 0.0
C615 C 0.48868 0.52707 0.18365 0.0
C616 C 0.49745 0.52383 0.19505 0.0
C617 C 0.51015 0.51655 0.19346 0.0
C618 C 0.51441 0.51251 0.18013 0.0
C619 C 0.52726 0.50533 0.17814 0.0
C620 C 0.53128 0.50128 0.165 0.0
C621 C 0.5228 0.50448 0.15332 0.0
C622 C 0.50989 0.5118 0.15507 0.0
C623 C 0.50565 0.51576 0.16849 0.0
C624 C 0.41215 0.55652 0.17296 0.0
C625 C 0.43313 0.56546 0.17807 0.0
O626 O 0.57725 0.47262 0.1247 0.0
O627 O 0.5481 0.50254 0.23732 0.0
O628 O 0.43419 0.55288 0.18745 0.0
O629 O 0.48187 0.53087 0.08051 0.0
H630 H 0.56244 0.44293 0.12639 0.0
H631 H 0.54843 0.45166 0.10623 0.0
H632 H 0.57186 0.4635 0.09797 0.0
H633 H 0.55901 0.43746 0.10063 0.0
H634 H 0.53902 0.4502 0.13054 0.0
H635 H 0.58783 0.50834 0.12968 0.0
H636 H 0.50263 0.46106 0.13009 0.0
H637 H 0.50783 0.44315 0.13717 0.0
H638 H 0.50678 0.46095 0.14821 0.0
H639 H 0.58507 0.53566 0.13567 0.0
H640 H 0.5625 0.53296 0.12924 0.0
H641 H 0.56548 0.53093 0.14732 0.0
H642 H 0.50744 0.55017 0.07022 0.0
H643 H 0.48961 0.54835 0.05144 0.0
H644 H 0.46852 0.53435 0.05916 0.0
H645 H 0.47965 0.5739 0.06558 0.0
H646 H 0.51433 0.55472 0.09474 0.0
H647 H 0.46283 0.49836 0.09353 0.0
H648 H 0.5271 0.55322 0.12911 0.0
H649 H 0.54025 0.54532 0.11845 0.0
H650 H 0.53673 0.56498 0.1128 0.0
H651 H 0.45588 0.47474 0.11069 0.0
H652 H 0.47757 0.4759 0.11763 0.0
H653 H 0.46481 0.48499 0.12755 0.0
H654 H 0.44222 0.56714 0.16886 0.0
H655 H 0.47185 0.57557 0.18181 0.0
H656 H 0.42743 0.51855 0.19385 0.0
H657 H 0.50475 0.56604 0.16901 0.0
H658 H 0.50498 0.584 0.18047 0.0
H659 H 0.51211 0.56697 0.18659 0.0
H660 H 0.43288 0.49203 0.19526 0.0
H661 H 0.45187 0.49368 0.18413 0.0
H662 H 0.45672 0.49935 0.20207 0.0
H663 H 0.54431 0.47681 0.22937 0.0
H664 H 0.57986 0.48935 0.2265 0.0
H665 H 0.57221 0.50425 0.21757 0.0
H666 H 0.58519 0.51258 0.23367 0.0
H667 H 0.5583 0.5365 0.22726 0.0
H668 H 0.51474 0.47617 0.22622 0.0
H669 H 0.54817 0.54934 0.19535 0.0
H670 H 0.53388 0.55419 0.20725 0.0
H671 H 0.55804 0.55953 0.21206 0.0
H672 H 0.48671 0.46421 0.21215 0.0
H673 H 0.48094 0.48161 0.20475 0.0
H674 H 0.49515 0.47384 0.19517 0.0
H675 H 0.52231 0.50194 0.11823 0.0
H676 H 0.48149 0.52512 0.13673 0.0
H677 H 0.47378 0.53113 0.15936 0.0
H678 H 0.49428 0.52692 0.20531 0.0
H679 H 0.53438 0.50274 0.18672 0.0
H680 H 0.54122 0.49572 0.16409 0.0
H681 H 0.40213 0.55418 0.18167 0.0
H682 H 0.41092 0.56619 0.16526 0.0
H683 H 0.40757 0.54225 0.16798 0.0
Li684 Li 0.6383 0.4175 0.42346 0.0
Li685 Li 0.63188 0.38681 0.41286 0.0
Li686 Li 0.66262 0.41778 0.40849 0.0
Li687 Li 0.63226 0.41215 0.39781 0.0
C688 C 0.65624 0.40359 0.43972 0.0
N689 N 0.66243 0.40403 0.46774 0.0
C690 C 0.64627 0.38645 0.44736 0.0
C691 C 0.66947 0.42091 0.44631 0.0
C692 C 0.64958 0.38699 0.46152 0.0
C693 C 0.67235 0.42084 0.4605 0.0
C694 C 0.59491 0.38582 0.41459 0.0
C695 C 0.56308 0.36686 0.40431 0.0
N696 N 0.5552 0.36126 0.41707 0.0
C697 C 0.58644 0.37997 0.42759 0.0
C698 C 0.5831 0.37931 0.40285 0.0
C699 C 0.56636 0.36752 0.42863 0.0
C700 C 0.63697 0.44721 0.43889 0.0
N701 N 0.63329 0.42854 0.43933 0.0
C702 C 0.62071 0.42472 0.46215 0.0
C703 C 0.62534 0.41731 0.45066 0.0
C704 C 0.62414 0.44387 0.46199 0.0
C705 C 0.63246 0.45522 0.45017 0.0
H706 H 0.64317 0.45581 0.42971 0.0
H707 H 0.62232 0.40246 0.45075 0.0
C708 C 0.63625 0.35475 0.41517 0.0
N709 N 0.62217 0.35971 0.41547 0.0
C710 C 0.63169 0.33567 0.41783 0.0
C711 C 0.59806 0.32695 0.42077 0.0
C712 C 0.60327 0.34623 0.41798 0.0
C713 C 0.61241 0.32153 0.42087 0.0
H714 H 0.65116 0.3658 0.41317 0.0
H715 H 0.59224 0.35035 0.41799 0.0
C716 C 0.6682 0.45265 0.40448 0.0
N717 N 0.70186 0.48621 0.39718 0.0
C718 C 0.6715 0.45861 0.39074 0.0
C719 C 0.6819 0.46383 0.41453 0.0
C720 C 0.68863 0.47561 0.38725 0.0
C721 C 0.69886 0.48073 0.41062 0.0
C722 C 0.63978 0.38405 0.3846 0.0
C723 C 0.65324 0.38409 0.37532 0.0
C724 C 0.62005 0.37035 0.38312 0.0
C725 C 0.64668 0.3705 0.3646 0.0
C726 C 0.61406 0.35699 0.37228 0.0
N727 N 0.62738 0.35735 0.36331 0.0
C728 C 0.70218 0.42961 0.41466 0.0
C729 C 0.69522 0.4326 0.39135 0.0
C730 C 0.72145 0.4354 0.41133 0.0
N731 N 0.68952 0.42817 0.40467 0.0
C732 C 0.71432 0.43847 0.38757 0.0
C733 C 0.72767 0.43964 0.39758 0.0
H734 H 0.69721 0.42575 0.42513 0.0
H735 H 0.68473 0.431 0.38359 0.0
C736 C 0.60874 0.42412 0.38417 0.0
N737 N 0.62138 0.4175 0.38215 0.0
C738 C 0.60099 0.42894 0.37293 0.0
C739 C 0.61943 0.42002 0.35777 0.0
C740 C 0.62692 0.41552 0.36929 0.0
C741 C 0.60633 0.42689 0.35952 0.0
H742 H 0.60478 0.42573 0.39454 0.0
H743 H 0.63744 0.41081 0.36795 0.0
O744 O 0.65312 0.40336 0.42586 0.0
O745 O 0.61453 0.39824 0.41337 0.0
O746 O 0.65173 0.43583 0.40805 0.0
O747 O 0.64599 0.39728 0.39514 0.0
H748 H 0.63596 0.37292 0.44243 0.0
H749 H 0.67728 0.43429 0.44056 0.0
H750 H 0.64191 0.37386 0.46757 0.0
H751 H 0.68246 0.43417 0.46574 0.0
H752 H 0.55381 0.36168 0.39531 0.0
H753 H 0.59526 0.38477 0.43678 0.0
H754 H 0.58927 0.38382 0.39269 0.0
H755 H 0.55966 0.3628 0.43863 0.0
H756 H 0.61401 0.41533 0.47094 0.0
H757 H 0.63545 0.47009 0.44964 0.0
H758 H 0.64327 0.3322 0.41798 0.0
H759 H 0.58299 0.31644 0.42292 0.0
H760 H 0.66103 0.4501 0.38284 0.0
H761 H 0.6795 0.45945 0.42521 0.0
H762 H 0.69145 0.48034 0.37664 0.0
H763 H 0.70965 0.48947 0.41827 0.0
H764 H 0.66859 0.39452 0.37638 0.0
H765 H 0.60952 0.36992 0.39033 0.0
H766 H 0.65692 0.3704 0.35731 0.0
H767 H 0.59882 0.34629 0.37102 0.0
H768 H 0.73128 0.43624 0.41939 0.0
H769 H 0.71834 0.44126 0.37682 0.0
H770 H 0.59088 0.43412 0.37471 0.0
H771 H 0.62422 0.41862 0.34762 0.0
Li772 Li 0.23953 0.63018 0.58913 0.0
Li773 Li 0.26541 0.62445 0.57913 0.0
Li774 Li 0.26503 0.65386 0.57475 0.0
Li775 Li 0.24072 0.62494 0.564 0.0
C776 C 0.28065 0.66108 0.599 0.0
N777 N 0.30687 0.69686 0.61012 0.0
C778 C 0.30042 0.66694 0.59965 0.0
C779 C 0.27418 0.67336 0.60409 0.0
C780 C 0.31346 0.68511 0.60528 0.0
C781 C 0.28768 0.6914 0.60966 0.0
C782 C 0.22747 0.58809 0.5832 0.0
C783 C 0.20999 0.55381 0.57784 0.0
N784 N 0.20862 0.54968 0.59151 0.0
C785 C 0.2258 0.58352 0.59721 0.0
C786 C 0.21941 0.57314 0.57343 0.0
C787 C 0.21624 0.56401 0.6012 0.0
C788 C 0.20319 0.61365 0.60247 0.0
N789 N 0.22274 0.62442 0.60438 0.0
C790 C 0.21862 0.62508 0.62867 0.0
C791 C 0.2306 0.63019 0.61714 0.0
C792 C 0.19833 0.61362 0.62711 0.0
C793 C 0.19063 0.60803 0.61375 0.0
H794 H 0.1974 0.60905 0.59219 0.0
H795 H 0.24622 0.63846 0.61839 0.0
C796 C 0.30096 0.62601 0.5785 0.0
N797 N 0.28221 0.61418 0.58239 0.0
C798 C 0.31513 0.62109 0.58153 0.0
C799 C 0.29032 0.59148 0.59211 0.0
C800 C 0.27661 0.59703 0.5889 0.0
C801 C 0.30997 0.60376 0.58863 0.0
H802 H 0.30502 0.63963 0.57341 0.0
H803 H 0.26165 0.58784 0.5919 0.0
C804 C 0.23303 0.65542 0.56417 0.0
N805 N 0.22521 0.67622 0.54494 0.0
C806 C 0.24369 0.66145 0.55194 0.0
C807 C 0.21842 0.65997 0.56662 0.0
C808 C 0.2395 0.67194 0.54235 0.0
C809 C 0.21469 0.67051 0.55678 0.0
C810 C 0.27415 0.62897 0.55119 0.0
C811 C 0.28747 0.64006 0.54098 0.0
C812 C 0.26574 0.60873 0.55105 0.0
C813 C 0.29209 0.6307 0.53072 0.0
C814 C 0.27075 0.59991 0.54063 0.0
N815 N 0.2837 0.61098 0.53076 0.0
C816 C 0.30062 0.6852 0.56757 0.0
C817 C 0.27782 0.69489 0.5738 0.0
C818 C 0.31483 0.70444 0.56515 0.0
N819 N 0.28259 0.68082 0.57182 0.0
C820 C 0.2916 0.7144 0.57142 0.0
C821 C 0.31041 0.71936 0.56707 0.0
H822 H 0.30397 0.67367 0.56612 0.0
H823 H 0.2634 0.69099 0.57731 0.0
C824 C 0.20491 0.60217 0.55076 0.0
N825 N 0.22426 0.61381 0.54842 0.0
C826 C 0.19186 0.59472 0.53974 0.0
C827 C 0.21897 0.61111 0.52412 0.0
C828 C 0.23144 0.61838 0.53543 0.0
C829 C 0.19883 0.59931 0.52617 0.0
H830 H 0.1996 0.59904 0.56123 0.0
H831 H 0.2468 0.62804 0.53378 0.0
O832 O 0.26772 0.64361 0.59316 0.0
O833 O 0.23654 0.60708 0.57905 0.0
O834 O 0.2368 0.64513 0.57377 0.0
O835 O 0.26953 0.63804 0.56126 0.0
H836 H 0.30567 0.65763 0.59576 0.0
H837 H 0.25895 0.66913 0.60352 0.0
H838 H 0.32882 0.68987 0.60578 0.0
H839 H 0.2829 0.7011 0.61354 0.0
H840 H 0.20375 0.54209 0.57038 0.0
H841 H 0.232 0.59491 0.6049 0.0
H842 H 0.2204 0.57642 0.56255 0.0
H843 H 0.2149 0.56025 0.61199 0.0
H844 H 0.22523 0.62998 0.63872 0.0
H845 H 0.17513 0.59896 0.61205 0.0
H846 H 0.33011 0.63119 0.57883 0.0
H847 H 0.28564 0.57788 0.59744 0.0
H848 H 0.25511 0.65816 0.54988 0.0
H849 H 0.21006 0.65541 0.57605 0.0
H850 H 0.24763 0.67671 0.53284 0.0
H851 H 0.20342 0.67415 0.55854 0.0
H852 H 0.2941 0.65576 0.54096 0.0
H853 H 0.25553 0.59994 0.55892 0.0
H854 H 0.30233 0.6391 0.52272 0.0
H855 H 0.26436 0.58426 0.5404 0.0
H856 H 0.32905 0.70758 0.56162 0.0
H857 H 0.28768 0.7255 0.57314 0.0
H858 H 0.17645 0.58596 0.54186 0.0
H859 H 0.22509 0.61484 0.51387 0.0
Li860 Li 0.66608 0.26746 0.74611 0.0
Li861 Li 0.63577 0.24146 0.75607 0.0
Li862 Li 0.64201 0.24199 0.73165 0.0
Li863 Li 0.63578 0.26575 0.74133 0.0
C864 C 0.66715 0.23503 0.75648 0.0
N865 N 0.68746 0.22683 0.77592 0.0
C866 C 0.67273 0.24533 0.76891 0.0
C867 C 0.67188 0.22055 0.75395 0.0
C868 C 0.68299 0.24096 0.7786 0.0
C869 C 0.68216 0.21662 0.7639 0.0
C870 C 0.64025 0.27824 0.76695 0.0
C871 C 0.61208 0.27669 0.77762 0.0
N872 N 0.62294 0.29582 0.7811 0.0
C873 C 0.65115 0.29786 0.77067 0.0
C874 C 0.62056 0.26754 0.77047 0.0
C875 C 0.64212 0.30649 0.77781 0.0
C876 C 0.69579 0.30447 0.74973 0.0
N877 N 0.69269 0.28605 0.74907 0.0
C878 C 0.72637 0.29747 0.75349 0.0
C879 C 0.70754 0.28228 0.75056 0.0
C880 C 0.72971 0.31653 0.7549 0.0
C881 C 0.71421 0.31997 0.75272 0.0
H882 H 0.6838 0.30704 0.74803 0.0
H883 H 0.70479 0.26753 0.74965 0.0
C884 C 0.61311 0.20556 0.76896 0.0
N885 N 0.62468 0.22489 0.77146 0.0
C886 C 0.6049 0.19256 0.77988 0.0
C887 C 0.62064 0.21964 0.79573 0.0
C888 C 0.62865 0.23211 0.7845 0.0
C889 C 0.60861 0.19957 0.79349 0.0
H890 H 0.61032 0.20028 0.75846 0.0
H891 H 0.63814 0.24753 0.78619 0.0
C892 C 0.67051 0.27476 0.71837 0.0
N893 N 0.69892 0.28368 0.69874 0.0
C894 C 0.67417 0.28883 0.70838 0.0
C895 C 0.68132 0.26523 0.71839 0.0
C896 C 0.68859 0.29313 0.69854 0.0
C897 C 0.69561 0.26995 0.70838 0.0
C898 C 0.60334 0.23257 0.73111 0.0
C899 C 0.60732 0.24349 0.71905 0.0
C900 C 0.58474 0.2167 0.73324 0.0
C901 C 0.59258 0.23832 0.7093 0.0
C902 C 0.57037 0.212 0.72325 0.0
N903 N 0.57456 0.22282 0.71158 0.0
C904 C 0.63237 0.2066 0.71911 0.0
C905 C 0.638 0.2315 0.70319 0.0
C906 C 0.62769 0.19321 0.70841 0.0
N907 N 0.63735 0.2253 0.71633 0.0
C908 C 0.63358 0.21864 0.69217 0.0
C909 C 0.62822 0.19917 0.69473 0.0
H910 H 0.63183 0.20208 0.72968 0.0
H911 H 0.64162 0.24635 0.70126 0.0
C912 C 0.63914 0.30087 0.73439 0.0
N913 N 0.62563 0.28261 0.73829 0.0
C914 C 0.63382 0.3149 0.73213 0.0
C915 C 0.60066 0.29108 0.73794 0.0
C916 C 0.60667 0.27745 0.74012 0.0
C917 C 0.61437 0.31012 0.73394 0.0
H918 H 0.65413 0.30452 0.73308 0.0
H919 H 0.59627 0.26285 0.74339 0.0
O920 O 0.65694 0.23883 0.74682 0.0
O921 O 0.64863 0.26962 0.75961 0.0
O922 O 0.6564 0.27048 0.72802 0.0
O923 O 0.61749 0.23724 0.74085 0.0
H924 H 0.66929 0.25664 0.77105 0.0
H925 H 0.66762 0.21243 0.74438 0.0
H926 H 0.68741 0.24883 0.78825 0.0
H927 H 0.68593 0.20546 0.76207 0.0
H928 H 0.59684 0.26861 0.78035 0.0
H929 H 0.6664 0.30636 0.7681 0.0
H930 H 0.61184 0.25241 0.76752 0.0
H931 H 0.65037 0.32167 0.78072 0.0
H932 H 0.73801 0.29429 0.75502 0.0
H933 H 0.71629 0.33452 0.75337 0.0
H934 H 0.59555 0.17722 0.7777 0.0
H935 H 0.62405 0.2256 0.80606 0.0
H936 H 0.66592 0.29633 0.70824 0.0
H937 H 0.67875 0.2543 0.726 0.0
H938 H 0.69156 0.30398 0.69075 0.0
H939 H 0.70407 0.26269 0.70827 0.0
H940 H 0.62161 0.25585 0.71722 0.0
H941 H 0.58144 0.2081 0.74253 0.0
H942 H 0.59546 0.24665 0.69992 0.0
H943 H 0.5559 0.19975 0.72476 0.0
H944 H 0.62378 0.17837 0.71081 0.0
H945 H 0.63389 0.22374 0.68179 0.0
H946 H 0.64481 0.3293 0.72885 0.0
H947 H 0.58556 0.28686 0.73956 0.0
Li948 Li 0.41122 0.62416 0.92076 0.0
Li949 Li 0.41848 0.65507 0.90966 0.0
Li950 Li 0.38704 0.62433 0.90472 0.0
Li951 Li 0.41788 0.62983 0.89541 0.0
C952 C 0.38604 0.63723 0.93342 0.0
N953 N 0.36356 0.6345 0.95593 0.0
C954 C 0.3919 0.65315 0.94223 0.0
C955 C 0.36863 0.61999 0.93597 0.0
C956 C 0.38038 0.65146 0.95358 0.0
C957 C 0.3575 0.61889 0.94742 0.0
C958 C 0.4533 0.65859 0.91482 0.0
C959 C 0.48204 0.68901 0.90933 0.0
N960 N 0.48899 0.68968 0.92225 0.0
C961 C 0.46077 0.6595 0.92801 0.0
C962 C 0.46405 0.67338 0.90536 0.0
C963 C 0.47883 0.67536 0.93158 0.0
C964 C 0.4184 0.59826 0.93632 0.0
N965 N 0.41511 0.61348 0.93711 0.0
C966 C 0.41892 0.61487 0.96154 0.0
C967 C 0.41535 0.62185 0.94937 0.0
C968 C 0.4226 0.5993 0.96109 0.0
C969 C 0.42217 0.59087 0.94825 0.0
H970 H 0.41837 0.59206 0.92638 0.0
H971 H 0.41314 0.6342 0.94971 0.0
C972 C 0.42368 0.69192 0.90397 0.0
N973 N 0.4289 0.68212 0.91285 0.0
C974 C 0.42924 0.71134 0.90648 0.0
C975 C 0.44597 0.71041 0.92701 0.0
C976 C 0.43977 0.6909 0.92424 0.0
C977 C 0.44045 0.72087 0.9182 0.0
H978 H 0.41465 0.68445 0.89517 0.0
H979 H 0.44324 0.68264 0.93137 0.0
C980 C 0.3837 0.58694 0.90599 0.0
N981 N 0.35579 0.54804 0.90799 0.0
C982 C 0.37902 0.57473 0.89452 0.0
C983 C 0.37436 0.5793 0.91852 0.0
C984 C 0.36482 0.55512 0.89572 0.0
C985 C 0.36024 0.55962 0.91931 0.0
C986 C 0.40564 0.64743 0.87801 0.0
C987 C 0.38951 0.63547 0.86982 0.0
C988 C 0.4228 0.66166 0.87186 0.0
C989 C 0.39091 0.63777 0.85554 0.0
C990 C 0.42363 0.66348 0.85754 0.0
N991 N 0.40781 0.65159 0.84974 0.0
C992 C 0.35565 0.62978 0.90332 0.0
C993 C 0.34667 0.59725 0.89776 0.0
C994 C 0.33662 0.62579 0.90129 0.0
N995 N 0.36029 0.6156 0.90158 0.0
C996 C 0.32738 0.59258 0.89565 0.0
C997 C 0.32214 0.60696 0.89743 0.0
H998 H 0.36686 0.64429 0.90623 0.0
H999 H 0.35066 0.58624 0.8963 0.0
C1000 C 0.44914 0.63199 0.88016 0.0
N1001 N 0.4296 0.62483 0.88003 0.0
C1002 C 0.45822 0.62869 0.86902 0.0
C1003 C 0.42689 0.61064 0.85782 0.0
C1004 C 0.4184 0.61419 0.86922 0.0
C1005 C 0.44706 0.6179 0.85765 0.0
H1006 H 0.45769 0.64023 0.88892 0.0
H1007 H 0.40286 0.60845 0.86946 0.0
O1008 O 0.39717 0.6387 0.92224 0.0
O1009 O 0.43562 0.64321 0.91116 0.0
O1010 O 0.39763 0.60615 0.90498 0.0
O1011 O 0.40462 0.64525 0.89199 0.0
H1012 H 0.40527 0.66664 0.94036 0.0
H1013 H 0.36363 0.60766 0.92912 0.0
H1014 H 0.3848 0.66364 0.96053 0.0
H1015 H 0.344 0.60563 0.94952 0.0
H1016 H 0.49046 0.70062 0.90215 0.0
H1017 H 0.4527 0.64811 0.93542 0.0
H1018 H 0.4585 0.67284 0.8951 0.0
H1019 H 0.48477 0.67631 0.94176 0.0
H1020 H 0.41887 0.62169 0.97119 0.0
H1021 H 0.42521 0.57905 0.94737 0.0
H1022 H 0.42419 0.71853 0.89953 0.0
H1023 H 0.45478 0.71709 0.93608 0.0
H1024 H 0.38622 0.58034 0.88478 0.0
H1025 H 0.37804 0.58841 0.92757 0.0
H1026 H 0.36098 0.54554 0.88691 0.0
H1027 H 0.35287 0.55354 0.92894 0.0
H1028 H 0.37611 0.6244 0.87444 0.0
H1029 H 0.43535 0.67113 0.87808 0.0
H1030 H 0.37859 0.62854 0.84906 0.0
H1031 H 0.43685 0.67434 0.85262 0.0
H1032 H 0.33338 0.63744 0.90252 0.0
H1033 H 0.31667 0.57784 0.89278 0.0
H1034 H 0.47383 0.63469 0.86926 0.0
H1035 H 0.41772 0.60204 0.84935 0.0
Li1036 Li 0.78131 0.41022 0.07811 0.0
Li1037 Li 0.80627 0.4045 0.08793 0.0
Li1038 Li 0.80724 0.41199 0.06296 0.0
Li1039 Li 0.78311 0.38004 0.07237 0.0
C1040 C 0.81427 0.4476 0.0773 0.0
N1041 N 0.82326 0.48571 0.07353 0.0
C1042 C 0.8228 0.46114 0.08797 0.0
C1043 C 0.81051 0.45349 0.06468 0.0
C1044 C 0.82718 0.48032 0.08588 0.0
C1045 C 0.81511 0.4728 0.06298 0.0
C1046 C 0.77537 0.38382 0.10379 0.0
C1047 C 0.77564 0.3641 0.12253 0.0
N1048 N 0.77159 0.37481 0.13147 0.0
C1049 C 0.77103 0.39452 0.11312 0.0
C1050 C 0.77753 0.36838 0.10848 0.0
C1051 C 0.76924 0.38978 0.12709 0.0
C1052 C 0.74513 0.40747 0.07645 0.0
N1053 N 0.76335 0.41884 0.08158 0.0
C1054 C 0.75357 0.43936 0.09285 0.0
C1055 C 0.76782 0.43456 0.08965 0.0
C1056 C 0.73453 0.42771 0.08782 0.0
C1057 C 0.73046 0.41171 0.07939 0.0
H1058 H 0.74194 0.39487 0.07025 0.0
H1059 H 0.78225 0.44301 0.09395 0.0
C1060 C 0.83394 0.40232 0.10555 0.0
N1061 N 0.82158 0.40938 0.10402 0.0
C1062 C 0.84555 0.40684 0.11734 0.0
C1063 C 0.8313 0.42563 0.12573 0.0
C1064 C 0.8201 0.42084 0.11378 0.0
C1065 C 0.84441 0.41878 0.12758 0.0
H1066 H 0.83505 0.39349 0.09753 0.0
H1067 H 0.81025 0.42637 0.11221 0.0
C1068 C 0.77071 0.39774 0.04774 0.0
N1069 N 0.75408 0.39815 0.02281 0.0
C1070 C 0.76527 0.38252 0.03833 0.0
C1071 C 0.7674 0.41302 0.04455 0.0
C1072 C 0.75698 0.38304 0.02576 0.0
C1073 C 0.75905 0.413 0.03187 0.0
C1074 C 0.81603 0.37816 0.06828 0.0
C1075 C 0.82367 0.37865 0.05523 0.0
C1076 C 0.81255 0.36312 0.07735 0.0
C1077 C 0.8275 0.36391 0.05142 0.0
C1078 C 0.81655 0.34864 0.07315 0.0
N1079 N 0.82387 0.34932 0.06038 0.0
C1080 C 0.84196 0.44 0.05044 0.0
C1081 C 0.81821 0.41805 0.03474 0.0
C1082 C 0.85528 0.44892 0.03975 0.0
N1083 N 0.82389 0.42479 0.04776 0.0
C1084 C 0.831 0.42656 0.02375 0.0
C1085 C 0.84994 0.44202 0.02621 0.0
H1086 H 0.84618 0.44488 0.06093 0.0
H1087 H 0.80398 0.4057 0.03288 0.0
C1088 C 0.74957 0.34422 0.07537 0.0
N1089 N 0.76664 0.35312 0.06835 0.0
C1090 C 0.73526 0.32529 0.07199 0.0
C1091 C 0.75662 0.32468 0.05454 0.0
C1092 C 0.77044 0.34374 0.05816 0.0
C1093 C 0.73852 0.31533 0.06127 0.0
H1094 H 0.74673 0.35214 0.08322 0.0
H1095 H 0.78383 0.35125 0.05242 0.0
O1096 O 0.80981 0.42874 0.07923 0.0
O1097 O 0.77747 0.38843 0.09011 0.0
O1098 O 0.77869 0.39736 0.06015 0.0
O1099 O 0.81225 0.3925 0.07219 0.0
H1100 H 0.82594 0.45686 0.09778 0.0
H1101 H 0.80426 0.44331 0.05625 0.0
H1102 H 0.83369 0.49093 0.09406 0.0
H1103 H 0.81225 0.47754 0.05327 0.0
H1104 H 0.77738 0.35224 0.12633 0.0
H1105 H 0.76925 0.40648 0.10962 0.0
H1106 H 0.78064 0.35981 0.10136 0.0
H1107 H 0.76602 0.39802 0.13444 0.0
H1108 H 0.75723 0.45165 0.09955 0.0
H1109 H 0.71604 0.40246 0.07519 0.0
H1110 H 0.85563 0.40147 0.11826 0.0
H1111 H 0.82971 0.43462 0.13342 0.0
H1112 H 0.76762 0.37054 0.04065 0.0
H1113 H 0.77102 0.42468 0.05181 0.0
H1114 H 0.75285 0.37142 0.01835 0.0
H1115 H 0.75646 0.42476 0.02926 0.0
H1116 H 0.82659 0.39025 0.04811 0.0
H1117 H 0.80676 0.3626 0.08751 0.0
H1118 H 0.83336 0.36406 0.04134 0.0
H1119 H 0.81384 0.33686 0.08005 0.0
H1120 H 0.86981 0.46059 0.04216 0.0
H1121 H 0.82618 0.42088 0.01347 0.0
H1122 H 0.72144 0.31895 0.07729 0.0
H1123 H 0.75992 0.31758 0.04631 0.0
Li1124 Li 0.42965 0.81214 0.25662 0.0
Li1125 Li 0.39873 0.78801 0.24707 0.0
Li1126 Li 0.42811 0.78618 0.24139 0.0
Li1127 Li 0.42263 0.81132 0.23193 0.0
C1128 C 0.40641 0.77622 0.27187 0.0
N1129 N 0.38653 0.7608 0.29614 0.0
C1130 C 0.40087 0.78705 0.28013 0.0
C1131 C 0.40187 0.75755 0.27597 0.0
C1132 C 0.39082 0.77901 0.29235 0.0
C1133 C 0.39181 0.75001 0.28828 0.0
C1134 C 0.3946 0.81942 0.25015 0.0
C1135 C 0.36366 0.81586 0.24354 0.0
N1136 N 0.36318 0.8244 0.25557 0.0
C1137 C 0.39381 0.82821 0.26243 0.0
C1138 C 0.37943 0.81325 0.2406 0.0
C1139 C 0.3778 0.83058 0.26499 0.0
C1140 C 0.44604 0.84724 0.27122 0.0
N1141 N 0.44262 0.82869 0.27184 0.0
C1142 C 0.4551 0.83374 0.29479 0.0
C1143 C 0.44737 0.82191 0.28317 0.0
C1144 C 0.45797 0.85272 0.2947 0.0
C1145 C 0.4537 0.85956 0.2826 0.0
H1146 H 0.44217 0.85222 0.26203 0.0
H1147 H 0.44467 0.80713 0.28333 0.0
C1148 C 0.3631 0.75397 0.24374 0.0
N1149 N 0.37168 0.77098 0.2509 0.0
C1150 C 0.34389 0.73976 0.24646 0.0
C1151 C 0.34251 0.76092 0.26377 0.0
C1152 C 0.36183 0.77462 0.26082 0.0
C1153 C 0.33329 0.74308 0.25665 0.0
H1154 H 0.37136 0.75122 0.23612 0.0
H1155 H 0.36898 0.78798 0.26666 0.0
C1156 C 0.46478 0.81889 0.24553 0.0
N1157 N 0.50091 0.82764 0.25544 0.0
C1158 C 0.48163 0.8343 0.2399 0.0
C1159 C 0.46629 0.80792 0.2562 0.0
C1160 C 0.49977 0.83849 0.24505 0.0
C1161 C 0.48469 0.81257 0.26107 0.0
C1162 C 0.40423 0.78162 0.21526 0.0
C1163 C 0.41811 0.78115 0.20669 0.0
C1164 C 0.38792 0.78126 0.2095 0.0
C1165 C 0.41557 0.78063 0.19243 0.0
C1166 C 0.38591 0.78074 0.1952 0.0
N1167 N 0.39967 0.78046 0.18702 0.0
C1168 C 0.42365 0.74936 0.24045 0.0
C1169 C 0.45392 0.77335 0.23133 0.0
C1170 C 0.42766 0.73467 0.23701 0.0
N1171 N 0.43669 0.76822 0.23757 0.0
C1172 C 0.45856 0.75908 0.22771 0.0
C1173 C 0.44525 0.7394 0.23044 0.0
H1174 H 0.40984 0.74571 0.24505 0.0
H1175 H 0.46385 0.78842 0.22885 0.0
C1176 C 0.41727 0.8357 0.21286 0.0
N1177 N 0.42792 0.82712 0.216 0.0
C1178 C 0.42161 0.84732 0.20114 0.0
C1179 C 0.44791 0.84118 0.19619 0.0
C1180 C 0.44307 0.82971 0.208 0.0
C1181 C 0.43713 0.85019 0.19262 0.0
H1182 H 0.40553 0.83372 0.21949 0.0
H1183 H 0.45135 0.82278 0.21079 0.0
O1184 O 0.41611 0.78376 0.25979 0.0
O1185 O 0.41019 0.81701 0.24745 0.0
O1186 O 0.44695 0.81472 0.24058 0.0
O1187 O 0.4067 0.78262 0.22923 0.0
H1188 H 0.40413 0.80146 0.27706 0.0
H1189 H 0.40611 0.74898 0.26974 0.0
H1190 H 0.38639 0.78722 0.29881 0.0
H1191 H 0.38819 0.73557 0.29158 0.0
H1192 H 0.35179 0.81105 0.23628 0.0
H1193 H 0.40537 0.83306 0.26996 0.0
H1194 H 0.37972 0.80629 0.23111 0.0
H1195 H 0.37698 0.83731 0.27447 0.0
H1196 H 0.45849 0.82799 0.30381 0.0
H1197 H 0.45547 0.87399 0.2821 0.0
H1198 H 0.33765 0.72611 0.2409 0.0
H1199 H 0.33494 0.76429 0.2716 0.0
H1200 H 0.48069 0.84293 0.23163 0.0
H1201 H 0.45343 0.79589 0.26066 0.0
H1202 H 0.51294 0.85038 0.24079 0.0
H1203 H 0.48607 0.8042 0.26932 0.0
H1204 H 0.43084 0.78146 0.21098 0.0
H1205 H 0.37693 0.78138 0.21601 0.0
H1206 H 0.42628 0.78042 0.18565 0.0
H1207 H 0.3734 0.78055 0.19059 0.0
H1208 H 0.41675 0.71969 0.23903 0.0
H1209 H 0.4723 0.7634 0.22269 0.0
H1210 H 0.41311 0.85422 0.19891 0.0
H1211 H 0.45983 0.84278 0.18984 0.0
H1212 H 0.17814 0.58171 0.2786 0.0
H1213 H 0.20996 0.61079 0.27531 0.0
H1214 H 0.18475 0.64703 0.28326 0.0
H1215 H 0.15274 0.61799 0.28586 0.0
H1216 H 0.20737 0.65985 0.26179 0.0
H1217 H 0.24785 0.64722 0.30299 0.0
H1218 H 0.23685 0.62703 0.2913 0.0
H1219 H 0.22171 0.63309 0.30156 0.0
C1220 C 0.17949 0.5959 0.27986 0.0
C1221 C 0.16305 0.59753 0.28289 0.0
C1222 C 0.19768 0.61251 0.27806 0.0
C1223 C 0.19989 0.63114 0.27943 0.0
C1224 C 0.18347 0.63282 0.28234 0.0
H1225 H 0.31583 0.73391 0.28206 0.0
H1226 H 0.28291 0.7084 0.28774 0.0
C1227 C 0.1652 0.6162 0.28394 0.0
C1228 C 0.2191 0.6488 0.27704 0.0
H1229 H 0.26715 0.67065 0.28582 0.0
C1230 C 0.22041 0.66232 0.26716 0.0
C1231 C 0.23609 0.65225 0.2842 0.0
C1232 C 0.23553 0.63923 0.29571 0.0
C1233 C 0.23828 0.67885 0.26397 0.0
C1234 C 0.25545 0.68161 0.27049 0.0
C1235 C 0.25405 0.66842 0.28066 0.0
C1236 C 0.27504 0.6979 0.26683 0.0
C1237 C 0.23847 0.69327 0.25377 0.0
C1238 C 0.28163 0.70054 0.25317 0.0
C1239 C 0.30032 0.71544 0.24982 0.0
C1240 C 0.31303 0.72779 0.26011 0.0
C1241 C 0.30639 0.725 0.2738 0.0
C1242 C 0.2876 0.71026 0.27711 0.0
H1243 H 0.22418 0.69266 0.25341 0.0
H1244 H 0.2499 0.70838 0.25634 0.0
H1245 H 0.2414 0.68965 0.24333 0.0
H1246 H 0.27243 0.6909 0.24509 0.0
H1247 H 0.30479 0.71722 0.23914 0.0
H1248 H 0.62871 0.17525 0.45131 0.0
H1249 H 0.62314 0.20028 0.44105 0.0
H1250 H 0.58648 0.19548 0.47531 0.0
H1251 H 0.59233 0.17076 0.48572 0.0
H1252 H 0.58918 0.2011 0.4333 0.0
H1253 H 0.62903 0.25285 0.4759 0.0
H1254 H 0.62982 0.23074 0.47333 0.0
H1255 H 0.60898 0.22992 0.48127 0.0
C1256 C 0.61928 0.1794 0.45654 0.0
C1257 C 0.61097 0.17112 0.46931 0.0
C1258 C 0.6161 0.19364 0.45068 0.0
C1259 C 0.60464 0.19991 0.45753 0.0
C1260 C 0.59564 0.19107 0.46998 0.0
H1261 H 0.58912 0.29941 0.44196 0.0
H1262 H 0.58422 0.26811 0.45011 0.0
C1263 C 0.5989 0.1769 0.47587 0.0
C1264 C 0.60303 0.21643 0.452 0.0
H1265 H 0.61498 0.26328 0.45901 0.0
C1266 C 0.59474 0.21469 0.43892 0.0
C1267 C 0.61035 0.23414 0.45937 0.0
C1268 C 0.62021 0.23718 0.47319 0.0
C1269 C 0.59358 0.23022 0.43302 0.0
C1270 C 0.60112 0.24798 0.44032 0.0
C1271 C 0.6091 0.24959 0.45348 0.0
C1272 C 0.60196 0.2655 0.43429 0.0
C1273 C 0.58421 0.22749 0.41905 0.0
C1274 C 0.61339 0.27429 0.42262 0.0
C1275 C 0.61619 0.29215 0.41793 0.0
C1276 C 0.60767 0.30158 0.42486 0.0
C1277 C 0.59569 0.29241 0.43629 0.0
C1278 C 0.59295 0.27458 0.441 0.0
H1279 H 0.57446 0.21185 0.4166 0.0
H1280 H 0.57569 0.2351 0.41846 0.0
H1281 H 0.59573 0.23372 0.41108 0.0
H1282 H 0.62076 0.26771 0.41744 0.0
H1283 H 0.62538 0.29878 0.40904 0.0
H1284 H 0.44893 0.59738 0.65288 0.0
H1285 H 0.41695 0.58951 0.64385 0.0
H1286 H 0.44272 0.61311 0.60439 0.0
H1287 H 0.4747 0.62093 0.61335 0.0
H1288 H 0.40921 0.61798 0.63369 0.0
H1289 H 0.39351 0.5614 0.59415 0.0
H1290 H 0.4113 0.56729 0.60765 0.0
H1291 H 0.41718 0.5827 0.5928 0.0
C1292 C 0.44766 0.60046 0.64219 0.0
C1293 C 0.46421 0.60945 0.63374 0.0
C1294 C 0.42943 0.596 0.63706 0.0
C1295 C 0.42743 0.60044 0.6234 0.0
C1296 C 0.44387 0.60911 0.61486 0.0
H1297 H 0.34231 0.60957 0.57443 0.0
H1298 H 0.36964 0.60671 0.58324 0.0
C1299 C 0.46212 0.61363 0.61999 0.0
C1300 C 0.40862 0.5979 0.61851 0.0
H1301 H 0.37362 0.57611 0.59374 0.0
C1302 C 0.40128 0.60864 0.62506 0.0
C1303 C 0.39844 0.58582 0.6072 0.0
C1304 C 0.40538 0.5735 0.60009 0.0
C1305 C 0.38434 0.60814 0.62034 0.0
C1306 C 0.37421 0.59619 0.60894 0.0
C1307 C 0.38139 0.5852 0.6025 0.0
C1308 C 0.3567 0.59576 0.60318 0.0
C1309 C 0.37791 0.62104 0.62726 0.0
C1310 C 0.34009 0.58993 0.61131 0.0
C1311 C 0.32456 0.59181 0.60639 0.0
C1312 C 0.32527 0.59937 0.59317 0.0
C1313 C 0.34146 0.60408 0.58476 0.0
C1314 C 0.35703 0.6023 0.58973 0.0
H1315 H 0.38975 0.63266 0.63354 0.0
H1316 H 0.37299 0.62798 0.61956 0.0
H1317 H 0.36554 0.6121 0.63423 0.0
H1318 H 0.33939 0.58448 0.62163 0.0
H1319 H 0.3124 0.58813 0.61318 0.0
H1320 H 0.88389 0.48487 0.77313 0.0
H1321 H 0.86051 0.45348 0.76288 0.0
H1322 H 0.84783 0.42716 0.80314 0.0
H1323 H 0.87164 0.45833 0.81336 0.0
H1324 H 0.84848 0.40262 0.78298 0.0
H1325 H 0.80287 0.43442 0.76723 0.0
H1326 H 0.82702 0.44634 0.76024 0.0
H1327 H 0.8236 0.44703 0.77848 0.0
C1328 C 0.87646 0.47227 0.77974 0.0
C1329 C 0.8797 0.47396 0.79404 0.0
C1330 C 0.86301 0.4544 0.77389 0.0
C1331 C 0.85224 0.43807 0.78228 0.0
C1332 C 0.85601 0.43956 0.79647 0.0
H1333 H 0.73723 0.34363 0.77463 0.0
H1334 H 0.76838 0.3722 0.78037 0.0
C1335 C 0.86958 0.45735 0.8023 0.0
C1336 C 0.83587 0.41988 0.77658 0.0
H1337 H 0.79083 0.40145 0.76212 0.0
C1338 C 0.83592 0.40233 0.77829 0.0
C1339 C 0.81944 0.41958 0.77062 0.0
C1340 C 0.81805 0.43779 0.76912 0.0
C1341 C 0.81977 0.38441 0.77448 0.0
C1342 C 0.80331 0.38415 0.76864 0.0
C1343 C 0.80352 0.40174 0.76657 0.0
C1344 C 0.78497 0.36582 0.76572 0.0
C1345 C 0.82008 0.36587 0.77727 0.0
C1346 C 0.78401 0.35257 0.75571 0.0
C1347 C 0.76614 0.3361 0.75244 0.0
C1348 C 0.749 0.33286 0.75901 0.0
C1349 C 0.75016 0.34592 0.76925 0.0
C1350 C 0.76794 0.3622 0.77257 0.0
H1351 H 0.83229 0.36835 0.78417 0.0
H1352 H 0.80619 0.35482 0.78202 0.0
H1353 H 0.8218 0.35984 0.7674 0.0
H1354 H 0.79694 0.35525 0.75015 0.0
H1355 H 0.7656 0.32631 0.74444 0.0
H1356 H 0.49346 0.90039 0.94987 0.0
H1357 H 0.4905 0.86854 0.9465 0.0
H1358 H 0.43185 0.84585 0.93149 0.0
H1359 H 0.43432 0.8774 0.93566 0.0
H1360 H 0.43314 0.82065 0.94781 0.0
H1361 H 0.49429 0.84567 0.91105 0.0
H1362 H 0.50186 0.85781 0.92736 0.0
H1363 H 0.48514 0.86119 0.91677 0.0
C1364 C 0.47983 0.88857 0.94603 0.0
C1365 C 0.46397 0.89134 0.94321 0.0
C1366 C 0.47826 0.87041 0.94392 0.0
C1367 C 0.46109 0.85486 0.93848 0.0
C1368 C 0.44527 0.85761 0.93569 0.0
H1369 H 0.44883 0.75085 0.90027 0.0
H1370 H 0.45381 0.78302 0.9057 0.0
C1371 C 0.44668 0.87562 0.93806 0.0
C1372 C 0.45939 0.83563 0.93584 0.0
H1373 H 0.48056 0.81314 0.91905 0.0
C1374 C 0.44348 0.81901 0.94148 0.0
C1375 C 0.47273 0.83344 0.92741 0.0
C1376 C 0.48934 0.85045 0.92018 0.0
C1377 C 0.44047 0.8003 0.93891 0.0
C1378 C 0.45422 0.79818 0.93092 0.0
C1379 C 0.47016 0.81479 0.9253 0.0
C1380 C 0.45189 0.7788 0.92778 0.0
C1381 C 0.4222 0.78303 0.94438 0.0
C1382 C 0.44959 0.76582 0.93837 0.0
C1383 C 0.44613 0.74715 0.93529 0.0
C1384 C 0.44543 0.74121 0.92152 0.0
C1385 C 0.44874 0.75465 0.91097 0.0
C1386 C 0.45183 0.77318 0.91406 0.0
H1387 H 0.41069 0.78676 0.94649 0.0
H1388 H 0.41631 0.77065 0.93702 0.0
H1389 H 0.42558 0.77826 0.95422 0.0
H1390 H 0.45017 0.77001 0.94905 0.0
H1391 H 0.4435 0.73726 0.94373 0.0
H1392 H 0.60889 0.48316 0.11097 0.0
H1393 H 0.63747 0.47987 0.10629 0.0
H1394 H 0.60507 0.41938 0.11782 0.0
H1395 H 0.57646 0.42258 0.12259 0.0
H1396 H 0.65736 0.46522 0.12489 0.0
H1397 H 0.62528 0.4211 0.0775 0.0
H1398 H 0.61634 0.43597 0.08502 0.0
H1399 H 0.61019 0.41298 0.0926 0.0
C1400 C 0.60798 0.46926 0.11274 0.0
C1401 C 0.59056 0.4532 0.11741 0.0
C1402 C 0.62426 0.46739 0.11002 0.0
C1403 C 0.62328 0.44938 0.11167 0.0
C1404 C 0.60602 0.43338 0.11644 0.0
H1405 H 0.69741 0.40145 0.09547 0.0
H1406 H 0.67122 0.40778 0.10152 0.0
C1407 C 0.58977 0.43525 0.11923 0.0
C1408 C 0.64013 0.44713 0.10805 0.0
H1409 H 0.65507 0.42452 0.08529 0.0
C1410 C 0.65697 0.45642 0.1162 0.0
C1411 C 0.63947 0.43567 0.09669 0.0
C1412 C 0.62194 0.42595 0.08735 0.0
C1413 C 0.67306 0.45406 0.11351 0.0
C1414 C 0.67234 0.44244 0.10221 0.0
C1415 C 0.65556 0.43339 0.09397 0.0
C1416 C 0.68858 0.43897 0.09892 0.0
C1417 C 0.69042 0.46352 0.12303 0.0
C1418 C 0.70702 0.45442 0.09538 0.0
C1419 C 0.72204 0.45084 0.09188 0.0
C1420 C 0.71879 0.43172 0.09172 0.0
C1421 C 0.7003 0.41631 0.09529 0.0
C1422 C 0.68535 0.41991 0.09883 0.0
H1423 H 0.68678 0.46781 0.133 0.0
H1424 H 0.69621 0.4536 0.12511 0.0
H1425 H 0.70211 0.47685 0.11809 0.0
H1426 H 0.7097 0.46921 0.0951 0.0
H1427 H 0.73606 0.46298 0.08902 0.0
H1428 H 0.43789 0.90198 0.54633 0.0
H1429 H 0.40844 0.87111 0.55157 0.0
H1430 H 0.43443 0.8397 0.53372 0.0
H1431 H 0.46375 0.87053 0.52821 0.0
H1432 H 0.39554 0.82498 0.52598 0.0
H1433 H 0.40541 0.83495 0.58265 0.0
H1434 H 0.40464 0.85433 0.57369 0.0
H1435 H 0.42438 0.84984 0.57063 0.0
C1436 C 0.43717 0.88849 0.54333 0.0
C1437 C 0.45297 0.88864 0.53663 0.0
C1438 C 0.42045 0.87089 0.54645 0.0
C1439 C 0.41936 0.85315 0.54316 0.0
C1440 C 0.43498 0.85325 0.53632 0.0
H1441 H 0.34872 0.73784 0.5745 0.0
H1442 H 0.37404 0.77085 0.56859 0.0
C1443 C 0.45168 0.87083 0.53316 0.0
C1444 C 0.40216 0.83441 0.54707 0.0
H1445 H 0.37701 0.80697 0.57478 0.0
C1446 C 0.3914 0.82105 0.53664 0.0
C1447 C 0.39697 0.82931 0.561 0.0
C1448 C 0.40852 0.84275 0.57267 0.0
C1449 C 0.37562 0.80262 0.53977 0.0
C1450 C 0.37034 0.79759 0.55369 0.0
C1451 C 0.38101 0.811 0.56412 0.0
C1452 C 0.35464 0.77798 0.5577 0.0
C1453 C 0.36515 0.78845 0.5282 0.0
C1454 C 0.33528 0.77122 0.55376 0.0
C1455 C 0.32076 0.7523 0.55707 0.0
C1456 C 0.32542 0.73987 0.56438 0.0
C1457 C 0.34474 0.74695 0.56866 0.0
C1458 C 0.3592 0.76583 0.56537 0.0
H1459 H 0.37347 0.79311 0.51841 0.0
H1460 H 0.36249 0.77372 0.53086 0.0
H1461 H 0.35084 0.78741 0.52645 0.0
H1462 H 0.33144 0.7805 0.548 0.0
H1463 H 0.30602 0.74723 0.55358 0.0
H1464 H 0.56061 0.43901 0.71345 0.0
H1465 H 0.56147 0.40935 0.71903 0.0
H1466 H 0.61828 0.43374 0.70052 0.0
H1467 H 0.61732 0.46326 0.69467 0.0
H1468 H 0.59332 0.39495 0.69323 0.0
H1469 H 0.59479 0.4059 0.74985 0.0
H1470 H 0.57465 0.40544 0.74104 0.0
H1471 H 0.59898 0.42478 0.73771 0.0
C1472 C 0.57314 0.4379 0.71039 0.0
C1473 C 0.58876 0.45329 0.7034 0.0
C1474 C 0.5737 0.42105 0.71371 0.0
C1475 C 0.59002 0.41945 0.71031 0.0
C1476 C 0.60553 0.43469 0.70321 0.0
H1477 H 0.63387 0.3483 0.74177 0.0
H1478 H 0.62605 0.37357 0.73604 0.0
C1479 C 0.60496 0.4515 0.69985 0.0
C1480 C 0.59119 0.40207 0.71431 0.0
H1481 H 0.59361 0.37709 0.74212 0.0
C1482 C 0.59327 0.39095 0.70391 0.0
C1483 C 0.59132 0.39705 0.72826 0.0
C1484 C 0.58999 0.40898 0.73989 0.0
C1485 C 0.59569 0.37504 0.70709 0.0
C1486 C 0.59568 0.36995 0.72104 0.0
C1487 C 0.59339 0.38094 0.73143 0.0
C1488 C 0.59952 0.3542 0.72508 0.0
C1489 C 0.59895 0.36427 0.69552 0.0
C1490 C 0.58695 0.33484 0.72108 0.0
C1491 C 0.59147 0.32036 0.72425 0.0
C1492 C 0.60862 0.32502 0.7315 0.0
C1493 C 0.62076 0.34431 0.73594 0.0
C1494 C 0.61624 0.35874 0.73276 0.0
H1495 H 0.60263 0.37252 0.68571 0.0
H1496 H 0.61085 0.36131 0.69813 0.0
H1497 H 0.58547 0.3501 0.69384 0.0
H1498 H 0.57379 0.33099 0.71534 0.0
H1499 H 0.58186 0.30565 0.72066 0.0
H1500 H 0.17165 0.61973 0.87116 0.0
H1501 H 0.20266 0.62061 0.87456 0.0
H1502 H 0.17184 0.559 0.88297 0.0
H1503 H 0.14082 0.55819 0.88004 0.0
H1504 H 0.19995 0.57858 0.90149 0.0
H1505 H 0.23019 0.60197 0.84915 0.0
H1506 H 0.22344 0.61823 0.85696 0.0
H1507 H 0.20501 0.59357 0.85312 0.0
C1508 C 0.17154 0.60635 0.87353 0.0
C1509 C 0.15384 0.5888 0.87493 0.0
C1510 C 0.18923 0.60683 0.87541 0.0
C1511 C 0.18957 0.58977 0.87866 0.0
C1512 C 0.17192 0.57229 0.88028 0.0
H1513 H 0.29678 0.58428 0.87716 0.0
H1514 H 0.26376 0.5781 0.87295 0.0
C1515 C 0.15422 0.57182 0.87852 0.0
C1516 C 0.2083 0.59034 0.88105 0.0
H1517 H 0.25253 0.60425 0.8666 0.0
C1518 C 0.21139 0.58403 0.89381 0.0
C1519 C 0.2231 0.59715 0.87095 0.0
C1520 C 0.22022 0.60292 0.85673 0.0
C1521 C 0.22907 0.58489 0.89691 0.0
C1522 C 0.24424 0.59271 0.88709 0.0
C1523 C 0.24096 0.59846 0.87417 0.0
C1524 C 0.2638 0.59554 0.89012 0.0
C1525 C 0.23126 0.57728 0.91062 0.0
C1526 C 0.27477 0.6074 0.90115 0.0
C1527 C 0.29353 0.61076 0.90369 0.0
C1528 C 0.30182 0.60255 0.89511 0.0
C1529 C 0.29075 0.59061 0.88408 0.0
C1530 C 0.27193 0.58718 0.8816 0.0
H1531 H 0.2169 0.56647 0.91494 0.0
H1532 H 0.24041 0.57037 0.90973 0.0
H1533 H 0.23833 0.58955 0.91803 0.0
H1534 H 0.26896 0.61434 0.90769 0.0
H1535 H 0.30155 0.61986 0.91235 0.0
H1536 H 0.5941 0.17472 0.99797 0.0
H1537 H 0.6263 0.19885 0.0067 0.0
H1538 H 0.60282 0.19181 0.04764 0.0
H1539 H 0.57053 0.1678 0.03896 0.0
H1540 H 0.63158 0.23398 0.02131 0.0
H1541 H 0.65525 0.1901 0.05178 0.0
H1542 H 0.63769 0.17979 0.03794 0.0
H1543 H 0.63067 0.18508 0.0542 0.0
C1544 C 0.59593 0.17801 0.00888 0.0
C1545 C 0.57992 0.16914 0.01783 0.0
C1546 C 0.61427 0.19178 0.01384 0.0
C1547 C 0.61693 0.19685 0.02783 0.0
C1548 C 0.6011 0.18776 0.03686 0.0
H1549 H 0.71056 0.2854 0.07675 0.0
H1550 H 0.6817 0.25614 0.06837 0.0
C1551 C 0.5827 0.17408 0.03189 0.0
C1552 C 0.63575 0.2131 0.03267 0.0
H1553 H 0.67497 0.22438 0.05317 0.0
C1554 C 0.64117 0.23191 0.0282 0.0
C1555 C 0.64799 0.21027 0.04177 0.0
C1556 C 0.64277 0.19023 0.04669 0.0
C1557 C 0.65842 0.24813 0.03279 0.0
C1558 C 0.67091 0.24534 0.04175 0.0
C1559 C 0.66546 0.22646 0.04622 0.0
C1560 C 0.68939 0.26199 0.04685 0.0
C1561 C 0.66274 0.26812 0.02834 0.0
C1562 C 0.70364 0.27462 0.03757 0.0
C1563 C 0.71993 0.29159 0.04229 0.0
C1564 C 0.72252 0.29609 0.05644 0.0
C1565 C 0.70883 0.28268 0.06577 0.0
C1566 C 0.6924 0.26583 0.06101 0.0
H1567 H 0.64938 0.26807 0.02483 0.0
H1568 H 0.6694 0.27884 0.03684 0.0
H1569 H 0.67309 0.27303 0.01959 0.0
H1570 H 0.70185 0.27169 0.02662 0.0
H1571 H 0.73002 0.30154 0.03476 0.0
H1572 H 0.45342 0.60122 0.16599 0.0
H1573 H 0.4606 0.63284 0.17534 0.0
H1574 H 0.43348 0.60543 0.21368 0.0
H1575 H 0.42629 0.57379 0.20437 0.0
H1576 H 0.4313 0.64039 0.18446 0.0
H1577 H 0.48479 0.65396 0.22597 0.0
H1578 H 0.4799 0.63685 0.21214 0.0
H1579 H 0.46333 0.6303 0.22635 0.0
C1580 C 0.44941 0.60204 0.17652 0.0
C1581 C 0.43963 0.58513 0.18454 0.0
C1582 C 0.45347 0.62007 0.18183 0.0
C1583 C 0.44786 0.62151 0.19527 0.0
C1584 C 0.43836 0.6047 0.2034 0.0
H1585 H 0.43715 0.70599 0.2441 0.0
H1586 H 0.4396 0.67844 0.23523 0.0
C1587 C 0.43423 0.58665 0.19807 0.0
C1588 C 0.45018 0.64018 0.20029 0.0
H1589 H 0.47058 0.67427 0.22579 0.0
C1590 C 0.44006 0.64795 0.1934 0.0
C1591 C 0.46152 0.64987 0.212 0.0
C1592 C 0.47316 0.64245 0.2195 0.0
C1593 C 0.44048 0.66485 0.19814 0.0
C1594 C 0.4517 0.6745 0.20993 0.0
C1595 C 0.46205 0.66688 0.21673 0.0
C1596 C 0.45205 0.69197 0.2157 0.0
C1597 C 0.42828 0.67177 0.1908 0.0
C1598 C 0.4588 0.70895 0.20782 0.0
C1599 C 0.45721 0.72464 0.21279 0.0
C1600 C 0.44898 0.72369 0.22579 0.0
C1601 C 0.4432 0.70704 0.23394 0.0
C1602 C 0.44473 0.69134 0.22893 0.0
H1603 H 0.41702 0.66025 0.18413 0.0
H1604 H 0.42094 0.67657 0.19827 0.0
H1605 H 0.43781 0.68434 0.18417 0.0
H1606 H 0.46484 0.70986 0.19767 0.0
H1607 H 0.46172 0.73717 0.20621 0.0
H1608 H 0.87039 0.42002 0.36124 0.0
H1609 H 0.84551 0.42474 0.37266 0.0
H1610 H 0.85595 0.47022 0.34383 0.0
H1611 H 0.88055 0.46528 0.33223 0.0
H1612 H 0.84607 0.4574 0.38491 0.0
H1613 H 0.79797 0.43105 0.33885 0.0
H1614 H 0.81896 0.42808 0.34073 0.0
H1615 H 0.82191 0.45121 0.33576 0.0
C1616 C 0.86753 0.43118 0.35747 0.0
C1617 C 0.87737 0.44228 0.34585 0.0
C1618 C 0.85334 0.43387 0.36399 0.0
C1619 C 0.8487 0.44762 0.35895 0.0
C1620 C 0.85909 0.4593 0.34772 0.0
H1621 H 0.75227 0.46655 0.37888 0.0
H1622 H 0.78321 0.47087 0.37036 0.0
C1623 C 0.87321 0.45655 0.34117 0.0
C1624 C 0.8323 0.449 0.36502 0.0
H1625 H 0.78712 0.44186 0.35764 0.0
C1626 C 0.83319 0.45407 0.37896 0.0
C1627 C 0.81552 0.44462 0.35721 0.0
C1628 C 0.81336 0.43827 0.34234 0.0
C1629 C 0.81772 0.4549 0.38531 0.0
C1630 C 0.80085 0.45027 0.37754 0.0
C1631 C 0.80012 0.44551 0.36355 0.0
C1632 C 0.78332 0.44921 0.3838 0.0
C1633 C 0.81962 0.46086 0.40024 0.0
C1634 C 0.77318 0.43568 0.39423 0.0
C1635 C 0.75547 0.43311 0.39906 0.0
C1636 C 0.74747 0.44392 0.39349 0.0
C1637 C 0.75793 0.45784 0.38329 0.0
C1638 C 0.77565 0.46041 0.37846 0.0
H1639 H 0.83511 0.46931 0.4035 0.0
H1640 H 0.81262 0.46974 0.40221 0.0
H1641 H 0.81231 0.44762 0.40673 0.0
H1642 H 0.77857 0.42653 0.39825 0.0
H1643 H 0.74764 0.42202 0.40674 0.0
H1644 H 0.06957 0.55287 0.4289 0.0
H1645 H 0.08623 0.55783 0.45101 0.0
H1646 H 0.13511 0.55946 0.43034 0.0
H1647 H 0.11814 0.55362 0.40828 0.0
H1648 H 0.12697 0.53917 0.45389 0.0
H1649 H 0.13003 0.60965 0.46344 0.0
H1650 H 0.10579 0.58948 0.4615 0.0
H1651 H 0.12233 0.59705 0.44718 0.0
C1652 C 0.08371 0.55391 0.4291 0.0
C1653 C 0.09244 0.55252 0.41688 0.0
C1654 C 0.09331 0.55698 0.44173 0.0
C1655 C 0.11204 0.55932 0.4423 0.0
C1656 C 0.12065 0.55766 0.43014 0.0
H1657 H 0.20136 0.61916 0.50253 0.0
H1658 H 0.17951 0.60793 0.48278 0.0
C1659 C 0.11096 0.55433 0.41756 0.0
C1660 C 0.12304 0.56406 0.45544 0.0
H1661 H 0.14223 0.59815 0.481 0.0
C1662 C 0.13027 0.55204 0.45985 0.0
C1663 C 0.12752 0.58099 0.46312 0.0
C1664 C 0.12119 0.59515 0.45852 0.0
C1665 C 0.1421 0.55661 0.47161 0.0
C1666 C 0.14636 0.57339 0.47937 0.0
C1667 C 0.13884 0.58522 0.47509 0.0
C1668 C 0.15961 0.57974 0.49144 0.0
C1669 C 0.15053 0.54384 0.47525 0.0
C1670 C 0.15566 0.56766 0.50295 0.0
C1671 C 0.16841 0.5739 0.5142 0.0
C1672 C 0.18521 0.59246 0.51423 0.0
C1673 C 0.18886 0.60462 0.50277 0.0
C1674 C 0.17625 0.5983 0.4915 0.0
H1675 H 0.15001 0.53471 0.4664 0.0
H1676 H 0.16587 0.55271 0.47874 0.0
H1677 H 0.14196 0.53396 0.48376 0.0
H1678 H 0.14269 0.55345 0.50327 0.0
H1679 H 0.16517 0.5641 0.52281 0.0
H1680 H 0.55575 0.05791 0.60769 0.0
H1681 H 0.56405 0.08281 0.62549 0.0
H1682 H 0.61917 0.11942 0.60574 0.0
H1683 H 0.61106 0.0945 0.58798 0.0
H1684 H 0.60005 0.09845 0.64262 0.0
H1685 H 0.59364 0.15471 0.61262 0.0
H1686 H 0.5812 0.12935 0.60765 0.0
H1687 H 0.60687 0.14422 0.60483 0.0
C1688 C 0.56949 0.07142 0.60703 0.0
C1689 C 0.58255 0.07446 0.59628 0.0
C1690 C 0.57422 0.08556 0.6172 0.0
C1691 C 0.59208 0.103 0.61678 0.0
C1692 C 0.60516 0.10617 0.60607 0.0
H1693 H 0.64691 0.20456 0.67011 0.0
H1694 H 0.63823 0.18112 0.65123 0.0
C1695 C 0.6005 0.09196 0.59594 0.0
C1696 C 0.59748 0.11739 0.62801 0.0
H1697 H 0.60538 0.16283 0.63542 0.0
C1698 C 0.60118 0.11252 0.6411 0.0
C1699 C 0.59907 0.13573 0.62588 0.0
C1700 C 0.59489 0.1414 0.61202 0.0
C1701 C 0.60666 0.12564 0.65214 0.0
C1702 C 0.60796 0.14391 0.6501 0.0
C1703 C 0.60434 0.1488 0.63697 0.0
C1704 C 0.61301 0.15813 0.66148 0.0
C1705 C 0.61147 0.11997 0.66579 0.0
C1706 C 0.60154 0.15309 0.6734 0.0
C1707 C 0.60652 0.16639 0.68421 0.0
C1708 C 0.62292 0.1851 0.68322 0.0
C1709 C 0.63414 0.19028 0.67114 0.0
C1710 C 0.62923 0.1769 0.66037 0.0
H1711 H 0.6153 0.10836 0.66457 0.0
H1712 H 0.62377 0.13267 0.67095 0.0
H1713 H 0.59857 0.11428 0.67262 0.0
H1714 H 0.58865 0.13888 0.67433 0.0
H1715 H 0.59738 0.16212 0.69328 0.0
H1716 H 0.54649 0.61514 0.75263 0.0
H1717 H 0.52724 0.62145 0.76942 0.0
H1718 H 0.50548 0.56404 0.78633 0.0
H1719 H 0.5244 0.55754 0.76942 0.0
H1720 H 0.47678 0.57461 0.78353 0.0
H1721 H 0.5428 0.63186 0.81012 0.0
H1722 H 0.54156 0.63588 0.79205 0.0
H1723 H 0.54373 0.61547 0.79765 0.0
C1724 C 0.53733 0.60377 0.75978 0.0
C1725 C 0.53674 0.58576 0.75963 0.0
C1726 C 0.52649 0.60745 0.76943 0.0
C1727 C 0.51514 0.59329 0.77921 0.0
C1728 C 0.51414 0.57514 0.77886 0.0
H1729 H 0.4749 0.6073 0.85827 0.0
H1730 H 0.49062 0.60132 0.83874 0.0
C1731 C 0.52493 0.57145 0.7692 0.0
C1732 C 0.50486 0.59756 0.79018 0.0
H1733 H 0.51248 0.62654 0.81821 0.0
C1734 C 0.48454 0.586 0.79109 0.0
C1735 C 0.51509 0.61226 0.80013 0.0
C1736 C 0.53701 0.62449 0.80007 0.0
C1737 C 0.47416 0.58874 0.80172 0.0
C1738 C 0.48438 0.60364 0.81155 0.0
C1739 C 0.50468 0.61522 0.8106 0.0
C1740 C 0.47445 0.60698 0.82326 0.0
C1741 C 0.45244 0.5753 0.80258 0.0
C1742 C 0.46024 0.61227 0.82103 0.0
C1743 C 0.45121 0.61568 0.83219 0.0
C1744 C 0.45641 0.61407 0.84577 0.0
C1745 C 0.47074 0.60887 0.84794 0.0
C1746 C 0.47967 0.60538 0.8368 0.0
H1747 H 0.44761 0.56186 0.79638 0.0
H1748 H 0.44779 0.5711 0.81341 0.0
H1749 H 0.44495 0.58289 0.79853 0.0
H1750 H 0.45631 0.61401 0.81067 0.0
H1751 H 0.44043 0.61995 0.83019 0.0
H1752 H 0.98895 0.52692 0.92527 0.0
H1753 H 0.96675 0.52055 0.95036 0.0
H1754 H 0.93217 0.44839 0.94318 0.0
H1755 H 0.9532 0.45272 0.91802 0.0
H1756 H 0.92331 0.49872 0.95358 0.0
H1757 H 0.95033 0.45815 0.98357 0.0
H1758 H 0.96153 0.47025 0.96766 0.0
H1759 H 0.9404 0.44621 0.96748 0.0
C1760 C 0.97909 0.51238 0.92894 0.0
C1761 C 0.97079 0.49047 0.91775 0.0
C1762 C 0.96459 0.50829 0.94416 0.0
C1763 C 0.94643 0.48394 0.94908 0.0
C1764 C 0.94287 0.46275 0.9397 0.0
H1765 H 0.85515 0.42187 0.00545 0.0
H1766 H 0.87931 0.43458 0.98714 0.0
C1767 C 0.95652 0.46522 0.92437 0.0
C1768 C 0.9346 0.48099 0.96143 0.0
H1769 H 0.91953 0.45444 0.99097 0.0
C1770 C 0.92263 0.48929 0.96189 0.0
C1771 C 0.93396 0.46881 0.97223 0.0
C1772 C 0.94743 0.46054 0.97277 0.0
C1773 C 0.909 0.48465 0.97252 0.0
C1774 C 0.9077 0.47169 0.983 0.0
C1775 C 0.9204 0.4642 0.98283 0.0
C1776 C 0.89248 0.46459 0.99375 0.0
C1777 C 0.89546 0.49283 0.97209 0.0
C1778 C 0.89185 0.47729 0.00353 0.0
C1779 C 0.87786 0.47007 0.01398 0.0
C1780 C 0.86434 0.45002 0.01484 0.0
C1781 C 0.86506 0.43742 0.00496 0.0
C1782 C 0.87897 0.44463 0.99454 0.0
H1783 H 0.8958 0.49947 0.96196 0.0
H1784 H 0.88027 0.48129 0.97426 0.0
H1785 H 0.89988 0.50425 0.98011 0.0
H1786 H 0.90236 0.4927 0.00323 0.0
H1787 H 0.87763 0.48017 0.02139 0.0
H1788 H 0.51058 0.95815 0.08569 0.0
H1789 H 0.50205 0.94087 0.10777 0.0
H1790 H 0.44121 0.91888 0.09927 0.0
H1791 H 0.44962 0.93586 0.07715 0.0
H1792 H 0.48053 0.94317 0.13045 0.0
H1793 H 0.44439 0.86958 0.10664 0.0
H1794 H 0.45994 0.89136 0.09703 0.0
H1795 H 0.43533 0.88506 0.10087 0.0
C1796 C 0.49542 0.94977 0.08862 0.0
C1797 C 0.48077 0.94847 0.07977 0.0
C1798 C 0.49057 0.93991 0.10119 0.0
C1799 C 0.471 0.92843 0.10505 0.0
C1800 C 0.45638 0.92742 0.09638 0.0
H1801 H 0.41213 0.8518 0.17392 0.0
H1802 H 0.42037 0.87186 0.15319 0.0
C1803 C 0.46121 0.93724 0.08381 0.0
C1804 C 0.46584 0.91724 0.11805 0.0
H1805 H 0.44174 0.87103 0.13083 0.0
C1806 C 0.47211 0.92739 0.13056 0.0
C1807 C 0.45482 0.89667 0.11812 0.0
C1808 C 0.44835 0.88497 0.10495 0.0
C1809 C 0.46738 0.91751 0.1432 0.0
C1810 C 0.4564 0.89694 0.14326 0.0
C1811 C 0.45011 0.88681 0.13074 0.0
C1812 C 0.45151 0.88555 0.15617 0.0
C1813 C 0.47385 0.92918 0.15637 0.0
C1814 C 0.46628 0.88653 0.16466 0.0
C1815 C 0.46162 0.87519 0.17655 0.0
C1816 C 0.44208 0.86253 0.18012 0.0
C1817 C 0.42731 0.86159 0.17157 0.0
C1818 C 0.43199 0.87295 0.15969 0.0
H1819 H 0.47738 0.94446 0.15474 0.0
H1820 H 0.46245 0.92253 0.16441 0.0
H1821 H 0.48715 0.92948 0.16025 0.0
H1822 H 0.48144 0.89589 0.162 0.0
H1823 H 0.47335 0.8764 0.18296 0.0
H1824 H 0.54907 0.45351 0.24189 0.0
H1825 H 0.55575 0.44232 0.26363 0.0
H1826 H 0.57421 0.49848 0.28189 0.0
H1827 H 0.56768 0.50982 0.26014 0.0
H1828 H 0.59377 0.46154 0.27712 0.0
H1829 H 0.53468 0.45773 0.31009 0.0
H1830 H 0.53336 0.45719 0.29151 0.0
H1831 H 0.54855 0.4797 0.30033 0.0
C1832 C 0.55421 0.46334 0.25063 0.0
C1833 C 0.5574 0.48237 0.24943 0.0
C1834 C 0.55807 0.45697 0.263 0.0
C1835 C 0.56516 0.46949 0.27439 0.0
C1836 C 0.56835 0.48849 0.27328 0.0
H1837 H 0.60309 0.45938 0.35626 0.0
H1838 H 0.59263 0.46943 0.33565 0.0
C1839 C 0.56461 0.49493 0.26087 0.0
C1840 C 0.5704 0.46303 0.28715 0.0
H1841 H 0.55824 0.45233 0.32098 0.0
C1842 C 0.58598 0.45944 0.28671 0.0
C1843 C 0.56027 0.4605 0.29962 0.0
C1844 C 0.54318 0.46383 0.30049 0.0
C1845 C 0.5919 0.45358 0.29849 0.0
C1846 C 0.5816 0.45075 0.31096 0.0
C1847 C 0.56605 0.45444 0.31141 0.0
C1848 C 0.58689 0.4441 0.32365 0.0
C1849 C 0.60944 0.45096 0.29755 0.0
C1850 C 0.58664 0.42629 0.32384 0.0
C1851 C 0.59268 0.42057 0.33556 0.0
C1852 C 0.59882 0.43242 0.34738 0.0
C1853 C 0.59834 0.4499 0.34734 0.0
C1854 C 0.59243 0.45568 0.33556 0.0
H1855 H 0.61875 0.45886 0.2886 0.0
H1856 H 0.61841 0.45617 0.30705 0.0
H1857 H 0.60451 0.43527 0.29622 0.0
H1858 H 0.58192 0.41688 0.31488 0.0
H1859 H 0.59256 0.40686 0.33538 0.0
H1860 H 0.47543 0.96853 0.39379 0.0
H1861 H 0.47361 0.95225 0.3719 0.0
H1862 H 0.49425 0.91759 0.39207 0.0
H1863 H 0.49637 0.93401 0.41391 0.0
H1864 H 0.51133 0.93184 0.36594 0.0
H1865 H 0.43062 0.8958 0.36454 0.0
H1866 H 0.44304 0.92186 0.36594 0.0
H1867 H 0.44463 0.9077 0.37976 0.0
C1868 C 0.47988 0.95767 0.39348 0.0
C1869 C 0.48626 0.95268 0.40551 0.0
C1870 C 0.47871 0.9483 0.38102 0.0
C1871 C 0.48361 0.93359 0.38042 0.0
C1872 C 0.49044 0.92893 0.39232 0.0
H1873 H 0.44613 0.84092 0.32108 0.0
H1874 H 0.45413 0.86108 0.34173 0.0
C1875 C 0.49164 0.93831 0.40477 0.0
C1876 C 0.48082 0.92241 0.36758 0.0
H1877 H 0.44588 0.89082 0.34537 0.0
C1878 C 0.49704 0.9229 0.3614 0.0
C1879 C 0.46212 0.91056 0.36182 0.0
C1880 C 0.44405 0.90875 0.36839 0.0
C1881 C 0.49505 0.91189 0.34953 0.0
C1882 C 0.47638 0.90029 0.34366 0.0
C1883 C 0.46018 0.8998 0.34987 0.0
C1884 C 0.4731 0.88811 0.33128 0.0
C1885 C 0.51284 0.91237 0.34358 0.0
C1886 C 0.48127 0.89661 0.31857 0.0
C1887 C 0.47686 0.88508 0.30673 0.0
C1888 C 0.4641 0.86485 0.30739 0.0
C1889 C 0.45625 0.85639 0.32022 0.0
C1890 C 0.46068 0.8679 0.33203 0.0
H1891 H 0.52508 0.9182 0.35106 0.0
H1892 H 0.5095 0.8976 0.34031 0.0
H1893 H 0.51769 0.92191 0.33438 0.0
H1894 H 0.49065 0.91222 0.31773 0.0
H1895 H 0.48326 0.89204 0.29703 0.0
H1896 H 0.59072 0.50101 0.57655 0.0
H1897 H 0.60247 0.4964 0.55438 0.0
H1898 H 0.54368 0.46665 0.53873 0.0
H1899 H 0.53182 0.47104 0.561 0.0
H1900 H 0.56292 0.44631 0.53467 0.0
H1901 H 0.60858 0.52243 0.51703 0.0
H1902 H 0.61427 0.51847 0.53418 0.0
H1903 H 0.59078 0.51568 0.53057 0.0
C1904 C 0.58036 0.49384 0.56829 0.0
C1905 C 0.5604 0.48669 0.57041 0.0
C1906 C 0.58709 0.49129 0.55561 0.0
C1907 C 0.57399 0.48152 0.54483 0.0
C1908 C 0.55406 0.47444 0.54688 0.0
H1909 H 0.60618 0.46574 0.46168 0.0
H1910 H 0.59402 0.47572 0.48144 0.0
C1911 C 0.54731 0.477 0.55956 0.0
C1912 C 0.58095 0.47724 0.53185 0.0
H1913 H 0.61322 0.49837 0.50547 0.0
C1914 C 0.57377 0.4577 0.52822 0.0
C1915 C 0.59499 0.49212 0.52337 0.0
C1916 C 0.60248 0.51336 0.52639 0.0
C1917 C 0.5807 0.45261 0.51658 0.0
C1918 C 0.59541 0.46746 0.50848 0.0
C1919 C 0.60213 0.48702 0.51182 0.0
C1920 C 0.6041 0.46283 0.49662 0.0
C1921 C 0.5722 0.43135 0.51304 0.0
C1922 C 0.6143 0.45284 0.49867 0.0
C1923 C 0.62131 0.4472 0.48745 0.0
C1924 C 0.61834 0.45153 0.47394 0.0
C1925 C 0.60882 0.46229 0.47195 0.0
C1926 C 0.60179 0.46792 0.48321 0.0
H1927 H 0.55785 0.42221 0.51803 0.0
H1928 H 0.57041 0.429 0.50173 0.0
H1929 H 0.5822 0.42633 0.5167 0.0
H1930 H 0.61659 0.44915 0.50897 0.0
H1931 H 0.62892 0.43928 0.48934 0.0
H1932 H 0.07655 0.53286 0.72828 0.0
H1933 H 0.09233 0.54296 0.7058 0.0
H1934 H 0.13815 0.59581 0.72392 0.0
H1935 H 0.12201 0.58611 0.74631 0.0
H1936 H 0.12683 0.60261 0.69919 0.0
H1937 H 0.14011 0.54041 0.69521 0.0
H1938 H 0.11493 0.53331 0.69706 0.0
H1939 H 0.13171 0.54604 0.71086 0.0
C1940 C 0.0898 0.54679 0.72742 0.0
C1941 C 0.09789 0.5589 0.739 0.0
C1942 C 0.09892 0.55244 0.7146 0.0
C1943 C 0.11656 0.57001 0.71322 0.0
C1944 C 0.12453 0.5822 0.72474 0.0
H1945 H 0.20516 0.60227 0.65209 0.0
H1946 H 0.18447 0.59218 0.67241 0.0
C1947 C 0.11532 0.57667 0.73751 0.0
C1948 C 0.12704 0.5756 0.69991 0.0
H1949 H 0.1489 0.56132 0.676 0.0
C1950 C 0.13163 0.59358 0.69408 0.0
C1951 C 0.13347 0.56388 0.69337 0.0
C1952 C 0.12999 0.54493 0.69949 0.0
C1953 C 0.14264 0.60026 0.68197 0.0
C1954 C 0.14882 0.5884 0.67532 0.0
C1955 C 0.14402 0.57032 0.68106 0.0
C1956 C 0.16128 0.5949 0.66288 0.0
C1957 C 0.14815 0.62025 0.6767 0.0
C1958 C 0.15509 0.59968 0.65071 0.0
C1959 C 0.16709 0.60584 0.6391 0.0
C1960 C 0.18543 0.6071 0.6394 0.0
C1961 C 0.19137 0.60193 0.65156 0.0
C1962 C 0.17945 0.59595 0.66316 0.0
H1963 H 0.14659 0.6293 0.68478 0.0
H1964 H 0.16339 0.62801 0.67293 0.0
H1965 H 0.13843 0.61879 0.66801 0.0
H1966 H 0.14094 0.59858 0.65016 0.0
H1967 H 0.16208 0.6098 0.62995 0.0
H1968 H 0.50866 0.09409 0.8955 0.0
H1969 H 0.52825 0.11908 0.87846 0.0
H1970 H 0.55078 0.08315 0.86329 0.0
H1971 H 0.53125 0.05814 0.88027 0.0
H1972 H 0.57076 0.13886 0.87316 0.0
H1973 H 0.52485 0.09395 0.82943 0.0
H1974 H 0.51675 0.08905 0.84709 0.0
H1975 H 0.53379 0.08228 0.84077 0.0
C1976 C 0.51805 0.0917 0.88868 0.0
C1977 C 0.51866 0.0743 0.88932 0.0
C1978 C 0.52917 0.10593 0.87895 0.0
C1979 C 0.54082 0.10285 0.8696 0.0
C1980 C 0.54175 0.08569 0.87037 0.0
H1981 H 0.60599 0.16417 0.79702 0.0
H1982 H 0.59069 0.14136 0.81605 0.0
C1983 C 0.5307 0.0715 0.88011 0.0
C1984 C 0.55144 0.11726 0.85867 0.0
H1985 H 0.55283 0.12372 0.8239 0.0
C1986 C 0.56687 0.13562 0.86238 0.0
C1987 C 0.54628 0.11289 0.84466 0.0
C1988 C 0.52942 0.09354 0.84018 0.0
C1989 C 0.57756 0.14971 0.85237 0.0
C1990 C 0.57231 0.14539 0.83833 0.0
C1991 C 0.55686 0.12699 0.83466 0.0
C1992 C 0.58247 0.15975 0.82723 0.0
C1993 C 0.59461 0.16889 0.85688 0.0
C1994 C 0.58285 0.17762 0.82717 0.0
C1995 C 0.5916 0.19069 0.81632 0.0
C1996 C 0.59991 0.18601 0.80524 0.0
C1997 C 0.59953 0.1681 0.80534 0.0
C1998 C 0.59088 0.1551 0.81623 0.0
H1999 H 0.6001 0.16778 0.86717 0.0
H2000 H 0.60674 0.17415 0.84938 0.0
H2001 H 0.58993 0.17991 0.8576 0.0
H2002 H 0.57599 0.1813 0.83536 0.0
H2003 H 0.59142 0.20425 0.81642 0.0
H2004 H 0.45614 0.54479 0.08725 0.0
H2005 H 0.43745 0.54533 0.0617 0.0
H2006 H 0.50202 0.58787 0.03944 0.0
H2007 H 0.52243 0.58821 0.06421 0.0
H2008 H 0.44028 0.57506 0.04598 0.0
H2009 H 0.47338 0.54574 0.01015 0.0
H2010 H 0.47449 0.54387 0.0286 0.0
H2011 H 0.49151 0.56591 0.01986 0.0
C2012 C 0.46457 0.55324 0.07853 0.0
C2013 C 0.49142 0.56353 0.07751 0.0
C2014 C 0.45315 0.55286 0.06241 0.0
C2015 C 0.46768 0.56523 0.0475 0.0
C2016 C 0.4939 0.57959 0.04831 0.0
H2017 H 0.44504 0.62131 0.98265 0.0
H2018 H 0.45301 0.6102 0.00376 0.0
C2019 C 0.50671 0.5809 0.06391 0.0
C2020 C 0.45786 0.56598 0.03485 0.0
H2021 H 0.45952 0.56369 -0.00017 0.0
C2022 C 0.44423 0.57224 0.0359 0.0
C2023 C 0.46284 0.56206 0.02174 0.0
C2024 C 0.47621 0.55382 0.02002 0.0
C2025 C 0.43639 0.57592 0.0241 0.0
C2026 C 0.44245 0.57335 0.01098 0.0
C2027 C 0.45513 0.56591 0.00993 0.0
C2028 C 0.43694 0.57969 0.99829 0.0
C2029 C 0.42205 0.583 0.02574 0.0
C2030 C 0.42551 0.5662 0.98814 0.0
C2031 C 0.42072 0.57248 0.97606 0.0
C2032 C 0.42749 0.5924 0.97391 0.0
C2033 C 0.43917 0.60584 0.98409 0.0
C2034 C 0.44381 0.59954 0.99615 0.0
H2035 H 0.41511 0.5794 0.03606 0.0
H2036 H 0.42979 0.59905 0.02455 0.0
H2037 H 0.4105 0.57655 0.01774 0.0
H2038 H 0.42018 0.55082 0.98961 0.0
H2039 H 0.41157 0.56173 0.9685 0.0
H2040 H 0.94095 0.45441 0.25078 0.0
H2041 H 0.92195 0.43676 0.22491 0.0
H2042 H 0.93005 0.50005 0.20819 0.0
H2043 H 0.94953 0.51948 0.2334 0.0
H2044 H 0.89062 0.43503 0.21125 0.0
H2045 H 0.94959 0.48206 0.1754 0.0
H2046 H 0.95366 0.48095 0.19355 0.0
H2047 H 0.94416 0.49593 0.18731 0.0
C2048 C 0.93834 0.46267 0.24306 0.0
C2049 C 0.95047 0.48974 0.2437 0.0
C2050 C 0.92744 0.45209 0.2267 0.0
C2051 C 0.9254 0.4668 0.21335 0.0
C2052 C 0.93269 0.49207 0.21609 0.0
H2053 H 0.86306 0.4544 0.14008 0.0
H2054 H 0.88309 0.46382 0.16082 0.0
C2055 C 0.94374 0.50401 0.23205 0.0
C2056 C 0.91531 0.45743 0.20044 0.0
H2057 H 0.91764 0.46389 0.16565 0.0
C2058 C 0.89662 0.44109 0.20124 0.0
C2059 C 0.92326 0.46535 0.18744 0.0
C2060 C 0.94385 0.48192 0.18585 0.0
C2061 C 0.88508 0.43323 0.18941 0.0
C2062 C 0.89269 0.44177 0.17645 0.0
C2063 C 0.91177 0.45751 0.17562 0.0
C2064 C 0.88064 0.43567 0.1638 0.0
C2065 C 0.86452 0.41656 0.19095 0.0
C2066 C 0.87277 0.41674 0.1585 0.0
C2067 C 0.86106 0.4112 0.1467 0.0
C2068 C 0.85713 0.42456 0.13996 0.0
C2069 C 0.86542 0.44362 0.14517 0.0
C2070 C 0.87703 0.44909 0.15696 0.0
H2071 H 0.85966 0.41429 0.20185 0.0
H2072 H 0.85426 0.41913 0.18475 0.0
H2073 H 0.86372 0.40298 0.18717 0.0
H2074 H 0.87567 0.40626 0.1635 0.0
H2075 H 0.85485 0.3964 0.14298 0.0
loop_
_geom_bond_atom_site_label_1
_geom_bond_atom_site_label_2
_geom_bond_distance
_geom_bond_site_symmetry_2
_ccdc_geom_bond_type
C0 C1 1.560 . S
C0 H61 0.959 . S
C0 H62 0.959 . S
C0 H63 0.960 . S
C1 C0 1.560 . S
C1 O56 1.426 . S
C1 H60 0.980 . S
C2 C3 1.407 . S
C2 C7 1.418 . S
C2 O56 1.334 . S
C3 C2 1.407 . S
C3 C4 1.360 . S
C3 H64 0.929 . S
C4 C3 1.360 . S
C4 C5 1.401 . S
C4 C8 1.527 . S
C5 C4 1.401 . S
C5 C6 1.405 . S
C5 C38 1.587 . S
C6 C5 1.405 . S
C6 C7 1.332 . S
C6 C9 1.496 . S
C7 C2 1.418 . S
C7 C6 1.332 . S
C7 H65 0.929 . S
C8 C4 1.527 . S
C8 H66 0.959 . S
C8 H67 0.961 . S
C8 H68 0.961 . S
C9 C6 1.496 . S
C9 H69 0.960 . S
C9 H70 0.960 . S
C9 H71 0.961 . S
C10 C11 1.517 . S
C10 H73 0.961 . S
C10 H74 0.960 . S
C10 H75 0.959 . S
C11 C10 1.517 . S
C11 O59 1.468 . S
C11 H72 0.980 . S
C12 C13 1.349 . S
C12 C17 1.367 . S
C12 O59 1.408 . S
C13 C12 1.349 . S
C13 C14 1.407 1_655 S
C13 H76 0.930 . S
C14 C13 1.407 1_455 S
C14 C15 1.449 . S
C14 C18 1.535 . S
C15 C14 1.449 . S
C15 C16 1.384 . S
C15 C40 1.553 . S
C16 C15 1.384 . S
C16 C17 1.364 1_455 S
C16 C19 1.450 . S
C17 C12 1.367 . S
C17 C16 1.364 1_655 S
C17 H77 0.931 . S
C18 C14 1.535 . S
C18 H78 0.959 . S
C18 H79 0.961 . S
C18 H80 0.959 . S
C19 C16 1.450 . S
C19 H81 0.960 . S
C19 H82 0.960 . S
C19 H83 0.960 . S
C20 C21 1.309 . S
C20 C25 1.304 . S
C20 O58 1.435 . S
C21 C20 1.309 . S
C21 C22 1.476 . S
C21 H85 0.930 . S
C22 C21 1.476 . S
C22 C23 1.400 . S
C22 C26 1.567 . S
C23 C22 1.400 . S
C23 C24 1.373 . S
C23 C45 1.432 . S
C24 C23 1.373 . S
C24 C25 1.339 . S
C24 C27 1.530 . S
C25 C20 1.304 . S
C25 C24 1.339 . S
C25 H86 0.930 . S
C26 C22 1.567 . S
C26 H87 0.961 . S
C26 H88 0.960 . S
C26 H89 0.958 . S
C27 C24 1.530 . S
C27 H90 0.961 . S
C27 H91 0.960 . S
C27 H92 0.960 . S
C28 C29 1.530 . S
C28 H94 0.961 . S
C28 H95 0.961 . S
C28 H96 0.959 . S
C29 C28 1.530 . S
C29 O57 1.412 . S
C29 H93 0.980 . S
C30 C31 1.288 . S
C30 C35 1.377 . S
C30 O57 1.393 . S
C31 C30 1.288 . S
C31 C32 1.369 . S
C31 H97 0.932 . S
C32 C31 1.369 . S
C32 C33 1.398 . S
C32 C36 1.527 . S
C33 C32 1.398 . S
C33 C34 1.380 . S
C33 C47 1.497 . S
C34 C33 1.380 . S
C34 C35 1.383 . S
C34 C37 1.603 . S
C35 C30 1.377 . S
C35 C34 1.383 . S
C35 H98 0.929 . S
C36 C32 1.527 . S
C36 H99 0.961 . S
C36 H100 0.959 . S
C36 H101 0.959 . S
C37 C34 1.603 . S
C37 H102 0.960 . S
C37 H103 0.962 . S
C37 H104 0.961 . S
C38 C5 1.587 . S
C38 C39 1.360 . S
C38 C51 1.412 . S
C39 C38 1.360 . S
C39 C40 1.365 . S
C39 H105 0.929 . S
C40 C15 1.553 . S
C40 C39 1.365 . S
C40 C41 1.404 . S
C41 C40 1.404 . S
C41 C42 1.395 1_455 S
C41 C52 1.451 . S
C42 C41 1.395 1_655 S
C42 C43 1.322 . S
C42 H106 0.930 . S
C43 C42 1.322 . S
C43 C44 1.459 1_655 S
C43 H107 0.929 . S
C44 C43 1.459 1_455 S
C44 C45 1.445 1_455 S
C44 C53 1.395 . S
C45 C23 1.432 . S
C45 C44 1.445 1_655 S
C45 C46 1.370 1_655 S
C46 C45 1.370 1_455 S
C46 C47 1.438 . S
C46 H108 0.930 . S
C47 C33 1.497 . S
C47 C46 1.438 . S
C47 C48 1.360 . S
C48 C47 1.360 . S
C48 C49 1.401 . S
C48 C53 1.446 . S
C49 C48 1.401 . S
C49 C50 1.347 . S
C49 H109 0.929 . S
C50 C49 1.347 . S
C50 C51 1.455 . S
C50 H110 0.930 . S
C51 C38 1.412 . S
C51 C50 1.455 . S
C51 C52 1.331 . S
C52 C41 1.451 . S
C52 C51 1.331 . S
C52 C53 1.497 . S
C53 C44 1.395 . S
C53 C48 1.446 . S
C53 C52 1.497 . S
C54 C55 1.582 . S
C54 H111 0.962 . S
C54 H112 0.959 . S
C54 H113 0.958 . S
C55 C54 1.582 . S
C55 O58 1.458 . S
C55 H84 0.980 . S
O56 C1 1.426 . S
O56 C2 1.334 . S
O57 C29 1.412 . S
O57 C30 1.393 . S
O58 C20 1.435 . S
O58 C55 1.458 . S
O59 C11 1.468 . S
O59 C12 1.408 . S
H60 C1 0.980 . S
H61 C0 0.959 . S
H62 C0 0.959 . S
H63 C0 0.960 . S
H64 C3 0.929 . S
H65 C7 0.929 . S
H66 C8 0.959 . S
H67 C8 0.961 . S
H68 C8 0.961 . S
H69 C9 0.960 . S
H70 C9 0.960 . S
H71 C9 0.961 . S
H72 C11 0.980 . S
H73 C10 0.961 . S
H74 C10 0.960 . S
H75 C10 0.959 . S
H76 C13 0.930 . S
H77 C17 0.931 . S
H78 C18 0.959 . S
H79 C18 0.961 . S
H80 C18 0.959 . S
H81 C19 0.960 . S
H82 C19 0.960 . S
H83 C19 0.960 . S
H84 C55 0.980 . S
H85 C21 0.930 . S
H86 C25 0.930 . S
H87 C26 0.961 . S
H88 C26 0.960 . S
H89 C26 0.958 . S
H90 C27 0.961 . S
H91 C27 0.960 . S
H92 C27 0.960 . S
H93 C29 0.980 . S
H94 C28 0.961 . S
H95 C28 0.961 . S
H96 C28 0.959 . S
H97 C31 0.932 . S
H98 C35 0.929 . S
H99 C36 0.961 . S
H100 C36 0.959 . S
H101 C36 0.959 . S
H102 C37 0.960 . S
H103 C37 0.962 . S
H104 C37 0.961 . S
H105 C39 0.929 . S
H106 C42 0.930 . S
H107 C43 0.929 . S
H108 C46 0.930 . S
H109 C49 0.929 . S
H110 C50 0.930 . S
H111 C54 0.962 . S
H112 C54 0.959 . S
H113 C54 0.958 . S
C114 C115 1.560 . S
C114 H175 0.959 . S
C114 H176 0.959 . S
C114 H177 0.960 . S
C115 C114 1.560 . S
C115 O170 1.426 . S
C115 H174 0.980 . S
C116 C117 1.407 . S
C116 C121 1.418 . S
C116 O170 1.334 . S
C117 C116 1.407 . S
C117 C118 1.360 . S
C117 H178 0.929 . S
C118 C117 1.360 . S
C118 C119 1.401 . S
C118 C122 1.527 . S
C119 C118 1.401 . S
C119 C120 1.405 . S
C119 C152 1.587 . S
C120 C119 1.405 . S
C120 C121 1.332 . S
C120 C123 1.496 . S
C121 C116 1.418 . S
C121 C120 1.332 . S
C121 H179 0.929 . S
C122 C118 1.527 . S
C122 H180 0.959 . S
C122 H181 0.961 . S
C122 H182 0.961 . S
C123 C120 1.496 . S
C123 H183 0.960 . S
C123 H184 0.960 . S
C123 H185 0.961 . S
C124 C125 1.517 . S
C124 H187 0.961 . S
C124 H188 0.960 . S
C124 H189 0.959 . S
C125 C124 1.517 . S
C125 O173 1.468 . S
C125 H186 0.980 . S
C126 C127 1.349 . S
C126 C131 1.367 . S
C126 O173 1.408 . S
C127 C126 1.349 . S
C127 C128 1.407 . S
C127 H190 0.930 . S
C128 C127 1.407 . S
C128 C129 1.449 . S
C128 C132 1.535 . S
C129 C128 1.449 . S
C129 C130 1.384 . S
C129 C154 1.553 . S
C130 C129 1.384 . S
C130 C131 1.364 . S
C130 C133 1.450 . S
C131 C126 1.367 . S
C131 C130 1.364 . S
C131 H191 0.931 . S
C132 C128 1.535 . S
C132 H192 0.959 . S
C132 H193 0.961 . S
C132 H194 0.959 . S
C133 C130 1.450 . S
C133 H195 0.960 . S
C133 H196 0.960 . S
C133 H197 0.960 . S
C134 C135 1.309 . S
C134 C139 1.304 . S
C134 O172 1.435 . S
C135 C134 1.309 . S
C135 C136 1.476 . S
C135 H199 0.930 . S
C136 C135 1.476 . S
C136 C137 1.400 . S
C136 C140 1.567 . S
C137 C136 1.400 . S
C137 C138 1.373 . S
C137 C159 1.432 . S
C138 C137 1.373 . S
C138 C139 1.339 . S
C138 C141 1.530 . S
C139 C134 1.304 . S
C139 C138 1.339 . S
C139 H200 0.930 . S
C140 C136 1.567 . S
C140 H201 0.961 . S
C140 H202 0.960 . S
C140 H203 0.958 . S
C141 C138 1.530 . S
C141 H204 0.961 . S
C141 H205 0.960 . S
C141 H206 0.960 . S
C142 C143 1.530 . S
C142 H208 0.961 . S
C142 H209 0.961 . S
C142 H210 0.959 . S
C143 C142 1.530 . S
C143 O171 1.412 . S
C143 H207 0.980 . S
C144 C145 1.288 . S
C144 C149 1.377 . S
C144 O171 1.393 . S
C145 C144 1.288 . S
C145 C146 1.369 1_565 S
C145 H211 0.932 . S
C146 C145 1.369 1_545 S
C146 C147 1.398 . S
C146 C150 1.527 . S
C147 C146 1.398 . S
C147 C148 1.380 1_545 S
C147 C161 1.497 . S
C148 C147 1.380 1_565 S
C148 C149 1.383 . S
C148 C151 1.588 . S
C149 C144 1.377 . S
C149 C148 1.383 . S
C149 H212 0.929 . S
C150 C146 1.527 . S
C150 H213 0.961 . S
C150 H214 0.959 . S
C150 H215 0.959 . S
C151 C148 1.588 . S
C151 H216 0.971 1_565 S
C151 H217 0.939 1_565 S
C151 H218 0.991 . S
C152 C119 1.587 . S
C152 C153 1.360 1_565 S
C152 C165 1.412 . S
C153 C152 1.360 1_545 S
C153 C154 1.365 . S
C153 H219 0.929 1_545 S
C154 C129 1.553 . S
C154 C153 1.365 . S
C154 C155 1.404 . S
C155 C154 1.404 . S
C155 C156 1.395 . S
C155 C166 1.451 . S
C156 C155 1.395 . S
C156 C157 1.322 . S
C156 H220 0.930 . S
C157 C156 1.322 . S
C157 C158 1.459 . S
C157 H221 0.929 . S
C158 C157 1.459 . S
C158 C159 1.445 . S
C158 C167 1.395 . S
C159 C137 1.432 . S
C159 C158 1.445 . S
C159 C160 1.370 . S
C160 C159 1.370 . S
C160 C161 1.438 . S
C160 H222 0.930 . S
C161 C147 1.497 . S
C161 C160 1.438 . S
C161 C162 1.360 . S
C162 C161 1.360 . S
C162 C163 1.401 1_545 S
C162 C167 1.446 . S
C163 C162 1.401 1_565 S
C163 C164 1.347 . S
C163 H223 0.929 . S
C164 C163 1.347 . S
C164 C165 1.455 . S
C164 H224 0.930 . S
C165 C152 1.412 . S
C165 C164 1.455 . S
C165 C166 1.331 1_565 S
C166 C155 1.451 . S
C166 C165 1.331 1_545 S
C166 C167 1.497 . S
C167 C158 1.395 . S
C167 C162 1.446 . S
C167 C166 1.497 . S
C168 C169 1.582 . S
C168 H225 0.962 . S
C168 H226 0.959 . S
C168 H227 0.958 . S
C169 C168 1.582 . S
C169 O172 1.458 . S
C169 H198 0.980 . S
O170 C115 1.426 . S
O170 C116 1.334 . S
O171 C143 1.412 . S
O171 C144 1.393 . S
O172 C134 1.435 . S
O172 C169 1.458 . S
O173 C125 1.468 . S
O173 C126 1.408 . S
H174 C115 0.980 . S
H175 C114 0.959 . S
H176 C114 0.959 . S
H177 C114 0.960 . S
H178 C117 0.929 . S
H179 C121 0.929 . S
H180 C122 0.959 . S
H181 C122 0.961 . S
H182 C122 0.961 . S
H183 C123 0.960 . S
H184 C123 0.960 . S
H185 C123 0.961 . S
H186 C125 0.980 . S
H187 C124 0.961 . S
H188 C124 0.960 . S
H189 C124 0.959 . S
H190 C127 0.930 . S
H191 C131 0.931 . S
H192 C132 0.959 . S
H193 C132 0.961 . S
H194 C132 0.959 . S
H195 C133 0.960 . S
H196 C133 0.960 . S
H197 C133 0.960 . S
H198 C169 0.980 . S
H199 C135 0.930 . S
H200 C139 0.930 . S
H201 C140 0.961 . S
H202 C140 0.960 . S
H203 C140 0.958 . S
H204 C141 0.961 . S
H205 C141 0.960 . S
H206 C141 0.960 . S
H207 C143 0.980 . S
H208 C142 0.961 . S
H209 C142 0.961 . S
H210 C142 0.959 . S
H211 C145 0.932 . S
H212 C149 0.929 . S
H213 C150 0.961 . S
H214 C150 0.959 . S
H215 C150 0.959 . S
H216 C151 0.971 1_545 S
H217 C151 0.939 1_545 S
H218 C151 0.991 . S
H219 C153 0.929 1_565 S
H220 C156 0.930 . S
H221 C157 0.929 . S
H222 C160 0.930 . S
H223 C163 0.929 . S
H224 C164 0.930 . S
H225 C168 0.962 . S
H226 C168 0.959 . S
H227 C168 0.958 . S
C228 C229 1.560 . S
C228 H289 0.959 . S
C228 H290 0.959 . S
C228 H291 0.960 . S
C229 C228 1.560 . S
C229 O284 1.426 . S
C229 H288 0.980 . S
C230 C231 1.407 . S
C230 C235 1.418 . S
C230 O284 1.334 . S
C231 C230 1.407 . S
C231 C232 1.360 . S
C231 H292 0.929 . S
C232 C231 1.360 . S
C232 C233 1.401 . S
C232 C236 1.527 . S
C233 C232 1.401 . S
C233 C234 1.405 . S
C233 C266 1.587 . S
C234 C233 1.405 . S
C234 C235 1.332 . S
C234 C237 1.496 . S
C235 C230 1.418 . S
C235 C234 1.332 . S
C235 H293 0.929 . S
C236 C232 1.527 . S
C236 H294 0.959 . S
C236 H295 0.961 . S
C236 H296 0.961 . S
C237 C234 1.496 . S
C237 H297 0.960 . S
C237 H298 0.960 . S
C237 H299 0.961 . S
C238 C239 1.517 . S
C238 H301 0.961 . S
C238 H302 0.960 . S
C238 H303 0.959 . S
C239 C238 1.517 . S
C239 O287 1.468 . S
C239 H300 0.980 . S
C240 C241 1.349 . S
C240 C245 1.367 . S
C240 O287 1.408 . S
C241 C240 1.349 . S
C241 C242 1.407 . S
C241 H304 0.930 . S
C242 C241 1.407 . S
C242 C243 1.449 . S
C242 C246 1.535 . S
C243 C242 1.449 . S
C243 C244 1.384 . S
C243 C268 1.553 . S
C244 C243 1.384 . S
C244 C245 1.364 . S
C244 C247 1.450 . S
C245 C240 1.367 . S
C245 C244 1.364 . S
C245 H305 0.931 . S
C246 C242 1.535 . S
C246 H306 0.959 . S
C246 H307 0.961 . S
C246 H308 0.959 . S
C247 C244 1.450 . S
C247 H309 0.960 . S
C247 H310 0.960 . S
C247 H311 0.960 . S
C248 C249 1.309 . S
C248 C253 1.304 . S
C248 O286 1.435 . S
C249 C248 1.309 . S
C249 C250 1.476 . S
C249 H313 0.930 . S
C250 C249 1.476 . S
C250 C251 1.400 . S
C250 C254 1.567 . S
C251 C250 1.400 . S
C251 C252 1.373 . S
C251 C273 1.432 . S
C252 C251 1.373 . S
C252 C253 1.339 . S
C252 C255 1.530 . S
C253 C248 1.304 . S
C253 C252 1.339 . S
C253 H314 0.930 . S
C254 C250 1.567 . S
C254 H315 0.961 . S
C254 H316 0.960 . S
C254 H317 0.958 . S
C255 C252 1.530 . S
C255 H318 0.961 . S
C255 H319 0.960 . S
C255 H320 0.960 . S
C256 C257 1.530 . S
C256 H322 0.961 . S
C256 H323 0.961 . S
C256 H324 0.959 . S
C257 C256 1.530 . S
C257 O285 1.412 . S
C257 H321 0.980 . S
C258 C259 1.288 . S
C258 C263 1.377 . S
C258 O285 1.393 . S
C259 C258 1.288 . S
C259 C260 1.369 . S
C259 H325 0.932 . S
C260 C259 1.369 . S
C260 C261 1.398 . S
C260 C264 1.527 . S
C261 C260 1.398 . S
C261 C262 1.380 . S
C261 C275 1.497 . S
C262 C261 1.380 . S
C262 C263 1.383 . S
C262 C265 1.603 . S
C263 C258 1.377 . S
C263 C262 1.383 . S
C263 H326 0.929 . S
C264 C260 1.527 . S
C264 H327 0.961 . S
C264 H328 0.959 . S
C264 H329 0.959 . S
C265 C262 1.603 . S
C265 H330 0.960 . S
C265 H331 0.962 . S
C265 H332 0.961 . S
C266 C233 1.587 . S
C266 C267 1.360 . S
C266 C279 1.412 . S
C267 C266 1.360 . S
C267 C268 1.365 . S
C267 H333 0.929 . S
C268 C243 1.553 . S
C268 C267 1.365 . S
C268 C269 1.404 . S
C269 C268 1.404 . S
C269 C270 1.395 . S
C269 C280 1.451 . S
C270 C269 1.395 . S
C270 C271 1.322 . S
C270 H334 0.930 . S
C271 C270 1.322 . S
C271 C272 1.459 . S
C271 H335 0.929 . S
C272 C271 1.459 . S
C272 C273 1.445 . S
C272 C281 1.395 . S
C273 C251 1.432 . S
C273 C272 1.445 . S
C273 C274 1.370 . S
C274 C273 1.370 . S
C274 C275 1.438 . S
C274 H336 0.930 . S
C275 C261 1.497 . S
C275 C274 1.438 . S
C275 C276 1.360 . S
C276 C275 1.360 . S
C276 C277 1.401 . S
C276 C281 1.446 . S
C277 C276 1.401 . S
C277 C278 1.347 . S
C277 H337 0.929 . S
C278 C277 1.347 . S
C278 C279 1.455 . S
C278 H338 0.930 . S
C279 C266 1.412 . S
C279 C278 1.455 . S
C279 C280 1.331 . S
C280 C269 1.451 . S
C280 C279 1.331 . S
C280 C281 1.497 . S
C281 C272 1.395 . S
C281 C276 1.446 . S
C281 C280 1.497 . S
C282 C283 1.582 . S
C282 H339 0.962 . S
C282 H340 0.959 . S
C282 H341 0.958 . S
C283 C282 1.582 . S
C283 O286 1.458 . S
C283 H312 0.980 . S
O284 C229 1.426 . S
O284 C230 1.334 . S
O285 C257 1.412 . S
O285 C258 1.393 . S
O286 C248 1.435 . S
O286 C283 1.458 . S
O287 C239 1.468 . S
O287 C240 1.408 . S
H288 C229 0.980 . S
H289 C228 0.959 . S
H290 C228 0.959 . S
H291 C228 0.960 . S
H292 C231 0.929 . S
H293 C235 0.929 . S
H294 C236 0.959 . S
H295 C236 0.961 . S
H296 C236 0.961 . S
H297 C237 0.960 . S
H298 C237 0.960 . S
H299 C237 0.961 . S
H300 C239 0.980 . S
H301 C238 0.961 . S
H302 C238 0.960 . S
H303 C238 0.959 . S
H304 C241 0.930 . S
H305 C245 0.931 . S
H306 C246 0.959 . S
H307 C246 0.961 . S
H308 C246 0.959 . S
H309 C247 0.960 . S
H310 C247 0.960 . S
H311 C247 0.960 . S
H312 C283 0.980 . S
H313 C249 0.930 . S
H314 C253 0.930 . S
H315 C254 0.961 . S
H316 C254 0.960 . S
H317 C254 0.958 . S
H318 C255 0.961 . S
H319 C255 0.960 . S
H320 C255 0.960 . S
H321 C257 0.980 . S
H322 C256 0.961 . S
H323 C256 0.961 . S
H324 C256 0.959 . S
H325 C259 0.932 . S
H326 C263 0.929 . S
H327 C264 0.961 . S
H328 C264 0.959 . S
H329 C264 0.959 . S
H330 C265 0.960 . S
H331 C265 0.962 . S
H332 C265 0.961 . S
H333 C267 0.929 . S
H334 C270 0.930 . S
H335 C271 0.929 . S
H336 C274 0.930 . S
H337 C277 0.929 . S
H338 C278 0.930 . S
H339 C282 0.962 . S
H340 C282 0.959 . S
H341 C282 0.958 . S
C342 C343 1.560 . S
C342 H403 0.959 . S
C342 H404 0.959 . S
C342 H405 0.960 . S
C343 C342 1.560 . S
C343 O398 1.426 . S
C343 H402 0.980 . S
C344 C345 1.407 . S
C344 C349 1.418 . S
C344 O398 1.334 . S
C345 C344 1.407 . S
C345 C346 1.360 . S
C345 H406 0.929 . S
C346 C345 1.360 . S
C346 C347 1.401 . S
C346 C350 1.527 . S
C347 C346 1.401 . S
C347 C348 1.405 . S
C347 C380 1.587 . S
C348 C347 1.405 . S
C348 C349 1.332 . S
C348 C351 1.496 . S
C349 C344 1.418 . S
C349 C348 1.332 . S
C349 H407 0.929 . S
C350 C346 1.527 . S
C350 H408 0.959 . S
C350 H409 0.961 . S
C350 H410 0.961 . S
C351 C348 1.496 . S
C351 H411 0.960 . S
C351 H412 0.960 . S
C351 H413 0.961 . S
C352 C353 1.517 . S
C352 H415 0.961 . S
C352 H416 0.960 . S
C352 H417 0.959 . S
C353 C352 1.517 . S
C353 O401 1.468 . S
C353 H414 0.980 . S
C354 C355 1.349 . S
C354 C359 1.367 . S
C354 O401 1.408 . S
C355 C354 1.349 . S
C355 C356 1.407 1_655 S
C355 H418 0.930 . S
C356 C355 1.407 1_455 S
C356 C357 1.449 . S
C356 C360 1.535 . S
C357 C356 1.449 . S
C357 C358 1.384 . S
C357 C382 1.553 . S
C358 C357 1.384 . S
C358 C359 1.364 1_455 S
C358 C361 1.450 . S
C359 C354 1.367 . S
C359 C358 1.364 1_655 S
C359 H419 0.931 . S
C360 C356 1.535 . S
C360 H420 0.959 . S
C360 H421 0.961 . S
C360 H422 0.959 . S
C361 C358 1.450 . S
C361 H423 0.960 . S
C361 H424 0.960 . S
C361 H425 0.960 . S
C362 C363 1.309 . S
C362 C367 1.304 . S
C362 O400 1.435 . S
C363 C362 1.309 . S
C363 C364 1.476 . S
C363 H427 0.930 . S
C364 C363 1.476 . S
C364 C365 1.400 . S
C364 C368 1.567 . S
C365 C364 1.400 . S
C365 C366 1.373 . S
C365 C387 1.432 . S
C366 C365 1.373 . S
C366 C367 1.339 . S
C366 C369 1.530 . S
C367 C362 1.304 . S
C367 C366 1.339 . S
C367 H428 0.930 . S
C368 C364 1.567 . S
C368 H429 0.961 . S
C368 H430 0.960 . S
C368 H431 0.958 . S
C369 C366 1.530 . S
C369 H432 0.961 . S
C369 H433 0.960 . S
C369 H434 0.960 . S
C370 C371 1.530 . S
C370 H436 0.961 . S
C370 H437 0.961 . S
C370 H438 0.959 . S
C371 C370 1.530 . S
C371 O399 1.412 . S
C371 H435 0.980 . S
C372 C373 1.288 . S
C372 C377 1.377 . S
C372 O399 1.393 . S
C373 C372 1.288 . S
C373 C374 1.369 . S
C373 H439 0.932 . S
C374 C373 1.369 . S
C374 C375 1.398 . S
C374 C378 1.527 . S
C375 C374 1.398 . S
C375 C376 1.380 . S
C375 C389 1.497 . S
C376 C375 1.380 . S
C376 C377 1.383 . S
C376 C379 1.603 . S
C377 C372 1.377 . S
C377 C376 1.383 . S
C377 H440 0.929 . S
C378 C374 1.527 . S
C378 H441 0.961 . S
C378 H442 0.959 . S
C378 H443 0.959 . S
C379 C376 1.603 . S
C379 H444 0.960 . S
C379 H445 0.962 . S
C379 H446 0.961 . S
C380 C347 1.587 . S
C380 C381 1.360 . S
C380 C393 1.412 . S
C381 C380 1.360 . S
C381 C382 1.365 . S
C381 H447 0.929 . S
C382 C357 1.553 . S
C382 C381 1.365 . S
C382 C383 1.404 . S
C383 C382 1.404 . S
C383 C384 1.395 1_455 S
C383 C394 1.451 . S
C384 C383 1.395 1_655 S
C384 C385 1.322 . S
C384 H448 0.930 . S
C385 C384 1.322 . S
C385 C386 1.459 1_655 S
C385 H449 0.929 . S
C386 C385 1.459 1_455 S
C386 C387 1.445 1_455 S
C386 C395 1.395 . S
C387 C365 1.432 . S
C387 C386 1.445 1_655 S
C387 C388 1.370 1_655 S
C388 C387 1.370 1_455 S
C388 C389 1.438 . S
C388 H450 0.930 . S
C389 C375 1.497 . S
C389 C388 1.438 . S
C389 C390 1.360 . S
C390 C389 1.360 . S
C390 C391 1.401 . S
C390 C395 1.446 . S
C391 C390 1.401 . S
C391 C392 1.347 . S
C391 H451 0.929 . S
C392 C391 1.347 . S
C392 C393 1.455 . S
C392 H452 0.930 . S
C393 C380 1.412 . S
C393 C392 1.455 . S
C393 C394 1.331 . S
C394 C383 1.451 . S
C394 C393 1.331 . S
C394 C395 1.497 . S
C395 C386 1.395 . S
C395 C390 1.446 . S
C395 C394 1.497 . S
C396 C397 1.582 . S
C396 H453 0.962 . S
C396 H454 0.959 . S
C396 H455 0.958 . S
C397 C396 1.582 . S
C397 O400 1.458 . S
C397 H426 0.980 . S
O398 C343 1.426 . S
O398 C344 1.334 . S
O399 C371 1.412 . S
O399 C372 1.393 . S
O400 C362 1.435 . S
O400 C397 1.458 . S
O401 C353 1.468 . S
O401 C354 1.408 . S
H402 C343 0.980 . S
H403 C342 0.959 . S
H404 C342 0.959 . S
H405 C342 0.960 . S
H406 C345 0.929 . S
H407 C349 0.929 . S
H408 C350 0.959 . S
H409 C350 0.961 . S
H410 C350 0.961 . S
H411 C351 0.960 . S
H412 C351 0.960 . S
H413 C351 0.961 . S
H414 C353 0.980 . S
H415 C352 0.961 . S
H416 C352 0.960 . S
H417 C352 0.959 . S
H418 C355 0.930 . S
H419 C359 0.931 . S
H420 C360 0.959 . S
H421 C360 0.961 . S
H422 C360 0.959 . S
H423 C361 0.960 . S
H424 C361 0.960 . S
H425 C361 0.960 . S
H426 C397 0.980 . S
H427 C363 0.930 . S
H428 C367 0.930 . S
H429 C368 0.961 . S
H430 C368 0.960 . S
H431 C368 0.958 . S
H432 C369 0.961 . S
H433 C369 0.960 . S
H434 C369 0.960 . S
H435 C371 0.980 . S
H436 C370 0.961 . S
H437 C370 0.961 . S
H438 C370 0.959 . S
H439 C373 0.932 . S
H440 C377 0.929 . S
H441 C378 0.961 . S
H442 C378 0.959 . S
H443 C378 0.959 . S
H444 C379 0.960 . S
H445 C379 0.962 . S
H446 C379 0.961 . S
H447 C381 0.929 . S
H448 C384 0.930 . S
H449 C385 0.929 . S
H450 C388 0.930 . S
H451 C391 0.929 . S
H452 C392 0.930 . S
H453 C396 0.962 . S
H454 C396 0.959 . S
H455 C396 0.958 . S
C456 C457 1.560 . S
C456 H517 0.959 . S
C456 H518 0.959 . S
C456 H519 0.960 . S
C457 C456 1.560 . S
C457 O512 1.426 . S
C457 H516 0.980 . S
C458 C459 1.407 . S
C458 C463 1.418 . S
C458 O512 1.334 . S
C459 C458 1.407 . S
C459 C460 1.360 . S
C459 H520 0.929 . S
C460 C459 1.360 . S
C460 C461 1.401 . S
C460 C464 1.527 . S
C461 C460 1.401 . S
C461 C462 1.405 . S
C461 C494 1.587 . S
C462 C461 1.405 . S
C462 C463 1.332 . S
C462 C465 1.496 . S
C463 C458 1.418 . S
C463 C462 1.332 . S
C463 H521 0.929 . S
C464 C460 1.527 . S
C464 H522 0.959 . S
C464 H523 0.961 . S
C464 H524 0.961 . S
C465 C462 1.496 . S
C465 H525 0.960 . S
C465 H526 0.960 . S
C465 H527 0.961 . S
C466 C467 1.517 . S
C466 H529 0.961 . S
C466 H530 0.960 . S
C466 H531 0.959 . S
C467 C466 1.517 . S
C467 O515 1.468 . S
C467 H528 0.980 . S
C468 C469 1.349 . S
C468 C473 1.367 . S
C468 O515 1.408 . S
C469 C468 1.349 . S
C469 C470 1.407 . S
C469 H532 0.930 . S
C470 C469 1.407 . S
C470 C471 1.449 . S
C470 C474 1.535 . S
C471 C470 1.449 . S
C471 C472 1.384 . S
C471 C496 1.553 . S
C472 C471 1.384 . S
C472 C473 1.364 . S
C472 C475 1.450 . S
C473 C468 1.367 . S
C473 C472 1.364 . S
C473 H533 0.931 . S
C474 C470 1.535 . S
C474 H534 0.959 . S
C474 H535 0.961 . S
C474 H536 0.959 . S
C475 C472 1.450 . S
C475 H537 0.960 . S
C475 H538 0.960 . S
C475 H539 0.960 . S
C476 C477 1.309 . S
C476 C481 1.304 . S
C476 O514 1.435 . S
C477 C476 1.309 . S
C477 C478 1.476 . S
C477 H541 0.930 . S
C478 C477 1.476 . S
C478 C479 1.400 . S
C478 C482 1.567 . S
C479 C478 1.400 . S
C479 C480 1.373 . S
C479 C501 1.432 . S
C480 C479 1.373 . S
C480 C481 1.339 . S
C480 C483 1.530 . S
C481 C476 1.304 . S
C481 C480 1.339 . S
C481 H542 0.930 . S
C482 C478 1.567 . S
C482 H543 0.961 . S
C482 H544 0.960 . S
C482 H545 0.958 . S
C483 C480 1.530 . S
C483 H546 0.961 . S
C483 H547 0.960 . S
C483 H548 0.960 . S
C484 C485 1.530 . S
C484 H550 0.961 . S
C484 H551 0.961 . S
C484 H552 0.959 . S
C485 C484 1.530 . S
C485 O513 1.412 . S
C485 H549 0.980 . S
C486 C487 1.288 . S
C486 C491 1.377 . S
C486 O513 1.393 . S
C487 C486 1.288 . S
C487 C488 1.369 1_565 S
C487 H553 0.932 . S
C488 C487 1.369 1_545 S
C488 C489 1.398 . S
C488 C492 1.527 . S
C489 C488 1.398 . S
C489 C490 1.380 1_545 S
C489 C503 1.497 . S
C490 C489 1.380 1_565 S
C490 C491 1.383 . S
C490 C493 1.616 . S
C491 C486 1.377 . S
C491 C490 1.383 . S
C491 H554 0.929 . S
C492 C488 1.527 . S
C492 H555 0.961 . S
C492 H556 0.959 . S
C492 H557 0.959 . S
C493 C490 1.616 . S
C493 H558 0.947 1_565 S
C493 H559 0.943 1_565 S
C493 H560 0.975 . S
C494 C461 1.587 . S
C494 C495 1.360 1_565 S
C494 C507 1.412 . S
C495 C494 1.360 1_545 S
C495 C496 1.365 . S
C495 H561 0.929 1_545 S
C496 C471 1.553 . S
C496 C495 1.365 . S
C496 C497 1.404 . S
C497 C496 1.404 . S
C497 C498 1.395 . S
C497 C508 1.451 . S
C498 C497 1.395 . S
C498 C499 1.322 . S
C498 H562 0.930 . S
C499 C498 1.322 . S
C499 C500 1.459 . S
C499 H563 0.929 . S
C500 C499 1.459 . S
C500 C501 1.445 1_556 S
C500 C509 1.395 . S
C501 C479 1.432 . S
C501 C500 1.445 1_554 S
C501 C502 1.370 . S
C502 C501 1.370 . S
C502 C503 1.438 . S
C502 H564 0.930 . S
C503 C489 1.497 . S
C503 C502 1.438 . S
C503 C504 1.360 . S
C504 C503 1.360 . S
C504 C505 1.401 1_545 S
C504 C509 1.446 1_554 S
C505 C504 1.401 1_565 S
C505 C506 1.347 1_554 S
C505 H565 0.929 . S
C506 C505 1.347 1_556 S
C506 C507 1.455 . S
C506 H566 0.930 . S
C507 C494 1.412 . S
C507 C506 1.455 . S
C507 C508 1.331 1_565 S
C508 C497 1.451 . S
C508 C507 1.331 1_545 S
C508 C509 1.497 . S
C509 C500 1.395 . S
C509 C504 1.446 1_556 S
C509 C508 1.497 . S
C510 C511 1.582 . S
C510 H567 0.962 . S
C510 H568 0.959 . S
C510 H569 0.958 . S
C511 C510 1.582 . S
C511 O514 1.458 . S
C511 H540 0.980 . S
O512 C457 1.426 . S
O512 C458 1.334 . S
O513 C485 1.412 . S
O513 C486 1.393 . S
O514 C476 1.435 . S
O514 C511 1.458 . S
O515 C467 1.468 . S
O515 C468 1.408 . S
H516 C457 0.980 . S
H517 C456 0.959 . S
H518 C456 0.959 . S
H519 C456 0.960 . S
H520 C459 0.929 . S
H521 C463 0.929 . S
H522 C464 0.959 . S
H523 C464 0.961 . S
H524 C464 0.961 . S
H525 C465 0.960 . S
H526 C465 0.960 . S
H527 C465 0.961 . S
H528 C467 0.980 . S
H529 C466 0.961 . S
H530 C466 0.960 . S
H531 C466 0.959 . S
H532 C469 0.930 . S
H533 C473 0.931 . S
H534 C474 0.959 . S
H535 C474 0.961 . S
H536 C474 0.959 . S
H537 C475 0.960 . S
H538 C475 0.960 . S
H539 C475 0.960 . S
H540 C511 0.980 . S
H541 C477 0.930 . S
H542 C481 0.930 . S
H543 C482 0.961 . S
H544 C482 0.960 . S
H545 C482 0.958 . S
H546 C483 0.961 . S
H547 C483 0.960 . S
H548 C483 0.960 . S
H549 C485 0.980 . S
H550 C484 0.961 . S
H551 C484 0.961 . S
H552 C484 0.959 . S
H553 C487 0.932 . S
H554 C491 0.929 . S
H555 C492 0.961 . S
H556 C492 0.959 . S
H557 C492 0.959 . S
H558 C493 0.947 1_545 S
H559 C493 0.943 1_545 S
H560 C493 0.975 . S
H561 C495 0.929 1_565 S
H562 C498 0.930 . S
H563 C499 0.929 . S
H564 C502 0.930 . S
H565 C505 0.929 . S
H566 C506 0.930 . S
H567 C510 0.962 . S
H568 C510 0.959 . S
H569 C510 0.958 . S
C570 C571 1.560 . S
C570 H631 0.959 . S
C570 H632 0.959 . S
C570 H633 0.960 . S
C571 C570 1.560 . S
C571 O626 1.426 . S
C571 H630 0.980 . S
C572 C573 1.407 . S
C572 C577 1.418 . S
C572 O626 1.334 . S
C573 C572 1.407 . S
C573 C574 1.360 . S
C573 H634 0.929 . S
C574 C573 1.360 . S
C574 C575 1.401 . S
C574 C578 1.527 . S
C575 C574 1.401 . S
C575 C576 1.405 . S
C575 C608 1.587 . S
C576 C575 1.405 . S
C576 C577 1.332 . S
C576 C579 1.496 . S
C577 C572 1.418 . S
C577 C576 1.332 . S
C577 H635 0.929 . S
C578 C574 1.527 . S
C578 H636 0.959 . S
C578 H637 0.961 . S
C578 H638 0.961 . S
C579 C576 1.496 . S
C579 H639 0.960 . S
C579 H640 0.960 . S
C579 H641 0.961 . S
C580 C581 1.517 . S
C580 H643 0.961 . S
C580 H644 0.960 . S
C580 H645 0.959 . S
C581 C580 1.517 . S
C581 O629 1.468 . S
C581 H642 0.980 . S
C582 C583 1.349 . S
C582 C587 1.367 . S
C582 O629 1.408 . S
C583 C582 1.349 . S
C583 C584 1.407 . S
C583 H646 0.930 . S
C584 C583 1.407 . S
C584 C585 1.449 . S
C584 C588 1.535 . S
C585 C584 1.449 . S
C585 C586 1.384 . S
C585 C610 1.553 . S
C586 C585 1.384 . S
C586 C587 1.364 . S
C586 C589 1.450 . S
C587 C582 1.367 . S
C587 C586 1.364 . S
C587 H647 0.931 . S
C588 C584 1.535 . S
C588 H648 0.959 . S
C588 H649 0.961 . S
C588 H650 0.959 . S
C589 C586 1.450 . S
C589 H651 0.960 . S
C589 H652 0.960 . S
C589 H653 0.960 . S
C590 C591 1.309 . S
C590 C595 1.304 . S
C590 O628 1.435 . S
C591 C590 1.309 . S
C591 C592 1.476 . S
C591 H655 0.930 . S
C592 C591 1.476 . S
C592 C593 1.400 . S
C592 C596 1.567 . S
C593 C592 1.400 . S
C593 C594 1.373 . S
C593 C615 1.432 . S
C594 C593 1.373 . S
C594 C595 1.339 . S
C594 C597 1.530 . S
C595 C590 1.304 . S
C595 C594 1.339 . S
C595 H656 0.930 . S
C596 C592 1.567 . S
C596 H657 0.961 . S
C596 H658 0.960 . S
C596 H659 0.958 . S
C597 C594 1.530 . S
C597 H660 0.961 . S
C597 H661 0.960 . S
C597 H662 0.960 . S
C598 C599 1.530 . S
C598 H664 0.961 . S
C598 H665 0.961 . S
C598 H666 0.959 . S
C599 C598 1.530 . S
C599 O627 1.412 . S
C599 H663 0.980 . S
C600 C601 1.288 . S
C600 C605 1.377 . S
C600 O627 1.393 . S
C601 C600 1.288 . S
C601 C602 1.369 . S
C601 H667 0.932 . S
C602 C601 1.369 . S
C602 C603 1.398 . S
C602 C606 1.527 . S
C603 C602 1.398 . S
C603 C604 1.380 . S
C603 C617 1.497 . S
C604 C603 1.380 . S
C604 C605 1.383 . S
C604 C607 1.603 . S
C605 C600 1.377 . S
C605 C604 1.383 . S
C605 H668 0.929 . S
C606 C602 1.527 . S
C606 H669 0.961 . S
C606 H670 0.959 . S
C606 H671 0.959 . S
C607 C604 1.603 . S
C607 H672 0.960 . S
C607 H673 0.962 . S
C607 H674 0.961 . S
C608 C575 1.587 . S
C608 C609 1.360 . S
C608 C621 1.412 . S
C609 C608 1.360 . S
C609 C610 1.365 . S
C609 H675 0.929 . S
C610 C585 1.553 . S
C610 C609 1.365 . S
C610 C611 1.404 . S
C611 C610 1.404 . S
C611 C612 1.395 . S
C611 C622 1.451 . S
C612 C611 1.395 . S
C612 C613 1.322 . S
C612 H676 0.930 . S
C613 C612 1.322 . S
C613 C614 1.459 . S
C613 H677 0.929 . S
C614 C613 1.459 . S
C614 C615 1.445 . S
C614 C623 1.395 . S
C615 C593 1.432 . S
C615 C614 1.445 . S
C615 C616 1.370 . S
C616 C615 1.370 . S
C616 C617 1.438 . S
C616 H678 0.930 . S
C617 C603 1.497 . S
C617 C616 1.438 . S
C617 C618 1.360 . S
C618 C617 1.360 . S
C618 C619 1.401 . S
C618 C623 1.446 . S
C619 C618 1.401 . S
C619 C620 1.347 . S
C619 H679 0.929 . S
C620 C619 1.347 . S
C620 C621 1.455 . S
C620 H680 0.930 . S
C621 C608 1.412 . S
C621 C620 1.455 . S
C621 C622 1.331 . S
C622 C611 1.451 . S
C622 C621 1.331 . S
C622 C623 1.497 . S
C623 C614 1.395 . S
C623 C618 1.446 . S
C623 C622 1.497 . S
C624 C625 1.582 . S
C624 H681 0.962 . S
C624 H682 0.959 . S
C624 H683 0.958 . S
C625 C624 1.582 . S
C625 O628 1.458 . S
C625 H654 0.980 . S
O626 C571 1.426 . S
O626 C572 1.334 . S
O627 C599 1.412 . S
O627 C600 1.393 . S
O628 C590 1.435 . S
O628 C625 1.458 . S
O629 C581 1.468 . S
O629 C582 1.408 . S
H630 C571 0.980 . S
H631 C570 0.959 . S
H632 C570 0.959 . S
H633 C570 0.960 . S
H634 C573 0.929 . S
H635 C577 0.929 . S
H636 C578 0.959 . S
H637 C578 0.961 . S
H638 C578 0.961 . S
H639 C579 0.960 . S
H640 C579 0.960 . S
H641 C579 0.961 . S
H642 C581 0.980 . S
H643 C580 0.961 . S
H644 C580 0.960 . S
H645 C580 0.959 . S
H646 C583 0.930 . S
H647 C587 0.931 . S
H648 C588 0.959 . S
H649 C588 0.961 . S
H650 C588 0.959 . S
H651 C589 0.960 . S
H652 C589 0.960 . S
H653 C589 0.960 . S
H654 C625 0.980 . S
H655 C591 0.930 . S
H656 C595 0.930 . S
H657 C596 0.961 . S
H658 C596 0.960 . S
H659 C596 0.958 . S
H660 C597 0.961 . S
H661 C597 0.960 . S
H662 C597 0.960 . S
H663 C599 0.980 . S
H664 C598 0.961 . S
H665 C598 0.961 . S
H666 C598 0.959 . S
H667 C601 0.932 . S
H668 C605 0.929 . S
H669 C606 0.961 . S
H670 C606 0.959 . S
H671 C606 0.959 . S
H672 C607 0.960 . S
H673 C607 0.962 . S
H674 C607 0.961 . S
H675 C609 0.929 . S
H676 C612 0.930 . S
H677 C613 0.929 . S
H678 C616 0.930 . S
H679 C619 0.929 . S
H680 C620 0.930 . S
H681 C624 0.962 . S
H682 C624 0.959 . S
H683 C624 0.958 . S
Li684 N701 1.990 . S
Li684 O744 1.956 . S
Li684 O745 1.970 . S
Li684 O746 1.961 . S
Li685 N709 1.990 . S
Li685 O744 1.970 . S
Li685 O745 1.956 . S
Li685 O747 1.961 . S
Li686 N731 1.990 . S
Li686 O744 1.961 . S
Li686 O746 1.956 . S
Li686 O747 1.970 . S
Li687 N737 1.990 . S
Li687 O745 1.961 . S
Li687 O746 1.970 . S
Li687 O747 1.956 . S
C688 C690 1.348 . S
C688 C691 1.356 . S
C688 O744 1.325 . S
N689 C692 1.314 . S
N689 C693 1.279 . S
C690 C688 1.348 . S
C690 C692 1.353 . S
C690 H748 0.929 . S
C691 C688 1.356 . S
C691 C693 1.358 . S
C691 H749 0.930 . S
C692 N689 1.314 . S
C692 C690 1.353 . S
C692 H750 0.930 . S
C693 N689 1.279 . S
C693 C691 1.358 . S
C693 H751 0.930 . S
C694 C697 1.348 . S
C694 C698 1.356 . S
C694 O745 1.325 . S
C695 N696 1.279 . S
C695 C698 1.358 . S
C695 H752 0.930 . S
N696 C695 1.279 . S
N696 C699 1.314 . S
C697 C694 1.348 . S
C697 C699 1.353 . S
C697 H753 0.929 . S
C698 C694 1.356 . S
C698 C695 1.358 . S
C698 H754 0.930 . S
C699 N696 1.314 . S
C699 C697 1.353 . S
C699 H755 0.930 . S
C700 N701 1.314 . S
C700 C705 1.353 . S
C700 H706 0.930 . S
N701 Li684 1.990 . S
N701 C700 1.314 . S
N701 C703 1.279 . S
C702 C703 1.358 . S
C702 C704 1.356 . S
C702 H756 0.930 . S
C703 N701 1.279 . S
C703 C702 1.358 . S
C703 H707 0.930 . S
C704 C702 1.356 . S
C704 C705 1.348 . S
C705 C700 1.353 . S
C705 C704 1.348 . S
C705 H757 0.929 . S
H706 C700 0.930 . S
H707 C703 0.930 . S
C708 N709 1.314 . S
C708 C710 1.353 . S
C708 H714 0.930 . S
N709 Li685 1.990 . S
N709 C708 1.314 . S
N709 C712 1.279 . S
C710 C708 1.353 . S
C710 C713 1.348 . S
C710 H758 0.929 . S
C711 C712 1.358 . S
C711 C713 1.356 . S
C711 H759 0.930 . S
C712 N709 1.279 . S
C712 C711 1.358 . S
C712 H715 0.930 . S
C713 C710 1.348 . S
C713 C711 1.356 . S
H714 C708 0.930 . S
H715 C712 0.930 . S
C716 C718 1.348 . S
C716 C719 1.356 . S
C716 O746 1.325 . S
N717 C720 1.314 . S
N717 C721 1.279 . S
C718 C716 1.348 . S
C718 C720 1.353 . S
C718 H760 0.929 . S
C719 C716 1.356 . S
C719 C721 1.358 . S
C719 H761 0.930 . S
C720 N717 1.314 . S
C720 C718 1.353 . S
C720 H762 0.930 . S
C721 N717 1.279 . S
C721 C719 1.358 . S
C721 H763 0.930 . S
C722 C723 1.348 . S
C722 C724 1.356 . S
C722 O747 1.325 . S
C723 C722 1.348 . S
C723 C725 1.353 . S
C723 H764 0.929 . S
C724 C722 1.356 . S
C724 C726 1.358 . S
C724 H765 0.930 . S
C725 C723 1.353 . S
C725 N727 1.314 . S
C725 H766 0.930 . S
C726 C724 1.358 . S
C726 N727 1.279 . S
C726 H767 0.930 . S
N727 C725 1.314 . S
N727 C726 1.279 . S
C728 C730 1.353 . S
C728 N731 1.314 . S
C728 H734 0.930 . S
C729 N731 1.279 . S
C729 C732 1.358 . S
C729 H735 0.930 . S
C730 C728 1.353 . S
C730 C733 1.348 . S
C730 H768 0.929 . S
N731 Li686 1.990 . S
N731 C728 1.314 . S
N731 C729 1.279 . S
C732 C729 1.358 . S
C732 C733 1.356 . S
C732 H769 0.930 . S
C733 C730 1.348 . S
C733 C732 1.356 . S
H734 C728 0.930 . S
H735 C729 0.930 . S
C736 N737 1.314 . S
C736 C738 1.353 . S
C736 H742 0.930 . S
N737 Li687 1.990 . S
N737 C736 1.314 . S
N737 C740 1.279 . S
C738 C736 1.353 . S
C738 C741 1.348 . S
C738 H770 0.929 . S
C739 C740 1.358 . S
C739 C741 1.356 . S
C739 H771 0.930 . S
C740 N737 1.279 . S
C740 C739 1.358 . S
C740 H743 0.930 . S
C741 C738 1.348 . S
C741 C739 1.356 . S
H742 C736 0.930 . S
H743 C740 0.930 . S
O744 Li684 1.956 . S
O744 Li685 1.970 . S
O744 Li686 1.961 . S
O744 C688 1.325 . S
O745 Li684 1.970 . S
O745 Li685 1.956 . S
O745 Li687 1.961 . S
O745 C694 1.325 . S
O746 Li684 1.961 . S
O746 Li686 1.956 . S
O746 Li687 1.970 . S
O746 C716 1.325 . S
O747 Li685 1.961 . S
O747 Li686 1.970 . S
O747 Li687 1.956 . S
O747 C722 1.325 . S
H748 C690 0.929 . S
H749 C691 0.930 . S
H750 C692 0.930 . S
H751 C693 0.930 . S
H752 C695 0.930 . S
H753 C697 0.929 . S
H754 C698 0.930 . S
H755 C699 0.930 . S
H756 C702 0.930 . S
H757 C705 0.929 . S
H758 C710 0.929 . S
H759 C711 0.930 . S
H760 C718 0.929 . S
H761 C719 0.930 . S
H762 C720 0.930 . S
H763 C721 0.930 . S
H764 C723 0.929 . S
H765 C724 0.930 . S
H766 C725 0.930 . S
H767 C726 0.930 . S
H768 C730 0.929 . S
H769 C732 0.930 . S
H770 C738 0.929 . S
H771 C739 0.930 . S
Li772 N789 1.990 . S
Li772 O832 1.956 . S
Li772 O833 1.970 . S
Li772 O834 1.961 . S
Li773 N797 1.990 . S
Li773 O832 1.970 . S
Li773 O833 1.956 . S
Li773 O835 1.961 . S
Li774 N819 1.990 . S
Li774 O832 1.961 . S
Li774 O834 1.956 . S
Li774 O835 1.970 . S
Li775 N825 1.990 . S
Li775 O833 1.961 . S
Li775 O834 1.970 . S
Li775 O835 1.956 . S
C776 C778 1.348 . S
C776 C779 1.356 . S
C776 O832 1.325 . S
N777 C780 1.314 . S
N777 C781 1.279 . S
C778 C776 1.348 . S
C778 C780 1.353 . S
C778 H836 0.929 . S
C779 C776 1.356 . S
C779 C781 1.358 . S
C779 H837 0.930 . S
C780 N777 1.314 . S
C780 C778 1.353 . S
C780 H838 0.930 . S
C781 N777 1.279 . S
C781 C779 1.358 . S
C781 H839 0.930 . S
C782 C785 1.348 . S
C782 C786 1.356 . S
C782 O833 1.325 . S
C783 N784 1.279 . S
C783 C786 1.358 . S
C783 H840 0.930 . S
N784 C783 1.279 . S
N784 C787 1.314 . S
C785 C782 1.348 . S
C785 C787 1.353 . S
C785 H841 0.929 . S
C786 C782 1.356 . S
C786 C783 1.358 . S
C786 H842 0.930 . S
C787 N784 1.314 . S
C787 C785 1.353 . S
C787 H843 0.930 . S
C788 N789 1.314 . S
C788 C793 1.353 . S
C788 H794 0.930 . S
N789 Li772 1.990 . S
N789 C788 1.314 . S
N789 C791 1.279 . S
C790 C791 1.358 . S
C790 C792 1.356 . S
C790 H844 0.930 . S
C791 N789 1.279 . S
C791 C790 1.358 . S
C791 H795 0.930 . S
C792 C790 1.356 . S
C792 C793 1.348 . S
C793 C788 1.353 . S
C793 C792 1.348 . S
C793 H845 0.929 . S
H794 C788 0.930 . S
H795 C791 0.930 . S
C796 N797 1.314 . S
C796 C798 1.353 . S
C796 H802 0.930 . S
N797 Li773 1.990 . S
N797 C796 1.314 . S
N797 C800 1.279 . S
C798 C796 1.353 . S
C798 C801 1.348 . S
C798 H846 0.929 . S
C799 C800 1.358 . S
C799 C801 1.356 . S
C799 H847 0.930 . S
C800 N797 1.279 . S
C800 C799 1.358 . S
C800 H803 0.930 . S
C801 C798 1.348 . S
C801 C799 1.356 . S
H802 C796 0.930 . S
H803 C800 0.930 . S
C804 C806 1.348 . S
C804 C807 1.356 . S
C804 O834 1.325 . S
N805 C808 1.314 . S
N805 C809 1.279 . S
C806 C804 1.348 . S
C806 C808 1.353 . S
C806 H848 0.929 . S
C807 C804 1.356 . S
C807 C809 1.358 . S
C807 H849 0.930 . S
C808 N805 1.314 . S
C808 C806 1.353 . S
C808 H850 0.930 . S
C809 N805 1.279 . S
C809 C807 1.358 . S
C809 H851 0.930 . S
C810 C811 1.348 . S
C810 C812 1.356 . S
C810 O835 1.325 . S
C811 C810 1.348 . S
C811 C813 1.353 . S
C811 H852 0.929 . S
C812 C810 1.356 . S
C812 C814 1.358 . S
C812 H853 0.930 . S
C813 C811 1.353 . S
C813 N815 1.314 . S
C813 H854 0.930 . S
C814 C812 1.358 . S
C814 N815 1.279 . S
C814 H855 0.930 . S
N815 C813 1.314 . S
N815 C814 1.279 . S
C816 C818 1.353 . S
C816 N819 1.314 . S
C816 H822 0.930 . S
C817 N819 1.279 . S
C817 C820 1.358 . S
C817 H823 0.930 . S
C818 C816 1.353 . S
C818 C821 1.348 . S
C818 H856 0.929 . S
N819 Li774 1.990 . S
N819 C816 1.314 . S
N819 C817 1.279 . S
C820 C817 1.358 . S
C820 C821 1.356 . S
C820 H857 0.930 . S
C821 C818 1.348 . S
C821 C820 1.356 . S
H822 C816 0.930 . S
H823 C817 0.930 . S
C824 N825 1.314 . S
C824 C826 1.353 . S
C824 H830 0.930 . S
N825 Li775 1.990 . S
N825 C824 1.314 . S
N825 C828 1.279 . S
C826 C824 1.353 . S
C826 C829 1.348 . S
C826 H858 0.929 . S
C827 C828 1.358 . S
C827 C829 1.356 . S
C827 H859 0.930 . S
C828 N825 1.279 . S
C828 C827 1.358 . S
C828 H831 0.930 . S
C829 C826 1.348 . S
C829 C827 1.356 . S
H830 C824 0.930 . S
H831 C828 0.930 . S
O832 Li772 1.956 . S
O832 Li773 1.970 . S
O832 Li774 1.961 . S
O832 C776 1.325 . S
O833 Li772 1.970 . S
O833 Li773 1.956 . S
O833 Li775 1.961 . S
O833 C782 1.325 . S
O834 Li772 1.961 . S
O834 Li774 1.956 . S
O834 Li775 1.970 . S
O834 C804 1.325 . S
O835 Li773 1.961 . S
O835 Li774 1.970 . S
O835 Li775 1.956 . S
O835 C810 1.325 . S
H836 C778 0.929 . S
H837 C779 0.930 . S
H838 C780 0.930 . S
H839 C781 0.930 . S
H840 C783 0.930 . S
H841 C785 0.929 . S
H842 C786 0.930 . S
H843 C787 0.930 . S
H844 C790 0.930 . S
H845 C793 0.929 . S
H846 C798 0.929 . S
H847 C799 0.930 . S
H848 C806 0.929 . S
H849 C807 0.930 . S
H850 C808 0.930 . S
H851 C809 0.930 . S
H852 C811 0.929 . S
H853 C812 0.930 . S
H854 C813 0.930 . S
H855 C814 0.930 . S
H856 C818 0.929 . S
H857 C820 0.930 . S
H858 C826 0.929 . S
H859 C827 0.930 . S
Li860 N877 1.990 . S
Li860 O920 1.956 . S
Li860 O921 1.970 . S
Li860 O922 1.961 . S
Li861 N885 1.990 . S
Li861 O920 1.970 . S
Li861 O921 1.956 . S
Li861 O923 1.961 . S
Li862 N907 1.990 . S
Li862 O920 1.961 . S
Li862 O922 1.956 . S
Li862 O923 1.970 . S
Li863 N913 1.990 . S
Li863 O921 1.961 . S
Li863 O922 1.970 . S
Li863 O923 1.956 . S
C864 C866 1.348 . S
C864 C867 1.356 . S
C864 O920 1.325 . S
N865 C868 1.314 . S
N865 C869 1.279 . S
C866 C864 1.348 . S
C866 C868 1.353 . S
C866 H924 0.929 . S
C867 C864 1.356 . S
C867 C869 1.358 . S
C867 H925 0.930 . S
C868 N865 1.314 . S
C868 C866 1.353 . S
C868 H926 0.930 . S
C869 N865 1.279 . S
C869 C867 1.358 . S
C869 H927 0.930 . S
C870 C873 1.348 . S
C870 C874 1.356 . S
C870 O921 1.325 . S
C871 N872 1.279 . S
C871 C874 1.358 . S
C871 H928 0.930 . S
N872 C871 1.279 . S
N872 C875 1.314 . S
C873 C870 1.348 . S
C873 C875 1.353 . S
C873 H929 0.929 . S
C874 C870 1.356 . S
C874 C871 1.358 . S
C874 H930 0.930 . S
C875 N872 1.314 . S
C875 C873 1.353 . S
C875 H931 0.930 . S
C876 N877 1.314 . S
C876 C881 1.353 . S
C876 H882 0.930 . S
N877 Li860 1.990 . S
N877 C876 1.314 . S
N877 C879 1.279 . S
C878 C879 1.358 . S
C878 C880 1.356 . S
C878 H932 0.930 . S
C879 N877 1.279 . S
C879 C878 1.358 . S
C879 H883 0.930 . S
C880 C878 1.356 . S
C880 C881 1.348 . S
C881 C876 1.353 . S
C881 C880 1.348 . S
C881 H933 0.929 . S
H882 C876 0.930 . S
H883 C879 0.930 . S
C884 N885 1.314 . S
C884 C886 1.353 . S
C884 H890 0.930 . S
N885 Li861 1.990 . S
N885 C884 1.314 . S
N885 C888 1.279 . S
C886 C884 1.353 . S
C886 C889 1.348 . S
C886 H934 0.929 . S
C887 C888 1.358 . S
C887 C889 1.356 . S
C887 H935 0.930 . S
C888 N885 1.279 . S
C888 C887 1.358 . S
C888 H891 0.930 . S
C889 C886 1.348 . S
C889 C887 1.356 . S
H890 C884 0.930 . S
H891 C888 0.930 . S
C892 C894 1.348 . S
C892 C895 1.356 . S
C892 O922 1.325 . S
N893 C896 1.314 . S
N893 C897 1.279 . S
C894 C892 1.348 . S
C894 C896 1.353 . S
C894 H936 0.929 . S
C895 C892 1.356 . S
C895 C897 1.358 . S
C895 H937 0.930 . S
C896 N893 1.314 . S
C896 C894 1.353 . S
C896 H938 0.930 . S
C897 N893 1.279 . S
C897 C895 1.358 . S
C897 H939 0.930 . S
C898 C899 1.348 . S
C898 C900 1.356 . S
C898 O923 1.325 . S
C899 C898 1.348 . S
C899 C901 1.353 . S
C899 H940 0.929 . S
C900 C898 1.356 . S
C900 C902 1.358 . S
C900 H941 0.930 . S
C901 C899 1.353 . S
C901 N903 1.314 . S
C901 H942 0.930 . S
C902 C900 1.358 . S
C902 N903 1.279 . S
C902 H943 0.930 . S
N903 C901 1.314 . S
N903 C902 1.279 . S
C904 C906 1.353 . S
C904 N907 1.314 . S
C904 H910 0.930 . S
C905 N907 1.279 . S
C905 C908 1.358 . S
C905 H911 0.930 . S
C906 C904 1.353 . S
C906 C909 1.348 . S
C906 H944 0.929 . S
N907 Li862 1.990 . S
N907 C904 1.314 . S
N907 C905 1.279 . S
C908 C905 1.358 . S
C908 C909 1.356 . S
C908 H945 0.930 . S
C909 C906 1.348 . S
C909 C908 1.356 . S
H910 C904 0.930 . S
H911 C905 0.930 . S
C912 N913 1.314 . S
C912 C914 1.353 . S
C912 H918 0.930 . S
N913 Li863 1.990 . S
N913 C912 1.314 . S
N913 C916 1.279 . S
C914 C912 1.353 . S
C914 C917 1.348 . S
C914 H946 0.929 . S
C915 C916 1.358 . S
C915 C917 1.356 . S
C915 H947 0.930 . S
C916 N913 1.279 . S
C916 C915 1.358 . S
C916 H919 0.930 . S
C917 C914 1.348 . S
C917 C915 1.356 . S
H918 C912 0.930 . S
H919 C916 0.930 . S
O920 Li860 1.956 . S
O920 Li861 1.970 . S
O920 Li862 1.961 . S
O920 C864 1.325 . S
O921 Li860 1.970 . S
O921 Li861 1.956 . S
O921 Li863 1.961 . S
O921 C870 1.325 . S
O922 Li860 1.961 . S
O922 Li862 1.956 . S
O922 Li863 1.970 . S
O922 C892 1.325 . S
O923 Li861 1.961 . S
O923 Li862 1.970 . S
O923 Li863 1.956 . S
O923 C898 1.325 . S
H924 C866 0.929 . S
H925 C867 0.930 . S
H926 C868 0.930 . S
H927 C869 0.930 . S
H928 C871 0.930 . S
H929 C873 0.929 . S
H930 C874 0.930 . S
H931 C875 0.930 . S
H932 C878 0.930 . S
H933 C881 0.929 . S
H934 C886 0.929 . S
H935 C887 0.930 . S
H936 C894 0.929 . S
H937 C895 0.930 . S
H938 C896 0.930 . S
H939 C897 0.930 . S
H940 C899 0.929 . S
H941 C900 0.930 . S
H942 C901 0.930 . S
H943 C902 0.930 . S
H944 C906 0.929 . S
H945 C908 0.930 . S
H946 C914 0.929 . S
H947 C915 0.930 . S
Li948 N965 1.990 . S
Li948 O1008 1.956 . S
Li948 O1009 1.970 . S
Li948 O1010 1.961 . S
Li949 N973 1.990 . S
Li949 O1008 1.970 . S
Li949 O1009 1.956 . S
Li949 O1011 1.961 . S
Li950 N995 1.990 . S
Li950 O1008 1.961 . S
Li950 O1010 1.956 . S
Li950 O1011 1.970 . S
Li951 N1001 1.990 . S
Li951 O1009 1.961 . S
Li951 O1010 1.970 . S
Li951 O1011 1.956 . S
C952 C954 1.348 . S
C952 C955 1.356 . S
C952 O1008 1.325 . S
N953 C956 1.314 . S
N953 C957 1.279 . S
C954 C952 1.348 . S
C954 C956 1.353 . S
C954 H1012 0.929 . S
C955 C952 1.356 . S
C955 C957 1.358 . S
C955 H1013 0.930 . S
C956 N953 1.314 . S
C956 C954 1.353 . S
C956 H1014 0.930 . S
C957 N953 1.279 . S
C957 C955 1.358 . S
C957 H1015 0.930 . S
C958 C961 1.348 . S
C958 C962 1.356 . S
C958 O1009 1.325 . S
C959 N960 1.279 . S
C959 C962 1.358 . S
C959 H1016 0.930 . S
N960 C959 1.279 . S
N960 C963 1.314 . S
C961 C958 1.348 . S
C961 C963 1.353 . S
C961 H1017 0.929 . S
C962 C958 1.356 . S
C962 C959 1.358 . S
C962 H1018 0.930 . S
C963 N960 1.314 . S
C963 C961 1.353 . S
C963 H1019 0.930 . S
C964 N965 1.314 . S
C964 C969 1.353 . S
C964 H970 0.930 . S
N965 Li948 1.990 . S
N965 C964 1.314 . S
N965 C967 1.279 . S
C966 C967 1.358 . S
C966 C968 1.356 . S
C966 H1020 0.930 . S
C967 N965 1.279 . S
C967 C966 1.358 . S
C967 H971 0.930 . S
C968 C966 1.356 . S
C968 C969 1.348 . S
C969 C964 1.353 . S
C969 C968 1.348 . S
C969 H1021 0.929 . S
H970 C964 0.930 . S
H971 C967 0.930 . S
C972 N973 1.314 . S
C972 C974 1.353 . S
C972 H978 0.930 . S
N973 Li949 1.990 . S
N973 C972 1.314 . S
N973 C976 1.279 . S
C974 C972 1.353 . S
C974 C977 1.348 . S
C974 H1022 0.929 . S
C975 C976 1.358 . S
C975 C977 1.356 . S
C975 H1023 0.930 . S
C976 N973 1.279 . S
C976 C975 1.358 . S
C976 H979 0.930 . S
C977 C974 1.348 . S
C977 C975 1.356 . S
H978 C972 0.930 . S
H979 C976 0.930 . S
C980 C982 1.348 . S
C980 C983 1.356 . S
C980 O1010 1.325 . S
N981 C984 1.314 . S
N981 C985 1.279 . S
C982 C980 1.348 . S
C982 C984 1.353 . S
C982 H1024 0.929 . S
C983 C980 1.356 . S
C983 C985 1.358 . S
C983 H1025 0.930 . S
C984 N981 1.314 . S
C984 C982 1.353 . S
C984 H1026 0.930 . S
C985 N981 1.279 . S
C985 C983 1.358 . S
C985 H1027 0.930 . S
C986 C987 1.348 . S
C986 C988 1.356 . S
C986 O1011 1.325 . S
C987 C986 1.348 . S
C987 C989 1.353 . S
C987 H1028 0.929 . S
C988 C986 1.356 . S
C988 C990 1.358 . S
C988 H1029 0.930 . S
C989 C987 1.353 . S
C989 N991 1.314 . S
C989 H1030 0.930 . S
C990 C988 1.358 . S
C990 N991 1.279 . S
C990 H1031 0.930 . S
N991 C989 1.314 . S
N991 C990 1.279 . S
C992 C994 1.353 . S
C992 N995 1.314 . S
C992 H998 0.930 . S
C993 N995 1.279 . S
C993 C996 1.358 . S
C993 H999 0.930 . S
C994 C992 1.353 . S
C994 C997 1.348 . S
C994 H1032 0.929 . S
N995 Li950 1.990 . S
N995 C992 1.314 . S
N995 C993 1.279 . S
C996 C993 1.358 . S
C996 C997 1.356 . S
C996 H1033 0.930 . S
C997 C994 1.348 . S
C997 C996 1.356 . S
H998 C992 0.930 . S
H999 C993 0.930 . S
C1000 N1001 1.314 . S
C1000 C1002 1.353 . S
C1000 H1006 0.930 . S
N1001 Li951 1.990 . S
N1001 C1000 1.314 . S
N1001 C1004 1.279 . S
C1002 C1000 1.353 . S
C1002 C1005 1.348 . S
C1002 H1034 0.929 . S
C1003 C1004 1.358 . S
C1003 C1005 1.356 . S
C1003 H1035 0.930 . S
C1004 N1001 1.279 . S
C1004 C1003 1.358 . S
C1004 H1007 0.930 . S
C1005 C1002 1.348 . S
C1005 C1003 1.356 . S
H1006 C1000 0.930 . S
H1007 C1004 0.930 . S
O1008 Li948 1.956 . S
O1008 Li949 1.970 . S
O1008 Li950 1.961 . S
O1008 C952 1.325 . S
O1009 Li948 1.970 . S
O1009 Li949 1.956 . S
O1009 Li951 1.961 . S
O1009 C958 1.325 . S
O1010 Li948 1.961 . S
O1010 Li950 1.956 . S
O1010 Li951 1.970 . S
O1010 C980 1.325 . S
O1011 Li949 1.961 . S
O1011 Li950 1.970 . S
O1011 Li951 1.956 . S
O1011 C986 1.325 . S
H1012 C954 0.929 . S
H1013 C955 0.930 . S
H1014 C956 0.930 . S
H1015 C957 0.930 . S
H1016 C959 0.930 . S
H1017 C961 0.929 . S
H1018 C962 0.930 . S
H1019 C963 0.930 . S
H1020 C966 0.930 . S
H1021 C969 0.929 . S
H1022 C974 0.929 . S
H1023 C975 0.930 . S
H1024 C982 0.929 . S
H1025 C983 0.930 . S
H1026 C984 0.930 . S
H1027 C985 0.930 . S
H1028 C987 0.929 . S
H1029 C988 0.930 . S
H1030 C989 0.930 . S
H1031 C990 0.930 . S
H1032 C994 0.929 . S
H1033 C996 0.930 . S
H1034 C1002 0.929 . S
H1035 C1003 0.930 . S
Li1036 N1053 1.990 . S
Li1036 O1096 1.956 . S
Li1036 O1097 1.970 . S
Li1036 O1098 1.961 . S
Li1037 N1061 1.990 . S
Li1037 O1096 1.970 . S
Li1037 O1097 1.956 . S
Li1037 O1099 1.961 . S
Li1038 N1083 1.990 . S
Li1038 O1096 1.961 . S
Li1038 O1098 1.956 . S
Li1038 O1099 1.970 . S
Li1039 N1089 1.990 . S
Li1039 O1097 1.961 . S
Li1039 O1098 1.970 . S
Li1039 O1099 1.956 . S
C1040 C1042 1.348 . S
C1040 C1043 1.356 . S
C1040 O1096 1.325 . S
N1041 C1044 1.314 . S
N1041 C1045 1.279 . S
C1042 C1040 1.348 . S
C1042 C1044 1.353 . S
C1042 H1100 0.929 . S
C1043 C1040 1.356 . S
C1043 C1045 1.358 . S
C1043 H1101 0.930 . S
C1044 N1041 1.314 . S
C1044 C1042 1.353 . S
C1044 H1102 0.930 . S
C1045 N1041 1.279 . S
C1045 C1043 1.358 . S
C1045 H1103 0.930 . S
C1046 C1049 1.348 . S
C1046 C1050 1.356 . S
C1046 O1097 1.325 . S
C1047 N1048 1.279 . S
C1047 C1050 1.358 . S
C1047 H1104 0.930 . S
N1048 C1047 1.279 . S
N1048 C1051 1.314 . S
C1049 C1046 1.348 . S
C1049 C1051 1.353 . S
C1049 H1105 0.929 . S
C1050 C1046 1.356 . S
C1050 C1047 1.358 . S
C1050 H1106 0.930 . S
C1051 N1048 1.314 . S
C1051 C1049 1.353 . S
C1051 H1107 0.930 . S
C1052 N1053 1.314 . S
C1052 C1057 1.353 . S
C1052 H1058 0.930 . S
N1053 Li1036 1.990 . S
N1053 C1052 1.314 . S
N1053 C1055 1.279 . S
C1054 C1055 1.358 . S
C1054 C1056 1.356 . S
C1054 H1108 0.930 . S
C1055 N1053 1.279 . S
C1055 C1054 1.358 . S
C1055 H1059 0.930 . S
C1056 C1054 1.356 . S
C1056 C1057 1.348 . S
C1057 C1052 1.353 . S
C1057 C1056 1.348 . S
C1057 H1109 0.929 . S
H1058 C1052 0.930 . S
H1059 C1055 0.930 . S
C1060 N1061 1.314 . S
C1060 C1062 1.353 . S
C1060 H1066 0.930 . S
N1061 Li1037 1.990 . S
N1061 C1060 1.314 . S
N1061 C1064 1.279 . S
C1062 C1060 1.353 . S
C1062 C1065 1.348 . S
C1062 H1110 0.929 . S
C1063 C1064 1.358 . S
C1063 C1065 1.356 . S
C1063 H1111 0.930 . S
C1064 N1061 1.279 . S
C1064 C1063 1.358 . S
C1064 H1067 0.930 . S
C1065 C1062 1.348 . S
C1065 C1063 1.356 . S
H1066 C1060 0.930 . S
H1067 C1064 0.930 . S
C1068 C1070 1.348 . S
C1068 C1071 1.356 . S
C1068 O1098 1.325 . S
N1069 C1072 1.314 . S
N1069 C1073 1.279 . S
C1070 C1068 1.348 . S
C1070 C1072 1.353 . S
C1070 H1112 0.929 . S
C1071 C1068 1.356 . S
C1071 C1073 1.358 . S
C1071 H1113 0.930 . S
C1072 N1069 1.314 . S
C1072 C1070 1.353 . S
C1072 H1114 0.930 . S
C1073 N1069 1.279 . S
C1073 C1071 1.358 . S
C1073 H1115 0.930 . S
C1074 C1075 1.348 . S
C1074 C1076 1.356 . S
C1074 O1099 1.325 . S
C1075 C1074 1.348 . S
C1075 C1077 1.353 . S
C1075 H1116 0.929 . S
C1076 C1074 1.356 . S
C1076 C1078 1.358 . S
C1076 H1117 0.930 . S
C1077 C1075 1.353 . S
C1077 N1079 1.314 . S
C1077 H1118 0.930 . S
C1078 C1076 1.358 . S
C1078 N1079 1.279 . S
C1078 H1119 0.930 . S
N1079 C1077 1.314 . S
N1079 C1078 1.279 . S
C1080 C1082 1.353 . S
C1080 N1083 1.314 . S
C1080 H1086 0.930 . S
C1081 N1083 1.279 . S
C1081 C1084 1.358 . S
C1081 H1087 0.930 . S
C1082 C1080 1.353 . S
C1082 C1085 1.348 . S
C1082 H1120 0.929 . S
N1083 Li1038 1.990 . S
N1083 C1080 1.314 . S
N1083 C1081 1.279 . S
C1084 C1081 1.358 . S
C1084 C1085 1.356 . S
C1084 H1121 0.930 . S
C1085 C1082 1.348 . S
C1085 C1084 1.356 . S
H1086 C1080 0.930 . S
H1087 C1081 0.930 . S
C1088 N1089 1.314 . S
C1088 C1090 1.353 . S
C1088 H1094 0.930 . S
N1089 Li1039 1.990 . S
N1089 C1088 1.314 . S
N1089 C1092 1.279 . S
C1090 C1088 1.353 . S
C1090 C1093 1.348 . S
C1090 H1122 0.929 . S
C1091 C1092 1.358 . S
C1091 C1093 1.356 . S
C1091 H1123 0.930 . S
C1092 N1089 1.279 . S
C1092 C1091 1.358 . S
C1092 H1095 0.930 . S
C1093 C1090 1.348 . S
C1093 C1091 1.356 . S
H1094 C1088 0.930 . S
H1095 C1092 0.930 . S
O1096 Li1036 1.956 . S
O1096 Li1037 1.970 . S
O1096 Li1038 1.961 . S
O1096 C1040 1.325 . S
O1097 Li1036 1.970 . S
O1097 Li1037 1.956 . S
O1097 Li1039 1.961 . S
O1097 C1046 1.325 . S
O1098 Li1036 1.961 . S
O1098 Li1038 1.956 . S
O1098 Li1039 1.970 . S
O1098 C1068 1.325 . S
O1099 Li1037 1.961 . S
O1099 Li1038 1.970 . S
O1099 Li1039 1.956 . S
O1099 C1074 1.325 . S
H1100 C1042 0.929 . S
H1101 C1043 0.930 . S
H1102 C1044 0.930 . S
H1103 C1045 0.930 . S
H1104 C1047 0.930 . S
H1105 C1049 0.929 . S
H1106 C1050 0.930 . S
H1107 C1051 0.930 . S
H1108 C1054 0.930 . S
H1109 C1057 0.929 . S
H1110 C1062 0.929 . S
H1111 C1063 0.930 . S
H1112 C1070 0.929 . S
H1113 C1071 0.930 . S
H1114 C1072 0.930 . S
H1115 C1073 0.930 . S
H1116 C1075 0.929 . S
H1117 C1076 0.930 . S
H1118 C1077 0.930 . S
H1119 C1078 0.930 . S
H1120 C1082 0.929 . S
H1121 C1084 0.930 . S
H1122 C1090 0.929 . S
H1123 C1091 0.930 . S
Li1124 N1141 1.990 . S
Li1124 O1184 1.956 . S
Li1124 O1185 1.970 . S
Li1124 O1186 1.961 . S
Li1125 N1149 1.990 . S
Li1125 O1184 1.970 . S
Li1125 O1185 1.956 . S
Li1125 O1187 1.961 . S
Li1126 N1171 1.990 . S
Li1126 O1184 1.961 . S
Li1126 O1186 1.956 . S
Li1126 O1187 1.970 . S
Li1127 N1177 1.990 . S
Li1127 O1185 1.961 . S
Li1127 O1186 1.970 . S
Li1127 O1187 1.956 . S
C1128 C1130 1.348 . S
C1128 C1131 1.356 . S
C1128 O1184 1.325 . S
N1129 C1132 1.314 . S
N1129 C1133 1.279 . S
C1130 C1128 1.348 . S
C1130 C1132 1.353 . S
C1130 H1188 0.929 . S
C1131 C1128 1.356 . S
C1131 C1133 1.358 . S
C1131 H1189 0.930 . S
C1132 N1129 1.314 . S
C1132 C1130 1.353 . S
C1132 H1190 0.930 . S
C1133 N1129 1.279 . S
C1133 C1131 1.358 . S
C1133 H1191 0.930 . S
C1134 C1137 1.348 . S
C1134 C1138 1.356 . S
C1134 O1185 1.325 . S
C1135 N1136 1.279 . S
C1135 C1138 1.358 . S
C1135 H1192 0.930 . S
N1136 C1135 1.279 . S
N1136 C1139 1.314 . S
C1137 C1134 1.348 . S
C1137 C1139 1.353 . S
C1137 H1193 0.929 . S
C1138 C1134 1.356 . S
C1138 C1135 1.358 . S
C1138 H1194 0.930 . S
C1139 N1136 1.314 . S
C1139 C1137 1.353 . S
C1139 H1195 0.930 . S
C1140 N1141 1.314 . S
C1140 C1145 1.353 . S
C1140 H1146 0.930 . S
N1141 Li1124 1.990 . S
N1141 C1140 1.314 . S
N1141 C1143 1.279 . S
C1142 C1143 1.358 . S
C1142 C1144 1.356 . S
C1142 H1196 0.930 . S
C1143 N1141 1.279 . S
C1143 C1142 1.358 . S
C1143 H1147 0.930 . S
C1144 C1142 1.356 . S
C1144 C1145 1.348 . S
C1145 C1140 1.353 . S
C1145 C1144 1.348 . S
C1145 H1197 0.929 . S
H1146 C1140 0.930 . S
H1147 C1143 0.930 . S
C1148 N1149 1.314 . S
C1148 C1150 1.353 . S
C1148 H1154 0.930 . S
N1149 Li1125 1.990 . S
N1149 C1148 1.314 . S
N1149 C1152 1.279 . S
C1150 C1148 1.353 . S
C1150 C1153 1.348 . S
C1150 H1198 0.929 . S
C1151 C1152 1.358 . S
C1151 C1153 1.356 . S
C1151 H1199 0.930 . S
C1152 N1149 1.279 . S
C1152 C1151 1.358 . S
C1152 H1155 0.930 . S
C1153 C1150 1.348 . S
C1153 C1151 1.356 . S
H1154 C1148 0.930 . S
H1155 C1152 0.930 . S
C1156 C1158 1.348 . S
C1156 C1159 1.356 . S
C1156 O1186 1.325 . S
N1157 C1160 1.314 . S
N1157 C1161 1.279 . S
C1158 C1156 1.348 . S
C1158 C1160 1.353 . S
C1158 H1200 0.929 . S
C1159 C1156 1.356 . S
C1159 C1161 1.358 . S
C1159 H1201 0.930 . S
C1160 N1157 1.314 . S
C1160 C1158 1.353 . S
C1160 H1202 0.930 . S
C1161 N1157 1.279 . S
C1161 C1159 1.358 . S
C1161 H1203 0.930 . S
C1162 C1163 1.348 . S
C1162 C1164 1.356 . S
C1162 O1187 1.325 . S
C1163 C1162 1.348 . S
C1163 C1165 1.353 . S
C1163 H1204 0.929 . S
C1164 C1162 1.356 . S
C1164 C1166 1.358 . S
C1164 H1205 0.930 . S
C1165 C1163 1.353 . S
C1165 N1167 1.314 . S
C1165 H1206 0.930 . S
C1166 C1164 1.358 . S
C1166 N1167 1.279 . S
C1166 H1207 0.930 . S
N1167 C1165 1.314 . S
N1167 C1166 1.279 . S
C1168 C1170 1.353 . S
C1168 N1171 1.314 . S
C1168 H1174 0.930 . S
C1169 N1171 1.279 . S
C1169 C1172 1.358 . S
C1169 H1175 0.930 . S
C1170 C1168 1.353 . S
C1170 C1173 1.348 . S
C1170 H1208 0.929 . S
N1171 Li1126 1.990 . S
N1171 C1168 1.314 . S
N1171 C1169 1.279 . S
C1172 C1169 1.358 . S
C1172 C1173 1.356 . S
C1172 H1209 0.930 . S
C1173 C1170 1.348 . S
C1173 C1172 1.356 . S
H1174 C1168 0.930 . S
H1175 C1169 0.930 . S
C1176 N1177 1.314 . S
C1176 C1178 1.353 . S
C1176 H1182 0.930 . S
N1177 Li1127 1.990 . S
N1177 C1176 1.314 . S
N1177 C1180 1.279 . S
C1178 C1176 1.353 . S
C1178 C1181 1.348 . S
C1178 H1210 0.929 . S
C1179 C1180 1.358 . S
C1179 C1181 1.356 . S
C1179 H1211 0.930 . S
C1180 N1177 1.279 . S
C1180 C1179 1.358 . S
C1180 H1183 0.930 . S
C1181 C1178 1.348 . S
C1181 C1179 1.356 . S
H1182 C1176 0.930 . S
H1183 C1180 0.930 . S
O1184 Li1124 1.956 . S
O1184 Li1125 1.970 . S
O1184 Li1126 1.961 . S
O1184 C1128 1.325 . S
O1185 Li1124 1.970 . S
O1185 Li1125 1.956 . S
O1185 Li1127 1.961 . S
O1185 C1134 1.325 . S
O1186 Li1124 1.961 . S
O1186 Li1126 1.956 . S
O1186 Li1127 1.970 . S
O1186 C1156 1.325 . S
O1187 Li1125 1.961 . S
O1187 Li1126 1.970 . S
O1187 Li1127 1.956 . S
O1187 C1162 1.325 . S
H1188 C1130 0.929 . S
H1189 C1131 0.930 . S
H1190 C1132 0.930 . S
H1191 C1133 0.930 . S
H1192 C1135 0.930 . S
H1193 C1137 0.929 . S
H1194 C1138 0.930 . S
H1195 C1139 0.930 . S
H1196 C1142 0.930 . S
H1197 C1145 0.929 . S
H1198 C1150 0.929 . S
H1199 C1151 0.930 . S
H1200 C1158 0.929 . S
H1201 C1159 0.930 . S
H1202 C1160 0.930 . S
H1203 C1161 0.930 . S
H1204 C1163 0.929 . S
H1205 C1164 0.930 . S
H1206 C1165 0.930 . S
H1207 C1166 0.930 . S
H1208 C1170 0.929 . S
H1209 C1172 0.930 . S
H1210 C1178 0.929 . S
H1211 C1179 0.930 . S
H1212 C1220 0.929 . S
H1213 C1222 0.930 . S
H1214 C1224 0.930 . S
H1215 C1227 0.929 . S
H1216 C1230 0.930 . S
H1217 C1232 0.960 . S
H1218 C1232 0.960 . S
H1219 C1232 0.960 . S
C1220 H1212 0.929 . S
C1220 C1221 1.377 . S
C1220 C1222 1.384 . S
C1221 C1220 1.377 . S
C1221 C1227 1.390 . S
C1222 H1213 0.930 . S
C1222 C1220 1.384 . S
C1222 C1223 1.372 . S
C1223 C1222 1.372 . S
C1223 C1224 1.400 . S
C1223 C1228 1.490 . S
C1224 H1214 0.930 . S
C1224 C1223 1.400 . S
C1224 C1227 1.386 . S
H1225 C1241 0.930 . S
H1226 C1242 0.931 . S
C1227 H1215 0.929 . S
C1227 C1221 1.390 . S
C1227 C1224 1.386 . S
C1228 C1223 1.490 . S
C1228 C1230 1.395 . S
C1228 C1231 1.403 . S
H1229 C1235 0.930 . S
C1230 H1216 0.930 . S
C1230 C1228 1.395 . S
C1230 C1233 1.403 . S
C1231 C1228 1.403 . S
C1231 C1232 1.524 . S
C1231 C1235 1.400 . S
C1232 H1217 0.960 . S
C1232 H1218 0.960 . S
C1232 H1219 0.960 . S
C1232 C1231 1.524 . S
C1233 C1230 1.403 . S
C1233 C1234 1.392 . S
C1233 C1237 1.495 . S
C1234 C1233 1.392 . S
C1234 C1235 1.385 . S
C1234 C1236 1.478 . S
C1235 H1229 0.930 . S
C1235 C1231 1.400 . S
C1235 C1234 1.385 . S
C1236 C1234 1.478 . S
C1236 C1238 1.381 . S
C1236 C1242 1.383 . S
C1237 C1233 1.495 . S
C1237 H1243 0.959 . S
C1237 H1244 0.961 . S
C1237 H1245 0.960 . S
C1238 C1236 1.381 . S
C1238 C1239 1.394 . S
C1238 H1246 0.930 . S
C1239 C1238 1.394 . S
C1239 C1240 1.383 . S
C1239 H1247 0.929 . S
C1240 C1239 1.383 . S
C1240 C1241 1.377 . S
C1241 H1225 0.930 . S
C1241 C1240 1.377 . S
C1241 C1242 1.379 . S
C1242 H1226 0.931 . S
C1242 C1236 1.383 . S
C1242 C1241 1.379 . S
H1243 C1237 0.959 . S
H1244 C1237 0.961 . S
H1245 C1237 0.960 . S
H1246 C1238 0.930 . S
H1247 C1239 0.929 . S
H1248 C1256 0.929 . S
H1249 C1258 0.930 . S
H1250 C1260 0.930 . S
H1251 C1263 0.929 . S
H1252 C1266 0.930 . S
H1253 C1268 0.960 . S
H1254 C1268 0.960 . S
H1255 C1268 0.960 . S
C1256 H1248 0.929 . S
C1256 C1257 1.377 . S
C1256 C1258 1.384 . S
C1257 C1256 1.377 . S
C1257 C1263 1.390 . S
C1258 H1249 0.930 . S
C1258 C1256 1.384 . S
C1258 C1259 1.372 . S
C1259 C1258 1.372 . S
C1259 C1260 1.400 . S
C1259 C1264 1.490 . S
C1260 H1250 0.930 . S
C1260 C1259 1.400 . S
C1260 C1263 1.386 . S
H1261 C1277 0.930 . S
H1262 C1278 0.931 . S
C1263 H1251 0.929 . S
C1263 C1257 1.390 . S
C1263 C1260 1.386 . S
C1264 C1259 1.490 . S
C1264 C1266 1.395 . S
C1264 C1267 1.403 . S
H1265 C1271 0.930 . S
C1266 H1252 0.930 . S
C1266 C1264 1.395 . S
C1266 C1269 1.403 . S
C1267 C1264 1.403 . S
C1267 C1268 1.524 . S
C1267 C1271 1.400 . S
C1268 H1253 0.960 . S
C1268 H1254 0.960 . S
C1268 H1255 0.960 . S
C1268 C1267 1.524 . S
C1269 C1266 1.403 . S
C1269 C1270 1.392 . S
C1269 C1273 1.495 . S
C1270 C1269 1.392 . S
C1270 C1271 1.385 . S
C1270 C1272 1.478 . S
C1271 H1265 0.930 . S
C1271 C1267 1.400 . S
C1271 C1270 1.385 . S
C1272 C1270 1.478 . S
C1272 C1274 1.381 . S
C1272 C1278 1.383 . S
C1273 C1269 1.495 . S
C1273 H1279 0.959 . S
C1273 H1280 0.961 . S
C1273 H1281 0.960 . S
C1274 C1272 1.381 . S
C1274 C1275 1.394 . S
C1274 H1282 0.930 . S
C1275 C1274 1.394 . S
C1275 C1276 1.383 . S
C1275 H1283 0.929 . S
C1276 C1275 1.383 . S
C1276 C1277 1.377 . S
C1277 H1261 0.930 . S
C1277 C1276 1.377 . S
C1277 C1278 1.379 . S
C1278 H1262 0.931 . S
C1278 C1272 1.383 . S
C1278 C1277 1.379 . S
H1279 C1273 0.959 . S
H1280 C1273 0.961 . S
H1281 C1273 0.960 . S
H1282 C1274 0.930 . S
H1283 C1275 0.929 . S
H1284 C1292 0.929 . S
H1285 C1294 0.930 . S
H1286 C1296 0.930 . S
H1287 C1299 0.929 . S
H1288 C1302 0.930 . S
H1289 C1304 0.960 . S
H1290 C1304 0.960 . S
H1291 C1304 0.960 . S
C1292 H1284 0.929 . S
C1292 C1293 1.377 . S
C1292 C1294 1.384 . S
C1293 C1292 1.377 . S
C1293 C1299 1.390 . S
C1294 H1285 0.930 . S
C1294 C1292 1.384 . S
C1294 C1295 1.372 . S
C1295 C1294 1.372 . S
C1295 C1296 1.400 . S
C1295 C1300 1.490 . S
C1296 H1286 0.930 . S
C1296 C1295 1.400 . S
C1296 C1299 1.386 . S
H1297 C1313 0.930 . S
H1298 C1314 0.931 . S
C1299 H1287 0.929 . S
C1299 C1293 1.390 . S
C1299 C1296 1.386 . S
C1300 C1295 1.490 . S
C1300 C1302 1.395 . S
C1300 C1303 1.403 . S
H1301 C1307 0.930 . S
C1302 H1288 0.930 . S
C1302 C1300 1.395 . S
C1302 C1305 1.403 . S
C1303 C1300 1.403 . S
C1303 C1304 1.524 . S
C1303 C1307 1.400 . S
C1304 H1289 0.960 . S
C1304 H1290 0.960 . S
C1304 H1291 0.960 . S
C1304 C1303 1.524 . S
C1305 C1302 1.403 . S
C1305 C1306 1.392 . S
C1305 C1309 1.495 . S
C1306 C1305 1.392 . S
C1306 C1307 1.385 . S
C1306 C1308 1.478 . S
C1307 H1301 0.930 . S
C1307 C1303 1.400 . S
C1307 C1306 1.385 . S
C1308 C1306 1.478 . S
C1308 C1310 1.381 . S
C1308 C1314 1.383 . S
C1309 C1305 1.495 . S
C1309 H1315 0.959 . S
C1309 H1316 0.961 . S
C1309 H1317 0.960 . S
C1310 C1308 1.381 . S
C1310 C1311 1.394 . S
C1310 H1318 0.930 . S
C1311 C1310 1.394 . S
C1311 C1312 1.383 . S
C1311 H1319 0.929 . S
C1312 C1311 1.383 . S
C1312 C1313 1.377 . S
C1313 H1297 0.930 . S
C1313 C1312 1.377 . S
C1313 C1314 1.379 . S
C1314 H1298 0.931 . S
C1314 C1308 1.383 . S
C1314 C1313 1.379 . S
H1315 C1309 0.959 . S
H1316 C1309 0.961 . S
H1317 C1309 0.960 . S
H1318 C1310 0.930 . S
H1319 C1311 0.929 . S
H1320 C1328 0.929 . S
H1321 C1330 0.930 . S
H1322 C1332 0.930 . S
H1323 C1335 0.929 . S
H1324 C1338 0.930 . S
H1325 C1340 0.960 . S
H1326 C1340 0.960 . S
H1327 C1340 0.960 . S
C1328 H1320 0.929 . S
C1328 C1329 1.377 . S
C1328 C1330 1.384 . S
C1329 C1328 1.377 . S
C1329 C1335 1.390 . S
C1330 H1321 0.930 . S
C1330 C1328 1.384 . S
C1330 C1331 1.372 . S
C1331 C1330 1.372 . S
C1331 C1332 1.400 . S
C1331 C1336 1.490 . S
C1332 H1322 0.930 . S
C1332 C1331 1.400 . S
C1332 C1335 1.386 . S
H1333 C1349 0.930 . S
H1334 C1350 0.931 . S
C1335 H1323 0.929 . S
C1335 C1329 1.390 . S
C1335 C1332 1.386 . S
C1336 C1331 1.490 . S
C1336 C1338 1.395 . S
C1336 C1339 1.403 . S
H1337 C1343 0.930 . S
C1338 H1324 0.930 . S
C1338 C1336 1.395 . S
C1338 C1341 1.403 . S
C1339 C1336 1.403 . S
C1339 C1340 1.524 . S
C1339 C1343 1.400 . S
C1340 H1325 0.960 . S
C1340 H1326 0.960 . S
C1340 H1327 0.960 . S
C1340 C1339 1.524 . S
C1341 C1338 1.403 . S
C1341 C1342 1.392 . S
C1341 C1345 1.495 . S
C1342 C1341 1.392 . S
C1342 C1343 1.385 . S
C1342 C1344 1.478 . S
C1343 H1337 0.930 . S
C1343 C1339 1.400 . S
C1343 C1342 1.385 . S
C1344 C1342 1.478 . S
C1344 C1346 1.381 . S
C1344 C1350 1.383 . S
C1345 C1341 1.495 . S
C1345 H1351 0.959 . S
C1345 H1352 0.961 . S
C1345 H1353 0.960 . S
C1346 C1344 1.381 . S
C1346 C1347 1.394 . S
C1346 H1354 0.930 . S
C1347 C1346 1.394 . S
C1347 C1348 1.383 . S
C1347 H1355 0.929 . S
C1348 C1347 1.383 . S
C1348 C1349 1.377 . S
C1349 H1333 0.930 . S
C1349 C1348 1.377 . S
C1349 C1350 1.379 . S
C1350 H1334 0.931 . S
C1350 C1344 1.383 . S
C1350 C1349 1.379 . S
H1351 C1345 0.959 . S
H1352 C1345 0.961 . S
H1353 C1345 0.960 . S
H1354 C1346 0.930 . S
H1355 C1347 0.929 . S
H1356 C1364 0.929 . S
H1357 C1366 0.930 . S
H1358 C1368 0.930 . S
H1359 C1371 0.929 . S
H1360 C1374 0.930 . S
H1361 C1376 0.960 . S
H1362 C1376 0.960 . S
H1363 C1376 0.960 . S
C1364 H1356 0.929 . S
C1364 C1365 1.377 . S
C1364 C1366 1.384 . S
C1365 C1364 1.377 . S
C1365 C1371 1.390 . S
C1366 H1357 0.930 . S
C1366 C1364 1.384 . S
C1366 C1367 1.372 . S
C1367 C1366 1.372 . S
C1367 C1368 1.400 . S
C1367 C1372 1.490 . S
C1368 H1358 0.930 . S
C1368 C1367 1.400 . S
C1368 C1371 1.386 . S
H1369 C1385 0.930 . S
H1370 C1386 0.931 . S
C1371 H1359 0.929 . S
C1371 C1365 1.390 . S
C1371 C1368 1.386 . S
C1372 C1367 1.490 . S
C1372 C1374 1.395 . S
C1372 C1375 1.403 . S
H1373 C1379 0.930 . S
C1374 H1360 0.930 . S
C1374 C1372 1.395 . S
C1374 C1377 1.403 . S
C1375 C1372 1.403 . S
C1375 C1376 1.524 . S
C1375 C1379 1.400 . S
C1376 H1361 0.960 . S
C1376 H1362 0.960 . S
C1376 H1363 0.960 . S
C1376 C1375 1.524 . S
C1377 C1374 1.403 . S
C1377 C1378 1.392 . S
C1377 C1381 1.495 . S
C1378 C1377 1.392 . S
C1378 C1379 1.385 . S
C1378 C1380 1.478 . S
C1379 H1373 0.930 . S
C1379 C1375 1.400 . S
C1379 C1378 1.385 . S
C1380 C1378 1.478 . S
C1380 C1382 1.381 . S
C1380 C1386 1.383 . S
C1381 C1377 1.495 . S
C1381 H1387 0.959 . S
C1381 H1388 0.961 . S
C1381 H1389 0.960 . S
C1382 C1380 1.381 . S
C1382 C1383 1.394 . S
C1382 H1390 0.930 . S
C1383 C1382 1.394 . S
C1383 C1384 1.383 . S
C1383 H1391 0.929 . S
C1384 C1383 1.383 . S
C1384 C1385 1.377 . S
C1385 H1369 0.930 . S
C1385 C1384 1.377 . S
C1385 C1386 1.379 . S
C1386 H1370 0.931 . S
C1386 C1380 1.383 . S
C1386 C1385 1.379 . S
H1387 C1381 0.959 . S
H1388 C1381 0.961 . S
H1389 C1381 0.960 . S
H1390 C1382 0.930 . S
H1391 C1383 0.929 . S
H1392 C1400 0.929 . S
H1393 C1402 0.930 . S
H1394 C1404 0.930 . S
H1395 C1407 0.929 . S
H1396 C1410 0.930 . S
H1397 C1412 0.960 . S
H1398 C1412 0.960 . S
H1399 C1412 0.960 . S
C1400 H1392 0.929 . S
C1400 C1401 1.377 . S
C1400 C1402 1.384 . S
C1401 C1400 1.377 . S
C1401 C1407 1.390 . S
C1402 H1393 0.930 . S
C1402 C1400 1.384 . S
C1402 C1403 1.372 . S
C1403 C1402 1.372 . S
C1403 C1404 1.400 . S
C1403 C1408 1.490 . S
C1404 H1394 0.930 . S
C1404 C1403 1.400 . S
C1404 C1407 1.386 . S
H1405 C1421 0.930 . S
H1406 C1422 0.931 . S
C1407 H1395 0.929 . S
C1407 C1401 1.390 . S
C1407 C1404 1.386 . S
C1408 C1403 1.490 . S
C1408 C1410 1.395 . S
C1408 C1411 1.403 . S
H1409 C1415 0.930 . S
C1410 H1396 0.930 . S
C1410 C1408 1.395 . S
C1410 C1413 1.403 . S
C1411 C1408 1.403 . S
C1411 C1412 1.524 . S
C1411 C1415 1.400 . S
C1412 H1397 0.960 . S
C1412 H1398 0.960 . S
C1412 H1399 0.960 . S
C1412 C1411 1.524 . S
C1413 C1410 1.403 . S
C1413 C1414 1.392 . S
C1413 C1417 1.495 . S
C1414 C1413 1.392 . S
C1414 C1415 1.385 . S
C1414 C1416 1.478 . S
C1415 H1409 0.930 . S
C1415 C1411 1.400 . S
C1415 C1414 1.385 . S
C1416 C1414 1.478 . S
C1416 C1418 1.381 . S
C1416 C1422 1.383 . S
C1417 C1413 1.495 . S
C1417 H1423 0.959 . S
C1417 H1424 0.961 . S
C1417 H1425 0.960 . S
C1418 C1416 1.381 . S
C1418 C1419 1.394 . S
C1418 H1426 0.930 . S
C1419 C1418 1.394 . S
C1419 C1420 1.383 . S
C1419 H1427 0.929 . S
C1420 C1419 1.383 . S
C1420 C1421 1.377 . S
C1421 H1405 0.930 . S
C1421 C1420 1.377 . S
C1421 C1422 1.379 . S
C1422 H1406 0.931 . S
C1422 C1416 1.383 . S
C1422 C1421 1.379 . S
H1423 C1417 0.959 . S
H1424 C1417 0.961 . S
H1425 C1417 0.960 . S
H1426 C1418 0.930 . S
H1427 C1419 0.929 . S
H1428 C1436 0.929 . S
H1429 C1438 0.930 . S
H1430 C1440 0.930 . S
H1431 C1443 0.929 . S
H1432 C1446 0.930 . S
H1433 C1448 0.960 . S
H1434 C1448 0.960 . S
H1435 C1448 0.960 . S
C1436 H1428 0.929 . S
C1436 C1437 1.377 . S
C1436 C1438 1.384 . S
C1437 C1436 1.377 . S
C1437 C1443 1.390 . S
C1438 H1429 0.930 . S
C1438 C1436 1.384 . S
C1438 C1439 1.372 . S
C1439 C1438 1.372 . S
C1439 C1440 1.400 . S
C1439 C1444 1.490 . S
C1440 H1430 0.930 . S
C1440 C1439 1.400 . S
C1440 C1443 1.386 . S
H1441 C1457 0.930 . S
H1442 C1458 0.931 . S
C1443 H1431 0.929 . S
C1443 C1437 1.390 . S
C1443 C1440 1.386 . S
C1444 C1439 1.490 . S
C1444 C1446 1.395 . S
C1444 C1447 1.403 . S
H1445 C1451 0.930 . S
C1446 H1432 0.930 . S
C1446 C1444 1.395 . S
C1446 C1449 1.403 . S
C1447 C1444 1.403 . S
C1447 C1448 1.524 . S
C1447 C1451 1.400 . S
C1448 H1433 0.960 . S
C1448 H1434 0.960 . S
C1448 H1435 0.960 . S
C1448 C1447 1.524 . S
C1449 C1446 1.403 . S
C1449 C1450 1.392 . S
C1449 C1453 1.495 . S
C1450 C1449 1.392 . S
C1450 C1451 1.385 . S
C1450 C1452 1.478 . S
C1451 H1445 0.930 . S
C1451 C1447 1.400 . S
C1451 C1450 1.385 . S
C1452 C1450 1.478 . S
C1452 C1454 1.381 . S
C1452 C1458 1.383 . S
C1453 C1449 1.495 . S
C1453 H1459 0.959 . S
C1453 H1460 0.961 . S
C1453 H1461 0.960 . S
C1454 C1452 1.381 . S
C1454 C1455 1.394 . S
C1454 H1462 0.930 . S
C1455 C1454 1.394 . S
C1455 C1456 1.383 . S
C1455 H1463 0.929 . S
C1456 C1455 1.383 . S
C1456 C1457 1.377 . S
C1457 H1441 0.930 . S
C1457 C1456 1.377 . S
C1457 C1458 1.379 . S
C1458 H1442 0.931 . S
C1458 C1452 1.383 . S
C1458 C1457 1.379 . S
H1459 C1453 0.959 . S
H1460 C1453 0.961 . S
H1461 C1453 0.960 . S
H1462 C1454 0.930 . S
H1463 C1455 0.929 . S
H1464 C1472 0.929 . S
H1465 C1474 0.930 . S
H1466 C1476 0.930 . S
H1467 C1479 0.929 . S
H1468 C1482 0.930 . S
H1469 C1484 0.960 . S
H1470 C1484 0.960 . S
H1471 C1484 0.960 . S
C1472 H1464 0.929 . S
C1472 C1473 1.377 . S
C1472 C1474 1.384 . S
C1473 C1472 1.377 . S
C1473 C1479 1.390 . S
C1474 H1465 0.930 . S
C1474 C1472 1.384 . S
C1474 C1475 1.372 . S
C1475 C1474 1.372 . S
C1475 C1476 1.400 . S
C1475 C1480 1.490 . S
C1476 H1466 0.930 . S
C1476 C1475 1.400 . S
C1476 C1479 1.386 . S
H1477 C1493 0.930 . S
H1478 C1494 0.931 . S
C1479 H1467 0.929 . S
C1479 C1473 1.390 . S
C1479 C1476 1.386 . S
C1480 C1475 1.490 . S
C1480 C1482 1.395 . S
C1480 C1483 1.403 . S
H1481 C1487 0.930 . S
C1482 H1468 0.930 . S
C1482 C1480 1.395 . S
C1482 C1485 1.403 . S
C1483 C1480 1.403 . S
C1483 C1484 1.524 . S
C1483 C1487 1.400 . S
C1484 H1469 0.960 . S
C1484 H1470 0.960 . S
C1484 H1471 0.960 . S
C1484 C1483 1.524 . S
C1485 C1482 1.403 . S
C1485 C1486 1.392 . S
C1485 C1489 1.495 . S
C1486 C1485 1.392 . S
C1486 C1487 1.385 . S
C1486 C1488 1.478 . S
C1487 H1481 0.930 . S
C1487 C1483 1.400 . S
C1487 C1486 1.385 . S
C1488 C1486 1.478 . S
C1488 C1490 1.381 . S
C1488 C1494 1.383 . S
C1489 C1485 1.495 . S
C1489 H1495 0.959 . S
C1489 H1496 0.961 . S
C1489 H1497 0.960 . S
C1490 C1488 1.381 . S
C1490 C1491 1.394 . S
C1490 H1498 0.930 . S
C1491 C1490 1.394 . S
C1491 C1492 1.383 . S
C1491 H1499 0.929 . S
C1492 C1491 1.383 . S
C1492 C1493 1.377 . S
C1493 H1477 0.930 . S
C1493 C1492 1.377 . S
C1493 C1494 1.379 . S
C1494 H1478 0.931 . S
C1494 C1488 1.383 . S
C1494 C1493 1.379 . S
H1495 C1489 0.959 . S
H1496 C1489 0.961 . S
H1497 C1489 0.960 . S
H1498 C1490 0.930 . S
H1499 C1491 0.929 . S
H1500 C1508 0.929 . S
H1501 C1510 0.930 . S
H1502 C1512 0.930 . S
H1503 C1515 0.929 . S
H1504 C1518 0.930 . S
H1505 C1520 0.960 . S
H1506 C1520 0.960 . S
H1507 C1520 0.960 . S
C1508 H1500 0.929 . S
C1508 C1509 1.377 . S
C1508 C1510 1.384 . S
C1509 C1508 1.377 . S
C1509 C1515 1.390 . S
C1510 H1501 0.930 . S
C1510 C1508 1.384 . S
C1510 C1511 1.372 . S
C1511 C1510 1.372 . S
C1511 C1512 1.400 . S
C1511 C1516 1.490 . S
C1512 H1502 0.930 . S
C1512 C1511 1.400 . S
C1512 C1515 1.386 . S
H1513 C1529 0.930 . S
H1514 C1530 0.931 . S
C1515 H1503 0.929 . S
C1515 C1509 1.390 . S
C1515 C1512 1.386 . S
C1516 C1511 1.490 . S
C1516 C1518 1.395 . S
C1516 C1519 1.403 . S
H1517 C1523 0.930 . S
C1518 H1504 0.930 . S
C1518 C1516 1.395 . S
C1518 C1521 1.403 . S
C1519 C1516 1.403 . S
C1519 C1520 1.524 . S
C1519 C1523 1.400 . S
C1520 H1505 0.960 . S
C1520 H1506 0.960 . S
C1520 H1507 0.960 . S
C1520 C1519 1.524 . S
C1521 C1518 1.403 . S
C1521 C1522 1.392 . S
C1521 C1525 1.495 . S
C1522 C1521 1.392 . S
C1522 C1523 1.385 . S
C1522 C1524 1.478 . S
C1523 H1517 0.930 . S
C1523 C1519 1.400 . S
C1523 C1522 1.385 . S
C1524 C1522 1.478 . S
C1524 C1526 1.381 . S
C1524 C1530 1.383 . S
C1525 C1521 1.495 . S
C1525 H1531 0.959 . S
C1525 H1532 0.961 . S
C1525 H1533 0.960 . S
C1526 C1524 1.381 . S
C1526 C1527 1.394 . S
C1526 H1534 0.930 . S
C1527 C1526 1.394 . S
C1527 C1528 1.383 . S
C1527 H1535 0.929 . S
C1528 C1527 1.383 . S
C1528 C1529 1.377 . S
C1529 H1513 0.930 . S
C1529 C1528 1.377 . S
C1529 C1530 1.379 . S
C1530 H1514 0.931 . S
C1530 C1524 1.383 . S
C1530 C1529 1.379 . S
H1531 C1525 0.959 . S
H1532 C1525 0.961 . S
H1533 C1525 0.960 . S
H1534 C1526 0.930 . S
H1535 C1527 0.929 . S
H1536 C1544 0.929 . S
H1537 C1546 0.930 . S
H1538 C1548 0.930 . S
H1539 C1551 0.929 . S
H1540 C1554 0.930 . S
H1541 C1556 0.960 . S
H1542 C1556 0.960 . S
H1543 C1556 0.960 . S
C1544 H1536 0.929 . S
C1544 C1545 1.377 . S
C1544 C1546 1.384 . S
C1545 C1544 1.377 . S
C1545 C1551 1.390 . S
C1546 H1537 0.930 . S
C1546 C1544 1.384 . S
C1546 C1547 1.372 . S
C1547 C1546 1.372 . S
C1547 C1548 1.400 . S
C1547 C1552 1.490 . S
C1548 H1538 0.930 . S
C1548 C1547 1.400 . S
C1548 C1551 1.386 . S
H1549 C1565 0.930 . S
H1550 C1566 0.931 . S
C1551 H1539 0.929 . S
C1551 C1545 1.390 . S
C1551 C1548 1.386 . S
C1552 C1547 1.490 . S
C1552 C1554 1.395 . S
C1552 C1555 1.403 . S
H1553 C1559 0.930 . S
C1554 H1540 0.930 . S
C1554 C1552 1.395 . S
C1554 C1557 1.403 . S
C1555 C1552 1.403 . S
C1555 C1556 1.524 . S
C1555 C1559 1.400 . S
C1556 H1541 0.960 . S
C1556 H1542 0.960 . S
C1556 H1543 0.960 . S
C1556 C1555 1.524 . S
C1557 C1554 1.403 . S
C1557 C1558 1.392 . S
C1557 C1561 1.495 . S
C1558 C1557 1.392 . S
C1558 C1559 1.385 . S
C1558 C1560 1.478 . S
C1559 H1553 0.930 . S
C1559 C1555 1.400 . S
C1559 C1558 1.385 . S
C1560 C1558 1.478 . S
C1560 C1562 1.381 . S
C1560 C1566 1.383 . S
C1561 C1557 1.495 . S
C1561 H1567 0.959 . S
C1561 H1568 0.961 . S
C1561 H1569 0.960 . S
C1562 C1560 1.381 . S
C1562 C1563 1.394 . S
C1562 H1570 0.930 . S
C1563 C1562 1.394 . S
C1563 C1564 1.383 . S
C1563 H1571 0.929 . S
C1564 C1563 1.383 . S
C1564 C1565 1.377 . S
C1565 H1549 0.930 . S
C1565 C1564 1.377 . S
C1565 C1566 1.379 . S
C1566 H1550 0.931 . S
C1566 C1560 1.383 . S
C1566 C1565 1.379 . S
H1567 C1561 0.959 . S
H1568 C1561 0.961 . S
H1569 C1561 0.960 . S
H1570 C1562 0.930 . S
H1571 C1563 0.929 . S
H1572 C1580 0.929 . S
H1573 C1582 0.930 . S
H1574 C1584 0.930 . S
H1575 C1587 0.929 . S
H1576 C1590 0.930 . S
H1577 C1592 0.960 . S
H1578 C1592 0.960 . S
H1579 C1592 0.960 . S
C1580 H1572 0.929 . S
C1580 C1581 1.377 . S
C1580 C1582 1.384 . S
C1581 C1580 1.377 . S
C1581 C1587 1.390 . S
C1582 H1573 0.930 . S
C1582 C1580 1.384 . S
C1582 C1583 1.372 . S
C1583 C1582 1.372 . S
C1583 C1584 1.400 . S
C1583 C1588 1.490 . S
C1584 H1574 0.930 . S
C1584 C1583 1.400 . S
C1584 C1587 1.386 . S
H1585 C1601 0.930 . S
H1586 C1602 0.931 . S
C1587 H1575 0.929 . S
C1587 C1581 1.390 . S
C1587 C1584 1.386 . S
C1588 C1583 1.490 . S
C1588 C1590 1.395 . S
C1588 C1591 1.403 . S
H1589 C1595 0.930 . S
C1590 H1576 0.930 . S
C1590 C1588 1.395 . S
C1590 C1593 1.403 . S
C1591 C1588 1.403 . S
C1591 C1592 1.524 . S
C1591 C1595 1.400 . S
C1592 H1577 0.960 . S
C1592 H1578 0.960 . S
C1592 H1579 0.960 . S
C1592 C1591 1.524 . S
C1593 C1590 1.403 . S
C1593 C1594 1.392 . S
C1593 C1597 1.495 . S
C1594 C1593 1.392 . S
C1594 C1595 1.385 . S
C1594 C1596 1.478 . S
C1595 H1589 0.930 . S
C1595 C1591 1.400 . S
C1595 C1594 1.385 . S
C1596 C1594 1.478 . S
C1596 C1598 1.381 . S
C1596 C1602 1.383 . S
C1597 C1593 1.495 . S
C1597 H1603 0.959 . S
C1597 H1604 0.961 . S
C1597 H1605 0.960 . S
C1598 C1596 1.381 . S
C1598 C1599 1.394 . S
C1598 H1606 0.930 . S
C1599 C1598 1.394 . S
C1599 C1600 1.383 . S
C1599 H1607 0.929 . S
C1600 C1599 1.383 . S
C1600 C1601 1.377 . S
C1601 H1585 0.930 . S
C1601 C1600 1.377 . S
C1601 C1602 1.379 . S
C1602 H1586 0.931 . S
C1602 C1596 1.383 . S
C1602 C1601 1.379 . S
H1603 C1597 0.959 . S
H1604 C1597 0.961 . S
H1605 C1597 0.960 . S
H1606 C1598 0.930 . S
H1607 C1599 0.929 . S
H1608 C1616 0.929 . S
H1609 C1618 0.930 . S
H1610 C1620 0.930 . S
H1611 C1623 0.929 . S
H1612 C1626 0.930 . S
H1613 C1628 0.960 . S
H1614 C1628 0.960 . S
H1615 C1628 0.960 . S
C1616 H1608 0.929 . S
C1616 C1617 1.377 . S
C1616 C1618 1.384 . S
C1617 C1616 1.377 . S
C1617 C1623 1.390 . S
C1618 H1609 0.930 . S
C1618 C1616 1.384 . S
C1618 C1619 1.372 . S
C1619 C1618 1.372 . S
C1619 C1620 1.400 . S
C1619 C1624 1.490 . S
C1620 H1610 0.930 . S
C1620 C1619 1.400 . S
C1620 C1623 1.386 . S
H1621 C1637 0.930 . S
H1622 C1638 0.931 . S
C1623 H1611 0.929 . S
C1623 C1617 1.390 . S
C1623 C1620 1.386 . S
C1624 C1619 1.490 . S
C1624 C1626 1.395 . S
C1624 C1627 1.403 . S
H1625 C1631 0.930 . S
C1626 H1612 0.930 . S
C1626 C1624 1.395 . S
C1626 C1629 1.403 . S
C1627 C1624 1.403 . S
C1627 C1628 1.524 . S
C1627 C1631 1.400 . S
C1628 H1613 0.960 . S
C1628 H1614 0.960 . S
C1628 H1615 0.960 . S
C1628 C1627 1.524 . S
C1629 C1626 1.403 . S
C1629 C1630 1.392 . S
C1629 C1633 1.495 . S
C1630 C1629 1.392 . S
C1630 C1631 1.385 . S
C1630 C1632 1.478 . S
C1631 H1625 0.930 . S
C1631 C1627 1.400 . S
C1631 C1630 1.385 . S
C1632 C1630 1.478 . S
C1632 C1634 1.381 . S
C1632 C1638 1.383 . S
C1633 C1629 1.495 . S
C1633 H1639 0.959 . S
C1633 H1640 0.961 . S
C1633 H1641 0.960 . S
C1634 C1632 1.381 . S
C1634 C1635 1.394 . S
C1634 H1642 0.930 . S
C1635 C1634 1.394 . S
C1635 C1636 1.383 . S
C1635 H1643 0.929 . S
C1636 C1635 1.383 . S
C1636 C1637 1.377 . S
C1637 H1621 0.930 . S
C1637 C1636 1.377 . S
C1637 C1638 1.379 . S
C1638 H1622 0.931 . S
C1638 C1632 1.383 . S
C1638 C1637 1.379 . S
H1639 C1633 0.959 . S
H1640 C1633 0.961 . S
H1641 C1633 0.960 . S
H1642 C1634 0.930 . S
H1643 C1635 0.929 . S
H1644 C1652 0.929 . S
H1645 C1654 0.930 . S
H1646 C1656 0.930 . S
H1647 C1659 0.929 . S
H1648 C1662 0.930 . S
H1649 C1664 0.960 . S
H1650 C1664 0.960 . S
H1651 C1664 0.960 . S
C1652 H1644 0.929 . S
C1652 C1653 1.377 . S
C1652 C1654 1.384 . S
C1653 C1652 1.377 . S
C1653 C1659 1.390 . S
C1654 H1645 0.930 . S
C1654 C1652 1.384 . S
C1654 C1655 1.372 . S
C1655 C1654 1.372 . S
C1655 C1656 1.400 . S
C1655 C1660 1.490 . S
C1656 H1646 0.930 . S
C1656 C1655 1.400 . S
C1656 C1659 1.386 . S
H1657 C1673 0.930 . S
H1658 C1674 0.931 . S
C1659 H1647 0.929 . S
C1659 C1653 1.390 . S
C1659 C1656 1.386 . S
C1660 C1655 1.490 . S
C1660 C1662 1.395 . S
C1660 C1663 1.403 . S
H1661 C1667 0.930 . S
C1662 H1648 0.930 . S
C1662 C1660 1.395 . S
C1662 C1665 1.403 . S
C1663 C1660 1.403 . S
C1663 C1664 1.524 . S
C1663 C1667 1.400 . S
C1664 H1649 0.960 . S
C1664 H1650 0.960 . S
C1664 H1651 0.960 . S
C1664 C1663 1.524 . S
C1665 C1662 1.403 . S
C1665 C1666 1.392 . S
C1665 C1669 1.495 . S
C1666 C1665 1.392 . S
C1666 C1667 1.385 . S
C1666 C1668 1.478 . S
C1667 H1661 0.930 . S
C1667 C1663 1.400 . S
C1667 C1666 1.385 . S
C1668 C1666 1.478 . S
C1668 C1670 1.381 . S
C1668 C1674 1.383 . S
C1669 C1665 1.495 . S
C1669 H1675 0.959 . S
C1669 H1676 0.961 . S
C1669 H1677 0.960 . S
C1670 C1668 1.381 . S
C1670 C1671 1.394 . S
C1670 H1678 0.930 . S
C1671 C1670 1.394 . S
C1671 C1672 1.383 . S
C1671 H1679 0.929 . S
C1672 C1671 1.383 . S
C1672 C1673 1.377 . S
C1673 H1657 0.930 . S
C1673 C1672 1.377 . S
C1673 C1674 1.379 . S
C1674 H1658 0.931 . S
C1674 C1668 1.383 . S
C1674 C1673 1.379 . S
H1675 C1669 0.959 . S
H1676 C1669 0.961 . S
H1677 C1669 0.960 . S
H1678 C1670 0.930 . S
H1679 C1671 0.929 . S
H1680 C1688 0.929 . S
H1681 C1690 0.930 . S
H1682 C1692 0.930 . S
H1683 C1695 0.929 . S
H1684 C1698 0.930 . S
H1685 C1700 0.960 . S
H1686 C1700 0.960 . S
H1687 C1700 0.960 . S
C1688 H1680 0.929 . S
C1688 C1689 1.377 . S
C1688 C1690 1.384 . S
C1689 C1688 1.377 . S
C1689 C1695 1.390 . S
C1690 H1681 0.930 . S
C1690 C1688 1.384 . S
C1690 C1691 1.372 . S
C1691 C1690 1.372 . S
C1691 C1692 1.400 . S
C1691 C1696 1.490 . S
C1692 H1682 0.930 . S
C1692 C1691 1.400 . S
C1692 C1695 1.386 . S
H1693 C1709 0.930 . S
H1694 C1710 0.931 . S
C1695 H1683 0.929 . S
C1695 C1689 1.390 . S
C1695 C1692 1.386 . S
C1696 C1691 1.490 . S
C1696 C1698 1.395 . S
C1696 C1699 1.403 . S
H1697 C1703 0.930 . S
C1698 H1684 0.930 . S
C1698 C1696 1.395 . S
C1698 C1701 1.403 . S
C1699 C1696 1.403 . S
C1699 C1700 1.524 . S
C1699 C1703 1.400 . S
C1700 H1685 0.960 . S
C1700 H1686 0.960 . S
C1700 H1687 0.960 . S
C1700 C1699 1.524 . S
C1701 C1698 1.403 . S
C1701 C1702 1.392 . S
C1701 C1705 1.495 . S
C1702 C1701 1.392 . S
C1702 C1703 1.385 . S
C1702 C1704 1.478 . S
C1703 H1697 0.930 . S
C1703 C1699 1.400 . S
C1703 C1702 1.385 . S
C1704 C1702 1.478 . S
C1704 C1706 1.381 . S
C1704 C1710 1.383 . S
C1705 C1701 1.495 . S
C1705 H1711 0.959 . S
C1705 H1712 0.961 . S
C1705 H1713 0.960 . S
C1706 C1704 1.381 . S
C1706 C1707 1.394 . S
C1706 H1714 0.930 . S
C1707 C1706 1.394 . S
C1707 C1708 1.383 . S
C1707 H1715 0.929 . S
C1708 C1707 1.383 . S
C1708 C1709 1.377 . S
C1709 H1693 0.930 . S
C1709 C1708 1.377 . S
C1709 C1710 1.379 . S
C1710 H1694 0.931 . S
C1710 C1704 1.383 . S
C1710 C1709 1.379 . S
H1711 C1705 0.959 . S
H1712 C1705 0.961 . S
H1713 C1705 0.960 . S
H1714 C1706 0.930 . S
H1715 C1707 0.929 . S
H1716 C1724 0.929 . S
H1717 C1726 0.930 . S
H1718 C1728 0.930 . S
H1719 C1731 0.929 . S
H1720 C1734 0.930 . S
H1721 C1736 0.960 . S
H1722 C1736 0.960 . S
H1723 C1736 0.960 . S
C1724 H1716 0.929 . S
C1724 C1725 1.377 . S
C1724 C1726 1.384 . S
C1725 C1724 1.377 . S
C1725 C1731 1.390 . S
C1726 H1717 0.930 . S
C1726 C1724 1.384 . S
C1726 C1727 1.372 . S
C1727 C1726 1.372 . S
C1727 C1728 1.400 . S
C1727 C1732 1.490 . S
C1728 H1718 0.930 . S
C1728 C1727 1.400 . S
C1728 C1731 1.386 . S
H1729 C1745 0.930 . S
H1730 C1746 0.931 . S
C1731 H1719 0.929 . S
C1731 C1725 1.390 . S
C1731 C1728 1.386 . S
C1732 C1727 1.490 . S
C1732 C1734 1.395 . S
C1732 C1735 1.403 . S
H1733 C1739 0.930 . S
C1734 H1720 0.930 . S
C1734 C1732 1.395 . S
C1734 C1737 1.403 . S
C1735 C1732 1.403 . S
C1735 C1736 1.524 . S
C1735 C1739 1.400 . S
C1736 H1721 0.960 . S
C1736 H1722 0.960 . S
C1736 H1723 0.960 . S
C1736 C1735 1.524 . S
C1737 C1734 1.403 . S
C1737 C1738 1.392 . S
C1737 C1741 1.495 . S
C1738 C1737 1.392 . S
C1738 C1739 1.385 . S
C1738 C1740 1.478 . S
C1739 H1733 0.930 . S
C1739 C1735 1.400 . S
C1739 C1738 1.385 . S
C1740 C1738 1.478 . S
C1740 C1742 1.381 . S
C1740 C1746 1.383 . S
C1741 C1737 1.495 . S
C1741 H1747 0.959 . S
C1741 H1748 0.961 . S
C1741 H1749 0.960 . S
C1742 C1740 1.381 . S
C1742 C1743 1.394 . S
C1742 H1750 0.930 . S
C1743 C1742 1.394 . S
C1743 C1744 1.383 . S
C1743 H1751 0.929 . S
C1744 C1743 1.383 . S
C1744 C1745 1.377 . S
C1745 H1729 0.930 . S
C1745 C1744 1.377 . S
C1745 C1746 1.379 . S
C1746 H1730 0.931 . S
C1746 C1740 1.383 . S
C1746 C1745 1.379 . S
H1747 C1741 0.959 . S
H1748 C1741 0.961 . S
H1749 C1741 0.960 . S
H1750 C1742 0.930 . S
H1751 C1743 0.929 . S
H1752 C1760 0.929 . S
H1753 C1762 0.930 . S
H1754 C1764 0.930 . S
H1755 C1767 0.929 . S
H1756 C1770 0.930 . S
H1757 C1772 0.960 . S
H1758 C1772 0.960 . S
H1759 C1772 0.960 . S
C1760 H1752 0.929 . S
C1760 C1761 1.377 . S
C1760 C1762 1.384 . S
C1761 C1760 1.377 . S
C1761 C1767 1.390 . S
C1762 H1753 0.930 . S
C1762 C1760 1.384 . S
C1762 C1763 1.372 . S
C1763 C1762 1.372 . S
C1763 C1764 1.400 . S
C1763 C1768 1.490 . S
C1764 H1754 0.930 . S
C1764 C1763 1.400 . S
C1764 C1767 1.386 . S
H1765 C1781 0.930 . S
H1766 C1782 0.931 . S
C1767 H1755 0.929 . S
C1767 C1761 1.390 . S
C1767 C1764 1.386 . S
C1768 C1763 1.490 . S
C1768 C1770 1.395 . S
C1768 C1771 1.403 . S
H1769 C1775 0.930 . S
C1770 H1756 0.930 . S
C1770 C1768 1.395 . S
C1770 C1773 1.403 . S
C1771 C1768 1.403 . S
C1771 C1772 1.524 . S
C1771 C1775 1.400 . S
C1772 H1757 0.960 . S
C1772 H1758 0.960 . S
C1772 H1759 0.960 . S
C1772 C1771 1.524 . S
C1773 C1770 1.403 . S
C1773 C1774 1.392 . S
C1773 C1777 1.495 . S
C1774 C1773 1.392 . S
C1774 C1775 1.385 . S
C1774 C1776 1.478 . S
C1775 H1769 0.930 . S
C1775 C1771 1.400 . S
C1775 C1774 1.385 . S
C1776 C1774 1.478 . S
C1776 C1778 1.381 . S
C1776 C1782 1.383 . S
C1777 C1773 1.495 . S
C1777 H1783 0.959 . S
C1777 H1784 0.961 . S
C1777 H1785 0.960 . S
C1778 C1776 1.381 . S
C1778 C1779 1.394 1_556 S
C1778 H1786 0.930 . S
C1779 C1778 1.394 1_554 S
C1779 C1780 1.383 . S
C1779 H1787 0.929 . S
C1780 C1779 1.383 . S
C1780 C1781 1.378 . S
C1781 H1765 0.930 . S
C1781 C1780 1.378 . S
C1781 C1782 1.378 1_554 S
C1782 H1766 0.931 . S
C1782 C1776 1.383 . S
C1782 C1781 1.378 1_556 S
H1783 C1777 0.959 . S
H1784 C1777 0.961 . S
H1785 C1777 0.960 . S
H1786 C1778 0.930 . S
H1787 C1779 0.929 . S
H1788 C1796 0.929 . S
H1789 C1798 0.930 . S
H1790 C1800 0.930 . S
H1791 C1803 0.929 . S
H1792 C1806 0.930 . S
H1793 C1808 0.960 . S
H1794 C1808 0.960 . S
H1795 C1808 0.960 . S
C1796 H1788 0.929 . S
C1796 C1797 1.377 . S
C1796 C1798 1.384 . S
C1797 C1796 1.377 . S
C1797 C1803 1.390 . S
C1798 H1789 0.930 . S
C1798 C1796 1.384 . S
C1798 C1799 1.372 . S
C1799 C1798 1.372 . S
C1799 C1800 1.400 . S
C1799 C1804 1.490 . S
C1800 H1790 0.930 . S
C1800 C1799 1.400 . S
C1800 C1803 1.386 . S
H1801 C1817 0.930 . S
H1802 C1818 0.931 . S
C1803 H1791 0.929 . S
C1803 C1797 1.390 . S
C1803 C1800 1.386 . S
C1804 C1799 1.490 . S
C1804 C1806 1.395 . S
C1804 C1807 1.403 . S
H1805 C1811 0.930 . S
C1806 H1792 0.930 . S
C1806 C1804 1.395 . S
C1806 C1809 1.403 . S
C1807 C1804 1.403 . S
C1807 C1808 1.524 . S
C1807 C1811 1.400 . S
C1808 H1793 0.960 . S
C1808 H1794 0.960 . S
C1808 H1795 0.960 . S
C1808 C1807 1.524 . S
C1809 C1806 1.403 . S
C1809 C1810 1.392 . S
C1809 C1813 1.495 . S
C1810 C1809 1.392 . S
C1810 C1811 1.385 . S
C1810 C1812 1.478 . S
C1811 H1805 0.930 . S
C1811 C1807 1.400 . S
C1811 C1810 1.385 . S
C1812 C1810 1.478 . S
C1812 C1814 1.381 . S
C1812 C1818 1.383 . S
C1813 C1809 1.495 . S
C1813 H1819 0.959 . S
C1813 H1820 0.961 . S
C1813 H1821 0.960 . S
C1814 C1812 1.381 . S
C1814 C1815 1.394 . S
C1814 H1822 0.930 . S
C1815 C1814 1.394 . S
C1815 C1816 1.383 . S
C1815 H1823 0.929 . S
C1816 C1815 1.383 . S
C1816 C1817 1.377 . S
C1817 H1801 0.930 . S
C1817 C1816 1.377 . S
C1817 C1818 1.379 . S
C1818 H1802 0.931 . S
C1818 C1812 1.383 . S
C1818 C1817 1.379 . S
H1819 C1813 0.959 . S
H1820 C1813 0.961 . S
H1821 C1813 0.960 . S
H1822 C1814 0.930 . S
H1823 C1815 0.929 . S
H1824 C1832 0.929 . S
H1825 C1834 0.930 . S
H1826 C1836 0.930 . S
H1827 C1839 0.929 . S
H1828 C1842 0.930 . S
H1829 C1844 0.960 . S
H1830 C1844 0.960 . S
H1831 C1844 0.960 . S
C1832 H1824 0.929 . S
C1832 C1833 1.377 . S
C1832 C1834 1.384 . S
C1833 C1832 1.377 . S
C1833 C1839 1.390 . S
C1834 H1825 0.930 . S
C1834 C1832 1.384 . S
C1834 C1835 1.372 . S
C1835 C1834 1.372 . S
C1835 C1836 1.400 . S
C1835 C1840 1.490 . S
C1836 H1826 0.930 . S
C1836 C1835 1.400 . S
C1836 C1839 1.386 . S
H1837 C1853 0.930 . S
H1838 C1854 0.931 . S
C1839 H1827 0.929 . S
C1839 C1833 1.390 . S
C1839 C1836 1.386 . S
C1840 C1835 1.490 . S
C1840 C1842 1.395 . S
C1840 C1843 1.403 . S
H1841 C1847 0.930 . S
C1842 H1828 0.930 . S
C1842 C1840 1.395 . S
C1842 C1845 1.403 . S
C1843 C1840 1.403 . S
C1843 C1844 1.524 . S
C1843 C1847 1.400 . S
C1844 H1829 0.960 . S
C1844 H1830 0.960 . S
C1844 H1831 0.960 . S
C1844 C1843 1.524 . S
C1845 C1842 1.403 . S
C1845 C1846 1.392 . S
C1845 C1849 1.495 . S
C1846 C1845 1.392 . S
C1846 C1847 1.385 . S
C1846 C1848 1.478 . S
C1847 H1841 0.930 . S
C1847 C1843 1.400 . S
C1847 C1846 1.385 . S
C1848 C1846 1.478 . S
C1848 C1850 1.381 . S
C1848 C1854 1.383 . S
C1849 C1845 1.495 . S
C1849 H1855 0.959 . S
C1849 H1856 0.961 . S
C1849 H1857 0.960 . S
C1850 C1848 1.381 . S
C1850 C1851 1.394 . S
C1850 H1858 0.930 . S
C1851 C1850 1.394 . S
C1851 C1852 1.383 . S
C1851 H1859 0.929 . S
C1852 C1851 1.383 . S
C1852 C1853 1.377 . S
C1853 H1837 0.930 . S
C1853 C1852 1.377 . S
C1853 C1854 1.379 . S
C1854 H1838 0.931 . S
C1854 C1848 1.383 . S
C1854 C1853 1.379 . S
H1855 C1849 0.959 . S
H1856 C1849 0.961 . S
H1857 C1849 0.960 . S
H1858 C1850 0.930 . S
H1859 C1851 0.929 . S
H1860 C1868 0.929 . S
H1861 C1870 0.930 . S
H1862 C1872 0.930 . S
H1863 C1875 0.929 . S
H1864 C1878 0.930 . S
H1865 C1880 0.960 . S
H1866 C1880 0.960 . S
H1867 C1880 0.960 . S
C1868 H1860 0.929 . S
C1868 C1869 1.377 . S
C1868 C1870 1.384 . S
C1869 C1868 1.377 . S
C1869 C1875 1.390 . S
C1870 H1861 0.930 . S
C1870 C1868 1.384 . S
C1870 C1871 1.372 . S
C1871 C1870 1.372 . S
C1871 C1872 1.400 . S
C1871 C1876 1.490 . S
C1872 H1862 0.930 . S
C1872 C1871 1.400 . S
C1872 C1875 1.386 . S
H1873 C1889 0.930 . S
H1874 C1890 0.931 . S
C1875 H1863 0.929 . S
C1875 C1869 1.390 . S
C1875 C1872 1.386 . S
C1876 C1871 1.490 . S
C1876 C1878 1.395 . S
C1876 C1879 1.403 . S
H1877 C1883 0.930 . S
C1878 H1864 0.930 . S
C1878 C1876 1.395 . S
C1878 C1881 1.403 . S
C1879 C1876 1.403 . S
C1879 C1880 1.524 . S
C1879 C1883 1.400 . S
C1880 H1865 0.960 . S
C1880 H1866 0.960 . S
C1880 H1867 0.960 . S
C1880 C1879 1.524 . S
C1881 C1878 1.403 . S
C1881 C1882 1.392 . S
C1881 C1885 1.495 . S
C1882 C1881 1.392 . S
C1882 C1883 1.385 . S
C1882 C1884 1.478 . S
C1883 H1877 0.930 . S
C1883 C1879 1.400 . S
C1883 C1882 1.385 . S
C1884 C1882 1.478 . S
C1884 C1886 1.381 . S
C1884 C1890 1.383 . S
C1885 C1881 1.495 . S
C1885 H1891 0.959 . S
C1885 H1892 0.961 . S
C1885 H1893 0.960 . S
C1886 C1884 1.381 . S
C1886 C1887 1.394 . S
C1886 H1894 0.930 . S
C1887 C1886 1.394 . S
C1887 C1888 1.383 . S
C1887 H1895 0.929 . S
C1888 C1887 1.383 . S
C1888 C1889 1.377 . S
C1889 H1873 0.930 . S
C1889 C1888 1.377 . S
C1889 C1890 1.379 . S
C1890 H1874 0.931 . S
C1890 C1884 1.383 . S
C1890 C1889 1.379 . S
H1891 C1885 0.959 . S
H1892 C1885 0.961 . S
H1893 C1885 0.960 . S
H1894 C1886 0.930 . S
H1895 C1887 0.929 . S
H1896 C1904 0.929 . S
H1897 C1906 0.930 . S
H1898 C1908 0.930 . S
H1899 C1911 0.929 . S
H1900 C1914 0.930 . S
H1901 C1916 0.960 . S
H1902 C1916 0.960 . S
H1903 C1916 0.960 . S
C1904 H1896 0.929 . S
C1904 C1905 1.377 . S
C1904 C1906 1.384 . S
C1905 C1904 1.377 . S
C1905 C1911 1.390 . S
C1906 H1897 0.930 . S
C1906 C1904 1.384 . S
C1906 C1907 1.372 . S
C1907 C1906 1.372 . S
C1907 C1908 1.400 . S
C1907 C1912 1.490 . S
C1908 H1898 0.930 . S
C1908 C1907 1.400 . S
C1908 C1911 1.386 . S
H1909 C1925 0.930 . S
H1910 C1926 0.931 . S
C1911 H1899 0.929 . S
C1911 C1905 1.390 . S
C1911 C1908 1.386 . S
C1912 C1907 1.490 . S
C1912 C1914 1.395 . S
C1912 C1915 1.403 . S
H1913 C1919 0.930 . S
C1914 H1900 0.930 . S
C1914 C1912 1.395 . S
C1914 C1917 1.403 . S
C1915 C1912 1.403 . S
C1915 C1916 1.524 . S
C1915 C1919 1.400 . S
C1916 H1901 0.960 . S
C1916 H1902 0.960 . S
C1916 H1903 0.960 . S
C1916 C1915 1.524 . S
C1917 C1914 1.403 . S
C1917 C1918 1.392 . S
C1917 C1921 1.495 . S
C1918 C1917 1.392 . S
C1918 C1919 1.385 . S
C1918 C1920 1.478 . S
C1919 H1913 0.930 . S
C1919 C1915 1.400 . S
C1919 C1918 1.385 . S
C1920 C1918 1.478 . S
C1920 C1922 1.381 . S
C1920 C1926 1.383 . S
C1921 C1917 1.495 . S
C1921 H1927 0.959 . S
C1921 H1928 0.961 . S
C1921 H1929 0.960 . S
C1922 C1920 1.381 . S
C1922 C1923 1.394 . S
C1922 H1930 0.930 . S
C1923 C1922 1.394 . S
C1923 C1924 1.383 . S
C1923 H1931 0.929 . S
C1924 C1923 1.383 . S
C1924 C1925 1.377 . S
C1925 H1909 0.930 . S
C1925 C1924 1.377 . S
C1925 C1926 1.379 . S
C1926 H1910 0.931 . S
C1926 C1920 1.383 . S
C1926 C1925 1.379 . S
H1927 C1921 0.959 . S
H1928 C1921 0.961 . S
H1929 C1921 0.960 . S
H1930 C1922 0.930 . S
H1931 C1923 0.929 . S
H1932 C1940 0.929 . S
H1933 C1942 0.930 . S
H1934 C1944 0.930 . S
H1935 C1947 0.929 . S
H1936 C1950 0.930 . S
H1937 C1952 0.960 . S
H1938 C1952 0.960 . S
H1939 C1952 0.960 . S
C1940 H1932 0.929 . S
C1940 C1941 1.377 . S
C1940 C1942 1.384 . S
C1941 C1940 1.377 . S
C1941 C1947 1.390 . S
C1942 H1933 0.930 . S
C1942 C1940 1.384 . S
C1942 C1943 1.372 . S
C1943 C1942 1.372 . S
C1943 C1944 1.400 . S
C1943 C1948 1.490 . S
C1944 H1934 0.930 . S
C1944 C1943 1.400 . S
C1944 C1947 1.386 . S
H1945 C1961 0.930 . S
H1946 C1962 0.931 . S
C1947 H1935 0.929 . S
C1947 C1941 1.390 . S
C1947 C1944 1.386 . S
C1948 C1943 1.490 . S
C1948 C1950 1.395 . S
C1948 C1951 1.403 . S
H1949 C1955 0.930 . S
C1950 H1936 0.930 . S
C1950 C1948 1.395 . S
C1950 C1953 1.403 . S
C1951 C1948 1.403 . S
C1951 C1952 1.524 . S
C1951 C1955 1.400 . S
C1952 H1937 0.960 . S
C1952 H1938 0.960 . S
C1952 H1939 0.960 . S
C1952 C1951 1.524 . S
C1953 C1950 1.403 . S
C1953 C1954 1.392 . S
C1953 C1957 1.495 . S
C1954 C1953 1.392 . S
C1954 C1955 1.385 . S
C1954 C1956 1.478 . S
C1955 H1949 0.930 . S
C1955 C1951 1.400 . S
C1955 C1954 1.385 . S
C1956 C1954 1.478 . S
C1956 C1958 1.381 . S
C1956 C1962 1.383 . S
C1957 C1953 1.495 . S
C1957 H1963 0.959 . S
C1957 H1964 0.961 . S
C1957 H1965 0.960 . S
C1958 C1956 1.381 . S
C1958 C1959 1.394 . S
C1958 H1966 0.930 . S
C1959 C1958 1.394 . S
C1959 C1960 1.383 . S
C1959 H1967 0.929 . S
C1960 C1959 1.383 . S
C1960 C1961 1.377 . S
C1961 H1945 0.930 . S
C1961 C1960 1.377 . S
C1961 C1962 1.379 . S
C1962 H1946 0.931 . S
C1962 C1956 1.383 . S
C1962 C1961 1.379 . S
H1963 C1957 0.959 . S
H1964 C1957 0.961 . S
H1965 C1957 0.960 . S
H1966 C1958 0.930 . S
H1967 C1959 0.929 . S
H1968 C1976 0.929 . S
H1969 C1978 0.930 . S
H1970 C1980 0.930 . S
H1971 C1983 0.929 . S
H1972 C1986 0.930 . S
H1973 C1988 0.960 . S
H1974 C1988 0.960 . S
H1975 C1988 0.960 . S
C1976 H1968 0.929 . S
C1976 C1977 1.377 . S
C1976 C1978 1.384 . S
C1977 C1976 1.377 . S
C1977 C1983 1.390 . S
C1978 H1969 0.930 . S
C1978 C1976 1.384 . S
C1978 C1979 1.372 . S
C1979 C1978 1.372 . S
C1979 C1980 1.400 . S
C1979 C1984 1.490 . S
C1980 H1970 0.930 . S
C1980 C1979 1.400 . S
C1980 C1983 1.386 . S
H1981 C1997 0.930 . S
H1982 C1998 0.931 . S
C1983 H1971 0.929 . S
C1983 C1977 1.390 . S
C1983 C1980 1.386 . S
C1984 C1979 1.490 . S
C1984 C1986 1.395 . S
C1984 C1987 1.403 . S
H1985 C1991 0.930 . S
C1986 H1972 0.930 . S
C1986 C1984 1.395 . S
C1986 C1989 1.403 . S
C1987 C1984 1.403 . S
C1987 C1988 1.524 . S
C1987 C1991 1.400 . S
C1988 H1973 0.960 . S
C1988 H1974 0.960 . S
C1988 H1975 0.960 . S
C1988 C1987 1.524 . S
C1989 C1986 1.403 . S
C1989 C1990 1.392 . S
C1989 C1993 1.495 . S
C1990 C1989 1.392 . S
C1990 C1991 1.385 . S
C1990 C1992 1.478 . S
C1991 H1985 0.930 . S
C1991 C1987 1.400 . S
C1991 C1990 1.385 . S
C1992 C1990 1.478 . S
C1992 C1994 1.381 . S
C1992 C1998 1.383 . S
C1993 C1989 1.495 . S
C1993 H1999 0.959 . S
C1993 H2000 0.961 . S
C1993 H2001 0.960 . S
C1994 C1992 1.381 . S
C1994 C1995 1.394 . S
C1994 H2002 0.930 . S
C1995 C1994 1.394 . S
C1995 C1996 1.383 . S
C1995 H2003 0.929 . S
C1996 C1995 1.383 . S
C1996 C1997 1.377 . S
C1997 H1981 0.930 . S
C1997 C1996 1.377 . S
C1997 C1998 1.379 . S
C1998 H1982 0.931 . S
C1998 C1992 1.383 . S
C1998 C1997 1.379 . S
H1999 C1993 0.959 . S
H2000 C1993 0.961 . S
H2001 C1993 0.960 . S
H2002 C1994 0.930 . S
H2003 C1995 0.929 . S
H2004 C2012 0.929 . S
H2005 C2014 0.930 . S
H2006 C2016 0.930 . S
H2007 C2019 0.929 . S
H2008 C2022 0.930 . S
H2009 C2024 0.960 . S
H2010 C2024 0.960 . S
H2011 C2024 0.960 . S
C2012 H2004 0.929 . S
C2012 C2013 1.377 . S
C2012 C2014 1.384 . S
C2013 C2012 1.377 . S
C2013 C2019 1.390 . S
C2014 H2005 0.930 . S
C2014 C2012 1.384 . S
C2014 C2015 1.372 . S
C2015 C2014 1.372 . S
C2015 C2016 1.400 . S
C2015 C2020 1.490 . S
C2016 H2006 0.930 . S
C2016 C2015 1.400 . S
C2016 C2019 1.386 . S
H2017 C2033 0.930 . S
H2018 C2034 0.931 . S
C2019 H2007 0.929 . S
C2019 C2013 1.390 . S
C2019 C2016 1.386 . S
C2020 C2015 1.490 . S
C2020 C2022 1.395 . S
C2020 C2023 1.403 . S
H2021 C2027 0.930 . S
C2022 H2008 0.930 . S
C2022 C2020 1.395 . S
C2022 C2025 1.403 . S
C2023 C2020 1.403 . S
C2023 C2024 1.524 . S
C2023 C2027 1.400 . S
C2024 H2009 0.960 . S
C2024 H2010 0.960 . S
C2024 H2011 0.960 . S
C2024 C2023 1.524 . S
C2025 C2022 1.403 . S
C2025 C2026 1.392 . S
C2025 C2029 1.495 . S
C2026 C2025 1.392 . S
C2026 C2027 1.385 . S
C2026 C2028 1.506 . S
C2027 H2021 0.930 . S
C2027 C2023 1.400 . S
C2027 C2026 1.385 . S
C2028 C2026 1.506 . S
C2028 C2030 1.366 1_554 S
C2028 C2034 1.369 1_554 S
C2029 C2025 1.495 . S
C2029 H2035 0.959 . S
C2029 H2036 0.961 . S
C2029 H2037 0.960 . S
C2030 C2028 1.366 1_556 S
C2030 C2031 1.394 . S
C2030 H2038 0.930 . S
C2031 C2030 1.394 . S
C2031 C2032 1.383 . S
C2031 H2039 0.929 . S
C2032 C2031 1.383 . S
C2032 C2033 1.377 . S
C2033 H2017 0.930 . S
C2033 C2032 1.377 . S
C2033 C2034 1.379 . S
C2034 H2018 0.931 . S
C2034 C2028 1.369 1_556 S
C2034 C2033 1.379 . S
H2035 C2029 0.959 . S
H2036 C2029 0.961 . S
H2037 C2029 0.960 . S
H2038 C2030 0.930 . S
H2039 C2031 0.929 . S
H2040 C2048 0.929 . S
H2041 C2050 0.930 . S
H2042 C2052 0.930 . S
H2043 C2055 0.929 . S
H2044 C2058 0.930 . S
H2045 C2060 0.960 . S
H2046 C2060 0.960 . S
H2047 C2060 0.960 . S
C2048 H2040 0.929 . S
C2048 C2049 1.377 . S
C2048 C2050 1.384 . S
C2049 C2048 1.377 . S
C2049 C2055 1.390 . S
C2050 H2041 0.930 . S
C2050 C2048 1.384 . S
C2050 C2051 1.372 . S
C2051 C2050 1.372 . S
C2051 C2052 1.400 . S
C2051 C2056 1.490 . S
C2052 H2042 0.930 . S
C2052 C2051 1.400 . S
C2052 C2055 1.386 . S
H2053 C2069 0.930 . S
H2054 C2070 0.931 . S
C2055 H2043 0.929 . S
C2055 C2049 1.390 . S
C2055 C2052 1.386 . S
C2056 C2051 1.490 . S
C2056 C2058 1.395 . S
C2056 C2059 1.403 . S
H2057 C2063 0.930 . S
C2058 H2044 0.930 . S
C2058 C2056 1.395 . S
C2058 C2061 1.403 . S
C2059 C2056 1.403 . S
C2059 C2060 1.524 . S
C2059 C2063 1.400 . S
C2060 H2045 0.960 . S
C2060 H2046 0.960 . S
C2060 H2047 0.960 . S
C2060 C2059 1.524 . S
C2061 C2058 1.403 . S
C2061 C2062 1.392 . S
C2061 C2065 1.495 . S
C2062 C2061 1.392 . S
C2062 C2063 1.385 . S
C2062 C2064 1.478 . S
C2063 H2057 0.930 . S
C2063 C2059 1.400 . S
C2063 C2062 1.385 . S
C2064 C2062 1.478 . S
C2064 C2066 1.381 . S
C2064 C2070 1.383 . S
C2065 C2061 1.495 . S
C2065 H2071 0.959 . S
C2065 H2072 0.961 . S
C2065 H2073 0.960 . S
C2066 C2064 1.381 . S
C2066 C2067 1.394 . S
C2066 H2074 0.930 . S
C2067 C2066 1.394 . S
C2067 C2068 1.383 . S
C2067 H2075 0.929 . S
C2068 C2067 1.383 . S
C2068 C2069 1.377 . S
C2069 H2053 0.930 . S
C2069 C2068 1.377 . S
C2069 C2070 1.379 . S
C2070 H2054 0.931 . S
C2070 C2064 1.383 . S
C2070 C2069 1.379 . S
H2071 C2065 0.959 . S
H2072 C2065 0.961 . S
H2073 C2065 0.960 . S
H2074 C2066 0.930 . S
H2075 C2067 0.929 . S
C1240 C1153 1.695 . S
C1221 C1 1.211 . S
C1257 C169 1.603 . S
C1276 C713 1.858 . S
C1293 C283 1.582 . S
C1312 C801 1.801 . S
C1329 C397 1.435 . S
C1348 C880 1.670 . S
C1384 C977 1.472 . S
C1365 C457 1.071 . S
C1401 C571 1.073 . S
C1420 C1056 1.534 . S
C1437 C115 1.197 . S
C1456 C821 1.671 . S
C1473 C229 1.078 . S
C1492 C917 1.515 . S
C1509 C343 1.078 . S
C1528 C997 1.498 . S
C1564 C1093 1.640 . S
C1545 C511 1.437 . S
C1600 C1173 1.796 . S
C1581 C625 1.576 . S
C1636 C733 1.853 . S
C1617 C55 1.603 . S
C1653 C29 1.102 . S
C1672 C829 1.359 . S
C1689 C125 0.931 . S
C1708 C909 1.478 . S
C1744 C1005 1.384 . S
C1725 C239 0.880 . S
C1761 C353 0.869 . S
C1780 C1085 1.384 . S
C1816 C1181 1.267 . S
C1797 C485 1.004 . S
C1852 C741 1.336 . S
C1833 C599 1.085 . S
C1888 C1144 1.361 . S
C1869 C143 1.097 . S
C1905 C257 1.082 . S
C1924 C704 1.335 . S
C1960 C792 1.275 . S
C1941 C371 1.027 . S
C1977 C467 0.870 . S
C1996 C889 1.376 . S
C2013 C581 0.864 . S
C2032 C968 1.392 . S
C2049 C11 0.909 . S
C2068 C1065 1.472 . S
