# Generated by pormake.
# Topology anh, (6,3)-cn, num edge types: 1
# Building blocks:
#     Node 0, Type 0, BuildingBlock: VOLQOD_clean_sbu_1, # of connection points: 6
#     Node 1, Type 0, BuildingBlock: VOLQOD_clean_sbu_1, # of connection points: 6
#     Node 2, Type 0, BuildingBlock: VOLQOD_clean_sbu_1, # of connection points: 6
#     Node 3, Type 1, BuildingBlock: KAKCAD_clean_linker_0, # of connection points: 3
#     Node 4, Type 1, BuildingBlock: KAKCAD_clean_linker_0, # of connection points: 3
#     Node 5, Type 1, BuildingBlock: KAKCAD_clean_linker_0, # of connection points: 3
#     Node 6, Type 1, BuildingBlock: KAKCAD_clean_linker_0, # of connection points: 3
#     Node 7, Type 1, BuildingBlock: KAKCAD_clean_linker_0, # of connection points: 3
#     Node 8, Type 1, BuildingBlock: KAKCAD_clean_linker_0, # of connection points: 3
#     Edge 9, Type (0, 1), BuildingBlock: ZUJKAS_clean_linker_0, # of connection points: 2
#     Edge 10, Type (0, 1), BuildingBlock: ZUJKAS_clean_linker_0, # of connection points: 2
#     Edge 11, Type (0, 1), BuildingBlock: ZUJKAS_clean_linker_0, # of connection points: 2
#     Edge 12, Type (0, 1), BuildingBlock: ZUJKAS_clean_linker_0, # of connection points: 2
#     Edge 13, Type (0, 1), BuildingBlock: ZUJKAS_clean_linker_0, # of connection points: 2
#     Edge 14, Type (0, 1), BuildingBlock: ZUJKAS_clean_linker_0, # of connection points: 2
#     Edge 15, Type (0, 1), BuildingBlock: ZUJKAS_clean_linker_0, # of connection points: 2
#     Edge 16, Type (0, 1), BuildingBlock: ZUJKAS_clean_linker_0, # of connection points: 2
#     Edge 17, Type (0, 1), BuildingBlock: ZUJKAS_clean_linker_0, # of connection points: 2
#     Edge 18, Type (0, 1), BuildingBlock: ZUJKAS_clean_linker_0, # of connection points: 2
#     Edge 19, Type (0, 1), BuildingBlock: ZUJKAS_clean_linker_0, # of connection points: 2
#     Edge 20, Type (0, 1), BuildingBlock: ZUJKAS_clean_linker_0, # of connection points: 2
#     Edge 21, Type (0, 1), BuildingBlock: ZUJKAS_clean_linker_0, # of connection points: 2
#     Edge 22, Type (0, 1), BuildingBlock: ZUJKAS_clean_linker_0, # of connection points: 2
#     Edge 23, Type (0, 1), BuildingBlock: ZUJKAS_clean_linker_0, # of connection points: 2
#     Edge 24, Type (0, 1), BuildingBlock: ZUJKAS_clean_linker_0, # of connection points: 2
#     Edge 25, Type (0, 1), BuildingBlock: ZUJKAS_clean_linker_0, # of connection points: 2
#     Edge 26, Type (0, 1), BuildingBlock: ZUJKAS_clean_linker_0, # of connection points: 2
# Relax obj value: 0.167
# Max RMSD: 0.230
# Mean RMSD: 0.114
data_MOF--net-anh--node1-VOLQOD_clean_sbu_1--node2-KAKCAD_clean_linker_0--edge1-ZUJKAS_clean_linker_0
_symmetry_space_group_name_H-M    P1
_symmetry_Int_Tables_number       1
_symmetry_cell_setting            triclinic
loop_
_symmetry_equiv_pos_as_xyz
'x, y, z'
_cell_length_a     42.948268
_cell_length_b     42.915603
_cell_length_c     92.363224
_cell_angle_alpha  90.185445
_cell_angle_beta   89.90182
_cell_angle_gamma 120.20811
loop_
_atom_site_label
_atom_site_type_symbol
_atom_site_fract_x
_atom_site_fract_y
_atom_site_fract_z
_atom_type_partial_charge
O0 O -0.0031 0.54647 0.19665 0.0
Zn1 Zn -0.004 0.55835 0.17567 0.0
O2 O 0.00433 0.52636 0.16307 0.0
Zn3 Zn 0.96344 0.49925 0.15023 0.0
Zn4 Zn 0.01108 0.49268 0.175 0.0
Zn5 Zn 0.0468 0.55481 0.15114 0.0
O6 O 0.97743 0.50661 0.12917 0.0
O7 O 0.03477 0.5499 0.12998 0.0
O8 O 0.94776 0.55404 0.17155 0.0
O9 O 0.92751 0.51508 0.15321 0.0
O10 O 0.93808 0.44623 0.15452 0.0
O11 O 0.97175 0.4415 0.17159 0.0
O12 O 0.05784 0.49527 0.17042 0.0
O13 O 0.03545 0.61013 0.17325 0.0
O14 O 0.08275 0.53833 0.15383 0.0
O15 O 0.0704 0.60721 0.15615 0.0
C16 C 0.00366 0.52447 0.20319 0.0
C17 C 0.00657 0.52883 0.12283 0.0
C18 C 0.94457 0.42722 0.1632 0.0
C19 C 0.92399 0.536 0.162 0.0
C20 C 0.0835 0.51451 0.16178 0.0
C21 C 0.06301 0.62524 0.16505 0.0
O22 O 0.01035 0.50286 0.19622 0.0
O23 O 0.47304 0.00616 0.46533 0.0
Zn24 Zn 0.46179 0.00463 0.48659 0.0
O25 O 0.49696 8e-05 0.49848 0.0
Zn26 Zn 0.52132 0.04164 0.51137 0.0
Zn27 Zn 0.53248 -0.00206 0.48595 0.0
Zn28 Zn 0.47246 0.95615 0.51 0.0
O29 O 0.51573 0.02646 0.53219 0.0
O30 O 0.48057 0.96698 0.53134 0.0
O31 O 0.46055 0.04951 0.4915 0.0
O32 O 0.50039 0.07394 0.50931 0.0
O33 O 0.57434 0.07098 0.507 0.0
O34 O 0.58215 0.03897 0.48996 0.0
O35 O 0.53334 0.95206 0.48863 0.0
O36 O 0.41178 0.96329 0.49004 0.0
O37 O 0.49067 0.9226 0.50504 0.0
O38 O 0.41912 0.92973 0.5064 0.0
C39 C 0.49792 0.00461 0.45842 0.0
C40 C 0.49857 -0.00392 0.53852 0.0
C41 C 0.59472 0.06612 0.4984 0.0
C42 C 0.47691 0.07407 0.50095 0.0
C43 C 0.51489 0.9245 0.49651 0.0
C44 C 0.39891 0.9358 0.49824 0.0
O45 O 0.52211 0.00132 0.46502 0.0
O46 O 0.48248 0.48461 0.799 0.0
Zn47 Zn 0.47241 0.47233 0.82018 0.0
O48 O 0.51319 0.50566 0.83225 0.0
Zn49 Zn 0.49716 0.52748 0.84686 0.0
Zn50 Zn 0.54975 0.54337 0.82008 0.0
Zn51 Zn 0.53372 0.47972 0.84186 0.0
O52 O 0.50622 0.51659 0.86706 0.0
O53 O 0.53008 0.48181 0.86351 0.0
O54 O 0.42721 0.4726 0.8256 0.0
O55 O 0.44398 0.50824 0.84495 0.0
O56 O 0.52129 0.5813 0.84434 0.0
O57 O 0.55446 0.5913 0.82457 0.0
O58 O 0.59814 0.54771 0.82281 0.0
O59 O 0.46237 0.42159 0.82254 0.0
O60 O 0.58623 0.50142 0.83704 0.0
O61 O 0.50742 0.42734 0.83624 0.0
C62 C 0.50958 0.50925 0.79227 0.0
C63 C 0.519 0.49764 0.87198 0.0
C64 C 0.54244 0.60256 0.83469 0.0
C65 C 0.41991 0.48751 0.83596 0.0
C66 C 0.60832 0.52865 0.82962 0.0
C67 C 0.47894 0.40793 0.82891 0.0
O68 O 0.53711 0.53308 0.79906 0.0
C69 C 0.53408 0.06025 0.29554 0.0
C70 C 0.51518 0.02776 0.30326 0.0
C71 C 0.53383 0.06018 0.2804 0.0
C72 C 0.51456 0.02762 0.2727 0.0
C73 C 0.49568 0.99519 0.28044 0.0
C74 C 0.49594 0.99526 0.29553 0.0
C75 C 0.51419 0.0271 0.25663 0.0
C76 C 0.54588 0.0483 0.24873 0.0
C77 C 0.54586 0.04594 0.23357 0.0
C78 C 0.51391 0.02216 0.22628 0.0
C79 C 0.48172 0.00141 0.23399 0.0
C80 C 0.48215 0.00436 0.24916 0.0
C81 C 0.44773 0.97631 0.22632 0.0
C82 C 0.43931 0.9855 0.21286 0.0
C83 C 0.42331 0.94283 0.23247 0.0
C84 C 0.39121 0.91927 0.22544 0.0
C85 C 0.38292 0.92817 0.21191 0.0
C86 C 0.5792 0.06871 0.22533 0.0
C87 C 0.59808 0.10617 0.22745 0.0
C88 C 0.59205 0.05334 0.21521 0.0
C89 C 0.62351 0.0752 0.20736 0.0
C90 C 0.642 0.11273 0.20933 0.0
C91 C 0.62905 0.12803 0.21942 0.0
C92 C 0.40735 0.96162 0.2057 0.0
H93 H 0.54939 0.0857 0.3012 0.0
H94 H 0.54843 0.08562 0.27474 0.0
H95 H 0.48096 0.9696 0.27483 0.0
H96 H 0.48073 0.96981 0.30115 0.0
H97 H 0.57087 0.06589 0.25435 0.0
H98 H 0.45735 0.98919 0.25522 0.0
H99 H 0.51423 0.02002 0.2146 0.0
H100 H 0.45725 0.01126 0.20788 0.0
H101 H 0.42906 0.93453 0.24271 0.0
H102 H 0.37281 0.89407 0.23071 0.0
H103 H 0.58853 0.11858 0.23515 0.0
H104 H 0.57793 0.02445 0.21347 0.0
H105 H 0.40205 0.96925 0.19523 0.0
H106 H 0.64312 0.15692 0.2212 0.0
H107 H 0.63308 0.06291 0.19962 0.0
C108 C 0.5053 0.5318 0.62907 0.0
C109 C 0.5192 0.51334 0.6368 0.0
C110 C 0.50541 0.53178 0.61396 0.0
C111 C 0.51938 0.51325 0.60625 0.0
C112 C 0.53348 0.49496 0.61397 0.0
C113 C 0.53342 0.49503 0.62908 0.0
C114 C 0.51857 0.51246 0.5902 0.0
C115 C 0.52768 0.54387 0.58232 0.0
C116 C 0.52592 0.54301 0.56713 0.0
C117 C 0.51483 0.51037 0.55985 0.0
C118 C 0.50572 0.47885 0.56755 0.0
C119 C 0.50784 0.48007 0.58271 0.0
C120 C 0.49409 0.44473 0.55966 0.0
C121 C 0.46864 0.43395 0.54843 0.0
C122 C 0.50928 0.42334 0.563 0.0
C123 C 0.49987 0.3922 0.55502 0.0
C124 C 0.47491 0.38175 0.54363 0.0
C125 C 0.53414 0.57568 0.55881 0.0
C126 C 0.52026 0.59758 0.56329 0.0
C127 C 0.5541 0.58403 0.54589 0.0
C128 C 0.55901 0.61297 0.53736 0.0
C129 C 0.54394 0.634 0.54159 0.0
C130 C 0.52513 0.62644 0.55477 0.0
C131 C 0.45899 0.4026 0.54052 0.0
H132 H 0.49364 0.54569 0.63469 0.0
H133 H 0.49385 0.54565 0.60831 0.0
H134 H 0.54485 0.48085 0.60831 0.0
H135 H 0.54484 0.48103 0.63473 0.0
H136 H 0.53659 0.56911 0.588 0.0
H137 H 0.50004 0.45552 0.58869 0.0
H138 H 0.51301 0.5094 0.54814 0.0
H139 H 0.45629 0.44984 0.54575 0.0
H140 H 0.52908 0.43116 0.57156 0.0
H141 H 0.51216 0.37628 0.55775 0.0
H142 H 0.50459 0.59168 0.57315 0.0
H143 H 0.56549 0.56784 0.54226 0.0
H144 H 0.43972 0.39512 0.53178 0.0
H145 H 0.51373 0.6426 0.55842 0.0
H146 H 0.57358 0.61815 0.52725 0.0
C147 C 0.05686 0.55488 0.96015 0.0
C148 C 0.02482 0.54627 0.96741 0.0
C149 C 0.05852 0.55693 0.94506 0.0
C150 C 0.02793 0.54976 0.9369 0.0
C151 C -0.00424 0.54077 0.94427 0.0
C152 C -0.00566 0.53938 0.95937 0.0
C153 C 0.02943 0.55139 0.9208 0.0
C154 C 0.0501 0.53994 0.91306 0.0
C155 C 0.05117 0.54092 0.89787 0.0
C156 C 0.03083 0.55288 0.89034 0.0
C157 C 0.00993 0.56432 0.89785 0.0
C158 C 0.00977 0.56395 0.91306 0.0
C159 C 0.98712 0.57526 0.88983 0.0
C160 C 1e-05 0.59672 0.87733 0.0
C161 C 0.9516 0.56301 0.89437 0.0
C162 C 0.92925 0.57148 0.88647 0.0
C163 C 0.94186 0.59242 0.87384 0.0
C164 C 0.07392 0.52983 0.88986 0.0
C165 C 0.10963 0.54263 0.89423 0.0
C166 C 0.06043 0.50704 0.87772 0.0
C167 C 0.08237 0.49734 0.87004 0.0
C168 C 0.11825 0.51062 0.8743 0.0
C169 C 0.1316 0.5332 0.8865 0.0
C170 C 0.97757 0.60519 0.8694 0.0
H171 H 0.08081 0.56063 0.96618 0.0
H172 H 0.08393 0.56457 0.93981 0.0
H173 H 0.97144 0.53429 0.93839 0.0
H174 H 0.96922 0.53231 0.96476 0.0
H175 H 0.06478 0.52938 0.9188 0.0
H176 H -0.00546 0.57386 0.91886 0.0
H177 H 0.03118 0.55312 0.87861 0.0
H178 H 0.02743 0.60691 0.87368 0.0
H179 H 0.94066 0.5459 0.90379 0.0
H180 H 0.90164 0.56055 0.89001 0.0
H181 H 0.12077 0.56043 0.90349 0.0
H182 H 0.03287 0.49657 0.8742 0.0
H183 H 0.98811 0.62163 0.85979 0.0
H184 H 0.15903 0.54343 0.89014 0.0
H185 H 0.07147 0.47995 0.86065 0.0
C186 C 0.96785 0.49739 0.36588 0.0
C187 C 0.00089 0.51791 0.35867 0.0
C188 C 0.9665 0.4957 0.38098 0.0
C189 C -0.00182 0.51436 0.38922 0.0
C190 C 0.03126 0.53475 0.38202 0.0
C191 C 0.0326 0.53653 0.36691 0.0
C192 C -0.00343 0.51275 0.40528 0.0
C193 C 0.97355 0.48015 0.41235 0.0
C194 C 0.97115 0.47855 0.42753 0.0
C195 C 0.99219 0.50997 0.43565 0.0
C196 C 0.01566 0.54258 0.42876 0.0
C197 C 0.01773 0.54383 0.4136 0.0
C198 C 0.03857 0.57521 0.43745 0.0
C199 C 0.02374 0.58577 0.44869 0.0
C200 C 0.07567 0.59559 0.43467 0.0
C201 C 0.09769 0.62576 0.44311 0.0
C202 C 0.08295 0.63632 0.45438 0.0
C203 C 0.94642 0.44416 0.43489 0.0
C204 C 0.91151 0.4217 0.42948 0.0
C205 C 0.95732 0.43374 0.44743 0.0
C206 C 0.93364 0.40164 0.45449 0.0
C207 C 0.8986 0.3794 0.44916 0.0
C208 C 0.88789 0.38966 0.43653 0.0
C209 C 0.04574 0.61631 0.45703 0.0
H210 H 0.94297 0.48234 0.35986 0.0
H211 H 0.94053 0.48008 0.38619 0.0
H212 H 0.0562 0.54914 0.38805 0.0
H213 H 0.05845 0.55287 0.3617 0.0
H214 H 0.95795 0.45578 0.40604 0.0
H215 H 0.03525 0.56929 0.40829 0.0
H216 H 0.99045 0.50908 0.44737 0.0
H217 H -0.00488 0.57053 0.45097 0.0
H218 H 0.08774 0.58784 0.42612 0.0
H219 H 0.12626 0.64104 0.44075 0.0
H220 H 0.90222 0.42914 0.41991 0.0
H221 H 0.98423 0.45031 0.45175 0.0
H222 H 0.03383 0.62397 0.46567 0.0
H223 H 0.86123 0.37282 0.43203 0.0
H224 H 0.94258 0.39453 0.46425 0.0
C225 C 0.47788 0.95598 0.70142 0.0
C226 C 0.49347 0.98901 0.69401 0.0
C227 C 0.47477 0.955 0.71649 0.0
C228 C 0.48721 0.98705 0.72447 0.0
C229 C 0.50332 0.02011 0.71708 0.0
C230 C 0.50639 0.02108 0.70201 0.0
C231 C 0.48275 0.98594 0.74043 0.0
C232 C 0.48957 0.96291 0.7489 0.0
C233 C 0.485 0.96146 0.76402 0.0
C234 C 0.47339 0.98344 0.7706 0.0
C235 C 0.46727 0.00714 0.76231 0.0
C236 C 0.47175 0.00808 0.74725 0.0
C237 C 0.45806 0.03232 0.76947 0.0
C238 C 0.43116 0.02021 0.78017 0.0
C239 C 0.4773 0.0691 0.76596 0.0
C240 C 0.47032 0.09347 0.77321 0.0
C241 C 0.44379 0.08151 0.78403 0.0
C242 C 0.49301 0.9376 0.77296 0.0
C243 C 0.4844 0.90327 0.76789 0.0
C244 C 0.50949 0.949 0.78661 0.0
C245 C 0.51681 0.92648 0.79503 0.0
C246 C 0.50825 0.89217 0.78995 0.0
C247 C 0.49216 0.88096 0.77623 0.0
C248 C 0.42388 0.04461 0.78732 0.0
H249 H 0.46727 0.93078 0.69554 0.0
H250 H 0.46184 0.92908 0.72186 0.0
H251 H 0.51375 0.04531 0.72294 0.0
H252 H 0.51907 0.04699 0.69663 0.0
H253 H 0.49946 0.94687 0.74373 0.0
H254 H 0.46617 0.02581 0.74082 0.0
H255 H 0.46967 0.98262 0.78222 0.0
H256 H 0.41584 0.99191 0.783 0.0
H257 H 0.49836 0.07917 0.75785 0.0
H258 H 0.48576 0.12176 0.77036 0.0
H259 H 0.47135 0.89341 0.75751 0.0
H260 H 0.51709 0.97551 0.79077 0.0
H261 H 0.40332 0.03481 0.79564 0.0
H262 H 0.48576 0.855 0.77182 0.0
H263 H 0.52888 0.9359 0.8056 0.0
C264 C 0.49967 0.42307 0.03381 0.0
C265 C 0.48524 0.43988 0.02531 0.0
C266 C 0.49449 0.42031 0.04881 0.0
C267 C 0.47484 0.43438 0.05559 0.0
C268 C 0.46055 0.45125 0.04706 0.0
C269 C 0.46563 0.45392 0.03211 0.0
C270 C 0.46999 0.43261 0.07155 0.0
C271 C 0.4989 0.4402 0.08083 0.0
C272 C 0.49531 0.44233 0.09583 0.0
C273 C 0.46261 0.43619 0.10163 0.0
C274 C 0.43325 0.4278 0.09258 0.0
C275 C 0.43706 0.42581 0.07756 0.0
C276 C 0.39975 0.42407 0.09879 0.0
C277 C 0.38553 0.40519 0.11178 0.0
C278 C 0.3833 0.44167 0.0923 0.0
C279 C 0.35406 0.44155 0.09894 0.0
C280 C 0.34063 0.42379 0.1122 0.0
C281 C 0.52633 0.45326 0.10548 0.0
C282 C 0.5416 0.43129 0.10705 0.0
C283 C 0.54032 0.48554 0.11338 0.0
C284 C 0.56963 0.496 0.12263 0.0
C285 C 0.58469 0.47386 0.12433 0.0
C286 C 0.5704 0.44136 0.11654 0.0
C287 C 0.35624 0.40505 0.11843 0.0
H288 H 0.51464 0.41173 0.02885 0.0
H289 H 0.5056 0.40691 0.05509 0.0
H290 H 0.44603 0.46316 0.05196 0.0
H291 H 0.4548 0.46767 0.02589 0.0
H292 H 0.52475 0.44632 0.07639 0.0
H293 H 0.41438 0.41927 0.07053 0.0
H294 H 0.46043 0.43894 0.11321 0.0
H295 H 0.39743 0.39099 0.11692 0.0
H296 H 0.394 0.45692 0.08241 0.0
H297 H 0.343 0.45671 0.09398 0.0
H298 H 0.53099 0.40625 0.10105 0.0
H299 H 0.52879 0.5028 0.11227 0.0
H300 H 0.34612 0.39071 0.12854 0.0
H301 H 0.58199 0.42414 0.11761 0.0
H302 H 0.58041 0.52122 0.12852 0.0
H303 H 0.13873 0.54401 0.14221 0.0
H304 H 0.18343 0.52601 0.13757 0.0
H305 H 0.1411 0.45056 0.17296 0.0
H306 H 0.09578 0.46789 0.17758 0.0
H307 H 0.23668 0.52513 0.15481 0.0
H308 H 0.13124 0.38725 0.13782 0.0
H309 H 0.122 0.42357 0.14019 0.0
H310 H 0.12619 0.40078 0.1557 0.0
C311 C 0.1391 0.52385 0.14912 0.0
C312 C 0.11336 0.50703 0.16014 0.0
C313 C 0.1647 0.51364 0.14646 0.0
C314 C 0.16503 0.48651 0.15475 0.0
C315 C 0.14072 0.47103 0.16626 0.0
H316 H 0.33706 0.4359 0.14107 0.0
H317 H 0.29331 0.44761 0.15324 0.0
C318 C 0.11497 0.4811 0.1689 0.0
C319 C 0.18973 0.47336 0.15079 0.0
H320 H 0.19145 0.40065 0.13668 0.0
C321 C 0.22691 0.49783 0.15099 0.0
C322 C 0.17666 0.4378 0.14568 0.0
C323 C 0.13686 0.41082 0.14469 0.0
C324 C 0.25148 0.48794 0.14587 0.0
C325 C 0.23838 0.45245 0.14067 0.0
C326 C 0.20127 0.42772 0.1408 0.0
C327 C 0.26252 0.4415 0.13386 0.0
C328 C 0.29103 0.516 0.14545 0.0
C329 C 0.25859 0.4326 0.11909 0.0
C330 C 0.28317 0.42542 0.11216 0.0
C331 C 0.31208 0.42699 0.11989 0.0
C332 C 0.31494 0.43426 0.13484 0.0
C333 C 0.29025 0.44136 0.14178 0.0
H334 H 0.29574 0.54369 0.14714 0.0
H335 H 0.30529 0.51036 0.15415 0.0
H336 H 0.30313 0.51514 0.13493 0.0
H337 H 0.23715 0.43234 0.11283 0.0
H338 H 0.27995 0.41932 0.10068 0.0
H339 H 0.64788 0.06108 0.4842 0.0
H340 H 0.70914 0.10976 0.47932 0.0
H341 H 0.68955 0.18274 0.5047 0.0
H342 H 0.62861 0.13411 0.50992 0.0
H343 H 0.72075 0.16714 0.46414 0.0
H344 H 0.79147 0.21375 0.51655 0.0
H345 H 0.75076 0.17059 0.51445 0.0
H346 H 0.74841 0.21099 0.51703 0.0
C347 C 0.65687 0.08729 0.48902 0.0
C348 C 0.63325 0.09385 0.49732 0.0
C349 C 0.69194 0.11502 0.48627 0.0
C350 C 0.70402 0.14978 0.49175 0.0
C351 C 0.68113 0.15594 0.50065 0.0
H352 H 0.82741 0.35401 0.45449 0.0
H353 H 0.78401 0.29648 0.46539 0.0
C354 C 0.64613 0.12815 0.50351 0.0
C355 C 0.73799 0.1806 0.48634 0.0
H356 H 0.81382 0.25762 0.49702 0.0
C357 C 0.74148 0.18647 0.47133 0.0
C358 C 0.76514 0.20572 0.4957 0.0
C359 C 0.76395 0.19974 0.51182 0.0
C360 C 0.77023 0.21782 0.46551 0.0
C361 C 0.79585 0.24411 0.47495 0.0
C362 C 0.79374 0.23744 0.48987 0.0
C363 C 0.82302 0.27978 0.46946 0.0
C364 C 0.77237 0.22326 0.44932 0.0
C365 C 0.85936 0.2895 0.46848 0.0
C366 C 0.88425 0.32228 0.46212 0.0
C367 C 0.87301 0.34568 0.45673 0.0
C368 C 0.83673 0.33622 0.45825 0.0
C369 C 0.81198 0.30354 0.46456 0.0
H370 H 0.75576 0.19746 0.44342 0.0
H371 H 0.76229 0.24176 0.44653 0.0
H372 H 0.80068 0.2357 0.44552 0.0
H373 H 0.86821 0.27133 0.47224 0.0
H374 H 0.91199 0.32877 0.46103 0.0
H375 H 0.56595 0.64844 0.81177 0.0
H376 H 0.57031 0.70696 0.81011 0.0
H377 H 0.54239 0.70143 0.85532 0.0
H378 H 0.53614 0.6416 0.85686 0.0
H379 H 0.50254 0.71781 0.84093 0.0
H380 H 0.63969 0.80724 0.8209 0.0
H381 H 0.61876 0.76887 0.80915 0.0
H382 H 0.62608 0.76303 0.82797 0.0
C383 C 0.5615 0.65996 0.82146 0.0
C384 C 0.55055 0.64033 0.83443 0.0
C385 C 0.56439 0.69372 0.82053 0.0
C386 C 0.55741 0.7091 0.83266 0.0
C387 C 0.5481 0.69024 0.84583 0.0
H388 H 0.56669 0.91083 0.80754 0.0
H389 H 0.57977 0.87066 0.82163 0.0
C390 C 0.54452 0.65606 0.8467 0.0
C391 C 0.55505 0.74221 0.83091 0.0
H392 H 0.59404 0.82215 0.81279 0.0
C393 C 0.52303 0.74105 0.83511 0.0
C394 C 0.58203 0.77316 0.82371 0.0
C395 C 0.61869 0.77824 0.82036 0.0
C396 C 0.51599 0.76841 0.83117 0.0
C397 C 0.54098 0.79692 0.82231 0.0
C398 C 0.57436 0.79979 0.81925 0.0
C399 C 0.53164 0.82179 0.81495 0.0
C400 C 0.48144 0.76592 0.83631 0.0
C401 C 0.50029 0.80774 0.80649 0.0
C402 C 0.49233 0.83061 0.79871 0.0
C403 C 0.51604 0.8681 0.79886 0.0
C404 C 0.54751 0.88217 0.80734 0.0
C405 C 0.55519 0.85922 0.81532 0.0
H406 H 0.47356 0.75282 0.8471 0.0
H407 H 0.48389 0.79289 0.83706 0.0
H408 H 0.45942 0.74897 0.82865 0.0
H409 H 0.48224 0.77891 0.80564 0.0
H410 H 0.46761 0.81879 0.79249 0.0
H411 H 0.89193 0.55336 0.18384 0.0
H412 H 0.83142 0.54623 0.18341 0.0
H413 H 0.82053 0.51516 0.13843 0.0
H414 H 0.88008 0.52134 0.13884 0.0
H415 H 0.79734 0.57514 0.16638 0.0
H416 H 0.7358 0.42838 0.15794 0.0
H417 H 0.78202 0.45649 0.1636 0.0
H418 H 0.77014 0.45307 0.14473 0.0
C419 C 0.87673 0.54549 0.17383 0.0
C420 C 0.89037 0.53731 0.16143 0.0
C421 C 0.84225 0.54136 0.17362 0.0
C422 C 0.82128 0.52923 0.161 0.0
C423 C 0.83596 0.52357 0.14838 0.0
H424 H 0.64947 0.53505 0.12208 0.0
H425 H 0.70467 0.55003 0.13514 0.0
C426 C 0.87003 0.52724 0.14862 0.0
C427 C 0.78347 0.52084 0.16087 0.0
H428 H 0.70028 0.45458 0.15034 0.0
C429 C 0.77584 0.54863 0.16316 0.0
C430 C 0.75528 0.48595 0.15719 0.0
C431 C 0.76114 0.45419 0.15589 0.0
C432 C 0.74115 0.54308 0.16065 0.0
C433 C 0.71398 0.50923 0.1553 0.0
C434 C 0.72108 0.48075 0.15421 0.0
C435 C 0.67948 0.50343 0.14926 0.0
C436 C 0.73429 0.57372 0.16352 0.0
C437 C 0.6469 0.47202 0.15266 0.0
C438 C 0.61565 0.46286 0.14483 0.0
C439 C 0.61638 0.4853 0.13368 0.0
C440 C 0.64834 0.51761 0.13077 0.0
C441 C 0.67977 0.52636 0.13836 0.0
H442 H 0.75082 0.59044 0.17277 0.0
H443 H 0.7423 0.59145 0.15387 0.0
H444 H 0.70547 0.56384 0.16592 0.0
H445 H 0.64601 0.45381 0.16096 0.0
H446 H 0.59113 0.43785 0.14724 0.0
H447 H 0.34541 0.94624 0.48771 0.0
H448 H 0.2815 0.9013 0.48523 0.0
H449 H 0.30079 0.82135 0.50479 0.0
H450 H 0.3642 0.86631 0.5078 0.0
H451 H 0.25671 0.84486 0.46882 0.0
H452 H 0.20823 0.79631 0.52401 0.0
H453 H 0.25034 0.83733 0.52069 0.0
H454 H 0.24818 0.79423 0.52055 0.0
C455 C 0.33585 0.91923 0.49173 0.0
C456 C 0.35984 0.90973 0.49789 0.0
C457 C 0.29931 0.89364 0.49037 0.0
C458 C 0.28616 0.85808 0.49505 0.0
C459 C 0.30996 0.84885 0.50153 0.0
H460 H 0.14572 0.65159 0.46739 0.0
H461 H 0.18903 0.7079 0.47934 0.0
C462 C 0.34637 0.87452 0.5031 0.0
C463 C 0.24908 0.82947 0.49132 0.0
H464 H 0.17703 0.75265 0.50444 0.0
C465 C 0.23879 0.82534 0.4767 0.0
C466 C 0.22557 0.80404 0.50159 0.0
C467 C 0.23356 0.8085 0.5176 0.0
C468 C 0.20708 0.79501 0.47191 0.0
C469 C 0.18523 0.76821 0.48201 0.0
C470 C 0.19412 0.77331 0.49675 0.0
C471 C 0.15627 0.73278 0.47702 0.0
C472 C 0.1983 0.79049 0.45596 0.0
C473 C 0.12331 0.7281 0.47213 0.0
C474 C 0.09849 0.69592 0.46531 0.0
C475 C 0.10668 0.66837 0.4632 0.0
C476 C 0.13903 0.67263 0.46874 0.0
C477 C 0.16358 0.70456 0.47565 0.0
H478 H 0.21856 0.81362 0.44947 0.0
H479 H 0.1969 0.76543 0.45189 0.0
H480 H 0.17149 0.78781 0.45421 0.0
H481 H 0.11746 0.74981 0.47308 0.0
H482 H 0.07375 0.69324 0.46108 0.0
H483 H 0.41395 0.35616 0.81803 0.0
H484 H 0.39319 0.29219 0.81434 0.0
H485 H 0.49274 0.30779 0.83229 0.0
H486 H 0.51321 0.3713 0.83641 0.0
H487 H 0.42313 0.26604 0.79696 0.0
H488 H 0.42229 0.216 0.85195 0.0
H489 H 0.42477 0.25871 0.84879 0.0
H490 H 0.46494 0.25532 0.84828 0.0
C491 C 0.4312 0.34584 0.82139 0.0
C492 C 0.46529 0.36884 0.82748 0.0
C493 C 0.41922 0.30926 0.81932 0.0
C494 C 0.44109 0.29504 0.82329 0.0
C495 C 0.47488 0.31785 0.82957 0.0
H496 H 0.49426 0.14408 0.79646 0.0
H497 H 0.48532 0.19085 0.80752 0.0
C498 C 0.48673 0.35431 0.83177 0.0
C499 C 0.43074 0.25757 0.81936 0.0
H500 H 0.43073 0.18303 0.83215 0.0
C501 C 0.42375 0.24746 0.80472 0.0
C502 C 0.43134 0.23324 0.82951 0.0
C503 C 0.43585 0.24128 0.84553 0.0
C504 C 0.42013 0.21489 0.79981 0.0
C505 C 0.42359 0.19199 0.8098 0.0
C506 C 0.4283 0.2009 0.82455 0.0
C507 C 0.42747 0.16155 0.80474 0.0
C508 C 0.41503 0.20616 0.78384 0.0
C509 C 0.39769 0.12944 0.79981 0.0
C510 C 0.40272 0.10261 0.7935 0.0
C511 C 0.43763 0.10791 0.79194 0.0
C512 C 0.46716 0.13959 0.79738 0.0
C513 C 0.46208 0.16614 0.80377 0.0
H514 H 0.41389 0.22743 0.77743 0.0
H515 H 0.43748 0.20285 0.7797 0.0
H516 H 0.38961 0.18025 0.7821 0.0
H517 H 0.37081 0.12563 0.80048 0.0
H518 H 0.37958 0.07842 0.78935 0.0
H519 H 0.47528 0.85808 0.50875 0.0
H520 H 0.48979 0.81001 0.50965 0.0
H521 H 0.58579 0.87445 0.48449 0.0
H522 H 0.57155 0.92303 0.48346 0.0
H523 H 0.50727 0.77432 0.48444 0.0
H524 H 0.61652 0.8492 0.52498 0.0
H525 H 0.58123 0.85981 0.52237 0.0
H526 H 0.61498 0.87147 0.50871 0.0
C527 C 0.49936 0.86205 0.5033 0.0
C528 C 0.52242 0.89451 0.49614 0.0
C529 C 0.50749 0.83448 0.50378 0.0
C530 C 0.53886 0.83892 0.49719 0.0
C531 C 0.5615 0.87074 0.48966 0.0
H532 H 0.60301 0.68519 0.52682 0.0
H533 H 0.60698 0.73441 0.51196 0.0
C534 C 0.55328 0.89837 0.48909 0.0
C535 C 0.54847 0.81077 0.49916 0.0
H536 H 0.59571 0.78759 0.52197 0.0
C537 C 0.52722 0.77734 0.49237 0.0
C538 C 0.57481 0.81512 0.50937 0.0
C539 C 0.5983 0.85075 0.51686 0.0
C540 C 0.52996 0.7473 0.49629 0.0
C541 C 0.55387 0.75082 0.50752 0.0
C542 C 0.57726 0.78497 0.51341 0.0
C543 C 0.55104 0.719 0.51489 0.0
C544 C 0.50617 0.71179 0.4888 0.0
C545 C 0.51838 0.6943 0.52148 0.0
C546 C 0.51606 0.6664 0.52992 0.0
C547 C 0.54648 0.66285 0.53207 0.0
C548 C 0.57909 0.6872 0.52526 0.0
C549 C 0.58141 0.71526 0.51679 0.0
H550 H 0.50056 0.71605 0.47746 0.0
H551 H 0.51862 0.69453 0.48872 0.0
H552 H 0.47997 0.69725 0.49455 0.0
H553 H 0.49487 0.69725 0.52049 0.0
H554 H 0.49046 0.64777 0.53487 0.0
H555 H 0.6635 0.58419 0.81467 0.0
H556 H 0.72758 0.60303 0.81547 0.0
H557 H 0.70423 0.51637 0.84505 0.0
H558 H 0.6404 0.49697 0.84414 0.0
H559 H 0.77125 0.62637 0.83883 0.0
H560 H 0.76969 0.50644 0.81638 0.0
H561 H 0.73214 0.51393 0.81433 0.0
H562 H 0.73701 0.49356 0.83057 0.0
C563 C 0.67196 0.56884 0.8212 0.0
C564 C 0.64679 0.53902 0.82934 0.0
C565 C 0.70857 0.57965 0.82162 0.0
C566 C 0.72055 0.5607 0.8301 0.0
C567 C 0.69546 0.53077 0.83811 0.0
H568 H 0.89247 0.60995 0.88344 0.0
H569 H 0.84448 0.61002 0.86949 0.0
C570 C 0.65895 0.51989 0.83767 0.0
C571 C 0.75945 0.57363 0.8317 0.0
H572 H 0.81837 0.54258 0.83327 0.0
C573 C 0.78187 0.6084 0.83728 0.0
C574 C 0.77363 0.55062 0.82931 0.0
C575 C 0.75189 0.51422 0.82215 0.0
C576 C 0.81712 0.61948 0.84178 0.0
C577 C 0.82978 0.59482 0.84097 0.0
C578 C 0.80851 0.56135 0.83413 0.0
C579 C 0.86241 0.60085 0.8488 0.0
C580 C 0.83995 0.65706 0.84778 0.0
C581 C 0.88851 0.59559 0.84185 0.0
C582 C 0.91562 0.59475 0.84989 0.0
C583 C 0.91692 0.59898 0.86503 0.0
C584 C 0.89191 0.60617 0.87183 0.0
C585 C 0.86478 0.60681 0.86381 0.0
H586 H 0.83326 0.67615 0.84246 0.0
H587 H 0.8343 0.65697 0.85951 0.0
H588 H 0.86915 0.66706 0.84633 0.0
H589 H 0.88698 0.59061 0.83029 0.0
H590 H 0.93431 0.58883 0.84436 0.0
H591 H 0.10524 0.67291 0.14432 0.0
H592 H 0.156 0.73399 0.14821 0.0
H593 H 0.13216 0.72435 0.19395 0.0
H594 H 0.08014 0.66436 0.18994 0.0
H595 H 0.15811 0.79165 0.18568 0.0
H596 H 0.24573 0.7416 0.16385 0.0
H597 H 0.21421 0.74096 0.15099 0.0
H598 H 0.19817 0.71227 0.16667 0.0
C599 C 0.11044 0.68427 0.15514 0.0
C600 C 0.08921 0.66388 0.16688 0.0
C601 C 0.13955 0.719 0.15737 0.0
C602 C 0.14865 0.73321 0.17144 0.0
C603 C 0.12584 0.71384 0.183 0.0
H604 H 0.3509 0.85475 0.21102 0.0
H605 H 0.29392 0.81188 0.1999 0.0
C606 C 0.09613 0.67954 0.18072 0.0
C607 C 0.18354 0.76629 0.17448 0.0
H608 H 0.27443 0.8007 0.17265 0.0
C609 C 0.1836 0.79384 0.18274 0.0
C610 C 0.21678 0.76889 0.17073 0.0
C611 C 0.21888 0.73925 0.16269 0.0
C612 C 0.21585 0.82307 0.18794 0.0
C613 C 0.24897 0.82538 0.1843 0.0
C614 C 0.24897 0.79885 0.17539 0.0
C615 C 0.28361 0.8524 0.19093 0.0
C616 C 0.21391 0.84991 0.19796 0.0
C617 C 0.29702 0.88957 0.18952 0.0
C618 C 0.32934 0.91432 0.19627 0.0
C619 C 0.34909 0.9023 0.20432 0.0
C620 C 0.33603 0.86505 0.20526 0.0
C621 C 0.30359 0.84044 0.19875 0.0
H622 H 0.18626 0.83968 0.20224 0.0
H623 H 0.2326 0.85653 0.20725 0.0
H624 H 0.22184 0.87515 0.19194 0.0
H625 H 0.28251 0.89944 0.18325 0.0
H626 H 0.33848 0.9428 0.19536 0.0
H627 H 0.49903 0.12499 0.52223 0.0
H628 H 0.48348 0.17197 0.52517 0.0
H629 H 0.41884 0.13573 0.48642 0.0
H630 H 0.43421 0.08826 0.48332 0.0
H631 H 0.46947 0.21278 0.48848 0.0
H632 H 0.38376 0.15834 0.53722 0.0
H633 H 0.4254 0.15826 0.53873 0.0
H634 H 0.39306 0.13071 0.52518 0.0
C635 C 0.48145 0.12685 0.51432 0.0
C636 C 0.4678 0.10282 0.50255 0.0
C637 C 0.47238 0.15354 0.51608 0.0
C638 C 0.44954 0.15676 0.50615 0.0
C639 C 0.4362 0.13327 0.49427 0.0
H640 H 0.40822 0.32711 0.53563 0.0
H641 H 0.39404 0.27118 0.52288 0.0
C642 C 0.44506 0.10628 0.49253 0.0
C643 C 0.44142 0.18604 0.50802 0.0
H644 H 0.41242 0.22278 0.53368 0.0
C645 C 0.45616 0.21469 0.49816 0.0
C646 C 0.42337 0.18803 0.52048 0.0
C647 C 0.40515 0.157 0.53094 0.0
C648 C 0.45634 0.24681 0.50117 0.0
C649 C 0.44181 0.25021 0.51443 0.0
C650 C 0.42394 0.22026 0.52358 0.0
C651 C 0.44977 0.28565 0.52011 0.0
C652 C 0.47356 0.27738 0.49048 0.0
C653 C 0.48572 0.31212 0.52273 0.0
C654 C 0.49381 0.34373 0.53004 0.0
C655 C 0.46608 0.3494 0.53492 0.0
C656 C 0.43008 0.32342 0.53189 0.0
C657 C 0.42196 0.29157 0.52463 0.0
H658 H 0.47132 0.26706 0.47926 0.0
H659 H 0.46105 0.29457 0.49095 0.0
H660 H 0.50264 0.29437 0.49305 0.0
H661 H 0.50754 0.30769 0.51965 0.0
H662 H 0.52178 0.36351 0.5321 0.0
H663 H 0.3927 0.50758 0.85851 0.0
H664 H 0.33216 0.49837 0.86101 0.0
H665 H 0.30234 0.44359 0.81979 0.0
H666 H 0.3632 0.45273 0.81711 0.0
H667 H 0.28483 0.49908 0.82333 0.0
H668 H 0.23671 0.40422 0.86946 0.0
H669 H 0.28055 0.44264 0.87262 0.0
H670 H 0.27435 0.41158 0.85826 0.0
C671 C 0.3733 0.49335 0.84999 0.0
C672 C 0.3828 0.48087 0.83761 0.0
C673 C 0.33861 0.48787 0.8515 0.0
C674 C 0.31272 0.46978 0.8407 0.0
C675 C 0.32195 0.45728 0.8283 0.0
H676 H 0.10304 0.44399 0.86474 0.0
H677 H 0.14471 0.4281 0.85316 0.0
C678 C 0.35669 0.46255 0.8268 0.0
C679 C 0.27687 0.4663 0.84214 0.0
H680 H 0.20761 0.4394 0.86608 0.0
C681 C 0.26744 0.48534 0.83248 0.0
C682 C 0.25394 0.44778 0.8539 0.0
C683 C 0.26168 0.42507 0.86407 0.0
C684 C 0.23714 0.48886 0.835 0.0
C685 C 0.21624 0.47329 0.84757 0.0
C686 C 0.22394 0.45168 0.85653 0.0
C687 C 0.18952 0.48289 0.85269 0.0
C688 C 0.22858 0.51033 0.82449 0.0
C689 C 0.20098 0.5189 0.8562 0.0
C690 C 0.17743 0.52797 0.86282 0.0
C691 C 0.142 0.50115 0.86612 0.0
C692 C 0.13015 0.4652 0.86221 0.0
C693 C 0.15387 0.4561 0.85563 0.0
H694 H 0.23839 0.5095 0.81344 0.0
H695 H 0.19916 0.50011 0.82401 0.0
H696 H 0.24235 0.53893 0.82804 0.0
H697 H 0.2286 0.53988 0.85432 0.0
H698 H 0.18714 0.55591 0.8656 0.0
H699 H 0.87465 0.39134 0.1542 0.0
H700 H 0.82933 0.32885 0.15914 0.0
H701 H 0.91016 0.3118 0.17924 0.0
H702 H 0.95551 0.37496 0.17488 0.0
H703 H 0.81891 0.26325 0.15256 0.0
H704 H 0.84018 0.28737 0.21194 0.0
H705 H 0.86084 0.32345 0.19898 0.0
H706 H 0.87904 0.29432 0.20197 0.0
C707 C 0.88292 0.37424 0.15954 0.0
C708 C 0.91851 0.38822 0.16438 0.0
C709 C 0.85698 0.33846 0.16233 0.0
C710 C 0.86619 0.3159 0.16986 0.0
C711 C 0.90226 0.32905 0.17379 0.0
H712 H 0.7029 0.10811 0.20708 0.0
H713 H 0.76013 0.152 0.19561 0.0
C714 C 0.92815 0.36507 0.17123 0.0
C715 C 0.83731 0.2797 0.17446 0.0
H716 H 0.79366 0.23085 0.20447 0.0
C717 C 0.8137 0.25594 0.1639 0.0
C718 C 0.83048 0.27021 0.18928 0.0
C719 C 0.85373 0.29523 0.20122 0.0
C720 C 0.78262 0.22373 0.16782 0.0
C721 C 0.77523 0.2151 0.18262 0.0
C722 C 0.79978 0.23766 0.19312 0.0
C723 C 0.73996 0.18581 0.1876 0.0
C724 C 0.75715 0.19973 0.1562 0.0
C725 C 0.70995 0.19045 0.18678 0.0
C726 C 0.6777 0.16595 0.19347 0.0
C727 C 0.6749 0.13626 0.20097 0.0
C728 C 0.70447 0.13073 0.20126 0.0
C729 C 0.73701 0.15565 0.19474 0.0
H730 H 0.77032 0.20565 0.1454 0.0
H731 H 0.74668 0.1709 0.15881 0.0
H732 H 0.73382 0.20412 0.1556 0.0
H733 H 0.71198 0.21391 0.18149 0.0
H734 H 0.65516 0.17062 0.19308 0.0
H735 H 0.05415 0.58451 0.10591 0.0
H736 H 0.05597 0.58757 0.0795 0.0
H737 H 0.96497 0.47932 0.07725 0.0
H738 H 0.962 0.47671 0.10369 0.0
H739 H 0.06794 0.55034 0.06022 0.0
H740 H 0.93148 0.52943 0.05067 0.0
H741 H 0.95127 0.53768 0.06848 0.0
H742 H 0.93023 0.49312 0.06069 0.0
C743 C 0.03438 0.56143 0.09978 0.0
C744 C 0.00776 0.53045 0.10686 0.0
C745 C 0.03546 0.56321 0.08469 0.0
C746 C 0.0102 0.53393 0.07637 0.0
C747 C 0.98404 0.50266 0.08342 0.0
H748 H 0.04344 0.50762 0.98508 0.0
H749 H 0.03975 0.5041 0.01155 0.0
C750 C 0.98253 0.50111 0.09853 0.0
C751 C 0.01209 0.5359 0.06034 0.0
H752 H 0.96259 0.52555 0.02998 0.0
C753 C 0.04495 0.54513 0.05361 0.0
C754 C 0.98225 0.52965 0.05173 0.0
C755 C 0.94696 0.5223 0.05826 0.0
C756 C 0.04878 0.54805 0.03852 0.0
C757 C 0.01849 0.54014 0.02987 0.0
C758 C 0.9857 0.5312 0.0366 0.0
C759 C 0.02031 0.54168 0.01383 0.0
C760 C 0.08553 0.56053 0.03207 0.0
C761 C 0.00926 0.56282 0.00628 0.0
C762 C 0.0105 0.56411 0.99117 0.0
C763 C 0.02318 0.54459 0.98338 0.0
C764 C 0.03408 0.52332 0.9909 0.0
C765 C 0.03219 0.52149 0.006 0.0
H766 H 0.10732 0.57614 0.04004 0.0
H767 H 0.08748 0.53667 0.02881 0.0
H768 H 0.0903 0.57761 0.02239 0.0
H769 H -0.00013 0.57851 0.01208 0.0
H770 H 0.00205 0.58077 0.98558 0.0
H771 H 0.45015 0.00983 0.44037 0.0
H772 H 0.45308 0.01496 0.41396 0.0
H773 H 0.55117 0.01055 0.41388 0.0
H774 H 0.54875 0.00565 0.44024 0.0
H775 H 0.55333 0.06699 0.39676 0.0
H776 H 0.43354 0.93295 0.38501 0.0
H777 H 0.42627 0.96073 0.39759 0.0
H778 H 0.45584 0.94418 0.40239 0.0
C779 C 0.47231 0.00983 0.43475 0.0
C780 C 0.49915 0.00719 0.44243 0.0
C781 C 0.47384 0.01264 0.41966 0.0
C782 C 0.50214 0.01276 0.41202 0.0
C783 C 0.52907 0.01039 0.41962 0.0
H784 H 0.52148 0.98049 0.32107 0.0
H785 H 0.51889 0.97836 0.3475 0.0
C786 C 0.52756 0.00751 0.43468 0.0
C787 C 0.50401 0.01577 0.39607 0.0
H788 H 0.46126 0.97169 0.36507 0.0
C789 C 0.53321 0.04623 0.3898 0.0
C790 C 0.47786 0.98841 0.3871 0.0
C791 C 0.44672 0.95454 0.3933 0.0
C792 C 0.53687 0.05014 0.37472 0.0
C793 C 0.51043 0.02303 0.36575 0.0
C794 C 0.48132 0.99251 0.37202 0.0
C795 C 0.51294 0.02527 0.3498 0.0
C796 C 0.56933 0.08282 0.36849 0.0
C797 C 0.51036 0.05235 0.34237 0.0
C798 C 0.51162 0.05354 0.32725 0.0
C799 C 0.51529 0.02752 0.31932 0.0
C800 C 0.51813 0.00062 0.32685 0.0
C801 C 0.51683 -0.00056 0.34194 0.0
H802 H 0.59083 0.09707 0.37671 0.0
H803 H 0.58061 0.07508 0.35924 0.0
H804 H 0.56112 0.10194 0.36443 0.0
H805 H 0.50675 0.07217 0.34827 0.0
H806 H 0.50884 0.07427 0.32177 0.0
H807 H 0.56367 0.55605 0.77439 0.0
H808 H 0.56412 0.55659 0.74796 0.0
H809 H 0.45645 0.46468 0.74735 0.0
H810 H 0.45551 0.46395 0.77384 0.0
H811 H 0.55456 0.49963 0.72931 0.0
H812 H 0.45107 0.53924 0.72061 0.0
H813 H 0.47339 0.54496 0.73779 0.0
H814 H 0.43778 0.50121 0.73233 0.0
C815 C 0.53995 0.53603 0.76867 0.0
C816 C 0.50949 0.50999 0.77625 0.0
C817 C 0.54032 0.53638 0.75357 0.0
C818 C 0.51021 0.51092 0.74575 0.0
C819 C 0.47975 0.48489 0.75322 0.0
H820 H 0.50216 0.4563 0.65472 0.0
H821 H 0.5006 0.45562 0.6812 0.0
C822 C 0.47934 0.48445 0.76835 0.0
C823 C 0.51121 0.51113 0.72976 0.0
H824 H 0.47235 0.52338 0.69977 0.0
C825 C 0.53662 0.50482 0.72283 0.0
C826 C 0.48798 0.51829 0.72141 0.0
C827 C 0.46117 0.52662 0.72837 0.0
C828 C 0.53921 0.50514 0.70769 0.0
C829 C 0.51547 0.51155 0.69933 0.0
C830 C 0.4903 0.51822 0.70626 0.0
C831 C 0.5167 0.51197 0.68334 0.0
C832 C 0.56769 0.49924 0.70077 0.0
C833 C 0.52575 0.54376 0.67583 0.0
C834 C 0.52679 0.54429 0.66072 0.0
C835 C 0.51855 0.51293 0.65286 0.0
C836 C 0.50927 0.48105 0.66046 0.0
C837 C 0.50829 0.48058 0.67557 0.0
H838 H 0.58882 0.50292 0.70864 0.0
H839 H 0.55491 0.4713 0.69648 0.0
H840 H 0.58072 0.51806 0.69158 0.0
H841 H 0.53231 0.56824 0.68168 0.0
H842 H 0.53441 0.56935 0.6552 0.0
H843 H 0.46407 0.93667 0.55596 0.0
H844 H 0.46418 0.93494 0.58242 0.0
H845 H 0.53415 0.05033 0.58379 0.0
H846 H 0.53456 0.05243 0.55736 0.0
H847 H 0.55508 0.0115 0.60237 0.0
H848 H 0.41081 0.97069 0.6089 0.0
H849 H 0.41925 0.94241 0.59708 0.0
H850 H 0.43499 0.98843 0.59215 0.0
C851 C 0.47952 0.96171 0.56187 0.0
C852 C 0.49915 0.99472 0.55452 0.0
C853 C 0.47941 0.96066 0.57698 0.0
C854 C 0.49878 0.99256 0.58501 0.0
C855 C 0.51891 0.02544 0.57775 0.0
H856 H 0.47878 0.0297 0.67564 0.0
H857 H 0.48164 0.03096 0.64919 0.0
C858 C 0.51904 0.02656 0.56265 0.0
C859 C 0.49811 0.99176 0.60101 0.0
H860 H 0.4424 0.97231 0.63014 0.0
C861 C 0.53049 0.00293 0.60847 0.0
C862 C 0.46601 0.98097 0.60887 0.0
C863 C 0.4308 0.97023 0.60139 0.0
C864 C 0.53155 0.00325 0.62365 0.0
C865 C 0.49931 0.99171 0.63151 0.0
C866 C 0.467 0.98087 0.62405 0.0
C867 C 0.49858 0.99138 0.64751 0.0
C868 C 0.56723 0.01658 0.63117 0.0
C869 C 0.50698 0.96854 0.65528 0.0
C870 C 0.50554 0.96787 0.67039 0.0
C871 C 0.49557 0.98999 0.67798 0.0
C872 C 0.48708 0.01276 0.67012 0.0
C873 C 0.48846 0.01334 0.65502 0.0
H874 H 0.59033 0.03209 0.62374 0.0
H875 H 0.56988 0.03393 0.64058 0.0
H876 H 0.56885 0.99313 0.63524 0.0
H877 H 0.51433 0.951 0.64964 0.0
H878 H 0.51243 0.95022 0.67615 0.0
H879 H 0.5427 0.45789 0.88647 0.0
H880 H 0.54104 0.44768 0.91255 0.0
H881 H 0.4953 0.51586 0.91943 0.0
H882 H 0.49711 0.52659 0.89339 0.0
H883 H 0.55183 0.52847 0.93889 0.0
H884 H 0.44682 0.38345 0.93514 0.0
H885 H 0.48595 0.39723 0.924 0.0
H886 H 0.45643 0.4146 0.92043 0.0
C887 C 0.53241 0.47086 0.89351 0.0
C888 C 0.51979 0.49287 0.88781 0.0
C889 C 0.53135 0.46485 0.90841 0.0
C890 C 0.51757 0.4806 0.91785 0.0
C891 C 0.5059 0.50335 0.91227 0.0
H892 H 0.43584 0.42877 0.00441 0.0
H893 H 0.44597 0.43849 0.97835 0.0
C894 C 0.50691 0.50939 0.89739 0.0
C895 C 0.51468 0.47298 0.93354 0.0
H896 H 0.47091 0.40586 0.95832 0.0
C897 C 0.53431 0.50166 0.94317 0.0
C898 C 0.49147 0.43801 0.93902 0.0
C899 C 0.46869 0.40653 0.92915 0.0
C900 C 0.53123 0.49632 0.9582 0.0
C901 C 0.50824 0.46129 0.96367 0.0
C902 C 0.48875 0.43259 0.95404 0.0
C903 C 0.50235 0.45429 0.97938 0.0
C904 C 0.55169 0.52834 0.96811 0.0
C905 C 0.53058 0.45934 0.98852 0.0
C906 C 0.52492 0.45396 0.00344 0.0
C907 C 0.4909 0.4434 0.00942 0.0
C908 C 0.46247 0.43744 0.00015 0.0
C909 C 0.46815 0.44277 0.98526 0.0
H910 H 0.56232 0.55431 0.96225 0.0
H911 H 0.53423 0.52774 0.97711 0.0
H912 H 0.57486 0.52735 0.97289 0.0
H913 H 0.55704 0.46773 0.98413 0.0
H914 H 0.54737 0.45893 0.01032 0.0
H915 H 0.01179 0.47812 0.22098 0.0
H916 H 0.01173 0.47755 0.24745 0.0
H917 H -0.00415 0.56906 0.24819 0.0
H918 H -0.00401 0.57006 0.22173 0.0
H919 H 0.05194 0.57395 0.26707 0.0
H920 H 0.92131 0.44623 0.27349 0.0
H921 H 0.95324 0.4441 0.26151 0.0
H922 H 0.93425 0.47164 0.25684 0.0
C923 C 0.00824 0.49813 0.22675 0.0
C924 C 0.00374 0.52405 0.21922 0.0
C925 C 0.00807 0.49764 0.24187 0.0
C926 C 0.00339 0.52301 0.24971 0.0
C927 C -0.00065 0.54918 0.24228 0.0
H928 H 0.95399 0.52387 0.34045 0.0
H929 H 0.95543 0.52576 0.31399 0.0
C930 C -0.00064 0.54963 0.22716 0.0
C931 C 0.00304 0.5225 0.2657 0.0
H932 H 0.95533 0.47227 0.29479 0.0
C933 C 0.03085 0.55177 0.27316 0.0
C934 C 0.97525 0.49364 0.27353 0.0
C935 C 0.94411 0.4622 0.26598 0.0
C936 C 0.03185 0.55272 0.28834 0.0
C937 C 0.00445 0.52352 0.29617 0.0
C938 C 0.9764 0.49447 0.2887 0.0
C939 C 0.00409 0.52282 0.31215 0.0
C940 C 0.06185 0.58512 0.29591 0.0
C941 C 0.03086 0.52024 0.31982 0.0
C942 C 0.02995 0.51881 0.33493 0.0
C943 C 0.00219 0.51987 0.34262 0.0
C944 C 0.97545 0.52249 0.33486 0.0
C945 C 0.97632 0.52379 0.31975 0.0
H946 H 0.0764 0.60835 0.28846 0.0
H947 H 0.05117 0.59355 0.30516 0.0
H948 H 0.08151 0.57796 0.30026 0.0
H949 H 0.05217 0.51887 0.31409 0.0
H950 H 0.05061 0.5162 0.34056 0.0
loop_
_geom_bond_atom_site_label_1
_geom_bond_atom_site_label_2
_geom_bond_distance
_geom_bond_site_symmetry_2
_ccdc_geom_bond_type
O0 Zn1 1.953 1_655 S
O0 C16 1.226 1_655 S
Zn1 O0 1.953 1_455 S
Zn1 O2 1.949 . S
Zn1 O8 1.919 1_455 S
Zn1 O13 1.924 . S
O2 Zn1 1.949 . S
O2 Zn3 1.923 1_455 S
O2 Zn4 1.950 . S
O2 Zn5 1.945 . S
Zn3 O2 1.923 1_655 S
Zn3 O6 1.933 . S
Zn3 O9 1.941 . S
Zn3 O10 1.965 . S
Zn4 O2 1.950 . S
Zn4 O11 1.938 1_455 S
Zn4 O12 1.906 . S
Zn4 O22 1.953 . S
Zn5 O2 1.945 . S
Zn5 O7 1.932 . S
Zn5 O14 1.977 . S
Zn5 O15 1.910 . S
O6 Zn3 1.933 . S
O6 C17 1.226 1_655 S
O7 Zn5 1.932 . S
O7 C17 1.307 . S
O8 Zn1 1.919 1_655 S
O8 C19 1.253 . S
O9 Zn3 1.941 . S
O9 C19 1.283 . S
O10 Zn3 1.965 . S
O10 C18 1.303 . S
O11 Zn4 1.938 1_655 S
O11 C18 1.247 . S
O12 Zn4 1.906 . S
O12 C20 1.304 . S
O13 Zn1 1.924 . S
O13 C21 1.311 . S
O14 Zn5 1.977 . S
O14 C20 1.272 . S
O15 Zn5 1.910 . S
O15 C21 1.231 . S
C16 O0 1.226 1_455 S
C16 O22 1.298 . S
C17 O6 1.226 1_455 S
C17 O7 1.307 . S
C18 O10 1.303 . S
C18 O11 1.247 . S
C19 O8 1.253 . S
C19 O9 1.283 . S
C20 O12 1.304 . S
C20 O14 1.272 . S
C21 O13 1.311 . S
C21 O15 1.231 . S
O22 Zn4 1.953 . S
O22 C16 1.298 . S
O23 Zn24 1.953 . S
O23 C39 1.225 . S
Zn24 O23 1.953 . S
Zn24 O25 1.949 . S
Zn24 O31 1.919 . S
Zn24 O36 1.924 1_545 S
O25 Zn24 1.949 . S
O25 Zn26 1.923 . S
O25 Zn27 1.950 . S
O25 Zn28 1.945 1_545 S
Zn26 O25 1.923 . S
Zn26 O29 1.933 . S
Zn26 O32 1.941 . S
Zn26 O33 1.965 . S
Zn27 O25 1.950 . S
Zn27 O34 1.938 . S
Zn27 O35 1.906 1_545 S
Zn27 O45 1.953 1_545 S
Zn28 O25 1.945 1_565 S
Zn28 O30 1.932 . S
Zn28 O37 1.977 . S
Zn28 O38 1.910 . S
O29 Zn26 1.933 . S
O29 C40 1.226 . S
O30 Zn28 1.932 . S
O30 C40 1.307 1_565 S
O31 Zn24 1.919 . S
O31 C42 1.253 . S
O32 Zn26 1.941 . S
O32 C42 1.283 . S
O33 Zn26 1.965 . S
O33 C41 1.303 . S
O34 Zn27 1.938 . S
O34 C41 1.247 . S
O35 Zn27 1.906 1_565 S
O35 C43 1.304 . S
O36 Zn24 1.924 1_565 S
O36 C44 1.311 . S
O37 Zn28 1.977 . S
O37 C43 1.272 . S
O38 Zn28 1.910 . S
O38 C44 1.231 . S
C39 O23 1.225 . S
C39 O45 1.298 1_545 S
C40 O29 1.226 . S
C40 O30 1.307 1_545 S
C41 O33 1.303 . S
C41 O34 1.247 . S
C42 O31 1.253 . S
C42 O32 1.283 . S
C43 O35 1.304 . S
C43 O37 1.272 . S
C44 O36 1.311 . S
C44 O38 1.231 . S
O45 Zn27 1.953 1_565 S
O45 C39 1.298 1_565 S
O46 Zn47 1.953 . S
O46 C62 1.225 . S
Zn47 O46 1.953 . S
Zn47 O48 1.949 . S
Zn47 O54 1.919 . S
Zn47 O59 1.924 . S
O48 Zn47 1.949 . S
O48 Zn49 1.923 . S
O48 Zn50 1.950 . S
O48 Zn51 1.945 . S
Zn49 O48 1.923 . S
Zn49 O52 1.933 . S
Zn49 O55 1.941 . S
Zn49 O56 1.965 . S
Zn50 O48 1.950 . S
Zn50 O57 1.938 . S
Zn50 O58 1.906 . S
Zn50 O68 1.953 . S
Zn51 O48 1.945 . S
Zn51 O53 1.932 . S
Zn51 O60 1.977 . S
Zn51 O61 1.910 . S
O52 Zn49 1.933 . S
O52 C63 1.226 . S
O53 Zn51 1.932 . S
O53 C63 1.307 . S
O54 Zn47 1.919 . S
O54 C65 1.253 . S
O55 Zn49 1.941 . S
O55 C65 1.283 . S
O56 Zn49 1.965 . S
O56 C64 1.303 . S
O57 Zn50 1.938 . S
O57 C64 1.247 . S
O58 Zn50 1.906 . S
O58 C66 1.304 . S
O59 Zn47 1.924 . S
O59 C67 1.311 . S
O60 Zn51 1.977 . S
O60 C66 1.272 . S
O61 Zn51 1.910 . S
O61 C67 1.231 . S
C62 O46 1.225 . S
C62 O68 1.298 . S
C63 O52 1.226 . S
C63 O53 1.307 . S
C64 O56 1.303 . S
C64 O57 1.247 . S
C65 O54 1.253 . S
C65 O55 1.283 . S
C66 O58 1.304 . S
C66 O60 1.272 . S
C67 O59 1.311 . S
C67 O61 1.231 . S
O68 Zn50 1.953 . S
O68 C62 1.298 . S
C69 C70 1.386 . S
C69 C71 1.397 . S
C69 H93 0.931 . S
C70 C69 1.386 . S
C70 C74 1.397 1_545 S
C71 C69 1.397 . S
C71 C72 1.384 . S
C71 H94 0.930 . S
C72 C71 1.384 . S
C72 C73 1.377 1_545 S
C72 C75 1.481 . S
C73 C72 1.377 1_565 S
C73 C74 1.389 . S
C73 H95 0.929 . S
C74 C70 1.397 1_565 S
C74 C73 1.389 . S
C74 H96 0.931 . S
C75 C72 1.481 . S
C75 C76 1.387 . S
C75 C80 1.390 1_545 S
C76 C75 1.387 . S
C76 C77 1.401 . S
C76 H97 0.930 . S
C77 C76 1.401 . S
C77 C78 1.376 . S
C77 C86 1.511 . S
C78 C77 1.376 . S
C78 C79 1.392 1_545 S
C78 H99 0.931 . S
C79 C78 1.392 1_565 S
C79 C80 1.361 . S
C79 C81 1.500 . S
C80 C75 1.390 1_565 S
C80 C79 1.361 . S
C80 H98 0.931 . S
C81 C79 1.500 . S
C81 C82 1.371 . S
C81 C83 1.365 . S
C82 C81 1.371 . S
C82 C92 1.386 . S
C82 H100 0.931 . S
C83 C81 1.365 . S
C83 C84 1.409 . S
C83 H101 0.929 . S
C84 C83 1.409 . S
C84 C85 1.380 . S
C84 H102 0.930 . S
C85 C84 1.380 . S
C85 C92 1.357 . S
C86 C77 1.511 . S
C86 C87 1.341 . S
C86 C88 1.371 . S
C87 C86 1.341 . S
C87 C91 1.394 . S
C87 H103 0.930 . S
C88 C86 1.371 . S
C88 C89 1.392 . S
C88 H104 0.931 . S
C89 C88 1.392 . S
C89 C90 1.331 . S
C89 H107 0.932 . S
C90 C89 1.331 . S
C90 C91 1.336 . S
C91 C87 1.394 . S
C91 C90 1.336 . S
C91 H106 0.929 . S
C92 C82 1.386 . S
C92 C85 1.357 . S
C92 H105 0.928 . S
H93 C69 0.931 . S
H94 C71 0.930 . S
H95 C73 0.929 . S
H96 C74 0.931 . S
H97 C76 0.930 . S
H98 C80 0.931 . S
H99 C78 0.931 . S
H100 C82 0.931 . S
H101 C83 0.929 . S
H102 C84 0.930 . S
H103 C87 0.930 . S
H104 C88 0.931 . S
H105 C92 0.928 . S
H106 C91 0.929 . S
H107 C89 0.932 . S
C108 C109 1.386 . S
C108 C110 1.397 . S
C108 H132 0.931 . S
C109 C108 1.386 . S
C109 C113 1.397 . S
C110 C108 1.397 . S
C110 C111 1.384 . S
C110 H133 0.930 . S
C111 C110 1.384 . S
C111 C112 1.377 . S
C111 C114 1.481 . S
C112 C111 1.377 . S
C112 C113 1.389 . S
C112 H134 0.929 . S
C113 C109 1.397 . S
C113 C112 1.389 . S
C113 H135 0.931 . S
C114 C111 1.481 . S
C114 C115 1.387 . S
C114 C119 1.390 . S
C115 C114 1.387 . S
C115 C116 1.401 . S
C115 H136 0.930 . S
C116 C115 1.401 . S
C116 C117 1.376 . S
C116 C125 1.511 . S
C117 C116 1.376 . S
C117 C118 1.392 . S
C117 H138 0.931 . S
C118 C117 1.392 . S
C118 C119 1.361 . S
C118 C120 1.500 . S
C119 C114 1.390 . S
C119 C118 1.361 . S
C119 H137 0.931 . S
C120 C118 1.500 . S
C120 C121 1.371 . S
C120 C122 1.365 . S
C121 C120 1.371 . S
C121 C131 1.386 . S
C121 H139 0.931 . S
C122 C120 1.365 . S
C122 C123 1.409 . S
C122 H140 0.929 . S
C123 C122 1.409 . S
C123 C124 1.380 . S
C123 H141 0.930 . S
C124 C123 1.380 . S
C124 C131 1.357 . S
C125 C116 1.511 . S
C125 C126 1.341 . S
C125 C127 1.371 . S
C126 C125 1.341 . S
C126 C130 1.394 . S
C126 H142 0.930 . S
C127 C125 1.371 . S
C127 C128 1.392 . S
C127 H143 0.931 . S
C128 C127 1.392 . S
C128 C129 1.331 . S
C128 H146 0.932 . S
C129 C128 1.331 . S
C129 C130 1.336 . S
C130 C126 1.394 . S
C130 C129 1.336 . S
C130 H145 0.929 . S
C131 C121 1.386 . S
C131 C124 1.357 . S
C131 H144 0.928 . S
H132 C108 0.931 . S
H133 C110 0.930 . S
H134 C112 0.929 . S
H135 C113 0.931 . S
H136 C115 0.930 . S
H137 C119 0.931 . S
H138 C117 0.931 . S
H139 C121 0.931 . S
H140 C122 0.929 . S
H141 C123 0.930 . S
H142 C126 0.930 . S
H143 C127 0.931 . S
H144 C131 0.928 . S
H145 C130 0.929 . S
H146 C128 0.932 . S
C147 C148 1.386 . S
C147 C149 1.397 . S
C147 H171 0.931 . S
C148 C147 1.386 . S
C148 C152 1.397 1_455 S
C149 C147 1.397 . S
C149 C150 1.384 . S
C149 H172 0.930 . S
C150 C149 1.384 . S
C150 C151 1.377 1_455 S
C150 C153 1.481 . S
C151 C150 1.377 1_655 S
C151 C152 1.389 . S
C151 H173 0.929 . S
C152 C148 1.397 1_655 S
C152 C151 1.389 . S
C152 H174 0.931 . S
C153 C150 1.481 . S
C153 C154 1.387 . S
C153 C158 1.390 1_455 S
C154 C153 1.387 . S
C154 C155 1.401 . S
C154 H175 0.930 . S
C155 C154 1.401 . S
C155 C156 1.376 . S
C155 C164 1.511 . S
C156 C155 1.376 . S
C156 C157 1.392 1_455 S
C156 H177 0.931 . S
C157 C156 1.392 1_655 S
C157 C158 1.361 . S
C157 C159 1.500 . S
C158 C153 1.390 1_655 S
C158 C157 1.361 . S
C158 H176 0.931 . S
C159 C157 1.500 . S
C159 C160 1.371 . S
C159 C161 1.365 . S
C160 C159 1.371 . S
C160 C170 1.386 . S
C160 H178 0.931 . S
C161 C159 1.365 . S
C161 C162 1.409 . S
C161 H179 0.929 . S
C162 C161 1.409 . S
C162 C163 1.380 . S
C162 H180 0.930 . S
C163 C162 1.380 . S
C163 C170 1.357 . S
C164 C155 1.511 . S
C164 C165 1.341 . S
C164 C166 1.371 . S
C165 C164 1.341 . S
C165 C169 1.394 . S
C165 H181 0.930 . S
C166 C164 1.371 . S
C166 C167 1.392 . S
C166 H182 0.931 . S
C167 C166 1.392 . S
C167 C168 1.331 . S
C167 H185 0.932 . S
C168 C167 1.331 . S
C168 C169 1.336 . S
C169 C165 1.394 . S
C169 C168 1.336 . S
C169 H184 0.929 . S
C170 C160 1.386 . S
C170 C163 1.357 . S
C170 H183 0.928 . S
H171 C147 0.931 . S
H172 C149 0.930 . S
H173 C151 0.929 . S
H174 C152 0.931 . S
H175 C154 0.930 . S
H176 C158 0.931 . S
H177 C156 0.931 . S
H178 C160 0.931 . S
H179 C161 0.929 . S
H180 C162 0.930 . S
H181 C165 0.930 . S
H182 C166 0.931 . S
H183 C170 0.928 . S
H184 C169 0.929 . S
H185 C167 0.932 . S
C186 C187 1.386 1_655 S
C186 C188 1.397 . S
C186 H210 0.931 . S
C187 C186 1.386 1_455 S
C187 C191 1.397 . S
C188 C186 1.397 . S
C188 C189 1.384 1_655 S
C188 H211 0.930 . S
C189 C188 1.384 1_455 S
C189 C190 1.377 . S
C189 C192 1.481 . S
C190 C189 1.377 . S
C190 C191 1.389 . S
C190 H212 0.929 . S
C191 C187 1.397 . S
C191 C190 1.389 . S
C191 H213 0.931 . S
C192 C189 1.481 . S
C192 C193 1.387 1_455 S
C192 C197 1.390 . S
C193 C192 1.387 1_655 S
C193 C194 1.401 . S
C193 H214 0.930 . S
C194 C193 1.401 . S
C194 C195 1.376 1_655 S
C194 C203 1.511 . S
C195 C194 1.376 1_455 S
C195 C196 1.392 . S
C195 H216 0.931 . S
C196 C195 1.392 . S
C196 C197 1.361 . S
C196 C198 1.500 . S
C197 C192 1.390 . S
C197 C196 1.361 . S
C197 H215 0.931 . S
C198 C196 1.500 . S
C198 C199 1.371 . S
C198 C200 1.365 . S
C199 C198 1.371 . S
C199 C209 1.386 . S
C199 H217 0.931 . S
C200 C198 1.365 . S
C200 C201 1.409 . S
C200 H218 0.929 . S
C201 C200 1.409 . S
C201 C202 1.380 . S
C201 H219 0.930 . S
C202 C201 1.380 . S
C202 C209 1.357 . S
C203 C194 1.511 . S
C203 C204 1.341 . S
C203 C205 1.371 . S
C204 C203 1.341 . S
C204 C208 1.394 . S
C204 H220 0.930 . S
C205 C203 1.371 . S
C205 C206 1.392 . S
C205 H221 0.931 . S
C206 C205 1.392 . S
C206 C207 1.331 . S
C206 H224 0.932 . S
C207 C206 1.331 . S
C207 C208 1.336 . S
C208 C204 1.394 . S
C208 C207 1.336 . S
C208 H223 0.929 . S
C209 C199 1.386 . S
C209 C202 1.357 . S
C209 H222 0.928 . S
H210 C186 0.931 . S
H211 C188 0.930 . S
H212 C190 0.929 . S
H213 C191 0.931 . S
H214 C193 0.930 . S
H215 C197 0.931 . S
H216 C195 0.931 . S
H217 C199 0.931 . S
H218 C200 0.929 . S
H219 C201 0.930 . S
H220 C204 0.930 . S
H221 C205 0.931 . S
H222 C209 0.928 . S
H223 C208 0.929 . S
H224 C206 0.932 . S
C225 C226 1.386 1_565 S
C225 C227 1.397 . S
C225 H249 0.931 . S
C226 C225 1.386 1_545 S
C226 C230 1.397 . S
C227 C225 1.397 . S
C227 C228 1.384 1_565 S
C227 H250 0.930 . S
C228 C227 1.384 1_545 S
C228 C229 1.377 . S
C228 C231 1.481 . S
C229 C228 1.377 . S
C229 C230 1.389 . S
C229 H251 0.929 . S
C230 C226 1.397 . S
C230 C229 1.389 . S
C230 H252 0.931 . S
C231 C228 1.481 . S
C231 C232 1.387 1_545 S
C231 C236 1.390 . S
C232 C231 1.387 1_565 S
C232 C233 1.401 . S
C232 H253 0.930 . S
C233 C232 1.401 . S
C233 C234 1.376 1_565 S
C233 C242 1.511 . S
C234 C233 1.376 1_545 S
C234 C235 1.392 . S
C234 H255 0.931 . S
C235 C234 1.392 . S
C235 C236 1.361 . S
C235 C237 1.500 . S
C236 C231 1.390 . S
C236 C235 1.361 . S
C236 H254 0.931 . S
C237 C235 1.500 . S
C237 C238 1.371 . S
C237 C239 1.365 . S
C238 C237 1.371 . S
C238 C248 1.386 . S
C238 H256 0.931 . S
C239 C237 1.365 . S
C239 C240 1.409 . S
C239 H257 0.929 . S
C240 C239 1.409 . S
C240 C241 1.380 . S
C240 H258 0.930 . S
C241 C240 1.380 . S
C241 C248 1.357 . S
C242 C233 1.511 . S
C242 C243 1.341 . S
C242 C244 1.371 . S
C243 C242 1.341 . S
C243 C247 1.394 . S
C243 H259 0.930 . S
C244 C242 1.371 . S
C244 C245 1.392 . S
C244 H260 0.931 . S
C245 C244 1.392 . S
C245 C246 1.331 . S
C245 H263 0.932 . S
C246 C245 1.331 . S
C246 C247 1.336 . S
C247 C243 1.394 . S
C247 C246 1.336 . S
C247 H262 0.929 . S
C248 C238 1.386 . S
C248 C241 1.357 . S
C248 H261 0.928 . S
H249 C225 0.931 . S
H250 C227 0.930 . S
H251 C229 0.929 . S
H252 C230 0.931 . S
H253 C232 0.930 . S
H254 C236 0.931 . S
H255 C234 0.931 . S
H256 C238 0.931 . S
H257 C239 0.929 . S
H258 C240 0.930 . S
H259 C243 0.930 . S
H260 C244 0.931 . S
H261 C248 0.928 . S
H262 C247 0.929 . S
H263 C245 0.932 . S
C264 C265 1.386 . S
C264 C266 1.397 . S
C264 H288 0.931 . S
C265 C264 1.386 . S
C265 C269 1.397 . S
C266 C264 1.397 . S
C266 C267 1.384 . S
C266 H289 0.930 . S
C267 C266 1.384 . S
C267 C268 1.377 . S
C267 C270 1.481 . S
C268 C267 1.377 . S
C268 C269 1.389 . S
C268 H290 0.929 . S
C269 C265 1.397 . S
C269 C268 1.389 . S
C269 H291 0.931 . S
C270 C267 1.481 . S
C270 C271 1.387 . S
C270 C275 1.390 . S
C271 C270 1.387 . S
C271 C272 1.401 . S
C271 H292 0.930 . S
C272 C271 1.401 . S
C272 C273 1.376 . S
C272 C281 1.511 . S
C273 C272 1.376 . S
C273 C274 1.392 . S
C273 H294 0.931 . S
C274 C273 1.392 . S
C274 C275 1.361 . S
C274 C276 1.500 . S
C275 C270 1.390 . S
C275 C274 1.361 . S
C275 H293 0.931 . S
C276 C274 1.500 . S
C276 C277 1.371 . S
C276 C278 1.365 . S
C277 C276 1.371 . S
C277 C287 1.386 . S
C277 H295 0.931 . S
C278 C276 1.365 . S
C278 C279 1.409 . S
C278 H296 0.929 . S
C279 C278 1.409 . S
C279 C280 1.380 . S
C279 H297 0.930 . S
C280 C279 1.380 . S
C280 C287 1.357 . S
C281 C272 1.511 . S
C281 C282 1.341 . S
C281 C283 1.371 . S
C282 C281 1.341 . S
C282 C286 1.394 . S
C282 H298 0.930 . S
C283 C281 1.371 . S
C283 C284 1.392 . S
C283 H299 0.931 . S
C284 C283 1.392 . S
C284 C285 1.331 . S
C284 H302 0.932 . S
C285 C284 1.331 . S
C285 C286 1.336 . S
C286 C282 1.394 . S
C286 C285 1.336 . S
C286 H301 0.929 . S
C287 C277 1.386 . S
C287 C280 1.357 . S
C287 H300 0.928 . S
H288 C264 0.931 . S
H289 C266 0.930 . S
H290 C268 0.929 . S
H291 C269 0.931 . S
H292 C271 0.930 . S
H293 C275 0.931 . S
H294 C273 0.931 . S
H295 C277 0.931 . S
H296 C278 0.929 . S
H297 C279 0.930 . S
H298 C282 0.930 . S
H299 C283 0.931 . S
H300 C287 0.928 . S
H301 C286 0.929 . S
H302 C284 0.932 . S
H303 C311 0.929 . S
H304 C313 0.930 . S
H305 C315 0.930 . S
H306 C318 0.929 . S
H307 C321 0.930 . S
H308 C323 0.960 . S
H309 C323 0.960 . S
H310 C323 0.960 . S
C311 H303 0.929 . S
C311 C312 1.377 . S
C311 C313 1.384 . S
C312 C311 1.377 . S
C312 C318 1.390 . S
C313 H304 0.930 . S
C313 C311 1.384 . S
C313 C314 1.372 . S
C314 C313 1.372 . S
C314 C315 1.400 . S
C314 C319 1.490 . S
C315 H305 0.930 . S
C315 C314 1.400 . S
C315 C318 1.386 . S
H316 C332 0.930 . S
H317 C333 0.931 . S
C318 H306 0.929 . S
C318 C312 1.390 . S
C318 C315 1.386 . S
C319 C314 1.490 . S
C319 C321 1.395 . S
C319 C322 1.403 . S
H320 C326 0.930 . S
C321 H307 0.930 . S
C321 C319 1.395 . S
C321 C324 1.403 . S
C322 C319 1.403 . S
C322 C323 1.524 . S
C322 C326 1.400 . S
C323 H308 0.960 . S
C323 H309 0.960 . S
C323 H310 0.960 . S
C323 C322 1.524 . S
C324 C321 1.403 . S
C324 C325 1.392 . S
C324 C328 1.495 . S
C325 C324 1.392 . S
C325 C326 1.385 . S
C325 C327 1.478 . S
C326 H320 0.930 . S
C326 C322 1.400 . S
C326 C325 1.385 . S
C327 C325 1.478 . S
C327 C329 1.381 . S
C327 C333 1.383 . S
C328 C324 1.495 . S
C328 H334 0.959 . S
C328 H335 0.961 . S
C328 H336 0.960 . S
C329 C327 1.381 . S
C329 C330 1.394 . S
C329 H337 0.930 . S
C330 C329 1.394 . S
C330 C331 1.383 . S
C330 H338 0.929 . S
C331 C330 1.383 . S
C331 C332 1.377 . S
C332 H316 0.930 . S
C332 C331 1.377 . S
C332 C333 1.379 . S
C333 H317 0.931 . S
C333 C327 1.383 . S
C333 C332 1.379 . S
H334 C328 0.959 . S
H335 C328 0.961 . S
H336 C328 0.960 . S
H337 C329 0.930 . S
H338 C330 0.929 . S
H339 C347 0.929 . S
H340 C349 0.930 . S
H341 C351 0.930 . S
H342 C354 0.929 . S
H343 C357 0.930 . S
H344 C359 0.960 . S
H345 C359 0.960 . S
H346 C359 0.960 . S
C347 H339 0.929 . S
C347 C348 1.377 . S
C347 C349 1.384 . S
C348 C347 1.377 . S
C348 C354 1.390 . S
C349 H340 0.930 . S
C349 C347 1.384 . S
C349 C350 1.372 . S
C350 C349 1.372 . S
C350 C351 1.400 . S
C350 C355 1.490 . S
C351 H341 0.930 . S
C351 C350 1.400 . S
C351 C354 1.386 . S
H352 C368 0.930 . S
H353 C369 0.931 . S
C354 H342 0.929 . S
C354 C348 1.390 . S
C354 C351 1.386 . S
C355 C350 1.490 . S
C355 C357 1.395 . S
C355 C358 1.403 . S
H356 C362 0.930 . S
C357 H343 0.930 . S
C357 C355 1.395 . S
C357 C360 1.403 . S
C358 C355 1.403 . S
C358 C359 1.524 . S
C358 C362 1.400 . S
C359 H344 0.960 . S
C359 H345 0.960 . S
C359 H346 0.960 . S
C359 C358 1.524 . S
C360 C357 1.403 . S
C360 C361 1.392 . S
C360 C364 1.495 . S
C361 C360 1.392 . S
C361 C362 1.385 . S
C361 C363 1.478 . S
C362 H356 0.930 . S
C362 C358 1.400 . S
C362 C361 1.385 . S
C363 C361 1.478 . S
C363 C365 1.381 . S
C363 C369 1.383 . S
C364 C360 1.495 . S
C364 H370 0.959 . S
C364 H371 0.961 . S
C364 H372 0.960 . S
C365 C363 1.381 . S
C365 C366 1.394 . S
C365 H373 0.930 . S
C366 C365 1.394 . S
C366 C367 1.383 . S
C366 H374 0.929 . S
C367 C366 1.383 . S
C367 C368 1.377 . S
C368 H352 0.930 . S
C368 C367 1.377 . S
C368 C369 1.379 . S
C369 H353 0.931 . S
C369 C363 1.383 . S
C369 C368 1.379 . S
H370 C364 0.959 . S
H371 C364 0.961 . S
H372 C364 0.960 . S
H373 C365 0.930 . S
H374 C366 0.929 . S
H375 C383 0.929 . S
H376 C385 0.930 . S
H377 C387 0.930 . S
H378 C390 0.929 . S
H379 C393 0.930 . S
H380 C395 0.960 . S
H381 C395 0.960 . S
H382 C395 0.960 . S
C383 H375 0.929 . S
C383 C384 1.377 . S
C383 C385 1.384 . S
C384 C383 1.377 . S
C384 C390 1.390 . S
C385 H376 0.930 . S
C385 C383 1.384 . S
C385 C386 1.372 . S
C386 C385 1.372 . S
C386 C387 1.400 . S
C386 C391 1.490 . S
C387 H377 0.930 . S
C387 C386 1.400 . S
C387 C390 1.386 . S
H388 C404 0.930 . S
H389 C405 0.931 . S
C390 H378 0.929 . S
C390 C384 1.390 . S
C390 C387 1.386 . S
C391 C386 1.490 . S
C391 C393 1.395 . S
C391 C394 1.403 . S
H392 C398 0.930 . S
C393 H379 0.930 . S
C393 C391 1.395 . S
C393 C396 1.403 . S
C394 C391 1.403 . S
C394 C395 1.524 . S
C394 C398 1.400 . S
C395 H380 0.960 . S
C395 H381 0.960 . S
C395 H382 0.960 . S
C395 C394 1.524 . S
C396 C393 1.403 . S
C396 C397 1.392 . S
C396 C400 1.495 . S
C397 C396 1.392 . S
C397 C398 1.385 . S
C397 C399 1.478 . S
C398 H392 0.930 . S
C398 C394 1.400 . S
C398 C397 1.385 . S
C399 C397 1.478 . S
C399 C401 1.381 . S
C399 C405 1.383 . S
C400 C396 1.495 . S
C400 H406 0.959 . S
C400 H407 0.961 . S
C400 H408 0.960 . S
C401 C399 1.381 . S
C401 C402 1.394 . S
C401 H409 0.930 . S
C402 C401 1.394 . S
C402 C403 1.383 . S
C402 H410 0.929 . S
C403 C402 1.383 . S
C403 C404 1.377 . S
C404 H388 0.930 . S
C404 C403 1.377 . S
C404 C405 1.379 . S
C405 H389 0.931 . S
C405 C399 1.383 . S
C405 C404 1.379 . S
H406 C400 0.959 . S
H407 C400 0.961 . S
H408 C400 0.960 . S
H409 C401 0.930 . S
H410 C402 0.929 . S
H411 C419 0.929 . S
H412 C421 0.930 . S
H413 C423 0.930 . S
H414 C426 0.929 . S
H415 C429 0.930 . S
H416 C431 0.960 . S
H417 C431 0.960 . S
H418 C431 0.960 . S
C419 H411 0.929 . S
C419 C420 1.377 . S
C419 C421 1.384 . S
C420 C419 1.377 . S
C420 C426 1.390 . S
C421 H412 0.930 . S
C421 C419 1.384 . S
C421 C422 1.372 . S
C422 C421 1.372 . S
C422 C423 1.400 . S
C422 C427 1.490 . S
C423 H413 0.930 . S
C423 C422 1.400 . S
C423 C426 1.386 . S
H424 C440 0.930 . S
H425 C441 0.931 . S
C426 H414 0.929 . S
C426 C420 1.390 . S
C426 C423 1.386 . S
C427 C422 1.490 . S
C427 C429 1.395 . S
C427 C430 1.403 . S
H428 C434 0.930 . S
C429 H415 0.930 . S
C429 C427 1.395 . S
C429 C432 1.403 . S
C430 C427 1.403 . S
C430 C431 1.524 . S
C430 C434 1.400 . S
C431 H416 0.960 . S
C431 H417 0.960 . S
C431 H418 0.960 . S
C431 C430 1.524 . S
C432 C429 1.403 . S
C432 C433 1.392 . S
C432 C436 1.495 . S
C433 C432 1.392 . S
C433 C434 1.385 . S
C433 C435 1.478 . S
C434 H428 0.930 . S
C434 C430 1.400 . S
C434 C433 1.385 . S
C435 C433 1.478 . S
C435 C437 1.381 . S
C435 C441 1.383 . S
C436 C432 1.495 . S
C436 H442 0.959 . S
C436 H443 0.961 . S
C436 H444 0.960 . S
C437 C435 1.381 . S
C437 C438 1.394 . S
C437 H445 0.930 . S
C438 C437 1.394 . S
C438 C439 1.383 . S
C438 H446 0.929 . S
C439 C438 1.383 . S
C439 C440 1.377 . S
C440 H424 0.930 . S
C440 C439 1.377 . S
C440 C441 1.379 . S
C441 H425 0.931 . S
C441 C435 1.383 . S
C441 C440 1.379 . S
H442 C436 0.959 . S
H443 C436 0.961 . S
H444 C436 0.960 . S
H445 C437 0.930 . S
H446 C438 0.929 . S
H447 C455 0.929 . S
H448 C457 0.930 . S
H449 C459 0.930 . S
H450 C462 0.929 . S
H451 C465 0.930 . S
H452 C467 0.960 . S
H453 C467 0.960 . S
H454 C467 0.960 . S
C455 H447 0.929 . S
C455 C456 1.377 . S
C455 C457 1.384 . S
C456 C455 1.377 . S
C456 C462 1.390 . S
C457 H448 0.930 . S
C457 C455 1.384 . S
C457 C458 1.372 . S
C458 C457 1.372 . S
C458 C459 1.400 . S
C458 C463 1.490 . S
C459 H449 0.930 . S
C459 C458 1.400 . S
C459 C462 1.386 . S
H460 C476 0.930 . S
H461 C477 0.931 . S
C462 H450 0.929 . S
C462 C456 1.390 . S
C462 C459 1.386 . S
C463 C458 1.490 . S
C463 C465 1.395 . S
C463 C466 1.403 . S
H464 C470 0.930 . S
C465 H451 0.930 . S
C465 C463 1.395 . S
C465 C468 1.403 . S
C466 C463 1.403 . S
C466 C467 1.524 . S
C466 C470 1.400 . S
C467 H452 0.960 . S
C467 H453 0.960 . S
C467 H454 0.960 . S
C467 C466 1.524 . S
C468 C465 1.403 . S
C468 C469 1.392 . S
C468 C472 1.495 . S
C469 C468 1.392 . S
C469 C470 1.385 . S
C469 C471 1.478 . S
C470 H464 0.930 . S
C470 C466 1.400 . S
C470 C469 1.385 . S
C471 C469 1.478 . S
C471 C473 1.381 . S
C471 C477 1.383 . S
C472 C468 1.495 . S
C472 H478 0.959 . S
C472 H479 0.961 . S
C472 H480 0.960 . S
C473 C471 1.381 . S
C473 C474 1.394 . S
C473 H481 0.930 . S
C474 C473 1.394 . S
C474 C475 1.383 . S
C474 H482 0.929 . S
C475 C474 1.383 . S
C475 C476 1.377 . S
C476 H460 0.930 . S
C476 C475 1.377 . S
C476 C477 1.379 . S
C477 H461 0.931 . S
C477 C471 1.383 . S
C477 C476 1.379 . S
H478 C472 0.959 . S
H479 C472 0.961 . S
H480 C472 0.960 . S
H481 C473 0.930 . S
H482 C474 0.929 . S
H483 C491 0.929 . S
H484 C493 0.930 . S
H485 C495 0.930 . S
H486 C498 0.929 . S
H487 C501 0.930 . S
H488 C503 0.960 . S
H489 C503 0.960 . S
H490 C503 0.960 . S
C491 H483 0.929 . S
C491 C492 1.377 . S
C491 C493 1.384 . S
C492 C491 1.377 . S
C492 C498 1.390 . S
C493 H484 0.930 . S
C493 C491 1.384 . S
C493 C494 1.372 . S
C494 C493 1.372 . S
C494 C495 1.400 . S
C494 C499 1.490 . S
C495 H485 0.930 . S
C495 C494 1.400 . S
C495 C498 1.386 . S
H496 C512 0.930 . S
H497 C513 0.931 . S
C498 H486 0.929 . S
C498 C492 1.390 . S
C498 C495 1.386 . S
C499 C494 1.490 . S
C499 C501 1.395 . S
C499 C502 1.403 . S
H500 C506 0.930 . S
C501 H487 0.930 . S
C501 C499 1.395 . S
C501 C504 1.403 . S
C502 C499 1.403 . S
C502 C503 1.524 . S
C502 C506 1.400 . S
C503 H488 0.960 . S
C503 H489 0.960 . S
C503 H490 0.960 . S
C503 C502 1.524 . S
C504 C501 1.403 . S
C504 C505 1.392 . S
C504 C508 1.495 . S
C505 C504 1.392 . S
C505 C506 1.385 . S
C505 C507 1.478 . S
C506 H500 0.930 . S
C506 C502 1.400 . S
C506 C505 1.385 . S
C507 C505 1.478 . S
C507 C509 1.381 . S
C507 C513 1.383 . S
C508 C504 1.495 . S
C508 H514 0.959 . S
C508 H515 0.961 . S
C508 H516 0.960 . S
C509 C507 1.381 . S
C509 C510 1.394 . S
C509 H517 0.930 . S
C510 C509 1.394 . S
C510 C511 1.383 . S
C510 H518 0.929 . S
C511 C510 1.383 . S
C511 C512 1.377 . S
C512 H496 0.930 . S
C512 C511 1.377 . S
C512 C513 1.379 . S
C513 H497 0.931 . S
C513 C507 1.383 . S
C513 C512 1.379 . S
H514 C508 0.959 . S
H515 C508 0.961 . S
H516 C508 0.960 . S
H517 C509 0.930 . S
H518 C510 0.929 . S
H519 C527 0.929 . S
H520 C529 0.930 . S
H521 C531 0.930 . S
H522 C534 0.929 . S
H523 C537 0.930 . S
H524 C539 0.960 . S
H525 C539 0.960 . S
H526 C539 0.960 . S
C527 H519 0.929 . S
C527 C528 1.377 . S
C527 C529 1.384 . S
C528 C527 1.377 . S
C528 C534 1.390 . S
C529 H520 0.930 . S
C529 C527 1.384 . S
C529 C530 1.372 . S
C530 C529 1.372 . S
C530 C531 1.400 . S
C530 C535 1.490 . S
C531 H521 0.930 . S
C531 C530 1.400 . S
C531 C534 1.386 . S
H532 C548 0.930 . S
H533 C549 0.931 . S
C534 H522 0.929 . S
C534 C528 1.390 . S
C534 C531 1.386 . S
C535 C530 1.490 . S
C535 C537 1.395 . S
C535 C538 1.403 . S
H536 C542 0.930 . S
C537 H523 0.930 . S
C537 C535 1.395 . S
C537 C540 1.403 . S
C538 C535 1.403 . S
C538 C539 1.524 . S
C538 C542 1.400 . S
C539 H524 0.960 . S
C539 H525 0.960 . S
C539 H526 0.960 . S
C539 C538 1.524 . S
C540 C537 1.403 . S
C540 C541 1.392 . S
C540 C544 1.495 . S
C541 C540 1.392 . S
C541 C542 1.385 . S
C541 C543 1.478 . S
C542 H536 0.930 . S
C542 C538 1.400 . S
C542 C541 1.385 . S
C543 C541 1.478 . S
C543 C545 1.381 . S
C543 C549 1.383 . S
C544 C540 1.495 . S
C544 H550 0.959 . S
C544 H551 0.961 . S
C544 H552 0.960 . S
C545 C543 1.381 . S
C545 C546 1.394 . S
C545 H553 0.930 . S
C546 C545 1.394 . S
C546 C547 1.383 . S
C546 H554 0.929 . S
C547 C546 1.383 . S
C547 C548 1.377 . S
C548 H532 0.930 . S
C548 C547 1.377 . S
C548 C549 1.379 . S
C549 H533 0.931 . S
C549 C543 1.383 . S
C549 C548 1.379 . S
H550 C544 0.959 . S
H551 C544 0.961 . S
H552 C544 0.960 . S
H553 C545 0.930 . S
H554 C546 0.929 . S
H555 C563 0.929 . S
H556 C565 0.930 . S
H557 C567 0.930 . S
H558 C570 0.929 . S
H559 C573 0.930 . S
H560 C575 0.960 . S
H561 C575 0.960 . S
H562 C575 0.960 . S
C563 H555 0.929 . S
C563 C564 1.377 . S
C563 C565 1.384 . S
C564 C563 1.377 . S
C564 C570 1.390 . S
C565 H556 0.930 . S
C565 C563 1.384 . S
C565 C566 1.372 . S
C566 C565 1.372 . S
C566 C567 1.400 . S
C566 C571 1.490 . S
C567 H557 0.930 . S
C567 C566 1.400 . S
C567 C570 1.386 . S
H568 C584 0.930 . S
H569 C585 0.931 . S
C570 H558 0.929 . S
C570 C564 1.390 . S
C570 C567 1.386 . S
C571 C566 1.490 . S
C571 C573 1.395 . S
C571 C574 1.403 . S
H572 C578 0.930 . S
C573 H559 0.930 . S
C573 C571 1.395 . S
C573 C576 1.403 . S
C574 C571 1.403 . S
C574 C575 1.524 . S
C574 C578 1.400 . S
C575 H560 0.960 . S
C575 H561 0.960 . S
C575 H562 0.960 . S
C575 C574 1.524 . S
C576 C573 1.403 . S
C576 C577 1.392 . S
C576 C580 1.495 . S
C577 C576 1.392 . S
C577 C578 1.385 . S
C577 C579 1.478 . S
C578 H572 0.930 . S
C578 C574 1.400 . S
C578 C577 1.385 . S
C579 C577 1.478 . S
C579 C581 1.381 . S
C579 C585 1.383 . S
C580 C576 1.495 . S
C580 H586 0.959 . S
C580 H587 0.961 . S
C580 H588 0.960 . S
C581 C579 1.381 . S
C581 C582 1.394 . S
C581 H589 0.930 . S
C582 C581 1.394 . S
C582 C583 1.383 . S
C582 H590 0.929 . S
C583 C582 1.383 . S
C583 C584 1.377 . S
C584 H568 0.930 . S
C584 C583 1.377 . S
C584 C585 1.379 . S
C585 H569 0.931 . S
C585 C579 1.383 . S
C585 C584 1.379 . S
H586 C580 0.959 . S
H587 C580 0.961 . S
H588 C580 0.960 . S
H589 C581 0.930 . S
H590 C582 0.929 . S
H591 C599 0.929 . S
H592 C601 0.930 . S
H593 C603 0.930 . S
H594 C606 0.929 . S
H595 C609 0.930 . S
H596 C611 0.960 . S
H597 C611 0.960 . S
H598 C611 0.960 . S
C599 H591 0.929 . S
C599 C600 1.377 . S
C599 C601 1.384 . S
C600 C599 1.377 . S
C600 C606 1.390 . S
C601 H592 0.930 . S
C601 C599 1.384 . S
C601 C602 1.372 . S
C602 C601 1.372 . S
C602 C603 1.400 . S
C602 C607 1.490 . S
C603 H593 0.930 . S
C603 C602 1.400 . S
C603 C606 1.386 . S
H604 C620 0.930 . S
H605 C621 0.931 . S
C606 H594 0.929 . S
C606 C600 1.390 . S
C606 C603 1.386 . S
C607 C602 1.490 . S
C607 C609 1.395 . S
C607 C610 1.403 . S
H608 C614 0.930 . S
C609 H595 0.930 . S
C609 C607 1.395 . S
C609 C612 1.403 . S
C610 C607 1.403 . S
C610 C611 1.524 . S
C610 C614 1.400 . S
C611 H596 0.960 . S
C611 H597 0.960 . S
C611 H598 0.960 . S
C611 C610 1.524 . S
C612 C609 1.403 . S
C612 C613 1.392 . S
C612 C616 1.495 . S
C613 C612 1.392 . S
C613 C614 1.385 . S
C613 C615 1.478 . S
C614 H608 0.930 . S
C614 C610 1.400 . S
C614 C613 1.385 . S
C615 C613 1.478 . S
C615 C617 1.381 . S
C615 C621 1.383 . S
C616 C612 1.495 . S
C616 H622 0.959 . S
C616 H623 0.961 . S
C616 H624 0.960 . S
C617 C615 1.381 . S
C617 C618 1.394 . S
C617 H625 0.930 . S
C618 C617 1.394 . S
C618 C619 1.383 . S
C618 H626 0.929 . S
C619 C618 1.383 . S
C619 C620 1.377 . S
C620 H604 0.930 . S
C620 C619 1.377 . S
C620 C621 1.379 . S
C621 H605 0.931 . S
C621 C615 1.383 . S
C621 C620 1.379 . S
H622 C616 0.959 . S
H623 C616 0.961 . S
H624 C616 0.960 . S
H625 C617 0.930 . S
H626 C618 0.929 . S
H627 C635 0.929 . S
H628 C637 0.930 . S
H629 C639 0.930 . S
H630 C642 0.929 . S
H631 C645 0.930 . S
H632 C647 0.960 . S
H633 C647 0.960 . S
H634 C647 0.960 . S
C635 H627 0.929 . S
C635 C636 1.377 . S
C635 C637 1.384 . S
C636 C635 1.377 . S
C636 C642 1.390 . S
C637 H628 0.930 . S
C637 C635 1.384 . S
C637 C638 1.372 . S
C638 C637 1.372 . S
C638 C639 1.400 . S
C638 C643 1.490 . S
C639 H629 0.930 . S
C639 C638 1.400 . S
C639 C642 1.386 . S
H640 C656 0.930 . S
H641 C657 0.931 . S
C642 H630 0.929 . S
C642 C636 1.390 . S
C642 C639 1.386 . S
C643 C638 1.490 . S
C643 C645 1.395 . S
C643 C646 1.403 . S
H644 C650 0.930 . S
C645 H631 0.930 . S
C645 C643 1.395 . S
C645 C648 1.403 . S
C646 C643 1.403 . S
C646 C647 1.524 . S
C646 C650 1.400 . S
C647 H632 0.960 . S
C647 H633 0.960 . S
C647 H634 0.960 . S
C647 C646 1.524 . S
C648 C645 1.403 . S
C648 C649 1.392 . S
C648 C652 1.495 . S
C649 C648 1.392 . S
C649 C650 1.385 . S
C649 C651 1.478 . S
C650 H644 0.930 . S
C650 C646 1.400 . S
C650 C649 1.385 . S
C651 C649 1.478 . S
C651 C653 1.381 . S
C651 C657 1.383 . S
C652 C648 1.495 . S
C652 H658 0.959 . S
C652 H659 0.961 . S
C652 H660 0.960 . S
C653 C651 1.381 . S
C653 C654 1.394 . S
C653 H661 0.930 . S
C654 C653 1.394 . S
C654 C655 1.383 . S
C654 H662 0.929 . S
C655 C654 1.383 . S
C655 C656 1.377 . S
C656 H640 0.930 . S
C656 C655 1.377 . S
C656 C657 1.379 . S
C657 H641 0.931 . S
C657 C651 1.383 . S
C657 C656 1.379 . S
H658 C652 0.959 . S
H659 C652 0.961 . S
H660 C652 0.960 . S
H661 C653 0.930 . S
H662 C654 0.929 . S
H663 C671 0.929 . S
H664 C673 0.930 . S
H665 C675 0.930 . S
H666 C678 0.929 . S
H667 C681 0.930 . S
H668 C683 0.960 . S
H669 C683 0.960 . S
H670 C683 0.960 . S
C671 H663 0.929 . S
C671 C672 1.377 . S
C671 C673 1.384 . S
C672 C671 1.377 . S
C672 C678 1.390 . S
C673 H664 0.930 . S
C673 C671 1.384 . S
C673 C674 1.372 . S
C674 C673 1.372 . S
C674 C675 1.400 . S
C674 C679 1.490 . S
C675 H665 0.930 . S
C675 C674 1.400 . S
C675 C678 1.386 . S
H676 C692 0.930 . S
H677 C693 0.931 . S
C678 H666 0.929 . S
C678 C672 1.390 . S
C678 C675 1.386 . S
C679 C674 1.490 . S
C679 C681 1.395 . S
C679 C682 1.403 . S
H680 C686 0.930 . S
C681 H667 0.930 . S
C681 C679 1.395 . S
C681 C684 1.403 . S
C682 C679 1.403 . S
C682 C683 1.524 . S
C682 C686 1.400 . S
C683 H668 0.960 . S
C683 H669 0.960 . S
C683 H670 0.960 . S
C683 C682 1.524 . S
C684 C681 1.403 . S
C684 C685 1.392 . S
C684 C688 1.495 . S
C685 C684 1.392 . S
C685 C686 1.385 . S
C685 C687 1.478 . S
C686 H680 0.930 . S
C686 C682 1.400 . S
C686 C685 1.385 . S
C687 C685 1.478 . S
C687 C689 1.381 . S
C687 C693 1.383 . S
C688 C684 1.495 . S
C688 H694 0.959 . S
C688 H695 0.961 . S
C688 H696 0.960 . S
C689 C687 1.381 . S
C689 C690 1.394 . S
C689 H697 0.930 . S
C690 C689 1.394 . S
C690 C691 1.383 . S
C690 H698 0.929 . S
C691 C690 1.383 . S
C691 C692 1.377 . S
C692 H676 0.930 . S
C692 C691 1.377 . S
C692 C693 1.379 . S
C693 H677 0.931 . S
C693 C687 1.383 . S
C693 C692 1.379 . S
H694 C688 0.959 . S
H695 C688 0.961 . S
H696 C688 0.960 . S
H697 C689 0.930 . S
H698 C690 0.929 . S
H699 C707 0.929 . S
H700 C709 0.930 . S
H701 C711 0.930 . S
H702 C714 0.929 . S
H703 C717 0.930 . S
H704 C719 0.960 . S
H705 C719 0.960 . S
H706 C719 0.960 . S
C707 H699 0.929 . S
C707 C708 1.377 . S
C707 C709 1.384 . S
C708 C707 1.377 . S
C708 C714 1.390 . S
C709 H700 0.930 . S
C709 C707 1.384 . S
C709 C710 1.372 . S
C710 C709 1.372 . S
C710 C711 1.400 . S
C710 C715 1.490 . S
C711 H701 0.930 . S
C711 C710 1.400 . S
C711 C714 1.386 . S
H712 C728 0.930 . S
H713 C729 0.931 . S
C714 H702 0.929 . S
C714 C708 1.390 . S
C714 C711 1.386 . S
C715 C710 1.490 . S
C715 C717 1.395 . S
C715 C718 1.403 . S
H716 C722 0.930 . S
C717 H703 0.930 . S
C717 C715 1.395 . S
C717 C720 1.403 . S
C718 C715 1.403 . S
C718 C719 1.524 . S
C718 C722 1.400 . S
C719 H704 0.960 . S
C719 H705 0.960 . S
C719 H706 0.960 . S
C719 C718 1.524 . S
C720 C717 1.403 . S
C720 C721 1.392 . S
C720 C724 1.495 . S
C721 C720 1.392 . S
C721 C722 1.385 . S
C721 C723 1.478 . S
C722 H716 0.930 . S
C722 C718 1.400 . S
C722 C721 1.385 . S
C723 C721 1.478 . S
C723 C725 1.381 . S
C723 C729 1.383 . S
C724 C720 1.495 . S
C724 H730 0.959 . S
C724 H731 0.961 . S
C724 H732 0.960 . S
C725 C723 1.381 . S
C725 C726 1.394 . S
C725 H733 0.930 . S
C726 C725 1.394 . S
C726 C727 1.383 . S
C726 H734 0.929 . S
C727 C726 1.383 . S
C727 C728 1.377 . S
C728 H712 0.930 . S
C728 C727 1.377 . S
C728 C729 1.379 . S
C729 H713 0.931 . S
C729 C723 1.383 . S
C729 C728 1.379 . S
H730 C724 0.959 . S
H731 C724 0.961 . S
H732 C724 0.960 . S
H733 C725 0.930 . S
H734 C726 0.929 . S
H735 C743 0.929 . S
H736 C745 0.930 . S
H737 C747 0.930 . S
H738 C750 0.929 . S
H739 C753 0.930 . S
H740 C755 0.960 . S
H741 C755 0.960 . S
H742 C755 0.960 . S
C743 H735 0.929 . S
C743 C744 1.377 1_655 S
C743 C745 1.384 . S
C744 C743 1.377 1_455 S
C744 C750 1.390 . S
C745 H736 0.930 . S
C745 C743 1.384 . S
C745 C746 1.372 1_655 S
C746 C745 1.372 1_455 S
C746 C747 1.400 . S
C746 C751 1.490 . S
C747 H737 0.930 . S
C747 C746 1.400 . S
C747 C750 1.386 . S
H748 C764 0.930 . S
H749 C765 0.931 . S
C750 H738 0.929 . S
C750 C744 1.390 . S
C750 C747 1.386 . S
C751 C746 1.490 . S
C751 C753 1.395 . S
C751 C754 1.403 1_455 S
H752 C758 0.930 1_655 S
C753 H739 0.930 . S
C753 C751 1.395 . S
C753 C756 1.403 . S
C754 C751 1.403 1_655 S
C754 C755 1.524 . S
C754 C758 1.400 1_655 S
C755 H740 0.960 . S
C755 H741 0.960 . S
C755 H742 0.960 . S
C755 C754 1.524 . S
C756 C753 1.403 . S
C756 C757 1.392 . S
C756 C760 1.495 . S
C757 C756 1.392 . S
C757 C758 1.385 . S
C757 C759 1.478 . S
C758 H752 0.930 1_455 S
C758 C754 1.400 1_455 S
C758 C757 1.385 . S
C759 C757 1.478 . S
C759 C761 1.381 . S
C759 C765 1.383 . S
C760 C756 1.495 . S
C760 H766 0.959 . S
C760 H767 0.961 . S
C760 H768 0.960 . S
C761 C759 1.381 . S
C761 C762 1.394 1_554 S
C761 H769 0.930 1_455 S
C762 C761 1.394 1_556 S
C762 C763 1.383 . S
C762 H770 0.929 1_455 S
C763 C762 1.383 . S
C763 C764 1.377 . S
C764 H748 0.930 . S
C764 C763 1.377 . S
C764 C765 1.379 1_556 S
C765 H749 0.931 . S
C765 C759 1.383 . S
C765 C764 1.379 1_554 S
H766 C760 0.959 . S
H767 C760 0.961 . S
H768 C760 0.960 . S
H769 C761 0.930 1_655 S
H770 C762 0.929 1_655 S
H771 C779 0.929 . S
H772 C781 0.930 . S
H773 C783 0.930 . S
H774 C786 0.929 . S
H775 C789 0.930 . S
H776 C791 0.960 . S
H777 C791 0.960 . S
H778 C791 0.960 . S
C779 H771 0.929 . S
C779 C780 1.377 . S
C779 C781 1.384 . S
C780 C779 1.377 . S
C780 C786 1.390 1_545 S
C781 H772 0.930 . S
C781 C779 1.384 . S
C781 C782 1.372 . S
C782 C781 1.372 . S
C782 C783 1.400 1_545 S
C782 C787 1.490 . S
C783 H773 0.930 . S
C783 C782 1.400 1_565 S
C783 C786 1.386 . S
H784 C800 0.930 . S
H785 C801 0.931 . S
C786 H774 0.929 . S
C786 C780 1.390 1_565 S
C786 C783 1.386 . S
C787 C782 1.490 . S
C787 C789 1.395 . S
C787 C790 1.403 1_545 S
H788 C794 0.930 . S
C789 H775 0.930 . S
C789 C787 1.395 . S
C789 C792 1.403 . S
C790 C787 1.403 1_565 S
C790 C791 1.524 . S
C790 C794 1.400 . S
C791 H776 0.960 . S
C791 H777 0.960 . S
C791 H778 0.960 . S
C791 C790 1.524 . S
C792 C789 1.403 . S
C792 C793 1.392 . S
C792 C796 1.495 . S
C793 C792 1.392 . S
C793 C794 1.385 1_545 S
C793 C795 1.478 . S
C794 H788 0.930 . S
C794 C790 1.400 . S
C794 C793 1.385 1_565 S
C795 C793 1.478 . S
C795 C797 1.381 . S
C795 C801 1.383 1_545 S
C796 C792 1.495 . S
C796 H802 0.959 . S
C796 H803 0.961 . S
C796 H804 0.960 . S
C797 C795 1.381 . S
C797 C798 1.394 . S
C797 H805 0.930 . S
C798 C797 1.394 . S
C798 C799 1.383 . S
C798 H806 0.929 . S
C799 C798 1.383 . S
C799 C800 1.377 1_545 S
C800 H784 0.930 . S
C800 C799 1.377 1_565 S
C800 C801 1.379 . S
C801 H785 0.931 . S
C801 C795 1.383 1_565 S
C801 C800 1.379 . S
H802 C796 0.959 . S
H803 C796 0.961 . S
H804 C796 0.960 . S
H805 C797 0.930 . S
H806 C798 0.929 . S
H807 C815 0.929 . S
H808 C817 0.930 . S
H809 C819 0.930 . S
H810 C822 0.929 . S
H811 C825 0.930 . S
H812 C827 0.960 . S
H813 C827 0.960 . S
H814 C827 0.960 . S
C815 H807 0.929 . S
C815 C816 1.377 . S
C815 C817 1.384 . S
C816 C815 1.377 . S
C816 C822 1.390 . S
C817 H808 0.930 . S
C817 C815 1.384 . S
C817 C818 1.372 . S
C818 C817 1.372 . S
C818 C819 1.400 . S
C818 C823 1.490 . S
C819 H809 0.930 . S
C819 C818 1.400 . S
C819 C822 1.386 . S
H820 C836 0.930 . S
H821 C837 0.931 . S
C822 H810 0.929 . S
C822 C816 1.390 . S
C822 C819 1.386 . S
C823 C818 1.490 . S
C823 C825 1.395 . S
C823 C826 1.403 . S
H824 C830 0.930 . S
C825 H811 0.930 . S
C825 C823 1.395 . S
C825 C828 1.403 . S
C826 C823 1.403 . S
C826 C827 1.524 . S
C826 C830 1.400 . S
C827 H812 0.960 . S
C827 H813 0.960 . S
C827 H814 0.960 . S
C827 C826 1.524 . S
C828 C825 1.403 . S
C828 C829 1.392 . S
C828 C832 1.495 . S
C829 C828 1.392 . S
C829 C830 1.385 . S
C829 C831 1.478 . S
C830 H824 0.930 . S
C830 C826 1.400 . S
C830 C829 1.385 . S
C831 C829 1.478 . S
C831 C833 1.381 . S
C831 C837 1.383 . S
C832 C828 1.495 . S
C832 H838 0.959 . S
C832 H839 0.961 . S
C832 H840 0.960 . S
C833 C831 1.381 . S
C833 C834 1.394 . S
C833 H841 0.930 . S
C834 C833 1.394 . S
C834 C835 1.383 . S
C834 H842 0.929 . S
C835 C834 1.383 . S
C835 C836 1.377 . S
C836 H820 0.930 . S
C836 C835 1.377 . S
C836 C837 1.379 . S
C837 H821 0.931 . S
C837 C831 1.383 . S
C837 C836 1.379 . S
H838 C832 0.959 . S
H839 C832 0.961 . S
H840 C832 0.960 . S
H841 C833 0.930 . S
H842 C834 0.929 . S
H843 C851 0.929 . S
H844 C853 0.930 . S
H845 C855 0.930 . S
H846 C858 0.929 . S
H847 C861 0.930 . S
H848 C863 0.960 . S
H849 C863 0.960 1_565 S
H850 C863 0.960 . S
C851 H843 0.929 . S
C851 C852 1.377 1_565 S
C851 C853 1.384 . S
C852 C851 1.377 1_545 S
C852 C858 1.390 . S
C853 H844 0.930 . S
C853 C851 1.384 . S
C853 C854 1.372 1_565 S
C854 C853 1.372 1_545 S
C854 C855 1.400 . S
C854 C859 1.490 . S
C855 H845 0.930 . S
C855 C854 1.400 . S
C855 C858 1.386 . S
H856 C872 0.930 . S
H857 C873 0.931 . S
C858 H846 0.929 . S
C858 C852 1.390 . S
C858 C855 1.386 . S
C859 C854 1.490 . S
C859 C861 1.395 . S
C859 C862 1.403 . S
H860 C866 0.930 . S
C861 H847 0.930 . S
C861 C859 1.395 . S
C861 C864 1.403 . S
C862 C859 1.403 . S
C862 C863 1.524 . S
C862 C866 1.400 . S
C863 H848 0.960 . S
C863 H849 0.960 1_545 S
C863 H850 0.960 . S
C863 C862 1.524 . S
C864 C861 1.403 . S
C864 C865 1.392 . S
C864 C868 1.495 . S
C865 C864 1.392 . S
C865 C866 1.385 . S
C865 C867 1.478 . S
C866 H860 0.930 . S
C866 C862 1.400 . S
C866 C865 1.385 . S
C867 C865 1.478 . S
C867 C869 1.381 1_545 S
C867 C873 1.383 . S
C868 C864 1.495 . S
C868 H874 0.959 . S
C868 H875 0.961 . S
C868 H876 0.960 1_545 S
C869 C867 1.381 1_565 S
C869 C870 1.394 . S
C869 H877 0.930 . S
C870 C869 1.394 . S
C870 C871 1.383 1_565 S
C870 H878 0.929 . S
C871 C870 1.383 1_545 S
C871 C872 1.377 . S
C872 H856 0.930 . S
C872 C871 1.377 . S
C872 C873 1.379 . S
C873 H857 0.931 . S
C873 C867 1.383 . S
C873 C872 1.379 . S
H874 C868 0.959 . S
H875 C868 0.961 . S
H876 C868 0.960 1_565 S
H877 C869 0.930 . S
H878 C870 0.929 . S
H879 C887 0.929 . S
H880 C889 0.930 . S
H881 C891 0.930 . S
H882 C894 0.929 . S
H883 C897 0.930 . S
H884 C899 0.960 . S
H885 C899 0.960 . S
H886 C899 0.960 . S
C887 H879 0.929 . S
C887 C888 1.377 . S
C887 C889 1.384 . S
C888 C887 1.377 . S
C888 C894 1.390 . S
C889 H880 0.930 . S
C889 C887 1.384 . S
C889 C890 1.372 . S
C890 C889 1.372 . S
C890 C891 1.400 . S
C890 C895 1.490 . S
C891 H881 0.930 . S
C891 C890 1.400 . S
C891 C894 1.386 . S
H892 C908 0.930 . S
H893 C909 0.931 . S
C894 H882 0.929 . S
C894 C888 1.390 . S
C894 C891 1.386 . S
C895 C890 1.490 . S
C895 C897 1.395 . S
C895 C898 1.403 . S
H896 C902 0.930 . S
C897 H883 0.930 . S
C897 C895 1.395 . S
C897 C900 1.403 . S
C898 C895 1.403 . S
C898 C899 1.524 . S
C898 C902 1.400 . S
C899 H884 0.960 . S
C899 H885 0.960 . S
C899 H886 0.960 . S
C899 C898 1.524 . S
C900 C897 1.403 . S
C900 C901 1.392 . S
C900 C904 1.495 . S
C901 C900 1.392 . S
C901 C902 1.385 . S
C901 C903 1.478 . S
C902 H896 0.930 . S
C902 C898 1.400 . S
C902 C901 1.385 . S
C903 C901 1.478 . S
C903 C905 1.381 . S
C903 C909 1.383 . S
C904 C900 1.495 . S
C904 H910 0.959 . S
C904 H911 0.961 . S
C904 H912 0.960 . S
C905 C903 1.381 . S
C905 C906 1.394 1_556 S
C905 H913 0.930 . S
C906 C905 1.394 1_554 S
C906 C907 1.383 . S
C906 H914 0.929 . S
C907 C906 1.383 . S
C907 C908 1.377 . S
C908 H892 0.930 . S
C908 C907 1.377 . S
C908 C909 1.379 1_554 S
C909 H893 0.931 . S
C909 C903 1.383 . S
C909 C908 1.379 1_556 S
H910 C904 0.959 . S
H911 C904 0.961 . S
H912 C904 0.960 . S
H913 C905 0.930 . S
H914 C906 0.929 . S
H915 C923 0.929 . S
H916 C925 0.930 . S
H917 C927 0.930 . S
H918 C930 0.929 . S
H919 C933 0.930 . S
H920 C935 0.960 . S
H921 C935 0.960 . S
H922 C935 0.960 . S
C923 H915 0.929 . S
C923 C924 1.377 . S
C923 C925 1.384 . S
C924 C923 1.377 . S
C924 C930 1.390 1_455 S
C925 H916 0.930 . S
C925 C923 1.384 . S
C925 C926 1.372 . S
C926 C925 1.372 . S
C926 C927 1.400 1_455 S
C926 C931 1.490 . S
C927 H917 0.930 . S
C927 C926 1.400 1_655 S
C927 C930 1.386 . S
H928 C944 0.930 . S
H929 C945 0.931 . S
C930 H918 0.929 . S
C930 C924 1.390 1_655 S
C930 C927 1.386 . S
C931 C926 1.490 . S
C931 C933 1.395 . S
C931 C934 1.403 1_455 S
H932 C938 0.930 . S
C933 H919 0.930 . S
C933 C931 1.395 . S
C933 C936 1.403 . S
C934 C931 1.403 1_655 S
C934 C935 1.524 . S
C934 C938 1.400 . S
C935 H920 0.960 . S
C935 H921 0.960 . S
C935 H922 0.960 . S
C935 C934 1.524 . S
C936 C933 1.403 . S
C936 C937 1.392 . S
C936 C940 1.495 . S
C937 C936 1.392 . S
C937 C938 1.385 1_455 S
C937 C939 1.478 . S
C938 H932 0.930 . S
C938 C934 1.400 . S
C938 C937 1.385 1_655 S
C939 C937 1.478 . S
C939 C941 1.381 . S
C939 C945 1.383 1_455 S
C940 C936 1.495 . S
C940 H946 0.959 . S
C940 H947 0.961 . S
C940 H948 0.960 . S
C941 C939 1.381 . S
C941 C942 1.394 . S
C941 H949 0.930 . S
C942 C941 1.394 . S
C942 C943 1.383 . S
C942 H950 0.929 . S
C943 C942 1.383 . S
C943 C944 1.377 1_455 S
C944 H928 0.930 . S
C944 C943 1.377 1_655 S
C944 C945 1.379 . S
C945 H929 0.931 . S
C945 C939 1.383 1_655 S
C945 C944 1.379 . S
H946 C940 0.959 . S
H947 C940 0.961 . S
H948 C940 0.960 . S
H949 C941 0.930 . S
H950 C942 0.929 . S
C312 C20 1.079 . S
C331 C280 1.098 . S
C348 C41 1.123 . S
C367 C207 1.103 . S
C384 C64 1.146 . S
C403 C246 1.146 . S
C420 C19 1.092 . S
C439 C285 1.137 . S
C475 C202 1.091 . S
C456 C44 1.108 . S
C511 C241 1.081 . S
C492 C67 1.099 . S
C528 C43 1.067 . S
C547 C129 1.086 . S
C564 C66 1.069 . S
C583 C163 1.108 . S
C600 C21 1.105 . S
C619 C85 1.093 . S
C655 C124 1.139 . S
C636 C42 1.094 . S
C691 C168 1.144 . S
C672 C65 1.098 . S
C708 C18 1.126 . S
C727 C90 1.132 . S
C763 C148 1.450 . S
C744 C17 1.452 . S
C780 C39 1.447 . S
C799 C70 1.444 . S
C816 C62 1.468 . S
C835 C109 1.467 . S
C871 C226 1.427 . S
C852 C40 1.430 . S
C907 C265 1.447 . S
C888 C63 1.452 . S
C924 C16 1.448 . S
C943 C187 1.445 . S
