# Generated by pormake.
# Topology csq, (4,8)-cn, num edge types: 1
# Building blocks:
#     Node 0, Type 0, BuildingBlock: NAWXER_clean_linker_0, # of connection points: 4
#     Node 1, Type 0, BuildingBlock: NAWXER_clean_linker_0, # of connection points: 4
#     Node 2, Type 0, BuildingBlock: NAWXER_clean_linker_0, # of connection points: 4
#     Node 3, Type 0, BuildingBlock: NAWXER_clean_linker_0, # of connection points: 4
#     Node 4, Type 0, BuildingBlock: NAWXER_clean_linker_0, # of connection points: 4
#     Node 5, Type 0, BuildingBlock: NAWXER_clean_linker_0, # of connection points: 4
#     Node 6, Type 1, BuildingBlock: TAGTUT_clean_sbu_1, # of connection points: 8
#     Node 7, Type 1, BuildingBlock: TAGTUT_clean_sbu_1, # of connection points: 8
#     Node 8, Type 1, BuildingBlock: TAGTUT_clean_sbu_1, # of connection points: 8
#     Edge 9, Type (0, 1), BuildingBlock: UVAHIK_clean_linker_0, # of connection points: 2
#     Edge 10, Type (0, 1), BuildingBlock: UVAHIK_clean_linker_0, # of connection points: 2
#     Edge 11, Type (0, 1), BuildingBlock: UVAHIK_clean_linker_0, # of connection points: 2
#     Edge 12, Type (0, 1), BuildingBlock: UVAHIK_clean_linker_0, # of connection points: 2
#     Edge 13, Type (0, 1), BuildingBlock: UVAHIK_clean_linker_0, # of connection points: 2
#     Edge 14, Type (0, 1), BuildingBlock: UVAHIK_clean_linker_0, # of connection points: 2
#     Edge 15, Type (0, 1), BuildingBlock: UVAHIK_clean_linker_0, # of connection points: 2
#     Edge 16, Type (0, 1), BuildingBlock: UVAHIK_clean_linker_0, # of connection points: 2
#     Edge 17, Type (0, 1), BuildingBlock: UVAHIK_clean_linker_0, # of connection points: 2
#     Edge 18, Type (0, 1), BuildingBlock: UVAHIK_clean_linker_0, # of connection points: 2
#     Edge 19, Type (0, 1), BuildingBlock: UVAHIK_clean_linker_0, # of connection points: 2
#     Edge 20, Type (0, 1), BuildingBlock: UVAHIK_clean_linker_0, # of connection points: 2
#     Edge 21, Type (0, 1), BuildingBlock: UVAHIK_clean_linker_0, # of connection points: 2
#     Edge 22, Type (0, 1), BuildingBlock: UVAHIK_clean_linker_0, # of connection points: 2
#     Edge 23, Type (0, 1), BuildingBlock: UVAHIK_clean_linker_0, # of connection points: 2
#     Edge 24, Type (0, 1), BuildingBlock: UVAHIK_clean_linker_0, # of connection points: 2
#     Edge 25, Type (0, 1), BuildingBlock: UVAHIK_clean_linker_0, # of connection points: 2
#     Edge 26, Type (0, 1), BuildingBlock: UVAHIK_clean_linker_0, # of connection points: 2
#     Edge 27, Type (0, 1), BuildingBlock: UVAHIK_clean_linker_0, # of connection points: 2
#     Edge 28, Type (0, 1), BuildingBlock: UVAHIK_clean_linker_0, # of connection points: 2
#     Edge 29, Type (0, 1), BuildingBlock: UVAHIK_clean_linker_0, # of connection points: 2
#     Edge 30, Type (0, 1), BuildingBlock: UVAHIK_clean_linker_0, # of connection points: 2
#     Edge 31, Type (0, 1), BuildingBlock: UVAHIK_clean_linker_0, # of connection points: 2
#     Edge 32, Type (0, 1), BuildingBlock: UVAHIK_clean_linker_0, # of connection points: 2
# Relax obj value: 0.031
# Max RMSD: 0.128
# Mean RMSD: 0.042
data_MOF--net-csq--node1-TAGTUT_clean_sbu_1--node2-NAWXER_clean_linker_0--edge1-UVAHIK_clean_linker_0
_symmetry_space_group_name_H-M    P1
_symmetry_Int_Tables_number       1
_symmetry_cell_setting            triclinic
loop_
_symmetry_equiv_pos_as_xyz
'x, y, z'
_cell_length_a     75.55267
_cell_length_b     74.620758
_cell_length_c     27.496236
_cell_angle_alpha  92.605592
_cell_angle_beta   91.927741
_cell_angle_gamma 119.95379
loop_
_atom_site_label
_atom_site_type_symbol
_atom_site_fract_x
_atom_site_fract_y
_atom_site_fract_z
_atom_type_partial_charge
C0 C 0.312 0.49913 0.06524 0.0
C1 C 0.30703 0.48553 0.02326 0.0
C2 C 0.29677 0.49758 0.09531 0.0
C3 C 0.27623 0.48201 0.08497 0.0
C4 C 0.28648 0.46986 0.0134 0.0
C5 C 0.27136 0.46809 0.04391 0.0
C6 C 0.25932 0.48154 0.11217 0.0
C7 C 0.29737 0.47533 0.2342 0.0
C8 C 0.30611 0.49221 0.26942 0.0
C9 C 0.28302 0.47363 0.19811 0.0
C10 C 0.27714 0.48873 0.19696 0.0
C11 C 0.30045 0.50747 0.26757 0.0
C12 C 0.28594 0.50563 0.23194 0.0
C13 C 0.26031 0.48595 0.16298 0.0
C14 C 0.17523 0.46645 0.20551 0.0
C15 C 0.18057 0.48201 0.24323 0.0
C16 C 0.19013 0.46683 0.17585 0.0
C17 C 0.21058 0.48298 0.18287 0.0
C18 C 0.20097 0.49825 0.24969 0.0
C19 C 0.21579 0.49869 0.21997 0.0
C20 C 0.22714 0.48268 0.15597 0.0
C21 C 0.18738 0.48628 0.03305 0.0
C22 C 0.18181 0.47147 0.99332 0.0
C23 C 0.20098 0.48788 0.0711 0.0
C24 C 0.20891 0.4744 0.07068 0.0
C25 C 0.18933 0.45764 0.99393 0.0
C26 C 0.20265 0.45907 0.03216 0.0
C27 C 0.22597 0.47792 0.1052 0.0
H28 H 0.32764 0.51126 0.07456 0.0
H29 H 0.30105 0.50911 0.12543 0.0
H30 H 0.28181 0.45933 0.98106 0.0
H31 H 0.25565 0.45609 0.03449 0.0
H32 H 0.30157 0.46342 0.23475 0.0
H33 H 0.27609 0.46023 0.17205 0.0
H34 H 0.30682 0.52053 0.29456 0.0
H35 H 0.2814 0.51729 0.23201 0.0
H36 H 0.15968 0.4536 0.19999 0.0
H37 H 0.18576 0.45415 0.14863 0.0
H38 H 0.20554 0.51063 0.27792 0.0
H39 H 0.23146 0.51125 0.2264 0.0
H40 H 0.18167 0.49701 0.0342 0.0
H41 H 0.20596 0.50024 0.09954 0.0
H42 H 0.18573 0.44627 0.96377 0.0
H43 H 0.20874 0.44864 0.03064 0.0
N44 N 0.24211 0.47762 0.08567 0.0
N45 N 0.2443 0.48649 0.18262 0.0
C46 C 0.72274 0.2132 0.25427 0.0
C47 C 0.7163 0.19238 0.26185 0.0
C48 C 0.73683 0.22353 0.21966 0.0
C49 C 0.74469 0.21326 0.19144 0.0
C50 C 0.72412 0.18206 0.23347 0.0
C51 C 0.73821 0.19241 0.19868 0.0
C52 C 0.76088 0.22508 0.15784 0.0
C53 C 0.73282 0.16999 0.0227 0.0
C54 C 0.71293 0.16703 0.02172 0.0
C55 C 0.74842 0.18562 0.05385 0.0
C56 C 0.74443 0.19853 0.08471 0.0
C57 C 0.7088 0.17952 0.05375 0.0
C58 C 0.72441 0.19522 0.08463 0.0
C59 C 0.76168 0.2173 0.11053 0.0
C60 C 0.84811 0.28097 0.06525 0.0
C61 C 0.84481 0.28301 0.01572 0.0
C62 C 0.83162 0.2689 0.09297 0.0
C63 C 0.81148 0.25898 0.07191 0.0
C64 C 0.82474 0.27213 0.99409 0.0
C65 C 0.80824 0.26018 0.02193 0.0
C66 C 0.79376 0.24783 0.10199 0.0
C67 C 0.82406 0.31497 0.15267 0.0
C68 C 0.83267 0.31948 0.20082 0.0
C69 C 0.81068 0.29447 0.13518 0.0
C70 C 0.80598 0.27813 0.16524 0.0
C71 C 0.82755 0.30311 0.23115 0.0
C72 C 0.81424 0.28263 0.21356 0.0
C73 C 0.79191 0.2564 0.14702 0.0
H74 H 0.71726 0.22169 0.27594 0.0
H75 H 0.74173 0.23967 0.21518 0.0
H76 H 0.71936 0.16597 0.2382 0.0
H77 H 0.74439 0.18425 0.17833 0.0
H78 H 0.7364 0.16048 0.9987 0.0
H79 H 0.76378 0.18803 0.05279 0.0
H80 H 0.6937 0.17785 0.0532 0.0
H81 H 0.721 0.20543 0.10645 0.0
H82 H 0.86344 0.28884 0.08265 0.0
H83 H 0.83458 0.26766 0.13113 0.0
H84 H 0.8217 0.27349 0.95605 0.0
H85 H 0.79286 0.25252 0.00481 0.0
H86 H 0.8275 0.32728 0.12875 0.0
H87 H 0.80394 0.2914 0.09819 0.0
H88 H 0.83413 0.3061 0.26827 0.0
H89 H 0.81066 0.27027 0.23746 0.0
N90 N 0.77586 0.24451 0.17375 0.0
N91 N 0.77832 0.22883 0.08493 0.0
C92 C 0.56775 0.7257 0.0211 0.0
C93 C 0.55019 0.71138 0.99206 0.0
C94 C 0.56977 0.74439 0.03961 0.0
C95 C 0.55421 0.74905 0.02978 0.0
C96 C 0.53491 0.71637 0.98106 0.0
C97 C 0.53697 0.73512 0.99956 0.0
C98 C 0.55554 0.76801 0.05271 0.0
C99 C 0.54188 0.72287 0.16364 0.0
C100 C 0.55955 0.72746 0.19246 0.0
C101 C 0.54145 0.73793 0.13636 0.0
C102 C 0.55868 0.75784 0.13724 0.0
C103 C 0.57646 0.74774 0.19512 0.0
C104 C 0.57598 0.76287 0.16779 0.0
C105 C 0.55891 0.77278 0.10368 0.0
C106 C 0.54284 0.843 0.13015 0.0
C107 C 0.56108 0.85943 0.15295 0.0
C108 C 0.54203 0.82483 0.11195 0.0
C109 C 0.55939 0.82265 0.11647 0.0
C110 C 0.57835 0.85695 0.15819 0.0
C111 C 0.57743 0.83863 0.14047 0.0
C112 C 0.55895 0.80419 0.09353 0.0
C113 C 0.56543 0.84762 0.98209 0.0
C114 C 0.54724 0.84042 0.95277 0.0
C115 C 0.56842 0.83406 0.00979 0.0
C116 C 0.55317 0.81312 0.00924 0.0
C117 C 0.53238 0.81923 0.95064 0.0
C118 C 0.53538 0.80567 0.97854 0.0
C119 C 0.55528 0.79929 0.04265 0.0
H120 H 0.57975 0.72228 0.03034 0.0
H121 H 0.58337 0.7551 0.06225 0.0
H122 H 0.52137 0.70579 0.95807 0.0
H123 H 0.52486 0.73851 0.99137 0.0
H124 H 0.52842 0.70756 0.1618 0.0
H125 H 0.52781 0.73389 0.11357 0.0
H126 H 0.5903 0.75172 0.21694 0.0
H127 H 0.58939 0.77821 0.1689 0.0
H128 H 0.5291 0.84409 0.12652 0.0
H129 H 0.52791 0.81253 0.09384 0.0
H130 H 0.59272 0.86932 0.17501 0.0
H131 H 0.591 0.83721 0.14397 0.0
H132 H 0.57712 0.86386 0.98479 0.0
H133 H 0.58245 0.84004 0.0326 0.0
H134 H 0.51837 0.81317 0.92773 0.0
H135 H 0.52351 0.78951 0.97741 0.0
N136 N 0.5536 0.78132 0.02393 0.0
N137 N 0.56067 0.79079 0.12243 0.0
C138 C 0.84021 0.54654 0.01427 0.0
C139 C 0.83488 0.52873 0.98363 0.0
C140 C 0.82554 0.54762 0.04218 0.0
C141 C 0.8053 0.53099 0.03946 0.0
C142 C 0.81466 0.51207 0.98148 0.0
C143 C 0.79999 0.51329 0.00871 0.0
C144 C 0.78911 0.53245 0.06508 0.0
C145 C 0.82813 0.52834 0.18863 0.0
C146 C 0.83368 0.54313 0.22815 0.0
C147 C 0.81478 0.52702 0.1503 0.0
C148 C 0.80724 0.54086 0.1504 0.0
C149 C 0.82666 0.55731 0.22754 0.0
C150 C 0.81365 0.55624 0.18895 0.0
C151 C 0.79038 0.53767 0.11558 0.0
C152 C 0.70513 0.51962 0.15339 0.0
C153 C 0.71042 0.53327 0.1954 0.0
C154 C 0.72022 0.52059 0.12356 0.0
C155 C 0.74093 0.53562 0.13422 0.0
C156 C 0.73115 0.54841 0.20553 0.0
C157 C 0.74612 0.54961 0.17528 0.0
C158 C 0.75762 0.53533 0.10754 0.0
C159 C 0.72171 0.54382 0.98472 0.0
C160 C 0.71245 0.52709 0.94898 0.0
C161 C 0.73551 0.54465 0.0211 0.0
C162 C 0.74035 0.5288 0.02235 0.0
C163 C 0.71707 0.51106 0.95111 0.0
C164 C 0.73105 0.51203 0.98711 0.0
C165 C 0.75664 0.53066 0.05683 0.0
H166 H 0.8557 0.55958 0.01669 0.0
H167 H 0.82989 0.5616 0.06496 0.0
H168 H 0.81008 0.49825 0.95781 0.0
H169 H 0.7844 0.50038 0.00564 0.0
H170 H 0.83322 0.5171 0.18871 0.0
H171 H 0.80955 0.5145 0.12221 0.0
H172 H 0.83086 0.56892 0.25752 0.0
H173 H 0.80796 0.567 0.19014 0.0
H174 H 0.68936 0.50789 0.14386 0.0
H175 H 0.71567 0.50901 0.09341 0.0
H176 H 0.73605 0.55894 0.23792 0.0
H177 H 0.76196 0.56119 0.18495 0.0
H178 H 0.71878 0.55661 0.9838 0.0
H179 H 0.74292 0.558 0.04724 0.0
H180 H 0.70995 0.49774 0.92489 0.0
H181 H 0.73469 0.49971 0.98731 0.0
N182 N 0.77229 0.52919 0.0378 0.0
N183 N 0.77455 0.53877 0.13452 0.0
C184 C 0.28845 0.82595 0.99209 0.0
C185 C 0.29779 0.81739 0.9632 0.0
C186 C 0.27513 0.81446 0.02719 0.0
C187 C 0.27091 0.79418 0.03399 0.0
C188 C 0.29383 0.79725 0.97078 0.0
C189 C 0.28039 0.78572 0.00552 0.0
C190 C 0.25511 0.78094 0.06684 0.0
C191 C 0.30548 0.82861 0.1725 0.0
C192 C 0.29971 0.83917 0.20624 0.0
C193 C 0.29075 0.81243 0.14088 0.0
C194 C 0.27003 0.80678 0.14177 0.0
C195 C 0.2791 0.83392 0.20621 0.0
C196 C 0.26441 0.81788 0.17425 0.0
C197 C 0.25385 0.7875 0.11513 0.0
C198 C 0.18592 0.70858 0.18572 0.0
C199 C 0.17333 0.71539 0.20623 0.0
C200 C 0.2025 0.72185 0.15984 0.0
C201 C 0.20658 0.74206 0.15302 0.0
C202 C 0.17805 0.73598 0.20161 0.0
C203 C 0.19458 0.74923 0.17516 0.0
C204 C 0.22302 0.75549 0.12186 0.0
C205 C 0.17303 0.70418 0.02788 0.0
C206 C 0.17783 0.68863 0.01595 0.0
C207 C 0.18832 0.72399 0.04521 0.0
C208 C 0.20873 0.72869 0.05069 0.0
C209 C 0.19845 0.69364 0.02008 0.0
C210 C 0.2138 0.71359 0.03697 0.0
C211 C 0.22446 0.74886 0.07412 0.0
H212 H 0.29131 0.84148 0.98725 0.0
H213 H 0.26766 0.82118 0.0479 0.0
H214 H 0.30061 0.79015 0.94875 0.0
H215 H 0.27719 0.77003 0.00974 0.0
H216 H 0.32124 0.83215 0.17227 0.0
H217 H 0.29548 0.80367 0.11771 0.0
H218 H 0.27428 0.84194 0.23157 0.0
H219 H 0.24851 0.81371 0.176 0.0
H220 H 0.18294 0.69296 0.18977 0.0
H221 H 0.21199 0.71621 0.14457 0.0
H222 H 0.16862 0.74162 0.21722 0.0
H223 H 0.19762 0.76485 0.17075 0.0
H224 H 0.15743 0.70109 0.02381 0.0
H225 H 0.18419 0.73558 0.05517 0.0
H226 H 0.20269 0.68203 0.01146 0.0
H227 H 0.22951 0.71699 0.04121 0.0
N228 N 0.2404 0.76175 0.04836 0.0
N229 N 0.23772 0.77454 0.14055 0.0
C230 C 0.46926 0.17103 0.11878 0.0
C231 C 0.45636 0.15862 0.07827 0.0
C232 C 0.46844 0.1883 0.13725 0.0
C233 C 0.45408 0.19306 0.11706 0.0
C234 C 0.44271 0.16411 0.05662 0.0
C235 C 0.44156 0.18111 0.07594 0.0
C236 C 0.45228 0.21064 0.13816 0.0
C237 C 0.43855 0.16441 0.24665 0.0
C238 C 0.45433 0.17176 0.28372 0.0
C239 C 0.43658 0.17824 0.21757 0.0
C240 C 0.45062 0.1996 0.22451 0.0
C241 C 0.46736 0.19326 0.29294 0.0
C242 C 0.46547 0.20707 0.2636 0.0
C243 C 0.45113 0.21399 0.18876 0.0
C244 C 0.43999 0.28883 0.1954 0.0
C245 C 0.45622 0.30245 0.22879 0.0
C246 C 0.43801 0.26987 0.17909 0.0
C247 C 0.45219 0.26426 0.1961 0.0
C248 C 0.46986 0.29638 0.2472 0.0
C249 C 0.46774 0.27735 0.23129 0.0
C250 C 0.45186 0.24556 0.17491 0.0
C251 C 0.47265 0.29319 0.06638 0.0
C252 C 0.45929 0.28737 0.02439 0.0
C253 C 0.47101 0.27842 0.09793 0.0
C254 C 0.45555 0.25761 0.08918 0.0
C255 C 0.44448 0.26629 0.0144 0.0
C256 C 0.44264 0.25155 0.04655 0.0
C257 C 0.45292 0.2422 0.12436 0.0
H258 H 0.47988 0.16734 0.13677 0.0
H259 H 0.47888 0.19777 0.1678 0.0
H260 H 0.43298 0.15537 0.02449 0.0
H261 H 0.43069 0.18478 0.05908 0.0
H262 H 0.42802 0.14794 0.23947 0.0
H263 H 0.4247 0.17221 0.18825 0.0
H264 H 0.47966 0.19935 0.32125 0.0
H265 H 0.47636 0.22352 0.26972 0.0
H266 H 0.42925 0.29314 0.18079 0.0
H267 H 0.42577 0.25983 0.15224 0.0
H268 H 0.48228 0.30646 0.27363 0.0
H269 H 0.47877 0.27323 0.24495 0.0
H270 H 0.48413 0.30923 0.07567 0.0
H271 H 0.48167 0.28336 0.12967 0.0
H272 H 0.43425 0.26116 0.98184 0.0
H273 H 0.43087 0.23549 0.03864 0.0
N274 N 0.4529 0.22477 0.10779 0.0
N275 N 0.4512 0.23145 0.20534 0.0
C276 C 0.98578 0.43815 0.72024 0.0
C277 C 0.04385 0.47607 0.65741 0.0
C278 C 0.0303 0.53871 0.69234 0.0
Mg279 Mg -0.00105 0.45421 0.61796 0.0
O280 O 0.99601 0.476 0.64588 0.0
Mg281 Mg 0.01215 0.49007 0.70899 0.0
Mg282 Mg 0.00465 0.50112 0.6089 0.0
O283 O 0.0134 0.52614 0.57157 0.0
Mg284 Mg 0.01153 0.54876 0.59829 0.0
Mg285 Mg 0.99726 0.51196 0.50839 0.0
C286 C 0.97872 0.46349 0.52525 0.0
C287 C 0.03274 0.4998 0.52226 0.0
O288 O 0.99533 0.45706 0.73857 0.0
O289 O 0.98469 0.43346 0.67434 0.0
O290 O 0.03893 0.48553 0.68928 0.0
O291 O 0.03104 0.46362 0.62356 0.0
O292 O 0.98362 0.45137 0.54641 0.0
O293 O 0.9827 0.48107 0.5455 0.0
C294 C 0.97578 0.50097 0.69519 0.0
O295 O 0.98011 0.50484 0.65062 0.0
O296 O 0.98549 0.49501 0.72306 0.0
O297 O 0.01485 0.54467 0.47816 0.0
O298 O 0.02659 0.56894 0.54117 0.0
O299 O 0.97109 0.51772 0.52744 0.0
C300 C 0.02509 0.5637 0.49544 0.0
O301 O 0.97986 0.54058 0.59153 0.0
O302 O 0.02587 0.5511 0.67095 0.0
C303 C 0.96675 0.52801 0.55837 0.0
O304 O 0.02638 0.52115 0.67222 0.0
O305 O 0.02915 0.49733 0.56759 0.0
O306 O 0.02293 0.5055 0.49392 0.0
C307 C 0.46792 0.01061 0.76913 0.0
C308 C 0.44601 0.95703 0.66925 0.0
C309 C 0.52626 0.98174 0.65696 0.0
Mg310 Mg 0.46314 0.00335 0.65638 0.0
O311 O 0.49005 0.00892 0.66722 0.0
Mg312 Mg 0.49456 0.99125 0.71314 0.0
Mg313 Mg 0.50525 0.00681 0.61135 0.0
O314 O 0.52046 0.00462 0.55596 0.0
Mg315 Mg 0.5473 0.01019 0.56869 0.0
Mg316 Mg 0.51623 0.02234 0.5098 0.0
C317 C 0.4837 0.03128 0.56625 0.0
C318 C 0.47264 0.9804 0.51918 0.0
O319 O 0.47967 0.00273 0.77029 0.0
O320 O 0.46025 0.01289 0.72916 0.0
O321 O 0.46297 0.96232 0.69288 0.0
O322 O 0.44306 0.9703 0.6482 0.0
O323 O 0.46874 0.02238 0.59412 0.0
O324 O 0.50005 0.03005 0.57143 0.0
C325 C 0.53799 0.0333 0.70331 0.0
O326 O 0.53457 0.03203 0.65679 0.0
O327 O 0.52517 0.0199 0.73027 0.0
O328 O 0.53189 0.01106 0.45324 0.0
O329 O 0.55081 0.00094 0.49672 0.0
O330 O 0.54765 0.05124 0.53111 0.0
C331 C 0.54377 0.00331 0.45592 0.0
O332 O 0.56747 0.04328 0.57632 0.0
O333 O 0.54162 0.99068 0.63024 0.0
C334 C 0.56453 0.05653 0.55512 0.0
O335 O 0.5103 0.98356 0.65102 0.0
O336 O 0.47601 0.98165 0.56574 0.0
O337 O 0.48561 0.99373 0.4923 0.0
C338 C 0.54186 0.56495 0.48108 0.0
C339 C 0.56263 0.52353 0.52218 0.0
C340 C 0.48274 0.46747 0.5335 0.0
Mg341 Mg 0.54948 0.55089 0.58009 0.0
O342 O 0.52183 0.53095 0.5664 0.0
Mg343 Mg 0.51408 0.51413 0.5024 0.0
Mg344 Mg 0.50832 0.50802 0.61038 0.0
O345 O 0.49481 0.48505 0.6544 0.0
Mg346 Mg 0.46702 0.46516 0.64143 0.0
Mg347 Mg 0.50286 0.5019 0.71843 0.0
C348 C 0.53348 0.54879 0.68738 0.0
C349 C 0.54355 0.50497 0.67411 0.0
O350 O 0.52911 0.54588 0.46706 0.0
O351 O 0.55089 0.57051 0.52393 0.0
O352 O 0.54483 0.51446 0.49997 0.0
O353 O 0.56751 0.53734 0.5572 0.0
O354 O 0.54741 0.55827 0.6573 0.0
O355 O 0.51717 0.5314 0.67507 0.0
C356 C 0.47337 0.51127 0.54626 0.0
O357 O 0.47868 0.50814 0.58844 0.0
O358 O 0.48423 0.51413 0.50947 0.0
O359 O 0.48844 0.47016 0.75326 0.0
O360 O 0.46574 0.44548 0.6976 0.0
O361 O 0.4721 0.50147 0.72164 0.0
C362 C 0.47546 0.45111 0.7397 0.0
O363 O 0.44912 0.47884 0.66454 0.0
O364 O 0.46888 0.45808 0.56382 0.0
C365 C 0.45426 0.49263 0.69971 0.0
O366 O 0.49932 0.48462 0.54581 0.0
O367 O 0.53805 0.50796 0.632 0.0
O368 O 0.53278 0.50214 0.71104 0.0
C369 C 0.17001 0.48579 0.32705 0.0
C370 C 0.1651 0.48119 0.27654 0.0
C371 C 0.15569 0.48553 0.3584 0.0
C372 C 0.10006 0.46666 0.36512 0.0
H373 H 0.11836 0.51066 0.46799 0.0
C374 C 0.04633 0.49077 0.4497 0.0
C375 C 0.04783 0.4952 0.50042 0.0
C376 C 0.06046 0.4868 0.4276 0.0
C377 C 0.11307 0.49807 0.44 0.0
H378 H 0.14126 0.47269 0.21941 0.0
H379 H 0.11635 0.4725 0.27384 0.0
H380 H 0.14343 0.50827 0.41844 0.0
H381 H 0.06533 0.49875 0.56785 0.0
H382 H 0.09048 0.49206 0.52872 0.0
H383 H 0.06965 0.45697 0.38557 0.0
C384 C 0.13115 0.47592 0.28949 0.0
C385 C 0.12742 0.49668 0.41152 0.0
C386 C 0.14544 0.47608 0.25818 0.0
C387 C 0.06376 0.49534 0.52873 0.0
C388 C 0.07817 0.49162 0.50634 0.0
C389 C 0.08574 0.46813 0.39335 0.0
C390 C 0.13611 0.48072 0.34002 0.0
C391 C 0.12106 0.4812 0.37303 0.0
C392 C 0.07662 0.48731 0.45547 0.0
C393 C 0.09205 0.48411 0.4304 0.0
H394 H 0.18492 0.48944 0.34248 0.0
H395 H 0.15995 0.48896 0.39712 0.0
H396 H 0.09462 0.45423 0.33666 0.0
H397 H 0.03417 0.49035 0.42676 0.0
H398 H 0.05899 0.48381 0.38833 0.0
C399 C 0.70475 0.16875 0.33066 0.0
C400 C 0.70176 0.18166 0.29982 0.0
C401 C 0.69114 0.15884 0.36662 0.0
C402 C 0.63802 0.1407 0.39615 0.0
H403 H 0.65652 0.13452 0.52431 0.0
C404 C 0.57901 0.09254 0.52855 0.0
C405 C 0.58221 0.07735 0.54883 0.0
C406 C 0.59503 0.10947 0.50832 0.0
C407 C 0.6511 0.13608 0.48867 0.0
H408 H 0.68207 0.19424 0.28262 0.0
H409 H 0.65846 0.1771 0.34554 0.0
H410 H 0.68162 0.15523 0.46682 0.0
H411 H 0.60528 0.06932 0.56878 0.0
H412 H 0.63305 0.09853 0.53276 0.0
H413 H 0.60762 0.12107 0.4168 0.0
C414 C 0.67128 0.17456 0.34179 0.0
C415 C 0.66548 0.14791 0.45571 0.0
C416 C 0.68491 0.18451 0.30597 0.0
C417 C 0.60225 0.08068 0.55327 0.0
C418 C 0.61823 0.0975 0.53253 0.0
C419 C 0.62369 0.12885 0.42891 0.0
C420 C 0.67418 0.16154 0.37243 0.0
C421 C 0.65909 0.15013 0.40884 0.0
C422 C 0.61455 0.11147 0.50749 0.0
C423 C 0.63 0.12616 0.47541 0.0
H424 H 0.71772 0.16643 0.32728 0.0
H425 H 0.69369 0.14872 0.38925 0.0
H426 H 0.63255 0.14181 0.36011 0.0
H427 H 0.56382 0.09062 0.52524 0.0
H428 H 0.5918 0.12032 0.49076 0.0
C429 C 0.56904 0.71481 0.26658 0.0
C430 C 0.56031 0.71089 0.21861 0.0
C431 C 0.56885 0.69885 0.29163 0.0
C432 C 0.53995 0.64242 0.29469 0.0
H433 H 0.58661 0.65037 0.37594 0.0
C434 C 0.53755 0.57602 0.39875 0.0
C435 C 0.54591 0.58124 0.4472 0.0
C436 C 0.54078 0.59153 0.36763 0.0
C437 C 0.5734 0.64796 0.35368 0.0
H438 H 0.54548 0.68742 0.15844 0.0
H439 H 0.54494 0.65954 0.20242 0.0
H440 H 0.58967 0.67841 0.32792 0.0
H441 H 0.56449 0.60692 0.50065 0.0
H442 H 0.56973 0.6338 0.44685 0.0
H443 H 0.52347 0.61224 0.32124 0.0
C444 C 0.55163 0.67487 0.22086 0.0
C445 C 0.57517 0.664 0.32619 0.0
C446 C 0.55189 0.69082 0.19579 0.0
C447 C 0.55785 0.6023 0.46353 0.0
C448 C 0.56099 0.61776 0.43254 0.0
C449 C 0.53813 0.62644 0.32236 0.0
C450 C 0.55989 0.67867 0.2692 0.0
C451 C 0.55841 0.66143 0.29673 0.0
C452 C 0.55237 0.61257 0.38436 0.0
C453 C 0.55477 0.62909 0.35253 0.0
H454 H 0.5755 0.73007 0.28524 0.0
H455 H 0.57515 0.70215 0.32906 0.0
H456 H 0.52669 0.6401 0.27278 0.0
H457 H 0.52839 0.55997 0.38488 0.0
H458 H 0.53416 0.58703 0.33048 0.0
C459 C 0.86431 0.54355 0.267 0.0
C460 C 0.84557 0.54288 0.27159 0.0
C461 C 0.87535 0.54314 0.30831 0.0
C462 C 0.86962 0.52386 0.42782 0.0
H463 H 0.92732 0.56449 0.45104 0.0
C464 C 0.94618 0.54575 0.5606 0.0
C465 C 0.94725 0.52775 0.54962 0.0
C466 C 0.93039 0.54791 0.53907 0.0
C467 C 0.91113 0.55325 0.44564 0.0
H468 H 0.82339 0.5409 0.32226 0.0
H469 H 0.84252 0.53961 0.39453 0.0
H470 H 0.90724 0.56836 0.38516 0.0
H471 H 0.93138 0.49693 0.51289 0.0
H472 H 0.90361 0.50054 0.47627 0.0
H473 H 0.87384 0.50809 0.48657 0.0
C474 C 0.84876 0.54078 0.35915 0.0
C475 C 0.89974 0.55536 0.40767 0.0
C476 C 0.83793 0.54161 0.31799 0.0
C477 C 0.93101 0.51104 0.52163 0.0
C478 C 0.91506 0.51307 0.50082 0.0
C479 C 0.88112 0.52153 0.46533 0.0
C480 C 0.86759 0.54162 0.35463 0.0
C481 C 0.87902 0.54048 0.39786 0.0
C482 C 0.91526 0.53194 0.50716 0.0
C483 C 0.90207 0.53603 0.47398 0.0
H484 H 0.87046 0.54454 0.23156 0.0
H485 H 0.88978 0.54363 0.30399 0.0
H486 H 0.85364 0.51217 0.42075 0.0
H487 H 0.95848 0.55887 0.58209 0.0
H488 H 0.93073 0.56254 0.54478 0.0
C489 C 0.31068 0.85389 0.29277 0.0
C490 C 0.31498 0.8547 0.24328 0.0
C491 C 0.32556 0.86769 0.32821 0.0
C492 C 0.37326 0.91799 0.34387 0.0
H493 H 0.38634 0.89601 0.45614 0.0
C494 C 0.45148 0.96138 0.44325 0.0
C495 C 0.45314 0.9639 0.4945 0.0
C496 C 0.43285 0.94781 0.41826 0.0
C497 C 0.3826 0.90241 0.42549 0.0
H498 H 0.33796 0.87082 0.1919 0.0
H499 H 0.36395 0.89499 0.25367 0.0
H500 H 0.35642 0.87315 0.40084 0.0
H501 H 0.43663 0.95305 0.55967 0.0
H502 H 0.40366 0.92903 0.51543 0.0
H503 H 0.3996 0.94705 0.36749 0.0
C504 C 0.34907 0.88373 0.26509 0.0
C505 C 0.36553 0.88936 0.39385 0.0
C506 C 0.33428 0.86982 0.22978 0.0
C507 C 0.43581 0.95162 0.52027 0.0
C508 C 0.41698 0.93788 0.49498 0.0
C509 C 0.3902 0.93098 0.37539 0.0
C510 C 0.34492 0.8827 0.31469 0.0
C511 C 0.36112 0.89692 0.35192 0.0
C512 C 0.41529 0.93633 0.44366 0.0
C513 C 0.39545 0.92317 0.41554 0.0
H514 H 0.29598 0.84222 0.30422 0.0
H515 H 0.32196 0.86662 0.36615 0.0
H516 H 0.36995 0.92432 0.31243 0.0
H517 H 0.46454 0.97023 0.42202 0.0
H518 H 0.43216 0.94647 0.37874 0.0
C519 C 0.4787 0.34079 0.24429 0.0
C520 C 0.4592 0.32309 0.24408 0.0
C521 C 0.48193 0.36012 0.26171 0.0
C522 C 0.45524 0.38853 0.30085 0.0
H523 H 0.50341 0.41897 0.38985 0.0
C524 C 0.46086 0.44021 0.46785 0.0
C525 C 0.47997 0.45724 0.48429 0.0
C526 C 0.45897 0.42795 0.42601 0.0
C527 C 0.49014 0.411 0.36425 0.0
H528 H 0.42764 0.31172 0.26024 0.0
H529 H 0.43333 0.34536 0.29211 0.0
H530 H 0.49885 0.38911 0.34022 0.0
H531 H 0.51173 0.4758 0.46733 0.0
H532 H 0.50841 0.45431 0.39413 0.0
H533 H 0.44608 0.40996 0.32729 0.0
C534 C 0.44608 0.34448 0.27785 0.0
C535 C 0.48749 0.39381 0.33572 0.0
C536 C 0.44281 0.32516 0.25991 0.0
C537 C 0.49681 0.46273 0.45581 0.0
C538 C 0.49495 0.45036 0.41402 0.0
C539 C 0.45784 0.40571 0.32966 0.0
C540 C 0.46577 0.36212 0.27983 0.0
C541 C 0.46976 0.38202 0.30464 0.0
C542 C 0.47618 0.4324 0.3998 0.0
C543 C 0.47506 0.41678 0.36262 0.0
H544 H 0.49151 0.33965 0.23133 0.0
H545 H 0.49719 0.37344 0.26178 0.0
H546 H 0.4416 0.38003 0.27658 0.0
H547 H 0.44752 0.4357 0.48867 0.0
H548 H 0.44433 0.41416 0.41623 0.0
C549 C 0.52437 0.8538 0.92434 0.0
C550 C 0.54363 0.85516 0.92572 0.0
C551 C 0.52125 0.86824 0.90058 0.0
C552 C 0.54919 0.92091 0.85834 0.0
H553 H 0.50155 0.90229 0.76886 0.0
C554 C 0.54595 0.97009 0.70837 0.0
C555 C 0.52739 0.96936 0.69613 0.0
C556 C 0.54688 0.95734 0.74261 0.0
C557 C 0.51473 0.90779 0.79443 0.0
H558 H 0.57454 0.8724 0.9022 0.0
H559 H 0.56911 0.89762 0.86093 0.0
H560 H 0.50504 0.87722 0.81617 0.0
H561 H 0.49532 0.95504 0.71135 0.0
H562 H 0.49701 0.9328 0.77164 0.0
H563 H 0.55907 0.95141 0.83604 0.0
C564 C 0.55653 0.8856 0.87892 0.0
C565 C 0.51675 0.89343 0.82141 0.0
C566 C 0.55963 0.87114 0.90246 0.0
C567 C 0.50987 0.95601 0.72002 0.0
C568 C 0.51079 0.94317 0.75429 0.0
C569 C 0.54714 0.93527 0.83152 0.0
C570 C 0.53735 0.88437 0.87796 0.0
C571 C 0.53423 0.89979 0.85278 0.0
C572 C 0.52927 0.94354 0.76545 0.0
C573 C 0.53013 0.92879 0.79845 0.0
H574 H 0.51182 0.84185 0.94256 0.0
H575 H 0.50635 0.86702 0.90069 0.0
H576 H 0.56262 0.92631 0.88304 0.0
H577 H 0.55977 0.98024 0.69082 0.0
H578 H 0.56129 0.95781 0.7499 0.0
C579 C 0.68453 0.53359 0.91871 0.0
C580 C 0.69821 0.52644 0.90932 0.0
C581 C 0.67086 0.53255 0.88171 0.0
C582 C 0.64237 0.50221 0.77112 0.0
H583 H 0.63106 0.547 0.75547 0.0
C584 C 0.56421 0.49134 0.71215 0.0
C585 C 0.56309 0.5054 0.6818 0.0
C586 C 0.5831 0.49361 0.7267 0.0
C587 C 0.6343 0.53449 0.75865 0.0
H588 H 0.70865 0.51322 0.85291 0.0
H589 H 0.68422 0.51074 0.78884 0.0
H590 H 0.66037 0.55291 0.80848 0.0
H591 H 0.58062 0.53246 0.64163 0.0
H592 H 0.61394 0.5367 0.66779 0.0
H593 H 0.61564 0.48348 0.72334 0.0
C594 C 0.68418 0.51716 0.82495 0.0
C595 C 0.65092 0.53781 0.78934 0.0
C596 C 0.69804 0.51845 0.86179 0.0
C597 C 0.58111 0.52123 0.66431 0.0
C598 C 0.60012 0.52375 0.67961 0.0
C599 C 0.62559 0.49881 0.74091 0.0
C600 C 0.67042 0.52413 0.83465 0.0
C601 C 0.65476 0.52154 0.79687 0.0
C602 C 0.60127 0.51023 0.71189 0.0
C603 C 0.6211 0.51477 0.73547 0.0
H604 H 0.68398 0.53953 0.95496 0.0
H605 H 0.66017 0.53771 0.89035 0.0
H606 H 0.64496 0.48938 0.77646 0.0
H607 H 0.55048 0.47903 0.72613 0.0
H608 H 0.58355 0.48312 0.75205 0.0
C609 C 0.1644 0.65609 0.96085 0.0
C610 C 0.16133 0.66742 0.99862 0.0
C611 C 0.1482 0.63709 0.94128 0.0
C612 C 0.09472 0.6139 0.91349 0.0
H613 H 0.09548 0.56327 0.87999 0.0
C614 C 0.03363 0.55405 0.77643 0.0
C615 C 0.04062 0.54532 0.74126 0.0
C616 C 0.0454 0.56374 0.81981 0.0
C617 C 0.09505 0.57733 0.88873 0.0
H618 H 0.13921 0.66678 0.04806 0.0
H619 H 0.11076 0.63405 0.01216 0.0
H620 H 0.12304 0.59068 0.93393 0.0
H621 H 0.06449 0.53853 0.72424 0.0
H622 H 0.08586 0.55672 0.79812 0.0
H623 H 0.06806 0.6019 0.86562 0.0
C624 C 0.12574 0.63995 0.99798 0.0
C625 C 0.11075 0.59291 0.91992 0.0
C626 C 0.14197 0.65877 0.01805 0.0
C627 C 0.05887 0.54521 0.75113 0.0
C628 C 0.07103 0.55555 0.79378 0.0
C629 C 0.07935 0.59863 0.88155 0.0
C630 C 0.12863 0.6292 0.95874 0.0
C631 C 0.11085 0.61144 0.93178 0.0
C632 C 0.06482 0.56567 0.82788 0.0
C633 C 0.07948 0.58028 0.86779 0.0
H634 H 0.17902 0.66233 0.94474 0.0
H635 H 0.1507 0.62917 0.91059 0.0
H636 H 0.09465 0.62821 0.92159 0.0
H637 H 0.01936 0.55394 0.76966 0.0
H638 H 0.03966 0.57057 0.84593 0.0
C639 C 0.47598 0.14034 0.05918 0.0
C640 C 0.45731 0.14025 0.05829 0.0
C641 C 0.47698 0.12338 0.03908 0.0
C642 C 0.44441 0.06835 0.98762 0.0
H643 H 0.4923 0.08182 0.91577 0.0
C644 C 0.44745 0.02172 0.81832 0.0
C645 C 0.46464 0.01925 0.815 0.0
C646 C 0.44597 0.03298 0.85834 0.0
C647 C 0.479 0.07776 0.93642 0.0
H648 H 0.42483 0.12162 0.03705 0.0
H649 H 0.42682 0.09283 0.99896 0.0
H650 H 0.49116 0.10895 0.96522 0.0
H651 H 0.49321 0.02564 0.85205 0.0
H652 H 0.49083 0.04586 0.92151 0.0
H653 H 0.43179 0.03734 0.95525 0.0
C654 C 0.44066 0.10574 0.01647 0.0
C655 C 0.47832 0.09331 0.965 0.0
C656 C 0.43959 0.12253 0.0375 0.0
C657 C 0.47976 0.02725 0.85373 0.0
C658 C 0.47846 0.03886 0.89333 0.0
C659 C 0.44495 0.05288 0.95818 0.0
C660 C 0.45942 0.10601 0.0165 0.0
C661 C 0.46087 0.08892 0.99033 0.0
C662 C 0.46181 0.04225 0.89527 0.0
C663 C 0.46213 0.05756 0.9318 0.0
H664 H 0.49003 0.15372 0.07434 0.0
H665 H 0.49163 0.12404 0.04073 0.0
H666 H 0.43091 0.06424 0.00744 0.0
H667 H 0.43552 0.01562 0.78909 0.0
H668 H 0.43305 0.03552 0.85887 0.0
C669 C 0.33908 0.50806 0.98033 0.0
C670 C 0.32287 0.48818 0.98859 0.0
C671 C 0.35334 0.51057 0.9462 0.0
C672 C 0.35938 0.48724 0.83394 0.0
H673 H 0.41731 0.51551 0.87279 0.0
C674 C 0.41775 0.48068 0.71552 0.0
C675 C 0.43845 0.49626 0.72085 0.0
C676 C 0.40334 0.48195 0.74387 0.0
C677 C 0.40127 0.50801 0.86069 0.0
H678 H 0.30959 0.4553 0.9678 0.0
H679 H 0.33395 0.4599 0.90691 0.0
H680 H 0.39307 0.51335 0.93162 0.0
H681 H 0.45995 0.5263 0.75681 0.0
H682 H 0.43468 0.52915 0.80414 0.0
H683 H 0.36737 0.48224 0.76282 0.0
C684 C 0.33549 0.47348 0.92706 0.0
C685 C 0.38738 0.50664 0.89472 0.0
C686 C 0.32148 0.4709 0.96187 0.0
C687 C 0.44413 0.51392 0.75226 0.0
C688 C 0.42964 0.51541 0.77989 0.0
C689 C 0.37329 0.48896 0.79956 0.0
C690 C 0.3515 0.49332 0.91883 0.0
C691 C 0.36629 0.49593 0.8819 0.0
C692 C 0.40918 0.49905 0.77759 0.0
C693 C 0.39444 0.49904 0.81263 0.0
H694 H 0.34054 0.52182 0.99928 0.0
H695 H 0.36554 0.52605 0.94033 0.0
H696 H 0.34317 0.47911 0.82305 0.0
H697 H 0.41287 0.46679 0.69187 0.0
H698 H 0.38787 0.4689 0.74113 0.0
C699 C 0.86369 0.29146 0.93905 0.0
C700 C 0.86205 0.29727 0.98727 0.0
C701 C 0.87906 0.30551 0.91119 0.0
C702 C 0.92818 0.35573 0.91916 0.0
H703 H 0.91145 0.35813 0.78589 0.0
C704 C 0.97382 0.42547 0.80263 0.0
C705 C 0.97466 0.42116 0.7527 0.0
C706 C 0.96186 0.40949 0.8321 0.0
C707 C 0.91648 0.35748 0.82279 0.0
H708 H 0.87539 0.32224 0.04432 0.0
H709 H 0.90206 0.34683 0.99562 0.0
H710 H 0.88734 0.33165 0.83558 0.0
H711 H 0.96425 0.39644 0.69521 0.0
H712 H 0.94354 0.3687 0.74663 0.0
H713 H 0.95722 0.38198 0.90641 0.0
C714 C 0.89174 0.33131 0.97954 0.0
C715 C 0.90266 0.34226 0.8513 0.0
C716 C 0.87643 0.31723 0.00746 0.0
C717 C 0.96385 0.40041 0.73339 0.0
C718 C 0.95189 0.38447 0.76279 0.0
C719 C 0.94201 0.37104 0.89063 0.0
C720 C 0.89306 0.32573 0.93083 0.0
C721 C 0.90827 0.34126 0.89994 0.0
C722 C 0.95046 0.38887 0.81225 0.0
C723 C 0.93625 0.37214 0.84221 0.0
H724 H 0.85299 0.27608 0.92277 0.0
H725 H 0.87989 0.30058 0.87409 0.0
H726 H 0.93309 0.35523 0.95629 0.0
H727 H 0.98197 0.44126 0.81877 0.0
H728 H 0.96095 0.41338 0.87001 0.0
C729 C 0.86244 0.5436 0.9242 0.0
C730 C 0.85018 0.52745 0.95339 0.0
C731 C 0.87614 0.54183 0.89397 0.0
C732 C 0.90556 0.51524 0.8809 0.0
H733 H 0.90585 0.52523 0.74362 0.0
C734 C 0.94804 0.49016 0.75231 0.0
C735 C 0.9593 0.50335 0.71651 0.0
C736 C 0.93432 0.49362 0.77803 0.0
C737 C 0.90617 0.52266 0.78199 0.0
H738 H 0.8429 0.49703 0.97458 0.0
H739 H 0.86701 0.49407 0.92254 0.0
H740 H 0.88344 0.53117 0.79618 0.0
H741 H 0.96454 0.53014 0.67836 0.0
H742 H 0.94073 0.53657 0.72419 0.0
H743 H 0.92838 0.50708 0.86761 0.0
C744 C 0.86596 0.50803 0.92274 0.0
C745 C 0.89332 0.52603 0.81204 0.0
C746 C 0.8521 0.50967 0.95233 0.0
C747 C 0.95592 0.51963 0.70546 0.0
C748 C 0.9423 0.52331 0.73184 0.0
C749 C 0.91851 0.51209 0.85116 0.0
C750 C 0.87806 0.52403 0.89307 0.0
C751 C 0.89265 0.52199 0.86161 0.0
C752 C 0.93174 0.51062 0.76938 0.0
C753 C 0.9187 0.51532 0.80107 0.0
H754 H 0.86114 0.55741 0.92404 0.0
H755 H 0.88536 0.55444 0.87167 0.0
H756 H 0.90566 0.51238 0.91916 0.0
H757 H 0.95012 0.4773 0.76115 0.0
H758 H 0.92598 0.48308 0.80541 0.0
C759 C 0.32963 0.82947 0.91768 0.0
C760 C 0.31109 0.82909 0.92415 0.0
C761 C 0.34201 0.84028 0.88052 0.0
C762 C 0.35189 0.88233 0.80013 0.0
H763 H 0.38408 0.8626 0.73374 0.0
C764 C 0.40824 0.93195 0.66353 0.0
C765 C 0.42828 0.93619 0.6754 0.0
C766 C 0.39152 0.91521 0.68251 0.0
C767 C 0.37512 0.86826 0.75184 0.0
H768 H 0.29071 0.83929 0.89593 0.0
H769 H 0.31214 0.85795 0.83073 0.0
H770 H 0.35955 0.84101 0.79118 0.0
H771 H 0.44619 0.92457 0.71127 0.0
H772 H 0.4171 0.89546 0.74408 0.0
H773 H 0.36767 0.9097 0.7616 0.0
C774 C 0.31739 0.85028 0.85498 0.0
C775 C 0.36116 0.85596 0.78499 0.0
C776 C 0.30509 0.8396 0.89238 0.0
C777 C 0.43099 0.92193 0.70185 0.0
C778 C 0.41427 0.90516 0.72061 0.0
C779 C 0.36572 0.89453 0.76682 0.0
C780 C 0.33607 0.85085 0.84868 0.0
C781 C 0.34966 0.86303 0.8103 0.0
C782 C 0.39449 0.90227 0.71329 0.0
C783 C 0.37778 0.88782 0.74295 0.0
H784 H 0.33475 0.82167 0.94189 0.0
H785 H 0.35646 0.84069 0.87746 0.0
H786 H 0.34357 0.88846 0.81938 0.0
H787 H 0.40553 0.94245 0.64278 0.0
H788 H 0.37638 0.91309 0.67535 0.0
C789 C 0.47958 0.32078 0.98447 0.0
C790 C 0.46055 0.30337 0.99209 0.0
C791 C 0.48069 0.33654 0.95706 0.0
C792 C 0.44869 0.35772 0.90975 0.0
H793 H 0.49529 0.38863 0.83267 0.0
C794 C 0.45453 0.41539 0.7676 0.0
C795 C 0.47252 0.43488 0.77254 0.0
C796 C 0.45243 0.3995 0.79608 0.0
C797 C 0.48227 0.38017 0.85434 0.0
H798 H 0.42776 0.2888 0.97566 0.0
H799 H 0.4298 0.31565 0.9255 0.0
H800 H 0.49266 0.35969 0.87588 0.0
H801 H 0.50228 0.45312 0.81155 0.0
H802 H 0.49874 0.42509 0.86053 0.0
H803 H 0.43805 0.37794 0.88628 0.0
C804 C 0.44385 0.31747 0.94209 0.0
C805 C 0.48077 0.36365 0.87929 0.0
C806 C 0.44271 0.30184 0.97021 0.0
C807 C 0.4882 0.43829 0.80713 0.0
C808 C 0.48626 0.42227 0.8349 0.0
C809 C 0.45002 0.37402 0.884 0.0
C810 C 0.46284 0.33517 0.9357 0.0
C811 C 0.46404 0.3523 0.90768 0.0
C812 C 0.46844 0.40272 0.82925 0.0
C813 C 0.46691 0.38546 0.85646 0.0
H814 H 0.49369 0.32235 0.99995 0.0
H815 H 0.49558 0.35001 0.95356 0.0
H816 H 0.43578 0.34964 0.9319 0.0
H817 H 0.44217 0.41235 0.74133 0.0
H818 H 0.43858 0.38449 0.79108 0.0
C819 C 0.15548 0.45246 0.92341 0.0
C820 C 0.16934 0.47123 0.9499 0.0
C821 C 0.1448 0.45237 0.88085 0.0
C822 C 0.14387 0.48723 0.78853 0.0
H823 H 0.08707 0.44397 0.76643 0.0
C824 C 0.07995 0.49491 0.69165 0.0
C825 C 0.06386 0.4774 0.66545 0.0
C826 C 0.09655 0.49405 0.71258 0.0
C827 C 0.10305 0.4559 0.77137 0.0
H828 H 0.18275 0.50467 0.95191 0.0
H829 H 0.16323 0.50441 0.87976 0.0
H830 H 0.1078 0.44239 0.83356 0.0
H831 H 0.05351 0.44605 0.63606 0.0
H832 H 0.08248 0.44443 0.67348 0.0
H833 H 0.13843 0.5014 0.728 0.0
C834 C 0.16108 0.48976 0.89091 0.0
C835 C 0.11498 0.45503 0.81 0.0
C836 C 0.17198 0.48987 0.93306 0.0
C837 C 0.06571 0.45976 0.65613 0.0
C838 C 0.08219 0.45878 0.67778 0.0
C839 C 0.13181 0.48824 0.75026 0.0
C840 C 0.14743 0.47102 0.86403 0.0
C841 C 0.13543 0.47092 0.81983 0.0
C842 C 0.0972 0.47557 0.70816 0.0
C843 C 0.11117 0.47279 0.74197 0.0
H844 H 0.15284 0.43776 0.93548 0.0
H845 H 0.13459 0.43764 0.86098 0.0
H846 H 0.15969 0.49948 0.7942 0.0
H847 H 0.07895 0.50876 0.69904 0.0
H848 H 0.10788 0.50721 0.73587 0.0
C849 C 0.67671 0.13938 0.999 0.0
C850 C 0.6968 0.15192 0.98543 0.0
C851 C 0.66118 0.12625 0.96417 0.0
C852 C 0.64668 0.11956 0.83306 0.0
H853 H 0.60467 0.06526 0.86643 0.0
C854 C 0.5757 0.05956 0.70468 0.0
C855 C 0.55725 0.05003 0.72811 0.0
C856 C 0.59424 0.07277 0.73167 0.0
C857 C 0.61627 0.08041 0.85663 0.0
H858 H 0.71642 0.16044 0.92477 0.0
H859 H 0.68922 0.13723 0.86384 0.0
H860 H 0.63457 0.08578 0.92248 0.0
H861 H 0.54354 0.04826 0.79719 0.0
H862 H 0.57557 0.07118 0.84362 0.0
H863 H 0.62801 0.11411 0.76727 0.0
C864 C 0.68552 0.13768 0.90143 0.0
C865 C 0.63337 0.09216 0.88874 0.0
C866 C 0.70111 0.15077 0.93639 0.0
C867 C 0.55753 0.05501 0.77814 0.0
C868 C 0.57589 0.06808 0.80487 0.0
C869 C 0.6295 0.10771 0.80072 0.0
C870 C 0.66536 0.12538 0.91493 0.0
C871 C 0.6485 0.11208 0.87797 0.0
C872 C 0.59449 0.07653 0.78235 0.0
C873 C 0.61389 0.08828 0.81295 0.0
H874 H 0.67296 0.13985 0.03655 0.0
H875 H 0.64575 0.11715 0.97565 0.0
H876 H 0.65807 0.1349 0.82387 0.0
H877 H 0.57596 0.05601 0.6663 0.0
H878 H 0.60842 0.07922 0.71342 0.0
C879 C 0.56452 0.6906 0.95401 0.0
C880 C 0.54788 0.69134 0.9732 0.0
C881 C 0.56224 0.67184 0.93504 0.0
C882 C 0.52292 0.62096 0.88028 0.0
H883 H 0.56719 0.60887 0.88969 0.0
C884 C 0.51845 0.55323 0.76374 0.0
C885 C 0.53556 0.55934 0.73584 0.0
C886 C 0.5194 0.5657 0.80438 0.0
C887 C 0.55465 0.61198 0.88694 0.0
H888 H 0.51603 0.6729 0.9893 0.0
H889 H 0.51203 0.64008 0.95605 0.0
H890 H 0.5697 0.63823 0.93891 0.0
H891 H 0.5676 0.58232 0.7314 0.0
H892 H 0.56921 0.60406 0.80181 0.0
H893 H 0.5082 0.59526 0.82708 0.0
C894 C 0.52676 0.65407 0.95506 0.0
C895 C 0.55612 0.62883 0.91496 0.0
C896 C 0.52903 0.67286 0.97395 0.0
C897 C 0.55408 0.57726 0.75179 0.0
C898 C 0.55505 0.58966 0.79247 0.0
C899 C 0.52144 0.60412 0.85237 0.0
C900 C 0.54329 0.65338 0.93493 0.0
C901 C 0.54053 0.63386 0.91083 0.0
C902 C 0.53751 0.58444 0.81805 0.0
C903 C 0.53756 0.59981 0.85431 0.0
H904 H 0.57917 0.70462 0.95242 0.0
H905 H 0.57518 0.67194 0.91896 0.0
H906 H 0.51074 0.62453 0.8758 0.0
H907 H 0.50397 0.53949 0.7526 0.0
H908 H 0.50571 0.56113 0.82382 0.0
C909 C 0.45768 0.1401 0.28568 0.0
C910 C 0.45793 0.15706 0.31081 0.0
C911 C 0.46171 0.12655 0.31081 0.0
C912 C 0.45984 0.1077 0.43199 0.0
H913 H 0.49461 0.08757 0.3816 0.0
C914 C 0.49886 0.05913 0.50719 0.0
C915 C 0.48162 0.04338 0.5277 0.0
C916 C 0.49673 0.0725 0.47645 0.0
C917 C 0.48495 0.09316 0.39611 0.0
H918 H 0.46254 0.17314 0.38181 0.0
H919 H 0.46957 0.14943 0.42581 0.0
H920 H 0.48982 0.11285 0.33758 0.0
H921 H 0.44851 0.02812 0.52868 0.0
H922 H 0.44488 0.0512 0.47512 0.0
H923 H 0.45499 0.0882 0.49049 0.0
C924 C 0.4662 0.1466 0.3867 0.0
C925 C 0.48209 0.10746 0.37082 0.0
C926 C 0.4623 0.16022 0.36154 0.0
C927 C 0.46216 0.04037 0.51431 0.0
C928 C 0.46005 0.05362 0.48372 0.0
C929 C 0.46259 0.09336 0.45698 0.0
C930 C 0.46594 0.12962 0.36158 0.0
C931 C 0.46945 0.11482 0.38853 0.0
C932 C 0.47734 0.07024 0.46583 0.0
C933 C 0.47504 0.08582 0.43916 0.0
H934 H 0.45466 0.13747 0.24645 0.0
H935 H 0.46121 0.11348 0.29059 0.0
H936 H 0.44989 0.11295 0.44629 0.0
H937 H 0.51404 0.06177 0.51678 0.0
H938 H 0.51031 0.08518 0.46301 0.0
C939 C 0.31637 0.47667 0.33579 0.0
C940 C 0.32076 0.49377 0.30872 0.0
C941 C 0.33009 0.47831 0.3735 0.0
C942 C 0.37613 0.51723 0.45123 0.0
H943 H 0.38675 0.47169 0.45989 0.0
C944 C 0.45335 0.52575 0.50911 0.0
C945 C 0.454 0.51118 0.53844 0.0
C946 C 0.43467 0.52397 0.49454 0.0
C947 C 0.38364 0.48435 0.45873 0.0
H948 H 0.34291 0.52587 0.29934 0.0
H949 H 0.36718 0.52862 0.36381 0.0
H950 H 0.35848 0.46744 0.406 0.0
H951 H 0.43593 0.48372 0.57695 0.0
H952 H 0.40292 0.48023 0.55025 0.0
H953 H 0.4023 0.53455 0.50152 0.0
C954 C 0.35289 0.5141 0.35725 0.0
C955 C 0.36744 0.48195 0.4278 0.0
C956 C 0.33908 0.51252 0.31999 0.0
C957 C 0.43575 0.49528 0.55488 0.0
C958 C 0.41694 0.49322 0.53939 0.0
C959 C 0.39249 0.5197 0.48163 0.0
C960 C 0.34858 0.49703 0.38455 0.0
C961 C 0.36388 0.49858 0.42252 0.0
C962 C 0.41627 0.50732 0.50821 0.0
C963 C 0.39671 0.50347 0.48457 0.0
H964 H 0.30219 0.46211 0.32823 0.0
H965 H 0.32614 0.46493 0.39412 0.0
H966 H 0.3735 0.53018 0.44908 0.0
H967 H 0.46727 0.53812 0.496 0.0
H968 H 0.43456 0.5349 0.47007 0.0
C969 C 0.86312 0.35451 0.19115 0.0
C970 C 0.84726 0.34112 0.21942 0.0
C971 C 0.87818 0.37411 0.21096 0.0
C972 C 0.892 0.41186 0.31897 0.0
H973 H 0.94667 0.42088 0.3045 0.0
C974 C 0.95805 0.46657 0.45619 0.0
C975 C 0.96813 0.45678 0.4761 0.0
C976 C 0.94588 0.45844 0.41255 0.0
C977 C 0.93153 0.41873 0.30858 0.0
H978 H 0.83388 0.33825 0.28916 0.0
H979 H 0.86031 0.37205 0.32415 0.0
H980 H 0.91835 0.39493 0.25057 0.0
H981 H 0.97456 0.43171 0.46404 0.0
H982 H 0.95321 0.41739 0.38893 0.0
H983 H 0.90489 0.43436 0.37972 0.0
C984 C 0.86111 0.36765 0.28657 0.0
C985 C 0.9153 0.40401 0.2773 0.0
C986 C 0.84611 0.34812 0.26681 0.0
C987 C 0.96683 0.43951 0.45 0.0
C988 C 0.95476 0.43143 0.40648 0.0
C989 C 0.90821 0.42649 0.35046 0.0
C990 C 0.87761 0.38068 0.25934 0.0
C991 C 0.89521 0.39969 0.28376 0.0
C992 C 0.94367 0.44043 0.38795 0.0
C993 C 0.92795 0.42931 0.34712 0.0
H994 H 0.86441 0.3495 0.1545 0.0
H995 H 0.8906 0.38386 0.18895 0.0
H996 H 0.87675 0.4092 0.32415 0.0
H997 H 0.95879 0.47996 0.47532 0.0
H998 H 0.93766 0.46581 0.39894 0.0
C999 C 0.57334 0.88954 0.21535 0.0
C1000 C 0.56196 0.87891 0.17162 0.0
C1001 C 0.57347 0.90732 0.23399 0.0
C1002 C 0.54151 0.93048 0.23898 0.0
H1003 H 0.59087 0.97861 0.29675 0.0
C1004 C 0.53715 0.99133 0.36669 0.0
C1005 C 0.54892 0.99575 0.41091 0.0
C1006 C 0.54055 0.98146 0.32649 0.0
C1007 C 0.57694 0.96531 0.28072 0.0
H1008 H 0.54245 0.87927 0.11223 0.0
H1009 H 0.54208 0.90991 0.14608 0.0
H1010 H 0.59343 0.95216 0.24695 0.0
H1011 H 0.57441 0.99462 0.4465 0.0
H1012 H 0.58005 0.9773 0.37748 0.0
H1013 H 0.5249 0.9428 0.27527 0.0
C1014 C 0.55091 0.9044 0.16563 0.0
C1015 C 0.57843 0.95022 0.25217 0.0
C1016 C 0.55102 0.88677 0.14656 0.0
C1017 C 0.5649 0.99126 0.41317 0.0
C1018 C 0.56831 0.98151 0.37322 0.0
C1019 C 0.53999 0.94546 0.26803 0.0
C1020 C 0.56204 0.91475 0.20968 0.0
C1021 C 0.5607 0.93235 0.23243 0.0
C1022 C 0.55586 0.97599 0.32978 0.0
C1023 C 0.55766 0.96265 0.29073 0.0
H1024 H 0.58167 0.88381 0.23612 0.0
H1025 H 0.58191 0.91482 0.26848 0.0
H1026 H 0.5276 0.91678 0.22432 0.0
H1027 H 0.52476 0.99466 0.36377 0.0
H1028 H 0.53083 0.9776 0.29334 0.0
C1029 C 0.69672 0.54878 0.25648 0.0
C1030 C 0.6947 0.53123 0.22983 0.0
C1031 C 0.68287 0.54679 0.29118 0.0
C1032 C 0.64187 0.50746 0.3638 0.0
H1033 H 0.63017 0.55199 0.38771 0.0
C1034 C 0.57366 0.50388 0.46641 0.0
C1035 C 0.57883 0.52051 0.50102 0.0
C1036 C 0.58862 0.50355 0.43831 0.0
C1037 C 0.63346 0.53952 0.38169 0.0
H1038 H 0.67599 0.4977 0.21894 0.0
H1039 H 0.65112 0.49442 0.27664 0.0
H1040 H 0.65343 0.55479 0.3257 0.0
H1041 H 0.60405 0.54908 0.5355 0.0
H1042 H 0.62998 0.54867 0.48558 0.0
H1043 H 0.62079 0.49183 0.41849 0.0
C1044 C 0.66389 0.50972 0.27209 0.0
C1045 C 0.6469 0.54113 0.34625 0.0
C1046 C 0.67801 0.51167 0.23804 0.0
C1047 C 0.59951 0.53604 0.50922 0.0
C1048 C 0.61436 0.5359 0.48047 0.0
C1049 C 0.62804 0.50567 0.39856 0.0
C1050 C 0.66622 0.52724 0.29961 0.0
C1051 C 0.65147 0.52521 0.33692 0.0
C1052 C 0.60893 0.52001 0.44378 0.0
C1053 C 0.62386 0.52178 0.40804 0.0
H1054 H 0.70908 0.56418 0.2508 0.0
H1055 H 0.68551 0.56068 0.31191 0.0
H1056 H 0.64519 0.495 0.35852 0.0
H1057 H 0.55788 0.49164 0.45931 0.0
H1058 H 0.58408 0.49113 0.41021 0.0
C1059 C 0.14215 0.68064 0.21104 0.0
C1060 C 0.15526 0.70083 0.23185 0.0
C1061 C 0.12585 0.66636 0.2362 0.0
C1062 C 0.09417 0.66116 0.34087 0.0
H1063 H 0.08656 0.60571 0.33726 0.0
C1064 C 0.04844 0.60095 0.47926 0.0
C1065 C 0.03661 0.58001 0.46172 0.0
C1066 C 0.06082 0.61605 0.44838 0.0
C1067 C 0.08824 0.62102 0.33808 0.0
H1068 H 0.16129 0.72214 0.29466 0.0
H1069 H 0.13295 0.69705 0.33926 0.0
H1070 H 0.11214 0.63147 0.28884 0.0
H1071 H 0.02784 0.55875 0.39721 0.0
H1072 H 0.04936 0.58512 0.34348 0.0
H1073 H 0.07051 0.65066 0.39127 0.0
C1074 C 0.13509 0.69233 0.30313 0.0
C1075 C 0.10292 0.63581 0.31027 0.0
C1076 C 0.15135 0.70669 0.27771 0.0
C1077 C 0.03684 0.57468 0.41212 0.0
C1078 C 0.04926 0.58977 0.38132 0.0
C1079 C 0.0795 0.64633 0.36892 0.0
C1080 C 0.12235 0.67189 0.28297 0.0
C1081 C 0.10613 0.65608 0.31141 0.0
C1082 C 0.06169 0.61054 0.39934 0.0
C1083 C 0.07645 0.62612 0.36793 0.0
H1084 H 0.14458 0.67585 0.17527 0.0
H1085 H 0.11606 0.65091 0.21912 0.0
H1086 H 0.09609 0.67656 0.34213 0.0
H1087 H 0.0486 0.60564 0.5172 0.0
H1088 H 0.07033 0.6319 0.46343 0.0
loop_
_geom_bond_atom_site_label_1
_geom_bond_atom_site_label_2
_geom_bond_distance
_geom_bond_site_symmetry_2
_ccdc_geom_bond_type
C0 C1 1.384 . S
C0 C2 1.384 . S
C0 H28 0.931 . S
C1 C0 1.384 . S
C1 C4 1.382 . S
C2 C0 1.384 . S
C2 C3 1.381 . S
C2 H29 0.930 . S
C3 C2 1.381 . S
C3 C5 1.381 . S
C3 C6 1.487 . S
C4 C1 1.382 . S
C4 C5 1.387 . S
C4 H30 0.930 . S
C5 C3 1.381 . S
C5 C4 1.387 . S
C5 H31 0.931 . S
C6 C3 1.487 . S
C6 C13 1.399 . S
C6 N44 1.343 . S
C7 C8 1.384 . S
C7 C9 1.384 . S
C7 H32 0.931 . S
C8 C7 1.384 . S
C8 C11 1.382 . S
C9 C7 1.384 . S
C9 C10 1.381 . S
C9 H33 0.930 . S
C10 C9 1.381 . S
C10 C12 1.381 . S
C10 C13 1.487 . S
C11 C8 1.382 . S
C11 C12 1.387 . S
C11 H34 0.930 . S
C12 C10 1.381 . S
C12 C11 1.387 . S
C12 H35 0.931 . S
C13 C6 1.399 . S
C13 C10 1.487 . S
C13 N45 1.343 . S
C14 C15 1.384 . S
C14 C16 1.384 . S
C14 H36 0.931 . S
C15 C14 1.384 . S
C15 C18 1.382 . S
C16 C14 1.384 . S
C16 C17 1.381 . S
C16 H37 0.930 . S
C17 C16 1.381 . S
C17 C19 1.381 . S
C17 C20 1.487 . S
C18 C15 1.382 . S
C18 C19 1.387 . S
C18 H38 0.930 . S
C19 C17 1.381 . S
C19 C18 1.387 . S
C19 H39 0.931 . S
C20 C17 1.487 . S
C20 C27 1.399 . S
C20 N45 1.343 . S
C21 C22 1.384 . S
C21 C23 1.384 . S
C21 H40 0.931 . S
C22 C21 1.384 . S
C22 C25 1.382 . S
C23 C21 1.384 . S
C23 C24 1.381 . S
C23 H41 0.930 . S
C24 C23 1.381 . S
C24 C26 1.381 . S
C24 C27 1.487 . S
C25 C22 1.382 . S
C25 C26 1.387 . S
C25 H42 0.931 1_554 S
C26 C24 1.381 . S
C26 C25 1.387 . S
C26 H43 0.931 . S
C27 C20 1.399 . S
C27 C24 1.487 . S
C27 N44 1.343 . S
H28 C0 0.931 . S
H29 C2 0.930 . S
H30 C4 0.930 . S
H31 C5 0.931 . S
H32 C7 0.931 . S
H33 C9 0.930 . S
H34 C11 0.930 . S
H35 C12 0.931 . S
H36 C14 0.931 . S
H37 C16 0.930 . S
H38 C18 0.930 . S
H39 C19 0.931 . S
H40 C21 0.931 . S
H41 C23 0.930 . S
H42 C25 0.931 1_556 S
H43 C26 0.931 . S
N44 C6 1.343 . S
N44 C27 1.343 . S
N45 C13 1.343 . S
N45 C20 1.343 . S
C46 C47 1.384 . S
C46 C48 1.384 . S
C46 H74 0.931 . S
C47 C46 1.384 . S
C47 C50 1.382 . S
C48 C46 1.384 . S
C48 C49 1.381 . S
C48 H75 0.930 . S
C49 C48 1.381 . S
C49 C51 1.381 . S
C49 C52 1.487 . S
C50 C47 1.382 . S
C50 C51 1.387 . S
C50 H76 0.930 . S
C51 C49 1.381 . S
C51 C50 1.387 . S
C51 H77 0.931 . S
C52 C49 1.487 . S
C52 C59 1.399 . S
C52 N90 1.343 . S
C53 C54 1.384 . S
C53 C55 1.384 . S
C53 H78 0.931 . S
C54 C53 1.384 . S
C54 C57 1.382 . S
C55 C53 1.384 . S
C55 C56 1.381 . S
C55 H79 0.930 . S
C56 C55 1.381 . S
C56 C58 1.381 . S
C56 C59 1.487 . S
C57 C54 1.382 . S
C57 C58 1.387 . S
C57 H80 0.930 1_554 S
C58 C56 1.381 . S
C58 C57 1.387 . S
C58 H81 0.931 . S
C59 C52 1.399 . S
C59 C56 1.487 . S
C59 N91 1.343 . S
C60 C61 1.384 . S
C60 C62 1.384 . S
C60 H82 0.931 . S
C61 C60 1.384 . S
C61 C64 1.382 . S
C62 C60 1.384 . S
C62 C63 1.381 . S
C62 H83 0.930 . S
C63 C62 1.381 . S
C63 C65 1.381 . S
C63 C66 1.487 . S
C64 C61 1.382 . S
C64 C65 1.387 . S
C64 H84 0.930 1_554 S
C65 C63 1.381 . S
C65 C64 1.387 . S
C65 H85 0.931 . S
C66 C63 1.487 . S
C66 C73 1.399 . S
C66 N91 1.343 . S
C67 C68 1.384 . S
C67 C69 1.384 . S
C67 H86 0.931 . S
C68 C67 1.384 . S
C68 C71 1.382 . S
C69 C67 1.384 . S
C69 C70 1.381 . S
C69 H87 0.930 . S
C70 C69 1.381 . S
C70 C72 1.381 . S
C70 C73 1.487 . S
C71 C68 1.382 . S
C71 C72 1.387 . S
C71 H88 0.930 . S
C72 C70 1.381 . S
C72 C71 1.387 . S
C72 H89 0.931 . S
C73 C66 1.399 . S
C73 C70 1.487 . S
C73 N90 1.343 . S
H74 C46 0.931 . S
H75 C48 0.930 . S
H76 C50 0.930 . S
H77 C51 0.931 . S
H78 C53 0.931 . S
H79 C55 0.930 . S
H80 C57 0.930 1_556 S
H81 C58 0.931 . S
H82 C60 0.931 . S
H83 C62 0.930 . S
H84 C64 0.930 1_556 S
H85 C65 0.931 . S
H86 C67 0.931 . S
H87 C69 0.930 . S
H88 C71 0.930 . S
H89 C72 0.931 . S
N90 C52 1.343 . S
N90 C73 1.343 . S
N91 C59 1.343 . S
N91 C66 1.343 . S
C92 C93 1.384 . S
C92 C94 1.384 . S
C92 H120 0.931 . S
C93 C92 1.384 . S
C93 C96 1.382 . S
C94 C92 1.384 . S
C94 C95 1.381 . S
C94 H121 0.930 1_556 S
C95 C94 1.381 . S
C95 C97 1.381 . S
C95 C98 1.487 . S
C96 C93 1.382 . S
C96 C97 1.387 . S
C96 H122 0.930 . S
C97 C95 1.381 . S
C97 C96 1.387 . S
C97 H123 0.931 . S
C98 C95 1.487 . S
C98 C105 1.399 1_556 S
C98 N136 1.343 . S
C99 C100 1.384 . S
C99 C101 1.384 . S
C99 H124 0.931 . S
C100 C99 1.384 . S
C100 C103 1.382 . S
C101 C99 1.384 . S
C101 C102 1.381 . S
C101 H125 0.930 . S
C102 C101 1.381 . S
C102 C104 1.381 . S
C102 C105 1.487 . S
C103 C100 1.382 . S
C103 C104 1.387 . S
C103 H126 0.930 . S
C104 C102 1.381 . S
C104 C103 1.387 . S
C104 H127 0.931 . S
C105 C98 1.399 1_554 S
C105 C102 1.487 . S
C105 N137 1.343 . S
C106 C107 1.384 . S
C106 C108 1.384 . S
C106 H128 0.931 . S
C107 C106 1.384 . S
C107 C110 1.382 . S
C108 C106 1.384 . S
C108 C109 1.381 . S
C108 H129 0.930 . S
C109 C108 1.381 . S
C109 C111 1.381 . S
C109 C112 1.487 . S
C110 C107 1.382 . S
C110 C111 1.387 . S
C110 H130 0.930 . S
C111 C109 1.381 . S
C111 C110 1.387 . S
C111 H131 0.931 . S
C112 C109 1.487 . S
C112 C119 1.399 1_554 S
C112 N137 1.343 . S
C113 C114 1.384 . S
C113 C115 1.384 . S
C113 H132 0.931 . S
C114 C113 1.384 . S
C114 C117 1.382 . S
C115 C113 1.384 . S
C115 C116 1.381 . S
C115 H133 0.930 1_556 S
C116 C115 1.381 . S
C116 C118 1.381 . S
C116 C119 1.487 . S
C117 C114 1.382 . S
C117 C118 1.387 . S
C117 H134 0.930 . S
C118 C116 1.381 . S
C118 C117 1.387 . S
C118 H135 0.931 . S
C119 C112 1.399 1_556 S
C119 C116 1.487 . S
C119 N136 1.343 . S
H120 C92 0.931 . S
H121 C94 0.930 1_554 S
H122 C96 0.930 . S
H123 C97 0.931 . S
H124 C99 0.931 . S
H125 C101 0.930 . S
H126 C103 0.930 . S
H127 C104 0.931 . S
H128 C106 0.931 . S
H129 C108 0.930 . S
H130 C110 0.930 . S
H131 C111 0.931 . S
H132 C113 0.931 . S
H133 C115 0.930 1_554 S
H134 C117 0.930 . S
H135 C118 0.931 . S
N136 C98 1.343 . S
N136 C119 1.343 . S
N137 C105 1.343 . S
N137 C112 1.343 . S
C138 C139 1.384 . S
C138 C140 1.384 1_556 S
C138 H166 0.931 . S
C139 C138 1.384 . S
C139 C142 1.382 . S
C140 C138 1.384 1_554 S
C140 C141 1.381 . S
C140 H167 0.930 . S
C141 C140 1.381 . S
C141 C143 1.381 1_554 S
C141 C144 1.487 . S
C142 C139 1.382 . S
C142 C143 1.387 . S
C142 H168 0.930 . S
C143 C141 1.381 1_556 S
C143 C142 1.387 . S
C143 H169 0.931 . S
C144 C141 1.487 . S
C144 C151 1.399 . S
C144 N182 1.343 . S
C145 C146 1.384 . S
C145 C147 1.384 . S
C145 H170 0.931 . S
C146 C145 1.384 . S
C146 C149 1.382 . S
C147 C145 1.384 . S
C147 C148 1.381 . S
C147 H171 0.930 . S
C148 C147 1.381 . S
C148 C150 1.381 . S
C148 C151 1.487 . S
C149 C146 1.382 . S
C149 C150 1.387 . S
C149 H172 0.930 . S
C150 C148 1.381 . S
C150 C149 1.387 . S
C150 H173 0.931 . S
C151 C144 1.399 . S
C151 C148 1.487 . S
C151 N183 1.343 . S
C152 C153 1.384 . S
C152 C154 1.384 . S
C152 H174 0.931 . S
C153 C152 1.384 . S
C153 C156 1.382 . S
C154 C152 1.384 . S
C154 C155 1.381 . S
C154 H175 0.930 . S
C155 C154 1.381 . S
C155 C157 1.381 . S
C155 C158 1.487 . S
C156 C153 1.382 . S
C156 C157 1.387 . S
C156 H176 0.930 . S
C157 C155 1.381 . S
C157 C156 1.387 . S
C157 H177 0.931 . S
C158 C155 1.487 . S
C158 C165 1.399 . S
C158 N183 1.343 . S
C159 C160 1.384 . S
C159 C161 1.384 1_556 S
C159 H178 0.931 . S
C160 C159 1.384 . S
C160 C163 1.382 . S
C161 C159 1.384 1_554 S
C161 C162 1.381 . S
C161 H179 0.930 . S
C162 C161 1.381 . S
C162 C164 1.381 1_554 S
C162 C165 1.487 . S
C163 C160 1.382 . S
C163 C164 1.387 . S
C163 H180 0.930 . S
C164 C162 1.381 1_556 S
C164 C163 1.387 . S
C164 H181 0.931 . S
C165 C158 1.399 . S
C165 C162 1.487 . S
C165 N182 1.343 . S
H166 C138 0.931 . S
H167 C140 0.930 . S
H168 C142 0.930 . S
H169 C143 0.931 . S
H170 C145 0.931 . S
H171 C147 0.930 . S
H172 C149 0.930 . S
H173 C150 0.931 . S
H174 C152 0.931 . S
H175 C154 0.930 . S
H176 C156 0.930 . S
H177 C157 0.931 . S
H178 C159 0.931 . S
H179 C161 0.930 . S
H180 C163 0.930 . S
H181 C164 0.931 . S
N182 C144 1.343 . S
N182 C165 1.343 . S
N183 C151 1.343 . S
N183 C158 1.343 . S
C184 C185 1.384 1_554 S
C184 C186 1.384 . S
C184 H212 0.931 . S
C185 C184 1.384 1_556 S
C185 C188 1.382 . S
C186 C184 1.384 . S
C186 C187 1.381 . S
C186 H213 0.930 . S
C187 C186 1.381 . S
C187 C189 1.381 1_554 S
C187 C190 1.487 . S
C188 C185 1.382 . S
C188 C189 1.387 . S
C188 H214 0.930 . S
C189 C187 1.381 1_556 S
C189 C188 1.387 . S
C189 H215 0.931 . S
C190 C187 1.487 . S
C190 C197 1.399 . S
C190 N228 1.343 . S
C191 C192 1.384 . S
C191 C193 1.384 . S
C191 H216 0.931 . S
C192 C191 1.384 . S
C192 C195 1.382 . S
C193 C191 1.384 . S
C193 C194 1.381 . S
C193 H217 0.930 . S
C194 C193 1.381 . S
C194 C196 1.381 . S
C194 C197 1.487 . S
C195 C192 1.382 . S
C195 C196 1.387 . S
C195 H218 0.930 . S
C196 C194 1.381 . S
C196 C195 1.387 . S
C196 H219 0.931 . S
C197 C190 1.399 . S
C197 C194 1.487 . S
C197 N229 1.343 . S
C198 C199 1.384 . S
C198 C200 1.384 . S
C198 H220 0.931 . S
C199 C198 1.384 . S
C199 C202 1.382 . S
C200 C198 1.384 . S
C200 C201 1.381 . S
C200 H221 0.930 . S
C201 C200 1.381 . S
C201 C203 1.381 . S
C201 C204 1.487 . S
C202 C199 1.382 . S
C202 C203 1.387 . S
C202 H222 0.930 . S
C203 C201 1.381 . S
C203 C202 1.387 . S
C203 H223 0.931 . S
C204 C201 1.487 . S
C204 C211 1.399 . S
C204 N229 1.343 . S
C205 C206 1.384 1_554 S
C205 C207 1.384 . S
C205 H224 0.931 . S
C206 C205 1.384 1_556 S
C206 C209 1.382 . S
C207 C205 1.384 . S
C207 C208 1.381 . S
C207 H225 0.930 . S
C208 C207 1.381 . S
C208 C210 1.381 1_554 S
C208 C211 1.487 . S
C209 C206 1.382 . S
C209 C210 1.387 . S
C209 H226 0.930 . S
C210 C208 1.381 1_556 S
C210 C209 1.387 . S
C210 H227 0.931 . S
C211 C204 1.399 . S
C211 C208 1.487 . S
C211 N228 1.343 . S
H212 C184 0.931 . S
H213 C186 0.930 . S
H214 C188 0.930 . S
H215 C189 0.931 . S
H216 C191 0.931 . S
H217 C193 0.930 . S
H218 C195 0.930 . S
H219 C196 0.931 . S
H220 C198 0.931 . S
H221 C200 0.930 . S
H222 C202 0.930 . S
H223 C203 0.931 . S
H224 C205 0.931 . S
H225 C207 0.930 . S
H226 C209 0.930 . S
H227 C210 0.931 . S
N228 C190 1.343 . S
N228 C211 1.343 . S
N229 C197 1.343 . S
N229 C204 1.343 . S
C230 C231 1.384 . S
C230 C232 1.384 . S
C230 H258 0.931 . S
C231 C230 1.384 . S
C231 C234 1.382 . S
C232 C230 1.384 . S
C232 C233 1.381 . S
C232 H259 0.930 . S
C233 C232 1.381 . S
C233 C235 1.381 . S
C233 C236 1.487 . S
C234 C231 1.382 . S
C234 C235 1.387 . S
C234 H260 0.930 . S
C235 C233 1.381 . S
C235 C234 1.387 . S
C235 H261 0.931 . S
C236 C233 1.487 . S
C236 C243 1.399 . S
C236 N274 1.343 . S
C237 C238 1.384 . S
C237 C239 1.384 . S
C237 H262 0.931 . S
C238 C237 1.384 . S
C238 C241 1.382 . S
C239 C237 1.384 . S
C239 C240 1.381 . S
C239 H263 0.930 . S
C240 C239 1.381 . S
C240 C242 1.381 . S
C240 C243 1.487 . S
C241 C238 1.382 . S
C241 C242 1.387 . S
C241 H264 0.930 . S
C242 C240 1.381 . S
C242 C241 1.387 . S
C242 H265 0.931 . S
C243 C236 1.399 . S
C243 C240 1.487 . S
C243 N275 1.343 . S
C244 C245 1.384 . S
C244 C246 1.384 . S
C244 H266 0.931 . S
C245 C244 1.384 . S
C245 C248 1.382 . S
C246 C244 1.384 . S
C246 C247 1.381 . S
C246 H267 0.930 . S
C247 C246 1.381 . S
C247 C249 1.381 . S
C247 C250 1.487 . S
C248 C245 1.382 . S
C248 C249 1.387 . S
C248 H268 0.930 . S
C249 C247 1.381 . S
C249 C248 1.387 . S
C249 H269 0.931 . S
C250 C247 1.487 . S
C250 C257 1.399 . S
C250 N275 1.343 . S
C251 C252 1.384 . S
C251 C253 1.384 . S
C251 H270 0.931 . S
C252 C251 1.384 . S
C252 C255 1.382 . S
C253 C251 1.384 . S
C253 C254 1.381 . S
C253 H271 0.930 . S
C254 C253 1.381 . S
C254 C256 1.381 . S
C254 C257 1.487 . S
C255 C252 1.382 . S
C255 C256 1.387 . S
C255 H272 0.930 . S
C256 C254 1.381 . S
C256 C255 1.387 . S
C256 H273 0.931 . S
C257 C250 1.399 . S
C257 C254 1.487 . S
C257 N274 1.343 . S
H258 C230 0.931 . S
H259 C232 0.930 . S
H260 C234 0.930 . S
H261 C235 0.931 . S
H262 C237 0.931 . S
H263 C239 0.930 . S
H264 C241 0.930 . S
H265 C242 0.931 . S
H266 C244 0.931 . S
H267 C246 0.930 . S
H268 C248 0.930 . S
H269 C249 0.931 . S
H270 C251 0.931 . S
H271 C253 0.930 . S
H272 C255 0.930 . S
H273 C256 0.931 . S
N274 C236 1.343 . S
N274 C257 1.343 . S
N275 C243 1.343 . S
N275 C250 1.343 . S
C276 O288 1.241 . S
C276 O289 1.280 . S
C277 O290 1.277 . S
C277 O291 1.245 . S
C278 O302 1.247 . S
C278 O304 1.289 . S
Mg279 O280 1.950 1_655 S
Mg279 O289 1.984 . S
Mg279 O291 1.988 1_655 S
Mg279 O292 2.061 . S
O280 Mg279 1.950 1_455 S
O280 Mg281 1.984 . S
O280 Mg282 1.913 . S
Mg281 O280 1.984 . S
Mg281 O288 2.042 1_455 S
Mg281 O290 2.041 . S
Mg281 O296 2.038 1_455 S
Mg281 O304 2.238 . S
Mg282 O280 1.913 . S
Mg282 O283 1.917 . S
Mg282 O293 2.106 1_455 S
Mg282 O295 2.079 1_455 S
Mg282 O304 2.106 . S
Mg282 O305 2.079 . S
O283 Mg282 1.917 . S
O283 Mg284 1.926 . S
O283 Mg285 1.986 . S
Mg284 O283 1.926 . S
Mg284 O298 1.984 . S
Mg284 O301 1.988 1_455 S
Mg284 O302 2.061 . S
Mg285 O283 1.986 . S
Mg285 O293 2.238 1_455 S
Mg285 O297 2.042 . S
Mg285 O299 2.041 1_455 S
Mg285 O306 2.038 . S
C286 O292 1.247 . S
C286 O293 1.289 . S
C287 O305 1.245 . S
C287 O306 1.274 . S
O288 C276 1.241 . S
O288 Mg281 2.042 1_655 S
O289 C276 1.280 . S
O289 Mg279 1.984 . S
O290 C277 1.277 . S
O290 Mg281 2.041 . S
O291 C277 1.245 . S
O291 Mg279 1.988 1_455 S
O292 Mg279 2.061 . S
O292 C286 1.247 . S
O293 Mg282 2.106 1_655 S
O293 Mg285 2.238 1_655 S
O293 C286 1.289 . S
C294 O295 1.245 . S
C294 O296 1.274 . S
O295 Mg282 2.079 1_655 S
O295 C294 1.245 . S
O296 Mg281 2.038 1_655 S
O296 C294 1.274 . S
O297 Mg285 2.042 . S
O297 C300 1.241 . S
O298 Mg284 1.984 . S
O298 C300 1.280 . S
O299 Mg285 2.041 1_655 S
O299 C303 1.277 . S
C300 O297 1.241 . S
C300 O298 1.280 . S
O301 Mg284 1.988 1_655 S
O301 C303 1.245 . S
O302 C278 1.247 . S
O302 Mg284 2.061 . S
C303 O299 1.277 . S
C303 O301 1.245 . S
O304 C278 1.289 . S
O304 Mg281 2.238 . S
O304 Mg282 2.106 . S
O305 Mg282 2.079 . S
O305 C287 1.245 . S
O306 Mg285 2.038 . S
O306 C287 1.274 . S
C307 O319 1.241 . S
C307 O320 1.280 . S
C308 O321 1.277 . S
C308 O322 1.245 . S
C309 O333 1.247 . S
C309 O335 1.289 . S
Mg310 O311 1.926 . S
Mg310 O320 1.984 . S
Mg310 O322 1.988 1_545 S
Mg310 O323 2.061 . S
O311 Mg310 1.926 . S
O311 Mg312 1.986 . S
O311 Mg313 1.917 . S
Mg312 O311 1.986 . S
Mg312 O319 2.042 . S
Mg312 O321 2.041 1_545 S
Mg312 O327 2.038 . S
Mg312 O335 2.238 1_545 S
Mg313 O311 1.917 . S
Mg313 O314 1.916 . S
Mg313 O324 2.106 . S
Mg313 O326 2.079 . S
Mg313 O335 2.106 1_545 S
Mg313 O336 2.079 1_545 S
O314 Mg313 1.916 . S
O314 Mg315 1.927 1_545 S
O314 Mg316 1.985 . S
Mg315 O314 1.927 1_565 S
Mg315 O329 1.984 . S
Mg315 O332 1.988 1_565 S
Mg315 O333 2.061 . S
Mg316 O314 1.985 . S
Mg316 O324 2.238 . S
Mg316 O328 2.042 1_545 S
Mg316 O330 2.041 . S
Mg316 O337 2.038 1_545 S
C317 O323 1.247 . S
C317 O324 1.289 . S
C318 O336 1.245 . S
C318 O337 1.274 . S
O319 C307 1.241 . S
O319 Mg312 2.042 . S
O320 C307 1.280 . S
O320 Mg310 1.984 . S
O321 C308 1.277 . S
O321 Mg312 2.041 1_565 S
O322 C308 1.245 . S
O322 Mg310 1.988 1_565 S
O323 Mg310 2.061 . S
O323 C317 1.247 . S
O324 Mg313 2.106 . S
O324 Mg316 2.238 . S
O324 C317 1.289 . S
C325 O326 1.245 . S
C325 O327 1.274 . S
O326 Mg313 2.079 . S
O326 C325 1.245 . S
O327 Mg312 2.038 . S
O327 C325 1.274 . S
O328 Mg316 2.042 1_565 S
O328 C331 1.241 . S
O329 Mg315 1.984 . S
O329 C331 1.280 . S
O330 Mg316 2.041 . S
O330 C334 1.277 . S
C331 O328 1.241 . S
C331 O329 1.280 . S
O332 Mg315 1.988 1_545 S
O332 C334 1.245 . S
O333 C309 1.247 . S
O333 Mg315 2.061 . S
C334 O330 1.277 . S
C334 O332 1.245 . S
O335 C309 1.289 . S
O335 Mg312 2.238 1_565 S
O335 Mg313 2.106 1_565 S
O336 Mg313 2.079 1_565 S
O336 C318 1.245 . S
O337 Mg316 2.038 1_565 S
O337 C318 1.274 . S
C338 O350 1.241 . S
C338 O351 1.280 . S
C339 O352 1.277 . S
C339 O353 1.245 . S
C340 O364 1.247 . S
C340 O366 1.289 . S
Mg341 O342 1.926 . S
Mg341 O351 1.984 . S
Mg341 O353 1.988 . S
Mg341 O354 2.061 . S
O342 Mg341 1.926 . S
O342 Mg343 1.986 . S
O342 Mg344 1.917 . S
Mg343 O342 1.986 . S
Mg343 O350 2.042 . S
Mg343 O352 2.041 . S
Mg343 O358 2.038 . S
Mg343 O366 2.238 . S
Mg344 O342 1.917 . S
Mg344 O345 1.917 . S
Mg344 O355 2.106 . S
Mg344 O357 2.079 . S
Mg344 O366 2.106 . S
Mg344 O367 2.079 . S
O345 Mg344 1.917 . S
O345 Mg346 1.926 . S
O345 Mg347 1.986 . S
Mg346 O345 1.926 . S
Mg346 O360 1.984 . S
Mg346 O363 1.988 . S
Mg346 O364 2.061 . S
Mg347 O345 1.986 . S
Mg347 O355 2.238 . S
Mg347 O359 2.042 . S
Mg347 O361 2.041 . S
Mg347 O368 2.038 . S
C348 O354 1.247 . S
C348 O355 1.289 . S
C349 O367 1.245 . S
C349 O368 1.274 . S
O350 C338 1.241 . S
O350 Mg343 2.042 . S
O351 C338 1.280 . S
O351 Mg341 1.984 . S
O352 C339 1.277 . S
O352 Mg343 2.041 . S
O353 C339 1.245 . S
O353 Mg341 1.988 . S
O354 Mg341 2.061 . S
O354 C348 1.247 . S
O355 Mg344 2.106 . S
O355 Mg347 2.238 . S
O355 C348 1.289 . S
C356 O357 1.245 . S
C356 O358 1.274 . S
O357 Mg344 2.079 . S
O357 C356 1.245 . S
O358 Mg343 2.038 . S
O358 C356 1.274 . S
O359 Mg347 2.042 . S
O359 C362 1.241 . S
O360 Mg346 1.984 . S
O360 C362 1.280 . S
O361 Mg347 2.041 . S
O361 C365 1.277 . S
C362 O359 1.241 . S
C362 O360 1.280 . S
O363 Mg346 1.988 . S
O363 C365 1.245 . S
O364 C340 1.247 . S
O364 Mg346 2.061 . S
C365 O361 1.277 . S
C365 O363 1.245 . S
O366 C340 1.289 . S
O366 Mg343 2.238 . S
O366 Mg344 2.106 . S
O367 Mg344 2.079 . S
O367 C349 1.245 . S
O368 Mg347 2.038 . S
O368 C349 1.274 . S
C369 C370 1.349 . S
C369 C371 1.327 . S
C369 H394 0.950 . S
C370 C369 1.349 . S
C370 C386 1.349 . S
C371 C369 1.327 . S
C371 C390 1.429 . S
C371 H395 0.950 . S
C372 C389 1.574 . S
C372 C391 1.368 . S
C372 H396 0.949 . S
H373 C377 0.949 . S
C374 C375 1.349 . S
C374 C376 1.327 . S
C374 H397 0.950 . S
C375 C374 1.349 . S
C375 C387 1.349 . S
C376 C374 1.327 . S
C376 C392 1.429 . S
C376 H398 0.950 . S
C377 H373 0.949 . S
C377 C385 1.574 . S
C377 C393 1.368 . S
H378 C386 0.950 . S
H379 C384 0.950 . S
H380 C385 0.949 . S
H381 C387 0.950 . S
H382 C388 0.950 . S
H383 C389 0.949 . S
C384 H379 0.950 . S
C384 C386 1.327 . S
C384 C390 1.429 . S
C385 C377 1.574 . S
C385 H380 0.949 . S
C385 C391 1.368 . S
C386 C370 1.349 . S
C386 H378 0.950 . S
C386 C384 1.327 . S
C387 C375 1.349 . S
C387 H381 0.950 . S
C387 C388 1.327 . S
C388 H382 0.950 . S
C388 C387 1.327 . S
C388 C392 1.429 . S
C389 C372 1.574 . S
C389 H383 0.949 . S
C389 C393 1.368 . S
C390 C371 1.429 . S
C390 C384 1.429 . S
C390 C391 1.523 . S
C391 C372 1.368 . S
C391 C385 1.368 . S
C391 C390 1.523 . S
C392 C376 1.429 . S
C392 C388 1.429 . S
C392 C393 1.523 . S
C393 C377 1.368 . S
C393 C389 1.368 . S
C393 C392 1.523 . S
H394 C369 0.950 . S
H395 C371 0.950 . S
H396 C372 0.949 . S
H397 C374 0.950 . S
H398 C376 0.950 . S
C399 C400 1.349 . S
C399 C401 1.327 . S
C399 H424 0.950 . S
C400 C399 1.349 . S
C400 C416 1.349 . S
C401 C399 1.327 . S
C401 C420 1.429 . S
C401 H425 0.950 . S
C402 C419 1.574 . S
C402 C421 1.368 . S
C402 H426 0.949 . S
H403 C407 0.949 . S
C404 C405 1.349 . S
C404 C406 1.327 . S
C404 H427 0.950 . S
C405 C404 1.349 . S
C405 C417 1.349 . S
C406 C404 1.327 . S
C406 C422 1.429 . S
C406 H428 0.950 . S
C407 H403 0.949 . S
C407 C415 1.574 . S
C407 C423 1.368 . S
H408 C416 0.950 . S
H409 C414 0.950 . S
H410 C415 0.949 . S
H411 C417 0.950 . S
H412 C418 0.950 . S
H413 C419 0.949 . S
C414 H409 0.950 . S
C414 C416 1.327 . S
C414 C420 1.429 . S
C415 C407 1.574 . S
C415 H410 0.949 . S
C415 C421 1.368 . S
C416 C400 1.349 . S
C416 H408 0.950 . S
C416 C414 1.327 . S
C417 C405 1.349 . S
C417 H411 0.950 . S
C417 C418 1.327 . S
C418 H412 0.950 . S
C418 C417 1.327 . S
C418 C422 1.429 . S
C419 C402 1.574 . S
C419 H413 0.949 . S
C419 C423 1.368 . S
C420 C401 1.429 . S
C420 C414 1.429 . S
C420 C421 1.523 . S
C421 C402 1.368 . S
C421 C415 1.368 . S
C421 C420 1.523 . S
C422 C406 1.429 . S
C422 C418 1.429 . S
C422 C423 1.523 . S
C423 C407 1.368 . S
C423 C419 1.368 . S
C423 C422 1.523 . S
H424 C399 0.950 . S
H425 C401 0.950 . S
H426 C402 0.949 . S
H427 C404 0.950 . S
H428 C406 0.950 . S
C429 C430 1.349 . S
C429 C431 1.327 . S
C429 H454 0.950 . S
C430 C429 1.349 . S
C430 C446 1.349 . S
C431 C429 1.327 . S
C431 C450 1.429 . S
C431 H455 0.950 . S
C432 C449 1.574 . S
C432 C451 1.368 . S
C432 H456 0.949 . S
H433 C437 0.949 . S
C434 C435 1.349 . S
C434 C436 1.327 . S
C434 H457 0.950 . S
C435 C434 1.349 . S
C435 C447 1.349 . S
C436 C434 1.327 . S
C436 C452 1.429 . S
C436 H458 0.950 . S
C437 H433 0.949 . S
C437 C445 1.574 . S
C437 C453 1.368 . S
H438 C446 0.950 . S
H439 C444 0.950 . S
H440 C445 0.949 . S
H441 C447 0.950 . S
H442 C448 0.950 . S
H443 C449 0.949 . S
C444 H439 0.950 . S
C444 C446 1.327 . S
C444 C450 1.429 . S
C445 C437 1.574 . S
C445 H440 0.949 . S
C445 C451 1.368 . S
C446 C430 1.349 . S
C446 H438 0.950 . S
C446 C444 1.327 . S
C447 C435 1.349 . S
C447 H441 0.950 . S
C447 C448 1.327 . S
C448 H442 0.950 . S
C448 C447 1.327 . S
C448 C452 1.429 . S
C449 C432 1.574 . S
C449 H443 0.949 . S
C449 C453 1.368 . S
C450 C431 1.429 . S
C450 C444 1.429 . S
C450 C451 1.523 . S
C451 C432 1.368 . S
C451 C445 1.368 . S
C451 C450 1.523 . S
C452 C436 1.429 . S
C452 C448 1.429 . S
C452 C453 1.523 . S
C453 C437 1.368 . S
C453 C449 1.368 . S
C453 C452 1.523 . S
H454 C429 0.950 . S
H455 C431 0.950 . S
H456 C432 0.949 . S
H457 C434 0.950 . S
H458 C436 0.950 . S
C459 C460 1.349 . S
C459 C461 1.327 . S
C459 H484 0.950 . S
C460 C459 1.349 . S
C460 C476 1.349 . S
C461 C459 1.327 . S
C461 C480 1.429 . S
C461 H485 0.950 . S
C462 C479 1.574 . S
C462 C481 1.368 . S
C462 H486 0.949 . S
H463 C467 0.949 . S
C464 C465 1.349 . S
C464 C466 1.327 . S
C464 H487 0.950 . S
C465 C464 1.349 . S
C465 C477 1.349 . S
C466 C464 1.327 . S
C466 C482 1.429 . S
C466 H488 0.950 . S
C467 H463 0.949 . S
C467 C475 1.574 . S
C467 C483 1.368 . S
H468 C476 0.950 . S
H469 C474 0.950 . S
H470 C475 0.949 . S
H471 C477 0.950 . S
H472 C478 0.950 . S
H473 C479 0.949 . S
C474 H469 0.950 . S
C474 C476 1.327 . S
C474 C480 1.429 . S
C475 C467 1.574 . S
C475 H470 0.949 . S
C475 C481 1.368 . S
C476 C460 1.349 . S
C476 H468 0.950 . S
C476 C474 1.327 . S
C477 C465 1.349 . S
C477 H471 0.950 . S
C477 C478 1.327 . S
C478 H472 0.950 . S
C478 C477 1.327 . S
C478 C482 1.429 . S
C479 C462 1.574 . S
C479 H473 0.949 . S
C479 C483 1.368 . S
C480 C461 1.429 . S
C480 C474 1.429 . S
C480 C481 1.523 . S
C481 C462 1.368 . S
C481 C475 1.368 . S
C481 C480 1.523 . S
C482 C466 1.429 . S
C482 C478 1.429 . S
C482 C483 1.523 . S
C483 C467 1.368 . S
C483 C479 1.368 . S
C483 C482 1.523 . S
H484 C459 0.950 . S
H485 C461 0.950 . S
H486 C462 0.949 . S
H487 C464 0.950 . S
H488 C466 0.950 . S
C489 C490 1.349 . S
C489 C491 1.327 . S
C489 H514 0.950 . S
C490 C489 1.349 . S
C490 C506 1.349 . S
C491 C489 1.327 . S
C491 C510 1.429 . S
C491 H515 0.950 . S
C492 C509 1.574 . S
C492 C511 1.368 . S
C492 H516 0.949 . S
H493 C497 0.949 . S
C494 C495 1.349 . S
C494 C496 1.327 . S
C494 H517 0.950 . S
C495 C494 1.349 . S
C495 C507 1.349 . S
C496 C494 1.327 . S
C496 C512 1.429 . S
C496 H518 0.950 . S
C497 H493 0.949 . S
C497 C505 1.574 . S
C497 C513 1.368 . S
H498 C506 0.950 . S
H499 C504 0.950 . S
H500 C505 0.949 . S
H501 C507 0.950 . S
H502 C508 0.950 . S
H503 C509 0.949 . S
C504 H499 0.950 . S
C504 C506 1.327 . S
C504 C510 1.429 . S
C505 C497 1.574 . S
C505 H500 0.949 . S
C505 C511 1.368 . S
C506 C490 1.349 . S
C506 H498 0.950 . S
C506 C504 1.327 . S
C507 C495 1.349 . S
C507 H501 0.950 . S
C507 C508 1.327 . S
C508 H502 0.950 . S
C508 C507 1.327 . S
C508 C512 1.429 . S
C509 C492 1.574 . S
C509 H503 0.949 . S
C509 C513 1.368 . S
C510 C491 1.429 . S
C510 C504 1.429 . S
C510 C511 1.523 . S
C511 C492 1.368 . S
C511 C505 1.368 . S
C511 C510 1.523 . S
C512 C496 1.429 . S
C512 C508 1.429 . S
C512 C513 1.523 . S
C513 C497 1.368 . S
C513 C509 1.368 . S
C513 C512 1.523 . S
H514 C489 0.950 . S
H515 C491 0.950 . S
H516 C492 0.949 . S
H517 C494 0.950 . S
H518 C496 0.950 . S
C519 C520 1.349 . S
C519 C521 1.327 . S
C519 H544 0.950 . S
C520 C519 1.349 . S
C520 C536 1.349 . S
C521 C519 1.327 . S
C521 C540 1.429 . S
C521 H545 0.950 . S
C522 C539 1.574 . S
C522 C541 1.368 . S
C522 H546 0.949 . S
H523 C527 0.949 . S
C524 C525 1.349 . S
C524 C526 1.327 . S
C524 H547 0.950 . S
C525 C524 1.349 . S
C525 C537 1.349 . S
C526 C524 1.327 . S
C526 C542 1.429 . S
C526 H548 0.950 . S
C527 H523 0.949 . S
C527 C535 1.574 . S
C527 C543 1.368 . S
H528 C536 0.950 . S
H529 C534 0.950 . S
H530 C535 0.949 . S
H531 C537 0.950 . S
H532 C538 0.950 . S
H533 C539 0.949 . S
C534 H529 0.950 . S
C534 C536 1.327 . S
C534 C540 1.429 . S
C535 C527 1.574 . S
C535 H530 0.949 . S
C535 C541 1.368 . S
C536 C520 1.349 . S
C536 H528 0.950 . S
C536 C534 1.327 . S
C537 C525 1.349 . S
C537 H531 0.950 . S
C537 C538 1.327 . S
C538 H532 0.950 . S
C538 C537 1.327 . S
C538 C542 1.429 . S
C539 C522 1.574 . S
C539 H533 0.949 . S
C539 C543 1.368 . S
C540 C521 1.429 . S
C540 C534 1.429 . S
C540 C541 1.523 . S
C541 C522 1.368 . S
C541 C535 1.368 . S
C541 C540 1.523 . S
C542 C526 1.429 . S
C542 C538 1.429 . S
C542 C543 1.523 . S
C543 C527 1.368 . S
C543 C539 1.368 . S
C543 C542 1.523 . S
H544 C519 0.950 . S
H545 C521 0.950 . S
H546 C522 0.949 . S
H547 C524 0.950 . S
H548 C526 0.950 . S
C549 C550 1.349 . S
C549 C551 1.327 . S
C549 H574 0.950 . S
C550 C549 1.349 . S
C550 C566 1.349 . S
C551 C549 1.327 . S
C551 C570 1.429 . S
C551 H575 0.950 . S
C552 C569 1.574 . S
C552 C571 1.368 . S
C552 H576 0.949 . S
H553 C557 0.949 . S
C554 C555 1.349 . S
C554 C556 1.327 . S
C554 H577 0.950 . S
C555 C554 1.349 . S
C555 C567 1.349 . S
C556 C554 1.327 . S
C556 C572 1.429 . S
C556 H578 0.950 . S
C557 H553 0.949 . S
C557 C565 1.574 . S
C557 C573 1.368 . S
H558 C566 0.950 . S
H559 C564 0.950 . S
H560 C565 0.949 . S
H561 C567 0.950 . S
H562 C568 0.950 . S
H563 C569 0.949 . S
C564 H559 0.950 . S
C564 C566 1.327 . S
C564 C570 1.429 . S
C565 C557 1.574 . S
C565 H560 0.949 . S
C565 C571 1.368 . S
C566 C550 1.349 . S
C566 H558 0.950 . S
C566 C564 1.327 . S
C567 C555 1.349 . S
C567 H561 0.950 . S
C567 C568 1.327 . S
C568 H562 0.950 . S
C568 C567 1.327 . S
C568 C572 1.429 . S
C569 C552 1.574 . S
C569 H563 0.949 . S
C569 C573 1.368 . S
C570 C551 1.429 . S
C570 C564 1.429 . S
C570 C571 1.523 . S
C571 C552 1.368 . S
C571 C565 1.368 . S
C571 C570 1.523 . S
C572 C556 1.429 . S
C572 C568 1.429 . S
C572 C573 1.523 . S
C573 C557 1.368 . S
C573 C569 1.368 . S
C573 C572 1.523 . S
H574 C549 0.950 . S
H575 C551 0.950 . S
H576 C552 0.949 . S
H577 C554 0.950 . S
H578 C556 0.950 . S
C579 C580 1.349 . S
C579 C581 1.327 . S
C579 H604 0.950 . S
C580 C579 1.349 . S
C580 C596 1.349 . S
C581 C579 1.327 . S
C581 C600 1.429 . S
C581 H605 0.950 . S
C582 C599 1.574 . S
C582 C601 1.368 . S
C582 H606 0.949 . S
H583 C587 0.949 . S
C584 C585 1.349 . S
C584 C586 1.327 . S
C584 H607 0.950 . S
C585 C584 1.349 . S
C585 C597 1.349 . S
C586 C584 1.327 . S
C586 C602 1.429 . S
C586 H608 0.950 . S
C587 H583 0.949 . S
C587 C595 1.574 . S
C587 C603 1.368 . S
H588 C596 0.950 . S
H589 C594 0.950 . S
H590 C595 0.949 . S
H591 C597 0.950 . S
H592 C598 0.950 . S
H593 C599 0.949 . S
C594 H589 0.950 . S
C594 C596 1.327 . S
C594 C600 1.429 . S
C595 C587 1.574 . S
C595 H590 0.949 . S
C595 C601 1.368 . S
C596 C580 1.349 . S
C596 H588 0.950 . S
C596 C594 1.327 . S
C597 C585 1.349 . S
C597 H591 0.950 . S
C597 C598 1.327 . S
C598 H592 0.950 . S
C598 C597 1.327 . S
C598 C602 1.429 . S
C599 C582 1.574 . S
C599 H593 0.949 . S
C599 C603 1.368 . S
C600 C581 1.429 . S
C600 C594 1.429 . S
C600 C601 1.523 . S
C601 C582 1.368 . S
C601 C595 1.368 . S
C601 C600 1.523 . S
C602 C586 1.429 . S
C602 C598 1.429 . S
C602 C603 1.523 . S
C603 C587 1.368 . S
C603 C599 1.368 . S
C603 C602 1.523 . S
H604 C579 0.950 . S
H605 C581 0.950 . S
H606 C582 0.949 . S
H607 C584 0.950 . S
H608 C586 0.950 . S
C609 C610 1.349 . S
C609 C611 1.327 . S
C609 H634 0.950 . S
C610 C609 1.349 . S
C610 C626 1.349 . S
C611 C609 1.327 . S
C611 C630 1.429 . S
C611 H635 0.950 . S
C612 C629 1.574 . S
C612 C631 1.368 . S
C612 H636 0.949 . S
H613 C617 0.949 . S
C614 C615 1.349 . S
C614 C616 1.327 . S
C614 H637 0.950 . S
C615 C614 1.349 . S
C615 C627 1.349 . S
C616 C614 1.327 . S
C616 C632 1.429 . S
C616 H638 0.950 . S
C617 H613 0.949 . S
C617 C625 1.574 . S
C617 C633 1.368 . S
H618 C626 0.950 . S
H619 C624 0.950 . S
H620 C625 0.949 . S
H621 C627 0.950 . S
H622 C628 0.950 . S
H623 C629 0.949 . S
C624 H619 0.950 . S
C624 C626 1.327 . S
C624 C630 1.429 . S
C625 C617 1.574 . S
C625 H620 0.949 . S
C625 C631 1.368 . S
C626 C610 1.349 . S
C626 H618 0.950 . S
C626 C624 1.327 . S
C627 C615 1.349 . S
C627 H621 0.950 . S
C627 C628 1.327 . S
C628 H622 0.950 . S
C628 C627 1.327 . S
C628 C632 1.429 . S
C629 C612 1.574 . S
C629 H623 0.949 . S
C629 C633 1.368 . S
C630 C611 1.429 . S
C630 C624 1.429 . S
C630 C631 1.523 . S
C631 C612 1.368 . S
C631 C625 1.368 . S
C631 C630 1.523 . S
C632 C616 1.429 . S
C632 C628 1.429 . S
C632 C633 1.523 . S
C633 C617 1.368 . S
C633 C629 1.368 . S
C633 C632 1.523 . S
H634 C609 0.950 . S
H635 C611 0.950 . S
H636 C612 0.949 . S
H637 C614 0.950 . S
H638 C616 0.950 . S
C639 C640 1.349 . S
C639 C641 1.327 . S
C639 H664 0.950 . S
C640 C639 1.349 . S
C640 C656 1.349 1_554 S
C641 C639 1.327 . S
C641 C660 1.429 1_554 S
C641 H665 0.950 . S
C642 C659 1.574 . S
C642 C661 1.368 . S
C642 H666 0.949 . S
H643 C647 0.949 . S
C644 C645 1.349 . S
C644 C646 1.327 . S
C644 H667 0.950 . S
C645 C644 1.349 . S
C645 C657 1.349 . S
C646 C644 1.327 . S
C646 C662 1.429 . S
C646 H668 0.950 . S
C647 H643 0.949 . S
C647 C655 1.574 . S
C647 C663 1.368 . S
H648 C656 0.950 . S
H649 C654 0.950 . S
H650 C655 0.949 . S
H651 C657 0.950 . S
H652 C658 0.950 . S
H653 C659 0.949 . S
C654 H649 0.950 . S
C654 C656 1.327 . S
C654 C660 1.429 . S
C655 C647 1.574 . S
C655 H650 0.949 . S
C655 C661 1.368 . S
C656 C640 1.349 1_556 S
C656 H648 0.950 . S
C656 C654 1.327 . S
C657 C645 1.349 . S
C657 H651 0.950 . S
C657 C658 1.327 . S
C658 H652 0.950 . S
C658 C657 1.327 . S
C658 C662 1.429 . S
C659 C642 1.574 . S
C659 H653 0.949 . S
C659 C663 1.368 . S
C660 C641 1.429 1_556 S
C660 C654 1.429 . S
C660 C661 1.523 . S
C661 C642 1.368 . S
C661 C655 1.368 . S
C661 C660 1.523 . S
C662 C646 1.429 . S
C662 C658 1.429 . S
C662 C663 1.523 . S
C663 C647 1.368 . S
C663 C659 1.368 . S
C663 C662 1.523 . S
H664 C639 0.950 . S
H665 C641 0.950 . S
H666 C642 0.949 . S
H667 C644 0.950 . S
H668 C646 0.950 . S
C669 C670 1.349 1_554 S
C669 C671 1.327 1_554 S
C669 H694 0.950 . S
C670 C669 1.349 1_556 S
C670 C686 1.349 . S
C671 C669 1.327 1_556 S
C671 C690 1.429 . S
C671 H695 0.950 . S
C672 C689 1.574 . S
C672 C691 1.368 . S
C672 H696 0.949 . S
H673 C677 0.949 . S
C674 C675 1.349 . S
C674 C676 1.327 . S
C674 H697 0.950 . S
C675 C674 1.349 . S
C675 C687 1.349 . S
C676 C674 1.327 . S
C676 C692 1.429 . S
C676 H698 0.950 . S
C677 H673 0.949 . S
C677 C685 1.574 . S
C677 C693 1.368 . S
H678 C686 0.950 . S
H679 C684 0.950 . S
H680 C685 0.949 . S
H681 C687 0.950 . S
H682 C688 0.950 . S
H683 C689 0.949 . S
C684 H679 0.950 . S
C684 C686 1.327 . S
C684 C690 1.429 . S
C685 C677 1.574 . S
C685 H680 0.949 . S
C685 C691 1.368 . S
C686 C670 1.349 . S
C686 H678 0.950 . S
C686 C684 1.327 . S
C687 C675 1.349 . S
C687 H681 0.950 . S
C687 C688 1.327 . S
C688 H682 0.950 . S
C688 C687 1.327 . S
C688 C692 1.429 . S
C689 C672 1.574 . S
C689 H683 0.949 . S
C689 C693 1.368 . S
C690 C671 1.429 . S
C690 C684 1.429 . S
C690 C691 1.523 . S
C691 C672 1.368 . S
C691 C685 1.368 . S
C691 C690 1.523 . S
C692 C676 1.429 . S
C692 C688 1.429 . S
C692 C693 1.523 . S
C693 C677 1.368 . S
C693 C689 1.368 . S
C693 C692 1.523 . S
H694 C669 0.950 . S
H695 C671 0.950 . S
H696 C672 0.949 . S
H697 C674 0.950 . S
H698 C676 0.950 . S
C699 C700 1.349 . S
C699 C701 1.327 . S
C699 H724 0.950 . S
C700 C699 1.349 . S
C700 C716 1.349 . S
C701 C699 1.327 . S
C701 C720 1.429 . S
C701 H725 0.950 . S
C702 C719 1.574 . S
C702 C721 1.368 . S
C702 H726 0.949 . S
H703 C707 0.949 . S
C704 C705 1.349 . S
C704 C706 1.327 . S
C704 H727 0.950 . S
C705 C704 1.349 . S
C705 C717 1.349 . S
C706 C704 1.327 . S
C706 C722 1.429 . S
C706 H728 0.950 . S
C707 H703 0.949 . S
C707 C715 1.574 . S
C707 C723 1.368 . S
H708 C716 0.950 1_554 S
H709 C714 0.950 . S
H710 C715 0.949 . S
H711 C717 0.950 . S
H712 C718 0.950 . S
H713 C719 0.949 . S
C714 H709 0.950 . S
C714 C716 1.327 . S
C714 C720 1.429 . S
C715 C707 1.574 . S
C715 H710 0.949 . S
C715 C721 1.368 . S
C716 C700 1.349 . S
C716 H708 0.950 1_556 S
C716 C714 1.327 . S
C717 C705 1.349 . S
C717 H711 0.950 . S
C717 C718 1.327 . S
C718 H712 0.950 . S
C718 C717 1.327 . S
C718 C722 1.429 . S
C719 C702 1.574 . S
C719 H713 0.949 . S
C719 C723 1.368 . S
C720 C701 1.429 . S
C720 C714 1.429 . S
C720 C721 1.523 . S
C721 C702 1.368 . S
C721 C715 1.368 . S
C721 C720 1.523 . S
C722 C706 1.429 . S
C722 C718 1.429 . S
C722 C723 1.523 . S
C723 C707 1.368 . S
C723 C719 1.368 . S
C723 C722 1.523 . S
H724 C699 0.950 . S
H725 C701 0.950 . S
H726 C702 0.949 . S
H727 C704 0.950 . S
H728 C706 0.950 . S
C729 C730 1.349 . S
C729 C731 1.327 . S
C729 H754 0.950 . S
C730 C729 1.349 . S
C730 C746 1.349 . S
C731 C729 1.327 . S
C731 C750 1.429 . S
C731 H755 0.950 . S
C732 C749 1.574 . S
C732 C751 1.368 . S
C732 H756 0.949 . S
H733 C737 0.949 . S
C734 C735 1.349 . S
C734 C736 1.327 . S
C734 H757 0.950 . S
C735 C734 1.349 . S
C735 C747 1.349 . S
C736 C734 1.327 . S
C736 C752 1.429 . S
C736 H758 0.950 . S
C737 H733 0.949 . S
C737 C745 1.574 . S
C737 C753 1.368 . S
H738 C746 0.950 . S
H739 C744 0.950 . S
H740 C745 0.949 . S
H741 C747 0.950 . S
H742 C748 0.950 . S
H743 C749 0.949 . S
C744 H739 0.950 . S
C744 C746 1.327 . S
C744 C750 1.429 . S
C745 C737 1.574 . S
C745 H740 0.949 . S
C745 C751 1.368 . S
C746 C730 1.349 . S
C746 H738 0.950 . S
C746 C744 1.327 . S
C747 C735 1.349 . S
C747 H741 0.950 . S
C747 C748 1.327 . S
C748 H742 0.950 . S
C748 C747 1.327 . S
C748 C752 1.429 . S
C749 C732 1.574 . S
C749 H743 0.949 . S
C749 C753 1.368 . S
C750 C731 1.429 . S
C750 C744 1.429 . S
C750 C751 1.523 . S
C751 C732 1.368 . S
C751 C745 1.368 . S
C751 C750 1.523 . S
C752 C736 1.429 . S
C752 C748 1.429 . S
C752 C753 1.523 . S
C753 C737 1.368 . S
C753 C749 1.368 . S
C753 C752 1.523 . S
H754 C729 0.950 . S
H755 C731 0.950 . S
H756 C732 0.949 . S
H757 C734 0.950 . S
H758 C736 0.950 . S
C759 C760 1.349 . S
C759 C761 1.327 . S
C759 H784 0.950 . S
C760 C759 1.349 . S
C760 C776 1.349 . S
C761 C759 1.327 . S
C761 C780 1.429 . S
C761 H785 0.950 . S
C762 C779 1.574 . S
C762 C781 1.368 . S
C762 H786 0.949 . S
H763 C767 0.949 . S
C764 C765 1.349 . S
C764 C766 1.327 . S
C764 H787 0.950 . S
C765 C764 1.349 . S
C765 C777 1.349 . S
C766 C764 1.327 . S
C766 C782 1.429 . S
C766 H788 0.950 . S
C767 H763 0.949 . S
C767 C775 1.574 . S
C767 C783 1.368 . S
H768 C776 0.950 . S
H769 C774 0.950 . S
H770 C775 0.949 . S
H771 C777 0.950 . S
H772 C778 0.950 . S
H773 C779 0.949 . S
C774 H769 0.950 . S
C774 C776 1.327 . S
C774 C780 1.429 . S
C775 C767 1.574 . S
C775 H770 0.949 . S
C775 C781 1.368 . S
C776 C760 1.349 . S
C776 H768 0.950 . S
C776 C774 1.327 . S
C777 C765 1.349 . S
C777 H771 0.950 . S
C777 C778 1.327 . S
C778 H772 0.950 . S
C778 C777 1.327 . S
C778 C782 1.429 . S
C779 C762 1.574 . S
C779 H773 0.949 . S
C779 C783 1.368 . S
C780 C761 1.429 . S
C780 C774 1.429 . S
C780 C781 1.523 . S
C781 C762 1.368 . S
C781 C775 1.368 . S
C781 C780 1.523 . S
C782 C766 1.429 . S
C782 C778 1.429 . S
C782 C783 1.523 . S
C783 C767 1.368 . S
C783 C779 1.368 . S
C783 C782 1.523 . S
H784 C759 0.950 . S
H785 C761 0.950 . S
H786 C762 0.949 . S
H787 C764 0.950 . S
H788 C766 0.950 . S
C789 C790 1.349 . S
C789 C791 1.327 1_554 S
C789 H814 0.950 . S
C790 C789 1.349 . S
C790 C806 1.349 . S
C791 C789 1.327 1_556 S
C791 C810 1.429 . S
C791 H815 0.950 . S
C792 C809 1.574 . S
C792 C811 1.368 . S
C792 H816 0.949 . S
H793 C797 0.949 . S
C794 C795 1.349 . S
C794 C796 1.327 . S
C794 H817 0.950 . S
C795 C794 1.349 . S
C795 C807 1.349 . S
C796 C794 1.327 . S
C796 C812 1.429 . S
C796 H818 0.950 . S
C797 H793 0.949 . S
C797 C805 1.574 . S
C797 C813 1.368 . S
H798 C806 0.950 . S
H799 C804 0.950 . S
H800 C805 0.949 . S
H801 C807 0.950 . S
H802 C808 0.950 . S
H803 C809 0.949 . S
C804 H799 0.950 . S
C804 C806 1.325 1_556 S
C804 C810 1.430 . S
C805 C797 1.574 . S
C805 H800 0.949 . S
C805 C811 1.368 . S
C806 C790 1.349 . S
C806 H798 0.950 . S
C806 C804 1.325 1_554 S
C807 C795 1.349 . S
C807 H801 0.950 . S
C807 C808 1.327 . S
C808 H802 0.950 . S
C808 C807 1.327 . S
C808 C812 1.429 . S
C809 C792 1.574 . S
C809 H803 0.949 . S
C809 C813 1.368 . S
C810 C791 1.429 . S
C810 C804 1.430 . S
C810 C811 1.523 . S
C811 C792 1.368 . S
C811 C805 1.368 . S
C811 C810 1.523 . S
C812 C796 1.429 . S
C812 C808 1.429 . S
C812 C813 1.523 . S
C813 C797 1.368 . S
C813 C809 1.368 . S
C813 C812 1.523 . S
H814 C789 0.950 . S
H815 C791 0.950 . S
H816 C792 0.949 . S
H817 C794 0.950 . S
H818 C796 0.950 . S
C819 C820 1.349 . S
C819 C821 1.327 . S
C819 H844 0.950 . S
C820 C819 1.349 . S
C820 C836 1.349 . S
C821 C819 1.327 . S
C821 C840 1.429 . S
C821 H845 0.950 . S
C822 C839 1.574 . S
C822 C841 1.368 . S
C822 H846 0.949 . S
H823 C827 0.949 . S
C824 C825 1.349 . S
C824 C826 1.327 . S
C824 H847 0.950 . S
C825 C824 1.349 . S
C825 C837 1.349 . S
C826 C824 1.327 . S
C826 C842 1.429 . S
C826 H848 0.950 . S
C827 H823 0.949 . S
C827 C835 1.574 . S
C827 C843 1.368 . S
H828 C836 0.950 . S
H829 C834 0.950 . S
H830 C835 0.949 . S
H831 C837 0.950 . S
H832 C838 0.950 . S
H833 C839 0.949 . S
C834 H829 0.950 . S
C834 C836 1.327 . S
C834 C840 1.429 . S
C835 C827 1.574 . S
C835 H830 0.949 . S
C835 C841 1.368 . S
C836 C820 1.349 . S
C836 H828 0.950 . S
C836 C834 1.327 . S
C837 C825 1.349 . S
C837 H831 0.950 . S
C837 C838 1.327 . S
C838 H832 0.950 . S
C838 C837 1.327 . S
C838 C842 1.429 . S
C839 C822 1.574 . S
C839 H833 0.949 . S
C839 C843 1.368 . S
C840 C821 1.429 . S
C840 C834 1.429 . S
C840 C841 1.523 . S
C841 C822 1.368 . S
C841 C835 1.368 . S
C841 C840 1.523 . S
C842 C826 1.429 . S
C842 C838 1.429 . S
C842 C843 1.523 . S
C843 C827 1.368 . S
C843 C839 1.368 . S
C843 C842 1.523 . S
H844 C819 0.950 . S
H845 C821 0.950 . S
H846 C822 0.949 . S
H847 C824 0.950 . S
H848 C826 0.950 . S
C849 C850 1.349 . S
C849 C851 1.327 . S
C849 H874 0.950 1_556 S
C850 C849 1.349 . S
C850 C866 1.349 . S
C851 C849 1.327 . S
C851 C870 1.429 . S
C851 H875 0.950 . S
C852 C869 1.574 . S
C852 C871 1.368 . S
C852 H876 0.949 . S
H853 C857 0.949 . S
C854 C855 1.349 . S
C854 C856 1.327 . S
C854 H877 0.950 . S
C855 C854 1.349 . S
C855 C867 1.349 . S
C856 C854 1.327 . S
C856 C872 1.429 . S
C856 H878 0.950 . S
C857 H853 0.949 . S
C857 C865 1.574 . S
C857 C873 1.368 . S
H858 C866 0.950 . S
H859 C864 0.950 . S
H860 C865 0.949 . S
H861 C867 0.950 . S
H862 C868 0.950 . S
H863 C869 0.949 . S
C864 H859 0.950 . S
C864 C866 1.327 . S
C864 C870 1.429 . S
C865 C857 1.574 . S
C865 H860 0.949 . S
C865 C871 1.368 . S
C866 C850 1.349 . S
C866 H858 0.950 . S
C866 C864 1.327 . S
C867 C855 1.349 . S
C867 H861 0.950 . S
C867 C868 1.327 . S
C868 H862 0.950 . S
C868 C867 1.327 . S
C868 C872 1.429 . S
C869 C852 1.574 . S
C869 H863 0.949 . S
C869 C873 1.368 . S
C870 C851 1.429 . S
C870 C864 1.429 . S
C870 C871 1.523 . S
C871 C852 1.368 . S
C871 C865 1.368 . S
C871 C870 1.523 . S
C872 C856 1.429 . S
C872 C868 1.429 . S
C872 C873 1.523 . S
C873 C857 1.368 . S
C873 C869 1.368 . S
C873 C872 1.523 . S
H874 C849 0.950 1_554 S
H875 C851 0.950 . S
H876 C852 0.949 . S
H877 C854 0.950 . S
H878 C856 0.950 . S
C879 C880 1.349 . S
C879 C881 1.327 . S
C879 H904 0.950 . S
C880 C879 1.349 . S
C880 C896 1.349 . S
C881 C879 1.327 . S
C881 C900 1.429 . S
C881 H905 0.950 . S
C882 C899 1.574 . S
C882 C901 1.368 . S
C882 H906 0.949 . S
H883 C887 0.949 . S
C884 C885 1.349 . S
C884 C886 1.327 . S
C884 H907 0.950 . S
C885 C884 1.349 . S
C885 C897 1.349 . S
C886 C884 1.327 . S
C886 C902 1.429 . S
C886 H908 0.950 . S
C887 H883 0.949 . S
C887 C895 1.574 . S
C887 C903 1.368 . S
H888 C896 0.950 . S
H889 C894 0.950 . S
H890 C895 0.949 . S
H891 C897 0.950 . S
H892 C898 0.950 . S
H893 C899 0.949 . S
C894 H889 0.950 . S
C894 C896 1.327 . S
C894 C900 1.429 . S
C895 C887 1.574 . S
C895 H890 0.949 . S
C895 C901 1.368 . S
C896 C880 1.349 . S
C896 H888 0.950 . S
C896 C894 1.327 . S
C897 C885 1.349 . S
C897 H891 0.950 . S
C897 C898 1.327 . S
C898 H892 0.950 . S
C898 C897 1.327 . S
C898 C902 1.429 . S
C899 C882 1.574 . S
C899 H893 0.949 . S
C899 C903 1.368 . S
C900 C881 1.429 . S
C900 C894 1.429 . S
C900 C901 1.523 . S
C901 C882 1.368 . S
C901 C895 1.368 . S
C901 C900 1.523 . S
C902 C886 1.429 . S
C902 C898 1.429 . S
C902 C903 1.523 . S
C903 C887 1.368 . S
C903 C899 1.368 . S
C903 C902 1.523 . S
H904 C879 0.950 . S
H905 C881 0.950 . S
H906 C882 0.949 . S
H907 C884 0.950 . S
H908 C886 0.950 . S
C909 C910 1.349 . S
C909 C911 1.327 . S
C909 H934 0.950 . S
C910 C909 1.349 . S
C910 C926 1.349 . S
C911 C909 1.327 . S
C911 C930 1.429 . S
C911 H935 0.950 . S
C912 C929 1.574 . S
C912 C931 1.368 . S
C912 H936 0.949 . S
H913 C917 0.949 . S
C914 C915 1.349 . S
C914 C916 1.327 . S
C914 H937 0.950 . S
C915 C914 1.349 . S
C915 C927 1.349 . S
C916 C914 1.327 . S
C916 C932 1.429 . S
C916 H938 0.950 . S
C917 H913 0.949 . S
C917 C925 1.574 . S
C917 C933 1.368 . S
H918 C926 0.950 . S
H919 C924 0.950 . S
H920 C925 0.949 . S
H921 C927 0.950 . S
H922 C928 0.950 . S
H923 C929 0.949 . S
C924 H919 0.950 . S
C924 C926 1.327 . S
C924 C930 1.429 . S
C925 C917 1.574 . S
C925 H920 0.949 . S
C925 C931 1.368 . S
C926 C910 1.349 . S
C926 H918 0.950 . S
C926 C924 1.327 . S
C927 C915 1.349 . S
C927 H921 0.950 . S
C927 C928 1.327 . S
C928 H922 0.950 . S
C928 C927 1.327 . S
C928 C932 1.429 . S
C929 C912 1.574 . S
C929 H923 0.949 . S
C929 C933 1.368 . S
C930 C911 1.429 . S
C930 C924 1.429 . S
C930 C931 1.523 . S
C931 C912 1.368 . S
C931 C925 1.368 . S
C931 C930 1.523 . S
C932 C916 1.429 . S
C932 C928 1.429 . S
C932 C933 1.523 . S
C933 C917 1.368 . S
C933 C929 1.368 . S
C933 C932 1.523 . S
H934 C909 0.950 . S
H935 C911 0.950 . S
H936 C912 0.949 . S
H937 C914 0.950 . S
H938 C916 0.950 . S
C939 C940 1.349 . S
C939 C941 1.327 . S
C939 H964 0.950 . S
C940 C939 1.349 . S
C940 C956 1.349 . S
C941 C939 1.327 . S
C941 C960 1.429 . S
C941 H965 0.950 . S
C942 C959 1.574 . S
C942 C961 1.368 . S
C942 H966 0.949 . S
H943 C947 0.949 . S
C944 C945 1.349 . S
C944 C946 1.327 . S
C944 H967 0.950 . S
C945 C944 1.349 . S
C945 C957 1.349 . S
C946 C944 1.327 . S
C946 C962 1.429 . S
C946 H968 0.950 . S
C947 H943 0.949 . S
C947 C955 1.574 . S
C947 C963 1.368 . S
H948 C956 0.950 . S
H949 C954 0.950 . S
H950 C955 0.949 . S
H951 C957 0.950 . S
H952 C958 0.950 . S
H953 C959 0.949 . S
C954 H949 0.950 . S
C954 C956 1.327 . S
C954 C960 1.429 . S
C955 C947 1.574 . S
C955 H950 0.949 . S
C955 C961 1.368 . S
C956 C940 1.349 . S
C956 H948 0.950 . S
C956 C954 1.327 . S
C957 C945 1.349 . S
C957 H951 0.950 . S
C957 C958 1.327 . S
C958 H952 0.950 . S
C958 C957 1.327 . S
C958 C962 1.429 . S
C959 C942 1.574 . S
C959 H953 0.949 . S
C959 C963 1.368 . S
C960 C941 1.429 . S
C960 C954 1.429 . S
C960 C961 1.523 . S
C961 C942 1.368 . S
C961 C955 1.368 . S
C961 C960 1.523 . S
C962 C946 1.429 . S
C962 C958 1.429 . S
C962 C963 1.523 . S
C963 C947 1.368 . S
C963 C959 1.368 . S
C963 C962 1.523 . S
H964 C939 0.950 . S
H965 C941 0.950 . S
H966 C942 0.949 . S
H967 C944 0.950 . S
H968 C946 0.950 . S
C969 C970 1.349 . S
C969 C971 1.327 . S
C969 H994 0.950 . S
C970 C969 1.349 . S
C970 C986 1.349 . S
C971 C969 1.327 . S
C971 C990 1.429 . S
C971 H995 0.950 . S
C972 C989 1.574 . S
C972 C991 1.368 . S
C972 H996 0.949 . S
H973 C977 0.949 . S
C974 C975 1.349 . S
C974 C976 1.327 . S
C974 H997 0.950 . S
C975 C974 1.349 . S
C975 C987 1.349 . S
C976 C974 1.327 . S
C976 C992 1.429 . S
C976 H998 0.950 . S
C977 H973 0.949 . S
C977 C985 1.574 . S
C977 C993 1.368 . S
H978 C986 0.950 . S
H979 C984 0.950 . S
H980 C985 0.949 . S
H981 C987 0.950 . S
H982 C988 0.950 . S
H983 C989 0.949 . S
C984 H979 0.950 . S
C984 C986 1.327 . S
C984 C990 1.429 . S
C985 C977 1.574 . S
C985 H980 0.949 . S
C985 C991 1.368 . S
C986 C970 1.349 . S
C986 H978 0.950 . S
C986 C984 1.327 . S
C987 C975 1.349 . S
C987 H981 0.950 . S
C987 C988 1.327 . S
C988 H982 0.950 . S
C988 C987 1.327 . S
C988 C992 1.429 . S
C989 C972 1.574 . S
C989 H983 0.949 . S
C989 C993 1.368 . S
C990 C971 1.429 . S
C990 C984 1.429 . S
C990 C991 1.523 . S
C991 C972 1.368 . S
C991 C985 1.368 . S
C991 C990 1.523 . S
C992 C976 1.429 . S
C992 C988 1.429 . S
C992 C993 1.523 . S
C993 C977 1.368 . S
C993 C989 1.368 . S
C993 C992 1.523 . S
H994 C969 0.950 . S
H995 C971 0.950 . S
H996 C972 0.949 . S
H997 C974 0.950 . S
H998 C976 0.950 . S
C999 C1000 1.349 . S
C999 C1001 1.327 . S
C999 H1024 0.950 . S
C1000 C999 1.349 . S
C1000 C1016 1.349 . S
C1001 C999 1.327 . S
C1001 C1020 1.429 . S
C1001 H1025 0.950 . S
C1002 C1019 1.574 . S
C1002 C1021 1.368 . S
C1002 H1026 0.949 . S
H1003 C1007 0.949 . S
C1004 C1005 1.349 . S
C1004 C1006 1.327 . S
C1004 H1027 0.950 . S
C1005 C1004 1.349 . S
C1005 C1017 1.349 . S
C1006 C1004 1.327 . S
C1006 C1022 1.429 . S
C1006 H1028 0.950 . S
C1007 H1003 0.949 . S
C1007 C1015 1.574 . S
C1007 C1023 1.368 . S
H1008 C1016 0.950 . S
H1009 C1014 0.950 . S
H1010 C1015 0.949 . S
H1011 C1017 0.950 . S
H1012 C1018 0.950 . S
H1013 C1019 0.949 . S
C1014 H1009 0.950 . S
C1014 C1016 1.327 . S
C1014 C1020 1.429 . S
C1015 C1007 1.574 . S
C1015 H1010 0.949 . S
C1015 C1021 1.368 . S
C1016 C1000 1.349 . S
C1016 H1008 0.950 . S
C1016 C1014 1.327 . S
C1017 C1005 1.349 . S
C1017 H1011 0.950 . S
C1017 C1018 1.327 . S
C1018 H1012 0.950 . S
C1018 C1017 1.327 . S
C1018 C1022 1.429 . S
C1019 C1002 1.574 . S
C1019 H1013 0.949 . S
C1019 C1023 1.368 . S
C1020 C1001 1.429 . S
C1020 C1014 1.429 . S
C1020 C1021 1.523 . S
C1021 C1002 1.368 . S
C1021 C1015 1.368 . S
C1021 C1020 1.523 . S
C1022 C1006 1.429 . S
C1022 C1018 1.429 . S
C1022 C1023 1.523 . S
C1023 C1007 1.368 . S
C1023 C1019 1.368 . S
C1023 C1022 1.523 . S
H1024 C999 0.950 . S
H1025 C1001 0.950 . S
H1026 C1002 0.949 . S
H1027 C1004 0.950 . S
H1028 C1006 0.950 . S
C1029 C1030 1.349 . S
C1029 C1031 1.327 . S
C1029 H1054 0.950 . S
C1030 C1029 1.349 . S
C1030 C1046 1.349 . S
C1031 C1029 1.327 . S
C1031 C1050 1.429 . S
C1031 H1055 0.950 . S
C1032 C1049 1.574 . S
C1032 C1051 1.368 . S
C1032 H1056 0.949 . S
H1033 C1037 0.949 . S
C1034 C1035 1.349 . S
C1034 C1036 1.327 . S
C1034 H1057 0.950 . S
C1035 C1034 1.349 . S
C1035 C1047 1.349 . S
C1036 C1034 1.327 . S
C1036 C1052 1.429 . S
C1036 H1058 0.950 . S
C1037 H1033 0.949 . S
C1037 C1045 1.574 . S
C1037 C1053 1.368 . S
H1038 C1046 0.950 . S
H1039 C1044 0.950 . S
H1040 C1045 0.949 . S
H1041 C1047 0.950 . S
H1042 C1048 0.950 . S
H1043 C1049 0.949 . S
C1044 H1039 0.950 . S
C1044 C1046 1.327 . S
C1044 C1050 1.429 . S
C1045 C1037 1.574 . S
C1045 H1040 0.949 . S
C1045 C1051 1.368 . S
C1046 C1030 1.349 . S
C1046 H1038 0.950 . S
C1046 C1044 1.327 . S
C1047 C1035 1.349 . S
C1047 H1041 0.950 . S
C1047 C1048 1.327 . S
C1048 H1042 0.950 . S
C1048 C1047 1.327 . S
C1048 C1052 1.429 . S
C1049 C1032 1.574 . S
C1049 H1043 0.949 . S
C1049 C1053 1.368 . S
C1050 C1031 1.429 . S
C1050 C1044 1.429 . S
C1050 C1051 1.523 . S
C1051 C1032 1.368 . S
C1051 C1045 1.368 . S
C1051 C1050 1.523 . S
C1052 C1036 1.429 . S
C1052 C1048 1.429 . S
C1052 C1053 1.523 . S
C1053 C1037 1.368 . S
C1053 C1049 1.368 . S
C1053 C1052 1.523 . S
H1054 C1029 0.950 . S
H1055 C1031 0.950 . S
H1056 C1032 0.949 . S
H1057 C1034 0.950 . S
H1058 C1036 0.950 . S
C1059 C1060 1.349 . S
C1059 C1061 1.327 . S
C1059 H1084 0.950 . S
C1060 C1059 1.349 . S
C1060 C1076 1.349 . S
C1061 C1059 1.327 . S
C1061 C1080 1.429 . S
C1061 H1085 0.950 . S
C1062 C1079 1.574 . S
C1062 C1081 1.368 . S
C1062 H1086 0.949 . S
H1063 C1067 0.949 . S
C1064 C1065 1.349 . S
C1064 C1066 1.327 . S
C1064 H1087 0.950 . S
C1065 C1064 1.349 . S
C1065 C1077 1.349 . S
C1066 C1064 1.327 . S
C1066 C1082 1.429 . S
C1066 H1088 0.950 . S
C1067 H1063 0.949 . S
C1067 C1075 1.574 . S
C1067 C1083 1.368 . S
H1068 C1076 0.950 . S
H1069 C1074 0.950 . S
H1070 C1075 0.949 . S
H1071 C1077 0.950 . S
H1072 C1078 0.950 . S
H1073 C1079 0.949 . S
C1074 H1069 0.950 . S
C1074 C1076 1.327 . S
C1074 C1080 1.429 . S
C1075 C1067 1.574 . S
C1075 H1070 0.949 . S
C1075 C1081 1.368 . S
C1076 C1060 1.349 . S
C1076 H1068 0.950 . S
C1076 C1074 1.327 . S
C1077 C1065 1.349 . S
C1077 H1071 0.950 . S
C1077 C1078 1.327 . S
C1078 H1072 0.950 . S
C1078 C1077 1.327 . S
C1078 C1082 1.429 . S
C1079 C1062 1.574 . S
C1079 H1073 0.949 . S
C1079 C1083 1.368 . S
C1080 C1061 1.429 . S
C1080 C1074 1.429 . S
C1080 C1081 1.523 . S
C1081 C1062 1.368 . S
C1081 C1075 1.368 . S
C1081 C1080 1.523 . S
C1082 C1066 1.429 . S
C1082 C1078 1.429 . S
C1082 C1083 1.523 . S
C1083 C1067 1.368 . S
C1083 C1079 1.368 . S
C1083 C1082 1.523 . S
H1084 C1059 0.950 . S
H1085 C1061 0.950 . S
H1086 C1062 0.949 . S
H1087 C1064 0.950 . S
H1088 C1066 0.950 . S
C370 C15 1.857 . S
C375 C287 1.800 . S
C400 C47 1.690 . S
C405 C334 1.655 . S
C435 C338 1.895 . S
C430 C100 1.961 . S
C465 C303 1.569 . S
C460 C146 1.611 . S
C490 C192 1.789 . S
C495 C318 1.712 . S
C525 C340 0.879 . S
C520 C245 0.894 . S
C555 C309 1.326 . S
C550 C114 1.370 . S
C580 C160 1.376 . S
C585 C349 1.340 . S
C615 C278 1.225 . S
C610 C206 1.270 . S
C640 C231 1.528 . S
C645 C307 1.479 . S
C670 C1 2.047 1_556 S
C675 C365 1.991 . S
C705 C276 1.559 . S
C700 C61 1.598 1_556 S
C735 C294 1.799 . S
C730 C139 1.856 . S
C765 C308 1.655 . S
C760 C185 1.683 . S
C795 C362 1.895 . S
C790 C252 1.960 . S
C825 C277 1.570 . S
C820 C22 1.612 1_556 S
C855 C325 1.712 . S
C850 C54 1.778 1_556 S
C880 C93 0.894 . S
C885 C348 0.879 . S
C915 C317 1.326 . S
C910 C238 1.370 . S
C945 C356 1.340 . S
C940 C8 1.376 . S
C975 C286 1.225 . S
C970 C68 1.278 . S
C1005 C331 1.479 . S
C1000 C107 1.528 . S
C1030 C153 2.047 . S
C1035 C339 1.991 . S
C1060 C199 1.607 . S
C1065 C300 1.559 . S
