# Generated by pormake.
# Topology anh, (6,3)-cn, num edge types: 1
# Building blocks:
#     Node 0, Type 0, BuildingBlock: HISSIN_clean_sbu_0, # of connection points: 6
#     Node 1, Type 0, BuildingBlock: HISSIN_clean_sbu_0, # of connection points: 6
#     Node 2, Type 0, BuildingBlock: HISSIN_clean_sbu_0, # of connection points: 6
#     Node 3, Type 1, BuildingBlock: VETTIZ_charged_linker_0, # of connection points: 3
#     Node 4, Type 1, BuildingBlock: VETTIZ_charged_linker_0, # of connection points: 3
#     Node 5, Type 1, BuildingBlock: VETTIZ_charged_linker_0, # of connection points: 3
#     Node 6, Type 1, BuildingBlock: VETTIZ_charged_linker_0, # of connection points: 3
#     Node 7, Type 1, BuildingBlock: VETTIZ_charged_linker_0, # of connection points: 3
#     Node 8, Type 1, BuildingBlock: VETTIZ_charged_linker_0, # of connection points: 3
#     Edge 9, Type (0, 1), BuildingBlock: AJUNOK_clean_linker_0, # of connection points: 2
#     Edge 10, Type (0, 1), BuildingBlock: AJUNOK_clean_linker_0, # of connection points: 2
#     Edge 11, Type (0, 1), BuildingBlock: AJUNOK_clean_linker_0, # of connection points: 2
#     Edge 12, Type (0, 1), BuildingBlock: AJUNOK_clean_linker_0, # of connection points: 2
#     Edge 13, Type (0, 1), BuildingBlock: AJUNOK_clean_linker_0, # of connection points: 2
#     Edge 14, Type (0, 1), BuildingBlock: AJUNOK_clean_linker_0, # of connection points: 2
#     Edge 15, Type (0, 1), BuildingBlock: AJUNOK_clean_linker_0, # of connection points: 2
#     Edge 16, Type (0, 1), BuildingBlock: AJUNOK_clean_linker_0, # of connection points: 2
#     Edge 17, Type (0, 1), BuildingBlock: AJUNOK_clean_linker_0, # of connection points: 2
#     Edge 18, Type (0, 1), BuildingBlock: AJUNOK_clean_linker_0, # of connection points: 2
#     Edge 19, Type (0, 1), BuildingBlock: AJUNOK_clean_linker_0, # of connection points: 2
#     Edge 20, Type (0, 1), BuildingBlock: AJUNOK_clean_linker_0, # of connection points: 2
#     Edge 21, Type (0, 1), BuildingBlock: AJUNOK_clean_linker_0, # of connection points: 2
#     Edge 22, Type (0, 1), BuildingBlock: AJUNOK_clean_linker_0, # of connection points: 2
#     Edge 23, Type (0, 1), BuildingBlock: AJUNOK_clean_linker_0, # of connection points: 2
#     Edge 24, Type (0, 1), BuildingBlock: AJUNOK_clean_linker_0, # of connection points: 2
#     Edge 25, Type (0, 1), BuildingBlock: AJUNOK_clean_linker_0, # of connection points: 2
#     Edge 26, Type (0, 1), BuildingBlock: AJUNOK_clean_linker_0, # of connection points: 2
# Relax obj value: 0.301
# Max RMSD: 0.198
# Mean RMSD: 0.165
data_MOF--net-anh--node1-HISSIN_clean_sbu_0--node2-VETTIZ_charged_linker_0--edge1-AJUNOK_clean_linker_0
_symmetry_space_group_name_H-M    P1
_symmetry_Int_Tables_number       1
_symmetry_cell_setting            triclinic
loop_
_symmetry_equiv_pos_as_xyz
'x, y, z'
_cell_length_a     27.46709
_cell_length_b     27.4894
_cell_length_c     53.523091
_cell_angle_alpha  92.903256
_cell_angle_beta   89.865785
_cell_angle_gamma 120.09448
loop_
_atom_site_label
_atom_site_type_symbol
_atom_site_fract_x
_atom_site_fract_y
_atom_site_fract_z
_atom_type_partial_charge
Eu0 Eu 1.12775 0.49905 0.15427 0.0
Eu1 Eu 0.19721 0.63477 0.16575 0.0
C2 C 1.14684 0.55338 0.21071 0.0
C3 C 1.00141 0.36338 0.15501 0.0
C4 C 0.95816 0.35529 0.13827 0.0
C5 C 0.94105 0.3547 0.18976 0.0
C6 C 0.90829 0.3506 0.14732 0.0
C7 C 0.9906 0.35899 0.18076 0.0
C8 C 0.90111 0.35371 0.17317 0.0
C9 C 1.06032 0.39196 0.14673 0.0
O10 O 0.26619 0.61158 0.16063 0.0
O11 O 0.21674 0.51481 0.16001 0.0
C12 C 0.26492 0.56284 0.16016 0.0
O13 O 0.17069 0.53741 0.11872 0.0
O14 O 0.26553 0.71604 0.15516 0.0
O15 O 0.21565 0.7115 0.18748 0.0
O16 O 0.16945 0.61901 0.12534 0.0
C17 C 0.17365 0.5826 0.11015 0.0
O18 O 1.06142 0.52479 0.14918 0.0
O19 O 1.10579 0.61516 0.16663 0.0
O20 O 0.19084 0.59869 0.20312 0.0
O21 O 1.07107 0.42743 0.12932 0.0
O22 O 1.09927 0.41312 0.16451 0.0
O23 O 1.1115 0.51372 0.19464 0.0
C24 C 0.25445 0.79433 0.16503 0.0
C25 C 0.20417 0.79353 0.15924 0.0
C26 C 0.30686 0.89453 0.15971 0.0
C27 C 0.20525 0.84366 0.1543 0.0
C28 C 0.3057 0.84477 0.16464 0.0
C29 C 0.25667 0.89486 0.15484 0.0
C30 C 0.25504 0.74412 0.1726 0.0
C31 C 1.05992 0.57009 0.15734 0.0
H32 H 0.96501 0.35801 0.11832 0.0
H33 H 0.93533 0.35535 0.20979 0.0
H34 H 0.87735 0.34883 0.13423 0.0
H35 H 1.02241 0.36403 0.19422 0.0
H36 H 0.16417 0.75464 0.15929 0.0
H37 H 0.34704 0.93333 0.16118 0.0
H38 H 0.16595 0.84276 0.15087 0.0
H39 H 0.34483 0.84608 0.1691 0.0
Eu40 Eu 0.61214 1.03291 0.48555 0.0
Eu41 Eu 0.54031 1.09269 0.49964 0.0
C42 C 0.60154 1.06442 0.54385 0.0
C43 C 0.72421 0.99187 0.48206 0.0
C44 C 0.75138 1.02701 0.50344 0.0
C45 C 0.79181 0.95978 0.48185 0.0
C46 C 0.79794 1.02768 0.51427 0.0
C47 C 0.74522 0.9591 0.47105 0.0
C48 C 0.81802 0.99335 0.50381 0.0
C49 C 0.67244 0.98726 0.47201 0.0
O50 O 0.62527 0.15989 0.48499 0.0
O51 O 0.67964 0.12373 0.49616 0.0
C52 C 0.67569 0.16698 0.48942 0.0
O53 O 0.59104 1.06099 0.44984 0.0
O54 O 0.50359 0.13021 0.52483 0.0
O55 O 0.50234 0.13884 0.48498 0.0
O56 O 0.50713 1.04689 0.46269 0.0
C57 C 0.54155 1.05481 0.44461 0.0
O58 O 0.51995 0.96093 0.4838 0.0
O59 O 0.4744 1.00073 0.50502 0.0
O60 O 0.58075 1.09519 0.53641 0.0
O61 O 0.62882 0.96334 0.48618 0.0
O62 O 0.67786 1.03255 0.46272 0.0
O63 O 0.61379 1.03433 0.52794 0.0
C64 C 0.53717 0.22167 0.51034 0.0
C65 C 0.5448 0.25477 0.48986 0.0
C66 C 0.62367 0.29811 0.52953 0.0
C67 C 0.59314 0.30767 0.4886 0.0
C68 C 0.57557 0.24534 0.53078 0.0
C69 C 0.63424 0.32849 0.50794 0.0
C70 C 0.50063 0.15982 0.50713 0.0
C71 C 0.47441 0.95588 0.49478 0.0
H72 H 0.73555 1.05262 0.51214 0.0
H73 H 0.80551 0.93187 0.47375 0.0
H74 H 0.81721 1.05368 0.53125 0.0
H75 H 0.7245 0.93166 0.45458 0.0
H76 H 0.51606 0.23761 0.47379 0.0
H77 H 0.65409 0.31399 0.54499 0.0
H78 H 0.60014 0.33034 0.47177 0.0
H79 H 0.57109 0.22137 0.54694 0.0
Eu80 Eu 0.65572 0.59103 0.82076 0.0
Eu81 Eu 0.78358 0.64585 0.83651 0.0
C82 C 0.69375 0.61026 0.87849 0.0
C83 C 0.53918 0.60772 0.80395 0.0
C84 C 0.58009 0.66154 0.79667 0.0
C85 C 0.4901 0.64951 0.82517 0.0
C86 C 0.57809 0.70936 0.80522 0.0
C87 C 0.4921 0.60176 0.81667 0.0
C88 C 0.53516 0.70368 0.82104 0.0
C89 C 0.55527 0.56453 0.8063 0.0
O90 O 0.75143 0.55083 0.83772 0.0
O91 O 0.66727 0.51419 0.81609 0.0
C92 C 0.70714 0.50736 0.82629 0.0
O93 O 0.7091 0.62921 0.78696 0.0
O94 O 0.85098 0.65467 0.86116 0.0
O95 O 0.871 0.70583 0.82894 0.0
O96 O 0.77411 0.6073 0.79807 0.0
C97 C 0.7499 0.61982 0.78076 0.0
O98 O 0.6824 0.68217 0.83294 0.0
O99 O 0.77395 0.71894 0.8229 0.0
O100 O 0.7413 0.65205 0.87135 0.0
O101 O 0.59235 0.56579 0.79066 0.0
O102 O 0.56764 0.56003 0.82926 0.0
O103 O 0.65754 0.5734 0.86166 0.0
C104 C 0.9205 0.65756 0.83479 0.0
C105 C 0.92141 0.64775 0.80871 0.0
C106 C 0.96175 0.59915 0.84129 0.0
C107 C 0.94223 0.61386 0.79906 0.0
C108 C 0.94129 0.63328 0.85095 0.0
C109 C 0.96204 0.58893 0.81531 0.0
C110 C 0.8892 0.68417 0.84512 0.0
C111 C 0.73034 0.72583 0.82705 0.0
H112 H 0.61711 0.66751 0.78689 0.0
H113 H 0.45587 0.64427 0.83696 0.0
H114 H 0.61278 0.75063 0.80151 0.0
H115 H 0.46032 0.56094 0.8226 0.0
H116 H 0.90491 0.66516 0.7957 0.0
H117 H 0.97834 0.58146 0.85414 0.0
H118 H 0.94293 0.60714 0.77897 0.0
H119 H 0.94033 0.63952 0.87106 0.0
C120 C 0.66279 0.33994 0.21039 0.0
C121 C 0.71556 0.35742 0.22166 0.0
C122 C 0.71993 0.35707 0.24786 0.0
C123 C 0.61859 0.30896 0.25016 0.0
C124 C 0.61467 0.31541 0.22494 0.0
C125 C 0.55452 0.2855 0.21534 0.0
H126 H 0.30308 1.05921 0.22338 0.0
C127 C 0.56187 0.26923 0.25868 0.0
C128 C 0.52375 0.25605 0.23851 0.0
H129 H 0.36243 0.1759 0.16426 0.0
H130 H 0.4409 0.24329 0.19116 0.0
H131 H 0.40604 1.06518 0.23696 0.0
H132 H 0.33717 0.16234 0.27019 0.0
H133 H 0.36679 0.14492 0.29482 0.0
H134 H 0.31002 1.08946 0.27572 0.0
H135 H 0.34997 1.03655 0.25874 0.0
H136 H 0.4228 1.07248 0.26893 0.0
C137 C 0.54838 0.24322 0.19355 0.0
C138 C 0.53937 0.3301 0.20783 0.0
C139 C 0.54493 0.17282 0.33961 0.0
C140 C 0.5008 0.12433 0.34957 0.0
C141 C 0.44831 1.09575 0.33666 0.0
C142 C 0.43952 0.11563 0.31455 0.0
C143 C 0.48414 0.16374 0.30468 0.0
C144 C 0.5358 0.19148 0.31713 0.0
C145 C 0.5791 0.24014 0.30314 0.0
C146 C 0.54448 0.23706 0.28027 0.0
C147 C 0.48897 0.19242 0.28144 0.0
C148 C 0.62806 0.22903 0.29648 0.0
C149 C 0.59772 0.295 0.31943 0.0
C150 C 0.33148 1.09996 0.21629 0.0
C151 C 0.32786 0.11099 0.19116 0.0
C152 C 0.36566 0.16515 0.18313 0.0
C153 C 0.41122 0.20405 0.19867 0.0
C154 C 0.41896 0.18818 0.22224 0.0
C155 C 0.37724 0.13885 0.2314 0.0
C156 C 0.39174 0.1292 0.25703 0.0
C157 C 0.4502 0.17985 0.26132 0.0
C158 C 0.46667 0.21329 0.24053 0.0
C159 C 0.39242 1.0729 0.25562 0.0
C160 C 0.34919 0.13109 0.27553 0.0
H161 H 0.67701 0.33203 0.28191 0.0
H162 H 0.65881 0.34084 0.19032 0.0
H163 H 0.56728 0.3719 0.21759 0.0
H164 H 0.49624 0.31905 0.21327 0.0
H165 H 0.54346 0.33593 0.18739 0.0
H166 H 0.56685 0.21733 0.19914 0.0
H167 H 0.57042 0.26563 0.17676 0.0
H168 H 0.50456 0.21341 0.18766 0.0
H169 H 0.58582 0.19566 0.34904 0.0
H170 H 0.41404 1.05741 0.34349 0.0
H171 H 0.39864 1.0918 0.30567 0.0
H172 H 0.6192 0.18658 0.30142 0.0
H173 H 0.66787 0.25992 0.30657 0.0
H174 H 0.63565 0.23008 0.27611 0.0
H175 H 0.56061 0.29513 0.32775 0.0
H176 H 0.61883 0.333 0.30852 0.0
H177 H 0.62643 0.29917 0.33503 0.0
H178 H 0.76016 0.37047 0.25703 0.0
C179 C 0.67159 0.3335 0.26222 0.0
C180 C 0.94442 0.86855 0.53961 0.0
C181 C 0.94801 0.91487 0.55372 0.0
C182 C 0.96063 0.92065 0.5796 0.0
C183 C 0.95238 0.82868 0.57763 0.0
C184 C 0.94703 0.8262 0.5519 0.0
C185 C 0.93625 0.77074 0.54012 0.0
H186 H 0.83973 0.49743 0.55445 0.0
C187 C 0.94181 0.77336 0.5851 0.0
C188 C 0.93436 0.73981 0.56313 0.0
H189 H 0.86261 0.58136 0.48578 0.0
H190 H 0.91624 0.67198 0.50844 0.0
H191 H 0.97005 0.59754 0.58332 0.0
H192 H 0.79569 0.54601 0.58042 0.0
H193 H 0.81751 0.58535 0.6088 0.0
H194 H 0.82355 0.52313 0.6044 0.0
H195 H 0.91407 0.5355 0.59608 0.0
H196 H 0.94979 0.60184 0.61426 0.0
C197 C 0.98687 0.78179 0.52369 0.0
C198 C 0.87864 0.74269 0.5257 0.0
C199 C 0.87969 0.71576 0.67346 0.0
C200 C 0.8578 0.66365 0.68444 0.0
C201 C 0.86165 0.61968 0.67166 0.0
C202 C 0.88354 0.62623 0.64769 0.0
C203 C 0.90057 0.67675 0.63607 0.0
C204 C 0.90069 0.72132 0.64922 0.0
C205 C 0.92115 0.77195 0.63375 0.0
C206 C 0.93012 0.74892 0.60871 0.0
C207 C 0.9168 0.69277 0.61021 0.0
C208 C 0.97701 0.82041 0.64564 0.0
C209 C 0.87342 0.78626 0.63219 0.0
C210 C 0.85849 0.53527 0.54408 0.0
C211 C 0.84609 0.53258 0.51847 0.0
C212 C 0.87082 0.58265 0.50566 0.0
C213 C 0.90133 0.63508 0.51892 0.0
C214 C 0.90552 0.63705 0.54521 0.0
C215 C 0.88658 0.58762 0.55721 0.0
C216 C 0.88942 0.59659 0.5852 0.0
C217 C 0.91144 0.65946 0.58811 0.0
C218 C 0.92077 0.68297 0.56468 0.0
C219 C 0.93278 0.58182 0.59546 0.0
C220 C 0.82888 0.56097 0.5954 0.0
H221 H 0.97044 0.88315 0.61149 0.0
H222 H 0.93409 0.86234 0.51976 0.0
H223 H 0.84894 0.75356 0.53518 0.0
H224 H 0.85634 0.69633 0.52491 0.0
H225 H 0.88359 0.75689 0.50633 0.0
H226 H 1.02698 0.81601 0.53249 0.0
H227 H 0.98242 0.79483 0.50492 0.0
H228 H 0.99279 0.74491 0.52147 0.0
H229 H 0.87927 0.75094 0.68331 0.0
H230 H 0.84576 0.57938 0.67985 0.0
H231 H 0.88401 0.5908 0.63868 0.0
H232 H 0.99795 0.80439 0.65787 0.0
H233 H 0.96978 0.85071 0.65728 0.0
H234 H 1.00836 0.84343 0.63132 0.0
H235 H 0.83298 0.74803 0.6262 0.0
H236 H 0.88101 0.81807 0.61873 0.0
H237 H 0.86735 0.80234 0.6507 0.0
H238 H 0.9646 0.95648 0.59079 0.0
C239 C 0.9634 0.87792 0.5916 0.0
C240 C 0.4228 0.79969 0.86246 0.0
C241 C 0.4718 0.82961 0.87757 0.0
C242 C 0.46585 0.83353 0.9037 0.0
C243 C 0.36844 0.75869 0.89909 0.0
C244 C 0.37339 0.76049 0.87339 0.0
C245 C 0.32833 0.70806 0.85973 0.0
H246 H 1.06703 0.4993 0.85882 0.0
C247 C 0.31625 0.70595 0.90434 0.0
C248 C 0.29327 0.67598 0.88132 0.0
H249 H 0.18104 0.5521 0.79707 0.0
H250 H 0.25907 0.60632 0.82603 0.0
H251 H 1.15423 0.4754 0.89237 0.0
H252 H 1.10989 0.60414 0.89158 0.0
H253 H 1.11253 0.58817 0.92295 0.0
H254 H 1.06453 0.53367 0.90095 0.0
H255 H 1.09853 0.47198 0.91102 0.0
H256 H 0.17038 0.50681 0.92291 0.0
C257 C 0.35598 0.67677 0.84625 0.0
C258 C 0.29614 0.72546 0.84196 0.0
C259 C 0.2503 0.65985 -0.00645 0.0
C260 C 0.20246 0.61428 0.00332 0.0
C261 C 0.16101 0.5728 0.98676 0.0
C262 C 0.16736 0.57594 0.96087 0.0
C263 C 0.2157 0.62103 0.95137 0.0
C264 C 0.25601 0.66243 0.96753 0.0
C265 C 0.30535 0.70618 0.95379 0.0
C266 C 0.28812 0.68353 0.92683 0.0
C267 C 0.23569 0.63356 0.92567 0.0
C268 C 0.35913 0.70592 0.96224 0.0
C269 C 0.30812 0.7634 0.95878 0.0
C270 C 1.10882 0.52069 0.85132 0.0
C271 C 1.11719 0.52634 0.82531 0.0
C272 C 0.17283 0.5514 0.81688 0.0
C273 C 0.21814 0.58305 0.83372 0.0
C274 C 0.20745 0.58657 0.85922 0.0
C275 C 1.15471 0.55102 0.86793 0.0
C276 C 1.15297 0.55567 0.89606 0.0
C277 C 0.21192 0.60434 0.90231 0.0
C278 C 0.24249 0.62356 0.88051 0.0
C279 C 1.14324 0.49967 0.90625 0.0
C280 C 1.10746 0.57095 0.90345 0.0
H281 H 0.41282 0.79928 0.93464 0.0
H282 H 0.42566 0.79543 0.84235 0.0
H283 H 0.28035 0.75044 0.85252 0.0
H284 H 0.2594 0.68932 0.83241 0.0
H285 H 0.32427 0.75183 0.82726 0.0
H286 H 0.39906 0.69115 0.85382 0.0
H287 H 0.35952 0.68348 0.82588 0.0
H288 H 0.33275 0.63096 0.84908 0.0
H289 H 0.28331 0.69178 0.00586 0.0
H290 H 1.12366 0.53767 -0.00608 0.0
H291 H 1.13438 0.5431 0.94925 0.0
H292 H 0.3492 0.66293 0.96686 0.0
H293 H 0.37909 0.73442 0.97916 0.0
H294 H 0.39046 0.71778 0.94739 0.0
H295 H 0.26558 0.75843 0.9565 0.0
H296 H 0.33512 0.79512 0.94566 0.0
H297 H 0.32374 0.78062 0.97818 0.0
H298 H 0.50289 0.85707 0.91579 0.0
C299 C 0.41392 0.79828 0.91459 0.0
C300 C 0.92863 0.41959 0.47431 0.0
C301 C 0.88346 0.37207 0.46084 0.0
C302 C 0.88733 0.3678 0.43469 0.0
C303 C 0.97772 0.45482 0.43531 0.0
C304 C 0.97549 0.46087 0.46104 0.0
C305 C 1.02755 0.51562 0.47112 0.0
H306 H 0.28936 0.74061 0.44114 0.0
C307 C 1.0312 0.50217 0.42654 0.0
C308 C 1.06206 0.53866 0.44742 0.0
H309 H 0.21769 0.72048 0.51413 0.0
H310 H 1.13272 0.63314 0.49821 0.0
H311 H 0.25543 0.61564 0.42953 0.0
H312 H 0.1847 0.71807 0.41271 0.0
H313 H 0.17073 0.67441 0.38564 0.0
H314 H 0.24267 0.72081 0.3961 0.0
H315 H 0.28115 0.66415 0.40513 0.0
H316 H 0.22658 0.59153 0.39922 0.0
C317 C 1.05966 0.50195 0.49044 0.0
C318 C 1.00819 0.55563 0.48233 0.0
C319 C 1.07145 0.51119 0.33256 0.0
C320 C 1.11966 0.54693 0.31908 0.0
C321 C 0.16867 0.58678 0.33266 0.0
C322 C 0.16922 0.59336 0.35868 0.0
C323 C 1.12042 0.5594 0.37184 0.0
C324 C 1.07318 0.51785 0.35895 0.0
C325 C 1.02712 0.48308 0.37666 0.0
C326 C 1.05373 0.513 0.40206 0.0
C327 C 1.10786 0.55808 0.39884 0.0
C328 C 1.01678 0.42201 0.3744 0.0
C329 C 0.97497 0.48807 0.3701 0.0
C330 C 0.25595 0.71759 0.454 0.0
C331 C 0.26132 0.73762 0.47897 0.0
C332 C 0.21528 0.70627 0.4947 0.0
C333 C 0.16606 0.65558 0.48548 0.0
C334 C 0.1621 0.63619 0.46014 0.0
C335 C 0.20719 0.66835 0.44517 0.0
C336 C 0.19768 0.64596 0.41867 0.0
C337 C 1.13933 0.5951 0.41946 0.0
C338 C 1.11729 0.58728 0.4438 0.0
C339 C 0.24256 0.62871 0.41258 0.0
C340 C 0.19932 0.69192 0.40225 0.0
H341 H 0.93243 0.40154 0.40216 0.0
H342 H 0.92702 0.42479 0.49442 0.0
H343 H 0.98138 0.56116 0.46853 0.0
H344 H 1.04417 0.59783 0.48751 0.0
H345 H 0.98317 0.53844 0.4993 0.0
H346 H 1.07024 0.47057 0.48216 0.0
H347 H 1.03374 0.48416 0.50711 0.0
H348 H 1.09951 0.53992 0.49676 0.0
H349 H 1.03302 0.47976 0.32289 0.0
H350 H 0.20699 0.61368 0.32307 0.0
H351 H 0.20782 0.62557 0.3674 0.0
H352 H 1.05323 0.42026 0.36627 0.0
H353 H 0.97934 0.39395 0.36224 0.0
H354 H 1.01157 0.40371 0.39286 0.0
H355 H 0.98781 0.53236 0.36644 0.0
H356 H 0.94489 0.47669 0.38545 0.0
H357 H 0.9525 0.46138 0.35303 0.0
H358 H 0.85407 0.33238 0.4238 0.0
C359 C 0.93341 0.40823 0.42205 0.0
C360 C 0.71834 0.97074 0.80822 0.0
C361 C 0.71202 0.9205 0.79549 0.0
C362 C 0.69309 0.91014 0.77028 0.0
C363 C 0.69367 0.99885 0.76971 0.0
C364 C 0.70848 1.00931 0.79489 0.0
C365 C 0.71166 1.0648 0.80426 0.0
H366 H 0.69147 0.29687 0.76956 0.0
C367 C 0.6897 1.0467 0.76015 0.0
C368 C 0.69961 1.08644 0.78026 0.0
H369 H 0.71988 0.2687 0.84518 0.0
H370 H 0.71882 0.1814 0.83037 0.0
H371 H 0.7775 0.26792 0.74604 0.0
H372 H 0.59904 0.17614 0.75466 0.0
H373 H 0.60945 0.15528 0.72462 0.0
H374 H 0.63266 0.22849 0.73213 0.0
H375 H 0.73025 0.27554 0.72574 0.0
H376 H 0.75179 0.2242 0.71866 0.0
C377 C 0.77091 0.10592 0.81524 0.0
C378 C 0.66572 1.05154 0.82359 0.0
C379 C 0.65348 1.04529 0.66598 0.0
C380 C 0.6489 1.08398 0.65124 0.0
C381 C 0.65801 0.13514 0.66276 0.0
C382 C 0.66908 0.14687 0.68849 0.0
C383 C 0.67168 0.10732 0.70327 0.0
C384 C 0.66478 1.0579 0.69196 0.0
C385 C 0.66983 1.02155 0.71081 0.0
C386 C 0.68064 1.05731 0.73524 0.0
C387 C 0.68113 0.10709 0.73058 0.0
C388 C 0.72115 1.01514 0.70366 0.0
C389 C 0.61285 0.9653 0.71081 0.0
C390 C 0.69702 0.27213 0.78321 0.0
C391 C 0.70458 0.28989 0.8086 0.0
C392 C 0.71339 0.25629 0.82541 0.0
C393 C 0.71247 0.20548 0.81684 0.0
C394 C 0.70326 0.18791 0.79112 0.0
C395 C 0.69643 0.22236 0.77509 0.0
C396 C 0.68808 0.2007 0.74847 0.0
C397 C 0.68891 0.14646 0.75057 0.0
C398 C 0.69814 0.13748 0.77553 0.0
C399 C 0.73908 0.2442 0.73378 0.0
C400 C 0.62961 0.18982 0.73924 0.0
H401 H 0.67084 0.93683 0.73837 0.0
H402 H 0.73168 0.98035 0.82772 0.0
H403 H 0.62382 1.01915 0.81559 0.0
H404 H 0.66303 1.08924 0.82937 0.0
H405 H 0.67431 1.03504 0.84056 0.0
H406 H 0.80332 0.11195 0.80132 0.0
H407 H 0.77934 1.08946 0.83225 0.0
H408 H 0.77598 0.1477 0.82038 0.0
H409 H 0.64691 1.00565 0.65765 0.0
H410 H 0.65588 0.16612 0.65179 0.0
H411 H 0.67432 0.18622 0.69581 0.0
H412 H 0.75621 1.05546 0.69729 0.0
H413 H 0.7099 0.98256 0.68817 0.0
H414 H 0.73941 1.00487 0.71948 0.0
H415 H 0.57729 0.97052 0.70441 0.0
H416 H 0.6012 0.94948 0.72978 0.0
H417 H 0.6134 0.93224 0.6982 0.0
H418 H 0.68496 0.87171 0.76001 0.0
C419 C 0.68433 0.94835 0.75756 0.0
C420 C 0.80393 0.56799 0.14534 0.0
C421 C 0.8499 0.56778 0.13286 0.0
C422 C 0.8501 0.5675 0.10664 0.0
C423 C 0.76159 0.56751 0.10514 0.0
C424 C 0.75975 0.56755 0.13096 0.0
C425 C 0.70652 0.56748 0.13988 0.0
H426 H 0.4549 0.552 0.10344 0.0
C427 C 0.71078 0.56667 0.09506 0.0
C428 C 0.67691 0.56592 0.11514 0.0
H429 H 0.51382 0.56976 0.17967 0.0
H430 H 0.5992 0.57046 0.16498 0.0
H431 H 0.56748 0.64519 0.08536 0.0
H432 H 0.49223 0.46538 0.08196 0.0
H433 H 0.52266 0.48741 0.0528 0.0
H434 H 0.46818 0.50164 0.06304 0.0
H435 H 0.51393 0.60083 0.06244 0.0
H436 H 0.58772 0.6283 0.05669 0.0
C437 C 0.72434 0.62225 0.15585 0.0
C438 C 0.67065 0.51451 0.15441 0.0
C439 C 0.69369 0.57502 0.00079 0.0
C440 C 0.6526 0.57501 0.98513 0.0
C441 C 0.60239 0.56731 -0.00431 0.0
C442 C 0.59423 0.56204 0.02154 0.0
C443 C 0.63671 0.56437 0.03716 0.0
C444 C 0.68489 0.56973 0.02658 0.0
C445 C 0.72489 0.57004 0.0458 0.0
C446 C 0.69383 0.56621 0.0699 0.0
C447 C 0.6424 0.56303 0.06472 0.0
C448 C 0.78086 0.62699 0.04499 0.0
C449 C 0.73025 0.51694 0.04008 0.0
C450 C 0.4857 0.55551 0.11712 0.0
C451 C 0.47683 0.56012 0.1427 0.0
C452 C 0.51922 0.56597 0.15976 0.0
C453 C 0.56874 0.56638 0.15124 0.0
C454 C 0.57687 0.56203 0.12531 0.0
C455 C 0.53531 0.55737 0.10898 0.0
C456 C 0.55053 0.55723 0.08219 0.0
C457 C 0.60738 0.56135 0.08458 0.0
C458 C 0.62386 0.56352 0.10987 0.0
C459 C 0.55487 0.6102 0.07086 0.0
C460 C 0.50611 0.50028 0.06909 0.0
H461 H 0.81099 0.56764 0.07303 0.0
H462 H 0.8024 0.56821 0.16555 0.0
H463 H 0.66214 0.47607 0.14293 0.0
H464 H 0.62957 0.51003 0.1593 0.0
H465 H 0.69289 0.51598 0.172 0.0
H466 H 0.75472 0.65939 0.14564 0.0
H467 H 0.74493 0.62247 0.17373 0.0
H468 H 0.68822 0.62801 0.16023 0.0
H469 H 0.73222 0.57955 -0.00687 0.0
H470 H 0.57003 0.56693 0.98401 0.0
H471 H 0.55537 0.55715 0.02837 0.0
H472 H 0.7726 0.66183 0.04156 0.0
H473 H 0.80772 0.62561 0.02975 0.0
H474 H 0.80534 0.64003 0.06283 0.0
H475 H 0.69268 0.48298 0.02952 0.0
H476 H 0.73245 0.49727 0.05727 0.0
H477 H 0.7676 0.52685 0.02867 0.0
H478 H 0.88442 0.56749 0.09659 0.0
C479 C 0.80692 0.56746 0.0929 0.0
C480 C 0.3197 0.51368 0.14755 0.0
C481 C 0.31954 0.56171 0.15821 0.0
C482 C 0.37028 0.51287 0.14354 0.0
C483 C 0.42349 0.55944 0.15059 0.0
H484 H 0.2804 0.4768 0.14135 0.0
H485 H 0.36778 0.47562 0.13436 0.0
S486 S 0.44761 0.69486 0.18033 0.0
N487 N 0.37848 0.65695 0.17638 0.0
N488 N 0.47254 0.65458 0.16941 0.0
C489 C 0.42403 0.60702 0.16202 0.0
C490 C 0.37257 0.60836 0.16566 0.0
C491 C 0.78259 0.23539 0.49304 0.0
C492 C 0.72839 0.22295 0.48467 0.0
C493 C 0.83245 0.28569 0.48714 0.0
C494 C 0.83081 0.32611 0.47242 0.0
H495 H 0.7868 0.20534 0.50382 0.0
H496 H 0.87279 0.29157 0.4931 0.0
S497 S 0.70081 0.31583 0.44601 0.0
N498 N 0.67746 0.25773 0.46122 0.0
N499 N 0.76989 0.35032 0.45012 0.0
C500 C 0.77697 0.31488 0.46451 0.0
C501 C 0.72638 0.26417 0.47063 0.0
C502 C 0.7536 0.80561 0.7988 0.0
C503 C 0.73239 0.78051 0.82157 0.0
C504 C 0.74973 0.8524 0.79155 0.0
C505 C 0.72455 0.87742 0.80661 0.0
H506 H 0.77138 0.78746 0.78587 0.0
H507 H 0.7656 0.8683 0.77342 0.0
S508 S 0.67364 0.83542 0.87064 0.0
N509 N 0.6923 0.78925 0.86084 0.0
N510 N 0.68553 0.87709 0.84741 0.0
C511 C 0.70699 0.85525 0.83033 0.0
C512 C 0.71043 0.80689 0.83764 0.0
C513 C 0.95388 0.51927 0.14887 0.0
C514 C 1.00465 0.57001 0.15505 0.0
C515 C 0.90263 0.5182 0.14414 0.0
C516 C 0.89897 0.56767 0.14554 0.0
H517 H 0.95388 0.47987 0.14684 0.0
H518 H 0.86603 0.47847 0.13805 0.0
S519 S 1.01775 0.71148 0.1619 0.0
N520 N 1.04625 0.67112 0.16333 0.0
N521 N 0.95064 0.66877 0.15419 0.0
C522 C 0.94858 0.6183 0.15266 0.0
C523 C 1.00093 0.61953 0.15753 0.0
C524 C 0.36755 0.89297 0.49939 0.0
C525 C 0.42053 0.89862 0.49367 0.0
C526 C 0.31641 0.84046 0.49625 0.0
C527 C 0.31562 0.79083 0.48731 0.0
H528 H 0.36517 0.92983 0.50555 0.0
H529 H 0.27702 0.83931 0.49977 0.0
S530 S 0.44209 0.78 0.47221 0.0
N531 N 0.46793 0.84732 0.48047 0.0
N532 N 0.37322 0.75033 0.47472 0.0
C533 C 0.36835 0.79541 0.48268 0.0
C534 C 0.42015 0.84854 0.48581 0.0
C535 C 0.74848 0.44268 0.83229 0.0
C536 C 0.70369 0.44998 0.82386 0.0
C537 C 0.74761 0.39052 0.82869 0.0
C538 C 0.70198 0.34274 0.81636 0.0
H539 H 0.78546 0.47806 0.84127 0.0
H540 H 0.78402 0.38832 0.83473 0.0
S541 S 0.57192 0.33643 0.79232 0.0
N542 N 0.61062 0.40199 0.8038 0.0
N543 N 0.60929 0.30572 0.79712 0.0
C544 C 0.65628 0.3489 0.80862 0.0
C545 C 0.65702 0.40169 0.81232 0.0
C546 C 0.85188 0.9729 0.5428 0.0
C547 C 0.86055 0.98622 0.51758 0.0
C548 C 0.88411 0.95453 0.55507 0.0
C549 C 0.92636 0.94893 0.54259 0.0
H550 H 0.8173 0.97275 0.55265 0.0
H551 H 0.87273 0.9405 0.57385 0.0
S552 S 0.97309 0.98953 0.47807 0.0
N553 N 0.91952 1.00051 0.48162 0.0
N554 N 0.98076 0.96638 0.50483 0.0
C555 C 0.93877 0.96694 0.51807 0.0
C556 C 0.90567 0.98542 0.50552 0.0
C557 C 0.97554 0.50597 0.81467 0.0
C558 C 0.99062 0.55881 0.80582 0.0
C559 C 1.01508 0.48813 0.81578 0.0
C560 C 1.07148 0.52435 0.80949 0.0
H561 H 0.93526 0.48134 0.82331 0.0
H562 H 1.00372 0.45005 0.82522 0.0
S563 S 1.12404 0.65705 0.77649 0.0
N564 N 1.05875 0.63854 0.78354 0.0
N565 N 1.13422 0.60703 0.78654 0.0
C566 C 1.08301 0.57164 0.79588 0.0
C567 C 1.04223 0.58886 0.79416 0.0
C568 C 0.22626 0.96112 0.17193 0.0
C569 C 0.25874 0.94988 0.15479 0.0
C570 C 0.24361 1.01648 0.1807 0.0
C571 C 0.29474 1.06195 0.17311 0.0
H572 H 0.19129 0.92701 0.18092 0.0
H573 H 0.22092 1.02283 0.19591 0.0
S574 S 0.38258 1.05512 0.12165 0.0
N575 N 0.33362 0.98896 0.12488 0.0
N576 N 0.36867 1.09277 0.14236 0.0
C577 C 0.32149 1.05178 0.15265 0.0
C578 C 0.30294 0.99554 0.14332 0.0
C579 C 0.73919 0.37874 0.511 0.0
C580 C 0.68971 0.37979 0.50531 0.0
C581 C 0.79179 0.42806 0.51208 0.0
C582 C 0.79667 0.48036 0.50789 0.0
H583 H 0.73695 0.33977 0.51563 0.0
H584 H 0.82829 0.42593 0.5181 0.0
S585 S 0.68051 0.50489 0.49003 0.0
N586 N 0.64944 0.43636 0.49321 0.0
N587 N 0.74816 0.52956 0.49578 0.0
C588 C 0.7481 0.48129 0.50026 0.0
C589 C 0.69456 0.43088 0.49895 0.0
C590 C 0.53706 0.7473 0.86282 0.0
C591 C 0.54108 0.75211 0.83681 0.0
C592 C 0.52893 0.78498 0.87817 0.0
C593 C 0.5207 0.82638 0.86772 0.0
H594 H 0.53638 0.71187 0.87117 0.0
H595 H 0.51942 0.77509 0.89755 0.0
S596 S 0.5491 0.86912 0.8023 0.0
N597 N 0.55398 0.81158 0.80242 0.0
N598 N 0.53552 0.88124 0.83134 0.0
C599 C 0.53595 0.83834 0.84266 0.0
C600 C 0.54549 0.80046 0.82698 0.0
C601 C 0.79831 0.31806 0.17696 0.0
C602 C 0.85404 0.35956 0.18306 0.0
C603 C 0.75338 0.31998 0.18839 0.0
C604 C 0.7628 0.3637 0.20614 0.0
H605 H 0.78952 0.28254 0.16421 0.0
H606 H 0.71115 0.28522 0.18435 0.0
S607 S 0.90096 0.48775 0.22487 0.0
N608 N 0.91639 0.44926 0.20533 0.0
N609 N 0.83168 0.45297 0.22681 0.0
C610 C 0.81827 0.40748 0.21102 0.0
C611 C 0.86399 0.40541 0.19945 0.0
C612 C 0.17685 0.54909 0.06621 0.0
C613 C 0.18161 0.59236 0.08306 0.0
C614 C 0.18385 0.55678 0.04052 0.0
C615 C 0.1963 0.60809 0.03066 0.0
H616 H 0.1673 0.50876 0.07281 0.0
H617 H 0.17982 0.52224 0.02825 0.0
S618 S 0.2134 0.73493 0.06649 0.0
N619 N 0.19994 0.68885 0.08787 0.0
N620 N 0.21281 0.70277 0.03949 0.0
C621 C 0.20158 0.65188 0.0472 0.0
C622 C 0.19419 0.64409 0.0734 0.0
C623 C 0.56706 1.08199 0.40034 0.0
C624 C 0.52799 1.06692 0.41963 0.0
C625 C 0.55781 1.09998 0.37764 0.0
C626 C 0.50922 1.1037 0.3734 0.0
H627 H 0.60566 1.08102 0.40292 0.0
H628 H 0.58906 0.11126 0.36334 0.0
S629 S 0.39389 1.06967 0.41777 0.0
N630 N 0.43793 1.05604 0.43256 0.0
N631 N 0.4221 1.09176 0.39046 0.0
C632 C 0.46957 1.08821 0.39238 0.0
C633 C 0.47853 1.06931 0.41532 0.0
C634 C 0.81588 0.61548 0.75001 0.0
C635 C 0.77425 0.62976 0.75556 0.0
C636 C 0.8431 0.62742 0.72719 0.0
C637 C 0.82976 0.65393 0.70886 0.0
H638 H 0.82803 0.5951 0.76346 0.0
H639 H 0.8752 0.61606 0.72395 0.0
S640 S 0.72233 0.69799 0.71342 0.0
N641 N 0.72023 0.67103 0.74055 0.0
N642 N 0.77073 0.69236 0.69723 0.0
C643 C 0.78777 0.66791 0.71392 0.0
C644 C 0.76002 0.65587 0.73731 0.0
C645 C 0.65298 1.055 0.58084 0.0
C646 C 0.61044 1.06391 0.57128 0.0
C647 C 0.664 1.059 0.60684 0.0
C648 C 0.6326 1.07169 0.62412 0.0
H649 H 0.67922 1.04689 0.56815 0.0
H650 H 0.6986 1.05429 0.61341 0.0
S651 S 0.51092 1.08954 0.60903 0.0
N652 N 0.53294 1.07979 0.58152 0.0
N653 N 0.55328 1.08661 0.62994 0.0
C654 C 0.588 1.07734 0.61481 0.0
C655 C 0.57704 1.07367 0.58854 0.0
C656 C 0.63292 0.55719 0.91404 0.0
C657 C 0.68279 0.60325 0.90579 0.0
C658 C 0.62309 0.54848 0.93967 0.0
C659 C 0.66295 0.58512 0.95806 0.0
H660 H 0.60137 0.52724 0.90062 0.0
H661 H 0.58441 0.5122 0.94514 0.0
S662 S 0.79842 0.71409 0.94687 0.0
N663 N 0.77133 0.68757 0.91861 0.0
N664 N 0.75252 0.67077 0.96646 0.0
C665 C 0.71235 0.63181 0.95018 0.0
C666 C 0.72232 0.64099 0.92417 0.0
C667 C 1.15616 0.59875 0.25334 0.0
C668 C 1.13571 0.54913 0.23796 0.0
C669 C 1.14819 0.59706 0.27918 0.0
C670 C 1.12045 0.54569 0.29107 0.0
H671 H 0.17857 0.63955 0.24536 0.0
H672 H 0.16476 0.63675 0.29002 0.0
S673 S 1.05702 0.4033 0.25905 0.0
N674 N 1.08388 0.44676 0.23619 0.0
N675 N 1.07092 0.44352 0.28507 0.0
C676 C 1.09829 0.49551 0.27582 0.0
C677 C 1.10558 0.49726 0.24925 0.0
loop_
_geom_bond_atom_site_label_1
_geom_bond_atom_site_label_2
_geom_bond_distance
_geom_bond_site_symmetry_2
_ccdc_geom_bond_type
Eu0 C9 2.828 . S
Eu0 O11 2.392 1_655 S
Eu0 O13 2.418 . S
Eu0 O18 2.373 . S
Eu0 O21 2.488 . S
Eu0 O22 2.471 . S
Eu0 O23 2.349 . S
Eu1 O10 2.373 . S
Eu1 O14 2.488 . S
Eu1 O15 2.471 . S
Eu1 O16 2.349 . S
Eu1 O19 2.392 1_455 S
Eu1 O20 2.418 . S
Eu1 C30 2.828 . S
C2 O20 1.244 . S
C2 O23 1.265 1_455 S
C3 C4 1.379 . S
C3 C7 1.373 . S
C3 C9 1.505 . S
C4 C3 1.379 . S
C4 C6 1.369 . S
C4 H32 0.930 . S
C5 C7 1.383 . S
C5 C8 1.382 . S
C5 H33 0.930 . S
C6 C4 1.369 . S
C6 C8 1.392 . S
C6 H34 0.930 . S
C7 C3 1.373 . S
C7 C5 1.383 . S
C7 H35 0.931 . S
C8 C5 1.382 . S
C8 C6 1.392 . S
C9 Eu0 2.828 . S
C9 C3 1.505 . S
C9 O21 1.249 . S
C9 O22 1.244 . S
O10 Eu1 2.373 . S
O10 C12 1.258 . S
O11 Eu0 2.392 1_455 S
O11 C12 1.242 . S
C12 O10 1.258 . S
C12 O11 1.242 . S
O13 Eu0 2.418 . S
O13 C17 1.244 . S
O14 Eu1 2.488 . S
O14 C30 1.249 . S
O15 Eu1 2.471 . S
O15 C30 1.244 . S
O16 Eu1 2.349 . S
O16 C17 1.265 1_455 S
C17 O13 1.244 . S
C17 O16 1.265 1_655 S
O18 Eu0 2.373 . S
O18 C31 1.258 . S
O19 Eu1 2.392 1_655 S
O19 C31 1.242 . S
O20 Eu1 2.418 . S
O20 C2 1.244 . S
O21 Eu0 2.488 . S
O21 C9 1.249 . S
O22 Eu0 2.471 . S
O22 C9 1.244 . S
O23 Eu0 2.349 . S
O23 C2 1.265 1_655 S
C24 C25 1.379 . S
C24 C28 1.373 . S
C24 C30 1.505 . S
C25 C24 1.379 . S
C25 C27 1.369 . S
C25 H36 0.930 . S
C26 C28 1.383 . S
C26 C29 1.382 . S
C26 H37 0.930 . S
C27 C25 1.369 . S
C27 C29 1.392 . S
C27 H38 0.930 . S
C28 C24 1.373 . S
C28 C26 1.383 . S
C28 H39 0.931 . S
C29 C26 1.382 . S
C29 C27 1.392 . S
C30 Eu1 2.828 . S
C30 O14 1.249 . S
C30 O15 1.244 . S
C30 C24 1.505 . S
C31 O18 1.258 . S
C31 O19 1.242 . S
H32 C4 0.930 . S
H33 C5 0.930 . S
H34 C6 0.930 . S
H35 C7 0.931 . S
H36 C25 0.930 . S
H37 C26 0.930 . S
H38 C27 0.930 . S
H39 C28 0.931 . S
Eu40 C49 2.828 . S
Eu40 O51 2.392 1_565 S
Eu40 O53 2.418 . S
Eu40 O58 2.373 . S
Eu40 O61 2.488 . S
Eu40 O62 2.471 . S
Eu40 O63 2.349 . S
Eu41 O50 2.373 . S
Eu41 O54 2.488 . S
Eu41 O55 2.471 . S
Eu41 O56 2.349 . S
Eu41 O59 2.392 1_545 S
Eu41 O60 2.418 . S
Eu41 C70 2.828 . S
C42 O60 1.244 . S
C42 O63 1.265 1_545 S
C43 C44 1.379 . S
C43 C47 1.373 . S
C43 C49 1.505 . S
C44 C43 1.379 . S
C44 C46 1.369 . S
C44 H72 0.930 . S
C45 C47 1.383 . S
C45 C48 1.382 . S
C45 H73 0.930 . S
C46 C44 1.369 . S
C46 C48 1.392 . S
C46 H74 0.930 . S
C47 C43 1.373 . S
C47 C45 1.383 . S
C47 H75 0.931 . S
C48 C45 1.382 . S
C48 C46 1.392 . S
C49 Eu40 2.828 . S
C49 C43 1.505 . S
C49 O61 1.249 . S
C49 O62 1.244 . S
O50 Eu41 2.373 . S
O50 C52 1.258 . S
O51 Eu40 2.392 1_545 S
O51 C52 1.242 . S
C52 O50 1.258 . S
C52 O51 1.242 . S
O53 Eu40 2.418 . S
O53 C57 1.244 1_565 S
O54 Eu41 2.488 . S
O54 C70 1.249 . S
O55 Eu41 2.471 . S
O55 C70 1.244 . S
O56 Eu41 2.349 . S
O56 C57 1.265 . S
C57 O53 1.244 1_545 S
C57 O56 1.265 . S
O58 Eu40 2.373 . S
O58 C71 1.258 . S
O59 Eu41 2.392 1_565 S
O59 C71 1.242 . S
O60 Eu41 2.418 . S
O60 C42 1.244 . S
O61 Eu40 2.488 . S
O61 C49 1.249 . S
O62 Eu40 2.471 . S
O62 C49 1.244 . S
O63 Eu40 2.349 . S
O63 C42 1.265 1_565 S
C64 C65 1.379 . S
C64 C68 1.373 . S
C64 C70 1.505 . S
C65 C64 1.379 . S
C65 C67 1.369 . S
C65 H76 0.930 . S
C66 C68 1.383 . S
C66 C69 1.382 . S
C66 H77 0.930 . S
C67 C65 1.369 . S
C67 C69 1.392 . S
C67 H78 0.930 . S
C68 C64 1.373 . S
C68 C66 1.383 . S
C68 H79 0.931 . S
C69 C66 1.382 . S
C69 C67 1.392 . S
C70 Eu41 2.828 . S
C70 O54 1.249 . S
C70 O55 1.244 . S
C70 C64 1.505 . S
C71 O58 1.258 . S
C71 O59 1.242 . S
H72 C44 0.930 . S
H73 C45 0.930 . S
H74 C46 0.930 . S
H75 C47 0.931 . S
H76 C65 0.930 . S
H77 C66 0.930 . S
H78 C67 0.930 . S
H79 C68 0.931 . S
Eu80 C89 2.828 . S
Eu80 O91 2.392 . S
Eu80 O93 2.418 . S
Eu80 O98 2.373 . S
Eu80 O101 2.488 . S
Eu80 O102 2.471 . S
Eu80 O103 2.349 . S
Eu81 O90 2.373 . S
Eu81 O94 2.488 . S
Eu81 O95 2.471 . S
Eu81 O96 2.349 . S
Eu81 O99 2.392 . S
Eu81 O100 2.418 . S
Eu81 C110 2.828 . S
C82 O100 1.244 . S
C82 O103 1.265 . S
C83 C84 1.379 . S
C83 C87 1.373 . S
C83 C89 1.505 . S
C84 C83 1.379 . S
C84 C86 1.369 . S
C84 H112 0.930 . S
C85 C87 1.383 . S
C85 C88 1.382 . S
C85 H113 0.930 . S
C86 C84 1.369 . S
C86 C88 1.392 . S
C86 H114 0.930 . S
C87 C83 1.373 . S
C87 C85 1.383 . S
C87 H115 0.931 . S
C88 C85 1.382 . S
C88 C86 1.392 . S
C89 Eu80 2.828 . S
C89 C83 1.505 . S
C89 O101 1.249 . S
C89 O102 1.244 . S
O90 Eu81 2.373 . S
O90 C92 1.258 . S
O91 Eu80 2.392 . S
O91 C92 1.242 . S
C92 O90 1.258 . S
C92 O91 1.242 . S
O93 Eu80 2.418 . S
O93 C97 1.244 . S
O94 Eu81 2.488 . S
O94 C110 1.249 . S
O95 Eu81 2.471 . S
O95 C110 1.244 . S
O96 Eu81 2.349 . S
O96 C97 1.265 . S
C97 O93 1.244 . S
C97 O96 1.265 . S
O98 Eu80 2.373 . S
O98 C111 1.258 . S
O99 Eu81 2.392 . S
O99 C111 1.242 . S
O100 Eu81 2.418 . S
O100 C82 1.244 . S
O101 Eu80 2.488 . S
O101 C89 1.249 . S
O102 Eu80 2.471 . S
O102 C89 1.244 . S
O103 Eu80 2.349 . S
O103 C82 1.265 . S
C104 C105 1.379 . S
C104 C108 1.373 . S
C104 C110 1.505 . S
C105 C104 1.379 . S
C105 C107 1.369 . S
C105 H116 0.930 . S
C106 C108 1.383 . S
C106 C109 1.382 . S
C106 H117 0.930 . S
C107 C105 1.369 . S
C107 C109 1.392 . S
C107 H118 0.930 . S
C108 C104 1.373 . S
C108 C106 1.383 . S
C108 H119 0.931 . S
C109 C106 1.382 . S
C109 C107 1.392 . S
C110 Eu81 2.828 . S
C110 O94 1.249 . S
C110 O95 1.244 . S
C110 C104 1.505 . S
C111 O98 1.258 . S
C111 O99 1.242 . S
H112 C84 0.930 . S
H113 C85 0.930 . S
H114 C86 0.930 . S
H115 C87 0.931 . S
H116 C105 0.930 . S
H117 C106 0.930 . S
H118 C107 0.930 . S
H119 C108 0.931 . S
C120 C121 1.391 . S
C120 C124 1.391 . S
C120 H162 0.948 . S
C121 C120 1.391 . S
C121 C122 1.391 . S
C122 C121 1.391 . S
C122 H178 0.947 . S
C122 C179 1.392 . S
C123 C124 1.391 . S
C123 C127 1.397 . S
C123 C179 1.419 . S
C124 C120 1.391 . S
C124 C123 1.391 . S
C124 C125 1.399 . S
C125 C124 1.399 . S
C125 C128 1.396 . S
C125 C137 1.453 . S
C125 C138 1.684 . S
H126 C150 0.948 . S
C127 C123 1.397 . S
C127 C128 1.394 . S
C127 C146 1.723 . S
C128 C125 1.396 . S
C128 C127 1.394 . S
C128 C158 1.723 1_545 S
H129 C152 0.947 . S
H130 C153 0.948 . S
H131 C159 0.982 . S
H132 C160 0.979 . S
H133 C160 0.980 . S
H134 C160 0.983 . S
H135 C159 0.979 . S
H136 C159 0.977 . S
C137 C125 1.453 . S
C137 H166 0.982 . S
C137 H167 0.979 . S
C137 H168 0.977 . S
C138 C125 1.684 . S
C138 H163 0.979 . S
C138 H164 0.980 . S
C138 H165 0.983 . S
C139 C140 1.391 . S
C139 C144 1.391 . S
C139 H169 0.948 . S
C140 C139 1.391 . S
C140 C141 1.391 1_545 S
C141 C140 1.391 1_565 S
C141 C142 1.392 . S
C141 H170 0.947 . S
C142 C141 1.392 . S
C142 C143 1.419 1_565 S
C142 H171 0.948 . S
C143 C142 1.419 1_545 S
C143 C144 1.391 . S
C143 C147 1.397 . S
C144 C139 1.391 . S
C144 C143 1.391 . S
C144 C145 1.399 . S
C145 C144 1.399 . S
C145 C146 1.396 . S
C145 C148 1.453 . S
C145 C149 1.684 . S
C146 C127 1.723 . S
C146 C145 1.396 . S
C146 C147 1.394 . S
C147 C143 1.397 . S
C147 C146 1.394 . S
C147 C157 1.723 1_545 S
C148 C145 1.453 . S
C148 H172 0.982 . S
C148 H173 0.979 . S
C148 H174 0.977 . S
C149 C145 1.684 . S
C149 H175 0.979 . S
C149 H176 0.980 . S
C149 H177 0.983 . S
C150 H126 0.948 . S
C150 C151 1.391 . S
C150 C155 1.391 . S
C151 C150 1.391 . S
C151 C152 1.391 . S
C152 H129 0.947 . S
C152 C151 1.391 . S
C152 C153 1.392 . S
C153 H130 0.948 . S
C153 C152 1.392 . S
C153 C154 1.419 . S
C154 C153 1.419 . S
C154 C155 1.391 . S
C154 C158 1.397 . S
C155 C150 1.391 . S
C155 C154 1.391 . S
C155 C156 1.399 . S
C156 C155 1.399 . S
C156 C157 1.396 . S
C156 C159 1.453 . S
C156 C160 1.684 . S
C157 C147 1.723 1_565 S
C157 C156 1.396 . S
C157 C158 1.394 . S
C158 C128 1.723 1_565 S
C158 C154 1.397 . S
C158 C157 1.394 . S
C159 H131 0.982 . S
C159 H135 0.979 . S
C159 H136 0.977 . S
C159 C156 1.453 . S
C160 H132 0.979 . S
C160 H133 0.980 . S
C160 H134 0.983 . S
C160 C156 1.684 . S
H161 C179 0.948 . S
H162 C120 0.948 . S
H163 C138 0.979 . S
H164 C138 0.980 . S
H165 C138 0.983 . S
H166 C137 0.982 . S
H167 C137 0.979 . S
H168 C137 0.977 . S
H169 C139 0.948 . S
H170 C141 0.947 . S
H171 C142 0.948 . S
H172 C148 0.982 . S
H173 C148 0.979 . S
H174 C148 0.977 . S
H175 C149 0.979 . S
H176 C149 0.980 . S
H177 C149 0.983 . S
H178 C122 0.947 . S
C179 C122 1.392 . S
C179 C123 1.419 . S
C179 H161 0.948 . S
C180 C181 1.391 . S
C180 C184 1.391 . S
C180 H222 0.948 . S
C181 C180 1.391 . S
C181 C182 1.391 . S
C182 C181 1.391 . S
C182 H238 0.947 . S
C182 C239 1.392 . S
C183 C184 1.391 . S
C183 C187 1.397 . S
C183 C239 1.419 . S
C184 C180 1.391 . S
C184 C183 1.391 . S
C184 C185 1.399 . S
C185 C184 1.399 . S
C185 C188 1.396 . S
C185 C197 1.453 . S
C185 C198 1.684 . S
H186 C210 0.948 . S
C187 C183 1.397 . S
C187 C188 1.394 . S
C187 C206 1.723 . S
C188 C185 1.396 . S
C188 C187 1.394 . S
C188 C218 1.723 . S
H189 C212 0.947 . S
H190 C213 0.948 . S
H191 C219 0.982 . S
H192 C220 0.979 . S
H193 C220 0.980 . S
H194 C220 0.983 . S
H195 C219 0.979 . S
H196 C219 0.977 . S
C197 C185 1.453 . S
C197 H226 0.982 . S
C197 H227 0.979 . S
C197 H228 0.977 . S
C198 C185 1.684 . S
C198 H223 0.979 . S
C198 H224 0.980 . S
C198 H225 0.983 . S
C199 C200 1.391 . S
C199 C204 1.391 . S
C199 H229 0.948 . S
C200 C199 1.391 . S
C200 C201 1.391 . S
C201 C200 1.391 . S
C201 C202 1.392 . S
C201 H230 0.947 . S
C202 C201 1.392 . S
C202 C203 1.419 . S
C202 H231 0.948 . S
C203 C202 1.419 . S
C203 C204 1.391 . S
C203 C207 1.397 . S
C204 C199 1.391 . S
C204 C203 1.391 . S
C204 C205 1.399 . S
C205 C204 1.399 . S
C205 C206 1.396 . S
C205 C208 1.453 . S
C205 C209 1.684 . S
C206 C187 1.723 . S
C206 C205 1.396 . S
C206 C207 1.394 . S
C207 C203 1.397 . S
C207 C206 1.394 . S
C207 C217 1.723 . S
C208 C205 1.453 . S
C208 H232 0.982 . S
C208 H233 0.979 . S
C208 H234 0.977 . S
C209 C205 1.684 . S
C209 H235 0.979 . S
C209 H236 0.980 . S
C209 H237 0.983 . S
C210 H186 0.948 . S
C210 C211 1.391 . S
C210 C215 1.391 . S
C211 C210 1.391 . S
C211 C212 1.391 . S
C212 H189 0.947 . S
C212 C211 1.391 . S
C212 C213 1.392 . S
C213 H190 0.948 . S
C213 C212 1.392 . S
C213 C214 1.419 . S
C214 C213 1.419 . S
C214 C215 1.391 . S
C214 C218 1.397 . S
C215 C210 1.391 . S
C215 C214 1.391 . S
C215 C216 1.399 . S
C216 C215 1.399 . S
C216 C217 1.396 . S
C216 C219 1.453 . S
C216 C220 1.684 . S
C217 C207 1.723 . S
C217 C216 1.396 . S
C217 C218 1.394 . S
C218 C188 1.723 . S
C218 C214 1.397 . S
C218 C217 1.394 . S
C219 H191 0.982 . S
C219 H195 0.979 . S
C219 H196 0.977 . S
C219 C216 1.453 . S
C220 H192 0.979 . S
C220 H193 0.980 . S
C220 H194 0.983 . S
C220 C216 1.684 . S
H221 C239 0.948 . S
H222 C180 0.948 . S
H223 C198 0.979 . S
H224 C198 0.980 . S
H225 C198 0.983 . S
H226 C197 0.982 . S
H227 C197 0.979 . S
H228 C197 0.977 . S
H229 C199 0.948 . S
H230 C201 0.947 . S
H231 C202 0.948 . S
H232 C208 0.982 . S
H233 C208 0.979 . S
H234 C208 0.977 . S
H235 C209 0.979 . S
H236 C209 0.980 . S
H237 C209 0.983 . S
H238 C182 0.947 . S
C239 C182 1.392 . S
C239 C183 1.419 . S
C239 H221 0.948 . S
C240 C241 1.391 . S
C240 C244 1.391 . S
C240 H282 0.948 . S
C241 C240 1.391 . S
C241 C242 1.391 . S
C242 C241 1.391 . S
C242 H298 0.947 . S
C242 C299 1.392 . S
C243 C244 1.391 . S
C243 C247 1.397 . S
C243 C299 1.419 . S
C244 C240 1.391 . S
C244 C243 1.391 . S
C244 C245 1.399 . S
C245 C244 1.399 . S
C245 C248 1.396 . S
C245 C257 1.453 . S
C245 C258 1.684 . S
H246 C270 0.948 . S
C247 C243 1.397 . S
C247 C248 1.394 . S
C247 C266 1.723 . S
C248 C245 1.396 . S
C248 C247 1.394 . S
C248 C278 1.723 . S
H249 C272 0.947 . S
H250 C273 0.948 . S
H251 C279 0.982 . S
H252 C280 0.979 . S
H253 C280 0.980 . S
H254 C280 0.983 . S
H255 C279 0.979 . S
H256 C279 0.977 . S
C257 C245 1.453 . S
C257 H286 0.982 . S
C257 H287 0.979 . S
C257 H288 0.977 . S
C258 C245 1.684 . S
C258 H283 0.979 . S
C258 H284 0.980 . S
C258 H285 0.983 . S
C259 C260 1.391 . S
C259 C264 1.391 1_554 S
C259 H289 0.948 . S
C260 C259 1.391 . S
C260 C261 1.391 1_455 S
C261 C260 1.391 1_655 S
C261 C262 1.392 1_554 S
C261 H290 0.947 . S
C262 C261 1.392 1_556 S
C262 C263 1.419 1_655 S
C262 H291 0.948 . S
C263 C262 1.419 1_455 S
C263 C264 1.391 . S
C263 C267 1.397 . S
C264 C259 1.391 1_556 S
C264 C263 1.391 . S
C264 C265 1.399 . S
C265 C264 1.399 . S
C265 C266 1.396 . S
C265 C268 1.453 . S
C265 C269 1.684 . S
C266 C247 1.723 . S
C266 C265 1.396 . S
C266 C267 1.394 . S
C267 C263 1.397 . S
C267 C266 1.394 . S
C267 C277 1.723 1_455 S
C268 C265 1.453 . S
C268 H292 0.982 . S
C268 H293 0.979 . S
C268 H294 0.977 . S
C269 C265 1.684 . S
C269 H295 0.979 . S
C269 H296 0.980 . S
C269 H297 0.983 . S
C270 H246 0.948 . S
C270 C271 1.391 . S
C270 C275 1.391 . S
C271 C270 1.391 . S
C271 C272 1.391 . S
C272 H249 0.947 . S
C272 C271 1.391 . S
C272 C273 1.392 . S
C273 H250 0.948 . S
C273 C272 1.392 . S
C273 C274 1.419 . S
C274 C273 1.419 . S
C274 C275 1.391 . S
C274 C278 1.397 1_655 S
C275 C270 1.391 . S
C275 C274 1.391 . S
C275 C276 1.399 . S
C276 C275 1.399 . S
C276 C277 1.396 . S
C276 C279 1.453 . S
C276 C280 1.684 . S
C277 C267 1.723 1_655 S
C277 C276 1.396 . S
C277 C278 1.394 1_655 S
C278 C248 1.723 . S
C278 C274 1.397 1_455 S
C278 C277 1.394 1_455 S
C279 H251 0.982 . S
C279 H255 0.979 . S
C279 H256 0.977 . S
C279 C276 1.453 . S
C280 H252 0.979 . S
C280 H253 0.980 . S
C280 H254 0.983 . S
C280 C276 1.684 . S
H281 C299 0.948 . S
H282 C240 0.948 . S
H283 C258 0.979 . S
H284 C258 0.980 . S
H285 C258 0.983 . S
H286 C257 0.982 . S
H287 C257 0.979 . S
H288 C257 0.977 . S
H289 C259 0.948 . S
H290 C261 0.947 . S
H291 C262 0.948 . S
H292 C268 0.982 . S
H293 C268 0.979 . S
H294 C268 0.977 . S
H295 C269 0.979 . S
H296 C269 0.980 . S
H297 C269 0.983 . S
H298 C242 0.947 . S
C299 C242 1.392 . S
C299 C243 1.419 . S
C299 H281 0.948 . S
C300 C301 1.391 . S
C300 C304 1.391 . S
C300 H342 0.948 . S
C301 C300 1.391 . S
C301 C302 1.391 . S
C302 C301 1.391 . S
C302 H358 0.947 . S
C302 C359 1.392 . S
C303 C304 1.391 . S
C303 C307 1.397 . S
C303 C359 1.419 . S
C304 C300 1.391 . S
C304 C303 1.391 . S
C304 C305 1.399 . S
C305 C304 1.399 . S
C305 C308 1.396 1_655 S
C305 C317 1.453 1_655 S
C305 C318 1.684 . S
H306 C330 0.948 . S
C307 C303 1.397 . S
C307 C308 1.394 1_655 S
C307 C326 1.723 . S
C308 C305 1.396 1_455 S
C308 C307 1.394 1_455 S
C308 C338 1.723 . S
H309 C332 0.947 . S
H310 C333 0.948 . S
H311 C339 0.982 . S
H312 C340 0.979 . S
H313 C340 0.980 . S
H314 C340 0.983 . S
H315 C339 0.979 . S
H316 C339 0.977 . S
C317 C305 1.453 1_455 S
C317 H346 0.982 . S
C317 H347 0.979 . S
C317 H348 0.977 . S
C318 C305 1.684 . S
C318 H343 0.979 . S
C318 H344 0.980 1_655 S
C318 H345 0.983 . S
C319 C320 1.391 1_655 S
C319 C324 1.391 . S
C319 H349 0.948 . S
C320 C319 1.391 1_455 S
C320 C321 1.391 . S
C321 C320 1.391 . S
C321 C322 1.392 . S
C321 H350 0.947 . S
C322 C321 1.392 . S
C322 C323 1.419 . S
C322 H351 0.948 . S
C323 C322 1.419 . S
C323 C324 1.391 1_455 S
C323 C327 1.397 . S
C324 C319 1.391 . S
C324 C323 1.391 1_655 S
C324 C325 1.399 . S
C325 C324 1.399 . S
C325 C326 1.396 . S
C325 C328 1.453 . S
C325 C329 1.684 . S
C326 C307 1.723 . S
C326 C325 1.396 . S
C326 C327 1.394 1_655 S
C327 C323 1.397 . S
C327 C326 1.394 1_455 S
C327 C337 1.723 . S
C328 C325 1.453 . S
C328 H352 0.982 . S
C328 H353 0.979 . S
C328 H354 0.977 . S
C329 C325 1.684 . S
C329 H355 0.979 . S
C329 H356 0.980 . S
C329 H357 0.983 . S
C330 H306 0.948 . S
C330 C331 1.391 . S
C330 C335 1.391 . S
C331 C330 1.391 . S
C331 C332 1.391 . S
C332 H309 0.947 . S
C332 C331 1.391 . S
C332 C333 1.392 . S
C333 H310 0.948 . S
C333 C332 1.392 . S
C333 C334 1.419 . S
C334 C333 1.419 . S
C334 C335 1.391 . S
C334 C338 1.397 . S
C335 C330 1.391 . S
C335 C334 1.391 . S
C335 C336 1.399 . S
C336 C335 1.399 . S
C336 C337 1.396 . S
C336 C339 1.453 . S
C336 C340 1.684 . S
C337 C327 1.723 . S
C337 C336 1.396 . S
C337 C338 1.394 . S
C338 C308 1.723 . S
C338 C334 1.397 . S
C338 C337 1.394 . S
C339 H311 0.982 . S
C339 H315 0.979 . S
C339 H316 0.977 . S
C339 C336 1.453 . S
C340 H312 0.979 . S
C340 H313 0.980 . S
C340 H314 0.983 . S
C340 C336 1.684 . S
H341 C359 0.948 . S
H342 C300 0.948 . S
H343 C318 0.979 . S
H344 C318 0.980 1_455 S
H345 C318 0.983 . S
H346 C317 0.982 . S
H347 C317 0.979 . S
H348 C317 0.977 . S
H349 C319 0.948 . S
H350 C321 0.947 . S
H351 C322 0.948 . S
H352 C328 0.982 . S
H353 C328 0.979 . S
H354 C328 0.977 . S
H355 C329 0.979 . S
H356 C329 0.980 . S
H357 C329 0.983 . S
H358 C302 0.947 . S
C359 C302 1.392 . S
C359 C303 1.419 . S
C359 H341 0.948 . S
C360 C361 1.391 . S
C360 C364 1.391 . S
C360 H402 0.948 . S
C361 C360 1.391 . S
C361 C362 1.391 . S
C362 C361 1.391 . S
C362 H418 0.947 . S
C362 C419 1.392 . S
C363 C364 1.391 . S
C363 C367 1.397 . S
C363 C419 1.419 . S
C364 C360 1.391 . S
C364 C363 1.391 . S
C364 C365 1.399 . S
C365 C364 1.399 . S
C365 C368 1.397 1_565 S
C365 C377 1.453 1_565 S
C365 C378 1.684 . S
H366 C390 0.948 . S
C367 C363 1.397 . S
C367 C368 1.394 1_565 S
C367 C386 1.723 . S
C368 C365 1.397 1_545 S
C368 C367 1.394 1_545 S
C368 C398 1.723 . S
H369 C392 0.947 . S
H370 C393 0.948 . S
H371 C399 0.982 . S
H372 C400 0.979 . S
H373 C400 0.980 . S
H374 C400 0.983 . S
H375 C399 0.979 . S
H376 C399 0.977 . S
C377 C365 1.453 1_545 S
C377 H406 0.982 . S
C377 H407 0.979 1_545 S
C377 H408 0.977 . S
C378 C365 1.684 . S
C378 H403 0.979 . S
C378 H404 0.980 1_565 S
C378 H405 0.983 . S
C379 C380 1.391 1_565 S
C379 C384 1.391 . S
C379 H409 0.948 . S
C380 C379 1.391 1_545 S
C380 C381 1.391 . S
C381 C380 1.391 . S
C381 C382 1.392 . S
C381 H410 0.947 . S
C382 C381 1.392 . S
C382 C383 1.419 . S
C382 H411 0.948 . S
C383 C382 1.419 . S
C383 C384 1.391 1_545 S
C383 C387 1.397 . S
C384 C379 1.391 . S
C384 C383 1.391 1_565 S
C384 C385 1.399 . S
C385 C384 1.399 . S
C385 C386 1.396 . S
C385 C388 1.453 . S
C385 C389 1.684 . S
C386 C367 1.723 . S
C386 C385 1.396 . S
C386 C387 1.394 1_565 S
C387 C383 1.397 . S
C387 C386 1.394 1_545 S
C387 C397 1.723 . S
C388 C385 1.453 . S
C388 H412 0.982 . S
C388 H413 0.979 . S
C388 H414 0.977 . S
C389 C385 1.684 . S
C389 H415 0.979 . S
C389 H416 0.980 . S
C389 H417 0.983 . S
C390 H366 0.948 . S
C390 C391 1.391 . S
C390 C395 1.391 . S
C391 C390 1.391 . S
C391 C392 1.391 . S
C392 H369 0.947 . S
C392 C391 1.391 . S
C392 C393 1.392 . S
C393 H370 0.948 . S
C393 C392 1.392 . S
C393 C394 1.419 . S
C394 C393 1.419 . S
C394 C395 1.391 . S
C394 C398 1.397 . S
C395 C390 1.391 . S
C395 C394 1.391 . S
C395 C396 1.399 . S
C396 C395 1.399 . S
C396 C397 1.396 . S
C396 C399 1.453 . S
C396 C400 1.684 . S
C397 C387 1.723 . S
C397 C396 1.396 . S
C397 C398 1.394 . S
C398 C368 1.723 . S
C398 C394 1.397 . S
C398 C397 1.394 . S
C399 H371 0.982 . S
C399 H375 0.979 . S
C399 H376 0.977 . S
C399 C396 1.453 . S
C400 H372 0.979 . S
C400 H373 0.980 . S
C400 H374 0.983 . S
C400 C396 1.684 . S
H401 C419 0.948 . S
H402 C360 0.948 . S
H403 C378 0.979 . S
H404 C378 0.980 1_545 S
H405 C378 0.983 . S
H406 C377 0.982 . S
H407 C377 0.979 1_565 S
H408 C377 0.977 . S
H409 C379 0.948 . S
H410 C381 0.947 . S
H411 C382 0.948 . S
H412 C388 0.982 . S
H413 C388 0.979 . S
H414 C388 0.977 . S
H415 C389 0.979 . S
H416 C389 0.980 . S
H417 C389 0.983 . S
H418 C362 0.947 . S
C419 C362 1.392 . S
C419 C363 1.419 . S
C419 H401 0.948 . S
C420 C421 1.391 . S
C420 C424 1.391 . S
C420 H462 0.948 . S
C421 C420 1.391 . S
C421 C422 1.391 . S
C422 C421 1.391 . S
C422 H478 0.947 . S
C422 C479 1.392 . S
C423 C424 1.391 . S
C423 C427 1.397 . S
C423 C479 1.419 . S
C424 C420 1.391 . S
C424 C423 1.391 . S
C424 C425 1.399 . S
C425 C424 1.399 . S
C425 C428 1.396 . S
C425 C437 1.453 . S
C425 C438 1.684 . S
H426 C450 0.948 . S
C427 C423 1.397 . S
C427 C428 1.394 . S
C427 C446 1.723 . S
C428 C425 1.396 . S
C428 C427 1.394 . S
C428 C458 1.723 . S
H429 C452 0.947 . S
H430 C453 0.948 . S
H431 C459 0.982 . S
H432 C460 0.979 . S
H433 C460 0.980 . S
H434 C460 0.983 . S
H435 C459 0.979 . S
H436 C459 0.977 . S
C437 C425 1.453 . S
C437 H466 0.982 . S
C437 H467 0.979 . S
C437 H468 0.977 . S
C438 C425 1.684 . S
C438 H463 0.979 . S
C438 H464 0.980 . S
C438 H465 0.983 . S
C439 C440 1.392 . S
C439 C444 1.391 . S
C439 H469 0.948 . S
C440 C439 1.392 . S
C440 C441 1.391 . S
C441 C440 1.391 . S
C441 C442 1.392 . S
C441 H470 0.964 . S
C442 C441 1.392 . S
C442 C443 1.419 . S
C442 H471 0.948 . S
C443 C442 1.419 . S
C443 C444 1.391 . S
C443 C447 1.397 . S
C444 C439 1.391 . S
C444 C443 1.391 . S
C444 C445 1.399 . S
C445 C444 1.399 . S
C445 C446 1.396 . S
C445 C448 1.453 . S
C445 C449 1.684 . S
C446 C427 1.723 . S
C446 C445 1.396 . S
C446 C447 1.394 . S
C447 C443 1.397 . S
C447 C446 1.394 . S
C447 C457 1.723 . S
C448 C445 1.453 . S
C448 H472 0.982 . S
C448 H473 0.979 . S
C448 H474 0.977 . S
C449 C445 1.684 . S
C449 H475 0.979 . S
C449 H476 0.980 . S
C449 H477 0.983 . S
C450 H426 0.948 . S
C450 C451 1.391 . S
C450 C455 1.391 . S
C451 C450 1.391 . S
C451 C452 1.391 . S
C452 H429 0.947 . S
C452 C451 1.391 . S
C452 C453 1.392 . S
C453 H430 0.948 . S
C453 C452 1.392 . S
C453 C454 1.419 . S
C454 C453 1.419 . S
C454 C455 1.391 . S
C454 C458 1.397 . S
C455 C450 1.391 . S
C455 C454 1.391 . S
C455 C456 1.399 . S
C456 C455 1.399 . S
C456 C457 1.396 . S
C456 C459 1.453 . S
C456 C460 1.684 . S
C457 C447 1.723 . S
C457 C456 1.396 . S
C457 C458 1.394 . S
C458 C428 1.723 . S
C458 C454 1.397 . S
C458 C457 1.394 . S
C459 H431 0.982 . S
C459 H435 0.979 . S
C459 H436 0.977 . S
C459 C456 1.453 . S
C460 H432 0.979 . S
C460 H433 0.980 . S
C460 H434 0.983 . S
C460 C456 1.684 . S
H461 C479 0.948 . S
H462 C420 0.948 . S
H463 C438 0.979 . S
H464 C438 0.980 . S
H465 C438 0.983 . S
H466 C437 0.982 . S
H467 C437 0.979 . S
H468 C437 0.977 . S
H469 C439 0.948 . S
H470 C441 0.964 . S
H471 C442 0.948 . S
H472 C448 0.982 . S
H473 C448 0.979 . S
H474 C448 0.977 . S
H475 C449 0.979 . S
H476 C449 0.980 . S
H477 C449 0.983 . S
H478 C422 0.947 . S
C479 C422 1.392 . S
C479 C423 1.419 . S
C479 H461 0.948 . S
C480 C481 1.369 . S
C480 C482 1.419 . S
C480 H484 0.930 . S
C481 C480 1.369 . S
C481 C490 1.429 . S
C482 C480 1.419 . S
C482 C483 1.363 . S
C482 H485 0.929 . S
C483 C482 1.363 . S
C483 C489 1.428 . S
H484 C480 0.930 . S
H485 C482 0.929 . S
S486 N487 1.613 . S
S486 N488 1.610 . S
N487 S486 1.613 . S
N487 C490 1.350 . S
N488 S486 1.610 . S
N488 C489 1.351 . S
C489 C483 1.428 . S
C489 N488 1.351 . S
C489 C490 1.434 . S
C490 C481 1.429 . S
C490 N487 1.350 . S
C490 C489 1.434 . S
C491 C492 1.369 . S
C491 C493 1.419 . S
C491 H495 0.930 . S
C492 C491 1.369 . S
C492 C501 1.429 . S
C493 C491 1.419 . S
C493 C494 1.363 . S
C493 H496 0.929 . S
C494 C493 1.363 . S
C494 C500 1.428 . S
H495 C491 0.930 . S
H496 C493 0.929 . S
S497 N498 1.613 . S
S497 N499 1.610 . S
N498 S497 1.613 . S
N498 C501 1.350 . S
N499 S497 1.610 . S
N499 C500 1.351 . S
C500 C494 1.428 . S
C500 N499 1.351 . S
C500 C501 1.434 . S
C501 C492 1.429 . S
C501 N498 1.350 . S
C501 C500 1.434 . S
C502 C503 1.369 . S
C502 C504 1.419 . S
C502 H506 0.930 . S
C503 C502 1.369 . S
C503 C512 1.429 . S
C504 C502 1.419 . S
C504 C505 1.363 . S
C504 H507 0.929 . S
C505 C504 1.363 . S
C505 C511 1.428 . S
H506 C502 0.930 . S
H507 C504 0.929 . S
S508 N509 1.613 . S
S508 N510 1.610 . S
N509 S508 1.613 . S
N509 C512 1.350 . S
N510 S508 1.610 . S
N510 C511 1.351 . S
C511 C505 1.428 . S
C511 N510 1.351 . S
C511 C512 1.434 . S
C512 C503 1.429 . S
C512 N509 1.350 . S
C512 C511 1.434 . S
C513 C514 1.369 . S
C513 C515 1.419 . S
C513 H517 0.930 . S
C514 C513 1.369 . S
C514 C523 1.429 . S
C515 C513 1.419 . S
C515 C516 1.363 . S
C515 H518 0.929 . S
C516 C515 1.363 . S
C516 C522 1.428 . S
H517 C513 0.930 . S
H518 C515 0.929 . S
S519 N520 1.613 . S
S519 N521 1.610 . S
N520 S519 1.613 . S
N520 C523 1.350 . S
N521 S519 1.610 . S
N521 C522 1.351 . S
C522 C516 1.428 . S
C522 N521 1.351 . S
C522 C523 1.434 . S
C523 C514 1.429 . S
C523 N520 1.350 . S
C523 C522 1.434 . S
C524 C525 1.369 . S
C524 C526 1.419 . S
C524 H528 0.930 . S
C525 C524 1.369 . S
C525 C534 1.429 . S
C526 C524 1.419 . S
C526 C527 1.363 . S
C526 H529 0.929 . S
C527 C526 1.363 . S
C527 C533 1.428 . S
H528 C524 0.930 . S
H529 C526 0.929 . S
S530 N531 1.613 . S
S530 N532 1.610 . S
N531 S530 1.613 . S
N531 C534 1.350 . S
N532 S530 1.610 . S
N532 C533 1.351 . S
C533 C527 1.428 . S
C533 N532 1.351 . S
C533 C534 1.434 . S
C534 C525 1.429 . S
C534 N531 1.350 . S
C534 C533 1.434 . S
C535 C536 1.369 . S
C535 C537 1.419 . S
C535 H539 0.930 . S
C536 C535 1.369 . S
C536 C545 1.429 . S
C537 C535 1.419 . S
C537 C538 1.363 . S
C537 H540 0.929 . S
C538 C537 1.363 . S
C538 C544 1.428 . S
H539 C535 0.930 . S
H540 C537 0.929 . S
S541 N542 1.613 . S
S541 N543 1.610 . S
N542 S541 1.613 . S
N542 C545 1.350 . S
N543 S541 1.610 . S
N543 C544 1.351 . S
C544 C538 1.428 . S
C544 N543 1.351 . S
C544 C545 1.434 . S
C545 C536 1.429 . S
C545 N542 1.350 . S
C545 C544 1.434 . S
C546 C547 1.369 . S
C546 C548 1.419 . S
C546 H550 0.930 . S
C547 C546 1.369 . S
C547 C556 1.429 . S
C548 C546 1.419 . S
C548 C549 1.363 . S
C548 H551 0.929 . S
C549 C548 1.363 . S
C549 C555 1.428 . S
H550 C546 0.930 . S
H551 C548 0.929 . S
S552 N553 1.613 . S
S552 N554 1.610 . S
N553 S552 1.613 . S
N553 C556 1.350 . S
N554 S552 1.610 . S
N554 C555 1.351 . S
C555 C549 1.428 . S
C555 N554 1.351 . S
C555 C556 1.434 . S
C556 C547 1.429 . S
C556 N553 1.350 . S
C556 C555 1.434 . S
C557 C558 1.369 . S
C557 C559 1.419 . S
C557 H561 0.930 . S
C558 C557 1.369 . S
C558 C567 1.429 . S
C559 C557 1.419 . S
C559 C560 1.363 . S
C559 H562 0.929 . S
C560 C559 1.363 . S
C560 C566 1.428 . S
H561 C557 0.930 . S
H562 C559 0.929 . S
S563 N564 1.613 . S
S563 N565 1.610 . S
N564 S563 1.613 . S
N564 C567 1.350 . S
N565 S563 1.610 . S
N565 C566 1.351 . S
C566 C560 1.428 . S
C566 N565 1.351 . S
C566 C567 1.434 . S
C567 C558 1.429 . S
C567 N564 1.350 . S
C567 C566 1.434 . S
C568 C569 1.369 . S
C568 C570 1.419 . S
C568 H572 0.930 . S
C569 C568 1.369 . S
C569 C578 1.429 . S
C570 C568 1.419 . S
C570 C571 1.363 . S
C570 H573 0.929 . S
C571 C570 1.363 . S
C571 C577 1.428 . S
H572 C568 0.930 . S
H573 C570 0.929 . S
S574 N575 1.613 . S
S574 N576 1.610 . S
N575 S574 1.613 . S
N575 C578 1.350 . S
N576 S574 1.610 . S
N576 C577 1.351 . S
C577 C571 1.428 . S
C577 N576 1.351 . S
C577 C578 1.434 . S
C578 C569 1.429 . S
C578 N575 1.350 . S
C578 C577 1.434 . S
C579 C580 1.369 . S
C579 C581 1.419 . S
C579 H583 0.930 . S
C580 C579 1.369 . S
C580 C589 1.429 . S
C581 C579 1.419 . S
C581 C582 1.363 . S
C581 H584 0.929 . S
C582 C581 1.363 . S
C582 C588 1.428 . S
H583 C579 0.930 . S
H584 C581 0.929 . S
S585 N586 1.613 . S
S585 N587 1.610 . S
N586 S585 1.613 . S
N586 C589 1.350 . S
N587 S585 1.610 . S
N587 C588 1.351 . S
C588 C582 1.428 . S
C588 N587 1.351 . S
C588 C589 1.434 . S
C589 C580 1.429 . S
C589 N586 1.350 . S
C589 C588 1.434 . S
C590 C591 1.369 . S
C590 C592 1.419 . S
C590 H594 0.930 . S
C591 C590 1.369 . S
C591 C600 1.429 . S
C592 C590 1.419 . S
C592 C593 1.363 . S
C592 H595 0.929 . S
C593 C592 1.363 . S
C593 C599 1.428 . S
H594 C590 0.930 . S
H595 C592 0.929 . S
S596 N597 1.613 . S
S596 N598 1.610 . S
N597 S596 1.613 . S
N597 C600 1.350 . S
N598 S596 1.610 . S
N598 C599 1.351 . S
C599 C593 1.428 . S
C599 N598 1.351 . S
C599 C600 1.434 . S
C600 C591 1.429 . S
C600 N597 1.350 . S
C600 C599 1.434 . S
C601 C602 1.369 . S
C601 C603 1.419 . S
C601 H605 0.930 . S
C602 C601 1.369 . S
C602 C611 1.429 . S
C603 C601 1.419 . S
C603 C604 1.363 . S
C603 H606 0.929 . S
C604 C603 1.363 . S
C604 C610 1.428 . S
H605 C601 0.930 . S
H606 C603 0.929 . S
S607 N608 1.613 . S
S607 N609 1.610 . S
N608 S607 1.613 . S
N608 C611 1.350 . S
N609 S607 1.610 . S
N609 C610 1.351 . S
C610 C604 1.428 . S
C610 N609 1.351 . S
C610 C611 1.434 . S
C611 C602 1.429 . S
C611 N608 1.350 . S
C611 C610 1.434 . S
C612 C613 1.369 1_655 S
C612 C614 1.419 . S
C612 H616 0.930 . S
C613 C612 1.369 1_455 S
C613 C622 1.429 . S
C614 C612 1.419 . S
C614 C615 1.363 1_655 S
C614 H617 0.929 . S
C615 C614 1.363 1_455 S
C615 C621 1.428 . S
H616 C612 0.930 . S
H617 C614 0.929 . S
S618 N619 1.613 . S
S618 N620 1.610 . S
N619 S618 1.613 . S
N619 C622 1.350 . S
N620 S618 1.610 . S
N620 C621 1.351 . S
C621 C615 1.428 . S
C621 N620 1.351 . S
C621 C622 1.434 . S
C622 C613 1.429 . S
C622 N619 1.350 . S
C622 C621 1.434 . S
C623 C624 1.369 . S
C623 C625 1.419 . S
C623 H627 0.930 . S
C624 C623 1.369 . S
C624 C633 1.429 1_545 S
C625 C623 1.419 . S
C625 C626 1.363 . S
C625 H628 0.929 . S
C626 C625 1.363 . S
C626 C632 1.428 . S
H627 C623 0.930 . S
H628 C625 0.929 . S
S629 N630 1.613 . S
S629 N631 1.610 . S
N630 S629 1.613 . S
N630 C633 1.350 . S
N631 S629 1.610 . S
N631 C632 1.351 1_565 S
C632 C626 1.428 . S
C632 N631 1.351 1_545 S
C632 C633 1.434 1_545 S
C633 C624 1.429 1_565 S
C633 N630 1.350 . S
C633 C632 1.434 1_565 S
C634 C635 1.369 . S
C634 C636 1.419 . S
C634 H638 0.930 . S
C635 C634 1.369 . S
C635 C644 1.429 . S
C636 C634 1.419 . S
C636 C637 1.363 . S
C636 H639 0.929 . S
C637 C636 1.363 . S
C637 C643 1.428 . S
H638 C634 0.930 . S
H639 C636 0.929 . S
S640 N641 1.613 . S
S640 N642 1.610 . S
N641 S640 1.613 . S
N641 C644 1.350 . S
N642 S640 1.610 . S
N642 C643 1.351 . S
C643 C637 1.428 . S
C643 N642 1.351 . S
C643 C644 1.434 . S
C644 C635 1.429 . S
C644 N641 1.350 . S
C644 C643 1.434 . S
C645 C646 1.369 1_565 S
C645 C647 1.419 . S
C645 H649 0.930 . S
C646 C645 1.369 1_545 S
C646 C655 1.429 . S
C647 C645 1.419 . S
C647 C648 1.363 1_565 S
C647 H650 0.929 . S
C648 C647 1.363 1_545 S
C648 C654 1.428 . S
H649 C645 0.930 . S
H650 C647 0.929 . S
S651 N652 1.613 . S
S651 N653 1.610 . S
N652 S651 1.613 . S
N652 C655 1.350 . S
N653 S651 1.610 . S
N653 C654 1.351 . S
C654 C648 1.428 . S
C654 N653 1.351 . S
C654 C655 1.434 . S
C655 C646 1.429 . S
C655 N652 1.350 . S
C655 C654 1.434 . S
C656 C657 1.369 . S
C656 C658 1.419 . S
C656 H660 0.930 . S
C657 C656 1.369 . S
C657 C666 1.429 . S
C658 C656 1.419 . S
C658 C659 1.363 . S
C658 H661 0.929 . S
C659 C658 1.363 . S
C659 C665 1.428 . S
H660 C656 0.930 . S
H661 C658 0.929 . S
S662 N663 1.613 . S
S662 N664 1.610 . S
N663 S662 1.613 . S
N663 C666 1.350 . S
N664 S662 1.610 . S
N664 C665 1.351 . S
C665 C659 1.428 . S
C665 N664 1.351 . S
C665 C666 1.434 . S
C666 C657 1.429 . S
C666 N663 1.350 . S
C666 C665 1.434 . S
C667 C668 1.369 1_455 S
C667 C669 1.419 . S
C667 H671 0.930 . S
C668 C667 1.369 1_655 S
C668 C677 1.429 . S
C669 C667 1.419 . S
C669 C670 1.363 . S
C669 H672 0.929 . S
C670 C669 1.363 . S
C670 C676 1.428 1_455 S
H671 C667 0.930 . S
H672 C669 0.929 . S
S673 N674 1.613 . S
S673 N675 1.610 . S
N674 S673 1.613 . S
N674 C677 1.350 . S
N675 S673 1.610 . S
N675 C676 1.351 . S
C676 C670 1.428 1_655 S
C676 N675 1.351 . S
C676 C677 1.434 . S
C677 C668 1.429 . S
C677 N674 1.350 . S
C677 C676 1.434 . S
C481 C12 3.041 . S
C483 C451 3.025 . S
C492 C52 3.040 . S
C494 C301 2.851 . S
C503 C111 3.088 . S
C505 C361 2.885 . S
C514 C31 3.213 . S
C516 C421 2.990 . S
C527 C331 3.189 . S
C525 C71 3.215 . S
C538 C391 3.138 . S
C536 C92 3.164 . S
C547 C48 0.712 . S
C549 C181 0.731 . S
C558 C109 0.752 . S
C560 C271 0.770 . S
C569 C29 0.729 . S
C571 C151 0.695 . S
C582 C211 0.630 . S
C580 C69 0.666 . S
C593 C241 0.486 . S
C591 C88 0.526 . S
C602 C8 0.505 . S
C604 C121 0.447 . S
C615 C260 1.047 . S
C613 C17 1.058 1_455 S
C624 C57 1.044 . S
C626 C140 1.026 . S
C635 C97 1.056 . S
C637 C200 1.021 . S
C648 C380 1.783 . S
C646 C42 1.738 . S
C659 C440 1.781 1_556 S
C657 C82 1.751 . S
C668 C2 1.761 1_655 S
C670 C320 1.779 . S
