# Generated by pormake.
# Topology zzz, (3,6)-cn, num edge types: 1
# Building blocks:
#     Node 0, Type 0, BuildingBlock: PAMTOO_clean_linker_0, # of connection points: 3
#     Node 1, Type 0, BuildingBlock: PAMTOO_clean_linker_0, # of connection points: 3
#     Node 2, Type 0, BuildingBlock: PAMTOO_clean_linker_0, # of connection points: 3
#     Node 3, Type 0, BuildingBlock: PAMTOO_clean_linker_0, # of connection points: 3
#     Node 4, Type 0, BuildingBlock: PAMTOO_clean_linker_0, # of connection points: 3
#     Node 5, Type 0, BuildingBlock: PAMTOO_clean_linker_0, # of connection points: 3
#     Node 6, Type 0, BuildingBlock: PAMTOO_clean_linker_0, # of connection points: 3
#     Node 7, Type 0, BuildingBlock: PAMTOO_clean_linker_0, # of connection points: 3
#     Node 8, Type 1, BuildingBlock: BETDIP_clean_sbu_0, # of connection points: 6
#     Node 9, Type 1, BuildingBlock: BETDIP_clean_sbu_0, # of connection points: 6
#     Node 10, Type 1, BuildingBlock: BETDIP_clean_sbu_0, # of connection points: 6
#     Node 11, Type 1, BuildingBlock: BETDIP_clean_sbu_0, # of connection points: 6
#     Edge 12, Type (0, 1), BuildingBlock: ZUJKAS_clean_linker_0, # of connection points: 2
#     Edge 13, Type (0, 1), BuildingBlock: ZUJKAS_clean_linker_0, # of connection points: 2
#     Edge 14, Type (0, 1), BuildingBlock: ZUJKAS_clean_linker_0, # of connection points: 2
#     Edge 15, Type (0, 1), BuildingBlock: ZUJKAS_clean_linker_0, # of connection points: 2
#     Edge 16, Type (0, 1), BuildingBlock: ZUJKAS_clean_linker_0, # of connection points: 2
#     Edge 17, Type (0, 1), BuildingBlock: ZUJKAS_clean_linker_0, # of connection points: 2
#     Edge 18, Type (0, 1), BuildingBlock: ZUJKAS_clean_linker_0, # of connection points: 2
#     Edge 19, Type (0, 1), BuildingBlock: ZUJKAS_clean_linker_0, # of connection points: 2
#     Edge 20, Type (0, 1), BuildingBlock: ZUJKAS_clean_linker_0, # of connection points: 2
#     Edge 21, Type (0, 1), BuildingBlock: ZUJKAS_clean_linker_0, # of connection points: 2
#     Edge 22, Type (0, 1), BuildingBlock: ZUJKAS_clean_linker_0, # of connection points: 2
#     Edge 23, Type (0, 1), BuildingBlock: ZUJKAS_clean_linker_0, # of connection points: 2
#     Edge 24, Type (0, 1), BuildingBlock: ZUJKAS_clean_linker_0, # of connection points: 2
#     Edge 25, Type (0, 1), BuildingBlock: ZUJKAS_clean_linker_0, # of connection points: 2
#     Edge 26, Type (0, 1), BuildingBlock: ZUJKAS_clean_linker_0, # of connection points: 2
#     Edge 27, Type (0, 1), BuildingBlock: ZUJKAS_clean_linker_0, # of connection points: 2
#     Edge 28, Type (0, 1), BuildingBlock: ZUJKAS_clean_linker_0, # of connection points: 2
#     Edge 29, Type (0, 1), BuildingBlock: ZUJKAS_clean_linker_0, # of connection points: 2
#     Edge 30, Type (0, 1), BuildingBlock: ZUJKAS_clean_linker_0, # of connection points: 2
#     Edge 31, Type (0, 1), BuildingBlock: ZUJKAS_clean_linker_0, # of connection points: 2
#     Edge 32, Type (0, 1), BuildingBlock: ZUJKAS_clean_linker_0, # of connection points: 2
#     Edge 33, Type (0, 1), BuildingBlock: ZUJKAS_clean_linker_0, # of connection points: 2
#     Edge 34, Type (0, 1), BuildingBlock: ZUJKAS_clean_linker_0, # of connection points: 2
#     Edge 35, Type (0, 1), BuildingBlock: ZUJKAS_clean_linker_0, # of connection points: 2
# Relax obj value: 0.218
# Max RMSD: 0.153
# Mean RMSD: 0.145
data_MOF--net-zzz--node1-BETDIP_clean_sbu_0--node2-PAMTOO_clean_linker_0--edge1-ZUJKAS_clean_linker_0
_symmetry_space_group_name_H-M    P1
_symmetry_Int_Tables_number       1
_symmetry_cell_setting            triclinic
loop_
_symmetry_equiv_pos_as_xyz
'x, y, z'
_cell_length_a     67.746894
_cell_length_b     67.704977
_cell_length_c     17.527957
_cell_angle_alpha  89.800556
_cell_angle_beta   90.03354
_cell_angle_gamma 90.00165
loop_
_atom_site_label
_atom_site_type_symbol
_atom_site_fract_x
_atom_site_fract_y
_atom_site_fract_z
_atom_type_partial_charge
H0 H 0.80082 0.51141 0.1977 0.0
H1 H 0.7404 0.51382 0.12505 0.0
H2 H 0.75456 0.5185 0.36383 0.0
H3 H 0.72142 0.5451 0.21849 0.0
C4 C 0.71356 0.53343 0.25154 0.0
O5 O 0.72535 0.51681 0.26062 0.0
H6 H 0.71045 0.53954 0.30906 0.0
C7 C 0.78531 0.51318 0.2113 0.0
C8 C 0.77967 0.51511 0.28797 0.0
C9 C 0.77132 0.5128 0.15224 0.0
C10 C 0.75127 0.51431 0.17016 0.0
C11 C 0.74507 0.51656 0.2458 0.0
C12 C 0.75933 0.51721 0.30511 0.0
H13 H 0.03927 0.79576 0.24384 0.0
H14 H 0.02735 0.7378 0.15465 0.0
H15 H 0.99699 0.75811 0.35492 0.0
H16 H 0.99736 0.70624 0.32967 0.0
C17 C 1.00733 0.71093 0.28275 0.0
O18 O 1.00063 0.72885 0.25406 0.0
H19 H 0.02236 0.71262 0.30784 0.0
C20 C 0.03209 0.78151 0.24871 0.0
C21 C 0.01848 0.7786 0.30805 0.0
C22 C 0.03552 0.76703 0.19288 0.0
C23 C 0.02509 0.74916 0.19714 0.0
C24 C 1.01133 0.74583 0.25529 0.0
C25 C 1.0079 0.76059 0.31077 0.0
H26 H 0.71806 0.01298 0.22404 0.0
H27 H 0.77663 1.00535 0.1349 0.0
H28 H 0.76549 0.9963 0.37455 0.0
H29 H 0.81158 1.01124 0.33356 0.0
C30 C 0.80744 1.01044 0.27228 0.0
O31 O 0.79293 0.99609 0.2645 0.0
H32 H 0.80174 0.02524 0.25523 0.0
C33 C 0.73347 1.00927 0.23291 0.0
C34 C 0.73997 1.00455 0.30663 0.0
C35 C 0.74651 1.0095 0.17075 0.0
C36 C 0.76647 1.00514 0.18256 0.0
C37 C 0.77347 1.00046 0.25565 0.0
C38 C 0.76015 1.00001 0.31804 0.0
H39 H 0.50358 0.72953 0.22358 0.0
H40 H 0.51644 0.79035 0.17479 0.0
H41 H 0.51869 0.7692 0.40648 0.0
H42 H 0.513 0.82275 0.38107 0.0
C43 C 0.5101 0.81594 0.32463 0.0
O44 O 0.52327 0.80048 0.31453 0.0
H45 H 0.49461 0.81039 0.32694 0.0
C46 C 0.50702 0.74424 0.24399 0.0
C47 C 0.51047 0.7472 0.32222 0.0
C48 C 0.50907 0.75965 0.19075 0.0
C49 C 0.5146 0.77842 0.21559 0.0
C50 C 0.51772 0.78204 0.29307 0.0
C51 C 0.51587 0.7664 0.34666 0.0
H52 H 0.2224 0.52567 0.20565 0.0
H53 H 0.28417 0.52734 0.25975 0.0
H54 H 0.26504 0.50447 0.04279 0.0
H55 H 0.31158 0.48714 0.1026 0.0
C56 C 0.30593 0.49451 0.15473 0.0
O57 O 0.29611 0.51161 0.13296 0.0
H58 H 0.2956 0.48377 0.1819 0.0
C59 C 0.23754 0.5225 0.18966 0.0
C60 C 0.24155 0.51441 0.11768 0.0
C61 C 0.25275 0.52723 0.24068 0.0
C62 C 0.27237 0.52376 0.22038 0.0
C63 C 0.27688 0.5152 0.14997 0.0
C64 C 0.26149 0.5108 0.09775 0.0
H65 H 1.00067 0.22316 0.20875 0.0
H66 H 1.00924 0.2834 0.27668 0.0
H67 H 0.01857 0.26665 0.04248 0.0
H68 H 0.99029 0.30607 0.14361 0.0
C69 C 1.00553 0.31144 0.13162 0.0
O70 O 0.01928 0.29648 0.14288 0.0
H71 H 1.00602 0.31583 0.07051 0.0
C72 C 1.00445 0.23827 0.194 0.0
C73 C 1.00943 0.24292 0.11838 0.0
C74 C 1.00444 0.25272 0.25116 0.0
C75 C 1.00919 0.27222 0.23263 0.0
C76 C 0.0142 0.27742 0.15778 0.0
C77 C 0.0145 0.2627 0.10029 0.0
H78 H 0.30202 1.00541 0.21842 0.0
H79 H 0.24159 1.00176 0.29092 0.0
H80 H 0.2555 0.02315 0.0654 0.0
H81 H 0.21315 0.04137 0.13472 0.0
C82 C 0.21645 0.03255 0.18679 0.0
O83 O 0.22654 0.01564 0.16518 0.0
H84 H 0.22579 0.04208 0.22392 0.0
C85 C 0.28646 1.00787 0.20704 0.0
C86 C 0.28071 0.01502 0.13525 0.0
C87 C 0.27256 1.00314 0.26348 0.0
C88 C 0.25244 1.00548 0.24788 0.0
C89 C 0.24619 0.01304 0.17738 0.0
C90 C 0.26033 0.01757 0.12029 0.0
H91 H 0.51533 0.30067 0.20529 0.0
H92 H 0.51582 0.23993 0.27721 0.0
H93 H 0.49954 0.25496 0.04661 0.0
H94 H 0.4797 0.21209 0.11353 0.0
C95 C 0.48813 0.21508 0.16665 0.0
O96 O 0.5051 0.22544 0.14691 0.0
H97 H 0.47848 0.22408 0.20441 0.0
C98 C 0.51278 0.28519 0.19305 0.0
C99 C 0.50675 0.27982 0.11945 0.0
C100 C 0.51599 0.27103 0.25047 0.0
C101 C 0.51352 0.251 0.23339 0.0
C102 C 0.50746 0.24508 0.16056 0.0
C103 C 0.50418 0.25951 0.10299 0.0
Tb104 Tb 0.02154 1.00368 0.78243 0.0
Tb105 Tb 0.99906 0.01666 0.65339 0.0
C106 C 0.03528 0.98388 0.89145 0.0
C107 C 0.04329 0.96358 0.89271 0.0
C108 C 0.03113 0.94737 0.87556 0.0
C109 C 0.03927 0.92867 0.86538 0.0
C110 C 0.0597 0.9257 0.87252 0.0
C111 C 0.07178 0.94164 0.89341 0.0
C112 C 0.06363 0.96046 0.90317 0.0
C113 C 0.04383 0.01697 0.66908 0.0
C114 C 1.00806 0.97206 0.65367 0.0
C115 C 0.9871 0.03755 0.54483 0.0
C116 C 0.98615 0.05931 0.5421 0.0
C117 C 1.00303 0.07066 0.55806 0.0
C118 C 1.00143 0.09085 0.57165 0.0
C119 C 0.98293 0.10024 0.56931 0.0
C120 C 0.96619 0.08907 0.54941 0.0
C121 C 0.96779 0.06879 0.53605 0.0
C122 C 0.97671 1.00314 0.76591 0.0
C123 C 0.01204 0.04809 0.78159 0.0
O124 O 0.01634 0.98572 0.87808 0.0
O125 O 0.04567 0.99667 0.85261 0.0
O126 O 0.0287 1.00618 0.66315 0.0
O127 O 0.04697 0.02035 0.7406 0.0
O128 O 0.01474 0.9754 0.72375 0.0
O129 O 1.00236 0.98687 0.60986 0.0
O130 O 1.00479 0.02976 0.54706 0.0
O131 O 0.97522 0.0293 0.59421 0.0
O132 O 0.99182 0.014 0.77276 0.0
O133 O 0.97369 0.99986 0.69402 0.0
O134 O 1.00724 0.04477 0.70954 0.0
O135 O 0.01615 0.03315 0.82739 0.0
H136 H 0.01538 0.94917 0.86747 0.0
H137 H 0.02955 0.9165 0.85139 0.0
H138 H 0.08755 0.93965 0.90021 0.0
H139 H 0.07332 0.97271 0.9166 0.0
H140 H 0.0174 0.06382 0.56415 0.0
H141 H 0.01462 0.09886 0.58769 0.0
H142 H 0.9518 0.09593 0.54505 0.0
H143 H 0.95456 0.06035 0.5241 0.0
Tb144 Tb 0.51702 0.02151 0.77938 0.0
Tb145 Tb 0.50261 0.99905 0.6539 0.0
C146 C 0.52875 0.03807 0.89833 0.0
C147 C 0.54747 0.04885 0.90828 0.0
C148 C 0.56088 0.04258 0.9642 0.0
C149 C 0.58049 0.04892 0.96178 0.0
C150 C 0.58701 0.06163 0.90324 0.0
C151 C 0.57321 0.06906 0.85081 0.0
C152 C 0.55362 0.06277 0.85333 0.0
C153 C 0.51531 0.04244 0.65075 0.0
C154 C 0.54891 1.00644 0.6675 0.0
C155 C 0.4913 0.98245 0.53425 0.0
C156 C 0.47308 0.97096 0.52199 0.0
C157 C 0.45959 0.97712 0.46621 0.0
C158 C 0.44054 0.96925 0.46463 0.0
C159 C 0.43465 0.95498 0.51871 0.0
C160 C 0.44862 0.9479 0.57131 0.0
C161 C 0.46763 0.95584 0.57311 0.0
C162 C 0.50414 0.97821 0.78267 0.0
C163 C 0.47075 0.0142 0.76623 0.0
O164 O 0.53077 0.01911 0.88636 0.0
O165 O 0.51589 0.04607 0.85193 0.0
O166 O 0.5025 0.03023 0.67404 0.0
O167 O 0.52924 0.04331 0.70075 0.0
O168 O 0.54572 1.01172 0.73871 0.0
O169 O 0.53384 1.00307 0.62117 0.0
O170 O 0.48853 1.00127 0.54747 0.0
O171 O 0.50432 0.9747 0.58059 0.0
O172 O 0.51703 0.99032 0.75934 0.0
O173 O 0.49033 0.9772 0.7322 0.0
O174 O 0.47386 1.00865 0.69521 0.0
O175 O 0.48583 0.01777 0.81221 0.0
H176 H 0.55654 0.03174 0.00659 0.0
H177 H 0.59081 0.04277 0.00267 0.0
H178 H 0.57775 0.07909 0.80582 0.0
H179 H 0.54363 0.06795 0.80938 0.0
H180 H 0.4634 0.98886 0.42671 0.0
H181 H 0.43011 0.97526 0.42388 0.0
H182 H 0.44465 0.93672 0.6129 0.0
H183 H 0.47769 0.95075 0.61701 0.0
Tb184 Tb 0.49853 0.51773 0.7748 0.0
Tb185 Tb 0.51971 0.50577 0.6413 0.0
C186 C 0.4887 0.5375 0.88887 0.0
C187 C 0.49097 0.55903 0.89942 0.0
C188 C 0.50985 0.56751 0.90603 0.0
C189 C 0.51235 0.58788 0.8991 0.0
C190 C 0.49605 0.60021 0.88543 0.0
C191 C 0.47705 0.59187 0.88341 0.0
C192 C 0.47454 0.57148 0.89064 0.0
C193 C 0.47492 0.50578 0.6638 0.0
C194 C 0.51082 0.55012 0.64901 0.0
C195 C 0.53191 0.48661 0.5292 0.0
C196 C 0.54127 0.46704 0.52935 0.0
C197 C 0.53533 0.45291 0.47608 0.0
C198 C 0.54152 0.43334 0.48359 0.0
C199 C 0.5539 0.42756 0.54439 0.0
C200 C 0.56038 0.44195 0.5962 0.0
C201 C 0.55403 0.46148 0.58904 0.0
C202 C 0.54318 0.51755 0.75357 0.0
C203 C 0.50685 0.47286 0.76668 0.0
O204 O 0.50505 0.52723 0.88571 0.0
O205 O 0.47622 0.53228 0.8357 0.0
O206 O 0.49025 0.51629 0.65614 0.0
O207 O 0.47227 0.50212 0.73574 0.0
O208 O 0.50768 0.54615 0.7221 0.0
O209 O 0.51325 0.53548 0.60043 0.0
O210 O 0.51341 0.48662 0.55067 0.0
O211 O 0.54204 0.50084 0.56082 0.0
O212 O 0.52789 0.50702 0.75976 0.0
O213 O 0.54609 0.52114 0.68196 0.0
O214 O 0.51383 0.47697 0.69773 0.0
O215 O 0.50083 0.48715 0.81212 0.0
H216 H 0.52287 0.5584 0.91306 0.0
H217 H 0.52712 0.59393 0.90278 0.0
H218 H 0.4642 0.60098 0.87279 0.0
H219 H 0.45983 0.56535 0.88521 0.0
H220 H 0.52519 0.45682 0.43064 0.0
H221 H 0.53587 0.4226 0.44349 0.0
H222 H 0.57003 0.43806 0.64319 0.0
H223 H 0.55853 0.47207 0.63186 0.0
Tb224 Tb 1.00504 0.50114 0.76331 0.0
Tb225 Tb 0.01608 0.52404 0.63582 0.0
C226 C 0.98643 0.48648 0.87306 0.0
C227 C 0.96677 0.47742 0.87122 0.0
C228 C 0.95337 0.48111 0.93012 0.0
C229 C 0.93357 0.47583 0.92184 0.0
C230 C 0.92686 0.46673 0.85441 0.0
C231 C 0.94057 0.46221 0.79706 0.0
C232 C 0.96033 0.4676 0.80519 0.0
C233 C 0.01643 0.47905 0.64617 0.0
C234 C 0.97182 0.51392 0.64174 0.0
C235 C 0.03433 0.53867 0.52483 0.0
C236 C 0.05386 0.54802 0.52345 0.0
C237 C 0.06618 0.54547 0.46021 0.0
C238 C 0.08585 0.55157 0.46342 0.0
C239 C 0.09345 0.56031 0.52997 0.0
C240 C 0.08084 0.56369 0.59197 0.0
C241 C 0.06121 0.55746 0.58895 0.0
C242 C 1.00457 0.54601 0.75314 0.0
C243 C 0.04923 0.51142 0.75859 0.0
O244 O 0.98659 0.5054 0.85795 0.0
O245 O 1.00027 0.47702 0.8364 0.0
O246 O 1.00568 0.49428 0.6428 0.0
O247 O 0.02085 0.47579 0.71676 0.0
O248 O 0.97596 0.50887 0.713 0.0
O249 O 0.98636 0.51803 0.5942 0.0
O250 O 0.03451 0.51981 0.54108 0.0
O251 O 0.02067 0.54813 0.56248 0.0
O252 O 0.01547 0.53091 0.75616 0.0
O253 O 1.00006 0.54928 0.6826 0.0
O254 O 0.04521 0.51677 0.68744 0.0
O255 O 0.03466 0.50698 0.80545 0.0
H256 H 0.95801 0.48899 0.98078 0.0
H257 H 0.92335 0.47989 0.96661 0.0
H258 H 0.93594 0.45507 0.74483 0.0
H259 H 0.97037 0.46488 0.75828 0.0
H260 H 0.06081 0.53807 0.40957 0.0
H261 H 0.09529 0.54895 0.41462 0.0
H262 H 0.0864 0.57018 0.64414 0.0
H263 H 0.05201 0.55927 0.63901 0.0
H264 H 0.21215 0.01935 0.33457 0.0
H265 H 0.18159 0.01491 0.40787 0.0
H266 H 0.14745 0.03112 0.20973 0.0
H267 H 0.178 0.03544 0.13625 0.0
H268 H 0.13683 0.0521 0.34183 0.0
H269 H 0.13892 0.97157 0.40046 0.0
H270 H 0.16121 0.98447 0.42495 0.0
H271 H 0.15368 0.98304 0.3268 0.0
C272 C 0.19811 0.02152 0.30625 0.0
C273 C 0.19752 0.02764 0.22949 0.0
C274 C 0.18062 0.019 0.34821 0.0
C275 C 0.1621 0.02251 0.31438 0.0
C276 C 0.16149 0.02825 0.23723 0.0
H277 H 0.04653 0.99879 0.52904 0.0
H278 H 0.07431 1.00026 0.43864 0.0
C279 C 0.17897 0.03065 0.19515 0.0
C280 C 0.14352 0.02138 0.36049 0.0
H281 H 0.11535 0.99035 0.47031 0.0
C282 C 0.13209 0.03855 0.36947 0.0
C283 C 0.13713 1.00369 0.39618 0.0
C284 C 0.14824 0.98458 0.38625 0.0
C285 C 0.11489 0.03866 0.41468 0.0
C286 C 0.10887 0.02115 0.45253 0.0
C287 C 0.11996 1.00382 0.44178 0.0
C288 C 0.09158 0.02075 0.50564 0.0
C289 C 0.10322 0.05754 0.42154 0.0
C290 C 0.09195 0.03176 0.5734 0.0
C291 C 0.07619 0.03087 0.62509 0.0
C292 C 0.0596 0.01898 0.61035 0.0
C293 C 0.05903 1.00819 0.54188 0.0
C294 C 0.07495 1.00895 0.49035 0.0
H295 H 0.10678 0.0681 0.37487 0.0
H296 H 0.08711 0.0545 0.42066 0.0
H297 H 0.10683 0.06472 0.47662 0.0
H298 H 0.10467 0.04078 0.58716 0.0
H299 H 0.07713 0.0393 0.67738 0.0
H300 H 0.5202 0.20466 0.25916 0.0
H301 H 0.52465 0.17429 0.33396 0.0
H302 H 0.46939 0.15198 0.24793 0.0
H303 H 0.46508 0.18213 0.17231 0.0
H304 H 0.50216 0.15946 0.44767 0.0
H305 H 0.50398 0.10449 0.21453 0.0
H306 H 0.50623 0.13068 0.19704 0.0
H307 H 0.48233 0.11975 0.21226 0.0
C308 C 0.50918 0.19314 0.25492 0.0
C309 C 0.49251 0.19566 0.20784 0.0
C310 C 0.5117 0.17576 0.29811 0.0
C311 C 0.49759 0.16049 0.29571 0.0
C312 C 0.48085 0.16312 0.2493 0.0
H313 H 0.4828 0.04971 0.55861 0.0
H314 H 0.47788 0.07797 0.47132 0.0
C315 C 0.47836 0.18044 0.20611 0.0
C316 C 0.49979 0.14237 0.34476 0.0
H317 H 0.5009 0.09172 0.34079 0.0
C318 C 0.502 0.14468 0.424 0.0
C319 C 0.49944 0.12294 0.31456 0.0
C320 C 0.49806 0.11926 0.22989 0.0
C321 C 0.50365 0.1283 0.47348 0.0
C322 C 0.50338 0.1089 0.44329 0.0
C323 C 0.50101 0.10652 0.3642 0.0
C324 C 0.50648 0.09107 0.49283 0.0
C325 C 0.5054 0.1319 0.55812 0.0
C326 C 0.52434 0.08865 0.5324 0.0
C327 C 0.52718 0.07258 0.58169 0.0
C328 C 0.51225 0.05839 0.59292 0.0
C329 C 0.49456 0.06039 0.55146 0.0
C330 C 0.49174 0.07655 0.50162 0.0
H331 H 0.50013 0.14688 0.57389 0.0
H332 H 0.49686 0.12077 0.59105 0.0
H333 H 0.52113 0.1307 0.57522 0.0
H334 H 0.53611 0.09934 0.52564 0.0
H335 H 0.54107 0.07145 0.6121 0.0
H336 H 0.34248 0.50982 0.11934 0.0
H337 H 0.3716 0.51283 0.20258 0.0
H338 H 0.33728 0.49178 0.3932 0.0
H339 H 0.30824 0.48876 0.3102 0.0
H340 H 0.37862 0.5338 0.34252 0.0
H341 H 0.38405 0.45269 0.38395 0.0
H342 H 0.36915 0.4637 0.30972 0.0
H343 H 0.36035 0.46304 0.40641 0.0
C344 C 0.34114 0.50607 0.17923 0.0
C345 C 0.32314 0.49882 0.20799 0.0
C346 C 0.35779 0.50775 0.22676 0.0
C347 C 0.35683 0.50213 0.30402 0.0
C348 C 0.33858 0.49581 0.33356 0.0
H349 H 0.43835 0.48976 0.6837 0.0
H350 H 0.41062 0.48944 0.59444 0.0
C351 C 0.32193 0.4942 0.28617 0.0
C352 C 0.37494 0.50236 0.3532 0.0
H353 H 0.40526 0.47248 0.45905 0.0
C354 C 0.38452 0.52038 0.36768 0.0
C355 C 0.38273 0.48488 0.38612 0.0
C356 C 0.37369 0.46493 0.37041 0.0
C357 C 0.40121 0.52147 0.4159 0.0
C358 C 0.40894 0.50397 0.44929 0.0
C359 C 0.39946 0.48593 0.43384 0.0
C360 C 0.42631 0.50404 0.50268 0.0
C361 C 0.40992 0.54149 0.43274 0.0
C362 C 0.44472 0.51197 0.48103 0.0
C363 C 0.46068 0.51225 0.5325 0.0
C364 C 0.45866 0.50442 0.60658 0.0
C365 C 0.44044 0.49598 0.62726 0.0
C366 C 0.42452 0.49579 0.57608 0.0
H367 H 0.39929 0.55358 0.42038 0.0
H368 H 0.41457 0.54258 0.49333 0.0
H369 H 0.4231 0.54383 0.39624 0.0
H370 H 0.44678 0.51794 0.42423 0.0
H371 H 0.47454 0.51875 0.51456 0.0
H372 H 0.02626 0.31474 0.2698 0.0
H373 H 0.02892 0.3438 0.35244 0.0
H374 H 0.99543 0.37799 0.18986 0.0
H375 H 0.99245 0.34894 0.1078 0.0
H376 H 0.04487 0.38159 0.32735 0.0
H377 H 0.96464 0.38701 0.38601 0.0
H378 H 0.97564 0.36545 0.3432 0.0
H379 H 0.97067 0.38704 0.2863 0.0
C380 C 0.01955 0.32844 0.25131 0.0
C381 C 1.00928 0.32951 0.18144 0.0
C382 C 0.02108 0.34511 0.29878 0.0
C383 C 0.01213 0.36313 0.27825 0.0
C384 C 1.00217 0.36425 0.20802 0.0
H385 H 0.99924 0.47846 0.50348 0.0
H386 H 0.99909 0.45108 0.41152 0.0
C387 C 1.00065 0.34766 0.16067 0.0
C388 C 0.01313 0.38071 0.33 0.0
H389 H 0.98453 0.41353 0.42914 0.0
C390 C 0.03167 0.38851 0.3498 0.0
C391 C 0.99594 0.38991 0.35934 0.0
C392 C 0.9756 0.38185 0.34332 0.0
C393 C 0.03346 0.40531 0.39679 0.0
C394 C 0.01627 0.41446 0.42645 0.0
C395 C 0.99774 0.40669 0.40637 0.0
C396 C 0.01716 0.43159 0.48051 0.0
C397 C 0.05381 0.41335 0.41278 0.0
C398 C 0.02729 0.42991 0.55025 0.0
C399 C 0.02743 0.44554 0.60257 0.0
C400 C 0.01731 0.46326 0.58705 0.0
C401 C 1.00728 0.46507 0.51706 0.0
C402 C 1.00713 0.44937 0.46456 0.0
H403 H 0.06454 0.40882 0.36824 0.0
H404 H 0.05368 0.42972 0.41607 0.0
H405 H 0.0591 0.40743 0.46824 0.0
H406 H 0.03474 0.41629 0.56521 0.0
H407 H 0.0352 0.44357 0.65608 0.0
H408 H 0.81015 0.99274 0.12929 0.0
H409 H 0.83947 0.98938 0.04826 0.0
H410 H 0.87489 0.01704 0.22212 0.0
H411 H 0.84573 0.02008 0.30354 0.0
H412 H 0.86273 0.01789 0.98867 0.0
H413 H 0.90911 0.9702 0.17294 0.0
H414 H 0.88314 0.97393 0.19057 0.0
H415 H 0.90088 0.99212 0.22043 0.0
C416 C 0.82425 0.9977 0.15096 0.0
C417 C 0.82565 1.00615 0.22406 0.0
C418 C 0.84104 0.99587 0.10434 0.0
C419 C 0.85963 1.00254 0.12936 0.0
C420 C 0.86097 1.01116 0.20204 0.0
H421 H 0.9756 0.01774 0.91255 0.0
H422 H 0.94749 0.01725 1.00147 0.0
C423 C 0.84423 0.01294 0.24862 0.0
C424 C 0.87733 1.00159 0.07797 0.0
H425 H 0.92523 0.98549 0.06716 0.0
C426 C 0.87632 1.01065 0.00577 0.0
C427 C 0.89523 0.99227 0.09995 0.0
C428 C 0.89715 0.98141 0.17488 0.0
C429 C 0.89264 1.01096 0.95593 0.0
C430 C 0.91054 1.0017 0.97798 0.0
C431 C 0.9116 0.99266 0.05015 0.0
C432 C 0.9281 1.00101 0.92616 0.0
C433 C 0.89071 0.02164 0.88058 0.0
C434 C 0.92688 0.99155 0.8551 0.0
C435 C 0.9429 0.99176 0.80451 0.0
C436 C 0.96063 1.00139 0.82364 0.0
C437 C 0.96216 1.01023 0.89597 0.0
C438 C 0.94607 1.00998 0.94679 0.0
H439 H 0.87817 0.03222 0.8807 0.0
H440 H 0.90445 0.02983 0.86656 0.0
H441 H 0.88802 1.0107 0.83476 0.0
H442 H 0.9134 0.98414 0.83829 0.0
H443 H 0.94124 0.98467 0.74958 0.0
H444 H 0.48399 0.82587 0.21015 0.0
H445 H 0.48574 0.85371 0.12042 0.0
H446 H 0.54261 0.86981 0.21142 0.0
H447 H 0.54087 0.84187 0.30132 0.0
H448 H 0.48857 0.89382 0.1613 0.0
H449 H 0.55209 0.87213 0.97964 0.0
H450 H 0.53917 0.85468 0.03973 0.0
H451 H 0.55653 0.87165 0.08074 0.0
C452 C 0.497 0.83517 0.21025 0.0
C453 C 0.5123 0.83168 0.2629 0.0
C454 C 0.49797 0.85114 0.15904 0.0
C455 C 0.51436 0.8639 0.15848 0.0
C456 C 0.52994 0.86008 0.2096 0.0
H457 H 0.53604 0.97143 0.87872 0.0
H458 H 0.53948 0.94479 0.97433 0.0
C459 C 0.52893 0.84413 0.26112 0.0
C460 C 0.51446 0.88178 0.1077 0.0
H461 H 0.53843 0.90379 0.95767 0.0
C462 C 0.4995 0.89596 0.11683 0.0
C463 C 0.52883 0.88484 0.0501 0.0
C464 C 0.54501 0.86999 0.03622 0.0
C465 C 0.49843 0.91292 0.07012 0.0
C466 C 0.51242 0.9157 0.01086 0.0
C467 C 0.52768 0.90176 0.00284 0.0
C468 C 0.51058 0.9322 0.95387 0.0
C469 C 0.48236 0.92781 0.08544 0.0
C470 C 0.49334 0.93401 0.90982 0.0
C471 C 0.49136 0.94917 0.85584 0.0
C472 C 0.50662 0.96291 0.84344 0.0
C473 C 0.52397 0.96116 0.88714 0.0
C474 C 0.52596 0.94588 0.94158 0.0
H475 H 0.47731 0.92711 0.1457 0.0
H476 H 0.48741 0.94309 0.07292 0.0
H477 H 0.46946 0.92452 0.04855 0.0
H478 H 0.48142 0.92349 0.91644 0.0
H479 H 0.47782 0.94996 0.823 0.0
H480 H 0.67675 0.5486 0.27953 0.0
H481 H 0.64637 0.5447 0.20528 0.0
H482 H 0.67677 0.50578 0.0507 0.0
H483 H 0.70692 0.50914 0.12622 0.0
H484 H 0.63895 0.55521 0.06288 0.0
H485 H 0.62719 0.47456 0.08431 0.0
H486 H 0.64466 0.48744 0.14389 0.0
H487 H 0.65121 0.48058 0.04802 0.0
C488 C 0.67684 0.5388 0.23079 0.0
C489 C 0.69427 0.52886 0.21008 0.0
C490 C 0.65945 0.53669 0.18792 0.0
C491 C 0.65899 0.52466 0.12265 0.0
C492 C 0.67641 0.51471 0.10179 0.0
H493 H 0.57871 0.53593 0.73849 0.0
H494 H 0.60567 0.53781 0.8308 0.0
C495 C 0.69379 0.51675 0.14494 0.0
C496 C 0.64073 0.52357 0.07413 0.0
H497 H 0.60855 0.49151 0.98827 0.0
C498 C 0.63227 0.54125 0.04717 0.0
C499 C 0.63163 0.50544 0.05409 0.0
C500 C 0.639 0.48594 0.08472 0.0
C501 C 0.61549 0.54129 0.99949 0.0
C502 C 0.60702 0.52313 0.97627 0.0
C503 C 0.61508 0.50546 0.00505 0.0
C504 C 0.59021 0.52217 0.92057 0.0
C505 C 0.60689 0.56088 0.97518 0.0
C506 C 0.57247 0.5124 0.93901 0.0
C507 C 0.55696 0.5112 0.88572 0.0
C508 C 0.55891 0.5196 0.81256 0.0
C509 C 0.57663 0.52939 0.79441 0.0
C510 C 0.59208 0.53057 0.84748 0.0
H511 H 0.61086 0.57281 0.01577 0.0
H512 H 0.6129 0.56499 0.91843 0.0
H513 H 0.59055 0.56012 0.97079 0.0
H514 H 0.57062 0.50569 0.99474 0.0
H515 H 0.54355 0.50347 0.9014 0.0
H516 H 0.03182 0.67892 0.27489 0.0
H517 H 0.03102 0.65111 0.18573 0.0
H518 H 0.98172 0.67767 0.06858 0.0
H519 H 0.98244 0.70553 0.15799 0.0
H520 H 0.99924 0.62467 0.15811 0.0
H521 H 0.0206 0.66471 0.89375 0.0
H522 H 0.02458 0.67482 0.98773 0.0
H523 H 1.00038 0.67531 0.94584 0.0
C524 C 0.02102 0.67901 0.2293 0.0
C525 C 1.00758 0.69478 0.22234 0.0
C526 C 0.0205 0.66303 0.17859 0.0
C527 C 1.00652 0.66235 0.11944 0.0
C528 C 0.99295 0.678 0.11257 0.0
H529 H 0.98241 0.57954 0.75027 0.0
H530 H 0.98238 0.60683 0.84139 0.0
C531 C 0.99338 0.69396 0.16372 0.0
C532 C 1.0058 0.64495 0.06685 0.0
H533 H 1.011 0.63136 0.88008 0.0
C534 C 1.00186 0.62612 0.09731 0.0
C535 C 1.00915 0.64677 0.98742 0.0
C536 C 0.01408 0.66644 0.95149 0.0
C537 C 1.0008 0.60921 0.05061 0.0
C538 C 1.00432 0.61098 0.97109 0.0
C539 C 1.00829 0.62985 0.94079 0.0
C540 C 1.00372 0.59361 0.91798 0.0
C541 C 0.99532 0.58973 0.0869 0.0
C542 C 0.01564 0.57682 0.93012 0.0
C543 C 0.01548 0.561 0.87824 0.0
C544 C 1.00364 0.56175 0.81232 0.0
C545 C 0.99167 0.57846 0.8005 0.0
C546 C 0.99171 0.59415 0.85256 0.0
H547 H 0.98735 0.59187 0.14162 0.0
H548 H 0.98591 0.58078 0.04837 0.0
H549 H 1.00898 0.58126 0.0994 0.0
H550 H 0.02545 0.57611 0.9788 0.0
H551 H 0.02504 0.54845 0.88861 0.0
H552 H 0.02134 0.22334 0.33271 0.0
H553 H 1.0104 0.20991 0.45448 0.0
H554 H 0.96632 0.25572 0.47148 0.0
H555 H 0.97723 0.26918 0.34772 0.0
H556 H 1.00364 0.22448 0.60888 0.0
H557 H 0.93436 0.20379 0.45643 0.0
H558 H 0.95493 0.2129 0.40147 0.0
H559 H 0.94193 0.2292 0.46455 0.0
C560 C 1.00954 0.23075 0.36301 0.0
C561 C 0.99984 0.247 0.33051 0.0
C562 C 1.00343 0.22323 0.43295 0.0
C563 C 0.98745 0.23174 0.47171 0.0
C564 C 0.97861 0.2489 0.44219 0.0
H565 H 0.9531 0.11934 0.6464 0.0
H566 H 0.94939 0.15504 0.66538 0.0
C567 C 0.98484 0.25655 0.37181 0.0
C568 C 0.97861 0.22023 0.53476 0.0
H569 H 0.94788 0.18054 0.54104 0.0
C570 C 0.99083 0.21539 0.59678 0.0
C571 C 0.96156 0.20873 0.52071 0.0
C572 C 0.94732 0.21384 0.45743 0.0
C573 C 0.98857 0.19733 0.63509 0.0
C574 C 0.97398 0.184 0.60971 0.0
C575 C 0.95941 0.19063 0.55891 0.0
C576 C 0.97738 0.16247 0.61353 0.0
C577 C 1.00325 0.19159 0.69574 0.0
C578 C 0.99424 0.1549 0.57752 0.0
C579 C 0.99613 0.13475 0.56447 0.0
C580 C 0.98124 0.1216 0.58753 0.0
C581 C 0.96467 0.12911 0.6265 0.0
C582 C 0.96266 0.14943 0.63866 0.0
H583 H 1.00774 0.20468 0.72963 0.0
H584 H 0.99704 0.18019 0.73463 0.0
H585 H 0.0167 0.18553 0.6683 0.0
H586 H 1.00547 0.16474 0.55519 0.0
H587 H 1.00891 0.12964 0.53318 0.0
H588 H 0.25972 0.97015 0.33998 0.0
H589 H 0.27694 0.95329 0.4448 0.0
H590 H 0.31919 1.00102 0.45311 0.0
H591 H 0.30159 0.01808 0.35244 0.0
H592 H 0.31056 0.93858 0.42714 0.0
H593 H 0.32061 0.98737 0.66963 0.0
H594 H 0.30129 0.99194 0.60064 0.0
H595 H 0.32557 1.00269 0.58874 0.0
C596 C 0.27217 0.97737 0.36685 0.0
C597 C 0.27957 0.99523 0.33751 0.0
C598 C 0.28204 0.96771 0.42657 0.0
C599 C 0.29935 0.97586 0.4577 0.0
C600 C 0.30562 0.99455 0.4323 0.0
H601 H 0.40868 0.94793 0.4025 0.0
H602 H 0.37305 0.94549 0.41175 0.0
C603 C 0.29573 1.0042 0.37347 0.0
C604 C 0.31336 0.96359 0.50273 0.0
H605 H 0.35247 0.97152 0.62036 0.0
C606 C 0.31927 0.9454 0.47176 0.0
C607 C 0.32438 0.97164 0.56374 0.0
C608 C 0.31737 0.98938 0.60793 0.0
C609 C 0.33758 0.93708 0.49068 0.0
C610 C 0.35047 0.94761 0.53925 0.0
C611 C 0.34305 0.9638 0.58025 0.0
C612 C 0.37221 0.94494 0.53552 0.0
C613 C 0.34343 0.91782 0.45416 0.0
C614 C 0.38384 0.94558 0.60178 0.0
C615 C 0.40433 0.94767 0.59642 0.0
C616 C 0.41357 0.94912 0.52462 0.0
C617 C 0.40203 0.94712 0.4586 0.0
C618 C 0.38159 0.9453 0.46397 0.0
H619 H 0.33062 0.90757 0.45285 0.0
H620 H 0.34787 0.92055 0.39411 0.0
H621 H 0.35579 0.91055 0.485 0.0
H622 H 0.37699 0.94552 0.65761 0.0
H623 H 0.41274 0.9494 0.64854 0.0
H624 H 0.5016 0.30218 0.3302 0.0
H625 H 0.51576 0.31728 0.44246 0.0
H626 H 0.55699 0.26892 0.46414 0.0
H627 H 0.54375 0.25445 0.34662 0.0
H628 H 0.5226 0.30998 0.58788 0.0
H629 H 0.59544 0.31235 0.43937 0.0
H630 H 0.57401 0.3034 0.38969 0.0
H631 H 0.58486 0.28897 0.46527 0.0
C632 C 0.5137 0.29472 0.35862 0.0
C633 C 0.52205 0.27756 0.32777 0.0
C634 C 0.52163 0.30321 0.42382 0.0
C635 C 0.53788 0.29456 0.46093 0.0
C636 C 0.54491 0.27623 0.43517 0.0
H637 H 0.55694 0.40674 0.67937 0.0
H638 H 0.56069 0.37102 0.69475 0.0
C639 C 0.53717 0.26786 0.36846 0.0
C640 C 0.54851 0.30664 0.51843 0.0
H641 H 0.58745 0.3385 0.51815 0.0
C642 C 0.53708 0.31593 0.57471 0.0
C643 C 0.56777 0.31385 0.50349 0.0
C644 C 0.58132 0.30421 0.4463 0.0
C645 C 0.54242 0.33449 0.6035 0.0
C646 C 0.5602 0.34331 0.57795 0.0
C647 C 0.57352 0.33194 0.53531 0.0
C648 C 0.56231 0.36512 0.57357 0.0
C649 C 0.5277 0.34549 0.65212 0.0
C650 C 0.56347 0.37387 0.50088 0.0
C651 C 0.56199 0.39423 0.49206 0.0
C652 C 0.55893 0.40639 0.55561 0.0
C653 C 0.55917 0.3978 0.62902 0.0
C654 C 0.56105 0.37732 0.63796 0.0
H655 H 0.53442 0.34906 0.70812 0.0
H656 H 0.52343 0.35954 0.62377 0.0
H657 H 0.51408 0.33679 0.6629 0.0
H658 H 0.56454 0.36486 0.45006 0.0
H659 H 0.56249 0.40037 0.43494 0.0
H660 H 0.26245 0.56379 0.29378 0.0
H661 H 0.24645 0.58102 0.40044 0.0
H662 H 0.21473 0.52759 0.45664 0.0
H663 H 0.23068 0.51062 0.35147 0.0
H664 H 0.20817 0.58643 0.39104 0.0
H665 H 0.22039 0.54999 0.66564 0.0
H666 H 0.23785 0.54776 0.58806 0.0
H667 H 0.2173 0.53086 0.5965 0.0
C668 C 0.2527 0.55562 0.33136 0.0
C669 C 0.24761 0.536 0.31483 0.0
C670 C 0.24361 0.56542 0.39218 0.0
C671 C 0.22956 0.55558 0.43741 0.0
C672 C 0.22591 0.53543 0.4244 0.0
H673 H 0.1232 0.53523 0.49622 0.0
H674 H 0.15858 0.54157 0.50123 0.0
C675 C 0.23483 0.52574 0.36364 0.0
C676 C 0.21516 0.56672 0.4841 0.0
H677 H 0.18439 0.55658 0.63259 0.0
C678 C 0.20343 0.58073 0.44597 0.0
C679 C 0.20913 0.55975 0.55654 0.0
C680 C 0.22205 0.54642 0.60415 0.0
C681 C 0.18431 0.58504 0.47149 0.0
C682 C 0.177 0.57512 0.5366 0.0
C683 C 0.18992 0.56384 0.58164 0.0
C684 C 0.15565 0.57138 0.54406 0.0
C685 C 0.17113 0.59793 0.42296 0.0
C686 C 0.14233 0.58604 0.56721 0.0
C687 C 0.12197 0.58244 0.56403 0.0
C688 C 0.11483 0.56426 0.53673 0.0
C689 C 0.1283 0.5495 0.51592 0.0
C690 C 0.14849 0.55302 0.51972 0.0
H691 H 0.17943 0.60554 0.37678 0.0
H692 H 0.15938 0.58877 0.39661 0.0
H693 H 0.16386 0.60924 0.45896 0.0
H694 H 0.14764 0.6003 0.58594 0.0
H695 H 0.11182 0.594 0.58074 0.0
H696 H 0.06987 0.78847 0.1912 0.0
H697 H 0.08313 0.80602 0.08169 0.0
H698 H 0.04546 0.77241 0.93206 0.0
H699 H 0.03043 0.75636 0.04231 0.0
H700 H 0.09927 0.80436 0.94416 0.0
H701 H 0.01968 0.82468 0.91306 0.0
H702 H 0.02809 0.80955 0.99092 0.0
H703 H 0.026 0.79938 0.89639 0.0
C704 C 0.06443 0.78468 0.135 0.0
C705 C 0.04825 0.77187 0.12615 0.0
C706 C 0.07231 0.79451 0.07205 0.0
C707 C 0.06455 0.79126 0.99892 0.0
C708 C 0.051 0.77581 0.98845 0.0
H709 H 0.05277 0.9008 0.75365 0.0
H710 H 0.05974 0.86536 0.75003 0.0
C711 C 0.04257 0.76644 0.05179 0.0
C712 C 0.06754 0.80673 0.93985 0.0
H713 H 0.04267 0.84541 0.86025 0.0
C714 C 0.08688 0.81307 0.9239 0.0
C715 C 0.05137 0.81809 0.91259 0.0
C716 C 0.03013 0.81272 0.92924 0.0
C717 C 0.09046 0.83139 0.88857 0.0
C718 C 0.07429 0.84351 0.8686 0.0
C719 C 0.05506 0.8361 0.87601 0.0
C720 C 0.07624 0.86506 0.85581 0.0
C721 C 0.11146 0.83805 0.87697 0.0
C722 C 0.08399 0.87683 0.91458 0.0
C723 C 0.07997 0.89705 0.91681 0.0
C724 C 0.06795 0.90572 0.86079 0.0
C725 C 0.0618 0.89433 0.79822 0.0
C726 C 0.06596 0.87416 0.79566 0.0
H727 H 0.1212 0.82525 0.86464 0.0
H728 H 0.11267 0.84892 0.8296 0.0
H729 H 0.11691 0.84505 0.93015 0.0
H730 H 0.09153 0.87014 0.96264 0.0
H731 H 0.08483 0.9055 0.96572 0.0
H732 H 0.71413 0.99487 0.09983 0.0
H733 H 0.69719 1.00898 0.99068 0.0
H734 H 0.74485 0.05054 0.95841 0.0
H735 H 0.76163 0.03671 0.07065 0.0
H736 H 0.71273 0.06973 0.97199 0.0
H737 H 0.69539 1.01225 0.76628 0.0
H738 H 0.69004 1.00145 0.85711 0.0
H739 H 0.71502 1.00899 0.83507 0.0
C740 C 0.72125 1.00667 0.06824 0.0
C741 C 0.73898 0.01494 0.09429 0.0
C742 C 0.71171 0.01455 0.00476 0.0
C743 C 0.71981 0.03073 0.96525 0.0
C744 C 0.73838 0.03797 0.9875 0.0
H745 H 0.60784 0.06085 0.76964 0.0
H746 H 0.64372 0.0608 0.75484 0.0
C747 C 0.74796 0.03007 0.05152 0.0
C748 C 0.70675 0.04228 0.91378 0.0
H749 H 0.66598 0.03351 0.80589 0.0
C750 C 0.70297 0.06205 0.93301 0.0
C751 C 0.69443 0.03288 0.85981 0.0
C752 C 0.69918 0.01279 0.82792 0.0
C753 C 0.68536 0.07127 0.91064 0.0
C754 C 0.67109 0.06018 0.87041 0.0
C755 C 0.6765 0.04182 0.83969 0.0
C756 C 0.64977 0.06502 0.87495 0.0
C757 C 0.68161 0.09222 0.93553 0.0
C758 C 0.64117 0.06789 0.94708 0.0
C759 C 0.62073 0.06815 0.95558 0.0
C760 C 0.60841 0.06523 0.89232 0.0
C761 C 0.61695 0.06342 0.81943 0.0
C762 C 0.63747 0.06329 0.81086 0.0
H763 H 0.69533 0.10112 0.93037 0.0
H764 H 0.66979 0.09935 0.90121 0.0
H765 H 0.67727 0.09231 0.99658 0.0
H766 H 0.65022 0.06861 0.99793 0.0
H767 H 0.61458 0.06969 0.01229 0.0
H768 H 0.5348 0.76814 0.07542 0.0
H769 H 0.53522 0.75268 0.94928 0.0
H770 H 0.47899 0.72537 0.99784 0.0
H771 H 0.47841 0.74104 0.12214 0.0
H772 H 0.53862 0.71462 0.95556 0.0
H773 H 0.475 0.72815 0.77139 0.0
H774 H 0.48283 0.74597 0.84194 0.0
H775 H 0.46575 0.72647 0.86676 0.0
C776 C 0.52212 0.7596 0.05735 0.0
C777 C 0.50675 0.75538 0.10866 0.0
C778 C 0.52234 0.75084 0.98521 0.0
C779 C 0.50714 0.73787 0.96369 0.0
C780 C 0.49072 0.7356 0.0119 0.0
H781 H 0.47377 0.63075 0.93886 0.0
H782 H 0.47945 0.66598 0.92083 0.0
C783 C 0.49052 0.7443 0.08373 0.0
C784 C 0.51067 0.72251 0.90528 0.0
H785 H 0.48294 0.69193 0.79481 0.0
C786 C 0.5269 0.71 0.91742 0.0
C787 C 0.49569 0.71664 0.85408 0.0
C788 C 0.47898 0.73022 0.83235 0.0
C789 C 0.52672 0.69046 0.89153 0.0
C790 C 0.51004 0.68359 0.85086 0.0
C791 C 0.49546 0.6971 0.82777 0.0
C792 C 0.50524 0.66231 0.84925 0.0
C793 C 0.54312 0.67677 0.91649 0.0
C794 C 0.51769 0.64855 0.81405 0.0
C795 C 0.51474 0.62835 0.82595 0.0
C796 C 0.49894 0.6216 0.87127 0.0
C797 C 0.48596 0.63544 0.90317 0.0
C798 C 0.48913 0.65559 0.89246 0.0
H799 H 0.5542 0.68428 0.95305 0.0
H800 H 0.53699 0.66404 0.94881 0.0
H801 H 0.55087 0.67094 0.86559 0.0
H802 H 0.53001 0.65342 0.77945 0.0
H803 H 0.52478 0.618 0.79941 0.0
H804 H 0.80247 0.52987 0.07952 0.0
H805 H 0.81809 0.51869 0.96331 0.0
H806 H 0.77036 0.47756 0.92556 0.0
H807 H 0.75524 0.48794 0.04561 0.0
H808 H 0.80156 0.45821 0.92297 0.0
H809 H 0.81833 0.52098 0.74062 0.0
H810 H 0.82499 0.52921 0.83387 0.0
H811 H 0.79959 0.52279 0.81363 0.0
C812 C 0.79508 0.51871 0.04575 0.0
C813 C 0.7779 0.50946 0.07263 0.0
C814 C 0.80382 0.51258 0.97803 0.0
C815 C 0.79536 0.49736 0.93455 0.0
C816 C 0.77716 0.48937 0.95775 0.0
H817 H 0.90594 0.47274 0.72236 0.0
H818 H 0.87016 0.47366 0.70808 0.0
C819 C 0.7685 0.49536 0.02635 0.0
C820 C 0.80777 0.48722 0.87688 0.0
H821 H 0.84797 0.4985 0.76925 0.0
C822 C 0.81122 0.4669 0.88673 0.0
C823 C 0.81988 0.49795 0.82574 0.0
C824 C 0.81524 0.51889 0.80237 0.0
C825 C 0.82844 0.45811 0.85857 0.0
C826 C 0.84276 0.47013 0.82262 0.0
C827 C 0.83751 0.48939 0.80029 0.0
C828 C 0.86403 0.46492 0.82442 0.0
C829 C 0.83177 0.4364 0.87298 0.0
C830 C 0.87262 0.4592 0.89414 0.0
C831 C 0.89305 0.45843 0.90233 0.0
C832 C 0.90541 0.46379 0.8415 0.0
C833 C 0.89686 0.4684 0.77038 0.0
C834 C 0.87636 0.46899 0.76202 0.0
H835 H 0.81788 0.42805 0.86317 0.0
H836 H 0.84349 0.43028 0.83564 0.0
H837 H 0.83597 0.43408 0.93357 0.0
H838 H 0.8636 0.4566 0.94413 0.0
H839 H 0.89915 0.45453 0.9575 0.0
H840 H 0.97851 0.21946 0.07896 0.0
H841 H 0.97959 0.18781 0.01202 0.0
H842 H 0.04162 0.19616 0.96797 0.0
H843 H 0.04045 0.2282 0.03424 0.0
H844 H 0.02202 0.1778 0.84557 0.0
H845 H 1.00396 0.13998 0.11724 0.0
H846 H 0.98593 0.15809 0.08999 0.0
H847 H 1.01066 0.16574 0.1129 0.0
C848 C 0.99228 0.2148 0.05322 0.0
C849 C 1.00938 0.22641 0.0617 0.0
C850 C 0.99294 0.19655 0.0157 0.0
C851 C 1.0108 0.1892 0.98653 0.0
C852 C 0.02767 0.20135 0.99039 0.0
H853 H 0.0311 0.06278 0.90802 0.0
H854 H 0.03169 0.09695 0.95404 0.0
C855 C 0.02697 0.21977 0.02774 0.0
C856 C 0.01195 0.16847 0.95625 0.0
H857 H 1.00342 0.12021 0.00574 0.0
C858 C 0.01794 0.16521 0.88054 0.0
C859 C 1.00709 0.15186 1.00214 0.0
C860 C 1.00174 0.15401 0.08529 0.0
C861 C 0.01861 0.14601 0.84902 0.0
C862 C 0.01303 0.12946 0.8942 0.0
C863 C 1.00754 0.13274 0.97047 0.0
C864 C 0.01299 0.10863 0.86435 0.0
C865 C 0.02563 0.14366 0.7679 0.0
C866 C 1.00204 0.10345 0.79914 0.0
C867 C 1.00175 0.08388 0.77269 0.0
C868 C 0.01228 0.06885 0.81081 0.0
C869 C 0.02289 0.07393 0.87693 0.0
C870 C 0.02325 0.09354 0.90325 0.0
H871 H 0.0347 0.15646 0.7492 0.0
H872 H 0.03446 0.12997 0.76106 0.0
H873 H 0.01263 0.14275 0.72955 0.0
H874 H 0.99339 0.11448 0.76924 0.0
H875 H 0.99288 0.08041 0.7232 0.0
H876 H 0.31242 0.03909 0.15367 0.0
H877 H 0.34274 0.03976 0.07818 0.0
H878 H 0.3165 1.0 0.91556 0.0
H879 H 0.28592 0.99931 0.99165 0.0
H880 H 0.36474 1.00468 0.05232 0.0
H881 H 0.34503 0.0415 0.77863 0.0
H882 H 0.33032 0.04429 0.86391 0.0
H883 H 0.32915 0.0218 0.81021 0.0
C884 C 0.31287 0.03095 0.10058 0.0
C885 C 0.29668 0.01924 0.07849 0.0
C886 C 0.33029 0.03125 0.05763 0.0
C887 C 0.33204 0.01994 0.99098 0.0
C888 C 0.31551 1.00908 0.96615 0.0
H889 H 0.4366 1.00008 0.70084 0.0
H890 H 0.40306 1.00071 0.7532 0.0
C891 C 0.29796 1.00876 0.00945 0.0
C892 C 0.35178 0.01815 0.9529 0.0
H893 H 0.37751 0.02916 0.79005 0.0
C894 C 0.36751 1.01005 0.99492 0.0
C895 C 0.35542 0.02483 0.87757 0.0
C896 C 0.33918 0.03372 0.82975 0.0
C897 C 0.38667 1.00854 0.96431 0.0
C898 C 0.39059 0.01597 0.89005 0.0
C899 C 0.37472 0.02364 0.84717 0.0
C900 C 0.41104 0.01611 0.85674 0.0
C901 C 0.40241 0.99855 0.01168 0.0
C902 C 0.42686 0.02489 0.89622 0.0
C903 C 0.44612 0.02435 0.86679 0.0
C904 C 0.4501 0.01537 0.79615 0.0
C905 C 0.43416 1.00715 0.75538 0.0
C906 C 0.4149 1.0075 0.78532 0.0
H907 H 0.39586 0.98811 0.05369 0.0
H908 H 0.41297 0.99029 0.97539 0.0
H909 H 0.41069 1.00989 0.04414 0.0
H910 H 0.42433 0.0322 0.95018 0.0
H911 H 0.45791 0.03104 0.89949 0.0
H912 H 0.52505 0.28655 0.98083 0.0
H913 H 0.52498 0.31775 0.90746 0.0
H914 H 0.48161 0.34173 0.06109 0.0
H915 H 0.48164 0.31083 0.13383 0.0
H916 H 0.49272 0.34321 0.83691 0.0
H917 H 0.53127 0.37852 0.08024 0.0
H918 H 0.53019 0.35205 0.06839 0.0
H919 H 0.50925 0.3652 0.10532 0.0
C920 C 0.51504 0.29825 0.99727 0.0
C921 C 0.50331 0.29616 0.06308 0.0
C922 C 0.51512 0.31616 0.9557 0.0
C923 C 0.50355 0.3323 0.97945 0.0
C924 C 0.49088 0.32968 0.04206 0.0
H925 H 0.49042 0.45798 0.8983 0.0
H926 H 0.48998 0.42378 0.94352 0.0
C927 C 0.49079 0.31191 0.08331 0.0
C928 C 0.50553 0.35234 0.94332 0.0
H929 H 0.5192 0.39987 0.98365 0.0
C930 C 0.49868 0.35558 0.86861 0.0
C931 C 0.5133 0.36856 0.98449 0.0
C932 C 0.5216 0.36598 0.06382 0.0
C933 C 0.49862 0.37468 0.83542 0.0
C934 C 0.50606 0.39101 0.87729 0.0
C935 C 0.51337 0.38756 0.95129 0.0
C936 C 0.50592 0.41187 0.84707 0.0
C937 C 0.4897 0.37731 0.75719 0.0
C938 C 0.51514 0.41692 0.77773 0.0
C939 C 0.51527 0.43658 0.75128 0.0
C940 C 0.50643 0.45183 0.79398 0.0
C941 C 0.49738 0.44675 0.86365 0.0
C942 C 0.49713 0.4271 0.88972 0.0
H943 H 0.4804 0.36449 0.74074 0.0
H944 H 0.48056 0.39091 0.75457 0.0
H945 H 0.50168 0.37874 0.71448 0.0
H946 H 0.52257 0.40573 0.74444 0.0
H947 H 0.52254 0.43984 0.69769 0.0
H948 H 0.23583 0.52646 0.96836 0.0
H949 H 0.20464 0.5256 0.89572 0.0
H950 H 0.17714 0.49307 0.0787 0.0
H951 H 0.208 0.49391 0.15087 0.0
H952 H 0.17755 0.49427 0.8466 0.0
H953 H 0.14335 0.54372 0.0603 0.0
H954 H 0.1697 0.54009 0.05412 0.0
H955 H 0.15443 0.522 0.10081 0.0
C956 C 0.22327 0.51869 0.99209 0.0
C957 C 0.22441 0.51037 0.06573 0.0
C958 C 0.20538 0.51833 0.95078 0.0
C959 C 0.18831 0.50967 0.98238 0.0
C960 C 0.18989 0.50023 0.05358 0.0
H961 H 0.06292 0.49898 0.898 0.0
H962 H 0.09683 0.49885 0.94551 0.0
C963 C 0.20763 0.50061 0.09466 0.0
C964 C 0.16856 0.51129 0.9439 0.0
H965 H 0.12165 0.52871 0.97134 0.0
C966 C 0.16536 0.50195 0.87344 0.0
C967 C 0.15258 0.52136 0.97855 0.0
C968 C 0.15515 0.53253 0.05225 0.0
C969 C 0.14651 0.5017 0.83861 0.0
C970 C 0.13039 0.51139 0.87433 0.0
C971 C 0.13381 0.52114 0.94382 0.0
C972 C 0.10973 0.51108 0.84276 0.0
C973 C 0.1439 0.49037 0.76536 0.0
C974 C 0.10534 0.51812 0.76893 0.0
C975 C 0.08582 0.51809 0.74123 0.0
C976 C 0.07011 0.51124 0.78695 0.0
C977 C 0.07454 0.50437 0.86093 0.0
C978 C 0.09401 0.5043 0.88834 0.0
H979 H 0.15602 0.47957 0.75643 0.0
H980 H 0.12962 0.48231 0.76486 0.0
H981 H 0.144 0.50086 0.71662 0.0
H982 H 0.11697 0.52394 0.73295 0.0
H983 H 0.08304 0.52363 0.6842 0.0
H984 H 0.98345 0.79648 0.34989 0.0
H985 H 0.97963 0.82832 0.41609 0.0
H986 H 0.04249 0.83081 0.45233 0.0
H987 H 0.04635 0.79922 0.38681 0.0
H988 H 0.9919 0.84382 0.56563 0.0
H989 H 0.02997 0.88111 0.32485 0.0
H990 H 0.02038 0.8563 0.31795 0.0
H991 H 0.04341 0.8608 0.36579 0.0
C992 C 0.99636 0.80356 0.37391 0.0
C993 C 0.01522 0.79531 0.36264 0.0
C994 C 0.9942 0.82185 0.41126 0.0
C995 C 1.01083 0.83226 0.43785 0.0
C996 C 0.02946 0.82335 0.43112 0.0
H997 H 0.0209 0.93784 0.72267 0.0
H998 H 0.02051 0.90419 0.67237 0.0
C999 C 0.03162 0.80518 0.39401 0.0
C1000 C 1.0091 0.85285 0.4685 0.0
H1001 H 0.02393 0.90046 0.43481 0.0
C1002 C 0.99882 0.85622 0.53688 0.0
C1003 C 0.0179 0.86918 0.43075 0.0
C1004 C 0.0284 0.86679 0.35541 0.0
C1005 C 0.99756 0.87528 0.56926 0.0
C1006 C 1.00698 0.89149 0.53279 0.0
C1007 C 0.01682 0.88814 0.46344 0.0
C1008 C 1.00677 0.91205 0.56497 0.0
C1009 C 0.9859 0.87789 0.64178 0.0
C1010 C 0.99964 0.928 0.52127 0.0
C1011 C 0.99995 0.94736 0.55004 0.0
C1012 C 1.00751 0.95137 0.62328 0.0
C1013 C 0.01476 0.93538 0.66666 0.0
C1014 C 0.01444 0.91603 0.63793 0.0
H1015 H 0.97515 0.86569 0.65034 0.0
H1016 H 0.99618 0.87787 0.6911 0.0
H1017 H 0.97777 0.89213 0.6415 0.0
H1018 H 0.99376 0.92548 0.46466 0.0
H1019 H 0.99427 0.9592 0.51459 0.0
H1020 H 0.72114 0.03646 0.36521 0.0
H1021 H 0.69071 0.0367 0.44056 0.0
H1022 H 0.69268 0.97315 0.45574 0.0
H1023 H 0.72346 0.97302 0.38154 0.0
H1024 H 0.65679 0.02143 0.39494 0.0
H1025 H 0.67614 0.98647 0.6709 0.0
H1026 H 0.69459 0.9955 0.60522 0.0
H1027 H 0.68319 0.97183 0.59021 0.0
C1028 C 0.7155 0.02261 0.38735 0.0
C1029 C 0.72496 1.00476 0.36894 0.0
C1030 C 0.69795 0.02272 0.42979 0.0
C1031 C 0.68925 1.00496 0.4547 0.0
C1032 C 0.69917 0.98712 0.43908 0.0
H1033 H 0.56201 0.99203 0.53001 0.0
H1034 H 0.59581 0.99135 0.48088 0.0
C1035 C 0.71685 0.98703 0.39681 0.0
C1036 C 0.66898 1.00515 0.48962 0.0
H1037 H 0.64176 0.98961 0.64333 0.0
C1038 C 0.65359 0.01453 0.44948 0.0
C1039 C 0.66462 0.99641 0.56132 0.0
C1040 C 0.68053 0.98716 0.60988 0.0
C1041 C 0.63415 0.01516 0.47797 0.0
C1042 C 0.62958 1.00568 0.54805 0.0
C1043 C 0.64503 0.99664 0.58912 0.0
C1044 C 0.60896 1.00522 0.57975 0.0
C1045 C 0.61878 0.02643 0.43316 0.0
C1046 C 0.60493 0.01253 0.65315 0.0
C1047 C 0.58556 0.01268 0.68192 0.0
C1048 C 0.56965 1.0055 0.63809 0.0
C1049 C 0.57378 0.99784 0.56525 0.0
C1050 C 0.59317 0.99756 0.53678 0.0
H1051 H 0.62563 0.0376 0.39487 0.0
H1052 H 0.61036 0.01597 0.39699 0.0
H1053 H 0.60825 0.03407 0.47158 0.0
H1054 H 0.61674 0.01849 0.68784 0.0
H1055 H 0.58303 0.01875 0.73818 0.0
H1056 H 0.48183 0.7187 0.32574 0.0
H1057 H 0.4823 0.6871 0.39249 0.0
H1058 H 0.53634 0.70363 0.50542 0.0
H1059 H 0.53631 0.73527 0.43583 0.0
H1060 H 0.53964 0.66725 0.45094 0.0
H1061 H 0.46878 0.67061 0.6043 0.0
H1062 H 0.46503 0.67485 0.50437 0.0
H1063 H 0.47952 0.69205 0.55927 0.0
C1064 C 0.49372 0.7158 0.36553 0.0
C1065 C 0.50907 0.72965 0.37498 0.0
C1066 C 0.49388 0.69766 0.40444 0.0
C1067 C 0.50921 0.69282 0.45519 0.0
C1068 C 0.52425 0.7069 0.46694 0.0
H1069 H 0.50112 0.5836 0.7288 0.0
H1070 H 0.5011 0.61788 0.68408 0.0
C1071 C 0.52413 0.72514 0.42767 0.0
C1072 C 0.51011 0.67258 0.49116 0.0
H1073 H 0.48226 0.63807 0.58573 0.0
C1074 C 0.52714 0.66098 0.48111 0.0
C1075 C 0.49404 0.66427 0.53208 0.0
C1076 C 0.47592 0.67619 0.55139 0.0
C1077 C 0.52827 0.64132 0.50805 0.0
C1078 C 0.51167 0.63254 0.54418 0.0
C1079 C 0.49492 0.6444 0.55676 0.0
C1080 C 0.51144 0.61129 0.57045 0.0
C1081 C 0.5475 0.63035 0.49865 0.0
C1082 C 0.51644 0.59573 0.52088 0.0
C1083 C 0.51629 0.57597 0.54617 0.0
C1084 C 0.51102 0.57114 0.62171 0.0
C1085 C 0.50559 0.58667 0.67071 0.0
C1086 C 0.50562 0.60638 0.64519 0.0
H1087 H 0.56018 0.6407 0.49434 0.0
H1088 H 0.55021 0.6201 0.5471 0.0
H1089 H 0.547 0.62166 0.44513 0.0
H1090 H 0.52026 0.59879 0.46209 0.0
H1091 H 0.52032 0.56447 0.50632 0.0
H1092 H 0.80709 0.48614 0.30486 0.0
H1093 H 0.83722 0.48674 0.38075 0.0
H1094 H 0.81939 0.5421 0.48008 0.0
H1095 H 0.78915 0.54177 0.4016 0.0
H1096 H 0.85693 0.54413 0.43198 0.0
H1097 H 0.84954 0.47534 0.59876 0.0
H1098 H 0.84667 0.47059 0.49902 0.0
H1099 H 0.82911 0.4861 0.54762 0.0
C1100 C 0.80932 0.49825 0.34416 0.0
C1101 C 0.7956 0.51387 0.34731 0.0
C1102 C 0.8266 0.49853 0.38805 0.0
C1103 C 0.83068 0.51432 0.43743 0.0
C1104 C 0.81665 0.52966 0.44291 0.0
H1105 H 0.93789 0.50819 0.72573 0.0
H1106 H 0.90356 0.50958 0.68175 0.0
C1107 C 0.79923 0.52938 0.39863 0.0
C1108 C 0.85027 0.51536 0.47785 0.0
H1109 H 0.88284 0.4879 0.5839 0.0
C1110 C 0.86244 0.53192 0.46608 0.0
C1111 C 0.8576 0.49964 0.5236 0.0
C1112 C 0.84495 0.48204 0.54368 0.0
C1113 C 0.88183 0.53282 0.49557 0.0
C1114 C 0.88965 0.5165 0.53671 0.0
C1115 C 0.87716 0.50032 0.55148 0.0
C1116 C 0.91075 0.51582 0.56383 0.0
C1117 C 0.89365 0.55142 0.48261 0.0
C1118 C 0.92651 0.5186 0.51254 0.0
C1119 C 0.94621 0.51803 0.53774 0.0
C1120 C 0.95079 0.51438 0.61489 0.0
C1121 C 0.93503 0.51116 0.66597 0.0
C1122 C 0.91531 0.51189 0.64078 0.0
H1123 H 0.88387 0.5644 0.47373 0.0
H1124 H 0.9036 0.5545 0.53149 0.0
H1125 H 0.90277 0.54967 0.4305 0.0
H1126 H 0.92361 0.52105 0.45251 0.0
H1127 H 0.95786 0.52036 0.49641 0.0
loop_
_geom_bond_atom_site_label_1
_geom_bond_atom_site_label_2
_geom_bond_distance
_geom_bond_site_symmetry_2
_ccdc_geom_bond_type
H0 C7 0.929 . S
H1 C10 0.930 . S
H2 C12 0.929 . S
H3 C4 0.969 . S
C4 H3 0.969 . S
C4 O5 1.550 . S
C4 H6 0.973 . S
O5 C4 1.550 . S
O5 C11 1.412 . S
H6 C4 0.973 . S
C7 H0 0.929 . S
C7 C8 1.400 . S
C7 C9 1.364 . S
C8 C7 1.400 . S
C8 C12 1.377 . S
C9 C7 1.364 . S
C9 C10 1.374 . S
C10 H1 0.930 . S
C10 C9 1.374 . S
C10 C11 1.383 . S
C11 O5 1.412 . S
C11 C10 1.383 . S
C11 C12 1.394 . S
C12 H2 0.929 . S
C12 C8 1.377 . S
C12 C11 1.394 . S
H13 C20 0.928 . S
H14 C23 0.930 . S
H15 C25 0.928 1_655 S
H16 C17 0.969 . S
C17 H16 0.969 . S
C17 O18 1.550 1_455 S
C17 H19 0.973 1_455 S
O18 C17 1.550 1_655 S
O18 C24 1.406 1_655 S
H19 C17 0.973 1_655 S
C20 H13 0.928 . S
C20 C21 1.400 1_655 S
C20 C22 1.364 1_655 S
C21 C20 1.400 1_455 S
C21 C25 1.377 . S
C22 C20 1.364 1_455 S
C22 C23 1.374 1_455 S
C23 H14 0.930 . S
C23 C22 1.374 1_655 S
C23 C24 1.382 1_655 S
C24 O18 1.406 1_455 S
C24 C23 1.382 1_455 S
C24 C25 1.394 . S
C25 H15 0.928 1_455 S
C25 C21 1.377 . S
C25 C24 1.394 . S
H26 C33 0.928 . S
H27 C36 0.930 . S
H28 C38 0.928 1_565 S
H29 C30 0.969 . S
C30 H29 0.969 . S
C30 O31 1.550 1_545 S
C30 H32 0.973 1_545 S
O31 C30 1.550 1_565 S
O31 C37 1.406 1_565 S
H32 C30 0.973 1_565 S
C33 H26 0.928 . S
C33 C34 1.400 1_565 S
C33 C35 1.364 1_565 S
C34 C33 1.400 1_545 S
C34 C38 1.377 . S
C35 C33 1.364 1_545 S
C35 C36 1.374 1_545 S
C36 H27 0.930 . S
C36 C35 1.374 1_565 S
C36 C37 1.382 1_565 S
C37 O31 1.406 1_545 S
C37 C36 1.382 1_545 S
C37 C38 1.394 . S
C38 H28 0.928 1_545 S
C38 C34 1.377 . S
C38 C37 1.394 . S
H39 C46 0.929 . S
H40 C49 0.930 . S
H41 C51 0.929 . S
H42 C43 0.969 . S
C43 H42 0.969 . S
C43 O44 1.550 . S
C43 H45 0.973 . S
O44 C43 1.550 . S
O44 C50 1.412 . S
H45 C43 0.973 . S
C46 H39 0.929 . S
C46 C47 1.400 . S
C46 C48 1.364 . S
C47 C46 1.400 . S
C47 C51 1.377 . S
C48 C46 1.364 . S
C48 C49 1.374 . S
C49 H40 0.930 . S
C49 C48 1.374 . S
C49 C50 1.383 . S
C50 O44 1.412 . S
C50 C49 1.383 . S
C50 C51 1.394 . S
C51 H41 0.929 . S
C51 C47 1.377 . S
C51 C50 1.394 . S
H52 C59 0.929 . S
H53 C62 0.930 . S
H54 C64 0.929 . S
H55 C56 0.969 . S
C56 H55 0.969 . S
C56 O57 1.550 . S
C56 H58 0.973 . S
O57 C56 1.550 . S
O57 C63 1.412 . S
H58 C56 0.973 . S
C59 H52 0.929 . S
C59 C60 1.400 1_554 S
C59 C61 1.364 . S
C60 C59 1.400 1_556 S
C60 C64 1.377 . S
C61 C59 1.364 . S
C61 C62 1.374 . S
C62 H53 0.930 . S
C62 C61 1.374 . S
C62 C63 1.383 . S
C63 O57 1.412 . S
C63 C62 1.383 . S
C63 C64 1.394 1_554 S
C64 H54 0.929 . S
C64 C60 1.377 . S
C64 C63 1.394 1_556 S
H65 C72 0.929 1_655 S
H66 C75 0.930 . S
H67 C77 0.928 1_655 S
H68 C69 0.969 . S
C69 H68 0.969 . S
C69 O70 1.550 1_455 S
C69 H71 0.973 1_455 S
O70 C69 1.550 1_655 S
O70 C76 1.402 1_655 S
H71 C69 0.973 1_655 S
C72 H65 0.929 1_455 S
C72 C73 1.400 1_554 S
C72 C74 1.364 . S
C73 C72 1.400 1_556 S
C73 C77 1.377 . S
C74 C72 1.364 . S
C74 C75 1.374 1_455 S
C75 H66 0.930 . S
C75 C74 1.374 1_655 S
C75 C76 1.382 1_655 S
C76 O70 1.402 1_455 S
C76 C75 1.382 1_455 S
C76 C77 1.394 1_554 S
C77 H67 0.928 1_455 S
C77 C73 1.377 . S
C77 C76 1.394 1_556 S
H78 C85 0.929 1_565 S
H79 C88 0.930 . S
H80 C90 0.928 1_565 S
H81 C82 0.969 . S
C82 H81 0.969 . S
C82 O83 1.550 1_545 S
C82 H84 0.973 1_545 S
O83 C82 1.550 1_565 S
O83 C89 1.402 1_565 S
H84 C82 0.973 1_565 S
C85 H78 0.929 1_545 S
C85 C86 1.400 1_554 S
C85 C87 1.364 . S
C86 C85 1.400 1_556 S
C86 C90 1.377 . S
C87 C85 1.364 . S
C87 C88 1.374 1_545 S
C88 H79 0.930 . S
C88 C87 1.374 1_565 S
C88 C89 1.382 1_565 S
C89 O83 1.402 1_545 S
C89 C88 1.382 1_545 S
C89 C90 1.394 1_554 S
C90 H80 0.928 1_545 S
C90 C86 1.377 . S
C90 C89 1.394 1_556 S
H91 C98 0.929 . S
H92 C101 0.930 . S
H93 C103 0.929 . S
H94 C95 0.969 . S
C95 H94 0.969 . S
C95 O96 1.550 . S
C95 H97 0.973 . S
O96 C95 1.550 . S
O96 C102 1.412 . S
H97 C95 0.973 . S
C98 H91 0.929 . S
C98 C99 1.400 1_554 S
C98 C100 1.364 . S
C99 C98 1.400 1_556 S
C99 C103 1.377 . S
C100 C98 1.364 . S
C100 C101 1.374 . S
C101 H92 0.930 . S
C101 C100 1.374 . S
C101 C102 1.383 . S
C102 O96 1.412 . S
C102 C101 1.383 . S
C102 C103 1.394 1_554 S
C103 H93 0.929 . S
C103 C99 1.377 . S
C103 C102 1.394 1_556 S
Tb104 C106 2.809 . S
Tb104 O124 2.479 1_455 S
Tb104 O125 2.440 . S
Tb104 O126 2.658 1_565 S
Tb104 O127 2.409 . S
Tb104 O128 2.378 . S
Tb104 O132 2.325 1_455 S
Tb104 O135 2.341 1_565 S
Tb105 C115 2.809 . S
Tb105 O126 2.325 1_655 S
Tb105 O129 2.341 1_545 S
Tb105 O130 2.474 1_655 S
Tb105 O131 2.440 . S
Tb105 O132 2.658 1_545 S
Tb105 O133 2.409 . S
Tb105 O134 2.378 . S
C106 Tb104 2.809 . S
C106 C107 1.514 . S
C106 O124 1.237 1_455 S
C106 O125 1.266 . S
C107 C106 1.514 . S
C107 C108 1.359 . S
C107 C112 1.348 . S
C108 C107 1.359 . S
C108 C109 1.380 . S
C108 H136 0.929 1_455 S
C109 C108 1.380 . S
C109 C110 1.347 . S
C109 H137 0.931 1_455 S
C110 C109 1.347 . S
C110 C111 1.369 . S
C111 C110 1.369 . S
C111 C112 1.408 . S
C111 H138 0.930 . S
C112 C107 1.348 . S
C112 C111 1.408 . S
C112 H139 0.930 . S
C113 O126 1.263 1_565 S
C113 O127 1.280 . S
C114 O128 1.236 1_655 S
C114 O129 1.266 . S
C115 Tb105 2.809 . S
C115 C116 1.514 . S
C115 O130 1.225 1_655 S
C115 O131 1.266 . S
C116 C115 1.514 . S
C116 C117 1.359 . S
C116 C121 1.348 . S
C117 C116 1.359 . S
C117 C118 1.380 . S
C117 H140 0.929 1_655 S
C118 C117 1.380 . S
C118 C119 1.347 . S
C118 H141 0.931 1_655 S
C119 C118 1.347 . S
C119 C120 1.369 . S
C120 C119 1.369 . S
C120 C121 1.408 . S
C120 H142 0.930 . S
C121 C116 1.348 . S
C121 C120 1.408 . S
C121 H143 0.930 . S
C122 O132 1.281 1_545 S
C122 O133 1.254 . S
C123 O134 1.236 1_455 S
C123 O135 1.266 . S
O124 Tb104 2.479 1_655 S
O124 C106 1.237 1_655 S
O125 Tb104 2.440 . S
O125 C106 1.266 . S
O126 Tb104 2.658 1_545 S
O126 Tb105 2.325 1_455 S
O126 C113 1.263 1_545 S
O127 Tb104 2.409 . S
O127 C113 1.280 . S
O128 Tb104 2.378 . S
O128 C114 1.236 1_455 S
O129 Tb105 2.341 1_565 S
O129 C114 1.266 . S
O130 Tb105 2.474 1_455 S
O130 C115 1.225 1_455 S
O131 Tb105 2.440 . S
O131 C115 1.266 . S
O132 Tb104 2.325 1_655 S
O132 Tb105 2.658 1_565 S
O132 C122 1.281 1_565 S
O133 Tb105 2.409 . S
O133 C122 1.254 . S
O134 Tb105 2.378 . S
O134 C123 1.236 1_655 S
O135 Tb104 2.341 1_545 S
O135 C123 1.266 . S
H136 C108 0.929 1_655 S
H137 C109 0.931 1_655 S
H138 C111 0.930 . S
H139 C112 0.930 . S
H140 C117 0.929 1_455 S
H141 C118 0.931 1_455 S
H142 C120 0.930 . S
H143 C121 0.930 . S
Tb144 C146 2.809 . S
Tb144 O164 2.476 1_545 S
Tb144 O165 2.440 . S
Tb144 O166 2.658 . S
Tb144 O167 2.409 . S
Tb144 O168 2.378 . S
Tb144 O172 2.325 1_545 S
Tb144 O175 2.341 . S
Tb145 C155 2.809 . S
Tb145 O166 2.325 1_565 S
Tb145 O169 2.341 . S
Tb145 O170 2.471 1_565 S
Tb145 O171 2.440 . S
Tb145 O172 2.658 . S
Tb145 O173 2.409 . S
Tb145 O174 2.378 . S
C146 Tb144 2.809 . S
C146 C147 1.514 . S
C146 O164 1.229 1_545 S
C146 O165 1.266 . S
C147 C146 1.514 . S
C147 C148 1.359 . S
C147 C152 1.348 . S
C148 C147 1.359 . S
C148 C149 1.380 . S
C148 H176 0.929 1_545 S
C149 C148 1.380 . S
C149 C150 1.347 . S
C149 H177 0.931 1_545 S
C150 C149 1.347 . S
C150 C151 1.369 . S
C151 C150 1.369 . S
C151 C152 1.408 . S
C151 H178 0.930 . S
C152 C147 1.348 . S
C152 C151 1.408 . S
C152 H179 0.930 . S
C153 O166 1.281 . S
C153 O167 1.254 . S
C154 O168 1.236 1_565 S
C154 O169 1.266 . S
C155 Tb145 2.809 . S
C155 C156 1.514 . S
C155 O170 1.217 1_565 S
C155 O171 1.266 . S
C156 C155 1.514 . S
C156 C157 1.359 . S
C156 C161 1.348 . S
C157 C156 1.359 . S
C157 C158 1.380 . S
C157 H180 0.929 1_565 S
C158 C157 1.380 . S
C158 C159 1.347 . S
C158 H181 0.931 1_565 S
C159 C158 1.347 . S
C159 C160 1.369 . S
C160 C159 1.369 . S
C160 C161 1.408 . S
C160 H182 0.930 . S
C161 C156 1.348 . S
C161 C160 1.408 . S
C161 H183 0.930 . S
C162 O172 1.281 . S
C162 O173 1.254 . S
C163 O174 1.236 1_545 S
C163 O175 1.266 . S
O164 Tb144 2.476 1_565 S
O164 C146 1.229 1_565 S
O165 Tb144 2.440 . S
O165 C146 1.266 . S
O166 Tb144 2.658 . S
O166 Tb145 2.325 1_545 S
O166 C153 1.281 . S
O167 Tb144 2.409 . S
O167 C153 1.254 . S
O168 Tb144 2.378 . S
O168 C154 1.236 1_545 S
O169 Tb145 2.341 . S
O169 C154 1.266 . S
O170 Tb145 2.471 1_545 S
O170 C155 1.217 1_545 S
O171 Tb145 2.440 . S
O171 C155 1.266 . S
O172 Tb144 2.325 1_565 S
O172 Tb145 2.658 . S
O172 C162 1.281 . S
O173 Tb145 2.409 . S
O173 C162 1.254 . S
O174 Tb145 2.378 . S
O174 C163 1.236 1_565 S
O175 Tb144 2.341 . S
O175 C163 1.266 . S
H176 C148 0.929 1_565 S
H177 C149 0.931 1_565 S
H178 C151 0.930 . S
H179 C152 0.930 . S
H180 C157 0.929 1_545 S
H181 C158 0.931 1_545 S
H182 C160 0.930 . S
H183 C161 0.930 . S
Tb184 C186 2.809 . S
Tb184 O204 2.484 . S
Tb184 O205 2.440 . S
Tb184 O206 2.658 . S
Tb184 O207 2.409 . S
Tb184 O208 2.378 . S
Tb184 O212 2.325 . S
Tb184 O215 2.341 . S
Tb185 C195 2.809 . S
Tb185 O206 2.325 . S
Tb185 O209 2.341 . S
Tb185 O210 2.484 . S
Tb185 O211 2.440 . S
Tb185 O212 2.658 . S
Tb185 O213 2.409 . S
Tb185 O214 2.378 . S
C186 Tb184 2.809 . S
C186 C187 1.514 . S
C186 O204 1.248 . S
C186 O205 1.266 . S
C187 C186 1.514 . S
C187 C188 1.359 . S
C187 C192 1.348 . S
C188 C187 1.359 . S
C188 C189 1.380 . S
C188 H216 0.929 . S
C189 C188 1.380 . S
C189 C190 1.347 . S
C189 H217 0.931 . S
C190 C189 1.347 . S
C190 C191 1.369 . S
C191 C190 1.369 . S
C191 C192 1.408 . S
C191 H218 0.930 . S
C192 C187 1.348 . S
C192 C191 1.408 . S
C192 H219 0.930 . S
C193 O206 1.281 . S
C193 O207 1.254 . S
C194 O208 1.236 . S
C194 O209 1.266 . S
C195 Tb185 2.809 . S
C195 C196 1.514 . S
C195 O210 1.248 . S
C195 O211 1.266 . S
C196 C195 1.514 . S
C196 C197 1.359 . S
C196 C201 1.348 . S
C197 C196 1.359 . S
C197 C198 1.380 . S
C197 H220 0.929 . S
C198 C197 1.380 . S
C198 C199 1.347 . S
C198 H221 0.931 . S
C199 C198 1.347 . S
C199 C200 1.369 . S
C200 C199 1.369 . S
C200 C201 1.408 . S
C200 H222 0.930 . S
C201 C196 1.348 . S
C201 C200 1.408 . S
C201 H223 0.930 . S
C202 O212 1.281 . S
C202 O213 1.254 . S
C203 O214 1.236 . S
C203 O215 1.266 . S
O204 Tb184 2.484 . S
O204 C186 1.248 . S
O205 Tb184 2.440 . S
O205 C186 1.266 . S
O206 Tb184 2.658 . S
O206 Tb185 2.325 . S
O206 C193 1.281 . S
O207 Tb184 2.409 . S
O207 C193 1.254 . S
O208 Tb184 2.378 . S
O208 C194 1.236 . S
O209 Tb185 2.341 . S
O209 C194 1.266 . S
O210 Tb185 2.484 . S
O210 C195 1.248 . S
O211 Tb185 2.440 . S
O211 C195 1.266 . S
O212 Tb184 2.325 . S
O212 Tb185 2.658 . S
O212 C202 1.281 . S
O213 Tb185 2.409 . S
O213 C202 1.254 . S
O214 Tb185 2.378 . S
O214 C203 1.236 . S
O215 Tb184 2.341 . S
O215 C203 1.266 . S
H216 C188 0.929 . S
H217 C189 0.931 . S
H218 C191 0.930 . S
H219 C192 0.930 . S
H220 C197 0.929 . S
H221 C198 0.931 . S
H222 C200 0.930 . S
H223 C201 0.930 . S
Tb224 C226 2.809 . S
Tb224 O244 2.484 . S
Tb224 O245 2.440 . S
Tb224 O246 2.658 1_655 S
Tb224 O247 2.409 . S
Tb224 O248 2.378 . S
Tb224 O252 2.325 . S
Tb224 O255 2.341 1_655 S
Tb225 C235 2.809 . S
Tb225 O246 2.325 . S
Tb225 O249 2.341 1_455 S
Tb225 O250 2.484 . S
Tb225 O251 2.440 . S
Tb225 O252 2.658 1_455 S
Tb225 O253 2.409 . S
Tb225 O254 2.378 . S
C226 Tb224 2.809 . S
C226 C227 1.514 . S
C226 O244 1.248 . S
C226 O245 1.266 . S
C227 C226 1.514 . S
C227 C228 1.359 . S
C227 C232 1.348 . S
C228 C227 1.359 . S
C228 C229 1.380 . S
C228 H256 0.929 . S
C229 C228 1.380 . S
C229 C230 1.347 . S
C229 H257 0.931 . S
C230 C229 1.347 . S
C230 C231 1.369 . S
C231 C230 1.369 . S
C231 C232 1.408 . S
C231 H258 0.930 . S
C232 C227 1.348 . S
C232 C231 1.408 . S
C232 H259 0.930 . S
C233 O246 1.269 1_655 S
C233 O247 1.271 . S
C234 O248 1.236 . S
C234 O249 1.266 . S
C235 Tb225 2.809 . S
C235 C236 1.514 . S
C235 O250 1.248 . S
C235 O251 1.266 . S
C236 C235 1.514 . S
C236 C237 1.359 . S
C236 C241 1.348 . S
C237 C236 1.359 . S
C237 C238 1.380 . S
C237 H260 0.929 . S
C238 C237 1.380 . S
C238 C239 1.347 . S
C238 H261 0.931 . S
C239 C238 1.347 . S
C239 C240 1.369 . S
C240 C239 1.369 . S
C240 C241 1.408 . S
C240 H262 0.930 . S
C241 C236 1.348 . S
C241 C240 1.408 . S
C241 H263 0.930 . S
C242 O252 1.265 1_455 S
C242 O253 1.277 . S
C243 O254 1.236 . S
C243 O255 1.266 . S
O244 Tb224 2.484 . S
O244 C226 1.248 . S
O245 Tb224 2.440 . S
O245 C226 1.266 . S
O246 Tb224 2.658 1_455 S
O246 Tb225 2.325 . S
O246 C233 1.269 1_455 S
O247 Tb224 2.409 . S
O247 C233 1.271 . S
O248 Tb224 2.378 . S
O248 C234 1.236 . S
O249 Tb225 2.341 1_655 S
O249 C234 1.266 . S
O250 Tb225 2.484 . S
O250 C235 1.248 . S
O251 Tb225 2.440 . S
O251 C235 1.266 . S
O252 Tb224 2.325 . S
O252 Tb225 2.658 1_655 S
O252 C242 1.265 1_655 S
O253 Tb225 2.409 . S
O253 C242 1.277 . S
O254 Tb225 2.378 . S
O254 C243 1.236 . S
O255 Tb224 2.341 1_455 S
O255 C243 1.266 . S
H256 C228 0.929 . S
H257 C229 0.931 . S
H258 C231 0.930 . S
H259 C232 0.930 . S
H260 C237 0.929 . S
H261 C238 0.931 . S
H262 C240 0.930 . S
H263 C241 0.930 . S
H264 C272 0.929 . S
H265 C274 0.934 . S
H266 C276 0.930 . S
H267 C279 0.934 . S
H268 C282 0.930 . S
H269 C284 0.960 . S
H270 C284 0.960 . S
H271 C284 0.960 . S
C272 H264 0.929 . S
C272 C273 1.376 1_545 S
C272 C274 1.384 . S
C273 C272 1.376 1_565 S
C273 C279 1.388 . S
C274 H265 0.934 . S
C274 C272 1.384 . S
C274 C275 1.371 . S
C275 C274 1.371 . S
C275 C276 1.400 1_545 S
C275 C280 1.489 . S
C276 H266 0.930 . S
C276 C275 1.400 1_565 S
C276 C279 1.387 . S
H277 C293 0.930 . S
H278 C294 0.931 . S
C279 H267 0.934 . S
C279 C273 1.388 . S
C279 C276 1.387 . S
C280 C275 1.489 . S
C280 C282 1.431 . S
C280 C283 1.369 1_545 S
H281 C287 0.930 . S
C282 H268 0.930 . S
C282 C280 1.431 . S
C282 C285 1.403 . S
C283 C280 1.369 1_565 S
C283 C284 1.524 . S
C283 C287 1.400 . S
C284 H269 0.960 . S
C284 H270 0.960 . S
C284 H271 0.960 . S
C284 C283 1.524 . S
C285 C282 1.403 . S
C285 C286 1.392 . S
C285 C289 1.495 . S
C286 C285 1.392 . S
C286 C287 1.385 1_545 S
C286 C288 1.478 . S
C287 H281 0.930 . S
C287 C283 1.400 . S
C287 C286 1.385 1_565 S
C288 C286 1.478 . S
C288 C290 1.381 . S
C288 C294 1.383 . S
C289 C285 1.495 . S
C289 H295 0.959 . S
C289 H296 0.961 . S
C289 H297 0.960 . S
C290 C288 1.381 . S
C290 C291 1.394 . S
C290 H298 0.930 . S
C291 C290 1.394 . S
C291 C292 1.383 . S
C291 H299 0.929 . S
C292 C291 1.383 . S
C292 C293 1.377 . S
C293 H277 0.930 . S
C293 C292 1.377 . S
C293 C294 1.379 . S
C294 H278 0.931 . S
C294 C288 1.383 . S
C294 C293 1.379 . S
H295 C289 0.959 . S
H296 C289 0.961 . S
H297 C289 0.960 . S
H298 C290 0.930 . S
H299 C291 0.929 . S
H300 C308 0.929 . S
H301 C310 0.930 . S
H302 C312 0.930 . S
H303 C315 0.929 . S
H304 C318 0.930 . S
H305 C320 0.960 . S
H306 C320 0.960 . S
H307 C320 0.960 . S
C308 H300 0.929 . S
C308 C309 1.377 . S
C308 C310 1.384 . S
C309 C308 1.377 . S
C309 C315 1.390 . S
C310 H301 0.930 . S
C310 C308 1.384 . S
C310 C311 1.372 . S
C311 C310 1.372 . S
C311 C312 1.400 . S
C311 C316 1.490 . S
C312 H302 0.930 . S
C312 C311 1.400 . S
C312 C315 1.386 . S
H313 C329 0.930 . S
H314 C330 0.931 . S
C315 H303 0.929 . S
C315 C309 1.390 . S
C315 C312 1.386 . S
C316 C311 1.490 . S
C316 C318 1.395 . S
C316 C319 1.403 . S
H317 C323 0.930 . S
C318 H304 0.930 . S
C318 C316 1.395 . S
C318 C321 1.403 . S
C319 C316 1.403 . S
C319 C320 1.524 . S
C319 C323 1.400 . S
C320 H305 0.960 . S
C320 H306 0.960 . S
C320 H307 0.960 . S
C320 C319 1.524 . S
C321 C318 1.403 . S
C321 C322 1.392 . S
C321 C325 1.495 . S
C322 C321 1.392 . S
C322 C323 1.385 . S
C322 C324 1.478 . S
C323 H317 0.930 . S
C323 C319 1.400 . S
C323 C322 1.385 . S
C324 C322 1.478 . S
C324 C326 1.381 . S
C324 C330 1.383 . S
C325 C321 1.495 . S
C325 H331 0.959 . S
C325 H332 0.961 . S
C325 H333 0.960 . S
C326 C324 1.381 . S
C326 C327 1.394 . S
C326 H334 0.930 . S
C327 C326 1.394 . S
C327 C328 1.383 . S
C327 H335 0.929 . S
C328 C327 1.383 . S
C328 C329 1.377 . S
C329 H313 0.930 . S
C329 C328 1.377 . S
C329 C330 1.379 . S
C330 H314 0.931 . S
C330 C324 1.383 . S
C330 C329 1.379 . S
H331 C325 0.959 . S
H332 C325 0.961 . S
H333 C325 0.960 . S
H334 C326 0.930 . S
H335 C327 0.929 . S
H336 C344 0.929 . S
H337 C346 0.930 . S
H338 C348 0.930 . S
H339 C351 0.929 . S
H340 C354 0.930 . S
H341 C356 0.960 . S
H342 C356 0.960 . S
H343 C356 0.960 . S
C344 H336 0.929 . S
C344 C345 1.377 . S
C344 C346 1.384 . S
C345 C344 1.377 . S
C345 C351 1.390 . S
C346 H337 0.930 . S
C346 C344 1.384 . S
C346 C347 1.372 . S
C347 C346 1.372 . S
C347 C348 1.400 . S
C347 C352 1.490 . S
C348 H338 0.930 . S
C348 C347 1.400 . S
C348 C351 1.386 . S
H349 C365 0.930 . S
H350 C366 0.931 . S
C351 H339 0.929 . S
C351 C345 1.390 . S
C351 C348 1.386 . S
C352 C347 1.490 . S
C352 C354 1.395 . S
C352 C355 1.403 . S
H353 C359 0.930 . S
C354 H340 0.930 . S
C354 C352 1.395 . S
C354 C357 1.403 . S
C355 C352 1.403 . S
C355 C356 1.524 . S
C355 C359 1.400 . S
C356 H341 0.960 . S
C356 H342 0.960 . S
C356 H343 0.960 . S
C356 C355 1.524 . S
C357 C354 1.403 . S
C357 C358 1.392 . S
C357 C361 1.495 . S
C358 C357 1.392 . S
C358 C359 1.385 . S
C358 C360 1.478 . S
C359 H353 0.930 . S
C359 C355 1.400 . S
C359 C358 1.385 . S
C360 C358 1.478 . S
C360 C362 1.381 . S
C360 C366 1.383 . S
C361 C357 1.495 . S
C361 H367 0.959 . S
C361 H368 0.961 . S
C361 H369 0.960 . S
C362 C360 1.381 . S
C362 C363 1.394 . S
C362 H370 0.930 . S
C363 C362 1.394 . S
C363 C364 1.383 . S
C363 H371 0.929 . S
C364 C363 1.383 . S
C364 C365 1.377 . S
C365 H349 0.930 . S
C365 C364 1.377 . S
C365 C366 1.379 . S
C366 H350 0.931 . S
C366 C360 1.383 . S
C366 C365 1.379 . S
H367 C361 0.959 . S
H368 C361 0.961 . S
H369 C361 0.960 . S
H370 C362 0.930 . S
H371 C363 0.929 . S
H372 C380 0.929 . S
H373 C382 0.930 . S
H374 C384 0.930 . S
H375 C387 0.929 . S
H376 C390 0.930 . S
H377 C392 0.960 . S
H378 C392 0.960 . S
H379 C392 0.960 . S
C380 H372 0.929 . S
C380 C381 1.378 1_455 S
C380 C382 1.384 . S
C381 C380 1.378 1_655 S
C381 C387 1.389 . S
C382 H373 0.930 . S
C382 C380 1.384 . S
C382 C383 1.376 . S
C383 C382 1.376 . S
C383 C384 1.395 1_455 S
C383 C388 1.491 . S
C384 H374 0.930 . S
C384 C383 1.395 1_655 S
C384 C387 1.386 . S
H385 C401 0.927 1_655 S
H386 C402 0.932 . S
C387 H375 0.929 . S
C387 C381 1.389 . S
C387 C384 1.386 . S
C388 C383 1.491 . S
C388 C390 1.395 . S
C388 C391 1.403 1_455 S
H389 C395 0.930 . S
C390 H376 0.930 . S
C390 C388 1.395 . S
C390 C393 1.403 . S
C391 C388 1.403 1_655 S
C391 C392 1.524 . S
C391 C395 1.400 . S
C392 H377 0.960 . S
C392 H378 0.960 . S
C392 H379 0.960 . S
C392 C391 1.524 . S
C393 C390 1.403 . S
C393 C394 1.392 . S
C393 C397 1.495 . S
C394 C393 1.392 . S
C394 C395 1.385 1_455 S
C394 C396 1.478 . S
C395 H389 0.930 . S
C395 C391 1.400 . S
C395 C394 1.385 1_655 S
C396 C394 1.478 . S
C396 C398 1.381 . S
C396 C402 1.383 . S
C397 C393 1.495 . S
C397 H403 0.959 . S
C397 H404 0.961 . S
C397 H405 0.960 . S
C398 C396 1.381 . S
C398 C399 1.394 . S
C398 H406 0.930 . S
C399 C398 1.394 . S
C399 C400 1.383 . S
C399 H407 0.929 . S
C400 C399 1.383 . S
C400 C401 1.378 . S
C401 H385 0.927 1_455 S
C401 C400 1.378 . S
C401 C402 1.380 . S
C402 H386 0.932 . S
C402 C396 1.383 . S
C402 C401 1.380 . S
H403 C397 0.959 . S
H404 C397 0.961 . S
H405 C397 0.960 . S
H406 C398 0.930 . S
H407 C399 0.929 . S
H408 C416 0.929 . S
H409 C418 0.930 . S
H410 C420 0.930 . S
H411 C423 0.929 . S
H412 C426 0.930 . S
H413 C428 0.960 . S
H414 C428 0.960 1_565 S
H415 C428 0.960 . S
C416 H408 0.929 . S
C416 C417 1.383 . S
C416 C418 1.384 . S
C417 C416 1.383 . S
C417 C423 1.385 1_565 S
C418 H409 0.930 . S
C418 C416 1.384 . S
C418 C419 1.372 . S
C419 C418 1.372 . S
C419 C420 1.400 1_565 S
C419 C424 1.490 . S
C420 H410 0.930 . S
C420 C419 1.400 1_545 S
C420 C423 1.386 . S
H421 C437 0.930 . S
H422 C438 0.931 . S
C423 H411 0.929 . S
C423 C417 1.385 1_545 S
C423 C420 1.386 . S
C424 C419 1.490 . S
C424 C426 1.395 . S
C424 C427 1.403 1_565 S
H425 C431 0.930 . S
C426 H412 0.930 . S
C426 C424 1.395 . S
C426 C429 1.403 1_554 S
C427 C424 1.403 1_545 S
C427 C428 1.524 . S
C427 C431 1.400 . S
C428 H413 0.960 . S
C428 H414 0.960 1_545 S
C428 H415 0.960 . S
C428 C427 1.524 . S
C429 C426 1.403 1_556 S
C429 C430 1.392 . S
C429 C433 1.495 . S
C430 C429 1.392 . S
C430 C431 1.385 1_566 S
C430 C432 1.479 . S
C431 H425 0.930 . S
C431 C427 1.400 . S
C431 C430 1.385 1_544 S
C432 C430 1.479 . S
C432 C434 1.424 . S
C432 C438 1.339 1_565 S
C433 C429 1.495 . S
C433 H439 0.959 . S
C433 H440 0.961 1_565 S
C433 H441 0.960 . S
C434 C432 1.424 . S
C434 C435 1.394 . S
C434 H442 0.930 . S
C435 C434 1.394 . S
C435 C436 1.399 . S
C435 H443 0.929 . S
C436 C435 1.399 . S
C436 C437 1.361 1_565 S
C437 H421 0.930 . S
C437 C436 1.361 1_545 S
C437 C438 1.379 . S
C438 H422 0.931 . S
C438 C432 1.339 1_545 S
C438 C437 1.379 . S
H439 C433 0.959 . S
H440 C433 0.961 1_545 S
H441 C433 0.960 . S
H442 C434 0.930 . S
H443 C435 0.929 . S
H444 C452 0.929 . S
H445 C454 0.930 . S
H446 C456 0.930 . S
H447 C459 0.929 . S
H448 C462 0.930 . S
H449 C464 0.960 1_556 S
H450 C464 0.960 . S
H451 C464 0.960 . S
C452 H444 0.929 . S
C452 C453 1.377 . S
C452 C454 1.384 . S
C453 C452 1.377 . S
C453 C459 1.390 . S
C454 H445 0.930 . S
C454 C452 1.384 . S
C454 C455 1.372 . S
C455 C454 1.372 . S
C455 C456 1.400 . S
C455 C460 1.490 . S
C456 H446 0.930 . S
C456 C455 1.400 . S
C456 C459 1.386 . S
H457 C473 0.930 . S
H458 C474 0.931 . S
C459 H447 0.929 . S
C459 C453 1.390 . S
C459 C456 1.386 . S
C460 C455 1.490 . S
C460 C462 1.395 . S
C460 C463 1.403 . S
H461 C467 0.930 . S
C462 H448 0.930 . S
C462 C460 1.395 . S
C462 C465 1.403 . S
C463 C460 1.403 . S
C463 C464 1.524 . S
C463 C467 1.400 1_554 S
C464 H449 0.960 1_554 S
C464 H450 0.960 . S
C464 H451 0.960 . S
C464 C463 1.524 . S
C465 C462 1.403 . S
C465 C466 1.392 . S
C465 C469 1.495 . S
C466 C465 1.392 . S
C466 C467 1.385 1_554 S
C466 C468 1.478 1_554 S
C467 H461 0.930 . S
C467 C463 1.400 1_556 S
C467 C466 1.385 1_556 S
C468 C466 1.478 1_556 S
C468 C470 1.381 . S
C468 C474 1.383 . S
C469 C465 1.495 . S
C469 H475 0.959 . S
C469 H476 0.961 . S
C469 H477 0.960 . S
C470 C468 1.381 . S
C470 C471 1.394 . S
C470 H478 0.930 . S
C471 C470 1.394 . S
C471 C472 1.383 . S
C471 H479 0.929 . S
C472 C471 1.383 . S
C472 C473 1.377 . S
C473 H457 0.930 . S
C473 C472 1.377 . S
C473 C474 1.379 . S
C474 H458 0.931 . S
C474 C468 1.383 . S
C474 C473 1.379 . S
H475 C469 0.959 . S
H476 C469 0.961 . S
H477 C469 0.960 . S
H478 C470 0.930 . S
H479 C471 0.929 . S
H480 C488 0.929 . S
H481 C490 0.930 . S
H482 C492 0.930 . S
H483 C495 0.929 . S
H484 C498 0.930 . S
H485 C500 0.960 . S
H486 C500 0.960 . S
H487 C500 0.960 . S
C488 H480 0.929 . S
C488 C489 1.377 . S
C488 C490 1.384 . S
C489 C488 1.377 . S
C489 C495 1.390 . S
C490 H481 0.930 . S
C490 C488 1.384 . S
C490 C491 1.372 . S
C491 C490 1.372 . S
C491 C492 1.400 . S
C491 C496 1.490 . S
C492 H482 0.930 . S
C492 C491 1.400 . S
C492 C495 1.386 . S
H493 C509 0.930 . S
H494 C510 0.931 . S
C495 H483 0.929 . S
C495 C489 1.390 . S
C495 C492 1.386 . S
C496 C491 1.490 . S
C496 C498 1.395 . S
C496 C499 1.403 . S
H497 C503 0.930 1_556 S
C498 H484 0.930 . S
C498 C496 1.395 . S
C498 C501 1.403 . S
C499 C496 1.403 . S
C499 C500 1.524 . S
C499 C503 1.400 . S
C500 H485 0.960 . S
C500 H486 0.960 . S
C500 H487 0.960 . S
C500 C499 1.524 . S
C501 C498 1.403 . S
C501 C502 1.392 . S
C501 C505 1.495 . S
C502 C501 1.392 . S
C502 C503 1.385 . S
C502 C504 1.478 1_554 S
C503 H497 0.930 1_554 S
C503 C499 1.400 . S
C503 C502 1.385 . S
C504 C502 1.478 1_556 S
C504 C506 1.381 . S
C504 C510 1.383 . S
C505 C501 1.495 . S
C505 H511 0.959 . S
C505 H512 0.961 . S
C505 H513 0.960 . S
C506 C504 1.381 . S
C506 C507 1.394 . S
C506 H514 0.930 1_556 S
C507 C506 1.394 . S
C507 C508 1.383 . S
C507 H515 0.929 . S
C508 C507 1.383 . S
C508 C509 1.377 . S
C509 H493 0.930 . S
C509 C508 1.377 . S
C509 C510 1.379 . S
C510 H494 0.931 . S
C510 C504 1.383 . S
C510 C509 1.379 . S
H511 C505 0.959 . S
H512 C505 0.961 . S
H513 C505 0.960 . S
H514 C506 0.930 1_554 S
H515 C507 0.929 . S
H516 C524 0.929 . S
H517 C526 0.930 . S
H518 C528 0.930 . S
H519 C531 0.929 . S
H520 C534 0.930 . S
H521 C536 0.960 1_556 S
H522 C536 0.960 . S
H523 C536 0.960 . S
C524 H516 0.929 . S
C524 C525 1.372 . S
C524 C526 1.384 . S
C525 C524 1.372 . S
C525 C531 1.395 1_455 S
C526 H517 0.930 . S
C526 C524 1.384 . S
C526 C527 1.410 . S
C527 C526 1.410 . S
C527 C528 1.361 1_455 S
C527 C532 1.491 . S
C528 H518 0.930 . S
C528 C527 1.361 1_655 S
C528 C531 1.386 . S
H529 C545 0.930 . S
H530 C546 0.931 . S
C531 H519 0.929 . S
C531 C525 1.395 1_655 S
C531 C528 1.386 . S
C532 C527 1.491 . S
C532 C534 1.395 . S
C532 C535 1.403 1_455 S
H533 C539 0.930 . S
C534 H520 0.930 . S
C534 C532 1.395 . S
C534 C537 1.403 . S
C535 C532 1.403 1_655 S
C535 C536 1.524 . S
C535 C539 1.400 1_554 S
C536 H521 0.960 1_554 S
C536 H522 0.960 . S
C536 H523 0.960 . S
C536 C535 1.524 . S
C537 C534 1.403 . S
C537 C538 1.392 . S
C537 C541 1.495 . S
C538 C537 1.392 . S
C538 C539 1.385 1_454 S
C538 C540 1.478 1_554 S
C539 H533 0.930 . S
C539 C535 1.400 1_556 S
C539 C538 1.385 1_656 S
C540 C538 1.478 1_556 S
C540 C542 1.381 . S
C540 C546 1.383 1_455 S
C541 C537 1.495 . S
C541 H547 0.959 . S
C541 H548 0.961 . S
C541 H549 0.960 . S
C542 C540 1.381 . S
C542 C543 1.394 . S
C542 H550 0.930 . S
C543 C542 1.394 . S
C543 C544 1.386 1_455 S
C543 H551 0.929 . S
C544 C543 1.386 1_655 S
C544 C545 1.374 . S
C545 H529 0.930 . S
C545 C544 1.374 . S
C545 C546 1.379 . S
C546 H530 0.931 . S
C546 C540 1.383 1_655 S
C546 C545 1.379 . S
H547 C541 0.959 . S
H548 C541 0.961 . S
H549 C541 0.960 . S
H550 C542 0.930 . S
H551 C543 0.929 . S
H552 C560 0.929 . S
H553 C562 0.930 . S
H554 C564 0.930 . S
H555 C567 0.929 . S
H556 C570 0.930 . S
H557 C572 0.960 . S
H558 C572 0.960 . S
H559 C572 0.960 . S
C560 H552 0.929 . S
C560 C561 1.377 . S
C560 C562 1.384 . S
C561 C560 1.377 . S
C561 C567 1.390 1_455 S
C562 H553 0.930 . S
C562 C560 1.384 . S
C562 C563 1.372 1_455 S
C563 C562 1.372 1_655 S
C563 C564 1.400 . S
C563 C568 1.490 . S
C564 H554 0.930 . S
C564 C563 1.400 . S
C564 C567 1.386 . S
H565 C581 0.930 . S
H566 C582 0.931 . S
C567 H555 0.929 . S
C567 C561 1.390 1_655 S
C567 C564 1.386 . S
C568 C563 1.490 . S
C568 C570 1.395 1_655 S
C568 C571 1.403 . S
H569 C575 0.930 . S
C570 H556 0.930 . S
C570 C568 1.395 1_455 S
C570 C573 1.403 . S
C571 C568 1.403 . S
C571 C572 1.524 . S
C571 C575 1.400 . S
C572 H557 0.960 . S
C572 H558 0.960 . S
C572 H559 0.960 . S
C572 C571 1.524 . S
C573 C570 1.403 . S
C573 C574 1.392 1_455 S
C573 C577 1.495 . S
C574 C573 1.392 1_655 S
C574 C575 1.385 . S
C574 C576 1.478 . S
C575 H569 0.930 . S
C575 C571 1.400 . S
C575 C574 1.385 . S
C576 C574 1.478 . S
C576 C578 1.381 . S
C576 C582 1.383 . S
C577 C573 1.495 . S
C577 H583 0.959 . S
C577 H584 0.961 . S
C577 H585 0.960 . S
C578 C576 1.381 . S
C578 C579 1.394 . S
C578 H586 0.930 1_655 S
C579 C578 1.394 . S
C579 C580 1.383 . S
C579 H587 0.929 1_655 S
C580 C579 1.383 . S
C580 C581 1.377 . S
C581 H565 0.930 . S
C581 C580 1.377 . S
C581 C582 1.379 . S
C582 H566 0.931 . S
C582 C576 1.383 . S
C582 C581 1.379 . S
H583 C577 0.959 . S
H584 C577 0.961 . S
H585 C577 0.960 . S
H586 C578 0.930 1_455 S
H587 C579 0.929 1_455 S
H588 C596 0.929 . S
H589 C598 0.930 . S
H590 C600 0.930 . S
H591 C603 0.929 . S
H592 C606 0.930 . S
H593 C608 0.960 . S
H594 C608 0.960 . S
H595 C608 0.960 . S
C596 H588 0.929 . S
C596 C597 1.326 1_565 S
C596 C598 1.384 . S
C597 C596 1.326 1_545 S
C597 C603 1.433 . S
C598 H589 0.930 . S
C598 C596 1.384 . S
C598 C599 1.372 . S
C599 C598 1.372 . S
C599 C600 1.400 1_565 S
C599 C604 1.490 . S
C600 H590 0.930 . S
C600 C599 1.400 1_545 S
C600 C603 1.386 . S
H601 C617 0.930 1_545 S
H602 C618 0.931 1_545 S
C603 H591 0.929 . S
C603 C597 1.433 . S
C603 C600 1.386 . S
C604 C599 1.490 . S
C604 C606 1.395 . S
C604 C607 1.403 1_565 S
H605 C611 0.930 1_545 S
C606 H592 0.930 . S
C606 C604 1.395 . S
C606 C609 1.403 . S
C607 C604 1.403 1_545 S
C607 C608 1.524 . S
C607 C611 1.400 1_545 S
C608 H593 0.960 . S
C608 H594 0.960 . S
C608 H595 0.960 . S
C608 C607 1.524 . S
C609 C606 1.403 . S
C609 C610 1.392 . S
C609 C613 1.495 . S
C610 C609 1.392 . S
C610 C611 1.385 . S
C610 C612 1.478 . S
C611 H605 0.930 1_565 S
C611 C607 1.400 1_565 S
C611 C610 1.385 . S
C612 C610 1.478 . S
C612 C614 1.381 . S
C612 C618 1.383 . S
C613 C609 1.495 . S
C613 H619 0.959 . S
C613 H620 0.961 . S
C613 H621 0.960 . S
C614 C612 1.381 . S
C614 C615 1.394 . S
C614 H622 0.930 . S
C615 C614 1.394 . S
C615 C616 1.383 . S
C615 H623 0.929 . S
C616 C615 1.383 . S
C616 C617 1.377 . S
C617 H601 0.930 1_565 S
C617 C616 1.377 . S
C617 C618 1.379 . S
C618 H602 0.931 1_565 S
C618 C612 1.383 . S
C618 C617 1.379 . S
H619 C613 0.959 . S
H620 C613 0.961 . S
H621 C613 0.960 . S
H622 C614 0.930 . S
H623 C615 0.929 . S
H624 C632 0.929 . S
H625 C634 0.930 . S
H626 C636 0.930 . S
H627 C639 0.929 . S
H628 C642 0.930 . S
H629 C644 0.960 . S
H630 C644 0.960 . S
H631 C644 0.960 . S
C632 H624 0.929 . S
C632 C633 1.377 . S
C632 C634 1.384 . S
C633 C632 1.377 . S
C633 C639 1.390 . S
C634 H625 0.930 . S
C634 C632 1.384 . S
C634 C635 1.372 . S
C635 C634 1.372 . S
C635 C636 1.400 . S
C635 C640 1.490 . S
C636 H626 0.930 . S
C636 C635 1.400 . S
C636 C639 1.386 . S
H637 C653 0.930 . S
H638 C654 0.931 . S
C639 H627 0.929 . S
C639 C633 1.390 . S
C639 C636 1.386 . S
C640 C635 1.490 . S
C640 C642 1.395 . S
C640 C643 1.403 . S
H641 C647 0.930 . S
C642 H628 0.930 . S
C642 C640 1.395 . S
C642 C645 1.403 . S
C643 C640 1.403 . S
C643 C644 1.524 . S
C643 C647 1.400 . S
C644 H629 0.960 . S
C644 H630 0.960 . S
C644 H631 0.960 . S
C644 C643 1.524 . S
C645 C642 1.403 . S
C645 C646 1.392 . S
C645 C649 1.495 . S
C646 C645 1.392 . S
C646 C647 1.385 . S
C646 C648 1.478 . S
C647 H641 0.930 . S
C647 C643 1.400 . S
C647 C646 1.385 . S
C648 C646 1.478 . S
C648 C650 1.381 . S
C648 C654 1.383 . S
C649 C645 1.495 . S
C649 H655 0.959 . S
C649 H656 0.961 . S
C649 H657 0.960 . S
C650 C648 1.381 . S
C650 C651 1.394 . S
C650 H658 0.930 . S
C651 C650 1.394 . S
C651 C652 1.383 . S
C651 H659 0.929 . S
C652 C651 1.383 . S
C652 C653 1.377 . S
C653 H637 0.930 . S
C653 C652 1.377 . S
C653 C654 1.379 . S
C654 H638 0.931 . S
C654 C648 1.383 . S
C654 C653 1.379 . S
H655 C649 0.959 . S
H656 C649 0.961 . S
H657 C649 0.960 . S
H658 C650 0.930 . S
H659 C651 0.929 . S
H660 C668 0.929 . S
H661 C670 0.930 . S
H662 C672 0.930 . S
H663 C675 0.929 . S
H664 C678 0.930 . S
H665 C680 0.960 . S
H666 C680 0.960 . S
H667 C680 0.960 . S
C668 H660 0.929 . S
C668 C669 1.377 . S
C668 C670 1.384 . S
C669 C668 1.377 . S
C669 C675 1.390 . S
C670 H661 0.930 . S
C670 C668 1.384 . S
C670 C671 1.372 . S
C671 C670 1.372 . S
C671 C672 1.400 . S
C671 C676 1.490 . S
C672 H662 0.930 . S
C672 C671 1.400 . S
C672 C675 1.386 . S
H673 C689 0.930 . S
H674 C690 0.931 . S
C675 H663 0.929 . S
C675 C669 1.390 . S
C675 C672 1.386 . S
C676 C671 1.490 . S
C676 C678 1.395 . S
C676 C679 1.403 . S
H677 C683 0.930 . S
C678 H664 0.930 . S
C678 C676 1.395 . S
C678 C681 1.403 . S
C679 C676 1.403 . S
C679 C680 1.524 . S
C679 C683 1.400 . S
C680 H665 0.960 . S
C680 H666 0.960 . S
C680 H667 0.960 . S
C680 C679 1.524 . S
C681 C678 1.403 . S
C681 C682 1.392 . S
C681 C685 1.495 . S
C682 C681 1.392 . S
C682 C683 1.385 . S
C682 C684 1.478 . S
C683 H677 0.930 . S
C683 C679 1.400 . S
C683 C682 1.385 . S
C684 C682 1.478 . S
C684 C686 1.381 . S
C684 C690 1.383 . S
C685 C681 1.495 . S
C685 H691 0.959 . S
C685 H692 0.961 . S
C685 H693 0.960 . S
C686 C684 1.381 . S
C686 C687 1.394 . S
C686 H694 0.930 . S
C687 C686 1.394 . S
C687 C688 1.383 . S
C687 H695 0.929 . S
C688 C687 1.383 . S
C688 C689 1.377 . S
C689 H673 0.930 . S
C689 C688 1.377 . S
C689 C690 1.379 . S
C690 H674 0.931 . S
C690 C684 1.383 . S
C690 C689 1.379 . S
H691 C685 0.959 . S
H692 C685 0.961 . S
H693 C685 0.960 . S
H694 C686 0.930 . S
H695 C687 0.929 . S
H696 C704 0.929 . S
H697 C706 0.930 . S
H698 C708 0.930 . S
H699 C711 0.929 . S
H700 C714 0.930 . S
H701 C716 0.960 . S
H702 C716 0.960 . S
H703 C716 0.960 . S
C704 H696 0.929 . S
C704 C705 1.377 1_455 S
C704 C706 1.384 . S
C705 C704 1.377 1_655 S
C705 C711 1.390 . S
C706 H697 0.930 . S
C706 C704 1.384 . S
C706 C707 1.372 . S
C707 C706 1.372 . S
C707 C708 1.400 1_455 S
C707 C712 1.490 . S
C708 H698 0.930 . S
C708 C707 1.400 1_655 S
C708 C711 1.386 . S
H709 C725 0.930 . S
H710 C726 0.931 . S
C711 H699 0.929 . S
C711 C705 1.390 . S
C711 C708 1.386 . S
C712 C707 1.490 . S
C712 C714 1.395 . S
C712 C715 1.403 1_455 S
H713 C719 0.930 . S
C714 H700 0.930 . S
C714 C712 1.395 . S
C714 C717 1.403 . S
C715 C712 1.403 1_655 S
C715 C716 1.524 . S
C715 C719 1.400 . S
C716 H701 0.960 . S
C716 H702 0.960 . S
C716 H703 0.960 . S
C716 C715 1.524 . S
C717 C714 1.403 . S
C717 C718 1.392 . S
C717 C721 1.495 . S
C718 C717 1.392 . S
C718 C719 1.385 1_455 S
C718 C720 1.478 . S
C719 H713 0.930 . S
C719 C715 1.400 . S
C719 C718 1.385 1_655 S
C720 C718 1.478 . S
C720 C722 1.381 . S
C720 C726 1.383 1_554 S
C721 C717 1.495 . S
C721 H727 0.959 . S
C721 H728 0.961 . S
C721 H729 0.960 . S
C722 C720 1.381 . S
C722 C723 1.394 . S
C722 H730 0.930 . S
C723 C722 1.394 . S
C723 C724 1.383 1_554 S
C723 H731 0.929 . S
C724 C723 1.383 1_556 S
C724 C725 1.377 . S
C725 H709 0.930 . S
C725 C724 1.377 . S
C725 C726 1.379 . S
C726 H710 0.931 . S
C726 C720 1.383 1_556 S
C726 C725 1.379 . S
H727 C721 0.959 . S
H728 C721 0.961 . S
H729 C721 0.960 . S
H730 C722 0.930 . S
H731 C723 0.929 . S
H732 C740 0.929 . S
H733 C742 0.930 . S
H734 C744 0.930 . S
H735 C747 0.929 . S
H736 C750 0.930 . S
H737 C752 0.960 . S
H738 C752 0.960 . S
H739 C752 0.960 . S
C740 H732 0.929 . S
C740 C741 1.377 . S
C740 C742 1.384 . S
C741 C740 1.377 . S
C741 C747 1.390 1_565 S
C742 H733 0.930 . S
C742 C740 1.384 . S
C742 C743 1.372 1_565 S
C743 C742 1.372 1_545 S
C743 C744 1.400 . S
C743 C748 1.490 . S
C744 H734 0.930 . S
C744 C743 1.400 . S
C744 C747 1.386 . S
H745 C761 0.930 . S
H746 C762 0.927 1_556 S
C747 H735 0.929 . S
C747 C741 1.390 1_545 S
C747 C744 1.386 . S
C748 C743 1.490 . S
C748 C750 1.395 . S
C748 C751 1.404 1_545 S
H749 C755 0.920 1_565 S
C750 H736 0.930 . S
C750 C748 1.395 . S
C750 C753 1.403 . S
C751 C748 1.404 1_565 S
C751 C752 1.521 . S
C751 C755 1.401 1_565 S
C752 H737 0.960 . S
C752 H738 0.960 . S
C752 H739 0.960 . S
C752 C751 1.521 . S
C753 C750 1.403 . S
C753 C754 1.392 . S
C753 C757 1.495 . S
C754 C753 1.392 . S
C754 C755 1.385 . S
C754 C756 1.478 . S
C755 H749 0.920 1_545 S
C755 C751 1.401 1_545 S
C755 C754 1.385 . S
C756 C754 1.478 . S
C756 C758 1.381 . S
C756 C762 1.394 . S
C757 C753 1.495 . S
C757 H763 0.959 . S
C757 H764 0.961 . S
C757 H765 0.960 . S
C758 C756 1.381 . S
C758 C759 1.394 . S
C758 H766 0.930 . S
C759 C758 1.394 . S
C759 C760 1.383 1_554 S
C759 H767 0.929 . S
C760 C759 1.383 1_556 S
C760 C761 1.377 . S
C761 H745 0.930 . S
C761 C760 1.377 . S
C761 C762 1.372 1_556 S
C762 H746 0.927 1_554 S
C762 C756 1.394 . S
C762 C761 1.372 1_554 S
H763 C757 0.959 . S
H764 C757 0.961 . S
H765 C757 0.960 . S
H766 C758 0.930 . S
H767 C759 0.929 . S
H768 C776 0.929 . S
H769 C778 0.930 . S
H770 C780 0.930 . S
H771 C783 0.929 . S
H772 C786 0.930 . S
H773 C788 0.960 . S
H774 C788 0.960 . S
H775 C788 0.960 . S
C776 H768 0.929 . S
C776 C777 1.377 . S
C776 C778 1.384 . S
C777 C776 1.377 . S
C777 C783 1.390 . S
C778 H769 0.930 . S
C778 C776 1.384 . S
C778 C779 1.372 . S
C779 C778 1.372 . S
C779 C780 1.400 . S
C779 C784 1.490 . S
C780 H770 0.930 . S
C780 C779 1.400 . S
C780 C783 1.386 . S
H781 C797 0.930 . S
H782 C798 0.931 . S
C783 H771 0.929 . S
C783 C777 1.390 . S
C783 C780 1.386 . S
C784 C779 1.490 . S
C784 C786 1.395 . S
C784 C787 1.403 . S
H785 C791 0.930 . S
C786 H772 0.930 . S
C786 C784 1.395 . S
C786 C789 1.403 . S
C787 C784 1.403 . S
C787 C788 1.524 . S
C787 C791 1.400 . S
C788 H773 0.960 . S
C788 H774 0.960 . S
C788 H775 0.960 . S
C788 C787 1.524 . S
C789 C786 1.403 . S
C789 C790 1.392 . S
C789 C793 1.495 . S
C790 C789 1.392 . S
C790 C791 1.385 . S
C790 C792 1.478 . S
C791 H785 0.930 . S
C791 C787 1.400 . S
C791 C790 1.385 . S
C792 C790 1.478 . S
C792 C794 1.381 . S
C792 C798 1.383 . S
C793 C789 1.495 . S
C793 H799 0.959 . S
C793 H800 0.961 . S
C793 H801 0.960 . S
C794 C792 1.381 . S
C794 C795 1.394 1_554 S
C794 H802 0.930 . S
C795 C794 1.394 1_556 S
C795 C796 1.383 . S
C795 H803 0.929 . S
C796 C795 1.383 . S
C796 C797 1.377 1_556 S
C797 H781 0.930 . S
C797 C796 1.377 1_554 S
C797 C798 1.379 . S
C798 H782 0.931 . S
C798 C792 1.383 . S
C798 C797 1.379 . S
H799 C793 0.959 . S
H800 C793 0.961 . S
H801 C793 0.960 . S
H802 C794 0.930 . S
H803 C795 0.929 . S
H804 C812 0.929 . S
H805 C814 0.930 . S
H806 C816 0.930 . S
H807 C819 0.929 . S
H808 C822 0.930 . S
H809 C824 0.948 1_556 S
H810 C824 0.960 . S
H811 C824 0.960 . S
C812 H804 0.929 . S
C812 C813 1.377 . S
C812 C814 1.384 . S
C813 C812 1.377 . S
C813 C819 1.390 . S
C814 H805 0.930 . S
C814 C812 1.384 . S
C814 C815 1.372 . S
C815 C814 1.372 . S
C815 C816 1.400 . S
C815 C820 1.490 . S
C816 H806 0.930 . S
C816 C815 1.400 . S
C816 C819 1.386 . S
H817 C833 0.930 . S
H818 C834 0.931 . S
C819 H807 0.929 . S
C819 C813 1.390 . S
C819 C816 1.386 . S
C820 C815 1.490 . S
C820 C822 1.395 . S
C820 C823 1.403 . S
H821 C827 0.930 . S
C822 H808 0.930 . S
C822 C820 1.395 . S
C822 C825 1.403 . S
C823 C820 1.403 . S
C823 C824 1.524 . S
C823 C827 1.400 . S
C824 H809 0.948 1_554 S
C824 H810 0.960 . S
C824 H811 0.960 . S
C824 C823 1.524 . S
C825 C822 1.403 . S
C825 C826 1.392 . S
C825 C829 1.495 . S
C826 C825 1.392 . S
C826 C827 1.385 . S
C826 C828 1.478 . S
C827 H821 0.930 . S
C827 C823 1.400 . S
C827 C826 1.385 . S
C828 C826 1.478 . S
C828 C830 1.381 . S
C828 C834 1.383 . S
C829 C825 1.495 . S
C829 H835 0.959 . S
C829 H836 0.961 . S
C829 H837 0.960 . S
C830 C828 1.381 . S
C830 C831 1.394 . S
C830 H838 0.930 . S
C831 C830 1.394 . S
C831 C832 1.383 1_554 S
C831 H839 0.929 . S
C832 C831 1.383 1_556 S
C832 C833 1.377 . S
C833 H817 0.930 . S
C833 C832 1.377 . S
C833 C834 1.379 1_556 S
C834 H818 0.931 . S
C834 C828 1.383 . S
C834 C833 1.379 1_554 S
H835 C829 0.959 . S
H836 C829 0.961 . S
H837 C829 0.960 . S
H838 C830 0.930 . S
H839 C831 0.929 . S
H840 C848 0.929 . S
H841 C850 0.930 . S
H842 C852 0.930 . S
H843 C855 0.929 . S
H844 C858 0.930 . S
H845 C860 0.958 1_554 S
H846 C860 0.959 1_554 S
H847 C860 0.959 1_454 S
C848 H840 0.929 . S
C848 C849 1.356 1_655 S
C848 C850 1.384 . S
C849 C848 1.356 1_455 S
C849 C855 1.412 . S
C850 H841 0.930 . S
C850 C848 1.384 . S
C850 C851 1.372 1_655 S
C851 C850 1.372 1_455 S
C851 C852 1.400 . S
C851 C856 1.490 . S
C852 H842 0.930 . S
C852 C851 1.400 . S
C852 C855 1.386 . S
H853 C869 0.930 . S
H854 C870 0.931 . S
C855 H843 0.929 . S
C855 C849 1.412 . S
C855 C852 1.386 . S
C856 C851 1.490 . S
C856 C858 1.395 . S
C856 C859 1.403 . S
H857 C863 0.930 . S
C858 H844 0.930 . S
C858 C856 1.395 . S
C858 C861 1.403 . S
C859 C856 1.403 . S
C859 C860 1.528 1_455 S
C859 C863 1.400 . S
C860 H845 0.958 1_556 S
C860 H846 0.959 1_556 S
C860 H847 0.959 1_656 S
C860 C859 1.528 1_655 S
C861 C858 1.403 . S
C861 C862 1.392 . S
C861 C865 1.495 . S
C862 C861 1.392 . S
C862 C863 1.385 . S
C862 C864 1.478 . S
C863 H857 0.930 . S
C863 C859 1.400 . S
C863 C862 1.385 . S
C864 C862 1.478 . S
C864 C866 1.381 1_455 S
C864 C870 1.383 . S
C865 C861 1.495 . S
C865 H871 0.959 . S
C865 H872 0.961 . S
C865 H873 0.960 1_455 S
C866 C864 1.381 1_655 S
C866 C867 1.394 . S
C866 H874 0.930 . S
C867 C866 1.394 . S
C867 C868 1.383 1_655 S
C867 H875 0.929 . S
C868 C867 1.383 1_455 S
C868 C869 1.377 . S
C869 H853 0.930 . S
C869 C868 1.377 . S
C869 C870 1.379 . S
C870 H854 0.931 . S
C870 C864 1.383 . S
C870 C869 1.379 . S
H871 C865 0.959 . S
H872 C865 0.961 . S
H873 C865 0.960 1_655 S
H874 C866 0.930 . S
H875 C867 0.929 . S
H876 C884 0.929 . S
H877 C886 0.930 . S
H878 C888 0.930 . S
H879 C891 0.929 . S
H880 C894 0.930 . S
H881 C896 0.960 . S
H882 C896 0.960 . S
H883 C896 0.960 . S
C884 H876 0.929 . S
C884 C885 1.377 . S
C884 C886 1.384 . S
C885 C884 1.377 . S
C885 C891 1.390 1_545 S
C886 H877 0.930 . S
C886 C884 1.384 . S
C886 C887 1.372 . S
C887 C886 1.372 . S
C887 C888 1.400 1_545 S
C887 C892 1.490 . S
C888 H878 0.930 . S
C888 C887 1.400 1_565 S
C888 C891 1.386 . S
H889 C905 0.930 . S
H890 C906 0.931 . S
C891 H879 0.929 . S
C891 C885 1.390 1_565 S
C891 C888 1.386 . S
C892 C887 1.490 . S
C892 C894 1.395 . S
C892 C895 1.403 1_545 S
H893 C899 0.930 . S
C894 H880 0.930 . S
C894 C892 1.395 . S
C894 C897 1.403 . S
C895 C892 1.403 1_565 S
C895 C896 1.524 . S
C895 C899 1.400 . S
C896 H881 0.960 . S
C896 H882 0.960 . S
C896 H883 0.960 . S
C896 C895 1.524 . S
C897 C894 1.403 . S
C897 C898 1.392 . S
C897 C901 1.495 . S
C898 C897 1.392 . S
C898 C899 1.385 1_545 S
C898 C900 1.478 . S
C899 H893 0.930 . S
C899 C895 1.400 . S
C899 C898 1.385 1_565 S
C900 C898 1.478 . S
C900 C902 1.381 . S
C900 C906 1.383 1_545 S
C901 C897 1.495 . S
C901 H907 0.959 1_556 S
C901 H908 0.961 . S
C901 H909 0.960 . S
C902 C900 1.381 . S
C902 C903 1.394 . S
C902 H910 0.930 . S
C903 C902 1.394 . S
C903 C904 1.383 . S
C903 H911 0.929 . S
C904 C903 1.383 . S
C904 C905 1.377 1_545 S
C905 H889 0.930 . S
C905 C904 1.377 1_565 S
C905 C906 1.379 . S
C906 H890 0.931 . S
C906 C900 1.383 1_565 S
C906 C905 1.379 . S
H907 C901 0.959 1_554 S
H908 C901 0.961 . S
H909 C901 0.960 . S
H910 C902 0.930 . S
H911 C903 0.929 . S
H912 C920 0.929 . S
H913 C922 0.930 . S
H914 C924 0.930 . S
H915 C927 0.929 . S
H916 C930 0.930 . S
H917 C932 0.960 . S
H918 C932 0.960 1_554 S
H919 C932 0.960 . S
C920 H912 0.929 . S
C920 C921 1.377 . S
C920 C922 1.384 . S
C921 C920 1.377 . S
C921 C927 1.390 . S
C922 H913 0.930 . S
C922 C920 1.384 . S
C922 C923 1.372 . S
C923 C922 1.372 . S
C923 C924 1.400 . S
C923 C928 1.490 . S
C924 H914 0.930 . S
C924 C923 1.400 . S
C924 C927 1.386 . S
H925 C941 0.930 . S
H926 C942 0.931 . S
C927 H915 0.929 . S
C927 C921 1.390 . S
C927 C924 1.386 . S
C928 C923 1.490 . S
C928 C930 1.395 . S
C928 C931 1.403 . S
H929 C935 0.930 . S
C930 H916 0.930 . S
C930 C928 1.395 . S
C930 C933 1.403 . S
C931 C928 1.403 . S
C931 C932 1.524 . S
C931 C935 1.400 . S
C932 H917 0.960 . S
C932 H918 0.960 1_556 S
C932 H919 0.960 . S
C932 C931 1.524 . S
C933 C930 1.403 . S
C933 C934 1.392 . S
C933 C937 1.495 . S
C934 C933 1.392 . S
C934 C935 1.385 . S
C934 C936 1.478 . S
C935 H929 0.930 . S
C935 C931 1.400 . S
C935 C934 1.385 . S
C936 C934 1.478 . S
C936 C938 1.381 . S
C936 C942 1.383 . S
C937 C933 1.495 . S
C937 H943 0.959 . S
C937 H944 0.961 . S
C937 H945 0.960 . S
C938 C936 1.381 . S
C938 C939 1.394 . S
C938 H946 0.930 . S
C939 C938 1.394 . S
C939 C940 1.383 . S
C939 H947 0.929 . S
C940 C939 1.383 . S
C940 C941 1.377 . S
C941 H925 0.930 . S
C941 C940 1.377 . S
C941 C942 1.379 . S
C942 H926 0.931 . S
C942 C936 1.383 . S
C942 C941 1.379 . S
H943 C937 0.959 . S
H944 C937 0.961 . S
H945 C937 0.960 . S
H946 C938 0.930 . S
H947 C939 0.929 . S
H948 C956 0.929 . S
H949 C958 0.930 . S
H950 C960 0.930 . S
H951 C963 0.929 . S
H952 C966 0.930 . S
H953 C968 0.960 1_554 S
H954 C968 0.960 1_554 S
H955 C968 0.960 . S
C956 H948 0.929 . S
C956 C957 1.377 . S
C956 C958 1.384 . S
C957 C956 1.377 . S
C957 C963 1.390 . S
C958 H949 0.930 . S
C958 C956 1.384 . S
C958 C959 1.372 . S
C959 C958 1.372 . S
C959 C960 1.400 . S
C959 C964 1.490 . S
C960 H950 0.930 . S
C960 C959 1.400 . S
C960 C963 1.386 . S
H961 C977 0.930 . S
H962 C978 0.931 . S
C963 H951 0.929 . S
C963 C957 1.390 . S
C963 C960 1.386 . S
C964 C959 1.490 . S
C964 C966 1.395 . S
C964 C967 1.403 . S
H965 C971 0.930 . S
C966 H952 0.930 . S
C966 C964 1.395 . S
C966 C969 1.403 . S
C967 C964 1.403 . S
C967 C968 1.524 . S
C967 C971 1.400 . S
C968 H953 0.960 1_556 S
C968 H954 0.960 1_556 S
C968 H955 0.960 . S
C968 C967 1.524 . S
C969 C966 1.403 . S
C969 C970 1.392 . S
C969 C973 1.495 . S
C970 C969 1.392 . S
C970 C971 1.385 . S
C970 C972 1.478 . S
C971 H965 0.930 . S
C971 C967 1.400 . S
C971 C970 1.385 . S
C972 C970 1.478 . S
C972 C974 1.381 . S
C972 C978 1.383 . S
C973 C969 1.495 . S
C973 H979 0.959 . S
C973 H980 0.961 . S
C973 H981 0.960 . S
C974 C972 1.381 . S
C974 C975 1.394 . S
C974 H982 0.930 . S
C975 C974 1.394 . S
C975 C976 1.383 . S
C975 H983 0.929 . S
C976 C975 1.383 . S
C976 C977 1.377 . S
C977 H961 0.930 . S
C977 C976 1.377 . S
C977 C978 1.379 . S
C978 H962 0.931 . S
C978 C972 1.383 . S
C978 C977 1.379 . S
H979 C973 0.959 . S
H980 C973 0.961 . S
H981 C973 0.960 . S
H982 C974 0.930 . S
H983 C975 0.929 . S
H984 C992 0.929 . S
H985 C994 0.930 . S
H986 C996 0.930 . S
H987 C999 0.929 . S
H988 C1002 0.930 . S
H989 C1004 0.960 . S
H990 C1004 0.960 . S
H991 C1004 0.960 . S
C992 H984 0.929 . S
C992 C993 1.377 . S
C992 C994 1.384 . S
C993 C992 1.377 . S
C993 C999 1.390 1_655 S
C994 H985 0.930 . S
C994 C992 1.384 . S
C994 C995 1.372 . S
C995 C994 1.372 . S
C995 C996 1.400 1_655 S
C995 C1000 1.490 . S
C996 H986 0.930 . S
C996 C995 1.400 1_455 S
C996 C999 1.386 . S
H997 C1013 0.930 . S
H998 C1014 0.931 . S
C999 H987 0.929 . S
C999 C993 1.390 1_455 S
C999 C996 1.386 . S
C1000 C995 1.490 . S
C1000 C1002 1.395 . S
C1000 C1003 1.403 1_655 S
H1001 C1007 0.930 . S
C1002 H988 0.930 . S
C1002 C1000 1.395 . S
C1002 C1005 1.403 . S
C1003 C1000 1.403 1_455 S
C1003 C1004 1.524 . S
C1003 C1007 1.400 . S
C1004 H989 0.960 . S
C1004 H990 0.960 . S
C1004 H991 0.960 . S
C1004 C1003 1.524 . S
C1005 C1002 1.403 . S
C1005 C1006 1.392 . S
C1005 C1009 1.495 . S
C1006 C1005 1.392 . S
C1006 C1007 1.385 1_655 S
C1006 C1008 1.478 . S
C1007 H1001 0.930 . S
C1007 C1003 1.400 . S
C1007 C1006 1.385 1_455 S
C1008 C1006 1.478 . S
C1008 C1010 1.381 . S
C1008 C1014 1.383 1_655 S
C1009 C1005 1.495 . S
C1009 H1015 0.959 . S
C1009 H1016 0.961 . S
C1009 H1017 0.960 . S
C1010 C1008 1.381 . S
C1010 C1011 1.394 . S
C1010 H1018 0.930 . S
C1011 C1010 1.394 . S
C1011 C1012 1.383 . S
C1011 H1019 0.929 . S
C1012 C1011 1.383 . S
C1012 C1013 1.377 1_655 S
C1013 H997 0.930 . S
C1013 C1012 1.377 1_455 S
C1013 C1014 1.379 . S
C1014 H998 0.931 . S
C1014 C1008 1.383 1_455 S
C1014 C1013 1.379 . S
H1015 C1009 0.959 . S
H1016 C1009 0.961 . S
H1017 C1009 0.960 . S
H1018 C1010 0.930 . S
H1019 C1011 0.929 . S
H1020 C1028 0.929 . S
H1021 C1030 0.930 . S
H1022 C1032 0.930 . S
H1023 C1035 0.929 . S
H1024 C1038 0.930 . S
H1025 C1040 0.960 . S
H1026 C1040 0.960 1_545 S
H1027 C1040 0.960 . S
C1028 H1020 0.929 . S
C1028 C1029 1.363 1_545 S
C1028 C1030 1.384 . S
C1029 C1028 1.363 1_565 S
C1029 C1035 1.405 . S
C1030 H1021 0.930 . S
C1030 C1028 1.384 . S
C1030 C1031 1.372 1_545 S
C1031 C1030 1.372 1_565 S
C1031 C1032 1.400 . S
C1031 C1036 1.490 . S
C1032 H1022 0.930 . S
C1032 C1031 1.400 . S
C1032 C1035 1.386 . S
H1033 C1049 0.930 . S
H1034 C1050 0.931 . S
C1035 H1023 0.929 . S
C1035 C1029 1.405 . S
C1035 C1032 1.386 . S
C1036 C1031 1.490 . S
C1036 C1038 1.395 . S
C1036 C1039 1.403 . S
H1037 C1043 0.930 . S
C1038 H1024 0.930 . S
C1038 C1036 1.395 . S
C1038 C1041 1.403 . S
C1039 C1036 1.403 . S
C1039 C1040 1.524 . S
C1039 C1043 1.400 . S
C1040 H1025 0.960 . S
C1040 H1026 0.960 1_565 S
C1040 H1027 0.960 . S
C1040 C1039 1.524 . S
C1041 C1038 1.403 . S
C1041 C1042 1.392 . S
C1041 C1045 1.495 . S
C1042 C1041 1.392 . S
C1042 C1043 1.385 . S
C1042 C1044 1.478 . S
C1043 H1037 0.930 . S
C1043 C1039 1.400 . S
C1043 C1042 1.385 . S
C1044 C1042 1.478 . S
C1044 C1046 1.381 1_565 S
C1044 C1050 1.383 . S
C1045 C1041 1.495 . S
C1045 H1051 0.961 . S
C1045 H1052 0.961 . S
C1045 H1053 0.960 1_565 S
C1046 C1044 1.381 1_545 S
C1046 C1047 1.394 . S
C1046 H1054 0.930 . S
C1047 C1046 1.394 . S
C1047 C1048 1.383 1_545 S
C1047 H1055 0.929 . S
C1048 C1047 1.383 1_565 S
C1048 C1049 1.377 . S
C1049 H1033 0.930 . S
C1049 C1048 1.377 . S
C1049 C1050 1.379 . S
C1050 H1034 0.931 . S
C1050 C1044 1.383 . S
C1050 C1049 1.379 . S
H1051 C1045 0.961 . S
H1052 C1045 0.961 . S
H1053 C1045 0.960 1_545 S
H1054 C1046 0.930 . S
H1055 C1047 0.929 . S
H1056 C1064 0.929 . S
H1057 C1066 0.930 . S
H1058 C1068 0.930 . S
H1059 C1071 0.929 . S
H1060 C1074 0.930 . S
H1061 C1076 0.960 . S
H1062 C1076 0.960 . S
H1063 C1076 0.960 . S
C1064 H1056 0.929 . S
C1064 C1065 1.377 . S
C1064 C1066 1.384 . S
C1065 C1064 1.377 . S
C1065 C1071 1.390 . S
C1066 H1057 0.930 . S
C1066 C1064 1.384 . S
C1066 C1067 1.372 . S
C1067 C1066 1.372 . S
C1067 C1068 1.400 . S
C1067 C1072 1.490 . S
C1068 H1058 0.930 . S
C1068 C1067 1.400 . S
C1068 C1071 1.386 . S
H1069 C1085 0.930 . S
H1070 C1086 0.931 . S
C1071 H1059 0.929 . S
C1071 C1065 1.390 . S
C1071 C1068 1.386 . S
C1072 C1067 1.490 . S
C1072 C1074 1.395 . S
C1072 C1075 1.403 . S
H1073 C1079 0.930 . S
C1074 H1060 0.930 . S
C1074 C1072 1.395 . S
C1074 C1077 1.403 . S
C1075 C1072 1.403 . S
C1075 C1076 1.524 . S
C1075 C1079 1.400 . S
C1076 H1061 0.960 . S
C1076 H1062 0.960 . S
C1076 H1063 0.960 . S
C1076 C1075 1.524 . S
C1077 C1074 1.403 . S
C1077 C1078 1.392 . S
C1077 C1081 1.495 . S
C1078 C1077 1.392 . S
C1078 C1079 1.385 . S
C1078 C1080 1.478 . S
C1079 H1073 0.930 . S
C1079 C1075 1.400 . S
C1079 C1078 1.385 . S
C1080 C1078 1.478 . S
C1080 C1082 1.381 . S
C1080 C1086 1.383 . S
C1081 C1077 1.495 . S
C1081 H1087 0.959 . S
C1081 H1088 0.961 . S
C1081 H1089 0.960 . S
C1082 C1080 1.381 . S
C1082 C1083 1.394 . S
C1082 H1090 0.930 . S
C1083 C1082 1.394 . S
C1083 C1084 1.383 . S
C1083 H1091 0.929 . S
C1084 C1083 1.383 . S
C1084 C1085 1.377 . S
C1085 H1069 0.930 . S
C1085 C1084 1.377 . S
C1085 C1086 1.379 . S
C1086 H1070 0.931 . S
C1086 C1080 1.383 . S
C1086 C1085 1.379 . S
H1087 C1081 0.959 . S
H1088 C1081 0.961 . S
H1089 C1081 0.960 . S
H1090 C1082 0.930 . S
H1091 C1083 0.929 . S
H1092 C1100 0.929 . S
H1093 C1102 0.930 . S
H1094 C1104 0.930 . S
H1095 C1107 0.929 . S
H1096 C1110 0.930 . S
H1097 C1112 0.960 . S
H1098 C1112 0.960 . S
H1099 C1112 0.960 . S
C1100 H1092 0.929 . S
C1100 C1101 1.377 . S
C1100 C1102 1.384 . S
C1101 C1100 1.377 . S
C1101 C1107 1.390 . S
C1102 H1093 0.930 . S
C1102 C1100 1.384 . S
C1102 C1103 1.372 . S
C1103 C1102 1.372 . S
C1103 C1104 1.400 . S
C1103 C1108 1.490 . S
C1104 H1094 0.930 . S
C1104 C1103 1.400 . S
C1104 C1107 1.386 . S
H1105 C1121 0.930 . S
H1106 C1122 0.931 . S
C1107 H1095 0.929 . S
C1107 C1101 1.390 . S
C1107 C1104 1.386 . S
C1108 C1103 1.490 . S
C1108 C1110 1.395 . S
C1108 C1111 1.403 . S
H1109 C1115 0.930 . S
C1110 H1096 0.930 . S
C1110 C1108 1.395 . S
C1110 C1113 1.403 . S
C1111 C1108 1.403 . S
C1111 C1112 1.524 . S
C1111 C1115 1.400 . S
C1112 H1097 0.960 . S
C1112 H1098 0.960 . S
C1112 H1099 0.960 . S
C1112 C1111 1.524 . S
C1113 C1110 1.403 . S
C1113 C1114 1.392 . S
C1113 C1117 1.495 . S
C1114 C1113 1.392 . S
C1114 C1115 1.385 . S
C1114 C1116 1.478 . S
C1115 H1109 0.930 . S
C1115 C1111 1.400 . S
C1115 C1114 1.385 . S
C1116 C1114 1.478 . S
C1116 C1118 1.381 . S
C1116 C1122 1.383 . S
C1117 C1113 1.495 . S
C1117 H1123 0.959 . S
C1117 H1124 0.961 . S
C1117 H1125 0.960 . S
C1118 C1116 1.381 . S
C1118 C1119 1.394 . S
C1118 H1126 0.930 . S
C1119 C1118 1.394 . S
C1119 C1120 1.383 . S
C1119 H1127 0.929 . S
C1120 C1119 1.383 . S
C1120 C1121 1.377 . S
C1121 H1105 0.930 . S
C1121 C1120 1.377 . S
C1121 C1122 1.379 . S
C1122 H1106 0.931 . S
C1122 C1116 1.383 . S
C1122 C1121 1.379 . S
H1123 C1117 0.959 . S
H1124 C1117 0.961 . S
H1125 C1117 0.960 . S
H1126 C1118 0.930 . S
H1127 C1119 0.929 . S
C273 C82 1.602 1_565 S
C292 C113 1.801 1_545 S
C328 C153 1.808 . S
C309 C95 1.606 . S
C364 C193 1.825 . S
C345 C56 1.609 . S
C400 C233 1.812 1_455 S
C381 C69 1.605 1_655 S
C436 C122 1.798 1_565 S
C417 C30 1.615 1_565 S
C453 C43 1.605 . S
C472 C162 1.825 . S
C489 C4 1.620 . S
C508 C202 1.827 . S
C525 C17 1.601 . S
C544 C242 1.817 1_655 S
C580 C119 0.289 . S
C561 C74 0.367 . S
C616 C159 0.381 . S
C597 C87 0.399 . S
C652 C199 0.288 . S
C633 C100 0.377 . S
C669 C61 0.389 . S
C688 C239 0.330 . S
C705 C22 0.373 1_655 S
C724 C110 0.387 . S
C760 C150 0.375 . S
C741 C35 0.392 1_565 S
C796 C190 0.317 . S
C777 C48 0.412 . S
C813 C9 0.400 . S
C832 C230 0.351 . S
C849 C73 1.895 . S
C868 C123 2.068 . S
C885 C86 1.884 . S
C904 C163 2.056 . S
C940 C203 2.032 . S
C921 C99 1.860 . S
C976 C243 2.058 . S
C957 C60 1.875 . S
C993 C21 1.892 1_655 S
C1012 C114 2.087 . S
C1048 C154 2.051 . S
C1029 C34 1.881 1_565 S
C1084 C194 2.050 . S
C1065 C47 1.865 . S
C1101 C8 1.884 . S
C1120 C234 2.075 . S
