# Generated by pormake.
# Topology zzz, (3,6)-cn, num edge types: 1
# Building blocks:
#     Node 0, Type 0, BuildingBlock: VETTIZ_charged_linker_0, # of connection points: 3
#     Node 1, Type 0, BuildingBlock: VETTIZ_charged_linker_0, # of connection points: 3
#     Node 2, Type 0, BuildingBlock: VETTIZ_charged_linker_0, # of connection points: 3
#     Node 3, Type 0, BuildingBlock: VETTIZ_charged_linker_0, # of connection points: 3
#     Node 4, Type 0, BuildingBlock: VETTIZ_charged_linker_0, # of connection points: 3
#     Node 5, Type 0, BuildingBlock: VETTIZ_charged_linker_0, # of connection points: 3
#     Node 6, Type 0, BuildingBlock: VETTIZ_charged_linker_0, # of connection points: 3
#     Node 7, Type 0, BuildingBlock: VETTIZ_charged_linker_0, # of connection points: 3
#     Node 8, Type 1, BuildingBlock: INOVEN_clean_sbu_0, # of connection points: 6
#     Node 9, Type 1, BuildingBlock: INOVEN_clean_sbu_0, # of connection points: 6
#     Node 10, Type 1, BuildingBlock: INOVEN_clean_sbu_0, # of connection points: 6
#     Node 11, Type 1, BuildingBlock: INOVEN_clean_sbu_0, # of connection points: 6
#     Edge 12, Type (0, 1), BuildingBlock: XUDNAN_clean_linker_2, # of connection points: 2
#     Edge 13, Type (0, 1), BuildingBlock: XUDNAN_clean_linker_2, # of connection points: 2
#     Edge 14, Type (0, 1), BuildingBlock: XUDNAN_clean_linker_2, # of connection points: 2
#     Edge 15, Type (0, 1), BuildingBlock: XUDNAN_clean_linker_2, # of connection points: 2
#     Edge 16, Type (0, 1), BuildingBlock: XUDNAN_clean_linker_2, # of connection points: 2
#     Edge 17, Type (0, 1), BuildingBlock: XUDNAN_clean_linker_2, # of connection points: 2
#     Edge 18, Type (0, 1), BuildingBlock: XUDNAN_clean_linker_2, # of connection points: 2
#     Edge 19, Type (0, 1), BuildingBlock: XUDNAN_clean_linker_2, # of connection points: 2
#     Edge 20, Type (0, 1), BuildingBlock: XUDNAN_clean_linker_2, # of connection points: 2
#     Edge 21, Type (0, 1), BuildingBlock: XUDNAN_clean_linker_2, # of connection points: 2
#     Edge 22, Type (0, 1), BuildingBlock: XUDNAN_clean_linker_2, # of connection points: 2
#     Edge 23, Type (0, 1), BuildingBlock: XUDNAN_clean_linker_2, # of connection points: 2
#     Edge 24, Type (0, 1), BuildingBlock: XUDNAN_clean_linker_2, # of connection points: 2
#     Edge 25, Type (0, 1), BuildingBlock: XUDNAN_clean_linker_2, # of connection points: 2
#     Edge 26, Type (0, 1), BuildingBlock: XUDNAN_clean_linker_2, # of connection points: 2
#     Edge 27, Type (0, 1), BuildingBlock: XUDNAN_clean_linker_2, # of connection points: 2
#     Edge 28, Type (0, 1), BuildingBlock: XUDNAN_clean_linker_2, # of connection points: 2
#     Edge 29, Type (0, 1), BuildingBlock: XUDNAN_clean_linker_2, # of connection points: 2
#     Edge 30, Type (0, 1), BuildingBlock: XUDNAN_clean_linker_2, # of connection points: 2
#     Edge 31, Type (0, 1), BuildingBlock: XUDNAN_clean_linker_2, # of connection points: 2
#     Edge 32, Type (0, 1), BuildingBlock: XUDNAN_clean_linker_2, # of connection points: 2
#     Edge 33, Type (0, 1), BuildingBlock: XUDNAN_clean_linker_2, # of connection points: 2
#     Edge 34, Type (0, 1), BuildingBlock: XUDNAN_clean_linker_2, # of connection points: 2
#     Edge 35, Type (0, 1), BuildingBlock: XUDNAN_clean_linker_2, # of connection points: 2
# Relax obj value: 0.438
# Max RMSD: 0.272
# Mean RMSD: 0.255
data_MOF--net-zzz--node1-INOVEN_clean_sbu_0--node2-VETTIZ_charged_linker_0--edge1-XUDNAN_clean_linker_2
_symmetry_space_group_name_H-M    P1
_symmetry_Int_Tables_number       1
_symmetry_cell_setting            triclinic
loop_
_symmetry_equiv_pos_as_xyz
'x, y, z'
_cell_length_a     58.393497
_cell_length_b     58.594337
_cell_length_c     18.251084
_cell_angle_alpha  89.765503
_cell_angle_beta   90.077055
_cell_angle_gamma 90.209959
loop_
_atom_site_label
_atom_site_type_symbol
_atom_site_fract_x
_atom_site_fract_y
_atom_site_fract_z
_atom_type_partial_charge
C0 C 0.7821 0.53603 0.48643 0.0
C1 C 0.80226 0.52266 0.49974 0.0
C2 C 0.80423 0.50146 0.46435 0.0
C3 C 0.77228 0.51076 0.3872 0.0
C4 C 0.76648 0.5289 0.4304 0.0
C5 C 0.74362 0.53883 0.40242 0.0
H6 H 0.67052 0.54188 0.10128 0.0
C7 C 0.75849 0.51101 0.32092 0.0
C8 C 0.73901 0.52453 0.3325 0.0
H9 H 0.64335 0.53354 0.31912 0.0
H10 H 0.68296 0.53036 0.36807 0.0
H11 H 0.72154 0.56839 0.13426 0.0
H12 H 0.69383 0.50053 0.1185 0.0
H13 H 0.72171 0.49819 0.0857 0.0
H14 H 0.70173 0.51653 0.03841 0.0
H15 H 0.71178 0.55579 0.05028 0.0
H16 H 0.74083 0.55219 0.08203 0.0
C17 C 0.74651 0.56426 0.38341 0.0
C18 C 0.72493 0.53536 0.46056 0.0
C19 C 0.80496 0.49726 0.09149 0.0
C20 C 0.79918 0.49712 0.01678 0.0
C21 C 0.77796 0.50611 0.99458 0.0
C22 C 0.76215 0.51357 0.04679 0.0
C23 C 0.76734 0.51129 0.12185 0.0
C24 C 0.78856 0.50343 0.14302 0.0
C25 C 0.79092 0.50103 0.22464 0.0
C26 C 0.76688 0.50781 0.24893 0.0
C27 C 0.7538 0.51486 0.18892 0.0
C28 C 0.80931 0.51829 0.25057 0.0
C29 C 0.79709 0.47596 0.2443 0.0
C30 C 0.67278 0.54049 0.1601 0.0
C31 C 0.65369 0.53833 0.20582 0.0
C32 C 0.65771 0.53578 0.2823 0.0
C33 C 0.6805 0.53433 0.31087 0.0
C34 C 0.69935 0.53571 0.26274 0.0
C35 C 0.69488 0.53784 0.18827 0.0
C36 C 0.7149 0.53138 0.14199 0.0
C37 C 0.732 0.52455 0.1999 0.0
C38 C 0.72394 0.52875 0.27125 0.0
C39 C 0.72272 0.55293 0.09928 0.0
C40 C 0.70784 0.51075 0.09306 0.0
H41 H 0.79055 0.47881 0.38408 0.0
H42 H 0.77922 0.5517 0.51612 0.0
H43 H 0.7209 0.51693 0.4677 0.0
H44 H 0.7091 0.54456 0.44508 0.0
H45 H 0.73068 0.54224 0.51421 0.0
H46 H 0.76045 0.5667 0.34264 0.0
H47 H 0.75081 0.57426 0.4332 0.0
H48 H 0.73041 0.57117 0.35969 0.0
H49 H 0.82155 0.49137 0.11009 0.0
H50 H 0.77314 0.50643 0.93728 0.0
H51 H 0.74616 0.51993 0.02648 0.0
H52 H 0.80418 0.53605 0.23666 0.0
H53 H 0.82603 0.51481 0.22389 0.0
H54 H 0.81227 0.51744 0.31028 0.0
H55 H 0.78205 0.46663 0.26683 0.0
H56 H 0.81143 0.47517 0.28418 0.0
H57 H 0.80292 0.46591 0.19643 0.0
H58 H 0.81831 0.49011 0.47716 0.0
C59 C 0.78896 0.49525 0.4092 0.0
C60 C 1.00341 0.78019 0.01116 0.0
C61 C 0.98497 0.79511 0.99762 0.0
C62 C 0.96575 0.79402 0.04482 0.0
C63 C 0.98831 0.77295 0.13149 0.0
C64 C 1.00444 0.76887 0.07852 0.0
C65 C 0.02223 0.75213 0.10412 0.0
H66 H 1.0056 0.66475 0.28775 0.0
C67 C 0.99615 0.76302 0.20007 0.0
C68 C 1.01524 0.74948 0.18449 0.0
H69 H 0.0531 0.6746 0.10808 0.0
H70 H 0.05802 0.71463 0.14365 0.0
H71 H 0.0398 0.71106 0.4091 0.0
H72 H 0.9759 0.71258 0.28537 0.0
H73 H 0.97582 0.72002 0.38113 0.0
H74 H 0.97999 0.69085 0.35442 0.0
H75 H 0.01848 0.68929 0.42525 0.0
H76 H 1.01337 0.71813 0.45459 0.0
C77 C 0.04631 0.7628 0.09716 0.0
C78 C 0.01946 0.73009 0.05802 0.0
C79 C 0.99542 0.81248 0.42033 0.0
C80 C 1.00979 0.81231 0.48243 0.0
C81 C 0.02156 0.79168 0.49897 0.0
C82 C 0.01942 0.77216 0.45344 0.0
C83 C 1.00526 0.77316 0.39131 0.0
C84 C 0.99394 0.79323 0.37474 0.0
C85 C 0.98235 0.79208 0.30108 0.0
C86 C 0.99139 0.7692 0.27327 0.0
C87 C 1.00237 0.75702 0.32947 0.0
C88 C 0.98979 0.81276 0.25353 0.0
C89 C 0.95627 0.79158 0.31363 0.0
C90 C 0.01731 0.67539 0.25678 0.0
C91 C 0.02802 0.66693 0.19231 0.0
C92 C 0.04391 0.68097 0.15529 0.0
C93 C 0.04646 0.70389 0.17434 0.0
C94 C 0.0326 0.71272 0.22924 0.0
C95 C 0.02077 0.69863 0.27613 0.0
C96 C 1.00996 0.71298 0.33647 0.0
C97 C 1.01579 0.73752 0.31172 0.0
C98 C 0.02529 0.73617 0.24099 0.0
C99 C 0.02108 0.70756 0.41075 0.0
C100 C 0.98388 0.70885 0.33946 0.0
H101 H 0.95322 0.78312 0.14981 0.0
H102 H 0.01788 0.77914 0.9744 0.0
H103 H 1.00768 0.71772 0.08504 0.0
H104 H 0.03608 0.72179 0.04692 0.0
H105 H 1.01232 0.73369 1.00268 0.0
H106 H 0.04677 0.78003 0.12247 0.0
H107 H 0.05137 0.76448 0.03872 0.0
H108 H 0.05934 0.75226 0.12544 0.0
H109 H 0.9857 0.82758 0.40662 0.0
H110 H 0.03299 0.79087 0.54562 0.0
H111 H 0.02925 0.75698 0.46536 0.0
H112 H 1.0083 0.81173 0.2398 0.0
H113 H 0.98677 0.82915 0.28208 0.0
H114 H 0.97982 0.81398 0.20231 0.0
H115 H 0.95069 0.80724 0.34271 0.0
H116 H 0.95127 0.77653 0.3474 0.0
H117 H 0.94662 0.79082 0.26178 0.0
H118 H 0.95049 0.80384 0.03306 0.0
C119 C 0.96746 0.78292 0.11266 0.0
C120 C 0.8618 1.00847 0.25379 0.0
C121 C 0.87207 0.02034 0.19289 0.0
C122 C 0.85903 0.03764 0.15858 0.0
C123 C 0.82569 0.0266 0.22697 0.0
C124 C 0.83841 1.01295 0.27226 0.0
C125 C 0.82244 1.00291 0.33138 0.0
H126 H 0.70561 0.98898 0.40754 0.0
C127 C 0.80144 0.0218 0.23817 0.0
C128 C 0.79854 1.0118 0.30769 0.0
H129 H 0.74889 0.02589 0.55887 0.0
H130 H 0.78134 0.02242 0.47206 0.0
H131 H 0.70689 1.00885 0.29773 0.0
H132 H 0.74958 0.95317 0.33347 0.0
H133 H 0.74071 0.95391 0.24066 0.0
H134 H 0.71956 0.95531 0.31241 0.0
H135 H 0.7065 0.9871 0.23111 0.0
H136 H 0.72352 1.01262 0.21891 0.0
C137 C 0.82908 1.01202 0.40724 0.0
C138 C 0.82333 0.97666 0.33017 0.0
C139 C 0.75699 1.01217 1.00265 0.0
C140 C 0.73463 1.00403 0.99111 0.0
C141 C 0.72554 0.98797 0.04156 0.0
C142 C 0.73682 0.98358 0.10782 0.0
C143 C 0.7564 0.99631 0.12489 0.0
C144 C 0.76702 1.00913 0.07134 0.0
C145 C 0.78697 0.02253 0.10032 0.0
C146 C 0.78629 0.01559 0.1809 0.0
C147 C 0.76802 1.00067 0.19478 0.0
C148 C 0.78174 0.04829 0.09078 0.0
C149 C 0.80887 0.01483 0.0593 0.0
C150 C 0.72203 0.99567 0.42478 0.0
C151 C 0.72418 1.00745 0.49158 0.0
C152 C 0.74625 0.01663 0.50838 0.0
C153 C 0.76512 1.01441 0.45921 0.0
C154 C 0.76207 1.00297 0.39231 0.0
C155 C 0.74048 0.99454 0.37543 0.0
C156 C 0.73873 0.98731 0.29666 0.0
C157 C 0.76189 0.99533 0.26783 0.0
C158 C 0.77666 1.0018 0.325 0.0
C159 C 0.71799 0.99945 0.25901 0.0
C160 C 0.73694 0.96099 0.29532 0.0
H161 H 0.82672 0.05372 0.14639 0.0
H162 H 0.87137 0.99575 0.284 0.0
H163 H 0.81868 0.97014 0.27495 0.0
H164 H 0.81114 0.96931 0.37065 0.0
H165 H 0.8408 0.97052 0.34405 0.0
H166 H 0.82759 0.03092 0.4088 0.0
H167 H 0.84705 1.00737 0.42064 0.0
H168 H 0.81777 1.00462 0.45008 0.0
H169 H 0.76513 0.02345 0.96335 0.0
H170 H 0.70872 0.98055 0.03413 0.0
H171 H 0.72906 0.97192 0.1457 0.0
H172 H 0.76334 0.05187 0.10147 0.0
H173 H 0.78573 0.05413 0.03421 0.0
H174 H 0.79126 0.05903 0.13005 0.0
H175 H 0.80491 1.00797 1.00399 0.0
H176 H 0.81798 1.00115 0.08992 0.0
H177 H 0.82077 0.02922 0.04892 0.0
H178 H 0.86576 0.04753 0.11325 0.0
C179 C 0.83612 0.04097 0.17611 0.0
C180 C 0.51329 0.74241 0.46581 0.0
C181 C 0.52535 0.72126 0.47613 0.0
C182 C 0.54626 0.71858 0.43825 0.0
C183 C 0.53843 0.75176 0.36471 0.0
C184 C 0.52093 0.75807 0.41027 0.0
C185 C 0.51237 0.78188 0.38641 0.0
H186 H 0.50702 0.85865 0.09841 0.0
C187 C 0.53922 0.76684 0.301 0.0
C188 C 0.52661 0.78664 0.31621 0.0
H189 H 0.52208 0.88238 0.31595 0.0
H190 H 0.52478 0.84229 0.35938 0.0
H191 H 0.54918 0.83728 0.10844 0.0
H192 H 0.48276 0.80577 0.12544 0.0
H193 H 0.49936 0.78911 0.06594 0.0
H194 H 0.49394 0.81853 0.04326 0.0
H195 H 0.53334 0.82926 0.02827 0.0
H196 H 0.55301 0.80997 0.0733 0.0
C197 C 0.5174 0.79932 0.44697 0.0
C198 C 0.48663 0.78098 0.36889 0.0
C199 C 0.54606 0.72399 0.0624 0.0
C200 C 0.54038 0.72973 0.98951 0.0
C201 C 0.53702 0.75285 0.97159 0.0
C202 C 0.53682 0.76944 0.02647 0.0
C203 C 0.54028 0.76294 0.10007 0.0
C204 C 0.54579 0.74069 0.11655 0.0
C205 C 0.54805 0.73642 0.1976 0.0
C206 C 0.54321 0.76027 0.22737 0.0
C207 C 0.53754 0.77517 0.17005 0.0
C208 C 0.5726 0.72785 0.21435 0.0
C209 C 0.52936 0.71896 0.22075 0.0
C210 C 0.50906 0.85552 0.15665 0.0
C211 C 0.51291 0.87381 0.20397 0.0
C212 C 0.51799 0.86867 0.27851 0.0
C213 C 0.51914 0.84562 0.30406 0.0
C214 C 0.51581 0.82753 0.25441 0.0
C215 C 0.51245 0.8331 0.18111 0.0
C216 C 0.51953 0.81428 0.1311 0.0
C217 C 0.52757 0.79654 0.18547 0.0
C218 C 0.52335 0.80313 0.25821 0.0
C219 C 0.53964 0.82301 0.08216 0.0
C220 C 0.49792 0.80646 0.08859 0.0
H221 H 0.56911 0.73158 0.35664 0.0
H222 H 0.4981 0.7461 0.49745 0.0
H223 H 0.48304 0.76797 0.32616 0.0
H224 H 0.48064 0.7978 0.34826 0.0
H225 H 0.47661 0.77653 0.4187 0.0
H226 H 0.53616 0.80187 0.4537 0.0
H227 H 0.51026 0.79332 0.50012 0.0
H228 H 0.50933 0.81594 0.4342 0.0
H229 H 0.54857 0.70647 0.07916 0.0
H230 H 0.53304 0.75792 0.9159 0.0
H231 H 0.53271 0.78644 0.00943 0.0
H232 H 0.58153 0.72162 0.16457 0.0
H233 H 0.5724 0.7131 0.25266 0.0
H234 H 0.58344 0.74165 0.23773 0.0
H235 H 0.51201 0.72546 0.20681 0.0
H236 H 0.52966 0.71517 0.27995 0.0
H237 H 0.53177 0.70236 0.19277 0.0
H238 H 0.5572 0.70407 0.44929 0.0
C239 C 0.55297 0.73391 0.38363 0.0
C240 C 0.35641 0.51814 0.15017 0.0
C241 C 0.3648 0.53048 0.21227 0.0
C242 C 0.35047 0.54747 0.24255 0.0
C243 C 0.31909 0.53445 0.16887 0.0
C244 C 0.33336 0.52141 0.12705 0.0
C245 C 0.31914 0.50951 0.06798 0.0
H246 H 0.20317 0.48734 0.99557 0.0
C247 C 0.29556 0.52704 0.15702 0.0
C248 C 0.29443 0.51648 0.08796 0.0
H249 H 0.24077 0.53308 0.85327 0.0
H250 H 0.275 0.52903 0.93322 0.0
H251 H 0.25386 0.45271 0.05456 0.0
H252 H 0.21986 0.51007 0.16132 0.0
H253 H 0.21706 0.48176 0.19942 0.0
H254 H 0.20195 0.48875 0.11945 0.0
H255 H 0.22313 0.45217 0.0626 0.0
H256 H 0.24065 0.44844 0.14189 0.0
C257 C 0.32248 0.48345 0.07221 0.0
C258 C 0.32558 0.51862 0.99173 0.0
C259 C 0.25321 0.50657 0.39112 0.0
C260 C 0.23791 0.4886 0.40691 0.0
C261 C 0.23739 0.4695 0.35969 0.0
C262 C 0.24797 0.47068 0.29096 0.0
C263 C 0.25871 0.49105 0.27061 0.0
C264 C 0.26368 0.50727 0.3225 0.0
C265 C 0.28016 0.525 0.29443 0.0
C266 C 0.28217 0.51756 0.21447 0.0
C267 C 0.26835 0.49843 0.20094 0.0
C268 C 0.30265 0.52288 0.3393 0.0
C269 C 0.26932 0.54888 0.30026 0.0
C270 C 0.21853 0.4967 0.98118 0.0
C271 C 0.21884 0.51075 0.91828 0.0
C272 C 0.23981 0.52196 0.90067 0.0
C273 C 0.2595 0.51969 0.94607 0.0
C274 C 0.25831 0.50598 0.00923 0.0
C275 C 0.23794 0.49513 0.02666 0.0
C276 C 0.23906 0.48388 0.10091 0.0
C277 C 0.2622 0.49283 0.1282 0.0
C278 C 0.27464 0.50313 0.07109 0.0
C279 C 0.23922 0.45784 0.08968 0.0
C280 C 0.21847 0.49161 0.14804 0.0
H281 H 0.31677 0.56175 0.24724 0.0
H282 H 0.36706 0.50567 0.12317 0.0
H283 H 0.32303 0.53739 0.98859 0.0
H284 H 0.31479 0.51044 0.949 0.0
H285 H 0.34384 0.51493 0.9795 0.0
H286 H 0.31792 0.47693 0.12764 0.0
H287 H 0.34055 0.47884 0.06069 0.0
H288 H 0.31146 0.47468 0.03131 0.0
H289 H 0.25507 0.52103 0.42739 0.0
H290 H 0.22674 0.45484 0.37243 0.0
H291 H 0.24664 0.45649 0.25415 0.0
H292 H 0.31482 0.51093 0.31289 0.0
H293 H 0.2995 0.51637 0.3957 0.0
H294 H 0.31103 0.53964 0.34777 0.0
H295 H 0.25179 0.5489 0.27634 0.0
H296 H 0.27949 0.56182 0.27008 0.0
H297 H 0.26815 0.55432 0.35837 0.0
H298 H 0.35596 0.55773 0.28853 0.0
C299 C 0.32771 0.54962 0.22034 0.0
C300 C 0.05343 0.24696 0.39801 0.0
C301 C 0.05924 0.22366 0.39574 0.0
C302 C 0.07542 0.21632 0.34335 0.0
C303 C 0.06917 0.2511 0.27713 0.0
C304 C 0.05925 0.2607 0.33773 0.0
C305 C 0.05253 0.28499 0.32234 0.0
H306 H 1.00079 0.36116 0.16146 0.0
C307 C 0.06379 0.26526 0.2134 0.0
C308 C 0.05826 0.28668 0.24012 0.0
H309 H 0.05782 0.37213 0.31067 0.0
H310 H 0.07376 0.33537 0.27514 0.0
H311 H 0.04482 0.33253 0.03228 0.0
H312 H 0.99184 0.30165 0.16848 0.0
H313 H 0.99189 0.29532 0.0721 0.0
H314 H 0.98417 0.3234 0.10281 0.0
H315 H 1.01554 0.34161 0.02212 0.0
H316 H 0.02435 0.31424 0.98888 0.0
C317 C 0.067 0.30071 0.37176 0.0
C318 C 0.02666 0.28834 0.33644 0.0
C319 C 0.03178 0.21844 1.00645 0.0
C320 C 0.0199 0.22244 0.94099 0.0
C321 C 1.01232 0.24522 0.92805 0.0
C322 C 0.01731 0.26324 0.97857 0.0
C323 C 0.03028 0.25861 0.04224 0.0
C324 C 0.03737 0.23634 0.05369 0.0
C325 C 0.05061 0.23328 0.12274 0.0
C326 C 0.05323 0.25785 0.14727 0.0
C327 C 0.03983 0.27296 0.10377 0.0
C328 C 0.07395 0.22165 0.10666 0.0
C329 C 0.03514 0.21924 0.17519 0.0
C330 C 0.01641 0.35549 0.18766 0.0
C331 C 0.02697 0.36881 0.24457 0.0
C332 C 0.04841 0.36169 0.27195 0.0
C333 C 0.05733 0.34056 0.25367 0.0
C334 C 0.04459 0.32628 0.20884 0.0
C335 C 0.02638 0.334 0.16873 0.0
C336 C 0.02089 0.31619 0.10866 0.0
C337 C 0.03733 0.29631 0.1284 0.0
C338 C 0.04933 0.30291 0.19135 0.0
C339 C 0.02669 0.32667 0.03356 0.0
C340 C 0.99571 0.3087 0.1132 0.0
H341 H 0.09116 0.22376 0.23984 0.0
H342 H 0.042 0.25336 0.43973 0.0
H343 H 0.01635 0.27623 0.30299 0.0
H344 H 0.0213 0.30596 0.3222 0.0
H345 H 0.02245 0.28558 0.39513 0.0
H346 H 0.06788 0.2938 0.42854 0.0
H347 H 0.05921 0.31783 0.37702 0.0
H348 H 0.08479 0.30233 0.35075 0.0
H349 H 0.03688 0.20136 0.02197 0.0
H350 H 1.00284 0.24922 0.87869 0.0
H351 H 1.0112 0.28015 0.96676 0.0
H352 H 0.07602 0.21688 0.04818 0.0
H353 H 0.07594 0.20564 0.13886 0.0
H354 H 0.08858 0.23317 0.11901 0.0
H355 H 0.01834 0.22776 0.1832 0.0
H356 H 0.04277 0.21696 0.22949 0.0
H357 H 0.0319 0.20186 0.15326 0.0
H358 H 0.0812 0.19877 0.3431 0.0
C359 C 0.08042 0.23018 0.28281 0.0
C360 C 0.28839 0.01966 0.93798 0.0
C361 C 0.30905 0.03207 0.9213 0.0
C362 C 0.312 0.05371 0.95458 0.0
C363 C 0.27966 0.04684 0.03254 0.0
C364 C 0.27319 0.0282 0.99263 0.0
C365 C 0.25006 0.01939 0.02213 0.0
H366 H 0.17744 0.02044 0.32106 0.0
C367 C 0.26592 0.04829 0.09853 0.0
C368 C 0.24596 0.03514 0.08894 0.0
H369 H 0.15045 0.02131 0.10109 0.0
H370 H 0.18978 0.0274 0.05292 0.0
H371 H 0.22504 0.99404 0.29583 0.0
H372 H 0.20153 0.063 0.29693 0.0
H373 H 0.22886 0.06443 0.33628 0.0
H374 H 0.20702 0.04712 0.37932 0.0
H375 H 0.22106 1.00969 0.37888 0.0
H376 H 0.24818 1.00939 0.33156 0.0
C377 C 0.25223 0.99432 0.0464 0.0
C378 C 0.23155 0.02207 0.96289 0.0
C379 C 0.31532 0.04971 0.32501 0.0
C380 C 0.31063 0.04138 0.3957 0.0
C381 C 0.28787 0.04082 0.42039 0.0
C382 C 0.26991 0.04511 0.37164 0.0
C383 C 0.27485 0.04942 0.29738 0.0
C384 C 0.29722 0.05291 0.27576 0.0
C385 C 0.29951 0.05533 0.19392 0.0
C386 C 0.27447 0.05244 0.17006 0.0
C387 C 0.26062 0.04777 0.23078 0.0
C388 C 0.31487 0.03568 0.1657 0.0
C389 C 0.30967 0.07914 0.17592 0.0
C390 C 0.17972 0.0205 0.26214 0.0
C391 C 0.16072 0.01922 0.21544 0.0
C392 C 0.16477 0.02138 0.13882 0.0
C393 C 0.18744 0.02432 0.11066 0.0
C394 C 0.20618 0.02508 0.1594 0.0
C395 C 0.20163 0.02429 0.23387 0.0
C396 C 0.22162 0.03145 0.27941 0.0
C397 C 0.23861 0.03808 0.22074 0.0
C398 C 0.2306 0.03259 0.15014 0.0
C399 C 0.22943 1.01025 0.32429 0.0
C400 C 0.21453 0.05246 0.32603 0.0
H401 H 0.29955 0.07783 0.03304 0.0
H402 H 0.28458 1.00369 0.9109 0.0
H403 H 0.22758 0.04038 0.95332 0.0
H404 H 0.21568 1.01291 0.97864 0.0
H405 H 0.23742 0.01457 0.91035 0.0
H406 H 0.2661 0.9924 0.08774 0.0
H407 H 0.25623 0.98325 0.99884 0.0
H408 H 0.23595 0.98823 0.07132 0.0
H409 H 0.33284 0.05093 0.306 0.0
H410 H 0.28379 0.03472 0.47496 0.0
H411 H 0.25292 0.04285 0.39253 0.0
H412 H 0.30732 0.0188 0.1802 0.0
H413 H 0.33233 0.03666 0.1896 0.0
H414 H 0.31735 0.03617 0.10587 0.0
H415 H 0.31984 0.08611 0.22232 0.0
H416 H 0.29596 0.09167 0.16326 0.0
H417 H 0.32181 0.07841 0.12936 0.0
H418 H 0.32674 0.06433 0.94303 0.0
C419 C 0.29706 0.0613 0.00875 0.0
C420 C 0.49183 0.29006 0.94237 0.0
C421 C 0.50614 0.30742 0.91014 0.0
C422 C 0.53008 0.30421 0.91406 0.0
C423 C 0.52515 0.27249 0.99714 0.0
C424 C 0.50203 0.27194 0.98357 0.0
C425 C 0.49132 0.25162 0.02495 0.0
H426 H 0.50393 0.17885 0.32014 0.0
C427 C 0.53044 0.2574 0.05918 0.0
C428 C 0.51177 0.24248 0.07007 0.0
H429 H 0.48654 0.15164 0.10874 0.0
H430 H 0.49211 0.18995 0.05275 0.0
H431 H 0.54552 0.19248 0.2608 0.0
H432 H 0.4878 0.23602 0.301 0.0
H433 H 0.51243 0.25128 0.32726 0.0
H434 H 0.50553 0.22466 0.37269 0.0
H435 H 0.53911 0.20302 0.35064 0.0
H436 H 0.55725 0.21846 0.28786 0.0
C437 C 0.48244 0.23384 0.97017 0.0
C438 C 0.47191 0.25984 0.07521 0.0
C439 C 0.5829 0.29533 0.24402 0.0
C440 C 0.58361 0.29438 0.32093 0.0
C441 C 0.57151 0.27692 0.35753 0.0
C442 C 0.55779 0.26161 0.31839 0.0
C443 C 0.55623 0.26365 0.24173 0.0
C444 C 0.56863 0.28032 0.2058 0.0
C445 C 0.56357 0.28115 0.12499 0.0
C446 C 0.5453 0.26252 0.11883 0.0
C447 C 0.54163 0.25214 0.18719 0.0
C448 C 0.58567 0.27447 0.08397 0.0
C449 C 0.55473 0.30538 0.1042 0.0
C450 C 0.49962 0.18133 0.26285 0.0
C451 C 0.49356 0.16251 0.22008 0.0
C452 C 0.49017 0.16607 0.14379 0.0
C453 C 0.49301 0.18813 0.11159 0.0
C454 C 0.49976 0.20665 0.15568 0.0
C455 C 0.50414 0.2025 0.22942 0.0
C456 C 0.51975 0.22022 0.26172 0.0
C457 C 0.52505 0.23468 0.1949 0.0
C458 C 0.51137 0.22852 0.13501 0.0
C459 C 0.54149 0.20814 0.29248 0.0
C460 C 0.50586 0.23375 0.31917 0.0
H461 H 0.5578 0.28532 0.9591 0.0
H462 H 0.47339 0.29103 0.93768 0.0
H463 H 0.47833 0.27304 0.11379 0.0
H464 H 0.46489 0.24537 0.10784 0.0
H465 H 0.45771 0.26728 0.04245 0.0
H466 H 0.4968 0.22645 0.93828 0.0
H467 H 0.47019 0.24181 0.93112 0.0
H468 H 0.47326 0.21986 0.99903 0.0
H469 H 0.59173 0.30874 0.21428 0.0
H470 H 0.57185 0.27576 0.41677 0.0
H471 H 0.54848 0.24917 0.34972 0.0
H472 H 0.59414 0.25969 0.11112 0.0
H473 H 0.59803 0.28893 0.08312 0.0
H474 H 0.58229 0.26904 0.02713 0.0
H475 H 0.53572 0.30593 0.10245 0.0
H476 H 0.56174 0.31134 0.0511 0.0
H477 H 0.56001 0.31871 0.14382 0.0
H478 H 0.54185 0.31627 0.88939 0.0
C479 C 0.53951 0.28667 0.95625 0.0
Gd480 Gd 0.03616 0.01716 0.75582 0.0
Gd481 Gd 0.99229 0.02003 0.64686 0.0
C482 C 1.01521 0.97067 0.67904 0.0
C483 C 0.05986 1.01049 0.87209 0.0
C484 C 0.05751 0.99092 0.92192 0.0
C485 C 0.0756 0.97528 0.92709 0.0
C486 C 0.03547 0.98415 0.94365 0.0
C487 C 0.04837 0.94499 0.95355 0.0
C488 C 0.03089 0.96136 0.95872 0.0
C489 C 0.07104 0.95236 0.94269 0.0
C490 C 0.04989 0.02375 0.61359 0.0
C491 C 1.01211 0.06688 0.72532 0.0
C492 C 0.96703 0.02705 0.53338 0.0
C493 C 0.96025 0.04889 0.49937 0.0
C494 C 0.94417 0.06313 0.53372 0.0
C495 C 0.97319 0.05761 0.44098 0.0
C496 C 0.95907 0.09574 0.46652 0.0
C497 C 0.97279 0.08084 0.4251 0.0
C498 C 0.94357 0.08641 0.51728 0.0
C499 C 0.97935 1.01058 0.78893 0.0
O500 O 0.02665 0.97968 0.73543 0.0
O501 O 1.00269 0.98323 0.63359 0.0
O502 O 0.06709 1.00481 0.80673 0.0
O503 O 0.04263 0.02485 0.87011 0.0
O504 O 0.0637 0.02175 0.66893 0.0
O505 O 0.02974 0.02306 0.63917 0.0
O506 O 0.99798 0.05749 0.67633 0.0
O507 O 0.02757 0.05481 0.76237 0.0
O508 O 0.95859 0.0229 0.59849 0.0
O509 O 0.98888 0.02209 0.52896 0.0
O510 O 0.96514 1.01271 0.73473 0.0
O511 O 0.99918 1.01329 0.76282 0.0
H512 H 0.09277 0.98019 0.91076 0.0
H513 H 0.02112 0.99579 0.94046 0.0
H514 H 1.01318 0.95644 0.96673 0.0
H515 H 0.08495 0.94021 0.9405 0.0
H516 H 0.93344 0.05678 0.57772 0.0
H517 H 0.98541 0.04694 0.41257 0.0
H518 H 0.98505 0.08721 0.38551 0.0
H519 H 0.9323 0.09732 0.54848 0.0
Gd520 Gd 0.51424 0.03522 0.74364 0.0
Gd521 Gd 0.51546 0.99431 0.6658 0.0
C522 C 0.56404 0.01714 0.68107 0.0
C523 C 0.52243 0.06798 0.83421 0.0
C524 C 0.5444 0.07421 0.86868 0.0
C525 C 0.55898 0.08993 0.83351 0.0
C526 C 0.55311 0.06071 0.92607 0.0
C527 C 0.59147 0.07324 0.89587 0.0
C528 C 0.57655 0.06012 0.93921 0.0
C529 C 0.58248 0.08937 0.84684 0.0
C530 C 0.504 0.04297 0.59984 0.0
C531 C 0.46569 1.01193 0.73011 0.0
C532 C 0.50712 0.96091 0.57751 0.0
C533 C 0.48521 0.94988 0.55859 0.0
C534 C 0.47129 0.94019 0.61334 0.0
C535 C 0.47586 0.95402 0.48914 0.0
C536 C 0.43775 0.94638 0.53707 0.0
C537 C 0.4523 0.95254 0.47856 0.0
C538 C 0.44773 0.93813 0.60216 0.0
C539 C 0.52592 0.9874 0.80974 0.0
O540 O 0.55331 0.02986 0.73038 0.0
O541 O 0.55213 1.00269 0.64135 0.0
O542 O 0.52141 0.07098 0.76332 0.0
O543 O 0.51381 0.04831 0.85427 0.0
O544 O 0.49264 0.0511 0.65471 0.0
O545 O 0.51978 0.03001 0.6239 0.0
O546 O 0.47669 0.99726 0.68775 0.0
O547 O 0.47692 0.0286 0.76195 0.0
O548 O 0.51466 0.95789 0.64422 0.0
O549 O 0.50878 0.98217 0.55618 0.0
O550 O 0.53732 0.97901 0.75535 0.0
O551 O 0.50978 0.99971 0.78522 0.0
H552 H 0.55263 0.10093 0.79023 0.0
H553 H 0.54222 0.04886 0.95575 0.0
H554 H 0.58317 0.04803 0.97895 0.0
H555 H 0.59372 0.09988 0.81356 0.0
H556 H 0.47811 0.93626 0.66713 0.0
H557 H 0.48636 0.96112 0.44567 0.0
H558 H 0.4456 0.95888 0.42711 0.0
H559 H 0.43718 0.93225 0.64724 0.0
Gd560 Gd 0.48025 0.52399 0.77247 0.0
Gd561 Gd 0.5202 0.51447 0.68028 0.0
C562 C 0.5048 0.56738 0.70516 0.0
C563 C 0.45142 0.52752 0.87894 0.0
C564 C 0.45209 0.54455 0.93773 0.0
C565 C 0.43497 0.5612 0.94047 0.0
C566 C 0.47304 0.54882 0.97265 0.0
C567 C 0.4635 0.58906 0.97889 0.0
C568 C 0.47883 0.57094 0.99247 0.0
C569 C 0.44055 0.58333 0.96246 0.0
C570 C 0.46981 0.52125 0.62784 0.0
C571 C 0.49644 0.47041 0.75499 0.0
C572 C 0.54602 0.50854 0.56686 0.0
C573 C 0.55491 0.48895 0.52644 0.0
C574 C 0.5787 0.48658 0.5194 0.0
C575 C 0.54039 0.47127 0.50346 0.0
C576 C 0.57355 0.44783 0.47636 0.0
C577 C 0.54966 0.45093 0.47795 0.0
C578 C 0.58799 0.46612 0.49482 0.0
C579 C 0.53806 0.52462 0.81524 0.0
O580 O 0.49432 0.56007 0.76507 0.0
O581 O 0.51345 0.55233 0.65901 0.0
O582 O 0.44772 0.53609 0.81379 0.0
O583 O 0.4681 0.51273 0.8789 0.0
O584 O 0.46149 0.53623 0.67218 0.0
O585 O 0.48307 0.50792 0.66257 0.0
O586 O 0.51351 0.47724 0.71214 0.0
O587 O 0.4816 0.48537 0.78092 0.0
O588 O 0.55376 0.51015 0.63362 0.0
O589 O 0.52411 0.51288 0.562 0.0
O590 O 0.54966 0.5185 0.75868 0.0
O591 O 0.51687 0.52437 0.79926 0.0
H592 H 0.41827 0.55797 0.91666 0.0
H593 H 0.48632 0.53597 0.97477 0.0
H594 H 0.4963 0.57359 0.00957 0.0
H595 H 0.42737 0.59618 0.95866 0.0
H596 H 0.59015 0.50009 0.537 0.0
H597 H 0.52196 0.47272 0.5082 0.0
H598 H 0.5381 0.43733 0.46199 0.0
H599 H 0.60643 0.46424 0.49425 0.0
Gd600 Gd 1.00892 0.50415 0.75298 0.0
Gd601 Gd 1.01246 0.54179 0.65982 0.0
C602 C 0.96141 0.52531 0.68357 0.0
C603 C 0.99938 0.47316 0.8488 0.0
C604 C 0.98093 0.45626 0.84825 0.0
C605 C 0.97266 0.44793 0.78108 0.0
C606 C 0.96808 0.45298 0.91195 0.0
C607 C 0.93631 0.43905 0.8383 0.0
C608 C 0.94586 0.44443 0.90713 0.0
C609 C 0.95051 0.43914 0.77631 0.0
C610 C 0.01629 0.49009 0.61198 0.0
C611 C 0.05881 0.52112 0.7291 0.0
C612 C 0.0256 0.57061 0.56137 0.0
C613 C 0.04706 0.56935 0.51981 0.0
C614 C 0.06363 0.5866 0.52751 0.0
C615 C 0.05333 0.54843 0.48881 0.0
C616 C 0.09319 0.56022 0.48835 0.0
C617 C 0.07611 0.54385 0.47396 0.0
C618 C 0.08659 0.58209 0.51162 0.0
C619 C 1.0051 0.55473 0.80148 0.0
O620 O 0.97074 0.51239 0.73546 0.0
O621 O 0.97463 0.53775 0.64076 0.0
O622 O 1.01519 0.47064 0.79908 0.0
O623 O 0.9923 0.49424 0.85409 0.0
O624 O 0.02619 0.48193 0.66964 0.0
O625 O 1.00295 0.50601 0.63118 0.0
O626 O 0.04951 0.52853 0.66723 0.0
O627 O 0.045 0.51423 0.78153 0.0
O628 O 0.02844 0.57408 0.63134 0.0
O629 O 1.01058 0.55456 0.54827 0.0
O630 O 0.99471 0.56341 0.74518 0.0
O631 O 0.01867 0.53939 0.78032 0.0
H632 H 0.98236 0.4503 0.73101 0.0
H633 H 0.97422 0.45938 0.96407 0.0
H634 H 0.93546 0.4447 0.95619 0.0
H635 H 0.94375 0.43469 0.72293 0.0
H636 H 0.05914 0.60285 0.55159 0.0
H637 H 0.04107 0.53465 0.48268 0.0
H638 H 0.08031 0.52666 0.45735 0.0
H639 H 0.09926 0.59525 0.52165 0.0
H640 H 0.14723 0.99226 0.33092 0.0
H641 H 0.12161 0.04442 0.1838 0.0
H642 H 0.08685 0.04814 0.26125 0.0
H643 H 0.09107 0.96705 0.38592 0.0
H644 H 0.10077 0.96287 0.47877 0.0
H645 H 0.12089 0.96154 0.4041 0.0
H646 H 0.14575 0.99265 0.46636 0.0
H647 H 0.12573 0.99416 0.54081 0.0
H648 H 0.13296 0.0196 0.48986 0.0
H649 H 0.0562 0.049 0.36844 0.0
H650 H 0.03585 0.0476 0.48853 0.0
H651 H 0.08387 0.99672 0.56505 0.0
C652 C 0.13406 1.00409 0.31363 0.0
C653 C 0.1373 0.01794 0.2505 0.0
C654 C 0.11953 0.03326 0.23078 0.0
C655 C 0.09973 0.0356 0.27507 0.0
C656 C 0.09771 0.02241 0.33905 0.0
C657 C 0.11449 1.00679 0.35749 0.0
C658 C 0.10989 0.99613 0.43191 0.0
C659 C 0.10539 0.97037 0.42472 0.0
C660 C 0.12975 1.00093 0.48535 0.0
C661 C 0.08833 1.00863 0.45423 0.0
C662 C 0.08106 0.02341 0.39978 0.0
C663 C 0.06177 0.03725 0.41069 0.0
C664 C 0.05015 0.03628 0.47899 0.0
C665 C 0.0581 0.02191 0.53614 0.0
C666 C 0.07718 1.00773 0.52233 0.0
H667 H 0.46386 0.1399 0.31458 0.0
H668 H 0.53009 0.13409 0.21052 0.0
H669 H 0.5391 0.10073 0.28914 0.0
H670 H 0.47951 0.12756 0.49121 0.0
H671 H 0.45509 0.11017 0.51531 0.0
H672 H 0.45256 0.13143 0.44445 0.0
H673 H 0.43855 0.10071 0.35311 0.0
H674 H 0.44081 0.07932 0.42407 0.0
H675 H 0.45563 0.07559 0.33846 0.0
H676 H 0.5425 0.07014 0.39022 0.0
H677 H 0.53943 0.04527 0.50001 0.0
H678 H 0.47079 0.0704 0.53817 0.0
C679 C 0.47986 0.131 0.30642 0.0
C680 C 0.49601 0.13927 0.25453 0.0
C681 C 0.51715 0.12765 0.24781 0.0
C682 C 0.52248 0.10876 0.29286 0.0
C683 C 0.50639 0.10124 0.34432 0.0
C684 C 0.48529 0.11175 0.35024 0.0
C685 C 0.47134 0.10082 0.41165 0.0
C686 C 0.46423 0.11856 0.46905 0.0
C687 C 0.45033 0.08838 0.37995 0.0
C688 C 0.48843 0.08376 0.44291 0.0
C689 C 0.50837 0.08382 0.40218 0.0
C690 C 0.5268 0.06981 0.42164 0.0
C691 C 0.52489 0.05562 0.48422 0.0
C692 C 0.50484 0.05564 0.52796 0.0
C693 C 0.48633 0.06981 0.50593 0.0
H694 H 0.39465 0.55935 0.28572 0.0
H695 H 0.38378 0.48781 0.23594 0.0
H696 H 0.41358 0.47747 0.32673 0.0
H697 H 0.45644 0.55695 0.33289 0.0
H698 H 0.45291 0.57685 0.40705 0.0
H699 H 0.43464 0.5786 0.32754 0.0
H700 H 0.3989 0.57558 0.4111 0.0
H701 H 0.41701 0.57369 0.49059 0.0
H702 H 0.39613 0.55165 0.4729 0.0
H703 H 0.44226 0.47498 0.43648 0.0
H704 H 0.46416 0.48072 0.55203 0.0
H705 H 0.45218 0.55345 0.53646 0.0
C706 C 0.39867 0.54146 0.29263 0.0
C707 C 0.38656 0.52445 0.25285 0.0
C708 C 0.39289 0.50131 0.26403 0.0
C709 C 0.40975 0.49524 0.31631 0.0
C710 C 0.42028 0.51244 0.3575 0.0
C711 C 0.41494 0.53513 0.34569 0.0
C712 C 0.42643 0.55035 0.40204 0.0
C713 C 0.44363 0.56665 0.36517 0.0
C714 C 0.40855 0.56358 0.44679 0.0
C715 C 0.43862 0.53276 0.44893 0.0
C716 C 0.43545 0.51098 0.4217 0.0
C717 C 0.44488 0.49202 0.4576 0.0
C718 C 0.45738 0.49541 0.52319 0.0
C719 C 0.45989 0.51753 0.55334 0.0
C720 C 0.4506 0.53634 0.51475 0.0
H721 H 0.02014 0.37325 0.39015 0.0
H722 H 1.01279 0.41079 0.18694 0.0
H723 H 1.00605 0.44638 0.25816 0.0
H724 H 0.98005 0.40607 0.50521 0.0
H725 H 0.99873 0.40391 0.58361 0.0
H726 H 0.99832 0.38155 0.51612 0.0
H727 H 0.04216 0.3861 0.49946 0.0
H728 H 0.0427 0.40869 0.56584 0.0
H729 H 0.05381 0.41363 0.47504 0.0
H730 H 1.00343 0.47925 0.3585 0.0
H731 H 1.00627 0.50378 0.4695 0.0
H732 H 0.0197 0.44376 0.60165 0.0
C733 C 0.01631 0.38881 0.36036 0.0
C734 C 0.01657 0.38903 0.28265 0.0
C735 C 1.01209 0.40995 0.24617 0.0
C736 C 1.0085 0.43032 0.28652 0.0
C737 C 1.0096 0.42958 0.36341 0.0
C738 C 1.01333 0.40914 0.39947 0.0
C739 C 0.01629 0.41262 0.48122 0.0
C740 C 0.99721 0.40031 0.52406 0.0
C741 C 0.04015 0.4048 0.50685 0.0
C742 C 1.01389 0.43828 0.4865 0.0
C743 C 1.00962 0.44795 0.41857 0.0
C744 C 1.00677 0.47163 0.41153 0.0
C745 C 1.00841 0.4855 0.47492 0.0
C746 C 1.01341 0.47582 0.54443 0.0
C747 C 1.01608 0.45185 0.54947 0.0
H748 H 0.904 0.04913 0.1272 0.0
H749 H 0.8913 0.97751 0.17279 0.0
H750 H 0.92264 0.96731 0.08748 0.0
H751 H 0.90826 0.04195 0.93985 0.0
H752 H 0.92937 0.06406 0.92592 0.0
H753 H 0.91006 0.06564 1.00233 0.0
H754 H 0.94453 0.06841 0.09136 0.0
H755 H 0.96399 0.06681 0.01497 0.0
H756 H 0.96634 0.04672 0.08965 0.0
H757 H 0.95248 0.96501 0.9813 0.0
H758 H 0.97469 0.97078 0.8667 0.0
H759 H 0.96445 0.04362 0.88279 0.0
C760 C 0.90789 0.03122 0.1206 0.0
C761 C 0.89477 1.01416 0.15756 0.0
C762 C 0.90108 0.99104 0.14691 0.0
C763 C 0.91883 0.98508 0.09766 0.0
C764 C 0.9303 1.00235 0.05878 0.0
C765 C 0.92499 0.02501 0.07016 0.0
C766 C 0.93743 0.04037 0.01563 0.0
C767 C 0.92026 0.05378 0.96814 0.0
C768 C 0.95406 0.05653 0.05529 0.0
C769 C 0.95033 0.02291 0.97042 0.0
C770 C 0.94647 1.00106 0.99694 0.0
C771 C 0.95576 0.98211 0.96124 0.0
C772 C 0.96856 0.98554 0.89628 0.0
C773 C 0.97197 1.0077 0.86687 0.0
C774 C 0.9629 0.02656 0.90532 0.0
H775 H 0.48331 0.89716 0.11218 0.0
H776 H 0.55069 0.90164 0.21047 0.0
H777 H 0.5603 0.93378 0.12729 0.0
H778 H 0.49909 0.90647 0.93336 0.0
H779 H 0.47499 0.92383 0.90706 0.0
H780 H 0.47217 0.90355 0.98081 0.0
H781 H 0.45897 0.93562 0.06806 0.0
H782 H 0.46146 0.956 0.99418 0.0
H783 H 0.47655 0.96073 0.07902 0.0
H784 H 0.56481 0.96091 0.0176 0.0
H785 H 0.56215 0.9835 0.90275 0.0
H786 H 0.49097 0.96386 0.87997 0.0
C787 C 0.49976 0.90554 0.11824 0.0
C788 C 0.51609 0.89702 0.16933 0.0
C789 C 0.53765 0.90811 0.17367 0.0
C790 C 0.54334 0.92629 0.12583 0.0
C791 C 0.52716 0.93366 0.07437 0.0
C792 C 0.50555 0.924 0.07166 0.0
C793 C 0.4916 0.93438 0.00926 0.0
C794 C 0.48403 0.91596 0.9544 0.0
C795 C 0.47091 0.94746 0.03943 0.0
C796 C 0.50898 0.95068 0.97514 0.0
C797 C 0.52942 0.95002 0.01359 0.0
C798 C 0.54866 0.962 0.98862 0.0
C799 C 0.54702 0.97482 0.9232 0.0
C800 C 0.52622 0.97607 0.88345 0.0
C801 C 0.50689 0.96395 0.9105 0.0
H802 H 0.64212 0.50989 0.09351 0.0
H803 H 0.61325 0.56221 0.23191 0.0
H804 H 0.57821 0.56263 0.15375 0.0
H805 H 0.625 0.53291 0.9279 0.0
H806 H 0.61933 0.50593 0.88418 0.0
H807 H 0.63995 0.50759 0.9572 0.0
H808 H 0.618 0.47628 0.02932 0.0
H809 H 0.59735 0.47438 0.95611 0.0
H810 H 0.58795 0.47996 0.04831 0.0
H811 H 0.547 0.55919 0.04756 0.0
H812 H 0.52527 0.55246 0.93179 0.0
H813 H 0.57655 0.50378 0.86452 0.0
C814 C 0.62824 0.52116 0.10853 0.0
C815 C 0.63055 0.536 0.16938 0.0
C816 C 0.6119 0.55047 0.18646 0.0
C817 C 0.59195 0.55089 0.14181 0.0
C818 C 0.59072 0.53661 0.08031 0.0
C819 C 0.60847 0.52186 0.06459 0.0
C820 C 0.60418 0.50921 0.9935 0.0
C821 C 0.62324 0.51422 0.93741 0.0
C822 C 0.60172 0.48343 1.00768 0.0
C823 C 0.58157 0.51953 0.96975 0.0
C824 C 0.57366 0.53504 0.02066 0.0
C825 C 0.55313 0.54687 1.00823 0.0
C826 C 0.54073 0.54288 0.94245 0.0
C827 C 0.549 0.52745 0.88916 0.0
C828 C 0.56963 0.51564 0.90403 0.0
H829 H 1.00175 0.66227 0.0706 0.0
H830 H 0.04142 0.62313 0.22674 0.0
H831 H 0.03746 0.58887 0.14771 0.0
H832 H 0.96239 0.61522 0.01236 0.0
H833 H 0.96222 0.62509 0.91869 0.0
H834 H 0.96573 0.6452 0.99237 0.0
H835 H 1.00332 0.65976 0.93304 0.0
H836 H 1.00012 0.63954 0.85981 0.0
H837 H 0.02595 0.6398 0.914 0.0
H838 H 0.03301 0.56017 0.04212 0.0
H839 H 0.02674 0.53945 0.92564 0.0
H840 H 0.98931 0.59741 0.83951 0.0
C841 C 1.00881 0.64621 0.08944 0.0
C842 C 0.02133 0.64514 0.15589 0.0
C843 C 0.03118 0.62413 0.17731 0.0
C844 C 0.02915 0.60465 0.1323 0.0
C845 C 0.01716 0.60645 0.06602 0.0
C846 C 1.00687 0.62669 0.04531 0.0
C847 C 0.99619 0.62473 0.96958 0.0
C848 C 0.97008 0.62773 0.97351 0.0
C849 C 1.00705 0.64198 0.91597 0.0
C850 C 1.00245 0.6004 0.9498 0.0
C851 C 1.01451 0.59007 1.00612 0.0
C852 C 0.02325 0.56804 0.99843 0.0
C853 C 0.01963 0.55638 0.93191 0.0
C854 C 1.00732 0.56663 0.8735 0.0
C855 C 0.99846 0.58889 0.88334 0.0
H856 H 0.03836 0.19049 0.31888 0.0
H857 H 0.04153 0.21977 0.53645 0.0
H858 H 1.0101 0.19361 0.57588 0.0
H859 H 0.9761 0.18568 0.31299 0.0
H860 H 0.97728 0.15989 0.25965 0.0
H861 H 0.99946 0.18116 0.25029 0.0
H862 H 0.0304 0.1509 0.2811 0.0
H863 H 1.0084 0.12956 0.28899 0.0
H864 H 0.02783 0.13437 0.36425 0.0
H865 H 0.9815 0.16087 0.59166 0.0
H866 H 0.9603 0.1246 0.58477 0.0
H867 H 0.97183 0.12243 0.35011 0.0
C868 C 0.03262 0.19153 0.37499 0.0
C869 C 0.0427 0.20682 0.42512 0.0
C870 C 0.03428 0.2078 0.4977 0.0
C871 C 0.0163 0.19328 0.52003 0.0
C872 C 1.00649 0.17872 0.46809 0.0
C873 C 1.01432 0.17803 0.39688 0.0
C874 C 1.00155 0.16082 0.35109 0.0
C875 C 0.98778 0.1726 0.28991 0.0
C876 C 0.01802 0.14285 0.3196 0.0
C877 C 0.98598 0.1508 0.40865 0.0
C878 C 0.98887 0.16139 0.47576 0.0
C879 C 0.97866 0.15285 0.5391 0.0
C880 C 0.96643 0.13226 0.53442 0.0
C881 C 0.96454 0.1205 0.46677 0.0
C882 C 0.97308 0.13088 0.40263 0.0
H883 H 0.33922 1.01063 0.33479 0.0
H884 H 0.32047 0.04027 0.5438 0.0
H885 H 0.34701 1.01358 0.60669 0.0
H886 H 0.34472 0.9526 0.39701 0.0
H887 H 0.36884 0.94688 0.33845 0.0
H888 H 0.34767 0.96751 0.31091 0.0
H889 H 0.37916 0.99854 0.29635 0.0
H890 H 0.40043 0.97788 0.32191 0.0
H891 H 0.39824 1.00425 0.37187 0.0
H892 H 0.3778 0.98588 0.64384 0.0
H893 H 0.41212 0.9621 0.65221 0.0
H894 H 0.40838 0.94891 0.4186 0.0
C895 C 0.34097 1.01192 0.39373 0.0
C896 C 0.32816 0.02782 0.43448 0.0
C897 C 0.33036 0.02834 0.51169 0.0
C898 C 0.34524 1.0132 0.54769 0.0
C899 C 0.35744 0.9976 0.5055 0.0
C900 C 0.35549 0.99698 0.43019 0.0
C901 C 0.37107 0.97938 0.39669 0.0
C902 C 0.35724 0.96047 0.35853 0.0
C903 C 0.38824 0.99069 0.34363 0.0
C904 C 0.38272 0.97054 0.46488 0.0
C905 C 0.37446 0.98106 0.52716 0.0
C906 C 0.38417 0.97728 0.59565 0.0
C907 C 0.40367 0.96351 0.59985 0.0
C908 C 0.4134 0.95382 0.53587 0.0
C909 C 0.40174 0.95627 0.46851 0.0
H910 H 0.56397 0.3156 0.4366 0.0
H911 H 0.62307 0.31867 0.29321 0.0
H912 H 0.63097 0.35793 0.33475 0.0
H913 H 0.53371 0.3736 0.48949 0.0
H914 H 0.53628 0.344 0.46658 0.0
H915 H 0.54336 0.36557 0.39945 0.0
H916 H 0.56324 0.33752 0.57687 0.0
H917 H 0.56089 0.3672 0.60134 0.0
H918 H 0.58867 0.35477 0.58685 0.0
H919 H 0.62621 0.39895 0.36556 0.0
H920 H 0.61168 0.4374 0.39472 0.0
H921 H 0.55705 0.40684 0.52336 0.0
C922 C 0.5794 0.32393 0.41726 0.0
C923 C 0.59291 0.31411 0.36175 0.0
C924 C 0.61245 0.32598 0.33563 0.0
C925 C 0.61713 0.34823 0.35915 0.0
C926 C 0.60242 0.35807 0.41001 0.0
C927 C 0.58432 0.34605 0.44048 0.0
C928 C 0.56919 0.36132 0.48608 0.0
C929 C 0.54419 0.3611 0.45866 0.0
C930 C 0.5706 0.35481 0.56762 0.0
C931 C 0.58058 0.38404 0.47173 0.0
C932 C 0.59994 0.38185 0.42894 0.0
C933 C 0.61156 0.40084 0.40122 0.0
C934 C 0.60313 0.4226 0.41774 0.0
C935 C 0.5832 0.42507 0.46102 0.0
C936 C 0.5722 0.4055 0.48952 0.0
H937 H 0.19388 0.47962 0.37412 0.0
H938 H 0.23661 0.51118 0.54022 0.0
H939 H 0.20317 0.53316 0.58345 0.0
H940 H 0.16917 0.52679 0.31927 0.0
H941 H 0.14113 0.51523 0.30056 0.0
H942 H 0.1658 0.49709 0.29602 0.0
H943 H 0.14847 0.46914 0.39174 0.0
H944 H 0.12305 0.48646 0.39375 0.0
H945 H 0.13805 0.48004 0.47766 0.0
H946 H 0.16629 0.55631 0.59311 0.0
H947 H 0.12803 0.5738 0.58138 0.0
H948 H 0.11352 0.53002 0.39534 0.0
C949 C 0.19611 0.49 0.42254 0.0
C950 C 0.21791 0.49365 0.45371 0.0
C951 C 0.22002 0.50813 0.51547 0.0
C952 C 0.20116 0.52078 0.54004 0.0
C953 C 0.18046 0.51849 0.50253 0.0
C954 C 0.17778 0.503 0.44622 0.0
C955 C 0.15504 0.50559 0.408 0.0
C956 C 0.15799 0.51153 0.32619 0.0
C957 C 0.14028 0.48403 0.41845 0.0
C958 C 0.14553 0.52543 0.44998 0.0
C959 C 0.16015 0.53254 0.50496 0.0
C960 C 0.15467 0.55075 0.55046 0.0
C961 C 0.13303 0.56086 0.54247 0.0
C962 C 0.11754 0.55314 0.48778 0.0
C963 C 0.12454 0.53593 0.43912 0.0
H964 H 0.97092 0.8379 0.03013 0.0
H965 H 1.01041 0.80025 0.86967 0.0
H966 H 0.03069 0.83583 0.83602 0.0
H967 H 0.96956 0.89459 0.92926 0.0
H968 H 0.9721 0.90923 0.01557 0.0
H969 H 0.95681 0.8825 0.01061 0.0
H970 H 0.98293 0.86673 0.11392 0.0
H971 H 0.99921 0.89275 0.11665 0.0
H972 H 1.01349 0.86605 0.1002 0.0
H973 H 0.05196 0.87375 0.84001 0.0
H974 H 0.06696 0.91252 0.86287 0.0
H975 H 1.01502 0.92235 0.02977 0.0
C976 C 0.98275 0.83706 0.98468 0.0
C977 C 0.98927 0.81604 0.95356 0.0
C978 C 1.00536 0.81607 0.89536 0.0
C979 C 0.01701 0.8362 0.87594 0.0
C980 C 1.01192 0.85609 0.9142 0.0
C981 C 0.99461 0.85676 0.96567 0.0
C982 C 0.99411 0.8792 1.00588 0.0
C983 C 0.97183 0.89215 0.9893 0.0
C984 C 0.99765 0.87596 0.08901 0.0
C985 C 1.01443 0.89077 0.97126 0.0
C986 C 0.02442 0.87741 0.91801 0.0
C987 C 0.04402 0.88448 0.88083 0.0
C988 C 0.05269 0.90637 0.89528 0.0
C989 C 0.04209 0.92056 0.94809 0.0
C990 C 0.02322 0.91218 0.98799 0.0
H991 H 0.69539 0.98895 0.92109 0.0
H992 H 0.73736 0.04955 0.95499 0.0
H993 H 0.70648 0.07336 0.91025 0.0
H994 H 0.66013 1.01232 0.7652 0.0
H995 H 0.6337 1.00024 0.79915 0.0
H996 H 0.66043 0.98546 0.81289 0.0
H997 H 0.65526 0.98415 0.95203 0.0
H998 H 0.62791 0.99771 0.94249 0.0
H999 H 0.64942 1.01009 1.0013 0.0
H1000 H 0.6692 0.09162 0.89662 0.0
H1001 H 0.62826 0.10226 0.9014 0.0
H1002 H 0.60934 0.03088 0.88242 0.0
C1003 C 0.69842 1.00713 0.91677 0.0
C1004 C 0.71905 0.01703 0.94184 0.0
C1005 C 0.72218 0.04103 0.93464 0.0
C1006 C 0.70451 0.05498 0.90973 0.0
C1007 C 0.68376 0.04485 0.89195 0.0
C1008 C 0.68068 0.02142 0.89389 0.0
C1009 C 0.65574 0.01513 0.8837 0.0
C1010 C 0.65224 1.00254 0.81089 0.0
C1011 C 0.64657 1.00096 0.94877 0.0
C1012 C 0.64526 0.03869 0.88154 0.0
C1013 C 0.66174 0.0556 0.88463 0.0
C1014 C 0.65609 0.07861 0.89176 0.0
C1015 C 0.63291 0.0845 0.89518 0.0
C1016 C 0.61588 0.06736 0.89288 0.0
C1017 C 0.62216 0.04427 0.88495 0.0
H1018 H 0.55756 0.6865 0.97847 0.0
H1019 H 0.50482 0.7308 0.89036 0.0
H1020 H 0.48188 0.69742 0.85731 0.0
H1021 H 0.54282 0.63089 0.87475 0.0
H1022 H 0.54695 0.61499 0.95845 0.0
H1023 H 0.56416 0.63997 0.94005 0.0
H1024 H 0.55141 0.65655 0.06501 0.0
H1025 H 0.53337 0.63233 0.0824 0.0
H1026 H 0.52132 0.66061 0.08258 0.0
H1027 H 0.46 0.66109 0.86588 0.0
H1028 H 0.44284 0.62493 0.90262 0.0
H1029 H 0.50538 0.60807 0.02199 0.0
C1030 C 0.54159 0.68914 0.94953 0.0
C1031 C 0.5328 0.7113 0.93921 0.0
C1032 C 0.51214 0.71408 0.8992 0.0
C1033 C 0.49876 0.69508 0.88073 0.0
C1034 C 0.50618 0.67363 0.90341 0.0
C1035 C 0.52733 0.67051 0.93627 0.0
C1036 C 0.52893 0.64736 0.97281 0.0
C1037 C 0.54677 0.63241 0.93418 0.0
C1038 C 0.53403 0.64936 0.05553 0.0
C1039 C 0.50499 0.6386 0.95929 0.0
C1040 C 0.49248 0.65348 0.91671 0.0
C1041 C 0.46976 0.64916 0.8987 0.0
C1042 C 0.45994 0.62854 0.92191 0.0
C1043 C 0.47247 0.61274 0.96582 0.0
C1044 C 0.49512 0.61865 0.98648 0.0
H1045 H 0.8237 0.4585 0.04081 0.0
H1046 H 0.80937 0.50968 0.87444 0.0
H1047 H 0.83748 0.49131 0.79262 0.0
H1048 H 0.88137 0.46292 0.02216 0.0
H1049 H 0.8872 0.43341 0.04288 0.0
H1050 H 0.8619 0.44658 0.07838 0.0
H1051 H 0.83714 0.4149 0.01816 0.0
H1052 H 0.86251 0.40185 0.98118 0.0
H1053 H 0.83935 0.40987 0.92102 0.0
H1054 H 0.87223 0.47364 0.74183 0.0
H1055 H 0.91187 0.46064 0.73102 0.0
H1056 H 0.90418 0.42055 0.92992 0.0
C1057 C 0.82626 0.46584 0.98689 0.0
C1058 C 0.81447 0.48563 0.9642 0.0
C1059 C 0.81807 0.4944 0.89279 0.0
C1060 C 0.83396 0.48408 0.84596 0.0
C1061 C 0.84598 0.4651 0.87147 0.0
C1062 C 0.84232 0.45615 0.94056 0.0
C1063 C 0.86006 0.43854 0.96082 0.0
C1064 C 0.87341 0.44581 0.03005 0.0
C1065 C 0.8491 0.41488 0.97083 0.0
C1066 C 0.87491 0.43951 0.89323 0.0
C1067 C 0.86623 0.45457 0.84158 0.0
C1068 C 0.87886 0.46125 0.7805 0.0
C1069 C 0.90141 0.45354 0.7745 0.0
C1070 C 0.91111 0.43942 0.82966 0.0
C1071 C 0.89711 0.43111 0.88668 0.0
H1072 H 0.04733 0.18436 0.91954 0.0
H1073 H 0.9834 0.21408 0.84461 0.0
H1074 H 0.97553 0.17886 0.77356 0.0
H1075 H 0.06173 0.15142 0.76045 0.0
H1076 H 0.07211 0.12764 0.8138 0.0
H1077 H 0.07377 0.15613 0.85018 0.0
H1078 H 0.05118 0.1431 0.96513 0.0
H1079 H 0.04948 0.11458 0.92919 0.0
H1080 H 0.02369 0.12945 0.95398 0.0
H1081 H 0.9739 0.13777 0.71596 0.0
H1082 H 0.97824 0.09709 0.68205 0.0
H1083 H 0.04143 0.09409 0.80677 0.0
C1084 C 0.03143 0.18371 0.88918 0.0
C1085 C 1.01584 0.20238 0.88966 0.0
C1086 C 0.99582 0.20042 0.84572 0.0
C1087 C 0.99111 0.18027 0.80539 0.0
C1088 C 1.00644 0.16193 0.80947 0.0
C1089 C 0.02619 0.16362 0.8507 0.0
C1090 C 0.0393 0.14125 0.85122 0.0
C1091 C 0.06314 0.1443 0.81685 0.0
C1092 C 0.04101 0.13153 0.92951 0.0
C1093 C 0.02399 0.12649 0.80356 0.0
C1094 C 1.00519 0.13868 0.77917 0.0
C1095 C 0.98864 0.12828 0.73483 0.0
C1096 C 0.99127 0.10504 0.71573 0.0
C1097 C 1.01018 0.09205 0.74151 0.0
C1098 C 0.02674 0.10325 0.78577 0.0
H1099 H 0.34 0.05573 0.83233 0.0
H1100 H 0.32397 0.98728 0.90864 0.0
H1101 H 0.36063 0.9737 0.85671 0.0
H1102 H 0.37328 0.04087 0.66671 0.0
H1103 H 0.3933 0.06376 0.68259 0.0
H1104 H 0.364 0.06647 0.71217 0.0
H1105 H 0.37862 0.0749 0.84394 0.0
H1106 H 0.40778 0.07155 0.81431 0.0
H1107 H 0.39693 0.05449 0.88907 0.0
H1108 H 0.40202 0.96848 0.80553 0.0
H1109 H 0.44238 0.97248 0.76437 0.0
H1110 H 0.43253 0.04517 0.73624 0.0
C1111 C 0.3439 0.03778 0.83816 0.0
C1112 C 0.32868 0.02271 0.87584 0.0
C1113 C 0.3348 0.99929 0.87959 0.0
C1114 C 0.35584 0.99143 0.85063 0.0
C1115 C 0.37089 1.00709 0.81787 0.0
C1116 C 0.36501 0.02982 0.81136 0.0
C1117 C 0.38484 0.0438 0.78061 0.0
C1118 C 0.37846 0.05435 0.70611 0.0
C1119 C 0.39248 0.06227 0.83524 0.0
C1120 C 0.40306 0.02558 0.77193 0.0
C1121 C 0.39463 1.00438 0.79225 0.0
C1122 C 0.40858 0.98504 0.78937 0.0
C1123 C 0.43153 0.98743 0.76556 0.0
C1124 C 0.44066 1.00909 0.74645 0.0
C1125 C 0.42607 0.02834 0.74986 0.0
H1126 H 0.52404 0.33511 0.79738 0.0
H1127 H 0.46888 0.3323 0.95664 0.0
H1128 H 0.45925 0.37227 0.92704 0.0
H1129 H 0.54366 0.3898 0.84144 0.0
H1130 H 0.55041 0.3986 0.74915 0.0
H1131 H 0.551 0.36881 0.77347 0.0
H1132 H 0.52217 0.3596 0.66983 0.0
H1133 H 0.52196 0.38937 0.64436 0.0
H1134 H 0.49547 0.37487 0.66524 0.0
H1135 H 0.45804 0.41388 0.89043 0.0
H1136 H 0.46396 0.45311 0.84739 0.0
H1137 H 0.52134 0.43092 0.71453 0.0
C1138 C 0.50974 0.34268 0.82588 0.0
C1139 C 0.49731 0.33004 0.88021 0.0
C1140 C 0.47854 0.34101 0.91429 0.0
C1141 C 0.47306 0.36395 0.89821 0.0
C1142 C 0.48635 0.37605 0.84734 0.0
C1143 C 0.50416 0.36571 0.81088 0.0
C1144 C 0.5165 0.38297 0.76139 0.0
C1145 C 0.5419 0.38517 0.78268 0.0
C1146 C 0.51387 0.37631 0.6804 0.0
C1147 C 0.50342 0.40488 0.77792 0.0
C1148 C 0.48588 0.40027 0.8268 0.0
C1149 C 0.47161 0.41755 0.85175 0.0
C1150 C 0.47522 0.44 0.82667 0.0
C1151 C 0.49316 0.44561 0.77697 0.0
C1152 C 0.50741 0.42752 0.75216 0.0
H1153 H 0.17414 0.51347 0.96875 0.0
H1154 H 0.21348 0.5156 0.76732 0.0
H1155 H 0.17737 0.51903 0.69643 0.0
H1156 H 0.12791 0.47918 0.90067 0.0
H1157 H 0.10634 0.49395 0.95253 0.0
H1158 H 0.13527 0.49248 0.98647 0.0
H1159 H 0.13681 0.53658 0.99448 0.0
H1160 H 0.10788 0.53819 0.96052 0.0
H1161 H 0.1305 0.55345 0.91417 0.0
H1162 H 0.1354 0.52033 0.64706 0.0
H1163 H 0.09348 0.52264 0.62571 0.0
H1164 H 0.08219 0.51823 0.86007 0.0
C1165 C 0.17535 0.51445 0.90965 0.0
C1166 C 0.19703 0.51401 0.87415 0.0
C1167 C 0.19737 0.516 0.79653 0.0
C1168 C 0.17682 0.51782 0.75558 0.0
C1169 C 0.15583 0.51776 0.79258 0.0
C1170 C 0.15507 0.51625 0.8681 0.0
C1171 C 0.13047 0.5165 0.89539 0.0
C1172 C 0.12466 0.4942 0.93617 0.0
C1173 C 0.12617 0.53742 0.94401 0.0
C1174 C 0.11735 0.51828 0.82365 0.0
C1175 C 0.13219 0.51901 0.76473 0.0
C1176 C 0.12379 0.5204 0.69301 0.0
C1177 C 0.09985 0.52154 0.68136 0.0
C1178 C 0.08432 0.52067 0.741 0.0
C1179 C 0.09344 0.51893 0.81298 0.0
H1180 H 1.01106 0.85721 0.43345 0.0
H1181 H 1.01539 0.81694 0.63303 0.0
H1182 H 0.01836 0.85258 0.70518 0.0
H1183 H 0.0502 0.90211 0.48869 0.0
H1184 H 0.03396 0.92427 0.44399 0.0
H1185 H 0.03332 0.89561 0.40862 0.0
H1186 H 0.98908 0.89515 0.41807 0.0
H1187 H 0.98957 0.92379 0.45341 0.0
H1188 H 0.97568 0.90132 0.50466 0.0
H1189 H 0.01955 0.89389 0.75603 0.0
H1190 H 0.01992 0.93562 0.77984 0.0
H1191 H 1.01257 0.94832 0.54685 0.0
C1192 C 1.01245 0.8557 0.4924 0.0
C1193 C 1.01279 0.83389 0.52704 0.0
C1194 C 1.01525 0.83317 0.60447 0.0
C1195 C 0.01683 0.85343 0.64613 0.0
C1196 C 1.01603 0.87454 0.61003 0.0
C1197 C 1.01396 0.87571 0.5347 0.0
C1198 C 1.0132 0.90038 0.50863 0.0
C1199 C 0.0339 0.90591 0.45958 0.0
C1200 C 0.99053 0.90545 0.46886 0.0
C1201 C 1.01472 0.91305 0.58098 0.0
C1202 C 0.01662 0.89792 0.63895 0.0
C1203 C 0.01844 0.90581 0.71095 0.0
C1204 C 0.01856 0.9296 0.72395 0.0
C1205 C 1.01621 0.94542 0.6654 0.0
C1206 C 1.01424 0.9368 0.59307 0.0
H1207 H 0.68498 0.98016 0.50769 0.0
H1208 H 0.7138 0.04454 0.58111 0.0
H1209 H 0.67735 0.05322 0.64378 0.0
H1210 H 0.6302 1.00154 0.46288 0.0
H1211 H 0.61499 0.97629 0.49226 0.0
H1212 H 0.6441 0.97412 0.46082 0.0
H1213 H 0.65565 0.9546 0.58293 0.0
H1214 H 0.62652 0.95666 0.61471 0.0
H1215 H 0.64952 0.96859 0.66846 0.0
H1216 H 0.63539 0.05547 0.69576 0.0
H1217 H 0.59404 0.05141 0.72492 0.0
H1218 H 0.59242 0.98712 0.60835 0.0
C1219 C 0.68388 0.99621 0.53644 0.0
C1220 C 0.70283 1.01164 0.53804 0.0
C1221 C 0.7001 0.03209 0.57889 0.0
C1222 C 0.67918 0.03732 0.61442 0.0
C1223 C 0.66073 0.02208 0.60901 0.0
C1224 C 0.66305 1.00186 0.57117 0.0
C1225 C 0.64057 0.9886 0.57079 0.0
C1226 C 0.63197 0.98493 0.49201 0.0
C1227 C 0.64323 0.96576 0.61165 0.0
C1228 C 0.62497 1.00467 0.61269 0.0
C1229 C 0.63691 0.02378 0.63555 0.0
C1230 C 0.62598 0.04066 0.6769 0.0
C1231 C 0.60239 0.03817 0.69364 0.0
C1232 C 0.58959 0.01909 0.66846 0.0
C1233 C 0.60139 1.0021 0.62801 0.0
H1234 H 0.52701 0.67567 0.4418 0.0
H1235 H 0.50567 0.72068 0.61649 0.0
H1236 H 0.49747 0.6867 0.69489 0.0
H1237 H 0.48597 0.63002 0.47516 0.0
H1238 H 0.50623 0.60803 0.45247 0.0
H1239 H 0.50861 0.63582 0.41059 0.0
H1240 H 0.55043 0.63906 0.4569 0.0
H1241 H 0.54813 0.61137 0.49941 0.0
H1242 H 0.55637 0.63577 0.55332 0.0
H1243 H 0.49343 0.64578 0.75636 0.0
H1244 H 0.49288 0.60471 0.79079 0.0
H1245 H 0.51838 0.58762 0.57494 0.0
C1246 C 0.52051 0.67857 0.49651 0.0
C1247 C 0.51719 0.70121 0.5226 0.0
C1248 C 0.50828 0.70377 0.59441 0.0
C1249 C 0.50372 0.68444 0.6396 0.0
C1250 C 0.50798 0.66244 0.61246 0.0
C1251 C 0.51603 0.6596 0.54199 0.0
C1252 C 0.51987 0.63448 0.52513 0.0
C1253 C 0.50424 0.62663 0.46211 0.0
C1254 C 0.5452 0.62991 0.50767 0.0
C1255 C 0.51293 0.62336 0.59714 0.0
C1256 C 0.50599 0.63964 0.64708 0.0
C1257 C 0.49882 0.63307 0.71731 0.0
C1258 C 0.4986 0.60958 0.73648 0.0
C1259 C 0.50566 0.59257 0.68602 0.0
C1260 C 0.51298 0.59991 0.61548 0.0
H1261 H 0.8446 0.53497 0.4507 0.0
H1262 H 0.80652 0.52346 0.65068 0.0
H1263 H 0.84295 0.52432 0.72144 0.0
H1264 H 0.89032 0.49924 0.4912 0.0
H1265 H 0.9122 0.51691 0.45029 0.0
H1266 H 0.88319 0.51844 0.41726 0.0
H1267 H 0.88244 0.56195 0.44111 0.0
H1268 H 0.91164 0.56065 0.47289 0.0
H1269 H 0.88978 0.5726 0.5307 0.0
H1270 H 0.8851 0.51926 0.76676 0.0
H1271 H 0.92718 0.51713 0.78495 0.0
H1272 H 0.93744 0.53404 0.55597 0.0
C1273 C 0.84385 0.53351 0.50983 0.0
C1274 C 0.8225 0.52982 0.5453 0.0
C1275 C 0.82244 0.527 0.62242 0.0
C1276 C 0.84317 0.52701 0.66284 0.0
C1277 C 0.86399 0.52966 0.6256 0.0
C1278 C 0.86435 0.53348 0.55082 0.0
C1279 C 0.88885 0.53528 0.52292 0.0
C1280 C 0.89393 0.51634 0.46712 0.0
C1281 C 0.89345 0.55903 0.48997 0.0
C1282 C 0.90237 0.53169 0.59329 0.0
C1283 C 0.88779 0.52811 0.65195 0.0
C1284 C 0.89652 0.52265 0.72131 0.0
C1285 C 0.92054 0.52133 0.73115 0.0
C1286 C 0.93583 0.52583 0.67243 0.0
C1287 C 0.92638 0.531 0.6026 0.0
loop_
_geom_bond_atom_site_label_1
_geom_bond_atom_site_label_2
_geom_bond_distance
_geom_bond_site_symmetry_2
_ccdc_geom_bond_type
C0 C1 1.391 . S
C0 C4 1.391 . S
C0 H42 0.948 . S
C1 C0 1.391 . S
C1 C2 1.391 . S
C2 C1 1.391 . S
C2 H58 0.947 . S
C2 C59 1.392 . S
C3 C4 1.391 . S
C3 C7 1.397 . S
C3 C59 1.419 . S
C4 C0 1.391 . S
C4 C3 1.391 . S
C4 C5 1.399 . S
C5 C4 1.399 . S
C5 C8 1.396 . S
C5 C17 1.453 . S
C5 C18 1.684 . S
H6 C30 0.948 . S
C7 C3 1.397 . S
C7 C8 1.394 . S
C7 C26 1.723 . S
C8 C5 1.396 . S
C8 C7 1.394 . S
C8 C38 1.723 . S
H9 C32 0.947 . S
H10 C33 0.948 . S
H11 C39 0.982 . S
H12 C40 0.979 . S
H13 C40 0.980 . S
H14 C40 0.983 . S
H15 C39 0.979 . S
H16 C39 0.977 . S
C17 C5 1.453 . S
C17 H46 0.982 . S
C17 H47 0.979 . S
C17 H48 0.977 . S
C18 C5 1.684 . S
C18 H43 0.979 . S
C18 H44 0.980 . S
C18 H45 0.983 . S
C19 C20 1.391 . S
C19 C24 1.391 . S
C19 H49 0.948 . S
C20 C19 1.391 . S
C20 C21 1.391 . S
C21 C20 1.391 . S
C21 C22 1.392 . S
C21 H50 0.947 . S
C22 C21 1.392 . S
C22 C23 1.419 . S
C22 H51 0.948 . S
C23 C22 1.419 . S
C23 C24 1.391 . S
C23 C27 1.397 . S
C24 C19 1.391 . S
C24 C23 1.391 . S
C24 C25 1.399 . S
C25 C24 1.399 . S
C25 C26 1.396 . S
C25 C28 1.453 . S
C25 C29 1.684 . S
C26 C7 1.723 . S
C26 C25 1.396 . S
C26 C27 1.394 . S
C27 C23 1.397 . S
C27 C26 1.394 . S
C27 C37 1.723 . S
C28 C25 1.453 . S
C28 H52 0.982 . S
C28 H53 0.979 . S
C28 H54 0.977 . S
C29 C25 1.684 . S
C29 H55 0.979 . S
C29 H56 0.980 . S
C29 H57 0.983 . S
C30 H6 0.948 . S
C30 C31 1.391 . S
C30 C35 1.391 . S
C31 C30 1.391 . S
C31 C32 1.391 . S
C32 H9 0.947 . S
C32 C31 1.391 . S
C32 C33 1.392 . S
C33 H10 0.948 . S
C33 C32 1.392 . S
C33 C34 1.419 . S
C34 C33 1.419 . S
C34 C35 1.391 . S
C34 C38 1.397 . S
C35 C30 1.391 . S
C35 C34 1.391 . S
C35 C36 1.399 . S
C36 C35 1.399 . S
C36 C37 1.396 . S
C36 C39 1.453 . S
C36 C40 1.684 . S
C37 C27 1.723 . S
C37 C36 1.396 . S
C37 C38 1.394 . S
C38 C8 1.723 . S
C38 C34 1.397 . S
C38 C37 1.394 . S
C39 H11 0.982 . S
C39 H15 0.979 . S
C39 H16 0.977 . S
C39 C36 1.453 . S
C40 H12 0.979 . S
C40 H13 0.980 . S
C40 H14 0.983 . S
C40 C36 1.684 . S
H41 C59 0.948 . S
H42 C0 0.948 . S
H43 C18 0.979 . S
H44 C18 0.980 . S
H45 C18 0.983 . S
H46 C17 0.982 . S
H47 C17 0.979 . S
H48 C17 0.977 . S
H49 C19 0.948 . S
H50 C21 0.947 . S
H51 C22 0.948 . S
H52 C28 0.982 . S
H53 C28 0.979 . S
H54 C28 0.977 . S
H55 C29 0.979 . S
H56 C29 0.980 . S
H57 C29 0.983 . S
H58 C2 0.947 . S
C59 C2 1.392 . S
C59 C3 1.419 . S
C59 H41 0.948 . S
C60 C61 1.391 . S
C60 C64 1.391 . S
C60 H102 0.948 . S
C61 C60 1.391 . S
C61 C62 1.391 . S
C62 C61 1.391 . S
C62 H118 0.947 . S
C62 C119 1.392 . S
C63 C64 1.391 . S
C63 C67 1.397 . S
C63 C119 1.419 . S
C64 C60 1.391 . S
C64 C63 1.391 . S
C64 C65 1.399 . S
C65 C64 1.399 . S
C65 C68 1.405 . S
C65 C77 1.453 1_655 S
C65 C78 1.684 . S
H66 C90 0.948 . S
C67 C63 1.397 . S
C67 C68 1.397 . S
C67 C86 1.725 . S
C68 C65 1.405 . S
C68 C67 1.397 . S
C68 C98 1.725 . S
H69 C92 0.947 . S
H70 C93 0.948 . S
H71 C99 0.982 . S
H72 C100 0.979 . S
H73 C100 0.980 . S
H74 C100 0.983 . S
H75 C99 0.979 . S
H76 C99 0.977 . S
C77 C65 1.453 1_455 S
C77 H106 0.982 . S
C77 H107 0.979 . S
C77 H108 0.977 . S
C78 C65 1.684 . S
C78 H103 0.979 . S
C78 H104 0.980 . S
C78 H105 0.983 . S
C79 C80 1.391 . S
C79 C84 1.391 . S
C79 H109 0.948 . S
C80 C79 1.391 . S
C80 C81 1.391 . S
C81 C80 1.391 . S
C81 C82 1.392 . S
C81 H110 0.947 . S
C82 C81 1.392 . S
C82 C83 1.419 . S
C82 H111 0.948 . S
C83 C82 1.419 . S
C83 C84 1.391 . S
C83 C87 1.397 . S
C84 C79 1.391 . S
C84 C83 1.391 . S
C84 C85 1.399 . S
C85 C84 1.399 . S
C85 C86 1.405 . S
C85 C88 1.453 1_655 S
C85 C89 1.684 . S
C86 C67 1.725 . S
C86 C85 1.405 . S
C86 C87 1.397 . S
C87 C83 1.397 . S
C87 C86 1.397 . S
C87 C97 1.725 . S
C88 C85 1.453 1_455 S
C88 H112 0.982 . S
C88 H113 0.979 . S
C88 H114 0.977 . S
C89 C85 1.684 . S
C89 H115 0.979 . S
C89 H116 0.980 . S
C89 H117 0.983 . S
C90 H66 0.948 . S
C90 C91 1.391 . S
C90 C95 1.391 . S
C91 C90 1.391 . S
C91 C92 1.391 . S
C92 H69 0.947 . S
C92 C91 1.391 . S
C92 C93 1.392 . S
C93 H70 0.948 . S
C93 C92 1.392 . S
C93 C94 1.419 . S
C94 C93 1.419 . S
C94 C95 1.391 . S
C94 C98 1.397 . S
C95 C90 1.391 . S
C95 C94 1.391 . S
C95 C96 1.399 . S
C96 C95 1.399 . S
C96 C97 1.404 . S
C96 C99 1.453 1_655 S
C96 C100 1.684 . S
C97 C87 1.725 . S
C97 C96 1.404 . S
C97 C98 1.397 . S
C98 C68 1.725 . S
C98 C94 1.397 . S
C98 C97 1.397 . S
C99 H71 0.982 . S
C99 H75 0.979 . S
C99 H76 0.977 . S
C99 C96 1.453 1_455 S
C100 H72 0.979 . S
C100 H73 0.980 . S
C100 H74 0.983 . S
C100 C96 1.684 . S
H101 C119 0.948 . S
H102 C60 0.948 . S
H103 C78 0.979 . S
H104 C78 0.980 . S
H105 C78 0.983 . S
H106 C77 0.982 . S
H107 C77 0.979 . S
H108 C77 0.977 . S
H109 C79 0.948 . S
H110 C81 0.947 . S
H111 C82 0.948 . S
H112 C88 0.982 . S
H113 C88 0.979 . S
H114 C88 0.977 . S
H115 C89 0.979 . S
H116 C89 0.980 . S
H117 C89 0.983 . S
H118 C62 0.947 . S
C119 C62 1.392 . S
C119 C63 1.419 . S
C119 H101 0.948 . S
C120 C121 1.391 . S
C120 C124 1.391 . S
C120 H162 0.948 . S
C121 C120 1.391 . S
C121 C122 1.391 . S
C122 C121 1.391 . S
C122 H178 0.947 . S
C122 C179 1.392 . S
C123 C124 1.391 . S
C123 C127 1.397 . S
C123 C179 1.419 . S
C124 C120 1.391 . S
C124 C123 1.391 . S
C124 C125 1.399 . S
C125 C124 1.399 . S
C125 C128 1.396 . S
C125 C137 1.453 1_565 S
C125 C138 1.684 . S
H126 C150 0.948 . S
C127 C123 1.397 . S
C127 C128 1.394 . S
C127 C146 1.723 . S
C128 C125 1.396 . S
C128 C127 1.394 . S
C128 C158 1.723 . S
H129 C152 0.947 . S
H130 C153 0.948 . S
H131 C159 0.982 . S
H132 C160 0.979 . S
H133 C160 0.980 . S
H134 C160 0.983 . S
H135 C159 0.979 . S
H136 C159 0.977 . S
C137 C125 1.453 1_545 S
C137 H166 0.982 . S
C137 H167 0.979 . S
C137 H168 0.977 . S
C138 C125 1.684 . S
C138 H163 0.979 . S
C138 H164 0.980 . S
C138 H165 0.983 . S
C139 C140 1.391 . S
C139 C144 1.391 . S
C139 H169 0.948 . S
C140 C139 1.391 . S
C140 C141 1.391 . S
C141 C140 1.391 . S
C141 C142 1.392 . S
C141 H170 0.947 . S
C142 C141 1.392 . S
C142 C143 1.419 . S
C142 H171 0.948 . S
C143 C142 1.419 . S
C143 C144 1.391 . S
C143 C147 1.397 . S
C144 C139 1.391 . S
C144 C143 1.391 . S
C144 C145 1.399 . S
C145 C144 1.399 . S
C145 C146 1.396 . S
C145 C148 1.453 1_565 S
C145 C149 1.684 . S
C146 C127 1.723 . S
C146 C145 1.396 . S
C146 C147 1.394 . S
C147 C143 1.397 . S
C147 C146 1.394 . S
C147 C157 1.723 . S
C148 C145 1.453 1_545 S
C148 H172 0.982 . S
C148 H173 0.979 . S
C148 H174 0.977 . S
C149 C145 1.684 . S
C149 H175 0.979 . S
C149 H176 0.980 . S
C149 H177 0.983 . S
C150 H126 0.948 . S
C150 C151 1.391 . S
C150 C155 1.391 . S
C151 C150 1.391 . S
C151 C152 1.391 . S
C152 H129 0.947 . S
C152 C151 1.391 . S
C152 C153 1.392 . S
C153 H130 0.948 . S
C153 C152 1.392 . S
C153 C154 1.419 . S
C154 C153 1.419 . S
C154 C155 1.391 . S
C154 C158 1.397 . S
C155 C150 1.391 . S
C155 C154 1.391 . S
C155 C156 1.399 . S
C156 C155 1.399 . S
C156 C157 1.396 . S
C156 C159 1.453 1_565 S
C156 C160 1.684 . S
C157 C147 1.723 . S
C157 C156 1.396 . S
C157 C158 1.394 . S
C158 C128 1.723 . S
C158 C154 1.397 . S
C158 C157 1.394 . S
C159 H131 0.982 . S
C159 H135 0.979 . S
C159 H136 0.977 . S
C159 C156 1.453 1_545 S
C160 H132 0.979 . S
C160 H133 0.980 . S
C160 H134 0.983 . S
C160 C156 1.684 . S
H161 C179 0.948 . S
H162 C120 0.948 . S
H163 C138 0.979 . S
H164 C138 0.980 . S
H165 C138 0.983 . S
H166 C137 0.982 . S
H167 C137 0.979 . S
H168 C137 0.977 . S
H169 C139 0.948 . S
H170 C141 0.947 . S
H171 C142 0.948 . S
H172 C148 0.982 . S
H173 C148 0.979 . S
H174 C148 0.977 . S
H175 C149 0.979 . S
H176 C149 0.980 . S
H177 C149 0.983 . S
H178 C122 0.947 . S
C179 C122 1.392 . S
C179 C123 1.419 . S
C179 H161 0.948 . S
C180 C181 1.391 . S
C180 C184 1.391 . S
C180 H222 0.948 . S
C181 C180 1.391 . S
C181 C182 1.391 . S
C182 C181 1.391 . S
C182 H238 0.947 . S
C182 C239 1.392 . S
C183 C184 1.391 . S
C183 C187 1.397 . S
C183 C239 1.419 . S
C184 C180 1.391 . S
C184 C183 1.391 . S
C184 C185 1.399 . S
C185 C184 1.399 . S
C185 C188 1.396 . S
C185 C197 1.453 . S
C185 C198 1.684 . S
H186 C210 0.948 . S
C187 C183 1.397 . S
C187 C188 1.394 . S
C187 C206 1.723 . S
C188 C185 1.396 . S
C188 C187 1.394 . S
C188 C218 1.723 . S
H189 C212 0.947 . S
H190 C213 0.948 . S
H191 C219 0.982 . S
H192 C220 0.979 . S
H193 C220 0.980 . S
H194 C220 0.983 . S
H195 C219 0.979 . S
H196 C219 0.977 . S
C197 C185 1.453 . S
C197 H226 0.982 . S
C197 H227 0.979 . S
C197 H228 0.977 . S
C198 C185 1.684 . S
C198 H223 0.979 . S
C198 H224 0.980 . S
C198 H225 0.983 . S
C199 C200 1.391 . S
C199 C204 1.391 . S
C199 H229 0.948 . S
C200 C199 1.391 . S
C200 C201 1.391 . S
C201 C200 1.391 . S
C201 C202 1.392 . S
C201 H230 0.947 . S
C202 C201 1.392 . S
C202 C203 1.419 . S
C202 H231 0.948 . S
C203 C202 1.419 . S
C203 C204 1.391 . S
C203 C207 1.397 . S
C204 C199 1.391 . S
C204 C203 1.391 . S
C204 C205 1.399 . S
C205 C204 1.399 . S
C205 C206 1.396 . S
C205 C208 1.453 . S
C205 C209 1.684 . S
C206 C187 1.723 . S
C206 C205 1.396 . S
C206 C207 1.394 . S
C207 C203 1.397 . S
C207 C206 1.394 . S
C207 C217 1.723 . S
C208 C205 1.453 . S
C208 H232 0.982 . S
C208 H233 0.979 . S
C208 H234 0.977 . S
C209 C205 1.684 . S
C209 H235 0.979 . S
C209 H236 0.980 . S
C209 H237 0.983 . S
C210 H186 0.948 . S
C210 C211 1.391 . S
C210 C215 1.391 . S
C211 C210 1.391 . S
C211 C212 1.391 . S
C212 H189 0.947 . S
C212 C211 1.391 . S
C212 C213 1.392 . S
C213 H190 0.948 . S
C213 C212 1.392 . S
C213 C214 1.419 . S
C214 C213 1.419 . S
C214 C215 1.391 . S
C214 C218 1.397 . S
C215 C210 1.391 . S
C215 C214 1.391 . S
C215 C216 1.399 . S
C216 C215 1.399 . S
C216 C217 1.396 . S
C216 C219 1.453 . S
C216 C220 1.684 . S
C217 C207 1.723 . S
C217 C216 1.396 . S
C217 C218 1.394 . S
C218 C188 1.723 . S
C218 C214 1.397 . S
C218 C217 1.394 . S
C219 H191 0.982 . S
C219 H195 0.979 . S
C219 H196 0.977 . S
C219 C216 1.453 . S
C220 H192 0.979 . S
C220 H193 0.980 . S
C220 H194 0.983 . S
C220 C216 1.684 . S
H221 C239 0.948 . S
H222 C180 0.948 . S
H223 C198 0.979 . S
H224 C198 0.980 . S
H225 C198 0.983 . S
H226 C197 0.982 . S
H227 C197 0.979 . S
H228 C197 0.977 . S
H229 C199 0.948 . S
H230 C201 0.947 . S
H231 C202 0.948 . S
H232 C208 0.982 . S
H233 C208 0.979 . S
H234 C208 0.977 . S
H235 C209 0.979 . S
H236 C209 0.980 . S
H237 C209 0.983 . S
H238 C182 0.947 . S
C239 C182 1.392 . S
C239 C183 1.419 . S
C239 H221 0.948 . S
C240 C241 1.391 . S
C240 C244 1.391 . S
C240 H282 0.961 . S
C241 C240 1.391 . S
C241 C242 1.391 . S
C242 C241 1.391 . S
C242 H298 0.947 . S
C242 C299 1.392 . S
C243 C244 1.391 . S
C243 C247 1.397 . S
C243 C299 1.419 . S
C244 C240 1.391 . S
C244 C243 1.391 . S
C244 C245 1.399 1_554 S
C245 C244 1.399 1_556 S
C245 C248 1.396 . S
C245 C257 1.453 . S
C245 C258 1.684 . S
H246 C270 0.948 . S
C247 C243 1.397 . S
C247 C248 1.394 1_554 S
C247 C266 1.723 . S
C248 C245 1.396 . S
C248 C247 1.394 1_556 S
C248 C278 1.723 . S
H249 C272 0.947 . S
H250 C273 0.948 . S
H251 C279 0.982 . S
H252 C280 0.979 . S
H253 C280 0.977 1_554 S
H254 C280 0.983 . S
H255 C279 0.979 . S
H256 C279 0.977 1_554 S
C257 C245 1.453 . S
C257 H286 0.982 . S
C257 H287 0.979 . S
C257 H288 0.977 . S
C258 C245 1.684 . S
C258 H283 0.979 . S
C258 H284 0.980 . S
C258 H285 0.983 . S
C259 C260 1.391 . S
C259 C264 1.391 . S
C259 H289 0.948 . S
C260 C259 1.391 . S
C260 C261 1.391 . S
C261 C260 1.391 . S
C261 C262 1.392 . S
C261 H290 0.947 . S
C262 C261 1.392 . S
C262 C263 1.419 . S
C262 H291 0.948 . S
C263 C262 1.419 . S
C263 C264 1.391 . S
C263 C267 1.397 . S
C264 C259 1.391 . S
C264 C263 1.391 . S
C264 C265 1.399 . S
C265 C264 1.399 . S
C265 C266 1.396 . S
C265 C268 1.453 . S
C265 C269 1.684 . S
C266 C247 1.723 . S
C266 C265 1.396 . S
C266 C267 1.394 . S
C267 C263 1.397 . S
C267 C266 1.394 . S
C267 C277 1.723 1_554 S
C268 C265 1.453 . S
C268 H292 0.982 . S
C268 H293 0.979 . S
C268 H294 0.977 . S
C269 C265 1.684 . S
C269 H295 0.979 . S
C269 H296 0.980 . S
C269 H297 0.983 . S
C270 H246 0.948 . S
C270 C271 1.391 . S
C270 C275 1.391 . S
C271 C270 1.391 . S
C271 C272 1.391 . S
C272 H249 0.947 . S
C272 C271 1.391 . S
C272 C273 1.392 . S
C273 H250 0.948 . S
C273 C272 1.392 . S
C273 C274 1.419 . S
C274 C273 1.419 . S
C274 C275 1.391 . S
C274 C278 1.397 . S
C275 C270 1.391 . S
C275 C274 1.391 . S
C275 C276 1.399 . S
C276 C275 1.399 . S
C276 C277 1.396 . S
C276 C279 1.453 . S
C276 C280 1.684 . S
C277 C267 1.723 1_556 S
C277 C276 1.396 . S
C277 C278 1.394 . S
C278 C248 1.723 . S
C278 C274 1.397 . S
C278 C277 1.394 . S
C279 H251 0.982 . S
C279 H255 0.979 . S
C279 H256 0.977 1_556 S
C279 C276 1.453 . S
C280 H252 0.979 . S
C280 H253 0.977 1_556 S
C280 H254 0.983 . S
C280 C276 1.684 . S
H281 C299 0.948 . S
H282 C240 0.961 . S
H283 C258 0.979 . S
H284 C258 0.980 . S
H285 C258 0.983 . S
H286 C257 0.982 . S
H287 C257 0.979 . S
H288 C257 0.977 . S
H289 C259 0.948 . S
H290 C261 0.947 . S
H291 C262 0.948 . S
H292 C268 0.982 . S
H293 C268 0.979 . S
H294 C268 0.977 . S
H295 C269 0.979 . S
H296 C269 0.980 . S
H297 C269 0.983 . S
H298 C242 0.947 . S
C299 C242 1.392 . S
C299 C243 1.419 . S
C299 H281 0.948 . S
C300 C301 1.391 1_655 S
C300 C304 1.391 . S
C300 H342 0.948 . S
C301 C300 1.391 1_455 S
C301 C302 1.391 . S
C302 C301 1.391 . S
C302 H358 0.947 . S
C302 C359 1.391 1_455 S
C303 C304 1.387 1_455 S
C303 C307 1.397 . S
C303 C359 1.417 1_455 S
C304 C300 1.391 . S
C304 C303 1.387 1_655 S
C304 C305 1.399 . S
C305 C304 1.399 . S
C305 C308 1.395 1_655 S
C305 C317 1.447 1_655 S
C305 C318 1.689 . S
H306 C330 0.959 . S
C307 C303 1.397 . S
C307 C308 1.394 . S
C307 C326 1.723 1_554 S
C308 C305 1.395 1_455 S
C308 C307 1.394 . S
C308 C338 1.723 . S
H309 C332 0.947 . S
H310 C333 0.951 . S
H311 C339 0.982 . S
H312 C340 0.979 . S
H313 C340 0.980 . S
H314 C340 0.983 . S
H315 C339 0.979 . S
H316 C339 0.977 . S
C317 C305 1.447 1_455 S
C317 H346 0.982 . S
C317 H347 0.979 . S
C317 H348 0.977 . S
C318 C305 1.689 . S
C318 H343 0.979 . S
C318 H344 0.980 . S
C318 H345 0.983 . S
C319 C320 1.391 1_655 S
C319 C324 1.391 . S
C319 H349 0.948 . S
C320 C319 1.391 1_455 S
C320 C321 1.391 . S
C321 C320 1.391 . S
C321 C322 1.391 1_455 S
C321 H350 0.947 . S
C322 C321 1.391 1_655 S
C322 C323 1.417 1_655 S
C322 H351 0.951 . S
C323 C322 1.417 1_455 S
C323 C324 1.388 1_455 S
C323 C327 1.397 . S
C324 C319 1.391 . S
C324 C323 1.388 1_655 S
C324 C325 1.399 . S
C325 C324 1.399 . S
C325 C326 1.395 1_655 S
C325 C328 1.447 1_655 S
C325 C329 1.689 . S
C326 C307 1.723 1_556 S
C326 C325 1.395 1_455 S
C326 C327 1.394 . S
C327 C323 1.397 . S
C327 C326 1.394 . S
C327 C337 1.723 . S
C328 C325 1.447 1_455 S
C328 H352 0.982 . S
C328 H353 0.979 . S
C328 H354 0.977 1_556 S
C329 C325 1.689 . S
C329 H355 0.979 . S
C329 H356 0.979 1_556 S
C329 H357 0.983 . S
C330 H306 0.959 . S
C330 C331 1.391 1_655 S
C330 C335 1.391 . S
C331 C330 1.391 1_455 S
C331 C332 1.391 . S
C332 H309 0.947 . S
C332 C331 1.391 . S
C332 C333 1.391 1_455 S
C333 H310 0.951 . S
C333 C332 1.391 1_655 S
C333 C334 1.417 1_655 S
C334 C333 1.417 1_455 S
C334 C335 1.387 1_455 S
C334 C338 1.397 . S
C335 C330 1.391 . S
C335 C334 1.387 1_655 S
C335 C336 1.399 1_554 S
C336 C335 1.399 1_556 S
C336 C337 1.395 1_655 S
C336 C339 1.447 1_655 S
C336 C340 1.689 . S
C337 C327 1.723 . S
C337 C336 1.395 1_455 S
C337 C338 1.394 1_556 S
C338 C308 1.723 . S
C338 C334 1.397 . S
C338 C337 1.394 1_554 S
C339 H311 0.982 . S
C339 H315 0.979 . S
C339 H316 0.977 . S
C339 C336 1.447 1_455 S
C340 H312 0.979 . S
C340 H313 0.980 . S
C340 H314 0.983 . S
C340 C336 1.689 . S
H341 C359 0.951 . S
H342 C300 0.948 . S
H343 C318 0.979 . S
H344 C318 0.980 . S
H345 C318 0.983 . S
H346 C317 0.982 . S
H347 C317 0.979 . S
H348 C317 0.977 . S
H349 C319 0.948 . S
H350 C321 0.947 . S
H351 C322 0.951 . S
H352 C328 0.982 . S
H353 C328 0.979 . S
H354 C328 0.977 1_554 S
H355 C329 0.979 . S
H356 C329 0.979 1_554 S
H357 C329 0.983 . S
H358 C302 0.947 . S
C359 C302 1.391 1_655 S
C359 C303 1.417 1_655 S
C359 H341 0.951 . S
C360 C361 1.391 . S
C360 C364 1.391 . S
C360 H402 0.948 . S
C361 C360 1.391 . S
C361 C362 1.391 . S
C362 C361 1.391 . S
C362 H418 0.947 . S
C362 C419 1.392 . S
C363 C364 1.391 . S
C363 C367 1.397 . S
C363 C419 1.419 . S
C364 C360 1.391 . S
C364 C363 1.391 . S
C364 C365 1.399 . S
C365 C364 1.399 . S
C365 C368 1.396 . S
C365 C377 1.453 1_545 S
C365 C378 1.684 . S
H366 C390 0.948 . S
C367 C363 1.397 . S
C367 C368 1.394 . S
C367 C386 1.723 1_556 S
C368 C365 1.396 . S
C368 C367 1.394 . S
C368 C398 1.723 1_556 S
H369 C392 0.947 1_556 S
H370 C393 0.948 . S
H371 C399 0.982 . S
H372 C400 0.979 . S
H373 C400 0.980 . S
H374 C400 0.983 . S
H375 C399 0.979 . S
H376 C399 0.977 . S
C377 C365 1.453 1_565 S
C377 H406 0.982 . S
C377 H407 0.979 . S
C377 H408 0.977 . S
C378 C365 1.684 . S
C378 H403 0.979 . S
C378 H404 0.980 . S
C378 H405 0.983 . S
C379 C380 1.391 . S
C379 C384 1.391 . S
C379 H409 0.948 . S
C380 C379 1.391 . S
C380 C381 1.391 . S
C381 C380 1.391 . S
C381 C382 1.392 . S
C381 H410 0.947 . S
C382 C381 1.392 . S
C382 C383 1.419 . S
C382 H411 0.948 . S
C383 C382 1.419 . S
C383 C384 1.391 . S
C383 C387 1.397 . S
C384 C379 1.391 . S
C384 C383 1.391 . S
C384 C385 1.399 . S
C385 C384 1.399 . S
C385 C386 1.396 . S
C385 C388 1.453 1_545 S
C385 C389 1.684 . S
C386 C367 1.723 1_554 S
C386 C385 1.396 . S
C386 C387 1.394 . S
C387 C383 1.397 . S
C387 C386 1.394 . S
C387 C397 1.723 . S
C388 C385 1.453 1_565 S
C388 H412 0.982 . S
C388 H413 0.979 . S
C388 H414 0.977 1_554 S
C389 C385 1.684 . S
C389 H415 0.979 . S
C389 H416 0.980 1_554 S
C389 H417 0.983 . S
C390 H366 0.948 . S
C390 C391 1.391 . S
C390 C395 1.391 . S
C391 C390 1.391 . S
C391 C392 1.391 . S
C392 H369 0.947 1_554 S
C392 C391 1.391 . S
C392 C393 1.392 1_554 S
C393 H370 0.948 . S
C393 C392 1.392 1_556 S
C393 C394 1.419 1_556 S
C394 C393 1.419 1_554 S
C394 C395 1.391 . S
C394 C398 1.397 . S
C395 C390 1.391 . S
C395 C394 1.391 . S
C395 C396 1.399 . S
C396 C395 1.399 . S
C396 C397 1.396 . S
C396 C399 1.453 1_545 S
C396 C400 1.684 . S
C397 C387 1.723 . S
C397 C396 1.396 . S
C397 C398 1.394 . S
C398 C368 1.723 1_554 S
C398 C394 1.397 . S
C398 C397 1.394 . S
C399 H371 0.982 . S
C399 H375 0.979 . S
C399 H376 0.977 . S
C399 C396 1.453 1_565 S
C400 H372 0.979 . S
C400 H373 0.980 . S
C400 H374 0.983 . S
C400 C396 1.684 . S
H401 C419 0.948 . S
H402 C360 0.948 . S
H403 C378 0.979 . S
H404 C378 0.980 . S
H405 C378 0.983 . S
H406 C377 0.982 . S
H407 C377 0.979 . S
H408 C377 0.977 . S
H409 C379 0.948 . S
H410 C381 0.947 . S
H411 C382 0.948 . S
H412 C388 0.982 . S
H413 C388 0.979 . S
H414 C388 0.977 1_556 S
H415 C389 0.979 . S
H416 C389 0.980 1_556 S
H417 C389 0.983 . S
H418 C362 0.947 . S
C419 C362 1.392 . S
C419 C363 1.419 . S
C419 H401 0.948 . S
C420 C421 1.391 . S
C420 C424 1.391 . S
C420 H462 0.948 . S
C421 C420 1.391 . S
C421 C422 1.391 . S
C422 C421 1.391 . S
C422 H478 0.947 . S
C422 C479 1.392 . S
C423 C424 1.391 . S
C423 C427 1.397 . S
C423 C479 1.419 . S
C424 C420 1.391 . S
C424 C423 1.391 . S
C424 C425 1.399 . S
C425 C424 1.399 . S
C425 C428 1.396 . S
C425 C437 1.453 . S
C425 C438 1.684 . S
H426 C450 0.948 . S
C427 C423 1.397 . S
C427 C428 1.394 . S
C427 C446 1.723 1_556 S
C428 C425 1.396 . S
C428 C427 1.394 . S
C428 C458 1.723 1_556 S
H429 C452 0.947 1_556 S
H430 C453 0.948 . S
H431 C459 0.982 . S
H432 C460 0.979 . S
H433 C460 0.980 . S
H434 C460 0.983 . S
H435 C459 0.979 . S
H436 C459 0.977 . S
C437 C425 1.453 . S
C437 H466 0.982 . S
C437 H467 0.979 . S
C437 H468 0.977 . S
C438 C425 1.684 . S
C438 H463 0.979 . S
C438 H464 0.980 . S
C438 H465 0.983 . S
C439 C440 1.391 . S
C439 C444 1.391 . S
C439 H469 0.948 . S
C440 C439 1.391 . S
C440 C441 1.391 . S
C441 C440 1.391 . S
C441 C442 1.392 . S
C441 H470 0.947 . S
C442 C441 1.392 . S
C442 C443 1.419 . S
C442 H471 0.948 . S
C443 C442 1.419 . S
C443 C444 1.391 . S
C443 C447 1.397 . S
C444 C439 1.391 . S
C444 C443 1.391 . S
C444 C445 1.399 . S
C445 C444 1.399 . S
C445 C446 1.396 . S
C445 C448 1.453 . S
C445 C449 1.684 . S
C446 C427 1.723 1_554 S
C446 C445 1.396 . S
C446 C447 1.394 . S
C447 C443 1.397 . S
C447 C446 1.394 . S
C447 C457 1.723 . S
C448 C445 1.453 . S
C448 H472 0.982 . S
C448 H473 0.979 . S
C448 H474 0.977 1_554 S
C449 C445 1.684 . S
C449 H475 0.979 . S
C449 H476 0.980 1_554 S
C449 H477 0.983 . S
C450 H426 0.948 . S
C450 C451 1.391 . S
C450 C455 1.391 . S
C451 C450 1.391 . S
C451 C452 1.391 . S
C452 H429 0.947 1_554 S
C452 C451 1.391 . S
C452 C453 1.392 1_554 S
C453 H430 0.948 . S
C453 C452 1.392 1_556 S
C453 C454 1.419 1_556 S
C454 C453 1.419 1_554 S
C454 C455 1.391 . S
C454 C458 1.397 . S
C455 C450 1.391 . S
C455 C454 1.391 . S
C455 C456 1.399 . S
C456 C455 1.399 . S
C456 C457 1.396 . S
C456 C459 1.453 . S
C456 C460 1.684 . S
C457 C447 1.723 . S
C457 C456 1.396 . S
C457 C458 1.394 . S
C458 C428 1.723 1_554 S
C458 C454 1.397 . S
C458 C457 1.394 . S
C459 H431 0.982 . S
C459 H435 0.979 . S
C459 H436 0.977 . S
C459 C456 1.453 . S
C460 H432 0.979 . S
C460 H433 0.980 . S
C460 H434 0.983 . S
C460 C456 1.684 . S
H461 C479 0.948 . S
H462 C420 0.948 . S
H463 C438 0.979 . S
H464 C438 0.980 . S
H465 C438 0.983 . S
H466 C437 0.982 . S
H467 C437 0.979 . S
H468 C437 0.977 . S
H469 C439 0.948 . S
H470 C441 0.947 . S
H471 C442 0.948 . S
H472 C448 0.982 . S
H473 C448 0.979 . S
H474 C448 0.977 1_556 S
H475 C449 0.979 . S
H476 C449 0.980 1_556 S
H477 C449 0.983 . S
H478 C422 0.947 . S
C479 C422 1.392 . S
C479 C423 1.419 . S
C479 H461 0.948 . S
Gd480 C483 2.818 . S
Gd480 O500 2.377 . S
Gd480 O502 2.448 . S
Gd480 O503 2.506 . S
Gd480 O504 2.435 . S
Gd480 O505 2.717 1_565 S
Gd480 O507 2.395 1_565 S
Gd480 O511 2.327 1_455 S
Gd481 C492 2.818 . S
Gd481 O501 2.395 1_545 S
Gd481 O505 2.327 1_655 S
Gd481 O506 2.377 . S
Gd481 O508 2.448 . S
Gd481 O509 2.506 . S
Gd481 O510 2.435 . S
Gd481 O511 2.717 1_545 S
C482 O500 1.240 1_655 S
C482 O501 1.240 . S
C483 Gd480 2.818 . S
C483 C484 1.510 . S
C483 O502 1.249 . S
C483 O503 1.252 . S
C484 C483 1.510 . S
C484 C485 1.404 . S
C484 C486 1.352 . S
C485 C484 1.404 . S
C485 C489 1.389 . S
C485 H512 0.930 . S
C486 C484 1.352 . S
C486 C488 1.374 . S
C486 H513 0.931 1_455 S
C487 C488 1.359 . S
C487 C489 1.364 . S
C488 C486 1.374 . S
C488 C487 1.359 . S
C488 H514 0.931 1_455 S
C489 C485 1.389 . S
C489 C487 1.364 . S
C489 H515 0.931 . S
C490 O504 1.235 1_545 S
C490 O505 1.270 . S
C491 O506 1.240 1_455 S
C491 O507 1.240 . S
C492 Gd481 2.818 . S
C492 C493 1.510 . S
C492 O508 1.249 . S
C492 O509 1.252 . S
C493 C492 1.510 . S
C493 C494 1.404 . S
C493 C495 1.352 . S
C494 C493 1.404 . S
C494 C498 1.389 . S
C494 H516 0.930 . S
C495 C493 1.352 . S
C495 C497 1.374 . S
C495 H517 0.931 1_655 S
C496 C497 1.359 . S
C496 C498 1.364 . S
C497 C495 1.374 . S
C497 C496 1.359 . S
C497 H518 0.931 1_655 S
C498 C494 1.389 . S
C498 C496 1.364 . S
C498 H519 0.931 . S
C499 O510 1.256 . S
C499 O511 1.257 1_545 S
O500 Gd480 2.377 . S
O500 C482 1.240 1_455 S
O501 Gd481 2.395 1_565 S
O501 C482 1.240 . S
O502 Gd480 2.448 . S
O502 C483 1.249 . S
O503 Gd480 2.506 . S
O503 C483 1.252 . S
O504 Gd480 2.435 . S
O504 C490 1.235 1_565 S
O505 Gd480 2.717 1_545 S
O505 Gd481 2.327 1_455 S
O505 C490 1.270 . S
O506 Gd481 2.377 . S
O506 C491 1.240 1_655 S
O507 Gd480 2.395 1_545 S
O507 C491 1.240 . S
O508 Gd481 2.448 . S
O508 C492 1.249 . S
O509 Gd481 2.506 . S
O509 C492 1.252 . S
O510 Gd481 2.435 . S
O510 C499 1.256 . S
O511 Gd480 2.327 1_655 S
O511 Gd481 2.717 1_565 S
O511 C499 1.257 1_565 S
H512 C485 0.930 . S
H513 C486 0.931 1_655 S
H514 C488 0.931 1_655 S
H515 C489 0.931 . S
H516 C494 0.930 . S
H517 C495 0.931 1_455 S
H518 C497 0.931 1_455 S
H519 C498 0.931 . S
Gd520 C523 2.818 . S
Gd520 O540 2.377 . S
Gd520 O542 2.448 . S
Gd520 O543 2.506 . S
Gd520 O544 2.435 . S
Gd520 O545 2.717 . S
Gd520 O547 2.395 . S
Gd520 O551 2.327 1_545 S
Gd521 C532 2.818 . S
Gd521 O541 2.395 . S
Gd521 O545 2.327 1_565 S
Gd521 O546 2.377 . S
Gd521 O548 2.448 . S
Gd521 O549 2.506 . S
Gd521 O550 2.435 . S
Gd521 O551 2.717 . S
C522 O540 1.240 1_565 S
C522 O541 1.240 . S
C523 Gd520 2.818 . S
C523 C524 1.510 . S
C523 O542 1.249 . S
C523 O543 1.252 . S
C524 C523 1.510 . S
C524 C525 1.404 . S
C524 C526 1.352 . S
C525 C524 1.404 . S
C525 C529 1.389 . S
C525 H552 0.930 . S
C526 C524 1.352 . S
C526 C528 1.374 . S
C526 H553 0.931 1_545 S
C527 C528 1.359 . S
C527 C529 1.364 . S
C528 C526 1.374 . S
C528 C527 1.359 . S
C528 H554 0.931 1_545 S
C529 C525 1.389 . S
C529 C527 1.364 . S
C529 H555 0.931 . S
C530 O544 1.256 . S
C530 O545 1.257 . S
C531 O546 1.240 1_545 S
C531 O547 1.240 . S
C532 Gd521 2.818 . S
C532 C533 1.510 . S
C532 O548 1.249 . S
C532 O549 1.252 . S
C533 C532 1.510 . S
C533 C534 1.404 . S
C533 C535 1.352 . S
C534 C533 1.404 . S
C534 C538 1.389 . S
C534 H556 0.930 . S
C535 C533 1.352 . S
C535 C537 1.374 . S
C535 H557 0.931 1_565 S
C536 C537 1.359 . S
C536 C538 1.364 . S
C537 C535 1.374 . S
C537 C536 1.359 . S
C537 H558 0.931 1_565 S
C538 C534 1.389 . S
C538 C536 1.364 . S
C538 H559 0.931 . S
C539 O550 1.256 . S
C539 O551 1.257 . S
O540 Gd520 2.377 . S
O540 C522 1.240 1_545 S
O541 Gd521 2.395 . S
O541 C522 1.240 . S
O542 Gd520 2.448 . S
O542 C523 1.249 . S
O543 Gd520 2.506 . S
O543 C523 1.252 . S
O544 Gd520 2.435 . S
O544 C530 1.256 . S
O545 Gd520 2.717 . S
O545 Gd521 2.327 1_545 S
O545 C530 1.257 . S
O546 Gd521 2.377 . S
O546 C531 1.240 1_565 S
O547 Gd520 2.395 . S
O547 C531 1.240 . S
O548 Gd521 2.448 . S
O548 C532 1.249 . S
O549 Gd521 2.506 . S
O549 C532 1.252 . S
O550 Gd521 2.435 . S
O550 C539 1.256 . S
O551 Gd520 2.327 1_565 S
O551 Gd521 2.717 . S
O551 C539 1.257 . S
H552 C525 0.930 . S
H553 C526 0.931 1_565 S
H554 C528 0.931 1_565 S
H555 C529 0.931 . S
H556 C534 0.930 . S
H557 C535 0.931 1_545 S
H558 C537 0.931 1_545 S
H559 C538 0.931 . S
Gd560 C563 2.818 . S
Gd560 O580 2.377 . S
Gd560 O582 2.448 . S
Gd560 O583 2.506 . S
Gd560 O584 2.435 . S
Gd560 O585 2.717 . S
Gd560 O587 2.395 . S
Gd560 O591 2.327 . S
Gd561 C572 2.818 . S
Gd561 O581 2.395 . S
Gd561 O585 2.327 . S
Gd561 O586 2.377 . S
Gd561 O588 2.448 . S
Gd561 O589 2.506 . S
Gd561 O590 2.435 . S
Gd561 O591 2.717 . S
C562 O580 1.240 . S
C562 O581 1.240 . S
C563 Gd560 2.818 . S
C563 C564 1.510 . S
C563 O582 1.249 . S
C563 O583 1.252 . S
C564 C563 1.510 . S
C564 C565 1.404 . S
C564 C566 1.352 . S
C565 C564 1.404 . S
C565 C569 1.389 . S
C565 H592 0.930 . S
C566 C564 1.352 . S
C566 C568 1.374 . S
C566 H593 0.931 . S
C567 C568 1.359 . S
C567 C569 1.364 . S
C568 C566 1.374 . S
C568 C567 1.359 . S
C568 H594 0.931 . S
C569 C565 1.389 . S
C569 C567 1.364 . S
C569 H595 0.931 . S
C570 O584 1.256 . S
C570 O585 1.257 . S
C571 O586 1.240 . S
C571 O587 1.240 . S
C572 Gd561 2.818 . S
C572 C573 1.510 . S
C572 O588 1.249 . S
C572 O589 1.252 . S
C573 C572 1.510 . S
C573 C574 1.404 . S
C573 C575 1.352 . S
C574 C573 1.404 . S
C574 C578 1.389 . S
C574 H596 0.930 . S
C575 C573 1.352 . S
C575 C577 1.374 . S
C575 H597 0.931 . S
C576 C577 1.359 . S
C576 C578 1.364 . S
C577 C575 1.374 . S
C577 C576 1.359 . S
C577 H598 0.931 . S
C578 C574 1.389 . S
C578 C576 1.364 . S
C578 H599 0.931 . S
C579 O590 1.256 . S
C579 O591 1.257 . S
O580 Gd560 2.377 . S
O580 C562 1.240 . S
O581 Gd561 2.395 . S
O581 C562 1.240 . S
O582 Gd560 2.448 . S
O582 C563 1.249 . S
O583 Gd560 2.506 . S
O583 C563 1.252 . S
O584 Gd560 2.435 . S
O584 C570 1.256 . S
O585 Gd560 2.717 . S
O585 Gd561 2.327 . S
O585 C570 1.257 . S
O586 Gd561 2.377 . S
O586 C571 1.240 . S
O587 Gd560 2.395 . S
O587 C571 1.240 . S
O588 Gd561 2.448 . S
O588 C572 1.249 . S
O589 Gd561 2.506 . S
O589 C572 1.252 . S
O590 Gd561 2.435 . S
O590 C579 1.256 . S
O591 Gd560 2.327 . S
O591 Gd561 2.717 . S
O591 C579 1.257 . S
H592 C565 0.930 . S
H593 C566 0.931 . S
H594 C568 0.931 . S
H595 C569 0.931 . S
H596 C574 0.930 . S
H597 C575 0.931 . S
H598 C577 0.931 . S
H599 C578 0.931 . S
Gd600 C603 2.818 . S
Gd600 O620 2.377 . S
Gd600 O622 2.448 . S
Gd600 O623 2.506 . S
Gd600 O624 2.435 . S
Gd600 O625 2.717 1_655 S
Gd600 O627 2.395 1_655 S
Gd600 O631 2.327 . S
Gd601 C612 2.818 . S
Gd601 O621 2.395 1_455 S
Gd601 O625 2.327 . S
Gd601 O626 2.377 . S
Gd601 O628 2.448 . S
Gd601 O629 2.506 . S
Gd601 O630 2.435 . S
Gd601 O631 2.717 1_455 S
C602 O620 1.240 . S
C602 O621 1.240 . S
C603 Gd600 2.818 . S
C603 C604 1.510 . S
C603 O622 1.249 . S
C603 O623 1.252 . S
C604 C603 1.510 . S
C604 C605 1.404 . S
C604 C606 1.352 . S
C605 C604 1.404 . S
C605 C609 1.389 . S
C605 H632 0.930 . S
C606 C604 1.352 . S
C606 C608 1.374 . S
C606 H633 0.931 . S
C607 C608 1.359 . S
C607 C609 1.364 . S
C608 C606 1.374 . S
C608 C607 1.359 . S
C608 H634 0.931 . S
C609 C605 1.389 . S
C609 C607 1.364 . S
C609 H635 0.931 . S
C610 O624 1.275 . S
C610 O625 1.247 1_655 S
C611 O626 1.240 . S
C611 O627 1.240 . S
C612 Gd601 2.818 . S
C612 C613 1.510 . S
C612 O628 1.249 . S
C612 O629 1.252 . S
C613 C612 1.510 . S
C613 C614 1.404 . S
C613 C615 1.352 . S
C614 C613 1.404 . S
C614 C618 1.389 . S
C614 H636 0.930 . S
C615 C613 1.352 . S
C615 C617 1.374 . S
C615 H637 0.931 . S
C616 C617 1.359 . S
C616 C618 1.364 . S
C617 C615 1.374 . S
C617 C616 1.359 . S
C617 H638 0.931 . S
C618 C614 1.389 . S
C618 C616 1.364 . S
C618 H639 0.931 . S
C619 O630 1.256 . S
C619 O631 1.257 1_455 S
O620 Gd600 2.377 . S
O620 C602 1.240 . S
O621 Gd601 2.395 1_655 S
O621 C602 1.240 . S
O622 Gd600 2.448 . S
O622 C603 1.249 . S
O623 Gd600 2.506 . S
O623 C603 1.252 . S
O624 Gd600 2.435 . S
O624 C610 1.275 . S
O625 Gd600 2.717 1_455 S
O625 Gd601 2.327 . S
O625 C610 1.247 1_455 S
O626 Gd601 2.377 . S
O626 C611 1.240 . S
O627 Gd600 2.395 1_455 S
O627 C611 1.240 . S
O628 Gd601 2.448 . S
O628 C612 1.249 . S
O629 Gd601 2.506 . S
O629 C612 1.252 . S
O630 Gd601 2.435 . S
O630 C619 1.256 . S
O631 Gd600 2.327 . S
O631 Gd601 2.717 1_655 S
O631 C619 1.257 1_655 S
H632 C605 0.930 . S
H633 C606 0.931 . S
H634 C608 0.931 . S
H635 C609 0.931 . S
H636 C614 0.930 . S
H637 C615 0.931 . S
H638 C617 0.931 . S
H639 C618 0.931 . S
H640 C652 0.930 . S
H641 C654 0.930 . S
H642 C655 0.930 . S
H643 C659 0.959 . S
H644 C659 0.959 . S
H645 C659 0.961 . S
H646 C660 0.960 . S
H647 C660 0.961 . S
H648 C660 0.959 . S
H649 C663 0.929 . S
H650 C664 0.931 . S
H651 C666 0.930 . S
C652 H640 0.930 . S
C652 C653 1.399 1_565 S
C652 C657 1.399 . S
C653 C652 1.399 1_545 S
C653 C654 1.376 . S
C654 H641 0.930 . S
C654 C653 1.376 . S
C654 C655 1.388 . S
C655 H642 0.930 . S
C655 C654 1.388 . S
C655 C656 1.390 . S
C656 C655 1.390 . S
C656 C657 1.394 1_545 S
C656 C662 1.465 . S
C657 C652 1.399 . S
C657 C656 1.394 1_565 S
C657 C658 1.516 . S
C658 C657 1.516 . S
C658 C659 1.502 . S
C658 C660 1.561 . S
C658 C661 1.526 . S
C659 H643 0.959 . S
C659 H644 0.959 . S
C659 H645 0.961 . S
C659 C658 1.502 . S
C660 H646 0.960 . S
C660 H647 0.961 . S
C660 H648 0.959 . S
C660 C658 1.561 . S
C661 C658 1.526 . S
C661 C662 1.396 1_565 S
C661 C666 1.390 . S
C662 C656 1.465 . S
C662 C661 1.396 1_545 S
C662 C663 1.399 . S
C663 H649 0.929 . S
C663 C662 1.399 . S
C663 C664 1.385 . S
C664 H650 0.931 . S
C664 C663 1.385 . S
C664 C665 1.389 . S
C665 C664 1.389 . S
C665 C666 1.387 1_545 S
C666 H651 0.930 . S
C666 C661 1.390 . S
C666 C665 1.387 1_565 S
H667 C679 0.930 . S
H668 C681 0.930 . S
H669 C682 0.930 . S
H670 C686 0.959 . S
H671 C686 0.959 . S
H672 C686 0.961 . S
H673 C687 0.960 . S
H674 C687 0.961 . S
H675 C687 0.959 . S
H676 C690 0.929 . S
H677 C691 0.931 . S
H678 C693 0.930 . S
C679 H667 0.930 . S
C679 C680 1.399 . S
C679 C684 1.399 . S
C680 C679 1.399 . S
C680 C681 1.376 . S
C681 H668 0.930 . S
C681 C680 1.376 . S
C681 C682 1.388 . S
C682 H669 0.930 . S
C682 C681 1.388 . S
C682 C683 1.390 . S
C683 C682 1.390 . S
C683 C684 1.394 . S
C683 C689 1.465 . S
C684 C679 1.399 . S
C684 C683 1.394 . S
C684 C685 1.516 . S
C685 C684 1.516 . S
C685 C686 1.502 . S
C685 C687 1.561 . S
C685 C688 1.526 . S
C686 H670 0.959 . S
C686 H671 0.959 . S
C686 H672 0.961 . S
C686 C685 1.502 . S
C687 H673 0.960 . S
C687 H674 0.961 . S
C687 H675 0.959 . S
C687 C685 1.561 . S
C688 C685 1.526 . S
C688 C689 1.396 . S
C688 C693 1.390 . S
C689 C683 1.465 . S
C689 C688 1.396 . S
C689 C690 1.399 . S
C690 H676 0.929 . S
C690 C689 1.399 . S
C690 C691 1.385 . S
C691 H677 0.931 . S
C691 C690 1.385 . S
C691 C692 1.389 . S
C692 C691 1.389 . S
C692 C693 1.387 . S
C693 H678 0.930 . S
C693 C688 1.390 . S
C693 C692 1.387 . S
H694 C706 0.930 . S
H695 C708 0.930 . S
H696 C709 0.930 . S
H697 C713 0.959 . S
H698 C713 0.959 . S
H699 C713 0.961 . S
H700 C714 0.960 . S
H701 C714 0.961 . S
H702 C714 0.959 . S
H703 C717 0.929 . S
H704 C718 0.931 . S
H705 C720 0.930 . S
C706 H694 0.930 . S
C706 C707 1.399 . S
C706 C711 1.399 . S
C707 C706 1.399 . S
C707 C708 1.376 . S
C708 H695 0.930 . S
C708 C707 1.376 . S
C708 C709 1.388 . S
C709 H696 0.930 . S
C709 C708 1.388 . S
C709 C710 1.390 . S
C710 C709 1.390 . S
C710 C711 1.394 . S
C710 C716 1.465 . S
C711 C706 1.399 . S
C711 C710 1.394 . S
C711 C712 1.516 . S
C712 C711 1.516 . S
C712 C713 1.502 . S
C712 C714 1.561 . S
C712 C715 1.526 . S
C713 H697 0.959 . S
C713 H698 0.959 . S
C713 H699 0.961 . S
C713 C712 1.502 . S
C714 H700 0.960 . S
C714 H701 0.961 . S
C714 H702 0.959 . S
C714 C712 1.561 . S
C715 C712 1.526 . S
C715 C716 1.396 . S
C715 C720 1.390 . S
C716 C710 1.465 . S
C716 C715 1.396 . S
C716 C717 1.399 . S
C717 H703 0.929 . S
C717 C716 1.399 . S
C717 C718 1.385 . S
C718 H704 0.931 . S
C718 C717 1.385 . S
C718 C719 1.389 . S
C719 C718 1.389 . S
C719 C720 1.387 . S
C720 H705 0.930 . S
C720 C715 1.390 . S
C720 C719 1.387 . S
H721 C733 0.930 . S
H722 C735 0.930 . S
H723 C736 0.930 . S
H724 C740 0.959 . S
H725 C740 0.959 . S
H726 C740 0.961 . S
H727 C741 0.960 . S
H728 C741 0.961 . S
H729 C741 0.959 . S
H730 C744 0.929 . S
H731 C745 0.931 . S
H732 C747 0.930 . S
C733 H721 0.930 . S
C733 C734 1.399 1_655 S
C733 C738 1.399 . S
C734 C733 1.399 1_455 S
C734 C735 1.376 . S
C735 H722 0.930 . S
C735 C734 1.376 . S
C735 C736 1.388 . S
C736 H723 0.930 . S
C736 C735 1.388 . S
C736 C737 1.390 . S
C737 C736 1.390 . S
C737 C738 1.393 1_455 S
C737 C743 1.465 . S
C738 C733 1.399 . S
C738 C737 1.393 1_655 S
C738 C739 1.517 . S
C739 C738 1.517 . S
C739 C740 1.502 . S
C739 C741 1.561 1_655 S
C739 C742 1.527 . S
C740 H724 0.959 . S
C740 H725 0.959 . S
C740 H726 0.961 . S
C740 C739 1.502 . S
C741 H727 0.960 . S
C741 H728 0.961 . S
C741 H729 0.959 . S
C741 C739 1.561 1_455 S
C742 C739 1.527 . S
C742 C743 1.393 1_655 S
C742 C747 1.390 . S
C743 C737 1.465 . S
C743 C742 1.393 1_455 S
C743 C744 1.399 . S
C744 H730 0.929 . S
C744 C743 1.399 . S
C744 C745 1.385 . S
C745 H731 0.931 . S
C745 C744 1.385 . S
C745 C746 1.389 . S
C746 C745 1.389 . S
C746 C747 1.387 1_455 S
C747 H732 0.930 . S
C747 C742 1.390 . S
C747 C746 1.387 1_655 S
H748 C760 0.930 . S
H749 C762 0.930 . S
H750 C763 0.930 . S
H751 C767 0.956 1_556 S
H752 C767 0.953 1_556 S
H753 C767 0.967 . S
H754 C768 0.960 . S
H755 C768 0.961 . S
H756 C768 0.959 . S
H757 C771 0.929 . S
H758 C772 0.931 . S
H759 C774 0.930 . S
C760 H748 0.930 . S
C760 C761 1.399 1_545 S
C760 C765 1.399 . S
C761 C760 1.399 1_565 S
C761 C762 1.376 . S
C762 H749 0.930 . S
C762 C761 1.376 . S
C762 C763 1.388 . S
C763 H750 0.930 . S
C763 C762 1.388 . S
C763 C764 1.390 . S
C764 C763 1.390 . S
C764 C765 1.394 1_565 S
C764 C770 1.465 . S
C765 C760 1.399 . S
C765 C764 1.394 1_545 S
C765 C766 1.516 . S
C766 C765 1.516 . S
C766 C767 1.505 . S
C766 C768 1.561 . S
C766 C769 1.526 1_554 S
C767 H751 0.956 1_554 S
C767 H752 0.953 1_554 S
C767 H753 0.967 . S
C767 C766 1.505 . S
C768 H754 0.960 . S
C768 H755 0.961 . S
C768 H756 0.959 . S
C768 C766 1.561 . S
C769 C766 1.526 1_556 S
C769 C770 1.396 1_546 S
C769 C774 1.390 . S
C770 C764 1.465 . S
C770 C769 1.396 1_564 S
C770 C771 1.399 1_554 S
C771 H757 0.929 . S
C771 C770 1.399 1_556 S
C771 C772 1.385 . S
C772 H758 0.931 . S
C772 C771 1.385 . S
C772 C773 1.389 . S
C773 C772 1.389 . S
C773 C774 1.387 1_565 S
C774 H759 0.930 . S
C774 C769 1.390 . S
C774 C773 1.387 1_545 S
H775 C787 0.930 . S
H776 C789 0.930 . S
H777 C790 0.930 . S
H778 C794 0.959 . S
H779 C794 0.959 . S
H780 C794 0.961 . S
H781 C795 0.960 . S
H782 C795 0.961 . S
H783 C795 0.959 . S
H784 C798 0.929 . S
H785 C799 0.931 . S
H786 C801 0.930 . S
C787 H775 0.930 . S
C787 C788 1.399 . S
C787 C792 1.399 . S
C788 C787 1.399 . S
C788 C789 1.376 . S
C789 H776 0.930 . S
C789 C788 1.376 . S
C789 C790 1.388 . S
C790 H777 0.930 . S
C790 C789 1.388 . S
C790 C791 1.390 . S
C791 C790 1.390 . S
C791 C792 1.394 . S
C791 C797 1.465 1_554 S
C792 C787 1.399 . S
C792 C791 1.394 . S
C792 C793 1.516 . S
C793 C792 1.516 . S
C793 C794 1.502 . S
C793 C795 1.561 . S
C793 C796 1.526 1_554 S
C794 H778 0.959 . S
C794 H779 0.959 . S
C794 H780 0.961 . S
C794 C793 1.502 . S
C795 H781 0.960 . S
C795 H782 0.961 . S
C795 H783 0.959 . S
C795 C793 1.561 . S
C796 C793 1.526 1_556 S
C796 C797 1.396 . S
C796 C801 1.390 . S
C797 C791 1.465 1_556 S
C797 C796 1.396 . S
C797 C798 1.399 . S
C798 H784 0.929 . S
C798 C797 1.399 . S
C798 C799 1.385 . S
C799 H785 0.931 . S
C799 C798 1.385 . S
C799 C800 1.389 . S
C800 C799 1.389 . S
C800 C801 1.387 . S
C801 H786 0.930 . S
C801 C796 1.390 . S
C801 C800 1.387 . S
H802 C814 0.930 . S
H803 C816 0.930 . S
H804 C817 0.930 . S
H805 C821 0.959 . S
H806 C821 0.959 . S
H807 C821 0.961 1_554 S
H808 C822 0.960 . S
H809 C822 0.954 1_556 S
H810 C822 0.959 . S
H811 C825 0.929 . S
H812 C826 0.931 . S
H813 C828 0.930 . S
C814 H802 0.930 . S
C814 C815 1.399 . S
C814 C819 1.399 . S
C815 C814 1.399 . S
C815 C816 1.376 . S
C816 H803 0.930 . S
C816 C815 1.376 . S
C816 C817 1.388 . S
C817 H804 0.930 . S
C817 C816 1.388 . S
C817 C818 1.390 . S
C818 C817 1.390 . S
C818 C819 1.394 . S
C818 C824 1.465 . S
C819 C814 1.399 . S
C819 C818 1.394 . S
C819 C820 1.516 . S
C820 C819 1.516 . S
C820 C821 1.502 1_554 S
C820 C822 1.561 . S
C820 C823 1.526 1_554 S
C821 H805 0.959 . S
C821 H806 0.959 . S
C821 H807 0.961 1_556 S
C821 C820 1.502 1_556 S
C822 H808 0.960 . S
C822 H809 0.954 1_554 S
C822 H810 0.959 . S
C822 C820 1.561 . S
C823 C820 1.526 1_556 S
C823 C824 1.396 1_556 S
C823 C828 1.390 . S
C824 C818 1.465 . S
C824 C823 1.396 1_554 S
C824 C825 1.399 1_554 S
C825 H811 0.929 . S
C825 C824 1.399 1_556 S
C825 C826 1.385 . S
C826 H812 0.931 . S
C826 C825 1.385 . S
C826 C827 1.389 . S
C827 C826 1.389 . S
C827 C828 1.387 . S
C828 H813 0.930 . S
C828 C823 1.390 . S
C828 C827 1.387 . S
H829 C841 0.930 . S
H830 C843 0.930 . S
H831 C844 0.930 . S
H832 C848 0.959 1_554 S
H833 C848 0.959 . S
H834 C848 0.961 1_554 S
H835 C849 0.965 . S
H836 C849 0.961 . S
H837 C849 0.959 1_455 S
H838 C852 0.929 1_554 S
H839 C853 0.931 . S
H840 C855 0.930 . S
C841 H829 0.930 . S
C841 C842 1.397 1_655 S
C841 C846 1.399 . S
C842 C841 1.397 1_455 S
C842 C843 1.379 . S
C843 H830 0.930 . S
C843 C842 1.379 . S
C843 C844 1.388 . S
C844 H831 0.930 . S
C844 C843 1.388 . S
C844 C845 1.390 . S
C845 C844 1.390 . S
C845 C846 1.394 1_455 S
C845 C851 1.465 . S
C846 C841 1.399 . S
C846 C845 1.394 1_655 S
C846 C847 1.524 . S
C847 C846 1.524 . S
C847 C848 1.501 1_554 S
C847 C849 1.558 1_554 S
C847 C850 1.522 1_554 S
C848 H832 0.959 1_556 S
C848 H833 0.959 . S
C848 H834 0.961 1_556 S
C848 C847 1.501 1_556 S
C849 H835 0.965 . S
C849 H836 0.961 . S
C849 H837 0.959 1_655 S
C849 C847 1.558 1_556 S
C850 C847 1.522 1_556 S
C850 C851 1.396 1_656 S
C850 C855 1.390 . S
C851 C845 1.465 . S
C851 C850 1.396 1_454 S
C851 C852 1.399 1_554 S
C852 H838 0.929 1_556 S
C852 C851 1.399 1_556 S
C852 C853 1.385 . S
C853 H839 0.931 . S
C853 C852 1.385 . S
C853 C854 1.389 1_455 S
C854 C853 1.389 1_655 S
C854 C855 1.387 . S
C855 H840 0.930 . S
C855 C850 1.390 . S
C855 C854 1.387 . S
H856 C868 0.930 . S
H857 C870 0.930 . S
H858 C871 0.930 . S
H859 C875 0.959 . S
H860 C875 0.959 . S
H861 C875 0.961 . S
H862 C876 0.968 . S
H863 C876 0.951 1_655 S
H864 C876 0.980 . S
H865 C879 0.929 . S
H866 C880 0.931 . S
H867 C882 0.930 . S
C868 H856 0.930 . S
C868 C869 1.399 1_655 S
C868 C873 1.399 . S
C869 C868 1.399 1_455 S
C869 C870 1.376 . S
C870 H857 0.930 . S
C870 C869 1.376 . S
C870 C871 1.388 . S
C871 H858 0.930 . S
C871 C870 1.388 . S
C871 C872 1.390 1_455 S
C872 C871 1.390 1_655 S
C872 C873 1.394 . S
C872 C878 1.465 . S
C873 C868 1.399 . S
C873 C872 1.394 . S
C873 C874 1.516 . S
C874 C873 1.516 . S
C874 C875 1.502 . S
C874 C876 1.542 1_655 S
C874 C877 1.526 . S
C875 H859 0.959 . S
C875 H860 0.959 . S
C875 H861 0.961 . S
C875 C874 1.502 . S
C876 H862 0.968 . S
C876 H863 0.951 1_455 S
C876 H864 0.980 . S
C876 C874 1.542 1_455 S
C877 C874 1.526 . S
C877 C878 1.396 . S
C877 C882 1.390 . S
C878 C872 1.465 . S
C878 C877 1.396 . S
C878 C879 1.399 . S
C879 H865 0.929 . S
C879 C878 1.399 . S
C879 C880 1.385 . S
C880 H866 0.931 . S
C880 C879 1.385 . S
C880 C881 1.389 . S
C881 C880 1.389 . S
C881 C882 1.387 . S
C882 H867 0.930 . S
C882 C877 1.390 . S
C882 C881 1.387 . S
H883 C895 0.930 . S
H884 C897 0.930 . S
H885 C898 0.930 . S
H886 C902 0.959 . S
H887 C902 0.959 . S
H888 C902 0.961 . S
H889 C903 0.960 . S
H890 C903 0.961 . S
H891 C903 0.954 1_545 S
H892 C906 0.929 1_545 S
H893 C907 0.931 . S
H894 C909 0.930 . S
C895 H883 0.930 . S
C895 C896 1.399 1_565 S
C895 C900 1.399 . S
C896 C895 1.399 1_545 S
C896 C897 1.376 . S
C897 H884 0.930 . S
C897 C896 1.376 . S
C897 C898 1.388 . S
C898 H885 0.930 . S
C898 C897 1.388 . S
C898 C899 1.391 . S
C899 C898 1.391 . S
C899 C900 1.393 1_545 S
C899 C905 1.465 1_545 S
C900 C895 1.399 . S
C900 C899 1.393 1_565 S
C900 C901 1.516 . S
C901 C900 1.516 . S
C901 C902 1.502 . S
C901 C903 1.561 . S
C901 C904 1.526 . S
C902 H886 0.959 . S
C902 H887 0.959 . S
C902 H888 0.961 . S
C902 C901 1.502 . S
C903 H889 0.960 . S
C903 H890 0.961 . S
C903 H891 0.954 1_565 S
C903 C901 1.561 . S
C904 C901 1.526 . S
C904 C905 1.396 . S
C904 C909 1.390 . S
C905 C899 1.465 1_565 S
C905 C904 1.396 . S
C905 C906 1.399 . S
C906 H892 0.929 1_565 S
C906 C905 1.399 . S
C906 C907 1.385 . S
C907 H893 0.931 . S
C907 C906 1.385 . S
C907 C908 1.389 . S
C908 C907 1.389 . S
C908 C909 1.387 . S
C909 H894 0.930 . S
C909 C904 1.390 . S
C909 C908 1.387 . S
H910 C922 0.930 . S
H911 C924 0.930 . S
H912 C925 0.930 . S
H913 C929 0.959 . S
H914 C929 0.959 . S
H915 C929 0.961 . S
H916 C930 0.960 . S
H917 C930 0.961 . S
H918 C930 0.959 . S
H919 C933 0.929 . S
H920 C934 0.931 . S
H921 C936 0.930 . S
C922 H910 0.930 . S
C922 C923 1.399 . S
C922 C927 1.399 . S
C923 C922 1.399 . S
C923 C924 1.376 . S
C924 H911 0.930 . S
C924 C923 1.376 . S
C924 C925 1.388 . S
C925 H912 0.930 . S
C925 C924 1.388 . S
C925 C926 1.390 . S
C926 C925 1.390 . S
C926 C927 1.394 . S
C926 C932 1.465 . S
C927 C922 1.399 . S
C927 C926 1.394 . S
C927 C928 1.516 . S
C928 C927 1.516 . S
C928 C929 1.502 . S
C928 C930 1.561 . S
C928 C931 1.526 . S
C929 H913 0.959 . S
C929 H914 0.959 . S
C929 H915 0.961 . S
C929 C928 1.502 . S
C930 H916 0.960 . S
C930 H917 0.961 . S
C930 H918 0.959 . S
C930 C928 1.561 . S
C931 C928 1.526 . S
C931 C932 1.396 . S
C931 C936 1.390 . S
C932 C926 1.465 . S
C932 C931 1.396 . S
C932 C933 1.399 . S
C933 H919 0.929 . S
C933 C932 1.399 . S
C933 C934 1.385 . S
C934 H920 0.931 . S
C934 C933 1.385 . S
C934 C935 1.389 . S
C935 C934 1.389 . S
C935 C936 1.387 . S
C936 H921 0.930 . S
C936 C931 1.390 . S
C936 C935 1.387 . S
H937 C949 0.930 . S
H938 C951 0.930 . S
H939 C952 0.930 . S
H940 C956 0.959 . S
H941 C956 0.959 . S
H942 C956 0.961 . S
H943 C957 0.960 . S
H944 C957 0.961 . S
H945 C957 0.959 . S
H946 C960 0.929 . S
H947 C961 0.931 . S
H948 C963 0.930 . S
C949 H937 0.930 . S
C949 C950 1.399 . S
C949 C954 1.399 . S
C950 C949 1.399 . S
C950 C951 1.376 . S
C951 H938 0.930 . S
C951 C950 1.376 . S
C951 C952 1.388 . S
C952 H939 0.930 . S
C952 C951 1.388 . S
C952 C953 1.390 . S
C953 C952 1.390 . S
C953 C954 1.394 . S
C953 C959 1.465 . S
C954 C949 1.399 . S
C954 C953 1.394 . S
C954 C955 1.516 . S
C955 C954 1.516 . S
C955 C956 1.502 . S
C955 C957 1.561 . S
C955 C958 1.526 . S
C956 H940 0.959 . S
C956 H941 0.959 . S
C956 H942 0.961 . S
C956 C955 1.502 . S
C957 H943 0.960 . S
C957 H944 0.961 . S
C957 H945 0.959 . S
C957 C955 1.561 . S
C958 C955 1.526 . S
C958 C959 1.396 . S
C958 C963 1.390 . S
C959 C953 1.465 . S
C959 C958 1.396 . S
C959 C960 1.399 . S
C960 H946 0.929 . S
C960 C959 1.399 . S
C960 C961 1.385 . S
C961 H947 0.931 . S
C961 C960 1.385 . S
C961 C962 1.389 . S
C962 C961 1.389 . S
C962 C963 1.387 . S
C963 H948 0.930 . S
C963 C958 1.390 . S
C963 C962 1.387 . S
H964 C976 0.930 . S
H965 C978 0.930 . S
H966 C979 0.930 1_556 S
H967 C983 0.959 . S
H968 C983 0.959 . S
H969 C983 0.961 . S
H970 C984 0.960 . S
H971 C984 0.961 . S
H972 C984 0.959 . S
H973 C987 0.929 . S
H974 C988 0.931 . S
H975 C990 0.930 1_554 S
C976 H964 0.930 . S
C976 C977 1.399 . S
C976 C981 1.399 1_655 S
C977 C976 1.399 . S
C977 C978 1.376 1_655 S
C978 H965 0.930 . S
C978 C977 1.376 1_455 S
C978 C979 1.388 . S
C979 H966 0.930 1_554 S
C979 C978 1.388 . S
C979 C980 1.390 . S
C980 C979 1.390 . S
C980 C981 1.394 . S
C980 C986 1.465 1_554 S
C981 C976 1.399 1_455 S
C981 C980 1.394 . S
C981 C982 1.516 . S
C982 C981 1.516 . S
C982 C983 1.502 1_455 S
C982 C984 1.561 . S
C982 C985 1.526 . S
C983 H967 0.959 . S
C983 H968 0.959 . S
C983 H969 0.961 . S
C983 C982 1.502 1_655 S
C984 H970 0.960 . S
C984 H971 0.961 . S
C984 H972 0.959 . S
C984 C982 1.561 . S
C985 C982 1.526 . S
C985 C986 1.396 1_554 S
C985 C990 1.390 1_554 S
C986 C980 1.465 1_556 S
C986 C985 1.396 1_556 S
C986 C987 1.399 . S
C987 H973 0.929 . S
C987 C986 1.399 . S
C987 C988 1.385 . S
C988 H974 0.931 . S
C988 C987 1.385 . S
C988 C989 1.389 . S
C989 C988 1.389 . S
C989 C990 1.387 . S
C990 H975 0.930 1_556 S
C990 C985 1.390 1_556 S
C990 C989 1.387 . S
H991 C1003 0.930 . S
H992 C1005 0.930 . S
H993 C1006 0.930 . S
H994 C1010 0.959 . S
H995 C1010 0.959 . S
H996 C1010 0.936 1_565 S
H997 C1011 0.960 . S
H998 C1011 0.961 . S
H999 C1011 0.959 . S
H1000 C1014 0.929 . S
H1001 C1015 0.931 . S
H1002 C1017 0.930 . S
C1003 H991 0.930 . S
C1003 C1004 1.399 . S
C1003 C1008 1.399 1_565 S
C1004 C1003 1.399 . S
C1004 C1005 1.376 1_565 S
C1005 H992 0.930 . S
C1005 C1004 1.376 1_545 S
C1005 C1006 1.388 . S
C1006 H993 0.930 . S
C1006 C1005 1.388 . S
C1006 C1007 1.390 . S
C1007 C1006 1.390 . S
C1007 C1008 1.394 . S
C1007 C1013 1.465 . S
C1008 C1003 1.399 1_545 S
C1008 C1007 1.394 . S
C1008 C1009 1.519 1_554 S
C1009 C1008 1.519 1_556 S
C1009 C1010 1.516 . S
C1009 C1011 1.515 1_545 S
C1009 C1012 1.556 . S
C1010 H994 0.959 . S
C1010 H995 0.959 . S
C1010 H996 0.936 1_545 S
C1010 C1009 1.516 . S
C1011 H997 0.960 . S
C1011 H998 0.961 . S
C1011 H999 0.959 . S
C1011 C1009 1.515 1_565 S
C1012 C1009 1.556 . S
C1012 C1013 1.396 1_556 S
C1012 C1017 1.390 . S
C1013 C1007 1.465 . S
C1013 C1012 1.396 1_554 S
C1013 C1014 1.399 . S
C1014 H1000 0.929 . S
C1014 C1013 1.399 . S
C1014 C1015 1.385 . S
C1015 H1001 0.931 . S
C1015 C1014 1.385 . S
C1015 C1016 1.389 1_554 S
C1016 C1015 1.389 1_556 S
C1016 C1017 1.387 . S
C1017 H1002 0.930 . S
C1017 C1012 1.390 . S
C1017 C1016 1.387 . S
H1018 C1030 0.930 . S
H1019 C1032 0.930 . S
H1020 C1033 0.930 . S
H1021 C1037 0.959 . S
H1022 C1037 0.959 . S
H1023 C1037 0.961 . S
H1024 C1038 0.960 . S
H1025 C1038 0.961 . S
H1026 C1038 0.959 . S
H1027 C1041 0.929 . S
H1028 C1042 0.931 . S
H1029 C1044 0.930 . S
C1030 H1018 0.930 . S
C1030 C1031 1.399 . S
C1030 C1035 1.399 . S
C1031 C1030 1.399 . S
C1031 C1032 1.376 . S
C1032 H1019 0.930 . S
C1032 C1031 1.376 . S
C1032 C1033 1.388 1_554 S
C1033 H1020 0.930 . S
C1033 C1032 1.388 1_556 S
C1033 C1034 1.390 1_556 S
C1034 C1033 1.390 1_554 S
C1034 C1035 1.394 . S
C1034 C1040 1.465 1_554 S
C1035 C1030 1.399 . S
C1035 C1034 1.394 . S
C1035 C1036 1.516 . S
C1036 C1035 1.516 . S
C1036 C1037 1.502 . S
C1036 C1038 1.561 . S
C1036 C1039 1.526 . S
C1037 H1021 0.959 . S
C1037 H1022 0.959 . S
C1037 H1023 0.961 . S
C1037 C1036 1.502 . S
C1038 H1024 0.960 . S
C1038 H1025 0.961 . S
C1038 H1026 0.959 . S
C1038 C1036 1.561 . S
C1039 C1036 1.526 . S
C1039 C1040 1.396 1_554 S
C1039 C1044 1.390 . S
C1040 C1034 1.465 1_556 S
C1040 C1039 1.396 1_556 S
C1040 C1041 1.399 . S
C1041 H1027 0.929 . S
C1041 C1040 1.399 . S
C1041 C1042 1.385 . S
C1042 H1028 0.931 . S
C1042 C1041 1.385 . S
C1042 C1043 1.389 . S
C1043 C1042 1.389 . S
C1043 C1044 1.387 1_556 S
C1044 H1029 0.930 . S
C1044 C1039 1.390 . S
C1044 C1043 1.387 1_554 S
H1045 C1057 0.930 . S
H1046 C1059 0.930 . S
H1047 C1060 0.930 . S
H1048 C1064 0.959 . S
H1049 C1064 0.959 . S
H1050 C1064 0.961 . S
H1051 C1065 0.960 . S
H1052 C1065 0.961 . S
H1053 C1065 0.959 . S
H1054 C1068 0.929 . S
H1055 C1069 0.931 . S
H1056 C1071 0.930 . S
C1057 H1045 0.930 . S
C1057 C1058 1.399 . S
C1057 C1062 1.399 . S
C1058 C1057 1.399 . S
C1058 C1059 1.376 . S
C1059 H1046 0.930 . S
C1059 C1058 1.376 . S
C1059 C1060 1.388 1_554 S
C1060 H1047 0.930 . S
C1060 C1059 1.388 1_556 S
C1060 C1061 1.390 1_556 S
C1061 C1060 1.390 1_554 S
C1061 C1062 1.394 . S
C1061 C1067 1.465 1_554 S
C1062 C1057 1.399 . S
C1062 C1061 1.394 . S
C1062 C1063 1.516 . S
C1063 C1062 1.516 . S
C1063 C1064 1.502 . S
C1063 C1065 1.561 . S
C1063 C1066 1.526 . S
C1064 H1048 0.959 . S
C1064 H1049 0.959 . S
C1064 H1050 0.961 . S
C1064 C1063 1.502 . S
C1065 H1051 0.960 . S
C1065 H1052 0.961 . S
C1065 H1053 0.959 . S
C1065 C1063 1.561 . S
C1066 C1063 1.526 . S
C1066 C1067 1.396 1_554 S
C1066 C1071 1.390 . S
C1067 C1061 1.465 1_556 S
C1067 C1066 1.396 1_556 S
C1067 C1068 1.399 . S
C1068 H1054 0.929 . S
C1068 C1067 1.399 . S
C1068 C1069 1.385 . S
C1069 H1055 0.931 . S
C1069 C1068 1.385 . S
C1069 C1070 1.389 . S
C1070 C1069 1.389 . S
C1070 C1071 1.387 1_556 S
C1071 H1056 0.930 . S
C1071 C1066 1.390 . S
C1071 C1070 1.387 1_554 S
H1072 C1084 0.930 . S
H1073 C1086 0.930 . S
H1074 C1087 0.930 . S
H1075 C1091 0.959 . S
H1076 C1091 0.959 . S
H1077 C1091 0.961 . S
H1078 C1092 0.960 . S
H1079 C1092 0.961 . S
H1080 C1092 0.959 1_655 S
H1081 C1095 0.929 . S
H1082 C1096 0.931 . S
H1083 C1098 0.930 . S
C1084 H1072 0.930 . S
C1084 C1085 1.399 . S
C1084 C1089 1.399 . S
C1085 C1084 1.399 . S
C1085 C1086 1.376 1_455 S
C1086 H1073 0.930 . S
C1086 C1085 1.376 1_655 S
C1086 C1087 1.388 . S
C1087 H1074 0.930 . S
C1087 C1086 1.388 . S
C1087 C1088 1.393 . S
C1088 C1087 1.393 . S
C1088 C1089 1.390 1_655 S
C1088 C1094 1.465 1_655 S
C1089 C1084 1.399 . S
C1089 C1088 1.390 1_455 S
C1089 C1090 1.516 . S
C1090 C1089 1.516 . S
C1090 C1091 1.502 . S
C1090 C1092 1.561 . S
C1090 C1093 1.526 . S
C1091 H1075 0.959 . S
C1091 H1076 0.959 . S
C1091 H1077 0.961 . S
C1091 C1090 1.502 . S
C1092 H1078 0.960 . S
C1092 H1079 0.961 . S
C1092 H1080 0.959 1_455 S
C1092 C1090 1.561 . S
C1093 C1090 1.526 . S
C1093 C1094 1.396 . S
C1093 C1098 1.390 . S
C1094 C1088 1.465 1_455 S
C1094 C1093 1.396 . S
C1094 C1095 1.399 1_455 S
C1095 H1081 0.929 . S
C1095 C1094 1.399 1_655 S
C1095 C1096 1.385 . S
C1096 H1082 0.931 . S
C1096 C1095 1.385 . S
C1096 C1097 1.389 1_655 S
C1097 C1096 1.389 1_455 S
C1097 C1098 1.387 . S
C1098 H1083 0.930 . S
C1098 C1093 1.390 . S
C1098 C1097 1.387 . S
H1099 C1111 0.930 . S
H1100 C1113 0.930 . S
H1101 C1114 0.930 . S
H1102 C1118 0.959 . S
H1103 C1118 0.959 . S
H1104 C1118 0.961 . S
H1105 C1119 0.960 . S
H1106 C1119 0.961 . S
H1107 C1119 0.959 . S
H1108 C1122 0.929 . S
H1109 C1123 0.931 . S
H1110 C1125 0.930 . S
C1111 H1099 0.930 . S
C1111 C1112 1.399 . S
C1111 C1116 1.399 . S
C1112 C1111 1.399 . S
C1112 C1113 1.376 1_545 S
C1113 H1100 0.930 . S
C1113 C1112 1.376 1_565 S
C1113 C1114 1.388 . S
C1114 H1101 0.930 . S
C1114 C1113 1.388 . S
C1114 C1115 1.390 1_565 S
C1115 C1114 1.390 1_545 S
C1115 C1116 1.394 . S
C1115 C1121 1.465 . S
C1116 C1111 1.399 . S
C1116 C1115 1.394 . S
C1116 C1117 1.516 . S
C1117 C1116 1.516 . S
C1117 C1118 1.502 . S
C1117 C1119 1.561 . S
C1117 C1120 1.526 . S
C1118 H1102 0.959 . S
C1118 H1103 0.959 . S
C1118 H1104 0.961 . S
C1118 C1117 1.502 . S
C1119 H1105 0.960 . S
C1119 H1106 0.961 . S
C1119 H1107 0.959 . S
C1119 C1117 1.561 . S
C1120 C1117 1.526 . S
C1120 C1121 1.396 . S
C1120 C1125 1.390 . S
C1121 C1115 1.465 . S
C1121 C1120 1.396 . S
C1121 C1122 1.399 1_545 S
C1122 H1108 0.929 . S
C1122 C1121 1.399 1_565 S
C1122 C1123 1.385 . S
C1123 H1109 0.931 . S
C1123 C1122 1.385 . S
C1123 C1124 1.389 1_565 S
C1124 C1123 1.389 1_545 S
C1124 C1125 1.387 . S
C1125 H1110 0.930 . S
C1125 C1120 1.390 . S
C1125 C1124 1.387 . S
H1126 C1138 0.930 . S
H1127 C1140 0.930 . S
H1128 C1141 0.930 . S
H1129 C1145 0.959 . S
H1130 C1145 0.959 . S
H1131 C1145 0.961 . S
H1132 C1146 0.960 . S
H1133 C1146 0.961 . S
H1134 C1146 0.959 . S
H1135 C1149 0.929 . S
H1136 C1150 0.931 . S
H1137 C1152 0.930 . S
C1138 H1126 0.930 . S
C1138 C1139 1.399 . S
C1138 C1143 1.399 . S
C1139 C1138 1.399 . S
C1139 C1140 1.376 . S
C1140 H1127 0.930 . S
C1140 C1139 1.376 . S
C1140 C1141 1.388 . S
C1141 H1128 0.930 . S
C1141 C1140 1.388 . S
C1141 C1142 1.390 . S
C1142 C1141 1.390 . S
C1142 C1143 1.394 . S
C1142 C1148 1.465 . S
C1143 C1138 1.399 . S
C1143 C1142 1.394 . S
C1143 C1144 1.516 . S
C1144 C1143 1.516 . S
C1144 C1145 1.502 . S
C1144 C1146 1.561 . S
C1144 C1147 1.526 . S
C1145 H1129 0.959 . S
C1145 H1130 0.959 . S
C1145 H1131 0.961 . S
C1145 C1144 1.502 . S
C1146 H1132 0.960 . S
C1146 H1133 0.961 . S
C1146 H1134 0.959 . S
C1146 C1144 1.561 . S
C1147 C1144 1.526 . S
C1147 C1148 1.396 . S
C1147 C1152 1.390 . S
C1148 C1142 1.465 . S
C1148 C1147 1.396 . S
C1148 C1149 1.399 . S
C1149 H1135 0.929 . S
C1149 C1148 1.399 . S
C1149 C1150 1.385 . S
C1150 H1136 0.931 . S
C1150 C1149 1.385 . S
C1150 C1151 1.389 . S
C1151 C1150 1.389 . S
C1151 C1152 1.387 . S
C1152 H1137 0.930 . S
C1152 C1147 1.390 . S
C1152 C1151 1.387 . S
H1153 C1165 0.930 . S
H1154 C1167 0.930 . S
H1155 C1168 0.930 . S
H1156 C1172 0.959 . S
H1157 C1172 0.959 . S
H1158 C1172 0.961 . S
H1159 C1173 0.960 . S
H1160 C1173 0.961 . S
H1161 C1173 0.959 . S
H1162 C1176 0.929 . S
H1163 C1177 0.931 . S
H1164 C1179 0.930 . S
C1165 H1153 0.930 . S
C1165 C1166 1.399 . S
C1165 C1170 1.399 . S
C1166 C1165 1.399 . S
C1166 C1167 1.376 . S
C1167 H1154 0.930 . S
C1167 C1166 1.376 . S
C1167 C1168 1.388 . S
C1168 H1155 0.930 . S
C1168 C1167 1.388 . S
C1168 C1169 1.390 . S
C1169 C1168 1.390 . S
C1169 C1170 1.394 . S
C1169 C1175 1.465 . S
C1170 C1165 1.399 . S
C1170 C1169 1.394 . S
C1170 C1171 1.516 . S
C1171 C1170 1.516 . S
C1171 C1172 1.502 . S
C1171 C1173 1.561 . S
C1171 C1174 1.526 . S
C1172 H1156 0.959 . S
C1172 H1157 0.959 . S
C1172 H1158 0.961 . S
C1172 C1171 1.502 . S
C1173 H1159 0.960 . S
C1173 H1160 0.961 . S
C1173 H1161 0.959 . S
C1173 C1171 1.561 . S
C1174 C1171 1.526 . S
C1174 C1175 1.396 . S
C1174 C1179 1.390 . S
C1175 C1169 1.465 . S
C1175 C1174 1.396 . S
C1175 C1176 1.399 . S
C1176 H1162 0.929 . S
C1176 C1175 1.399 . S
C1176 C1177 1.385 . S
C1177 H1163 0.931 . S
C1177 C1176 1.385 . S
C1177 C1178 1.389 . S
C1178 C1177 1.389 . S
C1178 C1179 1.387 . S
C1179 H1164 0.930 . S
C1179 C1174 1.390 . S
C1179 C1178 1.387 . S
H1180 C1192 0.930 . S
H1181 C1194 0.930 . S
H1182 C1195 0.930 . S
H1183 C1199 0.959 . S
H1184 C1199 0.959 . S
H1185 C1199 0.961 . S
H1186 C1200 0.951 1_455 S
H1187 C1200 0.950 1_455 S
H1188 C1200 0.991 . S
H1189 C1203 0.929 . S
H1190 C1204 0.931 . S
H1191 C1206 0.927 . S
C1192 H1180 0.930 . S
C1192 C1193 1.399 1_455 S
C1192 C1197 1.395 1_455 S
C1193 C1192 1.399 1_655 S
C1193 C1194 1.376 . S
C1194 H1181 0.930 . S
C1194 C1193 1.376 . S
C1194 C1195 1.388 . S
C1195 H1182 0.930 . S
C1195 C1194 1.388 . S
C1195 C1196 1.390 . S
C1196 C1195 1.390 . S
C1196 C1197 1.405 . S
C1196 C1202 1.465 . S
C1197 C1192 1.395 1_655 S
C1197 C1196 1.405 . S
C1197 C1198 1.510 1_655 S
C1198 C1197 1.510 1_455 S
C1198 C1199 1.502 . S
C1198 C1200 1.550 1_455 S
C1198 C1201 1.526 1_455 S
C1199 H1183 0.959 . S
C1199 H1184 0.959 . S
C1199 H1185 0.961 . S
C1199 C1198 1.502 . S
C1200 H1186 0.951 1_655 S
C1200 H1187 0.950 1_655 S
C1200 H1188 0.991 . S
C1200 C1198 1.550 1_655 S
C1201 C1198 1.526 1_655 S
C1201 C1202 1.396 . S
C1201 C1206 1.390 1_655 S
C1202 C1196 1.465 . S
C1202 C1201 1.396 . S
C1202 C1203 1.399 . S
C1203 H1189 0.929 . S
C1203 C1202 1.399 . S
C1203 C1204 1.385 . S
C1204 H1190 0.931 . S
C1204 C1203 1.385 . S
C1204 C1205 1.389 . S
C1205 C1204 1.389 . S
C1205 C1206 1.389 1_655 S
C1206 H1191 0.927 . S
C1206 C1201 1.390 1_455 S
C1206 C1205 1.389 1_455 S
H1207 C1219 0.930 . S
H1208 C1221 0.930 . S
H1209 C1222 0.930 . S
H1210 C1226 0.959 . S
H1211 C1226 0.959 . S
H1212 C1226 0.961 . S
H1213 C1227 0.960 . S
H1214 C1227 0.961 . S
H1215 C1227 0.959 . S
H1216 C1230 0.929 . S
H1217 C1231 0.931 . S
H1218 C1233 0.930 . S
C1219 H1207 0.930 . S
C1219 C1220 1.399 . S
C1219 C1224 1.399 . S
C1220 C1219 1.399 . S
C1220 C1221 1.376 1_565 S
C1221 H1208 0.930 . S
C1221 C1220 1.376 1_545 S
C1221 C1222 1.388 . S
C1222 H1209 0.930 . S
C1222 C1221 1.388 . S
C1222 C1223 1.390 . S
C1223 C1222 1.390 . S
C1223 C1224 1.394 1_545 S
C1223 C1229 1.465 . S
C1224 C1219 1.399 . S
C1224 C1223 1.394 1_565 S
C1224 C1225 1.516 . S
C1225 C1224 1.516 . S
C1225 C1226 1.502 . S
C1225 C1227 1.561 . S
C1225 C1228 1.526 . S
C1226 H1210 0.959 . S
C1226 H1211 0.959 . S
C1226 H1212 0.961 . S
C1226 C1225 1.502 . S
C1227 H1213 0.960 . S
C1227 H1214 0.961 . S
C1227 H1215 0.959 . S
C1227 C1225 1.561 . S
C1228 C1225 1.526 . S
C1228 C1229 1.396 1_565 S
C1228 C1233 1.390 . S
C1229 C1223 1.465 . S
C1229 C1228 1.396 1_545 S
C1229 C1230 1.399 . S
C1230 H1216 0.929 . S
C1230 C1229 1.399 . S
C1230 C1231 1.385 . S
C1231 H1217 0.931 . S
C1231 C1230 1.385 . S
C1231 C1232 1.389 1_545 S
C1232 C1231 1.389 1_565 S
C1232 C1233 1.387 . S
C1233 H1218 0.930 . S
C1233 C1228 1.390 . S
C1233 C1232 1.387 . S
H1234 C1246 0.930 . S
H1235 C1248 0.930 . S
H1236 C1249 0.930 . S
H1237 C1253 0.959 . S
H1238 C1253 0.959 . S
H1239 C1253 0.961 . S
H1240 C1254 0.960 . S
H1241 C1254 0.961 . S
H1242 C1254 0.959 . S
H1243 C1257 0.929 . S
H1244 C1258 0.931 . S
H1245 C1260 0.930 . S
C1246 H1234 0.930 . S
C1246 C1247 1.399 . S
C1246 C1251 1.399 . S
C1247 C1246 1.399 . S
C1247 C1248 1.376 . S
C1248 H1235 0.930 . S
C1248 C1247 1.376 . S
C1248 C1249 1.388 . S
C1249 H1236 0.930 . S
C1249 C1248 1.388 . S
C1249 C1250 1.390 . S
C1250 C1249 1.390 . S
C1250 C1251 1.394 . S
C1250 C1256 1.465 . S
C1251 C1246 1.399 . S
C1251 C1250 1.394 . S
C1251 C1252 1.516 . S
C1252 C1251 1.516 . S
C1252 C1253 1.502 . S
C1252 C1254 1.561 . S
C1252 C1255 1.526 . S
C1253 H1237 0.959 . S
C1253 H1238 0.959 . S
C1253 H1239 0.961 . S
C1253 C1252 1.502 . S
C1254 H1240 0.960 . S
C1254 H1241 0.961 . S
C1254 H1242 0.959 . S
C1254 C1252 1.561 . S
C1255 C1252 1.526 . S
C1255 C1256 1.396 . S
C1255 C1260 1.390 . S
C1256 C1250 1.465 . S
C1256 C1255 1.396 . S
C1256 C1257 1.399 . S
C1257 H1243 0.929 . S
C1257 C1256 1.399 . S
C1257 C1258 1.385 . S
C1258 H1244 0.931 . S
C1258 C1257 1.385 . S
C1258 C1259 1.389 . S
C1259 C1258 1.389 . S
C1259 C1260 1.387 . S
C1260 H1245 0.930 . S
C1260 C1255 1.390 . S
C1260 C1259 1.387 . S
H1261 C1273 0.930 . S
H1262 C1275 0.930 . S
H1263 C1276 0.930 . S
H1264 C1280 0.959 . S
H1265 C1280 0.959 . S
H1266 C1280 0.961 . S
H1267 C1281 0.960 . S
H1268 C1281 0.961 . S
H1269 C1281 0.959 . S
H1270 C1284 0.929 . S
H1271 C1285 0.931 . S
H1272 C1287 0.930 . S
C1273 H1261 0.930 . S
C1273 C1274 1.399 . S
C1273 C1278 1.399 . S
C1274 C1273 1.399 . S
C1274 C1275 1.376 . S
C1275 H1262 0.930 . S
C1275 C1274 1.376 . S
C1275 C1276 1.388 . S
C1276 H1263 0.930 . S
C1276 C1275 1.388 . S
C1276 C1277 1.390 . S
C1277 C1276 1.390 . S
C1277 C1278 1.394 . S
C1277 C1283 1.465 . S
C1278 C1273 1.399 . S
C1278 C1277 1.394 . S
C1278 C1279 1.516 . S
C1279 C1278 1.516 . S
C1279 C1280 1.502 . S
C1279 C1281 1.561 . S
C1279 C1282 1.526 . S
C1280 H1264 0.959 . S
C1280 H1265 0.959 . S
C1280 H1266 0.961 . S
C1280 C1279 1.502 . S
C1281 H1267 0.960 . S
C1281 H1268 0.961 . S
C1281 H1269 0.959 . S
C1281 C1279 1.561 . S
C1282 C1279 1.526 . S
C1282 C1283 1.396 . S
C1282 C1287 1.390 . S
C1283 C1277 1.465 . S
C1283 C1282 1.396 . S
C1283 C1284 1.399 . S
C1284 H1270 0.929 . S
C1284 C1283 1.399 . S
C1284 C1285 1.385 . S
C1285 H1271 0.931 . S
C1285 C1284 1.385 . S
C1285 C1286 1.389 . S
C1286 C1285 1.389 . S
C1286 C1287 1.387 . S
C1287 H1272 0.930 . S
C1287 C1282 1.390 . S
C1287 C1286 1.387 . S
C653 C391 2.240 . S
C665 C490 2.366 . S
C692 C530 2.352 . S
C680 C451 2.243 . S
C719 C570 2.360 . S
C707 C241 1.970 . S
C746 C610 2.343 1_455 S
C734 C331 2.032 . S
C773 C499 2.355 1_565 S
C761 C121 2.013 . S
C788 C211 2.261 . S
C800 C539 2.360 . S
C815 C31 2.290 . S
C827 C579 2.353 . S
C842 C91 2.023 1_455 S
C854 C619 2.334 1_655 S
C881 C496 0.448 . S
C869 C301 0.720 . S
C908 C536 0.407 . S
C896 C380 0.450 . S
C935 C576 0.542 . S
C923 C440 0.357 . S
C950 C260 0.691 . S
C962 C616 0.535 . S
C977 C61 0.553 . S
C989 C487 0.573 . S
C1016 C527 0.538 . S
C1004 C140 0.375 . S
C1043 C567 0.511 . S
C1031 C200 0.433 . S
C1058 C20 0.497 . S
C1070 C607 0.458 . S
C1085 C320 2.987 . S
C1097 C491 3.193 . S
C1112 C361 2.533 . S
C1124 C531 3.201 . S
C1151 C571 3.216 . S
C1139 C421 2.540 . S
C1178 C611 3.201 . S
C1166 C271 3.001 . S
C1193 C80 2.965 . S
C1205 C482 3.209 . S
C1232 C522 3.191 . S
C1220 C151 2.988 . S
C1259 C562 3.205 . S
C1247 C181 2.615 . S
C1274 C1 2.623 . S
C1286 C602 3.197 . S
