# Generated by pormake.
# Topology pth, (4,4)-cn, num edge types: 1
# Building blocks:
#     Node 0, Type 0, BuildingBlock: AZAVOO_clean_sbu_0, # of connection points: 4
#     Node 1, Type 0, BuildingBlock: AZAVOO_clean_sbu_0, # of connection points: 4
#     Node 2, Type 0, BuildingBlock: AZAVOO_clean_sbu_0, # of connection points: 4
#     Node 3, Type 1, BuildingBlock: NAWXER_clean_linker_0, # of connection points: 4
#     Node 4, Type 1, BuildingBlock: NAWXER_clean_linker_0, # of connection points: 4
#     Node 5, Type 1, BuildingBlock: NAWXER_clean_linker_0, # of connection points: 4
#     Edge 6, Type (0, 1), BuildingBlock: TEMPAE_clean_linker_10, # of connection points: 2
#     Edge 7, Type (0, 1), BuildingBlock: TEMPAE_clean_linker_10, # of connection points: 2
#     Edge 8, Type (0, 1), BuildingBlock: TEMPAE_clean_linker_10, # of connection points: 2
#     Edge 9, Type (0, 1), BuildingBlock: TEMPAE_clean_linker_10, # of connection points: 2
#     Edge 10, Type (0, 1), BuildingBlock: TEMPAE_clean_linker_10, # of connection points: 2
#     Edge 11, Type (0, 1), BuildingBlock: TEMPAE_clean_linker_10, # of connection points: 2
#     Edge 12, Type (0, 1), BuildingBlock: TEMPAE_clean_linker_10, # of connection points: 2
#     Edge 13, Type (0, 1), BuildingBlock: TEMPAE_clean_linker_10, # of connection points: 2
#     Edge 14, Type (0, 1), BuildingBlock: TEMPAE_clean_linker_10, # of connection points: 2
#     Edge 15, Type (0, 1), BuildingBlock: TEMPAE_clean_linker_10, # of connection points: 2
#     Edge 16, Type (0, 1), BuildingBlock: TEMPAE_clean_linker_10, # of connection points: 2
#     Edge 17, Type (0, 1), BuildingBlock: TEMPAE_clean_linker_10, # of connection points: 2
# Relax obj value: 0.065
# Max RMSD: 0.212
# Mean RMSD: 0.105
data_MOF--net-pth--node1-AZAVOO_clean_sbu_0--node2-NAWXER_clean_linker_0--edge1-TEMPAE_clean_linker_10
_symmetry_space_group_name_H-M    P1
_symmetry_Int_Tables_number       1
_symmetry_cell_setting            triclinic
loop_
_symmetry_equiv_pos_as_xyz
'x, y, z'
_cell_length_a     29.072499
_cell_length_b     29.63416
_cell_length_c     65.505425
_cell_angle_alpha  90.799676
_cell_angle_beta   92.708155
_cell_angle_gamma 121.93809
loop_
_atom_site_label
_atom_site_type_symbol
_atom_site_fract_x
_atom_site_fract_y
_atom_site_fract_z
_atom_type_partial_charge
Mg0 Mg 0.11223 0.07884 0.04021 0.0
O1 O 0.03992 0.02518 0.0178 0.0
O2 O 0.02914 0.07563 -0.00449 0.0
Mg3 Mg 0.09449 0.16251 0.00416 0.0
C4 C 0.01505 0.03018 0.00228 0.0
C5 C 0.08827 0.01194 0.07948 0.0
O6 O 0.10394 0.05808 0.08861 0.0
O7 O 0.06243 0.10445 0.05704 0.0
O8 O 0.05758 0.15867 0.03489 0.0
O9 O 0.16838 0.07618 0.0188 0.0
O10 O 0.14618 0.13689 0.0188 0.0
C11 C 0.04798 0.13697 0.05218 0.0
C12 C 0.17172 0.11733 0.01067 0.0
O13 O 0.08684 0.00831 0.0601 0.0
Mg14 Mg 0.91991 0.98914 0.36544 0.0
O15 O 0.99231 0.01627 0.38843 0.0
O16 O -0.00135 0.07863 0.41005 0.0
Mg17 Mg 0.93018 0.09196 0.40064 0.0
C18 C 0.01551 0.04921 0.40377 0.0
C19 C 0.91714 0.89995 0.33918 0.0
O20 O 0.86593 0.87645 0.34342 0.0
O21 O 0.96825 0.06582 0.34871 0.0
O22 O 0.96942 0.12544 0.3704 0.0
O23 O 0.8635 0.92821 0.38678 0.0
O24 O 0.88401 0.01157 0.38626 0.0
C25 C 0.98115 0.11326 0.35344 0.0
C26 C 0.85977 0.96641 0.39461 0.0
O27 O 0.95021 0.94741 0.34596 0.0
Mg28 Mg 0.98905 0.03404 0.69225 0.0
O29 O 0.04851 0.09865 0.71573 0.0
O30 O 0.002 0.11312 0.73828 0.0
Mg31 Mg 0.91169 0.05527 0.72942 0.0
C32 C 0.04682 0.12304 0.73159 0.0
C33 C 0.07434 0.02789 0.66722 0.0
O34 O 0.04958 0.98007 0.67451 0.0
O35 O 0.96892 0.09036 0.67718 0.0
O36 O 0.9175 0.09782 0.69959 0.0
O37 O 0.98731 0.97267 0.71193 0.0
O38 O 0.9309 0.0011 0.71375 0.0
C39 C 0.93937 0.108 0.68242 0.0
C40 C 0.94814 0.97197 0.72087 0.0
O41 O 0.05845 0.05908 0.67168 0.0
C42 C 5e-05 0.36593 0.23471 0.0
C43 C 0.04073 0.38021 0.25039 0.0
C44 C 0.00016 0.40477 0.22287 0.0
C45 C 0.04142 0.45854 0.2263 0.0
C46 C 0.08198 0.4341 0.25379 0.0
C47 C 0.08211 0.47293 0.24191 0.0
C48 C 0.0411 0.50024 0.21434 0.0
C49 C 0.06674 0.39847 0.17074 0.0
C50 C 0.02379 0.3708 0.15572 0.0
C51 C 0.07115 0.44009 0.18274 0.0
C52 C 0.03243 0.45447 0.18004 0.0
C53 C 0.98538 0.38564 0.15295 0.0
C54 C 0.98989 0.42733 0.16492 0.0
C55 C 0.03607 0.49798 0.19273 0.0
C56 C 0.08503 0.71754 0.17603 0.0
C57 C 0.04685 0.70656 0.15973 0.0
C58 C 0.08242 0.67622 0.18692 0.0
C59 C 0.04137 0.62314 0.18181 0.0
C60 C 0.00622 0.65335 0.15445 0.0
C61 C 0.00379 0.61194 0.16531 0.0
C62 C 0.03817 0.57941 0.19353 0.0
C63 C 0.98815 0.66422 0.23495 0.0
C64 C 0.02343 0.69057 0.25233 0.0
C65 C 0.99397 0.62872 0.22284 0.0
C66 C 0.03566 0.61929 0.22767 0.0
C67 C 0.06475 0.68058 0.25732 0.0
C68 C 0.07064 0.64503 0.24513 0.0
C69 C 0.04063 0.58035 0.21512 0.0
H70 H 0.96785 0.32472 0.23168 0.0
H71 H 0.96757 0.39284 0.21124 0.0
H72 H 0.11331 0.44643 0.26599 0.0
H73 H 0.11396 0.51429 0.24494 0.0
H74 H 0.09688 0.38786 0.17325 0.0
H75 H 0.10491 0.46115 0.19406 0.0
H76 H 0.95243 0.36569 0.14125 0.0
H77 H 0.95983 0.4381 0.1625 0.0
H78 H 0.11665 0.75816 0.18049 0.0
H79 H 0.11257 0.68575 0.19933 0.0
H80 H 0.97673 0.64374 0.14177 0.0
H81 H 0.97212 0.57121 0.16102 0.0
H82 H 0.95506 0.66998 0.23099 0.0
H83 H 0.96518 0.6079 0.20989 0.0
H84 H 0.0926 0.70039 0.2706 0.0
H85 H 0.10268 0.63784 0.24925 0.0
N86 N 0.04291 0.54121 0.22473 0.0
N87 N 0.03507 0.53782 0.18312 0.0
C88 C 0.67801 0.09969 0.49429 0.0
C89 C 0.65375 0.04633 0.48732 0.0
C90 C 0.64751 0.11655 0.50399 0.0
C91 C 0.59226 0.08035 0.50658 0.0
C92 C 0.59853 0.01023 0.49001 0.0
C93 C 0.56787 0.02729 0.49936 0.0
C94 C 0.55932 0.09691 0.51694 0.0
C95 C 0.67113 0.09112 0.5652 0.0
C96 C 0.70384 0.13875 0.57705 0.0
C97 C 0.6283 0.08421 0.55219 0.0
C98 C 0.61818 0.12536 0.55027 0.0
C99 C 0.69361 0.17992 0.57512 0.0
C100 C 0.65106 0.17317 0.56189 0.0
C101 C 0.57118 0.11757 0.53737 0.0
C102 C 0.35617 0.07603 0.55842 0.0
C103 C 0.37105 0.11794 0.57276 0.0
C104 C 0.39454 0.07698 0.54621 0.0
C105 C 0.44856 0.12028 0.54778 0.0
C106 C 0.42519 0.16126 0.57443 0.0
C107 C 0.46369 0.1623 0.56207 0.0
C108 C 0.48982 0.11878 0.53591 0.0
C109 C 0.38023 0.13246 0.49024 0.0
C110 C 0.34516 0.08521 0.47854 0.0
C111 C 0.42447 0.1381 0.50195 0.0
C112 C 0.43443 0.09662 0.50214 0.0
C113 C 0.35577 0.04413 0.47844 0.0
C114 C 0.40042 0.05003 0.49 0.0
C115 C 0.48018 0.10179 0.51505 0.0
H116 H 0.72057 0.12818 0.49229 0.0
H117 H 0.66685 0.15775 0.50936 0.0
H118 H 0.57891 0.96909 0.48452 0.0
H119 H 0.52522 -0.00112 0.50124 0.0
H120 H 0.67814 0.05875 0.56616 0.0
H121 H 0.60241 0.04617 0.544 0.0
H122 H 0.71742 0.21675 0.58427 0.0
H123 H 0.64344 0.20515 0.56088 0.0
H124 H 0.31519 0.04143 0.55717 0.0
H125 H 0.38221 0.04287 0.536 0.0
H126 H 0.43778 0.19408 0.58537 0.0
H127 H 0.50534 0.19568 0.56377 0.0
H128 H 0.37281 0.16463 0.49064 0.0
H129 H 0.45078 0.17478 0.51095 0.0
H130 H 0.32959 0.00754 0.46938 0.0
H131 H 0.40767 0.01773 0.48984 0.0
N132 N 0.51459 0.09032 0.50646 0.0
N133 N 0.53561 0.1272 0.54616 0.0
C134 C 0.42379 0.36171 0.82642 0.0
C135 C 0.39222 0.37831 0.81594 0.0
C136 C 0.46938 0.39783 0.83904 0.0
C137 C 0.48397 0.45103 0.84143 0.0
C138 C 0.40752 0.43182 0.81827 0.0
C139 C 0.45314 0.46783 0.83075 0.0
C140 C 0.53146 0.49013 0.85478 0.0
C141 C 0.40929 0.37202 0.89612 0.0
C142 C 0.42856 0.34543 0.90792 0.0
C143 C 0.44501 0.4164 0.88544 0.0
C144 C 0.5005 0.43447 0.8861 0.0
C145 C 0.48414 0.36356 0.90852 0.0
C146 C 0.51982 0.40785 0.89776 0.0
C147 C 0.53907 0.48274 0.87563 0.0
C148 C 0.69545 0.70582 0.90635 0.0
C149 C 0.73143 0.70098 0.91984 0.0
C150 C 0.65875 0.66336 0.89303 0.0
C151 C 0.65727 0.61522 0.89296 0.0
C152 C 0.72959 0.6526 0.91993 0.0
C153 C 0.69228 0.60978 0.90673 0.0
C154 C 0.61786 0.57038 0.87892 0.0
C155 C 0.74463 0.68712 0.83871 0.0
C156 C 0.72567 0.70629 0.82307 0.0
C157 C 0.70794 0.64571 0.85042 0.0
C158 C 0.65174 0.62358 0.84695 0.0
C159 C 0.6696 0.68467 0.81981 0.0
C160 C 0.633 0.64366 0.83161 0.0
C161 C 0.61205 0.57642 0.8578 0.0
H162 H 0.4136 0.32097 0.82471 0.0
H163 H 0.49332 0.38431 0.84685 0.0
H164 H 0.3837 0.4458 0.81071 0.0
H165 H 0.46377 0.50876 0.83238 0.0
H166 H 0.36692 0.35975 0.89576 0.0
H167 H 0.42943 0.43732 0.87707 0.0
H168 H 0.50007 0.34377 0.91747 0.0
H169 H 0.56259 0.42147 0.89858 0.0
H170 H 0.69624 0.74275 0.9059 0.0
H171 H 0.6313 0.66805 0.88281 0.0
H172 H 0.75667 0.64781 0.93032 0.0
H173 H 0.69129 0.57273 0.90705 0.0
H174 H 0.78766 0.7027 0.84133 0.0
H175 H 0.7235 0.62981 0.86166 0.0
H176 H 0.65403 0.69913 0.80794 0.0
H177 H 0.5899 0.62712 0.82857 0.0
N178 N 0.56852 0.53645 0.84665 0.0
N179 N 0.5818 0.52335 0.88699 0.0
C180 C 0.0111 0.19242 0.06283 0.0
C181 C 0.02681 0.15644 0.06797 0.0
C182 C 0.00273 0.22064 0.07802 0.0
C183 C 0.00997 0.21248 0.09886 0.0
C184 C 0.02092 0.17276 0.10412 0.0
C185 C 0.02923 0.14513 0.08859 0.0
C186 C 0.99057 0.26231 0.07174 0.0
C187 C 0.02809 0.16232 0.12618 0.0
C188 C 0.06706 0.33599 0.13367 0.0
C189 C 0.02037 0.3282 0.14233 0.0
C190 C 0.06428 0.29778 0.11998 0.0
C191 C 0.01354 0.25047 0.11484 0.0
C192 C 0.96646 0.24156 0.12399 0.0
C193 C 0.97039 0.28069 0.13759 0.0
C194 C 0.11545 0.30892 0.11048 0.0
C195 C 0.91183 0.19138 0.11903 0.0
H196 H 0.00827 0.2009 0.04693 0.0
H197 H 0.04086 0.11707 0.09275 0.0
H198 H 0.95681 0.2588 0.08025 0.0
H199 H 0.02686 0.30252 0.07555 0.0
H200 H 0.97962 0.25922 0.05508 0.0
H201 H 0.02728 0.12461 0.12769 0.0
H202 H 0.06772 0.1955 0.13293 0.0
H203 H -0.0041 0.16049 0.13524 0.0
H204 H 0.10563 0.37288 0.1371 0.0
H205 H 0.93431 0.27425 0.14447 0.0
H206 H 0.11125 0.31174 0.09369 0.0
H207 H 0.122 0.27576 0.11307 0.0
H208 H 0.15199 0.34654 0.11678 0.0
H209 H 0.89858 0.19051 0.10279 0.0
H210 H 0.8802 0.18837 0.12881 0.0
H211 H 0.91472 0.15582 0.121 0.0
C212 C 0.77262 0.93057 0.41063 0.0
C213 C 0.82933 0.96008 0.41261 0.0
C214 C 0.7426 0.93757 0.42511 0.0
C215 C 0.77037 0.97425 0.44199 0.0
C216 C 0.82747 -0.00026 0.44506 0.0
C217 C 0.85644 0.99302 0.43008 0.0
C218 C 0.68187 0.91017 0.42112 0.0
C219 C 0.85846 0.03795 0.46314 0.0
C220 C 0.71208 0.05532 0.4592 0.0
C221 C 0.68519 0.02873 0.47638 0.0
C222 C 0.73969 0.03765 0.44787 0.0
C223 C 0.74134 0.99293 0.45418 0.0
C224 C 0.7152 0.96658 0.47181 0.0
C225 C 0.68676 0.98447 0.4826 0.0
C226 C 0.7664 0.06642 0.42896 0.0
C227 C 0.71732 0.9197 0.47924 0.0
H228 H 0.75202 0.90576 0.39687 0.0
H229 H 0.90049 0.01595 0.43143 0.0
H230 H 0.66075 0.89406 0.43534 0.0
H231 H 0.67193 0.93956 0.41572 0.0
H232 H 0.66575 0.8772 0.40929 0.0
H233 H 0.90037 0.04613 0.4654 0.0
H234 H 0.86122 0.07622 0.46058 0.0
H235 H 0.83716 0.02205 0.47736 0.0
H236 H 0.71026 0.0892 0.45432 0.0
H237 H 0.66606 0.96418 0.496 0.0
H238 H 0.74994 0.03813 0.41544 0.0
H239 H 0.81072 0.08291 0.4307 0.0
H240 H 0.76003 0.09957 0.42589 0.0
H241 H 0.69807 0.88674 0.46738 0.0
H242 H 0.69639 0.90478 0.49362 0.0
H243 H 0.7602 0.93109 0.48192 0.0
C244 C 0.93928 0.90357 0.74504 0.0
C245 C 0.9234 0.93846 0.73845 0.0
C246 C 0.91209 0.86767 0.76029 0.0
C247 C 0.86835 0.86704 0.76919 0.0
C248 C 0.8539 0.9039 0.7633 0.0
C249 C 0.88137 0.93891 0.74791 0.0
C250 C 0.92841 0.82871 0.76615 0.0
C251 C 0.8077 0.90469 0.77256 0.0
C252 C 0.75298 0.73871 0.78822 0.0
C253 C 0.76385 0.74684 0.80945 0.0
C254 C 0.78766 0.77696 0.77495 0.0
C255 C 0.83414 0.82469 0.78316 0.0
C256 C 0.84595 0.83275 0.80459 0.0
C257 C 0.81069 0.79346 0.81753 0.0
C258 C 0.77398 0.76668 0.75216 0.0
C259 C 0.89492 0.88337 0.81385 0.0
H260 H 0.97177 0.90303 0.73781 0.0
H261 H 0.86864 0.96552 0.7429 0.0
H262 H 0.93402 0.82885 0.78302 0.0
H263 H 0.89557 0.78785 0.76086 0.0
H264 H 0.96651 0.83779 0.75932 0.0
H265 H 0.80515 0.93918 0.7678 0.0
H266 H 0.76869 0.86759 0.76776 0.0
H267 H 0.81243 0.90616 0.7895 0.0
H268 H 0.71723 0.70221 0.78197 0.0
H269 H 0.81896 0.79973 0.83397 0.0
H270 H 0.80894 0.7708 0.74433 0.0
H271 H 0.76581 0.79663 0.746 0.0
H272 H 0.73785 0.72637 0.74825 0.0
H273 H 0.93228 0.89065 0.80697 0.0
H274 H 0.90006 0.88215 0.83071 0.0
H275 H 0.8908 0.91768 0.81042 0.0
C276 C 0.06277 0.91738 0.08164 0.0
C277 C 0.07598 0.96542 0.09157 0.0
C278 C 0.05483 0.87407 0.09281 0.0
C279 C 0.06001 0.87882 0.11443 0.0
C280 C 0.07153 0.92652 0.12458 0.0
C281 C 0.07946 0.96934 0.11302 0.0
C282 C 0.04258 0.82381 0.08144 0.0
C283 C 0.077 0.93284 0.14764 0.0
C284 C 0.00303 0.75176 0.14344 0.0
C285 C 0.04993 0.75062 0.14818 0.0
C286 C 0.00569 0.79358 0.13264 0.0
C287 C 0.05639 0.83491 0.12636 0.0
C288 C 0.10384 0.83389 0.13109 0.0
C289 C 0.10004 0.79179 0.14198 0.0
C290 C 0.95433 0.79357 0.12796 0.0
C291 C 0.15858 0.87702 0.12449 0.0
H292 H 0.05973 0.91387 0.06507 0.0
H293 H 0.08937 0.00621 0.12081 0.0
H294 H 0.07635 0.81719 0.08463 0.0
H295 H 0.00526 0.78889 0.08682 0.0
H296 H 0.03702 0.82551 0.06463 0.0
H297 H 0.08245 0.97108 0.15319 0.0
H298 H 0.04053 0.89962 0.15424 0.0
H299 H 0.11248 0.93121 0.15354 0.0
H300 H 0.96434 0.72026 0.14841 0.0
H301 H 0.13626 0.79067 0.14541 0.0
H302 H 0.94671 0.79284 0.11117 0.0
H303 H 0.95898 0.83063 0.13447 0.0
H304 H 0.91829 0.7589 0.1342 0.0
H305 H 0.15736 0.87855 0.10757 0.0
H306 H 0.19161 0.87061 0.1296 0.0
H307 H 0.16866 0.91639 0.13079 0.0
C308 C 0.08194 0.07843 0.43415 0.0
C309 C 0.06367 0.05354 0.41456 0.0
C310 C 0.12752 0.08278 0.44454 0.0
C311 C 0.15589 0.06238 0.43499 0.0
C312 C 0.13782 0.03738 0.4152 0.0
C313 C 0.0917 0.03295 0.40527 0.0
C314 C 0.14526 0.10913 0.46575 0.0
C315 C 0.16747 0.01571 0.40445 0.0
C316 C 0.30211 0.11881 0.45436 0.0
C317 C 0.29704 0.07856 0.46682 0.0
C318 C 0.25656 0.1137 0.44365 0.0
C319 C 0.20472 0.06751 0.44569 0.0
C320 C 0.19942 0.02663 0.45819 0.0
C321 C 0.24578 0.03253 0.46853 0.0
C322 C 0.26385 0.15779 0.43024 0.0
C323 C 0.1447 0.97712 0.46092 0.0
H324 H 0.06029 0.09412 0.44149 0.0
H325 H 0.07802 0.01391 0.39009 0.0
H326 H 0.14591 0.08127 0.47673 0.0
H327 H 0.18717 0.14449 0.4659 0.0
H328 H 0.11811 0.12194 0.47118 0.0
H329 H 0.14829 -0.00238 0.38903 0.0
H330 H 0.21022 0.04811 0.4028 0.0
H331 H 0.16841 0.98514 0.41372 0.0
H332 H 0.34187 0.1542 0.45291 0.0
H333 H 0.24179 0.00167 0.47835 0.0
H334 H 0.24058 0.17484 0.4359 0.0
H335 H 0.24755 0.14169 0.41438 0.0
H336 H 0.30713 0.19035 0.42983 0.0
H337 H 0.11741 0.98816 0.4676 0.0
H338 H 0.14765 0.94884 0.47102 0.0
H339 H 0.12543 0.95647 0.44585 0.0
C340 C 0.14665 0.16433 0.73916 0.0
C341 C 0.09846 0.16211 0.74312 0.0
C342 C 0.19537 0.19909 0.75063 0.0
C343 C 0.19607 0.23289 0.76627 0.0
C344 C 0.14787 0.23157 0.77012 0.0
C345 C 0.09955 0.19597 0.75857 0.0
C346 C 0.24589 0.19907 0.74622 0.0
C347 C 0.14731 0.26758 0.78652 0.0
C348 C 0.30731 0.28846 0.80907 0.0
C349 C 0.34309 0.34013 0.8028 0.0
C350 C 0.25964 0.25285 0.79718 0.0
C351 C 0.24723 0.26952 0.77869 0.0
C352 C 0.28338 0.32137 0.77217 0.0
C353 C 0.33103 0.35591 0.78423 0.0
C354 C 0.2222 0.19764 0.80452 0.0
C355 C 0.27142 0.34058 0.75257 0.0
H356 H 0.14619 0.13811 0.72734 0.0
H357 H 0.06259 0.19468 0.76167 0.0
H358 H 0.27858 0.23948 0.74231 0.0
H359 H 0.26095 0.18843 0.76007 0.0
H360 H 0.23858 0.17057 0.73343 0.0
H361 H 0.10673 0.26248 0.78728 0.0
H362 H 0.15928 0.25926 0.80166 0.0
H363 H 0.17741 0.30979 0.78361 0.0
H364 H 0.31595 0.27616 0.82351 0.0
H365 H 0.35893 0.39543 0.77909 0.0
H366 H 0.2152 0.16734 0.79259 0.0
H367 H 0.18213 0.19191 0.8073 0.0
H368 H 0.23871 0.19025 0.81885 0.0
H369 H 0.26703 0.31432 0.73941 0.0
H370 H 0.30378 0.38211 0.74966 0.0
H371 H 0.23233 0.33862 0.75322 0.0
C372 C 0.89194 0.15511 0.67242 0.0
C373 C 0.9226 0.13339 0.66693 0.0
C374 C 0.86427 0.16697 0.65744 0.0
C375 C 0.867 0.15634 0.63655 0.0
C376 C 0.90228 0.13965 0.63088 0.0
C377 C 0.92998 0.12868 0.64616 0.0
C378 C 0.82807 0.18597 0.6641 0.0
C379 C 0.90646 0.12796 0.60877 0.0
C380 C 0.73599 0.10074 0.60383 0.0
C381 C 0.7464 0.14408 0.59215 0.0
C382 C 0.77516 0.10441 0.61818 0.0
C383 C 0.82591 0.15295 0.6212 0.0
C384 C 0.8367 0.19717 0.60967 0.0
C385 C 0.79682 0.19215 0.59518 0.0
C386 C 0.76201 0.05618 0.63015 0.0
C387 C 0.89022 0.2496 0.61263 0.0
H388 H 0.88681 0.15985 0.68843 0.0
H389 H 0.95403 0.11245 0.64173 0.0
H390 H 0.83135 0.21742 0.65416 0.0
H391 H 0.78515 0.15224 0.66272 0.0
H392 H 0.83817 0.20176 0.68024 0.0
H393 H 0.9422 0.12451 0.60668 0.0
H394 H 0.86929 0.08979 0.60337 0.0
H395 H 0.90928 0.15941 0.59895 0.0
H396 H 0.69675 0.06388 0.60196 0.0
H397 H 0.8053 0.22571 0.5861 0.0
H398 H 0.76383 0.06545 0.64674 0.0
H399 H 0.79252 0.04524 0.6278 0.0
H400 H 0.72105 0.02112 0.62562 0.0
H401 H 0.89741 0.26422 0.62885 0.0
H402 H 0.89175 0.28053 0.60279 0.0
H403 H 0.92395 0.24415 0.60908 0.0
C404 C 0.94616 0.9322 0.00049 0.0
C405 C 0.9701 0.98149 0.99128 0.0
C406 C 0.90554 0.88532 0.98986 0.0
C407 C 0.889 0.88768 0.96945 0.0
C408 C 0.91245 0.93734 0.96015 0.0
C409 C 0.95245 0.9837 0.97123 0.0
C410 C 0.88082 0.83318 0.00039 0.0
C411 C 0.89618 0.94134 0.93833 0.0
C412 C 0.82634 0.76356 0.93434 0.0
C413 C 0.77129 0.74686 0.9335 0.0
C414 C 0.86506 0.8091 0.94616 0.0
C415 C 0.84811 0.83808 0.95759 0.0
C416 C 0.79233 0.82051 0.95721 0.0
C417 C 0.75461 0.77526 0.94505 0.0
C418 C 0.92426 0.82695 0.946 0.0
C419 C 0.77263 0.84989 0.96945 0.0
H420 H 0.95929 0.93017 0.01604 0.0
H421 H 0.97089 0.02154 0.96395 0.0
H422 H 0.83598 0.81345 -0.00014 0.0
H423 H 0.88986 0.80595 0.99225 0.0
H424 H 0.89637 0.83848 0.01662 0.0
H425 H 0.91775 0.98307 0.93344 0.0
H426 H 0.90517 0.91755 0.92789 0.0
H427 H 0.85182 0.92458 0.93654 0.0
H428 H 0.8393 0.74189 0.92525 0.0
H429 H 0.71192 0.76201 0.94454 0.0
H430 H 0.94124 0.82987 0.96183 0.0
H431 H 0.94765 0.86721 0.9398 0.0
H432 H 0.93059 0.79939 0.93662 0.0
H433 H 0.78649 0.85374 0.98581 0.0
H434 H 0.72765 0.82955 0.96826 0.0
H435 H 0.79023 0.89076 0.96398 0.0
C436 C 0.99129 0.89561 0.32312 0.0
C437 C 0.93609 0.87147 0.32677 0.0
C438 C 0.00968 0.86896 0.31137 0.0
C439 C 0.97194 0.81704 0.30306 0.0
C440 C 0.91624 0.79242 0.30673 0.0
C441 C 0.899 0.81991 0.31856 0.0
C442 C 0.06941 0.89636 0.30782 0.0
C443 C 0.87476 0.73709 0.29806 0.0
C444 C 0.00289 0.76207 0.25667 0.0
C445 C 0.0154 0.72668 0.2655 0.0
C446 C 0.99026 0.79296 0.26878 0.0
C447 C 0.99029 0.78843 0.29026 0.0
C448 C 0.00488 0.75431 0.29935 0.0
C449 C 0.01723 0.72377 0.28685 0.0
C450 C 0.97521 0.82914 0.25854 0.0
C451 C 0.00553 0.7486 0.32222 0.0
H452 H 0.02026 0.93542 0.32945 0.0
H453 H 0.85631 0.80096 0.32131 0.0
H454 H 0.08554 0.87193 0.31345 0.0
H455 H 0.07533 0.90046 0.29118 0.0
H456 H 0.0936 0.93652 0.31559 0.0
H457 H 0.83307 0.72343 0.30248 0.0
H458 H 0.8746 0.73618 0.28112 0.0
H459 H 0.88566 0.70842 0.30348 0.0
H460 H 0.00231 0.76511 0.2402 0.0
H461 H 0.02639 0.69615 0.29375 0.0
H462 H 0.00063 0.8702 0.26539 0.0
H463 H 0.93228 0.81522 0.26104 0.0
H464 H 0.98018 0.83038 0.2418 0.0
H465 H 0.03063 0.78828 0.33025 0.0
H466 H 0.02165 0.72346 0.32699 0.0
H467 H 0.96368 0.73034 0.32731 0.0
C468 C 0.13557 0.00987 0.64793 0.0
C469 C 0.11996 0.04525 0.65386 0.0
C470 C 0.17813 0.02553 0.635 0.0
C471 C 0.20582 0.07786 0.62789 0.0
C472 C 0.19074 0.11399 0.634 0.0
C473 C 0.1479 0.09723 0.6469 0.0
C474 C 0.19305 0.98584 0.62875 0.0
C475 C 0.21952 0.17015 0.62677 0.0
C476 C 0.34375 0.1253 0.60773 0.0
C477 C 0.33048 0.11421 0.58665 0.0
C478 C 0.30389 0.1155 0.62132 0.0
C479 C 0.24961 0.09406 0.61361 0.0
C480 C 0.23651 0.08504 0.59227 0.0
C481 C 0.27715 0.09532 0.57904 0.0
C482 C 0.3194 0.12586 0.64399 0.0
C483 C 0.17913 0.06251 0.58346 0.0
H484 H 0.11426 0.96969 0.65325 0.0
H485 H 0.13623 0.1249 0.65147 0.0
H486 H 0.18739 0.97888 0.61188 0.0
H487 H 0.23652 0.00192 0.63311 0.0
H488 H 0.16818 0.94702 0.63592 0.0
H489 H 0.20386 0.1938 0.63339 0.0
H490 H 0.26371 0.19073 0.63097 0.0
H491 H 0.21453 0.16936 0.60985 0.0
H492 H 0.3848 0.13943 0.6137 0.0
H493 H 0.26695 0.08747 0.56272 0.0
H494 H 0.29989 0.08751 0.65172 0.0
H495 H 0.30451 0.15002 0.65072 0.0
H496 H 0.36403 0.14689 0.64735 0.0
H497 H 0.15244 0.02153 0.58865 0.0
H498 H 0.17641 0.06107 0.56647 0.0
H499 H 0.16308 0.08672 0.58907 0.0
C500 C 0.21214 0.19024 0.98627 0.0
C501 C 0.20432 0.14202 0.9929 0.0
C502 C 0.24693 0.21733 0.97079 0.0
C503 C 0.2746 0.19563 0.96165 0.0
C504 C 0.26525 0.14587 0.96763 0.0
C505 C 0.23027 0.11965 0.98329 0.0
C506 C 0.25587 0.27039 0.96487 0.0
C507 C 0.29367 0.12134 0.95803 0.0
C508 C 0.33888 0.26257 0.91315 0.0
C509 C 0.39138 0.30177 0.92083 0.0
C510 C 0.30115 0.22519 0.92602 0.0
C511 C 0.3163 0.22753 0.94704 0.0
C512 C 0.37014 0.26518 0.95461 0.0
C513 C 0.40706 0.30181 0.94139 0.0
C514 C 0.2443 0.18519 0.91736 0.0
C515 C 0.3878 0.26913 0.97696 0.0
H516 H 0.1925 0.20799 0.99366 0.0
H517 H 0.22423 0.08228 0.98829 0.0
H518 H 0.29869 0.30238 0.96892 0.0
H519 H 0.24855 0.27038 0.9481 0.0
H520 H 0.22894 0.28025 0.97266 0.0
H521 H 0.27753 0.07996 0.96273 0.0
H522 H 0.28936 0.12107 0.9411 0.0
H523 H 0.33772 0.14562 0.96261 0.0
H524 H 0.32691 0.26199 0.89718 0.0
H525 H 0.44742 0.33233 0.94745 0.0
H526 H 0.21579 0.19607 0.92292 0.0
H527 H 0.23086 0.14487 0.92265 0.0
H528 H 0.24123 0.18358 0.90036 0.0
H529 H 0.36658 0.28347 0.98619 0.0
H530 H 0.43228 0.2969 0.97998 0.0
H531 H 0.37652 0.22942 0.98233 0.0
C532 C 0.00487 0.1404 0.3175 0.0
C533 C 0.00502 0.15451 0.33805 0.0
C534 C 0.01787 0.1774 0.30225 0.0
C535 C 0.0314 0.22958 0.30774 0.0
C536 C 0.0358 0.24517 0.32861 0.0
C537 C 0.02259 0.20746 0.34351 0.0
C538 C 0.01328 0.15951 0.28015 0.0
C539 C 0.05058 0.30062 0.33511 0.0
C540 C 0.08558 0.33998 0.27002 0.0
C541 C 0.03835 0.33947 0.26396 0.0
C542 C 0.08389 0.30336 0.28382 0.0
C543 C 0.03386 0.26566 0.29175 0.0
C544 C 0.9859 0.26421 0.2853 0.0
C545 C 0.98876 0.30114 0.2715 0.0
C546 C 0.13573 0.30582 0.29029 0.0
C547 C 0.93173 0.22471 0.29347 0.0
H548 H 0.99173 0.0997 0.31313 0.0
H549 H 0.02366 0.21901 0.35938 0.0
H550 H 0.97622 0.15501 0.2724 0.0
H551 H 0.04857 0.18969 0.27202 0.0
H552 H 0.01065 0.12081 0.27866 0.0
H553 H 0.05855 0.30822 0.35195 0.0
H554 H 0.08707 0.33093 0.32758 0.0
H555 H 0.01674 0.30603 0.3303 0.0
H556 H 0.12391 0.36919 0.26404 0.0
H557 H 0.95229 0.30105 0.26712 0.0
H558 H 0.13021 0.266 0.28814 0.0
H559 H 0.1461 0.31754 0.30681 0.0
H560 H 0.17045 0.33479 0.28157 0.0
H561 H 0.92251 0.18358 0.2909 0.0
H562 H 0.89793 0.22724 0.28617 0.0
H563 H 0.93335 0.23206 0.31022 0.0
loop_
_geom_bond_atom_site_label_1
_geom_bond_atom_site_label_2
_geom_bond_distance
_geom_bond_site_symmetry_2
_ccdc_geom_bond_type
Mg0 O1 2.028 . S
Mg0 O7 1.986 . S
Mg0 O9 2.114 . S
Mg0 O10 2.251 . S
Mg0 O13 2.010 . S
O1 Mg0 2.028 . S
O1 C4 1.250 1_455 S
O2 Mg3 2.028 1_655 S
O2 C4 1.248 . S
Mg3 O2 2.028 1_455 S
Mg3 O8 2.032 . S
Mg3 O10 2.079 . S
C4 O1 1.250 1_655 S
C4 O2 1.248 . S
C5 O6 1.264 1_565 S
C5 O13 1.249 1_565 S
O6 C5 1.264 1_545 S
O7 Mg0 1.986 . S
O7 C11 1.246 . S
O8 Mg3 2.032 . S
O8 C11 1.259 . S
O9 Mg0 2.114 . S
O9 C12 1.252 . S
O10 Mg0 2.251 . S
O10 Mg3 2.079 . S
O10 C12 1.273 . S
C11 O7 1.246 . S
C11 O8 1.259 . S
C12 O9 1.252 . S
C12 O10 1.273 . S
O13 Mg0 2.010 . S
O13 C5 1.249 1_545 S
Mg14 O15 2.028 1_655 S
Mg14 O21 1.986 1_655 S
Mg14 O23 2.114 1_545 S
Mg14 O24 2.251 . S
Mg14 O27 2.010 1_545 S
O15 Mg14 2.028 1_455 S
O15 C18 1.250 . S
O16 Mg17 2.028 . S
O16 C18 1.248 . S
Mg17 O16 2.028 . S
Mg17 O22 2.032 . S
Mg17 O24 2.079 1_455 S
C18 O15 1.250 . S
C18 O16 1.248 . S
C19 O20 1.264 . S
C19 O27 1.249 . S
O20 C19 1.264 . S
O21 Mg14 1.986 1_455 S
O21 C25 1.246 . S
O22 Mg17 2.032 . S
O22 C25 1.259 . S
O23 Mg14 2.114 1_565 S
O23 C26 1.252 1_565 S
O24 Mg14 2.251 . S
O24 Mg17 2.079 1_655 S
O24 C26 1.273 . S
C25 O21 1.246 . S
C25 O22 1.259 . S
C26 O23 1.252 1_545 S
C26 O24 1.273 . S
O27 Mg14 2.010 1_565 S
O27 C19 1.249 . S
Mg28 O29 2.028 . S
Mg28 O35 1.986 1_455 S
Mg28 O37 2.114 1_545 S
Mg28 O38 2.251 1_445 S
Mg28 O41 2.010 . S
O29 Mg28 2.028 . S
O29 C32 1.250 . S
O30 Mg31 2.028 1_455 S
O30 C32 1.248 . S
Mg31 O30 2.028 1_655 S
Mg31 O36 2.032 . S
Mg31 O38 2.079 1_545 S
C32 O29 1.250 . S
C32 O30 1.248 . S
C33 O34 1.264 1_545 S
C33 O41 1.249 . S
O34 C33 1.264 1_565 S
O35 Mg28 1.986 1_655 S
O35 C39 1.246 . S
O36 Mg31 2.032 . S
O36 C39 1.259 . S
O37 Mg28 2.114 1_565 S
O37 C40 1.252 1_455 S
O38 Mg28 2.251 1_665 S
O38 Mg31 2.079 1_565 S
O38 C40 1.273 . S
C39 O35 1.246 . S
C39 O36 1.259 . S
C40 O37 1.252 1_655 S
C40 O38 1.273 . S
O41 Mg28 2.010 . S
O41 C33 1.249 . S
C42 C43 1.384 1_655 S
C42 C44 1.384 . S
C42 H70 0.931 . S
C43 C42 1.384 1_455 S
C43 C46 1.382 . S
C44 C42 1.384 . S
C44 C45 1.381 1_655 S
C44 H71 0.930 . S
C45 C44 1.381 1_455 S
C45 C47 1.381 . S
C45 C48 1.487 . S
C46 C43 1.382 . S
C46 C47 1.387 . S
C46 H72 0.930 . S
C47 C45 1.381 . S
C47 C46 1.387 . S
C47 H73 0.931 . S
C48 C45 1.487 . S
C48 C55 1.399 . S
C48 N86 1.343 . S
C49 C50 1.384 . S
C49 C51 1.384 . S
C49 H74 0.931 . S
C50 C49 1.384 . S
C50 C53 1.382 . S
C51 C49 1.384 . S
C51 C52 1.381 . S
C51 H75 0.930 . S
C52 C51 1.381 . S
C52 C54 1.381 . S
C52 C55 1.487 . S
C53 C50 1.382 . S
C53 C54 1.387 . S
C53 H76 0.930 1_455 S
C54 C52 1.381 . S
C54 C53 1.387 . S
C54 H77 0.931 1_455 S
C55 C48 1.399 . S
C55 C52 1.487 . S
C55 N87 1.343 . S
C56 C57 1.384 . S
C56 C58 1.384 . S
C56 H78 0.931 . S
C57 C56 1.384 . S
C57 C60 1.382 . S
C58 C56 1.384 . S
C58 C59 1.381 . S
C58 H79 0.930 . S
C59 C58 1.381 . S
C59 C61 1.381 . S
C59 C62 1.487 . S
C60 C57 1.382 . S
C60 C61 1.387 . S
C60 H80 0.930 1_455 S
C61 C59 1.381 . S
C61 C60 1.387 . S
C61 H81 0.931 1_455 S
C62 C59 1.487 . S
C62 C69 1.399 . S
C62 N87 1.343 . S
C63 C64 1.384 1_655 S
C63 C65 1.384 . S
C63 H82 0.931 . S
C64 C63 1.384 1_455 S
C64 C67 1.382 . S
C65 C63 1.384 . S
C65 C66 1.381 1_655 S
C65 H83 0.930 . S
C66 C65 1.381 1_455 S
C66 C68 1.381 . S
C66 C69 1.487 . S
C67 C64 1.382 . S
C67 C68 1.387 . S
C67 H84 0.930 . S
C68 C66 1.381 . S
C68 C67 1.387 . S
C68 H85 0.931 . S
C69 C62 1.399 . S
C69 C66 1.487 . S
C69 N86 1.343 . S
H70 C42 0.931 . S
H71 C44 0.930 . S
H72 C46 0.930 . S
H73 C47 0.931 . S
H74 C49 0.931 . S
H75 C51 0.930 . S
H76 C53 0.930 1_655 S
H77 C54 0.931 1_655 S
H78 C56 0.931 . S
H79 C58 0.930 . S
H80 C60 0.930 1_655 S
H81 C61 0.931 1_655 S
H82 C63 0.931 . S
H83 C65 0.930 . S
H84 C67 0.930 . S
H85 C68 0.931 . S
N86 C48 1.343 . S
N86 C69 1.343 . S
N87 C55 1.343 . S
N87 C62 1.343 . S
C88 C89 1.384 . S
C88 C90 1.384 . S
C88 H116 0.931 . S
C89 C88 1.384 . S
C89 C92 1.382 . S
C90 C88 1.384 . S
C90 C91 1.381 . S
C90 H117 0.930 . S
C91 C90 1.381 . S
C91 C93 1.381 . S
C91 C94 1.487 . S
C92 C89 1.382 . S
C92 C93 1.387 . S
C92 H118 0.930 . S
C93 C91 1.381 . S
C93 C92 1.387 . S
C93 H119 0.931 . S
C94 C91 1.487 . S
C94 C101 1.399 . S
C94 N132 1.343 . S
C95 C96 1.384 . S
C95 C97 1.384 . S
C95 H120 0.931 . S
C96 C95 1.384 . S
C96 C99 1.382 . S
C97 C95 1.384 . S
C97 C98 1.381 . S
C97 H121 0.930 . S
C98 C97 1.381 . S
C98 C100 1.381 . S
C98 C101 1.487 . S
C99 C96 1.382 . S
C99 C100 1.387 . S
C99 H122 0.930 . S
C100 C98 1.381 . S
C100 C99 1.387 . S
C100 H123 0.931 . S
C101 C94 1.399 . S
C101 C98 1.487 . S
C101 N133 1.343 . S
C102 C103 1.384 . S
C102 C104 1.384 . S
C102 H124 0.931 . S
C103 C102 1.384 . S
C103 C106 1.382 . S
C104 C102 1.384 . S
C104 C105 1.381 . S
C104 H125 0.930 . S
C105 C104 1.381 . S
C105 C107 1.381 . S
C105 C108 1.487 . S
C106 C103 1.382 . S
C106 C107 1.387 . S
C106 H126 0.930 . S
C107 C105 1.381 . S
C107 C106 1.387 . S
C107 H127 0.931 . S
C108 C105 1.487 . S
C108 C115 1.399 . S
C108 N133 1.343 . S
C109 C110 1.384 . S
C109 C111 1.384 . S
C109 H128 0.931 . S
C110 C109 1.384 . S
C110 C113 1.382 . S
C111 C109 1.384 . S
C111 C112 1.381 . S
C111 H129 0.930 . S
C112 C111 1.381 . S
C112 C114 1.381 . S
C112 C115 1.487 . S
C113 C110 1.382 . S
C113 C114 1.387 . S
C113 H130 0.930 . S
C114 C112 1.381 . S
C114 C113 1.387 . S
C114 H131 0.931 . S
C115 C108 1.399 . S
C115 C112 1.487 . S
C115 N132 1.343 . S
H116 C88 0.931 . S
H117 C90 0.930 . S
H118 C92 0.930 . S
H119 C93 0.931 . S
H120 C95 0.931 . S
H121 C97 0.930 . S
H122 C99 0.930 . S
H123 C100 0.931 . S
H124 C102 0.931 . S
H125 C104 0.930 . S
H126 C106 0.930 . S
H127 C107 0.931 . S
H128 C109 0.931 . S
H129 C111 0.930 . S
H130 C113 0.930 . S
H131 C114 0.931 . S
N132 C94 1.343 . S
N132 C115 1.343 . S
N133 C101 1.343 . S
N133 C108 1.343 . S
C134 C135 1.384 . S
C134 C136 1.384 . S
C134 H162 0.931 . S
C135 C134 1.384 . S
C135 C138 1.382 . S
C136 C134 1.384 . S
C136 C137 1.381 . S
C136 H163 0.930 . S
C137 C136 1.381 . S
C137 C139 1.381 . S
C137 C140 1.487 . S
C138 C135 1.382 . S
C138 C139 1.387 . S
C138 H164 0.930 . S
C139 C137 1.381 . S
C139 C138 1.387 . S
C139 H165 0.931 . S
C140 C137 1.487 . S
C140 C147 1.399 . S
C140 N178 1.343 . S
C141 C142 1.384 . S
C141 C143 1.384 . S
C141 H166 0.931 . S
C142 C141 1.384 . S
C142 C145 1.382 . S
C143 C141 1.384 . S
C143 C144 1.381 . S
C143 H167 0.930 . S
C144 C143 1.381 . S
C144 C146 1.381 . S
C144 C147 1.487 . S
C145 C142 1.382 . S
C145 C146 1.387 . S
C145 H168 0.930 . S
C146 C144 1.381 . S
C146 C145 1.387 . S
C146 H169 0.931 . S
C147 C140 1.399 . S
C147 C144 1.487 . S
C147 N179 1.343 . S
C148 C149 1.384 . S
C148 C150 1.384 . S
C148 H170 0.931 . S
C149 C148 1.384 . S
C149 C152 1.382 . S
C150 C148 1.384 . S
C150 C151 1.381 . S
C150 H171 0.930 . S
C151 C150 1.381 . S
C151 C153 1.381 . S
C151 C154 1.487 . S
C152 C149 1.382 . S
C152 C153 1.387 . S
C152 H172 0.930 . S
C153 C151 1.381 . S
C153 C152 1.387 . S
C153 H173 0.931 . S
C154 C151 1.487 . S
C154 C161 1.399 . S
C154 N179 1.343 . S
C155 C156 1.384 . S
C155 C157 1.384 . S
C155 H174 0.931 . S
C156 C155 1.384 . S
C156 C159 1.382 . S
C157 C155 1.384 . S
C157 C158 1.381 . S
C157 H175 0.930 . S
C158 C157 1.381 . S
C158 C160 1.381 . S
C158 C161 1.487 . S
C159 C156 1.382 . S
C159 C160 1.387 . S
C159 H176 0.930 . S
C160 C158 1.381 . S
C160 C159 1.387 . S
C160 H177 0.931 . S
C161 C154 1.399 . S
C161 C158 1.487 . S
C161 N178 1.343 . S
H162 C134 0.931 . S
H163 C136 0.930 . S
H164 C138 0.930 . S
H165 C139 0.931 . S
H166 C141 0.931 . S
H167 C143 0.930 . S
H168 C145 0.930 . S
H169 C146 0.931 . S
H170 C148 0.931 . S
H171 C150 0.930 . S
H172 C152 0.930 . S
H173 C153 0.931 . S
H174 C155 0.931 . S
H175 C157 0.930 . S
H176 C159 0.930 . S
H177 C160 0.931 . S
N178 C140 1.343 . S
N178 C161 1.343 . S
N179 C147 1.343 . S
N179 C154 1.343 . S
C180 C181 1.391 1_655 S
C180 C182 1.394 . S
C180 H196 0.931 . S
C181 C180 1.391 1_455 S
C181 C185 1.376 . S
C182 C180 1.394 . S
C182 C183 1.369 1_655 S
C182 C186 1.531 . S
C183 C182 1.369 1_455 S
C183 C184 1.410 . S
C183 C191 1.503 . S
C184 C183 1.410 . S
C184 C185 1.392 . S
C184 C187 1.511 . S
C185 C181 1.376 . S
C185 C184 1.392 . S
C185 H197 0.929 . S
C186 C182 1.531 . S
C186 H198 0.960 . S
C186 H199 0.962 . S
C186 H200 0.960 . S
C187 C184 1.511 . S
C187 H201 0.961 . S
C187 H202 0.961 . S
C187 H203 0.961 . S
C188 C189 1.370 . S
C188 C190 1.363 . S
C188 H204 0.931 . S
C189 C188 1.370 . S
C189 C193 1.408 . S
C190 C188 1.363 . S
C190 C191 1.370 . S
C190 C194 1.524 . S
C191 C183 1.503 . S
C191 C190 1.370 . S
C191 C192 1.403 . S
C192 C191 1.403 . S
C192 C193 1.404 . S
C192 C195 1.539 1_455 S
C193 C189 1.408 . S
C193 C192 1.404 . S
C193 H205 0.930 . S
C194 C190 1.524 . S
C194 H206 0.956 . S
C194 H207 0.961 . S
C194 H208 0.961 . S
C195 C192 1.539 1_655 S
C195 H209 0.958 . S
C195 H210 0.960 1_655 S
C195 H211 0.960 1_655 S
H196 C180 0.931 . S
H197 C185 0.929 . S
H198 C186 0.960 . S
H199 C186 0.962 . S
H200 C186 0.960 . S
H201 C187 0.961 . S
H202 C187 0.961 . S
H203 C187 0.961 . S
H204 C188 0.931 . S
H205 C193 0.930 . S
H206 C194 0.956 . S
H207 C194 0.961 . S
H208 C194 0.961 . S
H209 C195 0.958 . S
H210 C195 0.960 1_455 S
H211 C195 0.960 1_455 S
C212 C213 1.391 1_565 S
C212 C214 1.394 1_565 S
C212 H228 0.931 . S
C213 C212 1.391 1_545 S
C213 C217 1.376 . S
C214 C212 1.394 1_545 S
C214 C215 1.369 . S
C214 C218 1.531 1_545 S
C215 C214 1.369 . S
C215 C216 1.410 . S
C215 C223 1.503 . S
C216 C215 1.410 . S
C216 C217 1.392 . S
C216 C219 1.511 . S
C217 C213 1.376 . S
C217 C216 1.392 . S
C217 H229 0.929 . S
C218 C214 1.531 1_565 S
C218 H230 0.960 . S
C218 H231 0.963 . S
C218 H232 0.960 . S
C219 C216 1.511 . S
C219 H233 0.961 . S
C219 H234 0.961 . S
C219 H235 0.961 . S
C220 C221 1.370 . S
C220 C222 1.363 . S
C220 H236 0.931 . S
C221 C220 1.370 . S
C221 C225 1.408 . S
C222 C220 1.363 . S
C222 C223 1.370 . S
C222 C226 1.524 . S
C223 C215 1.503 . S
C223 C222 1.370 . S
C223 C224 1.403 . S
C224 C223 1.403 . S
C224 C225 1.404 . S
C224 C227 1.539 1_545 S
C225 C221 1.408 . S
C225 C224 1.404 . S
C225 H237 0.930 1_545 S
C226 C222 1.524 . S
C226 H238 0.956 . S
C226 H239 0.961 . S
C226 H240 0.961 . S
C227 C224 1.539 1_565 S
C227 H241 0.958 . S
C227 H242 0.961 . S
C227 H243 0.960 . S
H228 C212 0.931 . S
H229 C217 0.929 . S
H230 C218 0.960 . S
H231 C218 0.963 . S
H232 C218 0.960 . S
H233 C219 0.961 . S
H234 C219 0.961 . S
H235 C219 0.961 . S
H236 C220 0.931 . S
H237 C225 0.930 1_565 S
H238 C226 0.956 . S
H239 C226 0.961 . S
H240 C226 0.961 . S
H241 C227 0.958 . S
H242 C227 0.961 . S
H243 C227 0.960 . S
C244 C245 1.391 . S
C244 C246 1.394 . S
C244 H260 0.931 . S
C245 C244 1.391 . S
C245 C249 1.376 . S
C246 C244 1.394 . S
C246 C247 1.369 . S
C246 C250 1.531 . S
C247 C246 1.369 . S
C247 C248 1.410 . S
C247 C255 1.503 . S
C248 C247 1.410 . S
C248 C249 1.392 . S
C248 C251 1.511 . S
C249 C245 1.376 . S
C249 C248 1.392 . S
C249 H261 0.929 . S
C250 C246 1.531 . S
C250 H262 0.960 . S
C250 H263 0.962 . S
C250 H264 0.960 . S
C251 C248 1.511 . S
C251 H265 0.961 . S
C251 H266 0.961 . S
C251 H267 0.961 . S
C252 C253 1.370 . S
C252 C254 1.363 . S
C252 H268 0.931 . S
C253 C252 1.370 . S
C253 C257 1.408 . S
C254 C252 1.363 . S
C254 C255 1.370 . S
C254 C258 1.524 . S
C255 C247 1.503 . S
C255 C254 1.370 . S
C255 C256 1.403 . S
C256 C255 1.403 . S
C256 C257 1.404 . S
C256 C259 1.539 . S
C257 C253 1.408 . S
C257 C256 1.404 . S
C257 H269 0.930 . S
C258 C254 1.524 . S
C258 H270 0.956 . S
C258 H271 0.961 . S
C258 H272 0.961 . S
C259 C256 1.539 . S
C259 H273 0.958 . S
C259 H274 0.961 . S
C259 H275 0.960 . S
H260 C244 0.931 . S
H261 C249 0.929 . S
H262 C250 0.960 . S
H263 C250 0.962 . S
H264 C250 0.960 . S
H265 C251 0.961 . S
H266 C251 0.961 . S
H267 C251 0.961 . S
H268 C252 0.931 . S
H269 C257 0.930 . S
H270 C258 0.956 . S
H271 C258 0.961 . S
H272 C258 0.961 . S
H273 C259 0.958 . S
H274 C259 0.961 . S
H275 C259 0.960 . S
C276 C277 1.391 . S
C276 C278 1.394 . S
C276 H292 0.931 . S
C277 C276 1.391 . S
C277 C281 1.376 . S
C278 C276 1.394 . S
C278 C279 1.369 . S
C278 C282 1.531 . S
C279 C278 1.369 . S
C279 C280 1.410 . S
C279 C287 1.503 . S
C280 C279 1.410 . S
C280 C281 1.392 . S
C280 C283 1.511 . S
C281 C277 1.376 . S
C281 C280 1.392 . S
C281 H293 0.929 . S
C282 C278 1.531 . S
C282 H294 0.960 . S
C282 H295 0.962 1_455 S
C282 H296 0.960 . S
C283 C280 1.511 . S
C283 H297 0.961 . S
C283 H298 0.961 . S
C283 H299 0.961 . S
C284 C285 1.370 . S
C284 C286 1.363 . S
C284 H300 0.931 1_455 S
C285 C284 1.370 . S
C285 C289 1.408 . S
C286 C284 1.363 . S
C286 C287 1.370 . S
C286 C290 1.524 1_455 S
C287 C279 1.503 . S
C287 C286 1.370 . S
C287 C288 1.403 . S
C288 C287 1.403 . S
C288 C289 1.404 . S
C288 C291 1.539 . S
C289 C285 1.408 . S
C289 C288 1.404 . S
C289 H301 0.930 . S
C290 C286 1.524 1_655 S
C290 H302 0.956 . S
C290 H303 0.961 1_655 S
C290 H304 0.961 . S
C291 C288 1.539 . S
C291 H305 0.958 . S
C291 H306 0.961 . S
C291 H307 0.960 . S
H292 C276 0.931 . S
H293 C281 0.929 . S
H294 C282 0.960 . S
H295 C282 0.962 1_655 S
H296 C282 0.960 . S
H297 C283 0.961 . S
H298 C283 0.961 . S
H299 C283 0.961 . S
H300 C284 0.931 1_655 S
H301 C289 0.930 . S
H302 C290 0.956 . S
H303 C290 0.961 1_455 S
H304 C290 0.961 . S
H305 C291 0.958 . S
H306 C291 0.961 . S
H307 C291 0.960 . S
C308 C309 1.391 . S
C308 C310 1.394 . S
C308 H324 0.931 . S
C309 C308 1.391 . S
C309 C313 1.376 . S
C310 C308 1.394 . S
C310 C311 1.369 . S
C310 C314 1.531 . S
C311 C310 1.369 . S
C311 C312 1.410 . S
C311 C319 1.503 . S
C312 C311 1.410 . S
C312 C313 1.392 . S
C312 C315 1.511 . S
C313 C309 1.376 . S
C313 C312 1.392 . S
C313 H325 0.929 . S
C314 C310 1.531 . S
C314 H326 0.960 . S
C314 H327 0.962 . S
C314 H328 0.960 . S
C315 C312 1.511 . S
C315 H329 0.961 . S
C315 H330 0.961 . S
C315 H331 0.961 . S
C316 C317 1.370 . S
C316 C318 1.363 . S
C316 H332 0.931 . S
C317 C316 1.370 . S
C317 C321 1.408 . S
C318 C316 1.363 . S
C318 C319 1.370 . S
C318 C322 1.524 . S
C319 C311 1.503 . S
C319 C318 1.370 . S
C319 C320 1.403 . S
C320 C319 1.403 . S
C320 C321 1.404 . S
C320 C323 1.539 1_545 S
C321 C317 1.408 . S
C321 C320 1.404 . S
C321 H333 0.930 1_545 S
C322 C318 1.524 . S
C322 H334 0.956 . S
C322 H335 0.961 . S
C322 H336 0.961 . S
C323 C320 1.539 1_565 S
C323 H337 0.958 . S
C323 H338 0.961 . S
C323 H339 0.960 . S
H324 C308 0.931 . S
H325 C313 0.929 . S
H326 C314 0.960 . S
H327 C314 0.962 . S
H328 C314 0.960 . S
H329 C315 0.961 . S
H330 C315 0.961 . S
H331 C315 0.961 . S
H332 C316 0.931 . S
H333 C321 0.930 1_565 S
H334 C322 0.956 . S
H335 C322 0.961 . S
H336 C322 0.961 . S
H337 C323 0.958 . S
H338 C323 0.961 . S
H339 C323 0.960 . S
C340 C341 1.391 . S
C340 C342 1.394 . S
C340 H356 0.931 . S
C341 C340 1.391 . S
C341 C345 1.376 . S
C342 C340 1.394 . S
C342 C343 1.369 . S
C342 C346 1.531 . S
C343 C342 1.369 . S
C343 C344 1.410 . S
C343 C351 1.503 . S
C344 C343 1.410 . S
C344 C345 1.392 . S
C344 C347 1.511 . S
C345 C341 1.376 . S
C345 C344 1.392 . S
C345 H357 0.929 . S
C346 C342 1.531 . S
C346 H358 0.960 . S
C346 H359 0.962 . S
C346 H360 0.960 . S
C347 C344 1.511 . S
C347 H361 0.961 . S
C347 H362 0.961 . S
C347 H363 0.961 . S
C348 C349 1.370 . S
C348 C350 1.363 . S
C348 H364 0.931 . S
C349 C348 1.370 . S
C349 C353 1.408 . S
C350 C348 1.363 . S
C350 C351 1.370 . S
C350 C354 1.524 . S
C351 C343 1.503 . S
C351 C350 1.370 . S
C351 C352 1.403 . S
C352 C351 1.403 . S
C352 C353 1.404 . S
C352 C355 1.539 . S
C353 C349 1.408 . S
C353 C352 1.404 . S
C353 H365 0.930 . S
C354 C350 1.524 . S
C354 H366 0.956 . S
C354 H367 0.961 . S
C354 H368 0.961 . S
C355 C352 1.539 . S
C355 H369 0.958 . S
C355 H370 0.961 . S
C355 H371 0.960 . S
H356 C340 0.931 . S
H357 C345 0.929 . S
H358 C346 0.960 . S
H359 C346 0.962 . S
H360 C346 0.960 . S
H361 C347 0.961 . S
H362 C347 0.961 . S
H363 C347 0.961 . S
H364 C348 0.931 . S
H365 C353 0.930 . S
H366 C354 0.956 . S
H367 C354 0.961 . S
H368 C354 0.961 . S
H369 C355 0.958 . S
H370 C355 0.961 . S
H371 C355 0.960 . S
C372 C373 1.391 . S
C372 C374 1.394 . S
C372 H388 0.931 . S
C373 C372 1.391 . S
C373 C377 1.376 . S
C374 C372 1.394 . S
C374 C375 1.369 . S
C374 C378 1.531 . S
C375 C374 1.369 . S
C375 C376 1.410 . S
C375 C383 1.503 . S
C376 C375 1.410 . S
C376 C377 1.392 . S
C376 C379 1.511 . S
C377 C373 1.376 . S
C377 C376 1.392 . S
C377 H389 0.929 . S
C378 C374 1.531 . S
C378 H390 0.960 . S
C378 H391 0.962 . S
C378 H392 0.960 . S
C379 C376 1.511 . S
C379 H393 0.961 . S
C379 H394 0.961 . S
C379 H395 0.961 . S
C380 C381 1.370 . S
C380 C382 1.363 . S
C380 H396 0.927 1_545 S
C381 C380 1.370 . S
C381 C385 1.408 . S
C382 C380 1.363 . S
C382 C383 1.370 . S
C382 C386 1.524 1_545 S
C383 C375 1.503 . S
C383 C382 1.370 . S
C383 C384 1.403 . S
C384 C383 1.403 . S
C384 C385 1.404 . S
C384 C387 1.539 . S
C385 C381 1.408 . S
C385 C384 1.404 . S
C385 H397 0.930 . S
C386 C382 1.524 1_565 S
C386 H398 0.956 . S
C386 H399 0.961 . S
C386 H400 0.961 . S
C387 C384 1.539 . S
C387 H401 0.958 . S
C387 H402 0.961 . S
C387 H403 0.960 . S
H388 C372 0.931 . S
H389 C377 0.929 . S
H390 C378 0.960 . S
H391 C378 0.962 . S
H392 C378 0.960 . S
H393 C379 0.961 . S
H394 C379 0.961 . S
H395 C379 0.961 . S
H396 C380 0.927 1_565 S
H397 C385 0.930 . S
H398 C386 0.956 . S
H399 C386 0.961 . S
H400 C386 0.961 . S
H401 C387 0.958 . S
H402 C387 0.961 . S
H403 C387 0.960 . S
C404 C405 1.391 . S
C404 C406 1.394 1_554 S
C404 H420 0.931 . S
C405 C404 1.391 . S
C405 C409 1.376 1_554 S
C406 C404 1.394 1_556 S
C406 C407 1.369 . S
C406 C410 1.531 1_556 S
C407 C406 1.369 . S
C407 C408 1.410 . S
C407 C415 1.503 . S
C408 C407 1.410 . S
C408 C409 1.392 . S
C408 C411 1.511 . S
C409 C405 1.376 1_556 S
C409 C408 1.392 . S
C409 H421 0.929 . S
C410 C406 1.531 1_554 S
C410 H422 0.960 1_554 S
C410 H423 0.962 . S
C410 H424 0.960 . S
C411 C408 1.511 . S
C411 H425 0.961 . S
C411 H426 0.961 . S
C411 H427 0.961 . S
C412 C413 1.370 . S
C412 C414 1.363 . S
C412 H428 0.931 . S
C413 C412 1.370 . S
C413 C417 1.408 . S
C414 C412 1.363 . S
C414 C415 1.370 . S
C414 C418 1.524 . S
C415 C407 1.503 . S
C415 C414 1.370 . S
C415 C416 1.403 . S
C416 C415 1.403 . S
C416 C417 1.404 . S
C416 C419 1.539 . S
C417 C413 1.408 . S
C417 C416 1.404 . S
C417 H429 0.930 . S
C418 C414 1.524 . S
C418 H430 0.956 . S
C418 H431 0.961 . S
C418 H432 0.961 . S
C419 C416 1.539 . S
C419 H433 0.958 . S
C419 H434 0.961 . S
C419 H435 0.960 . S
H420 C404 0.931 . S
H421 C409 0.929 . S
H422 C410 0.960 1_556 S
H423 C410 0.962 . S
H424 C410 0.960 . S
H425 C411 0.961 . S
H426 C411 0.961 . S
H427 C411 0.961 . S
H428 C412 0.931 . S
H429 C417 0.930 . S
H430 C418 0.956 . S
H431 C418 0.961 . S
H432 C418 0.961 . S
H433 C419 0.958 . S
H434 C419 0.961 . S
H435 C419 0.960 . S
C436 C437 1.391 1_455 S
C436 C438 1.394 . S
C436 H452 0.931 . S
C437 C436 1.391 1_655 S
C437 C441 1.376 . S
C438 C436 1.394 . S
C438 C439 1.369 . S
C438 C442 1.531 . S
C439 C438 1.369 . S
C439 C440 1.410 1_455 S
C439 C447 1.503 . S
C440 C439 1.410 1_655 S
C440 C441 1.392 . S
C440 C443 1.511 . S
C441 C437 1.376 . S
C441 C440 1.392 . S
C441 H453 0.929 . S
C442 C438 1.531 . S
C442 H454 0.960 . S
C442 H455 0.962 . S
C442 H456 0.960 . S
C443 C440 1.511 . S
C443 H457 0.961 . S
C443 H458 0.961 . S
C443 H459 0.961 . S
C444 C445 1.370 1_655 S
C444 C446 1.363 . S
C444 H460 0.931 . S
C445 C444 1.370 1_455 S
C445 C449 1.408 . S
C446 C444 1.363 . S
C446 C447 1.370 1_655 S
C446 C450 1.524 . S
C447 C439 1.503 . S
C447 C446 1.370 1_455 S
C447 C448 1.403 . S
C448 C447 1.403 . S
C448 C449 1.404 . S
C448 C451 1.539 . S
C449 C445 1.408 . S
C449 C448 1.404 . S
C449 H461 0.930 . S
C450 C446 1.524 . S
C450 H462 0.956 . S
C450 H463 0.961 . S
C450 H464 0.961 . S
C451 C448 1.539 . S
C451 H465 0.958 . S
C451 H466 0.961 . S
C451 H467 0.960 . S
H452 C436 0.931 . S
H453 C441 0.929 . S
H454 C442 0.960 . S
H455 C442 0.962 . S
H456 C442 0.960 . S
H457 C443 0.961 . S
H458 C443 0.961 . S
H459 C443 0.961 . S
H460 C444 0.931 . S
H461 C449 0.930 . S
H462 C450 0.956 . S
H463 C450 0.961 . S
H464 C450 0.961 . S
H465 C451 0.958 . S
H466 C451 0.961 . S
H467 C451 0.960 . S
C468 C469 1.391 1_565 S
C468 C470 1.387 . S
C468 H484 0.931 . S
C469 C468 1.391 1_545 S
C469 C473 1.376 . S
C470 C468 1.387 . S
C470 C471 1.353 1_565 S
C470 C474 1.554 . S
C471 C470 1.353 1_545 S
C471 C472 1.410 . S
C471 C479 1.503 . S
C472 C471 1.410 . S
C472 C473 1.392 . S
C472 C475 1.511 . S
C473 C469 1.376 . S
C473 C472 1.392 . S
C473 H485 0.929 . S
C474 C470 1.554 . S
C474 H486 0.960 . S
C474 H487 0.962 . S
C474 H488 0.960 . S
C475 C472 1.511 . S
C475 H489 0.961 . S
C475 H490 0.961 . S
C475 H491 0.961 . S
C476 C477 1.370 . S
C476 C478 1.363 . S
C476 H492 0.931 . S
C477 C476 1.370 . S
C477 C481 1.408 . S
C478 C476 1.363 . S
C478 C479 1.370 . S
C478 C482 1.524 . S
C479 C471 1.503 . S
C479 C478 1.370 . S
C479 C480 1.403 . S
C480 C479 1.403 . S
C480 C481 1.404 . S
C480 C483 1.539 1_545 S
C481 C477 1.408 . S
C481 C480 1.404 . S
C481 H493 0.930 . S
C482 C478 1.524 . S
C482 H494 0.956 . S
C482 H495 0.961 . S
C482 H496 0.961 . S
C483 C480 1.539 1_565 S
C483 H497 0.958 . S
C483 H498 0.961 . S
C483 H499 0.960 . S
H484 C468 0.931 . S
H485 C473 0.929 . S
H486 C474 0.960 . S
H487 C474 0.962 . S
H488 C474 0.960 . S
H489 C475 0.961 . S
H490 C475 0.961 . S
H491 C475 0.961 . S
H492 C476 0.931 . S
H493 C481 0.930 . S
H494 C482 0.956 . S
H495 C482 0.961 . S
H496 C482 0.961 . S
H497 C483 0.958 . S
H498 C483 0.961 . S
H499 C483 0.960 . S
C500 C501 1.391 . S
C500 C502 1.394 1_554 S
C500 H516 0.931 . S
C501 C500 1.391 . S
C501 C505 1.376 1_554 S
C502 C500 1.394 1_556 S
C502 C503 1.369 . S
C502 C506 1.531 1_556 S
C503 C502 1.369 . S
C503 C504 1.410 . S
C503 C511 1.503 . S
C504 C503 1.410 . S
C504 C505 1.392 . S
C504 C507 1.511 . S
C505 C501 1.376 1_556 S
C505 C504 1.392 . S
C505 H517 0.929 . S
C506 C502 1.531 1_554 S
C506 H518 0.960 1_554 S
C506 H519 0.962 1_554 S
C506 H520 0.960 . S
C507 C504 1.511 . S
C507 H521 0.961 . S
C507 H522 0.961 . S
C507 H523 0.961 . S
C508 C509 1.370 . S
C508 C510 1.363 . S
C508 H524 0.931 . S
C509 C508 1.370 . S
C509 C513 1.408 . S
C510 C508 1.363 . S
C510 C511 1.370 . S
C510 C514 1.524 . S
C511 C503 1.503 . S
C511 C510 1.370 . S
C511 C512 1.403 . S
C512 C511 1.403 . S
C512 C513 1.404 . S
C512 C515 1.539 . S
C513 C509 1.408 . S
C513 C512 1.404 . S
C513 H525 0.930 . S
C514 C510 1.524 . S
C514 H526 0.956 . S
C514 H527 0.961 . S
C514 H528 0.961 . S
C515 C512 1.539 . S
C515 H529 0.958 . S
C515 H530 0.961 . S
C515 H531 0.960 . S
H516 C500 0.931 . S
H517 C505 0.929 . S
H518 C506 0.960 1_556 S
H519 C506 0.962 1_556 S
H520 C506 0.960 . S
H521 C507 0.961 . S
H522 C507 0.961 . S
H523 C507 0.961 . S
H524 C508 0.931 . S
H525 C513 0.930 . S
H526 C514 0.956 . S
H527 C514 0.961 . S
H528 C514 0.961 . S
H529 C515 0.958 . S
H530 C515 0.961 . S
H531 C515 0.960 . S
C532 C533 1.391 1_655 S
C532 C534 1.394 . S
C532 H548 0.931 . S
C533 C532 1.391 1_455 S
C533 C537 1.376 . S
C534 C532 1.394 . S
C534 C535 1.369 1_655 S
C534 C538 1.531 . S
C535 C534 1.369 1_455 S
C535 C536 1.410 . S
C535 C543 1.503 . S
C536 C535 1.410 . S
C536 C537 1.392 . S
C536 C539 1.511 . S
C537 C533 1.376 . S
C537 C536 1.392 . S
C537 H549 0.929 . S
C538 C534 1.531 . S
C538 H550 0.960 . S
C538 H551 0.962 . S
C538 H552 0.960 . S
C539 C536 1.511 . S
C539 H553 0.961 . S
C539 H554 0.961 . S
C539 H555 0.961 . S
C540 C541 1.370 . S
C540 C542 1.363 . S
C540 H556 0.931 . S
C541 C540 1.370 . S
C541 C545 1.408 . S
C542 C540 1.363 . S
C542 C543 1.370 . S
C542 C546 1.524 . S
C543 C535 1.503 . S
C543 C542 1.370 . S
C543 C544 1.403 . S
C544 C543 1.403 . S
C544 C545 1.404 . S
C544 C547 1.539 . S
C545 C541 1.408 . S
C545 C544 1.404 . S
C545 H557 0.930 . S
C546 C542 1.524 . S
C546 H558 0.956 . S
C546 H559 0.961 . S
C546 H560 0.961 . S
C547 C544 1.539 . S
C547 H561 0.958 1_455 S
C547 H562 0.961 . S
C547 H563 0.960 . S
H548 C532 0.931 . S
H549 C537 0.929 . S
H550 C538 0.960 . S
H551 C538 0.962 . S
H552 C538 0.960 . S
H553 C539 0.961 . S
H554 C539 0.961 . S
H555 C539 0.961 . S
H556 C540 0.931 . S
H557 C545 0.930 . S
H558 C546 0.956 . S
H559 C546 0.961 . S
H560 C546 0.961 . S
H561 C547 0.958 1_655 S
H562 C547 0.961 . S
H563 C547 0.960 . S
C189 C50 1.383 . S
C181 C11 1.385 . S
C213 C26 1.539 . S
C221 C89 1.532 . S
C245 C40 1.400 . S
C253 C156 1.420 . S
C277 C5 1.211 . S
C285 C57 1.382 . S
C317 C110 1.525 . S
C309 C18 1.513 . S
C341 C32 1.397 . S
C349 C135 1.405 . S
C381 C96 1.268 . S
C373 C39 1.267 . S
C405 C4 1.379 1_565 S
C413 C149 1.414 . S
C445 C64 1.395 . S
C437 C19 1.296 . S
C477 C103 1.308 . S
C469 C33 1.096 . S
C509 C142 1.425 . S
C501 C12 1.425 . S
C533 C25 1.347 . S
C541 C43 1.394 . S
