# Generated by pormake.
# Topology cml, (3,6)-cn, num edge types: 1
# Building blocks:
#     Node 0, Type 0, BuildingBlock: BETDAH_clean_linker_0, # of connection points: 3
#     Node 1, Type 0, BuildingBlock: BETDAH_clean_linker_0, # of connection points: 3
#     Node 2, Type 0, BuildingBlock: BETDAH_clean_linker_0, # of connection points: 3
#     Node 3, Type 0, BuildingBlock: BETDAH_clean_linker_0, # of connection points: 3
#     Node 4, Type 0, BuildingBlock: BETDAH_clean_linker_0, # of connection points: 3
#     Node 5, Type 0, BuildingBlock: BETDAH_clean_linker_0, # of connection points: 3
#     Node 6, Type 0, BuildingBlock: BETDAH_clean_linker_0, # of connection points: 3
#     Node 7, Type 0, BuildingBlock: BETDAH_clean_linker_0, # of connection points: 3
#     Node 8, Type 1, BuildingBlock: IZENUY_clean_sbu_0, # of connection points: 6
#     Node 9, Type 1, BuildingBlock: IZENUY_clean_sbu_0, # of connection points: 6
#     Node 10, Type 1, BuildingBlock: IZENUY_clean_sbu_0, # of connection points: 6
#     Node 11, Type 1, BuildingBlock: IZENUY_clean_sbu_0, # of connection points: 6
#     Edge 12, Type (0, 1), BuildingBlock: MIFKUJ_clean_linker_0, # of connection points: 2
#     Edge 13, Type (0, 1), BuildingBlock: MIFKUJ_clean_linker_0, # of connection points: 2
#     Edge 14, Type (0, 1), BuildingBlock: MIFKUJ_clean_linker_0, # of connection points: 2
#     Edge 15, Type (0, 1), BuildingBlock: MIFKUJ_clean_linker_0, # of connection points: 2
#     Edge 16, Type (0, 1), BuildingBlock: MIFKUJ_clean_linker_0, # of connection points: 2
#     Edge 17, Type (0, 1), BuildingBlock: MIFKUJ_clean_linker_0, # of connection points: 2
#     Edge 18, Type (0, 1), BuildingBlock: MIFKUJ_clean_linker_0, # of connection points: 2
#     Edge 19, Type (0, 1), BuildingBlock: MIFKUJ_clean_linker_0, # of connection points: 2
#     Edge 20, Type (0, 1), BuildingBlock: MIFKUJ_clean_linker_0, # of connection points: 2
#     Edge 21, Type (0, 1), BuildingBlock: MIFKUJ_clean_linker_0, # of connection points: 2
#     Edge 22, Type (0, 1), BuildingBlock: MIFKUJ_clean_linker_0, # of connection points: 2
#     Edge 23, Type (0, 1), BuildingBlock: MIFKUJ_clean_linker_0, # of connection points: 2
#     Edge 24, Type (0, 1), BuildingBlock: MIFKUJ_clean_linker_0, # of connection points: 2
#     Edge 25, Type (0, 1), BuildingBlock: MIFKUJ_clean_linker_0, # of connection points: 2
#     Edge 26, Type (0, 1), BuildingBlock: MIFKUJ_clean_linker_0, # of connection points: 2
#     Edge 27, Type (0, 1), BuildingBlock: MIFKUJ_clean_linker_0, # of connection points: 2
#     Edge 28, Type (0, 1), BuildingBlock: MIFKUJ_clean_linker_0, # of connection points: 2
#     Edge 29, Type (0, 1), BuildingBlock: MIFKUJ_clean_linker_0, # of connection points: 2
#     Edge 30, Type (0, 1), BuildingBlock: MIFKUJ_clean_linker_0, # of connection points: 2
#     Edge 31, Type (0, 1), BuildingBlock: MIFKUJ_clean_linker_0, # of connection points: 2
#     Edge 32, Type (0, 1), BuildingBlock: MIFKUJ_clean_linker_0, # of connection points: 2
#     Edge 33, Type (0, 1), BuildingBlock: MIFKUJ_clean_linker_0, # of connection points: 2
#     Edge 34, Type (0, 1), BuildingBlock: MIFKUJ_clean_linker_0, # of connection points: 2
#     Edge 35, Type (0, 1), BuildingBlock: MIFKUJ_clean_linker_0, # of connection points: 2
# Relax obj value: 0.003
# Max RMSD: 0.067
# Mean RMSD: 0.052
data_MOF--net-cml--node1-IZENUY_clean_sbu_0--node2-BETDAH_clean_linker_0--edge1-MIFKUJ_clean_linker_0
_symmetry_space_group_name_H-M    P1
_symmetry_Int_Tables_number       1
_symmetry_cell_setting            triclinic
loop_
_symmetry_equiv_pos_as_xyz
'x, y, z'
_cell_length_a     48.16428
_cell_length_b     53.72514
_cell_length_c     47.181659
_cell_angle_alpha  89.509949
_cell_angle_beta   90.671727
_cell_angle_gamma 90.928346
loop_
_atom_site_label
_atom_site_type_symbol
_atom_site_fract_x
_atom_site_fract_y
_atom_site_fract_z
_atom_type_partial_charge
H0 H 0.33542 0.40722 0.03447 0.0
H1 H 0.30896 0.37615 0.95451 0.0
H2 H 0.31536 0.32919 0.02796 0.0
C3 C 0.32839 0.39149 0.02193 0.0
C4 C 0.32639 0.36788 0.03486 0.0
C5 C 0.32293 0.39482 0.99279 0.0
C6 C 0.31257 0.37441 0.97714 0.0
C7 C 0.30888 0.35102 0.99018 0.0
C8 C 0.31623 0.34774 0.01879 0.0
N9 N 0.3025 0.32988 0.97353 0.0
C10 C 0.27546 0.3231 0.96606 0.0
H11 H 0.67083 0.60096 0.52682 0.0
H12 H 0.74898 0.60516 0.48328 0.0
H13 H 0.74014 0.64088 0.56372 0.0
C14 C 0.69193 0.60817 0.52532 0.0
C15 C 0.70322 0.62224 0.54769 0.0
C16 C 0.70833 0.60157 0.50217 0.0
C17 C 0.73598 0.61041 0.50077 0.0
C18 C 0.74722 0.62508 0.52278 0.0
C19 C 0.73101 0.63035 0.54637 0.0
N20 N 0.77565 0.63226 0.52332 0.0
C21 C 0.78816 0.64694 0.50252 0.0
H22 H 0.66761 0.40942 0.03322 0.0
H23 H 0.71951 0.40589 0.96002 0.0
H24 H 0.72978 0.35286 0.02808 0.0
C25 C 0.68424 0.40074 0.02177 0.0
C26 C 0.69765 0.38004 0.03377 0.0
C27 C 0.69189 0.41027 0.99521 0.0
C28 C 0.7132 0.39869 0.98053 0.0
C29 C 0.72691 0.37806 0.992 0.0
C30 C 0.71932 0.36877 0.01894 0.0
N31 N 0.7481 0.3676 0.97537 0.0
C32 C 0.76389 0.34676 0.98159 0.0
H33 H 0.34959 0.59713 0.52451 0.0
H34 H 0.30807 0.66722 0.5137 0.0
H35 H 0.32295 0.62144 0.44171 0.0
C36 C 0.33877 0.6104 0.51115 0.0
C37 C 0.33672 0.60606 0.48187 0.0
C38 C 0.32862 0.63241 0.52304 0.0
C39 C 0.31573 0.65004 0.50512 0.0
C40 C 0.31394 0.64598 0.47578 0.0
C41 C 0.32452 0.6242 0.4644 0.0
N42 N 0.3044 0.66456 0.45674 0.0
C43 C 0.27957 0.67707 0.45939 0.0
H44 H 0.84535 0.90071 0.02521 0.0
H45 H 0.81361 0.86857 0.94778 0.0
H46 H 0.82029 0.82356 0.02289 0.0
C47 C 0.83692 0.88491 0.01367 0.0
C48 C 0.8338 0.8619 0.02774 0.0
C49 C 0.83039 0.88759 0.98466 0.0
C50 C 0.81815 0.86726 0.97028 0.0
C51 C 0.81378 0.84442 0.9844 0.0
C52 C 0.82201 0.84173 0.01285 0.0
N53 N 0.80569 0.82297 0.96897 0.0
C54 C 0.77841 0.81801 0.96063 0.0
H55 H 0.16667 0.10858 0.52873 0.0
H56 H 0.24178 0.10399 0.48066 0.0
H57 H 0.2396 0.15047 0.55415 0.0
C58 C 0.18776 0.11493 0.52469 0.0
C59 C 0.20107 0.13124 0.54379 0.0
C60 C 0.20232 0.10485 0.502 0.0
C61 C 0.2301 0.1122 0.49761 0.0
C62 C 0.24325 0.12937 0.51582 0.0
C63 C 0.22886 0.13842 0.53916 0.0
N64 N 0.27216 0.13414 0.51362 0.0
C65 C 0.28339 0.15296 0.49662 0.0
H66 H 0.16979 0.91304 0.0272 0.0
H67 H 0.24017 0.91126 0.97153 0.0
H68 H 0.24175 0.87105 0.05043 0.0
C69 C 0.18994 0.90596 0.0217 0.0
C70 C 0.20363 0.89033 0.04113 0.0
C71 C 0.20277 0.9139 0.99646 0.0
C72 C 0.22962 0.90536 0.99065 0.0
C73 C 0.24349 0.88975 0.00994 0.0
C74 C 0.23059 0.88247 0.03522 0.0
N75 N 0.27182 0.88438 0.00589 0.0
C76 C 0.2805 0.86364 0.99122 0.0
H77 H 0.83378 0.09225 0.53279 0.0
H78 H 0.81273 0.16991 0.52878 0.0
H79 H 0.82795 0.13034 0.45244 0.0
C80 C 0.82975 0.109 0.5206 0.0
C81 C 0.83191 0.1084 0.49093 0.0
C82 C 0.82383 0.13122 0.53482 0.0
C83 C 0.81682 0.15238 0.51858 0.0
C84 C 0.81743 0.15164 0.48887 0.0
C85 C 0.82562 0.12997 0.47525 0.0
N86 N 0.81372 0.17357 0.47258 0.0
C87 C 0.7882 0.18502 0.4698 0.0
Fe88 Fe 0.01055 0.83447 0.32981 0.0
Fe89 Fe 0.01214 0.86415 0.38536 0.0
O90 O 0.01095 0.86335 0.34778 0.0
Fe91 Fe 0.01024 0.89151 0.32799 0.0
O92 O 0.98962 0.87875 0.29845 0.0
O93 O 0.97754 0.8411 0.3124 0.0
O94 O 0.99081 0.81756 0.35706 0.0
C95 C 0.97554 0.82508 0.37679 0.0
C96 C 0.04595 0.86506 0.29604 0.0
O97 O 0.98002 0.84602 0.38808 0.0
C98 C 0.047 0.9035 0.37358 0.0
O99 O 0.0435 0.82581 0.34579 0.0
O100 O 0.03348 0.83629 0.38942 0.0
O101 O 0.04262 0.88432 0.31067 0.0
O102 O 0.03023 0.84613 0.29916 0.0
C103 C 0.97493 0.903 0.37051 0.0
O104 O 0.04434 0.88252 0.38564 0.0
O105 O 0.03066 0.9097 0.35367 0.0
C106 C 0.04873 0.82515 0.37206 0.0
O107 O 0.99107 0.8922 0.38794 0.0
O108 O 0.97789 0.90057 0.34412 0.0
C109 C 0.97388 0.85974 0.29642 0.0
Fe110 Fe 1.00206 0.14205 0.88311 0.0
Fe111 Fe 1.00133 0.11657 0.82513 0.0
O112 O 1.00073 0.14396 0.84559 0.0
Fe113 Fe 0.99871 0.17336 0.82838 0.0
O114 O 0.03167 0.18323 0.84378 0.0
O115 O 0.02198 0.17145 0.88742 0.0
O116 O 0.03514 0.12624 0.88299 0.0
C117 C 0.03964 0.10641 0.86977 0.0
C118 C 0.96416 0.17894 0.87615 0.0
O119 O 0.02351 0.09926 0.84997 0.0
C120 C 0.96202 0.14648 0.79604 0.0
O121 O 0.98263 0.11231 0.88533 0.0
O122 O 0.96981 0.10455 0.84136 0.0
O123 O 0.97919 0.18825 0.85679 0.0
O124 O 0.96894 0.15755 0.88605 0.0
C125 C 0.03496 0.14658 0.79319 0.0
O126 O 0.97924 0.12889 0.79653 0.0
O127 O 0.96554 0.16515 0.81184 0.0
C128 C 0.96678 0.10129 0.86765 0.0
O129 O 0.03289 0.12674 0.80753 0.0
O130 O 0.01803 0.16408 0.79674 0.0
C131 C 0.03694 0.18369 0.87004 0.0
Fe132 Fe 0.51832 0.33321 0.32826 0.0
Fe133 Fe 0.51629 0.364 0.38282 0.0
O134 O 0.51729 0.36247 0.34531 0.0
Fe135 Fe 0.5172 0.3902 0.32459 0.0
O136 O 0.49834 0.37632 0.29442 0.0
O137 O 0.48594 0.33901 0.30934 0.0
O138 O 0.49772 0.31626 0.35501 0.0
C139 C 0.48129 0.32392 0.37366 0.0
C140 C 0.55504 0.3636 0.29545 0.0
O141 O 0.48465 0.34522 0.38423 0.0
C142 C 0.5507 0.40397 0.37221 0.0
O143 O 0.55064 0.32558 0.34594 0.0
O144 O 0.53852 0.33681 0.38877 0.0
O145 O 0.55063 0.38311 0.30934 0.0
O146 O 0.5393 0.34459 0.29828 0.0
C147 C 0.47841 0.401 0.36429 0.0
O148 O 0.54782 0.38317 0.38455 0.0
O149 O 0.53571 0.40945 0.35093 0.0
C150 C 0.55481 0.32564 0.37238 0.0
O151 O 0.4938 0.39131 0.38326 0.0
O152 O 0.48389 0.39908 0.33833 0.0
C153 C 0.48248 0.35733 0.29285 0.0
Fe154 Fe 0.49678 0.64603 0.8822 0.0
Fe155 Fe 0.49434 0.61738 0.82617 0.0
O156 O 0.49544 0.64594 0.84462 0.0
Fe157 Fe 0.49526 0.67451 0.82548 0.0
O158 O 0.52865 0.68371 0.84052 0.0
O159 O 0.51813 0.67473 0.88468 0.0
O160 O 0.52892 0.6289 0.88314 0.0
C161 C 0.5321 0.60798 0.87179 0.0
C162 C 0.46056 0.68388 0.8723 0.0
O163 O 0.51575 0.60051 0.85229 0.0
C164 C 0.45723 0.64787 0.79445 0.0
O165 O 0.4759 0.61727 0.88654 0.0
O166 O 0.46237 0.6077 0.8433 0.0
O167 O 0.47617 0.69161 0.85253 0.0
O168 O 0.46463 0.66303 0.88397 0.0
C169 C 0.52948 0.64403 0.79212 0.0
O170 O 0.47268 0.62906 0.79676 0.0
O171 O 0.46199 0.66712 0.80897 0.0
C172 C 0.4595 0.60583 0.86975 0.0
O173 O 0.52627 0.62504 0.8077 0.0
O174 O 0.5141 0.66273 0.79479 0.0
C175 C 0.53393 0.68524 0.86671 0.0
H176 H 0.25778 0.31532 0.91258 0.0
H177 H 0.21451 0.29435 0.89761 0.0
H178 H 0.19011 0.28704 0.98508 0.0
H179 H 0.23374 0.30771 0.99999 0.0
H180 H 0.18304 0.24398 0.95818 0.0
H181 H 0.15796 0.32844 0.93944 0.0
H182 H 0.16334 0.3708 0.91952 0.0
H183 H 0.16294 0.34113 0.8353 0.0
H184 H 0.15792 0.29854 0.85473 0.0
H185 H 0.04813 0.19699 0.92501 0.0
H186 H 0.086 0.22372 0.94255 0.0
H187 H 0.11538 0.23406 0.85716 0.0
H188 H 0.07716 0.20789 0.83936 0.0
H189 H 0.11815 0.27692 0.88509 0.0
H190 H 0.14453 0.19243 0.90393 0.0
H191 H 0.13703 0.15027 0.92358 0.0
H192 H 0.13532 0.17995 0.00774 0.0
H193 H 0.14188 0.22246 0.98848 0.0
C194 C 0.2429 0.30955 0.92849 0.0
C195 C 0.24871 0.31321 0.95733 0.0
C196 C 0.21819 0.29763 0.91997 0.0
C197 C 0.19886 0.28931 0.94019 0.0
C198 C 0.20464 0.29333 0.96909 0.0
C199 C 0.22941 0.30524 0.9776 0.0
C200 C 0.17336 0.27531 0.93121 0.0
C201 C 0.1686 0.25138 0.94256 0.0
C202 C 0.15482 0.28467 0.91034 0.0
C203 C 0.1578 0.31027 0.89857 0.0
C204 C 0.15923 0.33093 0.91668 0.0
C205 C 0.16218 0.35498 0.90548 0.0
C206 C 0.16355 0.35865 0.87617 0.0
C207 C 0.1619 0.33826 0.858 0.0
C208 C 0.15897 0.31416 0.8691 0.0
C209 C 0.06261 0.20499 0.90993 0.0
C210 C 0.05967 0.20017 0.88078 0.0
C211 C 0.08429 0.22025 0.92001 0.0
C212 C 0.10379 0.23066 0.90123 0.0
C213 C 0.1006 0.22626 0.87207 0.0
C214 C 0.07878 0.2112 0.86194 0.0
C215 C 0.12795 0.24559 0.91194 0.0
C216 C 0.1325 0.26963 0.90086 0.0
C217 C 0.14634 0.23631 0.93302 0.0
C218 C 0.1434 0.21067 0.94472 0.0
C219 C 0.14239 0.19 0.92661 0.0
C220 C 0.13826 0.16603 0.93768 0.0
C221 C 0.13567 0.16242 0.9669 0.0
C222 C 0.13728 0.18278 0.98511 0.0
C223 C 0.14114 0.20683 0.97412 0.0
H224 H 0.13246 0.14385 0.97543 0.0
H225 H 0.16582 0.37729 0.86753 0.0
H226 H 0.77263 0.69145 0.48091 0.0
H227 H 0.80272 0.7222 0.45685 0.0
H228 H 0.8708 0.67103 0.46196 0.0
H229 H 0.84075 0.64049 0.48617 0.0
H230 H 0.88691 0.71592 0.47989 0.0
H231 H 0.83791 0.68329 0.39893 0.0
H232 H 0.79684 0.67166 0.36999 0.0
H233 H 0.77102 0.74778 0.36839 0.0
H234 H 0.81176 0.75983 0.39767 0.0
H235 H 0.95506 0.78246 0.35272 0.0
H236 H 0.92098 0.753 0.37206 0.0
H237 H 0.91213 0.79925 0.44554 0.0
H238 H 0.94633 0.82898 0.4263 0.0
H239 H 0.86638 0.75673 0.38744 0.0
H240 H 0.90614 0.75897 0.50338 0.0
H241 H 0.9495 0.76828 0.5299 0.0
H242 H 0.99738 0.74829 0.45759 0.0
H243 H 0.95439 0.73836 0.4309 0.0
C244 C 0.79388 0.6867 0.47632 0.0
C245 C 0.80445 0.66365 0.48495 0.0
C246 C 0.81106 0.70424 0.46265 0.0
C247 C 0.83906 0.69894 0.4575 0.0
C248 C 0.84933 0.67559 0.46572 0.0
C249 C 0.83215 0.65809 0.47932 0.0
C250 C 0.85802 0.71802 0.44474 0.0
C251 C 0.88232 0.72487 0.45971 0.0
C252 C 0.85228 0.72961 0.41829 0.0
C253 C 0.82773 0.72241 0.40075 0.0
C254 C 0.82335 0.69752 0.39262 0.0
C255 C 0.80015 0.69085 0.37611 0.0
C256 C 0.78129 0.70896 0.36742 0.0
C257 C 0.78562 0.73377 0.37518 0.0
C258 C 0.80877 0.74053 0.39171 0.0
C259 C 0.94583 0.78648 0.37297 0.0
C260 C 0.95367 0.80801 0.38808 0.0
C261 C 0.92619 0.76966 0.3839 0.0
C262 C 0.91413 0.7738 0.41032 0.0
C263 C 0.92134 0.79558 0.42519 0.0
C264 C 0.94086 0.81257 0.41415 0.0
C265 C 0.89502 0.75473 0.42275 0.0
C266 C 0.87075 0.74791 0.40774 0.0
C267 C 0.90099 0.74285 0.44895 0.0
C268 C 0.92702 0.74822 0.46505 0.0
C269 C 0.92594 0.75645 0.49321 0.0
C270 C 0.95046 0.76182 0.50827 0.0
C271 C 0.97619 0.75894 0.49542 0.0
C272 C 0.97746 0.75055 0.46753 0.0
C273 C 0.95302 0.74507 0.45242 0.0
H274 H 0.99514 0.76316 0.50709 0.0
H275 H 0.76335 0.70376 0.35463 0.0
H276 H 0.75352 0.29711 0.97723 0.0
H277 H 0.78742 0.26556 0.96384 0.0
H278 H 0.85278 0.32136 0.96683 0.0
H279 H 0.81906 0.35266 0.98041 0.0
H280 H 0.84767 0.29646 0.91474 0.0
H281 H 0.85219 0.27641 0.01503 0.0
H282 H 0.83223 0.26371 0.06093 0.0
H283 H 0.80189 0.19545 0.02435 0.0
H284 H 0.82135 0.2079 0.97811 0.0
H285 H 0.96612 0.22906 0.88353 0.0
H286 H 0.93172 0.2551 0.90578 0.0
H287 H 0.8793 0.19037 0.92019 0.0
H288 H 0.91481 0.16398 0.89955 0.0
H289 H 0.87478 0.218 0.96296 0.0
H290 H 0.86792 0.23543 0.86406 0.0
H291 H 0.88433 0.24656 0.81621 0.0
H292 H 0.91342 0.31758 0.84652 0.0
H293 H 0.89753 0.30674 0.89465 0.0
C294 C 0.7753 0.30231 0.97596 0.0
C295 C 0.78392 0.32709 0.98019 0.0
C296 C 0.7946 0.28437 0.9682 0.0
C297 C 0.82264 0.29113 0.96429 0.0
C298 C 0.83129 0.31573 0.96975 0.0
C299 C 0.81209 0.33353 0.97771 0.0
C300 C 0.84249 0.27344 0.95189 0.0
C301 C 0.8539 0.27944 0.92543 0.0
C302 C 0.84958 0.2507 0.96522 0.0
C303 C 0.83798 0.24321 0.99304 0.0
C304 C 0.84105 0.25879 0.0167 0.0
C305 C 0.82987 0.25161 0.0428 0.0
C306 C 0.81574 0.22882 0.04553 0.0
C307 C 0.81282 0.21311 0.02219 0.0
C308 C 0.82394 0.22021 0.99605 0.0
C309 C 0.94723 0.22039 0.89141 0.0
C310 C 0.94299 0.19453 0.88954 0.0
C311 C 0.92744 0.23532 0.90402 0.0
C312 C 0.90238 0.22493 0.91403 0.0
C313 C 0.89832 0.19897 0.91256 0.0
C314 C 0.91855 0.18388 0.90066 0.0
C315 C 0.88057 0.24123 0.9259 0.0
C316 C 0.8686 0.23495 0.95213 0.0
C317 C 0.87234 0.2635 0.91201 0.0
C318 C 0.88172 0.27018 0.88302 0.0
C319 C 0.87796 0.25336 0.86056 0.0
C320 C 0.88716 0.25963 0.83338 0.0
C321 C 0.89996 0.28274 0.82834 0.0
C322 C 0.90352 0.29967 0.85045 0.0
C323 C 0.89439 0.29349 0.87768 0.0
H324 H 0.90708 0.28755 0.80729 0.0
H325 H 0.8071 0.22329 0.06575 0.0
H326 H 0.24811 0.67566 0.41269 0.0
H327 H 0.20767 0.70114 0.40155 0.0
H328 H 0.21351 0.7343 0.48442 0.0
H329 H 0.25435 0.70863 0.49558 0.0
H330 H 0.15745 0.72209 0.46555 0.0
H331 H 0.23839 0.76659 0.4332 0.0
H332 H 0.28276 0.77156 0.40809 0.0
H333 H 0.24193 0.75372 0.32929 0.0
H334 H 0.19736 0.74827 0.35401 0.0
H335 H 0.06887 0.82236 0.42649 0.0
H336 H 0.10717 0.79729 0.44451 0.0
H337 H 0.11911 0.76778 0.36086 0.0
H338 H 0.08127 0.79325 0.34251 0.0
H339 H 0.16719 0.78 0.38361 0.0
H340 H 0.08709 0.73341 0.41512 0.0
H341 H 0.04251 0.72688 0.43948 0.0
H342 H 0.08089 0.74739 0.51868 0.0
H343 H 0.12567 0.75429 0.49472 0.0
C344 C 0.24048 0.68815 0.42864 0.0
C345 C 0.25407 0.69032 0.45492 0.0
C346 C 0.21749 0.70272 0.42225 0.0
C347 C 0.20778 0.71978 0.44205 0.0
C348 C 0.22072 0.72124 0.46888 0.0
C349 C 0.24394 0.70667 0.47523 0.0
C350 C 0.18508 0.73683 0.43383 0.0
C351 C 0.15965 0.73508 0.44796 0.0
C352 C 0.18784 0.75337 0.41049 0.0
C353 C 0.21458 0.75682 0.39551 0.0
C354 C 0.23891 0.76353 0.41055 0.0
C355 C 0.26409 0.76647 0.39638 0.0
C356 C 0.26518 0.7629 0.36712 0.0
C357 C 0.24106 0.75645 0.35196 0.0
C358 C 0.21583 0.75346 0.36604 0.0
C359 C 0.07958 0.81049 0.41191 0.0
C360 C 0.07189 0.80978 0.38304 0.0
C361 C 0.10141 0.79605 0.4223 0.0
C362 C 0.11583 0.78035 0.40415 0.0
C363 C 0.1083 0.77972 0.3753 0.0
C364 C 0.0866 0.79427 0.36484 0.0
C365 C 0.13921 0.76503 0.41496 0.0
C366 C 0.1649 0.76715 0.40133 0.0
C367 C 0.13656 0.74875 0.43863 0.0
C368 C 0.10966 0.74461 0.45307 0.0
C369 C 0.08597 0.73672 0.43769 0.0
C370 C 0.06068 0.73291 0.45144 0.0
C371 C 0.05885 0.7368 0.4806 0.0
C372 C 0.08233 0.74443 0.49608 0.0
C373 C 0.10768 0.74826 0.48244 0.0
H374 H 0.03926 0.7338 0.49121 0.0
H375 H 0.28469 0.76519 0.35618 0.0
H376 H 0.7594 0.81367 0.90694 0.0
H377 H 0.7157 0.79363 0.89148 0.0
H378 H 0.69316 0.78159 0.97887 0.0
H379 H 0.73712 0.80137 0.99422 0.0
H380 H 0.68626 0.73987 0.94912 0.0
H381 H 0.65996 0.82505 0.93676 0.0
H382 H 0.66454 0.86827 0.9192 0.0
H383 H 0.66164 0.84248 0.83332 0.0
H384 H 0.65742 0.79906 0.85036 0.0
H385 H 0.54913 0.69618 0.92142 0.0
H386 H 0.58897 0.72111 0.93768 0.0
H387 H 0.61321 0.73408 0.85102 0.0
H388 H 0.57311 0.70952 0.8345 0.0
H389 H 0.61842 0.77604 0.88109 0.0
H390 H 0.64628 0.69124 0.89278 0.0
H391 H 0.64167 0.64778 0.90956 0.0
H392 H 0.64228 0.67256 0.99585 0.0
H393 H 0.64648 0.71622 0.97956 0.0
C394 C 0.7448 0.80713 0.92275 0.0
C395 C 0.75124 0.80918 0.95168 0.0
C396 C 0.71986 0.79571 0.91395 0.0
C397 C 0.70097 0.78623 0.93401 0.0
C398 C 0.70734 0.78877 0.96301 0.0
C399 C 0.7323 0.80018 0.97178 0.0
C400 C 0.6754 0.77245 0.92474 0.0
C401 C 0.67119 0.74796 0.93462 0.0
C402 C 0.65611 0.78268 0.90516 0.0
C403 C 0.65863 0.80878 0.89485 0.0
C404 C 0.66052 0.82858 0.91413 0.0
C405 C 0.66301 0.85312 0.90427 0.0
C406 C 0.66345 0.85812 0.87516 0.0
C407 C 0.66133 0.83858 0.85585 0.0
C408 C 0.65886 0.81401 0.8656 0.0
C409 C 0.56286 0.70437 0.90576 0.0
C410 C 0.55789 0.70076 0.87662 0.0
C411 C 0.58573 0.71856 0.91512 0.0
C412 C 0.60432 0.72925 0.8956 0.0
C413 C 0.59918 0.72603 0.86649 0.0
C414 C 0.57625 0.7119 0.85709 0.0
C415 C 0.62929 0.74352 0.90553 0.0
C416 C 0.63343 0.76804 0.89571 0.0
C417 C 0.64862 0.73328 0.92506 0.0
C418 C 0.64642 0.70702 0.93493 0.0
C419 C 0.64524 0.68744 0.91532 0.0
C420 C 0.64272 0.66277 0.92475 0.0
C421 C 0.64161 0.65742 0.95375 0.0
C422 C 0.6431 0.67673 0.97339 0.0
C423 C 0.64557 0.70144 0.96408 0.0
H424 H 0.63964 0.63831 0.961 0.0
H425 H 0.66537 0.87713 0.86757 0.0
H426 H 0.31581 0.14476 0.45171 0.0
H427 H 0.34698 0.17493 0.42833 0.0
H428 H 0.31817 0.23273 0.48316 0.0
H429 H 0.28677 0.20247 0.50637 0.0
H430 H 0.32574 0.25011 0.42869 0.0
H431 H 0.37804 0.20427 0.49823 0.0
H432 H 0.39571 0.16659 0.52206 0.0
H433 H 0.43461 0.14447 0.44503 0.0
H434 H 0.41683 0.18187 0.42062 0.0
H435 H 0.44109 0.33419 0.41248 0.0
H436 H 0.40515 0.306 0.43101 0.0
H437 H 0.4348 0.24721 0.37817 0.0
H438 H 0.47094 0.27517 0.3597 0.0
H439 H 0.42612 0.23071 0.43124 0.0
H440 H 0.37481 0.27722 0.36185 0.0
H441 H 0.3576 0.31518 0.33826 0.0
H442 H 0.3173 0.33642 0.41486 0.0
H443 H 0.33461 0.29873 0.43905 0.0
C444 C 0.31585 0.16402 0.45836 0.0
C445 C 0.29897 0.17146 0.48065 0.0
C446 C 0.33374 0.1812 0.44515 0.0
C447 C 0.33523 0.20607 0.45422 0.0
C448 C 0.31742 0.21368 0.47579 0.0
C449 C 0.29952 0.19645 0.48903 0.0
C450 C 0.35639 0.22367 0.44227 0.0
C451 C 0.34771 0.24601 0.42952 0.0
C452 C 0.38507 0.21819 0.44289 0.0
C453 C 0.39586 0.19573 0.45753 0.0
C454 C 0.39018 0.19127 0.48632 0.0
C455 C 0.40024 0.16998 0.49994 0.0
C456 C 0.41621 0.15311 0.48505 0.0
C457 C 0.4222 0.15753 0.45652 0.0
C458 C 0.41215 0.17878 0.44279 0.0
C459 C 0.43997 0.31528 0.40473 0.0
C460 C 0.45903 0.30698 0.38461 0.0
C461 C 0.41927 0.2992 0.41526 0.0
C462 C 0.41707 0.2745 0.40583 0.0
C463 C 0.43605 0.26617 0.38577 0.0
C464 C 0.4567 0.28224 0.37518 0.0
C465 C 0.39552 0.2571 0.41745 0.0
C466 C 0.40415 0.23481 0.43027 0.0
C467 C 0.36685 0.26268 0.41688 0.0
C468 C 0.35624 0.28526 0.40234 0.0
C469 C 0.36246 0.29008 0.37374 0.0
C470 C 0.35265 0.31153 0.36024 0.0
C471 C 0.33643 0.32823 0.37507 0.0
C472 C 0.3299 0.32348 0.40341 0.0
C473 C 0.33968 0.30206 0.41701 0.0
H474 H 0.32886 0.34483 0.36459 0.0
H475 H 0.42399 0.13664 0.49564 0.0
H476 H 0.28094 0.81542 0.00793 0.0
H477 H 0.30728 0.78178 0.98638 0.0
H478 H 0.33609 0.83282 0.92155 0.0
H479 H 0.30938 0.86622 0.94287 0.0
H480 H 0.32435 0.78799 0.89923 0.0
H481 H 0.3762 0.81903 0.98003 0.0
H482 H 0.38343 0.82971 0.03034 0.0
H483 H 0.3677 0.75357 0.05442 0.0
H484 H 0.36002 0.7425 0.00424 0.0
H485 H 0.44752 0.73086 0.85415 0.0
H486 H 0.41289 0.75854 0.8734 0.0
H487 H 0.38969 0.70231 0.93488 0.0
H488 H 0.42461 0.67455 0.91599 0.0
H489 H 0.3956 0.74684 0.95935 0.0
H490 H 0.34769 0.71508 0.87788 0.0
H491 H 0.3416 0.70446 0.82743 0.0
H492 H 0.35037 0.78165 0.80434 0.0
H493 H 0.35694 0.7927 0.85465 0.0
C494 C 0.29256 0.81921 0.9888 0.0
C495 C 0.29322 0.84319 0.97688 0.0
C496 C 0.30772 0.8001 0.97662 0.0
C497 C 0.32401 0.80483 0.95254 0.0
C498 C 0.32371 0.82869 0.94008 0.0
C499 C 0.3085 0.84774 0.95223 0.0
C500 C 0.34244 0.78542 0.94109 0.0
C501 C 0.34006 0.77913 0.91232 0.0
C502 C 0.36256 0.77339 0.95828 0.0
C503 C 0.36722 0.78001 0.98843 0.0
C504 C 0.37407 0.80461 0.99608 0.0
C505 C 0.37829 0.81073 0.02456 0.0
C506 C 0.37594 0.79235 0.04557 0.0
C507 C 0.36945 0.7678 0.03813 0.0
C508 C 0.36518 0.76159 0.00967 0.0
C509 C 0.43501 0.72429 0.8717 0.0
C510 C 0.43893 0.70044 0.88352 0.0
C511 C 0.41508 0.74012 0.8826 0.0
C512 C 0.39843 0.73243 0.9054 0.0
C513 C 0.40225 0.70865 0.91725 0.0
C514 C 0.42221 0.69278 0.90637 0.0
C515 C 0.3777 0.74956 0.91741 0.0
C516 C 0.37968 0.75547 0.94629 0.0
C517 C 0.35726 0.76123 0.90031 0.0
C518 C 0.35303 0.75469 0.87004 0.0
C519 C 0.34851 0.72978 0.86203 0.0
C520 C 0.34495 0.72368 0.83346 0.0
C521 C 0.34566 0.74236 0.81269 0.0
C522 C 0.34985 0.76719 0.82046 0.0
C523 C 0.35346 0.77339 0.849 0.0
H524 H 0.34291 0.7376 0.79058 0.0
H525 H 0.37922 0.79712 0.06761 0.0
H526 H 0.75488 0.21013 0.50525 0.0
H527 H 0.71362 0.23414 0.49154 0.0
H528 H 0.72399 0.21236 0.40449 0.0
H529 H 0.76513 0.18864 0.4182 0.0
H530 H 0.71695 0.26186 0.40898 0.0
H531 H 0.67247 0.18706 0.44479 0.0
H532 H 0.66211 0.15459 0.48055 0.0
H533 H 0.63214 0.21002 0.5371 0.0
H534 H 0.64267 0.24289 0.5018 0.0
H535 H 0.59151 0.29692 0.34395 0.0
H536 H 0.63017 0.27337 0.36357 0.0
H537 H 0.61034 0.29808 0.44758 0.0
H538 H 0.57114 0.32145 0.42816 0.0
H539 H 0.62252 0.2494 0.44806 0.0
H540 H 0.66458 0.32393 0.41195 0.0
H541 H 0.67519 0.35685 0.37681 0.0
H542 H 0.71052 0.30279 0.32189 0.0
H543 H 0.69964 0.26946 0.35645 0.0
C544 C 0.74802 0.21035 0.4833 0.0
C545 C 0.76284 0.19764 0.46269 0.0
C546 C 0.72452 0.22397 0.47548 0.0
C547 C 0.71566 0.22497 0.44698 0.0
C548 C 0.73045 0.2119 0.42656 0.0
C549 C 0.75382 0.1983 0.43438 0.0
C550 C 0.69177 0.24042 0.43797 0.0
C551 C 0.69623 0.25894 0.4173 0.0
C552 C 0.66495 0.2372 0.44954 0.0
C553 C 0.65866 0.21746 0.47078 0.0
C554 C 0.66391 0.19236 0.46495 0.0
C555 C 0.65796 0.17387 0.48511 0.0
C556 C 0.64656 0.18025 0.51111 0.0
C557 C 0.64102 0.20512 0.51697 0.0
C558 C 0.64696 0.22368 0.49689 0.0
C559 C 0.59527 0.29738 0.36662 0.0
C560 C 0.5782 0.31118 0.38446 0.0
C561 C 0.6175 0.28396 0.3778 0.0
C562 C 0.62341 0.28422 0.40701 0.0
C563 C 0.60621 0.29765 0.42496 0.0
C564 C 0.58385 0.31106 0.4138 0.0
C565 C 0.64762 0.27049 0.41862 0.0
C566 C 0.64326 0.25239 0.43984 0.0
C567 C 0.67463 0.27416 0.40766 0.0
C568 C 0.68108 0.29416 0.38672 0.0
C569 C 0.67438 0.31902 0.39227 0.0
C570 C 0.68047 0.33777 0.37246 0.0
C571 C 0.69347 0.33192 0.34711 0.0
C572 C 0.70041 0.3073 0.34151 0.0
C573 C 0.69429 0.28848 0.36121 0.0
H574 H 0.69823 0.34647 0.33184 0.0
H575 H 0.64195 0.16591 0.52669 0.0
H576 H 0.29734 0.41901 0.9477 0.0
H577 H 0.31294 0.4575 0.92382 0.0
H578 H 0.38245 0.46319 0.98188 0.0
H579 H 0.3681 0.42459 0.00481 0.0
H580 H 0.35274 0.50851 0.97377 0.0
H581 H 0.3932 0.44109 0.91966 0.0
H582 H 0.39004 0.4033 0.89039 0.0
H583 H 0.33976 0.44197 0.82909 0.0
H584 H 0.34232 0.4799 0.85824 0.0
H585 H 0.45952 0.58485 0.92257 0.0
H586 H 0.42895 0.55205 0.94059 0.0
H587 H 0.3829 0.55211 0.86155 0.0
H588 H 0.41443 0.58438 0.84286 0.0
H589 H 0.39064 0.50681 0.87651 0.0
H590 H 0.35584 0.5761 0.92537 0.0
H591 H 0.35749 0.61438 0.95384 0.0
H592 H 0.39299 0.57396 0.0239 0.0
H593 H 0.39196 0.5355 0.99574 0.0
C594 C 0.31601 0.42839 0.95531 0.0
C595 C 0.33116 0.41872 0.97853 0.0
C596 C 0.32479 0.45045 0.94173 0.0
C597 C 0.34873 0.46326 0.95126 0.0
C598 C 0.3637 0.45379 0.97445 0.0
C599 C 0.35524 0.43171 0.9877 0.0
C600 C 0.35916 0.48616 0.93689 0.0
C601 C 0.36104 0.50823 0.9525 0.0
C602 C 0.36903 0.48595 0.9088 0.0
C603 C 0.36764 0.4632 0.89128 0.0
C604 C 0.38126 0.44145 0.90007 0.0
C605 C 0.37962 0.42003 0.88348 0.0
C606 C 0.36462 0.42021 0.85794 0.0
C607 C 0.35131 0.44184 0.8489 0.0
C608 C 0.35285 0.4633 0.86544 0.0
C609 C 0.44271 0.57813 0.90909 0.0
C610 C 0.43936 0.58732 0.8813 0.0
C611 C 0.42507 0.55941 0.9195 0.0
C612 C 0.40316 0.54984 0.9027 0.0
C613 C 0.39955 0.5592 0.87501 0.0
C614 C 0.41754 0.5777 0.86437 0.0
C615 C 0.38513 0.5292 0.91372 0.0
C616 C 0.3818 0.50748 0.89752 0.0
C617 C 0.37351 0.52987 0.94117 0.0
C618 C 0.37394 0.55292 0.95836 0.0
C619 C 0.36414 0.57539 0.9468 0.0
C620 C 0.36496 0.59713 0.96289 0.0
C621 C 0.37537 0.59661 0.99065 0.0
C622 C 0.38493 0.57433 0.0024 0.0
C623 C 0.38419 0.55255 0.98639 0.0
H624 H 0.37599 0.61346 0.00306 0.0
H625 H 0.36338 0.40361 0.84512 0.0
H626 H 0.72978 0.55671 0.48835 0.0
H627 H 0.70604 0.52284 0.4629 0.0
H628 H 0.63723 0.57114 0.44456 0.0
H629 H 0.66051 0.6046 0.47102 0.0
H630 H 0.61852 0.53094 0.46647 0.0
H631 H 0.6833 0.54772 0.39214 0.0
H632 H 0.72943 0.55411 0.37092 0.0
H633 H 0.75226 0.4801 0.39591 0.0
H634 H 0.70637 0.47338 0.41762 0.0
H635 H 0.54504 0.45417 0.36757 0.0
H636 H 0.57419 0.48687 0.3887 0.0
H637 H 0.62709 0.43133 0.4262 0.0
H638 H 0.59741 0.39823 0.40561 0.0
H639 H 0.65521 0.47317 0.39515 0.0
H640 H 0.59095 0.4577 0.47081 0.0
H641 H 0.54694 0.45361 0.49678 0.0
H642 H 0.52367 0.52673 0.46897 0.0
H643 H 0.56751 0.53125 0.44277 0.0
C644 C 0.70995 0.56024 0.47815 0.0
C645 C 0.69696 0.58324 0.48157 0.0
C646 C 0.69636 0.54087 0.46357 0.0
C647 C 0.66977 0.54432 0.45166 0.0
C648 C 0.65763 0.56787 0.45365 0.0
C649 C 0.67098 0.58705 0.46861 0.0
C650 C 0.65328 0.52292 0.43991 0.0
C651 C 0.62645 0.51867 0.45041 0.0
C652 C 0.66389 0.50616 0.41982 0.0
C653 C 0.69148 0.51014 0.40675 0.0
C654 C 0.69823 0.53288 0.39332 0.0
C655 C 0.72432 0.53654 0.38116 0.0
C656 C 0.74379 0.51755 0.38213 0.0
C657 C 0.73717 0.49481 0.3952 0.0
C658 C 0.71111 0.49106 0.40741 0.0
C659 C 0.5629 0.44883 0.38025 0.0
C660 C 0.56899 0.42356 0.38481 0.0
C661 C 0.57946 0.46758 0.39244 0.0
C662 C 0.60275 0.46154 0.40905 0.0
C663 C 0.60917 0.43637 0.41344 0.0
C664 C 0.5922 0.4175 0.40173 0.0
C665 C 0.62043 0.48174 0.42136 0.0
C666 C 0.6474 0.48566 0.41103 0.0
C667 C 0.60995 0.49841 0.44145 0.0
C668 C 0.58239 0.49471 0.45464 0.0
C669 C 0.57623 0.47273 0.46982 0.0
C670 C 0.55144 0.47043 0.48481 0.0
C671 C 0.53265 0.48999 0.48471 0.0
C672 C 0.53833 0.51167 0.46916 0.0
C673 C 0.56314 0.51411 0.45427 0.0
H674 H 0.51365 0.48835 0.49665 0.0
H675 H 0.76398 0.52042 0.37271 0.0
H676 H 0.67748 0.45322 0.02183 0.0
H677 H 0.65323 0.48893 1.00149 0.0
H678 H 0.64952 0.45266 0.92027 0.0
H679 H 0.67391 0.41696 0.94045 0.0
H680 H 0.66285 0.50036 0.91346 0.0
H681 H 0.59286 0.45427 0.96396 0.0
H682 H 0.57172 0.43313 0.00518 0.0
H683 H 0.57371 0.50179 0.05111 0.0
H684 H 0.59524 0.52329 0.01027 0.0
H685 H 0.55048 0.56496 0.84856 0.0
H686 H 0.58109 0.53419 0.8703 0.0
H687 H 0.59035 0.58004 0.94448 0.0
H688 H 0.55987 0.61111 0.9228 0.0
H689 H 0.5759 0.52981 0.95644 0.0
H690 H 0.64334 0.57615 0.90302 0.0
H691 H 0.66253 0.59634 0.86026 0.0
H692 H 0.66336 0.5258 0.81819 0.0
H693 H 0.64376 0.50523 0.86058 0.0
C694 C 0.67136 0.4528 0.99967 0.0
C695 C 0.67753 0.4322 0.98278 0.0
C696 C 0.65753 0.47324 0.98806 0.0
C697 C 0.64925 0.4734 0.9594 0.0
C698 C 0.65575 0.45301 0.9424 0.0
C699 C 0.66972 0.43262 0.95396 0.0
C700 C 0.63355 0.49463 0.94716 0.0
C701 C 0.6437 0.50662 0.92272 0.0
C702 C 0.60884 0.5032 0.95954 0.0
C703 C 0.59592 0.49033 0.98415 0.0
C704 C 0.58899 0.46482 0.98293 0.0
C705 C 0.57689 0.45279 0.0062 0.0
C706 C 0.57137 0.46612 0.03074 0.0
C707 C 0.57798 0.49151 0.03207 0.0
C708 C 0.59012 0.50363 0.00887 0.0
C709 C 0.55922 0.56865 0.86939 0.0
C710 C 0.55263 0.59047 0.88397 0.0
C711 C 0.57677 0.55106 0.88175 0.0
C712 C 0.58799 0.55484 0.90899 0.0
C713 C 0.58187 0.57677 0.92344 0.0
C714 C 0.56455 0.59455 0.91095 0.0
C715 C 0.60513 0.53534 0.92271 0.0
C716 C 0.5952 0.52366 0.94738 0.0
C717 C 0.62985 0.5269 0.91038 0.0
C718 C 0.64185 0.53918 0.88491 0.0
C719 C 0.6474 0.56497 0.88458 0.0
C720 C 0.65839 0.57648 0.86041 0.0
C721 C 0.6641 0.56237 0.8365 0.0
C722 C 0.6589 0.53671 0.83673 0.0
C723 C 0.64788 0.52511 0.86083 0.0
H724 H 0.67261 0.57132 0.8178 0.0
H725 H 0.56196 0.45678 0.04872 0.0
H726 H 0.36532 0.60154 0.43229 0.0
H727 H 0.38355 0.56375 0.41162 0.0
H728 H 0.35337 0.52073 0.48275 0.0
H729 H 0.33438 0.55842 0.50335 0.0
H730 H 0.40761 0.50982 0.46896 0.0
H731 H 0.31954 0.51684 0.42138 0.0
H732 H 0.28306 0.5382 0.39385 0.0
H733 H 0.33926 0.54915 0.32472 0.0
H734 H 0.37623 0.52817 0.352 0.0
H735 H 0.44507 0.3965 0.41025 0.0
H736 H 0.41334 0.42761 0.42836 0.0
H737 H 0.43202 0.4756 0.35701 0.0
H738 H 0.46243 0.4439 0.33804 0.0
H739 H 0.38007 0.48198 0.37243 0.0
H740 H 0.46873 0.47715 0.42027 0.0
H741 H 0.50444 0.45286 0.44537 0.0
H742 H 0.44841 0.43907 0.51409 0.0
H743 H 0.41178 0.46216 0.48863 0.0
C744 C 0.36215 0.58402 0.4434 0.0
C745 C 0.34816 0.58304 0.46943 0.0
C746 C 0.3727 0.56244 0.43158 0.0
C747 C 0.36955 0.53941 0.44551 0.0
C748 C 0.35599 0.53834 0.47166 0.0
C749 C 0.34527 0.55992 0.48344 0.0
C750 C 0.38087 0.51656 0.43289 0.0
C751 C 0.40127 0.50348 0.44805 0.0
C752 C 0.37298 0.50861 0.40538 0.0
C753 C 0.35073 0.52111 0.38884 0.0
C754 C 0.32419 0.52397 0.40039 0.0
C755 C 0.30341 0.53598 0.38482 0.0
C756 C 0.30885 0.54508 0.35758 0.0
C757 C 0.33508 0.54212 0.34583 0.0
C758 C 0.35595 0.53014 0.36133 0.0
C759 C 0.44189 0.41349 0.39819 0.0
C760 C 0.45645 0.41802 0.37301 0.0
C761 C 0.42381 0.43125 0.40852 0.0
C762 C 0.42092 0.45426 0.39447 0.0
C763 C 0.43402 0.45807 0.36832 0.0
C764 C 0.45149 0.44 0.35755 0.0
C765 C 0.40694 0.47531 0.40839 0.0
C766 C 0.3862 0.48816 0.39345 0.0
C767 C 0.41472 0.48322 0.43603 0.0
C768 C 0.43739 0.47114 0.45238 0.0
C769 C 0.46397 0.46887 0.44069 0.0
C770 C 0.4843 0.45513 0.45487 0.0
C771 C 0.47868 0.44438 0.4813 0.0
C772 C 0.4527 0.44735 0.49358 0.0
C773 C 0.43207 0.46063 0.4792 0.0
H774 H 0.49451 0.43384 0.49231 0.0
H775 H 0.29273 0.55438 0.34555 0.0
H776 H 0.87826 0.91467 0.99238 0.0
H777 H 0.89251 0.95324 0.96918 0.0
H778 H 0.81826 0.95135 0.91733 0.0
H779 H 0.80305 0.91273 0.94141 0.0
H780 H 0.87117 0.96284 0.88778 0.0
H781 H 0.81735 0.99116 0.96522 0.0
H782 H 0.80199 0.99207 0.01486 0.0
H783 H 0.88418 0.01391 0.04193 0.0
H784 H 0.90016 0.01277 0.9925 0.0
H785 H 0.92055 0.08247 0.8403 0.0
H786 H 0.88913 0.04922 0.85681 0.0
H787 H 0.93788 0.04232 0.93378 0.0
H788 H 0.96829 0.07622 0.91805 0.0
H789 H 0.88692 0.03788 0.94677 0.0
H790 H 0.9427 1.00139 0.8725 0.0
H791 H 0.96031 0.99916 0.82369 0.0
H792 H 0.87684 0.99186 0.79146 0.0
H793 H 0.85875 0.9942 0.84011 0.0
C794 C 0.86456 0.92255 0.97644 0.0
C795 C 0.83911 0.91079 0.9693 0.0
C796 C 0.87293 0.94455 0.963 0.0
C797 C 0.8563 0.95531 0.94181 0.0
C798 C 0.83133 0.94334 0.93375 0.0
C799 C 0.82271 0.92128 0.94749 0.0
C800 C 0.86544 0.97922 0.92871 0.0
C801 C 0.87404 0.97948 0.90041 0.0
C802 C 0.86957 1.00075 0.94537 0.0
C803 C 0.85998 1.00176 0.97514 0.0
C804 C 0.8322 0.996 0.98177 0.0
C805 C 0.82337 0.99658 0.00988 0.0
C806 C 0.8421 1.00301 0.03154 0.0
C807 C 0.86969 0.00894 0.02513 0.0
C808 C 0.87863 0.00837 0.99706 0.0
C809 C 0.9244 0.07392 0.86082 0.0
C810 C 0.94696 0.08191 0.87783 0.0
C811 C 0.90652 0.05481 0.87018 0.0
C812 C 0.91133 0.04284 0.89638 0.0
C813 C 0.93359 0.0512 0.91353 0.0
C814 C 0.95106 0.07059 0.90448 0.0
C815 C 0.89383 0.02131 0.90607 0.0
C816 C 0.88359 0.02149 0.93382 0.0
C817 C 0.8885 1.00012 0.88897 0.0
C818 C 0.89939 0.9982 0.85985 0.0
C819 C 0.92812 0.99938 0.85498 0.0
C820 C 0.93818 0.99809 0.82736 0.0
C821 C 0.9197 0.99543 0.80449 0.0
C822 C 0.89112 0.99394 0.8092 0.0
C823 C 0.88096 0.99521 0.83678 0.0
H824 H 0.92752 0.99449 0.78312 0.0
H825 H 0.83523 0.00344 0.05329 0.0
H826 H 0.21957 0.05717 0.49818 0.0
H827 H 0.19519 0.02207 0.47584 0.0
H828 H 0.13136 0.0716 0.44567 0.0
H829 H 0.155 0.1064 0.4697 0.0
H830 H 0.1071 0.03336 0.46339 0.0
H831 H 0.18387 0.04395 0.40144 0.0
H832 H 0.2329 0.0485 0.38755 0.0
H833 H 0.24996 0.97603 0.42197 0.0
H834 H 0.20109 0.97117 0.43641 0.0
H835 H 0.0489 0.95289 0.36005 0.0
H836 H 0.07767 0.98554 0.38129 0.0
H837 H 0.11786 0.93124 0.43479 0.0
H838 H 0.08863 0.89805 0.4138 0.0
H839 H 0.15418 0.9702 0.40569 0.0
H840 H 0.07275 0.96143 0.46478 0.0
H841 H 0.02208 0.95834 0.4713 0.0
H842 H 0.0125 0.03092 0.43401 0.0
H843 H 0.0631 0.03425 0.4268 0.0
C844 C 0.20055 0.06054 0.48637 0.0
C845 C 0.18928 0.08446 0.4853 0.0
C846 C 0.18662 0.04048 0.47351 0.0
C847 C 0.16153 0.04406 0.45853 0.0
C848 C 0.1506 0.06819 0.45705 0.0
C849 C 0.16419 0.08813 0.47055 0.0
C850 C 0.14612 0.02256 0.44549 0.0
C851 C 0.11749 0.0198 0.45051 0.0
C852 C 0.15946 0.00446 0.42889 0.0
C853 C 0.18888 0.00731 0.42027 0.0
C854 C 0.19812 0.02906 0.40624 0.0
C855 C 0.22588 0.03168 0.39824 0.0
C856 C 0.24455 0.0126 0.40395 0.0
C857 C 0.23549 0.99082 0.41761 0.0
C858 C 0.20775 0.98811 0.42568 0.0
C859 C 0.06397 0.94768 0.37617 0.0
C860 C 0.06632 0.92276 0.38531 0.0
C861 C 0.08038 0.96646 0.3883 0.0
C862 C 0.09972 0.96082 0.4097 0.0
C863 C 0.10298 0.93592 0.41828 0.0
C864 C 0.08623 0.91703 0.40634 0.0
C865 C 0.11557 0.98129 0.4237 0.0
C866 C 0.14411 0.98381 0.41876 0.0
C867 C 0.10204 0.99956 0.43966 0.0
C868 C 0.07172 0.99799 0.44503 0.0
C869 C 0.05984 0.97668 0.45784 0.0
C870 C 0.03112 0.97489 0.46166 0.0
C871 C 0.01407 0.99439 0.453 0.0
C872 C 0.02573 0.01581 0.44069 0.0
C873 C 0.05443 0.01767 0.43675 0.0
H874 H 0.99184 0.99289 0.45584 0.0
H875 H 0.26603 0.01466 0.39772 0.0
H876 H 0.14703 0.91794 0.98426 0.0
H877 H 0.12384 0.95149 0.95916 0.0
H878 H 0.20327 0.98498 0.93888 0.0
H879 H 0.22661 0.95266 0.96627 0.0
H880 H 0.17251 0.01949 0.95345 0.0
H881 H 0.15895 0.95391 0.88808 0.0
H882 H 0.146 0.91195 0.87116 0.0
H883 H 0.06157 0.92318 0.89565 0.0
H884 H 0.07408 0.96508 0.91308 0.0
H885 H 0.06609 0.07183 0.8387 0.0
H886 H 0.09937 0.04104 0.85533 0.0
H887 H 0.09531 0.07088 0.93984 0.0
H888 H 0.063 0.10251 0.92288 0.0
H889 H 0.0929 0.005 0.88781 0.0
H890 H 0.15143 0.05717 0.9795 0.0
H891 H 0.17144 0.09873 0.98975 0.0
H892 H 0.17575 0.11492 0.90064 0.0
H893 H 0.15605 0.07338 0.88982 0.0
C894 C 0.15968 0.93249 0.97467 0.0
C895 C 0.18881 0.93254 0.97764 0.0
C896 C 0.14632 0.95155 0.95983 0.0
C897 C 0.16171 0.97076 0.9467 0.0
C898 C 0.19083 0.97044 0.94879 0.0
C899 C 0.20422 0.95165 0.96417 0.0
C900 C 0.14734 0.99175 0.9321 0.0
C901 C 0.15519 0.0163 0.93897 0.0
C902 C 0.12519 0.98778 0.91255 0.0
C903 C 0.11752 0.96258 0.90208 0.0
C904 C 0.13766 0.94737 0.89004 0.0
C905 C 0.13039 0.9236 0.88033 0.0
C906 C 0.10299 0.91489 0.88238 0.0
C907 C 0.08279 0.92995 0.89409 0.0
C908 C 0.08995 0.95372 0.90385 0.0
C909 C 0.07265 0.07206 0.86075 0.0
C910 C 0.06186 0.08953 0.87951 0.0
C911 C 0.09164 0.05438 0.87027 0.0
C912 C 0.10002 0.0535 0.89889 0.0
C913 C 0.08972 0.07136 0.91755 0.0
C914 C 0.07111 0.0894 0.90788 0.0
C915 C 0.11777 0.03281 0.90949 0.0
C916 C 0.11041 0.00827 0.90203 0.0
C917 C 0.1411 0.03686 0.92753 0.0
C918 C 0.15206 0.06221 0.93387 0.0
C919 C 0.15665 0.06959 0.96209 0.0
C920 C 0.16797 0.09313 0.968 0.0
C921 C 0.17495 0.1094 0.94586 0.0
C922 C 0.17036 0.10227 0.91776 0.0
C923 C 0.15903 0.07877 0.91173 0.0
H924 H 0.1839 0.12754 0.95048 0.0
H925 H 0.0974 0.89648 0.87486 0.0
H926 H 0.87323 0.07814 0.5105 0.0
H927 H 0.89367 0.04295 0.48707 0.0
H928 H 0.8394 0.05386 0.41481 0.0
H929 H 0.81736 0.0884 0.43904 0.0
H930 H 0.84447 0.00576 0.42518 0.0
H931 H 0.90838 0.07359 0.41395 0.0
H932 H 0.93828 0.10913 0.42818 0.0
H933 H 0.98631 0.06101 0.48206 0.0
H934 H 0.95634 0.02529 0.4686 0.0
H935 H 0.93455 0.92859 0.34121 0.0
H936 H 0.90674 0.96301 0.35871 0.0
H937 H 0.94521 0.95534 0.44125 0.0
H938 H 0.97273 0.92106 0.42423 0.0
H939 H 0.94723 0.00371 0.4197 0.0
H940 H 0.88034 0.93634 0.43193 0.0
H941 H 0.85101 0.90117 0.41548 0.0
H942 H 0.80938 0.94945 0.35638 0.0
H943 H 0.83875 0.98486 0.37222 0.0
C944 C 0.86507 0.07283 0.48991 0.0
C945 C 0.84348 0.08619 0.47676 0.0
C946 C 0.87718 0.05287 0.47629 0.0
C947 C 0.86855 0.04608 0.44889 0.0
C948 C 0.84658 0.0589 0.43587 0.0
C949 C 0.83416 0.07878 0.44967 0.0
C950 C 0.88277 0.02569 0.43402 0.0
C951 C 0.86691 0.00553 0.42353 0.0
C952 C 0.91209 0.02525 0.43198 0.0
C953 C 0.93001 0.04677 0.44036 0.0
C954 C 0.92518 0.07063 0.42901 0.0
C955 C 0.94215 0.09081 0.43693 0.0
C956 C 0.96416 0.08734 0.45605 0.0
C957 C 0.96924 0.06368 0.46728 0.0
C958 C 0.95228 0.04346 0.45949 0.0
C959 C 0.9368 0.93404 0.36318 0.0
C960 C 0.95591 0.92207 0.38128 0.0
C961 C 0.92089 0.95367 0.37313 0.0
C962 C 0.92397 0.96169 0.40125 0.0
C963 C 0.94256 0.94944 0.41946 0.0
C964 C 0.95819 0.92974 0.40968 0.0
C965 C 0.90898 0.98361 0.41165 0.0
C966 C 0.92477 0.00411 0.42115 0.0
C967 C 0.87968 0.98443 0.41245 0.0
C968 C 0.86196 0.96318 0.40302 0.0
C969 C 0.86511 0.93941 0.41524 0.0
C970 C 0.84844 0.91944 0.40607 0.0
C971 C 0.82841 0.92305 0.38484 0.0
C972 C 0.82494 0.94667 0.37279 0.0
C973 C 0.84158 0.9667 0.38187 0.0
H974 H 0.81552 0.90757 0.37777 0.0
H975 H 0.97729 0.10299 0.46212 0.0
H976 H 0.3739 0.38851 0.05689 0.0
H977 H 0.39506 0.38125 0.10306 0.0
H978 H 0.32874 0.32984 0.12451 0.0
H979 H 0.3065 0.33785 0.07819 0.0
H980 H 0.34378 0.35994 0.16973 0.0
H981 H 0.38943 0.30678 0.10638 0.0
H982 H 0.41289 0.29469 0.06255 0.0
H983 H 0.4791 0.34698 0.08013 0.0
H984 H 0.45583 0.35969 0.12386 0.0
H985 H 0.4385 0.32447 0.2861 0.0
H986 H 0.40709 0.32087 0.24477 0.0
H987 H 0.4508 0.38166 0.20385 0.0
H988 H 0.48173 0.38567 0.24482 0.0
H989 H 0.44321 0.33701 0.17046 0.0
H990 H 0.39215 0.39372 0.23028 0.0
H991 H 0.36864 0.40453 0.27456 0.0
H992 H 0.31255 0.34224 0.26416 0.0
H993 H 0.33601 0.33088 0.21996 0.0
C994 C 0.36335 0.37604 0.07152 0.0
C995 C 0.33831 0.3639 0.06381 0.0
C996 C 0.37573 0.37165 0.09786 0.0
C997 C 0.36375 0.3547 0.11708 0.0
C998 C 0.33842 0.3429 0.1099 0.0
C999 C 0.32585 0.34737 0.08339 0.0
C1000 C 0.37842 0.34927 0.14424 0.0
C1001 C 0.36533 0.35436 0.16995 0.0
C1002 C 0.40654 0.34195 0.14457 0.0
C1003 C 0.42079 0.33427 0.11836 0.0
C1004 C 0.40891 0.31583 0.10082 0.0
C1005 C 0.42219 0.30885 0.076 0.0
C1006 C 0.44746 0.32008 0.06855 0.0
C1007 C 0.45953 0.33829 0.08594 0.0
C1008 C 0.44632 0.34536 0.11077 0.0
C1009 C 0.44128 0.33712 0.26832 0.0
C1010 C 0.46263 0.35533 0.26873 0.0
C1011 C 0.42333 0.33506 0.24481 0.0
C1012 C 0.42674 0.35097 0.22131 0.0
C1013 C 0.4479 0.36917 0.22178 0.0
C1014 C 0.46549 0.37149 0.2453 0.0
C1015 C 0.40891 0.34865 0.19567 0.0
C1016 C 0.42147 0.34201 0.17024 0.0
C1017 C 0.38033 0.35424 0.19572 0.0
C1018 C 0.36604 0.36127 0.22204 0.0
C1019 C 0.37496 0.3822 0.23757 0.0
C1020 C 0.36161 0.38846 0.26262 0.0
C1021 C 0.33918 0.37402 0.27223 0.0
C1022 C 0.32997 0.35337 0.25673 0.0
C1023 C 0.34327 0.34703 0.23167 0.0
H1024 H 0.32888 0.37888 0.29164 0.0
H1025 H 0.4577 0.31465 0.04932 0.0
H1026 H 0.71749 0.61302 0.60283 0.0
H1027 H 0.68873 0.61809 0.6449 0.0
H1028 H 0.62257 0.64683 0.59237 0.0
H1029 H 0.65111 0.6414 0.5501 0.0
H1030 H 0.63588 0.67452 0.6454 0.0
H1031 H 0.61437 0.59183 0.6107 0.0
H1032 H 0.62646 0.5498 0.59485 0.0
H1033 H 0.66512 0.53482 0.67555 0.0
H1034 H 0.65363 0.57695 0.69172 0.0
H1035 H 0.52474 0.66823 0.74138 0.0
H1036 H 0.55499 0.66543 0.70051 0.0
H1037 H 0.60828 0.61552 0.74734 0.0
H1038 H 0.57704 0.61725 0.78788 0.0
H1039 H 0.60304 0.59906 0.69721 0.0
H1040 H 0.62545 0.67982 0.73336 0.0
H1041 H 0.61606 0.72204 0.75058 0.0
H1042 H 0.57967 0.74131 0.66998 0.0
H1043 H 0.58855 0.69909 0.65239 0.0
C1044 C 0.69692 0.62067 0.60032 0.0
C1045 C 0.68649 0.62685 0.57326 0.0
C1046 C 0.68052 0.62346 0.6243 0.0
C1047 C 0.65355 0.63277 0.62167 0.0
C1048 C 0.64336 0.63964 0.59479 0.0
C1049 C 0.65958 0.63644 0.57072 0.0
C1050 C 0.63566 0.6345 0.6469 0.0
C1051 C 0.62839 0.65807 0.65662 0.0
C1052 C 0.62669 0.61302 0.66192 0.0
C1053 C 0.63341 0.58763 0.6523 0.0
C1054 C 0.62567 0.57966 0.62497 0.0
C1055 C 0.63238 0.5558 0.61595 0.0
C1056 C 0.64662 0.53967 0.63415 0.0
C1057 C 0.65413 0.54735 0.66145 0.0
C1058 C 0.64751 0.5712 0.67057 0.0
C1059 C 0.54303 0.65681 0.74306 0.0
C1060 C 0.54868 0.64312 0.76792 0.0
C1061 C 0.56043 0.6553 0.71967 0.0
C1062 C 0.58437 0.64069 0.72091 0.0
C1063 C 0.59002 0.62698 0.7458 0.0
C1064 C 0.57223 0.62804 0.769 0.0
C1065 C 0.60305 0.63921 0.69602 0.0
C1066 C 0.61053 0.61563 0.68625 0.0
C1067 C 0.61261 0.66075 0.68124 0.0
C1068 C 0.60749 0.68624 0.69164 0.0
C1069 C 0.61532 0.69302 0.71936 0.0
C1070 C 0.6101 0.71695 0.72918 0.0
C1071 C 0.59723 0.73433 0.7114 0.0
C1072 C 0.58963 0.72783 0.68373 0.0
C1073 C 0.59478 0.70391 0.67381 0.0
H1074 H 0.59319 0.75284 0.71905 0.0
H1075 H 0.65179 0.52121 0.62713 0.0
H1076 H 0.64555 0.36581 0.04855 0.0
H1077 H 0.62763 0.3604 0.09649 0.0
H1078 H 0.71047 0.36976 0.13087 0.0
H1079 H 0.7286 0.37495 0.08255 0.0
H1080 H 0.67798 0.33539 0.16224 0.0
H1081 H 0.67268 0.41856 0.12759 0.0
H1082 H 0.66187 0.45119 0.09229 0.0
H1083 H 0.57518 0.43182 0.09665 0.0
H1084 H 0.58553 0.39869 0.13157 0.0
H1085 H 0.58855 0.40264 0.278 0.0
H1086 H 0.61967 0.40389 0.2373 0.0
H1087 H 0.59912 0.32711 0.21955 0.0
H1088 H 0.5685 0.32556 0.26028 0.0
H1089 H 0.60763 0.39901 0.18328 0.0
H1090 H 0.65231 0.29862 0.188 0.0
H1091 H 0.66655 0.26801 0.22441 0.0
H1092 H 0.68102 0.32694 0.28393 0.0
H1093 H 0.66738 0.35788 0.24784 0.0
C1094 C 0.66003 0.36604 0.0663 0.0
C1095 C 0.68841 0.37096 0.06194 0.0
C1096 C 0.64978 0.36304 0.09367 0.0
C1097 C 0.66763 0.36519 0.11728 0.0
C1098 C 0.69633 0.36812 0.11294 0.0
C1099 C 0.70668 0.37101 0.08539 0.0
C1100 C 0.6557 0.36698 0.1461 0.0
C1101 C 0.66263 0.34928 0.16693 0.0
C1102 C 0.6364 0.38568 0.15252 0.0
C1103 C 0.62992 0.40602 0.13208 0.0
C1104 C 0.65132 0.42116 0.12091 0.0
C1105 C 0.64528 0.43973 0.10096 0.0
C1106 C 0.61787 0.44356 0.09221 0.0
C1107 C 0.59642 0.42883 0.10344 0.0
C1108 C 0.60236 0.41015 0.12333 0.0
C1109 C 0.59095 0.38591 0.26567 0.0
C1110 C 0.5759 0.36402 0.27243 0.0
C1111 C 0.60868 0.38668 0.24233 0.0
C1112 C 0.61192 0.36556 0.22538 0.0
C1113 C 0.59739 0.34355 0.23249 0.0
C1114 C 0.57971 0.34275 0.25578 0.0
C1115 C 0.62905 0.3668 0.19928 0.0
C1116 C 0.6231 0.38516 0.17884 0.0
C1117 C 0.64974 0.34909 0.19357 0.0
C1118 C 0.65857 0.33056 0.21524 0.0
C1119 C 0.6587 0.30506 0.20881 0.0
C1120 C 0.66665 0.28763 0.22942 0.0
C1121 C 0.67463 0.2955 0.25652 0.0
C1122 C 0.67478 0.32082 0.26301 0.0
C1123 C 0.66691 0.33831 0.24248 0.0
H1124 H 0.68072 0.28199 0.27247 0.0
H1125 H 0.61327 0.45797 0.07679 0.0
H1126 H 0.32482 0.5997 0.56778 0.0
H1127 H 0.34047 0.60624 0.61648 0.0
H1128 H 0.35916 0.68327 0.59697 0.0
H1129 H 0.34493 0.67648 0.54769 0.0
H1130 H 0.40114 0.66403 0.6237 0.0
H1131 H 0.30387 0.66467 0.64113 0.0
H1132 H 0.25522 0.64975 0.63888 0.0
H1133 H 0.27771 0.5826 0.68284 0.0
H1134 H 0.32658 0.59695 0.68501 0.0
H1135 H 0.4362 0.68898 0.76764 0.0
H1136 H 0.40755 0.68982 0.72439 0.0
H1137 H 0.40301 0.60961 0.72496 0.0
H1138 H 0.43203 0.60855 0.7679 0.0
H1139 H 0.35127 0.63486 0.70955 0.0
H1140 H 0.44896 0.63267 0.68662 0.0
H1141 H 0.49743 0.64794 0.69011 0.0
H1142 H 0.47306 0.7191 0.65697 0.0
H1143 H 0.4243 0.70435 0.65376 0.0
C1144 C 0.33212 0.61809 0.57385 0.0
C1145 C 0.33379 0.6375 0.55369 0.0
C1146 C 0.34077 0.6219 0.60186 0.0
C1147 C 0.35082 0.64533 0.61058 0.0
C1148 C 0.35147 0.66503 0.5908 0.0
C1149 C 0.34302 0.66117 0.56266 0.0
C1150 C 0.36266 0.64864 0.63965 0.0
C1151 C 0.38991 0.65815 0.64246 0.0
C1152 C 0.34835 0.64052 0.66424 0.0
C1153 C 0.31895 0.63183 0.66305 0.0
C1154 C 0.29849 0.64664 0.65014 0.0
C1155 C 0.27086 0.63829 0.64891 0.0
C1156 C 0.26339 0.61522 0.66066 0.0
C1157 C 0.28352 0.60046 0.67373 0.0
C1158 C 0.31119 0.60871 0.675 0.0
C1159 C 0.42866 0.67153 0.75888 0.0
C1160 C 0.43655 0.64867 0.77102 0.0
C1161 C 0.41235 0.67206 0.73416 0.0
C1162 C 0.40335 0.64978 0.72146 0.0
C1163 C 0.40975 0.627 0.73449 0.0
C1164 C 0.42642 0.62643 0.75892 0.0
C1165 C 0.3895 0.65006 0.69326 0.0
C1166 C 0.3621 0.64111 0.69069 0.0
C1167 C 0.40357 0.65876 0.66889 0.0
C1168 C 0.43294 0.66751 0.67027 0.0
C1169 C 0.4539 0.65164 0.6803 0.0
C1170 C 0.48143 0.66019 0.6822 0.0
C1171 C 0.48831 0.6845 0.67386 0.0
C1172 C 0.46768 0.70028 0.66349 0.0
C1173 C 0.4401 0.69184 0.66161 0.0
H1174 H 0.50964 0.69109 0.67537 0.0
H1175 H 0.24198 0.60879 0.65969 0.0
H1176 H 0.8119 0.83469 0.07229 0.0
H1177 H 0.83204 0.82909 0.11988 0.0
H1178 H 0.90154 0.87642 0.09685 0.0
H1179 H 0.88239 0.88109 0.04926 0.0
H1180 H 0.91962 0.83778 0.12455 0.0
H1181 H 0.84635 0.89679 0.13788 0.0
H1182 H 0.79813 0.91153 0.13615 0.0
H1183 H 0.77257 0.85088 0.19021 0.0
H1184 H 0.82063 0.8356 0.19196 0.0
H1185 H 0.97349 0.88936 0.24937 0.0
H1186 H 0.94565 0.88432 0.20637 0.0
H1187 H 0.90302 0.82113 0.24358 0.0
H1188 H 0.93143 0.82569 0.287 0.0
H1189 H 0.86856 0.85997 0.21127 0.0
H1190 H 0.94628 0.80623 0.20333 0.0
H1191 H 0.9958 0.7956 0.20614 0.0
H1192 H 0.01421 0.84927 0.1409 0.0
H1193 H 0.96501 0.8612 0.13865 0.0
C1194 C 0.83156 0.84375 0.07735 0.0
C1195 C 0.84532 0.85859 0.05699 0.0
C1196 C 0.84294 0.8407 0.10464 0.0
C1197 C 0.86821 0.85254 0.1121 0.0
C1198 C 0.88203 0.86711 0.09169 0.0
C1199 C 0.87081 0.87004 0.06451 0.0
C1200 C 0.88061 0.84999 0.141 0.0
C1201 C 0.90843 0.8427 0.14347 0.0
C1202 C 0.86586 0.85577 0.16586 0.0
C1203 C 0.83698 0.86487 0.16474 0.0
C1204 C 0.8304 0.88647 0.14919 0.0
C1205 C 0.80311 0.89495 0.14825 0.0
C1206 C 0.78228 0.88209 0.16298 0.0
C1207 C 0.78871 0.86078 0.17875 0.0
C1208 C 0.81597 0.85221 0.17973 0.0
C1209 C 0.95801 0.87452 0.24871 0.0
C1210 C 0.95477 0.85784 0.27165 0.0
C1211 C 0.94215 0.87167 0.22403 0.0
C1212 C 0.92246 0.85229 0.2218 0.0
C1213 C 0.91818 0.8362 0.24499 0.0
C1214 C 0.93445 0.83878 0.26968 0.0
C1215 C 0.90761 0.84846 0.19449 0.0
C1216 C 0.87947 0.85456 0.19235 0.0
C1217 C 0.92217 0.84195 0.16984 0.0
C1218 C 0.95189 0.83483 0.17107 0.0
C1219 C 0.96092 0.81611 0.18991 0.0
C1220 C 0.98898 0.80988 0.19144 0.0
C1221 C 0.00819 0.82195 0.1739 0.0
C1222 C 0.99936 0.8402 0.15472 0.0
C1223 C 0.97138 0.84673 0.15335 0.0
H1224 H 0.02988 0.81704 0.17504 0.0
H1225 H 0.76116 0.88869 0.16224 0.0
H1226 H 0.21952 0.12469 0.59802 0.0
H1227 H 0.19349 0.13056 0.64179 0.0
H1228 H 0.12438 0.15875 0.59306 0.0
H1229 H 0.15011 0.1523 0.54908 0.0
H1230 H 0.14249 0.18583 0.64867 0.0
H1231 H 0.11512 0.10569 0.60825 0.0
H1232 H 0.12555 0.06454 0.58862 0.0
H1233 H 0.16813 0.04458 0.66579 0.0
H1234 H 0.15835 0.08583 0.68568 0.0
H1235 H 0.03206 0.17607 0.74584 0.0
H1236 H 0.06263 0.17622 0.70499 0.0
H1237 H 0.11361 0.12083 0.7459 0.0
H1238 H 0.08218 0.11975 0.78629 0.0
H1239 H 0.10732 0.10835 0.69475 0.0
H1240 H 0.13378 0.18508 0.73767 0.0
H1241 H 0.12739 0.22633 0.75891 0.0
H1242 H 0.09203 0.2533 0.68076 0.0
H1243 H 0.09784 0.21209 0.65915 0.0
C1244 C 0.199 0.13261 0.59672 0.0
C1245 C 0.18681 0.13813 0.57023 0.0
C1246 C 0.18415 0.13587 0.62167 0.0
C1247 C 0.15706 0.14507 0.62059 0.0
C1248 C 0.14532 0.15172 0.59429 0.0
C1249 C 0.15996 0.14799 0.56925 0.0
C1250 C 0.14026 0.1459 0.64666 0.0
C1251 C 0.13448 0.16898 0.65868 0.0
C1252 C 0.13073 0.12382 0.66012 0.0
C1253 C 0.13629 0.09893 0.64831 0.0
C1254 C 0.12694 0.09262 0.62092 0.0
C1255 C 0.13269 0.06926 0.60976 0.0
C1256 C 0.14757 0.05198 0.62591 0.0
C1257 C 0.15665 0.058 0.65328 0.0
C1258 C 0.151 0.08136 0.66451 0.0
C1259 C 0.04993 0.16408 0.74626 0.0
C1260 C 0.05472 0.14793 0.76934 0.0
C1261 C 0.06754 0.16428 0.7229 0.0
C1262 C 0.09082 0.14883 0.72239 0.0
C1263 C 0.09584 0.13293 0.74567 0.0
C1264 C 0.0779 0.13237 0.76881 0.0
C1265 C 0.10914 0.14845 0.69709 0.0
C1266 C 0.11529 0.12535 0.68507 0.0
C1267 C 0.11948 0.17056 0.684 0.0
C1268 C 0.11603 0.19541 0.69687 0.0
C1269 C 0.12446 0.19975 0.72507 0.0
C1270 C 0.12097 0.22314 0.73717 0.0
C1271 C 0.10925 0.24241 0.72122 0.0
C1272 C 0.10107 0.23835 0.6931 0.0
C1273 C 0.10449 0.21498 0.6809 0.0
H1274 H 0.10657 0.2605 0.73063 0.0
H1275 H 0.152 0.0339 0.61724 0.0
H1276 H 0.22487 0.89609 0.09462 0.0
H1277 H 0.20046 0.89023 0.13948 0.0
H1278 H 0.1276 0.86415 0.09377 0.0
H1279 H 0.1517 0.8709 0.04892 0.0
H1280 H 0.1124 0.89565 0.13038 0.0
H1281 H 0.17118 0.82479 0.13507 0.0
H1282 H 0.21515 0.80196 0.13402 0.0
H1283 H 0.24597 0.84375 0.20522 0.0
H1284 H 0.2023 0.86708 0.20648 0.0
H1285 H 0.04088 0.83971 0.24654 0.0
H1286 H 0.07048 0.84315 0.20491 0.0
H1287 H 0.12395 0.89557 0.24876 0.0
H1288 H 0.09384 0.89281 0.29047 0.0
H1289 H 0.14983 0.85154 0.21502 0.0
H1290 H 0.0881 0.92157 0.20928 0.0
H1291 H 0.04212 0.94099 0.21039 0.0
H1292 H 0.01511 0.89692 0.13948 0.0
H1293 H 0.06073 0.87665 0.13848 0.0
C1294 C 0.20381 0.88871 0.09427 0.0
C1295 C 0.19015 0.88389 0.06837 0.0
C1296 C 0.18986 0.88532 0.1199 0.0
C1297 C 0.16218 0.87655 0.12013 0.0
C1298 C 0.14887 0.87104 0.09422 0.0
C1299 C 0.16265 0.8748 0.06861 0.0
C1300 C 0.14657 0.87435 0.14713 0.0
C1301 C 0.12054 0.88572 0.1487 0.0
C1302 C 0.15728 0.86184 0.17138 0.0
C1303 C 0.18358 0.84787 0.17067 0.0
C1304 C 0.18742 0.82926 0.15036 0.0
C1305 C 0.21227 0.8162 0.14975 0.0
C1306 C 0.23337 0.82145 0.16949 0.0
C1307 C 0.22963 0.83973 0.18992 0.0
C1308 C 0.20482 0.85286 0.19061 0.0
C1309 C 0.05909 0.85179 0.24749 0.0
C1310 C 0.06509 0.86601 0.27177 0.0
C1311 C 0.07592 0.85374 0.22367 0.0
C1312 C 0.09933 0.86957 0.22387 0.0
C1313 C 0.10597 0.88319 0.24835 0.0
C1314 C 0.08874 0.88169 0.27203 0.0
C1315 C 0.11593 0.87269 0.19788 0.0
C1316 C 0.14196 0.8615 0.19658 0.0
C1317 C 0.10509 0.885 0.17371 0.0
C1318 C 0.07772 0.89731 0.17409 0.0
C1319 C 0.07224 0.91574 0.19418 0.0
C1320 C 0.04625 0.92692 0.19476 0.0
C1321 C 0.02564 0.92006 0.17513 0.0
C1322 C 0.03105 0.90209 0.15478 0.0
C1323 C 0.05696 0.89073 0.15422 0.0
H1324 H 0.00554 0.92874 0.1756 0.0
H1325 H 0.25259 0.81131 0.16899 0.0
H1326 H 0.79595 0.15927 0.57422 0.0
H1327 H 0.80753 0.16411 0.62474 0.0
H1328 H 0.87364 0.11162 0.61671 0.0
H1329 H 0.8635 0.10763 0.5666 0.0
H1330 H 0.84054 0.10414 0.66609 0.0
H1331 H 0.88889 0.17064 0.61261 0.0
H1332 H 0.88918 0.20783 0.58157 0.0
H1333 H 0.83891 0.24636 0.64105 0.0
H1334 H 0.83805 0.20923 0.67227 0.0
H1335 H 0.95519 0.11343 0.75311 0.0
H1336 H 0.92032 0.11321 0.71571 0.0
H1337 H 0.88276 0.17806 0.75136 0.0
H1338 H 0.91859 0.1789 0.7889 0.0
H1339 H 0.88653 0.18318 0.69578 0.0
H1340 H 0.84986 0.12019 0.7554 0.0
H1341 H 0.85074 0.08333 0.78687 0.0
H1342 H 0.87682 0.03819 0.71774 0.0
H1343 H 0.87657 0.07482 0.68594 0.0
C1344 C 0.81294 0.14874 0.58319 0.0
C1345 C 0.82855 0.13286 0.56612 0.0
C1346 C 0.81937 0.15141 0.61211 0.0
C1347 C 0.8413 0.13806 0.62445 0.0
C1348 C 0.85635 0.12179 0.60771 0.0
C1349 C 0.8503 0.11941 0.57894 0.0
C1350 C 0.85045 0.14197 0.6542 0.0
C1351 C 0.85039 0.12145 0.67279 0.0
C1352 C 0.86239 0.16482 0.66322 0.0
C1353 C 0.86309 0.1871 0.64455 0.0
C1354 C 0.87771 0.18698 0.61893 0.0
C1355 C 0.87801 0.20805 0.60134 0.0
C1356 C 0.86398 0.22942 0.60928 0.0
C1357 C 0.8497 0.22978 0.63489 0.0
C1358 C 0.8493 0.20874 0.65254 0.0
C1359 C 0.93946 0.12761 0.75329 0.0
C1360 C 0.9397 0.14617 0.77412 0.0
C1361 C 0.91931 0.12733 0.73191 0.0
C1362 C 0.89845 0.14526 0.73103 0.0
C1363 C 0.8985 0.16389 0.75177 0.0
C1364 C 0.91896 0.16434 0.77319 0.0
C1365 C 0.87786 0.14493 0.7073 0.0
C1366 C 0.87577 0.1661 0.68978 0.0
C1367 C 0.86369 0.12268 0.69939 0.0
C1368 C 0.86321 0.10034 0.71825 0.0
C1369 C 0.85587 0.10243 0.7469 0.0
C1370 C 0.85627 0.08156 0.76482 0.0
C1371 C 0.86384 0.05843 0.75432 0.0
C1372 C 0.87093 0.05611 0.72584 0.0
C1373 C 0.87059 0.07692 0.70784 0.0
H1374 H 0.86421 0.04232 0.76824 0.0
H1375 H 0.86425 0.24571 0.59564 0.0
loop_
_geom_bond_atom_site_label_1
_geom_bond_atom_site_label_2
_geom_bond_distance
_geom_bond_site_symmetry_2
_ccdc_geom_bond_type
H0 C3 0.929 . S
H1 C6 0.929 . S
H2 C8 0.930 . S
C3 H0 0.929 . S
C3 C4 1.398 . S
C3 C5 1.396 1_554 S
C4 C3 1.398 . S
C4 C8 1.407 . S
C5 C3 1.396 1_556 S
C5 C6 1.394 . S
C6 H1 0.929 . S
C6 C5 1.394 . S
C6 C7 1.382 1_556 S
C7 C6 1.382 1_554 S
C7 C8 1.392 . S
C7 N9 1.411 1_554 S
C8 H2 0.930 . S
C8 C4 1.407 . S
C8 C7 1.392 . S
N9 C7 1.411 1_556 S
N9 C10 1.266 . S
C10 N9 1.266 . S
H11 C14 0.929 . S
H12 C17 0.929 . S
H13 C19 0.930 . S
C14 H11 0.929 . S
C14 C15 1.398 . S
C14 C16 1.396 . S
C15 C14 1.398 . S
C15 C19 1.407 . S
C16 C14 1.396 . S
C16 C17 1.394 . S
C17 H12 0.929 . S
C17 C16 1.394 . S
C17 C18 1.382 . S
C18 C17 1.382 . S
C18 C19 1.392 . S
C18 N20 1.420 . S
C19 H13 0.930 . S
C19 C15 1.407 . S
C19 C18 1.392 . S
N20 C18 1.420 . S
N20 C21 1.244 . S
C21 N20 1.244 . S
H22 C25 0.929 . S
H23 C28 0.929 . S
H24 C30 0.930 . S
C25 H22 0.929 . S
C25 C26 1.398 . S
C25 C27 1.396 1_554 S
C26 C25 1.398 . S
C26 C30 1.407 . S
C27 C25 1.396 1_556 S
C27 C28 1.394 . S
C28 H23 0.929 . S
C28 C27 1.394 . S
C28 C29 1.382 1_556 S
C29 C28 1.382 1_554 S
C29 C30 1.392 . S
C29 N31 1.420 . S
C30 H24 0.930 . S
C30 C26 1.407 . S
C30 C29 1.392 . S
N31 C29 1.420 . S
N31 C32 1.244 1_554 S
C32 N31 1.244 1_556 S
H33 C36 0.929 . S
H34 C39 0.929 . S
H35 C41 0.930 . S
C36 H33 0.929 . S
C36 C37 1.398 . S
C36 C38 1.396 . S
C37 C36 1.398 . S
C37 C41 1.407 . S
C38 C36 1.396 . S
C38 C39 1.394 . S
C39 H34 0.929 . S
C39 C38 1.394 . S
C39 C40 1.382 . S
C40 C39 1.382 . S
C40 C41 1.392 . S
C40 N42 1.420 . S
C41 H35 0.930 . S
C41 C37 1.407 . S
C41 C40 1.392 . S
N42 C40 1.420 . S
N42 C43 1.244 . S
C43 N42 1.244 . S
H44 C47 0.929 . S
H45 C50 0.929 . S
H46 C52 0.930 . S
C47 H44 0.929 . S
C47 C48 1.398 . S
C47 C49 1.396 1_554 S
C48 C47 1.398 . S
C48 C52 1.407 . S
C49 C47 1.396 1_556 S
C49 C50 1.394 . S
C50 H45 0.929 . S
C50 C49 1.394 . S
C50 C51 1.382 1_556 S
C51 C50 1.382 1_554 S
C51 C52 1.392 . S
C51 N53 1.411 1_554 S
C52 H46 0.930 . S
C52 C48 1.407 . S
C52 C51 1.392 . S
N53 C51 1.411 1_556 S
N53 C54 1.266 . S
C54 N53 1.266 . S
H55 C58 0.929 . S
H56 C61 0.929 . S
H57 C63 0.930 . S
C58 H55 0.929 . S
C58 C59 1.398 . S
C58 C60 1.396 . S
C59 C58 1.398 . S
C59 C63 1.407 . S
C60 C58 1.396 . S
C60 C61 1.394 . S
C61 H56 0.929 . S
C61 C60 1.394 . S
C61 C62 1.382 . S
C62 C61 1.382 . S
C62 C63 1.392 . S
C62 N64 1.420 . S
C63 H57 0.930 . S
C63 C59 1.407 . S
C63 C62 1.392 . S
N64 C62 1.420 . S
N64 C65 1.244 . S
C65 N64 1.244 . S
H66 C69 0.929 . S
H67 C72 0.929 . S
H68 C74 0.930 . S
C69 H66 0.929 . S
C69 C70 1.398 . S
C69 C71 1.396 1_554 S
C70 C69 1.398 . S
C70 C74 1.407 . S
C71 C69 1.396 1_556 S
C71 C72 1.394 . S
C72 H67 0.929 . S
C72 C71 1.394 . S
C72 C73 1.382 1_556 S
C73 C72 1.382 1_554 S
C73 C74 1.392 . S
C73 N75 1.420 . S
C74 H68 0.930 . S
C74 C70 1.407 . S
C74 C73 1.392 . S
N75 C73 1.420 . S
N75 C76 1.244 1_554 S
C76 N75 1.244 1_556 S
H77 C80 0.929 . S
H78 C83 0.929 . S
H79 C85 0.930 . S
C80 H77 0.929 . S
C80 C81 1.398 . S
C80 C82 1.396 . S
C81 C80 1.398 . S
C81 C85 1.407 . S
C82 C80 1.396 . S
C82 C83 1.394 . S
C83 H78 0.929 . S
C83 C82 1.394 . S
C83 C84 1.382 . S
C84 C83 1.382 . S
C84 C85 1.392 . S
C84 N86 1.420 . S
C85 H79 0.930 . S
C85 C81 1.407 . S
C85 C84 1.392 . S
N86 C84 1.420 . S
N86 C87 1.244 . S
C87 N86 1.244 . S
Fe88 O90 1.918 . S
Fe88 O93 1.997 1_455 S
Fe88 O94 2.002 1_455 S
Fe88 O99 1.976 . S
Fe88 O102 1.996 . S
Fe89 O90 1.918 . S
Fe89 O97 1.997 1_455 S
Fe89 O100 1.996 . S
Fe89 O104 1.976 . S
Fe89 O107 2.002 1_455 S
O90 Fe88 1.918 . S
O90 Fe89 1.918 . S
O90 Fe91 1.918 . S
Fe91 O90 1.918 . S
Fe91 O92 2.002 1_455 S
Fe91 O101 1.976 . S
Fe91 O105 1.996 . S
Fe91 O108 1.997 1_455 S
O92 Fe91 2.002 1_655 S
O92 C109 1.295 . S
O93 Fe88 1.997 1_655 S
O93 C109 1.235 . S
O94 Fe88 2.002 1_655 S
O94 C95 1.295 . S
C95 O94 1.295 . S
C95 O97 1.235 . S
C96 O101 1.287 . S
C96 O102 1.255 . S
O97 Fe89 1.997 1_655 S
O97 C95 1.235 . S
C98 O104 1.287 . S
C98 O105 1.255 . S
O99 Fe88 1.976 . S
O99 C106 1.287 . S
O100 Fe89 1.996 . S
O100 C106 1.255 . S
O101 Fe91 1.976 . S
O101 C96 1.287 . S
O102 Fe88 1.996 . S
O102 C96 1.255 . S
C103 O107 1.295 . S
C103 O108 1.235 . S
O104 Fe89 1.976 . S
O104 C98 1.287 . S
O105 Fe91 1.996 . S
O105 C98 1.255 . S
C106 O99 1.287 . S
C106 O100 1.255 . S
O107 Fe89 2.002 1_655 S
O107 C103 1.295 . S
O108 Fe91 1.997 1_655 S
O108 C103 1.235 . S
C109 O92 1.295 . S
C109 O93 1.235 . S
Fe110 O112 1.918 1_455 S
Fe110 O115 2.018 . S
Fe110 O116 2.025 . S
Fe110 O121 1.954 1_455 S
Fe110 O124 1.974 1_455 S
Fe111 O112 1.918 1_455 S
Fe111 O119 2.007 . S
Fe111 O122 1.986 1_455 S
Fe111 O126 1.966 1_455 S
Fe111 O129 2.013 . S
O112 Fe110 1.918 1_655 S
O112 Fe111 1.918 1_655 S
O112 Fe113 1.918 1_655 S
Fe113 O112 1.918 1_455 S
Fe113 O114 2.022 . S
Fe113 O123 1.957 1_455 S
Fe113 O127 1.977 1_455 S
Fe113 O130 2.016 . S
O114 Fe113 2.022 . S
O114 C131 1.295 . S
O115 Fe110 2.018 . S
O115 C131 1.235 . S
O116 Fe110 2.025 . S
O116 C117 1.295 . S
C117 O116 1.295 . S
C117 O119 1.235 . S
C118 O123 1.287 . S
C118 O124 1.255 . S
O119 Fe111 2.007 . S
O119 C117 1.235 . S
C120 O126 1.287 . S
C120 O127 1.255 . S
O121 Fe110 1.954 1_655 S
O121 C128 1.287 . S
O122 Fe111 1.986 1_655 S
O122 C128 1.255 . S
O123 Fe113 1.957 1_655 S
O123 C118 1.287 . S
O124 Fe110 1.974 1_655 S
O124 C118 1.255 . S
C125 O129 1.295 . S
C125 O130 1.235 . S
O126 Fe111 1.966 1_655 S
O126 C120 1.287 . S
O127 Fe113 1.977 1_655 S
O127 C120 1.255 . S
C128 O121 1.287 . S
C128 O122 1.255 . S
O129 Fe111 2.013 . S
O129 C125 1.295 . S
O130 Fe113 2.016 . S
O130 C125 1.235 . S
C131 O114 1.295 . S
C131 O115 1.235 . S
Fe132 O134 1.918 . S
Fe132 O137 1.997 . S
Fe132 O138 2.002 . S
Fe132 O143 1.976 . S
Fe132 O146 1.996 . S
Fe133 O134 1.918 . S
Fe133 O141 1.997 . S
Fe133 O144 1.996 . S
Fe133 O148 1.976 . S
Fe133 O151 2.002 . S
O134 Fe132 1.918 . S
O134 Fe133 1.918 . S
O134 Fe135 1.918 . S
Fe135 O134 1.918 . S
Fe135 O136 2.002 . S
Fe135 O145 1.976 . S
Fe135 O149 1.996 . S
Fe135 O152 1.997 . S
O136 Fe135 2.002 . S
O136 C153 1.295 . S
O137 Fe132 1.997 . S
O137 C153 1.235 . S
O138 Fe132 2.002 . S
O138 C139 1.295 . S
C139 O138 1.295 . S
C139 O141 1.235 . S
C140 O145 1.287 . S
C140 O146 1.255 . S
O141 Fe133 1.997 . S
O141 C139 1.235 . S
C142 O148 1.287 . S
C142 O149 1.255 . S
O143 Fe132 1.976 . S
O143 C150 1.287 . S
O144 Fe133 1.996 . S
O144 C150 1.255 . S
O145 Fe135 1.976 . S
O145 C140 1.287 . S
O146 Fe132 1.996 . S
O146 C140 1.255 . S
C147 O151 1.295 . S
C147 O152 1.235 . S
O148 Fe133 1.976 . S
O148 C142 1.287 . S
O149 Fe135 1.996 . S
O149 C142 1.255 . S
C150 O143 1.287 . S
C150 O144 1.255 . S
O151 Fe133 2.002 . S
O151 C147 1.295 . S
O152 Fe135 1.997 . S
O152 C147 1.235 . S
C153 O136 1.295 . S
C153 O137 1.235 . S
Fe154 O156 1.918 . S
Fe154 O159 1.997 . S
Fe154 O160 2.002 . S
Fe154 O165 1.976 . S
Fe154 O168 1.996 . S
Fe155 O156 1.918 . S
Fe155 O163 1.997 . S
Fe155 O166 1.996 . S
Fe155 O170 1.976 . S
Fe155 O173 2.002 . S
O156 Fe154 1.918 . S
O156 Fe155 1.918 . S
O156 Fe157 1.918 . S
Fe157 O156 1.918 . S
Fe157 O158 2.002 . S
Fe157 O167 1.976 . S
Fe157 O171 1.996 . S
Fe157 O174 1.997 . S
O158 Fe157 2.002 . S
O158 C175 1.295 . S
O159 Fe154 1.997 . S
O159 C175 1.235 . S
O160 Fe154 2.002 . S
O160 C161 1.295 . S
C161 O160 1.295 . S
C161 O163 1.235 . S
C162 O167 1.287 . S
C162 O168 1.255 . S
O163 Fe155 1.997 . S
O163 C161 1.235 . S
C164 O170 1.287 . S
C164 O171 1.255 . S
O165 Fe154 1.976 . S
O165 C172 1.287 . S
O166 Fe155 1.996 . S
O166 C172 1.255 . S
O167 Fe157 1.976 . S
O167 C162 1.287 . S
O168 Fe154 1.996 . S
O168 C162 1.255 . S
C169 O173 1.295 . S
C169 O174 1.235 . S
O170 Fe155 1.976 . S
O170 C164 1.287 . S
O171 Fe157 1.996 . S
O171 C164 1.255 . S
C172 O165 1.287 . S
C172 O166 1.255 . S
O173 Fe155 2.002 . S
O173 C169 1.295 . S
O174 Fe157 1.997 . S
O174 C169 1.235 . S
C175 O158 1.295 . S
C175 O159 1.235 . S
H176 C194 0.951 . S
H177 C196 0.951 . S
H178 C198 0.950 . S
H179 C199 0.950 . S
H180 C201 0.950 . S
H181 C204 0.950 . S
H182 C205 0.950 . S
H183 C207 0.950 . S
H184 C208 0.950 . S
H185 C209 0.951 . S
H186 C211 0.951 . S
H187 C213 0.950 . S
H188 C214 0.950 . S
H189 C216 0.950 . S
H190 C219 0.950 . S
H191 C220 0.950 . S
H192 C222 0.950 . S
H193 C223 0.950 . S
C194 H176 0.951 . S
C194 C195 1.366 . S
C194 C196 1.388 . S
C195 C194 1.366 . S
C195 C199 1.385 . S
C196 H177 0.951 . S
C196 C194 1.388 . S
C196 C197 1.366 . S
C197 C196 1.366 . S
C197 C198 1.414 . S
C197 C200 1.499 . S
C198 H178 0.950 . S
C198 C197 1.414 . S
C198 C199 1.374 . S
C199 H179 0.950 . S
C199 C195 1.385 . S
C199 C198 1.374 . S
C200 C197 1.499 . S
C200 C201 1.373 . S
C200 C202 1.389 . S
C201 H180 0.950 . S
C201 C200 1.373 . S
C201 C217 1.377 . S
C202 C200 1.389 . S
C202 C203 1.524 . S
C202 C216 1.377 . S
C203 C202 1.524 . S
C203 C204 1.397 . S
C203 C208 1.363 . S
C204 H181 0.950 . S
C204 C203 1.397 . S
C204 C205 1.334 . S
C205 H182 0.950 . S
C205 C204 1.334 . S
C205 C206 1.287 . S
C206 C205 1.287 . S
C206 C207 1.524 . S
C206 H225 0.913 . S
C207 H183 0.950 . S
C207 C206 1.524 . S
C207 C208 1.415 . S
C208 H184 0.950 . S
C208 C203 1.363 . S
C208 C207 1.415 . S
C209 H185 0.951 . S
C209 C210 1.366 . S
C209 C211 1.388 . S
C210 C209 1.366 . S
C210 C214 1.385 . S
C211 H186 0.951 . S
C211 C209 1.388 . S
C211 C212 1.366 . S
C212 C211 1.366 . S
C212 C213 1.414 . S
C212 C215 1.499 . S
C213 H187 0.950 . S
C213 C212 1.414 . S
C213 C214 1.374 . S
C214 H188 0.950 . S
C214 C210 1.385 . S
C214 C213 1.374 . S
C215 C212 1.499 . S
C215 C216 1.373 . S
C215 C217 1.389 . S
C216 H189 0.950 . S
C216 C202 1.377 . S
C216 C215 1.373 . S
C217 C201 1.377 . S
C217 C215 1.389 . S
C217 C218 1.524 . S
C218 C217 1.524 . S
C218 C219 1.397 . S
C218 C223 1.363 . S
C219 H190 0.950 . S
C219 C218 1.397 . S
C219 C220 1.334 . S
C220 H191 0.950 . S
C220 C219 1.334 . S
C220 C221 1.287 . S
C221 C220 1.287 . S
C221 C222 1.524 1_556 S
C221 H224 0.999 1_556 S
C222 H192 0.950 . S
C222 C221 1.524 1_554 S
C222 C223 1.415 1_554 S
C223 H193 0.950 . S
C223 C218 1.363 . S
C223 C222 1.415 1_556 S
H224 C221 0.999 1_554 S
H225 C206 0.913 . S
H226 C244 0.951 . S
H227 C246 0.951 . S
H228 C248 0.950 . S
H229 C249 0.950 . S
H230 C251 0.950 . S
H231 C254 0.950 . S
H232 C255 0.950 . S
H233 C257 0.950 . S
H234 C258 0.950 . S
H235 C259 0.951 . S
H236 C261 0.951 . S
H237 C263 0.950 . S
H238 C264 0.950 . S
H239 C266 0.950 . S
H240 C269 0.950 . S
H241 C270 0.950 . S
H242 C272 0.950 . S
H243 C273 0.950 . S
C244 H226 0.951 . S
C244 C245 1.366 . S
C244 C246 1.388 . S
C245 C244 1.366 . S
C245 C249 1.385 . S
C246 H227 0.951 . S
C246 C244 1.388 . S
C246 C247 1.366 . S
C247 C246 1.366 . S
C247 C248 1.414 . S
C247 C250 1.499 . S
C248 H228 0.950 . S
C248 C247 1.414 . S
C248 C249 1.374 . S
C249 H229 0.950 . S
C249 C245 1.385 . S
C249 C248 1.374 . S
C250 C247 1.499 . S
C250 C251 1.373 . S
C250 C252 1.389 . S
C251 H230 0.950 . S
C251 C250 1.373 . S
C251 C267 1.377 . S
C252 C250 1.389 . S
C252 C253 1.524 . S
C252 C266 1.377 . S
C253 C252 1.524 . S
C253 C254 1.397 . S
C253 C258 1.363 . S
C254 H231 0.950 . S
C254 C253 1.397 . S
C254 C255 1.334 . S
C255 H232 0.950 . S
C255 C254 1.334 . S
C255 C256 1.287 . S
C256 C255 1.287 . S
C256 C257 1.524 . S
C256 H275 0.913 . S
C257 H233 0.950 . S
C257 C256 1.524 . S
C257 C258 1.415 . S
C258 H234 0.950 . S
C258 C253 1.363 . S
C258 C257 1.415 . S
C259 H235 0.951 . S
C259 C260 1.366 . S
C259 C261 1.388 . S
C260 C259 1.366 . S
C260 C264 1.385 . S
C261 H236 0.951 . S
C261 C259 1.388 . S
C261 C262 1.366 . S
C262 C261 1.366 . S
C262 C263 1.414 . S
C262 C265 1.499 . S
C263 H237 0.950 . S
C263 C262 1.414 . S
C263 C264 1.374 . S
C264 H238 0.950 . S
C264 C260 1.385 . S
C264 C263 1.374 . S
C265 C262 1.499 . S
C265 C266 1.373 . S
C265 C267 1.389 . S
C266 H239 0.950 . S
C266 C252 1.377 . S
C266 C265 1.373 . S
C267 C251 1.377 . S
C267 C265 1.389 . S
C267 C268 1.524 . S
C268 C267 1.524 . S
C268 C269 1.397 . S
C268 C273 1.363 . S
C269 H240 0.950 . S
C269 C268 1.397 . S
C269 C270 1.334 . S
C270 H241 0.950 . S
C270 C269 1.334 . S
C270 C271 1.287 . S
C271 C270 1.287 . S
C271 C272 1.524 . S
C271 H274 0.999 . S
C272 H242 0.950 . S
C272 C271 1.524 . S
C272 C273 1.415 . S
C273 H243 0.950 . S
C273 C268 1.363 . S
C273 C272 1.415 . S
H274 C271 0.999 . S
H275 C256 0.913 . S
H276 C294 0.951 . S
H277 C296 0.951 . S
H278 C298 0.950 . S
H279 C299 0.950 . S
H280 C301 0.950 . S
H281 C304 0.950 . S
H282 C305 0.950 1_554 S
H283 C307 0.950 . S
H284 C308 0.950 . S
H285 C309 0.951 . S
H286 C311 0.951 . S
H287 C313 0.950 . S
H288 C314 0.950 . S
H289 C316 0.950 . S
H290 C319 0.950 . S
H291 C320 0.950 . S
H292 C322 0.950 . S
H293 C323 0.950 . S
C294 H276 0.951 . S
C294 C295 1.366 . S
C294 C296 1.388 . S
C295 C294 1.366 . S
C295 C299 1.385 . S
C296 H277 0.951 . S
C296 C294 1.388 . S
C296 C297 1.366 . S
C297 C296 1.366 . S
C297 C298 1.414 . S
C297 C300 1.499 . S
C298 H278 0.950 . S
C298 C297 1.414 . S
C298 C299 1.374 . S
C299 H279 0.950 . S
C299 C295 1.385 . S
C299 C298 1.374 . S
C300 C297 1.499 . S
C300 C301 1.373 . S
C300 C302 1.389 . S
C301 H280 0.950 . S
C301 C300 1.373 . S
C301 C317 1.377 . S
C302 C300 1.389 . S
C302 C303 1.524 . S
C302 C316 1.377 . S
C303 C302 1.524 . S
C303 C304 1.397 . S
C303 C308 1.363 . S
C304 H281 0.950 . S
C304 C303 1.397 . S
C304 C305 1.334 . S
C305 H282 0.950 1_556 S
C305 C304 1.334 . S
C305 C306 1.287 . S
C306 C305 1.287 . S
C306 C307 1.524 . S
C306 H325 0.913 . S
C307 H283 0.950 . S
C307 C306 1.524 . S
C307 C308 1.415 . S
C308 H284 0.950 . S
C308 C303 1.363 . S
C308 C307 1.415 . S
C309 H285 0.951 . S
C309 C310 1.366 . S
C309 C311 1.388 . S
C310 C309 1.366 . S
C310 C314 1.385 . S
C311 H286 0.951 . S
C311 C309 1.388 . S
C311 C312 1.366 . S
C312 C311 1.366 . S
C312 C313 1.414 . S
C312 C315 1.499 . S
C313 H287 0.950 . S
C313 C312 1.414 . S
C313 C314 1.374 . S
C314 H288 0.950 . S
C314 C310 1.385 . S
C314 C313 1.374 . S
C315 C312 1.499 . S
C315 C316 1.373 . S
C315 C317 1.389 . S
C316 H289 0.950 . S
C316 C302 1.377 . S
C316 C315 1.373 . S
C317 C301 1.377 . S
C317 C315 1.389 . S
C317 C318 1.524 . S
C318 C317 1.524 . S
C318 C319 1.397 . S
C318 C323 1.363 . S
C319 H290 0.950 . S
C319 C318 1.397 . S
C319 C320 1.334 . S
C320 H291 0.950 . S
C320 C319 1.334 . S
C320 C321 1.287 . S
C321 C320 1.287 . S
C321 C322 1.524 . S
C321 H324 0.999 . S
C322 H292 0.950 . S
C322 C321 1.524 . S
C322 C323 1.415 . S
C323 H293 0.950 . S
C323 C318 1.363 . S
C323 C322 1.415 . S
H324 C321 0.999 . S
H325 C306 0.913 . S
H326 C344 0.951 . S
H327 C346 0.951 . S
H328 C348 0.950 . S
H329 C349 0.950 . S
H330 C351 0.950 . S
H331 C354 0.950 . S
H332 C355 0.950 . S
H333 C357 0.950 . S
H334 C358 0.950 . S
H335 C359 0.951 . S
H336 C361 0.951 . S
H337 C363 0.950 . S
H338 C364 0.950 . S
H339 C366 0.950 . S
H340 C369 0.950 . S
H341 C370 0.950 . S
H342 C372 0.950 . S
H343 C373 0.950 . S
C344 H326 0.951 . S
C344 C345 1.366 . S
C344 C346 1.388 . S
C345 C344 1.366 . S
C345 C349 1.385 . S
C346 H327 0.951 . S
C346 C344 1.388 . S
C346 C347 1.366 . S
C347 C346 1.366 . S
C347 C348 1.414 . S
C347 C350 1.499 . S
C348 H328 0.950 . S
C348 C347 1.414 . S
C348 C349 1.374 . S
C349 H329 0.950 . S
C349 C345 1.385 . S
C349 C348 1.374 . S
C350 C347 1.499 . S
C350 C351 1.373 . S
C350 C352 1.389 . S
C351 H330 0.950 . S
C351 C350 1.373 . S
C351 C367 1.377 . S
C352 C350 1.389 . S
C352 C353 1.524 . S
C352 C366 1.377 . S
C353 C352 1.524 . S
C353 C354 1.397 . S
C353 C358 1.363 . S
C354 H331 0.950 . S
C354 C353 1.397 . S
C354 C355 1.334 . S
C355 H332 0.950 . S
C355 C354 1.334 . S
C355 C356 1.287 . S
C356 C355 1.287 . S
C356 C357 1.524 . S
C356 H375 0.913 . S
C357 H333 0.950 . S
C357 C356 1.524 . S
C357 C358 1.415 . S
C358 H334 0.950 . S
C358 C353 1.363 . S
C358 C357 1.415 . S
C359 H335 0.951 . S
C359 C360 1.366 . S
C359 C361 1.388 . S
C360 C359 1.366 . S
C360 C364 1.385 . S
C361 H336 0.951 . S
C361 C359 1.388 . S
C361 C362 1.366 . S
C362 C361 1.366 . S
C362 C363 1.414 . S
C362 C365 1.499 . S
C363 H337 0.950 . S
C363 C362 1.414 . S
C363 C364 1.374 . S
C364 H338 0.950 . S
C364 C360 1.385 . S
C364 C363 1.374 . S
C365 C362 1.499 . S
C365 C366 1.373 . S
C365 C367 1.389 . S
C366 H339 0.950 . S
C366 C352 1.377 . S
C366 C365 1.373 . S
C367 C351 1.377 . S
C367 C365 1.389 . S
C367 C368 1.524 . S
C368 C367 1.524 . S
C368 C369 1.397 . S
C368 C373 1.363 . S
C369 H340 0.950 . S
C369 C368 1.397 . S
C369 C370 1.334 . S
C370 H341 0.950 . S
C370 C369 1.334 . S
C370 C371 1.287 . S
C371 C370 1.287 . S
C371 C372 1.524 . S
C371 H374 0.999 . S
C372 H342 0.950 . S
C372 C371 1.524 . S
C372 C373 1.415 . S
C373 H343 0.950 . S
C373 C368 1.363 . S
C373 C372 1.415 . S
H374 C371 0.999 . S
H375 C356 0.913 . S
H376 C394 0.951 . S
H377 C396 0.951 . S
H378 C398 0.950 . S
H379 C399 0.950 1_554 S
H380 C401 0.950 . S
H381 C404 0.950 . S
H382 C405 0.950 . S
H383 C407 0.950 . S
H384 C408 0.950 . S
H385 C409 0.951 . S
H386 C411 0.951 . S
H387 C413 0.950 . S
H388 C414 0.950 . S
H389 C416 0.950 . S
H390 C419 0.950 . S
H391 C420 0.950 . S
H392 C422 0.985 . S
H393 C423 0.950 . S
C394 H376 0.951 . S
C394 C395 1.366 . S
C394 C396 1.388 . S
C395 C394 1.366 . S
C395 C399 1.385 . S
C396 H377 0.951 . S
C396 C394 1.388 . S
C396 C397 1.366 . S
C397 C396 1.366 . S
C397 C398 1.414 . S
C397 C400 1.499 . S
C398 H378 0.950 . S
C398 C397 1.414 . S
C398 C399 1.374 . S
C399 H379 0.950 1_556 S
C399 C395 1.385 . S
C399 C398 1.374 . S
C400 C397 1.499 . S
C400 C401 1.373 . S
C400 C402 1.389 . S
C401 H380 0.950 . S
C401 C400 1.373 . S
C401 C417 1.377 . S
C402 C400 1.389 . S
C402 C403 1.524 . S
C402 C416 1.377 . S
C403 C402 1.524 . S
C403 C404 1.397 . S
C403 C408 1.363 . S
C404 H381 0.950 . S
C404 C403 1.397 . S
C404 C405 1.334 . S
C405 H382 0.950 . S
C405 C404 1.334 . S
C405 C406 1.287 . S
C406 C405 1.287 . S
C406 C407 1.524 . S
C406 H425 0.913 . S
C407 H383 0.950 . S
C407 C406 1.524 . S
C407 C408 1.415 . S
C408 H384 0.950 . S
C408 C403 1.363 . S
C408 C407 1.415 . S
C409 H385 0.951 . S
C409 C410 1.366 . S
C409 C411 1.388 . S
C410 C409 1.366 . S
C410 C414 1.385 . S
C411 H386 0.951 . S
C411 C409 1.388 . S
C411 C412 1.366 . S
C412 C411 1.366 . S
C412 C413 1.414 . S
C412 C415 1.499 . S
C413 H387 0.950 . S
C413 C412 1.414 . S
C413 C414 1.374 . S
C414 H388 0.950 . S
C414 C410 1.385 . S
C414 C413 1.374 . S
C415 C412 1.499 . S
C415 C416 1.373 . S
C415 C417 1.389 . S
C416 H389 0.950 . S
C416 C402 1.377 . S
C416 C415 1.373 . S
C417 C401 1.377 . S
C417 C415 1.389 . S
C417 C418 1.524 . S
C418 C417 1.524 . S
C418 C419 1.397 . S
C418 C423 1.363 . S
C419 H390 0.950 . S
C419 C418 1.397 . S
C419 C420 1.334 . S
C420 H391 0.950 . S
C420 C419 1.334 . S
C420 C421 1.287 . S
C421 C420 1.287 . S
C421 C422 1.506 1_556 S
C421 H424 0.999 . S
C422 H392 0.985 . S
C422 C421 1.506 1_554 S
C422 C423 1.393 1_554 S
C423 H393 0.950 . S
C423 C418 1.363 . S
C423 C422 1.393 1_556 S
H424 C421 0.999 . S
H425 C406 0.913 . S
H426 C444 0.951 . S
H427 C446 0.951 . S
H428 C448 0.950 . S
H429 C449 0.950 . S
H430 C451 0.950 . S
H431 C454 0.950 . S
H432 C455 0.950 . S
H433 C457 0.950 . S
H434 C458 0.950 . S
H435 C459 0.951 . S
H436 C461 0.951 . S
H437 C463 0.950 . S
H438 C464 0.950 . S
H439 C466 0.950 . S
H440 C469 0.950 . S
H441 C470 0.950 . S
H442 C472 0.950 . S
H443 C473 0.950 . S
C444 H426 0.951 . S
C444 C445 1.366 . S
C444 C446 1.388 . S
C445 C444 1.366 . S
C445 C449 1.385 . S
C446 H427 0.951 . S
C446 C444 1.388 . S
C446 C447 1.366 . S
C447 C446 1.366 . S
C447 C448 1.414 . S
C447 C450 1.499 . S
C448 H428 0.950 . S
C448 C447 1.414 . S
C448 C449 1.374 . S
C449 H429 0.950 . S
C449 C445 1.385 . S
C449 C448 1.374 . S
C450 C447 1.499 . S
C450 C451 1.373 . S
C450 C452 1.389 . S
C451 H430 0.950 . S
C451 C450 1.373 . S
C451 C467 1.377 . S
C452 C450 1.389 . S
C452 C453 1.524 . S
C452 C466 1.377 . S
C453 C452 1.524 . S
C453 C454 1.397 . S
C453 C458 1.363 . S
C454 H431 0.950 . S
C454 C453 1.397 . S
C454 C455 1.334 . S
C455 H432 0.950 . S
C455 C454 1.334 . S
C455 C456 1.287 . S
C456 C455 1.287 . S
C456 C457 1.524 . S
C456 H475 0.913 . S
C457 H433 0.950 . S
C457 C456 1.524 . S
C457 C458 1.415 . S
C458 H434 0.950 . S
C458 C453 1.363 . S
C458 C457 1.415 . S
C459 H435 0.951 . S
C459 C460 1.366 . S
C459 C461 1.388 . S
C460 C459 1.366 . S
C460 C464 1.385 . S
C461 H436 0.951 . S
C461 C459 1.388 . S
C461 C462 1.366 . S
C462 C461 1.366 . S
C462 C463 1.414 . S
C462 C465 1.499 . S
C463 H437 0.950 . S
C463 C462 1.414 . S
C463 C464 1.374 . S
C464 H438 0.950 . S
C464 C460 1.385 . S
C464 C463 1.374 . S
C465 C462 1.499 . S
C465 C466 1.373 . S
C465 C467 1.389 . S
C466 H439 0.950 . S
C466 C452 1.377 . S
C466 C465 1.373 . S
C467 C451 1.377 . S
C467 C465 1.389 . S
C467 C468 1.524 . S
C468 C467 1.524 . S
C468 C469 1.397 . S
C468 C473 1.363 . S
C469 H440 0.950 . S
C469 C468 1.397 . S
C469 C470 1.334 . S
C470 H441 0.950 . S
C470 C469 1.334 . S
C470 C471 1.287 . S
C471 C470 1.287 . S
C471 C472 1.524 . S
C471 H474 0.999 . S
C472 H442 0.950 . S
C472 C471 1.524 . S
C472 C473 1.415 . S
C473 H443 0.950 . S
C473 C468 1.363 . S
C473 C472 1.415 . S
H474 C471 0.999 . S
H475 C456 0.913 . S
H476 C494 0.951 . S
H477 C496 0.951 . S
H478 C498 0.950 . S
H479 C499 0.950 . S
H480 C501 0.950 . S
H481 C504 0.950 . S
H482 C505 0.950 . S
H483 C507 0.950 . S
H484 C508 0.950 . S
H485 C509 0.951 . S
H486 C511 0.951 . S
H487 C513 0.950 . S
H488 C514 0.950 . S
H489 C516 0.950 . S
H490 C519 0.950 . S
H491 C520 0.950 . S
H492 C522 0.950 . S
H493 C523 0.950 . S
C494 H476 0.951 . S
C494 C495 1.366 . S
C494 C496 1.388 . S
C495 C494 1.366 . S
C495 C499 1.385 . S
C496 H477 0.951 . S
C496 C494 1.388 . S
C496 C497 1.366 . S
C497 C496 1.366 . S
C497 C498 1.414 . S
C497 C500 1.499 . S
C498 H478 0.950 . S
C498 C497 1.414 . S
C498 C499 1.374 . S
C499 H479 0.950 . S
C499 C495 1.385 . S
C499 C498 1.374 . S
C500 C497 1.499 . S
C500 C501 1.373 . S
C500 C502 1.389 . S
C501 H480 0.950 . S
C501 C500 1.373 . S
C501 C517 1.377 . S
C502 C500 1.389 . S
C502 C503 1.524 . S
C502 C516 1.377 . S
C503 C502 1.524 . S
C503 C504 1.397 . S
C503 C508 1.363 . S
C504 H481 0.950 . S
C504 C503 1.397 . S
C504 C505 1.334 1_556 S
C505 H482 0.950 . S
C505 C504 1.334 1_554 S
C505 C506 1.287 . S
C506 C505 1.287 . S
C506 C507 1.524 . S
C506 H525 0.913 . S
C507 H483 0.950 . S
C507 C506 1.524 . S
C507 C508 1.415 1_554 S
C508 H484 0.950 . S
C508 C503 1.363 . S
C508 C507 1.415 1_556 S
C509 H485 0.951 . S
C509 C510 1.366 . S
C509 C511 1.388 . S
C510 C509 1.366 . S
C510 C514 1.385 . S
C511 H486 0.951 . S
C511 C509 1.388 . S
C511 C512 1.366 . S
C512 C511 1.366 . S
C512 C513 1.414 . S
C512 C515 1.499 . S
C513 H487 0.950 . S
C513 C512 1.414 . S
C513 C514 1.374 . S
C514 H488 0.950 . S
C514 C510 1.385 . S
C514 C513 1.374 . S
C515 C512 1.499 . S
C515 C516 1.373 . S
C515 C517 1.389 . S
C516 H489 0.950 . S
C516 C502 1.377 . S
C516 C515 1.373 . S
C517 C501 1.377 . S
C517 C515 1.389 . S
C517 C518 1.524 . S
C518 C517 1.524 . S
C518 C519 1.397 . S
C518 C523 1.363 . S
C519 H490 0.950 . S
C519 C518 1.397 . S
C519 C520 1.334 . S
C520 H491 0.950 . S
C520 C519 1.334 . S
C520 C521 1.287 . S
C521 C520 1.287 . S
C521 C522 1.524 . S
C521 H524 0.999 . S
C522 H492 0.950 . S
C522 C521 1.524 . S
C522 C523 1.415 . S
C523 H493 0.950 . S
C523 C518 1.363 . S
C523 C522 1.415 . S
H524 C521 0.999 . S
H525 C506 0.913 . S
H526 C544 0.951 . S
H527 C546 0.951 . S
H528 C548 0.950 . S
H529 C549 0.950 . S
H530 C551 0.950 . S
H531 C554 0.950 . S
H532 C555 0.950 . S
H533 C557 0.950 . S
H534 C558 0.950 . S
H535 C559 0.951 . S
H536 C561 0.951 . S
H537 C563 0.950 . S
H538 C564 0.950 . S
H539 C566 0.950 . S
H540 C569 0.950 . S
H541 C570 0.950 . S
H542 C572 0.950 . S
H543 C573 0.950 . S
C544 H526 0.951 . S
C544 C545 1.366 . S
C544 C546 1.388 . S
C545 C544 1.366 . S
C545 C549 1.385 . S
C546 H527 0.951 . S
C546 C544 1.388 . S
C546 C547 1.366 . S
C547 C546 1.366 . S
C547 C548 1.414 . S
C547 C550 1.499 . S
C548 H528 0.950 . S
C548 C547 1.414 . S
C548 C549 1.374 . S
C549 H529 0.950 . S
C549 C545 1.385 . S
C549 C548 1.374 . S
C550 C547 1.499 . S
C550 C551 1.373 . S
C550 C552 1.389 . S
C551 H530 0.950 . S
C551 C550 1.373 . S
C551 C567 1.377 . S
C552 C550 1.389 . S
C552 C553 1.524 . S
C552 C566 1.377 . S
C553 C552 1.524 . S
C553 C554 1.397 . S
C553 C558 1.363 . S
C554 H531 0.950 . S
C554 C553 1.397 . S
C554 C555 1.334 . S
C555 H532 0.950 . S
C555 C554 1.334 . S
C555 C556 1.287 . S
C556 C555 1.287 . S
C556 C557 1.524 . S
C556 H575 0.913 . S
C557 H533 0.950 . S
C557 C556 1.524 . S
C557 C558 1.415 . S
C558 H534 0.950 . S
C558 C553 1.363 . S
C558 C557 1.415 . S
C559 H535 0.951 . S
C559 C560 1.366 . S
C559 C561 1.388 . S
C560 C559 1.366 . S
C560 C564 1.385 . S
C561 H536 0.951 . S
C561 C559 1.388 . S
C561 C562 1.366 . S
C562 C561 1.366 . S
C562 C563 1.414 . S
C562 C565 1.499 . S
C563 H537 0.950 . S
C563 C562 1.414 . S
C563 C564 1.374 . S
C564 H538 0.950 . S
C564 C560 1.385 . S
C564 C563 1.374 . S
C565 C562 1.499 . S
C565 C566 1.373 . S
C565 C567 1.389 . S
C566 H539 0.950 . S
C566 C552 1.377 . S
C566 C565 1.373 . S
C567 C551 1.377 . S
C567 C565 1.389 . S
C567 C568 1.524 . S
C568 C567 1.524 . S
C568 C569 1.397 . S
C568 C573 1.363 . S
C569 H540 0.950 . S
C569 C568 1.397 . S
C569 C570 1.334 . S
C570 H541 0.950 . S
C570 C569 1.334 . S
C570 C571 1.287 . S
C571 C570 1.287 . S
C571 C572 1.524 . S
C571 H574 0.999 . S
C572 H542 0.950 . S
C572 C571 1.524 . S
C572 C573 1.415 . S
C573 H543 0.950 . S
C573 C568 1.363 . S
C573 C572 1.415 . S
H574 C571 0.999 . S
H575 C556 0.913 . S
H576 C594 0.951 . S
H577 C596 0.951 . S
H578 C598 0.950 . S
H579 C599 0.972 . S
H580 C601 0.950 . S
H581 C604 0.950 . S
H582 C605 0.950 . S
H583 C607 0.950 . S
H584 C608 0.950 . S
H585 C609 0.951 . S
H586 C611 0.951 . S
H587 C613 0.950 . S
H588 C614 0.950 . S
H589 C616 0.950 . S
H590 C619 0.950 . S
H591 C620 0.950 . S
H592 C622 0.950 . S
H593 C623 0.950 . S
C594 H576 0.951 . S
C594 C595 1.366 . S
C594 C596 1.388 . S
C595 C594 1.366 . S
C595 C599 1.385 . S
C596 H577 0.951 . S
C596 C594 1.388 . S
C596 C597 1.366 . S
C597 C596 1.366 . S
C597 C598 1.414 . S
C597 C600 1.499 . S
C598 H578 0.950 . S
C598 C597 1.414 . S
C598 C599 1.374 . S
C599 H579 0.972 . S
C599 C595 1.385 . S
C599 C598 1.374 . S
C600 C597 1.499 . S
C600 C601 1.373 . S
C600 C602 1.389 . S
C601 H580 0.950 . S
C601 C600 1.373 . S
C601 C617 1.377 . S
C602 C600 1.389 . S
C602 C603 1.524 . S
C602 C616 1.377 . S
C603 C602 1.524 . S
C603 C604 1.397 . S
C603 C608 1.363 . S
C604 H581 0.950 . S
C604 C603 1.397 . S
C604 C605 1.334 . S
C605 H582 0.950 . S
C605 C604 1.334 . S
C605 C606 1.287 . S
C606 C605 1.287 . S
C606 C607 1.524 . S
C606 H625 0.913 . S
C607 H583 0.950 . S
C607 C606 1.524 . S
C607 C608 1.415 . S
C608 H584 0.950 . S
C608 C603 1.363 . S
C608 C607 1.415 . S
C609 H585 0.951 . S
C609 C610 1.366 . S
C609 C611 1.388 . S
C610 C609 1.366 . S
C610 C614 1.385 . S
C611 H586 0.951 . S
C611 C609 1.388 . S
C611 C612 1.366 . S
C612 C611 1.366 . S
C612 C613 1.414 . S
C612 C615 1.499 . S
C613 H587 0.950 . S
C613 C612 1.414 . S
C613 C614 1.374 . S
C614 H588 0.950 . S
C614 C610 1.385 . S
C614 C613 1.374 . S
C615 C612 1.499 . S
C615 C616 1.373 . S
C615 C617 1.389 . S
C616 H589 0.950 . S
C616 C602 1.377 . S
C616 C615 1.373 . S
C617 C601 1.377 . S
C617 C615 1.389 . S
C617 C618 1.524 . S
C618 C617 1.524 . S
C618 C619 1.397 . S
C618 C623 1.363 . S
C619 H590 0.950 . S
C619 C618 1.397 . S
C619 C620 1.334 . S
C620 H591 0.950 . S
C620 C619 1.334 . S
C620 C621 1.287 1_556 S
C621 C620 1.287 1_554 S
C621 C622 1.524 . S
C621 H624 0.999 . S
C622 H592 0.950 . S
C622 C621 1.524 . S
C622 C623 1.415 1_554 S
C623 H593 0.950 . S
C623 C618 1.363 . S
C623 C622 1.415 1_556 S
H624 C621 0.999 . S
H625 C606 0.913 . S
H626 C644 0.951 . S
H627 C646 0.951 . S
H628 C648 0.950 . S
H629 C649 0.950 . S
H630 C651 0.950 . S
H631 C654 0.950 . S
H632 C655 0.950 . S
H633 C657 0.950 . S
H634 C658 0.950 . S
H635 C659 0.951 . S
H636 C661 0.951 . S
H637 C663 0.950 . S
H638 C664 0.950 . S
H639 C666 0.950 . S
H640 C669 0.950 . S
H641 C670 0.950 . S
H642 C672 0.950 . S
H643 C673 0.950 . S
C644 H626 0.951 . S
C644 C645 1.366 . S
C644 C646 1.388 . S
C645 C644 1.366 . S
C645 C649 1.385 . S
C646 H627 0.951 . S
C646 C644 1.388 . S
C646 C647 1.366 . S
C647 C646 1.366 . S
C647 C648 1.414 . S
C647 C650 1.499 . S
C648 H628 0.950 . S
C648 C647 1.414 . S
C648 C649 1.374 . S
C649 H629 0.950 . S
C649 C645 1.385 . S
C649 C648 1.374 . S
C650 C647 1.499 . S
C650 C651 1.373 . S
C650 C652 1.389 . S
C651 H630 0.950 . S
C651 C650 1.373 . S
C651 C667 1.377 . S
C652 C650 1.389 . S
C652 C653 1.524 . S
C652 C666 1.377 . S
C653 C652 1.524 . S
C653 C654 1.397 . S
C653 C658 1.363 . S
C654 H631 0.950 . S
C654 C653 1.397 . S
C654 C655 1.334 . S
C655 H632 0.950 . S
C655 C654 1.334 . S
C655 C656 1.287 . S
C656 C655 1.287 . S
C656 C657 1.524 . S
C656 H675 0.913 . S
C657 H633 0.950 . S
C657 C656 1.524 . S
C657 C658 1.415 . S
C658 H634 0.950 . S
C658 C653 1.363 . S
C658 C657 1.415 . S
C659 H635 0.951 . S
C659 C660 1.366 . S
C659 C661 1.388 . S
C660 C659 1.366 . S
C660 C664 1.385 . S
C661 H636 0.951 . S
C661 C659 1.388 . S
C661 C662 1.366 . S
C662 C661 1.366 . S
C662 C663 1.414 . S
C662 C665 1.499 . S
C663 H637 0.950 . S
C663 C662 1.414 . S
C663 C664 1.374 . S
C664 H638 0.950 . S
C664 C660 1.385 . S
C664 C663 1.374 . S
C665 C662 1.499 . S
C665 C666 1.373 . S
C665 C667 1.389 . S
C666 H639 0.950 . S
C666 C652 1.377 . S
C666 C665 1.373 . S
C667 C651 1.377 . S
C667 C665 1.389 . S
C667 C668 1.524 . S
C668 C667 1.524 . S
C668 C669 1.397 . S
C668 C673 1.363 . S
C669 H640 0.950 . S
C669 C668 1.397 . S
C669 C670 1.334 . S
C670 H641 0.950 . S
C670 C669 1.334 . S
C670 C671 1.287 . S
C671 C670 1.287 . S
C671 C672 1.524 . S
C671 H674 0.999 . S
C672 H642 0.950 . S
C672 C671 1.524 . S
C672 C673 1.415 . S
C673 H643 0.950 . S
C673 C668 1.363 . S
C673 C672 1.415 . S
H674 C671 0.999 . S
H675 C656 0.913 . S
H676 C694 0.951 1_554 S
H677 C696 0.951 . S
H678 C698 0.950 . S
H679 C699 0.950 . S
H680 C701 0.950 . S
H681 C704 0.950 . S
H682 C705 0.950 . S
H683 C707 0.950 . S
H684 C708 0.950 . S
H685 C709 0.951 . S
H686 C711 0.951 . S
H687 C713 0.950 . S
H688 C714 0.950 . S
H689 C716 0.950 . S
H690 C719 0.950 . S
H691 C720 0.950 . S
H692 C722 0.950 . S
H693 C723 0.950 . S
C694 H676 0.951 1_556 S
C694 C695 1.366 . S
C694 C696 1.388 . S
C695 C694 1.366 . S
C695 C699 1.385 . S
C696 H677 0.951 . S
C696 C694 1.388 . S
C696 C697 1.366 . S
C697 C696 1.366 . S
C697 C698 1.414 . S
C697 C700 1.499 . S
C698 H678 0.950 . S
C698 C697 1.414 . S
C698 C699 1.374 . S
C699 H679 0.950 . S
C699 C695 1.385 . S
C699 C698 1.374 . S
C700 C697 1.499 . S
C700 C701 1.373 . S
C700 C702 1.389 . S
C701 H680 0.950 . S
C701 C700 1.373 . S
C701 C717 1.377 . S
C702 C700 1.389 . S
C702 C703 1.524 . S
C702 C716 1.377 . S
C703 C702 1.524 . S
C703 C704 1.397 . S
C703 C708 1.363 . S
C704 H681 0.950 . S
C704 C703 1.397 . S
C704 C705 1.334 . S
C705 H682 0.950 . S
C705 C704 1.334 . S
C705 C706 1.287 1_556 S
C706 C705 1.287 1_554 S
C706 C707 1.524 . S
C706 H725 0.913 . S
C707 H683 0.950 . S
C707 C706 1.524 . S
C707 C708 1.415 1_554 S
C708 H684 0.950 . S
C708 C703 1.363 . S
C708 C707 1.415 1_556 S
C709 H685 0.951 . S
C709 C710 1.366 . S
C709 C711 1.388 . S
C710 C709 1.366 . S
C710 C714 1.385 . S
C711 H686 0.951 . S
C711 C709 1.388 . S
C711 C712 1.366 . S
C712 C711 1.366 . S
C712 C713 1.414 . S
C712 C715 1.499 . S
C713 H687 0.950 . S
C713 C712 1.414 . S
C713 C714 1.374 . S
C714 H688 0.950 . S
C714 C710 1.385 . S
C714 C713 1.374 . S
C715 C712 1.499 . S
C715 C716 1.373 . S
C715 C717 1.389 . S
C716 H689 0.950 . S
C716 C702 1.377 . S
C716 C715 1.373 . S
C717 C701 1.377 . S
C717 C715 1.389 . S
C717 C718 1.524 . S
C718 C717 1.524 . S
C718 C719 1.397 . S
C718 C723 1.363 . S
C719 H690 0.950 . S
C719 C718 1.397 . S
C719 C720 1.334 . S
C720 H691 0.950 . S
C720 C719 1.334 . S
C720 C721 1.287 . S
C721 C720 1.287 . S
C721 C722 1.524 . S
C721 H724 0.999 . S
C722 H692 0.950 . S
C722 C721 1.524 . S
C722 C723 1.415 . S
C723 H693 0.950 . S
C723 C718 1.363 . S
C723 C722 1.415 . S
H724 C721 0.999 . S
H725 C706 0.913 . S
H726 C744 0.951 . S
H727 C746 0.951 . S
H728 C748 0.950 . S
H729 C749 0.950 . S
H730 C751 0.950 . S
H731 C754 0.950 . S
H732 C755 0.950 . S
H733 C757 0.950 . S
H734 C758 0.950 . S
H735 C759 0.951 . S
H736 C761 0.951 . S
H737 C763 0.950 . S
H738 C764 0.950 . S
H739 C766 0.950 . S
H740 C769 0.950 . S
H741 C770 0.950 . S
H742 C772 0.950 . S
H743 C773 0.950 . S
C744 H726 0.951 . S
C744 C745 1.366 . S
C744 C746 1.388 . S
C745 C744 1.366 . S
C745 C749 1.385 . S
C746 H727 0.951 . S
C746 C744 1.388 . S
C746 C747 1.366 . S
C747 C746 1.366 . S
C747 C748 1.414 . S
C747 C750 1.499 . S
C748 H728 0.950 . S
C748 C747 1.414 . S
C748 C749 1.374 . S
C749 H729 0.950 . S
C749 C745 1.385 . S
C749 C748 1.374 . S
C750 C747 1.499 . S
C750 C751 1.373 . S
C750 C752 1.389 . S
C751 H730 0.950 . S
C751 C750 1.373 . S
C751 C767 1.377 . S
C752 C750 1.389 . S
C752 C753 1.524 . S
C752 C766 1.377 . S
C753 C752 1.524 . S
C753 C754 1.397 . S
C753 C758 1.363 . S
C754 H731 0.950 . S
C754 C753 1.397 . S
C754 C755 1.334 . S
C755 H732 0.950 . S
C755 C754 1.334 . S
C755 C756 1.287 . S
C756 C755 1.287 . S
C756 C757 1.524 . S
C756 H775 0.913 . S
C757 H733 0.950 . S
C757 C756 1.524 . S
C757 C758 1.415 . S
C758 H734 0.950 . S
C758 C753 1.363 . S
C758 C757 1.415 . S
C759 H735 0.951 . S
C759 C760 1.366 . S
C759 C761 1.388 . S
C760 C759 1.366 . S
C760 C764 1.385 . S
C761 H736 0.951 . S
C761 C759 1.388 . S
C761 C762 1.366 . S
C762 C761 1.366 . S
C762 C763 1.414 . S
C762 C765 1.499 . S
C763 H737 0.950 . S
C763 C762 1.414 . S
C763 C764 1.374 . S
C764 H738 0.950 . S
C764 C760 1.385 . S
C764 C763 1.374 . S
C765 C762 1.499 . S
C765 C766 1.373 . S
C765 C767 1.389 . S
C766 H739 0.950 . S
C766 C752 1.377 . S
C766 C765 1.373 . S
C767 C751 1.377 . S
C767 C765 1.389 . S
C767 C768 1.524 . S
C768 C767 1.524 . S
C768 C769 1.397 . S
C768 C773 1.363 . S
C769 H740 0.950 . S
C769 C768 1.397 . S
C769 C770 1.334 . S
C770 H741 0.950 . S
C770 C769 1.334 . S
C770 C771 1.287 . S
C771 C770 1.287 . S
C771 C772 1.524 . S
C771 H774 0.999 . S
C772 H742 0.950 . S
C772 C771 1.524 . S
C772 C773 1.415 . S
C773 H743 0.950 . S
C773 C768 1.363 . S
C773 C772 1.415 . S
H774 C771 0.999 . S
H775 C756 0.913 . S
H776 C794 0.951 1_554 S
H777 C796 0.951 . S
H778 C798 0.950 . S
H779 C799 0.950 . S
H780 C801 0.950 . S
H781 C804 0.946 1_546 S
H782 C805 0.952 . S
H783 C807 0.950 . S
H784 C808 0.950 1_556 S
H785 C809 0.951 . S
H786 C811 0.951 . S
H787 C813 0.950 . S
H788 C814 0.950 . S
H789 C816 0.950 . S
H790 C819 0.950 . S
H791 C820 0.950 . S
H792 C822 0.950 . S
H793 C823 0.950 . S
C794 H776 0.951 1_556 S
C794 C795 1.366 . S
C794 C796 1.388 . S
C795 C794 1.366 . S
C795 C799 1.385 . S
C796 H777 0.951 . S
C796 C794 1.388 . S
C796 C797 1.366 . S
C797 C796 1.366 . S
C797 C798 1.414 . S
C797 C800 1.499 . S
C798 H778 0.950 . S
C798 C797 1.414 . S
C798 C799 1.374 . S
C799 H779 0.950 . S
C799 C795 1.385 . S
C799 C798 1.374 . S
C800 C797 1.499 . S
C800 C801 1.373 . S
C800 C802 1.389 . S
C801 H780 0.950 . S
C801 C800 1.373 . S
C801 C817 1.377 . S
C802 C800 1.389 . S
C802 C803 1.524 . S
C802 C816 1.377 1_565 S
C803 C802 1.524 . S
C803 C804 1.397 1_556 S
C803 C808 1.363 1_556 S
C804 H781 0.946 1_564 S
C804 C803 1.397 1_554 S
C804 C805 1.333 1_565 S
C805 H782 0.952 . S
C805 C804 1.333 1_545 S
C805 C806 1.286 1_545 S
C806 C805 1.286 1_565 S
C806 C807 1.524 . S
C806 H825 0.915 . S
C807 H783 0.950 . S
C807 C806 1.524 . S
C807 C808 1.415 . S
C808 H784 0.950 1_554 S
C808 C803 1.363 1_554 S
C808 C807 1.415 . S
C809 H785 0.951 . S
C809 C810 1.366 . S
C809 C811 1.388 . S
C810 C809 1.366 . S
C810 C814 1.385 . S
C811 H786 0.951 . S
C811 C809 1.388 . S
C811 C812 1.366 . S
C812 C811 1.366 . S
C812 C813 1.414 . S
C812 C815 1.499 . S
C813 H787 0.950 . S
C813 C812 1.414 . S
C813 C814 1.374 . S
C814 H788 0.950 . S
C814 C810 1.385 . S
C814 C813 1.374 . S
C815 C812 1.499 . S
C815 C816 1.373 . S
C815 C817 1.389 1_545 S
C816 H789 0.950 . S
C816 C802 1.377 1_545 S
C816 C815 1.373 . S
C817 C801 1.377 . S
C817 C815 1.389 1_565 S
C817 C818 1.524 . S
C818 C817 1.524 . S
C818 C819 1.397 . S
C818 C823 1.363 . S
C819 H790 0.950 . S
C819 C818 1.397 . S
C819 C820 1.334 . S
C820 H791 0.950 . S
C820 C819 1.334 . S
C820 C821 1.287 . S
C821 C820 1.287 . S
C821 C822 1.524 . S
C821 H824 0.999 . S
C822 H792 0.950 . S
C822 C821 1.524 . S
C822 C823 1.415 . S
C823 H793 0.950 . S
C823 C818 1.363 . S
C823 C822 1.415 . S
H824 C821 0.999 . S
H825 C806 0.915 . S
H826 C844 0.951 . S
H827 C846 0.951 . S
H828 C848 0.950 . S
H829 C849 0.950 . S
H830 C851 0.950 . S
H831 C854 0.950 . S
H832 C855 0.950 . S
H833 C857 0.950 1_565 S
H834 C858 0.956 . S
H835 C859 0.951 . S
H836 C861 0.951 . S
H837 C863 0.950 . S
H838 C864 0.950 . S
H839 C866 0.950 . S
H840 C869 0.950 . S
H841 C870 0.950 . S
H842 C872 0.950 . S
H843 C873 0.950 . S
C844 H826 0.951 . S
C844 C845 1.366 . S
C844 C846 1.388 . S
C845 C844 1.366 . S
C845 C849 1.385 . S
C846 H827 0.951 . S
C846 C844 1.388 . S
C846 C847 1.366 . S
C847 C846 1.366 . S
C847 C848 1.414 . S
C847 C850 1.499 . S
C848 H828 0.950 . S
C848 C847 1.414 . S
C848 C849 1.374 . S
C849 H829 0.950 . S
C849 C845 1.385 . S
C849 C848 1.374 . S
C850 C847 1.499 . S
C850 C851 1.373 . S
C850 C852 1.389 . S
C851 H830 0.950 . S
C851 C850 1.373 . S
C851 C867 1.377 . S
C852 C850 1.389 . S
C852 C853 1.524 . S
C852 C866 1.377 1_545 S
C853 C852 1.524 . S
C853 C854 1.397 . S
C853 C858 1.359 1_545 S
C854 H831 0.950 . S
C854 C853 1.397 . S
C854 C855 1.334 . S
C855 H832 0.950 . S
C855 C854 1.334 . S
C855 C856 1.287 . S
C856 C855 1.287 . S
C856 C857 1.524 . S
C856 H875 0.913 . S
C857 H833 0.950 1_545 S
C857 C856 1.524 . S
C857 C858 1.414 1_545 S
C858 H834 0.956 . S
C858 C853 1.359 1_565 S
C858 C857 1.414 1_565 S
C859 H835 0.951 . S
C859 C860 1.366 . S
C859 C861 1.388 . S
C860 C859 1.366 . S
C860 C864 1.385 . S
C861 H836 0.951 . S
C861 C859 1.388 . S
C861 C862 1.366 . S
C862 C861 1.366 . S
C862 C863 1.414 . S
C862 C865 1.499 . S
C863 H837 0.950 . S
C863 C862 1.414 . S
C863 C864 1.374 . S
C864 H838 0.950 . S
C864 C860 1.385 . S
C864 C863 1.374 . S
C865 C862 1.499 . S
C865 C866 1.373 . S
C865 C867 1.389 1_565 S
C866 H839 0.950 . S
C866 C852 1.377 1_565 S
C866 C865 1.373 . S
C867 C851 1.377 . S
C867 C865 1.389 1_545 S
C867 C868 1.524 1_545 S
C868 C867 1.524 1_565 S
C868 C869 1.397 . S
C868 C873 1.363 1_565 S
C869 H840 0.950 . S
C869 C868 1.397 . S
C869 C870 1.334 . S
C870 H841 0.950 . S
C870 C869 1.334 . S
C870 C871 1.287 . S
C871 C870 1.287 . S
C871 C872 1.524 1_565 S
C871 H874 0.999 . S
C872 H842 0.950 . S
C872 C871 1.524 1_545 S
C872 C873 1.415 . S
C873 H843 0.950 . S
C873 C868 1.363 1_545 S
C873 C872 1.415 . S
H874 C871 0.999 . S
H875 C856 0.913 . S
H876 C894 0.951 1_554 S
H877 C896 0.951 . S
H878 C898 0.950 . S
H879 C899 0.950 . S
H880 C901 0.950 . S
H881 C904 0.950 . S
H882 C905 0.950 . S
H883 C907 0.950 . S
H884 C908 0.950 . S
H885 C909 0.951 . S
H886 C911 0.951 . S
H887 C913 0.950 . S
H888 C914 0.950 . S
H889 C916 0.950 . S
H890 C919 0.950 . S
H891 C920 0.950 . S
H892 C922 0.950 . S
H893 C923 0.950 . S
C894 H876 0.951 1_556 S
C894 C895 1.366 . S
C894 C896 1.388 . S
C895 C894 1.366 . S
C895 C899 1.385 . S
C896 H877 0.951 . S
C896 C894 1.388 . S
C896 C897 1.366 . S
C897 C896 1.366 . S
C897 C898 1.414 . S
C897 C900 1.499 . S
C898 H878 0.950 . S
C898 C897 1.414 . S
C898 C899 1.374 . S
C899 H879 0.950 . S
C899 C895 1.385 . S
C899 C898 1.374 . S
C900 C897 1.499 . S
C900 C901 1.373 1_565 S
C900 C902 1.389 . S
C901 H880 0.950 . S
C901 C900 1.373 1_545 S
C901 C917 1.377 . S
C902 C900 1.389 . S
C902 C903 1.524 . S
C902 C916 1.377 . S
C903 C902 1.524 . S
C903 C904 1.397 . S
C903 C908 1.363 . S
C904 H881 0.950 . S
C904 C903 1.397 . S
C904 C905 1.334 . S
C905 H882 0.950 . S
C905 C904 1.334 . S
C905 C906 1.287 . S
C906 C905 1.287 . S
C906 C907 1.524 . S
C906 H925 0.913 . S
C907 H883 0.950 . S
C907 C906 1.524 . S
C907 C908 1.415 . S
C908 H884 0.950 . S
C908 C903 1.363 . S
C908 C907 1.415 . S
C909 H885 0.951 . S
C909 C910 1.366 . S
C909 C911 1.388 . S
C910 C909 1.366 . S
C910 C914 1.385 . S
C911 H886 0.951 . S
C911 C909 1.388 . S
C911 C912 1.366 . S
C912 C911 1.366 . S
C912 C913 1.414 . S
C912 C915 1.499 . S
C913 H887 0.950 . S
C913 C912 1.414 . S
C913 C914 1.374 . S
C914 H888 0.950 . S
C914 C910 1.385 . S
C914 C913 1.374 . S
C915 C912 1.499 . S
C915 C916 1.373 1_545 S
C915 C917 1.389 . S
C916 H889 0.950 . S
C916 C902 1.377 . S
C916 C915 1.373 1_565 S
C917 C901 1.377 . S
C917 C915 1.389 . S
C917 C918 1.524 . S
C918 C917 1.524 . S
C918 C919 1.397 . S
C918 C923 1.363 . S
C919 H890 0.950 . S
C919 C918 1.397 . S
C919 C920 1.334 . S
C920 H891 0.950 . S
C920 C919 1.334 . S
C920 C921 1.287 . S
C921 C920 1.287 . S
C921 C922 1.524 . S
C921 H924 0.999 . S
C922 H892 0.950 . S
C922 C921 1.524 . S
C922 C923 1.415 . S
C923 H893 0.950 . S
C923 C918 1.363 . S
C923 C922 1.415 . S
H924 C921 0.999 . S
H925 C906 0.913 . S
H926 C944 0.951 . S
H927 C946 0.951 . S
H928 C948 0.950 . S
H929 C949 0.950 . S
H930 C951 0.950 . S
H931 C954 0.950 . S
H932 C955 0.950 . S
H933 C957 0.950 . S
H934 C958 0.950 . S
H935 C959 0.951 . S
H936 C961 0.951 . S
H937 C963 0.950 . S
H938 C964 0.950 . S
H939 C966 0.950 . S
H940 C969 0.950 . S
H941 C970 0.950 . S
H942 C972 0.950 . S
H943 C973 0.950 . S
C944 H926 0.951 . S
C944 C945 1.366 . S
C944 C946 1.388 . S
C945 C944 1.366 . S
C945 C949 1.385 . S
C946 H927 0.951 . S
C946 C944 1.388 . S
C946 C947 1.366 . S
C947 C946 1.366 . S
C947 C948 1.414 . S
C947 C950 1.499 . S
C948 H928 0.950 . S
C948 C947 1.414 . S
C948 C949 1.374 . S
C949 H929 0.950 . S
C949 C945 1.385 . S
C949 C948 1.374 . S
C950 C947 1.499 . S
C950 C951 1.359 1_545 S
C950 C952 1.389 . S
C951 H930 0.950 . S
C951 C950 1.359 1_565 S
C951 C967 1.391 . S
C952 C950 1.389 . S
C952 C953 1.524 . S
C952 C966 1.382 . S
C953 C952 1.524 . S
C953 C954 1.397 . S
C953 C958 1.363 . S
C954 H931 0.950 . S
C954 C953 1.397 . S
C954 C955 1.334 . S
C955 H932 0.950 . S
C955 C954 1.334 . S
C955 C956 1.287 . S
C956 C955 1.287 . S
C956 C957 1.524 . S
C956 H975 0.913 . S
C957 H933 0.950 . S
C957 C956 1.524 . S
C957 C958 1.415 . S
C958 H934 0.950 . S
C958 C953 1.363 . S
C958 C957 1.415 . S
C959 H935 0.951 . S
C959 C960 1.366 . S
C959 C961 1.388 . S
C960 C959 1.366 . S
C960 C964 1.385 . S
C961 H936 0.951 . S
C961 C959 1.388 . S
C961 C962 1.366 . S
C962 C961 1.366 . S
C962 C963 1.414 . S
C962 C965 1.499 . S
C963 H937 0.950 . S
C963 C962 1.414 . S
C963 C964 1.374 . S
C964 H938 0.950 . S
C964 C960 1.385 . S
C964 C963 1.374 . S
C965 C962 1.499 . S
C965 C966 1.368 1_565 S
C965 C967 1.389 . S
C966 H939 0.950 . S
C966 C952 1.382 . S
C966 C965 1.368 1_545 S
C967 C951 1.391 . S
C967 C965 1.389 . S
C967 C968 1.524 . S
C968 C967 1.524 . S
C968 C969 1.397 . S
C968 C973 1.363 . S
C969 H940 0.950 . S
C969 C968 1.397 . S
C969 C970 1.334 . S
C970 H941 0.950 . S
C970 C969 1.334 . S
C970 C971 1.287 . S
C971 C970 1.287 . S
C971 C972 1.524 . S
C971 H974 0.999 . S
C972 H942 0.950 . S
C972 C971 1.524 . S
C972 C973 1.415 . S
C973 H943 0.950 . S
C973 C968 1.363 . S
C973 C972 1.415 . S
H974 C971 0.999 . S
H975 C956 0.913 . S
H976 C994 0.951 . S
H977 C996 0.951 . S
H978 C998 0.950 . S
H979 C999 0.950 . S
H980 C1001 0.950 . S
H981 C1004 0.950 . S
H982 C1005 0.950 . S
H983 C1007 0.950 . S
H984 C1008 0.950 . S
H985 C1009 0.951 . S
H986 C1011 0.951 . S
H987 C1013 0.950 . S
H988 C1014 0.950 . S
H989 C1016 0.950 . S
H990 C1019 0.950 . S
H991 C1020 0.950 . S
H992 C1022 0.950 . S
H993 C1023 0.950 . S
C994 H976 0.951 . S
C994 C995 1.366 . S
C994 C996 1.388 . S
C995 C994 1.366 . S
C995 C999 1.385 . S
C996 H977 0.951 . S
C996 C994 1.388 . S
C996 C997 1.366 . S
C997 C996 1.366 . S
C997 C998 1.414 . S
C997 C1000 1.499 . S
C998 H978 0.950 . S
C998 C997 1.414 . S
C998 C999 1.374 . S
C999 H979 0.950 . S
C999 C995 1.385 . S
C999 C998 1.374 . S
C1000 C997 1.499 . S
C1000 C1001 1.373 . S
C1000 C1002 1.389 . S
C1001 H980 0.950 . S
C1001 C1000 1.373 . S
C1001 C1017 1.377 . S
C1002 C1000 1.389 . S
C1002 C1003 1.524 . S
C1002 C1016 1.377 . S
C1003 C1002 1.524 . S
C1003 C1004 1.397 . S
C1003 C1008 1.363 . S
C1004 H981 0.950 . S
C1004 C1003 1.397 . S
C1004 C1005 1.334 . S
C1005 H982 0.950 . S
C1005 C1004 1.334 . S
C1005 C1006 1.287 . S
C1006 C1005 1.287 . S
C1006 C1007 1.524 . S
C1006 H1025 0.913 . S
C1007 H983 0.950 . S
C1007 C1006 1.524 . S
C1007 C1008 1.415 . S
C1008 H984 0.950 . S
C1008 C1003 1.363 . S
C1008 C1007 1.415 . S
C1009 H985 0.951 . S
C1009 C1010 1.366 . S
C1009 C1011 1.388 . S
C1010 C1009 1.366 . S
C1010 C1014 1.385 . S
C1011 H986 0.951 . S
C1011 C1009 1.388 . S
C1011 C1012 1.366 . S
C1012 C1011 1.366 . S
C1012 C1013 1.414 . S
C1012 C1015 1.499 . S
C1013 H987 0.950 . S
C1013 C1012 1.414 . S
C1013 C1014 1.374 . S
C1014 H988 0.950 . S
C1014 C1010 1.385 . S
C1014 C1013 1.374 . S
C1015 C1012 1.499 . S
C1015 C1016 1.373 . S
C1015 C1017 1.389 . S
C1016 H989 0.950 . S
C1016 C1002 1.377 . S
C1016 C1015 1.373 . S
C1017 C1001 1.377 . S
C1017 C1015 1.389 . S
C1017 C1018 1.524 . S
C1018 C1017 1.524 . S
C1018 C1019 1.397 . S
C1018 C1023 1.363 . S
C1019 H990 0.950 . S
C1019 C1018 1.397 . S
C1019 C1020 1.334 . S
C1020 H991 0.950 . S
C1020 C1019 1.334 . S
C1020 C1021 1.287 . S
C1021 C1020 1.287 . S
C1021 C1022 1.524 . S
C1021 H1024 0.999 . S
C1022 H992 0.950 . S
C1022 C1021 1.524 . S
C1022 C1023 1.415 . S
C1023 H993 0.950 . S
C1023 C1018 1.363 . S
C1023 C1022 1.415 . S
H1024 C1021 0.999 . S
H1025 C1006 0.913 . S
H1026 C1044 0.951 . S
H1027 C1046 0.951 . S
H1028 C1048 0.950 . S
H1029 C1049 0.950 . S
H1030 C1051 0.950 . S
H1031 C1054 0.950 . S
H1032 C1055 0.950 . S
H1033 C1057 0.950 . S
H1034 C1058 0.950 . S
H1035 C1059 0.951 . S
H1036 C1061 0.951 . S
H1037 C1063 0.950 . S
H1038 C1064 0.950 . S
H1039 C1066 0.950 . S
H1040 C1069 0.950 . S
H1041 C1070 0.950 . S
H1042 C1072 0.950 . S
H1043 C1073 0.950 . S
C1044 H1026 0.951 . S
C1044 C1045 1.366 . S
C1044 C1046 1.388 . S
C1045 C1044 1.366 . S
C1045 C1049 1.385 . S
C1046 H1027 0.951 . S
C1046 C1044 1.388 . S
C1046 C1047 1.366 . S
C1047 C1046 1.366 . S
C1047 C1048 1.414 . S
C1047 C1050 1.499 . S
C1048 H1028 0.950 . S
C1048 C1047 1.414 . S
C1048 C1049 1.374 . S
C1049 H1029 0.950 . S
C1049 C1045 1.385 . S
C1049 C1048 1.374 . S
C1050 C1047 1.499 . S
C1050 C1051 1.373 . S
C1050 C1052 1.389 . S
C1051 H1030 0.950 . S
C1051 C1050 1.373 . S
C1051 C1067 1.377 . S
C1052 C1050 1.389 . S
C1052 C1053 1.524 . S
C1052 C1066 1.377 . S
C1053 C1052 1.524 . S
C1053 C1054 1.397 . S
C1053 C1058 1.363 . S
C1054 H1031 0.950 . S
C1054 C1053 1.397 . S
C1054 C1055 1.334 . S
C1055 H1032 0.950 . S
C1055 C1054 1.334 . S
C1055 C1056 1.287 . S
C1056 C1055 1.287 . S
C1056 C1057 1.524 . S
C1056 H1075 0.913 . S
C1057 H1033 0.950 . S
C1057 C1056 1.524 . S
C1057 C1058 1.415 . S
C1058 H1034 0.950 . S
C1058 C1053 1.363 . S
C1058 C1057 1.415 . S
C1059 H1035 0.951 . S
C1059 C1060 1.366 . S
C1059 C1061 1.388 . S
C1060 C1059 1.366 . S
C1060 C1064 1.385 . S
C1061 H1036 0.951 . S
C1061 C1059 1.388 . S
C1061 C1062 1.366 . S
C1062 C1061 1.366 . S
C1062 C1063 1.414 . S
C1062 C1065 1.499 . S
C1063 H1037 0.950 . S
C1063 C1062 1.414 . S
C1063 C1064 1.374 . S
C1064 H1038 0.950 . S
C1064 C1060 1.385 . S
C1064 C1063 1.374 . S
C1065 C1062 1.499 . S
C1065 C1066 1.373 . S
C1065 C1067 1.389 . S
C1066 H1039 0.950 . S
C1066 C1052 1.377 . S
C1066 C1065 1.373 . S
C1067 C1051 1.377 . S
C1067 C1065 1.389 . S
C1067 C1068 1.524 . S
C1068 C1067 1.524 . S
C1068 C1069 1.397 . S
C1068 C1073 1.363 . S
C1069 H1040 0.950 . S
C1069 C1068 1.397 . S
C1069 C1070 1.334 . S
C1070 H1041 0.950 . S
C1070 C1069 1.334 . S
C1070 C1071 1.287 . S
C1071 C1070 1.287 . S
C1071 C1072 1.524 . S
C1071 H1074 0.999 . S
C1072 H1042 0.950 . S
C1072 C1071 1.524 . S
C1072 C1073 1.415 . S
C1073 H1043 0.950 . S
C1073 C1068 1.363 . S
C1073 C1072 1.415 . S
H1074 C1071 0.999 . S
H1075 C1056 0.913 . S
H1076 C1094 0.951 . S
H1077 C1096 0.951 . S
H1078 C1098 0.950 . S
H1079 C1099 0.950 . S
H1080 C1101 0.950 . S
H1081 C1104 0.950 . S
H1082 C1105 0.950 . S
H1083 C1107 0.950 . S
H1084 C1108 0.950 . S
H1085 C1109 0.951 . S
H1086 C1111 0.951 . S
H1087 C1113 0.950 . S
H1088 C1114 0.950 . S
H1089 C1116 0.950 . S
H1090 C1119 0.950 . S
H1091 C1120 0.950 . S
H1092 C1122 0.950 . S
H1093 C1123 0.950 . S
C1094 H1076 0.951 . S
C1094 C1095 1.366 . S
C1094 C1096 1.388 . S
C1095 C1094 1.366 . S
C1095 C1099 1.385 . S
C1096 H1077 0.951 . S
C1096 C1094 1.388 . S
C1096 C1097 1.366 . S
C1097 C1096 1.366 . S
C1097 C1098 1.414 . S
C1097 C1100 1.499 . S
C1098 H1078 0.950 . S
C1098 C1097 1.414 . S
C1098 C1099 1.374 . S
C1099 H1079 0.950 . S
C1099 C1095 1.385 . S
C1099 C1098 1.374 . S
C1100 C1097 1.499 . S
C1100 C1101 1.373 . S
C1100 C1102 1.389 . S
C1101 H1080 0.950 . S
C1101 C1100 1.373 . S
C1101 C1117 1.377 . S
C1102 C1100 1.389 . S
C1102 C1103 1.524 . S
C1102 C1116 1.377 . S
C1103 C1102 1.524 . S
C1103 C1104 1.397 . S
C1103 C1108 1.363 . S
C1104 H1081 0.950 . S
C1104 C1103 1.397 . S
C1104 C1105 1.334 . S
C1105 H1082 0.950 . S
C1105 C1104 1.334 . S
C1105 C1106 1.287 . S
C1106 C1105 1.287 . S
C1106 C1107 1.524 . S
C1106 H1125 0.913 . S
C1107 H1083 0.950 . S
C1107 C1106 1.524 . S
C1107 C1108 1.415 . S
C1108 H1084 0.950 . S
C1108 C1103 1.363 . S
C1108 C1107 1.415 . S
C1109 H1085 0.951 . S
C1109 C1110 1.366 . S
C1109 C1111 1.388 . S
C1110 C1109 1.366 . S
C1110 C1114 1.385 . S
C1111 H1086 0.951 . S
C1111 C1109 1.388 . S
C1111 C1112 1.366 . S
C1112 C1111 1.366 . S
C1112 C1113 1.414 . S
C1112 C1115 1.499 . S
C1113 H1087 0.950 . S
C1113 C1112 1.414 . S
C1113 C1114 1.374 . S
C1114 H1088 0.950 . S
C1114 C1110 1.385 . S
C1114 C1113 1.374 . S
C1115 C1112 1.499 . S
C1115 C1116 1.373 . S
C1115 C1117 1.389 . S
C1116 H1089 0.950 . S
C1116 C1102 1.377 . S
C1116 C1115 1.373 . S
C1117 C1101 1.377 . S
C1117 C1115 1.389 . S
C1117 C1118 1.524 . S
C1118 C1117 1.524 . S
C1118 C1119 1.397 . S
C1118 C1123 1.363 . S
C1119 H1090 0.950 . S
C1119 C1118 1.397 . S
C1119 C1120 1.334 . S
C1120 H1091 0.950 . S
C1120 C1119 1.334 . S
C1120 C1121 1.287 . S
C1121 C1120 1.287 . S
C1121 C1122 1.524 . S
C1121 H1124 0.999 . S
C1122 H1092 0.950 . S
C1122 C1121 1.524 . S
C1122 C1123 1.415 . S
C1123 H1093 0.950 . S
C1123 C1118 1.363 . S
C1123 C1122 1.415 . S
H1124 C1121 0.999 . S
H1125 C1106 0.913 . S
H1126 C1144 0.951 . S
H1127 C1146 0.951 . S
H1128 C1148 0.950 . S
H1129 C1149 0.950 . S
H1130 C1151 0.950 . S
H1131 C1154 0.950 . S
H1132 C1155 0.950 . S
H1133 C1157 0.950 . S
H1134 C1158 0.950 . S
H1135 C1159 0.951 . S
H1136 C1161 0.951 . S
H1137 C1163 0.950 . S
H1138 C1164 0.950 . S
H1139 C1166 0.950 . S
H1140 C1169 0.950 . S
H1141 C1170 0.950 . S
H1142 C1172 0.950 . S
H1143 C1173 0.950 . S
C1144 H1126 0.951 . S
C1144 C1145 1.366 . S
C1144 C1146 1.388 . S
C1145 C1144 1.366 . S
C1145 C1149 1.385 . S
C1146 H1127 0.951 . S
C1146 C1144 1.388 . S
C1146 C1147 1.366 . S
C1147 C1146 1.366 . S
C1147 C1148 1.414 . S
C1147 C1150 1.499 . S
C1148 H1128 0.950 . S
C1148 C1147 1.414 . S
C1148 C1149 1.374 . S
C1149 H1129 0.950 . S
C1149 C1145 1.385 . S
C1149 C1148 1.374 . S
C1150 C1147 1.499 . S
C1150 C1151 1.373 . S
C1150 C1152 1.389 . S
C1151 H1130 0.950 . S
C1151 C1150 1.373 . S
C1151 C1167 1.377 . S
C1152 C1150 1.389 . S
C1152 C1153 1.524 . S
C1152 C1166 1.377 . S
C1153 C1152 1.524 . S
C1153 C1154 1.397 . S
C1153 C1158 1.363 . S
C1154 H1131 0.950 . S
C1154 C1153 1.397 . S
C1154 C1155 1.334 . S
C1155 H1132 0.950 . S
C1155 C1154 1.334 . S
C1155 C1156 1.287 . S
C1156 C1155 1.287 . S
C1156 C1157 1.524 . S
C1156 H1175 0.913 . S
C1157 H1133 0.950 . S
C1157 C1156 1.524 . S
C1157 C1158 1.415 . S
C1158 H1134 0.950 . S
C1158 C1153 1.363 . S
C1158 C1157 1.415 . S
C1159 H1135 0.951 . S
C1159 C1160 1.366 . S
C1159 C1161 1.388 . S
C1160 C1159 1.366 . S
C1160 C1164 1.385 . S
C1161 H1136 0.951 . S
C1161 C1159 1.388 . S
C1161 C1162 1.366 . S
C1162 C1161 1.366 . S
C1162 C1163 1.414 . S
C1162 C1165 1.499 . S
C1163 H1137 0.950 . S
C1163 C1162 1.414 . S
C1163 C1164 1.374 . S
C1164 H1138 0.950 . S
C1164 C1160 1.385 . S
C1164 C1163 1.374 . S
C1165 C1162 1.499 . S
C1165 C1166 1.373 . S
C1165 C1167 1.389 . S
C1166 H1139 0.950 . S
C1166 C1152 1.377 . S
C1166 C1165 1.373 . S
C1167 C1151 1.377 . S
C1167 C1165 1.389 . S
C1167 C1168 1.524 . S
C1168 C1167 1.524 . S
C1168 C1169 1.397 . S
C1168 C1173 1.363 . S
C1169 H1140 0.950 . S
C1169 C1168 1.397 . S
C1169 C1170 1.334 . S
C1170 H1141 0.950 . S
C1170 C1169 1.334 . S
C1170 C1171 1.287 . S
C1171 C1170 1.287 . S
C1171 C1172 1.524 . S
C1171 H1174 0.999 . S
C1172 H1142 0.950 . S
C1172 C1171 1.524 . S
C1172 C1173 1.415 . S
C1173 H1143 0.950 . S
C1173 C1168 1.363 . S
C1173 C1172 1.415 . S
H1174 C1171 0.999 . S
H1175 C1156 0.913 . S
H1176 C1194 0.951 . S
H1177 C1196 0.951 . S
H1178 C1198 0.950 . S
H1179 C1199 0.950 . S
H1180 C1201 0.950 . S
H1181 C1204 0.950 . S
H1182 C1205 0.950 . S
H1183 C1207 0.950 . S
H1184 C1208 0.950 . S
H1185 C1209 0.951 . S
H1186 C1211 0.951 . S
H1187 C1213 0.950 . S
H1188 C1214 0.950 . S
H1189 C1216 0.950 . S
H1190 C1219 0.950 . S
H1191 C1220 0.950 . S
H1192 C1222 0.950 . S
H1193 C1223 0.950 . S
C1194 H1176 0.951 . S
C1194 C1195 1.366 . S
C1194 C1196 1.388 . S
C1195 C1194 1.366 . S
C1195 C1199 1.385 . S
C1196 H1177 0.951 . S
C1196 C1194 1.388 . S
C1196 C1197 1.366 . S
C1197 C1196 1.366 . S
C1197 C1198 1.414 . S
C1197 C1200 1.499 . S
C1198 H1178 0.950 . S
C1198 C1197 1.414 . S
C1198 C1199 1.374 . S
C1199 H1179 0.950 . S
C1199 C1195 1.385 . S
C1199 C1198 1.374 . S
C1200 C1197 1.499 . S
C1200 C1201 1.373 . S
C1200 C1202 1.389 . S
C1201 H1180 0.950 . S
C1201 C1200 1.373 . S
C1201 C1217 1.377 . S
C1202 C1200 1.389 . S
C1202 C1203 1.524 . S
C1202 C1216 1.377 . S
C1203 C1202 1.524 . S
C1203 C1204 1.397 . S
C1203 C1208 1.363 . S
C1204 H1181 0.950 . S
C1204 C1203 1.397 . S
C1204 C1205 1.334 . S
C1205 H1182 0.950 . S
C1205 C1204 1.334 . S
C1205 C1206 1.287 . S
C1206 C1205 1.287 . S
C1206 C1207 1.524 . S
C1206 H1225 0.913 . S
C1207 H1183 0.950 . S
C1207 C1206 1.524 . S
C1207 C1208 1.415 . S
C1208 H1184 0.950 . S
C1208 C1203 1.363 . S
C1208 C1207 1.415 . S
C1209 H1185 0.951 . S
C1209 C1210 1.366 . S
C1209 C1211 1.388 . S
C1210 C1209 1.366 . S
C1210 C1214 1.385 . S
C1211 H1186 0.951 . S
C1211 C1209 1.388 . S
C1211 C1212 1.366 . S
C1212 C1211 1.366 . S
C1212 C1213 1.414 . S
C1212 C1215 1.499 . S
C1213 H1187 0.950 . S
C1213 C1212 1.414 . S
C1213 C1214 1.374 . S
C1214 H1188 0.950 . S
C1214 C1210 1.385 . S
C1214 C1213 1.374 . S
C1215 C1212 1.499 . S
C1215 C1216 1.373 . S
C1215 C1217 1.389 . S
C1216 H1189 0.950 . S
C1216 C1202 1.377 . S
C1216 C1215 1.373 . S
C1217 C1201 1.377 . S
C1217 C1215 1.389 . S
C1217 C1218 1.524 . S
C1218 C1217 1.524 . S
C1218 C1219 1.397 . S
C1218 C1223 1.363 . S
C1219 H1190 0.950 . S
C1219 C1218 1.397 . S
C1219 C1220 1.334 . S
C1220 H1191 0.950 . S
C1220 C1219 1.334 . S
C1220 C1221 1.287 . S
C1221 C1220 1.287 . S
C1221 C1222 1.524 . S
C1221 H1224 0.999 . S
C1222 H1192 0.950 . S
C1222 C1221 1.524 . S
C1222 C1223 1.415 . S
C1223 H1193 0.950 . S
C1223 C1218 1.363 . S
C1223 C1222 1.415 . S
H1224 C1221 0.999 . S
H1225 C1206 0.913 . S
H1226 C1244 0.951 . S
H1227 C1246 0.951 . S
H1228 C1248 0.950 . S
H1229 C1249 0.950 . S
H1230 C1251 0.950 . S
H1231 C1254 0.950 . S
H1232 C1255 0.950 . S
H1233 C1257 0.950 . S
H1234 C1258 0.950 . S
H1235 C1259 0.951 . S
H1236 C1261 0.951 . S
H1237 C1263 0.950 . S
H1238 C1264 0.950 . S
H1239 C1266 0.950 . S
H1240 C1269 0.950 . S
H1241 C1270 0.950 . S
H1242 C1272 0.950 . S
H1243 C1273 0.950 . S
C1244 H1226 0.951 . S
C1244 C1245 1.366 . S
C1244 C1246 1.388 . S
C1245 C1244 1.366 . S
C1245 C1249 1.385 . S
C1246 H1227 0.951 . S
C1246 C1244 1.388 . S
C1246 C1247 1.366 . S
C1247 C1246 1.366 . S
C1247 C1248 1.414 . S
C1247 C1250 1.499 . S
C1248 H1228 0.950 . S
C1248 C1247 1.414 . S
C1248 C1249 1.374 . S
C1249 H1229 0.950 . S
C1249 C1245 1.385 . S
C1249 C1248 1.374 . S
C1250 C1247 1.499 . S
C1250 C1251 1.373 . S
C1250 C1252 1.389 . S
C1251 H1230 0.950 . S
C1251 C1250 1.373 . S
C1251 C1267 1.377 . S
C1252 C1250 1.389 . S
C1252 C1253 1.524 . S
C1252 C1266 1.377 . S
C1253 C1252 1.524 . S
C1253 C1254 1.397 . S
C1253 C1258 1.363 . S
C1254 H1231 0.950 . S
C1254 C1253 1.397 . S
C1254 C1255 1.334 . S
C1255 H1232 0.950 . S
C1255 C1254 1.334 . S
C1255 C1256 1.287 . S
C1256 C1255 1.287 . S
C1256 C1257 1.524 . S
C1256 H1275 0.913 . S
C1257 H1233 0.950 . S
C1257 C1256 1.524 . S
C1257 C1258 1.415 . S
C1258 H1234 0.950 . S
C1258 C1253 1.363 . S
C1258 C1257 1.415 . S
C1259 H1235 0.951 . S
C1259 C1260 1.366 . S
C1259 C1261 1.388 . S
C1260 C1259 1.366 . S
C1260 C1264 1.385 . S
C1261 H1236 0.951 . S
C1261 C1259 1.388 . S
C1261 C1262 1.366 . S
C1262 C1261 1.366 . S
C1262 C1263 1.414 . S
C1262 C1265 1.499 . S
C1263 H1237 0.950 . S
C1263 C1262 1.414 . S
C1263 C1264 1.374 . S
C1264 H1238 0.950 . S
C1264 C1260 1.385 . S
C1264 C1263 1.374 . S
C1265 C1262 1.499 . S
C1265 C1266 1.373 . S
C1265 C1267 1.389 . S
C1266 H1239 0.950 . S
C1266 C1252 1.377 . S
C1266 C1265 1.373 . S
C1267 C1251 1.377 . S
C1267 C1265 1.389 . S
C1267 C1268 1.524 . S
C1268 C1267 1.524 . S
C1268 C1269 1.397 . S
C1268 C1273 1.363 . S
C1269 H1240 0.950 . S
C1269 C1268 1.397 . S
C1269 C1270 1.334 . S
C1270 H1241 0.950 . S
C1270 C1269 1.334 . S
C1270 C1271 1.287 . S
C1271 C1270 1.287 . S
C1271 C1272 1.524 . S
C1271 H1274 0.999 . S
C1272 H1242 0.950 . S
C1272 C1271 1.524 . S
C1272 C1273 1.415 . S
C1273 H1243 0.950 . S
C1273 C1268 1.363 . S
C1273 C1272 1.415 . S
H1274 C1271 0.999 . S
H1275 C1256 0.913 . S
H1276 C1294 0.951 . S
H1277 C1296 0.951 . S
H1278 C1298 0.950 . S
H1279 C1299 0.950 . S
H1280 C1301 0.950 . S
H1281 C1304 0.950 . S
H1282 C1305 0.950 . S
H1283 C1307 0.950 . S
H1284 C1308 0.950 . S
H1285 C1309 0.951 . S
H1286 C1311 0.951 . S
H1287 C1313 0.950 . S
H1288 C1314 0.950 . S
H1289 C1316 0.950 . S
H1290 C1319 0.950 . S
H1291 C1320 0.950 . S
H1292 C1322 0.950 . S
H1293 C1323 0.950 . S
C1294 H1276 0.951 . S
C1294 C1295 1.366 . S
C1294 C1296 1.388 . S
C1295 C1294 1.366 . S
C1295 C1299 1.385 . S
C1296 H1277 0.951 . S
C1296 C1294 1.388 . S
C1296 C1297 1.366 . S
C1297 C1296 1.366 . S
C1297 C1298 1.414 . S
C1297 C1300 1.499 . S
C1298 H1278 0.950 . S
C1298 C1297 1.414 . S
C1298 C1299 1.374 . S
C1299 H1279 0.950 . S
C1299 C1295 1.385 . S
C1299 C1298 1.374 . S
C1300 C1297 1.499 . S
C1300 C1301 1.373 . S
C1300 C1302 1.389 . S
C1301 H1280 0.950 . S
C1301 C1300 1.373 . S
C1301 C1317 1.377 . S
C1302 C1300 1.389 . S
C1302 C1303 1.524 . S
C1302 C1316 1.377 . S
C1303 C1302 1.524 . S
C1303 C1304 1.397 . S
C1303 C1308 1.363 . S
C1304 H1281 0.950 . S
C1304 C1303 1.397 . S
C1304 C1305 1.334 . S
C1305 H1282 0.950 . S
C1305 C1304 1.334 . S
C1305 C1306 1.287 . S
C1306 C1305 1.287 . S
C1306 C1307 1.524 . S
C1306 H1325 0.913 . S
C1307 H1283 0.950 . S
C1307 C1306 1.524 . S
C1307 C1308 1.415 . S
C1308 H1284 0.950 . S
C1308 C1303 1.363 . S
C1308 C1307 1.415 . S
C1309 H1285 0.951 . S
C1309 C1310 1.366 . S
C1309 C1311 1.388 . S
C1310 C1309 1.366 . S
C1310 C1314 1.385 . S
C1311 H1286 0.951 . S
C1311 C1309 1.388 . S
C1311 C1312 1.366 . S
C1312 C1311 1.366 . S
C1312 C1313 1.414 . S
C1312 C1315 1.499 . S
C1313 H1287 0.950 . S
C1313 C1312 1.414 . S
C1313 C1314 1.374 . S
C1314 H1288 0.950 . S
C1314 C1310 1.385 . S
C1314 C1313 1.374 . S
C1315 C1312 1.499 . S
C1315 C1316 1.373 . S
C1315 C1317 1.389 . S
C1316 H1289 0.950 . S
C1316 C1302 1.377 . S
C1316 C1315 1.373 . S
C1317 C1301 1.377 . S
C1317 C1315 1.389 . S
C1317 C1318 1.524 . S
C1318 C1317 1.524 . S
C1318 C1319 1.397 . S
C1318 C1323 1.363 . S
C1319 H1290 0.950 . S
C1319 C1318 1.397 . S
C1319 C1320 1.334 . S
C1320 H1291 0.950 . S
C1320 C1319 1.334 . S
C1320 C1321 1.287 . S
C1321 C1320 1.287 . S
C1321 C1322 1.524 . S
C1321 H1324 0.999 . S
C1322 H1292 0.950 . S
C1322 C1321 1.524 . S
C1322 C1323 1.415 . S
C1323 H1293 0.950 . S
C1323 C1318 1.363 . S
C1323 C1322 1.415 . S
H1324 C1321 0.999 . S
H1325 C1306 0.913 . S
H1326 C1344 0.951 . S
H1327 C1346 0.951 . S
H1328 C1348 0.950 . S
H1329 C1349 0.950 . S
H1330 C1351 0.950 . S
H1331 C1354 0.950 . S
H1332 C1355 0.950 . S
H1333 C1357 0.950 . S
H1334 C1358 0.950 . S
H1335 C1359 0.951 . S
H1336 C1361 0.951 . S
H1337 C1363 0.950 . S
H1338 C1364 0.950 . S
H1339 C1366 0.950 . S
H1340 C1369 0.950 . S
H1341 C1370 0.950 . S
H1342 C1372 0.950 . S
H1343 C1373 0.950 . S
C1344 H1326 0.951 . S
C1344 C1345 1.366 . S
C1344 C1346 1.388 . S
C1345 C1344 1.366 . S
C1345 C1349 1.385 . S
C1346 H1327 0.951 . S
C1346 C1344 1.388 . S
C1346 C1347 1.366 . S
C1347 C1346 1.366 . S
C1347 C1348 1.414 . S
C1347 C1350 1.499 . S
C1348 H1328 0.950 . S
C1348 C1347 1.414 . S
C1348 C1349 1.374 . S
C1349 H1329 0.950 . S
C1349 C1345 1.385 . S
C1349 C1348 1.374 . S
C1350 C1347 1.499 . S
C1350 C1351 1.373 . S
C1350 C1352 1.389 . S
C1351 H1330 0.950 . S
C1351 C1350 1.373 . S
C1351 C1367 1.377 . S
C1352 C1350 1.389 . S
C1352 C1353 1.524 . S
C1352 C1366 1.377 . S
C1353 C1352 1.524 . S
C1353 C1354 1.397 . S
C1353 C1358 1.363 . S
C1354 H1331 0.950 . S
C1354 C1353 1.397 . S
C1354 C1355 1.334 . S
C1355 H1332 0.950 . S
C1355 C1354 1.334 . S
C1355 C1356 1.287 . S
C1356 C1355 1.287 . S
C1356 C1357 1.524 . S
C1356 H1375 0.913 . S
C1357 H1333 0.950 . S
C1357 C1356 1.524 . S
C1357 C1358 1.415 . S
C1358 H1334 0.950 . S
C1358 C1353 1.363 . S
C1358 C1357 1.415 . S
C1359 H1335 0.951 . S
C1359 C1360 1.366 . S
C1359 C1361 1.388 . S
C1360 C1359 1.366 . S
C1360 C1364 1.385 . S
C1361 H1336 0.951 . S
C1361 C1359 1.388 . S
C1361 C1362 1.366 . S
C1362 C1361 1.366 . S
C1362 C1363 1.414 . S
C1362 C1365 1.499 . S
C1363 H1337 0.950 . S
C1363 C1362 1.414 . S
C1363 C1364 1.374 . S
C1364 H1338 0.950 . S
C1364 C1360 1.385 . S
C1364 C1363 1.374 . S
C1365 C1362 1.499 . S
C1365 C1366 1.373 . S
C1365 C1367 1.389 . S
C1366 H1339 0.950 . S
C1366 C1352 1.377 . S
C1366 C1365 1.373 . S
C1367 C1351 1.377 . S
C1367 C1365 1.389 . S
C1367 C1368 1.524 . S
C1368 C1367 1.524 . S
C1368 C1369 1.397 . S
C1368 C1373 1.363 . S
C1369 H1340 0.950 . S
C1369 C1368 1.397 . S
C1369 C1370 1.334 . S
C1370 H1341 0.950 . S
C1370 C1369 1.334 . S
C1370 C1371 1.287 . S
C1371 C1370 1.287 . S
C1371 C1372 1.524 . S
C1371 H1374 0.999 . S
C1372 H1342 0.950 . S
C1372 C1371 1.524 . S
C1372 C1373 1.415 . S
C1373 H1343 0.950 . S
C1373 C1368 1.363 . S
C1373 C1372 1.415 . S
H1374 C1371 0.999 . S
H1375 C1356 0.913 . S
C195 C10 1.551 . S
C210 C131 1.543 . S
C260 C95 1.545 . S
C245 C21 1.553 . S
C310 C118 1.621 . S
C295 C32 1.614 . S
C360 C106 1.484 . S
C345 C43 1.481 . S
C410 C175 1.542 . S
C395 C54 1.551 . S
C460 C139 1.545 . S
C445 C65 1.552 . S
C495 C76 1.614 . S
C510 C162 1.621 . S
C560 C150 1.483 . S
C545 C87 1.481 . S
C595 C5 1.498 . S
C610 C172 1.530 . S
C660 C142 1.508 . S
C645 C16 1.477 . S
C695 C27 1.586 . S
C710 C161 1.607 . S
C745 C37 1.447 . S
C760 C147 1.455 . S
C810 C128 1.530 . S
C795 C49 1.499 . S
C845 C60 1.477 . S
C860 C98 1.508 . S
C910 C117 1.607 . S
C895 C71 1.586 . S
C960 C103 1.455 . S
C945 C81 1.448 . S
C1010 C153 1.532 . S
C995 C4 1.528 . S
C1060 C169 1.515 . S
C1045 C15 1.509 . S
C1095 C26 1.493 . S
C1110 C140 1.499 . S
C1160 C164 1.485 . S
C1145 C38 1.454 . S
C1210 C109 1.532 . S
C1195 C48 1.528 . S
C1245 C59 1.509 . S
C1260 C125 1.515 . S
C1295 C70 1.493 . S
C1310 C96 1.499 . S
C1345 C82 1.455 . S
C1360 C120 1.485 . S
