# Generated by pormake.
# Topology bpr, (3,3)-cn, num edge types: 1
# Building blocks:
#     Node 0, Type 0, BuildingBlock: WUSLED_clean_sbu_0, # of connection points: 3
#     Node 1, Type 0, BuildingBlock: WUSLED_clean_sbu_0, # of connection points: 3
#     Node 2, Type 0, BuildingBlock: WUSLED_clean_sbu_0, # of connection points: 3
#     Node 3, Type 0, BuildingBlock: WUSLED_clean_sbu_0, # of connection points: 3
#     Node 4, Type 0, BuildingBlock: WUSLED_clean_sbu_0, # of connection points: 3
#     Node 5, Type 0, BuildingBlock: WUSLED_clean_sbu_0, # of connection points: 3
#     Node 6, Type 0, BuildingBlock: WUSLED_clean_sbu_0, # of connection points: 3
#     Node 7, Type 0, BuildingBlock: WUSLED_clean_sbu_0, # of connection points: 3
#     Node 8, Type 0, BuildingBlock: WUSLED_clean_sbu_0, # of connection points: 3
#     Node 9, Type 0, BuildingBlock: WUSLED_clean_sbu_0, # of connection points: 3
#     Node 10, Type 0, BuildingBlock: WUSLED_clean_sbu_0, # of connection points: 3
#     Node 11, Type 0, BuildingBlock: WUSLED_clean_sbu_0, # of connection points: 3
#     Node 12, Type 0, BuildingBlock: WUSLED_clean_sbu_0, # of connection points: 3
#     Node 13, Type 0, BuildingBlock: WUSLED_clean_sbu_0, # of connection points: 3
#     Node 14, Type 0, BuildingBlock: WUSLED_clean_sbu_0, # of connection points: 3
#     Node 15, Type 0, BuildingBlock: WUSLED_clean_sbu_0, # of connection points: 3
#     Node 16, Type 0, BuildingBlock: WUSLED_clean_sbu_0, # of connection points: 3
#     Node 17, Type 0, BuildingBlock: WUSLED_clean_sbu_0, # of connection points: 3
#     Node 18, Type 0, BuildingBlock: WUSLED_clean_sbu_0, # of connection points: 3
#     Node 19, Type 0, BuildingBlock: WUSLED_clean_sbu_0, # of connection points: 3
#     Node 20, Type 0, BuildingBlock: WUSLED_clean_sbu_0, # of connection points: 3
#     Node 21, Type 0, BuildingBlock: WUSLED_clean_sbu_0, # of connection points: 3
#     Node 22, Type 0, BuildingBlock: WUSLED_clean_sbu_0, # of connection points: 3
#     Node 23, Type 0, BuildingBlock: WUSLED_clean_sbu_0, # of connection points: 3
#     Node 24, Type 0, BuildingBlock: WUSLED_clean_sbu_0, # of connection points: 3
#     Node 25, Type 0, BuildingBlock: WUSLED_clean_sbu_0, # of connection points: 3
#     Node 26, Type 0, BuildingBlock: WUSLED_clean_sbu_0, # of connection points: 3
#     Node 27, Type 0, BuildingBlock: WUSLED_clean_sbu_0, # of connection points: 3
#     Node 28, Type 0, BuildingBlock: WUSLED_clean_sbu_0, # of connection points: 3
#     Node 29, Type 0, BuildingBlock: WUSLED_clean_sbu_0, # of connection points: 3
#     Node 30, Type 0, BuildingBlock: WUSLED_clean_sbu_0, # of connection points: 3
#     Node 31, Type 0, BuildingBlock: WUSLED_clean_sbu_0, # of connection points: 3
#     Node 32, Type 0, BuildingBlock: WUSLED_clean_sbu_0, # of connection points: 3
#     Node 33, Type 0, BuildingBlock: WUSLED_clean_sbu_0, # of connection points: 3
#     Node 34, Type 0, BuildingBlock: WUSLED_clean_sbu_0, # of connection points: 3
#     Node 35, Type 0, BuildingBlock: WUSLED_clean_sbu_0, # of connection points: 3
#     Node 36, Type 0, BuildingBlock: WUSLED_clean_sbu_0, # of connection points: 3
#     Node 37, Type 0, BuildingBlock: WUSLED_clean_sbu_0, # of connection points: 3
#     Node 38, Type 0, BuildingBlock: WUSLED_clean_sbu_0, # of connection points: 3
#     Node 39, Type 0, BuildingBlock: WUSLED_clean_sbu_0, # of connection points: 3
#     Node 40, Type 0, BuildingBlock: WUSLED_clean_sbu_0, # of connection points: 3
#     Node 41, Type 0, BuildingBlock: WUSLED_clean_sbu_0, # of connection points: 3
#     Node 42, Type 0, BuildingBlock: WUSLED_clean_sbu_0, # of connection points: 3
#     Node 43, Type 0, BuildingBlock: WUSLED_clean_sbu_0, # of connection points: 3
#     Node 44, Type 0, BuildingBlock: WUSLED_clean_sbu_0, # of connection points: 3
#     Node 45, Type 0, BuildingBlock: WUSLED_clean_sbu_0, # of connection points: 3
#     Node 46, Type 0, BuildingBlock: WUSLED_clean_sbu_0, # of connection points: 3
#     Node 47, Type 0, BuildingBlock: WUSLED_clean_sbu_0, # of connection points: 3
#     Node 48, Type 1, BuildingBlock: BETDIP_clean_linker_0, # of connection points: 3
#     Node 49, Type 1, BuildingBlock: BETDIP_clean_linker_0, # of connection points: 3
#     Node 50, Type 1, BuildingBlock: BETDIP_clean_linker_0, # of connection points: 3
#     Node 51, Type 1, BuildingBlock: BETDIP_clean_linker_0, # of connection points: 3
#     Node 52, Type 1, BuildingBlock: BETDIP_clean_linker_0, # of connection points: 3
#     Node 53, Type 1, BuildingBlock: BETDIP_clean_linker_0, # of connection points: 3
#     Node 54, Type 1, BuildingBlock: BETDIP_clean_linker_0, # of connection points: 3
#     Node 55, Type 1, BuildingBlock: BETDIP_clean_linker_0, # of connection points: 3
#     Node 56, Type 1, BuildingBlock: BETDIP_clean_linker_0, # of connection points: 3
#     Node 57, Type 1, BuildingBlock: BETDIP_clean_linker_0, # of connection points: 3
#     Node 58, Type 1, BuildingBlock: BETDIP_clean_linker_0, # of connection points: 3
#     Node 59, Type 1, BuildingBlock: BETDIP_clean_linker_0, # of connection points: 3
#     Node 60, Type 1, BuildingBlock: BETDIP_clean_linker_0, # of connection points: 3
#     Node 61, Type 1, BuildingBlock: BETDIP_clean_linker_0, # of connection points: 3
#     Node 62, Type 1, BuildingBlock: BETDIP_clean_linker_0, # of connection points: 3
#     Node 63, Type 1, BuildingBlock: BETDIP_clean_linker_0, # of connection points: 3
#     Node 64, Type 1, BuildingBlock: BETDIP_clean_linker_0, # of connection points: 3
#     Node 65, Type 1, BuildingBlock: BETDIP_clean_linker_0, # of connection points: 3
#     Node 66, Type 1, BuildingBlock: BETDIP_clean_linker_0, # of connection points: 3
#     Node 67, Type 1, BuildingBlock: BETDIP_clean_linker_0, # of connection points: 3
#     Node 68, Type 1, BuildingBlock: BETDIP_clean_linker_0, # of connection points: 3
#     Node 69, Type 1, BuildingBlock: BETDIP_clean_linker_0, # of connection points: 3
#     Node 70, Type 1, BuildingBlock: BETDIP_clean_linker_0, # of connection points: 3
#     Node 71, Type 1, BuildingBlock: BETDIP_clean_linker_0, # of connection points: 3
#     Node 72, Type 1, BuildingBlock: BETDIP_clean_linker_0, # of connection points: 3
#     Node 73, Type 1, BuildingBlock: BETDIP_clean_linker_0, # of connection points: 3
#     Node 74, Type 1, BuildingBlock: BETDIP_clean_linker_0, # of connection points: 3
#     Node 75, Type 1, BuildingBlock: BETDIP_clean_linker_0, # of connection points: 3
#     Node 76, Type 1, BuildingBlock: BETDIP_clean_linker_0, # of connection points: 3
#     Node 77, Type 1, BuildingBlock: BETDIP_clean_linker_0, # of connection points: 3
#     Node 78, Type 1, BuildingBlock: BETDIP_clean_linker_0, # of connection points: 3
#     Node 79, Type 1, BuildingBlock: BETDIP_clean_linker_0, # of connection points: 3
#     Node 80, Type 1, BuildingBlock: BETDIP_clean_linker_0, # of connection points: 3
#     Node 81, Type 1, BuildingBlock: BETDIP_clean_linker_0, # of connection points: 3
#     Node 82, Type 1, BuildingBlock: BETDIP_clean_linker_0, # of connection points: 3
#     Node 83, Type 1, BuildingBlock: BETDIP_clean_linker_0, # of connection points: 3
#     Node 84, Type 1, BuildingBlock: BETDIP_clean_linker_0, # of connection points: 3
#     Node 85, Type 1, BuildingBlock: BETDIP_clean_linker_0, # of connection points: 3
#     Node 86, Type 1, BuildingBlock: BETDIP_clean_linker_0, # of connection points: 3
#     Node 87, Type 1, BuildingBlock: BETDIP_clean_linker_0, # of connection points: 3
#     Node 88, Type 1, BuildingBlock: BETDIP_clean_linker_0, # of connection points: 3
#     Node 89, Type 1, BuildingBlock: BETDIP_clean_linker_0, # of connection points: 3
#     Node 90, Type 1, BuildingBlock: BETDIP_clean_linker_0, # of connection points: 3
#     Node 91, Type 1, BuildingBlock: BETDIP_clean_linker_0, # of connection points: 3
#     Node 92, Type 1, BuildingBlock: BETDIP_clean_linker_0, # of connection points: 3
#     Node 93, Type 1, BuildingBlock: BETDIP_clean_linker_0, # of connection points: 3
#     Node 94, Type 1, BuildingBlock: BETDIP_clean_linker_0, # of connection points: 3
#     Node 95, Type 1, BuildingBlock: BETDIP_clean_linker_0, # of connection points: 3
#     Edge 96, Type (0, 1), BuildingBlock: ZUJKAS_clean_linker_0, # of connection points: 2
#     Edge 97, Type (0, 1), BuildingBlock: ZUJKAS_clean_linker_0, # of connection points: 2
#     Edge 98, Type (0, 1), BuildingBlock: ZUJKAS_clean_linker_0, # of connection points: 2
#     Edge 99, Type (0, 1), BuildingBlock: ZUJKAS_clean_linker_0, # of connection points: 2
#     Edge 100, Type (0, 1), BuildingBlock: ZUJKAS_clean_linker_0, # of connection points: 2
#     Edge 101, Type (0, 1), BuildingBlock: ZUJKAS_clean_linker_0, # of connection points: 2
#     Edge 102, Type (0, 1), BuildingBlock: ZUJKAS_clean_linker_0, # of connection points: 2
#     Edge 103, Type (0, 1), BuildingBlock: ZUJKAS_clean_linker_0, # of connection points: 2
#     Edge 104, Type (0, 1), BuildingBlock: ZUJKAS_clean_linker_0, # of connection points: 2
#     Edge 105, Type (0, 1), BuildingBlock: ZUJKAS_clean_linker_0, # of connection points: 2
#     Edge 106, Type (0, 1), BuildingBlock: ZUJKAS_clean_linker_0, # of connection points: 2
#     Edge 107, Type (0, 1), BuildingBlock: ZUJKAS_clean_linker_0, # of connection points: 2
#     Edge 108, Type (0, 1), BuildingBlock: ZUJKAS_clean_linker_0, # of connection points: 2
#     Edge 109, Type (0, 1), BuildingBlock: ZUJKAS_clean_linker_0, # of connection points: 2
#     Edge 110, Type (0, 1), BuildingBlock: ZUJKAS_clean_linker_0, # of connection points: 2
#     Edge 111, Type (0, 1), BuildingBlock: ZUJKAS_clean_linker_0, # of connection points: 2
#     Edge 112, Type (0, 1), BuildingBlock: ZUJKAS_clean_linker_0, # of connection points: 2
#     Edge 113, Type (0, 1), BuildingBlock: ZUJKAS_clean_linker_0, # of connection points: 2
#     Edge 114, Type (0, 1), BuildingBlock: ZUJKAS_clean_linker_0, # of connection points: 2
#     Edge 115, Type (0, 1), BuildingBlock: ZUJKAS_clean_linker_0, # of connection points: 2
#     Edge 116, Type (0, 1), BuildingBlock: ZUJKAS_clean_linker_0, # of connection points: 2
#     Edge 117, Type (0, 1), BuildingBlock: ZUJKAS_clean_linker_0, # of connection points: 2
#     Edge 118, Type (0, 1), BuildingBlock: ZUJKAS_clean_linker_0, # of connection points: 2
#     Edge 119, Type (0, 1), BuildingBlock: ZUJKAS_clean_linker_0, # of connection points: 2
#     Edge 120, Type (0, 1), BuildingBlock: ZUJKAS_clean_linker_0, # of connection points: 2
#     Edge 121, Type (0, 1), BuildingBlock: ZUJKAS_clean_linker_0, # of connection points: 2
#     Edge 122, Type (0, 1), BuildingBlock: ZUJKAS_clean_linker_0, # of connection points: 2
#     Edge 123, Type (0, 1), BuildingBlock: ZUJKAS_clean_linker_0, # of connection points: 2
#     Edge 124, Type (0, 1), BuildingBlock: ZUJKAS_clean_linker_0, # of connection points: 2
#     Edge 125, Type (0, 1), BuildingBlock: ZUJKAS_clean_linker_0, # of connection points: 2
#     Edge 126, Type (0, 1), BuildingBlock: ZUJKAS_clean_linker_0, # of connection points: 2
#     Edge 127, Type (0, 1), BuildingBlock: ZUJKAS_clean_linker_0, # of connection points: 2
#     Edge 128, Type (0, 1), BuildingBlock: ZUJKAS_clean_linker_0, # of connection points: 2
#     Edge 129, Type (0, 1), BuildingBlock: ZUJKAS_clean_linker_0, # of connection points: 2
#     Edge 130, Type (0, 1), BuildingBlock: ZUJKAS_clean_linker_0, # of connection points: 2
#     Edge 131, Type (0, 1), BuildingBlock: ZUJKAS_clean_linker_0, # of connection points: 2
#     Edge 132, Type (0, 1), BuildingBlock: ZUJKAS_clean_linker_0, # of connection points: 2
#     Edge 133, Type (0, 1), BuildingBlock: ZUJKAS_clean_linker_0, # of connection points: 2
#     Edge 134, Type (0, 1), BuildingBlock: ZUJKAS_clean_linker_0, # of connection points: 2
#     Edge 135, Type (0, 1), BuildingBlock: ZUJKAS_clean_linker_0, # of connection points: 2
#     Edge 136, Type (0, 1), BuildingBlock: ZUJKAS_clean_linker_0, # of connection points: 2
#     Edge 137, Type (0, 1), BuildingBlock: ZUJKAS_clean_linker_0, # of connection points: 2
#     Edge 138, Type (0, 1), BuildingBlock: ZUJKAS_clean_linker_0, # of connection points: 2
#     Edge 139, Type (0, 1), BuildingBlock: ZUJKAS_clean_linker_0, # of connection points: 2
#     Edge 140, Type (0, 1), BuildingBlock: ZUJKAS_clean_linker_0, # of connection points: 2
#     Edge 141, Type (0, 1), BuildingBlock: ZUJKAS_clean_linker_0, # of connection points: 2
#     Edge 142, Type (0, 1), BuildingBlock: ZUJKAS_clean_linker_0, # of connection points: 2
#     Edge 143, Type (0, 1), BuildingBlock: ZUJKAS_clean_linker_0, # of connection points: 2
#     Edge 144, Type (0, 1), BuildingBlock: ZUJKAS_clean_linker_0, # of connection points: 2
#     Edge 145, Type (0, 1), BuildingBlock: ZUJKAS_clean_linker_0, # of connection points: 2
#     Edge 146, Type (0, 1), BuildingBlock: ZUJKAS_clean_linker_0, # of connection points: 2
#     Edge 147, Type (0, 1), BuildingBlock: ZUJKAS_clean_linker_0, # of connection points: 2
#     Edge 148, Type (0, 1), BuildingBlock: ZUJKAS_clean_linker_0, # of connection points: 2
#     Edge 149, Type (0, 1), BuildingBlock: ZUJKAS_clean_linker_0, # of connection points: 2
#     Edge 150, Type (0, 1), BuildingBlock: ZUJKAS_clean_linker_0, # of connection points: 2
#     Edge 151, Type (0, 1), BuildingBlock: ZUJKAS_clean_linker_0, # of connection points: 2
#     Edge 152, Type (0, 1), BuildingBlock: ZUJKAS_clean_linker_0, # of connection points: 2
#     Edge 153, Type (0, 1), BuildingBlock: ZUJKAS_clean_linker_0, # of connection points: 2
#     Edge 154, Type (0, 1), BuildingBlock: ZUJKAS_clean_linker_0, # of connection points: 2
#     Edge 155, Type (0, 1), BuildingBlock: ZUJKAS_clean_linker_0, # of connection points: 2
#     Edge 156, Type (0, 1), BuildingBlock: ZUJKAS_clean_linker_0, # of connection points: 2
#     Edge 157, Type (0, 1), BuildingBlock: ZUJKAS_clean_linker_0, # of connection points: 2
#     Edge 158, Type (0, 1), BuildingBlock: ZUJKAS_clean_linker_0, # of connection points: 2
#     Edge 159, Type (0, 1), BuildingBlock: ZUJKAS_clean_linker_0, # of connection points: 2
#     Edge 160, Type (0, 1), BuildingBlock: ZUJKAS_clean_linker_0, # of connection points: 2
#     Edge 161, Type (0, 1), BuildingBlock: ZUJKAS_clean_linker_0, # of connection points: 2
#     Edge 162, Type (0, 1), BuildingBlock: ZUJKAS_clean_linker_0, # of connection points: 2
#     Edge 163, Type (0, 1), BuildingBlock: ZUJKAS_clean_linker_0, # of connection points: 2
#     Edge 164, Type (0, 1), BuildingBlock: ZUJKAS_clean_linker_0, # of connection points: 2
#     Edge 165, Type (0, 1), BuildingBlock: ZUJKAS_clean_linker_0, # of connection points: 2
#     Edge 166, Type (0, 1), BuildingBlock: ZUJKAS_clean_linker_0, # of connection points: 2
#     Edge 167, Type (0, 1), BuildingBlock: ZUJKAS_clean_linker_0, # of connection points: 2
#     Edge 168, Type (0, 1), BuildingBlock: ZUJKAS_clean_linker_0, # of connection points: 2
#     Edge 169, Type (0, 1), BuildingBlock: ZUJKAS_clean_linker_0, # of connection points: 2
#     Edge 170, Type (0, 1), BuildingBlock: ZUJKAS_clean_linker_0, # of connection points: 2
#     Edge 171, Type (0, 1), BuildingBlock: ZUJKAS_clean_linker_0, # of connection points: 2
#     Edge 172, Type (0, 1), BuildingBlock: ZUJKAS_clean_linker_0, # of connection points: 2
#     Edge 173, Type (0, 1), BuildingBlock: ZUJKAS_clean_linker_0, # of connection points: 2
#     Edge 174, Type (0, 1), BuildingBlock: ZUJKAS_clean_linker_0, # of connection points: 2
#     Edge 175, Type (0, 1), BuildingBlock: ZUJKAS_clean_linker_0, # of connection points: 2
#     Edge 176, Type (0, 1), BuildingBlock: ZUJKAS_clean_linker_0, # of connection points: 2
#     Edge 177, Type (0, 1), BuildingBlock: ZUJKAS_clean_linker_0, # of connection points: 2
#     Edge 178, Type (0, 1), BuildingBlock: ZUJKAS_clean_linker_0, # of connection points: 2
#     Edge 179, Type (0, 1), BuildingBlock: ZUJKAS_clean_linker_0, # of connection points: 2
#     Edge 180, Type (0, 1), BuildingBlock: ZUJKAS_clean_linker_0, # of connection points: 2
#     Edge 181, Type (0, 1), BuildingBlock: ZUJKAS_clean_linker_0, # of connection points: 2
#     Edge 182, Type (0, 1), BuildingBlock: ZUJKAS_clean_linker_0, # of connection points: 2
#     Edge 183, Type (0, 1), BuildingBlock: ZUJKAS_clean_linker_0, # of connection points: 2
#     Edge 184, Type (0, 1), BuildingBlock: ZUJKAS_clean_linker_0, # of connection points: 2
#     Edge 185, Type (0, 1), BuildingBlock: ZUJKAS_clean_linker_0, # of connection points: 2
#     Edge 186, Type (0, 1), BuildingBlock: ZUJKAS_clean_linker_0, # of connection points: 2
#     Edge 187, Type (0, 1), BuildingBlock: ZUJKAS_clean_linker_0, # of connection points: 2
#     Edge 188, Type (0, 1), BuildingBlock: ZUJKAS_clean_linker_0, # of connection points: 2
#     Edge 189, Type (0, 1), BuildingBlock: ZUJKAS_clean_linker_0, # of connection points: 2
#     Edge 190, Type (0, 1), BuildingBlock: ZUJKAS_clean_linker_0, # of connection points: 2
#     Edge 191, Type (0, 1), BuildingBlock: ZUJKAS_clean_linker_0, # of connection points: 2
#     Edge 192, Type (0, 1), BuildingBlock: ZUJKAS_clean_linker_0, # of connection points: 2
#     Edge 193, Type (0, 1), BuildingBlock: ZUJKAS_clean_linker_0, # of connection points: 2
#     Edge 194, Type (0, 1), BuildingBlock: ZUJKAS_clean_linker_0, # of connection points: 2
#     Edge 195, Type (0, 1), BuildingBlock: ZUJKAS_clean_linker_0, # of connection points: 2
#     Edge 196, Type (0, 1), BuildingBlock: ZUJKAS_clean_linker_0, # of connection points: 2
#     Edge 197, Type (0, 1), BuildingBlock: ZUJKAS_clean_linker_0, # of connection points: 2
#     Edge 198, Type (0, 1), BuildingBlock: ZUJKAS_clean_linker_0, # of connection points: 2
#     Edge 199, Type (0, 1), BuildingBlock: ZUJKAS_clean_linker_0, # of connection points: 2
#     Edge 200, Type (0, 1), BuildingBlock: ZUJKAS_clean_linker_0, # of connection points: 2
#     Edge 201, Type (0, 1), BuildingBlock: ZUJKAS_clean_linker_0, # of connection points: 2
#     Edge 202, Type (0, 1), BuildingBlock: ZUJKAS_clean_linker_0, # of connection points: 2
#     Edge 203, Type (0, 1), BuildingBlock: ZUJKAS_clean_linker_0, # of connection points: 2
#     Edge 204, Type (0, 1), BuildingBlock: ZUJKAS_clean_linker_0, # of connection points: 2
#     Edge 205, Type (0, 1), BuildingBlock: ZUJKAS_clean_linker_0, # of connection points: 2
#     Edge 206, Type (0, 1), BuildingBlock: ZUJKAS_clean_linker_0, # of connection points: 2
#     Edge 207, Type (0, 1), BuildingBlock: ZUJKAS_clean_linker_0, # of connection points: 2
#     Edge 208, Type (0, 1), BuildingBlock: ZUJKAS_clean_linker_0, # of connection points: 2
#     Edge 209, Type (0, 1), BuildingBlock: ZUJKAS_clean_linker_0, # of connection points: 2
#     Edge 210, Type (0, 1), BuildingBlock: ZUJKAS_clean_linker_0, # of connection points: 2
#     Edge 211, Type (0, 1), BuildingBlock: ZUJKAS_clean_linker_0, # of connection points: 2
#     Edge 212, Type (0, 1), BuildingBlock: ZUJKAS_clean_linker_0, # of connection points: 2
#     Edge 213, Type (0, 1), BuildingBlock: ZUJKAS_clean_linker_0, # of connection points: 2
#     Edge 214, Type (0, 1), BuildingBlock: ZUJKAS_clean_linker_0, # of connection points: 2
#     Edge 215, Type (0, 1), BuildingBlock: ZUJKAS_clean_linker_0, # of connection points: 2
#     Edge 216, Type (0, 1), BuildingBlock: ZUJKAS_clean_linker_0, # of connection points: 2
#     Edge 217, Type (0, 1), BuildingBlock: ZUJKAS_clean_linker_0, # of connection points: 2
#     Edge 218, Type (0, 1), BuildingBlock: ZUJKAS_clean_linker_0, # of connection points: 2
#     Edge 219, Type (0, 1), BuildingBlock: ZUJKAS_clean_linker_0, # of connection points: 2
#     Edge 220, Type (0, 1), BuildingBlock: ZUJKAS_clean_linker_0, # of connection points: 2
#     Edge 221, Type (0, 1), BuildingBlock: ZUJKAS_clean_linker_0, # of connection points: 2
#     Edge 222, Type (0, 1), BuildingBlock: ZUJKAS_clean_linker_0, # of connection points: 2
#     Edge 223, Type (0, 1), BuildingBlock: ZUJKAS_clean_linker_0, # of connection points: 2
#     Edge 224, Type (0, 1), BuildingBlock: ZUJKAS_clean_linker_0, # of connection points: 2
#     Edge 225, Type (0, 1), BuildingBlock: ZUJKAS_clean_linker_0, # of connection points: 2
#     Edge 226, Type (0, 1), BuildingBlock: ZUJKAS_clean_linker_0, # of connection points: 2
#     Edge 227, Type (0, 1), BuildingBlock: ZUJKAS_clean_linker_0, # of connection points: 2
#     Edge 228, Type (0, 1), BuildingBlock: ZUJKAS_clean_linker_0, # of connection points: 2
#     Edge 229, Type (0, 1), BuildingBlock: ZUJKAS_clean_linker_0, # of connection points: 2
#     Edge 230, Type (0, 1), BuildingBlock: ZUJKAS_clean_linker_0, # of connection points: 2
#     Edge 231, Type (0, 1), BuildingBlock: ZUJKAS_clean_linker_0, # of connection points: 2
#     Edge 232, Type (0, 1), BuildingBlock: ZUJKAS_clean_linker_0, # of connection points: 2
#     Edge 233, Type (0, 1), BuildingBlock: ZUJKAS_clean_linker_0, # of connection points: 2
#     Edge 234, Type (0, 1), BuildingBlock: ZUJKAS_clean_linker_0, # of connection points: 2
#     Edge 235, Type (0, 1), BuildingBlock: ZUJKAS_clean_linker_0, # of connection points: 2
#     Edge 236, Type (0, 1), BuildingBlock: ZUJKAS_clean_linker_0, # of connection points: 2
#     Edge 237, Type (0, 1), BuildingBlock: ZUJKAS_clean_linker_0, # of connection points: 2
#     Edge 238, Type (0, 1), BuildingBlock: ZUJKAS_clean_linker_0, # of connection points: 2
#     Edge 239, Type (0, 1), BuildingBlock: ZUJKAS_clean_linker_0, # of connection points: 2
# Relax obj value: 0.045
# Max RMSD: 0.117
# Mean RMSD: 0.055
data_MOF--net-bpr--node1-WUSLED_clean_sbu_0--node2-BETDIP_clean_linker_0--edge1-ZUJKAS_clean_linker_0
_symmetry_space_group_name_H-M    P1
_symmetry_Int_Tables_number       1
_symmetry_cell_setting            triclinic
loop_
_symmetry_equiv_pos_as_xyz
'x, y, z'
_cell_length_a     127.4214
_cell_length_b     131.57169
_cell_length_c     134.88886
_cell_angle_alpha  95.700901
_cell_angle_beta   93.334154
_cell_angle_gamma 97.534299
loop_
_atom_site_label
_atom_site_type_symbol
_atom_site_fract_x
_atom_site_fract_y
_atom_site_fract_z
_atom_type_partial_charge
C0 C 0.97712 0.38152 0.25337 0.0
C1 C 0.97673 0.38079 0.26365 0.0
C2 C 0.9609 0.38934 0.26393 0.0
C3 C 0.96871 0.38466 0.26888 0.0
C4 C 0.96132 0.39005 0.25361 0.0
C5 C 0.96937 0.38616 0.24837 0.0
U6 U 1.00169 0.36851 0.25398 0.0
O7 O 1.00712 0.3566 0.24359 0.0
O8 O 0.01691 0.3717 0.24725 0.0
C9 C 0.01565 0.36272 0.24179 0.0
C10 C 0.98567 0.37754 0.24796 0.0
C11 C 0.01793 0.36285 0.23122 0.0
C12 C 0.01863 0.37115 0.2159 0.0
C13 C 0.01565 0.37091 0.22572 0.0
C14 C 0.02589 0.35513 0.21691 0.0
C15 C 0.02387 0.36329 0.21141 0.0
C16 C 0.02296 0.35493 0.22671 0.0
C17 C 0.0116 0.36088 0.27905 0.0
C18 C 0.02923 0.35621 0.28215 0.0
C19 C 0.01632 0.35414 0.29456 0.0
C20 C 0.00889 0.35787 0.28834 0.0
C21 C 0.02663 0.35338 0.2916 0.0
C22 C 0.02177 0.3599 0.27592 0.0
C23 C 1.00387 0.36528 0.27283 0.0
O24 O 0.99521 0.38255 0.25055 0.0
O25 O 0.98539 0.36747 0.24723 0.0
O26 O 0.99807 0.35874 0.26603 0.0
O27 O 1.00746 0.37403 0.26948 0.0
H28 H 0.98269 0.37727 0.26764 0.0
H29 H 0.96874 0.38414 0.27684 0.0
H30 H 0.95538 0.39351 0.24955 0.0
H31 H 0.96956 0.38678 0.24043 0.0
H32 H 0.01686 0.37748 0.21183 0.0
H33 H 0.01172 0.37709 0.22905 0.0
H34 H 0.03003 0.34903 0.21374 0.0
H35 H 0.02481 0.34866 0.23085 0.0
H36 H 0.03712 0.35585 0.27968 0.0
H37 H 0.01399 0.35187 0.3017 0.0
H38 H 1.00105 0.35852 0.29083 0.0
H39 H 0.02399 0.36217 0.26874 0.0
C40 C 0.94213 0.82235 0.55435 0.0
C41 C 0.94193 0.82357 0.56479 0.0
C42 C 0.93793 0.80498 0.56494 0.0
C43 C 0.93989 0.81498 0.57003 0.0
C44 C 0.93827 0.80378 0.55447 0.0
C45 C 0.94034 0.81241 0.54923 0.0
U46 U 0.94291 0.85096 0.55464 0.0
O47 O 0.95342 0.86278 0.54813 0.0
O48 O 0.93627 0.86051 0.54406 0.0
C49 C 0.94563 0.86534 0.54251 0.0
C50 C 0.94368 0.83147 0.54886 0.0
C51 C 0.94769 0.86628 0.53202 0.0
C52 C 0.94868 0.85879 0.51495 0.0
C53 C 0.9471 0.85758 0.52498 0.0
C54 C 0.95162 0.87735 0.519 0.0
C55 C 0.95092 0.8687 0.51183 0.0
C56 C 0.95003 0.87613 0.52898 0.0
C57 C 0.93756 0.86571 0.57931 0.0
C58 C 0.93089 0.88223 0.58126 0.0
C59 C 0.93875 0.87555 0.59562 0.0
C60 C 0.94063 0.86684 0.58954 0.0
C61 C 0.93368 0.88326 0.5916 0.0
C62 C 0.93285 0.87354 0.57516 0.0
C63 C 0.939 0.85616 0.57319 0.0
O64 O 0.93512 0.8359 0.54747 0.0
O65 O 0.95218 0.83811 0.55188 0.0
O66 O 0.94863 0.85559 0.57039 0.0
O67 O 0.93153 0.85277 0.56606 0.0
H68 H 0.94325 0.8312 0.56887 0.0
H69 H 0.93986 0.81618 0.57809 0.0
H70 H 0.93669 0.79621 0.55031 0.0
H71 H 0.94039 0.81134 0.54116 0.0
H72 H 0.94817 0.85198 0.50963 0.0
H73 H 0.94532 0.8499 0.52723 0.0
H74 H 0.95313 0.8851 0.51685 0.0
H75 H 0.95047 0.88293 0.53432 0.0
H76 H 0.9269 0.88796 0.57792 0.0
H77 H 0.94121 0.87619 0.60351 0.0
H78 H 0.94435 0.86092 0.59285 0.0
H79 H 0.93048 0.87284 0.56725 0.0
C80 C 0.49073 0.636 0.73292 0.0
C81 C 0.4829 0.64253 0.73384 0.0
C82 C 0.47876 0.63998 0.71584 0.0
C83 C 0.47699 0.64452 0.72538 0.0
C84 C 0.48682 0.63364 0.71494 0.0
C85 C 0.49274 0.63165 0.72343 0.0
U86 U 0.49258 0.63618 0.76083 0.0
O87 O 0.49499 0.62405 0.77045 0.0
O88 O 0.50615 0.63844 0.77207 0.0
C89 C 0.50402 0.62905 0.77467 0.0
C90 C 0.49625 0.63321 0.74191 0.0
C91 C 0.51307 0.62311 0.77546 0.0
C92 C 0.52042 0.6069 0.7736 0.0
C93 C 0.51209 0.61259 0.77188 0.0
C94 C 0.53099 0.62219 0.78223 0.0
C95 C 0.52992 0.6116 0.77894 0.0
C96 C 0.52265 0.62786 0.78055 0.0
C97 C 0.47178 0.64889 0.77497 0.0
C98 C 0.47106 0.64919 0.79295 0.0
C99 C 0.45689 0.6549 0.78306 0.0
C100 C 0.46214 0.65288 0.77442 0.0
C101 C 0.46122 0.65294 0.7924 0.0
C102 C 0.47629 0.64714 0.78428 0.0
C103 C 0.47673 0.64609 0.76572 0.0
O104 O 0.50117 0.64102 0.74802 0.0
O105 O 0.49063 0.62628 0.74654 0.0
O106 O 0.47558 0.63616 0.76279 0.0
O107 O 0.48639 0.65074 0.765 0.0
H108 H 0.48122 0.64592 0.74113 0.0
H109 H 0.47096 0.64955 0.72632 0.0
H110 H 0.4883 0.62993 0.70773 0.0
H111 H 0.49871 0.62653 0.72262 0.0
H112 H 0.51927 0.59873 0.77106 0.0
H113 H 0.50479 0.60866 0.76797 0.0
H114 H 0.53826 0.6261 0.78622 0.0
H115 H 0.52362 0.63594 0.78343 0.0
H116 H 0.47454 0.64751 0.80002 0.0
H117 H 0.44939 0.6579 0.78241 0.0
H118 H 0.45857 0.65428 0.76728 0.0
H119 H 0.48372 0.644 0.78481 0.0
C120 C 0.61944 0.20896 0.05905 0.0
C121 C 0.62076 0.20942 0.06949 0.0
C122 C 0.6208 0.22802 0.07097 0.0
C123 C 0.62142 0.21885 0.07539 0.0
C124 C 0.61951 0.22751 0.06048 0.0
C125 C 0.61883 0.21805 0.05458 0.0
U126 U 0.62095 0.18048 0.05748 0.0
O127 O 0.61093 0.16719 0.04905 0.0
O128 O 0.62793 0.1701 0.04672 0.0
C129 C 0.61872 0.16455 0.04381 0.0
C130 C 0.6187 0.19901 0.05289 0.0
C131 C 0.61626 0.16262 0.03297 0.0
C132 C 0.61121 0.1684 0.01704 0.0
C133 C 0.61354 0.17045 0.02738 0.0
C134 C 0.61433 0.15071 0.01786 0.0
C135 C 0.61161 0.1585 0.01216 0.0
C136 C 0.61663 0.15276 0.02817 0.0
C137 C 0.62723 0.16909 0.08169 0.0
C138 C 0.63161 0.1517 0.08214 0.0
C139 C 0.62771 0.16149 0.09735 0.0
C140 C 0.62612 0.16978 0.09199 0.0
C141 C 0.63047 0.15236 0.09249 0.0
C142 C 0.62995 0.15999 0.07677 0.0
C143 C 0.62544 0.17787 0.07621 0.0
O144 O 0.62768 0.19515 0.05234 0.0
O145 O 0.61067 0.19217 0.05451 0.0
O146 O 0.6157 0.17768 0.07235 0.0
O147 O 0.6327 0.18062 0.07009 0.0
H148 H 0.62124 0.20246 0.07306 0.0
H149 H 0.62225 0.21892 0.08344 0.0
H150 H 0.61913 0.23444 0.05684 0.0
H151 H 0.61785 0.21782 0.04652 0.0
H152 H 0.60924 0.17458 0.01286 0.0
H153 H 0.61324 0.17812 0.031 0.0
H154 H 0.61455 0.14297 0.01437 0.0
H155 H 0.61868 0.14663 0.0324 0.0
H156 H 0.63363 0.14473 0.07819 0.0
H157 H 0.6269 0.16228 0.10533 0.0
H158 H 0.62402 0.17675 0.0959 0.0
H159 H 0.63077 0.15929 0.06879 0.0
C160 C 0.99599 0.62921 0.24429 0.0
C161 C 0.99448 0.63211 0.23464 0.0
C162 C 0.97647 0.62293 0.23299 0.0
C163 C 0.9848 0.62905 0.22907 0.0
C164 C 0.97801 0.62012 0.24273 0.0
C165 C 0.9877 0.62324 0.24832 0.0
U166 U 0.02544 0.63758 0.24439 0.0
O167 O 0.03648 0.64863 0.25468 0.0
O168 O 0.03903 0.63241 0.25224 0.0
C169 C 0.04198 0.64146 0.25738 0.0
C170 C 1.00636 0.63197 0.24995 0.0
C171 C 0.04404 0.64132 0.26819 0.0
C172 C 0.03932 0.63514 0.28395 0.0
C173 C 0.0369 0.63561 0.27376 0.0
C174 C 0.05586 0.64635 0.28313 0.0
C175 C 0.0489 0.6404 0.28872 0.0
C176 C 0.05345 0.64678 0.27296 0.0
C177 C 0.03694 0.64143 0.21932 0.0
C178 C 0.05585 0.64312 0.21706 0.0
C179 C 0.04346 0.64549 0.20344 0.0
C180 C 0.03503 0.64363 0.20949 0.0
C181 C 0.05396 0.64515 0.20711 0.0
C182 C 0.0474 0.64129 0.22312 0.0
C183 C 0.02793 0.639 0.22539 0.0
O184 O 0.01317 0.62545 0.24812 0.0
O185 O 0.01059 0.64167 0.25018 0.0
O186 O 0.02568 0.64668 0.23153 0.0
O187 O 0.0277 0.63031 0.22945 0.0
H188 H 1.00082 0.63668 0.23138 0.0
H189 H 0.98385 0.63149 0.22167 0.0
H190 H 0.97183 0.61531 0.24594 0.0
H191 H 0.98878 0.62086 0.25573 0.0
H192 H 0.03383 0.63042 0.28801 0.0
H193 H 0.02957 0.63137 0.2702 0.0
H194 H 0.06321 0.65065 0.2866 0.0
H195 H 0.05902 0.65128 0.26878 0.0
H196 H 0.06382 0.64271 0.2201 0.0
H197 H 0.04173 0.64722 0.19588 0.0
H198 H 0.027 0.64381 0.20646 0.0
H199 H 0.04901 0.63961 0.23072 0.0
C200 C 0.63096 0.77027 0.46804 0.0
C201 C 0.63714 0.77095 0.45979 0.0
C202 C 0.63566 0.75222 0.45705 0.0
C203 C 0.63951 0.76202 0.45438 0.0
C204 C 0.62956 0.75159 0.46541 0.0
C205 C 0.62723 0.76055 0.47085 0.0
U206 U 0.62788 0.79828 0.46802 0.0
O207 O 0.63158 0.81163 0.47938 0.0
O208 O 0.61519 0.80709 0.47292 0.0
C209 C 0.6216 0.8132 0.47962 0.0
C210 C 0.62795 0.77966 0.47334 0.0
C211 C 0.61759 0.81517 0.48957 0.0
C212 C 0.6191 0.815 0.50762 0.0
C213 C 0.6224 0.81201 0.49818 0.0
C214 C 0.60587 0.82397 0.49995 0.0
C215 C 0.61093 0.82119 0.50863 0.0
C216 C 0.60919 0.82101 0.49054 0.0
C217 C 0.63517 0.81089 0.44465 0.0
C218 C 0.63435 0.82906 0.44338 0.0
C219 C 0.63865 0.81807 0.4291 0.0
C220 C 0.63779 0.80967 0.4347 0.0
C221 C 0.63691 0.82786 0.43336 0.0
C222 C 0.63346 0.82062 0.44898 0.0
C223 C 0.63413 0.80193 0.45035 0.0
O224 O 0.63579 0.78719 0.47588 0.0
O225 O 0.61946 0.78281 0.46933 0.0
O226 O 0.62434 0.79817 0.45185 0.0
O227 O 0.64067 0.80265 0.45837 0.0
H228 H 0.64004 0.7784 0.45747 0.0
H229 H 0.64435 0.76281 0.44809 0.0
H230 H 0.62635 0.74418 0.4676 0.0
H231 H 0.62237 0.75989 0.47714 0.0
H232 H 0.62322 0.81279 0.51415 0.0
H233 H 0.62889 0.80748 0.49763 0.0
H234 H 0.59942 0.82856 0.50043 0.0
H235 H 0.60535 0.82351 0.484 0.0
H236 H 0.63285 0.83646 0.44684 0.0
H237 H 0.64077 0.81693 0.42145 0.0
H238 H 0.63915 0.8022 0.43127 0.0
H239 H 0.63139 0.82167 0.45665 0.0
C240 C 0.52497 0.42183 0.72989 0.0
C241 C 0.52367 0.42692 0.72133 0.0
C242 C 0.54284 0.43106 0.72101 0.0
C243 C 0.5325 0.43154 0.71697 0.0
C244 C 0.54409 0.42605 0.72968 0.0
C245 C 0.53523 0.42149 0.73407 0.0
U246 U 0.49707 0.40748 0.72641 0.0
O247 O 0.48978 0.39369 0.73272 0.0
O248 O 0.48328 0.40829 0.73536 0.0
C249 C 0.4829 0.39869 0.73737 0.0
C250 C 0.51574 0.41642 0.73418 0.0
C251 C 0.48192 0.39707 0.7479 0.0
C252 C 0.48895 0.39927 0.76523 0.0
C253 C 0.49027 0.40058 0.75518 0.0
C254 C 0.47098 0.39086 0.76074 0.0
C255 C 0.47923 0.39449 0.76813 0.0
C256 C 0.47232 0.39215 0.75073 0.0
C257 C 0.48277 0.4032 0.70062 0.0
C258 C 0.46547 0.39277 0.69775 0.0
C259 C 0.47258 0.40254 0.68475 0.0
C260 C 0.48173 0.4062 0.69098 0.0
C261 C 0.46433 0.3958 0.68808 0.0
C262 C 0.4746 0.39647 0.70398 0.0
C263 C 0.49226 0.40732 0.70722 0.0
O264 O 0.50721 0.42107 0.73419 0.0
O265 O 0.51367 0.40649 0.73126 0.0
O266 O 0.49736 0.40037 0.71099 0.0
O267 O 0.49105 0.41503 0.71383 0.0
H268 H 0.51581 0.42721 0.71793 0.0
H269 H 0.53122 0.43545 0.71041 0.0
H270 H 0.55192 0.42538 0.73291 0.0
H271 H 0.53639 0.41752 0.74063 0.0
H272 H 0.49542 0.40222 0.77075 0.0
H273 H 0.49774 0.40442 0.75309 0.0
H274 H 0.46346 0.38701 0.76271 0.0
H275 H 0.4658 0.38937 0.74519 0.0
H276 H 0.45921 0.3877 0.70058 0.0
H277 H 0.47198 0.40493 0.67731 0.0
H278 H 0.48797 0.41141 0.68828 0.0
H279 H 0.47525 0.39414 0.71145 0.0
C280 C 0.86679 0.20582 0.00774 0.0
C281 C 0.86819 0.1954 0.00748 0.0
C282 C 0.87347 0.19775 0.02528 0.0
C283 C 0.87148 0.1914 0.01616 0.0
C284 C 0.872 0.20819 0.02551 0.0
C285 C 0.86869 0.21219 0.01679 0.0
U286 U 0.86025 0.20142 0.98002 0.0
O287 O 0.84768 0.20626 0.97034 0.0
O288 O 0.86449 0.21068 0.96783 0.0
C289 C 0.85456 0.21163 0.96531 0.0
C290 C 0.86349 0.20998 0.99852 0.0
C291 C 0.85232 0.22201 0.96338 0.0
C292 C 0.85792 0.2404 0.96332 0.0
C293 C 0.85958 0.2309 0.9665 0.0
C294 C 0.84145 0.23238 0.95431 0.0
C295 C 0.84897 0.2412 0.95697 0.0
C296 C 0.84314 0.22289 0.95745 0.0
C297 C 0.86231 0.17501 0.9668 0.0
C298 C 0.85732 0.17099 0.94906 0.0
C299 C 0.86622 0.1591 0.95802 0.0
C300 C 0.86654 0.16571 0.96684 0.0
C301 C 0.86163 0.16167 0.94903 0.0
C302 C 0.85769 0.17762 0.95787 0.0
C303 C 0.86306 0.18208 0.97602 0.0
O304 O 0.87074 0.21078 0.992 0.0
O305 O 0.85405 0.2059 0.99446 0.0
O306 O 0.85405 0.1849 0.97877 0.0
O307 O 0.87082 0.1898 0.97665 0.0
H308 H 0.86674 0.19037 1.00054 0.0
H309 H 0.87236 0.1833 0.01574 0.0
H310 H 0.87356 0.2133 0.03239 0.0
H311 H 0.86768 0.22027 0.01711 0.0
H312 H 0.86391 0.24702 0.96545 0.0
H313 H 0.86674 0.23045 0.97109 0.0
H314 H 0.83437 0.23275 0.94959 0.0
H315 H 0.83742 0.21614 0.95497 0.0
H316 H 0.85385 0.17325 0.94223 0.0
H317 H 0.8695 0.15193 0.95826 0.0
H318 H 0.87016 0.16361 0.97368 0.0
H319 H 0.85447 0.18483 0.95771 0.0
C320 C 0.256 0.9944 0.35908 0.0
C321 C 0.25635 1.00491 0.35795 0.0
C322 C 0.23713 1.0027 0.3549 0.0
C323 C 0.247 0.00903 0.3559 0.0
C324 C 0.23684 0.9921 0.35586 0.0
C325 C 0.24622 0.98799 0.35796 0.0
U326 U 0.28568 0.99893 0.36349 0.0
O327 O 0.29645 0.99448 0.37514 0.0
O328 O 0.29813 0.98956 0.35933 0.0
C329 C 0.30137 0.98902 0.36867 0.0
C330 C 0.26585 0.99023 0.36161 0.0
C331 C 0.3031 0.97876 0.37124 0.0
C332 C 0.2969 0.96069 0.37248 0.0
C333 C 0.29486 0.97045 0.37023 0.0
C334 C 0.31536 0.96756 0.37687 0.0
C335 C 0.30722 0.95912 0.37572 0.0
C336 C 0.31331 0.97727 0.37464 0.0
C337 C 0.29988 0.02558 0.36063 0.0
C338 C 0.31869 0.03022 0.36542 0.0
C339 C 0.309 0.04213 0.35728 0.0
C340 C 0.29972 0.03507 0.35679 0.0
C341 C 0.31857 0.03981 0.36166 0.0
C342 C 0.30942 0.02315 0.36488 0.0
C343 C 0.29006 0.0183 0.36021 0.0
O344 O 0.27228 0.98959 0.35436 0.0
O345 O 0.27077 0.99422 0.37024 0.0
O346 O 0.28731 0.01542 0.36885 0.0
O347 O 0.28916 0.0106 0.35309 0.0
H348 H 0.26385 0.00996 0.35874 0.0
H349 H 0.24751 0.01718 0.35505 0.0
H350 H 0.22936 0.98705 0.35521 0.0
H351 H 0.24583 0.97985 0.35882 0.0
H352 H 0.29048 0.95433 0.37147 0.0
H353 H 0.28691 0.9715 0.36762 0.0
H354 H 0.32334 0.96667 0.37953 0.0
H355 H 0.31975 0.98363 0.37551 0.0
H356 H 0.32597 0.02816 0.36873 0.0
H357 H 0.30862 0.04949 0.35443 0.0
H358 H 0.29241 0.03705 0.35348 0.0
H359 H 0.30968 0.01581 0.36782 0.0
C360 C 0.1905 0.97978 0.64794 0.0
C361 C 0.18025 0.97666 0.64338 0.0
C362 C 0.18051 0.95941 0.64841 0.0
C363 C 0.17531 0.96655 0.64358 0.0
C364 C 0.19079 0.96259 0.65296 0.0
C365 C 0.19574 0.97269 0.65271 0.0
U366 U 0.18879 0.00786 0.64478 0.0
O367 O 0.19695 0.02206 0.65346 0.0
O368 O 0.19899 0.01915 0.63742 0.0
C369 C 0.202 0.02506 0.64581 0.0
C370 C 0.19566 0.99044 0.64797 0.0
C371 C 0.21349 0.02829 0.64773 0.0
C372 C 0.23174 0.02498 0.64665 0.0
C373 C 0.22084 0.02151 0.64533 0.0
C374 C 0.22805 0.0419 0.65313 0.0
C375 C 0.23546 0.03525 0.65047 0.0
C376 C 0.21717 0.03845 0.65175 0.0
C377 C 0.16213 0.01635 0.63824 0.0
C378 C 0.16074 0.03319 0.63277 0.0
C379 C 0.14505 0.02261 0.63723 0.0
C380 C 0.1512 0.01494 0.63937 0.0
C381 C 0.14975 0.03181 0.63386 0.0
C382 C 0.16689 0.02555 0.63498 0.0
C383 C 0.16851 0.00823 0.64053 0.0
O384 O 0.19562 0.99407 0.63923 0.0
O385 O 0.19321 0.997 0.65518 0.0
O386 O 0.17279 0.00911 0.64972 0.0
O387 O 0.17508 1.00584 0.63378 0.0
H388 H 0.17603 0.98207 0.63974 0.0
H389 H 0.16733 0.96438 0.64013 0.0
H390 H 0.19503 0.95725 0.65667 0.0
H391 H 0.20365 0.97498 0.65628 0.0
H392 H 0.23726 0.01966 0.64463 0.0
H393 H 0.21815 0.0136 0.6423 0.0
H394 H 0.23066 0.04988 0.65597 0.0
H395 H 0.21161 0.04378 0.65364 0.0
H396 H 0.16461 0.04025 0.63032 0.0
H397 H 0.13659 0.02129 0.63806 0.0
H398 H 0.14741 0.00789 0.6419 0.0
H399 H 0.17536 0.02681 0.63416 0.0
C400 C 0.22275 0.01909 0.88532 0.0
C401 C 0.21292 0.01928 0.88947 0.0
C402 C 0.21291 0.03713 0.88614 0.0
C403 C 0.20806 0.02821 0.88989 0.0
C404 C 0.22286 0.03695 0.88213 0.0
C405 C 0.22773 0.02799 0.88171 0.0
U406 U 0.22033 0.99084 0.88839 0.0
O407 O 0.22428 0.97763 0.87872 0.0
O408 O 0.23166 0.98114 0.89401 0.0
C409 C 0.23128 0.97538 0.88542 0.0
C410 C 0.22753 0.0095 0.88446 0.0
C411 C 0.24158 0.97353 0.88179 0.0
C412 C 0.25801 0.9792 0.87442 0.0
C413 C 0.24821 0.98123 0.87779 0.0
C414 C 0.25455 0.9618 0.87904 0.0
C415 C 0.26131 0.96947 0.87506 0.0
C416 C 0.24479 0.96382 0.88237 0.0
C417 C 0.19468 0.97868 0.89827 0.0
C418 C 0.18982 0.96017 0.89796 0.0
C419 C 0.17908 0.97185 0.90625 0.0
C420 C 0.18591 0.98026 0.90373 0.0
C421 C 0.1809 0.96171 0.90331 0.0
C422 C 0.19668 0.9686 0.89549 0.0
C423 C 0.20152 0.98762 0.89537 0.0
O424 O 0.22984 1.00596 0.89299 0.0
O425 O 0.2227 1.00231 0.87765 0.0
O426 O 0.20299 0.98739 0.8858 0.0
O427 O 0.21027 0.99067 0.90112 0.0
H428 H 0.20897 0.01247 0.89229 0.0
H429 H 0.20049 0.02812 0.89316 0.0
H430 H 0.22676 0.04366 0.8791 0.0
H431 H 0.23529 0.02795 0.87845 0.0
H432 H 0.26306 0.98529 0.87147 0.0
H433 H 0.24583 0.98878 0.87731 0.0
H434 H 0.25676 0.95418 0.87949 0.0
H435 H 0.23974 0.95779 0.8854 0.0
H436 H 0.1915 0.95245 0.89569 0.0
H437 H 0.17221 0.9733 0.91027 0.0
H438 H 0.18426 0.98801 0.90593 0.0
H439 H 0.20347 0.96725 0.89131 0.0
C440 C 0.2825 0.02168 0.12602 0.0
C441 C 0.28245 0.01195 0.12942 0.0
C442 C 0.26359 0.01098 0.13185 0.0
C443 C 0.27311 1.00667 0.13233 0.0
C444 C 0.26368 0.0208 0.1285 0.0
C445 C 0.27308 0.0261 0.12559 0.0
U446 U 0.31084 0.0206 0.12079 0.0
O447 O 0.32045 0.02603 0.1088 0.0
O448 O 0.32544 0.03148 0.1245 0.0
C449 C 0.3272 0.0323 0.11509 0.0
C450 C 0.29238 0.02702 0.12281 0.0
C451 C 0.32984 0.04286 0.11246 0.0
C452 C 0.32739 0.06094 0.11401 0.0
C453 C 0.32407 0.05076 0.11581 0.0
C454 C 0.34199 0.05534 0.10517 0.0
C455 C 0.3365 0.06337 0.10881 0.0
C456 C 0.33869 0.04519 0.107 0.0
C457 C 0.32127 0.99533 0.12514 0.0
C458 C 0.33936 0.9924 0.12243 0.0
C459 C 0.32735 0.97944 0.12922 0.0
C460 C 0.31933 0.98569 0.12874 0.0
C461 C 0.33747 0.98273 0.1261 0.0
C462 C 0.33132 0.99867 0.12197 0.0
C463 C 0.31278 1.00184 0.12494 0.0
O464 O 0.30025 0.02904 0.12977 0.0
O465 O 0.29527 0.02307 0.11422 0.0
O466 O 0.30949 1.00397 0.11606 0.0
O467 O 0.31406 0.00988 0.13172 0.0
H468 H 0.28967 0.00842 0.12981 0.0
H469 H 0.27338 0.99922 0.13504 0.0
H470 H 0.25647 0.0243 0.12796 0.0
H471 H 0.27298 0.0336 0.12294 0.0
H472 H 0.32292 0.06694 0.11682 0.0
H473 H 0.31717 0.04909 0.12001 0.0
H474 H 0.34911 0.05695 0.10126 0.0
H475 H 0.34325 0.03918 0.10438 0.0
H476 H 0.34709 0.99518 0.12005 0.0
H477 H 0.32558 0.97197 0.13193 0.0
H478 H 0.31161 0.98301 0.1312 0.0
H479 H 0.33294 1.00613 0.11921 0.0
C480 C 0.42929 0.2975 0.03261 0.0
C481 C 0.42879 0.29797 0.043 0.0
C482 C 0.42593 0.27922 0.04198 0.0
C483 C 0.42716 0.28893 0.04765 0.0
C484 C 0.42649 0.27879 0.03156 0.0
C485 C 0.42815 0.28787 0.02691 0.0
U486 U 0.42934 0.32619 0.03449 0.0
O487 O 0.4399 0.33866 0.02894 0.0
O488 O 0.42287 0.33624 0.02433 0.0
C489 C 0.43223 0.34138 0.02328 0.0
C490 C 0.43069 0.30705 0.02775 0.0
C491 C 0.43464 0.34298 0.013 0.0
C492 C 0.43669 0.33648 0.99582 0.0
C493 C 0.4348 0.33467 1.00567 0.0
C494 C 0.43841 0.35489 1.00064 0.0
C495 C 0.43847 0.34663 0.99319 0.0
C496 C 0.43652 0.35308 0.01044 0.0
C497 C 0.42303 0.33948 0.0594 0.0
C498 C 0.4237 0.35808 0.0624 0.0
C499 C 0.41684 0.34718 0.07468 0.0
C500 C 0.41868 0.33846 0.0686 0.0
C501 C 0.41933 0.35711 0.07166 0.0
C502 C 0.42552 0.34933 0.05631 0.0
C503 C 0.42469 0.3302 0.05304 0.0
O504 O 0.42201 0.31133 0.02649 0.0
O505 O 0.43899 0.31373 0.03127 0.0
O506 O 0.43443 0.32987 0.05045 0.0
O507 O 0.41747 0.32723 0.04561 0.0
H508 H 0.42963 0.30536 0.04752 0.0
H509 H 0.42695 0.28956 0.0557 0.0
H510 H 0.42546 0.27145 0.02696 0.0
H511 H 0.42845 0.28737 0.01887 0.0
H512 H 0.43677 0.32995 0.99027 0.0
H513 H 0.43337 0.32681 0.00754 0.0
H514 H 0.43956 0.36279 0.99886 0.0
H515 H 0.43637 0.35958 0.01601 0.0
H516 H 0.42581 0.3656 0.05989 0.0
H517 H 0.41329 0.34613 0.08167 0.0
H518 H 0.41664 0.3309 0.07106 0.0
H519 H 0.42886 0.35023 0.04919 0.0
C520 C 0.03453 0.91503 0.24254 0.0
C521 C 0.0341 0.91556 0.23219 0.0
C522 C 0.05288 0.92242 0.23331 0.0
C523 C 0.04318 0.91924 0.22763 0.0
C524 C 0.05322 0.92202 0.24372 0.0
C525 C 0.0441 0.91834 0.24829 0.0
U526 U 1.0063 0.9016 0.23995 0.0
O527 O 0.99839 0.88928 0.24793 0.0
O528 O 0.99246 0.90424 0.24833 0.0
C529 C 0.9918 0.8952 0.2518 0.0
C530 C 0.02508 0.91074 0.24725 0.0
C531 C 0.99108 0.89542 0.26264 0.0
C532 C 0.99764 0.9021 0.27961 0.0
C533 C 0.99873 0.9016 0.26932 0.0
C534 C 0.98141 0.89004 0.27662 0.0
C535 C 0.98891 0.8964 0.28337 0.0
C536 C 0.98249 0.88957 0.26634 0.0
C537 C 0.99256 0.89458 0.21392 0.0
C538 C 0.97459 0.8855 0.21142 0.0
C539 C 0.9833 0.8922 0.19745 0.0
C540 C 0.99236 0.89596 0.20376 0.0
C541 C 0.97428 0.88698 0.20123 0.0
C542 C 0.98365 0.8893 0.21773 0.0
C543 C 1.00195 0.89899 0.22053 0.0
O544 O 0.01681 0.91566 0.24621 0.0
O545 O 0.02266 0.90067 0.24557 0.0
O546 O 1.00649 0.89239 0.22544 0.0
O547 O 1.00093 0.90752 0.22612 0.0
H548 H 0.02675 0.91304 0.22765 0.0
H549 H 0.04261 0.91959 0.21963 0.0
H550 H 0.06058 0.9243 0.24829 0.0
H551 H 0.04455 0.91794 0.25628 0.0
H552 H 1.0036 0.90699 0.28462 0.0
H553 H 1.00546 0.90612 0.26657 0.0
H554 H 0.97452 0.88566 0.27926 0.0
H555 H 0.97651 0.88477 0.26127 0.0
H556 H 0.96774 0.88163 0.21458 0.0
H557 H 0.98336 0.89336 0.18962 0.0
H558 H 0.99918 0.90003 0.20071 0.0
H559 H 0.98366 0.88824 0.22559 0.0
C560 C 0.09947 0.7104 0.57106 0.0
C561 C 0.10218 0.71095 0.58134 0.0
C562 C 0.10136 0.72943 0.58311 0.0
C563 C 0.10313 0.72037 0.58732 0.0
C564 C 0.09866 0.72882 0.57278 0.0
C565 C 0.09772 0.71937 0.5668 0.0
U566 U 0.09983 0.68165 0.56907 0.0
O567 O 0.08953 0.66879 0.56018 0.0
O568 O 0.10668 0.67114 0.55837 0.0
C569 C 0.09738 0.6659 0.5552 0.0
C570 C 0.09842 0.70046 0.56481 0.0
C571 C 0.09524 0.66365 0.54431 0.0
C572 C 0.09767 0.66782 0.52736 0.0
C573 C 0.09918 0.67058 0.53769 0.0
C574 C 0.08798 0.65137 0.53018 0.0
C575 C 0.09219 0.65811 0.52349 0.0
C576 C 0.08951 0.65412 0.54048 0.0
C577 C 0.10512 0.66911 0.59273 0.0
C578 C 0.11067 0.65214 0.59282 0.0
C579 C 0.10334 0.65994 0.60742 0.0
C580 C 0.1021 0.66862 0.60251 0.0
C581 C 0.10769 0.65163 0.60265 0.0
C582 C 0.10933 0.66078 0.58787 0.0
C583 C 0.10373 0.67831 0.58768 0.0
O584 O 0.10721 0.69625 0.56428 0.0
O585 O 0.09013 0.69386 0.56628 0.0
O586 O 0.09411 0.67856 0.58373 0.0
O587 O 0.11122 0.68122 0.58184 0.0
H588 H 0.10358 0.70408 0.58475 0.0
H589 H 0.10536 0.72058 0.59521 0.0
H590 H 0.09713 0.73561 0.56932 0.0
H591 H 0.09559 0.71906 0.55887 0.0
H592 H 0.10107 0.67316 0.52241 0.0
H593 H 0.1036 0.67801 0.5405 0.0
H594 H 0.08354 0.64393 0.52747 0.0
H595 H 0.08637 0.6487 0.54548 0.0
H596 H 0.11394 0.6458 0.58892 0.0
H597 H 0.10106 0.65981 0.61503 0.0
H598 H 0.0988 0.67496 0.60636 0.0
H599 H 0.1116 0.66096 0.58027 0.0
C600 C 0.99758 0.64373 0.78396 0.0
C601 C 0.98868 0.64894 0.78462 0.0
C602 C 0.98591 0.64338 0.80107 0.0
C603 C 0.9829 0.64878 0.79311 0.0
C604 C 0.99498 0.63834 0.80043 0.0
C605 C 1.00075 0.63852 0.79193 0.0
U606 U 1.00068 0.6503 0.75743 0.0
O607 O 0.01504 0.65468 0.74962 0.0
O608 O 1.00406 0.64071 0.74406 0.0
C609 C 0.01325 0.6463 0.74326 0.0
C610 C 1.0033 0.64333 0.77483 0.0
C611 C 0.02229 0.64052 0.7419 0.0
C612 C 0.03144 0.62582 0.74458 0.0
C613 C 0.0232 0.6316 0.74662 0.0
C614 C 0.03818 0.63805 0.7334 0.0
C615 C 0.03893 0.62889 0.73781 0.0
C616 C 0.02992 0.64378 0.73541 0.0
C617 C 0.98126 0.66535 0.74499 0.0
C618 C 0.98185 0.66736 0.72732 0.0
C619 C 0.9684 0.67443 0.73682 0.0
C620 C 0.97253 0.67079 0.74542 0.0
C621 C 0.97293 0.67263 0.72764 0.0
C622 C 0.98598 0.66376 0.73593 0.0
C623 C 0.9851 0.66093 0.75386 0.0
O624 O 0.998 0.63781 0.76704 0.0
O625 O 0.00821 0.6522 0.77273 0.0
O626 O 0.99449 0.66519 0.75789 0.0
O627 O 0.98391 0.65081 0.75302 0.0
H628 H 0.98609 0.65296 0.77848 0.0
H629 H 0.97589 0.65263 0.79332 0.0
H630 H 0.99759 0.63423 0.80648 0.0
H631 H 1.00762 0.63447 0.79153 0.0
H632 H 0.03174 0.61878 0.74805 0.0
H633 H 0.01741 0.62899 0.75171 0.0
H634 H 0.04393 0.64076 0.72832 0.0
H635 H 0.02939 0.65069 0.73175 0.0
H636 H 0.98559 0.66596 0.7204 0.0
H637 H 0.96146 0.67835 0.73729 0.0
H638 H 0.96878 0.67205 0.75236 0.0
H639 H 0.99275 0.65957 0.73548 0.0
C640 C 0.10508 0.22246 0.45908 0.0
C641 C 0.10706 0.22149 0.44893 0.0
C642 C 0.10807 0.24008 0.44866 0.0
C643 C 0.10852 0.2302 0.44377 0.0
C644 C 0.10614 0.24101 0.45887 0.0
C645 C 0.10466 0.23226 0.46403 0.0
U646 U 0.10533 0.19396 0.45863 0.0
O647 O 0.11098 0.18429 0.46963 0.0
O648 O 0.09426 0.18162 0.46381 0.0
C649 C 0.1015 0.1791 0.4701 0.0
C650 C 0.10347 0.21322 0.4644 0.0
C651 C 0.09819 0.17744 0.48015 0.0
C652 C 0.09745 0.18313 0.49777 0.0
C653 C 0.10014 0.18524 0.48818 0.0
C654 C 0.09061 0.16552 0.49129 0.0
C655 C 0.09273 0.17321 0.49945 0.0
C656 C 0.09331 0.16763 0.48175 0.0
C657 C 0.11304 0.17996 0.43458 0.0
C658 C 0.1161 0.16205 0.43323 0.0
C659 C 0.11546 0.17106 0.41843 0.0
C660 C 0.11365 0.17996 0.42425 0.0
C661 C 0.11671 0.16201 0.42285 0.0
C662 C 0.11423 0.17096 0.43905 0.0
C663 C 0.11113 0.1894 0.44056 0.0
O664 O 0.09539 0.20635 0.46073 0.0
O665 O 0.11212 0.20911 0.4664 0.0
O666 O 0.11791 0.19254 0.44831 0.0
O667 O 0.10122 0.18983 0.44253 0.0
H668 H 0.10741 0.21397 0.44498 0.0
H669 H 0.1098 0.22916 0.43588 0.0
H670 H 0.10587 0.2485 0.46289 0.0
H671 H 0.10319 0.23314 0.47188 0.0
H672 H 0.09909 0.18924 0.50388 0.0
H673 H 0.10386 0.19289 0.48707 0.0
H674 H 0.08715 0.15776 0.49231 0.0
H675 H 0.09178 0.16151 0.47564 0.0
H676 H 0.11692 0.15517 0.43683 0.0
H677 H 0.11603 0.17131 0.41047 0.0
H678 H 0.11276 0.18686 0.4207 0.0
H679 H 0.11371 0.17082 0.44703 0.0
C680 C 0.47732 0.39758 0.25102 0.0
C681 C 0.47762 0.39677 0.2406 0.0
C682 C 0.46307 0.40698 0.23933 0.0
C683 C 0.47056 0.40141 0.23482 0.0
C684 C 0.46272 0.40766 0.24979 0.0
C685 C 0.46982 0.40301 0.25559 0.0
U686 U 0.50076 0.38302 0.25186 0.0
O687 O 0.51543 0.38533 0.26169 0.0
O688 O 0.50481 0.37064 0.26059 0.0
C689 C 0.51331 0.37635 0.26516 0.0
C690 C 0.48503 0.39295 0.25704 0.0
C691 C 0.5149 0.37627 0.27613 0.0
C692 C 0.51168 0.36789 0.2912 0.0
C693 C 0.50924 0.3686 0.28107 0.0
C694 C 0.52534 0.38261 0.29173 0.0
C695 C 0.51986 0.37481 0.29662 0.0
C696 C 0.52292 0.3833 0.2816 0.0
C697 C 0.51205 0.37534 0.2271 0.0
C698 C 0.52873 0.36834 0.22633 0.0
C699 C 0.5184 0.37 0.21105 0.0
C700 C 0.51073 0.37405 0.21666 0.0
C701 C 0.52754 0.36718 0.21582 0.0
C702 C 0.52103 0.37238 0.23193 0.0
C703 C 0.50417 0.38005 0.23285 0.0
O704 O 0.48415 0.38283 0.25561 0.0
O705 O 0.49488 0.39744 0.25714 0.0
O706 O 0.5079 0.38856 0.23862 0.0
O707 O 0.49763 0.37367 0.23726 0.0
H708 H 0.48335 0.39258 0.23695 0.0
H709 H 0.47093 0.40057 0.22678 0.0
H710 H 0.45709 0.41194 0.25349 0.0
H711 H 0.46952 0.40372 0.26364 0.0
H712 H 0.50725 0.36185 0.29477 0.0
H713 H 0.50308 0.36298 0.27706 0.0
H714 H 0.53181 0.38795 0.29562 0.0
H715 H 0.52757 0.38917 0.27799 0.0
H716 H 0.53562 0.36614 0.23022 0.0
H717 H 0.5173 0.36932 0.20298 0.0
H718 H 0.50384 0.37633 0.21282 0.0
H719 H 0.52214 0.37329 0.24001 0.0
C720 C 0.36546 0.78776 0.9711 0.0
C721 C 0.36179 0.78646 0.96099 0.0
C722 C 0.3662 0.76897 0.95934 0.0
C723 C 0.36212 0.77715 0.95517 0.0
C724 C 0.36957 0.77019 0.96956 0.0
C725 C 0.36923 0.77954 0.9754 0.0
U726 U 0.36492 0.81612 0.97091 0.0
O727 O 0.35826 0.82758 0.98085 0.0
O728 O 0.37531 0.82957 0.97855 0.0
C729 C 0.36764 0.83291 0.98351 0.0
C730 C 0.36616 0.79793 0.97685 0.0
C731 C 0.37015 0.83559 0.99429 0.0
C732 C 0.37773 0.83191 0.01028 0.0
C733 C 0.37472 0.82887 1.00017 0.0
C734 C 0.37132 0.84828 0.00878 0.0
C735 C 0.37621 0.84173 0.01466 0.0
C736 C 0.36834 0.84524 0.99868 0.0
C737 C 0.3608 0.82578 0.94543 0.0
C738 C 0.36147 0.84401 0.94353 0.0
C739 C 0.35971 0.83146 0.92889 0.0
C740 C 0.35981 0.82353 0.93503 0.0
C741 C 0.36061 0.84181 0.93306 0.0
C742 C 0.36158 0.83605 0.94967 0.0
C743 C 0.3615 0.8174 0.95173 0.0
O744 O 0.37454 0.80438 0.97531 0.0
O745 O 0.35734 0.80213 0.97672 0.0
O746 O 0.35381 0.81582 0.95773 0.0
O747 O 0.37095 0.81721 0.95608 0.0
H748 H 0.3589 0.79275 0.95753 0.0
H749 H 0.35932 0.7764 0.94736 0.0
H750 H 0.37285 0.76407 0.97297 0.0
H751 H 0.37218 0.78046 0.98318 0.0
H752 H 0.38153 0.82671 0.01459 0.0
H753 H 0.37615 0.82137 0.99688 0.0
H754 H 0.36983 0.8558 0.01196 0.0
H755 H 0.36477 0.8505 0.99426 0.0
H756 H 0.36205 0.85187 0.94697 0.0
H757 H 0.35919 0.82951 0.92087 0.0
H758 H 0.35927 0.81564 0.93165 0.0
H759 H 0.36237 0.8379 0.95771 0.0
C760 C 0.99934 0.39652 0.77894 0.0
C761 C 1.00146 0.40089 0.78891 0.0
C762 C 0.02035 0.40043 0.78759 0.0
C763 C 0.01188 0.40289 0.79317 0.0
C764 C 0.0182 0.39599 0.77764 0.0
C765 C 1.00778 0.39409 0.77334 0.0
U766 U 0.96992 0.38782 0.78074 0.0
O767 O 0.9559 0.39399 0.77483 0.0
O768 O 0.95823 0.37806 0.77001 0.0
C769 C 0.9527 0.38563 0.76866 0.0
C770 C 0.98841 0.3943 0.77436 0.0
C771 C 0.95056 0.38741 0.75821 0.0
C772 C 0.95628 0.3945 0.74315 0.0
C773 C 0.95845 0.39266 0.75304 0.0
C774 C 0.93838 0.38569 0.74344 0.0
C775 C 0.9462 0.39107 0.73825 0.0
C776 C 0.94054 0.3839 0.75335 0.0
C777 C 0.96005 0.3801 0.80543 0.0
C778 C 0.94176 0.37951 0.80979 0.0
C779 C 0.954 0.37085 0.8192 0.0
C780 C 0.96207 0.37411 0.81316 0.0
C781 C 0.94376 0.37357 0.81764 0.0
C782 C 0.94981 0.3827 0.80371 0.0
C783 C 0.96869 0.3836 0.79927 0.0
O784 O 0.98426 0.38453 0.77334 0.0
O785 O 0.98181 0.40055 0.77763 0.0
O786 O 0.96876 0.39295 0.79659 0.0
O787 O 0.97059 0.37683 0.79199 0.0
H788 H 0.99506 0.40272 0.79342 0.0
H789 H 0.01329 0.40618 0.80089 0.0
H790 H 0.02459 0.39407 0.77315 0.0
H791 H 1.0063 0.39069 0.76566 0.0
H792 H 0.96251 0.39855 0.73932 0.0
H793 H 0.96626 0.39537 0.75668 0.0
H794 H 0.93051 0.38305 0.73991 0.0
H795 H 0.93437 0.37983 0.75725 0.0
H796 H 0.93403 0.38188 0.80843 0.0
H797 H 0.95579 0.36613 0.82505 0.0
H798 H 0.96991 0.37196 0.81455 0.0
H799 H 0.94807 0.38728 0.79773 0.0
C800 C 0.34946 0.22946 0.52608 0.0
C801 C 0.3477 0.22979 0.53627 0.0
C802 C 0.34648 0.24816 0.53698 0.0
C803 C 0.34624 0.23905 0.54167 0.0
C804 C 0.34802 0.24772 0.5267 0.0
C805 C 0.34951 0.23843 0.5213 0.0
U806 U 0.35172 0.20128 0.52611 0.0
O807 O 0.34699 0.18797 0.51475 0.0
O808 O 0.36366 0.19198 0.52053 0.0
C809 C 0.35683 0.18616 0.51397 0.0
C810 C 0.35157 0.21981 0.52061 0.0
C811 C 0.36023 0.1846 0.50375 0.0
C812 C 0.37058 0.19031 0.49025 0.0
C813 C 0.36682 0.19231 0.49969 0.0
C814 C 0.36087 0.17305 0.48869 0.0
C815 C 0.36779 0.18059 0.4847 0.0
C816 C 0.35717 0.17504 0.49813 0.0
C817 C 0.34654 0.18926 0.55024 0.0
C818 C 0.35014 0.17194 0.55258 0.0
C819 C 0.34253 0.18202 0.56566 0.0
C820 C 0.34264 0.19015 0.55973 0.0
C821 C 0.34635 0.17285 0.56218 0.0
C822 C 0.35021 0.18009 0.54665 0.0
C823 C 0.347 0.19804 0.54431 0.0
O824 O 0.36024 0.21642 0.52389 0.0
O825 O 0.34336 0.21254 0.51892 0.0
O826 O 0.33983 0.19717 0.53676 0.0
O827 O 0.35656 0.20172 0.54205 0.0
H828 H 0.34766 0.22292 0.54008 0.0
H829 H 0.34525 0.23912 0.54959 0.0
H830 H 0.34812 0.25456 0.52283 0.0
H831 H 0.35083 0.23828 0.51342 0.0
H832 H 0.37594 0.19627 0.48743 0.0
H833 H 0.36924 0.19978 0.5039 0.0
H834 H 0.35837 0.16556 0.48454 0.0
H835 H 0.35203 0.16902 0.50111 0.0
H836 H 0.35302 0.16494 0.54966 0.0
H837 H 0.3397 0.18301 0.57306 0.0
H838 H 0.3398 0.1972 0.56261 0.0
H839 H 0.35322 0.17927 0.5393 0.0
C840 C 0.48169 0.62342 0.26232 0.0
C841 C 0.4817 0.61868 0.2712 0.0
C842 C 0.46258 0.61847 0.27144 0.0
C843 C 0.47222 0.61618 0.27569 0.0
C844 C 0.46262 0.62325 0.26256 0.0
C845 C 0.4721 0.62567 0.25803 0.0
U846 U 0.51148 0.63111 0.26477 0.0
O847 O 0.52407 0.6263 0.25568 0.0
O848 O 0.52171 0.6426 0.25754 0.0
C849 C 0.52673 0.63558 0.25299 0.0
C850 C 0.49166 0.62631 0.25767 0.0
C851 C 0.52774 0.63611 0.24225 0.0
C852 C 0.522 0.63031 0.22488 0.0
C853 C 0.52043 0.63019 0.23505 0.0
C854 C 0.53797 0.64254 0.229 0.0
C855 C 0.53086 0.6364 0.22174 0.0
C856 C 0.53643 0.64238 0.23915 0.0
C857 C 0.52586 0.63343 0.29063 0.0
C858 C 0.5451 0.63586 0.29314 0.0
C859 C 0.53439 0.63635 0.30741 0.0
C860 C 0.52518 0.6346 0.30099 0.0
C861 C 0.54447 0.63693 0.30357 0.0
C862 C 0.53586 0.63414 0.28672 0.0
C863 C 0.51609 0.63138 0.28401 0.0
O864 O 0.49615 0.63587 0.26014 0.0
O865 O 0.49844 0.61959 0.25774 0.0
O866 O 0.5152 0.62298 0.2777 0.0
O867 O 0.5133 0.63937 0.27991 0.0
H868 H 0.48905 0.617 0.27472 0.0
H869 H 0.47247 0.61263 0.2826 0.0
H870 H 0.4553 0.62504 0.25908 0.0
H871 H 0.47195 0.62936 0.2512 0.0
H872 H 0.51633 0.62558 0.21947 0.0
H873 H 0.51362 0.62536 0.23731 0.0
H874 H 0.54494 0.64722 0.22684 0.0
H875 H 0.54215 0.64699 0.24461 0.0
H876 H 0.55271 0.63616 0.28993 0.0
H877 H 0.53361 0.63731 0.31538 0.0
H878 H 0.51751 0.63413 0.30411 0.0
H879 H 0.53652 0.63326 0.27871 0.0
C880 C 0.09104 0.78964 0.02949 0.0
C881 C 0.08737 0.79926 0.02996 0.0
C882 C 0.08568 0.79815 0.0118 0.0
C883 C 0.08467 0.80346 0.02119 0.0
C884 C 0.08913 0.78838 0.01138 0.0
C885 C 0.09178 0.78417 0.02016 0.0
U886 U 0.10079 0.79509 0.05658 0.0
O887 O 0.09844 0.78638 0.06955 0.0
O888 O 0.11453 0.7906 0.06488 0.0
C889 C 0.10857 0.78549 0.07087 0.0
C890 C 0.09497 0.78575 0.03866 0.0
C891 C 0.11121 0.77518 0.07246 0.0
C892 C 0.10748 0.75645 0.07006 0.0
C893 C 0.10494 0.76611 0.06801 0.0
C894 C 0.12268 0.76483 0.08082 0.0
C895 C 0.11636 0.75571 0.07653 0.0
C896 C 0.12012 0.77445 0.07881 0.0
C897 C 0.10213 0.82272 0.06859 0.0
C898 C 0.11136 0.82853 0.08483 0.0
C899 C 0.10189 0.84021 0.07612 0.0
C900 C 0.09888 0.83244 0.06824 0.0
C901 C 0.10825 0.83837 0.08445 0.0
C902 C 0.1083 0.82076 0.07696 0.0
C903 C 0.09935 0.81482 0.06005 0.0
O904 O 0.10487 0.78939 0.04161 0.0
O905 O 0.0886 0.78579 0.04599 0.0
O906 O 0.09153 0.80755 0.06117 0.0
O907 O 0.10746 0.81126 0.05601 0.0
H908 H 0.08688 0.80367 0.0371 0.0
H909 H 0.08219 0.81105 0.02178 0.0
H910 H 0.0899 0.78406 1.00426 0.0
H911 H 0.09467 0.77676 0.01967 0.0
H912 H 0.10251 0.74957 0.06657 0.0
H913 H 0.09806 0.7665 0.06302 0.0
H914 H 0.12948 0.76455 0.08595 0.0
H915 H 0.12503 0.78136 0.08234 0.0
H916 H 0.11614 0.82684 0.0912 0.0
H917 H 0.09947 0.84773 0.07555 0.0
H918 H 0.09413 0.83408 0.06181 0.0
H919 H 0.11084 0.81325 0.07735 0.0
C920 C 0.75853 0.02227 0.63488 0.0
C921 C 0.7586 0.01233 0.63778 0.0
C922 C 0.7779 0.01529 0.64019 0.0
C923 C 0.76819 0.00888 0.64045 0.0
C924 C 0.77777 0.02524 0.63722 0.0
C925 C 0.76816 0.02869 0.6346 0.0
U926 U 0.72908 0.01638 0.62765 0.0
O927 O 0.71568 0.02422 0.63221 0.0
O928 O 0.71899 0.02238 0.61638 0.0
C929 C 0.71327 0.02643 0.62313 0.0
C930 C 0.74845 0.02589 0.63201 0.0
C931 C 0.71135 0.03711 0.62225 0.0
C932 C 0.71485 0.0555 0.62765 0.0
C933 C 0.71746 0.04552 0.62804 0.0
C934 C 0.70028 0.04879 0.61542 0.0
C935 C 0.70615 0.05722 0.62142 0.0
C936 C 0.70286 0.03883 0.61585 0.0
C937 C 0.71596 0.9885 0.62629 0.0
C938 C 0.69727 0.98348 0.62108 0.0
C939 C 0.70762 0.97102 0.62741 0.0
C940 C 0.7166 0.97849 0.62874 0.0
C941 C 0.69784 0.97344 0.6236 0.0
C942 C 0.70626 0.99097 0.62244 0.0
C943 C 0.7254 0.99632 0.62801 0.0
O944 O 0.74457 0.02275 0.62281 0.0
O945 O 0.74126 0.0251 0.63859 0.0
O946 O 0.7255 1.00295 0.63598 0.0
O947 O 0.72846 1.00068 0.62011 0.0
H948 H 0.75123 1.00722 0.63796 0.0
H949 H 0.76802 1.00114 0.64257 0.0
H950 H 0.7851 0.03039 0.63702 0.0
H951 H 0.76825 0.03639 0.63235 0.0
H952 H 0.7196 0.06185 0.63227 0.0
H953 H 0.72409 0.04435 0.63299 0.0
H954 H 0.69346 0.04982 0.61064 0.0
H955 H 0.69804 0.03243 0.61135 0.0
H956 H 0.68983 0.98562 0.61823 0.0
H957 H 0.70836 0.96332 0.6293 0.0
H958 H 0.72404 0.97647 0.63171 0.0
H959 H 0.70562 0.9987 0.62057 0.0
C960 C 0.78921 1.00423 0.36043 0.0
C961 C 0.78804 0.99343 0.35947 0.0
C962 C 0.76881 0.99267 0.35774 0.0
C963 C 0.77793 0.98769 0.35811 0.0
C964 C 0.77006 1.00352 0.35858 0.0
C965 C 0.78019 0.00925 0.35991 0.0
U966 U 0.81891 1.00548 0.36562 0.0
O967 O 0.83222 0.01524 0.36007 0.0
O968 O 0.83014 0.01591 0.37616 0.0
C969 C 0.83531 0.01995 0.36901 0.0
C970 C 0.79978 0.0103 0.36229 0.0
C971 C 0.83702 0.03128 0.36976 0.0
C972 C 0.83109 0.04789 0.37396 0.0
C973 C 0.82915 0.03711 0.373 0.0
C974 C 0.84866 0.04709 0.3682 0.0
C975 C 0.84088 0.05299 0.37159 0.0
C976 C 0.84675 0.03633 0.36732 0.0
C977 C 0.83099 0.98087 0.36759 0.0
C978 C 0.84984 0.98159 0.372 0.0
C979 C 0.83864 0.96507 0.36889 0.0
C980 C 0.82984 0.97009 0.36697 0.0
C981 C 0.84874 0.97076 0.37146 0.0
C982 C 0.84104 0.9866 0.37008 0.0
C983 C 0.82168 0.98609 0.36579 0.0
O984 O 0.80427 0.01021 0.3713 0.0
O985 O 0.80628 0.009 0.3552 0.0
O986 O 0.8215 0.99072 0.35759 0.0
O987 O 0.81904 0.99173 0.37361 0.0
H988 H 0.79495 0.98944 0.35991 0.0
H989 H 0.77724 0.97936 0.35763 0.0
H990 H 0.76321 0.00758 0.35821 0.0
H991 H 0.78097 0.01759 0.36064 0.0
H992 H 0.82492 0.05224 0.37649 0.0
H993 H 0.82155 0.03334 0.37485 0.0
H994 H 0.85632 0.0508 0.36641 0.0
H995 H 0.8529 0.03194 0.3648 0.0
H996 H 0.85747 0.98621 0.37408 0.0
H997 H 0.83754 0.95672 0.36827 0.0
H998 H 0.82213 0.96556 0.36503 0.0
H999 H 0.84204 0.99495 0.37061 0.0
C1000 C 0.79658 0.97393 0.16048 0.0
C1001 C 0.8076 0.97404 0.16045 0.0
C1002 C 0.80514 0.95554 0.1554 0.0
C1003 C 0.81184 0.96493 0.15799 0.0
C1004 C 0.79409 0.95547 0.15549 0.0
C1005 C 0.78985 0.9646 0.15801 0.0
U1006 U 0.80045 1.00289 0.16248 0.0
O1007 O 0.79028 0.01396 0.15762 0.0
O1008 O 0.79564 0.01461 0.17347 0.0
C1009 C 0.78969 0.01825 0.16676 0.0
C1010 C 0.79216 0.98361 0.16269 0.0
C1011 C 0.77901 0.01987 0.16951 0.0
C1012 C 0.76029 0.01372 0.17036 0.0
C1013 C 0.77055 0.01177 0.16838 0.0
C1014 C 0.76697 0.0318 0.17488 0.0
C1015 C 0.75837 0.02381 0.17346 0.0
C1016 C 0.77719 0.02984 0.1729 0.0
C1017 C 0.82689 0.01662 0.15629 0.0
C1018 C 0.83026 0.03533 0.158 0.0
C1019 C 0.84258 0.02534 0.14977 0.0
C1020 C 0.83625 0.01623 0.1514 0.0
C1021 C 0.83962 0.03499 0.15301 0.0
C1022 C 0.82393 0.02622 0.1596 0.0
C1023 C 0.82002 1.00703 0.1575 0.0
O1024 O 0.79652 0.98946 0.17074 0.0
O1025 O 0.79088 0.98879 0.15497 0.0
O1026 O 0.81182 1.00472 0.15093 0.0
O1027 O 0.81761 1.00578 0.16668 0.0
H1028 H 0.81294 0.98119 0.16229 0.0
H1029 H 0.82039 0.96526 0.15818 0.0
H1030 H 0.7887 0.9484 0.15343 0.0
H1031 H 0.78131 0.96441 0.15791 0.0
H1032 H 0.75382 1.00742 0.16914 0.0
H1033 H 0.77184 1.00401 0.16576 0.0
H1034 H 0.76579 0.03962 0.17742 0.0
H1035 H 0.78366 0.03617 0.17386 0.0
H1036 H 0.82771 0.04264 0.16047 0.0
H1037 H 0.8498 0.02483 0.146 0.0
H1038 H 0.83862 0.00887 0.14878 0.0
H1039 H 0.81665 0.02665 0.1633 0.0
C1040 C 0.70746 0.9701 0.88919 0.0
C1041 C 0.69674 0.96872 0.89127 0.0
C1042 C 0.69726 0.95038 0.89206 0.0
C1043 C 0.69169 0.95895 0.89269 0.0
C1044 C 0.70808 0.95186 0.89017 0.0
C1045 C 0.71313 0.96165 0.88872 0.0
U1046 U 0.70582 0.99824 0.887 0.0
O1047 O 0.71723 0.01219 0.89179 0.0
O1048 O 0.71172 0.00836 0.87596 0.0
C1049 C 0.71825 0.01444 0.88259 0.0
C1050 C 0.71262 0.98029 0.88726 0.0
C1051 C 0.72919 0.01681 0.87974 0.0
C1052 C 0.74499 0.01158 0.87261 0.0
C1053 C 0.73476 0.00904 0.87569 0.0
C1054 C 0.74424 0.02962 0.87783 0.0
C1055 C 0.74983 0.02191 0.87362 0.0
C1056 C 0.73402 0.02708 0.88085 0.0
C1057 C 0.67963 0.00838 0.89141 0.0
C1058 C 0.67793 0.02664 0.89359 0.0
C1059 C 0.66223 0.01395 0.89 0.0
C1060 C 0.66858 1.00605 0.88976 0.0
C1061 C 0.66683 0.02433 0.89193 0.0
C1062 C 0.68428 0.01873 0.89328 0.0
C1063 C 0.68618 0.99996 0.89096 0.0
O1064 O 0.70893 0.98364 0.87907 0.0
O1065 O 0.71392 0.98736 0.895 0.0
O1066 O 0.69403 1.00086 0.8979 0.0
O1067 O 0.68889 0.99692 0.88201 0.0
H1068 H 0.69227 0.97519 0.89169 0.0
H1069 H 0.6834 0.9581 0.89428 0.0
H1070 H 0.71256 0.9454 0.88954 0.0
H1071 H 0.72141 0.9626 0.88711 0.0
H1072 H 0.74913 1.00547 0.86949 0.0
H1073 H 0.73115 1.00105 0.87483 0.0
H1074 H 0.74768 0.03766 0.87857 0.0
H1075 H 0.72982 0.03318 0.88393 0.0
H1076 H 0.68171 0.03456 0.89498 0.0
H1077 H 0.6537 0.01193 0.88878 0.0
H1078 H 0.66486 0.99811 0.88828 0.0
H1079 H 0.69282 0.02069 0.89447 0.0
C1080 C 0.60288 0.71258 0.96089 0.0
C1081 C 0.60842 0.71321 0.95223 0.0
C1082 C 0.60597 0.73125 0.95213 0.0
C1083 C 0.60999 0.72247 0.94791 0.0
C1084 C 0.60043 0.73057 0.96083 0.0
C1085 C 0.59892 0.72131 0.96517 0.0
U1086 U 0.6012 0.68354 0.95812 0.0
O1087 O 0.60652 0.67279 0.96816 0.0
O1088 O 0.58963 0.67157 0.96321 0.0
C1089 C 0.59683 0.66825 0.96898 0.0
C1090 C 0.60087 0.70276 0.96525 0.0
C1091 C 0.59401 0.66673 0.97918 0.0
C1092 C 0.59343 0.67306 0.99666 0.0
C1093 C 0.59562 0.67489 0.98688 0.0
C1094 C 0.58776 0.655 0.99103 0.0
C1095 C 0.58956 0.66307 0.99885 0.0
C1096 C 0.58998 0.65683 0.98129 0.0
C1097 C 0.60688 0.66982 0.93332 0.0
C1098 C 0.60348 0.65116 0.92998 0.0
C1099 C 0.61297 0.66125 0.9184 0.0
C1100 C 0.61208 0.67029 0.92448 0.0
C1101 C 0.60864 0.65159 0.92106 0.0
C1102 C 0.60264 0.6602 0.93608 0.0
C1103 C 0.60599 0.67937 0.93964 0.0
O1104 O 0.59234 0.69662 0.96137 0.0
O1105 O 0.60918 0.69793 0.9665 0.0
O1106 O 0.61317 0.68177 0.94719 0.0
O1107 O 0.59634 0.68053 0.94208 0.0
H1108 H 0.61143 0.7065 0.94874 0.0
H1109 H 0.61416 0.7227 0.94115 0.0
H1110 H 0.59732 0.73722 0.9643 0.0
H1111 H 0.59459 0.72095 0.97184 0.0
H1112 H 0.5948 0.67946 1.0025 0.0
H1113 H 0.5987 0.68261 0.98536 0.0
H1114 H 0.58495 0.64719 0.99246 0.0
H1115 H 0.58872 0.65045 0.97543 0.0
H1116 H 0.60017 0.64382 0.93227 0.0
H1117 H 0.61688 0.66184 0.91152 0.0
H1118 H 0.6154 0.67766 0.92226 0.0
H1119 H 0.59868 0.6597 0.94295 0.0
C1120 C 0.97959 0.11156 0.76015 0.0
C1121 C 0.97979 0.11447 0.77046 0.0
C1122 C 0.96142 0.10659 0.77064 0.0
C1123 C 0.97077 0.11205 0.77565 0.0
C1124 C 0.96132 0.10352 0.76033 0.0
C1125 C 0.97034 0.10602 0.75512 0.0
U1126 U 0.0091 0.11976 0.76079 0.0
O1127 O 0.02129 0.11504 0.75112 0.0
O1128 O 0.01863 0.13127 0.75302 0.0
C1129 C 0.02363 0.12432 0.74833 0.0
C1130 C 0.98906 0.11422 0.7547 0.0
C1131 C 0.02438 0.12494 0.73756 0.0
C1132 C 0.01884 0.11893 0.72018 0.0
C1133 C 0.01753 0.11846 0.73037 0.0
C1134 C 0.03365 0.13254 0.72428 0.0
C1135 C 0.02697 0.12593 0.71702 0.0
C1136 C 0.03237 0.13203 0.73443 0.0
C1137 C 0.02461 0.12346 0.78625 0.0
C1138 C 0.04388 0.12615 0.7882 0.0
C1139 C 0.03367 0.12757 0.80276 0.0
C1140 C 0.02427 0.12533 0.79661 0.0
C1141 C 0.04359 0.12794 0.79863 0.0
C1142 C 0.03446 0.12395 0.78205 0.0
C1143 C 0.01464 0.12086 0.77995 0.0
O1144 O 0.99346 0.1239 0.75642 0.0
O1145 O 0.996 0.10767 0.75483 0.0
O1146 O 0.01385 0.1123 0.77388 0.0
O1147 O 0.01131 0.12853 0.77571 0.0
H1148 H 0.98691 0.11864 0.7745 0.0
H1149 H 0.97115 0.11438 0.7836 0.0
H1150 H 0.95421 0.09936 0.75627 0.0
H1151 H 0.97007 0.10367 0.74717 0.0
H1152 H 0.0135 0.1138 0.71477 0.0
H1153 H 0.01126 0.11297 0.73263 0.0
H1154 H 0.04008 0.13792 0.72212 0.0
H1155 H 0.03774 0.13708 0.73988 0.0
H1156 H 0.05139 0.12649 0.78479 0.0
H1157 H 0.03317 0.12878 0.81077 0.0
H1158 H 0.01673 0.12497 0.79997 0.0
H1159 H 0.03486 0.12258 0.77403 0.0
C1160 C 0.86507 0.30255 0.46767 0.0
C1161 C 0.86273 0.3012 0.4573 0.0
C1162 C 0.8673 0.28377 0.45652 0.0
C1163 C 0.86381 0.2919 0.45177 0.0
C1164 C 0.86936 0.28506 0.46697 0.0
C1165 C 0.86828 0.2944 0.4725 0.0
U1166 U 0.8629 0.33058 0.46694 0.0
O1167 O 0.85488 0.34152 0.47619 0.0
O1168 O 0.87209 0.34454 0.47497 0.0
C1169 C 0.86384 0.34737 0.47937 0.0
C1170 C 0.86485 0.31267 0.47325 0.0
C1171 C 0.86549 0.35011 0.49022 0.0
C1172 C 0.87208 0.3467 0.50666 0.0
C1173 C 0.87005 0.34366 0.49641 0.0
C1174 C 0.86472 0.36251 0.50463 0.0
C1175 C 0.8695 0.3562 0.51087 0.0
C1176 C 0.86275 0.35949 0.4944 0.0
C1177 C 0.85959 0.33971 0.44104 0.0
C1178 C 0.8635 0.35753 0.43759 0.0
C1179 C 0.85454 0.3446 0.42474 0.0
C1180 C 0.85488 0.33708 0.43133 0.0
C1181 C 0.85897 0.35488 0.42776 0.0
C1182 C 0.86377 0.35001 0.4442 0.0
C1183 C 0.86045 0.33157 0.44763 0.0
O1184 O 0.87301 0.31956 0.4721 0.0
O1185 O 0.85572 0.31629 0.4725 0.0
O1186 O 0.85244 0.32957 0.45317 0.0
O1187 O 0.86975 0.33194 0.4525 0.0
H1188 H 0.86027 0.30744 0.45344 0.0
H1189 H 0.862 0.29111 0.44377 0.0
H1190 H 0.87214 0.27897 0.47082 0.0
H1191 H 0.87018 0.29535 0.4805 0.0
H1192 H 0.87566 0.34163 0.51129 0.0
H1193 H 0.87217 0.33635 0.4933 0.0
H1194 H 0.86276 0.36993 0.50761 0.0
H1195 H 0.85924 0.36457 0.48971 0.0
H1196 H 0.86686 0.36541 0.44016 0.0
H1197 H 0.8511 0.3423 0.41719 0.0
H1198 H 0.85163 0.32916 0.42878 0.0
H1199 H 0.86738 0.3522 0.45171 0.0
C1200 C 0.48583 0.88881 0.766 0.0
C1201 C 0.48138 0.88297 0.77327 0.0
C1202 C 0.46835 0.89476 0.77598 0.0
C1203 C 0.47269 0.88587 0.77815 0.0
C1204 C 0.47279 0.90057 0.76865 0.0
C1205 C 0.48143 0.89759 0.76369 0.0
U1206 U 0.51189 0.87833 0.76828 0.0
O1207 O 0.51971 0.86806 0.75815 0.0
O1208 O 0.52766 0.88367 0.76338 0.0
C1209 C 0.52796 0.87507 0.75762 0.0
C1210 C 0.49546 0.88621 0.76134 0.0
C1211 C 0.53161 0.87619 0.7476 0.0
C1212 C 0.52858 0.87887 0.73014 0.0
C1213 C 0.52481 0.87813 0.73964 0.0
C1214 C 0.54593 0.87583 0.73654 0.0
C1215 C 0.53921 0.87774 0.72849 0.0
C1216 C 0.54217 0.87508 0.74598 0.0
C1217 C 0.52005 0.86976 0.79344 0.0
C1218 C 0.53793 0.86631 0.79771 0.0
C1219 C 0.52413 0.86288 0.80904 0.0
C1220 C 0.51683 0.86626 0.8024 0.0
C1221 C 0.5348 0.86299 0.80684 0.0
C1222 C 0.53061 0.86965 0.79106 0.0
C1223 C 0.51243 0.8738 0.7868 0.0
O1224 O 0.50433 0.89189 0.76509 0.0
O1225 O 0.49631 0.87632 0.75988 0.0
O1226 O 0.50794 0.86733 0.77924 0.0
O1227 O 0.51553 0.88307 0.78431 0.0
H1228 H 0.48475 0.87626 0.77531 0.0
H1229 H 0.46957 0.88133 0.78387 0.0
H1230 H 0.46958 0.90742 0.76678 0.0
H1231 H 0.48481 0.90225 0.75817 0.0
H1232 H 0.52322 0.88042 0.72412 0.0
H1233 H 0.51662 0.87902 0.74078 0.0
H1234 H 0.55409 0.87472 0.73551 0.0
H1235 H 0.54751 0.87352 0.75203 0.0
H1236 H 0.54611 0.8666 0.79582 0.0
H1237 H 0.5214 0.86021 0.81591 0.0
H1238 H 0.50869 0.86625 0.80431 0.0
H1239 H 0.53323 0.87232 0.78415 0.0
C1240 C 1.00614 0.14662 0.24151 0.0
C1241 C 0.99901 0.15391 0.24176 0.0
C1242 C 0.99544 0.15063 0.22373 0.0
C1243 C 0.99375 0.15592 0.23295 0.0
C1244 C 1.00285 0.14356 0.22348 0.0
C1245 C 0.00814 0.14157 0.23232 0.0
U1246 U 1.00512 0.14657 0.26924 0.0
O1247 O 1.00614 0.13419 0.27893 0.0
O1248 O 0.01746 0.14844 0.28162 0.0
C1249 C 0.01472 0.13907 0.28405 0.0
C1250 C 0.01069 0.14367 0.25089 0.0
C1251 C 0.02341 0.13292 0.28542 0.0
C1252 C 0.03858 0.12535 0.27944 0.0
C1253 C 0.03029 0.13116 0.27787 0.0
C1254 C 0.03304 0.12292 0.29602 0.0
C1255 C 0.0401 0.12122 0.28857 0.0
C1256 C 0.0248 0.12873 0.29446 0.0
C1257 C 0.98322 0.15966 0.28121 0.0
C1258 C 0.98036 0.15976 0.29887 0.0
C1259 C 0.96787 0.16636 0.28776 0.0
C1260 C 0.97397 0.16418 0.27975 0.0
C1261 C 0.97091 0.16406 0.29739 0.0
C1262 C 0.98645 0.15755 0.29082 0.0
C1263 C 0.98908 0.15678 0.27256 0.0
O1264 O 0.01522 0.15135 0.25736 0.0
O1265 O 1.00441 0.13678 0.25497 0.0
O1266 O 0.98795 0.14686 0.26961 0.0
O1267 O 0.99895 0.16127 0.27275 0.0
H1268 H 0.99731 0.15784 0.24881 0.0
H1269 H 0.98821 0.1615 0.23339 0.0
H1270 H 1.00425 0.13927 0.21652 0.0
H1271 H 0.01353 0.13585 0.23202 0.0
H1272 H 0.04392 0.12425 0.27358 0.0
H1273 H 0.02929 0.13433 0.27081 0.0
H1274 H 0.03384 0.1197 0.30307 0.0
H1275 H 0.0195 0.12995 0.30033 0.0
H1276 H 0.98286 0.15781 0.30617 0.0
H1277 H 0.96071 0.16979 0.28641 0.0
H1278 H 0.97138 0.16586 0.27237 0.0
H1279 H 0.99356 0.15401 0.29206 0.0
C1280 C 0.48825 0.13635 0.73708 0.0
C1281 C 0.48704 0.13975 0.7276 0.0
C1282 C 0.46889 0.13093 0.72534 0.0
C1283 C 0.47744 0.13712 0.72181 0.0
C1284 C 0.4701 0.12768 0.73492 0.0
C1285 C 0.47971 0.13036 0.74074 0.0
U1286 U 0.51789 0.14355 0.73759 0.0
O1287 O 0.52934 0.15368 0.74826 0.0
O1288 O 0.53099 0.13729 0.74513 0.0
C1289 C 0.53444 0.14607 0.75057 0.0
C1290 C 0.49858 0.1385 0.74287 0.0
C1291 C 0.53653 0.14534 0.76127 0.0
C1292 C 0.53046 0.14266 0.77768 0.0
C1293 C 0.52822 0.14372 0.76757 0.0
C1294 C 0.54928 0.14491 0.77523 0.0
C1295 C 0.54102 0.1432 0.78162 0.0
C1296 C 0.54704 0.14597 0.76517 0.0
C1297 C 0.52988 0.14778 0.7128 0.0
C1298 C 0.54836 0.1546 0.71151 0.0
C1299 C 0.53763 0.14622 0.69681 0.0
C1300 C 0.52892 0.14452 0.70255 0.0
C1301 C 0.54746 0.15125 0.70123 0.0
C1302 C 0.53965 0.15283 0.71727 0.0
C1303 C 0.52071 0.14554 0.71873 0.0
O1304 O 0.50506 0.13171 0.74084 0.0
O1305 O 0.50326 0.1481 0.74349 0.0
O1306 O 0.51873 0.15315 0.72513 0.0
O1307 O 0.51998 0.13664 0.72244 0.0
H1308 H 0.49358 0.14433 0.72462 0.0
H1309 H 0.47674 0.1399 0.71454 0.0
H1310 H 0.46373 0.1228 0.73782 0.0
H1311 H 0.48055 0.12759 0.748 0.0
H1312 H 0.52392 0.14145 0.7824 0.0
H1313 H 0.52004 0.14319 0.76465 0.0
H1314 H 0.55749 0.14517 0.77794 0.0
H1315 H 0.55353 0.14715 0.76038 0.0
H1316 H 0.55585 0.15841 0.71514 0.0
H1317 H 0.53666 0.14366 0.68888 0.0
H1318 H 0.52145 0.14059 0.69899 0.0
H1319 H 0.54056 0.15532 0.72521 0.0
C1320 C 0.12348 0.26564 0.95719 0.0
C1321 C 0.12697 0.26546 0.94752 0.0
C1322 C 0.12847 0.24718 0.94726 0.0
C1323 C 0.12945 0.25632 0.9426 0.0
C1324 C 0.12496 0.24741 0.95699 0.0
C1325 C 0.1225 0.25659 0.96192 0.0
U1326 U 0.1201 0.29342 0.95599 0.0
O1327 O 0.10803 0.30268 0.96141 0.0
O1328 O 0.1248 0.3073 0.96665 0.0
C1329 C 0.11494 0.30902 0.96748 0.0
C1330 C 0.12077 0.27527 0.96225 0.0
C1331 C 0.1119 0.31148 0.97772 0.0
C1332 C 0.1021 0.30727 0.99207 0.0
C1333 C 0.10529 0.30441 0.98253 0.0
C1334 C 0.11232 0.32416 0.99214 0.0
C1335 C 0.10549 0.31724 0.99693 0.0
C1336 C 0.11546 0.32131 0.98263 0.0
C1337 C 0.1255 0.30471 0.93158 0.0
C1338 C 0.12379 0.32257 0.92962 0.0
C1339 C 0.129 0.31149 0.91585 0.0
C1340 C 0.12841 0.30331 0.92175 0.0
C1341 C 0.12668 0.32121 0.91971 0.0
C1342 C 0.12319 0.31438 0.93551 0.0
C1343 C 0.12489 0.29604 0.93767 0.0
O1344 O 0.1287 0.28284 0.96389 0.0
O1345 O 0.112 0.2782 0.95859 0.0
O1346 O 0.11531 0.2925 0.93996 0.0
O1347 O 0.13203 0.29705 0.94526 0.0
H1348 H 0.12771 0.27239 0.94374 0.0
H1349 H 0.13195 0.25639 0.93507 0.0
H1350 H 0.12421 0.24052 0.96082 0.0
H1351 H 0.11982 0.25661 0.96939 0.0
H1352 H 0.0968 0.30177 0.99552 0.0
H1353 H 0.10247 0.29675 0.97888 0.0
H1354 H 0.11528 0.33181 0.99574 0.0
H1355 H 0.1206 0.32685 0.97906 0.0
H1356 H 0.12183 0.32993 0.93277 0.0
H1357 H 0.13139 0.31022 0.9083 0.0
H1358 H 0.13025 0.29589 0.91863 0.0
H1359 H 0.12091 0.31556 0.9431 0.0
C1360 C 0.35576 0.70454 0.50165 0.0
C1361 C 0.35594 0.69387 0.50127 0.0
C1362 C 0.36086 0.69557 0.51914 0.0
C1363 C 0.35845 0.68943 0.50993 0.0
C1364 C 0.36059 0.70627 0.51948 0.0
C1365 C 0.35807 0.71071 0.51079 0.0
U1366 U 0.35025 0.70132 0.47372 0.0
O1367 O 0.33893 0.70771 0.46389 0.0
O1368 O 0.35605 0.71066 0.46207 0.0
C1369 C 0.34653 0.71262 0.45928 0.0
C1370 C 0.35336 0.70918 0.49246 0.0
C1371 C 0.34566 0.72344 0.45794 0.0
C1372 C 0.35098 0.7418 0.46253 0.0
C1373 C 0.35107 0.73159 0.46458 0.0
C1374 C 0.33972 0.73582 0.44743 0.0
C1375 C 0.34545 0.74402 0.45383 0.0
C1376 C 0.33984 0.72563 0.44946 0.0
C1377 C 0.35043 0.6749 0.45971 0.0
C1378 C 0.34558 0.67168 0.44188 0.0
C1379 C 0.35428 0.65928 0.45031 0.0
C1380 C 0.35456 0.66553 0.45936 0.0
C1381 C 0.34983 0.66232 0.44146 0.0
C1382 C 0.34592 0.67794 0.45093 0.0
C1383 C 0.35132 0.68165 0.46915 0.0
O1384 O 0.36091 0.7095 0.48623 0.0
O1385 O 0.34387 0.70596 0.48803 0.0
O1386 O 0.34257 0.6852 0.47169 0.0
O1387 O 0.3597 0.68874 0.47035 0.0
H1388 H 0.35417 0.68899 0.49426 0.0
H1389 H 0.35842 0.68116 0.50942 0.0
H1390 H 0.36251 0.71122 0.52642 0.0
H1391 H 0.358 0.71897 0.51119 0.0
H1392 H 0.35537 0.74796 0.46766 0.0
H1393 H 0.35556 0.73005 0.4712 0.0
H1394 H 0.33549 0.73724 0.44062 0.0
H1395 H 0.33565 0.71943 0.44425 0.0
H1396 H 0.34222 0.67428 0.43518 0.0
H1397 H 0.35751 0.65206 0.45024 0.0
H1398 H 0.3581 0.66309 0.46607 0.0
H1399 H 0.3428 0.68523 0.45105 0.0
C1400 C 0.74212 0.48322 0.85606 0.0
C1401 C 0.74347 0.49308 0.85282 0.0
C1402 C 0.72432 0.49262 0.85054 0.0
C1403 C 0.73467 0.49772 0.85006 0.0
C1404 C 0.72301 0.48264 0.85361 0.0
C1405 C 0.73186 0.47798 0.85637 0.0
U1406 U 0.77119 0.48723 0.86376 0.0
O1407 O 0.78035 0.48224 0.87631 0.0
O1408 O 0.78405 0.478 0.86086 0.0
C1409 C 0.78598 0.47696 0.87037 0.0
C1410 C 0.75144 0.47874 0.85961 0.0
C1411 C 0.78712 0.46648 0.87276 0.0
C1412 C 0.78232 0.44788 0.86988 0.0
C1413 C 0.78047 0.4578 0.86802 0.0
C1414 C 0.79722 0.45527 0.8815 0.0
C1415 C 0.79082 0.4465 0.87655 0.0
C1416 C 0.79539 0.46515 0.87961 0.0
C1417 C 0.78585 0.51426 0.86271 0.0
C1418 C 0.80404 0.51945 0.86953 0.0
C1419 C 0.79508 0.53103 0.86021 0.0
C1420 C 0.78599 0.52372 0.85876 0.0
C1421 C 0.80419 0.52901 0.86565 0.0
C1422 C 0.79494 0.51212 0.86805 0.0
C1423 C 0.77615 0.50676 0.86127 0.0
O1424 O 0.75882 0.47814 0.85323 0.0
O1425 O 0.75531 0.48244 0.86869 0.0
O1426 O 0.77241 0.5036 0.86948 0.0
O1427 O 0.77611 0.49925 0.85408 0.0
H1428 H 0.75135 0.49725 0.85256 0.0
H1429 H 0.73597 0.50534 0.84759 0.0
H1430 H 0.71515 0.47855 0.85414 0.0
H1431 H 0.73069 0.47039 0.85892 0.0
H1432 H 0.77719 0.44128 0.86603 0.0
H1433 H 0.77399 0.45868 0.86275 0.0
H1434 H 0.80391 0.4545 0.88657 0.0
H1435 H 0.80061 0.47177 0.88332 0.0
H1436 H 0.81097 0.51763 0.87367 0.0
H1437 H 0.7949 0.53836 0.85723 0.0
H1438 H 0.77902 0.52548 0.85463 0.0
H1439 H 0.79498 0.50481 0.8711 0.0
C1440 C 0.69415 0.47992 0.15134 0.0
C1441 C 0.68334 0.47726 0.14832 0.0
C1442 C 0.68485 0.4591 0.14914 0.0
C1443 C 0.67873 0.46694 0.14722 0.0
C1444 C 0.69571 0.46183 0.15214 0.0
C1445 C 0.70031 0.47217 0.15322 0.0
U1446 U 0.69128 0.5081 0.15086 0.0
O1447 O 0.69835 0.52178 0.16093 0.0
O1448 O 0.70132 0.5207 0.14502 0.0
C1449 C 0.70362 0.52589 0.15388 0.0
C1450 C 0.69896 0.49077 0.15261 0.0
C1451 C 0.71495 0.52941 0.15645 0.0
C1452 C 0.73303 0.52588 0.15947 0.0
C1453 C 0.72218 0.52235 0.15752 0.0
C1454 C 0.72942 0.54351 0.15948 0.0
C1455 C 0.73678 0.5365 0.16034 0.0
C1456 C 0.7186 0.53999 0.15754 0.0
C1457 C 0.66433 0.51574 0.14405 0.0
C1458 C 0.66218 0.53378 0.1438 0.0
C1459 C 0.64733 0.52047 0.13855 0.0
C1460 C 0.65371 0.51291 0.14048 0.0
C1461 C 0.6515 0.531 0.14017 0.0
C1462 C 0.66855 0.52621 0.14571 0.0
C1463 C 0.67103 0.50774 0.14582 0.0
O1464 O 0.69914 0.49535 0.14437 0.0
O1465 O 0.69587 0.4964 0.16021 0.0
O1466 O 0.67485 0.50785 0.1551 0.0
O1467 O 0.67813 0.50654 0.13928 0.0
H1468 H 0.67846 0.48318 0.14688 0.0
H1469 H 0.67032 0.46512 0.14505 0.0
H1470 H 0.70066 0.45597 0.15357 0.0
H1471 H 0.70868 0.47411 0.15554 0.0
H1472 H 0.7385 0.52028 0.16001 0.0
H1473 H 0.71946 0.51414 0.15668 0.0
H1474 H 0.73203 0.55175 0.16027 0.0
H1475 H 0.7131 0.54553 0.15678 0.0
H1476 H 0.66561 0.54181 0.14525 0.0
H1477 H 0.63919 0.51806 0.13564 0.0
H1478 H 0.65036 0.50485 0.1391 0.0
H1479 H 0.67676 0.52851 0.14847 0.0
C1480 C 0.71905 0.52208 0.37355 0.0
C1481 C 0.70938 0.52206 0.37802 0.0
C1482 C 0.70986 0.54041 0.37658 0.0
C1483 C 0.70484 0.53114 0.37954 0.0
C1484 C 0.71965 0.54042 0.37224 0.0
C1485 C 0.72419 0.53131 0.37072 0.0
U1486 U 0.71609 0.49327 0.37377 0.0
O1487 O 0.71955 0.48094 0.36267 0.0
O1488 O 0.72731 0.48278 0.37784 0.0
C1489 C 0.7266 0.47787 0.36879 0.0
C1490 C 0.72351 0.5124 0.37154 0.0
C1491 C 0.73671 0.47615 0.36466 0.0
C1492 C 0.75444 0.48237 0.36018 0.0
C1493 C 0.7447 0.48435 0.36374 0.0
C1494 C 0.74813 0.46404 0.35827 0.0
C1495 C 0.7563 0.47217 0.35752 0.0
C1496 C 0.73845 0.46602 0.36181 0.0
C1497 C 0.69075 0.48007 0.38336 0.0
C1498 C 0.6839 0.46187 0.37971 0.0
C1499 C 0.67747 0.47208 0.39344 0.0
C1500 C 0.68417 0.48076 0.3913 0.0
C1501 C 0.6772 0.46256 0.3876 0.0
C1502 C 0.69066 0.47054 0.37764 0.0
C1503 C 0.69755 0.48937 0.38112 0.0
O1504 O 0.72596 0.50791 0.37948 0.0
O1505 O 0.71834 0.50593 0.36429 0.0
O1506 O 0.6987 0.49023 0.3716 0.0
O1507 O 0.70647 0.49185 0.38674 0.0
H1508 H 0.7053 0.51498 0.38026 0.0
H1509 H 0.69738 0.53089 0.38304 0.0
H1510 H 0.72367 0.54741 0.36979 0.0
H1511 H 0.73164 0.53144 0.36722 0.0
H1512 H 0.76058 0.4888 0.35975 0.0
H1513 H 0.74347 0.49223 0.3659 0.0
H1514 H 0.74923 0.45612 0.35612 0.0
H1515 H 0.73233 0.45961 0.36243 0.0
H1516 H 0.68394 0.45461 0.37517 0.0
H1517 H 0.67233 0.47287 0.3995 0.0
H1518 H 0.68415 0.48805 0.39581 0.0
H1519 H 0.69577 0.46981 0.37153 0.0
C1520 C 0.77408 0.54632 0.63082 0.0
C1521 C 0.77432 0.53655 0.63408 0.0
C1522 C 0.75513 0.5343 0.63495 0.0
C1523 C 0.76496 0.53063 0.63617 0.0
C1524 C 0.75494 0.54416 0.63178 0.0
C1525 C 0.76435 0.55012 0.62972 0.0
U1526 U 0.80243 0.54626 0.62519 0.0
O1527 O 0.81201 0.55316 0.61384 0.0
O1528 O 0.81703 0.5569 0.62981 0.0
C1529 C 0.81881 0.55874 0.6206 0.0
C1530 C 0.78395 0.55224 0.62821 0.0
C1531 C 0.82196 0.56958 0.61892 0.0
C1532 C 0.8235 0.58799 0.62414 0.0
C1533 C 0.81927 0.57782 0.62527 0.0
C1534 C 0.83275 0.5818 0.61006 0.0
C1535 C 0.83049 0.59006 0.61666 0.0
C1536 C 0.82855 0.57167 0.6112 0.0
C1537 C 0.81294 0.52035 0.62576 0.0
C1538 C 0.83145 0.51779 0.62789 0.0
C1539 C 0.81813 0.5035 0.62122 0.0
C1540 C 0.81029 0.50996 0.62201 0.0
C1541 C 0.82879 0.50733 0.62422 0.0
C1542 C 0.8236 0.52427 0.6286 0.0
C1543 C 0.80446 0.52689 0.62674 0.0
O1544 O 0.79182 0.55348 0.63517 0.0
O1545 O 0.78686 0.54945 0.61927 0.0
O1546 O 0.80096 0.53015 0.61843 0.0
O1547 O 0.80571 0.53404 0.63441 0.0
H1548 H 0.78176 0.53347 0.63495 0.0
H1549 H 0.76545 0.52316 0.63876 0.0
H1550 H 0.7475 0.54718 0.63068 0.0
H1551 H 0.76402 0.55762 0.62714 0.0
H1552 H 0.82164 0.59417 0.62938 0.0
H1553 H 0.81417 0.5764 0.63128 0.0
H1554 H 0.83795 0.58314 0.60411 0.0
H1555 H 0.83071 0.56543 0.60621 0.0
H1556 H 0.83962 0.52097 0.63016 0.0
H1557 H 0.81582 0.49545 0.61847 0.0
H1558 H 0.80211 0.50681 0.61978 0.0
H1559 H 0.82584 0.53231 0.63143 0.0
C1560 C 0.50751 0.14124 0.26996 0.0
C1561 C 0.50039 0.14851 0.27091 0.0
C1562 C 0.49684 0.14392 0.28758 0.0
C1563 C 0.49513 0.14987 0.27966 0.0
C1564 C 0.50416 0.1368 0.28663 0.0
C1565 C 0.50944 0.13548 0.27789 0.0
U1566 U 0.50802 0.14314 0.24217 0.0
O1567 O 0.52122 0.14575 0.23253 0.0
O1568 O 0.51004 0.1314 0.22988 0.0
C1569 C 0.51891 0.13656 0.22751 0.0
C1570 C 0.51237 0.13912 0.26049 0.0
C1571 C 0.52778 0.13055 0.22631 0.0
C1572 C 0.54356 0.12421 0.23291 0.0
C1573 C 0.53507 0.12984 0.23434 0.0
C1574 C 0.5374 0.1198 0.21549 0.0
C1575 C 0.54482 0.11915 0.22346 0.0
C1576 C 0.52897 0.12545 0.21691 0.0
C1577 C 0.48735 0.15663 0.22924 0.0
C1578 C 0.48615 0.15675 0.21122 0.0
C1579 C 0.47363 0.16476 0.22118 0.0
C1580 C 0.47863 0.16206 0.22985 0.0
C1581 C 0.47726 0.16205 0.21175 0.0
C1582 C 0.49115 0.15405 0.2199 0.0
C1583 C 0.49221 0.15341 0.23834 0.0
O1584 O 0.50638 0.1326 0.25381 0.0
O1585 O 0.51708 0.14723 0.25673 0.0
O1586 O 0.50191 0.15791 0.2411 0.0
O1587 O 0.49098 0.1434 0.23883 0.0
H1588 H 0.49876 0.15298 0.26482 0.0
H1589 H 0.48966 0.1555 0.28018 0.0
H1590 H 0.50555 0.13198 0.29249 0.0
H1591 H 0.51484 0.12978 0.27723 0.0
H1592 H 0.54911 0.12379 0.23921 0.0
H1593 H 0.53422 0.13367 0.24168 0.0
H1594 H 0.53823 0.11613 0.20808 0.0
H1595 H 0.52341 0.12592 0.21063 0.0
H1596 H 0.48908 0.15444 0.20408 0.0
H1597 H 0.4669 0.16896 0.22187 0.0
H1598 H 0.47562 0.16413 0.23702 0.0
H1599 H 0.49787 0.14982 0.21931 0.0
C1600 C 0.9778 0.9139 0.76793 0.0
C1601 C 0.97853 0.91471 0.7577 0.0
C1602 C 0.96376 0.92474 0.75757 0.0
C1603 C 0.97158 0.92007 0.75257 0.0
C1604 C 0.96304 0.92386 0.76784 0.0
C1605 C 0.97003 0.91849 0.77298 0.0
U1606 U 0.99992 0.89749 0.76713 0.0
O1607 O 0.01441 0.89784 0.77687 0.0
O1608 O 1.00263 0.88388 0.77473 0.0
C1609 C 0.01145 0.88862 0.77957 0.0
C1610 C 0.98512 0.90822 0.77327 0.0
C1611 C 0.01276 0.88743 0.79034 0.0
C1612 C 0.01793 0.89455 0.80755 0.0
C1613 C 0.01549 0.89598 0.79757 0.0
C1614 C 0.01451 0.87605 0.80331 0.0
C1615 C 0.01767 0.88456 0.8105 0.0
C1616 C 0.01213 0.87748 0.79334 0.0
C1617 C 0.01075 0.89069 0.74196 0.0
C1618 C 0.02628 0.88188 0.74054 0.0
C1619 C 0.01683 0.88596 0.72565 0.0
C1620 C 0.00964 0.89043 0.73155 0.0
C1621 C 0.02528 0.88168 0.73007 0.0
C1622 C 0.01906 0.88634 0.74644 0.0
C1623 C 1.00332 0.89569 0.74807 0.0
O1624 O 0.98347 0.89815 0.77103 0.0
O1625 O 0.99519 0.9121 0.77354 0.0
O1626 O 1.00767 0.90356 0.7544 0.0
O1627 O 0.99621 0.88942 0.75199 0.0
H1628 H 0.98445 0.91114 0.75367 0.0
H1629 H 0.97224 0.92044 0.74464 0.0
H1630 H 0.95717 0.92743 0.77192 0.0
H1631 H 0.96937 0.91794 0.78088 0.0
H1632 H 0.02043 0.90129 0.81286 0.0
H1633 H 0.01607 0.90376 0.7955 0.0
H1634 H 0.01405 0.86825 0.80534 0.0
H1635 H 0.01006 0.87077 0.78791 0.0
H1636 H 0.03263 0.87856 0.74417 0.0
H1637 H 0.01591 0.88606 0.71762 0.0
H1638 H 1.00328 0.89379 0.72799 0.0
H1639 H 0.02 0.88645 0.75449 0.0
C1640 C 0.51147 0.89273 0.28866 0.0
C1641 C 0.51361 0.89048 0.29846 0.0
C1642 C 0.53174 0.89911 0.29852 0.0
C1643 C 0.52366 0.8936 0.30333 0.0
C1644 C 0.52952 0.90138 0.2887 0.0
C1645 C 0.51946 0.89821 0.28382 0.0
U1646 U 0.48232 0.883 0.28977 0.0
O1647 O 0.46814 0.88741 0.28217 0.0
O1648 O 0.47152 0.87145 0.2798 0.0
C1649 C 0.4656 0.87829 0.27706 0.0
C1650 C 0.50089 0.88951 0.28355 0.0
C1651 C 0.46371 0.8784 0.26624 0.0
C1652 C 0.46979 0.88292 0.25032 0.0
C1653 C 0.47176 0.8826 0.26058 0.0
C1654 C 0.45176 0.8747 0.25127 0.0
C1655 C 0.45975 0.87903 0.24555 0.0
C1656 C 0.45373 0.8744 0.26153 0.0
C1657 C 0.47178 0.87858 0.31509 0.0
C1658 C 0.45368 0.87083 0.3168 0.0
C1659 C 0.46458 0.8793 0.33137 0.0
C1660 C 0.47299 0.88158 0.32539 0.0
C1661 C 0.45481 0.87396 0.32713 0.0
C1662 C 0.46209 0.87317 0.31081 0.0
C1663 C 0.48053 0.88152 0.30887 0.0
O1664 O 0.4972 0.87969 0.28351 0.0
O1665 O 0.49382 0.89565 0.28575 0.0
O1666 O 0.48005 0.89012 0.3048 0.0
O1667 O 0.48315 0.87406 0.30267 0.0
H1668 H 0.50751 0.88628 0.30233 0.0
H1669 H 0.52512 0.89157 0.31082 0.0
H1670 H 0.53551 0.90571 0.28482 0.0
H1671 H 0.5179 0.90007 0.27627 0.0
H1672 H 0.47614 0.88619 0.24611 0.0
H1673 H 0.47954 0.88567 0.26411 0.0
H1674 H 0.44391 0.87175 0.24785 0.0
H1675 H 0.44743 0.87115 0.26581 0.0
H1676 H 0.44622 0.86681 0.31331 0.0
H1677 H 0.46573 0.88172 0.33932 0.0
H1678 H 0.48042 0.88579 0.3288 0.0
H1679 H 0.46099 0.87087 0.30284 0.0
C1680 C 0.8478 0.72298 0.04083 0.0
C1681 C 0.84501 0.72273 0.05072 0.0
C1682 C 0.84767 0.74149 0.05326 0.0
C1683 C 0.84492 0.73189 0.05687 0.0
C1684 C 0.85019 0.7417 0.04325 0.0
C1685 C 0.85028 0.7325 0.03709 0.0
U1686 U 0.84824 0.69444 0.03947 0.0
O1687 O 0.84182 0.68163 0.02805 0.0
O1688 O 0.8589 0.68447 0.03254 0.0
C1689 C 0.8513 0.67924 0.02632 0.0
C1690 C 0.84878 0.71333 0.03472 0.0
C1691 C 0.8537 0.67794 0.01577 0.0
C1692 C 0.86303 0.68384 1.00174 0.0
C1693 C 0.86025 0.68558 0.01158 0.0
C1694 C 0.85243 0.66699 1.00004 0.0
C1695 C 0.85924 0.67448 0.9959 0.0
C1696 C 0.84972 0.6687 0.0099 0.0
C1697 C 0.84475 0.68219 0.06379 0.0
C1698 C 0.84807 0.66471 0.06568 0.0
C1699 C 0.84193 0.67507 0.07947 0.0
C1700 C 0.84171 0.68321 0.0736 0.0
C1701 C 0.84521 0.66575 0.07562 0.0
C1702 C 0.84783 0.67287 0.05981 0.0
C1703 C 0.8451 0.69107 0.05798 0.0
O1704 O 0.85735 0.70926 0.03705 0.0
O1705 O 0.84014 0.70654 0.03346 0.0
O1706 O 0.83732 0.69069 0.05106 0.0
O1707 O 0.85446 0.69427 0.05496 0.0
H1708 H 0.8431 0.71543 0.05373 0.0
H1709 H 0.8428 0.73146 0.06449 0.0
H1710 H 0.85244 0.74896 0.04029 0.0
H1711 H 0.85252 0.73282 0.02949 0.0
H1712 H 0.8682 0.68979 0.99871 0.0
H1713 H 0.86334 0.69282 0.01596 0.0
H1714 H 0.84946 0.65966 0.99577 0.0
H1715 H 0.84466 0.66272 0.01301 0.0
H1716 H 0.85052 0.65759 0.06247 0.0
H1717 H 0.83981 0.67617 0.08713 0.0
H1718 H 0.83936 0.69039 0.07679 0.0
H1719 H 0.85018 0.67196 0.05221 0.0
C1720 C 0.59747 0.29649 0.52436 0.0
C1721 C 0.5933 0.3058 0.52386 0.0
C1722 C 0.5929 0.30352 0.50571 0.0
C1723 C 0.59098 0.30926 0.51462 0.0
C1724 C 0.59696 0.29412 0.50624 0.0
C1725 C 0.59921 0.29064 0.51551 0.0
U1726 U 0.60578 0.3038 0.55161 0.0
O1727 O 0.6017 0.2964 0.5651 0.0
O1728 O 0.61833 0.29924 0.5614 0.0
C1729 C 0.61156 0.29498 0.56729 0.0
C1730 C 0.60067 0.29326 0.5341 0.0
C1731 C 0.6131 0.2846 0.56972 0.0
C1732 C 0.61777 0.26749 0.56519 0.0
C1733 C 0.61586 0.27714 0.56252 0.0
C1734 C 0.6139 0.27258 0.5822 0.0
C1735 C 0.61686 0.26513 0.57509 0.0
C1736 C 0.61205 0.28222 0.57954 0.0
C1737 C 0.60772 0.33243 0.56106 0.0
C1738 C 0.61501 0.33954 0.57772 0.0
C1739 C 0.60823 0.35067 0.56633 0.0
C1740 C 0.60561 0.34223 0.55907 0.0
C1741 C 0.61305 0.34945 0.57571 0.0
C1742 C 0.61237 0.33109 0.57044 0.0
C1743 C 0.60531 0.32378 0.55317 0.0
O1744 O 0.61052 0.29669 0.5374 0.0
O1745 O 0.59388 0.29417 0.54101 0.0
O1746 O 0.59701 0.31704 0.55431 0.0
O1747 O 0.61352 0.31949 0.55029 0.0
H1748 H 0.59204 0.31052 0.53063 0.0
H1749 H 0.58802 0.31659 0.51447 0.0
H1750 H 0.59846 0.2895 0.4995 0.0
H1751 H 0.60249 0.28347 0.51576 0.0
H1752 H 0.61993 0.26187 0.55952 0.0
H1753 H 0.61665 0.27881 0.55487 0.0
H1754 H 0.61326 0.27107 0.58991 0.0
H1755 H 0.60994 0.28789 0.5852 0.0
H1756 H 0.61879 0.33835 0.58483 0.0
H1757 H 0.60645 0.35815 0.56459 0.0
H1758 H 0.60199 0.34338 0.55187 0.0
H1759 H 0.61407 0.32355 0.57208 0.0
C1760 C 0.25549 0.50839 0.12549 0.0
C1761 C 0.25526 0.49948 0.13045 0.0
C1762 C 0.27438 0.49999 0.12962 0.0
C1763 C 0.26461 0.49537 0.13255 0.0
C1764 C 0.27455 0.50892 0.12464 0.0
C1765 C 0.26519 0.51308 0.12262 0.0
U1766 U 0.22596 0.50393 0.11854 0.0
O1767 O 0.21295 0.51203 0.12369 0.0
O1768 O 0.21608 0.51085 0.1078 0.0
C1769 C 0.21057 0.51476 0.1148 0.0
C1770 C 0.24561 0.51259 0.12298 0.0
C1771 C 0.20901 0.52562 0.1145 0.0
C1772 C 0.21333 0.5438 0.12058 0.0
C1773 C 0.21558 0.53365 0.12038 0.0
C1774 C 0.19817 0.53803 0.10874 0.0
C1775 C 0.20451 0.54608 0.11485 0.0
C1776 C 0.2004 0.5279 0.10859 0.0
C1777 C 0.21194 0.4763 0.11602 0.0
C1778 C 0.19295 0.47222 0.11189 0.0
C1779 C 0.20338 0.45861 0.11516 0.0
C1780 C 0.21253 0.46585 0.1168 0.0
C1781 C 0.19347 0.46171 0.11271 0.0
C1782 C 0.20212 0.47946 0.11354 0.0
C1783 C 0.2216 0.48382 0.11797 0.0
O1784 O 0.24157 0.51004 0.11374 0.0
O1785 O 0.23845 0.51187 0.1296 0.0
O1786 O 0.22198 0.4901 0.12622 0.0
O1787 O 0.22472 0.4885 0.11027 0.0
H1788 H 0.24784 0.49567 0.13267 0.0
H1789 H 0.26417 0.48858 0.13652 0.0
H1790 H 0.28188 0.5126 0.12212 0.0
H1791 H 0.26551 0.51991 0.1187 0.0
H1792 H 0.21843 0.54985 0.12527 0.0
H1793 H 0.22231 0.53204 0.12496 0.0
H1794 H 0.19125 0.53948 0.10434 0.0
H1795 H 0.19523 0.52179 0.10403 0.0
H1796 H 0.18547 0.47484 0.10991 0.0
H1797 H 0.20404 0.45062 0.116 0.0
H1798 H 0.22005 0.46331 0.11876 0.0
H1799 H 0.20155 0.48752 0.1129 0.0
C1800 C 0.30984 0.52346 0.86076 0.0
C1801 C 0.32046 0.52611 0.85873 0.0
C1802 C 0.31989 0.54395 0.86526 0.0
C1803 C 0.32542 0.53627 0.8609 0.0
C1804 C 0.30922 0.54124 0.86726 0.0
C1805 C 0.30424 0.53107 0.86502 0.0
U1806 U 0.31217 0.49503 0.85722 0.0
O1807 O 0.3031 0.48177 0.86294 0.0
O1808 O 0.30348 0.48239 0.84675 0.0
C1809 C 0.29923 0.47764 0.85397 0.0
C1810 C 0.30472 0.51271 0.85882 0.0
C1811 C 0.28764 0.47485 0.85278 0.0
C1812 C 0.26992 0.47852 0.85613 0.0
C1813 C 0.28091 0.48145 0.85701 0.0
C1814 C 0.27226 0.46253 0.84648 0.0
C1815 C 0.26549 0.469 0.85091 0.0
C1816 C 0.28326 0.46543 0.84744 0.0
C1817 C 0.33975 0.48689 0.85933 0.0
C1818 C 0.34241 0.46912 0.86064 0.0
C1819 C 0.35754 0.48219 0.85988 0.0
C1820 C 0.35073 0.48964 0.85921 0.0
C1821 C 0.35347 0.47187 0.86071 0.0
C1822 C 0.3356 0.47657 0.85993 0.0
C1823 C 0.33276 0.4949 0.85925 0.0
O1824 O 0.30645 0.50784 0.8502 0.0
O1825 O 0.30564 0.50719 0.86634 0.0
O1826 O 0.32676 0.49549 0.86683 0.0
O1827 O 0.32763 0.49551 0.85063 0.0
H1828 H 0.32494 0.52032 0.8555 0.0
H1829 H 0.33358 0.5381 0.8591 0.0
H1830 H 0.30476 0.54692 0.87073 0.0
H1831 H 0.29606 0.52912 0.86672 0.0
H1832 H 0.26488 0.48371 0.85952 0.0
H1833 H 0.28415 0.48882 0.86108 0.0
H1834 H 0.26907 0.45511 0.84249 0.0
H1835 H 0.28834 0.46026 0.84411 0.0
H1836 H 0.33903 0.46121 0.86115 0.0
H1837 H 0.36602 0.48458 0.86002 0.0
H1838 H 0.35404 0.49759 0.85878 0.0
H1839 H 0.32712 0.47431 0.86 0.0
C1840 C 0.27747 0.46927 0.65375 0.0
C1841 C 0.28771 0.47017 0.65037 0.0
C1842 C 0.28697 0.45149 0.64851 0.0
C1843 C 0.29241 0.46138 0.64777 0.0
C1844 C 0.27667 0.45063 0.65188 0.0
C1845 C 0.27196 0.45947 0.6545 0.0
U1846 U 0.27978 0.49819 0.65651 0.0
O1847 O 0.26874 0.5088 0.65239 0.0
O1848 O 0.27474 0.50923 0.66805 0.0
C1849 C 0.26821 0.51267 0.66169 0.0
C1850 C 0.27259 0.47858 0.65645 0.0
C1851 C 0.25749 0.51347 0.66489 0.0
C1852 C 0.23868 0.50704 0.66444 0.0
C1853 C 0.24895 0.50569 0.66192 0.0
C1854 C 0.24549 0.52379 0.67324 0.0
C1855 C 0.23683 0.51617 0.67003 0.0
C1856 C 0.25572 0.52245 0.67067 0.0
C1857 C 0.30541 0.51333 0.64991 0.0
C1858 C 0.3069 0.53176 0.64881 0.0
C1859 C 0.32231 0.52291 0.64687 0.0
C1860 C 0.31619 0.51361 0.64827 0.0
C1861 C 0.31771 0.53208 0.64705 0.0
C1862 C 0.30081 0.52246 0.65025 0.0
C1863 C 0.299 0.50347 0.65106 0.0
O1864 O 0.27707 0.48438 0.66447 0.0
O1865 O 0.27064 0.4839 0.64897 0.0
O1866 O 0.29063 0.50094 0.6447 0.0
O1867 O 0.297 0.5019 0.66028 0.0
H1868 H 0.29206 0.4777 0.64972 0.0
H1869 H 0.30028 0.46232 0.64504 0.0
H1870 H 0.2723 0.44314 0.65263 0.0
H1871 H 0.26404 0.45865 0.65711 0.0
H1872 H 0.23219 0.50099 0.66195 0.0
H1873 H 0.25018 0.49866 0.6575 0.0
H1874 H 0.24432 0.53095 0.67744 0.0
H1875 H 0.26222 0.52854 0.67302 0.0
H1876 H 0.30316 0.53871 0.64911 0.0
H1877 H 0.33058 0.52289 0.64543 0.0
H1878 H 0.31985 0.50661 0.64798 0.0
H1879 H 0.29249 0.52238 0.65157 0.0
C1880 C 0.22738 0.49849 0.34799 0.0
C1881 C 0.22812 0.50911 0.34724 0.0
C1882 C 0.24622 0.5094 0.34226 0.0
C1883 C 0.23744 0.51451 0.3444 0.0
C1884 C 0.24538 0.49872 0.34294 0.0
C1885 C 0.23602 0.4933 0.34578 0.0
U1886 U 0.20036 0.49939 0.35762 0.0
O1887 O 0.18518 0.48921 0.35411 0.0
O1888 O 0.19243 0.49179 0.36948 0.0
C1889 C 0.18476 0.48669 0.36328 0.0
C1890 C 0.21768 0.49294 0.35135 0.0
C1891 C 0.18227 0.47563 0.36425 0.0
C1892 C 0.18761 0.45873 0.36572 0.0
C1893 C 0.19021 0.46918 0.36441 0.0
C1894 C 0.16913 0.46112 0.36653 0.0
C1895 C 0.17704 0.45461 0.36688 0.0
C1896 C 0.17173 0.47152 0.36525 0.0
C1897 C 0.19062 0.52557 0.36143 0.0
C1898 C 0.17272 0.52738 0.3659 0.0
C1899 C 0.18574 0.54256 0.36589 0.0
C1900 C 0.1933 0.53631 0.36291 0.0
C1901 C 0.17536 0.53817 0.36741 0.0
C1902 C 0.18031 0.52113 0.36297 0.0
C1903 C 0.1987 0.51912 0.35839 0.0
O1904 O 0.21623 0.49512 0.36085 0.0
O1905 O 0.20906 0.49283 0.34547 0.0
O1906 O 0.19604 0.51263 0.35032 0.0
O1907 O 0.20334 0.515 0.36565 0.0
H1908 H 0.22153 0.51324 0.34898 0.0
H1909 H 0.23787 0.52276 0.34413 0.0
H1910 H 0.25196 0.49454 0.34127 0.0
H1911 H 0.23556 0.4851 0.34633 0.0
H1912 H 0.1939 0.45395 0.366 0.0
H1913 H 0.1984 0.47224 0.36364 0.0
H1914 H 0.16089 0.45816 0.36718 0.0
H1915 H 0.1655 0.47639 0.36508 0.0
H1916 H 0.16483 0.52376 0.36712 0.0
H1917 H 0.18798 0.55085 0.36687 0.0
H1918 H 0.20123 0.53986 0.36175 0.0
H1919 H 0.17814 0.51283 0.36192 0.0
H1920 H 0.07888 0.36067 0.09883 0.0
H1921 H 0.09704 0.38704 0.11618 0.0
H1922 H 0.1051 0.3777 0.08642 0.0
H1923 H 0.07247 0.3572 0.11327 0.0
C1924 C 0.0734 0.36423 0.11836 0.0
C1925 C 0.08539 0.36692 0.09968 0.0
C1926 C 0.09179 0.36837 0.09165 0.0
C1927 C 0.08725 0.37374 0.10854 0.0
C1928 C 0.09557 0.38193 0.10928 0.0
C1929 C 0.10215 0.38339 0.1014 0.0
C1930 C 0.10013 0.37661 0.09259 0.0
N1931 N 0.08092 0.37281 0.11684 0.0
H1932 H 0.96198 0.90144 0.39089 0.0
H1933 H 0.93678 0.91515 0.40456 0.0
H1934 H 0.94305 0.91959 0.37424 0.0
H1935 H 0.94858 0.91588 0.41838 0.0
C1936 C 0.95052 0.90805 0.41741 0.0
C1937 C 0.95559 0.90609 0.39044 0.0
C1938 C 0.95333 0.91048 0.38161 0.0
C1939 C 0.94986 0.90797 0.39884 0.0
C1940 C 0.94146 0.91391 0.39821 0.0
C1941 C 0.93898 0.91819 0.38938 0.0
C1942 C 0.94503 0.9165 0.38116 0.0
N1943 N 0.95251 0.90365 0.40776 0.0
H1944 H 0.40491 0.64853 0.62639 0.0
H1945 H 0.37627 0.62812 0.61635 0.0
H1946 H 0.39369 0.62391 0.6435 0.0
H1947 H 0.38148 0.6319 0.60117 0.0
C1948 C 0.38416 0.64013 0.60253 0.0
C1949 C 0.39916 0.64196 0.62742 0.0
C1950 C 0.40022 0.63671 0.63593 0.0
C1951 C 0.39069 0.63877 0.6202 0.0
C1952 C 0.38309 0.63036 0.62164 0.0
C1953 C 0.38407 0.62499 0.63006 0.0
C1954 C 0.39268 0.62821 0.63714 0.0
N1955 N 0.38988 0.64431 0.61172 0.0
H1956 H 0.58459 0.12839 0.90209 0.0
H1957 H 0.59586 0.10455 0.88314 0.0
H1958 H 0.60489 0.1085 0.9146 0.0
H1959 H 0.59532 0.11655 0.87203 0.0
C1960 C 0.58776 0.11922 0.87338 0.0
C1961 C 0.58922 0.12206 0.9012 0.0
C1962 C 0.59451 0.11893 0.90958 0.0
C1963 C 0.58994 0.11714 0.89162 0.0
C1964 C 0.59571 0.10874 0.89044 0.0
C1965 C 0.60107 0.10549 0.89871 0.0
C1966 C 0.60046 0.11069 0.90823 0.0
N1967 N 0.58462 0.12066 0.88331 0.0
H1968 H 0.08044 0.62777 0.39549 0.0
H1969 H 0.10135 0.60804 0.40726 0.0
H1970 H 0.09654 0.60847 0.37556 0.0
H1971 H 0.09064 0.60868 0.42005 0.0
C1972 C 0.08935 0.61671 0.42088 0.0
C1973 C 0.08571 0.62201 0.39426 0.0
C1974 C 0.08789 0.61858 0.38449 0.0
C1975 C 0.09036 0.61814 0.40251 0.0
C1976 C 0.09747 0.61089 0.40096 0.0
C1977 C 0.09971 0.60734 0.39124 0.0
C1978 C 0.09483 0.61118 0.38307 0.0
N1979 N 0.08804 0.62196 0.41226 0.0
H1980 H 0.58929 0.86661 0.61147 0.0
H1981 H 0.6058 0.89413 0.62828 0.0
H1982 H 0.61355 0.8858 0.5983 0.0
H1983 H 0.60292 0.88437 0.64108 0.0
C1984 C 0.59469 0.88099 0.63931 0.0
C1985 C 0.59523 0.87338 0.61196 0.0
C1986 C 0.60108 0.8755 0.60369 0.0
C1987 C 0.59705 0.87991 0.62094 0.0
C1988 C 0.60463 0.88879 0.62155 0.0
C1989 C 0.61058 0.891 0.6134 0.0
C1990 C 0.60874 0.88432 0.60451 0.0
N1991 N 0.59108 0.87748 0.62921 0.0
H1992 H 0.45323 0.38572 0.87508 0.0
H1993 H 0.42698 0.39823 0.88803 0.0
H1994 H 0.43516 0.40485 0.85872 0.0
H1995 H 0.43782 0.39827 0.90229 0.0
C1996 C 0.4401 0.39059 0.90107 0.0
C1997 C 0.44679 0.39031 0.87454 0.0
C1998 C 0.44498 0.39516 0.86589 0.0
C1999 C 0.44056 0.39165 0.88268 0.0
C2000 C 0.43215 0.39756 0.88198 0.0
C2001 C 0.43013 0.40233 0.87334 0.0
C2002 C 0.43662 0.40113 0.86538 0.0
N2003 N 0.44276 0.38684 0.89142 0.0
H2004 H 0.92355 0.15325 0.13144 0.0
H2005 H 0.89624 0.13099 0.12136 0.0
H2006 H 0.91378 0.12851 0.14893 0.0
H2007 H 0.90076 0.13536 0.10618 0.0
C2008 C 0.90297 0.14366 0.10761 0.0
C2009 C 0.91823 0.14638 0.13251 0.0
C2010 C 0.91961 0.1414 0.14114 0.0
C2011 C 0.90996 0.14259 0.12524 0.0
C2012 C 0.90291 0.13378 0.1267 0.0
C2013 C 0.90419 0.12871 0.13529 0.0
C2014 C 0.91257 0.13257 0.14244 0.0
N2015 N 0.9087 0.14803 0.11673 0.0
H2016 H 0.12925 0.06439 0.32295 0.0
H2017 H 0.14215 0.0733 0.35327 0.0
H2018 H 0.12112 0.09157 0.33955 0.0
H2019 H 0.14147 0.05554 0.35274 0.0
C2020 C 0.14509 0.05417 0.34572 0.0
C2021 C 0.12992 0.06964 0.32975 0.0
C2022 C 0.12454 0.07832 0.33019 0.0
C2023 C 0.13616 0.06766 0.33808 0.0
C2024 C 0.1371 0.07454 0.34689 0.0
C2025 C 0.1318 0.08325 0.34741 0.0
C2026 C 0.12554 0.08505 0.33905 0.0
N2027 N 0.14175 0.05897 0.33732 0.0
H2028 H 0.12539 0.85105 0.64536 0.0
H2029 H 0.09841 0.83776 0.65975 0.0
H2030 H 0.11151 0.86944 0.66788 0.0
H2031 H 0.10481 0.82303 0.65548 0.0
C2032 C 0.10791 0.82391 0.64824 0.0
C2033 C 0.11949 0.8518 0.65076 0.0
C2034 C 0.11945 0.86125 0.6566 0.0
C2035 C 0.11213 0.8432 0.652 0.0
C2036 C 0.10436 0.84421 0.65893 0.0
C2037 C 0.10416 0.85364 0.66477 0.0
C2038 C 0.11178 0.86207 0.6636 0.0
N2039 N 0.11258 0.83376 0.64599 0.0
H2040 H 0.36256 0.93353 0.84025 0.0
H2041 H 0.37982 0.9131 0.85567 0.0
H2042 H 0.35027 0.92059 0.86603 0.0
H2043 H 0.39392 0.92508 0.8506 0.0
C2044 C 0.39098 0.92406 0.84278 0.0
C2045 C 0.36328 0.92875 0.84629 0.0
C2046 C 0.35531 0.92771 0.85305 0.0
C2047 C 0.37222 0.92363 0.84728 0.0
C2048 C 0.37306 0.91725 0.85498 0.0
C2049 C 0.36517 0.91612 0.86178 0.0
C2050 C 0.35637 0.92142 0.86078 0.0
N2051 N 0.38011 0.92469 0.84027 0.0
H2052 H 0.39425 0.16916 0.09931 0.0
H2053 H 0.42081 0.18584 0.11794 0.0
H2054 H 0.40491 0.15749 0.12627 0.0
H2055 H 0.41525 0.19937 0.11147 0.0
C2056 C 0.41284 0.19659 0.10372 0.0
C2057 C 0.39964 0.16987 0.10593 0.0
C2058 C 0.39855 0.16234 0.11263 0.0
C2059 C 0.40745 0.17853 0.1079 0.0
C2060 C 0.41454 0.17939 0.11646 0.0
C2061 C 0.41358 0.17189 0.12319 0.0
C2062 C 0.40554 0.16343 0.12122 0.0
N2063 N 0.40802 0.1862 0.10113 0.0
H2064 H 0.15156 0.94818 0.17826 0.0
H2065 H 0.15743 0.93067 0.15093 0.0
H2066 H 0.13006 0.9211 0.1665 0.0
H2067 H 0.17458 0.93641 0.15673 0.0
C2068 C 0.1741 0.94445 0.15916 0.0
C2069 C 0.14927 0.9417 0.1726 0.0
C2070 C 0.14004 0.93477 0.17337 0.0
C2071 C 0.15578 0.9401 0.16471 0.0
C2072 C 0.15276 0.93172 0.15731 0.0
C2073 C 0.14345 0.92487 0.15789 0.0
C2074 C 0.13721 0.92642 0.16597 0.0
N2075 N 0.16522 0.9471 0.16427 0.0
H2076 H 0.34083 0.85885 0.403 0.0
H2077 H 0.36947 0.84716 0.39476 0.0
H2078 H 0.36024 0.87351 0.38194 0.0
H2079 H 0.36935 0.84351 0.41127 0.0
C2080 C 0.36113 0.84002 0.41126 0.0
C2081 C 0.34781 0.85933 0.39874 0.0
C2082 C 0.34962 0.86705 0.39229 0.0
C2083 C 0.35501 0.85226 0.39982 0.0
C2084 C 0.36397 0.85273 0.39416 0.0
C2085 C 0.36591 0.86039 0.38771 0.0
C2086 C 0.35871 0.86752 0.38685 0.0
N2087 N 0.35299 0.84463 0.40649 0.0
H2088 H 0.34839 0.08662 0.65957 0.0
H2089 H 0.36462 0.10883 0.64241 0.0
H2090 H 0.3331 0.09425 0.63253 0.0
H2091 H 0.37904 0.10193 0.6487 0.0
C2092 C 0.37718 0.10178 0.65645 0.0
C2093 C 0.34851 0.09092 0.65312 0.0
C2094 C 0.33965 0.08958 0.64617 0.0
C2095 C 0.35769 0.09756 0.65163 0.0
C2096 C 0.3578 0.10326 0.64333 0.0
C2097 C 0.34893 0.10217 0.63643 0.0
C2098 C 0.33995 0.0952 0.63785 0.0
N2099 N 0.36657 0.09861 0.65873 0.0
H2100 H 0.15417 0.14887 0.89364 0.0
H2101 H 0.13936 0.12969 0.86761 0.0
H2102 H 0.12902 0.15891 0.87599 0.0
H2103 H 0.14288 0.11709 0.87731 0.0
C2104 C 0.15094 0.11997 0.8803 0.0
C2105 C 0.14836 0.14759 0.8873 0.0
C2106 C 0.14185 0.15515 0.88546 0.0
C2107 C 0.14732 0.13828 0.88106 0.0
C2108 C 0.13991 0.13666 0.87271 0.0
C2109 C 0.13331 0.1441 0.87078 0.0
C2110 C 0.13435 0.1533 0.8772 0.0
N2111 N 0.15384 0.13069 0.8833 0.0
H2112 H 0.83423 0.34909 0.89714 0.0
H2113 H 0.86297 0.33876 0.88726 0.0
H2114 H 0.85106 0.36395 0.87456 0.0
H2115 H 0.85534 0.32371 0.89146 0.0
C2116 C 0.85147 0.32568 0.89821 0.0
C2117 C 0.84083 0.34975 0.89241 0.0
C2118 C 0.84168 0.35731 0.88572 0.0
C2119 C 0.84826 0.3428 0.89281 0.0
C2120 C 0.85694 0.34379 0.88679 0.0
C2121 C 0.8579 0.35132 0.8801 0.0
C2122 C 0.8502 0.35798 0.87956 0.0
N2123 N 0.84688 0.33498 0.89938 0.0
H2124 H 0.85348 0.57884 0.17197 0.0
H2125 H 0.86916 0.60103 0.15445 0.0
H2126 H 0.83661 0.58834 0.14666 0.0
H2127 H 0.88362 0.5934 0.15959 0.0
C2128 C 0.88223 0.5932 0.16744 0.0
C2129 C 0.85327 0.58339 0.16571 0.0
C2130 C 0.84392 0.58273 0.15948 0.0
C2131 C 0.8625 0.58972 0.16377 0.0
C2132 C 0.86224 0.59573 0.1557 0.0
C2133 C 0.85291 0.59531 0.14952 0.0
C2134 C 0.84384 0.58871 0.15142 0.0
N2135 N 0.87179 0.59023 0.17027 0.0
H2136 H 0.65573 0.65415 0.39809 0.0
H2137 H 0.6388 0.63693 0.37193 0.0
H2138 H 0.63042 0.66639 0.38266 0.0
H2139 H 0.6423 0.62356 0.38061 0.0
C2140 C 0.65059 0.62596 0.38313 0.0
C2141 C 0.64959 0.65348 0.39207 0.0
C2142 C 0.64332 0.66144 0.3912 0.0
C2143 C 0.64788 0.64454 0.38528 0.0
C2144 C 0.64006 0.64371 0.37733 0.0
C2145 C 0.63371 0.65156 0.37635 0.0
C2146 C 0.63539 0.66037 0.38332 0.0
N2147 N 0.65413 0.63649 0.38658 0.0
H2148 H 0.86133 0.44024 0.32885 0.0
H2149 H 0.87591 0.41798 0.34425 0.0
H2150 H 0.84809 0.42913 0.35507 0.0
H2151 H 0.8909 0.4273 0.33865 0.0
C2152 C 0.88793 0.42712 0.3309 0.0
C2153 C 0.86151 0.43543 0.33492 0.0
C2154 C 0.85377 0.43554 0.34194 0.0
C2155 C 0.86972 0.42936 0.33587 0.0
C2156 C 0.86991 0.42305 0.3437 0.0
C2157 C 0.86209 0.42289 0.35061 0.0
C2158 C 0.85412 0.42921 0.34971 0.0
N2159 N 0.8775 0.42943 0.32872 0.0
H2160 H 0.61505 0.55308 0.81908 0.0
H2161 H 0.62791 0.5633 0.84919 0.0
H2162 H 0.59962 0.57399 0.83796 0.0
H2163 H 0.64344 0.56192 0.84123 0.0
C2164 C 0.64122 0.55428 0.83722 0.0
C2165 C 0.61459 0.55752 0.82621 0.0
C2166 C 0.60623 0.56338 0.82765 0.0
C2167 C 0.62253 0.55756 0.83388 0.0
C2168 C 0.62197 0.56338 0.84313 0.0
C2169 C 0.61365 0.56923 0.84468 0.0
C2170 C 0.60581 0.56914 0.83693 0.0
N2171 N 0.63097 0.55166 0.83217 0.0
H2172 H 0.90346 0.64167 0.89889 0.0
H2173 H 0.89557 0.61376 0.87898 0.0
H2174 H 0.87615 0.61995 0.90321 0.0
H2175 H 0.91394 0.61575 0.87894 0.0
C2176 C 0.9154 0.62388 0.87789 0.0
C2177 C 0.89835 0.63444 0.89672 0.0
C2178 C 0.8895 0.63162 0.90213 0.0
C2179 C 0.90073 0.62795 0.88853 0.0
C2180 C 0.89396 0.6187 0.88547 0.0
C2181 C 0.88506 0.61578 0.89072 0.0
C2182 C 0.88295 0.62224 0.89908 0.0
N2183 N 0.90982 0.631 0.88334 0.0
H2184 H 0.06587 0.13113 0.614 0.0
H2185 H 0.08971 0.11424 0.60173 0.0
H2186 H 0.07628 0.10629 0.6288 0.0
H2187 H 0.09489 0.12932 0.59567 0.0
C2188 C 0.08742 0.13182 0.59337 0.0
C2189 C 0.07084 0.12508 0.61441 0.0
C2190 C 0.07006 0.11878 0.62224 0.0
C2191 C 0.07806 0.12367 0.60709 0.0
C2192 C 0.0844 0.11571 0.60752 0.0
C2193 C 0.08372 0.10935 0.61529 0.0
C2194 C 0.07655 0.11095 0.6226 0.0
N2195 N 0.07857 0.13019 0.59926 0.0
H2196 H 0.56918 0.35973 0.39734 0.0
H2197 H 0.59876 0.37502 0.41187 0.0
H2198 H 0.58651 0.38504 0.38469 0.0
H2199 H 0.59978 0.35825 0.4156 0.0
C2200 C 0.59183 0.35632 0.41799 0.0
C2201 C 0.576 0.36563 0.39755 0.0
C2202 C 0.57677 0.37243 0.39013 0.0
C2203 C 0.58403 0.36632 0.40523 0.0
C2204 C 0.59278 0.37414 0.4057 0.0
C2205 C 0.59367 0.38105 0.39839 0.0
C2206 C 0.58567 0.38004 0.39059 0.0
N2207 N 0.58302 0.35923 0.41254 0.0
H2208 H 0.4194 0.87986 0.12017 0.0
H2209 H 0.41423 0.90728 0.13834 0.0
H2210 H 0.40003 0.9009 0.10834 0.0
H2211 H 0.43146 0.9055 0.14448 0.0
C2212 C 0.42986 0.8974 0.14564 0.0
C2213 C 0.41586 0.88692 0.12104 0.0
C2214 C 0.4097 0.88976 0.11305 0.0
C2215 C 0.41775 0.89332 0.13009 0.0
C2216 C 0.41307 0.90244 0.13128 0.0
C2217 C 0.4067 0.90527 0.12344 0.0
C2218 C 0.40515 0.89891 0.11435 0.0
N2219 N 0.42405 0.89027 0.13802 0.0
H2220 H 0.9044 0.3996 0.61633 0.0
H2221 H 0.8998 0.42789 0.63329 0.0
H2222 H 0.88451 0.41989 0.60385 0.0
H2223 H 0.91623 0.42622 0.6405 0.0
C2224 C 0.91508 0.41803 0.64136 0.0
C2225 C 0.90095 0.40672 0.61686 0.0
C2226 C 0.89417 0.40888 0.60897 0.0
C2227 C 0.90323 0.41362 0.62555 0.0
C2228 C 0.89851 0.42273 0.62644 0.0
C2229 C 0.89163 0.42495 0.61868 0.0
C2230 C 0.88959 0.41804 0.60996 0.0
N2231 N 0.90974 0.41089 0.6335 0.0
H2232 H 0.42011 0.15018 0.3912 0.0
H2233 H 0.41267 0.12266 0.37061 0.0
H2234 H 0.39302 0.12799 0.39487 0.0
H2235 H 0.43202 0.12498 0.37294 0.0
C2236 C 0.43279 0.13276 0.37076 0.0
C2237 C 0.41504 0.143 0.38874 0.0
C2238 C 0.40637 0.13973 0.39418 0.0
C2239 C 0.41751 0.13674 0.38039 0.0
C2240 C 0.41093 0.1274 0.37718 0.0
C2241 C 0.40211 0.12417 0.3824 0.0
C2242 C 0.39993 0.13036 0.3909 0.0
N2243 N 0.42659 0.13994 0.37526 0.0
H2244 H 0.56901 0.63131 0.11794 0.0
H2245 H 0.59123 0.61207 0.10629 0.0
H2246 H 0.57945 0.60809 0.13502 0.0
H2247 H 0.59646 0.62598 0.09837 0.0
C2248 C 0.589 0.62859 0.09618 0.0
C2249 C 0.57378 0.62516 0.11878 0.0
C2250 C 0.57328 0.61989 0.12734 0.0
C2251 C 0.58041 0.62258 0.11126 0.0
C2252 C 0.58644 0.61446 0.11223 0.0
C2253 C 0.58609 0.60913 0.12076 0.0
C2254 C 0.5795 0.61193 0.12827 0.0
N2255 N 0.58061 0.62808 0.10269 0.0
H2256 H 0.0675 0.86412 0.90836 0.0
H2257 H 0.09775 0.87618 0.92378 0.0
H2258 H 0.08761 0.88877 0.89727 0.0
H2259 H 0.09665 0.85899 0.92669 0.0
C2260 C 0.08859 0.85774 0.929 0.0
C2261 C 0.07476 0.86953 0.90898 0.0
C2262 C 0.07666 0.8764 0.90173 0.0
C2263 C 0.08241 0.86924 0.91683 0.0
C2264 C 0.09189 0.87619 0.91765 0.0
C2265 C 0.09386 0.88318 0.91054 0.0
C2266 C 0.08621 0.88323 0.90264 0.0
N2267 N 0.0804 0.86189 0.92378 0.0
H2268 H 0.88988 0.97076 0.68777 0.0
H2269 H 0.8879 0.96176 0.65605 0.0
H2270 H 0.91136 0.95122 0.67517 0.0
H2271 H 0.88226 0.97779 0.65596 0.0
C2272 C 0.87675 0.97736 0.66181 0.0
C2273 C 0.89277 0.96666 0.68134 0.0
C2274 C 0.9013 0.96102 0.6826 0.0
C2275 C 0.88813 0.96728 0.67175 0.0
C2276 C 0.89177 0.9618 0.66341 0.0
C2277 C 0.90007 0.95588 0.66462 0.0
C2278 C 0.90488 0.9557 0.67421 0.0
N2279 N 0.87956 0.97312 0.67073 0.0
H2280 H 0.8731 0.16767 0.39006 0.0
H2281 H 0.89875 0.18622 0.37812 0.0
H2282 H 0.89065 0.1543 0.36701 0.0
H2283 H 0.8904 0.19919 0.38377 0.0
C2284 C 0.88674 0.19698 0.39044 0.0
C2285 C 0.87936 0.16837 0.38497 0.0
C2286 C 0.88102 0.1598 0.37846 0.0
C2287 C 0.88555 0.17798 0.3848 0.0
C2288 C 0.89372 0.17894 0.3782 0.0
C2289 C 0.89545 0.17046 0.37164 0.0
C2290 C 0.8891 0.16094 0.37185 0.0
N2291 N 0.8834 0.18641 0.39145 0.0
H2292 H 0.63537 0.06562 0.18683 0.0
H2293 H 0.6518 0.07284 0.16085 0.0
H2294 H 0.62591 0.08886 0.16921 0.0
H2295 H 0.6533 0.0553 0.16051 0.0
C2296 C 0.65607 0.05535 0.16829 0.0
C2297 C 0.63635 0.07004 0.18051 0.0
C2298 C 0.62958 0.07738 0.17873 0.0
C2299 C 0.64419 0.06813 0.17393 0.0
C2300 C 0.64551 0.07392 0.16574 0.0
C2301 C 0.639 0.08149 0.16407 0.0
C2302 C 0.63102 0.08308 0.17054 0.0
N2303 N 0.6509 0.06062 0.17588 0.0
H2304 H 0.63762 0.84473 0.90077 0.0
H2305 H 0.60757 0.83189 0.88537 0.0
H2306 H 0.62399 0.86031 0.87764 0.0
H2307 H 0.60499 0.82582 0.90047 0.0
C2308 C 0.61259 0.82329 0.90229 0.0
C2309 C 0.63129 0.84518 0.89517 0.0
C2310 C 0.6319 0.85348 0.88934 0.0
C2311 C 0.62249 0.83744 0.89391 0.0
C2312 C 0.61431 0.8379 0.88654 0.0
C2313 C 0.61478 0.84616 0.88065 0.0
C2314 C 0.62361 0.85389 0.88211 0.0
N2315 N 0.62213 0.82924 0.90005 0.0
H2316 H 0.85135 0.07145 0.83595 0.0
H2317 H 0.86958 0.09834 0.85251 0.0
H2318 H 0.8407 0.08464 0.86344 0.0
H2319 H 0.87353 0.10181 0.83705 0.0
C2320 C 0.87486 0.09438 0.83346 0.0
C2321 C 0.85246 0.07725 0.84236 0.0
C2322 C 0.84491 0.07718 0.84956 0.0
C2323 C 0.86121 0.08504 0.84317 0.0
C2324 C 0.86269 0.09248 0.85158 0.0
C2325 C 0.85525 0.09245 0.85886 0.0
C2326 C 0.84638 0.08481 0.85775 0.0
N2327 N 0.86839 0.08525 0.83546 0.0
H2328 H 0.65144 0.17116 0.61498 0.0
H2329 H 0.6396 0.15426 0.63864 0.0
H2330 H 0.62562 0.18072 0.63116 0.0
H2331 H 0.6577 0.15254 0.6404 0.0
C2332 C 0.6587 0.15007 0.63262 0.0
C2333 C 0.64595 0.17013 0.62076 0.0
C2334 C 0.63856 0.17706 0.62245 0.0
C2335 C 0.64658 0.16206 0.62673 0.0
C2336 C 0.6394 0.16065 0.63418 0.0
C2337 C 0.63185 0.16738 0.63586 0.0
C2338 C 0.63156 0.17562 0.63003 0.0
N2339 N 0.6543 0.15533 0.625 0.0
H2340 H 0.64171 0.92776 0.34842 0.0
H2341 H 0.65805 0.91416 0.37146 0.0
H2342 H 0.62505 0.90374 0.36328 0.0
H2343 H 0.6678 0.92998 0.3737 0.0
C2344 C 0.66871 0.93184 0.3661 0.0
C2345 C 0.64164 0.92231 0.35394 0.0
C2346 C 0.63225 0.9158 0.35516 0.0
C2347 C 0.65088 0.92205 0.36003 0.0
C2348 C 0.65083 0.91485 0.3671 0.0
C2349 C 0.64155 0.90817 0.36828 0.0
C2350 C 0.63228 0.9088 0.36236 0.0
N2351 N 0.66016 0.9289 0.35869 0.0
H2352 H 0.84841 0.85719 0.126 0.0
H2353 H 0.87747 0.84581 0.13429 0.0
H2354 H 0.8726 0.87638 0.14556 0.0
H2355 H 0.86652 0.83036 0.13172 0.0
C2356 C 0.86204 0.83133 0.12486 0.0
C2357 C 0.85611 0.85832 0.13013 0.0
C2358 C 0.85978 0.8678 0.13579 0.0
C2359 C 0.86232 0.85028 0.12969 0.0
C2360 C 0.87241 0.8518 0.13489 0.0
C2361 C 0.87621 0.86124 0.14056 0.0
C2362 C 0.86984 0.86918 0.14098 0.0
N2363 N 0.85844 0.84093 0.12362 0.0
H2364 H 0.14991 0.65966 0.11305 0.0
H2365 H 0.14175 0.64513 0.13928 0.0
H2366 H 0.12559 0.66996 0.13088 0.0
H2367 H 0.15939 0.64273 0.13924 0.0
C2368 C 0.15971 0.64008 0.13138 0.0
C2369 C 0.14524 0.65914 0.11949 0.0
C2370 C 0.13756 0.66577 0.12119 0.0
C2371 C 0.14693 0.6518 0.12605 0.0
C2372 C 0.1407 0.65093 0.1343 0.0
C2373 C 0.13299 0.65748 0.1361 0.0
C2374 C 0.13152 0.66488 0.12952 0.0
N2375 N 0.15463 0.64511 0.12398 0.0
H2376 H 0.13122 0.42237 0.83582 0.0
H2377 H 0.14667 0.40889 0.85942 0.0
H2378 H 0.11494 0.39624 0.84807 0.0
H2379 H 0.1544 0.42627 0.86306 0.0
C2380 C 0.15648 0.42752 0.85553 0.0
C2381 C 0.13103 0.41665 0.84108 0.0
C2382 C 0.12202 0.40925 0.84111 0.0
C2383 C 0.13985 0.4167 0.84779 0.0
C2384 C 0.13972 0.40916 0.8545 0.0
C2385 C 0.1308 0.40166 0.85458 0.0
C2386 C 0.12198 0.4018 0.84788 0.0
N2387 N 0.14894 0.4241 0.84732 0.0
H2388 H 0.33876 0.35964 0.6127 0.0
H2389 H 0.37013 0.35244 0.61976 0.0
H2390 H 0.35959 0.37877 0.63543 0.0
H2391 H 0.36824 0.34446 0.60444 0.0
C2392 C 0.35989 0.34141 0.60304 0.0
C2393 C 0.34635 0.36144 0.617 0.0
C2394 C 0.34817 0.36996 0.62434 0.0
C2395 C 0.35425 0.35517 0.61514 0.0
C2396 C 0.36402 0.35732 0.62089 0.0
C2397 C 0.36602 0.36587 0.62818 0.0
C2398 C 0.35806 0.37214 0.62984 0.0
N2399 N 0.35204 0.34668 0.60756 0.0
H2400 H 0.12204 0.56666 0.69715 0.0
H2401 H 0.13006 0.56835 0.66673 0.0
H2402 H 0.10923 0.58831 0.67959 0.0
H2403 H 0.13162 0.55108 0.66808 0.0
C2404 C 0.13626 0.55212 0.67522 0.0
C2405 C 0.12122 0.56999 0.69015 0.0
C2406 C 0.11492 0.5779 0.68933 0.0
C2407 C 0.12659 0.5664 0.68201 0.0
C2408 C 0.12574 0.57088 0.67298 0.0
C2409 C 0.11945 0.57878 0.67203 0.0
C2410 C 0.11406 0.58218 0.68024 0.0
N2411 N 0.13326 0.55869 0.68326 0.0
H2412 H 0.38616 0.44958 0.16942 0.0
H2413 H 0.38074 0.43938 0.13799 0.0
H2414 H 0.40609 0.42937 0.15528 0.0
H2415 H 0.37641 0.45634 0.13829 0.0
C2416 C 0.3712 0.456 0.14438 0.0
C2417 C 0.38832 0.44519 0.16279 0.0
C2418 C 0.39687 0.43949 0.16341 0.0
C2419 C 0.38275 0.44553 0.15357 0.0
C2420 C 0.3854 0.43962 0.14501 0.0
C2421 C 0.39371 0.43362 0.14559 0.0
C2422 C 0.39953 0.43382 0.15478 0.0
N2423 N 0.37431 0.45159 0.15311 0.0
H2424 H 0.63442 0.34871 0.13572 0.0
H2425 H 0.60876 0.3318 0.14915 0.0
H2426 H 0.61692 0.36436 0.15739 0.0
H2427 H 0.61844 0.31863 0.1458 0.0
C2428 C 0.62094 0.31991 0.13841 0.0
C2429 C 0.62824 0.34855 0.14092 0.0
C2430 C 0.62646 0.3577 0.14647 0.0
C2431 C 0.62204 0.33915 0.14195 0.0
C2432 C 0.6138 0.33895 0.14848 0.0
C2433 C 0.61194 0.34802 0.15411 0.0
C2434 C 0.61834 0.35733 0.15308 0.0
N2435 N 0.62402 0.33012 0.13605 0.0
H2436 H 0.89465 0.69474 0.61657 0.0
H2437 H 0.92149 0.70775 0.63685 0.0
H2438 H 0.90541 0.67756 0.63976 0.0
H2439 H 0.91706 0.72276 0.63247 0.0
C2440 C 0.91448 0.72109 0.6246 0.0
C2441 C 0.90004 0.69415 0.62294 0.0
C2442 C 0.89913 0.6851 0.62772 0.0
C2443 C 0.90796 0.70244 0.62624 0.0
C2444 C 0.91509 0.7016 0.63442 0.0
C2445 C 0.91426 0.6926 0.63928 0.0
C2446 C 0.90626 0.68442 0.63588 0.0
N2447 N 0.90882 0.71127 0.62089 0.0
H2448 H 0.64023 0.46364 0.66698 0.0
H2449 H 0.65155 0.44542 0.64262 0.0
H2450 H 0.622 0.43489 0.6544 0.0
H2451 H 0.66742 0.45317 0.64957 0.0
C2452 C 0.66601 0.46104 0.65164 0.0
C2453 C 0.63922 0.45677 0.66168 0.0
C2454 C 0.63011 0.44944 0.6615 0.0
C2455 C 0.64709 0.45532 0.65503 0.0
C2456 C 0.64569 0.44652 0.64796 0.0
C2457 C 0.63667 0.43909 0.64773 0.0
C2458 C 0.62896 0.44061 0.65454 0.0
N2459 N 0.65619 0.46293 0.65544 0.0
H2460 H 0.37052 0.65352 0.89126 0.0
H2461 H 0.39532 0.67239 0.87848 0.0
H2462 H 0.38766 0.64026 0.86786 0.0
H2463 H 0.3866 0.68518 0.8841 0.0
C2464 C 0.38338 0.683 0.89098 0.0
C2465 C 0.37659 0.65432 0.88598 0.0
C2466 C 0.37842 0.64572 0.87963 0.0
C2467 C 0.38254 0.66399 0.88558 0.0
C2468 C 0.39053 0.66503 0.87879 0.0
C2469 C 0.39233 0.65651 0.87229 0.0
C2470 C 0.38629 0.64688 0.87283 0.0
N2471 N 0.38037 0.67244 0.89221 0.0
H2472 H 0.13402 0.34559 0.3834 0.0
H2473 H 0.10459 0.3294 0.36915 0.0
H2474 H 0.11961 0.35635 0.3575 0.0
H2475 H 0.10233 0.3248 0.38446 0.0
C2476 C 0.11015 0.32347 0.38724 0.0
C2477 C 0.12769 0.3448 0.37754 0.0
C2478 C 0.12788 0.35192 0.37042 0.0
C2479 C 0.11928 0.3367 0.37722 0.0
C2480 C 0.11106 0.33565 0.36958 0.0
C2481 C 0.11107 0.34279 0.36248 0.0
C2482 C 0.11957 0.3508 0.36293 0.0
N2483 N 0.11935 0.32973 0.38465 0.0
H2484 H 0.34743 0.5766 0.326 0.0
H2485 H 0.36221 0.60448 0.34344 0.0
H2486 H 0.3346 0.5872 0.35341 0.0
H2487 H 0.36531 0.60872 0.32728 0.0
C2488 C 0.36834 0.60171 0.32448 0.0
C2489 C 0.34763 0.5822 0.33249 0.0
C2490 C 0.34 0.58082 0.33956 0.0
C2491 C 0.35552 0.5908 0.33373 0.0
C2492 C 0.35599 0.59795 0.34229 0.0
C2493 C 0.34846 0.59668 0.34942 0.0
C2494 C 0.34047 0.58815 0.34795 0.0
N2495 N 0.36307 0.59197 0.32643 0.0
H2496 H 0.17372 0.46369 0.11907 0.0
H2497 H 0.1579 0.45071 0.117 0.0
H2498 H 0.17534 0.42932 0.10086 0.0
H2499 H 0.19115 0.44227 0.10278 0.0
H2500 H 0.14687 0.43991 0.09916 0.0
H2501 H 0.16346 0.4135 0.12364 0.0
H2502 H 0.16925 0.42677 0.12358 0.0
H2503 H 0.17164 0.41718 0.11383 0.0
C2504 C 0.17416 0.45627 0.11499 0.0
C2505 C 0.18373 0.45399 0.11115 0.0
C2506 C 0.16513 0.44885 0.11386 0.0
C2507 C 0.16551 0.43902 0.10893 0.0
C2508 C 0.17495 0.4368 0.10488 0.0
H2509 H 0.12219 0.38248 0.09547 0.0
H2510 H 0.13717 0.39632 0.09708 0.0
C2511 C 0.18398 0.4442 0.106 0.0
C2512 C 0.15605 0.43105 0.10803 0.0
H2513 H 0.14706 0.40718 0.11449 0.0
C2514 C 0.14687 0.43278 0.10255 0.0
C2515 C 0.1561 0.42176 0.11248 0.0
C2516 C 0.1656 0.41969 0.11879 0.0
C2517 C 0.1378 0.42532 0.10117 0.0
C2518 C 0.13788 0.41599 0.10556 0.0
C2519 C 0.14704 0.41432 0.11111 0.0
C2520 C 0.12862 0.40777 0.10436 0.0
C2521 C 0.12833 0.42736 0.0948 0.0
C2522 C 0.11886 0.40959 0.10798 0.0
C2523 C 0.11024 0.40171 0.107 0.0
C2524 C 0.11125 0.39183 0.10242 0.0
C2525 C 0.12108 0.39003 0.09887 0.0
C2526 C 0.12968 0.39791 0.09985 0.0
H2527 H 0.13048 0.43358 0.08998 0.0
H2528 H 0.12474 0.42028 0.08997 0.0
H2529 H 0.12224 0.42982 0.09971 0.0
H2530 H 0.11793 0.41709 0.11166 0.0
H2531 H 0.10277 0.40337 0.10976 0.0
H2532 H 0.86899 0.97528 0.3658 0.0
H2533 H 0.88431 0.96649 0.3695 0.0
H2534 H 0.86496 0.94545 0.38574 0.0
H2535 H 0.84962 0.95424 0.38218 0.0
H2536 H 0.89368 0.96342 0.38841 0.0
H2537 H 0.87844 0.92632 0.36564 0.0
H2538 H 0.87281 0.93804 0.36426 0.0
H2539 H 0.86959 0.93073 0.3745 0.0
C2540 C 0.868 0.96882 0.37021 0.0
C2541 C 0.85806 0.96543 0.37365 0.0
C2542 C 0.87676 0.96379 0.37228 0.0
C2543 C 0.87572 0.95524 0.37777 0.0
C2544 C 0.86586 0.9519 0.38131 0.0
H2545 H 0.91915 0.91372 0.39598 0.0
H2546 H 0.90398 0.92315 0.39389 0.0
C2547 C 0.8571 0.95693 0.37926 0.0
C2548 C 0.885 0.9499 0.37989 0.0
H2549 H 0.89432 0.92679 0.37579 0.0
C2550 C 0.89385 0.95542 0.38564 0.0
C2551 C 0.88516 0.93946 0.37628 0.0
C2552 C 0.87604 0.93329 0.36975 0.0
C2553 C 0.90282 0.95072 0.38798 0.0
C2554 C 0.903 0.94029 0.38433 0.0
C2555 C 0.89414 0.93477 0.37861 0.0
C2556 C 0.91239 0.93499 0.38614 0.0
C2557 C 0.91195 0.9569 0.39449 0.0
C2558 C 0.92213 0.93853 0.38248 0.0
C2559 C 0.93083 0.9332 0.38372 0.0
C2560 C 0.92992 0.92418 0.38859 0.0
C2561 C 0.92016 0.92072 0.39233 0.0
C2562 C 0.91147 0.92605 0.39108 0.0
H2563 H 0.90944 0.96366 0.39887 0.0
H2564 H 0.91546 0.95207 0.39975 0.0
H2565 H 0.91821 0.95981 0.3897 0.0
H2566 H 0.92297 0.9453 0.37849 0.0
H2567 H 0.93825 0.93611 0.38082 0.0
H2568 H 0.31199 0.54661 0.6354 0.0
H2569 H 0.32274 0.56257 0.63208 0.0
H2570 H 0.34857 0.55575 0.65129 0.0
H2571 H 0.3379 0.53976 0.65462 0.0
H2572 H 0.3318 0.57941 0.64487 0.0
H2573 H 0.36275 0.5608 0.62562 0.0
H2574 H 0.35028 0.55369 0.62818 0.0
H2575 H 0.36086 0.55694 0.63786 0.0
C2576 C 0.31994 0.54854 0.63897 0.0
C2577 C 0.32412 0.5419 0.64523 0.0
C2578 C 0.32608 0.55764 0.63703 0.0
C2579 C 0.33651 0.56026 0.6413 0.0
C2580 C 0.34063 0.55375 0.64772 0.0
H2581 H 0.37553 0.61982 0.64736 0.0
H2582 H 0.3636 0.60429 0.64977 0.0
C2583 C 0.33452 0.54463 0.64962 0.0
C2584 C 0.34303 0.56985 0.63912 0.0
H2585 H 0.36639 0.57897 0.62986 0.0
C2586 C 0.33934 0.57932 0.64154 0.0
C2587 C 0.35278 0.5697 0.63463 0.0
C2588 C 0.35687 0.55973 0.63132 0.0
C2589 C 0.34526 0.58867 0.63981 0.0
C2590 C 0.35522 0.58854 0.63571 0.0
C2591 C 0.35879 0.57905 0.63308 0.0
C2592 C 0.36214 0.59814 0.63419 0.0
C2593 C 0.34073 0.59858 0.64226 0.0
C2594 C 0.36546 0.59976 0.62466 0.0
C2595 C 0.37242 0.60856 0.62328 0.0
C2596 C 0.37624 0.61589 0.63143 0.0
C2597 C 0.37282 0.61428 0.64095 0.0
C2598 C 0.36589 0.60547 0.64232 0.0
H2599 H 0.33196 0.59717 0.64251 0.0
H2600 H 0.34413 0.60222 0.64973 0.0
H2601 H 0.34272 0.60409 0.63671 0.0
H2602 H 0.36273 0.59416 0.61829 0.0
H2603 H 0.37502 0.60948 0.61588 0.0
H2604 H 0.65016 0.02624 0.87886 0.0
H2605 H 0.63899 0.04004 0.87933 0.0
H2606 H 0.65689 0.05501 0.90614 0.0
H2607 H 0.66817 0.0413 0.90563 0.0
H2608 H 0.62614 0.0461 0.89329 0.0
H2609 H 0.65742 0.07846 0.88892 0.0
H2610 H 0.65952 0.06515 0.88679 0.0
H2611 H 0.66046 0.07155 0.8993 0.0
C2612 C 0.65171 0.03247 0.88485 0.0
C2613 C 0.66007 0.03272 0.89218 0.0
C2614 C 0.64534 0.04036 0.8851 0.0
C2615 C 0.64721 0.04865 0.89267 0.0
C2616 C 0.65547 0.04884 0.90007 0.0
H2617 H 0.60274 0.09019 0.91089 0.0
H2618 H 0.61378 0.07638 0.90913 0.0
C2619 C 0.6619 0.04099 0.89979 0.0
C2620 C 0.64032 0.05692 0.89297 0.0
H2621 H 0.64079 0.08299 0.89377 0.0
C2622 C 0.62933 0.05416 0.89334 0.0
C2623 C 0.64447 0.06742 0.89287 0.0
C2624 C 0.6561 0.07083 0.89184 0.0
C2625 C 0.62241 0.06164 0.89382 0.0
C2626 C 0.62663 0.07218 0.89418 0.0
C2627 C 0.63758 0.07492 0.8936 0.0
C2628 C 0.61983 0.08052 0.8952 0.0
C2629 C 0.61064 0.05815 0.89377 0.0
C2630 C 0.61978 0.08762 0.8881 0.0
C2631 C 0.61364 0.09567 0.88919 0.0
C2632 C 0.60743 0.09678 0.89742 0.0
C2633 C 0.6075 0.08963 0.90451 0.0
C2634 C 0.61369 0.08163 0.90344 0.0
H2635 H 0.60851 0.05001 0.89046 0.0
H2636 H 0.60827 0.05865 0.90157 0.0
H2637 H 0.606 0.06307 0.88953 0.0
H2638 H 0.62453 0.08696 0.88172 0.0
H2639 H 0.61392 0.10113 0.88367 0.0
H2640 H 0.17803 0.55495 0.38147 0.0
H2641 H 0.16492 0.56621 0.38629 0.0
H2642 H 0.14152 0.54787 0.36515 0.0
H2643 H 0.15457 0.53656 0.36032 0.0
H2644 H 0.15436 0.57795 0.37453 0.0
H2645 H 0.1256 0.54964 0.39036 0.0
H2646 H 0.13885 0.54719 0.38783 0.0
H2647 H 0.12857 0.54558 0.37786 0.0
C2648 C 0.17009 0.55332 0.37785 0.0
C2649 C 0.16733 0.54485 0.37053 0.0
C2650 C 0.1626 0.55973 0.38064 0.0
C2651 C 0.1522 0.55779 0.3762 0.0
C2652 C 0.14942 0.54936 0.36886 0.0
H2653 H 0.09739 0.59021 0.37762 0.0
H2654 H 0.11026 0.57824 0.37428 0.0
C2655 C 0.15689 0.54292 0.3661 0.0
C2656 C 0.14442 0.56486 0.37891 0.0
H2657 H 0.11994 0.56579 0.38777 0.0
C2658 C 0.14687 0.57531 0.3775 0.0
C2659 C 0.13464 0.56139 0.38277 0.0
C2660 C 0.13178 0.55036 0.38489 0.0
C2661 C 0.13972 0.58235 0.37964 0.0
C2662 C 0.12992 0.57886 0.38341 0.0
C2663 C 0.12747 0.56842 0.38486 0.0
C2664 C 0.12204 0.58592 0.38572 0.0
C2665 C 0.14258 0.59341 0.37762 0.0
C2666 C 0.12434 0.59408 0.39338 0.0
C2667 C 0.11702 0.60095 0.39529 0.0
C2668 C 0.10727 0.59975 0.38958 0.0
C2669 C 0.1049 0.59142 0.38206 0.0
C2670 C 0.11221 0.58454 0.38018 0.0
H2671 H 0.1493 0.59434 0.37274 0.0
H2672 H 0.13567 0.59632 0.37402 0.0
H2673 H 0.14496 0.59827 0.3848 0.0
H2674 H 0.13184 0.59519 0.39783 0.0
H2675 H 0.1191 0.60732 0.40109 0.0
H2676 H 0.68277 0.96933 0.60786 0.0
H2677 H 0.6671 0.95614 0.60587 0.0
H2678 H 0.67578 0.9463 0.63441 0.0
H2679 H 0.6913 0.95959 0.63656 0.0
H2680 H 0.66683 0.93448 0.60581 0.0
H2681 H 0.64446 0.95056 0.63636 0.0
H2682 H 0.65532 0.9581 0.63125 0.0
H2683 H 0.65793 0.94921 0.64009 0.0
C2684 C 0.68127 0.96444 0.61377 0.0
C2685 C 0.68827 0.96552 0.62238 0.0
C2686 C 0.67235 0.95688 0.6126 0.0
C2687 C 0.67022 0.95034 0.62006 0.0
C2688 C 0.67719 0.95138 0.62864 0.0
H2689 H 0.62523 0.89787 0.62905 0.0
H2690 H 0.63936 0.91253 0.63025 0.0
C2691 C 0.68612 0.95891 0.62981 0.0
C2692 C 0.66092 0.94217 0.61873 0.0
H2693 H 0.63819 0.9334 0.62924 0.0
C2694 C 0.66051 0.93428 0.61087 0.0
C2695 C 0.65271 0.94195 0.62536 0.0
C2696 C 0.65254 0.95045 0.63369 0.0
C2697 C 0.65226 0.92595 0.60964 0.0
C2698 C 0.64412 0.92565 0.61635 0.0
C2699 C 0.64445 0.93364 0.62412 0.0
C2700 C 0.63535 0.91695 0.61562 0.0
C2701 C 0.65254 0.91738 0.60138 0.0
C2702 C 0.62829 0.91468 0.60706 0.0
C2703 C 0.62019 0.90631 0.60636 0.0
C2704 C 0.61895 0.90012 0.61425 0.0
C2705 C 0.6259 0.90255 0.62289 0.0
C2706 C 0.63401 0.9109 0.62357 0.0
H2707 H 0.66055 0.91753 0.5985 0.0
H2708 H 0.65019 0.90973 0.604 0.0
H2709 H 0.64686 0.91829 0.59508 0.0
H2710 H 0.62903 0.9194 0.60094 0.0
H2711 H 0.61486 0.90474 0.59968 0.0
H2712 H 0.35231 0.45704 0.8736 0.0
H2713 H 0.36481 0.44478 0.87624 0.0
H2714 H 0.38357 0.45682 0.85335 0.0
H2715 H 0.37113 0.46913 0.85069 0.0
H2716 H 0.37115 0.42946 0.86339 0.0
H2717 H 0.40529 0.4591 0.87717 0.0
H2718 H 0.39186 0.46202 0.87589 0.0
H2719 H 0.39951 0.46094 0.86513 0.0
C2720 C 0.35904 0.45702 0.86907 0.0
C2721 C 0.36077 0.4641 0.86198 0.0
C2722 C 0.3662 0.45004 0.87061 0.0
C2723 C 0.37522 0.45002 0.86512 0.0
C2724 C 0.37681 0.45688 0.85785 0.0
H2725 H 0.41614 0.40287 0.85726 0.0
H2726 H 0.4025 0.41415 0.85572 0.0
C2727 C 0.36968 0.46389 0.85632 0.0
C2728 C 0.38295 0.44282 0.86699 0.0
H2729 H 0.40906 0.44193 0.87358 0.0
C2730 C 0.37943 0.43217 0.86567 0.0
C2731 C 0.3937 0.44639 0.87014 0.0
C2732 C 0.39781 0.45773 0.87227 0.0
C2733 C 0.38645 0.42499 0.86715 0.0
C2734 C 0.3973 0.42856 0.86986 0.0
C2735 C 0.40075 0.4392 0.87142 0.0
C2736 C 0.40526 0.4214 0.87094 0.0
C2737 C 0.38215 0.41366 0.86591 0.0
C2738 C 0.4115 0.42187 0.87994 0.0
C2739 C 0.41944 0.41554 0.88079 0.0
C2740 C 0.42133 0.40867 0.87263 0.0
C2741 C 0.41497 0.40815 0.86366 0.0
C2742 C 0.40707 0.4145 0.8628 0.0
H2743 H 0.37347 0.41238 0.8668 0.0
H2744 H 0.38349 0.41029 0.85829 0.0
H2745 H 0.3862 0.40946 0.87141 0.0
H2746 H 0.41029 0.42721 0.88629 0.0
H2747 H 0.42427 0.41623 0.88776 0.0
H2748 H 0.84524 0.05263 0.16577 0.0
H2749 H 0.8558 0.06868 0.16237 0.0
H2750 H 0.85955 0.05524 0.13253 0.0
H2751 H 0.84883 0.03923 0.13579 0.0
H2752 H 0.87716 0.07112 0.15621 0.0
H2753 H 0.84833 0.08288 0.12849 0.0
H2754 H 0.84454 0.07343 0.13693 0.0
H2755 H 0.85138 0.06994 0.12609 0.0
C2756 C 0.84823 0.05313 0.15845 0.0
C2757 C 0.84618 0.04468 0.15103 0.0
C2758 C 0.8543 0.06228 0.15654 0.0
C2759 C 0.85833 0.06317 0.14717 0.0
C2760 C 0.85637 0.05474 0.13977 0.0
H2761 H 0.89689 0.11212 0.12164 0.0
H2762 H 0.8857 0.09621 0.1245 0.0
C2763 C 0.85034 0.04557 0.14168 0.0
C2764 C 0.86479 0.07286 0.1452 0.0
H2765 H 0.86531 0.09289 0.13089 0.0
C2766 C 0.87457 0.07591 0.15071 0.0
C2767 C 0.86139 0.07903 0.13798 0.0
C2768 C 0.8508 0.07624 0.13207 0.0
C2769 C 0.88113 0.08493 0.14908 0.0
C2770 C 0.87769 0.09118 0.14192 0.0
C2771 C 0.86792 0.08809 0.13638 0.0
C2772 C 0.8841 0.10096 0.1401 0.0
C2773 C 0.89179 0.08757 0.1549 0.0
C2774 C 0.88668 0.109 0.14786 0.0
C2775 C 0.89306 0.11807 0.14624 0.0
C2776 C 0.8969 0.11932 0.13681 0.0
C2777 C 0.89401 0.1114 0.12897 0.0
C2778 C 0.88766 0.1023 0.1306 0.0
H2779 H 0.89444 0.0807 0.15793 0.0
H2780 H 0.89794 0.09086 0.15016 0.0
H2781 H 0.89118 0.0934 0.1613 0.0
H2782 H 0.88378 0.10824 0.15518 0.0
H2783 H 0.89499 0.12411 0.15238 0.0
H2784 H 0.10689 0.15392 0.40472 0.0
H2785 H 0.11074 0.13895 0.39403 0.0
H2786 H 0.13472 0.13374 0.41614 0.0
H2787 H 0.13106 0.14889 0.42683 0.0
H2788 H 0.14153 0.1336 0.39666 0.0
H2789 H 0.10338 0.10816 0.39729 0.0
H2790 H 0.10171 0.12085 0.39424 0.0
H2791 H 0.10745 0.11923 0.40638 0.0
C2792 C 0.11298 0.14959 0.40732 0.0
C2793 C 0.11868 0.15259 0.41661 0.0
C2794 C 0.11508 0.14097 0.40125 0.0
C2795 C 0.1229 0.13516 0.40436 0.0
C2796 C 0.12859 0.13808 0.41365 0.0
H2797 H 0.12989 0.07842 0.36657 0.0
H2798 H 0.12922 0.09038 0.38162 0.0
C2799 C 0.12645 0.1467 0.41976 0.0
C2800 C 0.12549 0.1264 0.39761 0.0
H2801 H 0.11427 0.104 0.38393 0.0
C2802 C 0.13563 0.12704 0.39399 0.0
C2803 C 0.11784 0.11777 0.39426 0.0
C2804 C 0.10701 0.11638 0.39832 0.0
C2805 C 0.13813 0.11957 0.38666 0.0
C2806 C 0.13023 0.11134 0.3828 0.0
C2807 C 0.12029 0.11038 0.38684 0.0
C2808 C 0.13178 0.10413 0.37402 0.0
C2809 C 0.14914 0.12066 0.38299 0.0
C2810 C 0.13351 0.10791 0.3648 0.0
C2811 C 0.13389 0.10113 0.35624 0.0
C2812 C 0.13251 0.09042 0.35671 0.0
C2813 C 0.13109 0.08664 0.36601 0.0
C2814 C 0.13065 0.09345 0.37458 0.0
H2815 H 0.15502 0.12525 0.38867 0.0
H2816 H 0.15171 0.113 0.38109 0.0
H2817 H 0.14915 0.12473 0.37617 0.0
H2818 H 0.13421 0.11611 0.36416 0.0
H2819 H 0.13507 0.10426 0.34919 0.0
H2820 H 0.02147 0.86941 0.71225 0.0
H2821 H 0.03451 0.86297 0.70151 0.0
H2822 H 0.05985 0.87764 0.72281 0.0
H2823 H 0.04688 0.88413 0.73359 0.0
H2824 H 0.05033 0.87466 0.69293 0.0
H2825 H 0.06774 0.8487 0.71728 0.0
H2826 H 0.05538 0.85353 0.71957 0.0
H2827 H 0.06783 0.86153 0.72323 0.0
C2828 C 0.02982 0.87125 0.71467 0.0
C2829 C 0.03313 0.87728 0.72379 0.0
C2830 C 0.03725 0.86751 0.70854 0.0
C2831 C 0.04814 0.86969 0.71143 0.0
C2832 C 0.05148 0.87564 0.72055 0.0
H2833 H 0.10655 0.86341 0.68379 0.0
H2834 H 0.09262 0.86666 0.69497 0.0
C2835 C 0.04405 0.87936 0.7267 0.0
C2836 C 0.05603 0.86631 0.7046 0.0
H2837 H 0.0771 0.85277 0.70304 0.0
C2838 C 0.05611 0.86978 0.6951 0.0
C2839 C 0.06359 0.85997 0.70747 0.0
C2840 C 0.06359 0.85563 0.71741 0.0
C2841 C 0.06373 0.86734 0.68848 0.0
C2842 C 0.07137 0.86112 0.69139 0.0
C2843 C 0.07123 0.85754 0.70084 0.0
C2844 C 0.07978 0.85855 0.68482 0.0
C2845 C 0.06376 0.87173 0.67855 0.0
C2846 C 0.07719 0.85271 0.67551 0.0
C2847 C 0.08513 0.85089 0.66908 0.0
C2848 C 0.0958 0.85486 0.67188 0.0
C2849 C 0.09839 0.8604 0.68136 0.0
C2850 C 0.09046 0.8622 0.68778 0.0
H2851 H 0.05894 0.87817 0.6784 0.0
H2852 H 0.07198 0.87457 0.67683 0.0
H2853 H 0.06037 0.86559 0.67257 0.0
H2854 H 0.06901 0.8497 0.67315 0.0
H2855 H 0.08287 0.84665 0.66181 0.0
H2856 H 0.37343 0.86043 0.93556 0.0
H2857 H 0.37439 0.87404 0.9244 0.0
H2858 H 0.34996 0.85572 0.90432 0.0
H2859 H 0.34866 0.84224 0.91559 0.0
H2860 H 0.3796 0.87272 0.90484 0.0
H2861 H 0.3392 0.88357 0.90766 0.0
H2862 H 0.34495 0.87589 0.91634 0.0
H2863 H 0.33919 0.87002 0.9043 0.0
C2864 C 0.36811 0.85937 0.92886 0.0
C2865 C 0.36094 0.85025 0.92648 0.0
C2866 C 0.36873 0.86713 0.92246 0.0
C2867 C 0.36216 0.86594 0.9136 0.0
C2868 C 0.35497 0.85687 0.91121 0.0
H2869 H 0.37042 0.89656 0.86022 0.0
H2870 H 0.37039 0.88482 0.8732 0.0
C2871 C 0.35433 0.84913 0.91761 0.0
C2872 C 0.36312 0.87399 0.90663 0.0
H2873 H 0.34894 0.88983 0.89441 0.0
C2874 C 0.37292 0.87652 0.90261 0.0
C2875 C 0.35444 0.87904 0.90384 0.0
C2876 C 0.34388 0.87708 0.90833 0.0
C2877 C 0.37421 0.88377 0.89566 0.0
C2878 C 0.36539 0.88847 0.89252 0.0
C2879 C 0.35567 0.88614 0.89675 0.0
C2880 C 0.36602 0.89575 0.8848 0.0
C2881 C 0.38501 0.8864 0.89182 0.0
C2882 C 0.36345 0.90574 0.88696 0.0
C2883 C 0.36341 0.91243 0.87955 0.0
C2884 C 0.3659 0.90925 0.86981 0.0
C2885 C 0.36863 0.89928 0.86769 0.0
C2886 C 0.36862 0.89258 0.87511 0.0
H2887 H 0.39141 0.88452 0.89698 0.0
H2888 H 0.38533 0.88183 0.8845 0.0
H2889 H 0.38661 0.89471 0.89075 0.0
H2890 H 0.3614 0.90834 0.89439 0.0
H2891 H 0.36138 0.9201 0.88143 0.0
H2892 H 0.45583 0.16032 0.20744 0.0
H2893 H 0.44645 0.16382 0.1921 0.0
H2894 H 0.47635 0.17256 0.17974 0.0
H2895 H 0.48584 0.16914 0.19512 0.0
H2896 H 0.44746 0.18223 0.18284 0.0
H2897 H 0.46063 0.15037 0.15844 0.0
H2898 H 0.46198 0.15112 0.1719 0.0
H2899 H 0.47102 0.15925 0.16538 0.0
C2900 C 0.46043 0.16309 0.20151 0.0
C2901 C 0.47159 0.16443 0.2025 0.0
C2902 C 0.45505 0.16504 0.19273 0.0
C2903 C 0.46071 0.16832 0.18475 0.0
C2904 C 0.47184 0.16985 0.18574 0.0
H2905 H 0.43522 0.17697 0.12478 0.0
H2906 H 0.44734 0.17746 0.13969 0.0
C2907 C 0.47724 0.16788 0.19453 0.0
C2908 C 0.45486 0.17009 0.17539 0.0
H2909 H 0.44967 0.16086 0.15079 0.0
C2910 C 0.44798 0.1776 0.17582 0.0
C2911 C 0.4556 0.16407 0.16623 0.0
C2912 C 0.46263 0.15569 0.16541 0.0
C2913 C 0.44171 0.17917 0.16735 0.0
C2914 C 0.4422 0.17293 0.15827 0.0
C2915 C 0.44932 0.16564 0.15776 0.0
C2916 C 0.4349 0.17335 0.14941 0.0
C2917 C 0.43459 0.18747 0.1682 0.0
C2918 C 0.42391 0.17086 0.14994 0.0
C2919 C 0.417 0.1706 0.14148 0.0
C2920 C 0.42094 0.17277 0.13228 0.0
C2921 C 0.43195 0.17539 0.13178 0.0
C2922 C 0.43887 0.17561 0.14027 0.0
H2923 H 0.43743 0.19346 0.17452 0.0
H2924 H 0.4341 0.19124 0.16121 0.0
H2925 H 0.42648 0.18396 0.16959 0.0
H2926 H 0.42069 0.1689 0.15687 0.0
H2927 H 0.40856 0.16864 0.14212 0.0
H2928 H 0.12807 0.84337 0.09396 0.0
H2929 H 0.13423 0.85768 0.10688 0.0
H2930 H 0.10298 0.86691 0.10593 0.0
H2931 H 0.09669 0.8525 0.09317 0.0
H2932 H 0.13375 0.87898 0.10495 0.0
H2933 H 0.11049 0.86581 0.13599 0.0
H2934 H 0.11257 0.85723 0.12518 0.0
H2935 H 0.10282 0.86588 0.12439 0.0
C2936 C 0.12247 0.84835 0.09663 0.0
C2937 C 0.11188 0.84679 0.09257 0.0
C2938 C 0.12602 0.85654 0.10395 0.0
C2939 C 0.11903 0.86327 0.10742 0.0
C2940 C 0.10845 0.86171 0.10345 0.0
H2941 H 0.12365 0.91836 0.14883 0.0
H2942 H 0.11813 0.90346 0.13644 0.0
C2943 C 0.1049 0.85354 0.0961 0.0
C2944 C 0.12292 0.87218 0.11489 0.0
H2945 H 0.1195 0.88294 0.13836 0.0
C2946 C 0.1307 0.87983 0.11229 0.0
C2947 C 0.11889 0.87325 0.12443 0.0
C2948 C 0.1108 0.86508 0.12773 0.0
C2949 C 0.13438 0.88869 0.11888 0.0
C2950 C 0.13031 0.88979 0.12841 0.0
C2951 C 0.12259 0.88208 0.13104 0.0
C2952 C 0.13382 0.89894 0.13572 0.0
C2953 C 0.14235 0.89691 0.11549 0.0
C2954 C 0.14447 0.90132 0.13945 0.0
C2955 C 0.14765 0.90984 0.14653 0.0
C2956 C 0.14021 0.91606 0.15008 0.0
C2957 C 0.12955 0.91365 0.14631 0.0
C2958 C 0.12639 0.90516 0.13922 0.0
H2959 H 0.14256 0.89616 0.10723 0.0
H2960 H 0.14053 0.90474 0.11803 0.0
H2961 H 0.15038 0.89617 0.11874 0.0
H2962 H 0.15029 0.89649 0.13702 0.0
H2963 H 0.15588 0.91142 0.1494 0.0
H2964 H 0.44101 0.85611 0.32698 0.0
H2965 H 0.42583 0.85301 0.33722 0.0
H2966 H 0.43307 0.88405 0.35176 0.0
H2967 H 0.44814 0.88725 0.34152 0.0
H2968 H 0.42617 0.85577 0.35951 0.0
H2969 H 0.40114 0.88064 0.3405 0.0
H2970 H 0.41215 0.8756 0.33482 0.0
H2971 H 0.41455 0.88637 0.34432 0.0
C2972 C 0.43932 0.86228 0.33233 0.0
C2973 C 0.44575 0.87193 0.33344 0.0
C2974 C 0.43071 0.86048 0.33819 0.0
C2975 C 0.42831 0.86833 0.34516 0.0
C2976 C 0.43476 0.87792 0.34635 0.0
H2977 H 0.37971 0.87757 0.38554 0.0
H2978 H 0.395 0.87888 0.37536 0.0
C2979 C 0.4434 0.87971 0.34055 0.0
C2980 C 0.41905 0.86656 0.35121 0.0
H2981 H 0.39502 0.87434 0.35526 0.0
C2982 C 0.41931 0.85976 0.35856 0.0
C2983 C 0.41016 0.8718 0.34993 0.0
C2984 C 0.40939 0.87896 0.34192 0.0
C2985 C 0.41101 0.85829 0.36491 0.0
C2986 C 0.40213 0.86362 0.36369 0.0
C2987 C 0.40184 0.87029 0.35621 0.0
C2988 C 0.39315 0.8626 0.37021 0.0
C2989 C 0.41198 0.85135 0.37307 0.0
C2990 C 0.38702 0.853 0.37069 0.0
C2991 C 0.37829 0.85222 0.37654 0.0
C2992 C 0.37546 0.86106 0.38189 0.0
C2993 C 0.38164 0.87065 0.38142 0.0
C2994 C 0.39039 0.8714 0.37563 0.0
H2995 H 0.42033 0.85008 0.37468 0.0
H2996 H 0.40894 0.85462 0.38008 0.0
H2997 H 0.40722 0.84373 0.37068 0.0
H2998 H 0.38885 0.84614 0.36638 0.0
H2999 H 0.37359 0.84476 0.37667 0.0
H3000 H 0.33109 0.16548 0.57412 0.0
H3001 H 0.33215 0.15243 0.58573 0.0
H3002 H 0.36317 0.14791 0.57646 0.0
H3003 H 0.36231 0.16114 0.56501 0.0
H3004 H 0.33542 0.13131 0.58206 0.0
H3005 H 0.36778 0.15485 0.6071 0.0
H3006 H 0.36005 0.16032 0.59787 0.0
H3007 H 0.37036 0.15297 0.59414 0.0
C3008 C 0.33816 0.16174 0.57458 0.0
C3009 C 0.34666 0.16441 0.56871 0.0
C3010 C 0.33872 0.15425 0.58117 0.0
C3011 C 0.3478 0.14933 0.58205 0.0
C3012 C 0.35616 0.15174 0.57599 0.0
H3013 H 0.36489 0.10673 0.62413 0.0
H3014 H 0.3648 0.11752 0.61033 0.0
C3015 C 0.35561 0.15922 0.56939 0.0
C3016 C 0.34855 0.14183 0.58946 0.0
H3017 H 0.36196 0.13813 0.61118 0.0
C3018 C 0.34124 0.13277 0.58842 0.0
C3019 C 0.35617 0.14376 0.59772 0.0
C3020 C 0.364 0.15353 0.59937 0.0
C3021 C 0.34133 0.12558 0.59544 0.0
C3022 C 0.3488 0.12762 0.60381 0.0
C3023 C 0.35625 0.13659 0.60475 0.0
C3024 C 0.34874 0.12081 0.61192 0.0
C3025 C 0.33348 0.11583 0.59378 0.0
C3026 C 0.3398 0.1192 0.61746 0.0
C3027 C 0.33985 0.11309 0.62535 0.0
C3028 C 0.34887 0.10852 0.62791 0.0
C3029 C 0.35785 0.1102 0.62239 0.0
C3030 C 0.35779 0.11631 0.61447 0.0
H3031 H 0.33056 0.11401 0.5858 0.0
H3032 H 0.33705 0.10917 0.59625 0.0
H3033 H 0.32653 0.11686 0.59818 0.0
H3034 H 0.33285 0.12282 0.6158 0.0
H3035 H 0.33289 0.11213 0.62959 0.0
H3036 H 0.06124 0.11818 0.7973 0.0
H3037 H 0.07717 0.12084 0.80883 0.0
H3038 H 0.06438 0.1449 0.82639 0.0
H3039 H 0.04845 0.1423 0.81491 0.0
H3040 H 0.09213 0.13825 0.81484 0.0
H3041 H 0.0705 0.12496 0.84675 0.0
H3042 H 0.06468 0.12291 0.83407 0.0
H3043 H 0.0652 0.13526 0.84126 0.0
C3044 C 0.06187 0.12412 0.80355 0.0
C3045 C 0.05354 0.12997 0.80525 0.0
C3046 C 0.07096 0.1256 0.81015 0.0
C3047 C 0.07186 0.13293 0.81856 0.0
C3048 C 0.06373 0.13903 0.82007 0.0
H3049 H 0.12746 0.15765 0.85797 0.0
H3050 H 0.11295 0.15465 0.84489 0.0
C3051 C 0.05463 0.13753 0.81351 0.0
C3052 C 0.08121 0.1341 0.82584 0.0
H3053 H 0.08842 0.13262 0.85037 0.0
C3054 C 0.09134 0.13699 0.82261 0.0
C3055 C 0.08017 0.13227 0.83592 0.0
C3056 C 0.06957 0.12858 0.83971 0.0
C3057 C 0.10045 0.13833 0.82925 0.0
C3058 C 0.09935 0.13689 0.83942 0.0
C3059 C 0.08924 0.13379 0.84259 0.0
C3060 C 0.10854 0.13858 0.84694 0.0
C3061 C 0.11116 0.14114 0.8253 0.0
C3062 C 0.11077 0.1306 0.85256 0.0
C3063 C 0.11895 0.13233 0.86014 0.0
C3064 C 0.12504 0.1421 0.8623 0.0
C3065 C 0.12287 0.15005 0.85656 0.0
C3066 C 0.11466 0.14832 0.84899 0.0
H3067 H 0.11095 0.1391 0.81709 0.0
H3068 H 0.11359 0.14959 0.82687 0.0
H3069 H 0.11728 0.1372 0.82896 0.0
H3070 H 0.10608 0.12305 0.85115 0.0
H3071 H 0.12029 0.12608 0.86451 0.0
H3072 H 0.92258 0.3673 0.81242 0.0
H3073 H 0.90851 0.36293 0.82345 0.0
H3074 H 0.93157 0.36761 0.84874 0.0
H3075 H 0.94561 0.37255 0.83788 0.0
H3076 H 0.90545 0.34762 0.83554 0.0
H3077 H 0.91013 0.38575 0.85818 0.0
H3078 H 0.91646 0.38368 0.84667 0.0
H3079 H 0.92207 0.37988 0.85806 0.0
C3080 C 0.92466 0.36755 0.82035 0.0
C3081 C 0.93524 0.37039 0.82426 0.0
C3082 C 0.91661 0.36495 0.82663 0.0
C3083 C 0.91896 0.36512 0.83694 0.0
C3084 C 0.92954 0.36765 0.84084 0.0
H3085 H 0.87895 0.35179 0.88571 0.0
H3086 H 0.89403 0.35439 0.87527 0.0
C3087 C 0.93758 0.37034 0.83458 0.0
C3088 C 0.91032 0.36264 0.84359 0.0
H3089 H 0.89827 0.37239 0.8637 0.0
C3090 C 0.90387 0.35304 0.84169 0.0
C3091 C 0.90826 0.36973 0.8516 0.0
C3092 C 0.91452 0.38037 0.85371 0.0
C3093 C 0.89546 0.35034 0.84761 0.0
C3094 C 0.89343 0.35743 0.85561 0.0
C3095 C 0.89992 0.36696 0.85759 0.0
C3096 C 0.88433 0.35528 0.86176 0.0
C3097 C 0.88882 0.33991 0.84535 0.0
C3098 C 0.87394 0.35495 0.8576 0.0
C3099 C 0.86535 0.35352 0.86353 0.0
C3100 C 0.86701 0.35237 0.87373 0.0
C3101 C 0.87744 0.35255 0.87785 0.0
C3102 C 0.88604 0.35408 0.87192 0.0
H3103 H 0.89271 0.33456 0.84032 0.0
H3104 H 0.88725 0.33636 0.85234 0.0
H3105 H 0.88106 0.34084 0.84162 0.0
H3106 H 0.87249 0.35599 0.84979 0.0
H3107 H 0.8574 0.35335 0.86014 0.0
H3108 H 0.83114 0.65883 0.08885 0.0
H3109 H 0.83312 0.64591 0.10042 0.0
H3110 H 0.86282 0.64054 0.08848 0.0
H3111 H 0.86105 0.65367 0.07706 0.0
H3112 H 0.83565 0.62471 0.09654 0.0
H3113 H 0.87047 0.64773 0.11874 0.0
H3114 H 0.86208 0.65329 0.11013 0.0
H3115 H 0.87173 0.64555 0.10552 0.0
C3116 C 0.83812 0.65493 0.08871 0.0
C3117 C 0.84598 0.65734 0.08209 0.0
C3118 C 0.8392 0.64751 0.09528 0.0
C3119 C 0.84819 0.6424 0.0954 0.0
C3120 C 0.8559 0.64453 0.0886 0.0
H3121 H 0.86779 0.59934 0.13602 0.0
H3122 H 0.86687 0.61021 0.12232 0.0
C3123 C 0.85482 0.65195 0.08202 0.0
C3124 C 0.84953 0.63497 0.10278 0.0
H3125 H 0.86478 0.63121 0.12341 0.0
C3126 C 0.84203 0.6261 0.1024 0.0
C3127 C 0.85789 0.63681 0.11038 0.0
C3128 C 0.86597 0.64639 0.11132 0.0
C3129 C 0.84264 0.61902 0.10947 0.0
C3130 C 0.85086 0.62098 0.11721 0.0
C3131 C 0.85849 0.62974 0.11746 0.0
C3132 C 0.85139 0.6143 0.12539 0.0
C3133 C 0.83452 0.60947 0.10855 0.0
C3134 C 0.84308 0.61317 0.13174 0.0
C3135 C 0.8436 0.60703 0.13957 0.0
C3136 C 0.85248 0.60193 0.14124 0.0
C3137 C 0.86087 0.60321 0.13495 0.0
C3138 C 0.86034 0.60937 0.12711 0.0
H3139 H 0.83079 0.60762 0.10082 0.0
H3140 H 0.83815 0.60271 0.11071 0.0
H3141 H 0.82815 0.61079 0.1136 0.0
H3142 H 0.83624 0.61714 0.13072 0.0
H3143 H 0.83711 0.60639 0.14441 0.0
H3144 H 0.54777 0.6283 0.32092 0.0
H3145 H 0.56361 0.63128 0.33248 0.0
H3146 H 0.57933 0.65169 0.31318 0.0
H3147 H 0.56335 0.64907 0.30173 0.0
H3148 H 0.58404 0.62752 0.32934 0.0
H3149 H 0.58296 0.6692 0.34022 0.0
H3150 H 0.57187 0.66085 0.33359 0.0
H3151 H 0.58305 0.66562 0.32703 0.0
C3152 C 0.55454 0.63354 0.31919 0.0
C3153 C 0.55424 0.63853 0.31044 0.0
C3154 C 0.56362 0.63516 0.32576 0.0
C3155 C 0.57259 0.64181 0.32376 0.0
C3156 C 0.57242 0.64666 0.31495 0.0
H3157 H 0.63457 0.64477 0.35657 0.0
H3158 H 0.62018 0.64251 0.34335 0.0
C3159 C 0.56332 0.64507 0.30837 0.0
C3160 C 0.5821 0.64359 0.33092 0.0
H3161 H 0.5977 0.66214 0.34673 0.0
C3162 C 0.58706 0.63509 0.33313 0.0
C3163 C 0.58594 0.65347 0.3359 0.0
C3164 C 0.58064 0.66281 0.33416 0.0
C3165 C 0.59573 0.63618 0.34024 0.0
C3166 C 0.59965 0.64607 0.34515 0.0
C3167 C 0.59473 0.65458 0.3429 0.0
C3168 C 0.60851 0.64767 0.35301 0.0
C3169 C 0.6004 0.62667 0.34267 0.0
C3170 C 0.6068 0.65158 0.36276 0.0
C3171 C 0.61501 0.65291 0.3703 0.0
C3172 C 0.6251 0.6504 0.36823 0.0
C3173 C 0.62684 0.64663 0.35842 0.0
C3174 C 0.61863 0.64533 0.35087 0.0
H3175 H 0.59496 0.61949 0.34003 0.0
H3176 H 0.60791 0.62637 0.33894 0.0
H3177 H 0.60225 0.62687 0.35084 0.0
H3178 H 0.59905 0.65344 0.36457 0.0
H3179 H 0.61338 0.65572 0.3778 0.0
H3180 H 0.87559 0.36928 0.42462 0.0
H3181 H 0.87628 0.38157 0.41209 0.0
H3182 H 0.84377 0.37023 0.40187 0.0
H3183 H 0.84296 0.35801 0.41447 0.0
H3184 H 0.87212 0.37585 0.39071 0.0
H3185 H 0.84505 0.40224 0.40627 0.0
H3186 H 0.85133 0.39374 0.41372 0.0
H3187 H 0.84005 0.38871 0.40523 0.0
C3188 C 0.86853 0.36953 0.41982 0.0
C3189 C 0.85921 0.3627 0.42054 0.0
C3190 C 0.86896 0.3765 0.41264 0.0
C3191 C 0.86005 0.37685 0.40614 0.0
C3192 C 0.85069 0.37015 0.40691 0.0
H3193 H 0.84527 0.41044 0.35653 0.0
H3194 H 0.84521 0.39932 0.37003 0.0
C3195 C 0.85027 0.36313 0.41405 0.0
C3196 C 0.86069 0.38388 0.39823 0.0
H3197 H 0.85043 0.40449 0.39002 0.0
C3198 C 0.86744 0.38216 0.39057 0.0
C3199 C 0.85453 0.39206 0.39808 0.0
C3200 C 0.84738 0.39439 0.4063 0.0
C3201 C 0.86802 0.38826 0.3826 0.0
C3202 C 0.86184 0.39644 0.38243 0.0
C3203 C 0.85516 0.39821 0.39016 0.0
C3204 C 0.86202 0.40314 0.37421 0.0
C3205 C 0.87496 0.38567 0.37428 0.0
C3206 C 0.87149 0.40903 0.37213 0.0
C3207 C 0.87155 0.41537 0.3644 0.0
C3208 C 0.86212 0.41602 0.3587 0.0
C3209 C 0.85264 0.41017 0.36086 0.0
C3210 C 0.8526 0.4038 0.36854 0.0
H3211 H 0.87685 0.37765 0.37417 0.0
H3212 H 0.87108 0.38658 0.36689 0.0
H3213 H 0.88255 0.39097 0.37538 0.0
H3214 H 0.87881 0.40882 0.37657 0.0
H3215 H 0.87894 0.4199 0.36299 0.0
H3216 H 0.59302 0.63534 0.91556 0.0
H3217 H 0.59399 0.61992 0.90406 0.0
H3218 H 0.62666 0.63092 0.89992 0.0
H3219 H 0.62582 0.64627 0.91153 0.0
H3220 H 0.59918 0.62039 0.88376 0.0
H3221 H 0.62707 0.60052 0.90556 0.0
H3222 H 0.61996 0.61032 0.91127 0.0
H3223 H 0.63145 0.61393 0.90463 0.0
C3224 C 0.60047 0.63439 0.91233 0.0
C3225 C 0.60935 0.64202 0.91445 0.0
C3226 C 0.60099 0.6256 0.90574 0.0
C3227 C 0.61043 0.62423 0.90125 0.0
C3228 C 0.61936 0.63176 0.90344 0.0
H3229 H 0.62999 0.58248 0.85473 0.0
H3230 H 0.62898 0.59521 0.86905 0.0
C3231 C 0.61883 0.64057 0.90999 0.0
C3232 C 0.61074 0.61531 0.89372 0.0
H3233 H 0.62302 0.59404 0.88848 0.0
C3234 C 0.60431 0.61457 0.88482 0.0
C3235 C 0.6175 0.60779 0.89513 0.0
C3236 C 0.62433 0.60809 0.90469 0.0
C3237 C 0.60466 0.60665 0.87713 0.0
C3238 C 0.61144 0.59911 0.8785 0.0
C3239 C 0.61781 0.5998 0.88746 0.0
C3240 C 0.61225 0.59068 0.87057 0.0
C3241 C 0.59804 0.60664 0.86747 0.0
C3242 C 0.60327 0.58367 0.86691 0.0
C3243 C 0.60382 0.57643 0.85872 0.0
C3244 C 0.61339 0.57598 0.85412 0.0
C3245 C 0.62252 0.58261 0.85815 0.0
C3246 C 0.62195 0.58991 0.86631 0.0
H3247 H 0.59547 0.61429 0.86669 0.0
H3248 H 0.60251 0.60449 0.86093 0.0
H3249 H 0.59081 0.60091 0.86732 0.0
H3250 H 0.59578 0.58396 0.87026 0.0
H3251 H 0.5967 0.57131 0.85585 0.0
H3252 H 0.81324 0.54137 0.8524 0.0
H3253 H 0.82823 0.55521 0.85574 0.0
H3254 H 0.83147 0.54862 0.88637 0.0
H3255 H 0.81652 0.53477 0.88309 0.0
H3256 H 0.82929 0.57244 0.8691 0.0
H3257 H 0.86191 0.55024 0.87851 0.0
H3258 H 0.84933 0.54419 0.87241 0.0
H3259 H 0.85063 0.54769 0.88571 0.0
C3260 C 0.81718 0.54284 0.85984 0.0
C3261 C 0.8137 0.53697 0.86748 0.0
C3262 C 0.82577 0.55071 0.86172 0.0
C3263 C 0.83106 0.55284 0.87126 0.0
C3264 C 0.82768 0.54693 0.87888 0.0
H3265 H 0.87654 0.60136 0.90233 0.0
H3266 H 0.86375 0.58593 0.89703 0.0
C3267 C 0.81912 0.53904 0.877 0.0
C3268 C 0.83963 0.5617 0.87342 0.0
H3269 H 0.8654 0.56852 0.88267 0.0
C3270 C 0.83722 0.57158 0.87196 0.0
C3271 C 0.84996 0.56054 0.87718 0.0
C3272 C 0.85316 0.55008 0.87846 0.0
C3273 C 0.84477 0.58037 0.87442 0.0
C3274 C 0.85503 0.57923 0.87833 0.0
C3275 C 0.8575 0.56935 0.87968 0.0
C3276 C 0.86319 0.58826 0.88137 0.0
C3277 C 0.8416 0.59084 0.87313 0.0
C3278 C 0.86724 0.59455 0.87428 0.0
C3279 C 0.8745 0.60339 0.87728 0.0
C3280 C 0.87784 0.60607 0.88744 0.0
C3281 C 0.87399 0.59958 0.89448 0.0
C3282 C 0.86675 0.59073 0.89146 0.0
H3283 H 0.83285 0.59056 0.87204 0.0
H3284 H 0.84457 0.59644 0.87972 0.0
H3285 H 0.84516 0.59375 0.86646 0.0
H3286 H 0.86468 0.59268 0.86643 0.0
H3287 H 0.87729 0.60826 0.87169 0.0
H3288 H 0.1504 0.04281 0.61768 0.0
H3289 H 0.13965 0.05625 0.61385 0.0
H3290 H 0.12352 0.05248 0.64074 0.0
H3291 H 0.13431 0.03912 0.64469 0.0
H3292 H 0.11637 0.0542 0.61175 0.0
H3293 H 0.13469 0.08409 0.64205 0.0
H3294 H 0.14112 0.07321 0.63769 0.0
H3295 H 0.13052 0.07155 0.64584 0.0
C3296 C 0.14463 0.04491 0.62282 0.0
C3297 C 0.14322 0.03993 0.6315 0.0
C3298 C 0.13846 0.05254 0.62059 0.0
C3299 C 0.13088 0.05541 0.62706 0.0
C3300 C 0.12942 0.05044 0.63571 0.0
H3301 H 0.07814 0.08949 0.61934 0.0
H3302 H 0.08982 0.07638 0.62151 0.0
C3303 C 0.13552 0.04276 0.63791 0.0
C3304 C 0.12438 0.0635 0.62471 0.0
H3305 H 0.11929 0.08761 0.63301 0.0
C3306 C 0.11703 0.06153 0.61636 0.0
C3307 C 0.12535 0.07307 0.63069 0.0
C3308 C 0.1334 0.0757 0.63953 0.0
C3309 C 0.11041 0.06881 0.61397 0.0
C3310 C 0.11117 0.07825 0.62013 0.0
C3311 C 0.11871 0.08033 0.62834 0.0
C3312 C 0.10406 0.08602 0.61832 0.0
C3313 C 0.1027 0.06637 0.60487 0.0
C3314 C 0.10823 0.09578 0.61588 0.0
C3315 C 0.10158 0.10329 0.61465 0.0
C3316 C 0.09067 0.10119 0.61597 0.0
C3317 C 0.08652 0.09135 0.61834 0.0
C3318 C 0.09316 0.08384 0.6195 0.0
H3319 H 0.10475 0.05992 0.59971 0.0
H3320 H 0.09461 0.06409 0.60726 0.0
H3321 H 0.10248 0.07325 0.60075 0.0
H3322 H 0.11664 0.09762 0.61501 0.0
H3323 H 0.10502 0.11083 0.61293 0.0
H3324 H 0.67312 0.45562 0.40565 0.0
H3325 H 0.66028 0.44099 0.4089 0.0
H3326 H 0.65132 0.43461 0.37733 0.0
H3327 H 0.66425 0.44909 0.37404 0.0
H3328 H 0.63928 0.43807 0.40548 0.0
H3329 H 0.65553 0.40634 0.38418 0.0
H3330 H 0.66292 0.41907 0.38701 0.0
H3331 H 0.65317 0.41631 0.37653 0.0
C3332 C 0.66845 0.45105 0.39941 0.0
C3333 C 0.66973 0.45346 0.38959 0.0
C3334 C 0.66114 0.44268 0.40127 0.0
C3335 C 0.65496 0.43657 0.39334 0.0
C3336 C 0.65621 0.439 0.38354 0.0
H3337 H 0.59374 0.40095 0.39406 0.0
H3338 H 0.60901 0.41415 0.3937 0.0
C3339 C 0.66358 0.44731 0.38167 0.0
C3340 C 0.64678 0.42805 0.39535 0.0
H3341 H 0.63742 0.40268 0.38832 0.0
C3342 C 0.63895 0.4303 0.40182 0.0
C3343 C 0.64645 0.41785 0.39074 0.0
C3344 C 0.65504 0.41472 0.38432 0.0
C3345 C 0.63056 0.42276 0.40347 0.0
C3346 C 0.62983 0.41276 0.39831 0.0
C3347 C 0.6379 0.41038 0.39217 0.0
C3348 C 0.62055 0.40478 0.39883 0.0
C3349 C 0.6226 0.42559 0.41076 0.0
C3350 C 0.62196 0.395 0.40157 0.0
C3351 C 0.61324 0.38733 0.40157 0.0
C3352 C 0.60294 0.38929 0.39879 0.0
C3353 C 0.60157 0.39913 0.39613 0.0
C3354 C 0.61028 0.40675 0.39607 0.0
H3355 H 0.62613 0.43204 0.41641 0.0
H3356 H 0.61581 0.42817 0.40665 0.0
H3357 H 0.61955 0.41892 0.41471 0.0
H3358 H 0.62983 0.39327 0.40364 0.0
H3359 H 0.61461 0.3798 0.40352 0.0
H3360 H 0.34244 0.97148 0.14127 0.0
H3361 H 0.35562 0.95957 0.14174 0.0
H3362 H 0.36483 0.96682 0.11272 0.0
H3363 H 0.35161 0.97872 0.11216 0.0
H3364 H 0.35589 0.94232 0.12816 0.0
H3365 H 0.39343 0.96919 0.12894 0.0
H3366 H 0.38096 0.97353 0.13178 0.0
H3367 H 0.38379 0.97042 0.11903 0.0
C3368 C 0.34728 0.97056 0.13499 0.0
C3369 C 0.34595 0.97602 0.12666 0.0
C3370 C 0.35485 0.9638 0.1353 0.0
C3371 C 0.36128 0.9624 0.12733 0.0
C3372 C 0.3601 0.96795 0.11906 0.0
H3373 H 0.40458 0.91958 0.11032 0.0
H3374 H 0.39392 0.93376 0.11181 0.0
C3375 C 0.35254 0.97474 0.11874 0.0
C3376 C 0.36866 0.9546 0.12736 0.0
H3377 H 0.39471 0.95125 0.12613 0.0
C3378 C 0.36439 0.94428 0.1278 0.0
C3379 C 0.37973 0.95718 0.12684 0.0
C3380 C 0.38479 0.96819 0.12671 0.0
C3381 C 0.37085 0.93643 0.12752 0.0
C3382 C 0.38192 0.939 0.12698 0.0
C3383 C 0.38622 0.94932 0.12658 0.0
C3384 C 0.38908 0.93099 0.12652 0.0
C3385 C 0.36573 0.92541 0.12751 0.0
C3386 C 0.39011 0.92493 0.13442 0.0
C3387 C 0.39612 0.91677 0.13356 0.0
C3388 C 0.40125 0.91457 0.1248 0.0
C3389 C 0.40058 0.92097 0.11709 0.0
C3390 C 0.39456 0.92912 0.11796 0.0
H3391 H 0.35704 0.92451 0.12557 0.0
H3392 H 0.36932 0.92017 0.12213 0.0
H3393 H 0.367 0.92294 0.13507 0.0
H3394 H 0.38608 0.92637 0.14116 0.0
H3395 H 0.39643 0.91196 0.13961 0.0
H3396 H 0.84445 0.50579 0.63852 0.0
H3397 H 0.85719 0.49334 0.63816 0.0
H3398 H 0.84424 0.48045 0.60866 0.0
H3399 H 0.83157 0.49292 0.60891 0.0
H3400 H 0.85116 0.47142 0.63566 0.0
H3401 H 0.87688 0.48471 0.60634 0.0
H3402 H 0.86859 0.49289 0.61286 0.0
H3403 H 0.86289 0.48334 0.60288 0.0
C3404 C 0.84445 0.50042 0.63188 0.0
C3405 C 0.83701 0.50032 0.62374 0.0
C3406 C 0.8517 0.4933 0.63171 0.0
C3407 C 0.85172 0.48606 0.62334 0.0
C3408 C 0.84445 0.48608 0.61513 0.0
H3409 H 0.87073 0.4263 0.61435 0.0
H3410 H 0.8618 0.44168 0.61616 0.0
C3411 C 0.83716 0.49314 0.61532 0.0
C3412 C 0.85876 0.47798 0.62346 0.0
H3413 H 0.87819 0.46782 0.61097 0.0
C3414 C 0.85716 0.4707 0.63034 0.0
C3415 C 0.86663 0.47712 0.61657 0.0
C3416 C 0.86895 0.48498 0.60929 0.0
C3417 C 0.86292 0.46232 0.63023 0.0
C3418 C 0.87043 0.46119 0.62304 0.0
C3419 C 0.87236 0.46869 0.61642 0.0
C3420 C 0.87594 0.45198 0.62196 0.0
C3421 C 0.86085 0.45462 0.6377 0.0
C3422 C 0.88686 0.45274 0.62452 0.0
C3423 C 0.89199 0.44396 0.62352 0.0
C3424 C 0.88627 0.43432 0.61979 0.0
C3425 C 0.87535 0.43363 0.61715 0.0
C3426 C 0.87023 0.44239 0.61824 0.0
H3427 H 0.85654 0.45769 0.64401 0.0
H3428 H 0.85595 0.44754 0.63393 0.0
H3429 H 0.86842 0.45239 0.64073 0.0
H3430 H 0.89139 0.46011 0.62736 0.0
H3431 H 0.90043 0.44471 0.62553 0.0
H3432 H 0.32617 0.05191 0.34756 0.0
H3433 H 0.34178 0.06515 0.34938 0.0
H3434 H 0.34841 0.05842 0.37958 0.0
H3435 H 0.33289 0.04517 0.37781 0.0
H3436 H 0.3452 0.08242 0.3626 0.0
H3437 H 0.37732 0.05865 0.36855 0.0
H3438 H 0.36404 0.05311 0.3638 0.0
H3439 H 0.36707 0.0566 0.377 0.0
C3440 C 0.33099 0.05322 0.35457 0.0
C3441 C 0.32832 0.04748 0.36253 0.0
C3442 C 0.33992 0.06075 0.35558 0.0
C3443 C 0.34636 0.06265 0.36455 0.0
C3444 C 0.34374 0.05689 0.37249 0.0
H3445 H 0.39409 0.10933 0.39373 0.0
H3446 H 0.38107 0.0941 0.38837 0.0
C3447 C 0.33484 0.04934 0.37148 0.0
C3448 C 0.35536 0.07115 0.36588 0.0
H3449 H 0.38179 0.07688 0.37314 0.0
C3450 C 0.35323 0.08119 0.36475 0.0
C3451 C 0.36584 0.06953 0.36869 0.0
C3452 C 0.36874 0.05887 0.36949 0.0
C3453 C 0.3612 0.08971 0.36677 0.0
C3454 C 0.37159 0.08811 0.36988 0.0
C3455 C 0.3738 0.07806 0.37077 0.0
C3456 C 0.38008 0.09686 0.37283 0.0
C3457 C 0.35835 0.10039 0.36595 0.0
C3458 C 0.384 0.1033 0.3658 0.0
C3459 C 0.39142 0.11203 0.36884 0.0
C3460 C 0.395 0.11444 0.37897 0.0
C3461 C 0.39134 0.10774 0.38591 0.0
C3462 C 0.38397 0.09902 0.38285 0.0
H3463 H 0.34963 0.10043 0.36519 0.0
H3464 H 0.36172 0.10572 0.37262 0.0
H3465 H 0.36179 0.10342 0.35928 0.0
H3466 H 0.38116 0.10168 0.358 0.0
H3467 H 0.39406 0.11707 0.36334 0.0
H3468 H 0.65699 0.54862 0.13132 0.0
H3469 H 0.64591 0.5619 0.12796 0.0
H3470 H 0.6196 0.5447 0.1404 0.0
H3471 H 0.63071 0.53155 0.1441 0.0
H3472 H 0.62691 0.55994 0.11609 0.0
H3473 H 0.62122 0.57345 0.15547 0.0
H3474 H 0.63125 0.5655 0.15208 0.0
H3475 H 0.61766 0.5598 0.15229 0.0
C3476 C 0.64889 0.54772 0.13347 0.0
C3477 C 0.64476 0.53905 0.13804 0.0
C3478 C 0.64255 0.55529 0.13147 0.0
C3479 C 0.63199 0.55436 0.13405 0.0
C3480 C 0.62779 0.54566 0.13851 0.0
H3481 H 0.58041 0.5906 0.12796 0.0
H3482 H 0.59159 0.57725 0.13076 0.0
C3483 C 0.63412 0.53809 0.14052 0.0
C3484 C 0.62529 0.56239 0.13192 0.0
H3485 H 0.61073 0.57979 0.14296 0.0
C3486 C 0.62341 0.56432 0.12196 0.0
C3487 C 0.62075 0.56809 0.1396 0.0
C3488 C 0.62289 0.5667 0.15047 0.0
C3489 C 0.61693 0.57166 0.11946 0.0
C3490 C 0.61233 0.57731 0.12714 0.0
C3491 C 0.61424 0.57541 0.13709 0.0
C3492 C 0.60551 0.58525 0.12504 0.0
C3493 C 0.61485 0.57316 0.10861 0.0
C3494 C 0.60965 0.59418 0.12092 0.0
C3495 C 0.6033 0.60185 0.11936 0.0
C3496 C 0.5927 0.60076 0.12195 0.0
C3497 C 0.58857 0.59174 0.126 0.0
C3498 C 0.59493 0.58409 0.12756 0.0
H3499 H 0.6168 0.56658 0.10355 0.0
H3500 H 0.60642 0.5741 0.10694 0.0
H3501 H 0.61986 0.58025 0.10695 0.0
H3502 H 0.61786 0.59532 0.11911 0.0
H3503 H 0.60678 0.60877 0.11638 0.0
H3504 H 0.17132 0.95895 0.92071 0.0
H3505 H 0.15789 0.94477 0.92386 0.0
H3506 H 0.15963 0.93033 0.89398 0.0
H3507 H 0.17307 0.94442 0.8908 0.0
H3508 H 0.13844 0.93927 0.91412 0.0
H3509 H 0.16123 0.90625 0.91019 0.0
H3510 H 0.16755 0.91948 0.91162 0.0
H3511 H 0.16188 0.91347 0.89958 0.0
C3512 C 0.16889 0.95272 0.91484 0.0
C3513 C 0.17328 0.9528 0.90551 0.0
C3514 C 0.16125 0.9446 0.91666 0.0
C3515 C 0.15788 0.9364 0.90922 0.0
C3516 C 0.16232 0.93642 0.89993 0.0
H3517 H 0.10665 0.88752 0.89555 0.0
H3518 H 0.12256 0.90027 0.89636 0.0
C3519 C 0.16999 0.9445 0.89811 0.0
C3520 C 0.14917 0.92823 0.91086 0.0
H3521 H 0.14223 0.9021 0.90912 0.0
C3522 C 0.13931 0.93115 0.91319 0.0
C3523 C 0.15032 0.91763 0.90965 0.0
C3524 C 0.16085 0.91402 0.90772 0.0
C3525 C 0.13046 0.92376 0.91389 0.0
C3526 C 0.13154 0.91317 0.91233 0.0
C3527 C 0.14145 0.91024 0.91028 0.0
C3528 C 0.12228 0.90506 0.91214 0.0
C3529 C 0.11992 0.92731 0.91589 0.0
C3530 C 0.11699 0.90342 0.9208 0.0
C3531 C 0.10787 0.89614 0.92036 0.0
C3532 C 0.10391 0.89042 0.91124 0.0
C3533 C 0.10942 0.89191 0.90265 0.0
C3534 C 0.11854 0.89914 0.90311 0.0
H3535 H 0.12003 0.93568 0.91527 0.0
H3536 H 0.11352 0.92294 0.91058 0.0
H3537 H 0.11792 0.92582 0.92356 0.0
H3538 H 0.11984 0.90785 0.92786 0.0
H3539 H 0.10377 0.89518 0.92708 0.0
H3540 H 0.92639 0.88295 0.61025 0.0
H3541 H 0.92173 0.89734 0.62118 0.0
H3542 H 0.9296 0.91792 0.59896 0.0
H3543 H 0.93459 0.90358 0.588 0.0
H3544 H 0.93599 0.91731 0.62772 0.0
H3545 H 0.89809 0.92126 0.60654 0.0
H3546 H 0.90389 0.90942 0.60532 0.0
H3547 H 0.90983 0.92044 0.59984 0.0
C3548 C 0.92729 0.89055 0.6077 0.0
C3549 C 0.93092 0.8921 0.59824 0.0
C3550 C 0.92454 0.89874 0.61394 0.0
C3551 C 0.92526 0.90864 0.61083 0.0
C3552 C 0.92889 0.91029 0.60142 0.0
H3553 H 0.9039 0.96141 0.6459 0.0
H3554 H 0.91065 0.95103 0.63212 0.0
C3555 C 0.9317 0.90208 0.59518 0.0
C3556 C 0.92228 0.91718 0.61758 0.0
H3557 H 0.9022 0.93149 0.62194 0.0
C3558 C 0.92867 0.92051 0.62641 0.0
C3559 C 0.91279 0.92139 0.61577 0.0
C3560 C 0.90568 0.91796 0.60639 0.0
C3561 C 0.92563 0.92772 0.63368 0.0
C3562 C 0.91582 0.93148 0.63215 0.0
C3563 C 0.90968 0.92854 0.6231 0.0
C3564 C 0.91143 0.93774 0.64024 0.0
C3565 C 0.93289 0.93113 0.64299 0.0
C3566 C 0.90935 0.93357 0.64921 0.0
C3567 C 0.9055 0.93943 0.65701 0.0
C3568 C 0.90358 0.94957 0.65601 0.0
C3569 C 0.9053 0.95362 0.64688 0.0
C3570 C 0.90919 0.94773 0.63904 0.0
H3571 H 0.94125 0.9302 0.64166 0.0
H3572 H 0.93252 0.93931 0.64572 0.0
H3573 H 0.93039 0.92629 0.64895 0.0
H3574 H 0.91074 0.92577 0.65018 0.0
H3575 H 0.90401 0.936 0.66386 0.0
H3576 H 0.97675 0.17223 0.31676 0.0
H3577 H 0.96513 0.1743 0.33052 0.0
H3578 H 0.93789 0.16168 0.31053 0.0
H3579 H 0.94938 0.15945 0.29683 0.0
H3580 H 0.94616 0.18555 0.33116 0.0
H3581 H 0.93723 0.14363 0.33456 0.0
H3582 H 0.94862 0.14911 0.32855 0.0
H3583 H 0.93568 0.14711 0.32206 0.0
C3584 C 0.96828 0.16986 0.31532 0.0
C3585 C 0.96398 0.16567 0.30571 0.0
C3586 C 0.96167 0.17111 0.32316 0.0
C3587 C 0.95069 0.16806 0.32153 0.0
C3588 C 0.94636 0.164 0.31194 0.0
H3589 H 0.89382 0.16325 0.3519 0.0
H3590 H 0.90792 0.1635 0.34037 0.0
C3591 C 0.95294 0.16281 0.30411 0.0
C3592 C 0.94364 0.16896 0.32982 0.0
H3593 H 0.92633 0.15453 0.34294 0.0
C3594 C 0.9419 0.17879 0.33385 0.0
C3595 C 0.93815 0.16011 0.33329 0.0
C3596 C 0.94005 0.14938 0.32947 0.0
C3597 C 0.9344 0.18 0.34097 0.0
C3598 C 0.92866 0.17113 0.3442 0.0
C3599 C 0.93069 0.16131 0.3404 0.0
C3600 C 0.92011 0.17175 0.35114 0.0
C3601 C 0.93235 0.19072 0.34465 0.0
C3602 C 0.92227 0.17638 0.361 0.0
C3603 C 0.9142 0.17625 0.36763 0.0
C3604 C 0.90388 0.17138 0.3645 0.0
C3605 C 0.90172 0.16694 0.35456 0.0
C3606 C 0.90976 0.16711 0.34796 0.0
H3607 H 0.93577 0.19656 0.33989 0.0
H3608 H 0.9237 0.19105 0.34485 0.0
H3609 H 0.93604 0.19283 0.35236 0.0
H3610 H 0.93025 0.17984 0.36366 0.0
H3611 H 0.91611 0.17964 0.37528 0.0
H3612 H 0.64648 0.14037 0.09134 0.0
H3613 H 0.64956 0.12637 0.10142 0.0
H3614 H 0.6215 0.13076 0.11682 0.0
H3615 H 0.61828 0.1446 0.1067 0.0
H3616 H 0.65268 0.12817 0.12247 0.0
H3617 H 0.61787 0.0994 0.10874 0.0
H3618 H 0.62252 0.11008 0.10195 0.0
H3619 H 0.61441 0.11199 0.11227 0.0
C3620 C 0.64089 0.13823 0.09677 0.0
C3621 C 0.63214 0.14358 0.09824 0.0
C3622 C 0.64268 0.13027 0.10254 0.0
C3623 C 0.63568 0.12745 0.10976 0.0
C3624 C 0.62689 0.1327 0.11116 0.0
H3625 H 0.63982 0.10232 0.16461 0.0
H3626 H 0.64058 0.11267 0.15055 0.0
C3627 C 0.62513 0.14068 0.10545 0.0
C3628 C 0.63783 0.11946 0.11631 0.0
H3629 H 0.6264 0.09724 0.12461 0.0
C3630 C 0.64703 0.12131 0.12283 0.0
C3631 C 0.63054 0.11045 0.11667 0.0
C3632 C 0.62083 0.10779 0.10946 0.0
C3633 C 0.6488 0.11469 0.13012 0.0
C3634 C 0.64111 0.10609 0.13094 0.0
C3635 C 0.63224 0.1039 0.12402 0.0
C3636 C 0.6416 0.09984 0.13946 0.0
C3637 C 0.65876 0.11708 0.13701 0.0
C3638 C 0.64185 0.08917 0.13787 0.0
C3639 C 0.64138 0.08321 0.14591 0.0
C3640 C 0.64048 0.08783 0.15563 0.0
C3641 C 0.64043 0.09854 0.15719 0.0
C3642 C 0.64097 0.10448 0.14918 0.0
H3643 H 0.66517 0.12181 0.13358 0.0
H3644 H 0.65702 0.12156 0.144 0.0
H3645 H 0.66168 0.10991 0.139 0.0
H3646 H 0.64224 0.08544 0.13039 0.0
H3647 H 0.64134 0.07496 0.1445 0.0
H3648 H 0.53638 0.86745 0.82717 0.0
H3649 H 0.54972 0.8631 0.8392 0.0
H3650 H 0.56463 0.84766 0.81527 0.0
H3651 H 0.55118 0.8518 0.80315 0.0
H3652 H 0.5555 0.84318 0.84286 0.0
H3653 H 0.58855 0.86951 0.83 0.0
H3654 H 0.57478 0.87045 0.82681 0.0
H3655 H 0.58103 0.86043 0.82052 0.0
C3656 C 0.54239 0.86299 0.82446 0.0
C3657 C 0.54271 0.86 0.81418 0.0
C3658 C 0.55004 0.86056 0.83134 0.0
C3659 C 0.55821 0.85516 0.8281 0.0
C3660 C 0.55847 0.85197 0.81789 0.0
H3661 H 0.60404 0.83072 0.86721 0.0
H3662 H 0.59008 0.83221 0.85434 0.0
C3663 C 0.5508 0.85438 0.81099 0.0
C3664 C 0.56656 0.85309 0.83543 0.0
H3665 H 0.59285 0.85961 0.84291 0.0
C3666 C 0.56368 0.84671 0.84286 0.0
C3667 C 0.57719 0.8578 0.83543 0.0
C3668 C 0.58062 0.865 0.82782 0.0
C3669 C 0.57118 0.84494 0.85033 0.0
C3670 C 0.58181 0.84964 0.85031 0.0
C3671 C 0.58469 0.85597 0.84285 0.0
C3672 C 0.58997 0.84855 0.85825 0.0
C3673 C 0.56762 0.83833 0.85835 0.0
C3674 C 0.59455 0.85724 0.86466 0.0
C3675 C 0.60247 0.85641 0.87201 0.0
C3676 C 0.60604 0.84688 0.87306 0.0
C3677 C 0.60137 0.83815 0.86667 0.0
C3678 C 0.59342 0.83898 0.85931 0.0
H3679 H 0.55883 0.83687 0.85837 0.0
H3680 H 0.57059 0.83078 0.85706 0.0
H3681 H 0.57094 0.84203 0.86583 0.0
H3682 H 0.59198 0.86468 0.86397 0.0
H3683 H 0.60577 0.86325 0.87691 0.0
H3684 H 0.84524 0.15613 0.93468 0.0
H3685 H 0.84499 0.14469 0.91918 0.0
H3686 H 0.87734 0.14021 0.92655 0.0
H3687 H 0.87764 0.1516 0.94207 0.0
H3688 H 0.85772 0.14654 0.90332 0.0
H3689 H 0.86234 0.11073 0.92076 0.0
H3690 H 0.85899 0.12215 0.92773 0.0
H3691 H 0.87249 0.12136 0.92489 0.0
C3692 C 0.85231 0.15273 0.93299 0.0
C3693 C 0.86144 0.15472 0.93963 0.0
C3694 C 0.85215 0.14618 0.92415 0.0
C3695 C 0.86109 0.14148 0.92179 0.0
C3696 C 0.87027 0.14356 0.92834 0.0
H3697 H 0.87329 0.09925 0.871 0.0
H3698 H 0.87526 0.11175 0.88598 0.0
C3699 C 0.87043 0.15007 0.9372 0.0
C3700 C 0.86085 0.13455 0.9124 0.0
H3701 H 0.86314 0.10987 0.9032 0.0
C3702 C 0.85889 0.13851 0.90329 0.0
C3703 C 0.8624 0.12409 0.91239 0.0
C3704 C 0.86408 0.11928 0.92196 0.0
C3705 C 0.85849 0.13231 0.89415 0.0
C3706 C 0.85998 0.12185 0.89416 0.0
C3707 C 0.86206 0.11791 0.90325 0.0
C3708 C 0.85896 0.11474 0.88483 0.0
C3709 C 0.85657 0.137 0.88456 0.0
C3710 C 0.84915 0.1123 0.87927 0.0
C3711 C 0.84801 0.10519 0.87075 0.0
C3712 C 0.85666 0.10037 0.86764 0.0
C3713 C 0.86652 0.10292 0.87316 0.0
C3714 C 0.86764 0.11001 0.88173 0.0
H3715 H 0.85826 0.14556 0.88567 0.0
H3716 H 0.86155 0.13408 0.87872 0.0
H3717 H 0.84812 0.13484 0.88179 0.0
H3718 H 0.84232 0.11576 0.88163 0.0
H3719 H 0.84034 0.10343 0.86661 0.0
H3720 H 0.56176 0.16874 0.70135 0.0
H3721 H 0.57661 0.17156 0.69072 0.0
H3722 H 0.56901 0.14028 0.67681 0.0
H3723 H 0.55413 0.13745 0.68732 0.0
H3724 H 0.59435 0.16182 0.68852 0.0
H3725 H 0.56929 0.15668 0.65289 0.0
H3726 H 0.56383 0.15826 0.66491 0.0
H3727 H 0.56708 0.14591 0.66005 0.0
C3728 C 0.5633 0.16245 0.69606 0.0
C3729 C 0.55671 0.1529 0.69509 0.0
C3730 C 0.57175 0.16408 0.68997 0.0
C3731 C 0.57377 0.1562 0.68283 0.0
C3732 C 0.56741 0.14656 0.68208 0.0
H3733 H 0.62015 0.14923 0.63912 0.0
H3734 H 0.60656 0.1466 0.65108 0.0
C3735 C 0.55893 0.14495 0.6881 0.0
C3736 C 0.58253 0.15802 0.67617 0.0
H3737 H 0.58789 0.15731 0.65161 0.0
C3738 C 0.59294 0.1609 0.68045 0.0
C3739 C 0.58066 0.15685 0.66564 0.0
C3740 C 0.5696 0.15436 0.66059 0.0
C3741 C 0.60156 0.1624 0.67447 0.0
C3742 C 0.59969 0.16106 0.66396 0.0
C3743 C 0.58929 0.15825 0.65968 0.0
C3744 C 0.60839 0.1626 0.65723 0.0
C3745 C 0.61263 0.16522 0.67941 0.0
C3746 C 0.6139 0.17247 0.65676 0.0
C3747 C 0.62165 0.174 0.64993 0.0
C3748 C 0.62403 0.16568 0.64347 0.0
C3749 C 0.61859 0.15577 0.64408 0.0
C3750 C 0.61079 0.15426 0.65086 0.0
H3751 H 0.61296 0.16395 0.68744 0.0
H3752 H 0.61824 0.16065 0.67557 0.0
H3753 H 0.61536 0.1735 0.67886 0.0
H3754 H 0.61205 0.17902 0.66153 0.0
H3755 H 0.62575 0.18171 0.64967 0.0
H3756 H 0.62921 0.82803 0.41405 0.0
H3757 H 0.63061 0.84253 0.40397 0.0
H3758 H 0.64728 0.86233 0.42891 0.0
H3759 H 0.64615 0.84777 0.439 0.0
H3760 H 0.62288 0.86178 0.40819 0.0
H3761 H 0.66665 0.86655 0.40561 0.0
H3762 H 0.65935 0.855 0.40933 0.0
H3763 H 0.66212 0.86645 0.41799 0.0
C3764 C 0.63329 0.83543 0.41736 0.0
C3765 C 0.63764 0.83673 0.4273 0.0
C3766 C 0.63402 0.84372 0.41161 0.0
C3767 C 0.63916 0.85346 0.41566 0.0
C3768 C 0.64342 0.85483 0.42561 0.0
H3769 H 0.65059 0.91069 0.38748 0.0
H3770 H 0.65005 0.89786 0.39951 0.0
C3771 C 0.64267 0.84654 0.43138 0.0
C3772 C 0.63985 0.86217 0.40947 0.0
H3773 H 0.65726 0.87843 0.39808 0.0
C3774 C 0.63039 0.86544 0.406 0.0
C3775 C 0.64967 0.86696 0.40668 0.0
C3776 C 0.66004 0.86355 0.41002 0.0
C3777 C 0.63048 0.87335 0.39974 0.0
C3778 C 0.64028 0.87796 0.39673 0.0
C3779 C 0.64976 0.87486 0.40039 0.0
C3780 C 0.6408 0.88569 0.38945 0.0
C3781 C 0.62009 0.87675 0.39646 0.0
C3782 C 0.63599 0.88302 0.37976 0.0
C3783 C 0.63631 0.8903 0.37289 0.0
C3784 C 0.64152 0.90039 0.37555 0.0
C3785 C 0.64656 0.90297 0.3852 0.0
C3786 C 0.64622 0.89567 0.39208 0.0
H3787 H 0.61382 0.87466 0.40159 0.0
H3788 H 0.62099 0.88522 0.3961 0.0
H3789 H 0.61735 0.87286 0.3889 0.0
H3790 H 0.632 0.87528 0.3775 0.0
H3791 H 0.63255 0.88799 0.36545 0.0
H3792 H 0.96516 0.89724 0.18709 0.0
H3793 H 0.94884 0.89148 0.17647 0.0
H3794 H 0.94496 0.86282 0.1897 0.0
H3795 H 0.96129 0.86854 0.20038 0.0
H3796 H 0.94354 0.87433 0.16247 0.0
H3797 H 0.91649 0.87323 0.19335 0.0
H3798 H 0.93006 0.87946 0.19512 0.0
H3799 H 0.92716 0.86566 0.19452 0.0
C3800 C 0.96089 0.88967 0.18769 0.0
C3801 C 0.9645 0.88336 0.19461 0.0
C3802 C 0.95154 0.88641 0.18164 0.0
C3803 C 0.94561 0.87679 0.1824 0.0
C3804 C 0.94929 0.87037 0.18915 0.0
H3805 H 0.88495 0.848 0.152 0.0
H3806 H 0.90218 0.85099 0.16167 0.0
C3807 C 0.95862 0.87365 0.19524 0.0
C3808 C 0.93558 0.87353 0.17609 0.0
H3809 H 0.9088 0.8674 0.17708 0.0
C3810 C 0.93594 0.8728 0.16566 0.0
C3811 C 0.92569 0.87152 0.18028 0.0
C3812 C 0.92476 0.87258 0.19142 0.0
C3813 C 0.92666 0.87013 0.1593 0.0
C3814 C 0.91677 0.86827 0.16349 0.0
C3815 C 0.91642 0.8688 0.17391 0.0
C3816 C 0.90663 0.86623 0.15723 0.0
C3817 C 0.92752 0.86926 0.14815 0.0
C3818 C 0.90344 0.87382 0.15157 0.0
C3819 C 0.89363 0.87214 0.14606 0.0
C3820 C 0.88681 0.86283 0.14611 0.0
C3821 C 0.89008 0.8552 0.15172 0.0
C3822 C 0.89988 0.85691 0.15728 0.0
H3823 H 0.93568 0.86821 0.14616 0.0
H3824 H 0.92186 0.86271 0.14434 0.0
H3825 H 0.92556 0.87645 0.14527 0.0
H3826 H 0.90846 0.88113 0.15157 0.0
H3827 H 0.89137 0.87814 0.14175 0.0
H3828 H 0.07392 0.65585 0.21183 0.0
H3829 H 0.08841 0.65847 0.20077 0.0
H3830 H 0.06862 0.64067 0.17643 0.0
H3831 H 0.05419 0.63785 0.18742 0.0
H3832 H 0.09842 0.6432 0.18913 0.0
H3833 H 0.07872 0.6686 0.1657 0.0
H3834 H 0.07456 0.66596 0.17787 0.0
H3835 H 0.07073 0.65662 0.16721 0.0
C3836 C 0.07268 0.65242 0.20415 0.0
C3837 C 0.06285 0.64671 0.20049 0.0
C3838 C 0.08095 0.65396 0.19783 0.0
C3839 C 0.07951 0.64988 0.18776 0.0
C3840 C 0.0698 0.64404 0.18414 0.0
H3841 H 0.12326 0.63977 0.14257 0.0
H3842 H 0.11117 0.63824 0.15595 0.0
C3843 C 0.06155 0.64248 0.19043 0.0
C3844 C 0.08813 0.6517 0.18099 0.0
H3845 H 0.09414 0.66245 0.15967 0.0
C3846 C 0.09754 0.64746 0.18272 0.0
C3847 C 0.08699 0.65738 0.17272 0.0
C3848 C 0.07725 0.66249 0.17078 0.0
C3849 C 0.10573 0.6485 0.1762 0.0
C3850 C 0.10439 0.65382 0.1677 0.0
C3851 C 0.09511 0.65831 0.16615 0.0
C3852 C 0.11239 0.65468 0.16018 0.0
C3853 C 0.11574 0.64394 0.17847 0.0
C3854 C 0.11704 0.66443 0.15807 0.0
C3855 C 0.12394 0.66532 0.15043 0.0
C3856 C 0.12627 0.65648 0.14469 0.0
C3857 C 0.12175 0.64672 0.14694 0.0
C3858 C 0.11485 0.64583 0.1546 0.0
H3859 H 0.11671 0.64263 0.18647 0.0
H3860 H 0.11538 0.6364 0.1739 0.0
H3861 H 0.12284 0.64904 0.1766 0.0
H3862 H 0.11523 0.67136 0.16228 0.0
H3863 H 0.1274 0.67295 0.14897 0.0
H3864 H 0.11977 0.32055 0.90004 0.0
H3865 H 0.12093 0.33473 0.88956 0.0
H3866 H 0.1356 0.35571 0.91461 0.0
H3867 H 0.13476 0.3415 0.92509 0.0
H3868 H 0.11203 0.35317 0.89238 0.0
H3869 H 0.15601 0.36071 0.89254 0.0
H3870 H 0.14913 0.34903 0.89641 0.0
H3871 H 0.15085 0.36081 0.90466 0.0
C3872 C 0.12337 0.32815 0.90329 0.0
C3873 C 0.12724 0.32988 0.91339 0.0
C3874 C 0.12396 0.33625 0.89731 0.0
C3875 C 0.12848 0.34623 0.90128 0.0
C3876 C 0.13224 0.34803 0.91137 0.0
H3877 H 0.13801 0.40407 0.87434 0.0
H3878 H 0.1374 0.39084 0.88595 0.0
C3879 C 0.13165 0.33992 0.91737 0.0
C3880 C 0.12904 0.35476 0.89486 0.0
H3881 H 0.14632 0.37218 0.88462 0.0
C3882 C 0.11952 0.35733 0.89067 0.0
C3883 C 0.13883 0.36019 0.8927 0.0
C3884 C 0.1493 0.35752 0.89673 0.0
C3885 C 0.11953 0.36521 0.88439 0.0
C3886 C 0.12932 0.37053 0.8821 0.0
C3887 C 0.13883 0.36807 0.8864 0.0
C3888 C 0.12984 0.37849 0.87505 0.0
C3889 C 0.10905 0.36785 0.88034 0.0
C3890 C 0.12598 0.37586 0.86505 0.0
C3891 C 0.12636 0.38337 0.8584 0.0
C3892 C 0.13067 0.39365 0.86162 0.0
C3893 C 0.13472 0.39621 0.87161 0.0
C3894 C 0.13433 0.38868 0.87826 0.0
H3895 H 0.10244 0.36508 0.88485 0.0
H3896 H 0.10935 0.37631 0.88019 0.0
H3897 H 0.10724 0.3641 0.87259 0.0
H3898 H 0.12272 0.36799 0.86237 0.0
H3899 H 0.12337 0.3811 0.85071 0.0
H3900 H 0.45302 0.40697 0.67639 0.0
H3901 H 0.4366 0.40098 0.66597 0.0
H3902 H 0.43701 0.3703 0.67454 0.0
H3903 H 0.45343 0.37626 0.68502 0.0
H3904 H 0.43244 0.38586 0.64996 0.0
H3905 H 0.40739 0.37609 0.68095 0.0
H3906 H 0.42036 0.38363 0.68308 0.0
H3907 H 0.41909 0.36984 0.68044 0.0
C3908 C 0.44966 0.39894 0.67601 0.0
C3909 C 0.4545 0.3921 0.68156 0.0
C3910 C 0.44025 0.39553 0.67008 0.0
C3911 C 0.43549 0.38524 0.66961 0.0
C3912 C 0.44041 0.37834 0.67499 0.0
H3913 H 0.37744 0.3527 0.63727 0.0
H3914 H 0.39464 0.35696 0.64694 0.0
C3915 C 0.4498 0.38175 0.68095 0.0
C3916 C 0.42543 0.38175 0.66341 0.0
H3917 H 0.39947 0.37166 0.66451 0.0
C3918 C 0.42523 0.38276 0.65314 0.0
C3919 C 0.41604 0.37769 0.66758 0.0
C3920 C 0.41566 0.37682 0.67863 0.0
C3921 C 0.41589 0.37981 0.64692 0.0
C3922 C 0.40649 0.37585 0.65111 0.0
C3923 C 0.40672 0.37468 0.66134 0.0
C3924 C 0.39625 0.37322 0.64506 0.0
C3925 C 0.41615 0.38087 0.6359 0.0
C3926 C 0.39145 0.38097 0.6409 0.0
C3927 C 0.38165 0.37857 0.6354 0.0
C3928 C 0.37647 0.36837 0.63397 0.0
C3929 C 0.3813 0.36061 0.63815 0.0
C3930 C 0.39109 0.36303 0.64371 0.0
H3931 H 0.42438 0.38159 0.63348 0.0
H3932 H 0.41134 0.37415 0.63141 0.0
H3933 H 0.41273 0.38791 0.63426 0.0
H3934 H 0.39524 0.38891 0.64199 0.0
H3935 H 0.37816 0.38469 0.6322 0.0
H3936 H 0.12524 0.64175 0.60361 0.0
H3937 H 0.12809 0.6273 0.61316 0.0
H3938 H 0.0966 0.6267 0.62336 0.0
H3939 H 0.09366 0.64108 0.6138 0.0
H3940 H 0.12631 0.62804 0.6347 0.0
H3941 H 0.099 0.59597 0.61327 0.0
H3942 H 0.10399 0.60756 0.60793 0.0
H3943 H 0.09339 0.60767 0.61613 0.0
C3944 C 0.11887 0.63842 0.60776 0.0
C3945 C 0.10923 0.64254 0.60797 0.0
C3946 C 0.12052 0.6302 0.61322 0.0
C3947 C 0.11251 0.62588 0.61885 0.0
C3948 C 0.10282 0.62985 0.61894 0.0
H3949 H 0.1018 0.58443 0.66275 0.0
H3950 H 0.10105 0.59507 0.64898 0.0
C3951 C 0.10119 0.63812 0.61356 0.0
C3952 C 0.1145 0.61773 0.62525 0.0
H3953 H 0.10561 0.59304 0.62948 0.0
C3954 C 0.12191 0.62033 0.6335 0.0
C3955 C 0.10871 0.60773 0.62365 0.0
C3956 C 0.10088 0.6045 0.61472 0.0
C3957 C 0.12332 0.61333 0.64051 0.0
C3958 C 0.11736 0.60336 0.63903 0.0
C3959 C 0.11019 0.60066 0.63058 0.0
C3960 C 0.11779 0.59597 0.64662 0.0
C3961 C 0.13076 0.61689 0.64968 0.0
C3962 C 0.12738 0.59262 0.64965 0.0
C3963 C 0.12787 0.58666 0.65766 0.0
C3964 C 0.11874 0.58386 0.6627 0.0
C3965 C 0.10902 0.58666 0.65919 0.0
C3966 C 0.10856 0.59267 0.65126 0.0
H3967 H 0.13278 0.62542 0.65079 0.0
H3968 H 0.12722 0.61429 0.65648 0.0
H3969 H 0.13826 0.61355 0.64885 0.0
H3970 H 0.13455 0.59487 0.64601 0.0
H3971 H 0.13548 0.58464 0.66017 0.0
H3972 H 0.4226 0.36085 0.09199 0.0
H3973 H 0.41832 0.37552 0.10279 0.0
H3974 H 0.40767 0.38924 0.07694 0.0
H3975 H 0.41152 0.37435 0.06607 0.0
H3976 H 0.42581 0.39622 0.10367 0.0
H3977 H 0.38224 0.38907 0.09392 0.0
H3978 H 0.39087 0.37965 0.09057 0.0
H3979 H 0.39037 0.39053 0.08358 0.0
C3980 C 0.41924 0.36692 0.08859 0.0
C3981 C 0.41729 0.36635 0.07816 0.0
C3982 C 0.41688 0.37535 0.09477 0.0
C3983 C 0.41252 0.38339 0.09068 0.0
C3984 C 0.41084 0.38302 0.08026 0.0
H3985 H 0.39415 0.43773 0.12597 0.0
H3986 H 0.39877 0.42648 0.11168 0.0
C3987 C 0.41317 0.37456 0.07406 0.0
C3988 C 0.4097 0.39207 0.09742 0.0
H3989 H 0.38864 0.4033 0.1057 0.0
C3990 C 0.4177 0.39784 0.10404 0.0
C3991 C 0.3991 0.39417 0.09788 0.0
C3992 C 0.39011 0.388 0.09118 0.0
C3993 C 0.41535 0.40544 0.1113 0.0
C3994 C 0.40474 0.40729 0.11196 0.0
C3995 C 0.39678 0.40185 0.1051 0.0
C3996 C 0.40164 0.41405 0.12038 0.0
C3997 C 0.42418 0.41129 0.1184 0.0
C3998 C 0.40154 0.41065 0.12989 0.0
C3999 C 0.3988 0.41695 0.13799 0.0
C4000 C 0.39617 0.42684 0.13677 0.0
C4001 C 0.39608 0.43015 0.12716 0.0
C4002 C 0.39877 0.42378 0.11901 0.0
H4003 H 0.43212 0.41047 0.1157 0.0
H4004 H 0.4233 0.41961 0.11948 0.0
H4005 H 0.42374 0.40827 0.12578 0.0
H4006 H 0.40359 0.4031 0.13104 0.0
H4007 H 0.39869 0.41403 0.14522 0.0
H4008 H 0.54903 0.37245 0.21914 0.0
H4009 H 0.56283 0.3671 0.20872 0.0
H4010 H 0.53895 0.34813 0.18853 0.0
H4011 H 0.52509 0.35344 0.19893 0.0
H4012 H 0.56819 0.34747 0.20257 0.0
H4013 H 0.55488 0.36697 0.17029 0.0
H4014 H 0.55025 0.36942 0.18257 0.0
H4015 H 0.54487 0.3579 0.17466 0.0
C4016 C 0.54672 0.36704 0.21255 0.0
C4017 C 0.53595 0.36342 0.20983 0.0
C4018 C 0.55461 0.36402 0.20659 0.0
C4019 C 0.5519 0.35735 0.19777 0.0
C4020 C 0.5412 0.35346 0.19519 0.0
H4021 H 0.5915 0.33838 0.1504 0.0
H4022 H 0.57677 0.33929 0.16122 0.0
C4023 C 0.53329 0.3565 0.20114 0.0
C4024 C 0.56028 0.3547 0.19119 0.0
H4025 H 0.56918 0.35747 0.16809 0.0
C4026 C 0.5684 0.34962 0.19502 0.0
C4027 C 0.56051 0.35751 0.18134 0.0
C4028 C 0.55223 0.36333 0.17697 0.0
C4029 C 0.57678 0.3473 0.18926 0.0
C4030 C 0.57711 0.35028 0.17948 0.0
C4031 C 0.56888 0.35516 0.17558 0.0
C4032 C 0.58619 0.34894 0.17333 0.0
C4033 C 0.58518 0.34165 0.19366 0.0
C4034 C 0.59636 0.35403 0.17657 0.0
C4035 C 0.60477 0.3535 0.17044 0.0
C4036 C 0.60317 0.34791 0.16091 0.0
C4037 C 0.59301 0.34265 0.15775 0.0
C4038 C 0.58459 0.3432 0.16389 0.0
H4039 H 0.58224 0.33734 0.19986 0.0
H4040 H 0.5879 0.33615 0.1879 0.0
H4041 H 0.59212 0.34731 0.19673 0.0
H4042 H 0.59773 0.35866 0.18375 0.0
H4043 H 0.61252 0.35757 0.17311 0.0
H4044 H 0.96939 0.66149 0.70929 0.0
H4045 H 0.96054 0.66623 0.69419 0.0
H4046 H 0.95619 0.69538 0.7099 0.0
H4047 H 0.96524 0.69079 0.72503 0.0
H4048 H 0.93927 0.67118 0.69308 0.0
H4049 H 0.96863 0.70314 0.68334 0.0
H4050 H 0.97214 0.69381 0.69148 0.0
H4051 H 0.96498 0.70397 0.69604 0.0
C4052 C 0.96674 0.669 0.70949 0.0
C4053 C 0.96805 0.67578 0.71835 0.0
C4054 C 0.96163 0.67167 0.70087 0.0
C4055 C 0.95782 0.68119 0.70091 0.0
C4056 C 0.95922 0.68806 0.70969 0.0
H4057 H 0.92063 0.70681 0.65547 0.0
H4058 H 0.93148 0.70446 0.67049 0.0
C4059 C 0.9643 0.68538 0.71834 0.0
C4060 C 0.95177 0.6836 0.69194 0.0
H4061 H 0.9523 0.69969 0.67354 0.0
C4062 C 0.94212 0.6774 0.6888 0.0
C4063 C 0.95548 0.69179 0.68644 0.0
C4064 C 0.96591 0.69854 0.68941 0.0
C4065 C 0.93604 0.67915 0.68029 0.0
C4066 C 0.93986 0.68718 0.67463 0.0
C4067 C 0.94943 0.69351 0.67786 0.0
C4068 C 0.93405 0.68896 0.66526 0.0
C4069 C 0.92551 0.67247 0.67752 0.0
C4070 C 0.9322 0.68115 0.65724 0.0
C4071 C 0.92602 0.68246 0.64869 0.0
C4072 C 0.92164 0.69165 0.64796 0.0
C4073 C 0.92392 0.69966 0.65581 0.0
C4074 C 0.93008 0.69832 0.6644 0.0
H4075 H 0.92242 0.66875 0.68401 0.0
H4076 H 0.9195 0.67703 0.67462 0.0
H4077 H 0.92654 0.66627 0.6716 0.0
H4078 H 0.93542 0.67397 0.65765 0.0
H4079 H 0.92457 0.67623 0.64268 0.0
H4080 H 0.62214 0.36881 0.57267 0.0
H4081 H 0.62684 0.38384 0.58505 0.0
H4082 H 0.61572 0.36572 0.60824 0.0
H4083 H 0.61089 0.35064 0.59589 0.0
H4084 H 0.61321 0.39326 0.59758 0.0
H4085 H 0.64557 0.37917 0.61948 0.0
H4086 H 0.64056 0.37324 0.60718 0.0
H4087 H 0.63326 0.3706 0.61785 0.0
C4088 C 0.62064 0.36802 0.5804 0.0
C4089 C 0.61612 0.35852 0.58329 0.0
C4090 C 0.62339 0.3766 0.58746 0.0
C4091 C 0.62176 0.37585 0.59757 0.0
C4092 C 0.61726 0.3664 0.60051 0.0
H4093 H 0.62979 0.41919 0.65096 0.0
H4094 H 0.62631 0.40399 0.63863 0.0
C4095 C 0.6145 0.3578 0.59344 0.0
C4096 C 0.6244 0.38508 0.60496 0.0
H4097 H 0.63996 0.39479 0.62611 0.0
C4098 C 0.6191 0.39363 0.60379 0.0
C4099 C 0.63207 0.38551 0.61306 0.0
C4100 C 0.63828 0.37668 0.61446 0.0
C4101 C 0.6211 0.40254 0.61063 0.0
C4102 C 0.62878 0.40298 0.61872 0.0
C4103 C 0.6341 0.39443 0.61988 0.0
C4104 C 0.63124 0.41218 0.62618 0.0
C4105 C 0.61479 0.41131 0.60926 0.0
C4106 C 0.63537 0.42178 0.62329 0.0
C4107 C 0.6373 0.4305 0.63031 0.0
C4108 C 0.63518 0.42975 0.64035 0.0
C4109 C 0.63133 0.42005 0.64325 0.0
C4110 C 0.6294 0.41135 0.63623 0.0
H4111 H 0.60748 0.40877 0.60425 0.0
H4112 H 0.61249 0.41471 0.61655 0.0
H4113 H 0.61973 0.41744 0.60586 0.0
H4114 H 0.63703 0.42254 0.6156 0.0
H4115 H 0.64021 0.43786 0.62782 0.0
H4116 H 0.4687 0.66169 0.81125 0.0
H4117 H 0.4586 0.66332 0.82618 0.0
H4118 H 0.43012 0.64891 0.80879 0.0
H4119 H 0.4401 0.64714 0.79395 0.0
H4120 H 0.43884 0.67334 0.82853 0.0
H4121 H 0.43373 0.63154 0.83307 0.0
H4122 H 0.44399 0.63754 0.826 0.0
H4123 H 0.43057 0.63454 0.82062 0.0
C4124 C 0.46029 0.65885 0.81064 0.0
C4125 C 0.45519 0.65429 0.80142 0.0
C4126 C 0.45454 0.65983 0.81914 0.0
C4127 C 0.44366 0.65615 0.81857 0.0
C4128 C 0.43854 0.65172 0.80938 0.0
H4129 H 0.38995 0.64888 0.85266 0.0
H4130 H 0.40332 0.64961 0.84041 0.0
C4131 C 0.44424 0.65079 0.80089 0.0
C4132 C 0.43754 0.65679 0.82754 0.0
H4133 H 0.42271 0.64175 0.84219 0.0
C4134 C 0.43542 0.66647 0.83164 0.0
C4135 C 0.43315 0.6478 0.83156 0.0
C4136 C 0.43553 0.63726 0.82766 0.0
C4137 C 0.42853 0.66734 0.83937 0.0
C4138 C 0.42381 0.6583 0.84312 0.0
C4139 C 0.42629 0.64867 0.83926 0.0
C4140 C 0.41571 0.6585 0.85055 0.0
C4141 C 0.42597 0.67785 0.84312 0.0
C4142 C 0.41824 0.66333 0.86031 0.0
C4143 C 0.41059 0.66291 0.86736 0.0
C4144 C 0.40034 0.65757 0.86477 0.0
C4145 C 0.39782 0.65292 0.85493 0.0
C4146 C 0.40543 0.65336 0.84791 0.0
H4147 H 0.42869 0.68379 0.83818 0.0
H4148 H 0.41729 0.67765 0.84373 0.0
H4149 H 0.42997 0.68023 0.85068 0.0
H4150 H 0.42619 0.66719 0.86254 0.0
H4151 H 0.41278 0.66648 0.87491 0.0
H4152 H 0.04184 0.34101 0.28702 0.0
H4153 H 0.05585 0.33653 0.29834 0.0
H4154 H 0.04386 0.35378 0.32304 0.0
H4155 H 0.02999 0.35845 0.31181 0.0
H4156 H 0.07135 0.35063 0.30987 0.0
H4157 H 0.04747 0.32619 0.33386 0.0
H4158 H 0.04234 0.32905 0.32183 0.0
H4159 H 0.04277 0.33832 0.33263 0.0
C4160 C 0.04217 0.34384 0.29487 0.0
C4161 C 0.03476 0.35007 0.2985 0.0
C4162 C 0.05014 0.34122 0.30133 0.0
C4163 C 0.05078 0.34469 0.31155 0.0
C4164 C 0.04334 0.35081 0.31522 0.0
H4165 H 0.10135 0.35865 0.35646 0.0
H4166 H 0.08706 0.35792 0.34347 0.0
C4167 C 0.03541 0.35346 0.30878 0.0
C4168 C 0.05967 0.34261 0.31829 0.0
H4169 H 0.06527 0.33292 0.34027 0.0
C4170 C 0.07004 0.34662 0.31644 0.0
C4171 C 0.05795 0.33729 0.32679 0.0
C4172 C 0.04704 0.33237 0.32886 0.0
C4173 C 0.07868 0.34591 0.32314 0.0
C4174 C 0.07688 0.34114 0.33194 0.0
C4175 C 0.0666 0.33666 0.33355 0.0
C4176 C 0.08547 0.34138 0.33986 0.0
C4177 C 0.08967 0.35043 0.32085 0.0
C4178 C 0.08915 0.33227 0.34228 0.0
C4179 C 0.09742 0.33267 0.34967 0.0
C4180 C 0.10208 0.34218 0.3548 0.0
C4181 C 0.09814 0.35123 0.3525 0.0
C4182 C 0.08994 0.35083 0.34509 0.0
H4183 H 0.09011 0.3514 0.31279 0.0
H4184 H 0.09179 0.35814 0.32516 0.0
H4185 H 0.09564 0.34549 0.32306 0.0
H4186 H 0.08573 0.3249 0.33834 0.0
H4187 H 0.1003 0.32556 0.35124 0.0
H4188 H 0.36602 0.65273 0.43424 0.0
H4189 H 0.36606 0.64217 0.41826 0.0
H4190 H 0.33368 0.64659 0.41095 0.0
H4191 H 0.33362 0.65723 0.42689 0.0
H4192 H 0.35364 0.62419 0.41109 0.0
H4193 H 0.34787 0.65437 0.38614 0.0
H4194 H 0.35135 0.65735 0.39937 0.0
H4195 H 0.33783 0.65275 0.39486 0.0
C4196 C 0.3589 0.65142 0.42924 0.0
C4197 C 0.34982 0.65584 0.4318 0.0
C4198 C 0.35895 0.64543 0.42009 0.0
C4199 C 0.34994 0.64374 0.41333 0.0
C4200 C 0.34082 0.64802 0.41593 0.0
H4201 H 0.33216 0.60547 0.35745 0.0
H4202 H 0.33283 0.61704 0.37294 0.0
C4203 C 0.34078 0.65407 0.42505 0.0
C4204 C 0.35 0.63723 0.40372 0.0
H4205 H 0.34628 0.6371 0.37841 0.0
C4206 C 0.35211 0.62704 0.40395 0.0
C4207 C 0.34801 0.64096 0.3944 0.0
C4208 C 0.34624 0.65198 0.39364 0.0
C4209 C 0.35206 0.62042 0.39512 0.0
C4210 C 0.34995 0.62412 0.38583 0.0
C4211 C 0.34788 0.6343 0.38557 0.0
C4212 C 0.3497 0.61745 0.3763 0.0
C4213 C 0.35405 0.60944 0.39578 0.0
C4214 C 0.359 0.61403 0.373 0.0
C4215 C 0.35865 0.60744 0.36416 0.0
C4216 C 0.34897 0.60415 0.35849 0.0
C4217 C 0.33971 0.60778 0.36172 0.0
C4218 C 0.34008 0.61441 0.37053 0.0
H4219 H 0.35353 0.60724 0.4035 0.0
H4220 H 0.34825 0.60401 0.39069 0.0
H4221 H 0.36211 0.60856 0.39344 0.0
H4222 H 0.36652 0.6164 0.37731 0.0
H4223 H 0.3659 0.60472 0.36188 0.0
H4224 H 0.09964 0.3359 1.00339 0.0
H4225 H 0.09493 0.34183 0.02004 0.0
H4226 H 0.09779 0.31194 0.0296 0.0
H4227 H 0.10299 0.30604 0.01302 0.0
H4228 H 0.07858 0.33501 0.03125 0.0
H4229 H 0.11766 0.3311 0.05011 0.0
H4230 H 0.1155 0.33026 0.0367 0.0
H4231 H 0.11069 0.31954 0.04325 0.0
C4232 C 0.09939 0.33059 0.00905 0.0
C4233 C 0.10188 0.32054 0.0069 0.0
C4234 C 0.09658 0.33398 0.01854 0.0
C4235 C 0.09618 0.32739 0.02612 0.0
C4236 C 0.09826 0.31722 0.02393 0.0
H4237 H 0.08957 0.34728 0.08951 0.0
H4238 H 0.08888 0.33583 0.07385 0.0
C4239 C 0.10112 0.31383 0.01441 0.0
C4240 C 0.09388 0.3314 0.03632 0.0
H4241 H 0.10516 0.33779 0.0601 0.0
C4242 C 0.08435 0.33551 0.03758 0.0
C4243 C 0.10139 0.33204 0.04459 0.0
C4244 C 0.11193 0.32808 0.04364 0.0
C4245 C 0.08228 0.34052 0.0468 0.0
C4246 C 0.08997 0.34151 0.05494 0.0
C4247 C 0.09927 0.33698 0.05383 0.0
C4248 C 0.0891 0.34813 0.06432 0.0
C4249 C 0.07196 0.34488 0.04772 0.0
C4250 C 0.08938 0.35881 0.06412 0.0
C4251 C 0.08984 0.36532 0.073 0.0
C4252 C 0.09002 0.3613 0.08226 0.0
C4253 C 0.08935 0.35057 0.08246 0.0
C4254 C 0.08899 0.34404 0.07355 0.0
H4255 H 0.06576 0.34096 0.04197 0.0
H4256 H 0.069 0.34415 0.05523 0.0
H4257 H 0.07327 0.35319 0.04664 0.0
H4258 H 0.08965 0.36214 0.0571 0.0
H4259 H 0.0903 0.37356 0.07263 0.0
H4260 H 0.98246 0.88112 0.295 0.0
H4261 H 0.97818 0.88317 0.31251 0.0
H4262 H 0.98746 0.916 0.31378 0.0
H4263 H 0.99158 0.91407 0.29626 0.0
H4264 H 0.99137 0.8936 0.33082 0.0
H4265 H 0.95551 0.91147 0.32085 0.0
H4266 H 0.96201 0.90397 0.31174 0.0
H4267 H 0.96767 0.91697 0.31616 0.0
C4268 C 0.98362 0.88877 0.29902 0.0
C4269 C 0.98729 0.89745 0.29422 0.0
C4270 C 0.98124 0.88991 0.30903 0.0
C4271 C 0.98242 0.89974 0.31437 0.0
C4272 C 0.98644 0.90836 0.30974 0.0
H4273 H 0.96213 0.92492 0.37034 0.0
H4274 H 0.97031 0.92204 0.35453 0.0
C4275 C 0.98886 0.90723 0.29975 0.0
C4276 C 0.97886 0.90108 0.32461 0.0
H4277 H 0.96001 0.91108 0.33799 0.0
C4278 C 0.98451 0.8974 0.33242 0.0
C4279 C 0.96989 0.906 0.32662 0.0
C4280 C 0.96334 0.90977 0.31841 0.0
C4281 C 0.98155 0.89877 0.3423 0.0
C4282 C 0.9726 0.90375 0.34432 0.0
C4283 C 0.96691 0.90732 0.33645 0.0
C4284 C 0.96891 0.90546 0.3545 0.0
C4285 C 0.98819 0.8951 0.35051 0.0
C4286 C 0.96557 0.89711 0.35984 0.0
C4287 C 0.96095 0.89876 0.36893 0.0
C4288 C 0.95945 0.90877 0.37272 0.0
C4289 C 0.96311 0.91712 0.36753 0.0
C4290 C 0.96779 0.91548 0.35852 0.0
H4291 H 0.99624 0.89406 0.3482 0.0
H4292 H 0.98899 0.90061 0.35739 0.0
H4293 H 0.98427 0.88754 0.35233 0.0
H4294 H 0.96613 0.88929 0.35679 0.0
H4295 H 0.95809 0.89218 0.37273 0.0
H4296 H 0.37347 0.68046 0.52096 0.0
H4297 H 0.37747 0.67205 0.53581 0.0
H4298 H 0.35907 0.69168 0.55302 0.0
H4299 H 0.35471 0.69992 0.53809 0.0
H4300 H 0.38758 0.68027 0.55428 0.0
H4301 H 0.34612 0.66263 0.55806 0.0
H4302 H 0.3502 0.6681 0.54692 0.0
H4303 H 0.3479 0.67636 0.55777 0.0
C4304 C 0.37018 0.68292 0.52787 0.0
C4305 C 0.36367 0.69079 0.5283 0.0
C4306 C 0.37255 0.67817 0.53638 0.0
C4307 C 0.36845 0.68114 0.54548 0.0
C4308 C 0.36217 0.68915 0.54602 0.0
H4309 H 0.38932 0.66116 0.6027 0.0
H4310 H 0.38563 0.67162 0.58918 0.0
C4311 C 0.35977 0.69392 0.53751 0.0
C4312 C 0.37072 0.67575 0.55435 0.0
H4313 H 0.35899 0.66037 0.57068 0.0
C4314 C 0.38134 0.67595 0.5579 0.0
C4315 C 0.36256 0.67003 0.55898 0.0
C4316 C 0.35106 0.66916 0.55521 0.0
C4317 C 0.38402 0.67053 0.56593 0.0
C4318 C 0.37584 0.66491 0.57063 0.0
C4319 C 0.36523 0.66476 0.56711 0.0
C4320 C 0.37814 0.65869 0.57888 0.0
C4321 C 0.39558 0.67062 0.56912 0.0
C4322 C 0.37496 0.64799 0.57765 0.0
C4323 C 0.377 0.64203 0.58537 0.0
C4324 C 0.38222 0.64665 0.59447 0.0
C4325 C 0.38535 0.65737 0.59574 0.0
C4326 C 0.38329 0.66335 0.58801 0.0
H4327 H 0.40085 0.67328 0.56334 0.0
H4328 H 0.39768 0.67595 0.57606 0.0
H4329 H 0.39717 0.66282 0.57071 0.0
H4330 H 0.37095 0.64424 0.57069 0.0
H4331 H 0.37448 0.63378 0.58422 0.0
H4332 H 0.53056 0.12928 0.79275 0.0
H4333 H 0.53562 0.12577 0.80972 0.0
H4334 H 0.56251 0.14963 0.81124 0.0
H4335 H 0.55724 0.15349 0.79451 0.0
H4336 H 0.55346 0.11883 0.8155 0.0
H4337 H 0.55139 0.15577 0.83815 0.0
H4338 H 0.54543 0.15287 0.82554 0.0
H4339 H 0.55937 0.15763 0.82779 0.0
C4340 C 0.53738 0.13397 0.7968 0.0
C4341 C 0.54351 0.14165 0.79224 0.0
C4342 C 0.54031 0.13191 0.80648 0.0
C4343 C 0.54938 0.13752 0.81182 0.0
C4344 C 0.55535 0.14535 0.80738 0.0
H4345 H 0.59282 0.1184 0.85421 0.0
H4346 H 0.58242 0.12253 0.83971 0.0
C4347 C 0.55241 0.14744 0.79773 0.0
C4348 C 0.5532 0.13456 0.82159 0.0
H4349 H 0.56244 0.1444 0.84535 0.0
C4350 C 0.55526 0.12439 0.82207 0.0
C4351 C 0.55541 0.14175 0.83023 0.0
C4352 C 0.55267 0.15258 0.83044 0.0
C4353 C 0.55997 0.12136 0.83076 0.0
C4354 C 0.56292 0.12875 0.83914 0.0
C4355 C 0.56034 0.13878 0.83887 0.0
C4356 C 0.56918 0.12636 0.84802 0.0
C4357 C 0.56182 0.11027 0.83084 0.0
C4358 C 0.56534 0.12746 0.85757 0.0
C4359 C 0.57134 0.12519 0.8659 0.0
C4360 C 0.58128 0.12184 0.86478 0.0
C4361 C 0.58515 0.1209 0.85525 0.0
C4362 C 0.57918 0.12319 0.84696 0.0
H4363 H 0.55622 0.10506 0.82536 0.0
H4364 H 0.57 0.10952 0.82875 0.0
H4365 H 0.56093 0.10766 0.83837 0.0
H4366 H 0.55767 0.12998 0.85855 0.0
H4367 H 0.56817 0.12601 0.87317 0.0
H4368 H 0.09429 0.63917 0.51414 0.0
H4369 H 0.0926 0.63357 0.49626 0.0
H4370 H 0.08637 0.66384 0.49013 0.0
H4371 H 0.08792 0.66952 0.5081 0.0
H4372 H 0.07479 0.63369 0.48248 0.0
H4373 H 0.11096 0.65803 0.47254 0.0
H4374 H 0.10873 0.65563 0.48525 0.0
H4375 H 0.10166 0.6646 0.47935 0.0
C4376 C 0.09246 0.64463 0.50902 0.0
C4377 C 0.0912 0.65479 0.51257 0.0
C4378 C 0.09155 0.64142 0.49879 0.0
C4379 C 0.08946 0.64831 0.49188 0.0
C4380 C 0.08817 0.65846 0.49535 0.0
H4381 H 0.08621 0.63675 0.42645 0.0
H4382 H 0.08529 0.64491 0.44348 0.0
C4383 C 0.08906 0.66169 0.50561 0.0
C4384 C 0.08852 0.64472 0.48106 0.0
H4385 H 0.10083 0.64728 0.45944 0.0
C4386 C 0.08044 0.6367 0.47742 0.0
C4387 C 0.09587 0.64871 0.47448 0.0
C4388 C 0.10486 0.65717 0.47806 0.0
C4389 C 0.0796 0.63244 0.46741 0.0
C4390 C 0.08718 0.63617 0.46091 0.0
C4391 C 0.09505 0.64442 0.46445 0.0
C4392 C 0.08743 0.63121 0.45058 0.0
C4393 C 0.07062 0.62396 0.46388 0.0
C4394 C 0.08905 0.62085 0.44895 0.0
C4395 C 0.08957 0.61619 0.43926 0.0
C4396 C 0.08855 0.62181 0.43103 0.0
C4397 C 0.08697 0.63221 0.43265 0.0
C4398 C 0.08646 0.63688 0.44237 0.0
H4399 H 0.06388 0.62415 0.46873 0.0
H4400 H 0.06768 0.62456 0.45607 0.0
H4401 H 0.07349 0.61638 0.46414 0.0
H4402 H 0.09005 0.6164 0.45519 0.0
H4403 H 0.09087 0.60819 0.43821 0.0
H4404 H 0.55848 0.88722 0.724 0.0
H4405 H 0.56601 0.88687 0.70775 0.0
H4406 H 0.53695 0.86946 0.69389 0.0
H4407 H 0.52936 0.86961 0.71021 0.0
H4408 H 0.56801 0.86775 0.69543 0.0
H4409 H 0.54426 0.89358 0.67611 0.0
H4410 H 0.54557 0.89398 0.68956 0.0
H4411 H 0.5372 0.88354 0.68228 0.0
C4412 C 0.55366 0.88331 0.71751 0.0
C4413 C 0.54334 0.87836 0.71843 0.0
C4414 C 0.55797 0.88317 0.70822 0.0
C4415 C 0.55203 0.87818 0.69963 0.0
C4416 C 0.54161 0.87347 0.70042 0.0
H4417 H 0.57356 0.87264 0.63861 0.0
H4418 H 0.56248 0.87099 0.65284 0.0
C4419 C 0.53729 0.87358 0.70975 0.0
C4420 C 0.55706 0.87742 0.69 0.0
H4421 H 0.55738 0.88647 0.66713 0.0
C4422 C 0.56564 0.87178 0.68921 0.0
C4423 C 0.55387 0.88259 0.68188 0.0
C4424 C 0.54476 0.88883 0.68244 0.0
C4425 C 0.57129 0.87136 0.68059 0.0
C4426 C 0.56842 0.87693 0.67263 0.0
C4427 C 0.55958 0.88225 0.67326 0.0
C4428 C 0.57499 0.87789 0.66395 0.0
C4429 C 0.5803 0.86499 0.68011 0.0
C4430 C 0.58562 0.88245 0.66547 0.0
C4431 C 0.59194 0.88337 0.65741 0.0
C4432 C 0.58774 0.87982 0.64765 0.0
C4433 C 0.57703 0.87538 0.64607 0.0
C4434 C 0.57069 0.87446 0.65418 0.0
H4435 H 0.57937 0.85882 0.68517 0.0
H4436 H 0.58087 0.86139 0.67239 0.0
H4437 H 0.58788 0.87005 0.6825 0.0
H4438 H 0.58904 0.88536 0.67292 0.0
H4439 H 0.60013 0.8869 0.65881 0.0
H4440 H 0.42783 0.33637 0.97609 0.0
H4441 H 0.42908 0.34094 0.959 0.0
H4442 H 0.45326 0.36644 0.96952 0.0
H4443 H 0.45237 0.3617 0.98651 0.0
H4444 H 0.42439 0.35867 0.95279 0.0
H4445 H 0.4658 0.35458 0.94489 0.0
H4446 H 0.45952 0.3491 0.95518 0.0
H4447 H 0.46517 0.36249 0.9564 0.0
C4448 C 0.43362 0.34278 0.97472 0.0
C4449 C 0.43997 0.34869 0.98268 0.0
C4450 C 0.43428 0.34541 0.96496 0.0
C4451 C 0.44135 0.35396 0.96295 0.0
C4452 C 0.44791 0.35969 0.97083 0.0
H4453 H 0.4357 0.39636 0.91994 0.0
H4454 H 0.43586 0.3864 0.9343 0.0
C4455 C 0.44728 0.35705 0.98058 0.0
C4456 C 0.44112 0.35756 0.95286 0.0
H4457 H 0.457 0.36557 0.93478 0.0
C4458 C 0.4315 0.36002 0.94879 0.0
C4459 C 0.45035 0.3592 0.94754 0.0
C4460 C 0.46076 0.3561 0.95118 0.0
C4461 C 0.43096 0.36455 0.93982 0.0
C4462 C 0.44034 0.36687 0.93489 0.0
C4463 C 0.44985 0.36392 0.93866 0.0
C4464 C 0.4405 0.37288 0.92616 0.0
C4465 C 0.42037 0.36693 0.93578 0.0
C4466 C 0.44338 0.3687 0.91688 0.0
C4467 C 0.44336 0.37442 0.90865 0.0
C4468 C 0.44053 0.38443 0.90964 0.0
C4469 C 0.43786 0.38865 0.91897 0.0
C4470 C 0.43788 0.38294 0.92716 0.0
H4471 H 0.41368 0.36199 0.93859 0.0
H4472 H 0.41961 0.37509 0.93825 0.0
H4473 H 0.41964 0.36584 0.92748 0.0
H4474 H 0.44551 0.36097 0.91598 0.0
H4475 H 0.44547 0.37098 0.90155 0.0
H4476 H 1.00195 0.15201 0.20476 0.0
H4477 H 0.99092 0.15332 0.18954 0.0
H4478 H 0.96338 0.15338 0.20667 0.0
H4479 H 0.97426 0.15204 0.22182 0.0
H4480 H 0.97402 0.13949 0.1812 0.0
H4481 H 0.96079 0.17744 0.19053 0.0
H4482 H 0.97183 0.17333 0.19734 0.0
H4483 H 0.95841 0.16916 0.20018 0.0
C4484 C 0.99355 0.15236 0.20528 0.0
C4485 C 0.989 0.152 0.21452 0.0
C4486 C 0.98728 0.15317 0.1966 0.0
C4487 C 0.97637 0.15367 0.19701 0.0
C4488 C 0.97184 0.15333 0.20622 0.0
H4489 H 0.91873 0.1439 0.16136 0.0
H4490 H 0.93358 0.14813 0.17405 0.0
C4491 C 0.97808 0.15254 0.21488 0.0
C4492 C 0.9695 0.15373 0.18776 0.0
H4493 H 0.95003 0.16593 0.1777 0.0
C4494 C 0.96893 0.14538 0.18032 0.0
C4495 C 0.96289 0.16144 0.18662 0.0
C4496 C 0.96358 0.1709 0.19405 0.0
C4497 C 0.96146 0.1442 0.17207 0.0
C4498 C 0.95448 0.15164 0.17121 0.0
C4499 C 0.95537 0.16023 0.17841 0.0
C4500 C 0.94557 0.1501 0.16343 0.0
C4501 C 0.96068 0.13473 0.16464 0.0
C4502 C 0.94739 0.15008 0.15326 0.0
C4503 C 0.9389 0.14764 0.14598 0.0
C4504 C 0.92849 0.14516 0.14878 0.0
C4505 C 0.92668 0.14563 0.15899 0.0
C4506 C 0.93514 0.14811 0.16624 0.0
H4507 H 0.96558 0.12897 0.16721 0.0
H4508 H 0.95231 0.13102 0.16326 0.0
H4509 H 0.96347 0.13699 0.15743 0.0
H4510 H 0.95539 0.15171 0.15096 0.0
H4511 H 0.94053 0.1473 0.13817 0.0
H4512 H 0.04769 0.10679 0.27571 0.0
H4513 H 0.06209 0.09668 0.27926 0.0
H4514 H 0.06706 0.11214 0.3092 0.0
H4515 H 0.05288 0.12234 0.30571 0.0
H4516 H 0.08402 0.10356 0.2861 0.0
H4517 H 0.06248 0.08104 0.31301 0.0
H4518 H 0.05586 0.08803 0.30424 0.0
H4519 H 0.06246 0.09468 0.31566 0.0
C4520 C 0.05191 0.10809 0.28302 0.0
C4521 C 0.04904 0.11529 0.29047 0.0
C4522 C 0.0601 0.10228 0.28504 0.0
C4523 C 0.06548 0.10353 0.29455 0.0
C4524 C 0.06282 0.11089 0.30189 0.0
H4525 H 0.12366 0.09648 0.32232 0.0
H4526 H 0.10953 0.10073 0.31115 0.0
C4527 C 0.0547 0.11669 0.29988 0.0
C4528 C 0.07396 0.09728 0.29693 0.0
H4529 H 0.08145 0.08174 0.31406 0.0
C4530 C 0.08341 0.09862 0.29208 0.0
C4531 C 0.07307 0.09066 0.30457 0.0
C4532 C 0.06288 0.08842 0.30961 0.0
C4533 C 0.09228 0.09411 0.2952 0.0
C4534 C 0.09168 0.08825 0.30345 0.0
C4535 C 0.08196 0.08629 0.30778 0.0
C4536 C 0.10123 0.08515 0.30854 0.0
C4537 C 0.10227 0.09587 0.28977 0.0
C4538 C 0.10136 0.07495 0.31075 0.0
C4539 C 0.10941 0.07252 0.31725 0.0
C4540 C 0.11738 0.08029 0.32173 0.0
C4541 C 0.11758 0.09035 0.31902 0.0
C4542 C 0.10956 0.09277 0.31253 0.0
H4543 H 0.10039 0.09691 0.28182 0.0
H4544 H 0.10724 0.10302 0.29329 0.0
H4545 H 0.10696 0.08935 0.29009 0.0
H4546 H 0.09496 0.06896 0.30781 0.0
H4547 H 0.10902 0.06472 0.31927 0.0
H4548 H 0.11027 0.74851 0.57887 0.0
H4549 H 0.11197 0.7649 0.58957 0.0
H4550 H 0.09635 0.74941 0.61249 0.0
H4551 H 0.0945 0.73304 0.60184 0.0
H4552 H 0.09592 0.77514 0.59805 0.0
H4553 H 0.12388 0.76477 0.62726 0.0
H4554 H 0.1213 0.75752 0.61508 0.0
H4555 H 0.11204 0.75564 0.62452 0.0
C4556 C 0.10713 0.7486 0.58616 0.0
C4557 C 0.10231 0.73944 0.58952 0.0
C4558 C 0.10816 0.75796 0.59228 0.0
C4559 C 0.10445 0.75833 0.60188 0.0
C4560 C 0.09949 0.74925 0.6052 0.0
H4561 H 0.10001 0.80438 0.65097 0.0
H4562 H 0.09937 0.78873 0.63935 0.0
C4563 C 0.09845 0.7399 0.5991 0.0
C4564 C 0.10559 0.76824 0.6084 0.0
H4565 H 0.11623 0.78011 0.63109 0.0
C4566 C 0.10043 0.77627 0.60524 0.0
C4567 C 0.11148 0.76968 0.61776 0.0
C4568 C 0.11758 0.76149 0.62134 0.0
C4569 C 0.10074 0.78562 0.61135 0.0
C4570 C 0.1065 0.787 0.62078 0.0
C4571 C 0.11179 0.77901 0.62387 0.0
C4572 C 0.10691 0.79655 0.62772 0.0
C4573 C 0.0946 0.79379 0.6078 0.0
C4574 C 0.11147 0.80613 0.62507 0.0
C4575 C 0.11183 0.81508 0.63169 0.0
C4576 C 0.1077 0.81457 0.6411 0.0
C4577 C 0.10324 0.80498 0.64376 0.0
C4578 C 0.10288 0.79605 0.63714 0.0
H4579 H 0.08863 0.79063 0.60155 0.0
H4580 H 0.09046 0.79736 0.61399 0.0
H4581 H 0.10019 0.79994 0.60511 0.0
H4582 H 0.11482 0.80666 0.61791 0.0
H4583 H 0.11536 0.82236 0.62945 0.0
H4584 H 0.4664 0.91422 0.7842 0.0
H4585 H 0.45259 0.91948 0.7947 0.0
H4586 H 0.43652 0.88824 0.79098 0.0
H4587 H 0.45039 0.8829 0.7806 0.0
H4588 H 0.43106 0.91876 0.79164 0.0
H4589 H 0.44068 0.89417 0.82109 0.0
H4590 H 0.44911 0.89651 0.81104 0.0
H4591 H 0.43738 0.88711 0.80899 0.0
C4592 C 0.45986 0.9085 0.78553 0.0
C4593 C 0.45953 0.89812 0.78165 0.0
C4594 C 0.45199 0.91151 0.79155 0.0
C4595 C 0.44363 0.90422 0.79379 0.0
C4596 C 0.44304 0.89395 0.78957 0.0
H4597 H 0.38662 0.91846 0.82258 0.0
H4598 H 0.39921 0.91394 0.81036 0.0
C4599 C 0.45095 0.89091 0.78362 0.0
C4600 C 0.43571 0.90733 0.80074 0.0
H4601 H 0.42534 0.90242 0.82283 0.0
C4602 C 0.4298 0.9152 0.79847 0.0
C4603 C 0.4342 0.90279 0.80973 0.0
C4604 C 0.44074 0.89475 0.81293 0.0
C4605 C 0.42238 0.9186 0.8049 0.0
C4606 C 0.42065 0.91384 0.81374 0.0
C4607 C 0.4266 0.90601 0.81602 0.0
C4608 C 0.41299 0.91704 0.82094 0.0
C4609 C 0.41666 0.92742 0.80229 0.0
C4610 C 0.41649 0.92012 0.83098 0.0
C4611 C 0.4093 0.92255 0.83798 0.0
C4612 C 0.39847 0.922 0.83508 0.0
C4613 C 0.39494 0.91906 0.82501 0.0
C4614 C 0.40215 0.91653 0.81801 0.0
H4615 H 0.42093 0.932 0.7969 0.0
H4616 H 0.40865 0.92431 0.79878 0.0
H4617 H 0.41571 0.93265 0.80907 0.0
H4618 H 0.4248 0.92055 0.83344 0.0
H4619 H 0.4122 0.92477 0.8457 0.0
H4620 H 0.43424 0.26114 0.03798 0.0
H4621 H 0.43143 0.24558 0.04659 0.0
H4622 H 0.41094 0.26018 0.06618 0.0
H4623 H 0.41335 0.27556 0.05739 0.0
H4624 H 0.43652 0.24376 0.06615 0.0
H4625 H 0.3933 0.23245 0.05766 0.0
H4626 H 0.40104 0.24172 0.05105 0.0
H4627 H 0.39652 0.24559 0.06307 0.0
C4628 C 0.42897 0.26097 0.044 0.0
C4629 C 0.42402 0.26961 0.04698 0.0
C4630 C 0.42743 0.25209 0.04895 0.0
C4631 C 0.42085 0.25165 0.05693 0.0
C4632 C 0.41587 0.26025 0.05991 0.0
H4633 H 0.4214 0.21659 0.10701 0.0
H4634 H 0.42357 0.22925 0.09491 0.0
C4635 C 0.41738 0.2691 0.05495 0.0
C4636 C 0.41967 0.24248 0.06257 0.0
H4637 H 0.40122 0.22491 0.07125 0.0
C4638 C 0.42881 0.23956 0.06716 0.0
C4639 C 0.40962 0.2369 0.06378 0.0
C4640 C 0.39958 0.23925 0.05854 0.0
C4641 C 0.42814 0.2315 0.07328 0.0
C4642 C 0.41805 0.22635 0.07498 0.0
C4643 C 0.40895 0.22895 0.07003 0.0
C4644 C 0.41677 0.21858 0.08222 0.0
C4645 C 0.43826 0.2286 0.0779 0.0
C4646 C 0.41198 0.20843 0.07915 0.0
C4647 C 0.41068 0.20118 0.08607 0.0
C4648 C 0.41408 0.20402 0.09619 0.0
C4649 C 0.41877 0.2142 0.09924 0.0
C4650 C 0.42007 0.22141 0.09234 0.0
H4651 H 0.44518 0.23102 0.07362 0.0
H4652 H 0.43981 0.23256 0.08561 0.0
H4653 H 0.43761 0.22016 0.07831 0.0
H4654 H 0.4093 0.20611 0.07138 0.0
H4655 H 0.40701 0.1934 0.08351 0.0
H4656 H 0.0593 0.91384 0.21582 0.0
H4657 H 0.07534 0.9192 0.20757 0.0
H4658 H 0.08478 0.9438 0.23124 0.0
H4659 H 0.06862 0.93854 0.23954 0.0
H4660 H 0.08207 0.93867 0.20094 0.0
H4661 H 0.11085 0.92805 0.22952 0.0
H4662 H 0.09683 0.92341 0.22899 0.0
H4663 H 0.10165 0.9365 0.23383 0.0
C4664 C 0.06472 0.92046 0.21924 0.0
C4665 C 0.06266 0.92578 0.22833 0.0
C4666 C 0.0739 0.92349 0.21453 0.0
C4667 C 0.08127 0.93184 0.21883 0.0
C4668 C 0.07926 0.93723 0.22788 0.0
H4669 H 0.1326 0.95238 0.18096 0.0
H4670 H 0.11933 0.95375 0.19336 0.0
C4671 C 0.07004 0.93421 0.23261 0.0
C4672 C 0.09101 0.93479 0.21372 0.0
H4673 H 0.11774 0.93405 0.21506 0.0
C4674 C 0.0899 0.93782 0.20407 0.0
C4675 C 0.10119 0.93363 0.21784 0.0
C4676 C 0.10278 0.93016 0.22809 0.0
C4677 C 0.09864 0.93931 0.19825 0.0
C4678 C 0.10878 0.93787 0.20226 0.0
C4679 C 0.10997 0.93524 0.21206 0.0
C4680 C 0.11789 0.93766 0.19593 0.0
C4681 C 0.09684 0.94182 0.18766 0.0
C4682 C 0.1218 0.9283 0.19363 0.0
C4683 C 0.12937 0.92752 0.18664 0.0
C4684 C 0.13321 0.9361 0.18181 0.0
C4685 C 0.12977 0.94565 0.18456 0.0
C4686 C 0.12214 0.94642 0.19158 0.0
H4687 H 0.08826 0.94106 0.18522 0.0
H4688 H 0.10041 0.94988 0.1871 0.0
H4689 H 0.1007 0.93666 0.18243 0.0
H4690 H 0.11866 0.92147 0.19694 0.0
H4691 H 0.13201 0.92011 0.18479 0.0
H4692 H 0.36311 0.75843 0.45511 0.0
H4693 H 0.3648 0.7754 0.44897 0.0
H4694 H 0.33142 0.77064 0.43964 0.0
H4695 H 0.3296 0.75373 0.44598 0.0
H4696 H 0.35993 0.77819 0.42873 0.0
H4697 H 0.33625 0.80018 0.45432 0.0
H4698 H 0.34119 0.78853 0.45737 0.0
H4699 H 0.32976 0.7878 0.44876 0.0
C4700 C 0.35607 0.76109 0.45198 0.0
C4701 C 0.34621 0.75473 0.45104 0.0
C4702 C 0.35707 0.77076 0.44842 0.0
C4703 C 0.34822 0.7743 0.44393 0.0
C4704 C 0.33831 0.76811 0.44321 0.0
H4705 H 0.34175 0.82833 0.41252 0.0
H4706 H 0.33836 0.81235 0.42048 0.0
C4707 C 0.33731 0.75842 0.44675 0.0
C4708 C 0.34959 0.78409 0.43928 0.0
H4709 H 0.34243 0.80828 0.44042 0.0
C4710 C 0.35614 0.78479 0.4313 0.0
C4711 C 0.34453 0.79262 0.4426 0.0
C4712 C 0.33759 0.79233 0.45128 0.0
C4713 C 0.35775 0.79379 0.42651 0.0
C4714 C 0.35286 0.80241 0.42993 0.0
C4715 C 0.34619 0.80167 0.43783 0.0
C4716 C 0.35479 0.8123 0.42551 0.0
C4717 C 0.36454 0.79392 0.4177 0.0
C4718 C 0.36511 0.81766 0.4259 0.0
C4719 C 0.36706 0.82673 0.42134 0.0
C4720 C 0.35873 0.83067 0.4164 0.0
C4721 C 0.34834 0.82547 0.41625 0.0
C4722 C 0.34639 0.81635 0.4208 0.0
H4723 H 0.36519 0.786 0.41432 0.0
H4724 H 0.36128 0.79825 0.41185 0.0
H4725 H 0.37266 0.79777 0.42024 0.0
H4726 H 0.37167 0.81478 0.42967 0.0
H4727 H 0.37512 0.83064 0.42161 0.0
H4728 H 0.44834 0.12932 0.73083 0.0
H4729 H 0.43201 0.12352 0.72016 0.0
H4730 H 0.45046 0.11971 0.69457 0.0
H4731 H 0.46678 0.12505 0.7052 0.0
H4732 H 0.42394 0.13182 0.70391 0.0
H4733 H 0.43183 0.09207 0.69264 0.0
H4734 H 0.43934 0.10024 0.70287 0.0
H4735 H 0.44246 0.10164 0.69019 0.0
C4736 C 0.44893 0.12711 0.72296 0.0
C4737 C 0.45889 0.12762 0.71889 0.0
C4738 C 0.43959 0.12386 0.71686 0.0
C4739 C 0.44003 0.12101 0.7066 0.0
C4740 C 0.44993 0.12166 0.7025 0.0
H4741 H 0.39808 0.10595 0.6538 0.0
H4742 H 0.41285 0.11045 0.66661 0.0
C4743 C 0.45926 0.12486 0.70858 0.0
C4744 C 0.43015 0.1176 0.70009 0.0
H4745 H 0.41809 0.09814 0.6829 0.0
C4746 C 0.42258 0.1244 0.69941 0.0
C4747 C 0.42838 0.1079 0.69426 0.0
C4748 C 0.43588 0.1 0.69509 0.0
C4749 C 0.4135 0.12193 0.69275 0.0
C4750 C 0.41194 0.11238 0.68668 0.0
C4751 C 0.41936 0.10548 0.68754 0.0
C4752 C 0.40292 0.10961 0.67906 0.0
C4753 C 0.40582 0.12967 0.69196 0.0
C4754 C 0.39247 0.10756 0.68184 0.0
C4755 C 0.38403 0.10493 0.67454 0.0
C4756 C 0.38594 0.10434 0.66435 0.0
C4757 C 0.39641 0.10635 0.6616 0.0
C4758 C 0.40483 0.10892 0.6689 0.0
H4759 H 0.40901 0.13731 0.69603 0.0
H4760 H 0.4039 0.13067 0.68401 0.0
H4761 H 0.39832 0.12679 0.69518 0.0
H4762 H 0.39087 0.10796 0.68966 0.0
H4763 H 0.37603 0.10342 0.67687 0.0
H4764 H 0.14502 0.24449 0.93564 0.0
H4765 H 0.14821 0.2287 0.92578 0.0
H4766 H 0.12081 0.21197 0.93702 0.0
H4767 H 0.11737 0.22779 0.94668 0.0
H4768 H 0.15156 0.20913 0.93154 0.0
H4769 H 0.11501 0.20697 0.90642 0.0
H4770 H 0.12031 0.21842 0.9146 0.0
H4771 H 0.11287 0.20771 0.9195 0.0
C4772 C 0.13964 0.23746 0.93598 0.0
C4773 C 0.13087 0.23743 0.94187 0.0
C4774 C 0.14153 0.22843 0.93041 0.0
C4775 C 0.13467 0.21921 0.93057 0.0
C4776 C 0.12612 0.21905 0.93668 0.0
H4777 H 0.14327 0.15731 0.90593 0.0
H4778 H 0.14239 0.17297 0.91712 0.0
C4779 C 0.12422 0.22808 0.94227 0.0
C4780 C 0.1363 0.20984 0.92411 0.0
H4781 H 0.12483 0.19294 0.90443 0.0
C4782 C 0.14573 0.20557 0.92561 0.0
C4783 C 0.12874 0.20532 0.91629 0.0
C4784 C 0.1187 0.20987 0.91401 0.0
C4785 C 0.14774 0.19681 0.91956 0.0
C4786 C 0.14005 0.19215 0.9119 0.0
C4787 C 0.13068 0.19649 0.91035 0.0
C4788 C 0.14157 0.18285 0.90526 0.0
C4789 C 0.15814 0.19273 0.92128 0.0
C4790 C 0.14139 0.18319 0.89489 0.0
C4791 C 0.14186 0.17427 0.8885 0.0
C4792 C 0.14247 0.16479 0.89234 0.0
C4793 C 0.14295 0.16452 0.90275 0.0
C4794 C 0.14245 0.17346 0.90916 0.0
H4795 H 0.16418 0.19858 0.92566 0.0
H4796 H 0.15685 0.18593 0.92554 0.0
H4797 H 0.16133 0.19025 0.91408 0.0
H4798 H 0.14071 0.19036 0.89174 0.0
H4799 H 0.14159 0.17475 0.88052 0.0
H4800 H 0.33808 0.07993 0.12299 0.0
H4801 H 0.34686 0.09743 0.12204 0.0
H4802 H 0.35382 0.08893 0.09167 0.0
H4803 H 0.34482 0.07142 0.09248 0.0
H4804 H 0.36863 0.10134 0.11807 0.0
H4805 H 0.34266 0.11712 0.09056 0.0
H4806 H 0.33801 0.10623 0.09707 0.0
H4807 H 0.34626 0.1046 0.08685 0.0
C4808 C 0.34122 0.08184 0.11602 0.0
C4809 C 0.34075 0.07427 0.10781 0.0
C4810 C 0.34629 0.09183 0.11551 0.0
C4811 C 0.35091 0.09449 0.10677 0.0
C4812 C 0.35016 0.08708 0.09844 0.0
H4813 H 0.39337 0.14931 0.09538 0.0
H4814 H 0.38128 0.13294 0.09331 0.0
C4815 C 0.34512 0.07705 0.09895 0.0
C4816 C 0.35738 0.10471 0.10675 0.0
H4817 H 0.35901 0.1274 0.09623 0.0
C4818 C 0.36651 0.10705 0.11332 0.0
C4819 C 0.35466 0.11207 0.10044 0.0
C4820 C 0.34482 0.10996 0.09336 0.0
C4821 C 0.373 0.11656 0.11378 0.0
C4822 C 0.37016 0.12405 0.10766 0.0
C4823 C 0.36113 0.12166 0.10094 0.0
C4824 C 0.37639 0.13446 0.10842 0.0
C4825 C 0.38294 0.11847 0.12074 0.0
C4826 C 0.3773 0.14087 0.11746 0.0
C4827 C 0.38418 0.15014 0.11866 0.0
C4828 C 0.39022 0.15323 0.11081 0.0
C4829 C 0.3888 0.14711 0.10155 0.0
C4830 C 0.38193 0.13777 0.10036 0.0
H4831 H 0.38547 0.11114 0.1228 0.0
H4832 H 0.38958 0.12285 0.1173 0.0
H4833 H 0.38139 0.12308 0.12771 0.0
H4834 H 0.37292 0.13855 0.12369 0.0
H4835 H 0.38498 0.1548 0.12582 0.0
H4836 H 0.79691 0.43903 0.89395 0.0
H4837 H 0.8035 0.42258 0.89575 0.0
H4838 H 0.79727 0.41384 0.86409 0.0
H4839 H 0.79091 0.43033 0.86217 0.0
H4840 H 0.79405 0.40101 0.8898 0.0
H4841 H 0.82977 0.41362 0.86999 0.0
H4842 H 0.82127 0.42252 0.87499 0.0
H4843 H 0.81725 0.41448 0.8635 0.0
C4844 C 0.7969 0.43358 0.88737 0.0
C4845 C 0.79349 0.43603 0.8779 0.0
C4846 C 0.80059 0.42417 0.88843 0.0
C4847 C 0.80099 0.41708 0.88003 0.0
C4848 C 0.79712 0.41927 0.87064 0.0
H4849 H 0.83174 0.36274 0.86901 0.0
H4850 H 0.82071 0.37651 0.8679 0.0
C4851 C 0.7934 0.42867 0.86958 0.0
C4852 C 0.80612 0.40772 0.88097 0.0
H4853 H 0.82775 0.39659 0.8743 0.0
C4854 C 0.80141 0.40001 0.88642 0.0
C4855 C 0.81576 0.4065 0.87659 0.0
C4856 C 0.82139 0.41474 0.871 0.0
C4857 C 0.806 0.39097 0.88743 0.0
C4858 C 0.81562 0.38975 0.88301 0.0
C4859 C 0.82033 0.39751 0.87762 0.0
C4860 C 0.82109 0.38055 0.88388 0.0
C4861 C 0.80039 0.38273 0.89302 0.0
C4862 C 0.82483 0.37813 0.89325 0.0
C4863 C 0.83112 0.37022 0.8939 0.0
C4864 C 0.83388 0.36472 0.88518 0.0
C4865 C 0.82982 0.36693 0.87584 0.0
C4866 C 0.8235 0.37477 0.87521 0.0
H4867 H 0.79186 0.38354 0.89352 0.0
H4868 H 0.80103 0.37491 0.88938 0.0
H4869 H 0.80414 0.38343 0.90074 0.0
H4870 H 0.82327 0.38263 0.90003 0.0
H4871 H 0.83424 0.36875 0.90118 0.0
H4872 H 0.74788 0.55153 0.15108 0.0
H4873 H 0.76681 0.55789 0.15335 0.0
H4874 H 0.77086 0.53645 0.17501 0.0
H4875 H 0.75181 0.53003 0.17279 0.0
H4876 H 0.7787 0.56681 0.17083 0.0
H4877 H 0.79335 0.53096 0.15518 0.0
H4878 H 0.77966 0.53297 0.15338 0.0
H4879 H 0.7847 0.52969 0.16518 0.0
C4880 C 0.75276 0.54821 0.15639 0.0
C4881 C 0.74833 0.54029 0.16178 0.0
C4882 C 0.7636 0.55182 0.15765 0.0
C4883 C 0.77025 0.54759 0.16428 0.0
C4884 C 0.76589 0.53971 0.16972 0.0
H4885 H 0.83531 0.5803 0.17742 0.0
H4886 H 0.81805 0.57072 0.18014 0.0
C4887 C 0.75501 0.53605 0.16845 0.0
C4888 C 0.78173 0.55159 0.16547 0.0
H4889 H 0.80619 0.54531 0.16049 0.0
C4890 C 0.78475 0.5621 0.16869 0.0
C4891 C 0.78956 0.54541 0.16261 0.0
C4892 C 0.78671 0.53414 0.15882 0.0
C4893 C 0.79534 0.56669 0.1688 0.0
C4894 C 0.80315 0.56054 0.16579 0.0
C4895 C 0.80019 0.54996 0.16287 0.0
C4896 C 0.81417 0.5652 0.16454 0.0
C4897 C 0.79797 0.57817 0.17164 0.0
C4898 C 0.81789 0.56486 0.15495 0.0
C4899 C 0.82775 0.57021 0.15339 0.0
C4900 C 0.83409 0.57602 0.1614 0.0
C4901 C 0.83061 0.5759 0.1711 0.0
C4902 C 0.82072 0.57051 0.17266 0.0
H4903 H 0.79073 0.58205 0.17192 0.0
H4904 H 0.80228 0.57963 0.17914 0.0
H4905 H 0.80318 0.58175 0.16625 0.0
H4906 H 0.81299 0.56076 0.14859 0.0
H4907 H 0.83031 0.56999 0.14586 0.0
H4908 H 0.68888 0.54223 0.37307 0.0
H4909 H 0.68035 0.55779 0.37528 0.0
H4910 H 0.7106 0.57579 0.38502 0.0
H4911 H 0.71923 0.5602 0.38288 0.0
H4912 H 0.68004 0.5711 0.39288 0.0
H4913 H 0.69893 0.59163 0.36297 0.0
H4914 H 0.69915 0.57804 0.36374 0.0
H4915 H 0.70785 0.58742 0.37203 0.0
C4916 C 0.69373 0.54948 0.37575 0.0
C4917 C 0.70474 0.54996 0.37782 0.0
C4918 C 0.68884 0.55837 0.37696 0.0
C4919 C 0.69486 0.56796 0.38021 0.0
C4920 C 0.70585 0.5685 0.38231 0.0
H4921 H 0.67206 0.62835 0.3886 0.0
H4922 H 0.68347 0.61468 0.38877 0.0
C4923 C 0.71076 0.55958 0.38109 0.0
C4924 C 0.68948 0.57728 0.38158 0.0
H4925 H 0.68716 0.60027 0.37246 0.0
C4926 C 0.68163 0.5775 0.38845 0.0
C4927 C 0.69163 0.58566 0.37584 0.0
C4928 C 0.69979 0.5857 0.36817 0.0
C4929 C 0.67575 0.58578 0.38963 0.0
C4930 C 0.67764 0.59399 0.38366 0.0
C4931 C 0.68573 0.59395 0.37702 0.0
C4932 C 0.67082 0.6023 0.38371 0.0
C4933 C 0.66751 0.58566 0.39723 0.0
C4934 C 0.65999 0.59986 0.38069 0.0
C4935 C 0.6535 0.60761 0.38057 0.0
C4936 C 0.65771 0.61795 0.38344 0.0
C4937 C 0.66858 0.62043 0.3864 0.0
C4938 C 0.67511 0.61265 0.38649 0.0
H4939 H 0.66913 0.58057 0.40307 0.0
H4940 H 0.66719 0.59354 0.4009 0.0
H4941 H 0.6596 0.58267 0.39342 0.0
H4942 H 0.65657 0.59195 0.37832 0.0
H4943 H 0.64516 0.60551 0.37819 0.0
H4944 H 0.25659 0.99036 0.12775 0.0
H4945 H 0.24085 0.98058 0.13342 0.0
H4946 H 0.23221 0.00854 0.14821 0.0
H4947 H 0.24809 0.01842 0.14269 0.0
H4948 H 0.23613 0.97987 0.15406 0.0
H4949 H 0.20472 0.99456 0.13123 0.0
H4950 H 0.21838 0.99574 0.12808 0.0
H4951 H 0.21458 1.004 0.13825 0.0
C4952 C 0.25138 0.99445 0.13224 0.0
C4953 C 0.25364 1.00518 0.13482 0.0
C4954 C 0.24235 0.98885 0.13542 0.0
C4955 C 0.23535 0.99385 0.14118 0.0
C4956 C 0.23745 1.00457 0.14365 0.0
H4957 H 0.17646 0.96553 0.16408 0.0
H4958 H 0.19138 0.97818 0.16062 0.0
C4959 C 0.24651 0.0102 0.14048 0.0
C4960 C 0.2261 0.98768 0.14488 0.0
H4961 H 0.19907 0.98231 0.1421 0.0
C4962 C 0.22802 0.98044 0.1515 0.0
C4963 C 0.21555 0.98852 0.14158 0.0
C4964 C 0.21311 0.99607 0.13435 0.0
C4965 C 0.21966 0.97387 0.15478 0.0
C4966 C 0.20912 0.97441 0.15118 0.0
C4967 C 0.20716 0.98189 0.14482 0.0
C4968 C 0.20012 0.96684 0.15342 0.0
C4969 C 0.2222 0.9664 0.16207 0.0
C4970 C 0.20003 0.95631 0.15039 0.0
C4971 C 0.19157 0.94911 0.15236 0.0
C4972 C 0.18299 0.95229 0.15733 0.0
C4973 C 0.183 0.96285 0.16028 0.0
C4974 C 0.1915 0.97008 0.1583 0.0
H4975 H 0.22994 0.96905 0.16637 0.0
H4976 H 0.21593 0.96532 0.1674 0.0
H4977 H 0.22273 0.9588 0.15789 0.0
H4978 H 0.20648 0.95367 0.14641 0.0
H4979 H 0.1917 0.94103 0.14994 0.0
H4980 H 0.16894 0.94643 0.63339 0.0
H4981 H 0.15942 0.92917 0.63445 0.0
H4982 H 0.17045 0.93106 0.66549 0.0
H4983 H 0.17987 0.94835 0.66454 0.0
H4984 H 0.16811 0.91075 0.6414 0.0
H4985 H 0.13703 0.92501 0.66429 0.0
H4986 H 0.14519 0.93322 0.65696 0.0
H4987 H 0.15056 0.92983 0.66858 0.0
C4988 C 0.16931 0.94318 0.64044 0.0
C4989 C 0.17511 0.94877 0.64889 0.0
C4990 C 0.16393 0.9333 0.64102 0.0
C4991 C 0.16418 0.92891 0.65007 0.0
C4992 C 0.17011 0.93437 0.65846 0.0
H4993 H 0.13118 0.87446 0.67121 0.0
H4994 H 0.14274 0.89041 0.6693 0.0
C4995 C 0.17554 0.94422 0.65788 0.0
C4996 C 0.15803 0.91869 0.65081 0.0
H4997 H 0.13672 0.90699 0.66151 0.0
C4998 C 0.16122 0.90989 0.64577 0.0
C4999 C 0.14909 0.91765 0.65653 0.0
C5000 C 0.14517 0.92691 0.66185 0.0
C5001 C 0.1558 0.9 0.64647 0.0
C5002 C 0.14682 0.89895 0.65218 0.0
C5003 C 0.14362 0.90779 0.65716 0.0
C5004 C 0.14058 0.88879 0.65316 0.0
C5005 C 0.15991 0.89077 0.6413 0.0
C5006 C 0.13559 0.88252 0.64471 0.0
C5007 C 0.12902 0.87336 0.64579 0.0
C5008 C 0.1272 0.8704 0.65534 0.0
C5009 C 0.13236 0.8766 0.66376 0.0
C5010 C 0.13898 0.88569 0.66268 0.0
H5011 H 0.16838 0.89258 0.63973 0.0
H5012 H 0.1591 0.88418 0.64587 0.0
H5013 H 0.15524 0.88834 0.63406 0.0
H5014 H 0.13649 0.88487 0.6373 0.0
H5015 H 0.12504 0.8688 0.63918 0.0
H5016 H 0.76902 0.48229 0.34477 0.0
H5017 H 0.7861 0.47807 0.33919 0.0
H5018 H 0.7843 0.45282 0.35738 0.0
H5019 H 0.76738 0.457 0.36301 0.0
H5020 H 0.80514 0.47705 0.3502 0.0
H5021 H 0.78941 0.439 0.32992 0.0
H5022 H 0.78095 0.44847 0.3337 0.0
H5023 H 0.78543 0.44023 0.34248 0.0
C5024 C 0.7723 0.47587 0.34761 0.0
C5025 C 0.76677 0.4699 0.35424 0.0
C5026 C 0.78202 0.47344 0.34438 0.0
C5027 C 0.78633 0.46498 0.34769 0.0
C5028 C 0.78096 0.45919 0.3545 0.0
H5029 H 0.84681 0.44769 0.35703 0.0
H5030 H 0.83103 0.45631 0.35663 0.0
C5031 C 0.77129 0.4616 0.35771 0.0
C5032 C 0.79659 0.46226 0.34433 0.0
H5033 H 0.80814 0.44181 0.33478 0.0
C5034 C 0.8058 0.46941 0.34666 0.0
C5035 C 0.79742 0.45238 0.3395 0.0
C5036 C 0.78775 0.44462 0.33616 0.0
C5037 C 0.81588 0.46668 0.34493 0.0
C5038 C 0.81677 0.45649 0.34093 0.0
C5039 C 0.8075 0.44959 0.33796 0.0
C5040 C 0.82711 0.45245 0.34075 0.0
C5041 C 0.8255 0.47469 0.34759 0.0
C5042 C 0.83019 0.44735 0.33196 0.0
C5043 C 0.83919 0.44226 0.3322 0.0
C5044 C 0.84517 0.44211 0.34127 0.0
C5045 C 0.8423 0.44759 0.34995 0.0
C5046 C 0.83335 0.45265 0.34971 0.0
H5047 H 0.8235 0.48258 0.34695 0.0
H5048 H 0.82839 0.47436 0.35546 0.0
H5049 H 0.83202 0.47334 0.34271 0.0
H5050 H 0.82544 0.44702 0.32498 0.0
H5051 H 0.84116 0.43804 0.32541 0.0
H5052 H 0.722 0.51273 0.85587 0.0
H5053 H 0.70693 0.52161 0.85176 0.0
H5054 H 0.69039 0.49348 0.83587 0.0
H5055 H 0.70554 0.4845 0.83989 0.0
H5056 H 0.69805 0.52386 0.83247 0.0
H5057 H 0.66874 0.50318 0.85513 0.0
H5058 H 0.68282 0.50282 0.85699 0.0
H5059 H 0.67529 0.49531 0.84648 0.0
C5060 C 0.7152 0.50842 0.85144 0.0
C5061 C 0.715 0.4979 0.84817 0.0
C5062 C 0.70657 0.51351 0.84914 0.0
C5063 C 0.69752 0.50819 0.84359 0.0
C5064 C 0.69723 0.49768 0.84031 0.0
H5065 H 0.6389 0.53406 0.82879 0.0
H5066 H 0.65229 0.52222 0.82909 0.0
C5067 C 0.70589 0.49257 0.84261 0.0
C5068 C 0.68852 0.51381 0.84113 0.0
H5069 H 0.66296 0.51618 0.84624 0.0
C5070 C 0.69035 0.52213 0.83541 0.0
C5071 C 0.67847 0.51149 0.84492 0.0
C5072 C 0.67617 0.50276 0.85128 0.0
C5073 C 0.68247 0.52835 0.83358 0.0
C5074 C 0.67256 0.5263 0.83771 0.0
C5075 C 0.67057 0.51774 0.84309 0.0
C5076 C 0.66451 0.53344 0.83721 0.0
C5077 C 0.68485 0.53714 0.8273 0.0
C5078 C 0.66692 0.5436 0.84177 0.0
C5079 C 0.65933 0.55033 0.84163 0.0
C5080 C 0.64916 0.54703 0.83696 0.0
C5081 C 0.6467 0.53683 0.8324 0.0
C5082 C 0.65432 0.53007 0.83257 0.0
H5083 H 0.6913 0.53582 0.82232 0.0
H5084 H 0.67768 0.53824 0.82265 0.0
H5085 H 0.68749 0.54436 0.83229 0.0
H5086 H 0.67466 0.5463 0.84557 0.0
H5087 H 0.66139 0.55812 0.84526 0.0
H5088 H 0.87933 0.67798 0.98979 0.0
H5089 H 0.88534 0.67306 0.97328 0.0
H5090 H 0.85317 0.66086 0.96257 0.0
H5091 H 0.84708 0.66583 0.97902 0.0
H5092 H 0.88192 0.65196 0.96392 0.0
H5093 H 0.86449 0.67894 0.94065 0.0
H5094 H 0.86663 0.68143 0.95409 0.0
H5095 H 0.85556 0.6724 0.94854 0.0
C5096 C 0.87351 0.67444 0.98386 0.0
C5097 C 0.86273 0.67229 0.98569 0.0
C5098 C 0.87696 0.6716 0.97446 0.0
C5099 C 0.86968 0.6667 0.9667 0.0
C5100 C 0.85889 0.66477 0.96843 0.0
H5101 H 0.8701 0.63597 0.90772 0.0
H5102 H 0.8661 0.64519 0.92335 0.0
C5103 C 0.85544 0.66753 0.97784 0.0
C5104 C 0.87346 0.66285 0.95705 0.0
H5105 H 0.87143 0.66494 0.93202 0.0
C5106 C 0.87975 0.65486 0.95694 0.0
C5107 C 0.87052 0.66663 0.94799 0.0
C5108 C 0.864 0.67538 0.94777 0.0
C5109 C 0.88288 0.65027 0.94795 0.0
C5110 C 0.87988 0.65399 0.93885 0.0
C5111 C 0.87375 0.66213 0.93899 0.0
C5112 C 0.88251 0.64911 0.92907 0.0
C5113 C 0.88896 0.64119 0.94827 0.0
C5114 C 0.89308 0.64851 0.92696 0.0
C5115 C 0.89539 0.64307 0.91809 0.0
C5116 C 0.88717 0.63825 0.91111 0.0
C5117 C 0.87662 0.63937 0.91303 0.0
C5118 C 0.87432 0.64472 0.92193 0.0
H5119 H 0.88826 0.63771 0.95542 0.0
H5120 H 0.88611 0.63512 0.94202 0.0
H5121 H 0.8975 0.6438 0.94755 0.0
H5122 H 0.89954 0.65205 0.93227 0.0
H5123 H 0.9036 0.64236 0.91687 0.0
H5124 H 0.02666 0.10944 0.70288 0.0
H5125 H 0.03166 0.1097 0.68565 0.0
H5126 H 0.03668 0.14294 0.6896 0.0
H5127 H 0.03166 0.14277 0.70683 0.0
H5128 H 0.02391 0.11915 0.66897 0.0
H5129 H 0.06561 0.1351 0.68189 0.0
H5130 H 0.05625 0.12978 0.69018 0.0
H5131 H 0.05567 0.14247 0.68652 0.0
C5132 C 0.02864 0.11681 0.70003 0.0
C5133 C 0.02887 0.12609 0.70626 0.0
C5134 C 0.03153 0.11694 0.6902 0.0
C5135 C 0.03472 0.12633 0.68642 0.0
C5136 C 0.03446 0.13561 0.69244 0.0
H5137 H 0.06686 0.1372 0.63215 0.0
H5138 H 0.05681 0.13986 0.64691 0.0
C5139 C 0.0316 0.13549 0.70228 0.0
C5140 C 0.03884 0.12637 0.67637 0.0
H5141 H 0.06145 0.13234 0.66454 0.0
C5142 C 0.0321 0.12208 0.66797 0.0
C5143 C 0.04953 0.13022 0.6751 0.0
C5144 C 0.05724 0.13458 0.68389 0.0
C5145 C 0.03579 0.12148 0.65834 0.0
C5146 C 0.04654 0.1251 0.65712 0.0
C5147 C 0.0532 0.12961 0.66549 0.0
C5148 C 0.05133 0.12365 0.64739 0.0
C5149 C 0.02813 0.117 0.64957 0.0
C5150 C 0.05146 0.11367 0.64268 0.0
C5151 C 0.05714 0.11214 0.63423 0.0
C5152 C 0.06289 0.12055 0.63037 0.0
C5153 C 0.06243 0.13058 0.63488 0.0
C5154 C 0.05673 0.1321 0.64334 0.0
H5155 H 0.0198 0.11773 0.65121 0.0
H5156 H 0.02997 0.12084 0.64279 0.0
H5157 H 0.02872 0.10867 0.64794 0.0
H5158 H 0.04754 0.10702 0.64577 0.0
H5159 H 0.05726 0.10433 0.63088 0.0
H5160 H 0.57599 0.31253 0.49907 0.0
H5161 H 0.57377 0.32026 0.48342 0.0
H5162 H 0.60381 0.31179 0.47487 0.0
H5163 H 0.60602 0.30397 0.4904 0.0
H5164 H 0.58608 0.33622 0.47718 0.0
H5165 H 0.58533 0.30202 0.44963 0.0
H5166 H 0.58386 0.30099 0.46273 0.0
H5167 H 0.59685 0.30377 0.45823 0.0
C5168 C 0.58208 0.31225 0.4938 0.0
C5169 C 0.59116 0.3076 0.49594 0.0
C5170 C 0.58078 0.31664 0.48486 0.0
C5171 C 0.58853 0.31645 0.47788 0.0
C5172 C 0.59757 0.31177 0.47999 0.0
H5173 H 0.60693 0.34772 0.42777 0.0
H5174 H 0.60509 0.33774 0.44213 0.0
C5175 C 0.59884 0.30732 0.48889 0.0
C5176 C 0.58754 0.32176 0.46872 0.0
H5177 H 0.58889 0.31854 0.44339 0.0
C5178 C 0.58653 0.33231 0.46978 0.0
C5179 C 0.58809 0.31666 0.45905 0.0
C5180 C 0.58848 0.30521 0.45732 0.0
C5181 C 0.5865 0.33798 0.46149 0.0
C5182 C 0.58748 0.33295 0.45191 0.0
C5183 C 0.5882 0.32236 0.45078 0.0
C5184 C 0.58835 0.33871 0.44304 0.0
C5185 C 0.58581 0.34938 0.46304 0.0
C5186 C 0.57951 0.34245 0.43877 0.0
C5187 C 0.58053 0.3481 0.43053 0.0
C5188 C 0.59043 0.3501 0.42649 0.0
C5189 C 0.59922 0.34627 0.43075 0.0
C5190 C 0.59818 0.34057 0.43892 0.0
H5191 H 0.58626 0.35234 0.47108 0.0
H5192 H 0.59232 0.35374 0.45942 0.0
H5193 H 0.57818 0.3509 0.45948 0.0
H5194 H 0.57185 0.34103 0.44184 0.0
H5195 H 0.57361 0.35097 0.42741 0.0
H5196 H 0.4487 0.86434 0.23159 0.0
H5197 H 0.44448 0.86583 0.21389 0.0
H5198 H 0.46133 0.89675 0.2174 0.0
H5199 H 0.46559 0.89533 0.23505 0.0
H5200 H 0.43304 0.87968 0.20591 0.0
H5201 H 0.47361 0.884 0.19277 0.0
H5202 H 0.47072 0.87953 0.20467 0.0
H5203 H 0.47223 0.89309 0.20328 0.0
C5204 C 0.45153 0.87145 0.22858 0.0
C5205 C 0.45752 0.87971 0.23472 0.0
C5206 C 0.44915 0.87226 0.21846 0.0
C5207 C 0.45275 0.88133 0.21428 0.0
C5208 C 0.45872 0.88958 0.22039 0.0
H5209 H 0.44167 0.90935 0.16076 0.0
H5210 H 0.44736 0.90452 0.1771 0.0
C5211 C 0.46113 0.88876 0.23049 0.0
C5212 C 0.44974 0.88242 0.20369 0.0
H5213 H 0.45991 0.88863 0.18186 0.0
C5214 C 0.43891 0.8815 0.2006 0.0
C5215 C 0.45741 0.88477 0.19679 0.0
C5216 C 0.46914 0.8853 0.19951 0.0
C5217 C 0.43555 0.88329 0.19091 0.0
C5218 C 0.44323 0.88594 0.18411 0.0
C5219 C 0.45405 0.88662 0.18711 0.0
C5220 C 0.44018 0.88859 0.17402 0.0
C5221 C 0.42383 0.88272 0.18813 0.0
C5222 C 0.43443 0.88118 0.16683 0.0
C5223 C 0.4312 0.88392 0.15748 0.0
C5224 C 0.43369 0.89412 0.15521 0.0
C5225 C 0.43965 0.90145 0.16234 0.0
C5226 C 0.4429 0.8987 0.17166 0.0
H5227 H 0.41907 0.88249 0.19477 0.0
H5228 H 0.42221 0.88944 0.1842 0.0
H5229 H 0.42111 0.87563 0.18299 0.0
H5230 H 0.43239 0.8733 0.16848 0.0
H5231 H 0.42663 0.8781 0.15212 0.0
H5232 H 0.85714 0.3655 0.52395 0.0
H5233 H 0.86205 0.37262 0.54131 0.0
H5234 H 0.89253 0.36192 0.53956 0.0
H5235 H 0.88777 0.35495 0.52212 0.0
H5236 H 0.86918 0.36261 0.55836 0.0
H5237 H 0.89933 0.39356 0.54793 0.0
H5238 H 0.88927 0.38641 0.53899 0.0
H5239 H 0.90055 0.38059 0.543 0.0
C5240 C 0.86489 0.36467 0.52726 0.0
C5241 C 0.87211 0.35974 0.52164 0.0
C5242 C 0.86766 0.36867 0.53719 0.0
C5243 C 0.87769 0.36789 0.54165 0.0
C5244 C 0.88479 0.36269 0.53619 0.0
H5245 H 0.90803 0.39839 0.59861 0.0
H5246 H 0.90428 0.38719 0.58284 0.0
C5247 C 0.88202 0.35865 0.52626 0.0
C5248 C 0.88082 0.37285 0.55192 0.0
H5249 H 0.89715 0.39293 0.56505 0.0
C5250 C 0.87533 0.3692 0.55985 0.0
C5251 C 0.88888 0.38142 0.55381 0.0
C5252 C 0.89483 0.38581 0.5455 0.0
C5253 C 0.87764 0.37395 0.56967 0.0
C5254 C 0.88549 0.38272 0.57153 0.0
C5255 C 0.89115 0.3862 0.56361 0.0
C5256 C 0.88757 0.38875 0.58149 0.0
C5257 C 0.87169 0.36951 0.57795 0.0
C5258 C 0.87943 0.39333 0.58597 0.0
C5259 C 0.88153 0.39965 0.595 0.0
C5260 C 0.89185 0.40163 0.59969 0.0
C5261 C 0.89997 0.39692 0.59526 0.0
C5262 C 0.89786 0.39057 0.58622 0.0
H5263 H 0.86862 0.36121 0.57594 0.0
H5264 H 0.87682 0.37034 0.58501 0.0
H5265 H 0.86479 0.37367 0.57929 0.0
H5266 H 0.87149 0.39221 0.58235 0.0
H5267 H 0.87506 0.40306 0.59826 0.0
H5268 H 0.50369 0.14338 0.30717 0.0
H5269 H 0.49295 0.14296 0.32163 0.0
H5270 H 0.46528 0.14621 0.30287 0.0
H5271 H 0.47582 0.14621 0.28832 0.0
H5272 H 0.48027 0.15675 0.33049 0.0
H5273 H 0.4564 0.11952 0.3152 0.0
H5274 H 0.46849 0.12457 0.31 0.0
H5275 H 0.45632 0.12954 0.30709 0.0
C5276 C 0.49531 0.14397 0.30611 0.0
C5277 C 0.49061 0.14471 0.29655 0.0
C5278 C 0.48921 0.14382 0.3144 0.0
C5279 C 0.47829 0.14439 0.31328 0.0
C5280 C 0.47366 0.14559 0.30386 0.0
H5281 H 0.43568 0.15064 0.36158 0.0
H5282 H 0.44702 0.15411 0.34788 0.0
C5283 C 0.47974 0.1457 0.29556 0.0
C5284 C 0.47168 0.14324 0.32189 0.0
H5285 H 0.45113 0.12772 0.33012 0.0
C5286 C 0.47389 0.15042 0.33043 0.0
C5287 C 0.46345 0.13489 0.32183 0.0
C5288 C 0.46106 0.12663 0.31309 0.0
C5289 C 0.46804 0.14948 0.33889 0.0
C5290 C 0.45969 0.14123 0.33874 0.0
C5291 C 0.4575 0.13407 0.3302 0.0
C5292 C 0.45333 0.13957 0.34745 0.0
C5293 C 0.47104 0.15716 0.34801 0.0
C5294 C 0.45302 0.13023 0.35168 0.0
C5295 C 0.44648 0.1282 0.3594 0.0
C5296 C 0.44014 0.13547 0.36305 0.0
C5297 C 0.44056 0.14492 0.35896 0.0
C5298 C 0.44708 0.14693 0.35117 0.0
H5299 H 0.47915 0.1614 0.34782 0.0
H5300 H 0.46537 0.16289 0.34832 0.0
H5301 H 0.47066 0.15328 0.35494 0.0
H5302 H 0.45774 0.12443 0.34891 0.0
H5303 H 0.44628 0.12085 0.36243 0.0
H5304 H 0.57312 0.65056 1.0055 0.0
H5305 H 0.57127 0.64565 0.0224 0.0
H5306 H 0.60026 0.6656 0.03269 0.0
H5307 H 0.60221 0.67049 0.01581 0.0
H5308 H 0.58565 0.63593 0.03277 0.0
H5309 H 0.58011 0.67288 0.05404 0.0
H5310 H 0.5784 0.67074 0.04057 0.0
H5311 H 0.59149 0.67384 0.04676 0.0
C5312 C 0.57907 0.65395 0.01137 0.0
C5313 C 0.58783 0.6609 0.00929 0.0
C5314 C 0.57797 0.65118 0.02103 0.0
C5315 C 0.58556 0.65534 0.02882 0.0
C5316 C 0.59418 0.66247 0.02684 0.0
H5317 H 0.60359 0.62987 0.08246 0.0
H5318 H 0.60209 0.63638 0.06612 0.0
C5319 C 0.59528 0.66525 0.01718 0.0
C5320 C 0.58495 0.65158 0.03881 0.0
H5321 H 0.58439 0.65945 0.06366 0.0
C5322 C 0.58528 0.64106 0.03951 0.0
C5323 C 0.58435 0.65827 0.04759 0.0
C5324 C 0.58346 0.66954 0.04723 0.0
C5325 C 0.58537 0.63709 0.04879 0.0
C5326 C 0.58527 0.64385 0.0576 0.0
C5327 C 0.58458 0.65431 0.05689 0.0
C5328 C 0.58622 0.64021 0.06761 0.0
C5329 C 0.5856 0.62568 0.04908 0.0
C5330 C 0.57788 0.64044 0.07395 0.0
C5331 C 0.57872 0.63672 0.0833 0.0
C5332 C 0.58797 0.63282 0.08646 0.0
C5333 C 0.59637 0.6328 0.08017 0.0
C5334 C 0.59551 0.63647 0.07084 0.0
H5335 H 0.58292 0.62123 0.04174 0.0
H5336 H 0.59385 0.62434 0.05105 0.0
H5337 H 0.58049 0.62266 0.05482 0.0
H5338 H 0.57067 0.64334 0.0716 0.0
H5339 H 0.57212 0.63686 0.088 0.0
H5340 H 0.02982 0.87025 0.81633 0.0
H5341 H 0.03694 0.86843 0.83312 0.0
H5342 H 0.02145 0.89375 0.84498 0.0
H5343 H 0.01412 0.89555 0.82815 0.0
H5344 H 0.0428 0.89587 0.85101 0.0
H5345 H 0.02323 0.85712 0.85715 0.0
H5346 H 0.02936 0.85719 0.84551 0.0
H5347 H 0.01843 0.86434 0.84754 0.0
C5348 C 0.02768 0.87527 0.82252 0.0
C5349 C 0.02134 0.88302 0.82087 0.0
C5350 C 0.03177 0.87421 0.83213 0.0
C5351 C 0.02959 0.88084 0.84033 0.0
C5352 C 0.02317 0.8885 0.83876 0.0
H5353 H 0.0549 0.87497 0.90152 0.0
H5354 H 0.04241 0.87615 0.88723 0.0
C5355 C 0.01904 0.88956 0.82913 0.0
C5356 C 0.03482 0.88031 0.85034 0.0
H5357 H 0.03908 0.86372 0.86765 0.0
C5358 C 0.04185 0.8889 0.85472 0.0
C5359 C 0.03351 0.87124 0.85524 0.0
C5360 C 0.02564 0.86198 0.85117 0.0
C5361 C 0.04801 0.88848 0.8636 0.0
C5362 C 0.0472 0.8792 0.86814 0.0
C5363 C 0.03977 0.87079 0.86407 0.0
C5364 C 0.05454 0.87793 0.87672 0.0
C5365 C 0.0555 0.89792 0.86795 0.0
C5366 C 0.06541 0.87825 0.87544 0.0
C5367 C 0.07251 0.87751 0.88352 0.0
C5368 C 0.06889 0.87644 0.89307 0.0
C5369 C 0.05793 0.87576 0.89426 0.0
C5370 C 0.0508 0.87648 0.88613 0.0
H5371 H 0.05319 0.90505 0.8652 0.0
H5372 H 0.05576 0.89877 0.87624 0.0
H5373 H 0.06363 0.89712 0.86571 0.0
H5374 H 0.06842 0.87914 0.86818 0.0
H5375 H 0.08086 0.8778 0.88228 0.0
H5376 H 0.96842 0.93789 0.74347 0.0
H5377 H 0.95609 0.9461 0.73342 0.0
H5378 H 0.93004 0.93278 0.74911 0.0
H5379 H 0.94231 0.92425 0.75901 0.0
H5380 H 0.92615 0.92957 0.72881 0.0
H5381 H 0.94077 0.97079 0.74003 0.0
H5382 H 0.95121 0.96369 0.73624 0.0
H5383 H 0.9444 0.96069 0.74714 0.0
C5384 C 0.96007 0.93672 0.74481 0.0
C5385 C 0.95635 0.93037 0.75202 0.0
C5386 C 0.95305 0.94154 0.73915 0.0
C5387 C 0.94216 0.94021 0.74064 0.0
C5388 C 0.93842 0.93401 0.74792 0.0
H5389 H 0.89178 0.95633 0.69959 0.0
H5390 H 0.90053 0.95237 0.7152 0.0
C5391 C 0.94546 0.92918 0.7536 0.0
C5392 C 0.93465 0.94458 0.73396 0.0
H5393 H 0.93027 0.96682 0.72431 0.0
C5394 C 0.92689 0.93774 0.72797 0.0
C5395 C 0.93562 0.95524 0.73288 0.0
C5396 C 0.94338 0.96304 0.73949 0.0
C5397 C 0.92052 0.94119 0.7205 0.0
C5398 C 0.92184 0.95179 0.71911 0.0
C5399 C 0.92927 0.9587 0.7254 0.0
C5400 C 0.91645 0.95561 0.71046 0.0
C5401 C 0.91286 0.93338 0.71378 0.0
C5402 C 0.92252 0.95919 0.70286 0.0
C5403 C 0.91757 0.96149 0.69402 0.0
C5404 C 0.90644 0.96029 0.69262 0.0
C5405 C 0.90037 0.95734 0.70049 0.0
C5406 C 0.90535 0.95499 0.70935 0.0
H5407 H 0.91403 0.92533 0.71483 0.0
H5408 H 0.90461 0.93438 0.71545 0.0
H5409 H 0.91375 0.93457 0.70581 0.0
H5410 H 0.9311 0.95977 0.70358 0.0
H5411 H 0.92244 0.96388 0.68811 0.0
H5412 H 0.86218 0.26371 0.46046 0.0
H5413 H 0.86561 0.24803 0.45041 0.0
H5414 H 0.87996 0.26659 0.42888 0.0
H5415 H 0.87681 0.28222 0.43893 0.0
H5416 H 0.85852 0.24122 0.43 0.0
H5417 H 0.90244 0.24802 0.43563 0.0
H5418 H 0.894 0.25469 0.44355 0.0
H5419 H 0.89674 0.2588 0.43153 0.0
C5420 C 0.86616 0.26444 0.45363 0.0
C5421 C 0.86922 0.2742 0.45049 0.0
C5422 C 0.86806 0.25549 0.44789 0.0
C5423 C 0.87316 0.25618 0.43899 0.0
C5424 C 0.87616 0.2659 0.43581 0.0
H5425 H 0.89135 0.21755 0.38987 0.0
H5426 H 0.88775 0.23142 0.40217 0.0
C5427 C 0.87424 0.27482 0.44151 0.0
C5428 C 0.87518 0.24677 0.43283 0.0
H5429 H 0.89499 0.23519 0.42246 0.0
C5430 C 0.86649 0.2398 0.42844 0.0
C5431 C 0.88559 0.24498 0.43083 0.0
C5432 C 0.89524 0.25196 0.4357 0.0
C5433 C 0.86792 0.2313 0.42174 0.0
C5434 C 0.87833 0.22967 0.41953 0.0
C5435 C 0.88702 0.23649 0.42414 0.0
C5436 C 0.88038 0.22118 0.41214 0.0
C5437 C 0.85828 0.22437 0.41678 0.0
C5438 C 0.87752 0.21083 0.41373 0.0
C5439 C 0.87956 0.20289 0.4067 0.0
C5440 C 0.88454 0.20521 0.39801 0.0
C5441 C 0.88748 0.21557 0.3965 0.0
C5442 C 0.88544 0.22348 0.40351 0.0
H5443 H 0.8509 0.22794 0.41761 0.0
H5444 H 0.85921 0.22248 0.4087 0.0
H5445 H 0.85732 0.21704 0.42027 0.0
H5446 H 0.87379 0.20889 0.42043 0.0
H5447 H 0.87725 0.19498 0.40811 0.0
H5448 H 0.56561 0.12516 0.23026 0.0
H5449 H 0.581 0.11683 0.22568 0.0
H5450 H 0.56033 0.09229 0.20794 0.0
H5451 H 0.54489 0.10044 0.21264 0.0
H5452 H 0.5781 0.08583 0.21934 0.0
H5453 H 0.58977 0.11793 0.19648 0.0
H5454 H 0.58802 0.12153 0.20942 0.0
H5455 H 0.57679 0.11574 0.20119 0.0
C5456 C 0.56432 0.11787 0.22556 0.0
C5457 C 0.55404 0.11352 0.22171 0.0
C5458 C 0.57313 0.11316 0.22292 0.0
C5459 C 0.57179 0.10402 0.21638 0.0
C5460 C 0.56152 0.09936 0.21297 0.0
H5461 H 0.60904 0.07868 0.173 0.0
H5462 H 0.59544 0.08443 0.18341 0.0
C5463 C 0.55272 0.10407 0.21559 0.0
C5464 C 0.58107 0.09981 0.2123 0.0
H5465 H 0.60026 0.10454 0.19608 0.0
C5466 C 0.58305 0.08995 0.21436 0.0
C5467 C 0.58741 0.10519 0.20572 0.0
C5468 C 0.58539 0.11565 0.20298 0.0
C5469 C 0.59114 0.08526 0.20985 0.0
C5470 C 0.59733 0.09058 0.20314 0.0
C5471 C 0.59549 0.10052 0.20128 0.0
C5472 C 0.60516 0.08574 0.19728 0.0
C5473 C 0.59278 0.07451 0.21193 0.0
C5474 C 0.61505 0.08436 0.20169 0.0
C5475 C 0.62289 0.08109 0.19574 0.0
C5476 C 0.62093 0.07927 0.1853 0.0
C5477 C 0.61083 0.08018 0.18101 0.0
C5478 C 0.60304 0.08342 0.18694 0.0
H5479 H 0.58673 0.07108 0.21668 0.0
H5480 H 0.5925 0.06944 0.2048 0.0
H5481 H 0.60076 0.07473 0.21579 0.0
H5482 H 0.61685 0.08621 0.20967 0.0
H5483 H 0.63064 0.08051 0.19922 0.0
H5484 H 0.59118 0.74408 0.94887 0.0
H5485 H 0.59333 0.7599 0.94064 0.0
H5486 H 0.62601 0.75635 0.93647 0.0
H5487 H 0.62388 0.74046 0.94461 0.0
H5488 H 0.6067 0.77794 0.94561 0.0
H5489 H 0.61495 0.75987 0.90841 0.0
H5490 H 0.6099 0.7524 0.91804 0.0
H5491 H 0.62377 0.75739 0.91848 0.0
C5492 C 0.59884 0.74669 0.94625 0.0
C5493 C 0.60735 0.74099 0.94735 0.0
C5494 C 0.60005 0.75571 0.94152 0.0
C5495 C 0.60978 0.75921 0.93779 0.0
C5496 C 0.61835 0.75365 0.93905 0.0
H5497 H 0.62968 0.81362 0.90752 0.0
H5498 H 0.62946 0.79827 0.91651 0.0
C5499 C 0.61713 0.74459 0.94373 0.0
C5500 C 0.61094 0.76876 0.93271 0.0
H5501 H 0.61668 0.77812 0.91061 0.0
C5502 C 0.60887 0.77797 0.93795 0.0
C5503 C 0.61379 0.7688 0.92272 0.0
C5504 C 0.61564 0.75908 0.91654 0.0
C5505 C 0.60959 0.78721 0.93349 0.0
C5506 C 0.61236 0.78722 0.9235 0.0
C5507 C 0.61459 0.77807 0.91829 0.0
C5508 C 0.61256 0.79656 0.91819 0.0
C5509 C 0.60744 0.79691 0.93951 0.0
C5510 C 0.60311 0.80058 0.91607 0.0
C5511 C 0.6032 0.80928 0.91092 0.0
C5512 C 0.61274 0.81413 0.9078 0.0
C5513 C 0.62221 0.81008 0.90988 0.0
C5514 C 0.6221 0.80132 0.915 0.0
H5515 H 0.60787 0.79618 0.94765 0.0
H5516 H 0.61319 0.80362 0.93808 0.0
H5517 H 0.59935 0.79851 0.93726 0.0
H5518 H 0.59564 0.79692 0.91834 0.0
H5519 H 0.5958 0.81223 0.90935 0.0
H5520 H 0.94798 0.08838 0.76964 0.0
H5521 H 0.93223 0.08466 0.77904 0.0
H5522 H 0.93751 0.11578 0.79355 0.0
H5523 H 0.95314 0.11958 0.78416 0.0
H5524 H 0.93168 0.08721 0.80108 0.0
H5525 H 0.90587 0.11104 0.7817 0.0
H5526 H 0.91733 0.10662 0.7763 0.0
H5527 H 0.91898 0.11744 0.78576 0.0
C5528 C 0.94571 0.09445 0.77477 0.0
C5529 C 0.95179 0.10428 0.77616 0.0
C5530 C 0.93676 0.09229 0.78015 0.0
C5531 C 0.93367 0.09998 0.7869 0.0
C5532 C 0.93971 0.10978 0.78829 0.0
H5533 H 0.88817 0.11067 0.82902 0.0
H5534 H 0.90207 0.11092 0.81727 0.0
C5535 C 0.94868 0.11192 0.78298 0.0
C5536 C 0.92429 0.09778 0.79271 0.0
H5537 H 0.90021 0.10537 0.79699 0.0
C5538 C 0.92472 0.09105 0.80012 0.0
C5539 C 0.91525 0.10281 0.79141 0.0
C5540 C 0.91424 0.10982 0.78331 0.0
C5541 C 0.91654 0.08962 0.80663 0.0
C5542 C 0.90763 0.09491 0.80552 0.0
C5543 C 0.90706 0.10135 0.79785 0.0
C5544 C 0.89917 0.09451 0.81264 0.0
C5545 C 0.91776 0.08287 0.81492 0.0
C5546 C 0.89286 0.0852 0.81391 0.0
C5547 C 0.88492 0.08503 0.82069 0.0
C5548 C 0.88314 0.0942 0.82622 0.0
C5549 C 0.88939 0.10349 0.82485 0.0
C5550 C 0.89732 0.10365 0.81813 0.0
H5551 H 0.92604 0.0812 0.81606 0.0
H5552 H 0.91539 0.08657 0.82206 0.0
H5553 H 0.91251 0.07542 0.813 0.0
H5554 H 0.89402 0.07808 0.80961 0.0
H5555 H 0.88018 0.07776 0.82155 0.0
H5556 H 0.63339 0.2548 0.5699 0.0
H5557 H 0.63794 0.23877 0.57578 0.0
H5558 H 0.61059 0.23692 0.59323 0.0
H5559 H 0.60586 0.25278 0.58724 0.0
H5560 H 0.6425 0.23569 0.59571 0.0
H5561 H 0.60835 0.20774 0.57865 0.0
H5562 H 0.61167 0.22032 0.57448 0.0
H5563 H 0.60449 0.21892 0.58546 0.0
C5564 C 0.62823 0.25087 0.57483 0.0
C5565 C 0.61926 0.25506 0.5781 0.0
C5566 C 0.63087 0.24175 0.57823 0.0
C5567 C 0.62453 0.2366 0.58484 0.0
C5568 C 0.61549 0.24067 0.58799 0.0
H5569 H 0.63704 0.19704 0.62906 0.0
H5570 H 0.63468 0.21119 0.61907 0.0
C5571 C 0.61286 0.2498 0.58464 0.0
C5572 C 0.62771 0.22734 0.58901 0.0
H5573 H 0.61874 0.20229 0.59202 0.0
C5574 C 0.63738 0.22834 0.5948 0.0
C5575 C 0.62107 0.21773 0.58771 0.0
C5576 C 0.61086 0.21605 0.58116 0.0
C5577 C 0.64035 0.22013 0.59971 0.0
C5578 C 0.63343 0.21072 0.59888 0.0
C5579 C 0.624 0.20955 0.59271 0.0
C5580 C 0.63549 0.20223 0.60486 0.0
C5581 C 0.65083 0.22163 0.60584 0.0
C5582 C 0.63664 0.19245 0.60018 0.0
C5583 C 0.63797 0.18432 0.60589 0.0
C5584 C 0.638 0.18581 0.61636 0.0
C5585 C 0.63697 0.19564 0.62101 0.0
C5586 C 0.63572 0.20376 0.61531 0.0
H5587 H 0.65643 0.22799 0.60346 0.0
H5588 H 0.64948 0.22366 0.6138 0.0
H5589 H 0.65459 0.21446 0.60526 0.0
H5590 H 0.63641 0.1911 0.59211 0.0
H5591 H 0.63863 0.17681 0.6021 0.0
H5592 H 0.53664 0.90654 0.31818 0.0
H5593 H 0.55422 0.91069 0.32699 0.0
H5594 H 0.56873 0.9034 0.29956 0.0
H5595 H 0.55115 0.89895 0.2907 0.0
H5596 H 0.56968 0.8957 0.32705 0.0
H5597 H 0.58478 0.93245 0.31222 0.0
H5598 H 0.57077 0.92783 0.31212 0.0
H5599 H 0.57875 0.92186 0.30334 0.0
C5600 C 0.54355 0.90578 0.314 0.0
C5601 C 0.54246 0.90234 0.30373 0.0
C5602 C 0.55359 0.90825 0.31904 0.0
C5603 C 0.56274 0.90744 0.3139 0.0
C5604 C 0.56174 0.90423 0.30362 0.0
H5605 H 0.62975 0.91526 0.33482 0.0
H5606 H 0.61297 0.91362 0.32447 0.0
C5607 C 0.55169 0.90171 0.29857 0.0
C5608 C 0.57327 0.90923 0.31947 0.0
H5609 H 0.59657 0.92566 0.32316 0.0
C5610 C 0.57557 0.90225 0.32622 0.0
C5611 C 0.58093 0.91772 0.31825 0.0
C5612 C 0.57873 0.92546 0.31114 0.0
C5613 C 0.58536 0.90352 0.33182 0.0
C5614 C 0.59294 0.91218 0.33083 0.0
C5615 C 0.59071 0.91908 0.32394 0.0
C5616 C 0.60314 0.9142 0.33702 0.0
C5617 C 0.58754 0.89546 0.3386 0.0
C5618 C 0.60318 0.91545 0.34748 0.0
C5619 C 0.6127 0.91631 0.35336 0.0
C5620 C 0.62237 0.9161 0.3489 0.0
C5621 C 0.6224 0.91546 0.33844 0.0
C5622 C 0.61284 0.9145 0.33254 0.0
H5623 H 0.58239 0.88801 0.33633 0.0
H5624 H 0.59596 0.89411 0.33863 0.0
H5625 H 0.58588 0.89815 0.34634 0.0
H5626 H 0.59582 0.91552 0.35109 0.0
H5627 H 0.61248 0.91697 0.36141 0.0
H5628 H 0.85625 0.74514 0.0725 0.0
H5629 H 0.85773 0.76106 0.08375 0.0
H5630 H 0.84268 0.77585 0.06072 0.0
H5631 H 0.84094 0.7598 0.04943 0.0
H5632 H 0.86858 0.78064 0.08016 0.0
H5633 H 0.82576 0.78182 0.08562 0.0
H5634 H 0.83074 0.77019 0.08086 0.0
H5635 H 0.82938 0.78017 0.07292 0.0
C5636 C 0.8531 0.75172 0.06986 0.0
C5637 C 0.8484 0.75118 0.06009 0.0
C5638 C 0.85402 0.76083 0.07628 0.0
C5639 C 0.85022 0.76958 0.0731 0.0
C5640 C 0.84553 0.76912 0.06336 0.0
H5641 H 0.85138 0.83047 0.10637 0.0
H5642 H 0.84847 0.81582 0.09331 0.0
C5643 C 0.84463 0.75999 0.0569 0.0
C5644 C 0.85154 0.77925 0.07994 0.0
H5645 H 0.83793 0.79564 0.0937 0.0
C5646 C 0.86188 0.78395 0.0831 0.0
C5647 C 0.84278 0.78357 0.08369 0.0
C5648 C 0.83152 0.77868 0.08068 0.0
C5649 C 0.86371 0.7928 0.09 0.0
C5650 C 0.85496 0.79694 0.094 0.0
C5651 C 0.84461 0.79241 0.09064 0.0
C5652 C 0.85645 0.80572 0.10196 0.0
C5653 C 0.87501 0.79768 0.0929 0.0
C5654 C 0.8617 0.80481 0.1112 0.0
C5655 C 0.86337 0.81314 0.11864 0.0
C5656 C 0.85976 0.82251 0.117 0.0
C5657 C 0.85428 0.82335 0.10783 0.0
C5658 C 0.85261 0.815 0.10037 0.0
H5659 H 0.88046 0.79547 0.08718 0.0
H5660 H 0.87562 0.80622 0.09399 0.0
H5661 H 0.87772 0.79499 0.10004 0.0
H5662 H 0.86452 0.79765 0.11265 0.0
H5663 H 0.86757 0.81229 0.12566 0.0
H5664 H 0.70436 0.93526 0.90227 0.0
H5665 H 0.69505 0.91798 0.90368 0.0
H5666 H 0.66836 0.9246 0.88545 0.0
H5667 H 0.67757 0.9418 0.88401 0.0
H5668 H 0.66255 0.9157 0.90246 0.0
H5669 H 0.69024 0.89356 0.88177 0.0
H5670 H 0.69614 0.90241 0.89222 0.0
H5671 H 0.69042 0.90727 0.88148 0.0
C5672 C 0.69654 0.93299 0.8985 0.0
C5673 C 0.6917 0.93991 0.89303 0.0
C5674 C 0.69124 0.92312 0.89931 0.0
C5675 C 0.68107 0.91997 0.89458 0.0
C5676 C 0.67621 0.92688 0.88917 0.0
H5677 H 0.6428 0.86299 0.87518 0.0
H5678 H 0.6557 0.87863 0.87771 0.0
C5679 C 0.68146 0.93673 0.88839 0.0
C5680 C 0.67532 0.90953 0.89525 0.0
H5681 H 0.67559 0.88395 0.88796 0.0
C5682 C 0.66543 0.90874 0.89939 0.0
C5683 C 0.6791 0.90049 0.89117 0.0
C5684 C 0.68951 0.90091 0.88633 0.0
C5685 C 0.65906 0.89918 0.8993 0.0
C5686 C 0.66279 0.89013 0.89513 0.0
C5687 C 0.67281 0.89089 0.89123 0.0
C5688 C 0.65594 0.88001 0.89384 0.0
C5689 C 0.64818 0.89892 0.90322 0.0
C5690 C 0.65205 0.87539 0.90209 0.0
C5691 C 0.64456 0.86648 0.90066 0.0
C5692 C 0.6409 0.86203 0.89095 0.0
C5693 C 0.64531 0.86635 0.88274 0.0
C5694 C 0.65274 0.87524 0.88418 0.0
H5695 H 0.64571 0.90672 0.90429 0.0
H5696 H 0.64215 0.89385 0.89805 0.0
H5697 H 0.64827 0.89577 0.91056 0.0
H5698 H 0.65456 0.87884 0.90962 0.0
H5699 H 0.64131 0.86335 0.90714 0.0
H5700 H 0.20458 0.5595 0.13172 0.0
H5701 H 0.19822 0.57629 0.13317 0.0
H5702 H 0.19125 0.57344 0.10127 0.0
H5703 H 0.19761 0.55662 0.09974 0.0
H5704 H 0.20434 0.59455 0.12457 0.0
H5705 H 0.16271 0.57787 0.11225 0.0
H5706 H 0.17265 0.57003 0.1157 0.0
H5707 H 0.1724 0.57482 0.10368 0.0
C5708 C 0.20185 0.5625 0.12499 0.0
C5709 C 0.20153 0.55668 0.11562 0.0
C5710 C 0.19817 0.57209 0.12584 0.0
C5711 C 0.19408 0.57603 0.11735 0.0
C5712 C 0.19414 0.57043 0.10794 0.0
H5713 H 0.16185 0.63039 0.11268 0.0
H5714 H 0.17098 0.61538 0.10868 0.0
C5715 C 0.19779 0.56083 0.10708 0.0
C5716 C 0.1895 0.58585 0.11843 0.0
H5717 H 0.1663 0.59598 0.11552 0.0
C5718 C 0.19604 0.59488 0.12256 0.0
C5719 C 0.17866 0.58625 0.11579 0.0
C5720 C 0.17115 0.57672 0.11169 0.0
C5721 C 0.19201 0.6043 0.12415 0.0
C5722 C 0.18113 0.60466 0.12169 0.0
C5723 C 0.17465 0.59568 0.11737 0.0
C5724 C 0.17616 0.61412 0.12402 0.0
C5725 C 0.19945 0.61381 0.12841 0.0
C5726 C 0.17599 0.61835 0.13397 0.0
C5727 C 0.17077 0.62689 0.13627 0.0
C5728 C 0.16559 0.63134 0.12867 0.0
C5729 C 0.16581 0.62716 0.11869 0.0
C5730 C 0.17102 0.61858 0.1164 0.0
H5731 H 0.20785 0.61295 0.12718 0.0
H5732 H 0.19744 0.62074 0.12504 0.0
H5733 H 0.19874 0.6151 0.13659 0.0
H5734 H 0.17969 0.61489 0.13999 0.0
H5735 H 0.17065 0.62993 0.14402 0.0
H5736 H 0.25229 0.47018 0.86608 0.0
H5737 H 0.23331 0.46391 0.86546 0.0
H5738 H 0.23341 0.45414 0.83398 0.0
H5739 H 0.25247 0.46026 0.83459 0.0
H5740 H 0.21632 0.46906 0.85484 0.0
H5741 H 0.22052 0.42793 0.84445 0.0
H5742 H 0.23175 0.43757 0.84852 0.0
H5743 H 0.22594 0.4365 0.83592 0.0
C5744 C 0.24825 0.46676 0.85901 0.0
C5745 C 0.25387 0.46565 0.85039 0.0
C5746 C 0.23741 0.46316 0.85867 0.0
C5747 C 0.23198 0.45839 0.84972 0.0
C5748 C 0.2375 0.45755 0.84103 0.0
H5749 H 0.1657 0.4303 0.83788 0.0
H5750 H 0.18376 0.43848 0.83587 0.0
C5751 C 0.24837 0.46107 0.84138 0.0
C5752 C 0.22057 0.45424 0.84957 0.0
H5753 H 0.20305 0.43202 0.84521 0.0
C5754 C 0.21342 0.46096 0.85271 0.0
C5755 C 0.21679 0.44367 0.8468 0.0
C5756 C 0.22415 0.43597 0.84382 0.0
C5757 C 0.20261 0.45738 0.85321 0.0
C5758 C 0.19889 0.44682 0.85055 0.0
C5759 C 0.20596 0.44013 0.8472 0.0
C5760 C 0.1878 0.44242 0.85171 0.0
C5761 C 0.19523 0.4649 0.8566 0.0
C5762 C 0.18414 0.44191 0.86128 0.0
C5763 C 0.17389 0.43718 0.86245 0.0
C5764 C 0.16711 0.43293 0.85408 0.0
C5765 C 0.17073 0.43356 0.84448 0.0
C5766 C 0.18103 0.43822 0.84331 0.0
H5767 H 0.19878 0.47302 0.85624 0.0
H5768 H 0.18759 0.46336 0.85196 0.0
H5769 H 0.1935 0.46398 0.86445 0.0
H5770 H 0.18931 0.44497 0.86785 0.0
H5771 H 0.17129 0.43674 0.86993 0.0
H5772 H 0.30757 0.44869 0.65275 0.0
H5773 H 0.3162 0.43373 0.64755 0.0
H5774 H 0.28662 0.41814 0.63298 0.0
H5775 H 0.2779 0.43317 0.63806 0.0
H5776 H 0.29789 0.40571 0.64475 0.0
H5777 H 0.32354 0.42553 0.6187 0.0
H5778 H 0.3244 0.43229 0.63102 0.0
H5779 H 0.3121 0.43062 0.62342 0.0
C5780 C 0.3029 0.44213 0.64836 0.0
C5781 C 0.29206 0.44217 0.64573 0.0
C5782 C 0.30785 0.43358 0.64541 0.0
C5783 C 0.30209 0.42491 0.63973 0.0
C5784 C 0.29121 0.42479 0.63731 0.0
H5785 H 0.33546 0.37746 0.61053 0.0
H5786 H 0.32284 0.38977 0.61365 0.0
C5787 C 0.28624 0.43336 0.64027 0.0
C5788 C 0.30749 0.416 0.63638 0.0
H5789 H 0.32803 0.40942 0.62309 0.0
C5790 C 0.30441 0.40647 0.63993 0.0
C5791 C 0.31587 0.41698 0.62995 0.0
C5792 C 0.31912 0.42687 0.62546 0.0
C5793 C 0.30981 0.398 0.63758 0.0
C5794 C 0.31859 0.39916 0.63162 0.0
C5795 C 0.32136 0.40857 0.62772 0.0
C5796 C 0.32536 0.39094 0.62975 0.0
C5797 C 0.30611 0.3879 0.64152 0.0
C5798 C 0.33092 0.38748 0.63776 0.0
C5799 C 0.33808 0.38044 0.636 0.0
C5800 C 0.33989 0.37677 0.62619 0.0
C5801 C 0.33415 0.38006 0.61817 0.0
C5802 C 0.32698 0.38713 0.61994 0.0
H5803 H 0.29764 0.38733 0.64322 0.0
H5804 H 0.30712 0.38125 0.63608 0.0
H5805 H 0.31088 0.38735 0.64854 0.0
H5806 H 0.32995 0.39047 0.64538 0.0
H5807 H 0.34231 0.37798 0.64234 0.0
H5808 H 0.75768 0.01466 0.85619 0.0
H5809 H 0.77487 0.02042 0.84985 0.0
H5810 H 0.78312 0.04163 0.87648 0.0
H5811 H 0.76614 0.03574 0.88296 0.0
H5812 H 0.78183 0.04014 0.84578 0.0
H5813 H 0.80994 0.02819 0.87367 0.0
H5814 H 0.79601 0.02304 0.87234 0.0
H5815 H 0.80045 0.03531 0.87949 0.0
C5816 C 0.76326 0.02038 0.86079 0.0
C5817 C 0.76055 0.02476 0.87008 0.0
C5818 C 0.77305 0.0237 0.85713 0.0
C5819 C 0.78033 0.03135 0.86275 0.0
C5820 C 0.77772 0.03556 0.87211 0.0
H5821 H 0.82444 0.08043 0.85103 0.0
H5822 H 0.80901 0.06761 0.85218 0.0
C5823 C 0.76795 0.03228 0.87575 0.0
C5824 C 0.79028 0.03562 0.85856 0.0
H5825 H 0.81688 0.04216 0.86446 0.0
C5826 C 0.78953 0.0404 0.84975 0.0
C5827 C 0.80035 0.0358 0.86363 0.0
C5828 C 0.80176 0.03021 0.87275 0.0
C5829 C 0.79847 0.046 0.84628 0.0
C5830 C 0.80836 0.04695 0.85185 0.0
C5831 C 0.80926 0.04153 0.86024 0.0
C5832 C 0.81751 0.05446 0.84984 0.0
C5833 C 0.79717 0.05111 0.83684 0.0
C5834 C 0.82745 0.05134 0.84814 0.0
C5835 C 0.83632 0.0587 0.84749 0.0
C5836 C 0.83539 0.06927 0.84871 0.0
C5837 C 0.82537 0.07233 0.85009 0.0
C5838 C 0.81654 0.06501 0.85066 0.0
H5839 H 0.79044 0.04693 0.8318 0.0
H5840 H 0.79544 0.05908 0.83879 0.0
H5841 H 0.80451 0.0515 0.83275 0.0
H5842 H 0.82838 0.04325 0.84758 0.0
H5843 H 0.84398 0.05616 0.84651 0.0
H5844 H 0.8501 0.06553 0.35862 0.0
H5845 H 0.85467 0.08433 0.36109 0.0
H5846 H 0.8413 0.08508 0.38974 0.0
H5847 H 0.83673 0.06625 0.38737 0.0
H5848 H 0.83852 0.10051 0.36792 0.0
H5849 H 0.87502 0.09906 0.39237 0.0
H5850 H 0.86988 0.08854 0.38299 0.0
H5851 H 0.86293 0.09078 0.39399 0.0
C5852 C 0.84812 0.0697 0.36544 0.0
C5853 C 0.8431 0.06442 0.37282 0.0
C5854 C 0.85068 0.08042 0.36681 0.0
C5855 C 0.84832 0.08602 0.37559 0.0
C5856 C 0.84315 0.08084 0.38291 0.0
H5857 H 0.87447 0.15031 0.3947 0.0
H5858 H 0.86489 0.13291 0.39474 0.0
C5859 C 0.84051 0.07011 0.38152 0.0
C5860 C 0.8517 0.09726 0.37723 0.0
H5861 H 0.87186 0.11528 0.38801 0.0
C5862 C 0.84575 0.10379 0.37238 0.0
C5863 C 0.86106 0.10145 0.38313 0.0
C5864 C 0.86766 0.09465 0.38844 0.0
C5865 C 0.84907 0.11446 0.37314 0.0
C5866 C 0.85873 0.11862 0.37866 0.0
C5867 C 0.86447 0.11209 0.38378 0.0
C5868 C 0.86346 0.12954 0.37864 0.0
C5869 C 0.84219 0.12116 0.368 0.0
C5870 C 0.86578 0.13344 0.36959 0.0
C5871 C 0.87114 0.14338 0.36954 0.0
C5872 C 0.87446 0.1496 0.37856 0.0
C5873 C 0.87194 0.14576 0.38762 0.0
C5874 C 0.86651 0.1358 0.38766 0.0
H5875 H 0.83373 0.11762 0.36722 0.0
H5876 H 0.84278 0.12895 0.37216 0.0
H5877 H 0.8448 0.12199 0.36039 0.0
H5878 H 0.86374 0.12868 0.36255 0.0
H5879 H 0.87285 0.14614 0.36243 0.0
H5880 H 0.21907 0.51218 0.65713 0.0
H5881 H 0.20146 0.51694 0.65989 0.0
H5882 H 0.21217 0.52928 0.69013 0.0
H5883 H 0.22983 0.52455 0.68743 0.0
H5884 H 0.1866 0.512 0.67396 0.0
H5885 H 0.20186 0.5539 0.67805 0.0
H5886 H 0.20962 0.54422 0.67329 0.0
H5887 H 0.20822 0.54648 0.68648 0.0
C5888 C 0.21763 0.51575 0.66443 0.0
C5889 C 0.22587 0.51807 0.67204 0.0
C5890 C 0.20758 0.5185 0.66597 0.0
C5891 C 0.20558 0.52363 0.67515 0.0
C5892 C 0.21363 0.52553 0.68292 0.0
H5893 H 0.15068 0.55346 0.69146 0.0
H5894 H 0.16711 0.54568 0.69234 0.0
C5895 C 0.2237 0.52282 0.68137 0.0
C5896 C 0.1952 0.52736 0.67639 0.0
H5897 H 0.18366 0.54931 0.67998 0.0
C5898 C 0.18594 0.52016 0.67532 0.0
C5899 C 0.19439 0.538 0.67817 0.0
C5900 C 0.20402 0.54612 0.67899 0.0
C5901 C 0.17587 0.52332 0.67594 0.0
C5902 C 0.17505 0.53397 0.67752 0.0
C5903 C 0.18432 0.54115 0.67881 0.0
C5904 C 0.16468 0.53791 0.67731 0.0
C5905 C 0.1662 0.51524 0.67493 0.0
C5906 C 0.15787 0.53612 0.66857 0.0
C5907 C 0.14851 0.54056 0.66804 0.0
C5908 C 0.14581 0.54691 0.67622 0.0
C5909 C 0.15253 0.54857 0.68503 0.0
C5910 C 0.16192 0.54414 0.68555 0.0
H5911 H 0.16824 0.50763 0.67668 0.0
H5912 H 0.16009 0.51754 0.67992 0.0
H5913 H 0.16269 0.51433 0.66711 0.0
H5914 H 0.15996 0.53153 0.66204 0.0
H5915 H 0.14349 0.53922 0.66114 0.0
H5916 H 0.27682 0.4795 0.12871 0.0
H5917 H 0.29299 0.47202 0.13221 0.0
H5918 H 0.31076 0.50249 0.13792 0.0
H5919 H 0.29451 0.51007 0.13499 0.0
H5920 H 0.31076 0.47311 0.12283 0.0
H5921 H 0.32038 0.48973 0.16215 0.0
H5922 H 0.30774 0.49023 0.15559 0.0
H5923 H 0.31909 0.49941 0.15385 0.0
C5924 C 0.28411 0.48464 0.13091 0.0
C5925 C 0.2843 0.49542 0.13165 0.0
C5926 C 0.29338 0.48033 0.13283 0.0
C5927 C 0.30307 0.48668 0.1355 0.0
C5928 C 0.30334 0.49743 0.13611 0.0
H5929 H 0.36513 0.46726 0.12992 0.0
H5930 H 0.3486 0.47469 0.12796 0.0
C5931 C 0.29405 0.50175 0.13427 0.0
C5932 C 0.31294 0.48201 0.13726 0.0
H5933 H 0.33397 0.48188 0.15414 0.0
C5934 C 0.3158 0.47499 0.1297 0.0
C5935 C 0.31944 0.48432 0.14629 0.0
C5936 C 0.31646 0.49125 0.15498 0.0
C5937 C 0.32506 0.47037 0.13083 0.0
C5938 C 0.33183 0.47307 0.13966 0.0
C5939 C 0.32886 0.47992 0.14732 0.0
C5940 C 0.34203 0.46888 0.14108 0.0
C5941 C 0.32739 0.46251 0.12261 0.0
C5942 C 0.34404 0.46351 0.14933 0.0
C5943 C 0.35358 0.4594 0.15055 0.0
C5944 C 0.36125 0.46062 0.14353 0.0
C5945 C 0.35931 0.46616 0.1354 0.0
C5946 C 0.34984 0.47033 0.13423 0.0
H5947 H 0.32005 0.45902 0.11799 0.0
H5948 H 0.33289 0.46635 0.11761 0.0
H5949 H 0.33116 0.45623 0.12568 0.0
H5950 H 0.33816 0.46235 0.15474 0.0
H5951 H 0.35485 0.45517 0.1569 0.0
H5952 H 0.60909 0.81113 0.52552 0.0
H5953 H 0.60511 0.81825 0.54217 0.0
H5954 H 0.60254 0.84754 0.53113 0.0
H5955 H 0.60658 0.84057 0.51458 0.0
H5956 H 0.61652 0.8348 0.55415 0.0
H5957 H 0.57552 0.84265 0.54569 0.0
H5958 H 0.58208 0.83432 0.53737 0.0
H5959 H 0.58466 0.8481 0.53738 0.0
C5960 C 0.60765 0.81908 0.52664 0.0
C5961 C 0.60807 0.82524 0.51868 0.0
C5962 C 0.60532 0.82311 0.53614 0.0
C5963 C 0.60331 0.83336 0.53784 0.0
C5964 C 0.60375 0.83952 0.52993 0.0
H5965 H 0.59968 0.88061 0.58458 0.0
H5966 H 0.59928 0.86918 0.56908 0.0
C5967 C 0.60607 0.83551 0.52046 0.0
C5968 C 0.60145 0.8379 0.548 0.0
H5969 H 0.58461 0.8516 0.56082 0.0
C5970 C 0.60946 0.83831 0.55568 0.0
C5971 C 0.59222 0.84246 0.54996 0.0
C5972 C 0.58308 0.84178 0.54219 0.0
C5973 C 0.60876 0.84366 0.56511 0.0
C5974 C 0.59973 0.84859 0.56694 0.0
C5975 C 0.59153 0.84784 0.55938 0.0
C5976 C 0.59906 0.85524 0.57636 0.0
C5977 C 0.61793 0.84444 0.57288 0.0
C5978 C 0.59878 0.85114 0.58558 0.0
C5979 C 0.59903 0.85767 0.59448 0.0
C5980 C 0.59959 0.8684 0.59428 0.0
C5981 C 0.59941 0.8724 0.58499 0.0
C5982 C 0.59913 0.86588 0.57612 0.0
H5983 H 0.62508 0.8418 0.56968 0.0
H5984 H 0.62007 0.85251 0.57637 0.0
H5985 H 0.61558 0.83956 0.57885 0.0
H5986 H 0.59857 0.84293 0.58591 0.0
H5987 H 0.5992 0.85437 0.60151 0.0
H5988 H 0.49286 0.38881 0.78247 0.0
H5989 H 0.48966 0.38687 0.8 0.0
H5990 H 0.45868 0.39617 0.79542 0.0
H5991 H 0.46179 0.39811 0.77799 0.0
H5992 H 0.48525 0.4011 0.81514 0.0
H5993 H 0.45196 0.36927 0.80773 0.0
H5994 H 0.4607 0.37302 0.79826 0.0
H5995 H 0.44977 0.37999 0.80101 0.0
C5996 C 0.48538 0.39046 0.78522 0.0
C5997 C 0.47753 0.39349 0.77881 0.0
C5998 C 0.48355 0.38931 0.79522 0.0
C5999 C 0.47383 0.39114 0.79894 0.0
C6000 C 0.4661 0.39441 0.79262 0.0
H6001 H 0.45325 0.41025 0.85496 0.0
H6002 H 0.46208 0.40819 0.83949 0.0
C6003 C 0.46791 0.39553 0.78266 0.0
C6004 C 0.47176 0.38998 0.8095 0.0
H6005 H 0.4532 0.37909 0.82392 0.0
C6006 C 0.47835 0.39616 0.81709 0.0
C6007 C 0.46291 0.38334 0.81207 0.0
C6008 C 0.456 0.37595 0.80434 0.0
C6009 C 0.47589 0.3964 0.82713 0.0
C6010 C 0.4665 0.39045 0.82957 0.0
C6011 C 0.46033 0.38375 0.82206 0.0
C6012 C 0.46233 0.39178 0.8396 0.0
C6013 C 0.48329 0.40314 0.83497 0.0
C6014 C 0.45942 0.38322 0.8448 0.0
C6015 C 0.45418 0.38436 0.8536 0.0
C6016 C 0.45167 0.39406 0.85729 0.0
C6017 C 0.45495 0.40266 0.85225 0.0
C6018 C 0.46015 0.40151 0.84347 0.0
H6019 H 0.49158 0.40401 0.8327 0.0
H6020 H 0.48083 0.41095 0.83589 0.0
H6021 H 0.48314 0.39997 0.8423 0.0
H6022 H 0.46094 0.37562 0.8419 0.0
H6023 H 0.45168 0.37758 0.85728 0.0
H6024 H 0.86714 0.20143 0.04425 0.0
H6025 H 0.87271 0.19386 0.05923 0.0
H6026 H 0.8931 0.17644 0.04202 0.0
H6027 H 0.88787 0.18422 0.02713 0.0
H6028 H 0.87013 0.17337 0.06223 0.0
H6029 H 0.91283 0.18915 0.06611 0.0
H6030 H 0.90328 0.19419 0.0582 0.0
H6031 H 0.90864 0.18268 0.0539 0.0
C6032 C 0.87295 0.19613 0.0437 0.0
C6033 C 0.87706 0.19344 0.03449 0.0
C6034 C 0.87608 0.19176 0.05225 0.0
C6035 C 0.88343 0.1847 0.05178 0.0
C6036 C 0.88758 0.18203 0.04261 0.0
H6037 H 0.89292 0.13715 0.08945 0.0
H6038 H 0.88804 0.14762 0.07634 0.0
C6039 C 0.88447 0.18639 0.03407 0.0
C6040 C 0.88636 0.17967 0.06071 0.0
H6041 H 0.90755 0.17497 0.07541 0.0
C6042 C 0.8783 0.1738 0.06518 0.0
C6043 C 0.897 0.18035 0.06464 0.0
C6044 C 0.90593 0.18702 0.06053 0.0
C6045 C 0.88064 0.1683 0.07324 0.0
C6046 C 0.89134 0.16853 0.0768 0.0
C6047 C 0.89936 0.1747 0.07258 0.0
C6048 C 0.89439 0.16222 0.08474 0.0
C6049 C 0.87162 0.1623 0.07787 0.0
C6050 C 0.89987 0.16694 0.0937 0.0
C6051 C 0.90275 0.16096 0.10118 0.0
C6052 C 0.90024 0.15016 0.09976 0.0
C6053 C 0.8949 0.14546 0.09074 0.0
C6054 C 0.89204 0.15143 0.08328 0.0
H6055 H 0.86399 0.16528 0.07632 0.0
H6056 H 0.87068 0.15411 0.07465 0.0
H6057 H 0.87321 0.16261 0.08609 0.0
H6058 H 0.90182 0.17525 0.09495 0.0
H6059 H 0.90687 0.1648 0.10805 0.0
H6060 H 0.06841 0.63826 0.29716 0.0
H6061 H 0.07328 0.6363 0.31456 0.0
H6062 H 0.04102 0.63806 0.32186 0.0
H6063 H 0.03607 0.6402 0.30443 0.0
H6064 H 0.07097 0.64982 0.33226 0.0
H6065 H 0.04805 0.61069 0.33193 0.0
H6066 H 0.05116 0.61628 0.32058 0.0
H6067 H 0.04092 0.62063 0.32783 0.0
C6068 C 0.06236 0.63837 0.30247 0.0
C6069 C 0.05184 0.6394 0.29939 0.0
C6070 C 0.06515 0.63719 0.31241 0.0
C6071 C 0.05749 0.63694 0.31946 0.0
C6072 C 0.04701 0.63808 0.31648 0.0
H6073 H 0.06719 0.6217 0.38102 0.0
H6074 H 0.05904 0.62748 0.36602 0.0
C6075 C 0.0442 0.63928 0.30652 0.0
C6076 C 0.06058 0.63538 0.3299 0.0
H6077 H 0.05811 0.61766 0.34677 0.0
C6078 C 0.06809 0.64283 0.33548 0.0
C6079 C 0.05675 0.62629 0.33408 0.0
C6080 C 0.04882 0.61795 0.32831 0.0
C6081 C 0.07207 0.64134 0.34507 0.0
C6082 C 0.0686 0.63204 0.34908 0.0
C6083 C 0.06076 0.62477 0.34366 0.0
C6084 C 0.0736 0.62933 0.35848 0.0
C6085 C 0.08001 0.64969 0.35079 0.0
C6086 C 0.08446 0.62846 0.35921 0.0
C6087 C 0.08913 0.62521 0.36775 0.0
C6088 C 0.083 0.62267 0.37572 0.0
C6089 C 0.07214 0.6237 0.37505 0.0
C6090 C 0.06746 0.62694 0.36647 0.0
H6091 H 0.07922 0.65736 0.34827 0.0
H6092 H 0.07906 0.65008 0.35894 0.0
H6093 H 0.08816 0.64802 0.34945 0.0
H6094 H 0.08931 0.63006 0.35306 0.0
H6095 H 0.09753 0.62459 0.36807 0.0
H6096 H 0.62215 0.14721 0.99895 0.0
H6097 H 0.61778 0.14273 0.98106 0.0
H6098 H 0.59153 0.16032 0.98252 0.0
H6099 H 0.59568 0.16461 1.00055 0.0
H6100 H 0.58609 0.14085 0.97221 0.0
H6101 H 0.62247 0.16078 0.9584 0.0
H6102 H 0.62536 0.15246 0.96767 0.0
H6103 H 0.61877 0.16346 0.97102 0.0
C6104 C 0.61544 0.15012 0.99548 0.0
C6105 C 0.60925 0.15625 1.00118 0.0
C6106 C 0.61302 0.14765 0.98523 0.0
C6107 C 0.60444 0.15133 0.98043 0.0
C6108 C 0.59825 0.15748 0.98607 0.0
H6109 H 0.59633 0.13976 0.91504 0.0
H6110 H 0.59717 0.14863 0.93198 0.0
C6111 C 0.60067 0.15997 0.99635 0.0
C6112 C 0.60165 0.14825 0.96963 0.0
H6113 H 0.61219 0.14754 0.94693 0.0
C6114 C 0.59173 0.14244 0.96665 0.0
C6115 C 0.60894 0.15048 0.96236 0.0
C6116 C 0.61944 0.15723 0.965 0.0
C6117 C 0.58913 0.13833 0.95667 0.0
C6118 C 0.59672 0.13993 0.94954 0.0
C6119 C 0.60641 0.14621 0.95242 0.0
C6120 C 0.59512 0.13462 0.93923 0.0
C6121 C 0.57831 0.13222 0.95389 0.0
C6122 C 0.59363 0.12381 0.93768 0.0
C6123 C 0.59309 0.11873 0.92803 0.0
C6124 C 0.59413 0.12436 0.91972 0.0
C6125 C 0.59538 0.1352 0.92127 0.0
C6126 C 0.59592 0.14028 0.93095 0.0
H6127 H 0.57242 0.13453 0.95912 0.0
H6128 H 0.57541 0.13322 0.94617 0.0
H6129 H 0.57881 0.12391 0.9543 0.0
H6130 H 0.59321 0.11928 0.94396 0.0
H6131 H 0.59202 0.11038 0.92709 0.0
H6132 H 0.0229 0.34753 0.19636 0.0
H6133 H 0.03058 0.34807 0.18016 0.0
H6134 H 0.04094 0.38066 0.18714 0.0
H6135 H 0.03351 0.38015 0.20344 0.0
H6136 H 0.02681 0.36038 0.16415 0.0
H6137 H 0.06838 0.36828 0.18081 0.0
H6138 H 0.05738 0.36365 0.18778 0.0
H6139 H 0.05967 0.37699 0.18559 0.0
C6140 C 0.02683 0.35481 0.19445 0.0
C6141 C 0.02767 0.36378 0.20123 0.0
C6142 C 0.03116 0.35511 0.18517 0.0
C6143 C 0.03646 0.36437 0.18252 0.0
C6144 C 0.03701 0.37341 0.18911 0.0
H6145 H 0.07316 0.38043 0.13282 0.0
H6146 H 0.06362 0.38044 0.14801 0.0
C6147 C 0.03266 0.37312 0.19838 0.0
C6148 C 0.04166 0.3645 0.17297 0.0
H6149 H 0.06586 0.36856 0.16336 0.0
C6150 C 0.03535 0.36215 0.16395 0.0
C6151 C 0.05279 0.3668 0.17277 0.0
C6152 C 0.05999 0.36899 0.18224 0.0
C6153 C 0.03987 0.36222 0.1547 0.0
C6154 C 0.05103 0.3645 0.15449 0.0
C6155 C 0.05732 0.36684 0.16353 0.0
C6156 C 0.05638 0.36452 0.145 0.0
C6157 C 0.03266 0.36008 0.14524 0.0
C6158 C 0.05552 0.35554 0.13827 0.0
C6159 C 0.06096 0.35552 0.12954 0.0
C6160 C 0.06743 0.36443 0.12746 0.0
C6161 C 0.06826 0.37342 0.13421 0.0
C6162 C 0.0628 0.37344 0.1429 0.0
H6163 H 0.02439 0.36129 0.14665 0.0
H6164 H 0.03553 0.36509 0.13952 0.0
H6165 H 0.03253 0.35193 0.14214 0.0
H6166 H 0.05081 0.3485 0.13984 0.0
H6167 H 0.06023 0.34849 0.12449 0.0
H6168 H 0.93911 0.85827 0.49542 0.0
H6169 H 0.93987 0.86196 0.47803 0.0
H6170 H 0.96566 0.88647 0.48675 0.0
H6171 H 0.96524 0.88258 0.50404 0.0
H6172 H 0.93598 0.87973 0.47136 0.0
H6173 H 0.97623 0.8727 0.46192 0.0
H6174 H 0.97019 0.86806 0.4727 0.0
H6175 H 0.97659 0.88117 0.47323 0.0
C6176 C 0.94514 0.86425 0.49359 0.0
C6177 C 0.95209 0.87016 0.50114 0.0
C6178 C 0.94553 0.86639 0.48365 0.0
C6179 C 0.9529 0.87441 0.48105 0.0
C6180 C 0.96005 0.8801 0.48852 0.0
H6181 H 0.94756 0.91511 0.43635 0.0
H6182 H 0.94797 0.9059 0.45121 0.0
C6183 C 0.9597 0.87796 0.49844 0.0
C6184 C 0.95242 0.87758 0.47079 0.0
H6185 H 0.9677 0.88376 0.4517 0.0
C6186 C 0.94288 0.88045 0.46699 0.0
C6187 C 0.96137 0.8784 0.46503 0.0
C6188 C 0.97163 0.87481 0.46839 0.0
C6189 C 0.94219 0.88461 0.45784 0.0
C6190 C 0.95134 0.88611 0.45242 0.0
C6191 C 0.96074 0.88274 0.45594 0.0
C6192 C 0.95142 0.89168 0.44339 0.0
C6193 C 0.93168 0.88746 0.4541 0.0
C6194 C 0.95357 0.88684 0.43411 0.0
C6195 C 0.9534 0.89213 0.4256 0.0
C6196 C 0.95116 0.90235 0.42629 0.0
C6197 C 0.94925 0.90722 0.43561 0.0
C6198 C 0.94942 0.90195 0.44409 0.0
H6199 H 0.92494 0.88306 0.45739 0.0
H6200 H 0.93151 0.89579 0.4563 0.0
H6201 H 0.9305 0.88601 0.44583 0.0
H6202 H 0.95521 0.87894 0.43344 0.0
H6203 H 0.95493 0.88819 0.4185 0.0
H6204 H 0.45729 0.63987 0.71458 0.0
H6205 H 0.44578 0.64171 0.69995 0.0
H6206 H 0.47296 0.64512 0.68234 0.0
H6207 H 0.48459 0.64331 0.69701 0.0
H6208 H 0.44601 0.65793 0.68774 0.0
H6209 H 0.45295 0.62122 0.66648 0.0
H6210 H 0.4567 0.62422 0.67965 0.0
H6211 H 0.46458 0.63023 0.67067 0.0
C6212 C 0.46086 0.64113 0.70763 0.0
C6213 C 0.47187 0.64144 0.70696 0.0
C6214 C 0.45426 0.64215 0.69927 0.0
C6215 C 0.4585 0.64344 0.69004 0.0
C6216 C 0.4695 0.64394 0.68935 0.0
H6217 H 0.42127 0.64132 0.63274 0.0
H6218 H 0.43635 0.64467 0.64536 0.0
C6219 C 0.47613 0.64291 0.69774 0.0
C6220 C 0.45128 0.64406 0.68117 0.0
H6221 H 0.44103 0.63082 0.65892 0.0
C6222 C 0.44498 0.65206 0.68139 0.0
C6223 C 0.45 0.63641 0.67288 0.0
C6224 C 0.45634 0.62748 0.67238 0.0
C6225 C 0.43725 0.65249 0.67365 0.0
C6226 C 0.43568 0.64461 0.66556 0.0
C6227 C 0.44227 0.63685 0.66513 0.0
C6228 C 0.42664 0.64372 0.65796 0.0
C6229 C 0.43075 0.66129 0.67426 0.0
C6230 C 0.41621 0.64214 0.66088 0.0
C6231 C 0.40763 0.64022 0.65372 0.0
C6232 C 0.40931 0.63981 0.64349 0.0
C6233 C 0.41974 0.64169 0.64058 0.0
C6234 C 0.42835 0.64356 0.64776 0.0
H6235 H 0.43501 0.66815 0.679 0.0
H6236 H 0.42876 0.66354 0.66672 0.0
H6237 H 0.42323 0.65887 0.67766 0.0
H6238 H 0.41471 0.64203 0.66869 0.0
H6239 H 0.39968 0.63887 0.65619 0.0
H6240 H 0.54193 0.61309 0.7966 0.0
H6241 H 0.55568 0.6028 0.80113 0.0
H6242 H 0.55078 0.58543 0.77202 0.0
H6243 H 0.53706 0.59586 0.76731 0.0
H6244 H 0.55145 0.57315 0.78826 0.0
H6245 H 0.58577 0.60405 0.79124 0.0
H6246 H 0.57495 0.60775 0.79806 0.0
H6247 H 0.57325 0.6051 0.78468 0.0
C6248 C 0.54389 0.60723 0.79107 0.0
C6249 C 0.53845 0.60539 0.78155 0.0
C6250 C 0.55174 0.60133 0.79369 0.0
C6251 C 0.55437 0.59347 0.78685 0.0
C6252 C 0.54891 0.59151 0.77738 0.0
H6253 H 0.60995 0.56721 0.80851 0.0
H6254 H 0.59738 0.57236 0.79613 0.0
C6255 C 0.54105 0.59745 0.77472 0.0
C6256 C 0.56256 0.58714 0.78988 0.0
H6257 H 0.58799 0.58935 0.80002 0.0
C6258 C 0.55951 0.57662 0.79066 0.0
C6259 C 0.57311 0.59163 0.79281 0.0
C6260 C 0.57701 0.60273 0.79156 0.0
C6261 C 0.56656 0.57065 0.79496 0.0
C6262 C 0.57683 0.57539 0.79869 0.0
C6263 C 0.58009 0.58572 0.79725 0.0
C6264 C 0.5839 0.57026 0.80512 0.0
C6265 C 0.56284 0.55941 0.79569 0.0
C6266 C 0.58043 0.5671 0.81416 0.0
C6267 C 0.58756 0.56412 0.8212 0.0
C6268 C 0.59834 0.56433 0.81938 0.0
C6269 C 0.60168 0.56688 0.81008 0.0
C6270 C 0.59452 0.56988 0.80303 0.0
H6271 H 0.55676 0.55617 0.78956 0.0
H6272 H 0.56954 0.5548 0.79542 0.0
H6273 H 0.55914 0.5586 0.80287 0.0
H6274 H 0.57235 0.56753 0.81606 0.0
H6275 H 0.58477 0.56215 0.82829 0.0
H6276 H 0.63382 0.23494 0.08784 0.0
H6277 H 0.63401 0.25091 0.09881 0.0
H6278 H 0.60967 0.25995 0.0793 0.0
H6279 H 0.60912 0.2438 0.06847 0.0
H6280 H 0.63812 0.27134 0.09518 0.0
H6281 H 0.59703 0.26199 0.10643 0.0
H6282 H 0.60397 0.2525 0.1 0.0
H6283 H 0.59802 0.2616 0.09317 0.0
C6284 C 0.62843 0.24027 0.08592 0.0
C6285 C 0.62137 0.23802 0.07732 0.0
C6286 C 0.62861 0.24944 0.09216 0.0
C6287 C 0.62174 0.25654 0.08996 0.0
C6288 C 0.61491 0.25448 0.08124 0.0
H6289 H 0.62608 0.31957 0.11885 0.0
H6290 H 0.6265 0.30434 0.10694 0.0
C6291 C 0.61469 0.2453 0.075 0.0
C6292 C 0.62167 0.26602 0.09686 0.0
H6293 H 0.60591 0.27872 0.11197 0.0
C6294 C 0.63108 0.27297 0.09885 0.0
C6295 C 0.61251 0.26805 0.10175 0.0
C6296 C 0.60233 0.26061 0.10032 0.0
C6297 C 0.63157 0.28193 0.10556 0.0
C6298 C 0.62234 0.28407 0.11025 0.0
C6299 C 0.61295 0.2771 0.1083 0.0
C6300 C 0.62229 0.29335 0.11746 0.0
C6301 C 0.64202 0.28887 0.10773 0.0
C6302 C 0.61956 0.29223 0.12726 0.0
C6303 C 0.61922 0.30091 0.13404 0.0
C6304 C 0.62158 0.31086 0.13115 0.0
C6305 C 0.62431 0.31199 0.12132 0.0
C6306 C 0.62461 0.3033 0.11452 0.0
H6307 H 0.64882 0.28483 0.1056 0.0
H6308 H 0.642 0.29559 0.10337 0.0
H6309 H 0.64327 0.29181 0.11578 0.0
H6310 H 0.6177 0.28463 0.12967 0.0
H6311 H 0.61707 0.29983 0.14156 0.0
H6312 H 0.95269 0.40741 0.26209 0.0
H6313 H 0.93931 0.41456 0.27195 0.0
H6314 H 0.93682 0.38813 0.28861 0.0
H6315 H 0.94989 0.38076 0.27858 0.0
H6316 H 0.9172 0.39385 0.2831 0.0
H6317 H 0.94527 0.42749 0.30095 0.0
H6318 H 0.9442 0.42611 0.28753 0.0
H6319 H 0.94967 0.41654 0.29407 0.0
C6320 C 0.9492 0.40305 0.26776 0.0
C6321 C 0.95244 0.39354 0.2696 0.0
C6322 C 0.94163 0.40721 0.27346 0.0
C6323 C 0.93721 0.40196 0.28112 0.0
C6324 C 0.94019 0.39234 0.28278 0.0
H6325 H 0.90773 0.42225 0.33349 0.0
H6326 H 0.91921 0.41659 0.32073 0.0
C6327 C 0.94773 0.38818 0.27709 0.0
C6328 C 0.9296 0.40651 0.28758 0.0
H6329 H 0.92749 0.42656 0.30515 0.0
C6330 C 0.91941 0.40104 0.28788 0.0
C6331 C 0.93256 0.41583 0.29387 0.0
C6332 C 0.94354 0.42182 0.2942 0.0
C6333 C 0.91214 0.40458 0.2944 0.0
C6334 C 0.91509 0.41391 0.30067 0.0
C6335 C 0.92522 0.41945 0.30027 0.0
C6336 C 0.9081 0.41767 0.30825 0.0
C6337 C 0.90152 0.39808 0.29479 0.0
C6338 C 0.89809 0.42031 0.30547 0.0
C6339 C 0.89149 0.42353 0.31277 0.0
C6340 C 0.89485 0.42421 0.32296 0.0
C6341 C 0.90495 0.42178 0.32569 0.0
C6342 C 0.91152 0.41856 0.31842 0.0
H6343 H 0.90137 0.39014 0.29107 0.0
H6344 H 0.89949 0.3976 0.30264 0.0
H6345 H 0.89528 0.4017 0.29091 0.0
H6346 H 0.89537 0.41985 0.29766 0.0
H6347 H 0.88376 0.42539 0.31044 0.0
H6348 H 0.92524 0.80335 0.58055 0.0
H6349 H 0.92142 0.78868 0.59014 0.0
H6350 H 0.94045 0.77116 0.57141 0.0
H6351 H 0.94465 0.78597 0.56198 0.0
H6352 H 0.91161 0.7689 0.58395 0.0
H6353 H 0.95287 0.76858 0.59953 0.0
H6354 H 0.94888 0.77928 0.59355 0.0
H6355 H 0.95136 0.76783 0.58614 0.0
C6356 C 0.92874 0.79643 0.57854 0.0
C6357 C 0.93536 0.79589 0.57056 0.0
C6358 C 0.92647 0.78802 0.58398 0.0
C6359 C 0.93077 0.77888 0.58158 0.0
C6360 C 0.9372 0.77821 0.5735 0.0
H6361 H 0.9096 0.72019 0.60434 0.0
H6362 H 0.91346 0.734 0.59365 0.0
C6363 C 0.9395 0.78664 0.56805 0.0
C6364 C 0.92844 0.77007 0.58755 0.0
H6365 H 0.94 0.75491 0.60288 0.0
C6366 C 0.91781 0.76582 0.58808 0.0
C6367 C 0.93654 0.76616 0.59302 0.0
C6368 C 0.94805 0.77074 0.59313 0.0
C6369 C 0.91506 0.75775 0.59392 0.0
C6370 C 0.92318 0.75371 0.59924 0.0
C6371 C 0.9338 0.75797 0.59873 0.0
C6372 C 0.92081 0.74528 0.60566 0.0
C6373 C 0.90348 0.75381 0.59455 0.0
C6374 C 0.92386 0.74697 0.61592 0.0
C6375 C 0.92172 0.73908 0.62203 0.0
C6376 C 0.91653 0.72935 0.61799 0.0
C6377 C 0.91354 0.72763 0.60769 0.0
C6378 C 0.91569 0.73553 0.60158 0.0
H6379 H 0.89826 0.75936 0.5921 0.0
H6380 H 0.90138 0.74647 0.58962 0.0
H6381 H 0.90181 0.75229 0.6023 0.0
H6382 H 0.92785 0.75442 0.61922 0.0
H6383 H 0.92415 0.74058 0.62993 0.0
H6384 H 0.56194 0.44126 0.72962 0.0
H6385 H 0.57765 0.4475 0.72115 0.0
H6386 H 0.56077 0.43694 0.6926 0.0
H6387 H 0.54519 0.43046 0.70093 0.0
H6388 H 0.58853 0.43508 0.70766 0.0
H6389 H 0.57364 0.46698 0.68963 0.0
H6390 H 0.56757 0.46156 0.70006 0.0
H6391 H 0.56478 0.45505 0.68763 0.0
C6392 C 0.56157 0.44025 0.72154 0.0
C6393 C 0.55226 0.43538 0.71596 0.0
C6394 C 0.57053 0.44389 0.71672 0.0
C6395 C 0.5703 0.44284 0.70625 0.0
C6396 C 0.56103 0.43806 0.70068 0.0
H6397 H 0.60862 0.446 0.65749 0.0
H6398 H 0.59494 0.44589 0.66942 0.0
C6399 C 0.55211 0.43437 0.70547 0.0
C6400 C 0.57993 0.44605 0.70108 0.0
H6401 H 0.58898 0.46076 0.68308 0.0
C6402 C 0.58874 0.44083 0.70242 0.0
C6403 C 0.58014 0.45355 0.69426 0.0
C6404 C 0.57107 0.45969 0.69286 0.0
C6405 C 0.59752 0.44245 0.69665 0.0
C6406 C 0.59756 0.44968 0.68953 0.0
C6407 C 0.58893 0.45523 0.68853 0.0
C6408 C 0.60593 0.45079 0.68237 0.0
C6409 C 0.60637 0.43599 0.69783 0.0
C6410 C 0.61664 0.45389 0.68565 0.0
C6411 C 0.62452 0.45385 0.67883 0.0
C6412 C 0.62179 0.45075 0.66862 0.0
C6413 C 0.611 0.44821 0.66533 0.0
C6414 C 0.60316 0.44823 0.67213 0.0
H6415 H 0.60411 0.42938 0.70215 0.0
H6416 H 0.60871 0.43295 0.69042 0.0
H6417 H 0.61341 0.44083 0.70186 0.0
H6418 H 0.61893 0.4561 0.6935 0.0
H6419 H 0.63276 0.45584 0.6816 0.0
H6420 H 0.84228 0.24334 0.93778 0.0
H6421 H 0.84168 0.25924 0.93002 0.0
H6422 H 0.85285 0.27709 0.95807 0.0
H6423 H 0.85336 0.26115 0.96598 0.0
H6424 H 0.83087 0.27651 0.93471 0.0
H6425 H 0.87484 0.28673 0.9384 0.0
H6426 H 0.86837 0.27406 0.94014 0.0
H6427 H 0.8685 0.28459 0.94971 0.0
C6428 C 0.84442 0.25063 0.94238 0.0
C6429 C 0.84789 0.25095 0.95252 0.0
C6430 C 0.84412 0.25972 0.93791 0.0
C6431 C 0.84733 0.26933 0.94344 0.0
C6432 C 0.85049 0.26974 0.95363 0.0
H6433 H 0.84141 0.32668 0.9158 0.0
H6434 H 0.84012 0.31379 0.92782 0.0
C6435 C 0.8508 0.26062 0.95813 0.0
C6436 C 0.84775 0.27882 0.93833 0.0
H6437 H 0.86506 0.29771 0.93012 0.0
C6438 C 0.83832 0.28124 0.9338 0.0
C6439 C 0.8575 0.2849 0.93709 0.0
C6440 C 0.86791 0.28244 0.94152 0.0
C6441 C 0.83841 0.28944 0.92786 0.0
C6442 C 0.84819 0.2954 0.9265 0.0
C6443 C 0.85758 0.29315 0.93124 0.0
C6444 C 0.84899 0.30336 0.91944 0.0
C6445 C 0.82814 0.29136 0.92272 0.0
C6446 C 0.85453 0.30183 0.91086 0.0
C6447 C 0.85528 0.30913 0.90402 0.0
C6448 C 0.85056 0.31815 0.90566 0.0
C6449 C 0.84509 0.31977 0.91432 0.0
C6450 C 0.84432 0.31241 0.92117 0.0
H6451 H 0.82157 0.28503 0.92324 0.0
H6452 H 0.8258 0.29863 0.92625 0.0
H6453 H 0.82913 0.29225 0.91471 0.0
H6454 H 0.85819 0.2949 0.9094 0.0
H6455 H 0.85956 0.30772 0.89742 0.0
H6456 H 0.95616 0.62138 0.23906 0.0
H6457 H 0.93957 0.61529 0.22888 0.0
H6458 H 0.9572 0.61073 0.20284 0.0
H6459 H 0.97379 0.61633 0.21299 0.0
H6460 H 0.93108 0.62327 0.21279 0.0
H6461 H 0.93842 0.58332 0.20164 0.0
H6462 H 0.94632 0.59159 0.21156 0.0
H6463 H 0.94894 0.59276 0.19872 0.0
C6464 C 0.95652 0.61892 0.2312 0.0
C6465 C 0.96633 0.61932 0.22686 0.0
C6466 C 0.94702 0.61551 0.22538 0.0
C6467 C 0.94715 0.61239 0.21514 0.0
C6468 C 0.95691 0.61288 0.21077 0.0
H6469 H 0.90292 0.59704 0.16379 0.0
H6470 H 0.9183 0.60148 0.17595 0.0
C6471 C 0.96639 0.61624 0.21657 0.0
C6472 C 0.93709 0.60896 0.2089 0.0
H6473 H 0.92437 0.58933 0.19225 0.0
C6474 C 0.92954 0.6158 0.2084 0.0
C6475 C 0.93509 0.59919 0.2032 0.0
C6476 C 0.94257 0.59125 0.20387 0.0
C6477 C 0.92023 0.61328 0.20205 0.0
C6478 C 0.91842 0.60366 0.19612 0.0
C6479 C 0.92584 0.59672 0.19678 0.0
C6480 C 0.90907 0.60081 0.18888 0.0
C6481 C 0.91256 0.62106 0.20145 0.0
C6482 C 0.89882 0.59885 0.19216 0.0
C6483 C 0.89003 0.59626 0.18523 0.0
C6484 C 0.89139 0.59561 0.17493 0.0
C6485 C 0.90167 0.59749 0.17169 0.0
C6486 C 0.91044 0.60002 0.17861 0.0
H6487 H 0.91593 0.62874 0.20532 0.0
H6488 H 0.9103 0.62192 0.19353 0.0
H6489 H 0.90523 0.61829 0.205 0.0
H6490 H 0.89763 0.59933 0.20007 0.0
H6491 H 0.88219 0.59486 0.18795 0.0
H6492 H 0.64033 0.73405 0.46355 0.0
H6493 H 0.64342 0.71839 0.45335 0.0
H6494 H 0.63883 0.7332 0.42663 0.0
H6495 H 0.63556 0.74878 0.43669 0.0
H6496 H 0.62934 0.7065 0.43814 0.0
H6497 H 0.66722 0.72183 0.42327 0.0
H6498 H 0.66201 0.72815 0.43405 0.0
H6499 H 0.6568 0.72961 0.42168 0.0
C6500 C 0.63994 0.73397 0.4555 0.0
C6501 C 0.63776 0.74272 0.45095 0.0
C6502 C 0.64178 0.72504 0.44969 0.0
C6503 C 0.64154 0.72471 0.43925 0.0
C6504 C 0.63931 0.73338 0.43469 0.0
H6505 H 0.64312 0.68156 0.38774 0.0
H6506 H 0.64339 0.69653 0.40007 0.0
C6507 C 0.63745 0.74229 0.44047 0.0
C6508 C 0.64313 0.71516 0.43305 0.0
H6509 H 0.65837 0.70576 0.41521 0.0
C6510 C 0.63576 0.70628 0.43322 0.0
C6511 C 0.65151 0.71492 0.42663 0.0
C6512 C 0.6599 0.72411 0.42643 0.0
C6513 C 0.63627 0.69728 0.42683 0.0
C6514 C 0.64453 0.6971 0.42025 0.0
C6515 C 0.65205 0.70591 0.42026 0.0
C6516 C 0.64511 0.68807 0.41289 0.0
C6517 C 0.62771 0.6882 0.42687 0.0
C6518 C 0.64627 0.67838 0.416 0.0
C6519 C 0.64602 0.66977 0.40896 0.0
C6520 C 0.64466 0.67071 0.39868 0.0
C6521 C 0.64397 0.68053 0.3956 0.0
C6522 C 0.6442 0.68911 0.40263 0.0
H6523 H 0.6207 0.6904 0.43066 0.0
H6524 H 0.62505 0.68476 0.41914 0.0
H6525 H 0.63091 0.6822 0.43092 0.0
H6526 H 0.64719 0.67744 0.42387 0.0
H6527 H 0.64653 0.66232 0.41158 0.0
H6528 H 0.8222 0.60839 0.61875 0.0
H6529 H 0.83167 0.62584 0.61842 0.0
H6530 H 0.86064 0.61309 0.61331 0.0
H6531 H 0.85131 0.59576 0.61363 0.0
H6532 H 0.84844 0.63566 0.63078 0.0
H6533 H 0.86026 0.63256 0.59195 0.0
H6534 H 0.85023 0.62334 0.59625 0.0
H6535 H 0.8641 0.62225 0.59848 0.0
C6536 C 0.83058 0.60932 0.6175 0.0
C6537 C 0.83597 0.60067 0.61611 0.0
C6538 C 0.83596 0.61928 0.61727 0.0
C6539 C 0.84681 0.62075 0.6156 0.0
C6540 C 0.8522 0.61214 0.61427 0.0
H6541 H 0.90148 0.6648 0.6244 0.0
H6542 H 0.88752 0.65006 0.62051 0.0
C6543 C 0.84684 0.60222 0.61448 0.0
C6544 C 0.85277 0.63128 0.61593 0.0
H6545 H 0.87063 0.64592 0.60345 0.0
C6546 C 0.85311 0.63801 0.62473 0.0
C6547 C 0.85882 0.63435 0.60799 0.0
C6548 C 0.85825 0.62778 0.5981 0.0
C6549 C 0.85987 0.64745 0.62605 0.0
C6550 C 0.86637 0.65022 0.61834 0.0
C6551 C 0.86566 0.64373 0.60936 0.0
C6552 C 0.87471 0.6593 0.61987 0.0
C6553 C 0.86046 0.65415 0.63587 0.0
C6554 C 0.87211 0.66937 0.62057 0.0
C6555 C 0.88009 0.67783 0.62277 0.0
C6556 C 0.89075 0.6763 0.62436 0.0
C6557 C 0.89332 0.6662 0.62332 0.0
C6558 C 0.88537 0.65778 0.62106 0.0
H6559 H 0.85568 0.65038 0.64146 0.0
H6560 H 0.86883 0.65605 0.63898 0.0
H6561 H 0.85746 0.6615 0.63464 0.0
H6562 H 0.86391 0.67068 0.61961 0.0
H6563 H 0.87789 0.68553 0.62357 0.0
H6564 H 0.32441 0.95002 0.37047 0.0
H6565 H 0.32901 0.93342 0.37453 0.0
H6566 H 0.30018 0.92801 0.38957 0.0
H6567 H 0.29552 0.94475 0.3856 0.0
H6568 H 0.33185 0.92749 0.39401 0.0
H6569 H 0.30015 0.90118 0.37053 0.0
H6570 H 0.30356 0.91455 0.36854 0.0
H6571 H 0.29596 0.91121 0.37882 0.0
C6572 C 0.31904 0.94533 0.37467 0.0
C6573 C 0.30963 0.94874 0.37777 0.0
C6574 C 0.32166 0.93582 0.37694 0.0
C6575 C 0.31491 0.92947 0.3823 0.0
C6576 C 0.30542 0.93274 0.3853 0.0
H6577 H 0.34062 0.87775 0.4073 0.0
H6578 H 0.33052 0.89223 0.40586 0.0
C6579 C 0.30278 0.9423 0.38302 0.0
C6580 C 0.31814 0.91963 0.385 0.0
H6581 H 0.3125 0.89346 0.37992 0.0
C6582 C 0.32756 0.92003 0.39104 0.0
C6583 C 0.31254 0.90994 0.38104 0.0
C6584 C 0.30252 0.90911 0.37431 0.0
C6585 C 0.33173 0.91102 0.39299 0.0
C6586 C 0.32622 0.90133 0.38892 0.0
C6587 C 0.31664 0.9009 0.3831 0.0
C6588 C 0.33088 0.89168 0.3898 0.0
C6589 C 0.34227 0.91199 0.39898 0.0
C6590 C 0.33397 0.88628 0.38121 0.0
C6591 C 0.33963 0.87797 0.38199 0.0
C6592 C 0.34232 0.87489 0.3914 0.0
C6593 C 0.33867 0.87993 0.39995 0.0
C6594 C 0.33298 0.88826 0.39915 0.0
H6595 H 0.34641 0.92004 0.39994 0.0
H6596 H 0.34094 0.90957 0.40651 0.0
H6597 H 0.34755 0.90691 0.39532 0.0
H6598 H 0.33237 0.88876 0.37391 0.0
H6599 H 0.34217 0.87413 0.37525 0.0
H6600 H 0.24976 0.0319 0.63661 0.0
H6601 H 0.26831 0.03974 0.63703 0.0
H6602 H 0.26566 0.05569 0.66608 0.0
H6603 H 0.24711 0.04777 0.66579 0.0
H6604 H 0.27418 0.06205 0.63927 0.0
H6605 H 0.29412 0.04299 0.66868 0.0
H6606 H 0.28163 0.03734 0.6621 0.0
H6607 H 0.28202 0.04788 0.67169 0.0
C6608 C 0.25319 0.03689 0.64319 0.0
C6609 C 0.24697 0.03922 0.65117 0.0
C6610 C 0.26377 0.04139 0.64339 0.0
C6611 C 0.26836 0.04821 0.65162 0.0
C6612 C 0.26229 0.05033 0.65972 0.0
H6613 H 0.32883 0.08823 0.66304 0.0
H6614 H 0.31169 0.0778 0.66464 0.0
C6615 C 0.25168 0.04588 0.6595 0.0
C6616 C 0.27918 0.05379 0.65129 0.0
H6617 H 0.30444 0.05676 0.66216 0.0
C6618 C 0.28082 0.06087 0.64424 0.0
C6619 C 0.28775 0.0523 0.65788 0.0
C6620 C 0.28637 0.04467 0.66549 0.0
C6621 C 0.2908 0.06658 0.64362 0.0
C6622 C 0.29946 0.06496 0.65006 0.0
C6623 C 0.2978 0.05794 0.65719 0.0
C6624 C 0.31027 0.0705 0.64942 0.0
C6625 C 0.2919 0.07449 0.63623 0.0
C6626 C 0.31532 0.06957 0.64047 0.0
C6627 C 0.32502 0.07556 0.63952 0.0
C6628 C 0.32995 0.08246 0.64757 0.0
C6629 C 0.3252 0.08295 0.65672 0.0
C6630 C 0.31542 0.07702 0.65764 0.0
H6631 H 0.28412 0.07686 0.63401 0.0
H6632 H 0.2974 0.08148 0.63935 0.0
H6633 H 0.29514 0.07111 0.62938 0.0
H6634 H 0.31163 0.06438 0.63412 0.0
H6635 H 0.32861 0.0749 0.63244 0.0
H6636 H 0.22155 0.05744 0.89071 0.0
H6637 H 0.2123 0.07268 0.89096 0.0
H6638 H 0.18276 0.05312 0.88186 0.0
H6639 H 0.1919 0.03792 0.88154 0.0
H6640 H 0.20037 0.07969 0.87555 0.0
H6641 H 0.17551 0.07053 0.90668 0.0
H6642 H 0.18695 0.06424 0.90399 0.0
H6643 H 0.17447 0.06009 0.89689 0.0
C6644 C 0.21309 0.0564 0.88872 0.0
C6645 C 0.20745 0.04645 0.8862 0.0
C6646 C 0.20782 0.0651 0.88891 0.0
C6647 C 0.19681 0.064 0.88663 0.0
C6648 C 0.19121 0.05412 0.88392 0.0
H6649 H 0.14662 0.0993 0.87644 0.0
H6650 H 0.15861 0.08646 0.87853 0.0
C6651 C 0.19645 0.04544 0.88374 0.0
C6652 C 0.19114 0.07316 0.88682 0.0
H6653 H 0.17015 0.08323 0.89665 0.0
C6654 C 0.19386 0.08057 0.88026 0.0
C6655 C 0.18269 0.0743 0.89302 0.0
C6656 C 0.17979 0.06692 0.90062 0.0
C6657 C 0.188 0.08881 0.87938 0.0
C6658 C 0.17929 0.0897 0.88529 0.0
C6659 C 0.17681 0.0825 0.89209 0.0
C6660 C 0.1722 0.09763 0.88408 0.0
C6661 C 0.19086 0.09625 0.87182 0.0
C6662 C 0.17585 0.10817 0.88659 0.0
C6663 C 0.16899 0.11553 0.88542 0.0
C6664 C 0.15838 0.11242 0.88174 0.0
C6665 C 0.15476 0.10188 0.87929 0.0
C6666 C 0.16159 0.09455 0.88048 0.0
H6667 H 0.19663 0.09348 0.86668 0.0
H6668 H 0.18365 0.09751 0.86734 0.0
H6669 H 0.19447 0.1038 0.87579 0.0
H6670 H 0.18398 0.11068 0.8895 0.0
H6671 H 0.172 0.12361 0.88738 0.0
H6672 H 0.74984 0.51352 0.63002 0.0
H6673 H 0.73397 0.50253 0.63388 0.0
H6674 H 0.72186 0.52907 0.64786 0.0
H6675 H 0.73787 0.54018 0.6442 0.0
H6676 H 0.72681 0.50086 0.65388 0.0
H6677 H 0.69705 0.51383 0.62778 0.0
H6678 H 0.71112 0.51594 0.62617 0.0
H6679 H 0.70566 0.52363 0.63577 0.0
C6680 C 0.74385 0.51705 0.63397 0.0
C6681 C 0.74518 0.52774 0.63686 0.0
C6682 C 0.73475 0.51075 0.63611 0.0
C6683 C 0.72673 0.515 0.6411 0.0
C6684 C 0.72791 0.52567 0.64388 0.0
H6685 H 0.6663 0.48196 0.65644 0.0
H6686 H 0.68093 0.49567 0.65477 0.0
C6687 C 0.73705 0.532 0.64177 0.0
C6688 C 0.71736 0.50811 0.64366 0.0
H6689 H 0.69085 0.50084 0.63766 0.0
C6690 C 0.71893 0.50089 0.65039 0.0
C6691 C 0.70709 0.50825 0.63915 0.0
C6692 C 0.70505 0.51577 0.63176 0.0
C6693 C 0.71053 0.49366 0.65261 0.0
C6694 C 0.70033 0.4935 0.6478 0.0
C6695 C 0.69868 0.50095 0.64132 0.0
C6696 C 0.69147 0.48527 0.64893 0.0
C6697 C 0.71266 0.48625 0.66011 0.0
C6698 C 0.6925 0.47492 0.64608 0.0
C6699 C 0.6842 0.46712 0.64704 0.0
C6700 C 0.67467 0.4695 0.65081 0.0
C6701 C 0.67357 0.47988 0.65356 0.0
C6702 C 0.68191 0.48771 0.6526 0.0
H6703 H 0.71969 0.48937 0.66529 0.0
H6704 H 0.70571 0.48452 0.66456 0.0
H6705 H 0.7143 0.47892 0.65608 0.0
H6706 H 0.6997 0.47288 0.64301 0.0
H6707 H 0.68521 0.45919 0.64479 0.0
H6708 H 0.67034 0.44899 0.13449 0.0
H6709 H 0.66127 0.4313 0.13353 0.0
H6710 H 0.67916 0.42664 0.16044 0.0
H6711 H 0.68805 0.44442 0.16162 0.0
H6712 H 0.66947 0.41212 0.13267 0.0
H6713 H 0.64791 0.4196 0.16673 0.0
H6714 H 0.65447 0.42985 0.16042 0.0
H6715 H 0.66208 0.42295 0.16841 0.0
C6716 C 0.67231 0.44422 0.14023 0.0
C6717 C 0.67984 0.44815 0.14819 0.0
C6718 C 0.66718 0.43409 0.13963 0.0
C6719 C 0.66946 0.42772 0.14698 0.0
C6720 C 0.6772 0.43149 0.15476 0.0
H6721 H 0.64806 0.36166 0.14582 0.0
H6722 H 0.65886 0.37845 0.14537 0.0
C6723 C 0.68233 0.44162 0.15537 0.0
C6724 C 0.66349 0.41723 0.14665 0.0
H6725 H 0.6459 0.40241 0.15921 0.0
C6726 C 0.66433 0.40997 0.13847 0.0
C6727 C 0.6567 0.41451 0.15417 0.0
C6728 C 0.65513 0.42214 0.1629 0.0
C6729 C 0.65858 0.40001 0.13765 0.0
C6730 C 0.65192 0.39725 0.14526 0.0
C6731 C 0.65107 0.40453 0.15341 0.0
C6732 C 0.64546 0.38697 0.14482 0.0
C6733 C 0.65947 0.39262 0.12855 0.0
C6734 C 0.63437 0.38622 0.14469 0.0
C6735 C 0.62821 0.37668 0.14496 0.0
C6736 C 0.63302 0.36769 0.14543 0.0
C6737 C 0.64413 0.36843 0.14534 0.0
C6738 C 0.6503 0.378 0.14509 0.0
H6739 H 0.66294 0.39664 0.12239 0.0
H6740 H 0.6647 0.38691 0.13056 0.0
H6741 H 0.65158 0.38834 0.12579 0.0
H6742 H 0.63049 0.39305 0.14447 0.0
H6743 H 0.61967 0.37635 0.14487 0.0
H6744 H 0.27072 0.97484 0.85815 0.0
H6745 H 0.28751 0.97024 0.85225 0.0
H6746 H 0.29208 0.95423 0.87822 0.0
H6747 H 0.27555 0.95904 0.8843 0.0
H6748 H 0.31044 0.96652 0.87361 0.0
H6749 H 0.29117 0.94094 0.84039 0.0
H6750 H 0.28833 0.95401 0.84156 0.0
H6751 H 0.28375 0.94553 0.8505 0.0
C6752 C 0.27537 0.97045 0.86266 0.0
C6753 C 0.27174 0.96722 0.87165 0.0
C6754 C 0.2849 0.96774 0.85923 0.0
C6755 C 0.29095 0.96176 0.86472 0.0
C6756 C 0.2875 0.9588 0.87383 0.0
H6757 H 0.3346 0.9199 0.85434 0.0
H6758 H 0.31945 0.92942 0.85573 0.0
C6759 C 0.27801 0.96149 0.87726 0.0
C6760 C 0.30076 0.95829 0.861 0.0
H6761 H 0.30964 0.94175 0.84326 0.0
C6762 C 0.31032 0.96122 0.8669 0.0
C6763 C 0.30053 0.95133 0.85227 0.0
C6764 C 0.2904 0.94768 0.84582 0.0
C6765 C 0.31959 0.95708 0.86452 0.0
C6766 C 0.31931 0.94994 0.8559 0.0
C6767 C 0.30984 0.9473 0.8498 0.0
C6768 C 0.32835 0.94419 0.85383 0.0
C6769 C 0.32943 0.95993 0.87155 0.0
C6770 C 0.33832 0.94927 0.85196 0.0
C6771 C 0.34704 0.94384 0.85121 0.0
C6772 C 0.3459 0.93324 0.85233 0.0
C6773 C 0.33576 0.92809 0.85362 0.0
C6774 C 0.32709 0.93351 0.85435 0.0
H6775 H 0.32777 0.96412 0.87872 0.0
H6776 H 0.33294 0.95293 0.87318 0.0
H6777 H 0.33542 0.96499 0.86799 0.0
H6778 H 0.33942 0.95749 0.85136 0.0
H6779 H 0.35476 0.948 0.85022 0.0
H6780 H 0.23186 0.02067 0.36386 0.0
H6781 H 0.21564 0.02829 0.36086 0.0
H6782 H 0.20369 1.00268 0.33887 0.0
H6783 H 0.21994 0.99497 0.34188 0.0
H6784 H 0.20742 0.03447 0.3435 0.0
H6785 H 0.17925 1.00382 0.35701 0.0
H6786 H 0.19344 1.00471 0.35938 0.0
H6787 H 0.18723 0.99941 0.34735 0.0
C6788 C 0.2258 0.01668 0.35835 0.0
C6789 C 0.22718 1.00722 0.3531 0.0
C6790 C 0.21652 0.02102 0.35667 0.0
C6791 C 0.20841 0.016 0.34972 0.0
C6792 C 0.20976 1.00659 0.34441 0.0
H6793 H 0.15633 0.0486 0.32966 0.0
H6794 H 0.17134 0.03868 0.32971 0.0
C6795 C 0.21905 1.0022 0.34613 0.0
C6796 C 0.19863 0.02078 0.34801 0.0
H6797 H 0.17187 0.01741 0.35023 0.0
C6798 C 0.19963 0.03072 0.34492 0.0
C6799 C 0.1885 0.01591 0.34995 0.0
C6800 C 0.187 1.00541 0.35369 0.0
C6801 C 0.19081 0.03599 0.34386 0.0
C6802 C 0.18066 0.0311 0.34575 0.0
C6803 C 0.17964 0.0211 0.3487 0.0
C6804 C 0.17116 0.03651 0.34541 0.0
C6805 C 0.19249 0.0469 0.3411 0.0
C6806 C 0.16585 0.03826 0.35411 0.0
C6807 C 0.15725 0.04383 0.35408 0.0
C6808 C 0.15377 0.04773 0.34533 0.0
C6809 C 0.15888 0.04574 0.33653 0.0
C6810 C 0.16749 0.04012 0.33656 0.0
H6811 H 0.20099 0.05031 0.34214 0.0
H6812 H 0.18982 0.04691 0.33313 0.0
H6813 H 0.18781 0.0519 0.34566 0.0
H6814 H 0.16853 0.03552 0.36101 0.0
H6815 H 0.15343 0.04525 0.36095 0.0
H6816 H 0.37476 0.16262 0.47778 0.0
H6817 H 0.38172 0.15828 0.46166 0.0
H6818 H 0.37844 0.18862 0.4535 0.0
H6819 H 0.37118 0.193 0.4696 0.0
H6820 H 0.37009 0.15993 0.44199 0.0
H6821 H 0.41016 0.18329 0.44828 0.0
H6822 H 0.40269 0.17931 0.45856 0.0
H6823 H 0.39868 0.18922 0.45158 0.0
C6824 C 0.37541 0.16836 0.47255 0.0
C6825 C 0.37232 0.17814 0.47496 0.0
C6826 C 0.37948 0.16589 0.46337 0.0
C6827 C 0.38065 0.17315 0.45645 0.0
C6828 C 0.37771 0.18296 0.45882 0.0
H6829 H 0.40525 0.16052 0.39719 0.0
H6830 H 0.39911 0.16998 0.41194 0.0
C6831 C 0.37358 0.18545 0.46802 0.0
C6832 C 0.38452 0.17015 0.4466 0.0
H6833 H 0.40654 0.17228 0.43326 0.0
C6834 C 0.378 0.16272 0.44002 0.0
C6835 C 0.39481 0.17389 0.44405 0.0
C6836 C 0.40207 0.18185 0.45096 0.0
C6837 C 0.38164 0.15865 0.43106 0.0
C6838 C 0.39215 0.16194 0.42875 0.0
C6839 C 0.39851 0.16974 0.4351 0.0
C6840 C 0.39684 0.15669 0.42022 0.0
C6841 C 0.37426 0.1507 0.42422 0.0
C6842 C 0.39796 0.14623 0.42019 0.0
C6843 C 0.40144 0.14086 0.41186 0.0
C6844 C 0.40393 0.14586 0.40339 0.0
C6845 C 0.40338 0.15649 0.40362 0.0
C6846 C 0.39985 0.16188 0.41201 0.0
H6847 H 0.36581 0.15121 0.42553 0.0
H6848 H 0.37548 0.15162 0.41626 0.0
H6849 H 0.3759 0.14288 0.42567 0.0
H6850 H 0.3959 0.14215 0.42655 0.0
H6851 H 0.402 0.13273 0.41196 0.0
H6852 H 0.52923 0.61932 0.20815 0.0
H6853 H 0.5345 0.61837 0.19098 0.0
H6854 H 0.54277 0.65143 0.19388 0.0
H6855 H 0.53754 0.65245 0.21111 0.0
H6856 H 0.52807 0.62737 0.17402 0.0
H6857 H 0.57041 0.64103 0.18641 0.0
H6858 H 0.56071 0.63709 0.19499 0.0
H6859 H 0.56121 0.64953 0.19049 0.0
C6860 C 0.53201 0.62641 0.20509 0.0
C6861 C 0.53306 0.63595 0.21102 0.0
C6862 C 0.53505 0.62585 0.19529 0.0
C6863 C 0.5392 0.63481 0.19122 0.0
C6864 C 0.5398 0.6444 0.19695 0.0
H6865 H 0.57131 0.63928 0.1358 0.0
H6866 H 0.56175 0.64388 0.1505 0.0
C6867 C 0.53681 0.64497 0.20678 0.0
C6868 C 0.54332 0.634 0.18116 0.0
H6869 H 0.56616 0.63744 0.16912 0.0
C6870 C 0.53638 0.62963 0.17293 0.0
C6871 C 0.55417 0.63697 0.17975 0.0
C6872 C 0.5621 0.64134 0.18837 0.0
C6873 C 0.54003 0.62804 0.16334 0.0
C6874 C 0.55092 0.63076 0.162 0.0
C6875 C 0.5578 0.63541 0.17017 0.0
C6876 C 0.55557 0.62813 0.15241 0.0
C6877 C 0.5322 0.62342 0.15474 0.0
C6878 C 0.55519 0.61777 0.14858 0.0
C6879 C 0.56061 0.61513 0.1402 0.0
C6880 C 0.56659 0.62281 0.13553 0.0
C6881 C 0.56669 0.63321 0.13918 0.0
C6882 C 0.56128 0.63584 0.1476 0.0
H6883 H 0.52398 0.62473 0.15628 0.0
H6884 H 0.53427 0.6267 0.14772 0.0
H6885 H 0.53233 0.61497 0.1536 0.0
H6886 H 0.55101 0.61168 0.15228 0.0
H6887 H 0.56033 0.60706 0.13751 0.0
H6888 H 0.06953 0.80908 0.00697 0.0
H6889 H 0.06731 0.81821 0.99217 0.0
H6890 H 0.09559 0.80781 0.9811 0.0
H6891 H 0.09781 0.79864 0.99578 0.0
H6892 H 0.08064 0.83384 0.98637 0.0
H6893 H 0.07536 0.80124 0.95653 0.0
H6894 H 0.07434 0.79939 0.96954 0.0
H6895 H 0.08715 0.80127 0.96448 0.0
C6896 C 0.07522 0.80867 1.00133 0.0
C6897 C 0.08381 0.80308 1.00252 0.0
C6898 C 0.07392 0.81387 0.99287 0.0
C6899 C 0.08117 0.81354 0.98543 0.0
C6900 C 0.08971 0.80792 0.98658 0.0
H6901 H 0.10225 0.84694 0.93802 0.0
H6902 H 0.09908 0.83606 0.95156 0.0
C6903 C 0.09098 0.80269 0.995 0.0
C6904 C 0.0803 0.81966 0.97681 0.0
H6905 H 0.08069 0.81809 0.9514 0.0
C6906 C 0.08045 0.83037 0.97872 0.0
C6907 C 0.08 0.81513 0.96681 0.0
C6908 C 0.07909 0.80361 0.96421 0.0
C6909 C 0.08086 0.83672 0.97093 0.0
C6910 C 0.08112 0.83223 0.96101 0.0
C6911 C 0.08056 0.8215 0.95904 0.0
C6912 C 0.08275 0.83862 0.95266 0.0
C6913 C 0.08151 0.84824 0.97335 0.0
C6914 C 0.07457 0.84358 0.94878 0.0
C6915 C 0.07634 0.84976 0.94099 0.0
C6916 C 0.08635 0.85107 0.93704 0.0
C6917 C 0.09448 0.84605 0.94093 0.0
C6918 C 0.09268 0.83983 0.94864 0.0
H6919 H 0.08207 0.85059 0.98153 0.0
H6920 H 0.08851 0.85222 0.97009 0.0
H6921 H 0.07433 0.85088 0.96996 0.0
H6922 H 0.06684 0.84269 0.95179 0.0
H6923 H 0.06994 0.85356 0.93815 0.0
H6924 H 0.93537 0.378 0.72288 0.0
H6925 H 0.93097 0.38181 0.70585 0.0
H6926 H 0.94701 0.41285 0.7131 0.0
H6927 H 0.95147 0.40909 0.7301 0.0
H6928 H 0.91909 0.3963 0.69999 0.0
H6929 H 0.95967 0.40397 0.68725 0.0
H6930 H 0.95694 0.39781 0.69838 0.0
H6931 H 0.9579 0.41161 0.69865 0.0
C6932 C 0.93797 0.38563 0.72083 0.0
C6933 C 0.9438 0.39324 0.72782 0.0
C6934 C 0.9355 0.38778 0.7111 0.0
C6935 C 0.93882 0.39756 0.70815 0.0
C6936 C 0.94462 0.40517 0.71512 0.0
H6937 H 0.92613 0.42985 0.65708 0.0
H6938 H 0.93209 0.42444 0.67311 0.0
C6939 C 0.94714 0.40302 0.72484 0.0
C6940 C 0.93574 0.39996 0.69797 0.0
H6941 H 0.94569 0.40891 0.67701 0.0
C6942 C 0.9249 0.39896 0.69492 0.0
C6943 C 0.94335 0.40344 0.69138 0.0
C6944 C 0.95512 0.40418 0.69403 0.0
C6945 C 0.92145 0.40161 0.68557 0.0
C6946 C 0.92905 0.40524 0.67906 0.0
C6947 C 0.93989 0.40614 0.68204 0.0
C6948 C 0.92586 0.40835 0.6692 0.0
C6949 C 0.90969 0.40078 0.68283 0.0
C6950 C 0.92057 0.40105 0.66166 0.0
C6951 C 0.91719 0.40411 0.6525 0.0
C6952 C 0.91908 0.41453 0.65076 0.0
C6953 C 0.92458 0.42178 0.65825 0.0
C6954 C 0.92798 0.4187 0.66739 0.0
H6955 H 0.90494 0.39989 0.68942 0.0
H6956 H 0.9078 0.4077 0.67937 0.0
H6957 H 0.90722 0.39394 0.67729 0.0
H6958 H 0.91899 0.39299 0.66288 0.0
H6959 H 0.91299 0.39834 0.64687 0.0
H6960 H 0.37496 0.83075 0.03099 0.0
H6961 H 0.38085 0.83704 0.04843 0.0
H6962 H 0.39182 0.86699 0.03961 0.0
H6963 H 0.38616 0.86079 0.02223 0.0
H6964 H 0.40205 0.84695 0.05708 0.0
H6965 H 0.37057 0.87214 0.06142 0.0
H6966 H 0.36977 0.86166 0.05155 0.0
H6967 H 0.37786 0.87373 0.05054 0.0
C6968 C 0.37871 0.83865 0.03276 0.0
C6969 C 0.37997 0.84531 0.02523 0.0
C6970 C 0.38204 0.84222 0.04272 0.0
C6971 C 0.38661 0.85251 0.0453 0.0
C6972 C 0.38812 0.85908 0.03778 0.0
H6973 H 0.41109 0.89598 0.09449 0.0
H6974 H 0.40579 0.88574 0.07845 0.0
C6975 C 0.38483 0.85552 0.02786 0.0
C6976 C 0.38971 0.85655 0.05583 0.0
H6977 H 0.38496 0.8751 0.07389 0.0
C6978 C 0.39825 0.853 0.06084 0.0
C6979 C 0.38467 0.8644 0.06069 0.0
C6980 C 0.37514 0.86816 0.05583 0.0
C6981 C 0.40225 0.85751 0.07044 0.0
C6982 C 0.39747 0.86566 0.07512 0.0
C6983 C 0.38866 0.8689 0.07024 0.0
C6984 C 0.40176 0.8714 0.08481 0.0
C6985 C 0.41181 0.85386 0.07533 0.0
C6986 C 0.40143 0.86667 0.0937 0.0
C6987 C 0.40446 0.87253 0.10291 0.0
C6988 C 0.40776 0.88321 0.10334 0.0
C6989 C 0.40845 0.8878 0.09439 0.0
C6990 C 0.40545 0.88196 0.08523 0.0
H6991 H 0.41567 0.84876 0.07004 0.0
H6992 H 0.41774 0.86053 0.07845 0.0
H6993 H 0.40931 0.84947 0.08161 0.0
H6994 H 0.39845 0.85856 0.09354 0.0
H6995 H 0.40377 0.86882 0.1097 0.0
H6996 H 0.98029 0.62642 0.81076 0.0
H6997 H 0.96908 0.62502 0.82478 0.0
H6998 H 0.96549 0.6572 0.82522 0.0
H6999 H 0.97676 0.65869 0.81118 0.0
H7000 H 0.97162 0.63579 0.84401 0.0
H7001 H 0.93475 0.64276 0.82312 0.0
H7002 H 0.94635 0.63982 0.81694 0.0
H7003 H 0.946 0.65253 0.82305 0.0
C7004 C 0.97722 0.63324 0.8139 0.0
C7005 C 0.9794 0.64266 0.80983 0.0
C7006 C 0.97078 0.63241 0.82188 0.0
C7007 C 0.96634 0.64097 0.82595 0.0
C7008 C 0.96866 0.65045 0.82206 0.0
H7009 H 0.92094 0.64335 0.87235 0.0
H7010 H 0.93395 0.64845 0.86041 0.0
C7011 C 0.9751 0.65128 0.81404 0.0
C7012 C 0.95925 0.63986 0.83421 0.0
H7013 H 0.9336 0.64028 0.84011 0.0
C7014 C 0.96332 0.63682 0.84318 0.0
C7015 C 0.94844 0.64125 0.83311 0.0
C7016 C 0.94356 0.64419 0.82352 0.0
C7017 C 0.95682 0.63501 0.85105 0.0
C7018 C 0.94595 0.63611 0.84984 0.0
C7019 C 0.94195 0.63945 0.841 0.0
C7020 C 0.93845 0.6332 0.8574 0.0
C7021 C 0.96164 0.6319 0.86058 0.0
C7022 C 0.93662 0.62294 0.85958 0.0
C7023 C 0.9292 0.62002 0.86634 0.0
C7024 C 0.92346 0.62729 0.87103 0.0
C7025 C 0.9253 0.63759 0.86888 0.0
C7026 C 0.93271 0.64051 0.86207 0.0
H7027 H 0.97038 0.63424 0.86143 0.0
H7028 H 0.95809 0.63536 0.86721 0.0
H7029 H 0.9601 0.62338 0.86043 0.0
H7030 H 0.9408 0.61714 0.8559 0.0
H7031 H 0.92787 0.61202 0.86783 0.0
H7032 H 0.0753 0.16127 0.50516 0.0
H7033 H 0.07261 0.15542 0.5216 0.0
H7034 H 0.1023 0.17333 0.5333 0.0
H7035 H 0.10513 0.17913 0.51687 0.0
H7036 H 0.08627 0.14414 0.53132 0.0
H7037 H 0.08193 0.18024 0.55476 0.0
H7038 H 0.08038 0.17902 0.54128 0.0
H7039 H 0.09341 0.18118 0.54761 0.0
C7040 C 0.08123 0.16403 0.51125 0.0
C7041 C 0.09046 0.17064 0.50968 0.0
C7042 C 0.07965 0.16072 0.52065 0.0
C7043 C 0.0872 0.16401 0.52869 0.0
C7044 C 0.09626 0.17086 0.52725 0.0
H7045 H 0.10273 0.13463 0.58052 0.0
H7046 H 0.10194 0.14254 0.56485 0.0
C7047 C 0.09786 0.17417 0.51784 0.0
C7048 C 0.08608 0.15956 0.53832 0.0
H7049 H 0.08505 0.16579 0.56342 0.0
C7050 C 0.0859 0.14887 0.53833 0.0
C7051 C 0.08552 0.16572 0.54743 0.0
C7052 C 0.08521 0.17717 0.5478 0.0
C7053 C 0.08551 0.14422 0.54724 0.0
C7054 C 0.08541 0.15043 0.55639 0.0
C7055 C 0.08523 0.16107 0.55638 0.0
C7056 C 0.08591 0.14601 0.56606 0.0
C7057 C 0.0853 0.13269 0.54682 0.0
C7058 C 0.07721 0.14552 0.572 0.0
C7059 C 0.07763 0.14097 0.58095 0.0
C7060 C 0.0868 0.13694 0.58411 0.0
C7061 C 0.09556 0.13765 0.57823 0.0
C7062 C 0.09511 0.14213 0.56929 0.0
H7063 H 0.08298 0.12878 0.53917 0.0
H7064 H 0.09333 0.13096 0.5491 0.0
H7065 H 0.07969 0.1294 0.55205 0.0
H7066 H 0.07005 0.14851 0.56963 0.0
H7067 H 0.07077 0.14056 0.58535 0.0
H7068 H 0.52206 0.35688 0.30474 0.0
H7069 H 0.529 0.35495 0.32164 0.0
H7070 H 0.53258 0.38793 0.32903 0.0
H7071 H 0.52535 0.38991 0.31224 0.0
H7072 H 0.54908 0.36328 0.32961 0.0
H7073 H 0.51879 0.3774 0.3533 0.0
H7074 H 0.51624 0.37372 0.34003 0.0
H7075 H 0.52336 0.38618 0.3446 0.0
C7076 C 0.52406 0.36371 0.31004 0.0
C7077 C 0.52314 0.37355 0.30714 0.0
C7078 C 0.52809 0.36259 0.31967 0.0
C7079 C 0.53119 0.37128 0.32663 0.0
C7080 C 0.53004 0.3811 0.32385 0.0
H7081 H 0.56819 0.38796 0.382 0.0
H7082 H 0.55628 0.38663 0.36692 0.0
C7083 C 0.52603 0.38222 0.31421 0.0
C7084 C 0.53651 0.37019 0.33647 0.0
H7085 H 0.53569 0.37631 0.36159 0.0
C7086 C 0.54608 0.36598 0.33662 0.0
C7087 C 0.53259 0.37375 0.34559 0.0
C7088 C 0.52213 0.37793 0.34591 0.0
C7089 C 0.55207 0.36563 0.34561 0.0
C7090 C 0.54828 0.36943 0.35472 0.0
C7091 C 0.53857 0.37339 0.3546 0.0
C7092 C 0.55467 0.36999 0.36436 0.0
C7093 C 0.56264 0.36165 0.34524 0.0
C7094 C 0.55747 0.36105 0.36809 0.0
C7095 C 0.56436 0.36179 0.37667 0.0
C7096 C 0.56854 0.37149 0.38169 0.0
C7097 C 0.56527 0.38039 0.3782 0.0
C7098 C 0.55841 0.37964 0.36963 0.0
H7099 H 0.56541 0.36112 0.33757 0.0
H7100 H 0.56879 0.36671 0.35029 0.0
H7101 H 0.56188 0.35382 0.34773 0.0
H7102 H 0.55451 0.35351 0.36423 0.0
H7103 H 0.56674 0.35479 0.37915 0.0
H7104 H 0.46774 0.41772 0.22346 0.0
H7105 H 0.45547 0.42478 0.21229 0.0
H7106 H 0.42954 0.41486 0.2298 0.0
H7107 H 0.44178 0.40763 0.241 0.0
H7108 H 0.43762 0.41241 0.20139 0.0
H7109 H 0.42585 0.44521 0.22558 0.0
H7110 H 0.43773 0.43959 0.22842 0.0
H7111 H 0.42498 0.43296 0.23058 0.0
C7112 C 0.45943 0.41705 0.22497 0.0
C7113 C 0.45572 0.41203 0.23308 0.0
C7114 C 0.45245 0.42116 0.21862 0.0
C7115 C 0.44163 0.42042 0.22027 0.0
C7116 C 0.4379 0.41567 0.2285 0.0
H7117 H 0.38929 0.43457 0.18115 0.0
H7118 H 0.39972 0.43055 0.19583 0.0
C7119 C 0.4449 0.41154 0.23488 0.0
C7120 C 0.4342 0.42385 0.21284 0.0
H7121 H 0.41756 0.44174 0.20921 0.0
C7122 C 0.43323 0.41882 0.20311 0.0
C7123 C 0.42839 0.43213 0.21515 0.0
C7124 C 0.42929 0.43787 0.22548 0.0
C7125 C 0.42671 0.4219 0.19556 0.0
C7126 C 0.42117 0.4304 0.19776 0.0
C7127 C 0.42189 0.43528 0.20756 0.0
C7128 C 0.41492 0.43441 0.18978 0.0
C7129 C 0.42579 0.416 0.18529 0.0
C7130 C 0.42005 0.43835 0.18177 0.0
C7131 C 0.41414 0.4406 0.17344 0.0
C7132 C 0.403 0.43905 0.17299 0.0
C7133 C 0.39787 0.43586 0.18134 0.0
C7134 C 0.40381 0.43353 0.18969 0.0
H7135 H 0.42821 0.4082 0.1855 0.0
H7136 H 0.41754 0.41514 0.18187 0.0
H7137 H 0.43108 0.42028 0.1804 0.0
H7138 H 0.42862 0.43925 0.18179 0.0
H7139 H 0.41828 0.44316 0.16714 0.0
H7140 H 0.37342 0.7676 0.94068 0.0
H7141 H 0.37583 0.75208 0.93005 0.0
H7142 H 0.36479 0.7333 0.95279 0.0
H7143 H 0.3621 0.74884 0.96344 0.0
H7144 H 0.38909 0.73717 0.93495 0.0
H7145 H 0.34674 0.72008 0.92697 0.0
H7146 H 0.35067 0.73345 0.9317 0.0
H7147 H 0.35121 0.72358 0.9399 0.0
C7148 C 0.37134 0.76017 0.94338 0.0
C7149 C 0.36748 0.75945 0.95288 0.0
C7150 C 0.37279 0.75131 0.93731 0.0
C7151 C 0.37038 0.74155 0.94059 0.0
C7152 C 0.36655 0.74076 0.95007 0.0
H7153 H 0.3751 0.681 0.9092 0.0
H7154 H 0.37221 0.69491 0.92179 0.0
C7155 C 0.36511 0.74965 0.95618 0.0
C7156 C 0.37223 0.73228 0.93414 0.0
H7157 H 0.35959 0.71066 0.92007 0.0
C7158 C 0.38265 0.73135 0.93172 0.0
C7159 C 0.36381 0.72469 0.93 0.0
C7160 C 0.35245 0.72547 0.93219 0.0
C7161 C 0.38488 0.72305 0.9252 0.0
C7162 C 0.37643 0.71562 0.92081 0.0
C7163 C 0.36604 0.7164 0.92343 0.0
C7164 C 0.37819 0.7072 0.91322 0.0
C7165 C 0.39627 0.72231 0.92309 0.0
C7166 C 0.38237 0.7095 0.90418 0.0
C7167 C 0.38405 0.70159 0.89699 0.0
C7168 C 0.38149 0.69124 0.89869 0.0
C7169 C 0.37717 0.68892 0.90769 0.0
C7170 C 0.37551 0.69685 0.91489 0.0
H7171 H 0.40188 0.72673 0.92909 0.0
H7172 H 0.3978 0.71416 0.92231 0.0
H7173 H 0.39796 0.72558 0.91599 0.0
H7174 H 0.38428 0.71744 0.90265 0.0
H7175 H 0.38732 0.70357 0.89009 0.0
H7176 H 0.0507 0.61821 0.74986 0.0
H7177 H 0.06411 0.60731 0.74486 0.0
H7178 H 0.05937 0.61411 0.71442 0.0
H7179 H 0.04574 0.6246 0.71924 0.0
H7180 H 0.05982 0.59342 0.71597 0.0
H7181 H 0.09428 0.61748 0.73786 0.0
H7182 H 0.08319 0.61311 0.74473 0.0
H7183 H 0.08171 0.62212 0.73576 0.0
C7184 C 0.05248 0.61732 0.74209 0.0
C7185 C 0.04721 0.62237 0.73496 0.0
C7186 C 0.06021 0.61117 0.73927 0.0
C7187 C 0.06284 0.61001 0.72929 0.0
C7188 C 0.05751 0.61494 0.72218 0.0
H7189 H 0.11358 0.59789 0.69599 0.0
H7190 H 0.10138 0.60423 0.70763 0.0
C7191 C 0.04978 0.62103 0.72497 0.0
C7192 C 0.07107 0.60366 0.72607 0.0
H7193 H 0.09784 0.60318 0.72738 0.0
C7194 C 0.06813 0.59544 0.71856 0.0
C7195 C 0.08188 0.60635 0.72948 0.0
C7196 C 0.08553 0.61528 0.73735 0.0
C7197 C 0.07575 0.59018 0.71396 0.0
C7198 C 0.08661 0.59307 0.71714 0.0
C7199 C 0.08951 0.60094 0.72502 0.0
C7200 C 0.09509 0.58912 0.7114 0.0
C7201 C 0.07214 0.58206 0.70529 0.0
C7202 C 0.09594 0.57854 0.70996 0.0
C7203 C 0.10284 0.57487 0.70317 0.0
C7204 C 0.10902 0.58175 0.69778 0.0
C7205 C 0.10874 0.59239 0.69986 0.0
C7206 C 0.10183 0.59603 0.70658 0.0
H7207 H 0.06372 0.58208 0.70267 0.0
H7208 H 0.07713 0.58325 0.69891 0.0
H7209 H 0.07293 0.57433 0.70763 0.0
H7210 H 0.09097 0.57309 0.71378 0.0
H7211 H 0.10292 0.56663 0.70175 0.0
H7212 H 0.09714 0.25675 0.45012 0.0
H7213 H 0.09871 0.27137 0.44016 0.0
H7214 H 0.1234 0.25887 0.42438 0.0
H7215 H 0.12206 0.24432 0.43442 0.0
H7216 H 0.11725 0.28616 0.43718 0.0
H7217 H 0.09998 0.26212 0.40234 0.0
H7218 H 0.09863 0.25782 0.41456 0.0
H7219 H 0.11095 0.25761 0.40877 0.0
C7220 C 0.10303 0.25718 0.44465 0.0
C7221 C 0.10941 0.2493 0.44303 0.0
C7222 C 0.10387 0.26552 0.43893 0.0
C7223 C 0.11107 0.26612 0.43146 0.0
C7224 C 0.11767 0.25845 0.43 0.0
H7225 H 0.12798 0.31811 0.3969 0.0
H7226 H 0.12865 0.30437 0.40788 0.0
C7227 C 0.11686 0.25013 0.43573 0.0
C7228 C 0.11145 0.27461 0.42499 0.0
H7229 H 0.10605 0.27963 0.401 0.0
C7230 C 0.11484 0.28476 0.42927 0.0
C7231 C 0.1082 0.27272 0.41469 0.0
C7232 C 0.10415 0.262 0.40979 0.0
C7233 C 0.1151 0.2931 0.42348 0.0
C7234 C 0.11195 0.2912 0.41317 0.0
C7235 C 0.10854 0.28105 0.4089 0.0
C7236 C 0.11166 0.29966 0.40672 0.0
C7237 C 0.11851 0.30389 0.42848 0.0
C7238 C 0.10191 0.30146 0.40234 0.0
C7239 C 0.10151 0.30927 0.39609 0.0
C7240 C 0.11085 0.31537 0.39402 0.0
C7241 C 0.12064 0.31355 0.39838 0.0
C7242 C 0.12103 0.30574 0.40468 0.0
H7243 H 0.11871 0.30422 0.43675 0.0
H7244 H 0.1266 0.3067 0.4264 0.0
H7245 H 0.11308 0.30922 0.42595 0.0
H7246 H 0.0946 0.29683 0.40379 0.0
H7247 H 0.09388 0.3105 0.3928 0.0
H7248 H 0.44718 0.63079 0.27476 0.0
H7249 H 0.43097 0.62699 0.28337 0.0
H7250 H 0.43904 0.59682 0.28768 0.0
H7251 H 0.45535 0.60065 0.27922 0.0
H7252 H 0.414 0.61213 0.27911 0.0
H7253 H 0.43394 0.60762 0.31579 0.0
H7254 H 0.44106 0.61293 0.30589 0.0
H7255 H 0.4376 0.5992 0.30566 0.0
C7256 C 0.44547 0.62333 0.27751 0.0
C7257 C 0.45257 0.61604 0.27637 0.0
C7258 C 0.43623 0.62118 0.28245 0.0
C7259 C 0.43388 0.61169 0.28634 0.0
C7260 C 0.44082 0.6043 0.28499 0.0
H7261 H 0.37975 0.58643 0.31755 0.0
H7262 H 0.39544 0.58839 0.30782 0.0
C7263 C 0.45012 0.60648 0.28013 0.0
C7264 C 0.42412 0.60955 0.29171 0.0
H7265 H 0.41521 0.60339 0.31407 0.0
C7266 C 0.41427 0.61023 0.28676 0.0
C7267 C 0.42448 0.60708 0.3017 0.0
C7268 C 0.43484 0.60676 0.30762 0.0
C7269 C 0.40479 0.60849 0.29151 0.0
C7270 C 0.40517 0.60603 0.30147 0.0
C7271 C 0.41497 0.60521 0.3064 0.0
C7272 C 0.39552 0.60475 0.30706 0.0
C7273 C 0.3944 0.60925 0.28586 0.0
C7274 C 0.39045 0.61331 0.30989 0.0
C7275 C 0.38157 0.61223 0.31549 0.0
C7276 C 0.37757 0.60256 0.31831 0.0
C7277 C 0.38261 0.59396 0.31543 0.0
C7278 C 0.39158 0.59507 0.30989 0.0
H7279 H 0.39522 0.60915 0.27769 0.0
H7280 H 0.38828 0.60279 0.28717 0.0
H7281 H 0.39155 0.61657 0.28857 0.0
H7282 H 0.39347 0.62086 0.30788 0.0
H7283 H 0.37784 0.61898 0.31767 0.0
H7284 H 0.1026 0.73927 0.08099 0.0
H7285 H 0.107 0.72315 0.08672 0.0
H7286 H 0.14018 0.73303 0.08372 0.0
H7287 H 0.13585 0.74916 0.07798 0.0
H7288 H 0.11793 0.70743 0.07804 0.0
H7289 H 0.13927 0.72755 0.11311 0.0
H7290 H 0.13079 0.73377 0.10517 0.0
H7291 H 0.14396 0.73213 0.10184 0.0
C7292 C 0.11082 0.73795 0.08141 0.0
C7293 C 0.11889 0.74554 0.07913 0.0
C7294 C 0.11332 0.72875 0.08472 0.0
C7295 C 0.12393 0.72699 0.08582 0.0
C7296 C 0.13196 0.73435 0.08314 0.0
H7297 H 0.15261 0.67892 0.11339 0.0
H7298 H 0.14972 0.69315 0.10357 0.0
C7299 C 0.12948 0.74355 0.07986 0.0
C7300 C 0.12661 0.71762 0.0901 0.0
H7301 H 0.13951 0.70961 0.1102 0.0
C7302 C 0.12266 0.70789 0.08506 0.0
C7303 C 0.1328 0.71825 0.09926 0.0
C7304 C 0.13689 0.72847 0.10523 0.0
C7305 C 0.12477 0.69878 0.08892 0.0
C7306 C 0.13084 0.69942 0.09814 0.0
C7307 C 0.13491 0.70914 0.1031 0.0
C7308 C 0.13258 0.69015 0.10311 0.0
C7309 C 0.12055 0.68854 0.08307 0.0
C7310 C 0.12391 0.6837 0.10604 0.0
C7311 C 0.12554 0.67557 0.1116 0.0
C7312 C 0.13588 0.67376 0.11442 0.0
C7313 C 0.14455 0.68005 0.11125 0.0
C7314 C 0.14292 0.68821 0.10569 0.0
H7315 H 0.11892 0.68936 0.07502 0.0
H7316 H 0.12622 0.68288 0.08376 0.0
H7317 H 0.11298 0.68541 0.08602 0.0
H7318 H 0.11587 0.68516 0.1043 0.0
H7319 H 0.11868 0.6708 0.11385 0.0
H7320 H 0.03526 0.38729 0.78679 0.0
H7321 H 0.05314 0.39008 0.79513 0.0
H7322 H 0.04828 0.42066 0.80696 0.0
H7323 H 0.0303 0.41782 0.7988 0.0
H7324 H 0.0704 0.40418 0.7936 0.0
H7325 H 0.05694 0.4086 0.83202 0.0
H7326 H 0.04791 0.40401 0.82124 0.0
H7327 H 0.05239 0.41758 0.82414 0.0
C7328 C 0.03803 0.39463 0.79112 0.0
C7329 C 0.03137 0.40231 0.79222 0.0
C7330 C 0.04824 0.39621 0.7959 0.0
C7331 C 0.05197 0.40551 0.80182 0.0
C7332 C 0.04546 0.41332 0.80265 0.0
H7333 H 0.11192 0.42573 0.83747 0.0
H7334 H 0.09534 0.42554 0.82717 0.0
C7335 C 0.03521 0.41171 0.79797 0.0
C7336 C 0.06264 0.40694 0.8072 0.0
H7337 H 0.07547 0.41167 0.83048 0.0
C7338 C 0.0715 0.40583 0.80167 0.0
C7339 C 0.06407 0.40906 0.81773 0.0
C7340 C 0.05482 0.40979 0.82415 0.0
C7341 C 0.08175 0.40677 0.80639 0.0
C7342 C 0.08314 0.40887 0.81689 0.0
C7343 C 0.07434 0.41015 0.82241 0.0
C7344 C 0.09358 0.40919 0.82237 0.0
C7345 C 0.09104 0.40553 0.80015 0.0
C7346 C 0.09803 0.40006 0.82302 0.0
C7347 C 0.10742 0.40013 0.82892 0.0
C7348 C 0.11253 0.40935 0.83424 0.0
C7349 C 0.1082 0.41854 0.83337 0.0
C7350 C 0.09873 0.41844 0.82753 0.0
H7351 H 0.08898 0.40597 0.7921 0.0
H7352 H 0.09786 0.41154 0.80276 0.0
H7353 H 0.09362 0.3979 0.80096 0.0
H7354 H 0.09409 0.39283 0.81916 0.0
H7355 H 0.11063 0.39296 0.82942 0.0
H7356 H 0.33344 0.25174 0.55207 0.0
H7357 H 0.33339 0.26777 0.56294 0.0
H7358 H 0.35742 0.28313 0.54629 0.0
H7359 H 0.35771 0.26712 0.53553 0.0
H7360 H 0.35144 0.27825 0.5747 0.0
H7361 H 0.33517 0.30335 0.54867 0.0
H7362 H 0.33349 0.28947 0.54616 0.0
H7363 H 0.34583 0.29698 0.54405 0.0
C7364 C 0.33869 0.25854 0.55069 0.0
C7365 C 0.34561 0.25812 0.54294 0.0
C7366 C 0.3386 0.2677 0.55687 0.0
C7367 C 0.34532 0.27665 0.55535 0.0
C7368 C 0.35202 0.27636 0.54746 0.0
H7369 H 0.37329 0.32939 0.59463 0.0
H7370 H 0.36885 0.31348 0.58327 0.0
C7371 C 0.35216 0.26719 0.54131 0.0
C7372 C 0.346 0.28606 0.56249 0.0
H7373 H 0.34369 0.31173 0.56416 0.0
C7374 C 0.34963 0.28554 0.57243 0.0
C7375 C 0.34355 0.29553 0.55952 0.0
C7376 C 0.3392 0.29639 0.54904 0.0
C7377 C 0.35128 0.29436 0.57938 0.0
C7378 C 0.34931 0.30393 0.57629 0.0
C7379 C 0.34528 0.30438 0.56646 0.0
C7380 C 0.35188 0.3136 0.58306 0.0
C7381 C 0.35524 0.29342 0.58997 0.0
C7382 C 0.34379 0.31899 0.58656 0.0
C7383 C 0.34631 0.32806 0.59309 0.0
C7384 C 0.35696 0.3319 0.5961 0.0
C7385 C 0.36502 0.32656 0.59244 0.0
C7386 C 0.3625 0.31748 0.58599 0.0
H7387 H 0.35409 0.28529 0.59172 0.0
H7388 H 0.36386 0.29633 0.591 0.0
H7389 H 0.35112 0.29814 0.59538 0.0
H7390 H 0.33555 0.31611 0.58433 0.0
H7391 H 0.33993 0.33203 0.59576 0.0
H7392 H 0.16306 0.44657 0.37964 0.0
H7393 H 0.15717 0.42842 0.38123 0.0
H7394 H 0.17862 0.41947 0.35945 0.0
H7395 H 0.18446 0.43766 0.35766 0.0
H7396 H 0.14778 0.41418 0.36473 0.0
H7397 H 0.18352 0.40153 0.3828 0.0
H7398 H 0.18157 0.41493 0.38327 0.0
H7399 H 0.18561 0.40847 0.37207 0.0
C7400 C 0.16655 0.44076 0.37518 0.0
C7401 C 0.17417 0.44358 0.36845 0.0
C7402 C 0.16323 0.43039 0.37616 0.0
C7403 C 0.16752 0.42262 0.37052 0.0
C7404 C 0.17535 0.42536 0.364 0.0
H7405 H 0.13871 0.35943 0.35521 0.0
H7406 H 0.14963 0.37624 0.35558 0.0
C7407 C 0.17867 0.43576 0.36299 0.0
C7408 C 0.16309 0.41168 0.37086 0.0
H7409 H 0.16899 0.38853 0.37744 0.0
C7410 C 0.15242 0.40858 0.36752 0.0
C7411 C 0.16917 0.40442 0.37454 0.0
C7412 C 0.18059 0.40747 0.37845 0.0
C7413 C 0.14766 0.39838 0.36769 0.0
C7414 C 0.15374 0.39109 0.37125 0.0
C7415 C 0.1644 0.39416 0.37467 0.0
C7416 C 0.14895 0.38026 0.37144 0.0
C7417 C 0.13611 0.39544 0.36409 0.0
C7418 C 0.1453 0.37685 0.38031 0.0
C7419 C 0.139 0.36727 0.38012 0.0
C7420 C 0.13625 0.361 0.37104 0.0
C7421 C 0.14057 0.36416 0.36229 0.0
C7422 C 0.14685 0.37372 0.36249 0.0
H7423 H 0.13216 0.40228 0.36279 0.0
H7424 H 0.1355 0.39032 0.35696 0.0
H7425 H 0.13178 0.39111 0.3696 0.0
H7426 H 0.14682 0.38184 0.38727 0.0
H7427 H 0.13574 0.36507 0.38696 0.0
H7428 H 0.70506 0.07119 0.63764 0.0
H7429 H 0.69822 0.08773 0.63798 0.0
H7430 H 0.69276 0.08341 0.60589 0.0
H7431 H 0.69958 0.06683 0.60548 0.0
H7432 H 0.70446 0.10553 0.629 0.0
H7433 H 0.66356 0.08786 0.61504 0.0
H7434 H 0.67345 0.08033 0.6193 0.0
H7435 H 0.6738 0.08475 0.60712 0.0
C7436 C 0.70254 0.07382 0.63063 0.0
C7437 C 0.7028 0.06765 0.62153 0.0
C7438 C 0.69859 0.08325 0.63085 0.0
C7439 C 0.6948 0.08671 0.62198 0.0
C7440 C 0.69541 0.08078 0.61285 0.0
H7441 H 0.6621 0.14046 0.6142 0.0
H7442 H 0.67167 0.12558 0.61088 0.0
C7443 C 0.69932 0.07131 0.61263 0.0
C7444 C 0.69001 0.09643 0.62238 0.0
H7445 H 0.66673 0.10601 0.61788 0.0
C7446 C 0.69622 0.10565 0.62653 0.0
C7447 C 0.67927 0.09657 0.61913 0.0
C7448 C 0.67208 0.08685 0.61497 0.0
C7449 C 0.69195 0.11498 0.62759 0.0
C7450 C 0.68116 0.11506 0.62456 0.0
C7451 C 0.67502 0.10591 0.62017 0.0
C7452 C 0.67588 0.1244 0.62646 0.0
C7453 C 0.69904 0.12467 0.63196 0.0
C7454 C 0.67502 0.1286 0.63631 0.0
C7455 C 0.66956 0.13704 0.63821 0.0
C7456 C 0.66482 0.14143 0.63031 0.0
C7457 C 0.66573 0.13727 0.62044 0.0
C7458 C 0.67117 0.12877 0.61853 0.0
H7459 H 0.70756 0.12395 0.63123 0.0
H7460 H 0.69711 0.13145 0.62827 0.0
H7461 H 0.69783 0.12613 0.64003 0.0
H7462 H 0.6784 0.12522 0.64254 0.0
H7463 H 0.66891 0.14006 0.64589 0.0
H7464 H 0.76175 0.97476 0.34569 0.0
H7465 H 0.7443 0.96427 0.34498 0.0
H7466 H 0.73424 0.98621 0.36713 0.0
H7467 H 0.75162 0.9967 0.3679 0.0
H7468 H 0.73518 0.95509 0.36025 0.0
H7469 H 0.70955 0.98208 0.34597 0.0
H7470 H 0.72378 0.98392 0.34535 0.0
H7471 H 0.71798 0.98774 0.35675 0.0
C7472 C 0.7558 0.97737 0.35038 0.0
C7473 C 0.75806 0.98658 0.35683 0.0
C7474 C 0.74583 0.97139 0.34993 0.0
C7475 C 0.73791 0.97454 0.35588 0.0
C7476 C 0.74012 0.98377 0.36227 0.0
H7477 H 0.68568 0.93883 0.37903 0.0
H7478 H 0.70247 0.94878 0.3757 0.0
C7479 C 0.75007 0.98975 0.36271 0.0
C7480 C 0.72761 0.96786 0.35595 0.0
H7481 H 0.70078 0.96785 0.35356 0.0
C7482 C 0.72766 0.95784 0.35868 0.0
C7483 C 0.7178 0.97139 0.35375 0.0
C7484 C 0.71725 0.98183 0.35019 0.0
C7485 C 0.71817 0.95142 0.35966 0.0
C7486 C 0.70838 0.95519 0.35806 0.0
C7487 C 0.7083 0.96503 0.35491 0.0
C7488 C 0.69817 0.94918 0.36 0.0
C7489 C 0.71871 0.94067 0.36246 0.0
C7490 C 0.69007 0.94635 0.35233 0.0
C7491 C 0.68043 0.94071 0.35424 0.0
C7492 C 0.67875 0.9379 0.36387 0.0
C7493 C 0.68681 0.94086 0.37154 0.0
C7494 C 0.69642 0.94648 0.36963 0.0
H7495 H 0.72631 0.93794 0.36052 0.0
H7496 H 0.71821 0.94067 0.37064 0.0
H7497 H 0.71203 0.93511 0.35865 0.0
H7498 H 0.69125 0.94843 0.34486 0.0
H7499 H 0.67435 0.93855 0.34818 0.0
H7500 H 0.79868 0.93601 0.16028 0.0
H7501 H 0.80683 0.92039 0.15614 0.0
H7502 H 0.83024 0.93767 0.14029 0.0
H7503 H 0.82201 0.95324 0.1441 0.0
H7504 H 0.81283 0.91177 0.13437 0.0
H7505 H 0.84558 0.92337 0.16414 0.0
H7506 H 0.83283 0.9279 0.16487 0.0
H7507 H 0.84204 0.93304 0.15648 0.0
C7508 C 0.80546 0.93646 0.15578 0.0
C7509 C 0.80974 0.94591 0.15259 0.0
C7510 C 0.81011 0.92754 0.15346 0.0
C7511 C 0.81914 0.92794 0.14798 0.0
C7512 C 0.8233 0.93726 0.1446 0.0
H7513 H 0.86588 0.88812 0.13388 0.0
H7514 H 0.85536 0.90233 0.13627 0.0
C7515 C 0.81864 0.94616 0.14685 0.0
C7516 C 0.82452 0.91873 0.14606 0.0
H7517 H 0.84662 0.90847 0.15322 0.0
C7518 C 0.82019 0.91097 0.1385 0.0
C7519 C 0.83411 0.91781 0.15146 0.0
C7520 C 0.83895 0.92592 0.15974 0.0
C7521 C 0.82538 0.90238 0.13602 0.0
C7522 C 0.83502 0.90146 0.14142 0.0
C7523 C 0.83925 0.90919 0.14907 0.0
C7524 C 0.84102 0.89266 0.13921 0.0
C7525 C 0.82069 0.89455 0.12746 0.0
C7526 C 0.83643 0.8825 0.13998 0.0
C7527 C 0.84242 0.87435 0.13855 0.0
C7528 C 0.85314 0.87627 0.13648 0.0
C7529 C 0.85766 0.88643 0.13556 0.0
C7530 C 0.85166 0.89454 0.13691 0.0
H7531 H 0.81504 0.89776 0.12244 0.0
H7532 H 0.82699 0.89177 0.12297 0.0
H7533 H 0.81627 0.88782 0.13047 0.0
H7534 H 0.82832 0.88088 0.14198 0.0
H7535 H 0.83878 0.86661 0.13943 0.0
H7536 H 0.24869 0.52492 0.33012 0.0
H7537 H 0.26513 0.53579 0.32733 0.0
H7538 H 0.28292 0.51826 0.3459 0.0
H7539 H 0.26653 0.50742 0.34881 0.0
H7540 H 0.27811 0.54782 0.34249 0.0
H7541 H 0.30067 0.52052 0.32154 0.0
H7542 H 0.28653 0.51784 0.32263 0.0
H7543 H 0.29569 0.51606 0.33275 0.0
C7544 C 0.25611 0.52334 0.33356 0.0
C7545 C 0.25629 0.51533 0.33973 0.0
C7546 C 0.2655 0.52951 0.33191 0.0
C7547 C 0.27526 0.52776 0.33631 0.0
C7548 C 0.27551 0.5196 0.34224 0.0
H7549 H 0.33254 0.56876 0.35369 0.0
H7550 H 0.31697 0.55554 0.35198 0.0
C7551 C 0.26612 0.51342 0.34391 0.0
C7552 C 0.28499 0.53506 0.3355 0.0
H7553 H 0.31047 0.53669 0.32851 0.0
C7554 C 0.28514 0.5454 0.33933 0.0
C7555 C 0.29414 0.5319 0.33134 0.0
C7556 C 0.29426 0.521 0.32674 0.0
C7557 C 0.2943 0.55259 0.33941 0.0
C7558 C 0.30355 0.54935 0.3356 0.0
C7559 C 0.30335 0.5391 0.33148 0.0
C7560 C 0.31357 0.55651 0.33624 0.0
C7561 C 0.29412 0.5636 0.3437 0.0
C7562 C 0.31692 0.56124 0.32788 0.0
C7563 C 0.32576 0.56889 0.32884 0.0
C7564 C 0.33139 0.5719 0.33819 0.0
C7565 C 0.32826 0.56677 0.34643 0.0
C7566 C 0.31942 0.55917 0.34546 0.0
H7567 H 0.28594 0.56523 0.34495 0.0
H7568 H 0.29891 0.56511 0.35096 0.0
H7569 H 0.29772 0.56902 0.33863 0.0
H7570 H 0.31245 0.55928 0.32071 0.0
H7571 H 0.32793 0.57274 0.32238 0.0
H7572 H 0.34035 0.55035 0.87289 0.0
H7573 H 0.34946 0.568 0.87618 0.0
H7574 H 0.32081 0.57965 0.86686 0.0
H7575 H 0.31166 0.56198 0.86322 0.0
H7576 H 0.35011 0.58317 0.8603 0.0
H7577 H 0.33253 0.59573 0.89558 0.0
H7578 H 0.33331 0.58232 0.8917 0.0
H7579 H 0.32382 0.58883 0.88541 0.0
C7580 C 0.33598 0.55664 0.87147 0.0
C7581 C 0.32527 0.55472 0.86773 0.0
C7582 C 0.34118 0.56672 0.87343 0.0
C7583 C 0.33577 0.57508 0.87183 0.0
C7584 C 0.32506 0.57326 0.86826 0.0
H7585 H 0.35681 0.64133 0.87916 0.0
H7586 H 0.34618 0.62421 0.87751 0.0
C7587 C 0.31985 0.56317 0.86622 0.0
C7588 C 0.34153 0.58567 0.87339 0.0
H7589 H 0.34468 0.60803 0.88908 0.0
C7590 C 0.34895 0.58862 0.86658 0.0
C7591 C 0.33985 0.59274 0.88153 0.0
C7592 C 0.33199 0.58981 0.88904 0.0
C7593 C 0.35478 0.59852 0.8677 0.0
C7594 C 0.35336 0.60553 0.87603 0.0
C7595 C 0.3458 0.60261 0.88275 0.0
C7596 C 0.35974 0.61588 0.87786 0.0
C7597 C 0.36225 0.60142 0.85984 0.0
C7598 C 0.37086 0.61687 0.87896 0.0
C7599 C 0.37692 0.6266 0.87983 0.0
C7600 C 0.37196 0.63552 0.87979 0.0
C7601 C 0.36082 0.63456 0.87924 0.0
C7602 C 0.35475 0.62481 0.87827 0.0
H7603 H 0.3601 0.59648 0.85265 0.0
H7604 H 0.36228 0.6096 0.85846 0.0
H7605 H 0.37043 0.60036 0.86242 0.0
H7606 H 0.37486 0.6101 0.87896 0.0
H7607 H 0.38549 0.62714 0.88041 0.0
H7608 H 0.74945 0.04001 0.16722 0.0
H7609 H 0.73145 0.0439 0.16909 0.0
H7610 H 0.72428 0.01677 0.18428 0.0
H7611 H 0.7424 0.01279 0.18242 0.0
H7612 H 0.70879 0.01848 0.16991 0.0
H7613 H 0.71863 0.0555 0.19383 0.0
H7614 H 0.72587 0.05543 0.18282 0.0
H7615 H 0.72812 0.04658 0.19184 0.0
C7616 C 0.74412 0.03495 0.17111 0.0
C7617 C 0.7474 0.02615 0.17477 0.0
C7618 C 0.73382 0.0372 0.17219 0.0
C7619 C 0.72659 0.03076 0.17703 0.0
C7620 C 0.72977 0.02189 0.18061 0.0
H7621 H 0.66573 0.05354 0.18674 0.0
H7622 H 0.6821 0.04614 0.19011 0.0
C7623 C 0.7401 0.01961 0.1795 0.0
C7624 C 0.71558 0.03311 0.17783 0.0
H7625 H 0.70149 0.0527 0.18463 0.0
C7626 C 0.70716 0.02589 0.17328 0.0
C7627 C 0.71341 0.04268 0.18242 0.0
C7628 C 0.72198 0.05044 0.1881 0.0
C7629 C 0.69673 0.02826 0.17263 0.0
C7630 C 0.69473 0.03819 0.17644 0.0
C7631 C 0.70303 0.04514 0.18156 0.0
C7632 C 0.68432 0.04181 0.17454 0.0
C7633 C 0.688 0.02014 0.16775 0.0
C7634 C 0.68014 0.04186 0.16469 0.0
C7635 C 0.6708 0.04603 0.16276 0.0
C7636 C 0.66552 0.05035 0.17063 0.0
C7637 C 0.66962 0.05023 0.18052 0.0
C7638 C 0.67897 0.04601 0.18245 0.0
H7639 H 0.68995 0.01226 0.16852 0.0
H7640 H 0.68031 0.02092 0.17103 0.0
H7641 H 0.68706 0.02097 0.15965 0.0
H7642 H 0.68427 0.03895 0.15845 0.0
H7643 H 0.66785 0.04611 0.15508 0.0
H7644 H 0.79638 0.01765 0.63074 0.0
H7645 H 0.81306 0.0113 0.63516 0.0
H7646 H 0.79924 0.99832 0.66033 0.0
H7647 H 0.78252 1.00459 0.65592 0.0
H7648 H 0.82632 0.01554 0.65225 0.0
H7649 H 0.81076 0.9738 0.64637 0.0
H7650 H 0.80338 0.98353 0.64208 0.0
H7651 H 0.80369 0.98114 0.65499 0.0
C7652 C 0.7969 0.01348 0.63724 0.0
C7653 C 0.7881 0.01158 0.64295 0.0
C7654 C 0.80643 0.00982 0.63974 0.0
C7655 C 0.80735 1.00417 0.64797 0.0
C7656 C 0.79864 1.00242 0.65379 0.0
H7657 H 0.86006 0.97684 0.67394 0.0
H7658 H 0.84328 0.98371 0.67103 0.0
C7659 C 0.78909 1.00603 0.65127 0.0
C7660 C 0.81748 1.00028 0.65054 0.0
H7661 H 0.82838 0.9783 0.65359 0.0
C7662 C 0.82677 1.00739 0.65253 0.0
C7663 C 0.81806 0.98964 0.65091 0.0
C7664 C 0.80847 0.98157 0.64838 0.0
C7665 C 0.8366 1.00418 0.65493 0.0
C7666 C 0.83718 0.99356 0.65525 0.0
C7667 C 0.82789 0.98644 0.65338 0.0
C7668 C 0.84741 0.98964 0.65716 0.0
C7669 C 0.84629 0.01217 0.65718 0.0
C7670 C 0.85523 0.99062 0.65028 0.0
C7671 C 0.86477 0.98667 0.6519 0.0
C7672 C 0.86668 0.98168 0.66043 0.0
C7673 C 0.85885 0.9807 0.66733 0.0
C7674 C 0.84926 0.9846 0.66567 0.0
H7675 H 0.84414 0.02003 0.65898 0.0
H7676 H 0.85137 0.0103 0.66355 0.0
H7677 H 0.85105 0.01227 0.65055 0.0
H7678 H 0.85389 0.99432 0.64359 0.0
H7679 H 0.87065 0.98747 0.64644 0.0
loop_
_geom_bond_atom_site_label_1
_geom_bond_atom_site_label_2
_geom_bond_distance
_geom_bond_site_symmetry_2
_ccdc_geom_bond_type
C0 C1 1.264 . S
C0 C5 1.479 . S
C0 C10 1.465 . S
C1 C0 1.264 . S
C1 C3 1.339 . S
C1 H28 0.931 . S
C2 C3 1.395 . S
C2 C4 1.320 . S
C3 C1 1.339 . S
C3 C2 1.395 . S
C3 H29 0.929 . S
C4 C2 1.320 . S
C4 C5 1.405 . S
C4 H30 0.930 . S
C5 C0 1.479 . S
C5 C4 1.405 . S
C5 H31 0.931 . S
U6 O7 2.454 . S
U6 O8 2.458 1_655 S
U6 C9 2.984 1_655 S
U6 C10 2.847 . S
U6 C23 2.882 1_655 S
U6 O24 2.441 . S
U6 O25 2.420 . S
U6 O26 2.455 1_655 S
U6 O27 2.432 1_655 S
O7 U6 2.454 . S
O7 C9 1.353 1_655 S
O8 U6 2.458 1_455 S
O8 C9 1.286 . S
C9 U6 2.984 1_455 S
C9 O7 1.353 1_455 S
C9 O8 1.286 . S
C9 C11 1.363 . S
C10 C0 1.465 . S
C10 U6 2.847 . S
C10 O24 1.249 . S
C10 O25 1.202 . S
C11 C9 1.363 . S
C11 C13 1.414 . S
C11 C16 1.342 . S
C12 C13 1.314 . S
C12 C15 1.461 . S
C12 H32 0.932 1_455 S
C13 C11 1.414 . S
C13 C12 1.314 . S
C13 H33 0.921 1_455 S
C14 C15 1.474 . S
C14 C16 1.285 . S
C14 H34 0.929 . S
C15 C12 1.461 . S
C15 C14 1.474 . S
C16 C11 1.342 . S
C16 C14 1.285 . S
C16 H35 0.930 . S
C17 C20 1.424 . S
C17 C22 1.245 . S
C17 C23 1.428 . S
C18 C21 1.260 . S
C18 C22 1.477 . S
C18 H36 0.932 . S
C19 C20 1.384 . S
C19 C21 1.479 . S
C19 H37 0.929 . S
C20 C17 1.424 . S
C20 C19 1.384 . S
C20 H38 0.928 . S
C21 C18 1.260 . S
C21 C19 1.479 . S
C22 C17 1.245 . S
C22 C18 1.477 . S
C22 H39 0.932 . S
C23 U6 2.882 1_455 S
C23 C17 1.428 . S
C23 O26 1.301 . S
C23 O27 1.367 . S
O24 U6 2.441 . S
O24 C10 1.249 . S
O25 U6 2.420 . S
O25 C10 1.202 . S
O26 U6 2.455 1_455 S
O26 C23 1.301 . S
O27 U6 2.432 1_455 S
O27 C23 1.367 . S
H28 C1 0.931 . S
H29 C3 0.929 . S
H30 C4 0.930 . S
H31 C5 0.931 . S
H32 C12 0.932 1_655 S
H33 C13 0.921 1_655 S
H34 C14 0.929 . S
H35 C16 0.930 . S
H36 C18 0.932 . S
H37 C19 0.929 . S
H38 C20 0.928 . S
H39 C22 0.932 . S
C40 C41 1.264 . S
C40 C45 1.479 . S
C40 C50 1.465 . S
C41 C40 1.264 . S
C41 C43 1.339 . S
C41 H68 0.931 . S
C42 C43 1.395 . S
C42 C44 1.320 . S
C43 C41 1.339 . S
C43 C42 1.395 . S
C43 H69 0.929 . S
C44 C42 1.320 . S
C44 C45 1.405 . S
C44 H70 0.930 . S
C45 C40 1.479 . S
C45 C44 1.405 . S
C45 H71 0.931 . S
U46 O47 2.454 . S
U46 O48 2.458 . S
U46 C49 2.984 . S
U46 C50 2.847 . S
U46 C63 2.882 . S
U46 O64 2.441 . S
U46 O65 2.420 . S
U46 O66 2.455 . S
U46 O67 2.449 . S
O47 U46 2.454 . S
O47 C49 1.353 . S
O48 U46 2.458 . S
O48 C49 1.286 . S
C49 U46 2.984 . S
C49 O47 1.353 . S
C49 O48 1.286 . S
C49 C51 1.363 . S
C50 C40 1.465 . S
C50 U46 2.847 . S
C50 O64 1.249 . S
C50 O65 1.202 . S
C51 C49 1.363 . S
C51 C53 1.408 . S
C51 C56 1.342 . S
C52 C53 1.310 . S
C52 C55 1.461 . S
C52 H72 0.932 . S
C53 C51 1.408 . S
C53 C52 1.310 . S
C53 H73 0.930 . S
C54 C55 1.474 . S
C54 C56 1.285 . S
C54 H74 0.929 . S
C55 C52 1.461 . S
C55 C54 1.474 . S
C56 C51 1.342 . S
C56 C54 1.285 . S
C56 H75 0.930 . S
C57 C60 1.424 . S
C57 C62 1.245 . S
C57 C63 1.428 . S
C58 C61 1.260 . S
C58 C62 1.477 . S
C58 H76 0.932 . S
C59 C60 1.384 . S
C59 C61 1.479 . S
C59 H77 0.929 . S
C60 C57 1.424 . S
C60 C59 1.384 . S
C60 H78 0.928 . S
C61 C58 1.260 . S
C61 C59 1.479 . S
C62 C57 1.245 . S
C62 C58 1.477 . S
C62 H79 0.932 . S
C63 U46 2.882 . S
C63 C57 1.428 . S
C63 O66 1.301 . S
C63 O67 1.282 . S
O64 U46 2.441 . S
O64 C50 1.249 . S
O65 U46 2.420 . S
O65 C50 1.202 . S
O66 U46 2.455 . S
O66 C63 1.301 . S
O67 U46 2.449 . S
O67 C63 1.282 . S
H68 C41 0.931 . S
H69 C43 0.929 . S
H70 C44 0.930 . S
H71 C45 0.931 . S
H72 C52 0.932 . S
H73 C53 0.930 . S
H74 C54 0.929 . S
H75 C56 0.930 . S
H76 C58 0.932 . S
H77 C59 0.929 . S
H78 C60 0.928 . S
H79 C62 0.932 . S
C80 C81 1.264 . S
C80 C85 1.479 . S
C80 C90 1.465 . S
C81 C80 1.264 . S
C81 C83 1.339 . S
C81 H108 0.931 . S
C82 C83 1.395 . S
C82 C84 1.320 . S
C83 C81 1.339 . S
C83 C82 1.395 . S
C83 H109 0.929 . S
C84 C82 1.320 . S
C84 C85 1.405 . S
C84 H110 0.930 . S
C85 C80 1.479 . S
C85 C84 1.405 . S
C85 H111 0.931 . S
U86 O87 2.454 . S
U86 O88 2.458 . S
U86 C89 2.984 . S
U86 C90 2.847 . S
U86 C103 2.882 . S
U86 O104 2.441 . S
U86 O105 2.420 . S
U86 O106 2.455 . S
U86 O107 2.449 . S
O87 U86 2.454 . S
O87 C89 1.353 . S
O88 U86 2.458 . S
O88 C89 1.286 . S
C89 U86 2.984 . S
C89 O87 1.353 . S
C89 O88 1.286 . S
C89 C91 1.363 . S
C90 C80 1.465 . S
C90 U86 2.847 . S
C90 O104 1.249 . S
C90 O105 1.202 . S
C91 C89 1.363 . S
C91 C93 1.408 . S
C91 C96 1.342 . S
C92 C93 1.310 . S
C92 C95 1.461 . S
C92 H112 0.932 . S
C93 C91 1.408 . S
C93 C92 1.310 . S
C93 H113 0.930 . S
C94 C95 1.474 . S
C94 C96 1.285 . S
C94 H114 0.929 . S
C95 C92 1.461 . S
C95 C94 1.474 . S
C96 C91 1.342 . S
C96 C94 1.285 . S
C96 H115 0.930 . S
C97 C100 1.424 . S
C97 C102 1.245 . S
C97 C103 1.428 . S
C98 C101 1.260 . S
C98 C102 1.477 . S
C98 H116 0.932 . S
C99 C100 1.384 . S
C99 C101 1.479 . S
C99 H117 0.929 . S
C100 C97 1.424 . S
C100 C99 1.384 . S
C100 H118 0.928 . S
C101 C98 1.260 . S
C101 C99 1.479 . S
C102 C97 1.245 . S
C102 C98 1.477 . S
C102 H119 0.932 . S
C103 U86 2.882 . S
C103 C97 1.428 . S
C103 O106 1.301 . S
C103 O107 1.282 . S
O104 U86 2.441 . S
O104 C90 1.249 . S
O105 U86 2.420 . S
O105 C90 1.202 . S
O106 U86 2.455 . S
O106 C103 1.301 . S
O107 U86 2.449 . S
O107 C103 1.282 . S
H108 C81 0.931 . S
H109 C83 0.929 . S
H110 C84 0.930 . S
H111 C85 0.931 . S
H112 C92 0.932 . S
H113 C93 0.930 . S
H114 C94 0.929 . S
H115 C96 0.930 . S
H116 C98 0.932 . S
H117 C99 0.929 . S
H118 C100 0.928 . S
H119 C102 0.932 . S
C120 C121 1.264 . S
C120 C125 1.479 . S
C120 C130 1.465 . S
C121 C120 1.264 . S
C121 C123 1.339 . S
C121 H148 0.931 . S
C122 C123 1.395 . S
C122 C124 1.320 . S
C123 C121 1.339 . S
C123 C122 1.395 . S
C123 H149 0.929 . S
C124 C122 1.320 . S
C124 C125 1.405 . S
C124 H150 0.930 . S
C125 C120 1.479 . S
C125 C124 1.405 . S
C125 H151 0.931 . S
U126 O127 2.454 . S
U126 O128 2.458 . S
U126 C129 2.984 . S
U126 C130 2.847 . S
U126 C143 2.882 . S
U126 O144 2.441 . S
U126 O145 2.420 . S
U126 O146 2.455 . S
U126 O147 2.449 . S
O127 U126 2.454 . S
O127 C129 1.353 . S
O128 U126 2.458 . S
O128 C129 1.286 . S
C129 U126 2.984 . S
C129 O127 1.353 . S
C129 O128 1.286 . S
C129 C131 1.363 . S
C130 C120 1.465 . S
C130 U126 2.847 . S
C130 O144 1.249 . S
C130 O145 1.202 . S
C131 C129 1.363 . S
C131 C133 1.408 . S
C131 C136 1.342 . S
C132 C133 1.310 . S
C132 C135 1.495 . S
C132 H152 0.941 . S
C133 C131 1.408 . S
C133 C132 1.310 . S
C133 H153 0.930 . S
C134 C135 1.569 . S
C134 C136 1.285 . S
C134 H154 0.929 . S
C135 C132 1.495 . S
C135 C134 1.569 . S
C136 C131 1.342 . S
C136 C134 1.285 . S
C136 H155 0.930 . S
C137 C140 1.424 . S
C137 C142 1.245 . S
C137 C143 1.428 . S
C138 C141 1.260 . S
C138 C142 1.477 . S
C138 H156 0.932 . S
C139 C140 1.384 . S
C139 C141 1.479 . S
C139 H157 0.929 . S
C140 C137 1.424 . S
C140 C139 1.384 . S
C140 H158 0.928 . S
C141 C138 1.260 . S
C141 C139 1.479 . S
C142 C137 1.245 . S
C142 C138 1.477 . S
C142 H159 0.932 . S
C143 U126 2.882 . S
C143 C137 1.428 . S
C143 O146 1.301 . S
C143 O147 1.282 . S
O144 U126 2.441 . S
O144 C130 1.249 . S
O145 U126 2.420 . S
O145 C130 1.202 . S
O146 U126 2.455 . S
O146 C143 1.301 . S
O147 U126 2.449 . S
O147 C143 1.282 . S
H148 C121 0.931 . S
H149 C123 0.929 . S
H150 C124 0.930 . S
H151 C125 0.931 . S
H152 C132 0.941 . S
H153 C133 0.930 . S
H154 C134 0.929 . S
H155 C136 0.930 . S
H156 C138 0.932 . S
H157 C139 0.929 . S
H158 C140 0.928 . S
H159 C142 0.932 . S
C160 C161 1.264 . S
C160 C165 1.479 . S
C160 C170 1.382 1_655 S
C161 C160 1.264 . S
C161 C163 1.339 . S
C161 H188 0.931 . S
C162 C163 1.395 . S
C162 C164 1.320 . S
C163 C161 1.339 . S
C163 C162 1.395 . S
C163 H189 0.929 . S
C164 C162 1.320 . S
C164 C165 1.405 . S
C164 H190 0.930 . S
C165 C160 1.479 . S
C165 C164 1.405 . S
C165 H191 0.931 . S
U166 O167 2.454 . S
U166 O168 2.458 . S
U166 C169 2.984 . S
U166 C170 2.941 . S
U166 C183 2.882 . S
U166 O184 2.441 . S
U166 O185 2.420 . S
U166 O186 2.455 . S
U166 O187 2.449 . S
O167 U166 2.454 . S
O167 C169 1.353 . S
O168 U166 2.458 . S
O168 C169 1.286 . S
C169 U166 2.984 . S
C169 O167 1.353 . S
C169 O168 1.286 . S
C169 C171 1.363 . S
C170 C160 1.382 1_455 S
C170 U166 2.941 . S
C170 O184 1.277 . S
C170 O185 1.276 . S
C171 C169 1.363 . S
C171 C173 1.408 . S
C171 C176 1.342 . S
C172 C173 1.310 . S
C172 C175 1.461 . S
C172 H192 0.932 . S
C173 C171 1.408 . S
C173 C172 1.310 . S
C173 H193 0.930 . S
C174 C175 1.474 . S
C174 C176 1.285 . S
C174 H194 0.929 . S
C175 C172 1.461 . S
C175 C174 1.474 . S
C176 C171 1.342 . S
C176 C174 1.285 . S
C176 H195 0.930 . S
C177 C180 1.424 . S
C177 C182 1.245 . S
C177 C183 1.428 . S
C178 C181 1.260 . S
C178 C182 1.477 . S
C178 H196 0.932 . S
C179 C180 1.384 . S
C179 C181 1.479 . S
C179 H197 0.929 . S
C180 C177 1.424 . S
C180 C179 1.384 . S
C180 H198 0.928 . S
C181 C178 1.260 . S
C181 C179 1.479 . S
C182 C177 1.245 . S
C182 C178 1.477 . S
C182 H199 0.932 . S
C183 U166 2.882 . S
C183 C177 1.428 . S
C183 O186 1.301 . S
C183 O187 1.282 . S
O184 U166 2.441 . S
O184 C170 1.277 . S
O185 U166 2.420 . S
O185 C170 1.276 . S
O186 U166 2.455 . S
O186 C183 1.301 . S
O187 U166 2.449 . S
O187 C183 1.282 . S
H188 C161 0.931 . S
H189 C163 0.929 . S
H190 C164 0.930 . S
H191 C165 0.931 . S
H192 C172 0.932 . S
H193 C173 0.930 . S
H194 C174 0.929 . S
H195 C176 0.930 . S
H196 C178 0.932 . S
H197 C179 0.929 . S
H198 C180 0.928 . S
H199 C182 0.932 . S
C200 C201 1.264 . S
C200 C205 1.479 . S
C200 C210 1.465 . S
C201 C200 1.264 . S
C201 C203 1.339 . S
C201 H228 0.931 . S
C202 C203 1.395 . S
C202 C204 1.320 . S
C203 C201 1.339 . S
C203 C202 1.395 . S
C203 H229 0.929 . S
C204 C202 1.320 . S
C204 C205 1.405 . S
C204 H230 0.930 . S
C205 C200 1.479 . S
C205 C204 1.405 . S
C205 H231 0.931 . S
U206 O207 2.454 . S
U206 O208 2.458 . S
U206 C209 2.984 . S
U206 C210 2.847 . S
U206 C223 2.882 . S
U206 O224 2.441 . S
U206 O225 2.420 . S
U206 O226 2.455 . S
U206 O227 2.449 . S
O207 U206 2.454 . S
O207 C209 1.353 . S
O208 U206 2.458 . S
O208 C209 1.286 . S
C209 U206 2.984 . S
C209 O207 1.353 . S
C209 O208 1.286 . S
C209 C211 1.363 . S
C210 C200 1.465 . S
C210 U206 2.847 . S
C210 O224 1.249 . S
C210 O225 1.202 . S
C211 C209 1.363 . S
C211 C213 1.408 . S
C211 C216 1.342 . S
C212 C213 1.310 . S
C212 C215 1.461 . S
C212 H232 0.932 . S
C213 C211 1.408 . S
C213 C212 1.310 . S
C213 H233 0.930 . S
C214 C215 1.474 . S
C214 C216 1.285 . S
C214 H234 0.929 . S
C215 C212 1.461 . S
C215 C214 1.474 . S
C216 C211 1.342 . S
C216 C214 1.285 . S
C216 H235 0.930 . S
C217 C220 1.424 . S
C217 C222 1.245 . S
C217 C223 1.428 . S
C218 C221 1.260 . S
C218 C222 1.477 . S
C218 H236 0.932 . S
C219 C220 1.384 . S
C219 C221 1.479 . S
C219 H237 0.929 . S
C220 C217 1.424 . S
C220 C219 1.384 . S
C220 H238 0.928 . S
C221 C218 1.260 . S
C221 C219 1.479 . S
C222 C217 1.245 . S
C222 C218 1.477 . S
C222 H239 0.932 . S
C223 U206 2.882 . S
C223 C217 1.428 . S
C223 O226 1.301 . S
C223 O227 1.282 . S
O224 U206 2.441 . S
O224 C210 1.249 . S
O225 U206 2.420 . S
O225 C210 1.202 . S
O226 U206 2.455 . S
O226 C223 1.301 . S
O227 U206 2.449 . S
O227 C223 1.282 . S
H228 C201 0.931 . S
H229 C203 0.929 . S
H230 C204 0.930 . S
H231 C205 0.931 . S
H232 C212 0.932 . S
H233 C213 0.930 . S
H234 C214 0.929 . S
H235 C216 0.930 . S
H236 C218 0.932 . S
H237 C219 0.929 . S
H238 C220 0.928 . S
H239 C222 0.932 . S
C240 C241 1.264 . S
C240 C245 1.479 . S
C240 C250 1.465 . S
C241 C240 1.264 . S
C241 C243 1.339 . S
C241 H268 0.931 . S
C242 C243 1.395 . S
C242 C244 1.320 . S
C243 C241 1.339 . S
C243 C242 1.395 . S
C243 H269 0.929 . S
C244 C242 1.320 . S
C244 C245 1.405 . S
C244 H270 0.930 . S
C245 C240 1.479 . S
C245 C244 1.405 . S
C245 H271 0.931 . S
U246 O247 2.454 . S
U246 O248 2.458 . S
U246 C249 2.984 . S
U246 C250 2.847 . S
U246 C263 2.882 . S
U246 O264 2.441 . S
U246 O265 2.420 . S
U246 O266 2.455 . S
U246 O267 2.449 . S
O247 U246 2.454 . S
O247 C249 1.353 . S
O248 U246 2.458 . S
O248 C249 1.286 . S
C249 U246 2.984 . S
C249 O247 1.353 . S
C249 O248 1.286 . S
C249 C251 1.363 . S
C250 C240 1.465 . S
C250 U246 2.847 . S
C250 O264 1.249 . S
C250 O265 1.202 . S
C251 C249 1.363 . S
C251 C253 1.408 . S
C251 C256 1.342 . S
C252 C253 1.310 . S
C252 C255 1.461 . S
C252 H272 0.932 . S
C253 C251 1.408 . S
C253 C252 1.310 . S
C253 H273 0.930 . S
C254 C255 1.474 . S
C254 C256 1.285 . S
C254 H274 0.929 . S
C255 C252 1.461 . S
C255 C254 1.474 . S
C256 C251 1.342 . S
C256 C254 1.285 . S
C256 H275 0.930 . S
C257 C260 1.424 . S
C257 C262 1.245 . S
C257 C263 1.428 . S
C258 C261 1.260 . S
C258 C262 1.477 . S
C258 H276 0.932 . S
C259 C260 1.384 . S
C259 C261 1.479 . S
C259 H277 0.929 . S
C260 C257 1.424 . S
C260 C259 1.384 . S
C260 H278 0.928 . S
C261 C258 1.260 . S
C261 C259 1.479 . S
C262 C257 1.245 . S
C262 C258 1.477 . S
C262 H279 0.932 . S
C263 U246 2.882 . S
C263 C257 1.428 . S
C263 O266 1.301 . S
C263 O267 1.282 . S
O264 U246 2.441 . S
O264 C250 1.249 . S
O265 U246 2.420 . S
O265 C250 1.202 . S
O266 U246 2.455 . S
O266 C263 1.301 . S
O267 U246 2.449 . S
O267 C263 1.282 . S
H268 C241 0.931 . S
H269 C243 0.929 . S
H270 C244 0.930 . S
H271 C245 0.931 . S
H272 C252 0.932 . S
H273 C253 0.930 . S
H274 C254 0.929 . S
H275 C256 0.930 . S
H276 C258 0.932 . S
H277 C259 0.929 . S
H278 C260 0.928 . S
H279 C262 0.932 . S
C280 C281 1.264 . S
C280 C285 1.479 1_556 S
C280 C290 1.465 . S
C281 C280 1.264 . S
C281 C283 1.339 1_556 S
C281 H308 0.931 . S
C282 C283 1.395 . S
C282 C284 1.320 . S
C283 C281 1.339 1_554 S
C283 C282 1.395 . S
C283 H309 0.929 . S
C284 C282 1.320 . S
C284 C285 1.405 . S
C284 H310 0.930 . S
C285 C280 1.479 1_554 S
C285 C284 1.405 . S
C285 H311 0.931 . S
U286 O287 2.454 . S
U286 O288 2.458 . S
U286 C289 2.984 . S
U286 C290 2.847 . S
U286 C303 2.882 . S
U286 O304 2.441 . S
U286 O305 2.420 . S
U286 O306 2.455 . S
U286 O307 2.449 . S
O287 U286 2.454 . S
O287 C289 1.353 . S
O288 U286 2.458 . S
O288 C289 1.286 . S
C289 U286 2.984 . S
C289 O287 1.353 . S
C289 O288 1.286 . S
C289 C291 1.363 . S
C290 C280 1.465 . S
C290 U286 2.847 . S
C290 O304 1.249 . S
C290 O305 1.202 . S
C291 C289 1.363 . S
C291 C293 1.408 . S
C291 C296 1.342 . S
C292 C293 1.310 . S
C292 C295 1.461 . S
C292 H312 0.932 . S
C293 C291 1.408 . S
C293 C292 1.310 . S
C293 H313 0.930 . S
C294 C295 1.474 . S
C294 C296 1.285 . S
C294 H314 0.929 . S
C295 C292 1.461 . S
C295 C294 1.474 . S
C296 C291 1.342 . S
C296 C294 1.285 . S
C296 H315 0.930 . S
C297 C300 1.424 . S
C297 C302 1.245 . S
C297 C303 1.428 . S
C298 C301 1.260 . S
C298 C302 1.477 . S
C298 H316 0.932 . S
C299 C300 1.384 . S
C299 C301 1.479 . S
C299 H317 0.929 . S
C300 C297 1.424 . S
C300 C299 1.384 . S
C300 H318 0.928 . S
C301 C298 1.260 . S
C301 C299 1.479 . S
C302 C297 1.245 . S
C302 C298 1.477 . S
C302 H319 0.932 . S
C303 U286 2.882 . S
C303 C297 1.428 . S
C303 O306 1.301 . S
C303 O307 1.282 . S
O304 U286 2.441 . S
O304 C290 1.249 . S
O305 U286 2.420 . S
O305 C290 1.202 . S
O306 U286 2.455 . S
O306 C303 1.301 . S
O307 U286 2.449 . S
O307 C303 1.282 . S
H308 C281 0.931 . S
H309 C283 0.929 . S
H310 C284 0.930 . S
H311 C285 0.931 . S
H312 C292 0.932 . S
H313 C293 0.930 . S
H314 C294 0.929 . S
H315 C296 0.930 . S
H316 C298 0.932 . S
H317 C299 0.929 . S
H318 C300 0.928 . S
H319 C302 0.932 . S
C320 C321 1.264 . S
C320 C325 1.479 1_545 S
C320 C330 1.465 . S
C321 C320 1.264 . S
C321 C323 1.339 . S
C321 H348 0.931 . S
C322 C323 1.395 . S
C322 C324 1.218 1_545 S
C323 C321 1.339 . S
C323 C322 1.395 . S
C323 H349 0.929 . S
C324 C322 1.218 1_565 S
C324 C325 1.446 . S
C324 H350 0.999 . S
C325 C320 1.479 1_565 S
C325 C324 1.446 . S
C325 H351 0.931 . S
U326 O327 2.450 1_545 S
U326 O328 2.455 1_545 S
U326 C329 2.981 1_545 S
U326 C330 2.848 . S
U326 C343 2.885 . S
U326 O344 2.440 1_545 S
U326 O345 2.423 . S
U326 O346 2.456 . S
U326 O347 2.452 . S
O327 U326 2.450 1_565 S
O327 C329 1.353 . S
O328 U326 2.455 1_565 S
O328 C329 1.286 . S
C329 U326 2.981 1_565 S
C329 O327 1.353 . S
C329 O328 1.286 . S
C329 C331 1.363 . S
C330 C320 1.465 . S
C330 U326 2.848 . S
C330 O344 1.249 1_545 S
C330 O345 1.202 . S
C331 C329 1.363 . S
C331 C333 1.408 . S
C331 C336 1.342 . S
C332 C333 1.310 . S
C332 C335 1.461 . S
C332 H352 0.932 . S
C333 C331 1.408 . S
C333 C332 1.310 . S
C333 H353 0.930 . S
C334 C335 1.474 . S
C334 C336 1.285 . S
C334 H354 0.929 . S
C335 C332 1.461 . S
C335 C334 1.474 . S
C336 C331 1.342 . S
C336 C334 1.285 . S
C336 H355 0.930 . S
C337 C340 1.424 . S
C337 C342 1.245 . S
C337 C343 1.428 . S
C338 C341 1.260 . S
C338 C342 1.477 . S
C338 H356 0.932 . S
C339 C340 1.384 . S
C339 C341 1.479 . S
C339 H357 0.929 . S
C340 C337 1.424 . S
C340 C339 1.384 . S
C340 H358 0.928 . S
C341 C338 1.260 . S
C341 C339 1.479 . S
C342 C337 1.245 . S
C342 C338 1.477 . S
C342 H359 0.932 . S
C343 U326 2.885 . S
C343 C337 1.428 . S
C343 O346 1.301 . S
C343 O347 1.282 . S
O344 U326 2.440 1_565 S
O344 C330 1.249 1_565 S
O345 U326 2.423 . S
O345 C330 1.202 . S
O346 U326 2.456 . S
O346 C343 1.301 . S
O347 U326 2.452 . S
O347 C343 1.282 . S
H348 C321 0.931 . S
H349 C323 0.929 . S
H350 C324 0.999 . S
H351 C325 0.931 . S
H352 C332 0.932 . S
H353 C333 0.930 . S
H354 C334 0.929 . S
H355 C336 0.930 . S
H356 C338 0.932 . S
H357 C339 0.929 . S
H358 C340 0.928 . S
H359 C342 0.932 . S
C360 C361 1.264 . S
C360 C365 1.479 . S
C360 C370 1.465 . S
C361 C360 1.264 . S
C361 C363 1.339 . S
C361 H388 0.931 . S
C362 C363 1.395 . S
C362 C364 1.320 . S
C363 C361 1.339 . S
C363 C362 1.395 . S
C363 H389 0.929 . S
C364 C362 1.320 . S
C364 C365 1.405 . S
C364 H390 0.930 . S
C365 C360 1.479 . S
C365 C364 1.405 . S
C365 H391 0.931 . S
U366 O367 2.454 . S
U366 O368 2.458 . S
U366 C369 2.984 . S
U366 C370 2.847 1_545 S
U366 C383 2.882 . S
U366 O384 2.441 1_545 S
U366 O385 2.420 1_545 S
U366 O386 2.455 . S
U366 O387 2.449 . S
O367 U366 2.454 . S
O367 C369 1.353 . S
O368 U366 2.458 . S
O368 C369 1.286 . S
C369 U366 2.984 . S
C369 O367 1.353 . S
C369 O368 1.286 . S
C369 C371 1.363 . S
C370 C360 1.465 . S
C370 U366 2.847 1_565 S
C370 O384 1.249 . S
C370 O385 1.202 . S
C371 C369 1.363 . S
C371 C373 1.408 . S
C371 C376 1.342 . S
C372 C373 1.310 . S
C372 C375 1.461 . S
C372 H392 0.932 . S
C373 C371 1.408 . S
C373 C372 1.310 . S
C373 H393 0.930 . S
C374 C375 1.474 . S
C374 C376 1.285 . S
C374 H394 0.929 . S
C375 C372 1.461 . S
C375 C374 1.474 . S
C376 C371 1.342 . S
C376 C374 1.285 . S
C376 H395 0.930 . S
C377 C380 1.424 . S
C377 C382 1.245 . S
C377 C383 1.428 . S
C378 C381 1.260 . S
C378 C382 1.477 . S
C378 H396 0.932 . S
C379 C380 1.384 . S
C379 C381 1.479 . S
C379 H397 0.929 . S
C380 C377 1.424 . S
C380 C379 1.384 . S
C380 H398 0.928 . S
C381 C378 1.260 . S
C381 C379 1.479 . S
C382 C377 1.245 . S
C382 C378 1.477 . S
C382 H399 0.932 . S
C383 U366 2.882 . S
C383 C377 1.428 . S
C383 O386 1.301 . S
C383 O387 1.282 . S
O384 U366 2.441 1_565 S
O384 C370 1.249 . S
O385 U366 2.420 1_565 S
O385 C370 1.202 . S
O386 U366 2.455 . S
O386 C383 1.301 . S
O387 U366 2.449 . S
O387 C383 1.282 . S
H388 C361 0.931 . S
H389 C363 0.929 . S
H390 C364 0.930 . S
H391 C365 0.931 . S
H392 C372 0.932 . S
H393 C373 0.930 . S
H394 C374 0.929 . S
H395 C376 0.930 . S
H396 C378 0.932 . S
H397 C379 0.929 . S
H398 C380 0.928 . S
H399 C382 0.932 . S
C400 C401 1.264 . S
C400 C405 1.479 . S
C400 C410 1.465 1_545 S
C401 C400 1.264 . S
C401 C403 1.339 . S
C401 H428 0.931 . S
C402 C403 1.395 . S
C402 C404 1.320 . S
C403 C401 1.339 . S
C403 C402 1.395 . S
C403 H429 0.929 . S
C404 C402 1.320 . S
C404 C405 1.405 . S
C404 H430 0.930 . S
C405 C400 1.479 . S
C405 C404 1.405 . S
C405 H431 0.931 . S
U406 O407 2.454 . S
U406 O408 2.458 . S
U406 C409 2.984 . S
U406 C410 2.847 . S
U406 C423 2.882 . S
U406 O424 2.441 . S
U406 O425 2.420 . S
U406 O426 2.455 . S
U406 O427 2.449 . S
O407 U406 2.454 . S
O407 C409 1.353 . S
O408 U406 2.458 . S
O408 C409 1.286 . S
C409 U406 2.984 . S
C409 O407 1.353 . S
C409 O408 1.286 . S
C409 C411 1.363 . S
C410 C400 1.465 1_565 S
C410 U406 2.847 . S
C410 O424 1.249 . S
C410 O425 1.202 . S
C411 C409 1.363 . S
C411 C413 1.408 . S
C411 C416 1.342 . S
C412 C413 1.310 . S
C412 C415 1.461 . S
C412 H432 0.932 . S
C413 C411 1.408 . S
C413 C412 1.310 . S
C413 H433 0.930 . S
C414 C415 1.474 . S
C414 C416 1.285 . S
C414 H434 0.929 . S
C415 C412 1.461 . S
C415 C414 1.474 . S
C416 C411 1.342 . S
C416 C414 1.285 . S
C416 H435 0.930 . S
C417 C420 1.424 . S
C417 C422 1.245 . S
C417 C423 1.428 . S
C418 C421 1.260 . S
C418 C422 1.477 . S
C418 H436 0.932 . S
C419 C420 1.384 . S
C419 C421 1.479 . S
C419 H437 0.929 . S
C420 C417 1.424 . S
C420 C419 1.384 . S
C420 H438 0.928 . S
C421 C418 1.260 . S
C421 C419 1.479 . S
C422 C417 1.245 . S
C422 C418 1.477 . S
C422 H439 0.932 . S
C423 U406 2.882 . S
C423 C417 1.428 . S
C423 O426 1.301 . S
C423 O427 1.282 . S
O424 U406 2.441 . S
O424 C410 1.249 . S
O425 U406 2.420 . S
O425 C410 1.202 . S
O426 U406 2.455 . S
O426 C423 1.301 . S
O427 U406 2.449 . S
O427 C423 1.282 . S
H428 C401 0.931 . S
H429 C403 0.929 . S
H430 C404 0.930 . S
H431 C405 0.931 . S
H432 C412 0.932 . S
H433 C413 0.930 . S
H434 C414 0.929 . S
H435 C416 0.930 . S
H436 C418 0.932 . S
H437 C419 0.929 . S
H438 C420 0.928 . S
H439 C422 0.932 . S
C440 C441 1.264 . S
C440 C445 1.479 . S
C440 C450 1.465 . S
C441 C440 1.264 . S
C441 C443 1.339 . S
C441 H468 0.931 . S
C442 C443 1.395 . S
C442 C444 1.320 . S
C443 C441 1.339 . S
C443 C442 1.395 . S
C443 H469 0.929 . S
C444 C442 1.320 . S
C444 C445 1.405 . S
C444 H470 0.970 . S
C445 C440 1.479 . S
C445 C444 1.405 . S
C445 H471 0.931 1_565 S
U446 O447 2.441 1_565 S
U446 O448 2.449 1_565 S
U446 C449 2.973 1_565 S
U446 C450 2.849 . S
U446 C463 2.892 . S
U446 O464 2.437 1_565 S
U446 O465 2.427 . S
U446 O466 2.460 . S
U446 O467 2.461 . S
O447 U446 2.441 1_545 S
O447 C449 1.353 . S
O448 U446 2.449 1_545 S
O448 C449 1.286 . S
C449 U446 2.973 1_545 S
C449 O447 1.353 . S
C449 O448 1.286 . S
C449 C451 1.363 . S
C450 C440 1.465 . S
C450 U446 2.849 . S
C450 O464 1.249 1_565 S
C450 O465 1.202 . S
C451 C449 1.363 . S
C451 C453 1.408 . S
C451 C456 1.342 . S
C452 C453 1.310 . S
C452 C455 1.461 . S
C452 H472 0.932 . S
C453 C451 1.408 . S
C453 C452 1.310 . S
C453 H473 0.930 . S
C454 C455 1.474 . S
C454 C456 1.285 . S
C454 H474 0.929 . S
C455 C452 1.461 . S
C455 C454 1.474 . S
C456 C451 1.342 . S
C456 C454 1.285 . S
C456 H475 0.930 . S
C457 C460 1.424 . S
C457 C462 1.245 . S
C457 C463 1.428 . S
C458 C461 1.260 . S
C458 C462 1.477 . S
C458 H476 0.932 . S
C459 C460 1.384 . S
C459 C461 1.479 . S
C459 H477 0.929 . S
C460 C457 1.424 . S
C460 C459 1.384 . S
C460 H478 0.928 . S
C461 C458 1.260 . S
C461 C459 1.479 . S
C462 C457 1.245 . S
C462 C458 1.477 . S
C462 H479 0.932 . S
C463 U446 2.892 . S
C463 C457 1.428 . S
C463 O466 1.301 . S
C463 O467 1.282 . S
O464 U446 2.437 1_545 S
O464 C450 1.249 1_545 S
O465 U446 2.427 . S
O465 C450 1.202 . S
O466 U446 2.460 . S
O466 C463 1.301 . S
O467 U446 2.461 . S
O467 C463 1.282 . S
H468 C441 0.931 . S
H469 C443 0.929 . S
H470 C444 0.970 . S
H471 C445 0.931 1_545 S
H472 C452 0.932 . S
H473 C453 0.930 . S
H474 C454 0.929 . S
H475 C456 0.930 . S
H476 C458 0.932 . S
H477 C459 0.929 . S
H478 C460 0.928 . S
H479 C462 0.932 . S
C480 C481 1.264 . S
C480 C485 1.479 . S
C480 C490 1.465 . S
C481 C480 1.264 . S
C481 C483 1.339 . S
C481 H508 0.931 . S
C482 C483 1.395 . S
C482 C484 1.320 . S
C483 C481 1.339 . S
C483 C482 1.395 . S
C483 H509 0.929 . S
C484 C482 1.320 . S
C484 C485 1.405 . S
C484 H510 0.930 . S
C485 C480 1.479 . S
C485 C484 1.405 . S
C485 H511 0.931 . S
U486 O487 2.454 . S
U486 O488 2.458 . S
U486 C489 2.984 . S
U486 C490 2.847 . S
U486 C503 2.882 . S
U486 O504 2.441 . S
U486 O505 2.420 . S
U486 O506 2.455 . S
U486 O507 2.449 . S
O487 U486 2.454 . S
O487 C489 1.353 . S
O488 U486 2.458 . S
O488 C489 1.286 . S
C489 U486 2.984 . S
C489 O487 1.353 . S
C489 O488 1.286 . S
C489 C491 1.363 . S
C490 C480 1.465 . S
C490 U486 2.847 . S
C490 O504 1.249 . S
C490 O505 1.202 . S
C491 C489 1.363 . S
C491 C493 1.489 . S
C491 C496 1.342 . S
C492 C493 1.192 1_556 S
C492 C495 1.461 . S
C492 H512 0.932 . S
C493 C491 1.489 . S
C493 C492 1.192 1_554 S
C493 H513 0.976 . S
C494 C495 1.474 . S
C494 C496 1.285 1_556 S
C494 H514 0.929 . S
C495 C492 1.461 . S
C495 C494 1.474 . S
C496 C491 1.342 . S
C496 C494 1.285 1_554 S
C496 H515 0.930 . S
C497 C500 1.424 . S
C497 C502 1.245 . S
C497 C503 1.428 . S
C498 C501 1.260 . S
C498 C502 1.477 . S
C498 H516 0.932 . S
C499 C500 1.384 . S
C499 C501 1.479 . S
C499 H517 0.929 . S
C500 C497 1.424 . S
C500 C499 1.384 . S
C500 H518 0.928 . S
C501 C498 1.260 . S
C501 C499 1.479 . S
C502 C497 1.245 . S
C502 C498 1.477 . S
C502 H519 0.932 . S
C503 U486 2.882 . S
C503 C497 1.428 . S
C503 O506 1.301 . S
C503 O507 1.282 . S
O504 U486 2.441 . S
O504 C490 1.249 . S
O505 U486 2.420 . S
O505 C490 1.202 . S
O506 U486 2.455 . S
O506 C503 1.301 . S
O507 U486 2.449 . S
O507 C503 1.282 . S
H508 C481 0.931 . S
H509 C483 0.929 . S
H510 C484 0.930 . S
H511 C485 0.931 . S
H512 C492 0.932 . S
H513 C493 0.976 . S
H514 C494 0.929 . S
H515 C496 0.930 . S
H516 C498 0.932 . S
H517 C499 0.929 . S
H518 C500 0.928 . S
H519 C502 0.932 . S
C520 C521 1.264 . S
C520 C525 1.479 . S
C520 C530 1.465 . S
C521 C520 1.264 . S
C521 C523 1.339 . S
C521 H548 0.931 . S
C522 C523 1.395 . S
C522 C524 1.320 . S
C523 C521 1.339 . S
C523 C522 1.395 . S
C523 H549 0.929 . S
C524 C522 1.320 . S
C524 C525 1.405 . S
C524 H550 0.930 . S
C525 C520 1.479 . S
C525 C524 1.405 . S
C525 H551 0.931 . S
U526 O527 2.454 . S
U526 O528 2.458 . S
U526 C529 2.984 . S
U526 C530 2.847 1_655 S
U526 C543 2.882 . S
U526 O544 2.441 1_655 S
U526 O545 2.420 1_655 S
U526 O546 2.455 . S
U526 O547 2.449 . S
O527 U526 2.454 . S
O527 C529 1.353 . S
O528 U526 2.458 . S
O528 C529 1.286 . S
C529 U526 2.984 . S
C529 O527 1.353 . S
C529 O528 1.286 . S
C529 C531 1.363 . S
C530 C520 1.465 . S
C530 U526 2.847 1_455 S
C530 O544 1.249 . S
C530 O545 1.202 . S
C531 C529 1.363 . S
C531 C533 1.408 . S
C531 C536 1.342 . S
C532 C533 1.310 . S
C532 C535 1.461 . S
C532 H552 0.932 . S
C533 C531 1.408 . S
C533 C532 1.310 . S
C533 H553 0.930 1_655 S
C534 C535 1.474 . S
C534 C536 1.285 . S
C534 H554 0.929 . S
C535 C532 1.461 . S
C535 C534 1.474 . S
C536 C531 1.342 . S
C536 C534 1.285 . S
C536 H555 0.930 . S
C537 C540 1.424 . S
C537 C542 1.245 . S
C537 C543 1.428 . S
C538 C541 1.260 . S
C538 C542 1.477 . S
C538 H556 0.932 . S
C539 C540 1.384 . S
C539 C541 1.479 . S
C539 H557 0.929 . S
C540 C537 1.424 . S
C540 C539 1.384 . S
C540 H558 0.928 . S
C541 C538 1.260 . S
C541 C539 1.479 . S
C542 C537 1.245 . S
C542 C538 1.477 . S
C542 H559 0.932 . S
C543 U526 2.882 . S
C543 C537 1.428 . S
C543 O546 1.301 . S
C543 O547 1.282 . S
O544 U526 2.441 1_455 S
O544 C530 1.249 . S
O545 U526 2.420 1_455 S
O545 C530 1.202 . S
O546 U526 2.455 . S
O546 C543 1.301 . S
O547 U526 2.449 . S
O547 C543 1.282 . S
H548 C521 0.931 . S
H549 C523 0.929 . S
H550 C524 0.930 . S
H551 C525 0.931 . S
H552 C532 0.932 . S
H553 C533 0.930 1_455 S
H554 C534 0.929 . S
H555 C536 0.930 . S
H556 C538 0.932 . S
H557 C539 0.929 . S
H558 C540 0.928 . S
H559 C542 0.932 . S
C560 C561 1.264 . S
C560 C565 1.479 . S
C560 C570 1.465 . S
C561 C560 1.264 . S
C561 C563 1.339 . S
C561 H588 0.931 . S
C562 C563 1.395 . S
C562 C564 1.320 . S
C563 C561 1.339 . S
C563 C562 1.395 . S
C563 H589 0.929 . S
C564 C562 1.320 . S
C564 C565 1.405 . S
C564 H590 0.930 . S
C565 C560 1.479 . S
C565 C564 1.405 . S
C565 H591 0.931 . S
U566 O567 2.454 . S
U566 O568 2.458 . S
U566 C569 2.984 . S
U566 C570 2.847 . S
U566 C583 2.882 . S
U566 O584 2.441 . S
U566 O585 2.420 . S
U566 O586 2.455 . S
U566 O587 2.449 . S
O567 U566 2.454 . S
O567 C569 1.353 . S
O568 U566 2.458 . S
O568 C569 1.286 . S
C569 U566 2.984 . S
C569 O567 1.353 . S
C569 O568 1.286 . S
C569 C571 1.363 . S
C570 C560 1.465 . S
C570 U566 2.847 . S
C570 O584 1.249 . S
C570 O585 1.202 . S
C571 C569 1.363 . S
C571 C573 1.408 . S
C571 C576 1.342 . S
C572 C573 1.310 . S
C572 C575 1.461 . S
C572 H592 0.932 . S
C573 C571 1.408 . S
C573 C572 1.310 . S
C573 H593 0.930 . S
C574 C575 1.474 . S
C574 C576 1.285 . S
C574 H594 0.929 . S
C575 C572 1.461 . S
C575 C574 1.474 . S
C576 C571 1.342 . S
C576 C574 1.285 . S
C576 H595 0.930 . S
C577 C580 1.424 . S
C577 C582 1.245 . S
C577 C583 1.428 . S
C578 C581 1.260 . S
C578 C582 1.477 . S
C578 H596 0.932 . S
C579 C580 1.384 . S
C579 C581 1.479 . S
C579 H597 0.929 . S
C580 C577 1.424 . S
C580 C579 1.384 . S
C580 H598 0.928 . S
C581 C578 1.260 . S
C581 C579 1.479 . S
C582 C577 1.245 . S
C582 C578 1.477 . S
C582 H599 0.932 . S
C583 U566 2.882 . S
C583 C577 1.428 . S
C583 O586 1.301 . S
C583 O587 1.282 . S
O584 U566 2.441 . S
O584 C570 1.249 . S
O585 U566 2.420 . S
O585 C570 1.202 . S
O586 U566 2.455 . S
O586 C583 1.301 . S
O587 U566 2.449 . S
O587 C583 1.282 . S
H588 C561 0.931 . S
H589 C563 0.929 . S
H590 C564 0.930 . S
H591 C565 0.931 . S
H592 C572 0.932 . S
H593 C573 0.930 . S
H594 C574 0.929 . S
H595 C576 0.930 . S
H596 C578 0.932 . S
H597 C579 0.929 . S
H598 C580 0.928 . S
H599 C582 0.932 . S
C600 C601 1.264 . S
C600 C605 1.479 . S
C600 C610 1.465 . S
C601 C600 1.264 . S
C601 C603 1.339 . S
C601 H628 0.931 . S
C602 C603 1.395 . S
C602 C604 1.320 . S
C603 C601 1.339 . S
C603 C602 1.395 . S
C603 H629 0.929 . S
C604 C602 1.320 . S
C604 C605 1.405 . S
C604 H630 0.930 . S
C605 C600 1.479 . S
C605 C604 1.405 . S
C605 H631 0.931 1_655 S
U606 O607 2.454 . S
U606 O608 2.458 . S
U606 C609 2.984 . S
U606 C610 2.847 1_455 S
U606 C623 2.882 1_455 S
U606 O624 2.441 . S
U606 O625 2.420 1_455 S
U606 O626 2.455 . S
U606 O627 2.449 1_455 S
O607 U606 2.454 . S
O607 C609 1.353 . S
O608 U606 2.458 . S
O608 C609 1.286 . S
C609 U606 2.984 . S
C609 O607 1.353 . S
C609 O608 1.286 . S
C609 C611 1.363 . S
C610 C600 1.465 . S
C610 U606 2.847 1_655 S
C610 O624 1.249 1_655 S
C610 O625 1.202 . S
C611 C609 1.363 . S
C611 C613 1.408 . S
C611 C616 1.342 . S
C612 C613 1.310 . S
C612 C615 1.461 . S
C612 H632 0.932 . S
C613 C611 1.408 . S
C613 C612 1.310 . S
C613 H633 0.930 . S
C614 C615 1.474 . S
C614 C616 1.285 . S
C614 H634 0.929 . S
C615 C612 1.461 . S
C615 C614 1.474 . S
C616 C611 1.342 . S
C616 C614 1.285 . S
C616 H635 0.930 . S
C617 C620 1.424 . S
C617 C622 1.245 . S
C617 C623 1.428 . S
C618 C621 1.260 . S
C618 C622 1.477 . S
C618 H636 0.932 . S
C619 C620 1.384 . S
C619 C621 1.479 . S
C619 H637 0.929 . S
C620 C617 1.424 . S
C620 C619 1.384 . S
C620 H638 0.928 . S
C621 C618 1.260 . S
C621 C619 1.479 . S
C622 C617 1.245 . S
C622 C618 1.477 . S
C622 H639 0.932 . S
C623 U606 2.882 1_655 S
C623 C617 1.428 . S
C623 O626 1.301 1_655 S
C623 O627 1.282 . S
O624 U606 2.441 . S
O624 C610 1.249 1_455 S
O625 U606 2.420 1_655 S
O625 C610 1.202 . S
O626 U606 2.455 . S
O626 C623 1.301 1_455 S
O627 U606 2.449 1_655 S
O627 C623 1.282 . S
H628 C601 0.931 . S
H629 C603 0.929 . S
H630 C604 0.930 . S
H631 C605 0.931 1_455 S
H632 C612 0.932 . S
H633 C613 0.930 . S
H634 C614 0.929 . S
H635 C616 0.930 . S
H636 C618 0.932 . S
H637 C619 0.929 . S
H638 C620 0.928 . S
H639 C622 0.932 . S
C640 C641 1.264 . S
C640 C645 1.479 . S
C640 C650 1.465 . S
C641 C640 1.264 . S
C641 C643 1.339 . S
C641 H668 0.931 . S
C642 C643 1.395 . S
C642 C644 1.320 . S
C643 C641 1.339 . S
C643 C642 1.395 . S
C643 H669 0.929 . S
C644 C642 1.320 . S
C644 C645 1.405 . S
C644 H670 0.930 . S
C645 C640 1.479 . S
C645 C644 1.405 . S
C645 H671 0.931 . S
U646 O647 2.454 . S
U646 O648 2.458 . S
U646 C649 2.984 . S
U646 C650 2.847 . S
U646 C663 2.882 . S
U646 O664 2.441 . S
U646 O665 2.420 . S
U646 O666 2.455 . S
U646 O667 2.449 . S
O647 U646 2.454 . S
O647 C649 1.353 . S
O648 U646 2.458 . S
O648 C649 1.286 . S
C649 U646 2.984 . S
C649 O647 1.353 . S
C649 O648 1.286 . S
C649 C651 1.363 . S
C650 C640 1.465 . S
C650 U646 2.847 . S
C650 O664 1.249 . S
C650 O665 1.202 . S
C651 C649 1.363 . S
C651 C653 1.408 . S
C651 C656 1.342 . S
C652 C653 1.310 . S
C652 C655 1.461 . S
C652 H672 0.932 . S
C653 C651 1.408 . S
C653 C652 1.310 . S
C653 H673 0.930 . S
C654 C655 1.474 . S
C654 C656 1.285 . S
C654 H674 0.929 . S
C655 C652 1.461 . S
C655 C654 1.474 . S
C656 C651 1.342 . S
C656 C654 1.285 . S
C656 H675 0.930 . S
C657 C660 1.424 . S
C657 C662 1.245 . S
C657 C663 1.428 . S
C658 C661 1.260 . S
C658 C662 1.477 . S
C658 H676 0.932 . S
C659 C660 1.384 . S
C659 C661 1.479 . S
C659 H677 0.929 . S
C660 C657 1.424 . S
C660 C659 1.384 . S
C660 H678 0.928 . S
C661 C658 1.260 . S
C661 C659 1.479 . S
C662 C657 1.245 . S
C662 C658 1.477 . S
C662 H679 0.932 . S
C663 U646 2.882 . S
C663 C657 1.428 . S
C663 O666 1.301 . S
C663 O667 1.282 . S
O664 U646 2.441 . S
O664 C650 1.249 . S
O665 U646 2.420 . S
O665 C650 1.202 . S
O666 U646 2.455 . S
O666 C663 1.301 . S
O667 U646 2.449 . S
O667 C663 1.282 . S
H668 C641 0.931 . S
H669 C643 0.929 . S
H670 C644 0.930 . S
H671 C645 0.931 . S
H672 C652 0.932 . S
H673 C653 0.930 . S
H674 C654 0.929 . S
H675 C656 0.930 . S
H676 C658 0.932 . S
H677 C659 0.929 . S
H678 C660 0.928 . S
H679 C662 0.932 . S
C680 C681 1.264 . S
C680 C685 1.479 . S
C680 C690 1.465 . S
C681 C680 1.264 . S
C681 C683 1.339 . S
C681 H708 0.931 . S
C682 C683 1.395 . S
C682 C684 1.320 . S
C683 C681 1.339 . S
C683 C682 1.395 . S
C683 H709 0.929 . S
C684 C682 1.320 . S
C684 C685 1.405 . S
C684 H710 0.930 . S
C685 C680 1.479 . S
C685 C684 1.405 . S
C685 H711 0.931 . S
U686 O687 2.454 . S
U686 O688 2.458 . S
U686 C689 2.984 . S
U686 C690 2.847 . S
U686 C703 2.882 . S
U686 O704 2.441 . S
U686 O705 2.420 . S
U686 O706 2.455 . S
U686 O707 2.449 . S
O687 U686 2.454 . S
O687 C689 1.353 . S
O688 U686 2.458 . S
O688 C689 1.286 . S
C689 U686 2.984 . S
C689 O687 1.353 . S
C689 O688 1.286 . S
C689 C691 1.363 . S
C690 C680 1.465 . S
C690 U686 2.847 . S
C690 O704 1.249 . S
C690 O705 1.202 . S
C691 C689 1.363 . S
C691 C693 1.408 . S
C691 C696 1.342 . S
C692 C693 1.310 . S
C692 C695 1.461 . S
C692 H712 0.932 . S
C693 C691 1.408 . S
C693 C692 1.310 . S
C693 H713 0.930 . S
C694 C695 1.474 . S
C694 C696 1.285 . S
C694 H714 0.929 . S
C695 C692 1.461 . S
C695 C694 1.474 . S
C696 C691 1.342 . S
C696 C694 1.285 . S
C696 H715 0.930 . S
C697 C700 1.424 . S
C697 C702 1.245 . S
C697 C703 1.428 . S
C698 C701 1.260 . S
C698 C702 1.477 . S
C698 H716 0.932 . S
C699 C700 1.384 . S
C699 C701 1.479 . S
C699 H717 0.929 . S
C700 C697 1.424 . S
C700 C699 1.384 . S
C700 H718 0.928 . S
C701 C698 1.260 . S
C701 C699 1.479 . S
C702 C697 1.245 . S
C702 C698 1.477 . S
C702 H719 0.932 . S
C703 U686 2.882 . S
C703 C697 1.428 . S
C703 O706 1.301 . S
C703 O707 1.282 . S
O704 U686 2.441 . S
O704 C690 1.249 . S
O705 U686 2.420 . S
O705 C690 1.202 . S
O706 U686 2.455 . S
O706 C703 1.301 . S
O707 U686 2.449 . S
O707 C703 1.282 . S
H708 C681 0.931 . S
H709 C683 0.929 . S
H710 C684 0.930 . S
H711 C685 0.931 . S
H712 C692 0.932 . S
H713 C693 0.930 . S
H714 C694 0.929 . S
H715 C696 0.930 . S
H716 C698 0.932 . S
H717 C699 0.929 . S
H718 C700 0.928 . S
H719 C702 0.932 . S
C720 C721 1.264 . S
C720 C725 1.479 . S
C720 C730 1.465 . S
C721 C720 1.264 . S
C721 C723 1.339 . S
C721 H748 0.931 . S
C722 C723 1.395 . S
C722 C724 1.320 . S
C723 C721 1.339 . S
C723 C722 1.395 . S
C723 H749 0.929 . S
C724 C722 1.320 . S
C724 C725 1.405 . S
C724 H750 0.930 . S
C725 C720 1.479 . S
C725 C724 1.405 . S
C725 H751 0.931 . S
U726 O727 2.454 . S
U726 O728 2.458 . S
U726 C729 2.984 . S
U726 C730 2.847 . S
U726 C743 2.882 . S
U726 O744 2.441 . S
U726 O745 2.420 . S
U726 O746 2.455 . S
U726 O747 2.449 . S
O727 U726 2.454 . S
O727 C729 1.353 . S
O728 U726 2.458 . S
O728 C729 1.286 . S
C729 U726 2.984 . S
C729 O727 1.353 . S
C729 O728 1.286 . S
C729 C731 1.363 . S
C730 C720 1.465 . S
C730 U726 2.847 . S
C730 O744 1.249 . S
C730 O745 1.202 . S
C731 C729 1.363 . S
C731 C733 1.408 1_556 S
C731 C736 1.345 . S
C732 C733 1.310 . S
C732 C735 1.461 . S
C732 H752 0.932 . S
C733 C731 1.408 1_554 S
C733 C732 1.310 . S
C733 H753 0.930 . S
C734 C735 1.474 . S
C734 C736 1.265 1_554 S
C734 H754 0.929 . S
C735 C732 1.461 . S
C735 C734 1.474 . S
C736 C731 1.345 . S
C736 C734 1.265 1_556 S
C736 H755 0.948 . S
C737 C740 1.424 . S
C737 C742 1.245 . S
C737 C743 1.428 . S
C738 C741 1.260 . S
C738 C742 1.477 . S
C738 H756 0.932 . S
C739 C740 1.384 . S
C739 C741 1.479 . S
C739 H757 0.929 . S
C740 C737 1.424 . S
C740 C739 1.384 . S
C740 H758 0.928 . S
C741 C738 1.260 . S
C741 C739 1.479 . S
C742 C737 1.245 . S
C742 C738 1.477 . S
C742 H759 0.932 . S
C743 U726 2.882 . S
C743 C737 1.428 . S
C743 O746 1.301 . S
C743 O747 1.282 . S
O744 U726 2.441 . S
O744 C730 1.249 . S
O745 U726 2.420 . S
O745 C730 1.202 . S
O746 U726 2.455 . S
O746 C743 1.301 . S
O747 U726 2.449 . S
O747 C743 1.282 . S
H748 C721 0.931 . S
H749 C723 0.929 . S
H750 C724 0.930 . S
H751 C725 0.931 . S
H752 C732 0.932 . S
H753 C733 0.930 . S
H754 C734 0.929 . S
H755 C736 0.948 . S
H756 C738 0.932 . S
H757 C739 0.929 . S
H758 C740 0.928 . S
H759 C742 0.932 . S
C760 C761 1.253 1_655 S
C760 C765 1.433 1_655 S
C760 C770 1.523 . S
C761 C760 1.253 1_455 S
C761 C763 1.339 . S
C761 H788 0.931 1_455 S
C762 C763 1.395 . S
C762 C764 1.320 . S
C763 C761 1.339 . S
C763 C762 1.395 . S
C763 H789 0.929 . S
C764 C762 1.320 . S
C764 C765 1.405 . S
C764 H790 0.930 . S
C765 C760 1.433 1_455 S
C765 C764 1.405 . S
C765 H791 0.931 . S
U766 O767 2.454 . S
U766 O768 2.458 . S
U766 C769 2.984 . S
U766 C770 2.847 . S
U766 C783 2.882 . S
U766 O784 2.441 . S
U766 O785 2.420 . S
U766 O786 2.455 . S
U766 O787 2.449 . S
O767 U766 2.454 . S
O767 C769 1.353 . S
O768 U766 2.458 . S
O768 C769 1.286 . S
C769 U766 2.984 . S
C769 O767 1.353 . S
C769 O768 1.286 . S
C769 C771 1.363 . S
C770 C760 1.523 . S
C770 U766 2.847 . S
C770 O784 1.249 . S
C770 O785 1.202 . S
C771 C769 1.363 . S
C771 C773 1.408 . S
C771 C776 1.342 . S
C772 C773 1.310 . S
C772 C775 1.461 . S
C772 H792 0.932 . S
C773 C771 1.408 . S
C773 C772 1.310 . S
C773 H793 0.930 . S
C774 C775 1.474 . S
C774 C776 1.285 . S
C774 H794 0.929 . S
C775 C772 1.461 . S
C775 C774 1.474 . S
C776 C771 1.342 . S
C776 C774 1.285 . S
C776 H795 0.930 . S
C777 C780 1.424 . S
C777 C782 1.245 . S
C777 C783 1.428 . S
C778 C781 1.260 . S
C778 C782 1.477 . S
C778 H796 0.932 . S
C779 C780 1.384 . S
C779 C781 1.479 . S
C779 H797 0.929 . S
C780 C777 1.424 . S
C780 C779 1.384 . S
C780 H798 0.928 . S
C781 C778 1.260 . S
C781 C779 1.479 . S
C782 C777 1.245 . S
C782 C778 1.477 . S
C782 H799 0.932 . S
C783 U766 2.882 . S
C783 C777 1.428 . S
C783 O786 1.301 . S
C783 O787 1.282 . S
O784 U766 2.441 . S
O784 C770 1.249 . S
O785 U766 2.420 . S
O785 C770 1.202 . S
O786 U766 2.455 . S
O786 C783 1.301 . S
O787 U766 2.449 . S
O787 C783 1.282 . S
H788 C761 0.931 1_655 S
H789 C763 0.929 . S
H790 C764 0.930 . S
H791 C765 0.931 . S
H792 C772 0.932 . S
H793 C773 0.930 . S
H794 C774 0.929 . S
H795 C776 0.930 . S
H796 C778 0.932 . S
H797 C779 0.929 . S
H798 C780 0.928 . S
H799 C782 0.932 . S
C800 C801 1.264 . S
C800 C805 1.479 . S
C800 C810 1.465 . S
C801 C800 1.264 . S
C801 C803 1.339 . S
C801 H828 0.931 . S
C802 C803 1.395 . S
C802 C804 1.320 . S
C803 C801 1.339 . S
C803 C802 1.395 . S
C803 H829 0.929 . S
C804 C802 1.320 . S
C804 C805 1.405 . S
C804 H830 0.930 . S
C805 C800 1.479 . S
C805 C804 1.405 . S
C805 H831 0.931 . S
U806 O807 2.454 . S
U806 O808 2.458 . S
U806 C809 2.984 . S
U806 C810 2.847 . S
U806 C823 2.882 . S
U806 O824 2.441 . S
U806 O825 2.420 . S
U806 O826 2.455 . S
U806 O827 2.449 . S
O807 U806 2.454 . S
O807 C809 1.353 . S
O808 U806 2.458 . S
O808 C809 1.286 . S
C809 U806 2.984 . S
C809 O807 1.353 . S
C809 O808 1.286 . S
C809 C811 1.363 . S
C810 C800 1.465 . S
C810 U806 2.847 . S
C810 O824 1.249 . S
C810 O825 1.202 . S
C811 C809 1.363 . S
C811 C813 1.408 . S
C811 C816 1.342 . S
C812 C813 1.310 . S
C812 C815 1.461 . S
C812 H832 0.932 . S
C813 C811 1.408 . S
C813 C812 1.310 . S
C813 H833 0.930 . S
C814 C815 1.474 . S
C814 C816 1.285 . S
C814 H834 0.929 . S
C815 C812 1.461 . S
C815 C814 1.474 . S
C816 C811 1.342 . S
C816 C814 1.285 . S
C816 H835 0.930 . S
C817 C820 1.424 . S
C817 C822 1.245 . S
C817 C823 1.428 . S
C818 C821 1.260 . S
C818 C822 1.477 . S
C818 H836 0.932 . S
C819 C820 1.384 . S
C819 C821 1.479 . S
C819 H837 0.929 . S
C820 C817 1.424 . S
C820 C819 1.384 . S
C820 H838 0.928 . S
C821 C818 1.260 . S
C821 C819 1.479 . S
C822 C817 1.245 . S
C822 C818 1.477 . S
C822 H839 0.932 . S
C823 U806 2.882 . S
C823 C817 1.428 . S
C823 O826 1.301 . S
C823 O827 1.282 . S
O824 U806 2.441 . S
O824 C810 1.249 . S
O825 U806 2.420 . S
O825 C810 1.202 . S
O826 U806 2.455 . S
O826 C823 1.301 . S
O827 U806 2.449 . S
O827 C823 1.282 . S
H828 C801 0.931 . S
H829 C803 0.929 . S
H830 C804 0.930 . S
H831 C805 0.931 . S
H832 C812 0.932 . S
H833 C813 0.930 . S
H834 C814 0.929 . S
H835 C816 0.930 . S
H836 C818 0.932 . S
H837 C819 0.929 . S
H838 C820 0.928 . S
H839 C822 0.932 . S
C840 C841 1.264 . S
C840 C845 1.479 . S
C840 C850 1.465 . S
C841 C840 1.264 . S
C841 C843 1.339 . S
C841 H868 0.931 . S
C842 C843 1.395 . S
C842 C844 1.320 . S
C843 C841 1.339 . S
C843 C842 1.395 . S
C843 H869 0.929 . S
C844 C842 1.320 . S
C844 C845 1.405 . S
C844 H870 0.930 . S
C845 C840 1.479 . S
C845 C844 1.405 . S
C845 H871 0.931 . S
U846 O847 2.454 . S
U846 O848 2.458 . S
U846 C849 2.984 . S
U846 C850 2.847 . S
U846 C863 2.882 . S
U846 O864 2.441 . S
U846 O865 2.420 . S
U846 O866 2.455 . S
U846 O867 2.449 . S
O847 U846 2.454 . S
O847 C849 1.353 . S
O848 U846 2.458 . S
O848 C849 1.286 . S
C849 U846 2.984 . S
C849 O847 1.353 . S
C849 O848 1.286 . S
C849 C851 1.363 . S
C850 C840 1.465 . S
C850 U846 2.847 . S
C850 O864 1.249 . S
C850 O865 1.202 . S
C851 C849 1.363 . S
C851 C853 1.408 . S
C851 C856 1.342 . S
C852 C853 1.310 . S
C852 C855 1.461 . S
C852 H872 0.932 . S
C853 C851 1.408 . S
C853 C852 1.310 . S
C853 H873 0.930 . S
C854 C855 1.474 . S
C854 C856 1.285 . S
C854 H874 0.929 . S
C855 C852 1.461 . S
C855 C854 1.474 . S
C856 C851 1.342 . S
C856 C854 1.285 . S
C856 H875 0.930 . S
C857 C860 1.424 . S
C857 C862 1.245 . S
C857 C863 1.428 . S
C858 C861 1.260 . S
C858 C862 1.477 . S
C858 H876 0.932 . S
C859 C860 1.384 . S
C859 C861 1.479 . S
C859 H877 0.929 . S
C860 C857 1.424 . S
C860 C859 1.384 . S
C860 H878 0.928 . S
C861 C858 1.260 . S
C861 C859 1.479 . S
C862 C857 1.245 . S
C862 C858 1.477 . S
C862 H879 0.932 . S
C863 U846 2.882 . S
C863 C857 1.428 . S
C863 O866 1.301 . S
C863 O867 1.282 . S
O864 U846 2.441 . S
O864 C850 1.249 . S
O865 U846 2.420 . S
O865 C850 1.202 . S
O866 U846 2.455 . S
O866 C863 1.301 . S
O867 U846 2.449 . S
O867 C863 1.282 . S
H868 C841 0.931 . S
H869 C843 0.929 . S
H870 C844 0.930 . S
H871 C845 0.931 . S
H872 C852 0.932 . S
H873 C853 0.930 . S
H874 C854 0.929 . S
H875 C856 0.930 . S
H876 C858 0.932 . S
H877 C859 0.929 . S
H878 C860 0.928 . S
H879 C862 0.932 . S
C880 C881 1.264 . S
C880 C885 1.479 . S
C880 C890 1.465 . S
C881 C880 1.264 . S
C881 C883 1.339 . S
C881 H908 0.931 . S
C882 C883 1.395 . S
C882 C884 1.320 . S
C883 C881 1.339 . S
C883 C882 1.395 . S
C883 H909 0.929 . S
C884 C882 1.320 . S
C884 C885 1.405 . S
C884 H910 0.930 . S
C885 C880 1.479 . S
C885 C884 1.405 . S
C885 H911 0.931 . S
U886 O887 2.454 . S
U886 O888 2.458 . S
U886 C889 2.984 . S
U886 C890 2.847 . S
U886 C903 2.882 . S
U886 O904 2.441 . S
U886 O905 2.420 . S
U886 O906 2.455 . S
U886 O907 2.449 . S
O887 U886 2.454 . S
O887 C889 1.353 . S
O888 U886 2.458 . S
O888 C889 1.286 . S
C889 U886 2.984 . S
C889 O887 1.353 . S
C889 O888 1.286 . S
C889 C891 1.363 . S
C890 C880 1.465 . S
C890 U886 2.847 . S
C890 O904 1.249 . S
C890 O905 1.202 . S
C891 C889 1.363 . S
C891 C893 1.408 . S
C891 C896 1.342 . S
C892 C893 1.310 . S
C892 C895 1.461 . S
C892 H912 0.932 . S
C893 C891 1.408 . S
C893 C892 1.310 . S
C893 H913 0.930 . S
C894 C895 1.474 . S
C894 C896 1.285 . S
C894 H914 0.929 . S
C895 C892 1.461 . S
C895 C894 1.474 . S
C896 C891 1.342 . S
C896 C894 1.285 . S
C896 H915 0.930 . S
C897 C900 1.424 . S
C897 C902 1.245 . S
C897 C903 1.428 . S
C898 C901 1.260 . S
C898 C902 1.477 . S
C898 H916 0.932 . S
C899 C900 1.384 . S
C899 C901 1.479 . S
C899 H917 0.929 . S
C900 C897 1.424 . S
C900 C899 1.384 . S
C900 H918 0.928 . S
C901 C898 1.260 . S
C901 C899 1.479 . S
C902 C897 1.245 . S
C902 C898 1.477 . S
C902 H919 0.932 . S
C903 U886 2.882 . S
C903 C897 1.428 . S
C903 O906 1.301 . S
C903 O907 1.282 . S
O904 U886 2.441 . S
O904 C890 1.249 . S
O905 U886 2.420 . S
O905 C890 1.202 . S
O906 U886 2.455 . S
O906 C903 1.301 . S
O907 U886 2.449 . S
O907 C903 1.282 . S
H908 C881 0.931 . S
H909 C883 0.929 . S
H910 C884 0.930 . S
H911 C885 0.931 . S
H912 C892 0.932 . S
H913 C893 0.930 . S
H914 C894 0.929 . S
H915 C896 0.930 . S
H916 C898 0.932 . S
H917 C899 0.929 . S
H918 C900 0.928 . S
H919 C902 0.932 . S
C920 C921 1.264 . S
C920 C925 1.479 1_565 S
C920 C930 1.480 . S
C921 C920 1.264 . S
C921 C923 1.339 . S
C921 H948 0.931 . S
C922 C923 1.395 . S
C922 C924 1.320 1_565 S
C923 C921 1.339 . S
C923 C922 1.395 . S
C923 H949 0.929 . S
C924 C922 1.320 1_545 S
C924 C925 1.405 . S
C924 H950 0.930 . S
C925 C920 1.479 1_545 S
C925 C924 1.405 . S
C925 H951 0.931 . S
U926 O927 2.454 . S
U926 O928 2.458 . S
U926 C929 2.984 . S
U926 C930 2.837 1_545 S
U926 C943 2.882 1_545 S
U926 O944 2.441 . S
U926 O945 2.420 1_545 S
U926 O946 2.455 1_545 S
U926 O947 2.449 1_545 S
O927 U926 2.454 . S
O927 C929 1.353 . S
O928 U926 2.458 . S
O928 C929 1.286 . S
C929 U926 2.984 . S
C929 O927 1.353 . S
C929 O928 1.286 . S
C929 C931 1.363 . S
C930 C920 1.480 . S
C930 U926 2.837 1_565 S
C930 O944 1.210 1_565 S
C930 O945 1.230 . S
C931 C929 1.363 . S
C931 C933 1.408 . S
C931 C936 1.342 . S
C932 C933 1.310 . S
C932 C935 1.461 . S
C932 H952 0.932 . S
C933 C931 1.408 . S
C933 C932 1.310 . S
C933 H953 0.930 . S
C934 C935 1.474 . S
C934 C936 1.285 . S
C934 H954 0.929 . S
C935 C932 1.461 . S
C935 C934 1.474 . S
C936 C931 1.342 . S
C936 C934 1.285 . S
C936 H955 0.930 . S
C937 C940 1.424 . S
C937 C942 1.245 . S
C937 C943 1.428 . S
C938 C941 1.260 . S
C938 C942 1.477 . S
C938 H956 0.932 . S
C939 C940 1.384 . S
C939 C941 1.479 . S
C939 H957 0.929 . S
C940 C937 1.424 . S
C940 C939 1.384 . S
C940 H958 0.928 . S
C941 C938 1.260 . S
C941 C939 1.479 . S
C942 C937 1.245 . S
C942 C938 1.477 . S
C942 H959 0.932 . S
C943 U926 2.882 1_565 S
C943 C937 1.428 . S
C943 O946 1.301 . S
C943 O947 1.282 . S
O944 U926 2.441 . S
O944 C930 1.210 1_545 S
O945 U926 2.420 1_565 S
O945 C930 1.230 . S
O946 U926 2.455 1_565 S
O946 C943 1.301 . S
O947 U926 2.449 1_565 S
O947 C943 1.282 . S
H948 C921 0.931 . S
H949 C923 0.929 . S
H950 C924 0.930 . S
H951 C925 0.931 . S
H952 C932 0.932 . S
H953 C933 0.930 . S
H954 C934 0.929 . S
H955 C936 0.930 . S
H956 C938 0.932 . S
H957 C939 0.929 . S
H958 C940 0.928 . S
H959 C942 0.932 . S
C960 C961 1.264 . S
C960 C965 1.479 . S
C960 C970 1.465 . S
C961 C960 1.264 . S
C961 C963 1.339 . S
C961 H988 0.931 . S
C962 C963 1.395 . S
C962 C964 1.320 . S
C963 C961 1.339 . S
C963 C962 1.395 . S
C963 H989 0.929 . S
C964 C962 1.320 . S
C964 C965 1.405 . S
C964 H990 0.930 . S
C965 C960 1.479 . S
C965 C964 1.405 . S
C965 H991 0.823 1_565 S
U966 O967 2.512 . S
U966 O968 2.501 . S
U966 C969 3.041 . S
U966 C970 2.834 1_545 S
U966 C983 2.840 1_545 S
U966 O984 2.454 . S
U966 O985 2.385 1_545 S
U966 O986 2.436 1_545 S
U966 O987 2.393 1_545 S
O967 U966 2.512 . S
O967 C969 1.353 . S
O968 U966 2.501 . S
O968 C969 1.286 . S
C969 U966 3.041 . S
C969 O967 1.353 . S
C969 O968 1.286 . S
C969 C971 1.363 . S
C970 C960 1.465 . S
C970 U966 2.834 1_565 S
C970 O984 1.249 1_565 S
C970 O985 1.202 . S
C971 C969 1.363 . S
C971 C973 1.408 . S
C971 C976 1.342 . S
C972 C973 1.310 . S
C972 C975 1.461 . S
C972 H992 0.932 . S
C973 C971 1.408 . S
C973 C972 1.310 . S
C973 H993 0.930 . S
C974 C975 1.474 . S
C974 C976 1.285 . S
C974 H994 0.929 . S
C975 C972 1.461 . S
C975 C974 1.474 . S
C976 C971 1.342 . S
C976 C974 1.285 . S
C976 H995 0.930 . S
C977 C980 1.424 . S
C977 C982 1.245 . S
C977 C983 1.428 . S
C978 C981 1.260 . S
C978 C982 1.477 . S
C978 H996 0.932 . S
C979 C980 1.384 . S
C979 C981 1.479 . S
C979 H997 0.929 . S
C980 C977 1.424 . S
C980 C979 1.384 . S
C980 H998 0.928 . S
C981 C978 1.260 . S
C981 C979 1.479 . S
C982 C977 1.245 . S
C982 C978 1.477 . S
C982 H999 0.932 . S
C983 U966 2.840 1_565 S
C983 C977 1.428 . S
C983 O986 1.301 . S
C983 O987 1.282 . S
O984 U966 2.454 . S
O984 C970 1.249 1_545 S
O985 U966 2.385 1_565 S
O985 C970 1.202 . S
O986 U966 2.436 1_565 S
O986 C983 1.301 . S
O987 U966 2.393 1_565 S
O987 C983 1.282 . S
H988 C961 0.931 . S
H989 C963 0.929 . S
H990 C964 0.930 . S
H991 C965 0.823 1_545 S
H992 C972 0.932 . S
H993 C973 0.930 . S
H994 C974 0.929 . S
H995 C976 0.930 . S
H996 C978 0.932 . S
H997 C979 0.929 . S
H998 C980 0.928 . S
H999 C982 0.932 . S
C1000 C1001 1.264 . S
C1000 C1005 1.479 . S
C1000 C1010 1.465 . S
C1001 C1000 1.264 . S
C1001 C1003 1.339 . S
C1001 H1028 0.931 . S
C1002 C1003 1.395 . S
C1002 C1004 1.320 . S
C1003 C1001 1.339 . S
C1003 C1002 1.395 . S
C1003 H1029 0.929 . S
C1004 C1002 1.320 . S
C1004 C1005 1.405 . S
C1004 H1030 0.930 . S
C1005 C1000 1.479 . S
C1005 C1004 1.405 . S
C1005 H1031 0.931 . S
U1006 O1007 2.454 . S
U1006 O1008 2.458 1_565 S
U1006 C1009 2.984 1_565 S
U1006 C1010 2.847 . S
U1006 C1023 2.882 1_565 S
U1006 O1024 2.441 . S
U1006 O1025 2.420 . S
U1006 O1026 2.455 1_565 S
U1006 O1027 2.449 1_565 S
O1007 U1006 2.454 . S
O1007 C1009 1.353 1_565 S
O1008 U1006 2.458 1_545 S
O1008 C1009 1.286 . S
C1009 U1006 2.984 1_545 S
C1009 O1007 1.353 1_545 S
C1009 O1008 1.286 . S
C1009 C1011 1.363 . S
C1010 C1000 1.465 . S
C1010 U1006 2.847 . S
C1010 O1024 1.249 . S
C1010 O1025 1.202 . S
C1011 C1009 1.363 . S
C1011 C1013 1.408 1_545 S
C1011 C1016 1.342 . S
C1012 C1013 1.310 . S
C1012 C1015 1.461 1_565 S
C1012 H1032 0.932 . S
C1013 C1011 1.408 1_565 S
C1013 C1012 1.310 . S
C1013 H1033 0.930 . S
C1014 C1015 1.474 . S
C1014 C1016 1.285 . S
C1014 H1034 0.929 . S
C1015 C1012 1.461 1_545 S
C1015 C1014 1.474 . S
C1016 C1011 1.342 . S
C1016 C1014 1.285 . S
C1016 H1035 0.930 . S
C1017 C1020 1.424 . S
C1017 C1022 1.245 . S
C1017 C1023 1.428 . S
C1018 C1021 1.260 . S
C1018 C1022 1.477 . S
C1018 H1036 0.932 . S
C1019 C1020 1.384 . S
C1019 C1021 1.479 . S
C1019 H1037 0.929 . S
C1020 C1017 1.424 . S
C1020 C1019 1.384 . S
C1020 H1038 0.928 . S
C1021 C1018 1.260 . S
C1021 C1019 1.479 . S
C1022 C1017 1.245 . S
C1022 C1018 1.477 . S
C1022 H1039 0.932 . S
C1023 U1006 2.882 1_545 S
C1023 C1017 1.428 . S
C1023 O1026 1.301 . S
C1023 O1027 1.282 . S
O1024 U1006 2.441 . S
O1024 C1010 1.249 . S
O1025 U1006 2.420 . S
O1025 C1010 1.202 . S
O1026 U1006 2.455 1_545 S
O1026 C1023 1.301 . S
O1027 U1006 2.449 1_545 S
O1027 C1023 1.282 . S
H1028 C1001 0.931 . S
H1029 C1003 0.929 . S
H1030 C1004 0.930 . S
H1031 C1005 0.931 . S
H1032 C1012 0.932 . S
H1033 C1013 0.930 . S
H1034 C1014 0.929 . S
H1035 C1016 0.930 . S
H1036 C1018 0.932 . S
H1037 C1019 0.929 . S
H1038 C1020 0.928 . S
H1039 C1022 0.932 . S
C1040 C1041 1.264 . S
C1040 C1045 1.479 . S
C1040 C1050 1.465 . S
C1041 C1040 1.264 . S
C1041 C1043 1.339 . S
C1041 H1068 0.931 . S
C1042 C1043 1.395 . S
C1042 C1044 1.320 . S
C1043 C1041 1.339 . S
C1043 C1042 1.395 . S
C1043 H1069 0.929 . S
C1044 C1042 1.320 . S
C1044 C1045 1.405 . S
C1044 H1070 0.930 . S
C1045 C1040 1.479 . S
C1045 C1044 1.405 . S
C1045 H1071 0.931 . S
U1046 O1047 2.449 1_545 S
U1046 O1048 2.475 . S
U1046 C1049 2.991 . S
U1046 C1050 2.821 1_545 S
U1046 C1063 2.902 . S
U1046 O1064 2.414 1_545 S
U1046 O1065 2.400 1_545 S
U1046 O1066 2.480 . S
U1046 O1067 2.458 . S
O1047 U1046 2.449 1_565 S
O1047 C1049 1.353 1_565 S
O1048 U1046 2.475 . S
O1048 C1049 1.286 . S
C1049 U1046 2.991 . S
C1049 O1047 1.353 1_545 S
C1049 O1048 1.286 . S
C1049 C1051 1.363 . S
C1050 C1040 1.465 . S
C1050 U1046 2.821 1_565 S
C1050 O1064 1.249 . S
C1050 O1065 1.202 . S
C1051 C1049 1.363 . S
C1051 C1053 1.408 . S
C1051 C1056 1.342 . S
C1052 C1053 1.310 . S
C1052 C1055 1.461 . S
C1052 H1072 0.932 . S
C1053 C1051 1.408 . S
C1053 C1052 1.310 . S
C1053 H1073 0.930 1_545 S
C1054 C1055 1.474 . S
C1054 C1056 1.285 . S
C1054 H1074 0.929 . S
C1055 C1052 1.461 . S
C1055 C1054 1.474 . S
C1056 C1051 1.342 . S
C1056 C1054 1.285 . S
C1056 H1075 0.930 . S
C1057 C1060 1.424 . S
C1057 C1062 1.245 . S
C1057 C1063 1.428 . S
C1058 C1061 1.260 . S
C1058 C1062 1.477 . S
C1058 H1076 0.932 . S
C1059 C1060 1.384 . S
C1059 C1061 1.479 . S
C1059 H1077 0.929 . S
C1060 C1057 1.424 . S
C1060 C1059 1.384 . S
C1060 H1078 0.928 . S
C1061 C1058 1.260 . S
C1061 C1059 1.479 . S
C1062 C1057 1.245 . S
C1062 C1058 1.477 . S
C1062 H1079 0.932 . S
C1063 U1046 2.902 . S
C1063 C1057 1.428 . S
C1063 O1066 1.301 . S
C1063 O1067 1.282 . S
O1064 U1046 2.414 1_565 S
O1064 C1050 1.249 . S
O1065 U1046 2.400 1_565 S
O1065 C1050 1.202 . S
O1066 U1046 2.480 . S
O1066 C1063 1.301 . S
O1067 U1046 2.458 . S
O1067 C1063 1.282 . S
H1068 C1041 0.931 . S
H1069 C1043 0.929 . S
H1070 C1044 0.930 . S
H1071 C1045 0.931 . S
H1072 C1052 0.932 . S
H1073 C1053 0.930 1_565 S
H1074 C1054 0.929 . S
H1075 C1056 0.930 . S
H1076 C1058 0.932 . S
H1077 C1059 0.929 . S
H1078 C1060 0.928 . S
H1079 C1062 0.932 . S
C1080 C1081 1.264 . S
C1080 C1085 1.479 . S
C1080 C1090 1.465 . S
C1081 C1080 1.264 . S
C1081 C1083 1.339 . S
C1081 H1108 0.931 . S
C1082 C1083 1.395 . S
C1082 C1084 1.320 . S
C1083 C1081 1.339 . S
C1083 C1082 1.395 . S
C1083 H1109 0.929 . S
C1084 C1082 1.320 . S
C1084 C1085 1.405 . S
C1084 H1110 0.930 . S
C1085 C1080 1.479 . S
C1085 C1084 1.405 . S
C1085 H1111 0.931 . S
U1086 O1087 2.454 . S
U1086 O1088 2.458 . S
U1086 C1089 2.984 . S
U1086 C1090 2.847 . S
U1086 C1103 2.882 . S
U1086 O1104 2.441 . S
U1086 O1105 2.420 . S
U1086 O1106 2.455 . S
U1086 O1107 2.449 . S
O1087 U1086 2.454 . S
O1087 C1089 1.353 . S
O1088 U1086 2.458 . S
O1088 C1089 1.286 . S
C1089 U1086 2.984 . S
C1089 O1087 1.353 . S
C1089 O1088 1.286 . S
C1089 C1091 1.363 . S
C1090 C1080 1.465 . S
C1090 U1086 2.847 . S
C1090 O1104 1.249 . S
C1090 O1105 1.202 . S
C1091 C1089 1.363 . S
C1091 C1093 1.408 . S
C1091 C1096 1.342 . S
C1092 C1093 1.310 . S
C1092 C1095 1.461 . S
C1092 H1112 0.932 . S
C1093 C1091 1.408 . S
C1093 C1092 1.310 . S
C1093 H1113 0.930 . S
C1094 C1095 1.474 . S
C1094 C1096 1.285 . S
C1094 H1114 0.929 . S
C1095 C1092 1.461 . S
C1095 C1094 1.474 . S
C1096 C1091 1.342 . S
C1096 C1094 1.285 . S
C1096 H1115 0.930 . S
C1097 C1100 1.424 . S
C1097 C1102 1.245 . S
C1097 C1103 1.428 . S
C1098 C1101 1.260 . S
C1098 C1102 1.477 . S
C1098 H1116 0.932 . S
C1099 C1100 1.384 . S
C1099 C1101 1.479 . S
C1099 H1117 0.929 . S
C1100 C1097 1.424 . S
C1100 C1099 1.384 . S
C1100 H1118 0.928 . S
C1101 C1098 1.260 . S
C1101 C1099 1.479 . S
C1102 C1097 1.245 . S
C1102 C1098 1.477 . S
C1102 H1119 0.932 . S
C1103 U1086 2.882 . S
C1103 C1097 1.428 . S
C1103 O1106 1.301 . S
C1103 O1107 1.282 . S
O1104 U1086 2.441 . S
O1104 C1090 1.249 . S
O1105 U1086 2.420 . S
O1105 C1090 1.202 . S
O1106 U1086 2.455 . S
O1106 C1103 1.301 . S
O1107 U1086 2.449 . S
O1107 C1103 1.282 . S
H1108 C1081 0.931 . S
H1109 C1083 0.929 . S
H1110 C1084 0.930 . S
H1111 C1085 0.931 . S
H1112 C1092 0.932 . S
H1113 C1093 0.930 . S
H1114 C1094 0.929 . S
H1115 C1096 0.930 . S
H1116 C1098 0.932 . S
H1117 C1099 0.929 . S
H1118 C1100 0.928 . S
H1119 C1102 0.932 . S
C1120 C1121 1.264 . S
C1120 C1125 1.479 . S
C1120 C1130 1.465 . S
C1121 C1120 1.264 . S
C1121 C1123 1.339 . S
C1121 H1148 0.931 . S
C1122 C1123 1.395 . S
C1122 C1124 1.320 . S
C1123 C1121 1.339 . S
C1123 C1122 1.395 . S
C1123 H1149 0.929 . S
C1124 C1122 1.320 . S
C1124 C1125 1.405 . S
C1124 H1150 0.930 . S
C1125 C1120 1.479 . S
C1125 C1124 1.405 . S
C1125 H1151 0.931 . S
U1126 O1127 2.454 . S
U1126 O1128 2.458 . S
U1126 C1129 2.984 . S
U1126 C1130 2.847 1_455 S
U1126 C1143 2.882 . S
U1126 O1144 2.441 1_455 S
U1126 O1145 2.420 1_455 S
U1126 O1146 2.455 . S
U1126 O1147 2.449 . S
O1127 U1126 2.454 . S
O1127 C1129 1.353 . S
O1128 U1126 2.458 . S
O1128 C1129 1.286 . S
C1129 U1126 2.984 . S
C1129 O1127 1.353 . S
C1129 O1128 1.286 . S
C1129 C1131 1.363 . S
C1130 C1120 1.465 . S
C1130 U1126 2.847 1_655 S
C1130 O1144 1.249 . S
C1130 O1145 1.202 . S
C1131 C1129 1.363 . S
C1131 C1133 1.408 . S
C1131 C1136 1.342 . S
C1132 C1133 1.310 . S
C1132 C1135 1.461 . S
C1132 H1152 1.000 . S
C1133 C1131 1.408 . S
C1133 C1132 1.310 . S
C1133 H1153 0.930 1_455 S
C1134 C1135 1.474 . S
C1134 C1136 1.285 . S
C1134 H1154 0.929 . S
C1135 C1132 1.461 . S
C1135 C1134 1.474 . S
C1136 C1131 1.342 . S
C1136 C1134 1.285 . S
C1136 H1155 0.930 . S
C1137 C1140 1.424 . S
C1137 C1142 1.245 . S
C1137 C1143 1.428 . S
C1138 C1141 1.260 . S
C1138 C1142 1.477 . S
C1138 H1156 0.932 . S
C1139 C1140 1.384 . S
C1139 C1141 1.479 . S
C1139 H1157 0.929 . S
C1140 C1137 1.424 . S
C1140 C1139 1.384 . S
C1140 H1158 0.928 . S
C1141 C1138 1.260 . S
C1141 C1139 1.479 . S
C1142 C1137 1.245 . S
C1142 C1138 1.477 . S
C1142 H1159 0.932 . S
C1143 U1126 2.882 . S
C1143 C1137 1.428 . S
C1143 O1146 1.301 . S
C1143 O1147 1.282 . S
O1144 U1126 2.441 1_655 S
O1144 C1130 1.249 . S
O1145 U1126 2.420 1_655 S
O1145 C1130 1.202 . S
O1146 U1126 2.455 . S
O1146 C1143 1.301 . S
O1147 U1126 2.449 . S
O1147 C1143 1.282 . S
H1148 C1121 0.931 . S
H1149 C1123 0.929 . S
H1150 C1124 0.930 . S
H1151 C1125 0.931 . S
H1152 C1132 1.000 . S
H1153 C1133 0.930 1_655 S
H1154 C1134 0.929 . S
H1155 C1136 0.930 . S
H1156 C1138 0.932 . S
H1157 C1139 0.929 . S
H1158 C1140 0.928 . S
H1159 C1142 0.932 . S
C1160 C1161 1.264 . S
C1160 C1165 1.479 . S
C1160 C1170 1.465 . S
C1161 C1160 1.264 . S
C1161 C1163 1.339 . S
C1161 H1188 0.931 . S
C1162 C1163 1.395 . S
C1162 C1164 1.320 . S
C1163 C1161 1.339 . S
C1163 C1162 1.395 . S
C1163 H1189 0.929 . S
C1164 C1162 1.320 . S
C1164 C1165 1.405 . S
C1164 H1190 0.930 . S
C1165 C1160 1.479 . S
C1165 C1164 1.405 . S
C1165 H1191 0.931 . S
U1166 O1167 2.454 . S
U1166 O1168 2.458 . S
U1166 C1169 2.984 . S
U1166 C1170 2.847 . S
U1166 C1183 2.882 . S
U1166 O1184 2.441 . S
U1166 O1185 2.420 . S
U1166 O1186 2.455 . S
U1166 O1187 2.449 . S
O1167 U1166 2.454 . S
O1167 C1169 1.353 . S
O1168 U1166 2.458 . S
O1168 C1169 1.286 . S
C1169 U1166 2.984 . S
C1169 O1167 1.353 . S
C1169 O1168 1.286 . S
C1169 C1171 1.363 . S
C1170 C1160 1.465 . S
C1170 U1166 2.847 . S
C1170 O1184 1.249 . S
C1170 O1185 1.202 . S
C1171 C1169 1.363 . S
C1171 C1173 1.408 . S
C1171 C1176 1.342 . S
C1172 C1173 1.310 . S
C1172 C1175 1.461 . S
C1172 H1192 0.932 . S
C1173 C1171 1.408 . S
C1173 C1172 1.310 . S
C1173 H1193 0.930 . S
C1174 C1175 1.474 . S
C1174 C1176 1.285 . S
C1174 H1194 0.929 . S
C1175 C1172 1.461 . S
C1175 C1174 1.474 . S
C1176 C1171 1.342 . S
C1176 C1174 1.285 . S
C1176 H1195 0.930 . S
C1177 C1180 1.424 . S
C1177 C1182 1.245 . S
C1177 C1183 1.428 . S
C1178 C1181 1.260 . S
C1178 C1182 1.477 . S
C1178 H1196 0.932 . S
C1179 C1180 1.384 . S
C1179 C1181 1.479 . S
C1179 H1197 0.929 . S
C1180 C1177 1.424 . S
C1180 C1179 1.384 . S
C1180 H1198 0.928 . S
C1181 C1178 1.260 . S
C1181 C1179 1.479 . S
C1182 C1177 1.245 . S
C1182 C1178 1.477 . S
C1182 H1199 0.932 . S
C1183 U1166 2.882 . S
C1183 C1177 1.428 . S
C1183 O1186 1.301 . S
C1183 O1187 1.282 . S
O1184 U1166 2.441 . S
O1184 C1170 1.249 . S
O1185 U1166 2.420 . S
O1185 C1170 1.202 . S
O1186 U1166 2.455 . S
O1186 C1183 1.301 . S
O1187 U1166 2.449 . S
O1187 C1183 1.282 . S
H1188 C1161 0.931 . S
H1189 C1163 0.929 . S
H1190 C1164 0.930 . S
H1191 C1165 0.931 . S
H1192 C1172 0.932 . S
H1193 C1173 0.930 . S
H1194 C1174 0.929 . S
H1195 C1176 0.930 . S
H1196 C1178 0.932 . S
H1197 C1179 0.929 . S
H1198 C1180 0.928 . S
H1199 C1182 0.932 . S
C1200 C1201 1.264 . S
C1200 C1205 1.479 . S
C1200 C1210 1.465 . S
C1201 C1200 1.264 . S
C1201 C1203 1.339 . S
C1201 H1228 0.931 . S
C1202 C1203 1.395 . S
C1202 C1204 1.320 . S
C1203 C1201 1.339 . S
C1203 C1202 1.395 . S
C1203 H1229 0.929 . S
C1204 C1202 1.320 . S
C1204 C1205 1.405 . S
C1204 H1230 0.930 . S
C1205 C1200 1.479 . S
C1205 C1204 1.405 . S
C1205 H1231 0.931 . S
U1206 O1207 2.454 . S
U1206 O1208 2.458 . S
U1206 C1209 2.984 . S
U1206 C1210 2.847 . S
U1206 C1223 2.882 . S
U1206 O1224 2.441 . S
U1206 O1225 2.420 . S
U1206 O1226 2.455 . S
U1206 O1227 2.449 . S
O1207 U1206 2.454 . S
O1207 C1209 1.353 . S
O1208 U1206 2.458 . S
O1208 C1209 1.286 . S
C1209 U1206 2.984 . S
C1209 O1207 1.353 . S
C1209 O1208 1.286 . S
C1209 C1211 1.363 . S
C1210 C1200 1.465 . S
C1210 U1206 2.847 . S
C1210 O1224 1.249 . S
C1210 O1225 1.202 . S
C1211 C1209 1.363 . S
C1211 C1213 1.408 . S
C1211 C1216 1.342 . S
C1212 C1213 1.310 . S
C1212 C1215 1.461 . S
C1212 H1232 0.932 . S
C1213 C1211 1.408 . S
C1213 C1212 1.310 . S
C1213 H1233 0.930 . S
C1214 C1215 1.474 . S
C1214 C1216 1.285 . S
C1214 H1234 0.929 . S
C1215 C1212 1.461 . S
C1215 C1214 1.474 . S
C1216 C1211 1.342 . S
C1216 C1214 1.285 . S
C1216 H1235 0.930 . S
C1217 C1220 1.424 . S
C1217 C1222 1.245 . S
C1217 C1223 1.428 . S
C1218 C1221 1.260 . S
C1218 C1222 1.477 . S
C1218 H1236 0.932 . S
C1219 C1220 1.384 . S
C1219 C1221 1.479 . S
C1219 H1237 0.929 . S
C1220 C1217 1.424 . S
C1220 C1219 1.384 . S
C1220 H1238 0.928 . S
C1221 C1218 1.260 . S
C1221 C1219 1.479 . S
C1222 C1217 1.245 . S
C1222 C1218 1.477 . S
C1222 H1239 0.932 . S
C1223 U1206 2.882 . S
C1223 C1217 1.428 . S
C1223 O1226 1.301 . S
C1223 O1227 1.282 . S
O1224 U1206 2.441 . S
O1224 C1210 1.249 . S
O1225 U1206 2.420 . S
O1225 C1210 1.202 . S
O1226 U1206 2.455 . S
O1226 C1223 1.301 . S
O1227 U1206 2.449 . S
O1227 C1223 1.282 . S
H1228 C1201 0.931 . S
H1229 C1203 0.929 . S
H1230 C1204 0.930 . S
H1231 C1205 0.931 . S
H1232 C1212 0.932 . S
H1233 C1213 0.930 . S
H1234 C1214 0.929 . S
H1235 C1216 0.930 . S
H1236 C1218 0.932 . S
H1237 C1219 0.929 . S
H1238 C1220 0.928 . S
H1239 C1222 0.932 . S
C1240 C1241 1.264 . S
C1240 C1245 1.479 . S
C1240 C1250 1.465 . S
C1241 C1240 1.264 . S
C1241 C1243 1.339 . S
C1241 H1268 0.931 . S
C1242 C1243 1.395 . S
C1242 C1244 1.320 . S
C1243 C1241 1.339 . S
C1243 C1242 1.395 . S
C1243 H1269 0.929 . S
C1244 C1242 1.320 . S
C1244 C1245 1.405 . S
C1244 H1270 0.930 . S
C1245 C1240 1.479 . S
C1245 C1244 1.405 . S
C1245 H1271 0.931 . S
U1246 O1247 2.454 1_655 S
U1246 O1248 2.458 1_655 S
U1246 C1249 2.984 1_655 S
U1246 C1250 2.847 . S
U1246 C1263 2.882 . S
U1246 O1264 2.441 . S
U1246 O1265 2.420 . S
U1246 O1266 2.455 . S
U1246 O1267 2.449 . S
O1247 U1246 2.454 1_455 S
O1247 C1249 1.353 . S
O1248 U1246 2.458 1_455 S
O1248 C1249 1.286 . S
C1249 U1246 2.984 1_455 S
C1249 O1247 1.353 . S
C1249 O1248 1.286 . S
C1249 C1251 1.363 . S
C1250 C1240 1.465 . S
C1250 U1246 2.847 . S
C1250 O1264 1.249 . S
C1250 O1265 1.202 . S
C1251 C1249 1.363 . S
C1251 C1253 1.408 . S
C1251 C1256 1.342 . S
C1252 C1253 1.310 . S
C1252 C1255 1.461 . S
C1252 H1272 0.932 . S
C1253 C1251 1.408 . S
C1253 C1252 1.310 . S
C1253 H1273 0.930 . S
C1254 C1255 1.474 . S
C1254 C1256 1.285 . S
C1254 H1274 0.929 . S
C1255 C1252 1.461 . S
C1255 C1254 1.474 . S
C1256 C1251 1.342 . S
C1256 C1254 1.285 . S
C1256 H1275 0.930 . S
C1257 C1260 1.424 . S
C1257 C1262 1.245 . S
C1257 C1263 1.428 . S
C1258 C1261 1.260 . S
C1258 C1262 1.477 . S
C1258 H1276 0.932 . S
C1259 C1260 1.384 . S
C1259 C1261 1.479 . S
C1259 H1277 0.929 . S
C1260 C1257 1.424 . S
C1260 C1259 1.384 . S
C1260 H1278 0.928 . S
C1261 C1258 1.260 . S
C1261 C1259 1.479 . S
C1262 C1257 1.245 . S
C1262 C1258 1.477 . S
C1262 H1279 0.932 . S
C1263 U1246 2.882 . S
C1263 C1257 1.428 . S
C1263 O1266 1.301 . S
C1263 O1267 1.282 . S
O1264 U1246 2.441 . S
O1264 C1250 1.249 . S
O1265 U1246 2.420 . S
O1265 C1250 1.202 . S
O1266 U1246 2.455 . S
O1266 C1263 1.301 . S
O1267 U1246 2.449 . S
O1267 C1263 1.282 . S
H1268 C1241 0.931 . S
H1269 C1243 0.929 . S
H1270 C1244 0.930 . S
H1271 C1245 0.931 . S
H1272 C1252 0.932 . S
H1273 C1253 0.930 . S
H1274 C1254 0.929 . S
H1275 C1256 0.930 . S
H1276 C1258 0.932 . S
H1277 C1259 0.929 . S
H1278 C1260 0.928 . S
H1279 C1262 0.932 . S
C1280 C1281 1.264 . S
C1280 C1285 1.479 . S
C1280 C1290 1.465 . S
C1281 C1280 1.264 . S
C1281 C1283 1.339 . S
C1281 H1308 0.931 . S
C1282 C1283 1.395 . S
C1282 C1284 1.320 . S
C1283 C1281 1.339 . S
C1283 C1282 1.395 . S
C1283 H1309 0.929 . S
C1284 C1282 1.320 . S
C1284 C1285 1.405 . S
C1284 H1310 0.930 . S
C1285 C1280 1.479 . S
C1285 C1284 1.405 . S
C1285 H1311 0.931 . S
U1286 O1287 2.454 . S
U1286 O1288 2.458 . S
U1286 C1289 2.984 . S
U1286 C1290 2.847 . S
U1286 C1303 2.882 . S
U1286 O1304 2.441 . S
U1286 O1305 2.420 . S
U1286 O1306 2.455 . S
U1286 O1307 2.449 . S
O1287 U1286 2.454 . S
O1287 C1289 1.353 . S
O1288 U1286 2.458 . S
O1288 C1289 1.286 . S
C1289 U1286 2.984 . S
C1289 O1287 1.353 . S
C1289 O1288 1.286 . S
C1289 C1291 1.363 . S
C1290 C1280 1.465 . S
C1290 U1286 2.847 . S
C1290 O1304 1.249 . S
C1290 O1305 1.202 . S
C1291 C1289 1.363 . S
C1291 C1293 1.408 . S
C1291 C1296 1.342 . S
C1292 C1293 1.310 . S
C1292 C1295 1.461 . S
C1292 H1312 0.932 . S
C1293 C1291 1.408 . S
C1293 C1292 1.310 . S
C1293 H1313 0.930 . S
C1294 C1295 1.474 . S
C1294 C1296 1.285 . S
C1294 H1314 0.929 . S
C1295 C1292 1.461 . S
C1295 C1294 1.474 . S
C1296 C1291 1.342 . S
C1296 C1294 1.285 . S
C1296 H1315 0.930 . S
C1297 C1300 1.424 . S
C1297 C1302 1.245 . S
C1297 C1303 1.428 . S
C1298 C1301 1.260 . S
C1298 C1302 1.477 . S
C1298 H1316 0.932 . S
C1299 C1300 1.384 . S
C1299 C1301 1.479 . S
C1299 H1317 0.929 . S
C1300 C1297 1.424 . S
C1300 C1299 1.384 . S
C1300 H1318 0.928 . S
C1301 C1298 1.260 . S
C1301 C1299 1.479 . S
C1302 C1297 1.245 . S
C1302 C1298 1.477 . S
C1302 H1319 0.932 . S
C1303 U1286 2.882 . S
C1303 C1297 1.428 . S
C1303 O1306 1.301 . S
C1303 O1307 1.282 . S
O1304 U1286 2.441 . S
O1304 C1290 1.249 . S
O1305 U1286 2.420 . S
O1305 C1290 1.202 . S
O1306 U1286 2.455 . S
O1306 C1303 1.301 . S
O1307 U1286 2.449 . S
O1307 C1303 1.282 . S
H1308 C1281 0.931 . S
H1309 C1283 0.929 . S
H1310 C1284 0.930 . S
H1311 C1285 0.931 . S
H1312 C1292 0.932 . S
H1313 C1293 0.930 . S
H1314 C1294 0.929 . S
H1315 C1296 0.930 . S
H1316 C1298 0.932 . S
H1317 C1299 0.929 . S
H1318 C1300 0.928 . S
H1319 C1302 0.932 . S
C1320 C1321 1.264 . S
C1320 C1325 1.479 . S
C1320 C1330 1.465 . S
C1321 C1320 1.264 . S
C1321 C1323 1.339 . S
C1321 H1348 0.931 . S
C1322 C1323 1.395 . S
C1322 C1324 1.320 . S
C1323 C1321 1.339 . S
C1323 C1322 1.395 . S
C1323 H1349 0.929 . S
C1324 C1322 1.320 . S
C1324 C1325 1.405 . S
C1324 H1350 0.930 . S
C1325 C1320 1.479 . S
C1325 C1324 1.405 . S
C1325 H1351 0.931 . S
U1326 O1327 2.454 . S
U1326 O1328 2.458 . S
U1326 C1329 2.984 . S
U1326 C1330 2.847 . S
U1326 C1343 2.882 . S
U1326 O1344 2.441 . S
U1326 O1345 2.420 . S
U1326 O1346 2.455 . S
U1326 O1347 2.449 . S
O1327 U1326 2.454 . S
O1327 C1329 1.353 . S
O1328 U1326 2.458 . S
O1328 C1329 1.286 . S
C1329 U1326 2.984 . S
C1329 O1327 1.353 . S
C1329 O1328 1.286 . S
C1329 C1331 1.363 . S
C1330 C1320 1.465 . S
C1330 U1326 2.847 . S
C1330 O1344 1.249 . S
C1330 O1345 1.202 . S
C1331 C1329 1.363 . S
C1331 C1333 1.408 . S
C1331 C1336 1.342 . S
C1332 C1333 1.310 . S
C1332 C1335 1.461 . S
C1332 H1352 0.932 . S
C1333 C1331 1.408 . S
C1333 C1332 1.310 . S
C1333 H1353 0.930 . S
C1334 C1335 1.474 . S
C1334 C1336 1.285 . S
C1334 H1354 0.929 . S
C1335 C1332 1.461 . S
C1335 C1334 1.474 . S
C1336 C1331 1.342 . S
C1336 C1334 1.285 . S
C1336 H1355 0.930 . S
C1337 C1340 1.424 . S
C1337 C1342 1.245 . S
C1337 C1343 1.428 . S
C1338 C1341 1.260 . S
C1338 C1342 1.477 . S
C1338 H1356 0.932 . S
C1339 C1340 1.384 . S
C1339 C1341 1.479 . S
C1339 H1357 0.929 . S
C1340 C1337 1.424 . S
C1340 C1339 1.384 . S
C1340 H1358 0.928 . S
C1341 C1338 1.260 . S
C1341 C1339 1.479 . S
C1342 C1337 1.245 . S
C1342 C1338 1.477 . S
C1342 H1359 0.932 . S
C1343 U1326 2.882 . S
C1343 C1337 1.428 . S
C1343 O1346 1.301 . S
C1343 O1347 1.282 . S
O1344 U1326 2.441 . S
O1344 C1330 1.249 . S
O1345 U1326 2.420 . S
O1345 C1330 1.202 . S
O1346 U1326 2.455 . S
O1346 C1343 1.301 . S
O1347 U1326 2.449 . S
O1347 C1343 1.282 . S
H1348 C1321 0.931 . S
H1349 C1323 0.929 . S
H1350 C1324 0.930 . S
H1351 C1325 0.931 . S
H1352 C1332 0.932 . S
H1353 C1333 0.930 . S
H1354 C1334 0.929 . S
H1355 C1336 0.930 . S
H1356 C1338 0.932 . S
H1357 C1339 0.929 . S
H1358 C1340 0.928 . S
H1359 C1342 0.932 . S
C1360 C1361 1.264 . S
C1360 C1365 1.479 . S
C1360 C1370 1.465 . S
C1361 C1360 1.264 . S
C1361 C1363 1.339 . S
C1361 H1388 0.931 . S
C1362 C1363 1.395 . S
C1362 C1364 1.320 . S
C1363 C1361 1.339 . S
C1363 C1362 1.395 . S
C1363 H1389 0.929 . S
C1364 C1362 1.320 . S
C1364 C1365 1.405 . S
C1364 H1390 0.930 . S
C1365 C1360 1.479 . S
C1365 C1364 1.405 . S
C1365 H1391 0.931 . S
U1366 O1367 2.454 . S
U1366 O1368 2.458 . S
U1366 C1369 2.984 . S
U1366 C1370 2.847 . S
U1366 C1383 2.882 . S
U1366 O1384 2.441 . S
U1366 O1385 2.420 . S
U1366 O1386 2.455 . S
U1366 O1387 2.449 . S
O1367 U1366 2.454 . S
O1367 C1369 1.353 . S
O1368 U1366 2.458 . S
O1368 C1369 1.286 . S
C1369 U1366 2.984 . S
C1369 O1367 1.353 . S
C1369 O1368 1.286 . S
C1369 C1371 1.363 . S
C1370 C1360 1.465 . S
C1370 U1366 2.847 . S
C1370 O1384 1.249 . S
C1370 O1385 1.202 . S
C1371 C1369 1.363 . S
C1371 C1373 1.408 . S
C1371 C1376 1.342 . S
C1372 C1373 1.310 . S
C1372 C1375 1.461 . S
C1372 H1392 0.932 . S
C1373 C1371 1.408 . S
C1373 C1372 1.310 . S
C1373 H1393 0.930 . S
C1374 C1375 1.474 . S
C1374 C1376 1.285 . S
C1374 H1394 0.929 . S
C1375 C1372 1.461 . S
C1375 C1374 1.474 . S
C1376 C1371 1.342 . S
C1376 C1374 1.285 . S
C1376 H1395 0.930 . S
C1377 C1380 1.424 . S
C1377 C1382 1.245 . S
C1377 C1383 1.428 . S
C1378 C1381 1.260 . S
C1378 C1382 1.477 . S
C1378 H1396 0.932 . S
C1379 C1380 1.384 . S
C1379 C1381 1.479 . S
C1379 H1397 0.929 . S
C1380 C1377 1.424 . S
C1380 C1379 1.384 . S
C1380 H1398 0.928 . S
C1381 C1378 1.260 . S
C1381 C1379 1.479 . S
C1382 C1377 1.245 . S
C1382 C1378 1.477 . S
C1382 H1399 0.932 . S
C1383 U1366 2.882 . S
C1383 C1377 1.428 . S
C1383 O1386 1.301 . S
C1383 O1387 1.282 . S
O1384 U1366 2.441 . S
O1384 C1370 1.249 . S
O1385 U1366 2.420 . S
O1385 C1370 1.202 . S
O1386 U1366 2.455 . S
O1386 C1383 1.301 . S
O1387 U1366 2.449 . S
O1387 C1383 1.282 . S
H1388 C1361 0.931 . S
H1389 C1363 0.929 . S
H1390 C1364 0.930 . S
H1391 C1365 0.931 . S
H1392 C1372 0.932 . S
H1393 C1373 0.930 . S
H1394 C1374 0.929 . S
H1395 C1376 0.930 . S
H1396 C1378 0.932 . S
H1397 C1379 0.929 . S
H1398 C1380 0.928 . S
H1399 C1382 0.932 . S
C1400 C1401 1.264 . S
C1400 C1405 1.479 . S
C1400 C1410 1.465 . S
C1401 C1400 1.264 . S
C1401 C1403 1.339 . S
C1401 H1428 0.931 . S
C1402 C1403 1.395 . S
C1402 C1404 1.320 . S
C1403 C1401 1.339 . S
C1403 C1402 1.395 . S
C1403 H1429 0.929 . S
C1404 C1402 1.320 . S
C1404 C1405 1.405 . S
C1404 H1430 0.930 . S
C1405 C1400 1.479 . S
C1405 C1404 1.405 . S
C1405 H1431 0.931 . S
U1406 O1407 2.454 . S
U1406 O1408 2.458 . S
U1406 C1409 2.984 . S
U1406 C1410 2.847 . S
U1406 C1423 2.882 . S
U1406 O1424 2.441 . S
U1406 O1425 2.420 . S
U1406 O1426 2.455 . S
U1406 O1427 2.449 . S
O1407 U1406 2.454 . S
O1407 C1409 1.353 . S
O1408 U1406 2.458 . S
O1408 C1409 1.286 . S
C1409 U1406 2.984 . S
C1409 O1407 1.353 . S
C1409 O1408 1.286 . S
C1409 C1411 1.363 . S
C1410 C1400 1.465 . S
C1410 U1406 2.847 . S
C1410 O1424 1.249 . S
C1410 O1425 1.202 . S
C1411 C1409 1.363 . S
C1411 C1413 1.408 . S
C1411 C1416 1.342 . S
C1412 C1413 1.310 . S
C1412 C1415 1.461 . S
C1412 H1432 0.932 . S
C1413 C1411 1.408 . S
C1413 C1412 1.310 . S
C1413 H1433 0.930 . S
C1414 C1415 1.474 . S
C1414 C1416 1.285 . S
C1414 H1434 0.929 . S
C1415 C1412 1.461 . S
C1415 C1414 1.474 . S
C1416 C1411 1.342 . S
C1416 C1414 1.285 . S
C1416 H1435 0.930 . S
C1417 C1420 1.424 . S
C1417 C1422 1.245 . S
C1417 C1423 1.428 . S
C1418 C1421 1.260 . S
C1418 C1422 1.477 . S
C1418 H1436 0.932 . S
C1419 C1420 1.384 . S
C1419 C1421 1.479 . S
C1419 H1437 0.929 . S
C1420 C1417 1.424 . S
C1420 C1419 1.384 . S
C1420 H1438 0.928 . S
C1421 C1418 1.260 . S
C1421 C1419 1.479 . S
C1422 C1417 1.245 . S
C1422 C1418 1.477 . S
C1422 H1439 0.932 . S
C1423 U1406 2.882 . S
C1423 C1417 1.428 . S
C1423 O1426 1.301 . S
C1423 O1427 1.282 . S
O1424 U1406 2.441 . S
O1424 C1410 1.249 . S
O1425 U1406 2.420 . S
O1425 C1410 1.202 . S
O1426 U1406 2.455 . S
O1426 C1423 1.301 . S
O1427 U1406 2.449 . S
O1427 C1423 1.282 . S
H1428 C1401 0.931 . S
H1429 C1403 0.929 . S
H1430 C1404 0.930 . S
H1431 C1405 0.931 . S
H1432 C1412 0.932 . S
H1433 C1413 0.930 . S
H1434 C1414 0.929 . S
H1435 C1416 0.930 . S
H1436 C1418 0.932 . S
H1437 C1419 0.929 . S
H1438 C1420 0.928 . S
H1439 C1422 0.932 . S
C1440 C1441 1.264 . S
C1440 C1445 1.479 . S
C1440 C1450 1.465 . S
C1441 C1440 1.264 . S
C1441 C1443 1.339 . S
C1441 H1468 0.931 . S
C1442 C1443 1.395 . S
C1442 C1444 1.320 . S
C1443 C1441 1.339 . S
C1443 C1442 1.395 . S
C1443 H1469 0.929 . S
C1444 C1442 1.320 . S
C1444 C1445 1.405 . S
C1444 H1470 0.930 . S
C1445 C1440 1.479 . S
C1445 C1444 1.405 . S
C1445 H1471 0.931 . S
U1446 O1447 2.454 . S
U1446 O1448 2.458 . S
U1446 C1449 2.984 . S
U1446 C1450 2.847 . S
U1446 C1463 2.882 . S
U1446 O1464 2.441 . S
U1446 O1465 2.420 . S
U1446 O1466 2.455 . S
U1446 O1467 2.449 . S
O1447 U1446 2.454 . S
O1447 C1449 1.353 . S
O1448 U1446 2.458 . S
O1448 C1449 1.286 . S
C1449 U1446 2.984 . S
C1449 O1447 1.353 . S
C1449 O1448 1.286 . S
C1449 C1451 1.363 . S
C1450 C1440 1.465 . S
C1450 U1446 2.847 . S
C1450 O1464 1.249 . S
C1450 O1465 1.202 . S
C1451 C1449 1.363 . S
C1451 C1453 1.408 . S
C1451 C1456 1.342 . S
C1452 C1453 1.310 . S
C1452 C1455 1.461 . S
C1452 H1472 0.932 . S
C1453 C1451 1.408 . S
C1453 C1452 1.310 . S
C1453 H1473 0.930 . S
C1454 C1455 1.474 . S
C1454 C1456 1.285 . S
C1454 H1474 0.929 . S
C1455 C1452 1.461 . S
C1455 C1454 1.474 . S
C1456 C1451 1.342 . S
C1456 C1454 1.285 . S
C1456 H1475 0.930 . S
C1457 C1460 1.424 . S
C1457 C1462 1.245 . S
C1457 C1463 1.428 . S
C1458 C1461 1.260 . S
C1458 C1462 1.477 . S
C1458 H1476 0.932 . S
C1459 C1460 1.384 . S
C1459 C1461 1.479 . S
C1459 H1477 0.929 . S
C1460 C1457 1.424 . S
C1460 C1459 1.384 . S
C1460 H1478 0.928 . S
C1461 C1458 1.260 . S
C1461 C1459 1.479 . S
C1462 C1457 1.245 . S
C1462 C1458 1.477 . S
C1462 H1479 0.932 . S
C1463 U1446 2.882 . S
C1463 C1457 1.428 . S
C1463 O1466 1.301 . S
C1463 O1467 1.282 . S
O1464 U1446 2.441 . S
O1464 C1450 1.249 . S
O1465 U1446 2.420 . S
O1465 C1450 1.202 . S
O1466 U1446 2.455 . S
O1466 C1463 1.301 . S
O1467 U1446 2.449 . S
O1467 C1463 1.282 . S
H1468 C1441 0.931 . S
H1469 C1443 0.929 . S
H1470 C1444 0.930 . S
H1471 C1445 0.931 . S
H1472 C1452 0.932 . S
H1473 C1453 0.930 . S
H1474 C1454 0.929 . S
H1475 C1456 0.930 . S
H1476 C1458 0.932 . S
H1477 C1459 0.929 . S
H1478 C1460 0.928 . S
H1479 C1462 0.932 . S
C1480 C1481 1.264 . S
C1480 C1485 1.479 . S
C1480 C1490 1.465 . S
C1481 C1480 1.264 . S
C1481 C1483 1.339 . S
C1481 H1508 0.931 . S
C1482 C1483 1.395 . S
C1482 C1484 1.320 . S
C1483 C1481 1.339 . S
C1483 C1482 1.395 . S
C1483 H1509 0.929 . S
C1484 C1482 1.320 . S
C1484 C1485 1.405 . S
C1484 H1510 0.930 . S
C1485 C1480 1.479 . S
C1485 C1484 1.405 . S
C1485 H1511 0.931 . S
U1486 O1487 2.454 . S
U1486 O1488 2.458 . S
U1486 C1489 2.984 . S
U1486 C1490 2.847 . S
U1486 C1503 2.882 . S
U1486 O1504 2.441 . S
U1486 O1505 2.420 . S
U1486 O1506 2.455 . S
U1486 O1507 2.449 . S
O1487 U1486 2.454 . S
O1487 C1489 1.353 . S
O1488 U1486 2.458 . S
O1488 C1489 1.286 . S
C1489 U1486 2.984 . S
C1489 O1487 1.353 . S
C1489 O1488 1.286 . S
C1489 C1491 1.363 . S
C1490 C1480 1.465 . S
C1490 U1486 2.847 . S
C1490 O1504 1.249 . S
C1490 O1505 1.202 . S
C1491 C1489 1.363 . S
C1491 C1493 1.408 . S
C1491 C1496 1.342 . S
C1492 C1493 1.310 . S
C1492 C1495 1.461 . S
C1492 H1512 0.932 . S
C1493 C1491 1.408 . S
C1493 C1492 1.310 . S
C1493 H1513 0.930 . S
C1494 C1495 1.474 . S
C1494 C1496 1.285 . S
C1494 H1514 0.929 . S
C1495 C1492 1.461 . S
C1495 C1494 1.474 . S
C1496 C1491 1.342 . S
C1496 C1494 1.285 . S
C1496 H1515 0.930 . S
C1497 C1500 1.424 . S
C1497 C1502 1.245 . S
C1497 C1503 1.428 . S
C1498 C1501 1.260 . S
C1498 C1502 1.477 . S
C1498 H1516 0.932 . S
C1499 C1500 1.384 . S
C1499 C1501 1.479 . S
C1499 H1517 0.929 . S
C1500 C1497 1.424 . S
C1500 C1499 1.384 . S
C1500 H1518 0.928 . S
C1501 C1498 1.260 . S
C1501 C1499 1.479 . S
C1502 C1497 1.245 . S
C1502 C1498 1.477 . S
C1502 H1519 0.932 . S
C1503 U1486 2.882 . S
C1503 C1497 1.428 . S
C1503 O1506 1.301 . S
C1503 O1507 1.282 . S
O1504 U1486 2.441 . S
O1504 C1490 1.249 . S
O1505 U1486 2.420 . S
O1505 C1490 1.202 . S
O1506 U1486 2.455 . S
O1506 C1503 1.301 . S
O1507 U1486 2.449 . S
O1507 C1503 1.282 . S
H1508 C1481 0.931 . S
H1509 C1483 0.929 . S
H1510 C1484 0.930 . S
H1511 C1485 0.931 . S
H1512 C1492 0.932 . S
H1513 C1493 0.930 . S
H1514 C1494 0.929 . S
H1515 C1496 0.930 . S
H1516 C1498 0.932 . S
H1517 C1499 0.929 . S
H1518 C1500 0.928 . S
H1519 C1502 0.932 . S
C1520 C1521 1.264 . S
C1520 C1525 1.479 . S
C1520 C1530 1.465 . S
C1521 C1520 1.264 . S
C1521 C1523 1.339 . S
C1521 H1548 0.931 . S
C1522 C1523 1.395 . S
C1522 C1524 1.320 . S
C1523 C1521 1.339 . S
C1523 C1522 1.395 . S
C1523 H1549 0.929 . S
C1524 C1522 1.320 . S
C1524 C1525 1.405 . S
C1524 H1550 0.930 . S
C1525 C1520 1.479 . S
C1525 C1524 1.405 . S
C1525 H1551 0.931 . S
U1526 O1527 2.454 . S
U1526 O1528 2.458 . S
U1526 C1529 2.984 . S
U1526 C1530 2.847 . S
U1526 C1543 2.882 . S
U1526 O1544 2.441 . S
U1526 O1545 2.420 . S
U1526 O1546 2.455 . S
U1526 O1547 2.449 . S
O1527 U1526 2.454 . S
O1527 C1529 1.353 . S
O1528 U1526 2.458 . S
O1528 C1529 1.286 . S
C1529 U1526 2.984 . S
C1529 O1527 1.353 . S
C1529 O1528 1.286 . S
C1529 C1531 1.363 . S
C1530 C1520 1.465 . S
C1530 U1526 2.847 . S
C1530 O1544 1.249 . S
C1530 O1545 1.202 . S
C1531 C1529 1.363 . S
C1531 C1533 1.408 . S
C1531 C1536 1.342 . S
C1532 C1533 1.310 . S
C1532 C1535 1.461 . S
C1532 H1552 0.932 . S
C1533 C1531 1.408 . S
C1533 C1532 1.310 . S
C1533 H1553 0.930 . S
C1534 C1535 1.474 . S
C1534 C1536 1.285 . S
C1534 H1554 0.929 . S
C1535 C1532 1.461 . S
C1535 C1534 1.474 . S
C1536 C1531 1.342 . S
C1536 C1534 1.285 . S
C1536 H1555 0.930 . S
C1537 C1540 1.424 . S
C1537 C1542 1.245 . S
C1537 C1543 1.428 . S
C1538 C1541 1.260 . S
C1538 C1542 1.477 . S
C1538 H1556 0.932 . S
C1539 C1540 1.384 . S
C1539 C1541 1.479 . S
C1539 H1557 0.929 . S
C1540 C1537 1.424 . S
C1540 C1539 1.384 . S
C1540 H1558 0.928 . S
C1541 C1538 1.260 . S
C1541 C1539 1.479 . S
C1542 C1537 1.245 . S
C1542 C1538 1.477 . S
C1542 H1559 0.932 . S
C1543 U1526 2.882 . S
C1543 C1537 1.428 . S
C1543 O1546 1.301 . S
C1543 O1547 1.282 . S
O1544 U1526 2.441 . S
O1544 C1530 1.249 . S
O1545 U1526 2.420 . S
O1545 C1530 1.202 . S
O1546 U1526 2.455 . S
O1546 C1543 1.301 . S
O1547 U1526 2.449 . S
O1547 C1543 1.282 . S
H1548 C1521 0.931 . S
H1549 C1523 0.929 . S
H1550 C1524 0.930 . S
H1551 C1525 0.931 . S
H1552 C1532 0.932 . S
H1553 C1533 0.930 . S
H1554 C1534 0.929 . S
H1555 C1536 0.930 . S
H1556 C1538 0.932 . S
H1557 C1539 0.929 . S
H1558 C1540 0.928 . S
H1559 C1542 0.932 . S
C1560 C1561 1.264 . S
C1560 C1565 1.479 . S
C1560 C1570 1.465 . S
C1561 C1560 1.264 . S
C1561 C1563 1.339 . S
C1561 H1588 0.931 . S
C1562 C1563 1.395 . S
C1562 C1564 1.320 . S
C1563 C1561 1.339 . S
C1563 C1562 1.395 . S
C1563 H1589 0.929 . S
C1564 C1562 1.320 . S
C1564 C1565 1.405 . S
C1564 H1590 0.930 . S
C1565 C1560 1.479 . S
C1565 C1564 1.405 . S
C1565 H1591 0.931 . S
U1566 O1567 2.454 . S
U1566 O1568 2.458 . S
U1566 C1569 2.984 . S
U1566 C1570 2.847 . S
U1566 C1583 2.882 . S
U1566 O1584 2.441 . S
U1566 O1585 2.420 . S
U1566 O1586 2.455 . S
U1566 O1587 2.449 . S
O1567 U1566 2.454 . S
O1567 C1569 1.353 . S
O1568 U1566 2.458 . S
O1568 C1569 1.286 . S
C1569 U1566 2.984 . S
C1569 O1567 1.353 . S
C1569 O1568 1.286 . S
C1569 C1571 1.363 . S
C1570 C1560 1.465 . S
C1570 U1566 2.847 . S
C1570 O1584 1.249 . S
C1570 O1585 1.202 . S
C1571 C1569 1.363 . S
C1571 C1573 1.408 . S
C1571 C1576 1.342 . S
C1572 C1573 1.310 . S
C1572 C1575 1.461 . S
C1572 H1592 0.932 . S
C1573 C1571 1.408 . S
C1573 C1572 1.310 . S
C1573 H1593 0.930 . S
C1574 C1575 1.474 . S
C1574 C1576 1.285 . S
C1574 H1594 0.929 . S
C1575 C1572 1.461 . S
C1575 C1574 1.474 . S
C1576 C1571 1.342 . S
C1576 C1574 1.285 . S
C1576 H1595 0.930 . S
C1577 C1580 1.424 . S
C1577 C1582 1.245 . S
C1577 C1583 1.428 . S
C1578 C1581 1.260 . S
C1578 C1582 1.477 . S
C1578 H1596 0.932 . S
C1579 C1580 1.384 . S
C1579 C1581 1.479 . S
C1579 H1597 0.929 . S
C1580 C1577 1.424 . S
C1580 C1579 1.384 . S
C1580 H1598 0.928 . S
C1581 C1578 1.260 . S
C1581 C1579 1.479 . S
C1582 C1577 1.245 . S
C1582 C1578 1.477 . S
C1582 H1599 0.932 . S
C1583 U1566 2.882 . S
C1583 C1577 1.428 . S
C1583 O1586 1.301 . S
C1583 O1587 1.282 . S
O1584 U1566 2.441 . S
O1584 C1570 1.249 . S
O1585 U1566 2.420 . S
O1585 C1570 1.202 . S
O1586 U1566 2.455 . S
O1586 C1583 1.301 . S
O1587 U1566 2.449 . S
O1587 C1583 1.282 . S
H1588 C1561 0.931 . S
H1589 C1563 0.929 . S
H1590 C1564 0.930 . S
H1591 C1565 0.931 . S
H1592 C1572 0.932 . S
H1593 C1573 0.930 . S
H1594 C1574 0.929 . S
H1595 C1576 0.930 . S
H1596 C1578 0.932 . S
H1597 C1579 0.929 . S
H1598 C1580 0.928 . S
H1599 C1582 0.932 . S
C1600 C1601 1.264 . S
C1600 C1605 1.479 . S
C1600 C1610 1.465 . S
C1601 C1600 1.264 . S
C1601 C1603 1.339 . S
C1601 H1628 0.931 . S
C1602 C1603 1.395 . S
C1602 C1604 1.320 . S
C1603 C1601 1.339 . S
C1603 C1602 1.395 . S
C1603 H1629 0.929 . S
C1604 C1602 1.320 . S
C1604 C1605 1.405 . S
C1604 H1630 0.930 . S
C1605 C1600 1.479 . S
C1605 C1604 1.405 . S
C1605 H1631 0.931 . S
U1606 O1607 2.454 1_455 S
U1606 O1608 2.458 . S
U1606 C1609 2.984 . S
U1606 C1610 2.847 1_455 S
U1606 C1623 2.882 . S
U1606 O1624 2.441 1_455 S
U1606 O1625 2.420 1_455 S
U1606 O1626 2.455 . S
U1606 O1627 2.449 . S
O1607 U1606 2.454 1_655 S
O1607 C1609 1.353 1_655 S
O1608 U1606 2.458 . S
O1608 C1609 1.286 . S
C1609 U1606 2.984 . S
C1609 O1607 1.353 1_455 S
C1609 O1608 1.286 . S
C1609 C1611 1.363 . S
C1610 C1600 1.465 . S
C1610 U1606 2.847 1_655 S
C1610 O1624 1.249 . S
C1610 O1625 1.202 . S
C1611 C1609 1.363 . S
C1611 C1613 1.455 . S
C1611 C1616 1.342 . S
C1612 C1613 1.319 . S
C1612 C1615 1.461 . S
C1612 H1632 0.932 1_455 S
C1613 C1611 1.455 . S
C1613 C1612 1.319 . S
C1613 H1633 0.878 1_455 S
C1614 C1615 1.474 . S
C1614 C1616 1.285 . S
C1614 H1634 0.929 . S
C1615 C1612 1.461 . S
C1615 C1614 1.474 . S
C1616 C1611 1.342 . S
C1616 C1614 1.285 . S
C1616 H1635 0.930 . S
C1617 C1620 1.424 . S
C1617 C1622 1.245 . S
C1617 C1623 1.428 . S
C1618 C1621 1.260 . S
C1618 C1622 1.477 . S
C1618 H1636 0.932 . S
C1619 C1620 1.384 . S
C1619 C1621 1.479 . S
C1619 H1637 0.929 . S
C1620 C1617 1.424 . S
C1620 C1619 1.384 . S
C1620 H1638 0.928 . S
C1621 C1618 1.260 . S
C1621 C1619 1.479 . S
C1622 C1617 1.245 . S
C1622 C1618 1.477 . S
C1622 H1639 0.932 . S
C1623 U1606 2.882 . S
C1623 C1617 1.428 . S
C1623 O1626 1.301 . S
C1623 O1627 1.282 . S
O1624 U1606 2.441 1_655 S
O1624 C1610 1.249 . S
O1625 U1606 2.420 1_655 S
O1625 C1610 1.202 . S
O1626 U1606 2.455 . S
O1626 C1623 1.301 . S
O1627 U1606 2.449 . S
O1627 C1623 1.282 . S
H1628 C1601 0.931 . S
H1629 C1603 0.929 . S
H1630 C1604 0.930 . S
H1631 C1605 0.931 . S
H1632 C1612 0.932 1_655 S
H1633 C1613 0.878 1_655 S
H1634 C1614 0.929 . S
H1635 C1616 0.930 . S
H1636 C1618 0.932 . S
H1637 C1619 0.929 . S
H1638 C1620 0.928 . S
H1639 C1622 0.932 . S
C1640 C1641 1.264 . S
C1640 C1645 1.479 . S
C1640 C1650 1.465 . S
C1641 C1640 1.264 . S
C1641 C1643 1.339 . S
C1641 H1668 0.931 . S
C1642 C1643 1.395 . S
C1642 C1644 1.320 . S
C1643 C1641 1.339 . S
C1643 C1642 1.395 . S
C1643 H1669 0.929 . S
C1644 C1642 1.320 . S
C1644 C1645 1.405 . S
C1644 H1670 0.930 . S
C1645 C1640 1.479 . S
C1645 C1644 1.405 . S
C1645 H1671 0.931 . S
U1646 O1647 2.454 . S
U1646 O1648 2.458 . S
U1646 C1649 2.984 . S
U1646 C1650 2.847 . S
U1646 C1663 2.882 . S
U1646 O1664 2.441 . S
U1646 O1665 2.420 . S
U1646 O1666 2.455 . S
U1646 O1667 2.449 . S
O1647 U1646 2.454 . S
O1647 C1649 1.353 . S
O1648 U1646 2.458 . S
O1648 C1649 1.286 . S
C1649 U1646 2.984 . S
C1649 O1647 1.353 . S
C1649 O1648 1.286 . S
C1649 C1651 1.363 . S
C1650 C1640 1.465 . S
C1650 U1646 2.847 . S
C1650 O1664 1.249 . S
C1650 O1665 1.202 . S
C1651 C1649 1.363 . S
C1651 C1653 1.408 . S
C1651 C1656 1.342 . S
C1652 C1653 1.310 . S
C1652 C1655 1.461 . S
C1652 H1672 0.932 . S
C1653 C1651 1.408 . S
C1653 C1652 1.310 . S
C1653 H1673 0.930 . S
C1654 C1655 1.474 . S
C1654 C1656 1.285 . S
C1654 H1674 0.929 . S
C1655 C1652 1.461 . S
C1655 C1654 1.474 . S
C1656 C1651 1.342 . S
C1656 C1654 1.285 . S
C1656 H1675 0.930 . S
C1657 C1660 1.424 . S
C1657 C1662 1.245 . S
C1657 C1663 1.428 . S
C1658 C1661 1.260 . S
C1658 C1662 1.477 . S
C1658 H1676 0.932 . S
C1659 C1660 1.384 . S
C1659 C1661 1.479 . S
C1659 H1677 0.929 . S
C1660 C1657 1.424 . S
C1660 C1659 1.384 . S
C1660 H1678 0.928 . S
C1661 C1658 1.260 . S
C1661 C1659 1.479 . S
C1662 C1657 1.245 . S
C1662 C1658 1.477 . S
C1662 H1679 0.932 . S
C1663 U1646 2.882 . S
C1663 C1657 1.428 . S
C1663 O1666 1.301 . S
C1663 O1667 1.282 . S
O1664 U1646 2.441 . S
O1664 C1650 1.249 . S
O1665 U1646 2.420 . S
O1665 C1650 1.202 . S
O1666 U1646 2.455 . S
O1666 C1663 1.301 . S
O1667 U1646 2.449 . S
O1667 C1663 1.282 . S
H1668 C1641 0.931 . S
H1669 C1643 0.929 . S
H1670 C1644 0.930 . S
H1671 C1645 0.931 . S
H1672 C1652 0.932 . S
H1673 C1653 0.930 . S
H1674 C1654 0.929 . S
H1675 C1656 0.930 . S
H1676 C1658 0.932 . S
H1677 C1659 0.929 . S
H1678 C1660 0.928 . S
H1679 C1662 0.932 . S
C1680 C1681 1.264 . S
C1680 C1685 1.479 . S
C1680 C1690 1.465 . S
C1681 C1680 1.264 . S
C1681 C1683 1.339 . S
C1681 H1708 0.931 . S
C1682 C1683 1.395 . S
C1682 C1684 1.320 . S
C1683 C1681 1.339 . S
C1683 C1682 1.395 . S
C1683 H1709 0.929 . S
C1684 C1682 1.320 . S
C1684 C1685 1.405 . S
C1684 H1710 0.930 . S
C1685 C1680 1.479 . S
C1685 C1684 1.405 . S
C1685 H1711 0.931 . S
U1686 O1687 2.454 . S
U1686 O1688 2.458 . S
U1686 C1689 2.984 . S
U1686 C1690 2.847 . S
U1686 C1703 2.882 . S
U1686 O1704 2.441 . S
U1686 O1705 2.420 . S
U1686 O1706 2.455 . S
U1686 O1707 2.449 . S
O1687 U1686 2.454 . S
O1687 C1689 1.353 . S
O1688 U1686 2.458 . S
O1688 C1689 1.286 . S
C1689 U1686 2.984 . S
C1689 O1687 1.353 . S
C1689 O1688 1.286 . S
C1689 C1691 1.363 1_554 S
C1690 C1680 1.465 . S
C1690 U1686 2.847 . S
C1690 O1704 1.249 . S
C1690 O1705 1.202 . S
C1691 C1689 1.363 1_556 S
C1691 C1693 1.408 . S
C1691 C1696 1.342 . S
C1692 C1693 1.310 . S
C1692 C1695 1.461 . S
C1692 H1712 0.932 . S
C1693 C1691 1.408 . S
C1693 C1692 1.310 . S
C1693 H1713 0.930 . S
C1694 C1695 1.474 . S
C1694 C1696 1.285 . S
C1694 H1714 0.929 . S
C1695 C1692 1.461 . S
C1695 C1694 1.474 . S
C1696 C1691 1.342 . S
C1696 C1694 1.285 . S
C1696 H1715 0.861 1_556 S
C1697 C1700 1.424 . S
C1697 C1702 1.245 . S
C1697 C1703 1.428 . S
C1698 C1701 1.260 . S
C1698 C1702 1.477 . S
C1698 H1716 0.932 . S
C1699 C1700 1.384 . S
C1699 C1701 1.479 . S
C1699 H1717 0.929 . S
C1700 C1697 1.424 . S
C1700 C1699 1.384 . S
C1700 H1718 0.928 . S
C1701 C1698 1.260 . S
C1701 C1699 1.479 . S
C1702 C1697 1.245 . S
C1702 C1698 1.477 . S
C1702 H1719 0.932 . S
C1703 U1686 2.882 . S
C1703 C1697 1.428 . S
C1703 O1706 1.301 . S
C1703 O1707 1.282 . S
O1704 U1686 2.441 . S
O1704 C1690 1.249 . S
O1705 U1686 2.420 . S
O1705 C1690 1.202 . S
O1706 U1686 2.455 . S
O1706 C1703 1.301 . S
O1707 U1686 2.449 . S
O1707 C1703 1.282 . S
H1708 C1681 0.931 . S
H1709 C1683 0.929 . S
H1710 C1684 0.930 . S
H1711 C1685 0.931 . S
H1712 C1692 0.932 . S
H1713 C1693 0.930 . S
H1714 C1694 0.929 . S
H1715 C1696 0.861 1_554 S
H1716 C1698 0.932 . S
H1717 C1699 0.929 . S
H1718 C1700 0.928 . S
H1719 C1702 0.932 . S
C1720 C1721 1.264 . S
C1720 C1725 1.479 . S
C1720 C1730 1.465 . S
C1721 C1720 1.264 . S
C1721 C1723 1.339 . S
C1721 H1748 0.931 . S
C1722 C1723 1.395 . S
C1722 C1724 1.320 . S
C1723 C1721 1.339 . S
C1723 C1722 1.395 . S
C1723 H1749 0.929 . S
C1724 C1722 1.320 . S
C1724 C1725 1.405 . S
C1724 H1750 0.930 . S
C1725 C1720 1.479 . S
C1725 C1724 1.405 . S
C1725 H1751 0.931 . S
U1726 O1727 2.454 . S
U1726 O1728 2.458 . S
U1726 C1729 2.984 . S
U1726 C1730 2.847 . S
U1726 C1743 2.882 . S
U1726 O1744 2.441 . S
U1726 O1745 2.420 . S
U1726 O1746 2.455 . S
U1726 O1747 2.449 . S
O1727 U1726 2.454 . S
O1727 C1729 1.353 . S
O1728 U1726 2.458 . S
O1728 C1729 1.286 . S
C1729 U1726 2.984 . S
C1729 O1727 1.353 . S
C1729 O1728 1.286 . S
C1729 C1731 1.363 . S
C1730 C1720 1.465 . S
C1730 U1726 2.847 . S
C1730 O1744 1.249 . S
C1730 O1745 1.202 . S
C1731 C1729 1.363 . S
C1731 C1733 1.408 . S
C1731 C1736 1.342 . S
C1732 C1733 1.310 . S
C1732 C1735 1.461 . S
C1732 H1752 0.932 . S
C1733 C1731 1.408 . S
C1733 C1732 1.310 . S
C1733 H1753 0.930 . S
C1734 C1735 1.474 . S
C1734 C1736 1.285 . S
C1734 H1754 0.929 . S
C1735 C1732 1.461 . S
C1735 C1734 1.474 . S
C1736 C1731 1.342 . S
C1736 C1734 1.285 . S
C1736 H1755 0.930 . S
C1737 C1740 1.424 . S
C1737 C1742 1.245 . S
C1737 C1743 1.428 . S
C1738 C1741 1.260 . S
C1738 C1742 1.477 . S
C1738 H1756 0.932 . S
C1739 C1740 1.384 . S
C1739 C1741 1.479 . S
C1739 H1757 0.929 . S
C1740 C1737 1.424 . S
C1740 C1739 1.384 . S
C1740 H1758 0.928 . S
C1741 C1738 1.260 . S
C1741 C1739 1.479 . S
C1742 C1737 1.245 . S
C1742 C1738 1.477 . S
C1742 H1759 0.932 . S
C1743 U1726 2.882 . S
C1743 C1737 1.428 . S
C1743 O1746 1.301 . S
C1743 O1747 1.282 . S
O1744 U1726 2.441 . S
O1744 C1730 1.249 . S
O1745 U1726 2.420 . S
O1745 C1730 1.202 . S
O1746 U1726 2.455 . S
O1746 C1743 1.301 . S
O1747 U1726 2.449 . S
O1747 C1743 1.282 . S
H1748 C1721 0.931 . S
H1749 C1723 0.929 . S
H1750 C1724 0.930 . S
H1751 C1725 0.931 . S
H1752 C1732 0.932 . S
H1753 C1733 0.930 . S
H1754 C1734 0.929 . S
H1755 C1736 0.930 . S
H1756 C1738 0.932 . S
H1757 C1739 0.929 . S
H1758 C1740 0.928 . S
H1759 C1742 0.932 . S
C1760 C1761 1.264 . S
C1760 C1765 1.479 . S
C1760 C1770 1.465 . S
C1761 C1760 1.264 . S
C1761 C1763 1.339 . S
C1761 H1788 0.931 . S
C1762 C1763 1.395 . S
C1762 C1764 1.320 . S
C1763 C1761 1.339 . S
C1763 C1762 1.395 . S
C1763 H1789 0.929 . S
C1764 C1762 1.320 . S
C1764 C1765 1.405 . S
C1764 H1790 0.930 . S
C1765 C1760 1.479 . S
C1765 C1764 1.405 . S
C1765 H1791 0.931 . S
U1766 O1767 2.454 . S
U1766 O1768 2.458 . S
U1766 C1769 2.984 . S
U1766 C1770 2.847 . S
U1766 C1783 2.882 . S
U1766 O1784 2.441 . S
U1766 O1785 2.420 . S
U1766 O1786 2.455 . S
U1766 O1787 2.449 . S
O1767 U1766 2.454 . S
O1767 C1769 1.353 . S
O1768 U1766 2.458 . S
O1768 C1769 1.286 . S
C1769 U1766 2.984 . S
C1769 O1767 1.353 . S
C1769 O1768 1.286 . S
C1769 C1771 1.363 . S
C1770 C1760 1.465 . S
C1770 U1766 2.847 . S
C1770 O1784 1.249 . S
C1770 O1785 1.202 . S
C1771 C1769 1.363 . S
C1771 C1773 1.408 . S
C1771 C1776 1.342 . S
C1772 C1773 1.310 . S
C1772 C1775 1.461 . S
C1772 H1792 0.932 . S
C1773 C1771 1.408 . S
C1773 C1772 1.310 . S
C1773 H1793 0.930 . S
C1774 C1775 1.474 . S
C1774 C1776 1.285 . S
C1774 H1794 0.929 . S
C1775 C1772 1.461 . S
C1775 C1774 1.474 . S
C1776 C1771 1.342 . S
C1776 C1774 1.285 . S
C1776 H1795 0.930 . S
C1777 C1780 1.424 . S
C1777 C1782 1.245 . S
C1777 C1783 1.428 . S
C1778 C1781 1.260 . S
C1778 C1782 1.477 . S
C1778 H1796 0.932 . S
C1779 C1780 1.384 . S
C1779 C1781 1.479 . S
C1779 H1797 0.929 . S
C1780 C1777 1.424 . S
C1780 C1779 1.384 . S
C1780 H1798 0.928 . S
C1781 C1778 1.260 . S
C1781 C1779 1.479 . S
C1782 C1777 1.245 . S
C1782 C1778 1.477 . S
C1782 H1799 0.932 . S
C1783 U1766 2.882 . S
C1783 C1777 1.428 . S
C1783 O1786 1.301 . S
C1783 O1787 1.282 . S
O1784 U1766 2.441 . S
O1784 C1770 1.249 . S
O1785 U1766 2.420 . S
O1785 C1770 1.202 . S
O1786 U1766 2.455 . S
O1786 C1783 1.301 . S
O1787 U1766 2.449 . S
O1787 C1783 1.282 . S
H1788 C1761 0.931 . S
H1789 C1763 0.929 . S
H1790 C1764 0.930 . S
H1791 C1765 0.931 . S
H1792 C1772 0.932 . S
H1793 C1773 0.930 . S
H1794 C1774 0.929 . S
H1795 C1776 0.930 . S
H1796 C1778 0.932 . S
H1797 C1779 0.929 . S
H1798 C1780 0.928 . S
H1799 C1782 0.932 . S
C1800 C1801 1.264 . S
C1800 C1805 1.479 . S
C1800 C1810 1.465 . S
C1801 C1800 1.264 . S
C1801 C1803 1.339 . S
C1801 H1828 0.931 . S
C1802 C1803 1.395 . S
C1802 C1804 1.320 . S
C1803 C1801 1.339 . S
C1803 C1802 1.395 . S
C1803 H1829 0.929 . S
C1804 C1802 1.320 . S
C1804 C1805 1.405 . S
C1804 H1830 0.930 . S
C1805 C1800 1.479 . S
C1805 C1804 1.405 . S
C1805 H1831 0.931 . S
U1806 O1807 2.454 . S
U1806 O1808 2.458 . S
U1806 C1809 2.984 . S
U1806 C1810 2.847 . S
U1806 C1823 2.882 . S
U1806 O1824 2.441 . S
U1806 O1825 2.420 . S
U1806 O1826 2.455 . S
U1806 O1827 2.449 . S
O1807 U1806 2.454 . S
O1807 C1809 1.353 . S
O1808 U1806 2.458 . S
O1808 C1809 1.286 . S
C1809 U1806 2.984 . S
C1809 O1807 1.353 . S
C1809 O1808 1.286 . S
C1809 C1811 1.363 . S
C1810 C1800 1.465 . S
C1810 U1806 2.847 . S
C1810 O1824 1.249 . S
C1810 O1825 1.202 . S
C1811 C1809 1.363 . S
C1811 C1813 1.408 . S
C1811 C1816 1.342 . S
C1812 C1813 1.310 . S
C1812 C1815 1.461 . S
C1812 H1832 0.932 . S
C1813 C1811 1.408 . S
C1813 C1812 1.310 . S
C1813 H1833 0.930 . S
C1814 C1815 1.474 . S
C1814 C1816 1.285 . S
C1814 H1834 0.929 . S
C1815 C1812 1.461 . S
C1815 C1814 1.474 . S
C1816 C1811 1.342 . S
C1816 C1814 1.285 . S
C1816 H1835 0.930 . S
C1817 C1820 1.424 . S
C1817 C1822 1.245 . S
C1817 C1823 1.428 . S
C1818 C1821 1.260 . S
C1818 C1822 1.477 . S
C1818 H1836 0.932 . S
C1819 C1820 1.384 . S
C1819 C1821 1.479 . S
C1819 H1837 0.929 . S
C1820 C1817 1.424 . S
C1820 C1819 1.384 . S
C1820 H1838 0.928 . S
C1821 C1818 1.260 . S
C1821 C1819 1.479 . S
C1822 C1817 1.245 . S
C1822 C1818 1.477 . S
C1822 H1839 0.932 . S
C1823 U1806 2.882 . S
C1823 C1817 1.428 . S
C1823 O1826 1.301 . S
C1823 O1827 1.282 . S
O1824 U1806 2.441 . S
O1824 C1810 1.249 . S
O1825 U1806 2.420 . S
O1825 C1810 1.202 . S
O1826 U1806 2.455 . S
O1826 C1823 1.301 . S
O1827 U1806 2.449 . S
O1827 C1823 1.282 . S
H1828 C1801 0.931 . S
H1829 C1803 0.929 . S
H1830 C1804 0.930 . S
H1831 C1805 0.931 . S
H1832 C1812 0.932 . S
H1833 C1813 0.930 . S
H1834 C1814 0.929 . S
H1835 C1816 0.930 . S
H1836 C1818 0.932 . S
H1837 C1819 0.929 . S
H1838 C1820 0.928 . S
H1839 C1822 0.932 . S
C1840 C1841 1.264 . S
C1840 C1845 1.479 . S
C1840 C1850 1.465 . S
C1841 C1840 1.264 . S
C1841 C1843 1.339 . S
C1841 H1868 0.931 . S
C1842 C1843 1.395 . S
C1842 C1844 1.320 . S
C1843 C1841 1.339 . S
C1843 C1842 1.395 . S
C1843 H1869 0.929 . S
C1844 C1842 1.320 . S
C1844 C1845 1.405 . S
C1844 H1870 0.930 . S
C1845 C1840 1.479 . S
C1845 C1844 1.405 . S
C1845 H1871 0.931 . S
U1846 O1847 2.454 . S
U1846 O1848 2.458 . S
U1846 C1849 2.984 . S
U1846 C1850 2.847 . S
U1846 C1863 2.882 . S
U1846 O1864 2.441 . S
U1846 O1865 2.420 . S
U1846 O1866 2.455 . S
U1846 O1867 2.449 . S
O1847 U1846 2.454 . S
O1847 C1849 1.353 . S
O1848 U1846 2.458 . S
O1848 C1849 1.286 . S
C1849 U1846 2.984 . S
C1849 O1847 1.353 . S
C1849 O1848 1.286 . S
C1849 C1851 1.363 . S
C1850 C1840 1.465 . S
C1850 U1846 2.847 . S
C1850 O1864 1.249 . S
C1850 O1865 1.202 . S
C1851 C1849 1.363 . S
C1851 C1853 1.408 . S
C1851 C1856 1.342 . S
C1852 C1853 1.310 . S
C1852 C1855 1.461 . S
C1852 H1872 0.932 . S
C1853 C1851 1.408 . S
C1853 C1852 1.310 . S
C1853 H1873 0.930 . S
C1854 C1855 1.474 . S
C1854 C1856 1.285 . S
C1854 H1874 0.929 . S
C1855 C1852 1.461 . S
C1855 C1854 1.474 . S
C1856 C1851 1.342 . S
C1856 C1854 1.285 . S
C1856 H1875 0.930 . S
C1857 C1860 1.424 . S
C1857 C1862 1.245 . S
C1857 C1863 1.428 . S
C1858 C1861 1.260 . S
C1858 C1862 1.477 . S
C1858 H1876 0.932 . S
C1859 C1860 1.384 . S
C1859 C1861 1.479 . S
C1859 H1877 0.929 . S
C1860 C1857 1.424 . S
C1860 C1859 1.384 . S
C1860 H1878 0.928 . S
C1861 C1858 1.260 . S
C1861 C1859 1.479 . S
C1862 C1857 1.245 . S
C1862 C1858 1.477 . S
C1862 H1879 0.932 . S
C1863 U1846 2.882 . S
C1863 C1857 1.428 . S
C1863 O1866 1.301 . S
C1863 O1867 1.282 . S
O1864 U1846 2.441 . S
O1864 C1850 1.249 . S
O1865 U1846 2.420 . S
O1865 C1850 1.202 . S
O1866 U1846 2.455 . S
O1866 C1863 1.301 . S
O1867 U1846 2.449 . S
O1867 C1863 1.282 . S
H1868 C1841 0.931 . S
H1869 C1843 0.929 . S
H1870 C1844 0.930 . S
H1871 C1845 0.931 . S
H1872 C1852 0.932 . S
H1873 C1853 0.930 . S
H1874 C1854 0.929 . S
H1875 C1856 0.930 . S
H1876 C1858 0.932 . S
H1877 C1859 0.929 . S
H1878 C1860 0.928 . S
H1879 C1862 0.932 . S
C1880 C1881 1.264 . S
C1880 C1885 1.479 . S
C1880 C1890 1.465 . S
C1881 C1880 1.264 . S
C1881 C1883 1.339 . S
C1881 H1908 0.931 . S
C1882 C1883 1.395 . S
C1882 C1884 1.320 . S
C1883 C1881 1.339 . S
C1883 C1882 1.395 . S
C1883 H1909 0.929 . S
C1884 C1882 1.320 . S
C1884 C1885 1.405 . S
C1884 H1910 0.930 . S
C1885 C1880 1.479 . S
C1885 C1884 1.405 . S
C1885 H1911 0.931 . S
U1886 O1887 2.454 . S
U1886 O1888 2.458 . S
U1886 C1889 2.984 . S
U1886 C1890 2.847 . S
U1886 C1903 2.882 . S
U1886 O1904 2.441 . S
U1886 O1905 2.420 . S
U1886 O1906 2.455 . S
U1886 O1907 2.449 . S
O1887 U1886 2.454 . S
O1887 C1889 1.353 . S
O1888 U1886 2.458 . S
O1888 C1889 1.286 . S
C1889 U1886 2.984 . S
C1889 O1887 1.353 . S
C1889 O1888 1.286 . S
C1889 C1891 1.363 . S
C1890 C1880 1.465 . S
C1890 U1886 2.847 . S
C1890 O1904 1.249 . S
C1890 O1905 1.202 . S
C1891 C1889 1.363 . S
C1891 C1893 1.408 . S
C1891 C1896 1.342 . S
C1892 C1893 1.310 . S
C1892 C1895 1.461 . S
C1892 H1912 0.932 . S
C1893 C1891 1.408 . S
C1893 C1892 1.310 . S
C1893 H1913 0.930 . S
C1894 C1895 1.474 . S
C1894 C1896 1.285 . S
C1894 H1914 0.929 . S
C1895 C1892 1.461 . S
C1895 C1894 1.474 . S
C1896 C1891 1.342 . S
C1896 C1894 1.285 . S
C1896 H1915 0.930 . S
C1897 C1900 1.424 . S
C1897 C1902 1.245 . S
C1897 C1903 1.428 . S
C1898 C1901 1.260 . S
C1898 C1902 1.477 . S
C1898 H1916 0.932 . S
C1899 C1900 1.384 . S
C1899 C1901 1.479 . S
C1899 H1917 0.929 . S
C1900 C1897 1.424 . S
C1900 C1899 1.384 . S
C1900 H1918 0.928 . S
C1901 C1898 1.260 . S
C1901 C1899 1.479 . S
C1902 C1897 1.245 . S
C1902 C1898 1.477 . S
C1902 H1919 0.932 . S
C1903 U1886 2.882 . S
C1903 C1897 1.428 . S
C1903 O1906 1.301 . S
C1903 O1907 1.282 . S
O1904 U1886 2.441 . S
O1904 C1890 1.249 . S
O1905 U1886 2.420 . S
O1905 C1890 1.202 . S
O1906 U1886 2.455 . S
O1906 C1903 1.301 . S
O1907 U1886 2.449 . S
O1907 C1903 1.282 . S
H1908 C1881 0.931 . S
H1909 C1883 0.929 . S
H1910 C1884 0.930 . S
H1911 C1885 0.931 . S
H1912 C1892 0.932 . S
H1913 C1893 0.930 . S
H1914 C1894 0.929 . S
H1915 C1896 0.930 . S
H1916 C1898 0.932 . S
H1917 C1899 0.929 . S
H1918 C1900 0.928 . S
H1919 C1902 0.932 . S
H1920 C1925 0.930 . S
H1921 C1928 0.930 . S
H1922 C1930 0.930 . S
H1923 C1924 1.016 . S
C1924 H1923 1.016 . S
C1924 N1931 1.286 . S
C1925 H1920 0.930 . S
C1925 C1926 1.397 . S
C1925 C1927 1.361 . S
C1926 C1925 1.397 . S
C1926 C1930 1.390 . S
C1927 C1925 1.361 . S
C1927 C1928 1.393 . S
C1927 N1931 1.413 . S
C1928 H1921 0.930 . S
C1928 C1927 1.393 . S
C1928 C1929 1.399 . S
C1929 C1928 1.399 . S
C1929 C1930 1.381 . S
C1930 H1922 0.930 . S
C1930 C1926 1.390 . S
C1930 C1929 1.381 . S
N1931 C1924 1.286 . S
N1931 C1927 1.413 . S
H1932 C1937 0.930 . S
H1933 C1940 0.930 . S
H1934 C1942 0.930 . S
H1935 C1936 1.016 . S
C1936 H1935 1.016 . S
C1936 N1943 1.286 . S
C1937 H1932 0.930 . S
C1937 C1938 1.397 . S
C1937 C1939 1.361 . S
C1938 C1937 1.397 . S
C1938 C1942 1.390 . S
C1939 C1937 1.361 . S
C1939 C1940 1.393 . S
C1939 N1943 1.413 . S
C1940 H1933 0.930 . S
C1940 C1939 1.393 . S
C1940 C1941 1.399 . S
C1941 C1940 1.399 . S
C1941 C1942 1.381 . S
C1942 H1934 0.930 . S
C1942 C1938 1.390 . S
C1942 C1941 1.381 . S
N1943 C1936 1.286 . S
N1943 C1939 1.413 . S
H1944 C1949 0.930 . S
H1945 C1952 0.930 . S
H1946 C1954 0.930 . S
H1947 C1948 1.016 . S
C1948 H1947 1.016 . S
C1948 N1955 1.286 . S
C1949 H1944 0.930 . S
C1949 C1950 1.397 . S
C1949 C1951 1.361 . S
C1950 C1949 1.397 . S
C1950 C1954 1.390 . S
C1951 C1949 1.361 . S
C1951 C1952 1.393 . S
C1951 N1955 1.413 . S
C1952 H1945 0.930 . S
C1952 C1951 1.393 . S
C1952 C1953 1.399 . S
C1953 C1952 1.399 . S
C1953 C1954 1.381 . S
C1954 H1946 0.930 . S
C1954 C1950 1.390 . S
C1954 C1953 1.381 . S
N1955 C1948 1.286 . S
N1955 C1951 1.413 . S
H1956 C1961 0.930 . S
H1957 C1964 0.930 . S
H1958 C1966 0.930 . S
H1959 C1960 1.016 . S
C1960 H1959 1.016 . S
C1960 N1967 1.286 . S
C1961 H1956 0.930 . S
C1961 C1962 1.397 . S
C1961 C1963 1.361 . S
C1962 C1961 1.397 . S
C1962 C1966 1.390 . S
C1963 C1961 1.361 . S
C1963 C1964 1.393 . S
C1963 N1967 1.413 . S
C1964 H1957 0.930 . S
C1964 C1963 1.393 . S
C1964 C1965 1.399 . S
C1965 C1964 1.399 . S
C1965 C1966 1.381 . S
C1966 H1958 0.930 . S
C1966 C1962 1.390 . S
C1966 C1965 1.381 . S
N1967 C1960 1.286 . S
N1967 C1963 1.413 . S
H1968 C1973 0.930 . S
H1969 C1976 0.930 . S
H1970 C1978 0.930 . S
H1971 C1972 1.016 . S
C1972 H1971 1.016 . S
C1972 N1979 1.286 . S
C1973 H1968 0.930 . S
C1973 C1974 1.397 . S
C1973 C1975 1.361 . S
C1974 C1973 1.397 . S
C1974 C1978 1.390 . S
C1975 C1973 1.361 . S
C1975 C1976 1.393 . S
C1975 N1979 1.413 . S
C1976 H1969 0.930 . S
C1976 C1975 1.393 . S
C1976 C1977 1.399 . S
C1977 C1976 1.399 . S
C1977 C1978 1.381 . S
C1978 H1970 0.930 . S
C1978 C1974 1.390 . S
C1978 C1977 1.381 . S
N1979 C1972 1.286 . S
N1979 C1975 1.413 . S
H1980 C1985 0.930 . S
H1981 C1988 0.930 . S
H1982 C1990 0.930 . S
H1983 C1984 1.016 . S
C1984 H1983 1.016 . S
C1984 N1991 1.286 . S
C1985 H1980 0.930 . S
C1985 C1986 1.397 . S
C1985 C1987 1.361 . S
C1986 C1985 1.397 . S
C1986 C1990 1.390 . S
C1987 C1985 1.361 . S
C1987 C1988 1.393 . S
C1987 N1991 1.413 . S
C1988 H1981 0.930 . S
C1988 C1987 1.393 . S
C1988 C1989 1.399 . S
C1989 C1988 1.399 . S
C1989 C1990 1.381 . S
C1990 H1982 0.930 . S
C1990 C1986 1.390 . S
C1990 C1989 1.381 . S
N1991 C1984 1.286 . S
N1991 C1987 1.413 . S
H1992 C1997 0.930 . S
H1993 C2000 0.930 . S
H1994 C2002 0.930 . S
H1995 C1996 1.016 . S
C1996 H1995 1.016 . S
C1996 N2003 1.286 . S
C1997 H1992 0.930 . S
C1997 C1998 1.397 . S
C1997 C1999 1.361 . S
C1998 C1997 1.397 . S
C1998 C2002 1.390 . S
C1999 C1997 1.361 . S
C1999 C2000 1.393 . S
C1999 N2003 1.413 . S
C2000 H1993 0.930 . S
C2000 C1999 1.393 . S
C2000 C2001 1.399 . S
C2001 C2000 1.399 . S
C2001 C2002 1.381 . S
C2002 H1994 0.930 . S
C2002 C1998 1.390 . S
C2002 C2001 1.381 . S
N2003 C1996 1.286 . S
N2003 C1999 1.413 . S
H2004 C2009 0.930 . S
H2005 C2012 0.930 . S
H2006 C2014 0.930 . S
H2007 C2008 1.016 . S
C2008 H2007 1.016 . S
C2008 N2015 1.286 . S
C2009 H2004 0.930 . S
C2009 C2010 1.397 . S
C2009 C2011 1.361 . S
C2010 C2009 1.397 . S
C2010 C2014 1.390 . S
C2011 C2009 1.361 . S
C2011 C2012 1.393 . S
C2011 N2015 1.413 . S
C2012 H2005 0.930 . S
C2012 C2011 1.393 . S
C2012 C2013 1.399 . S
C2013 C2012 1.399 . S
C2013 C2014 1.381 . S
C2014 H2006 0.930 . S
C2014 C2010 1.390 . S
C2014 C2013 1.381 . S
N2015 C2008 1.286 . S
N2015 C2011 1.413 . S
H2016 C2021 0.930 . S
H2017 C2024 0.930 . S
H2018 C2026 0.930 . S
H2019 C2020 1.016 . S
C2020 H2019 1.016 . S
C2020 N2027 1.286 . S
C2021 H2016 0.930 . S
C2021 C2022 1.397 . S
C2021 C2023 1.361 . S
C2022 C2021 1.397 . S
C2022 C2026 1.390 . S
C2023 C2021 1.361 . S
C2023 C2024 1.393 . S
C2023 N2027 1.413 . S
C2024 H2017 0.930 . S
C2024 C2023 1.393 . S
C2024 C2025 1.399 . S
C2025 C2024 1.399 . S
C2025 C2026 1.381 . S
C2026 H2018 0.930 . S
C2026 C2022 1.390 . S
C2026 C2025 1.381 . S
N2027 C2020 1.286 . S
N2027 C2023 1.413 . S
H2028 C2033 0.930 . S
H2029 C2036 0.930 . S
H2030 C2038 0.930 . S
H2031 C2032 1.016 . S
C2032 H2031 1.016 . S
C2032 N2039 1.286 . S
C2033 H2028 0.930 . S
C2033 C2034 1.397 . S
C2033 C2035 1.361 . S
C2034 C2033 1.397 . S
C2034 C2038 1.390 . S
C2035 C2033 1.361 . S
C2035 C2036 1.393 . S
C2035 N2039 1.413 . S
C2036 H2029 0.930 . S
C2036 C2035 1.393 . S
C2036 C2037 1.399 . S
C2037 C2036 1.399 . S
C2037 C2038 1.381 . S
C2038 H2030 0.930 . S
C2038 C2034 1.390 . S
C2038 C2037 1.381 . S
N2039 C2032 1.286 . S
N2039 C2035 1.413 . S
H2040 C2045 0.930 . S
H2041 C2048 0.930 . S
H2042 C2050 0.930 . S
H2043 C2044 1.016 . S
C2044 H2043 1.016 . S
C2044 N2051 1.286 . S
C2045 H2040 0.930 . S
C2045 C2046 1.397 . S
C2045 C2047 1.361 . S
C2046 C2045 1.397 . S
C2046 C2050 1.390 . S
C2047 C2045 1.361 . S
C2047 C2048 1.393 . S
C2047 N2051 1.413 . S
C2048 H2041 0.930 . S
C2048 C2047 1.393 . S
C2048 C2049 1.399 . S
C2049 C2048 1.399 . S
C2049 C2050 1.381 . S
C2050 H2042 0.930 . S
C2050 C2046 1.390 . S
C2050 C2049 1.381 . S
N2051 C2044 1.286 . S
N2051 C2047 1.413 . S
H2052 C2057 0.930 . S
H2053 C2060 0.930 . S
H2054 C2062 0.930 . S
H2055 C2056 1.016 . S
C2056 H2055 1.016 . S
C2056 N2063 1.286 . S
C2057 H2052 0.930 . S
C2057 C2058 1.397 . S
C2057 C2059 1.361 . S
C2058 C2057 1.397 . S
C2058 C2062 1.390 . S
C2059 C2057 1.361 . S
C2059 C2060 1.393 . S
C2059 N2063 1.413 . S
C2060 H2053 0.930 . S
C2060 C2059 1.393 . S
C2060 C2061 1.399 . S
C2061 C2060 1.399 . S
C2061 C2062 1.381 . S
C2062 H2054 0.930 . S
C2062 C2058 1.390 . S
C2062 C2061 1.381 . S
N2063 C2056 1.286 . S
N2063 C2059 1.413 . S
H2064 C2069 0.930 . S
H2065 C2072 0.930 . S
H2066 C2074 0.930 . S
H2067 C2068 1.016 . S
C2068 H2067 1.016 . S
C2068 N2075 1.286 . S
C2069 H2064 0.930 . S
C2069 C2070 1.397 . S
C2069 C2071 1.361 . S
C2070 C2069 1.397 . S
C2070 C2074 1.390 . S
C2071 C2069 1.361 . S
C2071 C2072 1.393 . S
C2071 N2075 1.413 . S
C2072 H2065 0.930 . S
C2072 C2071 1.393 . S
C2072 C2073 1.399 . S
C2073 C2072 1.399 . S
C2073 C2074 1.381 . S
C2074 H2066 0.930 . S
C2074 C2070 1.390 . S
C2074 C2073 1.381 . S
N2075 C2068 1.286 . S
N2075 C2071 1.413 . S
H2076 C2081 0.930 . S
H2077 C2084 0.930 . S
H2078 C2086 0.930 . S
H2079 C2080 1.016 . S
C2080 H2079 1.016 . S
C2080 N2087 1.286 . S
C2081 H2076 0.930 . S
C2081 C2082 1.397 . S
C2081 C2083 1.361 . S
C2082 C2081 1.397 . S
C2082 C2086 1.390 . S
C2083 C2081 1.361 . S
C2083 C2084 1.393 . S
C2083 N2087 1.413 . S
C2084 H2077 0.930 . S
C2084 C2083 1.393 . S
C2084 C2085 1.399 . S
C2085 C2084 1.399 . S
C2085 C2086 1.381 . S
C2086 H2078 0.930 . S
C2086 C2082 1.390 . S
C2086 C2085 1.381 . S
N2087 C2080 1.286 . S
N2087 C2083 1.413 . S
H2088 C2093 0.930 . S
H2089 C2096 0.930 . S
H2090 C2098 0.930 . S
H2091 C2092 1.016 . S
C2092 H2091 1.016 . S
C2092 N2099 1.286 . S
C2093 H2088 0.930 . S
C2093 C2094 1.397 . S
C2093 C2095 1.361 . S
C2094 C2093 1.397 . S
C2094 C2098 1.390 . S
C2095 C2093 1.361 . S
C2095 C2096 1.393 . S
C2095 N2099 1.413 . S
C2096 H2089 0.930 . S
C2096 C2095 1.393 . S
C2096 C2097 1.399 . S
C2097 C2096 1.399 . S
C2097 C2098 1.381 . S
C2098 H2090 0.930 . S
C2098 C2094 1.390 . S
C2098 C2097 1.381 . S
N2099 C2092 1.286 . S
N2099 C2095 1.413 . S
H2100 C2105 0.930 . S
H2101 C2108 0.930 . S
H2102 C2110 0.930 . S
H2103 C2104 1.016 . S
C2104 H2103 1.016 . S
C2104 N2111 1.286 . S
C2105 H2100 0.930 . S
C2105 C2106 1.397 . S
C2105 C2107 1.361 . S
C2106 C2105 1.397 . S
C2106 C2110 1.390 . S
C2107 C2105 1.361 . S
C2107 C2108 1.393 . S
C2107 N2111 1.413 . S
C2108 H2101 0.930 . S
C2108 C2107 1.393 . S
C2108 C2109 1.399 . S
C2109 C2108 1.399 . S
C2109 C2110 1.381 . S
C2110 H2102 0.930 . S
C2110 C2106 1.390 . S
C2110 C2109 1.381 . S
N2111 C2104 1.286 . S
N2111 C2107 1.413 . S
H2112 C2117 0.930 . S
H2113 C2120 0.930 . S
H2114 C2122 0.930 . S
H2115 C2116 1.016 . S
C2116 H2115 1.016 . S
C2116 N2123 1.286 . S
C2117 H2112 0.930 . S
C2117 C2118 1.397 . S
C2117 C2119 1.361 . S
C2118 C2117 1.397 . S
C2118 C2122 1.390 . S
C2119 C2117 1.361 . S
C2119 C2120 1.393 . S
C2119 N2123 1.413 . S
C2120 H2113 0.930 . S
C2120 C2119 1.393 . S
C2120 C2121 1.399 . S
C2121 C2120 1.399 . S
C2121 C2122 1.381 . S
C2122 H2114 0.930 . S
C2122 C2118 1.390 . S
C2122 C2121 1.381 . S
N2123 C2116 1.286 . S
N2123 C2119 1.413 . S
H2124 C2129 0.930 . S
H2125 C2132 0.930 . S
H2126 C2134 0.930 . S
H2127 C2128 1.016 . S
C2128 H2127 1.016 . S
C2128 N2135 1.286 . S
C2129 H2124 0.930 . S
C2129 C2130 1.397 . S
C2129 C2131 1.361 . S
C2130 C2129 1.397 . S
C2130 C2134 1.390 . S
C2131 C2129 1.361 . S
C2131 C2132 1.393 . S
C2131 N2135 1.413 . S
C2132 H2125 0.930 . S
C2132 C2131 1.393 . S
C2132 C2133 1.399 . S
C2133 C2132 1.399 . S
C2133 C2134 1.381 . S
C2134 H2126 0.930 . S
C2134 C2130 1.390 . S
C2134 C2133 1.381 . S
N2135 C2128 1.286 . S
N2135 C2131 1.413 . S
H2136 C2141 0.930 . S
H2137 C2144 0.930 . S
H2138 C2146 0.930 . S
H2139 C2140 1.016 . S
C2140 H2139 1.016 . S
C2140 N2147 1.286 . S
C2141 H2136 0.930 . S
C2141 C2142 1.397 . S
C2141 C2143 1.361 . S
C2142 C2141 1.397 . S
C2142 C2146 1.390 . S
C2143 C2141 1.361 . S
C2143 C2144 1.393 . S
C2143 N2147 1.413 . S
C2144 H2137 0.930 . S
C2144 C2143 1.393 . S
C2144 C2145 1.399 . S
C2145 C2144 1.399 . S
C2145 C2146 1.381 . S
C2146 H2138 0.930 . S
C2146 C2142 1.390 . S
C2146 C2145 1.381 . S
N2147 C2140 1.286 . S
N2147 C2143 1.413 . S
H2148 C2153 0.930 . S
H2149 C2156 0.930 . S
H2150 C2158 0.930 . S
H2151 C2152 1.016 . S
C2152 H2151 1.016 . S
C2152 N2159 1.286 . S
C2153 H2148 0.930 . S
C2153 C2154 1.397 . S
C2153 C2155 1.361 . S
C2154 C2153 1.397 . S
C2154 C2158 1.390 . S
C2155 C2153 1.361 . S
C2155 C2156 1.393 . S
C2155 N2159 1.413 . S
C2156 H2149 0.930 . S
C2156 C2155 1.393 . S
C2156 C2157 1.399 . S
C2157 C2156 1.399 . S
C2157 C2158 1.381 . S
C2158 H2150 0.930 . S
C2158 C2154 1.390 . S
C2158 C2157 1.381 . S
N2159 C2152 1.286 . S
N2159 C2155 1.413 . S
H2160 C2165 0.930 . S
H2161 C2168 0.930 . S
H2162 C2170 0.930 . S
H2163 C2164 1.016 . S
C2164 H2163 1.016 . S
C2164 N2171 1.286 . S
C2165 H2160 0.930 . S
C2165 C2166 1.397 . S
C2165 C2167 1.361 . S
C2166 C2165 1.397 . S
C2166 C2170 1.390 . S
C2167 C2165 1.361 . S
C2167 C2168 1.393 . S
C2167 N2171 1.413 . S
C2168 H2161 0.930 . S
C2168 C2167 1.393 . S
C2168 C2169 1.399 . S
C2169 C2168 1.399 . S
C2169 C2170 1.381 . S
C2170 H2162 0.930 . S
C2170 C2166 1.390 . S
C2170 C2169 1.381 . S
N2171 C2164 1.286 . S
N2171 C2167 1.413 . S
H2172 C2177 0.930 . S
H2173 C2180 0.930 . S
H2174 C2182 0.930 . S
H2175 C2176 1.016 . S
C2176 H2175 1.016 . S
C2176 N2183 1.286 . S
C2177 H2172 0.930 . S
C2177 C2178 1.397 . S
C2177 C2179 1.361 . S
C2178 C2177 1.397 . S
C2178 C2182 1.390 . S
C2179 C2177 1.361 . S
C2179 C2180 1.393 . S
C2179 N2183 1.413 . S
C2180 H2173 0.930 . S
C2180 C2179 1.393 . S
C2180 C2181 1.399 . S
C2181 C2180 1.399 . S
C2181 C2182 1.381 . S
C2182 H2174 0.930 . S
C2182 C2178 1.390 . S
C2182 C2181 1.381 . S
N2183 C2176 1.286 . S
N2183 C2179 1.413 . S
H2184 C2189 0.930 . S
H2185 C2192 0.930 . S
H2186 C2194 0.930 . S
H2187 C2188 1.016 . S
C2188 H2187 1.016 . S
C2188 N2195 1.286 . S
C2189 H2184 0.930 . S
C2189 C2190 1.397 . S
C2189 C2191 1.361 . S
C2190 C2189 1.397 . S
C2190 C2194 1.390 . S
C2191 C2189 1.361 . S
C2191 C2192 1.393 . S
C2191 N2195 1.413 . S
C2192 H2185 0.930 . S
C2192 C2191 1.393 . S
C2192 C2193 1.399 . S
C2193 C2192 1.399 . S
C2193 C2194 1.381 . S
C2194 H2186 0.930 . S
C2194 C2190 1.390 . S
C2194 C2193 1.381 . S
N2195 C2188 1.286 . S
N2195 C2191 1.413 . S
H2196 C2201 0.930 . S
H2197 C2204 0.930 . S
H2198 C2206 0.930 . S
H2199 C2200 1.016 . S
C2200 H2199 1.016 . S
C2200 N2207 1.286 . S
C2201 H2196 0.930 . S
C2201 C2202 1.397 . S
C2201 C2203 1.361 . S
C2202 C2201 1.397 . S
C2202 C2206 1.390 . S
C2203 C2201 1.361 . S
C2203 C2204 1.393 . S
C2203 N2207 1.413 . S
C2204 H2197 0.930 . S
C2204 C2203 1.393 . S
C2204 C2205 1.399 . S
C2205 C2204 1.399 . S
C2205 C2206 1.381 . S
C2206 H2198 0.930 . S
C2206 C2202 1.390 . S
C2206 C2205 1.381 . S
N2207 C2200 1.286 . S
N2207 C2203 1.413 . S
H2208 C2213 0.930 . S
H2209 C2216 0.930 . S
H2210 C2218 0.930 . S
H2211 C2212 1.016 . S
C2212 H2211 1.016 . S
C2212 N2219 1.286 . S
C2213 H2208 0.930 . S
C2213 C2214 1.397 . S
C2213 C2215 1.361 . S
C2214 C2213 1.397 . S
C2214 C2218 1.390 . S
C2215 C2213 1.361 . S
C2215 C2216 1.393 . S
C2215 N2219 1.413 . S
C2216 H2209 0.930 . S
C2216 C2215 1.393 . S
C2216 C2217 1.399 . S
C2217 C2216 1.399 . S
C2217 C2218 1.381 . S
C2218 H2210 0.930 . S
C2218 C2214 1.390 . S
C2218 C2217 1.381 . S
N2219 C2212 1.286 . S
N2219 C2215 1.413 . S
H2220 C2225 0.930 . S
H2221 C2228 0.930 . S
H2222 C2230 0.930 . S
H2223 C2224 1.016 . S
C2224 H2223 1.016 . S
C2224 N2231 1.286 . S
C2225 H2220 0.930 . S
C2225 C2226 1.397 . S
C2225 C2227 1.361 . S
C2226 C2225 1.397 . S
C2226 C2230 1.390 . S
C2227 C2225 1.361 . S
C2227 C2228 1.393 . S
C2227 N2231 1.413 . S
C2228 H2221 0.930 . S
C2228 C2227 1.393 . S
C2228 C2229 1.399 . S
C2229 C2228 1.399 . S
C2229 C2230 1.381 . S
C2230 H2222 0.930 . S
C2230 C2226 1.390 . S
C2230 C2229 1.381 . S
N2231 C2224 1.286 . S
N2231 C2227 1.413 . S
H2232 C2237 0.930 . S
H2233 C2240 0.930 . S
H2234 C2242 0.930 . S
H2235 C2236 1.016 . S
C2236 H2235 1.016 . S
C2236 N2243 1.286 . S
C2237 H2232 0.930 . S
C2237 C2238 1.397 . S
C2237 C2239 1.361 . S
C2238 C2237 1.397 . S
C2238 C2242 1.390 . S
C2239 C2237 1.361 . S
C2239 C2240 1.393 . S
C2239 N2243 1.413 . S
C2240 H2233 0.930 . S
C2240 C2239 1.393 . S
C2240 C2241 1.399 . S
C2241 C2240 1.399 . S
C2241 C2242 1.381 . S
C2242 H2234 0.930 . S
C2242 C2238 1.390 . S
C2242 C2241 1.381 . S
N2243 C2236 1.286 . S
N2243 C2239 1.413 . S
H2244 C2249 0.930 . S
H2245 C2252 0.930 . S
H2246 C2254 0.930 . S
H2247 C2248 1.016 . S
C2248 H2247 1.016 . S
C2248 N2255 1.286 . S
C2249 H2244 0.930 . S
C2249 C2250 1.397 . S
C2249 C2251 1.361 . S
C2250 C2249 1.397 . S
C2250 C2254 1.390 . S
C2251 C2249 1.361 . S
C2251 C2252 1.393 . S
C2251 N2255 1.413 . S
C2252 H2245 0.930 . S
C2252 C2251 1.393 . S
C2252 C2253 1.399 . S
C2253 C2252 1.399 . S
C2253 C2254 1.381 . S
C2254 H2246 0.930 . S
C2254 C2250 1.390 . S
C2254 C2253 1.381 . S
N2255 C2248 1.286 . S
N2255 C2251 1.413 . S
H2256 C2261 0.930 . S
H2257 C2264 0.930 . S
H2258 C2266 0.930 . S
H2259 C2260 1.016 . S
C2260 H2259 1.016 . S
C2260 N2267 1.286 . S
C2261 H2256 0.930 . S
C2261 C2262 1.397 . S
C2261 C2263 1.361 . S
C2262 C2261 1.397 . S
C2262 C2266 1.390 . S
C2263 C2261 1.361 . S
C2263 C2264 1.393 . S
C2263 N2267 1.413 . S
C2264 H2257 0.930 . S
C2264 C2263 1.393 . S
C2264 C2265 1.399 . S
C2265 C2264 1.399 . S
C2265 C2266 1.381 . S
C2266 H2258 0.930 . S
C2266 C2262 1.390 . S
C2266 C2265 1.381 . S
N2267 C2260 1.286 . S
N2267 C2263 1.413 . S
H2268 C2273 0.930 . S
H2269 C2276 0.930 . S
H2270 C2278 0.930 . S
H2271 C2272 1.016 . S
C2272 H2271 1.016 . S
C2272 N2279 1.286 . S
C2273 H2268 0.930 . S
C2273 C2274 1.397 . S
C2273 C2275 1.361 . S
C2274 C2273 1.397 . S
C2274 C2278 1.390 . S
C2275 C2273 1.361 . S
C2275 C2276 1.393 . S
C2275 N2279 1.413 . S
C2276 H2269 0.930 . S
C2276 C2275 1.393 . S
C2276 C2277 1.399 . S
C2277 C2276 1.399 . S
C2277 C2278 1.381 . S
C2278 H2270 0.930 . S
C2278 C2274 1.390 . S
C2278 C2277 1.381 . S
N2279 C2272 1.286 . S
N2279 C2275 1.413 . S
H2280 C2285 0.930 . S
H2281 C2288 0.930 . S
H2282 C2290 0.930 . S
H2283 C2284 1.016 . S
C2284 H2283 1.016 . S
C2284 N2291 1.286 . S
C2285 H2280 0.930 . S
C2285 C2286 1.397 . S
C2285 C2287 1.361 . S
C2286 C2285 1.397 . S
C2286 C2290 1.390 . S
C2287 C2285 1.361 . S
C2287 C2288 1.393 . S
C2287 N2291 1.413 . S
C2288 H2281 0.930 . S
C2288 C2287 1.393 . S
C2288 C2289 1.399 . S
C2289 C2288 1.399 . S
C2289 C2290 1.381 . S
C2290 H2282 0.930 . S
C2290 C2286 1.390 . S
C2290 C2289 1.381 . S
N2291 C2284 1.286 . S
N2291 C2287 1.413 . S
H2292 C2297 0.930 . S
H2293 C2300 0.930 . S
H2294 C2302 0.930 . S
H2295 C2296 1.016 . S
C2296 H2295 1.016 . S
C2296 N2303 1.286 . S
C2297 H2292 0.930 . S
C2297 C2298 1.397 . S
C2297 C2299 1.361 . S
C2298 C2297 1.397 . S
C2298 C2302 1.390 . S
C2299 C2297 1.361 . S
C2299 C2300 1.393 . S
C2299 N2303 1.413 . S
C2300 H2293 0.930 . S
C2300 C2299 1.393 . S
C2300 C2301 1.399 . S
C2301 C2300 1.399 . S
C2301 C2302 1.381 . S
C2302 H2294 0.930 . S
C2302 C2298 1.390 . S
C2302 C2301 1.381 . S
N2303 C2296 1.286 . S
N2303 C2299 1.413 . S
H2304 C2309 0.930 . S
H2305 C2312 0.930 . S
H2306 C2314 0.930 . S
H2307 C2308 1.016 . S
C2308 H2307 1.016 . S
C2308 N2315 1.286 . S
C2309 H2304 0.930 . S
C2309 C2310 1.397 . S
C2309 C2311 1.361 . S
C2310 C2309 1.397 . S
C2310 C2314 1.390 . S
C2311 C2309 1.361 . S
C2311 C2312 1.393 . S
C2311 N2315 1.413 . S
C2312 H2305 0.930 . S
C2312 C2311 1.393 . S
C2312 C2313 1.399 . S
C2313 C2312 1.399 . S
C2313 C2314 1.381 . S
C2314 H2306 0.930 . S
C2314 C2310 1.390 . S
C2314 C2313 1.381 . S
N2315 C2308 1.286 . S
N2315 C2311 1.413 . S
H2316 C2321 0.930 . S
H2317 C2324 0.930 . S
H2318 C2326 0.930 . S
H2319 C2320 1.016 . S
C2320 H2319 1.016 . S
C2320 N2327 1.286 . S
C2321 H2316 0.930 . S
C2321 C2322 1.397 . S
C2321 C2323 1.361 . S
C2322 C2321 1.397 . S
C2322 C2326 1.390 . S
C2323 C2321 1.361 . S
C2323 C2324 1.393 . S
C2323 N2327 1.413 . S
C2324 H2317 0.930 . S
C2324 C2323 1.393 . S
C2324 C2325 1.399 . S
C2325 C2324 1.399 . S
C2325 C2326 1.381 . S
C2326 H2318 0.930 . S
C2326 C2322 1.390 . S
C2326 C2325 1.381 . S
N2327 C2320 1.286 . S
N2327 C2323 1.413 . S
H2328 C2333 0.930 . S
H2329 C2336 0.930 . S
H2330 C2338 0.930 . S
H2331 C2332 1.016 . S
C2332 H2331 1.016 . S
C2332 N2339 1.286 . S
C2333 H2328 0.930 . S
C2333 C2334 1.397 . S
C2333 C2335 1.361 . S
C2334 C2333 1.397 . S
C2334 C2338 1.390 . S
C2335 C2333 1.361 . S
C2335 C2336 1.393 . S
C2335 N2339 1.413 . S
C2336 H2329 0.930 . S
C2336 C2335 1.393 . S
C2336 C2337 1.399 . S
C2337 C2336 1.399 . S
C2337 C2338 1.381 . S
C2338 H2330 0.930 . S
C2338 C2334 1.390 . S
C2338 C2337 1.381 . S
N2339 C2332 1.286 . S
N2339 C2335 1.413 . S
H2340 C2345 0.930 . S
H2341 C2348 0.930 . S
H2342 C2350 0.930 . S
H2343 C2344 1.016 . S
C2344 H2343 1.016 . S
C2344 N2351 1.286 . S
C2345 H2340 0.930 . S
C2345 C2346 1.397 . S
C2345 C2347 1.361 . S
C2346 C2345 1.397 . S
C2346 C2350 1.390 . S
C2347 C2345 1.361 . S
C2347 C2348 1.393 . S
C2347 N2351 1.413 . S
C2348 H2341 0.930 . S
C2348 C2347 1.393 . S
C2348 C2349 1.399 . S
C2349 C2348 1.399 . S
C2349 C2350 1.381 . S
C2350 H2342 0.930 . S
C2350 C2346 1.390 . S
C2350 C2349 1.381 . S
N2351 C2344 1.286 . S
N2351 C2347 1.413 . S
H2352 C2357 0.930 . S
H2353 C2360 0.930 . S
H2354 C2362 0.930 . S
H2355 C2356 1.016 . S
C2356 H2355 1.016 . S
C2356 N2363 1.286 . S
C2357 H2352 0.930 . S
C2357 C2358 1.397 . S
C2357 C2359 1.361 . S
C2358 C2357 1.397 . S
C2358 C2362 1.390 . S
C2359 C2357 1.361 . S
C2359 C2360 1.393 . S
C2359 N2363 1.413 . S
C2360 H2353 0.930 . S
C2360 C2359 1.393 . S
C2360 C2361 1.399 . S
C2361 C2360 1.399 . S
C2361 C2362 1.381 . S
C2362 H2354 0.930 . S
C2362 C2358 1.390 . S
C2362 C2361 1.381 . S
N2363 C2356 1.286 . S
N2363 C2359 1.413 . S
H2364 C2369 0.930 . S
H2365 C2372 0.930 . S
H2366 C2374 0.930 . S
H2367 C2368 1.016 . S
C2368 H2367 1.016 . S
C2368 N2375 1.286 . S
C2369 H2364 0.930 . S
C2369 C2370 1.397 . S
C2369 C2371 1.361 . S
C2370 C2369 1.397 . S
C2370 C2374 1.390 . S
C2371 C2369 1.361 . S
C2371 C2372 1.393 . S
C2371 N2375 1.413 . S
C2372 H2365 0.930 . S
C2372 C2371 1.393 . S
C2372 C2373 1.399 . S
C2373 C2372 1.399 . S
C2373 C2374 1.381 . S
C2374 H2366 0.930 . S
C2374 C2370 1.390 . S
C2374 C2373 1.381 . S
N2375 C2368 1.286 . S
N2375 C2371 1.413 . S
H2376 C2381 0.930 . S
H2377 C2384 0.930 . S
H2378 C2386 0.930 . S
H2379 C2380 1.016 . S
C2380 H2379 1.016 . S
C2380 N2387 1.286 . S
C2381 H2376 0.930 . S
C2381 C2382 1.397 . S
C2381 C2383 1.361 . S
C2382 C2381 1.397 . S
C2382 C2386 1.390 . S
C2383 C2381 1.361 . S
C2383 C2384 1.393 . S
C2383 N2387 1.413 . S
C2384 H2377 0.930 . S
C2384 C2383 1.393 . S
C2384 C2385 1.399 . S
C2385 C2384 1.399 . S
C2385 C2386 1.381 . S
C2386 H2378 0.930 . S
C2386 C2382 1.390 . S
C2386 C2385 1.381 . S
N2387 C2380 1.286 . S
N2387 C2383 1.413 . S
H2388 C2393 0.930 . S
H2389 C2396 0.930 . S
H2390 C2398 0.930 . S
H2391 C2392 1.016 . S
C2392 H2391 1.016 . S
C2392 N2399 1.286 . S
C2393 H2388 0.930 . S
C2393 C2394 1.397 . S
C2393 C2395 1.361 . S
C2394 C2393 1.397 . S
C2394 C2398 1.390 . S
C2395 C2393 1.361 . S
C2395 C2396 1.393 . S
C2395 N2399 1.413 . S
C2396 H2389 0.930 . S
C2396 C2395 1.393 . S
C2396 C2397 1.399 . S
C2397 C2396 1.399 . S
C2397 C2398 1.381 . S
C2398 H2390 0.930 . S
C2398 C2394 1.390 . S
C2398 C2397 1.381 . S
N2399 C2392 1.286 . S
N2399 C2395 1.413 . S
H2400 C2405 0.930 . S
H2401 C2408 0.930 . S
H2402 C2410 0.930 . S
H2403 C2404 1.016 . S
C2404 H2403 1.016 . S
C2404 N2411 1.286 . S
C2405 H2400 0.930 . S
C2405 C2406 1.397 . S
C2405 C2407 1.361 . S
C2406 C2405 1.397 . S
C2406 C2410 1.390 . S
C2407 C2405 1.361 . S
C2407 C2408 1.393 . S
C2407 N2411 1.413 . S
C2408 H2401 0.930 . S
C2408 C2407 1.393 . S
C2408 C2409 1.399 . S
C2409 C2408 1.399 . S
C2409 C2410 1.381 . S
C2410 H2402 0.930 . S
C2410 C2406 1.390 . S
C2410 C2409 1.381 . S
N2411 C2404 1.286 . S
N2411 C2407 1.413 . S
H2412 C2417 0.930 . S
H2413 C2420 0.930 . S
H2414 C2422 0.930 . S
H2415 C2416 1.016 . S
C2416 H2415 1.016 . S
C2416 N2423 1.286 . S
C2417 H2412 0.930 . S
C2417 C2418 1.397 . S
C2417 C2419 1.361 . S
C2418 C2417 1.397 . S
C2418 C2422 1.390 . S
C2419 C2417 1.361 . S
C2419 C2420 1.393 . S
C2419 N2423 1.413 . S
C2420 H2413 0.930 . S
C2420 C2419 1.393 . S
C2420 C2421 1.399 . S
C2421 C2420 1.399 . S
C2421 C2422 1.381 . S
C2422 H2414 0.930 . S
C2422 C2418 1.390 . S
C2422 C2421 1.381 . S
N2423 C2416 1.286 . S
N2423 C2419 1.413 . S
H2424 C2429 0.930 . S
H2425 C2432 0.930 . S
H2426 C2434 0.930 . S
H2427 C2428 1.016 . S
C2428 H2427 1.016 . S
C2428 N2435 1.286 . S
C2429 H2424 0.930 . S
C2429 C2430 1.397 . S
C2429 C2431 1.361 . S
C2430 C2429 1.397 . S
C2430 C2434 1.390 . S
C2431 C2429 1.361 . S
C2431 C2432 1.393 . S
C2431 N2435 1.413 . S
C2432 H2425 0.930 . S
C2432 C2431 1.393 . S
C2432 C2433 1.399 . S
C2433 C2432 1.399 . S
C2433 C2434 1.381 . S
C2434 H2426 0.930 . S
C2434 C2430 1.390 . S
C2434 C2433 1.381 . S
N2435 C2428 1.286 . S
N2435 C2431 1.413 . S
H2436 C2441 0.930 . S
H2437 C2444 0.930 . S
H2438 C2446 0.930 . S
H2439 C2440 1.016 . S
C2440 H2439 1.016 . S
C2440 N2447 1.286 . S
C2441 H2436 0.930 . S
C2441 C2442 1.397 . S
C2441 C2443 1.361 . S
C2442 C2441 1.397 . S
C2442 C2446 1.390 . S
C2443 C2441 1.361 . S
C2443 C2444 1.393 . S
C2443 N2447 1.413 . S
C2444 H2437 0.930 . S
C2444 C2443 1.393 . S
C2444 C2445 1.399 . S
C2445 C2444 1.399 . S
C2445 C2446 1.381 . S
C2446 H2438 0.930 . S
C2446 C2442 1.390 . S
C2446 C2445 1.381 . S
N2447 C2440 1.286 . S
N2447 C2443 1.413 . S
H2448 C2453 0.930 . S
H2449 C2456 0.930 . S
H2450 C2458 0.930 . S
H2451 C2452 1.016 . S
C2452 H2451 1.016 . S
C2452 N2459 1.286 . S
C2453 H2448 0.930 . S
C2453 C2454 1.397 . S
C2453 C2455 1.361 . S
C2454 C2453 1.397 . S
C2454 C2458 1.390 . S
C2455 C2453 1.361 . S
C2455 C2456 1.393 . S
C2455 N2459 1.413 . S
C2456 H2449 0.930 . S
C2456 C2455 1.393 . S
C2456 C2457 1.399 . S
C2457 C2456 1.399 . S
C2457 C2458 1.381 . S
C2458 H2450 0.930 . S
C2458 C2454 1.390 . S
C2458 C2457 1.381 . S
N2459 C2452 1.286 . S
N2459 C2455 1.413 . S
H2460 C2465 0.930 . S
H2461 C2468 0.930 . S
H2462 C2470 0.930 . S
H2463 C2464 1.016 . S
C2464 H2463 1.016 . S
C2464 N2471 1.286 . S
C2465 H2460 0.930 . S
C2465 C2466 1.397 . S
C2465 C2467 1.361 . S
C2466 C2465 1.397 . S
C2466 C2470 1.390 . S
C2467 C2465 1.361 . S
C2467 C2468 1.393 . S
C2467 N2471 1.413 . S
C2468 H2461 0.930 . S
C2468 C2467 1.393 . S
C2468 C2469 1.399 . S
C2469 C2468 1.399 . S
C2469 C2470 1.381 . S
C2470 H2462 0.930 . S
C2470 C2466 1.390 . S
C2470 C2469 1.381 . S
N2471 C2464 1.286 . S
N2471 C2467 1.413 . S
H2472 C2477 0.930 . S
H2473 C2480 0.930 . S
H2474 C2482 0.930 . S
H2475 C2476 1.016 . S
C2476 H2475 1.016 . S
C2476 N2483 1.286 . S
C2477 H2472 0.930 . S
C2477 C2478 1.397 . S
C2477 C2479 1.361 . S
C2478 C2477 1.397 . S
C2478 C2482 1.390 . S
C2479 C2477 1.361 . S
C2479 C2480 1.393 . S
C2479 N2483 1.413 . S
C2480 H2473 0.930 . S
C2480 C2479 1.393 . S
C2480 C2481 1.399 . S
C2481 C2480 1.399 . S
C2481 C2482 1.381 . S
C2482 H2474 0.930 . S
C2482 C2478 1.390 . S
C2482 C2481 1.381 . S
N2483 C2476 1.286 . S
N2483 C2479 1.413 . S
H2484 C2489 0.930 . S
H2485 C2492 0.930 . S
H2486 C2494 0.930 . S
H2487 C2488 1.016 . S
C2488 H2487 1.016 . S
C2488 N2495 1.286 . S
C2489 H2484 0.930 . S
C2489 C2490 1.397 . S
C2489 C2491 1.361 . S
C2490 C2489 1.397 . S
C2490 C2494 1.390 . S
C2491 C2489 1.361 . S
C2491 C2492 1.393 . S
C2491 N2495 1.413 . S
C2492 H2485 0.930 . S
C2492 C2491 1.393 . S
C2492 C2493 1.399 . S
C2493 C2492 1.399 . S
C2493 C2494 1.381 . S
C2494 H2486 0.930 . S
C2494 C2490 1.390 . S
C2494 C2493 1.381 . S
N2495 C2488 1.286 . S
N2495 C2491 1.413 . S
H2496 C2504 0.929 . S
H2497 C2506 0.930 . S
H2498 C2508 0.930 . S
H2499 C2511 0.929 . S
H2500 C2514 0.930 . S
H2501 C2516 0.960 . S
H2502 C2516 0.960 . S
H2503 C2516 0.960 . S
C2504 H2496 0.929 . S
C2504 C2505 1.377 . S
C2504 C2506 1.384 . S
C2505 C2504 1.377 . S
C2505 C2511 1.390 . S
C2506 H2497 0.930 . S
C2506 C2504 1.384 . S
C2506 C2507 1.372 . S
C2507 C2506 1.372 . S
C2507 C2508 1.400 . S
C2507 C2512 1.490 . S
C2508 H2498 0.930 . S
C2508 C2507 1.400 . S
C2508 C2511 1.386 . S
H2509 C2525 0.930 . S
H2510 C2526 0.931 . S
C2511 H2499 0.929 . S
C2511 C2505 1.390 . S
C2511 C2508 1.386 . S
C2512 C2507 1.490 . S
C2512 C2514 1.395 . S
C2512 C2515 1.403 . S
H2513 C2519 0.930 . S
C2514 H2500 0.930 . S
C2514 C2512 1.395 . S
C2514 C2517 1.403 . S
C2515 C2512 1.403 . S
C2515 C2516 1.524 . S
C2515 C2519 1.400 . S
C2516 H2501 0.960 . S
C2516 H2502 0.960 . S
C2516 H2503 0.960 . S
C2516 C2515 1.524 . S
C2517 C2514 1.403 . S
C2517 C2518 1.392 . S
C2517 C2521 1.495 . S
C2518 C2517 1.392 . S
C2518 C2519 1.385 . S
C2518 C2520 1.478 . S
C2519 H2513 0.930 . S
C2519 C2515 1.400 . S
C2519 C2518 1.385 . S
C2520 C2518 1.478 . S
C2520 C2522 1.381 . S
C2520 C2526 1.383 . S
C2521 C2517 1.495 . S
C2521 H2527 0.959 . S
C2521 H2528 0.961 . S
C2521 H2529 0.960 . S
C2522 C2520 1.381 . S
C2522 C2523 1.394 . S
C2522 H2530 0.930 . S
C2523 C2522 1.394 . S
C2523 C2524 1.383 . S
C2523 H2531 0.929 . S
C2524 C2523 1.383 . S
C2524 C2525 1.377 . S
C2525 H2509 0.930 . S
C2525 C2524 1.377 . S
C2525 C2526 1.379 . S
C2526 H2510 0.931 . S
C2526 C2520 1.383 . S
C2526 C2525 1.379 . S
H2527 C2521 0.959 . S
H2528 C2521 0.961 . S
H2529 C2521 0.960 . S
H2530 C2522 0.930 . S
H2531 C2523 0.929 . S
H2532 C2540 0.929 . S
H2533 C2542 0.930 . S
H2534 C2544 0.930 . S
H2535 C2547 0.929 . S
H2536 C2550 0.930 . S
H2537 C2552 0.960 . S
H2538 C2552 0.960 . S
H2539 C2552 0.960 . S
C2540 H2532 0.929 . S
C2540 C2541 1.377 . S
C2540 C2542 1.384 . S
C2541 C2540 1.377 . S
C2541 C2547 1.390 . S
C2542 H2533 0.930 . S
C2542 C2540 1.384 . S
C2542 C2543 1.372 . S
C2543 C2542 1.372 . S
C2543 C2544 1.400 . S
C2543 C2548 1.490 . S
C2544 H2534 0.930 . S
C2544 C2543 1.400 . S
C2544 C2547 1.386 . S
H2545 C2561 0.930 . S
H2546 C2562 0.931 . S
C2547 H2535 0.929 . S
C2547 C2541 1.390 . S
C2547 C2544 1.386 . S
C2548 C2543 1.490 . S
C2548 C2550 1.395 . S
C2548 C2551 1.403 . S
H2549 C2555 0.930 . S
C2550 H2536 0.930 . S
C2550 C2548 1.395 . S
C2550 C2553 1.403 . S
C2551 C2548 1.403 . S
C2551 C2552 1.524 . S
C2551 C2555 1.400 . S
C2552 H2537 0.960 . S
C2552 H2538 0.960 . S
C2552 H2539 0.960 . S
C2552 C2551 1.524 . S
C2553 C2550 1.403 . S
C2553 C2554 1.392 . S
C2553 C2557 1.495 . S
C2554 C2553 1.392 . S
C2554 C2555 1.385 . S
C2554 C2556 1.478 . S
C2555 H2549 0.930 . S
C2555 C2551 1.400 . S
C2555 C2554 1.385 . S
C2556 C2554 1.478 . S
C2556 C2558 1.381 . S
C2556 C2562 1.383 . S
C2557 C2553 1.495 . S
C2557 H2563 0.959 . S
C2557 H2564 0.961 . S
C2557 H2565 0.960 . S
C2558 C2556 1.381 . S
C2558 C2559 1.394 . S
C2558 H2566 0.930 . S
C2559 C2558 1.394 . S
C2559 C2560 1.383 . S
C2559 H2567 0.929 . S
C2560 C2559 1.383 . S
C2560 C2561 1.377 . S
C2561 H2545 0.930 . S
C2561 C2560 1.377 . S
C2561 C2562 1.379 . S
C2562 H2546 0.931 . S
C2562 C2556 1.383 . S
C2562 C2561 1.379 . S
H2563 C2557 0.959 . S
H2564 C2557 0.961 . S
H2565 C2557 0.960 . S
H2566 C2558 0.930 . S
H2567 C2559 0.929 . S
H2568 C2576 0.929 . S
H2569 C2578 0.930 . S
H2570 C2580 0.930 . S
H2571 C2583 0.929 . S
H2572 C2586 0.930 . S
H2573 C2588 0.960 . S
H2574 C2588 0.960 . S
H2575 C2588 0.960 . S
C2576 H2568 0.929 . S
C2576 C2577 1.377 . S
C2576 C2578 1.384 . S
C2577 C2576 1.377 . S
C2577 C2583 1.390 . S
C2578 H2569 0.930 . S
C2578 C2576 1.384 . S
C2578 C2579 1.372 . S
C2579 C2578 1.372 . S
C2579 C2580 1.400 . S
C2579 C2584 1.490 . S
C2580 H2570 0.930 . S
C2580 C2579 1.400 . S
C2580 C2583 1.386 . S
H2581 C2597 0.930 . S
H2582 C2598 0.931 . S
C2583 H2571 0.929 . S
C2583 C2577 1.390 . S
C2583 C2580 1.386 . S
C2584 C2579 1.490 . S
C2584 C2586 1.395 . S
C2584 C2587 1.403 . S
H2585 C2591 0.930 . S
C2586 H2572 0.930 . S
C2586 C2584 1.395 . S
C2586 C2589 1.403 . S
C2587 C2584 1.403 . S
C2587 C2588 1.524 . S
C2587 C2591 1.400 . S
C2588 H2573 0.960 . S
C2588 H2574 0.960 . S
C2588 H2575 0.960 . S
C2588 C2587 1.524 . S
C2589 C2586 1.403 . S
C2589 C2590 1.392 . S
C2589 C2593 1.495 . S
C2590 C2589 1.392 . S
C2590 C2591 1.385 . S
C2590 C2592 1.478 . S
C2591 H2585 0.930 . S
C2591 C2587 1.400 . S
C2591 C2590 1.385 . S
C2592 C2590 1.478 . S
C2592 C2594 1.381 . S
C2592 C2598 1.383 . S
C2593 C2589 1.495 . S
C2593 H2599 0.959 . S
C2593 H2600 0.961 . S
C2593 H2601 0.960 . S
C2594 C2592 1.381 . S
C2594 C2595 1.394 . S
C2594 H2602 0.930 . S
C2595 C2594 1.394 . S
C2595 C2596 1.383 . S
C2595 H2603 0.929 . S
C2596 C2595 1.383 . S
C2596 C2597 1.377 . S
C2597 H2581 0.930 . S
C2597 C2596 1.377 . S
C2597 C2598 1.379 . S
C2598 H2582 0.931 . S
C2598 C2592 1.383 . S
C2598 C2597 1.379 . S
H2599 C2593 0.959 . S
H2600 C2593 0.961 . S
H2601 C2593 0.960 . S
H2602 C2594 0.930 . S
H2603 C2595 0.929 . S
H2604 C2612 0.929 . S
H2605 C2614 0.930 . S
H2606 C2616 0.930 . S
H2607 C2619 0.929 . S
H2608 C2622 0.930 . S
H2609 C2624 0.960 . S
H2610 C2624 0.960 . S
H2611 C2624 0.960 . S
C2612 H2604 0.929 . S
C2612 C2613 1.377 . S
C2612 C2614 1.384 . S
C2613 C2612 1.377 . S
C2613 C2619 1.390 . S
C2614 H2605 0.930 . S
C2614 C2612 1.384 . S
C2614 C2615 1.372 . S
C2615 C2614 1.372 . S
C2615 C2616 1.400 . S
C2615 C2620 1.490 . S
C2616 H2606 0.930 . S
C2616 C2615 1.400 . S
C2616 C2619 1.386 . S
H2617 C2633 0.930 . S
H2618 C2634 0.931 . S
C2619 H2607 0.929 . S
C2619 C2613 1.390 . S
C2619 C2616 1.386 . S
C2620 C2615 1.490 . S
C2620 C2622 1.395 . S
C2620 C2623 1.403 . S
H2621 C2627 0.930 . S
C2622 H2608 0.930 . S
C2622 C2620 1.395 . S
C2622 C2625 1.403 . S
C2623 C2620 1.403 . S
C2623 C2624 1.524 . S
C2623 C2627 1.400 . S
C2624 H2609 0.960 . S
C2624 H2610 0.960 . S
C2624 H2611 0.960 . S
C2624 C2623 1.524 . S
C2625 C2622 1.403 . S
C2625 C2626 1.392 . S
C2625 C2629 1.495 . S
C2626 C2625 1.392 . S
C2626 C2627 1.385 . S
C2626 C2628 1.478 . S
C2627 H2621 0.930 . S
C2627 C2623 1.400 . S
C2627 C2626 1.385 . S
C2628 C2626 1.478 . S
C2628 C2630 1.381 . S
C2628 C2634 1.383 . S
C2629 C2625 1.495 . S
C2629 H2635 0.959 . S
C2629 H2636 0.961 . S
C2629 H2637 0.960 . S
C2630 C2628 1.381 . S
C2630 C2631 1.394 . S
C2630 H2638 0.930 . S
C2631 C2630 1.394 . S
C2631 C2632 1.383 . S
C2631 H2639 0.929 . S
C2632 C2631 1.383 . S
C2632 C2633 1.377 . S
C2633 H2617 0.930 . S
C2633 C2632 1.377 . S
C2633 C2634 1.379 . S
C2634 H2618 0.931 . S
C2634 C2628 1.383 . S
C2634 C2633 1.379 . S
H2635 C2629 0.959 . S
H2636 C2629 0.961 . S
H2637 C2629 0.960 . S
H2638 C2630 0.930 . S
H2639 C2631 0.929 . S
H2640 C2648 0.929 . S
H2641 C2650 0.930 . S
H2642 C2652 0.930 . S
H2643 C2655 0.929 . S
H2644 C2658 0.930 . S
H2645 C2660 0.960 . S
H2646 C2660 0.960 . S
H2647 C2660 0.960 . S
C2648 H2640 0.929 . S
C2648 C2649 1.377 . S
C2648 C2650 1.384 . S
C2649 C2648 1.377 . S
C2649 C2655 1.390 . S
C2650 H2641 0.930 . S
C2650 C2648 1.384 . S
C2650 C2651 1.372 . S
C2651 C2650 1.372 . S
C2651 C2652 1.400 . S
C2651 C2656 1.490 . S
C2652 H2642 0.930 . S
C2652 C2651 1.400 . S
C2652 C2655 1.386 . S
H2653 C2669 0.930 . S
H2654 C2670 0.931 . S
C2655 H2643 0.929 . S
C2655 C2649 1.390 . S
C2655 C2652 1.386 . S
C2656 C2651 1.490 . S
C2656 C2658 1.395 . S
C2656 C2659 1.403 . S
H2657 C2663 0.930 . S
C2658 H2644 0.930 . S
C2658 C2656 1.395 . S
C2658 C2661 1.403 . S
C2659 C2656 1.403 . S
C2659 C2660 1.524 . S
C2659 C2663 1.400 . S
C2660 H2645 0.960 . S
C2660 H2646 0.960 . S
C2660 H2647 0.960 . S
C2660 C2659 1.524 . S
C2661 C2658 1.403 . S
C2661 C2662 1.392 . S
C2661 C2665 1.495 . S
C2662 C2661 1.392 . S
C2662 C2663 1.385 . S
C2662 C2664 1.478 . S
C2663 H2657 0.930 . S
C2663 C2659 1.400 . S
C2663 C2662 1.385 . S
C2664 C2662 1.478 . S
C2664 C2666 1.381 . S
C2664 C2670 1.383 . S
C2665 C2661 1.495 . S
C2665 H2671 0.959 . S
C2665 H2672 0.961 . S
C2665 H2673 0.960 . S
C2666 C2664 1.381 . S
C2666 C2667 1.394 . S
C2666 H2674 0.930 . S
C2667 C2666 1.394 . S
C2667 C2668 1.383 . S
C2667 H2675 0.929 . S
C2668 C2667 1.383 . S
C2668 C2669 1.377 . S
C2669 H2653 0.930 . S
C2669 C2668 1.377 . S
C2669 C2670 1.379 . S
C2670 H2654 0.931 . S
C2670 C2664 1.383 . S
C2670 C2669 1.379 . S
H2671 C2665 0.959 . S
H2672 C2665 0.961 . S
H2673 C2665 0.960 . S
H2674 C2666 0.930 . S
H2675 C2667 0.929 . S
H2676 C2684 0.929 . S
H2677 C2686 0.930 . S
H2678 C2688 0.930 . S
H2679 C2691 0.929 . S
H2680 C2694 0.930 . S
H2681 C2696 0.960 . S
H2682 C2696 0.960 . S
H2683 C2696 0.960 . S
C2684 H2676 0.929 . S
C2684 C2685 1.377 . S
C2684 C2686 1.384 . S
C2685 C2684 1.377 . S
C2685 C2691 1.390 . S
C2686 H2677 0.930 . S
C2686 C2684 1.384 . S
C2686 C2687 1.372 . S
C2687 C2686 1.372 . S
C2687 C2688 1.400 . S
C2687 C2692 1.490 . S
C2688 H2678 0.930 . S
C2688 C2687 1.400 . S
C2688 C2691 1.386 . S
H2689 C2705 0.930 . S
H2690 C2706 0.931 . S
C2691 H2679 0.929 . S
C2691 C2685 1.390 . S
C2691 C2688 1.386 . S
C2692 C2687 1.490 . S
C2692 C2694 1.395 . S
C2692 C2695 1.403 . S
H2693 C2699 0.930 . S
C2694 H2680 0.930 . S
C2694 C2692 1.395 . S
C2694 C2697 1.403 . S
C2695 C2692 1.403 . S
C2695 C2696 1.524 . S
C2695 C2699 1.400 . S
C2696 H2681 0.960 . S
C2696 H2682 0.960 . S
C2696 H2683 0.960 . S
C2696 C2695 1.524 . S
C2697 C2694 1.403 . S
C2697 C2698 1.392 . S
C2697 C2701 1.495 . S
C2698 C2697 1.392 . S
C2698 C2699 1.385 . S
C2698 C2700 1.478 . S
C2699 H2693 0.930 . S
C2699 C2695 1.400 . S
C2699 C2698 1.385 . S
C2700 C2698 1.478 . S
C2700 C2702 1.381 . S
C2700 C2706 1.383 . S
C2701 C2697 1.495 . S
C2701 H2707 0.959 . S
C2701 H2708 0.961 . S
C2701 H2709 0.960 . S
C2702 C2700 1.381 . S
C2702 C2703 1.394 . S
C2702 H2710 0.930 . S
C2703 C2702 1.394 . S
C2703 C2704 1.383 . S
C2703 H2711 0.929 . S
C2704 C2703 1.383 . S
C2704 C2705 1.377 . S
C2705 H2689 0.930 . S
C2705 C2704 1.377 . S
C2705 C2706 1.379 . S
C2706 H2690 0.931 . S
C2706 C2700 1.383 . S
C2706 C2705 1.379 . S
H2707 C2701 0.959 . S
H2708 C2701 0.961 . S
H2709 C2701 0.960 . S
H2710 C2702 0.930 . S
H2711 C2703 0.929 . S
H2712 C2720 0.929 . S
H2713 C2722 0.930 . S
H2714 C2724 0.930 . S
H2715 C2727 0.929 . S
H2716 C2730 0.930 . S
H2717 C2732 0.960 . S
H2718 C2732 0.960 . S
H2719 C2732 0.960 . S
C2720 H2712 0.929 . S
C2720 C2721 1.377 . S
C2720 C2722 1.384 . S
C2721 C2720 1.377 . S
C2721 C2727 1.390 . S
C2722 H2713 0.930 . S
C2722 C2720 1.384 . S
C2722 C2723 1.372 . S
C2723 C2722 1.372 . S
C2723 C2724 1.400 . S
C2723 C2728 1.490 . S
C2724 H2714 0.930 . S
C2724 C2723 1.400 . S
C2724 C2727 1.386 . S
H2725 C2741 0.930 . S
H2726 C2742 0.931 . S
C2727 H2715 0.929 . S
C2727 C2721 1.390 . S
C2727 C2724 1.386 . S
C2728 C2723 1.490 . S
C2728 C2730 1.395 . S
C2728 C2731 1.403 . S
H2729 C2735 0.930 . S
C2730 H2716 0.930 . S
C2730 C2728 1.395 . S
C2730 C2733 1.403 . S
C2731 C2728 1.403 . S
C2731 C2732 1.524 . S
C2731 C2735 1.400 . S
C2732 H2717 0.960 . S
C2732 H2718 0.960 . S
C2732 H2719 0.960 . S
C2732 C2731 1.524 . S
C2733 C2730 1.403 . S
C2733 C2734 1.392 . S
C2733 C2737 1.495 . S
C2734 C2733 1.392 . S
C2734 C2735 1.385 . S
C2734 C2736 1.478 . S
C2735 H2729 0.930 . S
C2735 C2731 1.400 . S
C2735 C2734 1.385 . S
C2736 C2734 1.478 . S
C2736 C2738 1.381 . S
C2736 C2742 1.383 . S
C2737 C2733 1.495 . S
C2737 H2743 0.959 . S
C2737 H2744 0.961 . S
C2737 H2745 0.960 . S
C2738 C2736 1.381 . S
C2738 C2739 1.394 . S
C2738 H2746 0.930 . S
C2739 C2738 1.394 . S
C2739 C2740 1.383 . S
C2739 H2747 0.929 . S
C2740 C2739 1.383 . S
C2740 C2741 1.377 . S
C2741 H2725 0.930 . S
C2741 C2740 1.377 . S
C2741 C2742 1.379 . S
C2742 H2726 0.931 . S
C2742 C2736 1.383 . S
C2742 C2741 1.379 . S
H2743 C2737 0.959 . S
H2744 C2737 0.961 . S
H2745 C2737 0.960 . S
H2746 C2738 0.930 . S
H2747 C2739 0.929 . S
H2748 C2756 0.929 . S
H2749 C2758 0.930 . S
H2750 C2760 0.930 . S
H2751 C2763 0.929 . S
H2752 C2766 0.930 . S
H2753 C2768 0.960 . S
H2754 C2768 0.960 . S
H2755 C2768 0.960 . S
C2756 H2748 0.929 . S
C2756 C2757 1.377 . S
C2756 C2758 1.384 . S
C2757 C2756 1.377 . S
C2757 C2763 1.390 . S
C2758 H2749 0.930 . S
C2758 C2756 1.384 . S
C2758 C2759 1.372 . S
C2759 C2758 1.372 . S
C2759 C2760 1.400 . S
C2759 C2764 1.490 . S
C2760 H2750 0.930 . S
C2760 C2759 1.400 . S
C2760 C2763 1.386 . S
H2761 C2777 0.930 . S
H2762 C2778 0.931 . S
C2763 H2751 0.929 . S
C2763 C2757 1.390 . S
C2763 C2760 1.386 . S
C2764 C2759 1.490 . S
C2764 C2766 1.395 . S
C2764 C2767 1.403 . S
H2765 C2771 0.930 . S
C2766 H2752 0.930 . S
C2766 C2764 1.395 . S
C2766 C2769 1.403 . S
C2767 C2764 1.403 . S
C2767 C2768 1.524 . S
C2767 C2771 1.400 . S
C2768 H2753 0.960 . S
C2768 H2754 0.960 . S
C2768 H2755 0.960 . S
C2768 C2767 1.524 . S
C2769 C2766 1.403 . S
C2769 C2770 1.392 . S
C2769 C2773 1.495 . S
C2770 C2769 1.392 . S
C2770 C2771 1.385 . S
C2770 C2772 1.478 . S
C2771 H2765 0.930 . S
C2771 C2767 1.400 . S
C2771 C2770 1.385 . S
C2772 C2770 1.478 . S
C2772 C2774 1.381 . S
C2772 C2778 1.383 . S
C2773 C2769 1.495 . S
C2773 H2779 0.959 . S
C2773 H2780 0.961 . S
C2773 H2781 0.960 . S
C2774 C2772 1.381 . S
C2774 C2775 1.394 . S
C2774 H2782 0.930 . S
C2775 C2774 1.394 . S
C2775 C2776 1.383 . S
C2775 H2783 0.929 . S
C2776 C2775 1.383 . S
C2776 C2777 1.377 . S
C2777 H2761 0.930 . S
C2777 C2776 1.377 . S
C2777 C2778 1.379 . S
C2778 H2762 0.931 . S
C2778 C2772 1.383 . S
C2778 C2777 1.379 . S
H2779 C2773 0.959 . S
H2780 C2773 0.961 . S
H2781 C2773 0.960 . S
H2782 C2774 0.930 . S
H2783 C2775 0.929 . S
H2784 C2792 0.929 . S
H2785 C2794 0.930 . S
H2786 C2796 0.930 . S
H2787 C2799 0.929 . S
H2788 C2802 0.930 . S
H2789 C2804 0.960 . S
H2790 C2804 0.960 . S
H2791 C2804 0.960 . S
C2792 H2784 0.929 . S
C2792 C2793 1.377 . S
C2792 C2794 1.384 . S
C2793 C2792 1.377 . S
C2793 C2799 1.390 . S
C2794 H2785 0.930 . S
C2794 C2792 1.384 . S
C2794 C2795 1.372 . S
C2795 C2794 1.372 . S
C2795 C2796 1.400 . S
C2795 C2800 1.490 . S
C2796 H2786 0.930 . S
C2796 C2795 1.400 . S
C2796 C2799 1.386 . S
H2797 C2813 0.930 . S
H2798 C2814 0.931 . S
C2799 H2787 0.929 . S
C2799 C2793 1.390 . S
C2799 C2796 1.386 . S
C2800 C2795 1.490 . S
C2800 C2802 1.395 . S
C2800 C2803 1.403 . S
H2801 C2807 0.930 . S
C2802 H2788 0.930 . S
C2802 C2800 1.395 . S
C2802 C2805 1.403 . S
C2803 C2800 1.403 . S
C2803 C2804 1.524 . S
C2803 C2807 1.400 . S
C2804 H2789 0.960 . S
C2804 H2790 0.960 . S
C2804 H2791 0.960 . S
C2804 C2803 1.524 . S
C2805 C2802 1.403 . S
C2805 C2806 1.392 . S
C2805 C2809 1.495 . S
C2806 C2805 1.392 . S
C2806 C2807 1.385 . S
C2806 C2808 1.478 . S
C2807 H2801 0.930 . S
C2807 C2803 1.400 . S
C2807 C2806 1.385 . S
C2808 C2806 1.478 . S
C2808 C2810 1.381 . S
C2808 C2814 1.383 . S
C2809 C2805 1.495 . S
C2809 H2815 0.959 . S
C2809 H2816 0.961 . S
C2809 H2817 0.960 . S
C2810 C2808 1.381 . S
C2810 C2811 1.394 . S
C2810 H2818 0.930 . S
C2811 C2810 1.394 . S
C2811 C2812 1.383 . S
C2811 H2819 0.929 . S
C2812 C2811 1.383 . S
C2812 C2813 1.377 . S
C2813 H2797 0.930 . S
C2813 C2812 1.377 . S
C2813 C2814 1.379 . S
C2814 H2798 0.931 . S
C2814 C2808 1.383 . S
C2814 C2813 1.379 . S
H2815 C2809 0.959 . S
H2816 C2809 0.961 . S
H2817 C2809 0.960 . S
H2818 C2810 0.930 . S
H2819 C2811 0.929 . S
H2820 C2828 0.929 . S
H2821 C2830 0.930 . S
H2822 C2832 0.930 . S
H2823 C2835 0.929 . S
H2824 C2838 0.930 . S
H2825 C2840 0.960 . S
H2826 C2840 0.960 . S
H2827 C2840 0.960 . S
C2828 H2820 0.929 . S
C2828 C2829 1.377 . S
C2828 C2830 1.384 . S
C2829 C2828 1.377 . S
C2829 C2835 1.390 . S
C2830 H2821 0.930 . S
C2830 C2828 1.384 . S
C2830 C2831 1.372 . S
C2831 C2830 1.372 . S
C2831 C2832 1.400 . S
C2831 C2836 1.490 . S
C2832 H2822 0.930 . S
C2832 C2831 1.400 . S
C2832 C2835 1.386 . S
H2833 C2849 0.930 . S
H2834 C2850 0.931 . S
C2835 H2823 0.929 . S
C2835 C2829 1.390 . S
C2835 C2832 1.386 . S
C2836 C2831 1.490 . S
C2836 C2838 1.395 . S
C2836 C2839 1.403 . S
H2837 C2843 0.930 . S
C2838 H2824 0.930 . S
C2838 C2836 1.395 . S
C2838 C2841 1.403 . S
C2839 C2836 1.403 . S
C2839 C2840 1.524 . S
C2839 C2843 1.400 . S
C2840 H2825 0.960 . S
C2840 H2826 0.960 . S
C2840 H2827 0.960 . S
C2840 C2839 1.524 . S
C2841 C2838 1.403 . S
C2841 C2842 1.392 . S
C2841 C2845 1.495 . S
C2842 C2841 1.392 . S
C2842 C2843 1.385 . S
C2842 C2844 1.478 . S
C2843 H2837 0.930 . S
C2843 C2839 1.400 . S
C2843 C2842 1.385 . S
C2844 C2842 1.478 . S
C2844 C2846 1.381 . S
C2844 C2850 1.383 . S
C2845 C2841 1.495 . S
C2845 H2851 0.959 . S
C2845 H2852 0.961 . S
C2845 H2853 0.960 . S
C2846 C2844 1.381 . S
C2846 C2847 1.394 . S
C2846 H2854 0.930 . S
C2847 C2846 1.394 . S
C2847 C2848 1.383 . S
C2847 H2855 0.929 . S
C2848 C2847 1.383 . S
C2848 C2849 1.377 . S
C2849 H2833 0.930 . S
C2849 C2848 1.377 . S
C2849 C2850 1.379 . S
C2850 H2834 0.931 . S
C2850 C2844 1.383 . S
C2850 C2849 1.379 . S
H2851 C2845 0.959 . S
H2852 C2845 0.961 . S
H2853 C2845 0.960 . S
H2854 C2846 0.930 . S
H2855 C2847 0.929 . S
H2856 C2864 0.929 . S
H2857 C2866 0.930 . S
H2858 C2868 0.930 . S
H2859 C2871 0.929 . S
H2860 C2874 0.930 . S
H2861 C2876 0.960 . S
H2862 C2876 0.960 . S
H2863 C2876 0.960 . S
C2864 H2856 0.929 . S
C2864 C2865 1.377 . S
C2864 C2866 1.384 . S
C2865 C2864 1.377 . S
C2865 C2871 1.390 . S
C2866 H2857 0.930 . S
C2866 C2864 1.384 . S
C2866 C2867 1.372 . S
C2867 C2866 1.372 . S
C2867 C2868 1.400 . S
C2867 C2872 1.490 . S
C2868 H2858 0.930 . S
C2868 C2867 1.400 . S
C2868 C2871 1.386 . S
H2869 C2885 0.930 . S
H2870 C2886 0.931 . S
C2871 H2859 0.929 . S
C2871 C2865 1.390 . S
C2871 C2868 1.386 . S
C2872 C2867 1.490 . S
C2872 C2874 1.395 . S
C2872 C2875 1.403 . S
H2873 C2879 0.930 . S
C2874 H2860 0.930 . S
C2874 C2872 1.395 . S
C2874 C2877 1.403 . S
C2875 C2872 1.403 . S
C2875 C2876 1.524 . S
C2875 C2879 1.400 . S
C2876 H2861 0.960 . S
C2876 H2862 0.960 . S
C2876 H2863 0.960 . S
C2876 C2875 1.524 . S
C2877 C2874 1.403 . S
C2877 C2878 1.392 . S
C2877 C2881 1.495 . S
C2878 C2877 1.392 . S
C2878 C2879 1.385 . S
C2878 C2880 1.478 . S
C2879 H2873 0.930 . S
C2879 C2875 1.400 . S
C2879 C2878 1.385 . S
C2880 C2878 1.478 . S
C2880 C2882 1.381 . S
C2880 C2886 1.383 . S
C2881 C2877 1.495 . S
C2881 H2887 0.959 . S
C2881 H2888 0.961 . S
C2881 H2889 0.960 . S
C2882 C2880 1.381 . S
C2882 C2883 1.394 . S
C2882 H2890 0.930 . S
C2883 C2882 1.394 . S
C2883 C2884 1.383 . S
C2883 H2891 0.929 . S
C2884 C2883 1.383 . S
C2884 C2885 1.377 . S
C2885 H2869 0.930 . S
C2885 C2884 1.377 . S
C2885 C2886 1.379 . S
C2886 H2870 0.931 . S
C2886 C2880 1.383 . S
C2886 C2885 1.379 . S
H2887 C2881 0.959 . S
H2888 C2881 0.961 . S
H2889 C2881 0.960 . S
H2890 C2882 0.930 . S
H2891 C2883 0.929 . S
H2892 C2900 0.929 . S
H2893 C2902 0.930 . S
H2894 C2904 0.930 . S
H2895 C2907 0.929 . S
H2896 C2910 0.930 . S
H2897 C2912 0.960 . S
H2898 C2912 0.960 . S
H2899 C2912 0.960 . S
C2900 H2892 0.929 . S
C2900 C2901 1.377 . S
C2900 C2902 1.384 . S
C2901 C2900 1.377 . S
C2901 C2907 1.390 . S
C2902 H2893 0.930 . S
C2902 C2900 1.384 . S
C2902 C2903 1.372 . S
C2903 C2902 1.372 . S
C2903 C2904 1.400 . S
C2903 C2908 1.490 . S
C2904 H2894 0.930 . S
C2904 C2903 1.400 . S
C2904 C2907 1.386 . S
H2905 C2921 0.930 . S
H2906 C2922 0.931 . S
C2907 H2895 0.929 . S
C2907 C2901 1.390 . S
C2907 C2904 1.386 . S
C2908 C2903 1.490 . S
C2908 C2910 1.395 . S
C2908 C2911 1.403 . S
H2909 C2915 0.930 . S
C2910 H2896 0.930 . S
C2910 C2908 1.395 . S
C2910 C2913 1.403 . S
C2911 C2908 1.403 . S
C2911 C2912 1.524 . S
C2911 C2915 1.400 . S
C2912 H2897 0.960 . S
C2912 H2898 0.960 . S
C2912 H2899 0.960 . S
C2912 C2911 1.524 . S
C2913 C2910 1.403 . S
C2913 C2914 1.392 . S
C2913 C2917 1.495 . S
C2914 C2913 1.392 . S
C2914 C2915 1.385 . S
C2914 C2916 1.478 . S
C2915 H2909 0.930 . S
C2915 C2911 1.400 . S
C2915 C2914 1.385 . S
C2916 C2914 1.478 . S
C2916 C2918 1.381 . S
C2916 C2922 1.383 . S
C2917 C2913 1.495 . S
C2917 H2923 0.959 . S
C2917 H2924 0.961 . S
C2917 H2925 0.960 . S
C2918 C2916 1.381 . S
C2918 C2919 1.394 . S
C2918 H2926 0.930 . S
C2919 C2918 1.394 . S
C2919 C2920 1.383 . S
C2919 H2927 0.929 . S
C2920 C2919 1.383 . S
C2920 C2921 1.377 . S
C2921 H2905 0.930 . S
C2921 C2920 1.377 . S
C2921 C2922 1.379 . S
C2922 H2906 0.931 . S
C2922 C2916 1.383 . S
C2922 C2921 1.379 . S
H2923 C2917 0.959 . S
H2924 C2917 0.961 . S
H2925 C2917 0.960 . S
H2926 C2918 0.930 . S
H2927 C2919 0.929 . S
H2928 C2936 0.929 . S
H2929 C2938 0.930 . S
H2930 C2940 0.930 . S
H2931 C2943 0.929 . S
H2932 C2946 0.930 . S
H2933 C2948 0.960 . S
H2934 C2948 0.960 . S
H2935 C2948 0.960 . S
C2936 H2928 0.929 . S
C2936 C2937 1.377 . S
C2936 C2938 1.384 . S
C2937 C2936 1.377 . S
C2937 C2943 1.390 . S
C2938 H2929 0.930 . S
C2938 C2936 1.384 . S
C2938 C2939 1.372 . S
C2939 C2938 1.372 . S
C2939 C2940 1.400 . S
C2939 C2944 1.490 . S
C2940 H2930 0.930 . S
C2940 C2939 1.400 . S
C2940 C2943 1.386 . S
H2941 C2957 0.930 . S
H2942 C2958 0.931 . S
C2943 H2931 0.929 . S
C2943 C2937 1.390 . S
C2943 C2940 1.386 . S
C2944 C2939 1.490 . S
C2944 C2946 1.395 . S
C2944 C2947 1.403 . S
H2945 C2951 0.930 . S
C2946 H2932 0.930 . S
C2946 C2944 1.395 . S
C2946 C2949 1.403 . S
C2947 C2944 1.403 . S
C2947 C2948 1.524 . S
C2947 C2951 1.400 . S
C2948 H2933 0.960 . S
C2948 H2934 0.960 . S
C2948 H2935 0.960 . S
C2948 C2947 1.524 . S
C2949 C2946 1.403 . S
C2949 C2950 1.392 . S
C2949 C2953 1.495 . S
C2950 C2949 1.392 . S
C2950 C2951 1.385 . S
C2950 C2952 1.478 . S
C2951 H2945 0.930 . S
C2951 C2947 1.400 . S
C2951 C2950 1.385 . S
C2952 C2950 1.478 . S
C2952 C2954 1.381 . S
C2952 C2958 1.383 . S
C2953 C2949 1.495 . S
C2953 H2959 0.959 . S
C2953 H2960 0.961 . S
C2953 H2961 0.960 . S
C2954 C2952 1.381 . S
C2954 C2955 1.394 . S
C2954 H2962 0.930 . S
C2955 C2954 1.394 . S
C2955 C2956 1.383 . S
C2955 H2963 0.929 . S
C2956 C2955 1.383 . S
C2956 C2957 1.377 . S
C2957 H2941 0.930 . S
C2957 C2956 1.377 . S
C2957 C2958 1.379 . S
C2958 H2942 0.931 . S
C2958 C2952 1.383 . S
C2958 C2957 1.379 . S
H2959 C2953 0.959 . S
H2960 C2953 0.961 . S
H2961 C2953 0.960 . S
H2962 C2954 0.930 . S
H2963 C2955 0.929 . S
H2964 C2972 0.929 . S
H2965 C2974 0.930 . S
H2966 C2976 0.930 . S
H2967 C2979 0.929 . S
H2968 C2982 0.930 . S
H2969 C2984 0.960 . S
H2970 C2984 0.960 . S
H2971 C2984 0.960 . S
C2972 H2964 0.929 . S
C2972 C2973 1.377 . S
C2972 C2974 1.384 . S
C2973 C2972 1.377 . S
C2973 C2979 1.390 . S
C2974 H2965 0.930 . S
C2974 C2972 1.384 . S
C2974 C2975 1.372 . S
C2975 C2974 1.372 . S
C2975 C2976 1.400 . S
C2975 C2980 1.490 . S
C2976 H2966 0.930 . S
C2976 C2975 1.400 . S
C2976 C2979 1.386 . S
H2977 C2993 0.930 . S
H2978 C2994 0.931 . S
C2979 H2967 0.929 . S
C2979 C2973 1.390 . S
C2979 C2976 1.386 . S
C2980 C2975 1.490 . S
C2980 C2982 1.395 . S
C2980 C2983 1.403 . S
H2981 C2987 0.930 . S
C2982 H2968 0.930 . S
C2982 C2980 1.395 . S
C2982 C2985 1.403 . S
C2983 C2980 1.403 . S
C2983 C2984 1.524 . S
C2983 C2987 1.400 . S
C2984 H2969 0.960 . S
C2984 H2970 0.960 . S
C2984 H2971 0.960 . S
C2984 C2983 1.524 . S
C2985 C2982 1.403 . S
C2985 C2986 1.392 . S
C2985 C2989 1.495 . S
C2986 C2985 1.392 . S
C2986 C2987 1.385 . S
C2986 C2988 1.478 . S
C2987 H2981 0.930 . S
C2987 C2983 1.400 . S
C2987 C2986 1.385 . S
C2988 C2986 1.478 . S
C2988 C2990 1.381 . S
C2988 C2994 1.383 . S
C2989 C2985 1.495 . S
C2989 H2995 0.959 . S
C2989 H2996 0.961 . S
C2989 H2997 0.960 . S
C2990 C2988 1.381 . S
C2990 C2991 1.394 . S
C2990 H2998 0.930 . S
C2991 C2990 1.394 . S
C2991 C2992 1.383 . S
C2991 H2999 0.929 . S
C2992 C2991 1.383 . S
C2992 C2993 1.377 . S
C2993 H2977 0.930 . S
C2993 C2992 1.377 . S
C2993 C2994 1.379 . S
C2994 H2978 0.931 . S
C2994 C2988 1.383 . S
C2994 C2993 1.379 . S
H2995 C2989 0.959 . S
H2996 C2989 0.961 . S
H2997 C2989 0.960 . S
H2998 C2990 0.930 . S
H2999 C2991 0.929 . S
H3000 C3008 0.929 . S
H3001 C3010 0.930 . S
H3002 C3012 0.930 . S
H3003 C3015 0.929 . S
H3004 C3018 0.930 . S
H3005 C3020 0.960 . S
H3006 C3020 0.960 . S
H3007 C3020 0.960 . S
C3008 H3000 0.929 . S
C3008 C3009 1.377 . S
C3008 C3010 1.384 . S
C3009 C3008 1.377 . S
C3009 C3015 1.390 . S
C3010 H3001 0.930 . S
C3010 C3008 1.384 . S
C3010 C3011 1.372 . S
C3011 C3010 1.372 . S
C3011 C3012 1.400 . S
C3011 C3016 1.490 . S
C3012 H3002 0.930 . S
C3012 C3011 1.400 . S
C3012 C3015 1.386 . S
H3013 C3029 0.930 . S
H3014 C3030 0.931 . S
C3015 H3003 0.929 . S
C3015 C3009 1.390 . S
C3015 C3012 1.386 . S
C3016 C3011 1.490 . S
C3016 C3018 1.395 . S
C3016 C3019 1.403 . S
H3017 C3023 0.930 . S
C3018 H3004 0.930 . S
C3018 C3016 1.395 . S
C3018 C3021 1.403 . S
C3019 C3016 1.403 . S
C3019 C3020 1.524 . S
C3019 C3023 1.400 . S
C3020 H3005 0.960 . S
C3020 H3006 0.960 . S
C3020 H3007 0.960 . S
C3020 C3019 1.524 . S
C3021 C3018 1.403 . S
C3021 C3022 1.392 . S
C3021 C3025 1.495 . S
C3022 C3021 1.392 . S
C3022 C3023 1.385 . S
C3022 C3024 1.478 . S
C3023 H3017 0.930 . S
C3023 C3019 1.400 . S
C3023 C3022 1.385 . S
C3024 C3022 1.478 . S
C3024 C3026 1.381 . S
C3024 C3030 1.383 . S
C3025 C3021 1.495 . S
C3025 H3031 0.959 . S
C3025 H3032 0.961 . S
C3025 H3033 0.960 . S
C3026 C3024 1.381 . S
C3026 C3027 1.394 . S
C3026 H3034 0.930 . S
C3027 C3026 1.394 . S
C3027 C3028 1.383 . S
C3027 H3035 0.929 . S
C3028 C3027 1.383 . S
C3028 C3029 1.377 . S
C3029 H3013 0.930 . S
C3029 C3028 1.377 . S
C3029 C3030 1.379 . S
C3030 H3014 0.931 . S
C3030 C3024 1.383 . S
C3030 C3029 1.379 . S
H3031 C3025 0.959 . S
H3032 C3025 0.961 . S
H3033 C3025 0.960 . S
H3034 C3026 0.930 . S
H3035 C3027 0.929 . S
H3036 C3044 0.929 . S
H3037 C3046 0.930 . S
H3038 C3048 0.930 . S
H3039 C3051 0.929 . S
H3040 C3054 0.930 . S
H3041 C3056 0.960 . S
H3042 C3056 0.960 . S
H3043 C3056 0.960 . S
C3044 H3036 0.929 . S
C3044 C3045 1.377 . S
C3044 C3046 1.384 . S
C3045 C3044 1.377 . S
C3045 C3051 1.390 . S
C3046 H3037 0.930 . S
C3046 C3044 1.384 . S
C3046 C3047 1.372 . S
C3047 C3046 1.372 . S
C3047 C3048 1.400 . S
C3047 C3052 1.490 . S
C3048 H3038 0.930 . S
C3048 C3047 1.400 . S
C3048 C3051 1.386 . S
H3049 C3065 0.930 . S
H3050 C3066 0.931 . S
C3051 H3039 0.929 . S
C3051 C3045 1.390 . S
C3051 C3048 1.386 . S
C3052 C3047 1.490 . S
C3052 C3054 1.395 . S
C3052 C3055 1.403 . S
H3053 C3059 0.930 . S
C3054 H3040 0.930 . S
C3054 C3052 1.395 . S
C3054 C3057 1.403 . S
C3055 C3052 1.403 . S
C3055 C3056 1.524 . S
C3055 C3059 1.400 . S
C3056 H3041 0.960 . S
C3056 H3042 0.960 . S
C3056 H3043 0.960 . S
C3056 C3055 1.524 . S
C3057 C3054 1.403 . S
C3057 C3058 1.392 . S
C3057 C3061 1.495 . S
C3058 C3057 1.392 . S
C3058 C3059 1.385 . S
C3058 C3060 1.478 . S
C3059 H3053 0.930 . S
C3059 C3055 1.400 . S
C3059 C3058 1.385 . S
C3060 C3058 1.478 . S
C3060 C3062 1.381 . S
C3060 C3066 1.383 . S
C3061 C3057 1.495 . S
C3061 H3067 0.959 . S
C3061 H3068 0.961 . S
C3061 H3069 0.960 . S
C3062 C3060 1.381 . S
C3062 C3063 1.394 . S
C3062 H3070 0.930 . S
C3063 C3062 1.394 . S
C3063 C3064 1.383 . S
C3063 H3071 0.929 . S
C3064 C3063 1.383 . S
C3064 C3065 1.377 . S
C3065 H3049 0.930 . S
C3065 C3064 1.377 . S
C3065 C3066 1.379 . S
C3066 H3050 0.931 . S
C3066 C3060 1.383 . S
C3066 C3065 1.379 . S
H3067 C3061 0.959 . S
H3068 C3061 0.961 . S
H3069 C3061 0.960 . S
H3070 C3062 0.930 . S
H3071 C3063 0.929 . S
H3072 C3080 0.929 . S
H3073 C3082 0.930 . S
H3074 C3084 0.930 . S
H3075 C3087 0.929 . S
H3076 C3090 0.930 . S
H3077 C3092 0.960 . S
H3078 C3092 0.960 . S
H3079 C3092 0.960 . S
C3080 H3072 0.929 . S
C3080 C3081 1.377 . S
C3080 C3082 1.384 . S
C3081 C3080 1.377 . S
C3081 C3087 1.390 . S
C3082 H3073 0.930 . S
C3082 C3080 1.384 . S
C3082 C3083 1.372 . S
C3083 C3082 1.372 . S
C3083 C3084 1.400 . S
C3083 C3088 1.490 . S
C3084 H3074 0.930 . S
C3084 C3083 1.400 . S
C3084 C3087 1.386 . S
H3085 C3101 0.930 . S
H3086 C3102 0.931 . S
C3087 H3075 0.929 . S
C3087 C3081 1.390 . S
C3087 C3084 1.386 . S
C3088 C3083 1.490 . S
C3088 C3090 1.395 . S
C3088 C3091 1.403 . S
H3089 C3095 0.930 . S
C3090 H3076 0.930 . S
C3090 C3088 1.395 . S
C3090 C3093 1.403 . S
C3091 C3088 1.403 . S
C3091 C3092 1.524 . S
C3091 C3095 1.400 . S
C3092 H3077 0.960 . S
C3092 H3078 0.960 . S
C3092 H3079 0.960 . S
C3092 C3091 1.524 . S
C3093 C3090 1.403 . S
C3093 C3094 1.392 . S
C3093 C3097 1.495 . S
C3094 C3093 1.392 . S
C3094 C3095 1.385 . S
C3094 C3096 1.478 . S
C3095 H3089 0.930 . S
C3095 C3091 1.400 . S
C3095 C3094 1.385 . S
C3096 C3094 1.478 . S
C3096 C3098 1.381 . S
C3096 C3102 1.383 . S
C3097 C3093 1.495 . S
C3097 H3103 0.959 . S
C3097 H3104 0.961 . S
C3097 H3105 0.960 . S
C3098 C3096 1.381 . S
C3098 C3099 1.394 . S
C3098 H3106 0.930 . S
C3099 C3098 1.394 . S
C3099 C3100 1.383 . S
C3099 H3107 0.929 . S
C3100 C3099 1.383 . S
C3100 C3101 1.377 . S
C3101 H3085 0.930 . S
C3101 C3100 1.377 . S
C3101 C3102 1.379 . S
C3102 H3086 0.931 . S
C3102 C3096 1.383 . S
C3102 C3101 1.379 . S
H3103 C3097 0.959 . S
H3104 C3097 0.961 . S
H3105 C3097 0.960 . S
H3106 C3098 0.930 . S
H3107 C3099 0.929 . S
H3108 C3116 0.929 . S
H3109 C3118 0.930 . S
H3110 C3120 0.930 . S
H3111 C3123 0.929 . S
H3112 C3126 0.930 . S
H3113 C3128 0.960 . S
H3114 C3128 0.960 . S
H3115 C3128 0.960 . S
C3116 H3108 0.929 . S
C3116 C3117 1.377 . S
C3116 C3118 1.384 . S
C3117 C3116 1.377 . S
C3117 C3123 1.390 . S
C3118 H3109 0.930 . S
C3118 C3116 1.384 . S
C3118 C3119 1.372 . S
C3119 C3118 1.372 . S
C3119 C3120 1.400 . S
C3119 C3124 1.490 . S
C3120 H3110 0.930 . S
C3120 C3119 1.400 . S
C3120 C3123 1.386 . S
H3121 C3137 0.930 . S
H3122 C3138 0.931 . S
C3123 H3111 0.929 . S
C3123 C3117 1.390 . S
C3123 C3120 1.386 . S
C3124 C3119 1.490 . S
C3124 C3126 1.395 . S
C3124 C3127 1.403 . S
H3125 C3131 0.930 . S
C3126 H3112 0.930 . S
C3126 C3124 1.395 . S
C3126 C3129 1.403 . S
C3127 C3124 1.403 . S
C3127 C3128 1.524 . S
C3127 C3131 1.400 . S
C3128 H3113 0.960 . S
C3128 H3114 0.960 . S
C3128 H3115 0.960 . S
C3128 C3127 1.524 . S
C3129 C3126 1.403 . S
C3129 C3130 1.392 . S
C3129 C3133 1.495 . S
C3130 C3129 1.392 . S
C3130 C3131 1.385 . S
C3130 C3132 1.478 . S
C3131 H3125 0.930 . S
C3131 C3127 1.400 . S
C3131 C3130 1.385 . S
C3132 C3130 1.478 . S
C3132 C3134 1.381 . S
C3132 C3138 1.383 . S
C3133 C3129 1.495 . S
C3133 H3139 0.959 . S
C3133 H3140 0.961 . S
C3133 H3141 0.960 . S
C3134 C3132 1.381 . S
C3134 C3135 1.394 . S
C3134 H3142 0.930 . S
C3135 C3134 1.394 . S
C3135 C3136 1.383 . S
C3135 H3143 0.929 . S
C3136 C3135 1.383 . S
C3136 C3137 1.377 . S
C3137 H3121 0.930 . S
C3137 C3136 1.377 . S
C3137 C3138 1.379 . S
C3138 H3122 0.931 . S
C3138 C3132 1.383 . S
C3138 C3137 1.379 . S
H3139 C3133 0.959 . S
H3140 C3133 0.961 . S
H3141 C3133 0.960 . S
H3142 C3134 0.930 . S
H3143 C3135 0.929 . S
H3144 C3152 0.929 . S
H3145 C3154 0.930 . S
H3146 C3156 0.930 . S
H3147 C3159 0.929 . S
H3148 C3162 0.930 . S
H3149 C3164 0.960 . S
H3150 C3164 0.960 . S
H3151 C3164 0.960 . S
C3152 H3144 0.929 . S
C3152 C3153 1.377 . S
C3152 C3154 1.384 . S
C3153 C3152 1.377 . S
C3153 C3159 1.390 . S
C3154 H3145 0.930 . S
C3154 C3152 1.384 . S
C3154 C3155 1.372 . S
C3155 C3154 1.372 . S
C3155 C3156 1.400 . S
C3155 C3160 1.490 . S
C3156 H3146 0.930 . S
C3156 C3155 1.400 . S
C3156 C3159 1.386 . S
H3157 C3173 0.930 . S
H3158 C3174 0.931 . S
C3159 H3147 0.929 . S
C3159 C3153 1.390 . S
C3159 C3156 1.386 . S
C3160 C3155 1.490 . S
C3160 C3162 1.395 . S
C3160 C3163 1.403 . S
H3161 C3167 0.930 . S
C3162 H3148 0.930 . S
C3162 C3160 1.395 . S
C3162 C3165 1.403 . S
C3163 C3160 1.403 . S
C3163 C3164 1.524 . S
C3163 C3167 1.400 . S
C3164 H3149 0.960 . S
C3164 H3150 0.960 . S
C3164 H3151 0.960 . S
C3164 C3163 1.524 . S
C3165 C3162 1.403 . S
C3165 C3166 1.392 . S
C3165 C3169 1.495 . S
C3166 C3165 1.392 . S
C3166 C3167 1.385 . S
C3166 C3168 1.478 . S
C3167 H3161 0.930 . S
C3167 C3163 1.400 . S
C3167 C3166 1.385 . S
C3168 C3166 1.478 . S
C3168 C3170 1.381 . S
C3168 C3174 1.383 . S
C3169 C3165 1.495 . S
C3169 H3175 0.959 . S
C3169 H3176 0.961 . S
C3169 H3177 0.960 . S
C3170 C3168 1.381 . S
C3170 C3171 1.394 . S
C3170 H3178 0.930 . S
C3171 C3170 1.394 . S
C3171 C3172 1.383 . S
C3171 H3179 0.929 . S
C3172 C3171 1.383 . S
C3172 C3173 1.377 . S
C3173 H3157 0.930 . S
C3173 C3172 1.377 . S
C3173 C3174 1.379 . S
C3174 H3158 0.931 . S
C3174 C3168 1.383 . S
C3174 C3173 1.379 . S
H3175 C3169 0.959 . S
H3176 C3169 0.961 . S
H3177 C3169 0.960 . S
H3178 C3170 0.930 . S
H3179 C3171 0.929 . S
H3180 C3188 0.929 . S
H3181 C3190 0.930 . S
H3182 C3192 0.930 . S
H3183 C3195 0.929 . S
H3184 C3198 0.930 . S
H3185 C3200 0.960 . S
H3186 C3200 0.960 . S
H3187 C3200 0.960 . S
C3188 H3180 0.929 . S
C3188 C3189 1.377 . S
C3188 C3190 1.384 . S
C3189 C3188 1.377 . S
C3189 C3195 1.390 . S
C3190 H3181 0.930 . S
C3190 C3188 1.384 . S
C3190 C3191 1.372 . S
C3191 C3190 1.372 . S
C3191 C3192 1.400 . S
C3191 C3196 1.490 . S
C3192 H3182 0.930 . S
C3192 C3191 1.400 . S
C3192 C3195 1.386 . S
H3193 C3209 0.930 . S
H3194 C3210 0.931 . S
C3195 H3183 0.929 . S
C3195 C3189 1.390 . S
C3195 C3192 1.386 . S
C3196 C3191 1.490 . S
C3196 C3198 1.395 . S
C3196 C3199 1.403 . S
H3197 C3203 0.930 . S
C3198 H3184 0.930 . S
C3198 C3196 1.395 . S
C3198 C3201 1.403 . S
C3199 C3196 1.403 . S
C3199 C3200 1.524 . S
C3199 C3203 1.400 . S
C3200 H3185 0.960 . S
C3200 H3186 0.960 . S
C3200 H3187 0.960 . S
C3200 C3199 1.524 . S
C3201 C3198 1.403 . S
C3201 C3202 1.392 . S
C3201 C3205 1.495 . S
C3202 C3201 1.392 . S
C3202 C3203 1.385 . S
C3202 C3204 1.478 . S
C3203 H3197 0.930 . S
C3203 C3199 1.400 . S
C3203 C3202 1.385 . S
C3204 C3202 1.478 . S
C3204 C3206 1.381 . S
C3204 C3210 1.383 . S
C3205 C3201 1.495 . S
C3205 H3211 0.959 . S
C3205 H3212 0.961 . S
C3205 H3213 0.960 . S
C3206 C3204 1.381 . S
C3206 C3207 1.394 . S
C3206 H3214 0.930 . S
C3207 C3206 1.394 . S
C3207 C3208 1.383 . S
C3207 H3215 0.929 . S
C3208 C3207 1.383 . S
C3208 C3209 1.377 . S
C3209 H3193 0.930 . S
C3209 C3208 1.377 . S
C3209 C3210 1.379 . S
C3210 H3194 0.931 . S
C3210 C3204 1.383 . S
C3210 C3209 1.379 . S
H3211 C3205 0.959 . S
H3212 C3205 0.961 . S
H3213 C3205 0.960 . S
H3214 C3206 0.930 . S
H3215 C3207 0.929 . S
H3216 C3224 0.929 . S
H3217 C3226 0.930 . S
H3218 C3228 0.930 . S
H3219 C3231 0.929 . S
H3220 C3234 0.930 . S
H3221 C3236 0.960 . S
H3222 C3236 0.960 . S
H3223 C3236 0.960 . S
C3224 H3216 0.929 . S
C3224 C3225 1.377 . S
C3224 C3226 1.384 . S
C3225 C3224 1.377 . S
C3225 C3231 1.390 . S
C3226 H3217 0.930 . S
C3226 C3224 1.384 . S
C3226 C3227 1.372 . S
C3227 C3226 1.372 . S
C3227 C3228 1.400 . S
C3227 C3232 1.490 . S
C3228 H3218 0.930 . S
C3228 C3227 1.400 . S
C3228 C3231 1.386 . S
H3229 C3245 0.930 . S
H3230 C3246 0.931 . S
C3231 H3219 0.929 . S
C3231 C3225 1.390 . S
C3231 C3228 1.386 . S
C3232 C3227 1.490 . S
C3232 C3234 1.395 . S
C3232 C3235 1.403 . S
H3233 C3239 0.930 . S
C3234 H3220 0.930 . S
C3234 C3232 1.395 . S
C3234 C3237 1.403 . S
C3235 C3232 1.403 . S
C3235 C3236 1.524 . S
C3235 C3239 1.400 . S
C3236 H3221 0.960 . S
C3236 H3222 0.960 . S
C3236 H3223 0.960 . S
C3236 C3235 1.524 . S
C3237 C3234 1.403 . S
C3237 C3238 1.392 . S
C3237 C3241 1.495 . S
C3238 C3237 1.392 . S
C3238 C3239 1.385 . S
C3238 C3240 1.478 . S
C3239 H3233 0.930 . S
C3239 C3235 1.400 . S
C3239 C3238 1.385 . S
C3240 C3238 1.478 . S
C3240 C3242 1.381 . S
C3240 C3246 1.383 . S
C3241 C3237 1.495 . S
C3241 H3247 0.959 . S
C3241 H3248 0.961 . S
C3241 H3249 0.960 . S
C3242 C3240 1.381 . S
C3242 C3243 1.394 . S
C3242 H3250 0.930 . S
C3243 C3242 1.394 . S
C3243 C3244 1.383 . S
C3243 H3251 0.929 . S
C3244 C3243 1.383 . S
C3244 C3245 1.377 . S
C3245 H3229 0.930 . S
C3245 C3244 1.377 . S
C3245 C3246 1.379 . S
C3246 H3230 0.931 . S
C3246 C3240 1.383 . S
C3246 C3245 1.379 . S
H3247 C3241 0.959 . S
H3248 C3241 0.961 . S
H3249 C3241 0.960 . S
H3250 C3242 0.930 . S
H3251 C3243 0.929 . S
H3252 C3260 0.929 . S
H3253 C3262 0.930 . S
H3254 C3264 0.930 . S
H3255 C3267 0.929 . S
H3256 C3270 0.930 . S
H3257 C3272 0.960 . S
H3258 C3272 0.960 . S
H3259 C3272 0.960 . S
C3260 H3252 0.929 . S
C3260 C3261 1.377 . S
C3260 C3262 1.384 . S
C3261 C3260 1.377 . S
C3261 C3267 1.390 . S
C3262 H3253 0.930 . S
C3262 C3260 1.384 . S
C3262 C3263 1.372 . S
C3263 C3262 1.372 . S
C3263 C3264 1.400 . S
C3263 C3268 1.490 . S
C3264 H3254 0.930 . S
C3264 C3263 1.400 . S
C3264 C3267 1.386 . S
H3265 C3281 0.930 . S
H3266 C3282 0.931 . S
C3267 H3255 0.929 . S
C3267 C3261 1.390 . S
C3267 C3264 1.386 . S
C3268 C3263 1.490 . S
C3268 C3270 1.395 . S
C3268 C3271 1.403 . S
H3269 C3275 0.930 . S
C3270 H3256 0.930 . S
C3270 C3268 1.395 . S
C3270 C3273 1.403 . S
C3271 C3268 1.403 . S
C3271 C3272 1.524 . S
C3271 C3275 1.400 . S
C3272 H3257 0.960 . S
C3272 H3258 0.960 . S
C3272 H3259 0.960 . S
C3272 C3271 1.524 . S
C3273 C3270 1.403 . S
C3273 C3274 1.392 . S
C3273 C3277 1.495 . S
C3274 C3273 1.392 . S
C3274 C3275 1.385 . S
C3274 C3276 1.478 . S
C3275 H3269 0.930 . S
C3275 C3271 1.400 . S
C3275 C3274 1.385 . S
C3276 C3274 1.478 . S
C3276 C3278 1.381 . S
C3276 C3282 1.383 . S
C3277 C3273 1.495 . S
C3277 H3283 0.959 . S
C3277 H3284 0.961 . S
C3277 H3285 0.960 . S
C3278 C3276 1.381 . S
C3278 C3279 1.394 . S
C3278 H3286 0.930 . S
C3279 C3278 1.394 . S
C3279 C3280 1.383 . S
C3279 H3287 0.929 . S
C3280 C3279 1.383 . S
C3280 C3281 1.377 . S
C3281 H3265 0.930 . S
C3281 C3280 1.377 . S
C3281 C3282 1.379 . S
C3282 H3266 0.931 . S
C3282 C3276 1.383 . S
C3282 C3281 1.379 . S
H3283 C3277 0.959 . S
H3284 C3277 0.961 . S
H3285 C3277 0.960 . S
H3286 C3278 0.930 . S
H3287 C3279 0.929 . S
H3288 C3296 0.929 . S
H3289 C3298 0.930 . S
H3290 C3300 0.930 . S
H3291 C3303 0.929 . S
H3292 C3306 0.930 . S
H3293 C3308 0.960 . S
H3294 C3308 0.960 . S
H3295 C3308 0.960 . S
C3296 H3288 0.929 . S
C3296 C3297 1.377 . S
C3296 C3298 1.384 . S
C3297 C3296 1.377 . S
C3297 C3303 1.390 . S
C3298 H3289 0.930 . S
C3298 C3296 1.384 . S
C3298 C3299 1.372 . S
C3299 C3298 1.372 . S
C3299 C3300 1.400 . S
C3299 C3304 1.490 . S
C3300 H3290 0.930 . S
C3300 C3299 1.400 . S
C3300 C3303 1.386 . S
H3301 C3317 0.930 . S
H3302 C3318 0.931 . S
C3303 H3291 0.929 . S
C3303 C3297 1.390 . S
C3303 C3300 1.386 . S
C3304 C3299 1.490 . S
C3304 C3306 1.395 . S
C3304 C3307 1.403 . S
H3305 C3311 0.930 . S
C3306 H3292 0.930 . S
C3306 C3304 1.395 . S
C3306 C3309 1.403 . S
C3307 C3304 1.403 . S
C3307 C3308 1.524 . S
C3307 C3311 1.400 . S
C3308 H3293 0.960 . S
C3308 H3294 0.960 . S
C3308 H3295 0.960 . S
C3308 C3307 1.524 . S
C3309 C3306 1.403 . S
C3309 C3310 1.392 . S
C3309 C3313 1.495 . S
C3310 C3309 1.392 . S
C3310 C3311 1.385 . S
C3310 C3312 1.478 . S
C3311 H3305 0.930 . S
C3311 C3307 1.400 . S
C3311 C3310 1.385 . S
C3312 C3310 1.478 . S
C3312 C3314 1.381 . S
C3312 C3318 1.383 . S
C3313 C3309 1.495 . S
C3313 H3319 0.959 . S
C3313 H3320 0.961 . S
C3313 H3321 0.960 . S
C3314 C3312 1.381 . S
C3314 C3315 1.394 . S
C3314 H3322 0.930 . S
C3315 C3314 1.394 . S
C3315 C3316 1.383 . S
C3315 H3323 0.929 . S
C3316 C3315 1.383 . S
C3316 C3317 1.377 . S
C3317 H3301 0.930 . S
C3317 C3316 1.377 . S
C3317 C3318 1.379 . S
C3318 H3302 0.931 . S
C3318 C3312 1.383 . S
C3318 C3317 1.379 . S
H3319 C3313 0.959 . S
H3320 C3313 0.961 . S
H3321 C3313 0.960 . S
H3322 C3314 0.930 . S
H3323 C3315 0.929 . S
H3324 C3332 0.929 . S
H3325 C3334 0.930 . S
H3326 C3336 0.930 . S
H3327 C3339 0.929 . S
H3328 C3342 0.930 . S
H3329 C3344 0.960 . S
H3330 C3344 0.960 . S
H3331 C3344 0.960 . S
C3332 H3324 0.929 . S
C3332 C3333 1.377 . S
C3332 C3334 1.384 . S
C3333 C3332 1.377 . S
C3333 C3339 1.390 . S
C3334 H3325 0.930 . S
C3334 C3332 1.384 . S
C3334 C3335 1.372 . S
C3335 C3334 1.372 . S
C3335 C3336 1.400 . S
C3335 C3340 1.490 . S
C3336 H3326 0.930 . S
C3336 C3335 1.400 . S
C3336 C3339 1.386 . S
H3337 C3353 0.930 . S
H3338 C3354 0.931 . S
C3339 H3327 0.929 . S
C3339 C3333 1.390 . S
C3339 C3336 1.386 . S
C3340 C3335 1.490 . S
C3340 C3342 1.395 . S
C3340 C3343 1.403 . S
H3341 C3347 0.930 . S
C3342 H3328 0.930 . S
C3342 C3340 1.395 . S
C3342 C3345 1.403 . S
C3343 C3340 1.403 . S
C3343 C3344 1.524 . S
C3343 C3347 1.400 . S
C3344 H3329 0.960 . S
C3344 H3330 0.960 . S
C3344 H3331 0.960 . S
C3344 C3343 1.524 . S
C3345 C3342 1.403 . S
C3345 C3346 1.392 . S
C3345 C3349 1.495 . S
C3346 C3345 1.392 . S
C3346 C3347 1.385 . S
C3346 C3348 1.478 . S
C3347 H3341 0.930 . S
C3347 C3343 1.400 . S
C3347 C3346 1.385 . S
C3348 C3346 1.478 . S
C3348 C3350 1.381 . S
C3348 C3354 1.383 . S
C3349 C3345 1.495 . S
C3349 H3355 0.959 . S
C3349 H3356 0.961 . S
C3349 H3357 0.960 . S
C3350 C3348 1.381 . S
C3350 C3351 1.394 . S
C3350 H3358 0.930 . S
C3351 C3350 1.394 . S
C3351 C3352 1.383 . S
C3351 H3359 0.929 . S
C3352 C3351 1.383 . S
C3352 C3353 1.377 . S
C3353 H3337 0.930 . S
C3353 C3352 1.377 . S
C3353 C3354 1.379 . S
C3354 H3338 0.931 . S
C3354 C3348 1.383 . S
C3354 C3353 1.379 . S
H3355 C3349 0.959 . S
H3356 C3349 0.961 . S
H3357 C3349 0.960 . S
H3358 C3350 0.930 . S
H3359 C3351 0.929 . S
H3360 C3368 0.929 . S
H3361 C3370 0.930 . S
H3362 C3372 0.930 . S
H3363 C3375 0.929 . S
H3364 C3378 0.930 . S
H3365 C3380 0.960 . S
H3366 C3380 0.960 . S
H3367 C3380 0.960 . S
C3368 H3360 0.929 . S
C3368 C3369 1.377 . S
C3368 C3370 1.384 . S
C3369 C3368 1.377 . S
C3369 C3375 1.390 . S
C3370 H3361 0.930 . S
C3370 C3368 1.384 . S
C3370 C3371 1.372 . S
C3371 C3370 1.372 . S
C3371 C3372 1.400 . S
C3371 C3376 1.490 . S
C3372 H3362 0.930 . S
C3372 C3371 1.400 . S
C3372 C3375 1.386 . S
H3373 C3389 0.930 . S
H3374 C3390 0.931 . S
C3375 H3363 0.929 . S
C3375 C3369 1.390 . S
C3375 C3372 1.386 . S
C3376 C3371 1.490 . S
C3376 C3378 1.395 . S
C3376 C3379 1.403 . S
H3377 C3383 0.930 . S
C3378 H3364 0.930 . S
C3378 C3376 1.395 . S
C3378 C3381 1.403 . S
C3379 C3376 1.403 . S
C3379 C3380 1.524 . S
C3379 C3383 1.400 . S
C3380 H3365 0.960 . S
C3380 H3366 0.960 . S
C3380 H3367 0.960 . S
C3380 C3379 1.524 . S
C3381 C3378 1.403 . S
C3381 C3382 1.392 . S
C3381 C3385 1.495 . S
C3382 C3381 1.392 . S
C3382 C3383 1.385 . S
C3382 C3384 1.478 . S
C3383 H3377 0.930 . S
C3383 C3379 1.400 . S
C3383 C3382 1.385 . S
C3384 C3382 1.478 . S
C3384 C3386 1.381 . S
C3384 C3390 1.383 . S
C3385 C3381 1.495 . S
C3385 H3391 0.959 . S
C3385 H3392 0.961 . S
C3385 H3393 0.960 . S
C3386 C3384 1.381 . S
C3386 C3387 1.394 . S
C3386 H3394 0.930 . S
C3387 C3386 1.394 . S
C3387 C3388 1.383 . S
C3387 H3395 0.929 . S
C3388 C3387 1.383 . S
C3388 C3389 1.377 . S
C3389 H3373 0.930 . S
C3389 C3388 1.377 . S
C3389 C3390 1.379 . S
C3390 H3374 0.931 . S
C3390 C3384 1.383 . S
C3390 C3389 1.379 . S
H3391 C3385 0.959 . S
H3392 C3385 0.961 . S
H3393 C3385 0.960 . S
H3394 C3386 0.930 . S
H3395 C3387 0.929 . S
H3396 C3404 0.929 . S
H3397 C3406 0.930 . S
H3398 C3408 0.930 . S
H3399 C3411 0.929 . S
H3400 C3414 0.930 . S
H3401 C3416 0.960 . S
H3402 C3416 0.960 . S
H3403 C3416 0.960 . S
C3404 H3396 0.929 . S
C3404 C3405 1.377 . S
C3404 C3406 1.384 . S
C3405 C3404 1.377 . S
C3405 C3411 1.390 . S
C3406 H3397 0.930 . S
C3406 C3404 1.384 . S
C3406 C3407 1.372 . S
C3407 C3406 1.372 . S
C3407 C3408 1.400 . S
C3407 C3412 1.490 . S
C3408 H3398 0.930 . S
C3408 C3407 1.400 . S
C3408 C3411 1.386 . S
H3409 C3425 0.930 . S
H3410 C3426 0.931 . S
C3411 H3399 0.929 . S
C3411 C3405 1.390 . S
C3411 C3408 1.386 . S
C3412 C3407 1.490 . S
C3412 C3414 1.395 . S
C3412 C3415 1.403 . S
H3413 C3419 0.930 . S
C3414 H3400 0.930 . S
C3414 C3412 1.395 . S
C3414 C3417 1.403 . S
C3415 C3412 1.403 . S
C3415 C3416 1.524 . S
C3415 C3419 1.400 . S
C3416 H3401 0.960 . S
C3416 H3402 0.960 . S
C3416 H3403 0.960 . S
C3416 C3415 1.524 . S
C3417 C3414 1.403 . S
C3417 C3418 1.392 . S
C3417 C3421 1.495 . S
C3418 C3417 1.392 . S
C3418 C3419 1.385 . S
C3418 C3420 1.478 . S
C3419 H3413 0.930 . S
C3419 C3415 1.400 . S
C3419 C3418 1.385 . S
C3420 C3418 1.478 . S
C3420 C3422 1.381 . S
C3420 C3426 1.383 . S
C3421 C3417 1.495 . S
C3421 H3427 0.959 . S
C3421 H3428 0.961 . S
C3421 H3429 0.960 . S
C3422 C3420 1.381 . S
C3422 C3423 1.394 . S
C3422 H3430 0.930 . S
C3423 C3422 1.394 . S
C3423 C3424 1.383 . S
C3423 H3431 0.929 . S
C3424 C3423 1.383 . S
C3424 C3425 1.377 . S
C3425 H3409 0.930 . S
C3425 C3424 1.377 . S
C3425 C3426 1.379 . S
C3426 H3410 0.931 . S
C3426 C3420 1.383 . S
C3426 C3425 1.379 . S
H3427 C3421 0.959 . S
H3428 C3421 0.961 . S
H3429 C3421 0.960 . S
H3430 C3422 0.930 . S
H3431 C3423 0.929 . S
H3432 C3440 0.929 . S
H3433 C3442 0.930 . S
H3434 C3444 0.930 . S
H3435 C3447 0.929 . S
H3436 C3450 0.930 . S
H3437 C3452 0.960 . S
H3438 C3452 0.960 . S
H3439 C3452 0.960 . S
C3440 H3432 0.929 . S
C3440 C3441 1.377 . S
C3440 C3442 1.384 . S
C3441 C3440 1.377 . S
C3441 C3447 1.390 . S
C3442 H3433 0.930 . S
C3442 C3440 1.384 . S
C3442 C3443 1.372 . S
C3443 C3442 1.372 . S
C3443 C3444 1.400 . S
C3443 C3448 1.490 . S
C3444 H3434 0.930 . S
C3444 C3443 1.400 . S
C3444 C3447 1.386 . S
H3445 C3461 0.930 . S
H3446 C3462 0.931 . S
C3447 H3435 0.929 . S
C3447 C3441 1.390 . S
C3447 C3444 1.386 . S
C3448 C3443 1.490 . S
C3448 C3450 1.395 . S
C3448 C3451 1.403 . S
H3449 C3455 0.930 . S
C3450 H3436 0.930 . S
C3450 C3448 1.395 . S
C3450 C3453 1.403 . S
C3451 C3448 1.403 . S
C3451 C3452 1.524 . S
C3451 C3455 1.400 . S
C3452 H3437 0.960 . S
C3452 H3438 0.960 . S
C3452 H3439 0.960 . S
C3452 C3451 1.524 . S
C3453 C3450 1.403 . S
C3453 C3454 1.392 . S
C3453 C3457 1.495 . S
C3454 C3453 1.392 . S
C3454 C3455 1.385 . S
C3454 C3456 1.478 . S
C3455 H3449 0.930 . S
C3455 C3451 1.400 . S
C3455 C3454 1.385 . S
C3456 C3454 1.478 . S
C3456 C3458 1.381 . S
C3456 C3462 1.383 . S
C3457 C3453 1.495 . S
C3457 H3463 0.959 . S
C3457 H3464 0.961 . S
C3457 H3465 0.960 . S
C3458 C3456 1.381 . S
C3458 C3459 1.394 . S
C3458 H3466 0.930 . S
C3459 C3458 1.394 . S
C3459 C3460 1.383 . S
C3459 H3467 0.929 . S
C3460 C3459 1.383 . S
C3460 C3461 1.377 . S
C3461 H3445 0.930 . S
C3461 C3460 1.377 . S
C3461 C3462 1.379 . S
C3462 H3446 0.931 . S
C3462 C3456 1.383 . S
C3462 C3461 1.379 . S
H3463 C3457 0.959 . S
H3464 C3457 0.961 . S
H3465 C3457 0.960 . S
H3466 C3458 0.930 . S
H3467 C3459 0.929 . S
H3468 C3476 0.929 . S
H3469 C3478 0.930 . S
H3470 C3480 0.930 . S
H3471 C3483 0.929 . S
H3472 C3486 0.930 . S
H3473 C3488 0.960 . S
H3474 C3488 0.960 . S
H3475 C3488 0.960 . S
C3476 H3468 0.929 . S
C3476 C3477 1.377 . S
C3476 C3478 1.384 . S
C3477 C3476 1.377 . S
C3477 C3483 1.390 . S
C3478 H3469 0.930 . S
C3478 C3476 1.384 . S
C3478 C3479 1.372 . S
C3479 C3478 1.372 . S
C3479 C3480 1.400 . S
C3479 C3484 1.490 . S
C3480 H3470 0.930 . S
C3480 C3479 1.400 . S
C3480 C3483 1.386 . S
H3481 C3497 0.930 . S
H3482 C3498 0.931 . S
C3483 H3471 0.929 . S
C3483 C3477 1.390 . S
C3483 C3480 1.386 . S
C3484 C3479 1.490 . S
C3484 C3486 1.395 . S
C3484 C3487 1.403 . S
H3485 C3491 0.930 . S
C3486 H3472 0.930 . S
C3486 C3484 1.395 . S
C3486 C3489 1.403 . S
C3487 C3484 1.403 . S
C3487 C3488 1.524 . S
C3487 C3491 1.400 . S
C3488 H3473 0.960 . S
C3488 H3474 0.960 . S
C3488 H3475 0.960 . S
C3488 C3487 1.524 . S
C3489 C3486 1.403 . S
C3489 C3490 1.392 . S
C3489 C3493 1.495 . S
C3490 C3489 1.392 . S
C3490 C3491 1.385 . S
C3490 C3492 1.478 . S
C3491 H3485 0.930 . S
C3491 C3487 1.400 . S
C3491 C3490 1.385 . S
C3492 C3490 1.478 . S
C3492 C3494 1.381 . S
C3492 C3498 1.383 . S
C3493 C3489 1.495 . S
C3493 H3499 0.959 . S
C3493 H3500 0.961 . S
C3493 H3501 0.960 . S
C3494 C3492 1.381 . S
C3494 C3495 1.394 . S
C3494 H3502 0.930 . S
C3495 C3494 1.394 . S
C3495 C3496 1.383 . S
C3495 H3503 0.929 . S
C3496 C3495 1.383 . S
C3496 C3497 1.377 . S
C3497 H3481 0.930 . S
C3497 C3496 1.377 . S
C3497 C3498 1.379 . S
C3498 H3482 0.931 . S
C3498 C3492 1.383 . S
C3498 C3497 1.379 . S
H3499 C3493 0.959 . S
H3500 C3493 0.961 . S
H3501 C3493 0.960 . S
H3502 C3494 0.930 . S
H3503 C3495 0.929 . S
H3504 C3512 0.929 . S
H3505 C3514 0.930 . S
H3506 C3516 0.930 . S
H3507 C3519 0.929 . S
H3508 C3522 0.930 . S
H3509 C3524 0.960 . S
H3510 C3524 0.960 . S
H3511 C3524 0.960 . S
C3512 H3504 0.929 . S
C3512 C3513 1.377 . S
C3512 C3514 1.384 . S
C3513 C3512 1.377 . S
C3513 C3519 1.390 . S
C3514 H3505 0.930 . S
C3514 C3512 1.384 . S
C3514 C3515 1.372 . S
C3515 C3514 1.372 . S
C3515 C3516 1.400 . S
C3515 C3520 1.490 . S
C3516 H3506 0.930 . S
C3516 C3515 1.400 . S
C3516 C3519 1.386 . S
H3517 C3533 0.930 . S
H3518 C3534 0.931 . S
C3519 H3507 0.929 . S
C3519 C3513 1.390 . S
C3519 C3516 1.386 . S
C3520 C3515 1.490 . S
C3520 C3522 1.395 . S
C3520 C3523 1.403 . S
H3521 C3527 0.930 . S
C3522 H3508 0.930 . S
C3522 C3520 1.395 . S
C3522 C3525 1.403 . S
C3523 C3520 1.403 . S
C3523 C3524 1.524 . S
C3523 C3527 1.400 . S
C3524 H3509 0.960 . S
C3524 H3510 0.960 . S
C3524 H3511 0.960 . S
C3524 C3523 1.524 . S
C3525 C3522 1.403 . S
C3525 C3526 1.392 . S
C3525 C3529 1.495 . S
C3526 C3525 1.392 . S
C3526 C3527 1.385 . S
C3526 C3528 1.478 . S
C3527 H3521 0.930 . S
C3527 C3523 1.400 . S
C3527 C3526 1.385 . S
C3528 C3526 1.478 . S
C3528 C3530 1.381 . S
C3528 C3534 1.383 . S
C3529 C3525 1.495 . S
C3529 H3535 0.959 . S
C3529 H3536 0.961 . S
C3529 H3537 0.960 . S
C3530 C3528 1.381 . S
C3530 C3531 1.394 . S
C3530 H3538 0.930 . S
C3531 C3530 1.394 . S
C3531 C3532 1.383 . S
C3531 H3539 0.929 . S
C3532 C3531 1.383 . S
C3532 C3533 1.377 . S
C3533 H3517 0.930 . S
C3533 C3532 1.377 . S
C3533 C3534 1.379 . S
C3534 H3518 0.931 . S
C3534 C3528 1.383 . S
C3534 C3533 1.379 . S
H3535 C3529 0.959 . S
H3536 C3529 0.961 . S
H3537 C3529 0.960 . S
H3538 C3530 0.930 . S
H3539 C3531 0.929 . S
H3540 C3548 0.929 . S
H3541 C3550 0.930 . S
H3542 C3552 0.930 . S
H3543 C3555 0.929 . S
H3544 C3558 0.930 . S
H3545 C3560 0.960 . S
H3546 C3560 0.960 . S
H3547 C3560 0.960 . S
C3548 H3540 0.929 . S
C3548 C3549 1.377 . S
C3548 C3550 1.384 . S
C3549 C3548 1.377 . S
C3549 C3555 1.390 . S
C3550 H3541 0.930 . S
C3550 C3548 1.384 . S
C3550 C3551 1.372 . S
C3551 C3550 1.372 . S
C3551 C3552 1.400 . S
C3551 C3556 1.490 . S
C3552 H3542 0.930 . S
C3552 C3551 1.400 . S
C3552 C3555 1.386 . S
H3553 C3569 0.930 . S
H3554 C3570 0.931 . S
C3555 H3543 0.929 . S
C3555 C3549 1.390 . S
C3555 C3552 1.386 . S
C3556 C3551 1.490 . S
C3556 C3558 1.395 . S
C3556 C3559 1.403 . S
H3557 C3563 0.930 . S
C3558 H3544 0.930 . S
C3558 C3556 1.395 . S
C3558 C3561 1.403 . S
C3559 C3556 1.403 . S
C3559 C3560 1.524 . S
C3559 C3563 1.400 . S
C3560 H3545 0.960 . S
C3560 H3546 0.960 . S
C3560 H3547 0.960 . S
C3560 C3559 1.524 . S
C3561 C3558 1.403 . S
C3561 C3562 1.392 . S
C3561 C3565 1.495 . S
C3562 C3561 1.392 . S
C3562 C3563 1.385 . S
C3562 C3564 1.478 . S
C3563 H3557 0.930 . S
C3563 C3559 1.400 . S
C3563 C3562 1.385 . S
C3564 C3562 1.478 . S
C3564 C3566 1.381 . S
C3564 C3570 1.383 . S
C3565 C3561 1.495 . S
C3565 H3571 0.959 . S
C3565 H3572 0.961 . S
C3565 H3573 0.960 . S
C3566 C3564 1.381 . S
C3566 C3567 1.394 . S
C3566 H3574 0.930 . S
C3567 C3566 1.394 . S
C3567 C3568 1.383 . S
C3567 H3575 0.929 . S
C3568 C3567 1.383 . S
C3568 C3569 1.377 . S
C3569 H3553 0.930 . S
C3569 C3568 1.377 . S
C3569 C3570 1.379 . S
C3570 H3554 0.931 . S
C3570 C3564 1.383 . S
C3570 C3569 1.379 . S
H3571 C3565 0.959 . S
H3572 C3565 0.961 . S
H3573 C3565 0.960 . S
H3574 C3566 0.930 . S
H3575 C3567 0.929 . S
H3576 C3584 0.929 . S
H3577 C3586 0.930 . S
H3578 C3588 0.930 . S
H3579 C3591 0.929 . S
H3580 C3594 0.930 . S
H3581 C3596 0.960 . S
H3582 C3596 0.960 . S
H3583 C3596 0.960 . S
C3584 H3576 0.929 . S
C3584 C3585 1.377 . S
C3584 C3586 1.384 . S
C3585 C3584 1.377 . S
C3585 C3591 1.390 . S
C3586 H3577 0.930 . S
C3586 C3584 1.384 . S
C3586 C3587 1.372 . S
C3587 C3586 1.372 . S
C3587 C3588 1.400 . S
C3587 C3592 1.490 . S
C3588 H3578 0.930 . S
C3588 C3587 1.400 . S
C3588 C3591 1.386 . S
H3589 C3605 0.930 . S
H3590 C3606 0.931 . S
C3591 H3579 0.929 . S
C3591 C3585 1.390 . S
C3591 C3588 1.386 . S
C3592 C3587 1.490 . S
C3592 C3594 1.395 . S
C3592 C3595 1.403 . S
H3593 C3599 0.930 . S
C3594 H3580 0.930 . S
C3594 C3592 1.395 . S
C3594 C3597 1.403 . S
C3595 C3592 1.403 . S
C3595 C3596 1.524 . S
C3595 C3599 1.400 . S
C3596 H3581 0.960 . S
C3596 H3582 0.960 . S
C3596 H3583 0.960 . S
C3596 C3595 1.524 . S
C3597 C3594 1.403 . S
C3597 C3598 1.392 . S
C3597 C3601 1.495 . S
C3598 C3597 1.392 . S
C3598 C3599 1.385 . S
C3598 C3600 1.478 . S
C3599 H3593 0.930 . S
C3599 C3595 1.400 . S
C3599 C3598 1.385 . S
C3600 C3598 1.478 . S
C3600 C3602 1.381 . S
C3600 C3606 1.383 . S
C3601 C3597 1.495 . S
C3601 H3607 0.959 . S
C3601 H3608 0.961 . S
C3601 H3609 0.960 . S
C3602 C3600 1.381 . S
C3602 C3603 1.394 . S
C3602 H3610 0.930 . S
C3603 C3602 1.394 . S
C3603 C3604 1.383 . S
C3603 H3611 0.929 . S
C3604 C3603 1.383 . S
C3604 C3605 1.377 . S
C3605 H3589 0.930 . S
C3605 C3604 1.377 . S
C3605 C3606 1.379 . S
C3606 H3590 0.931 . S
C3606 C3600 1.383 . S
C3606 C3605 1.379 . S
H3607 C3601 0.959 . S
H3608 C3601 0.961 . S
H3609 C3601 0.960 . S
H3610 C3602 0.930 . S
H3611 C3603 0.929 . S
H3612 C3620 0.929 . S
H3613 C3622 0.930 . S
H3614 C3624 0.930 . S
H3615 C3627 0.929 . S
H3616 C3630 0.930 . S
H3617 C3632 0.960 . S
H3618 C3632 0.960 . S
H3619 C3632 0.960 . S
C3620 H3612 0.929 . S
C3620 C3621 1.377 . S
C3620 C3622 1.384 . S
C3621 C3620 1.377 . S
C3621 C3627 1.390 . S
C3622 H3613 0.930 . S
C3622 C3620 1.384 . S
C3622 C3623 1.372 . S
C3623 C3622 1.372 . S
C3623 C3624 1.400 . S
C3623 C3628 1.490 . S
C3624 H3614 0.930 . S
C3624 C3623 1.400 . S
C3624 C3627 1.386 . S
H3625 C3641 0.930 . S
H3626 C3642 0.931 . S
C3627 H3615 0.929 . S
C3627 C3621 1.390 . S
C3627 C3624 1.386 . S
C3628 C3623 1.490 . S
C3628 C3630 1.395 . S
C3628 C3631 1.403 . S
H3629 C3635 0.930 . S
C3630 H3616 0.930 . S
C3630 C3628 1.395 . S
C3630 C3633 1.403 . S
C3631 C3628 1.403 . S
C3631 C3632 1.524 . S
C3631 C3635 1.400 . S
C3632 H3617 0.960 . S
C3632 H3618 0.960 . S
C3632 H3619 0.960 . S
C3632 C3631 1.524 . S
C3633 C3630 1.403 . S
C3633 C3634 1.392 . S
C3633 C3637 1.495 . S
C3634 C3633 1.392 . S
C3634 C3635 1.385 . S
C3634 C3636 1.478 . S
C3635 H3629 0.930 . S
C3635 C3631 1.400 . S
C3635 C3634 1.385 . S
C3636 C3634 1.478 . S
C3636 C3638 1.381 . S
C3636 C3642 1.383 . S
C3637 C3633 1.495 . S
C3637 H3643 0.959 . S
C3637 H3644 0.961 . S
C3637 H3645 0.960 . S
C3638 C3636 1.381 . S
C3638 C3639 1.394 . S
C3638 H3646 0.930 . S
C3639 C3638 1.394 . S
C3639 C3640 1.383 . S
C3639 H3647 0.929 . S
C3640 C3639 1.383 . S
C3640 C3641 1.377 . S
C3641 H3625 0.930 . S
C3641 C3640 1.377 . S
C3641 C3642 1.379 . S
C3642 H3626 0.931 . S
C3642 C3636 1.383 . S
C3642 C3641 1.379 . S
H3643 C3637 0.959 . S
H3644 C3637 0.961 . S
H3645 C3637 0.960 . S
H3646 C3638 0.930 . S
H3647 C3639 0.929 . S
H3648 C3656 0.929 . S
H3649 C3658 0.930 . S
H3650 C3660 0.930 . S
H3651 C3663 0.929 . S
H3652 C3666 0.930 . S
H3653 C3668 0.960 . S
H3654 C3668 0.960 . S
H3655 C3668 0.960 . S
C3656 H3648 0.929 . S
C3656 C3657 1.377 . S
C3656 C3658 1.384 . S
C3657 C3656 1.377 . S
C3657 C3663 1.390 . S
C3658 H3649 0.930 . S
C3658 C3656 1.384 . S
C3658 C3659 1.372 . S
C3659 C3658 1.372 . S
C3659 C3660 1.400 . S
C3659 C3664 1.490 . S
C3660 H3650 0.930 . S
C3660 C3659 1.400 . S
C3660 C3663 1.386 . S
H3661 C3677 0.930 . S
H3662 C3678 0.931 . S
C3663 H3651 0.929 . S
C3663 C3657 1.390 . S
C3663 C3660 1.386 . S
C3664 C3659 1.490 . S
C3664 C3666 1.395 . S
C3664 C3667 1.403 . S
H3665 C3671 0.930 . S
C3666 H3652 0.930 . S
C3666 C3664 1.395 . S
C3666 C3669 1.403 . S
C3667 C3664 1.403 . S
C3667 C3668 1.524 . S
C3667 C3671 1.400 . S
C3668 H3653 0.960 . S
C3668 H3654 0.960 . S
C3668 H3655 0.960 . S
C3668 C3667 1.524 . S
C3669 C3666 1.403 . S
C3669 C3670 1.392 . S
C3669 C3673 1.495 . S
C3670 C3669 1.392 . S
C3670 C3671 1.385 . S
C3670 C3672 1.478 . S
C3671 H3665 0.930 . S
C3671 C3667 1.400 . S
C3671 C3670 1.385 . S
C3672 C3670 1.478 . S
C3672 C3674 1.381 . S
C3672 C3678 1.383 . S
C3673 C3669 1.495 . S
C3673 H3679 0.959 . S
C3673 H3680 0.961 . S
C3673 H3681 0.960 . S
C3674 C3672 1.381 . S
C3674 C3675 1.394 . S
C3674 H3682 0.930 . S
C3675 C3674 1.394 . S
C3675 C3676 1.383 . S
C3675 H3683 0.929 . S
C3676 C3675 1.383 . S
C3676 C3677 1.377 . S
C3677 H3661 0.930 . S
C3677 C3676 1.377 . S
C3677 C3678 1.379 . S
C3678 H3662 0.931 . S
C3678 C3672 1.383 . S
C3678 C3677 1.379 . S
H3679 C3673 0.959 . S
H3680 C3673 0.961 . S
H3681 C3673 0.960 . S
H3682 C3674 0.930 . S
H3683 C3675 0.929 . S
H3684 C3692 0.929 . S
H3685 C3694 0.930 . S
H3686 C3696 0.930 . S
H3687 C3699 0.929 . S
H3688 C3702 0.930 . S
H3689 C3704 0.960 . S
H3690 C3704 0.960 . S
H3691 C3704 0.960 . S
C3692 H3684 0.929 . S
C3692 C3693 1.377 . S
C3692 C3694 1.384 . S
C3693 C3692 1.377 . S
C3693 C3699 1.390 . S
C3694 H3685 0.930 . S
C3694 C3692 1.384 . S
C3694 C3695 1.372 . S
C3695 C3694 1.372 . S
C3695 C3696 1.400 . S
C3695 C3700 1.490 . S
C3696 H3686 0.930 . S
C3696 C3695 1.400 . S
C3696 C3699 1.386 . S
H3697 C3713 0.930 . S
H3698 C3714 0.931 . S
C3699 H3687 0.929 . S
C3699 C3693 1.390 . S
C3699 C3696 1.386 . S
C3700 C3695 1.490 . S
C3700 C3702 1.395 . S
C3700 C3703 1.403 . S
H3701 C3707 0.930 . S
C3702 H3688 0.930 . S
C3702 C3700 1.395 . S
C3702 C3705 1.403 . S
C3703 C3700 1.403 . S
C3703 C3704 1.524 . S
C3703 C3707 1.400 . S
C3704 H3689 0.960 . S
C3704 H3690 0.960 . S
C3704 H3691 0.960 . S
C3704 C3703 1.524 . S
C3705 C3702 1.403 . S
C3705 C3706 1.392 . S
C3705 C3709 1.495 . S
C3706 C3705 1.392 . S
C3706 C3707 1.385 . S
C3706 C3708 1.478 . S
C3707 H3701 0.930 . S
C3707 C3703 1.400 . S
C3707 C3706 1.385 . S
C3708 C3706 1.478 . S
C3708 C3710 1.381 . S
C3708 C3714 1.383 . S
C3709 C3705 1.495 . S
C3709 H3715 0.959 . S
C3709 H3716 0.961 . S
C3709 H3717 0.960 . S
C3710 C3708 1.381 . S
C3710 C3711 1.394 . S
C3710 H3718 0.930 . S
C3711 C3710 1.394 . S
C3711 C3712 1.383 . S
C3711 H3719 0.929 . S
C3712 C3711 1.383 . S
C3712 C3713 1.377 . S
C3713 H3697 0.930 . S
C3713 C3712 1.377 . S
C3713 C3714 1.379 . S
C3714 H3698 0.931 . S
C3714 C3708 1.383 . S
C3714 C3713 1.379 . S
H3715 C3709 0.959 . S
H3716 C3709 0.961 . S
H3717 C3709 0.960 . S
H3718 C3710 0.930 . S
H3719 C3711 0.929 . S
H3720 C3728 0.929 . S
H3721 C3730 0.930 . S
H3722 C3732 0.930 . S
H3723 C3735 0.929 . S
H3724 C3738 0.930 . S
H3725 C3740 0.960 . S
H3726 C3740 0.960 . S
H3727 C3740 0.960 . S
C3728 H3720 0.929 . S
C3728 C3729 1.377 . S
C3728 C3730 1.384 . S
C3729 C3728 1.377 . S
C3729 C3735 1.390 . S
C3730 H3721 0.930 . S
C3730 C3728 1.384 . S
C3730 C3731 1.372 . S
C3731 C3730 1.372 . S
C3731 C3732 1.400 . S
C3731 C3736 1.490 . S
C3732 H3722 0.930 . S
C3732 C3731 1.400 . S
C3732 C3735 1.386 . S
H3733 C3749 0.930 . S
H3734 C3750 0.931 . S
C3735 H3723 0.929 . S
C3735 C3729 1.390 . S
C3735 C3732 1.386 . S
C3736 C3731 1.490 . S
C3736 C3738 1.395 . S
C3736 C3739 1.403 . S
H3737 C3743 0.930 . S
C3738 H3724 0.930 . S
C3738 C3736 1.395 . S
C3738 C3741 1.403 . S
C3739 C3736 1.403 . S
C3739 C3740 1.524 . S
C3739 C3743 1.400 . S
C3740 H3725 0.960 . S
C3740 H3726 0.960 . S
C3740 H3727 0.960 . S
C3740 C3739 1.524 . S
C3741 C3738 1.403 . S
C3741 C3742 1.392 . S
C3741 C3745 1.495 . S
C3742 C3741 1.392 . S
C3742 C3743 1.385 . S
C3742 C3744 1.478 . S
C3743 H3737 0.930 . S
C3743 C3739 1.400 . S
C3743 C3742 1.385 . S
C3744 C3742 1.478 . S
C3744 C3746 1.381 . S
C3744 C3750 1.383 . S
C3745 C3741 1.495 . S
C3745 H3751 0.959 . S
C3745 H3752 0.961 . S
C3745 H3753 0.960 . S
C3746 C3744 1.381 . S
C3746 C3747 1.394 . S
C3746 H3754 0.930 . S
C3747 C3746 1.394 . S
C3747 C3748 1.383 . S
C3747 H3755 0.929 . S
C3748 C3747 1.383 . S
C3748 C3749 1.377 . S
C3749 H3733 0.930 . S
C3749 C3748 1.377 . S
C3749 C3750 1.379 . S
C3750 H3734 0.931 . S
C3750 C3744 1.383 . S
C3750 C3749 1.379 . S
H3751 C3745 0.959 . S
H3752 C3745 0.961 . S
H3753 C3745 0.960 . S
H3754 C3746 0.930 . S
H3755 C3747 0.929 . S
H3756 C3764 0.929 . S
H3757 C3766 0.930 . S
H3758 C3768 0.930 . S
H3759 C3771 0.929 . S
H3760 C3774 0.930 . S
H3761 C3776 0.960 . S
H3762 C3776 0.960 . S
H3763 C3776 0.960 . S
C3764 H3756 0.929 . S
C3764 C3765 1.377 . S
C3764 C3766 1.384 . S
C3765 C3764 1.377 . S
C3765 C3771 1.390 . S
C3766 H3757 0.930 . S
C3766 C3764 1.384 . S
C3766 C3767 1.372 . S
C3767 C3766 1.372 . S
C3767 C3768 1.400 . S
C3767 C3772 1.490 . S
C3768 H3758 0.930 . S
C3768 C3767 1.400 . S
C3768 C3771 1.386 . S
H3769 C3785 0.930 . S
H3770 C3786 0.931 . S
C3771 H3759 0.929 . S
C3771 C3765 1.390 . S
C3771 C3768 1.386 . S
C3772 C3767 1.490 . S
C3772 C3774 1.395 . S
C3772 C3775 1.403 . S
H3773 C3779 0.930 . S
C3774 H3760 0.930 . S
C3774 C3772 1.395 . S
C3774 C3777 1.403 . S
C3775 C3772 1.403 . S
C3775 C3776 1.524 . S
C3775 C3779 1.400 . S
C3776 H3761 0.960 . S
C3776 H3762 0.960 . S
C3776 H3763 0.960 . S
C3776 C3775 1.524 . S
C3777 C3774 1.403 . S
C3777 C3778 1.392 . S
C3777 C3781 1.495 . S
C3778 C3777 1.392 . S
C3778 C3779 1.385 . S
C3778 C3780 1.478 . S
C3779 H3773 0.930 . S
C3779 C3775 1.400 . S
C3779 C3778 1.385 . S
C3780 C3778 1.478 . S
C3780 C3782 1.381 . S
C3780 C3786 1.383 . S
C3781 C3777 1.495 . S
C3781 H3787 0.959 . S
C3781 H3788 0.961 . S
C3781 H3789 0.960 . S
C3782 C3780 1.381 . S
C3782 C3783 1.394 . S
C3782 H3790 0.930 . S
C3783 C3782 1.394 . S
C3783 C3784 1.383 . S
C3783 H3791 0.929 . S
C3784 C3783 1.383 . S
C3784 C3785 1.377 . S
C3785 H3769 0.930 . S
C3785 C3784 1.377 . S
C3785 C3786 1.379 . S
C3786 H3770 0.931 . S
C3786 C3780 1.383 . S
C3786 C3785 1.379 . S
H3787 C3781 0.959 . S
H3788 C3781 0.961 . S
H3789 C3781 0.960 . S
H3790 C3782 0.930 . S
H3791 C3783 0.929 . S
H3792 C3800 0.929 . S
H3793 C3802 0.930 . S
H3794 C3804 0.930 . S
H3795 C3807 0.929 . S
H3796 C3810 0.930 . S
H3797 C3812 0.960 . S
H3798 C3812 0.960 . S
H3799 C3812 0.960 . S
C3800 H3792 0.929 . S
C3800 C3801 1.377 . S
C3800 C3802 1.384 . S
C3801 C3800 1.377 . S
C3801 C3807 1.390 . S
C3802 H3793 0.930 . S
C3802 C3800 1.384 . S
C3802 C3803 1.372 . S
C3803 C3802 1.372 . S
C3803 C3804 1.400 . S
C3803 C3808 1.490 . S
C3804 H3794 0.930 . S
C3804 C3803 1.400 . S
C3804 C3807 1.386 . S
H3805 C3821 0.930 . S
H3806 C3822 0.931 . S
C3807 H3795 0.929 . S
C3807 C3801 1.390 . S
C3807 C3804 1.386 . S
C3808 C3803 1.490 . S
C3808 C3810 1.395 . S
C3808 C3811 1.403 . S
H3809 C3815 0.930 . S
C3810 H3796 0.930 . S
C3810 C3808 1.395 . S
C3810 C3813 1.403 . S
C3811 C3808 1.403 . S
C3811 C3812 1.524 . S
C3811 C3815 1.400 . S
C3812 H3797 0.960 . S
C3812 H3798 0.960 . S
C3812 H3799 0.960 . S
C3812 C3811 1.524 . S
C3813 C3810 1.403 . S
C3813 C3814 1.392 . S
C3813 C3817 1.495 . S
C3814 C3813 1.392 . S
C3814 C3815 1.385 . S
C3814 C3816 1.478 . S
C3815 H3809 0.930 . S
C3815 C3811 1.400 . S
C3815 C3814 1.385 . S
C3816 C3814 1.478 . S
C3816 C3818 1.381 . S
C3816 C3822 1.383 . S
C3817 C3813 1.495 . S
C3817 H3823 0.959 . S
C3817 H3824 0.961 . S
C3817 H3825 0.960 . S
C3818 C3816 1.381 . S
C3818 C3819 1.394 . S
C3818 H3826 0.930 . S
C3819 C3818 1.394 . S
C3819 C3820 1.383 . S
C3819 H3827 0.929 . S
C3820 C3819 1.383 . S
C3820 C3821 1.377 . S
C3821 H3805 0.930 . S
C3821 C3820 1.377 . S
C3821 C3822 1.379 . S
C3822 H3806 0.931 . S
C3822 C3816 1.383 . S
C3822 C3821 1.379 . S
H3823 C3817 0.959 . S
H3824 C3817 0.961 . S
H3825 C3817 0.960 . S
H3826 C3818 0.930 . S
H3827 C3819 0.929 . S
H3828 C3836 0.929 . S
H3829 C3838 0.930 . S
H3830 C3840 0.930 . S
H3831 C3843 0.929 . S
H3832 C3846 0.930 . S
H3833 C3848 0.960 . S
H3834 C3848 0.960 . S
H3835 C3848 0.960 . S
C3836 H3828 0.929 . S
C3836 C3837 1.377 . S
C3836 C3838 1.384 . S
C3837 C3836 1.377 . S
C3837 C3843 1.390 . S
C3838 H3829 0.930 . S
C3838 C3836 1.384 . S
C3838 C3839 1.372 . S
C3839 C3838 1.372 . S
C3839 C3840 1.400 . S
C3839 C3844 1.490 . S
C3840 H3830 0.930 . S
C3840 C3839 1.400 . S
C3840 C3843 1.386 . S
H3841 C3857 0.930 . S
H3842 C3858 0.931 . S
C3843 H3831 0.929 . S
C3843 C3837 1.390 . S
C3843 C3840 1.386 . S
C3844 C3839 1.490 . S
C3844 C3846 1.395 . S
C3844 C3847 1.403 . S
H3845 C3851 0.930 . S
C3846 H3832 0.930 . S
C3846 C3844 1.395 . S
C3846 C3849 1.403 . S
C3847 C3844 1.403 . S
C3847 C3848 1.524 . S
C3847 C3851 1.400 . S
C3848 H3833 0.960 . S
C3848 H3834 0.960 . S
C3848 H3835 0.960 . S
C3848 C3847 1.524 . S
C3849 C3846 1.403 . S
C3849 C3850 1.392 . S
C3849 C3853 1.495 . S
C3850 C3849 1.392 . S
C3850 C3851 1.385 . S
C3850 C3852 1.478 . S
C3851 H3845 0.930 . S
C3851 C3847 1.400 . S
C3851 C3850 1.385 . S
C3852 C3850 1.478 . S
C3852 C3854 1.381 . S
C3852 C3858 1.383 . S
C3853 C3849 1.495 . S
C3853 H3859 0.959 . S
C3853 H3860 0.961 . S
C3853 H3861 0.960 . S
C3854 C3852 1.381 . S
C3854 C3855 1.394 . S
C3854 H3862 0.930 . S
C3855 C3854 1.394 . S
C3855 C3856 1.383 . S
C3855 H3863 0.929 . S
C3856 C3855 1.383 . S
C3856 C3857 1.377 . S
C3857 H3841 0.930 . S
C3857 C3856 1.377 . S
C3857 C3858 1.379 . S
C3858 H3842 0.931 . S
C3858 C3852 1.383 . S
C3858 C3857 1.379 . S
H3859 C3853 0.959 . S
H3860 C3853 0.961 . S
H3861 C3853 0.960 . S
H3862 C3854 0.930 . S
H3863 C3855 0.929 . S
H3864 C3872 0.929 . S
H3865 C3874 0.930 . S
H3866 C3876 0.930 . S
H3867 C3879 0.929 . S
H3868 C3882 0.930 . S
H3869 C3884 0.960 . S
H3870 C3884 0.960 . S
H3871 C3884 0.960 . S
C3872 H3864 0.929 . S
C3872 C3873 1.377 . S
C3872 C3874 1.384 . S
C3873 C3872 1.377 . S
C3873 C3879 1.390 . S
C3874 H3865 0.930 . S
C3874 C3872 1.384 . S
C3874 C3875 1.372 . S
C3875 C3874 1.372 . S
C3875 C3876 1.400 . S
C3875 C3880 1.490 . S
C3876 H3866 0.930 . S
C3876 C3875 1.400 . S
C3876 C3879 1.386 . S
H3877 C3893 0.930 . S
H3878 C3894 0.931 . S
C3879 H3867 0.929 . S
C3879 C3873 1.390 . S
C3879 C3876 1.386 . S
C3880 C3875 1.490 . S
C3880 C3882 1.395 . S
C3880 C3883 1.403 . S
H3881 C3887 0.930 . S
C3882 H3868 0.930 . S
C3882 C3880 1.395 . S
C3882 C3885 1.403 . S
C3883 C3880 1.403 . S
C3883 C3884 1.524 . S
C3883 C3887 1.400 . S
C3884 H3869 0.960 . S
C3884 H3870 0.960 . S
C3884 H3871 0.960 . S
C3884 C3883 1.524 . S
C3885 C3882 1.403 . S
C3885 C3886 1.392 . S
C3885 C3889 1.495 . S
C3886 C3885 1.392 . S
C3886 C3887 1.385 . S
C3886 C3888 1.478 . S
C3887 H3881 0.930 . S
C3887 C3883 1.400 . S
C3887 C3886 1.385 . S
C3888 C3886 1.478 . S
C3888 C3890 1.381 . S
C3888 C3894 1.383 . S
C3889 C3885 1.495 . S
C3889 H3895 0.959 . S
C3889 H3896 0.961 . S
C3889 H3897 0.960 . S
C3890 C3888 1.381 . S
C3890 C3891 1.394 . S
C3890 H3898 0.930 . S
C3891 C3890 1.394 . S
C3891 C3892 1.383 . S
C3891 H3899 0.929 . S
C3892 C3891 1.383 . S
C3892 C3893 1.377 . S
C3893 H3877 0.930 . S
C3893 C3892 1.377 . S
C3893 C3894 1.379 . S
C3894 H3878 0.931 . S
C3894 C3888 1.383 . S
C3894 C3893 1.379 . S
H3895 C3889 0.959 . S
H3896 C3889 0.961 . S
H3897 C3889 0.960 . S
H3898 C3890 0.930 . S
H3899 C3891 0.929 . S
H3900 C3908 0.929 . S
H3901 C3910 0.930 . S
H3902 C3912 0.930 . S
H3903 C3915 0.929 . S
H3904 C3918 0.930 . S
H3905 C3920 0.960 . S
H3906 C3920 0.960 . S
H3907 C3920 0.960 . S
C3908 H3900 0.929 . S
C3908 C3909 1.377 . S
C3908 C3910 1.384 . S
C3909 C3908 1.377 . S
C3909 C3915 1.390 . S
C3910 H3901 0.930 . S
C3910 C3908 1.384 . S
C3910 C3911 1.372 . S
C3911 C3910 1.372 . S
C3911 C3912 1.400 . S
C3911 C3916 1.490 . S
C3912 H3902 0.930 . S
C3912 C3911 1.400 . S
C3912 C3915 1.386 . S
H3913 C3929 0.930 . S
H3914 C3930 0.931 . S
C3915 H3903 0.929 . S
C3915 C3909 1.390 . S
C3915 C3912 1.386 . S
C3916 C3911 1.490 . S
C3916 C3918 1.395 . S
C3916 C3919 1.403 . S
H3917 C3923 0.930 . S
C3918 H3904 0.930 . S
C3918 C3916 1.395 . S
C3918 C3921 1.403 . S
C3919 C3916 1.403 . S
C3919 C3920 1.524 . S
C3919 C3923 1.400 . S
C3920 H3905 0.960 . S
C3920 H3906 0.960 . S
C3920 H3907 0.960 . S
C3920 C3919 1.524 . S
C3921 C3918 1.403 . S
C3921 C3922 1.392 . S
C3921 C3925 1.495 . S
C3922 C3921 1.392 . S
C3922 C3923 1.385 . S
C3922 C3924 1.478 . S
C3923 H3917 0.930 . S
C3923 C3919 1.400 . S
C3923 C3922 1.385 . S
C3924 C3922 1.478 . S
C3924 C3926 1.381 . S
C3924 C3930 1.383 . S
C3925 C3921 1.495 . S
C3925 H3931 0.959 . S
C3925 H3932 0.961 . S
C3925 H3933 0.960 . S
C3926 C3924 1.381 . S
C3926 C3927 1.394 . S
C3926 H3934 0.930 . S
C3927 C3926 1.394 . S
C3927 C3928 1.383 . S
C3927 H3935 0.929 . S
C3928 C3927 1.383 . S
C3928 C3929 1.377 . S
C3929 H3913 0.930 . S
C3929 C3928 1.377 . S
C3929 C3930 1.379 . S
C3930 H3914 0.931 . S
C3930 C3924 1.383 . S
C3930 C3929 1.379 . S
H3931 C3925 0.959 . S
H3932 C3925 0.961 . S
H3933 C3925 0.960 . S
H3934 C3926 0.930 . S
H3935 C3927 0.929 . S
H3936 C3944 0.929 . S
H3937 C3946 0.930 . S
H3938 C3948 0.930 . S
H3939 C3951 0.929 . S
H3940 C3954 0.930 . S
H3941 C3956 0.960 . S
H3942 C3956 0.960 . S
H3943 C3956 0.960 . S
C3944 H3936 0.929 . S
C3944 C3945 1.377 . S
C3944 C3946 1.384 . S
C3945 C3944 1.377 . S
C3945 C3951 1.390 . S
C3946 H3937 0.930 . S
C3946 C3944 1.384 . S
C3946 C3947 1.372 . S
C3947 C3946 1.372 . S
C3947 C3948 1.400 . S
C3947 C3952 1.490 . S
C3948 H3938 0.930 . S
C3948 C3947 1.400 . S
C3948 C3951 1.386 . S
H3949 C3965 0.930 . S
H3950 C3966 0.931 . S
C3951 H3939 0.929 . S
C3951 C3945 1.390 . S
C3951 C3948 1.386 . S
C3952 C3947 1.490 . S
C3952 C3954 1.395 . S
C3952 C3955 1.403 . S
H3953 C3959 0.930 . S
C3954 H3940 0.930 . S
C3954 C3952 1.395 . S
C3954 C3957 1.403 . S
C3955 C3952 1.403 . S
C3955 C3956 1.524 . S
C3955 C3959 1.400 . S
C3956 H3941 0.960 . S
C3956 H3942 0.960 . S
C3956 H3943 0.960 . S
C3956 C3955 1.524 . S
C3957 C3954 1.403 . S
C3957 C3958 1.392 . S
C3957 C3961 1.495 . S
C3958 C3957 1.392 . S
C3958 C3959 1.385 . S
C3958 C3960 1.478 . S
C3959 H3953 0.930 . S
C3959 C3955 1.400 . S
C3959 C3958 1.385 . S
C3960 C3958 1.478 . S
C3960 C3962 1.381 . S
C3960 C3966 1.383 . S
C3961 C3957 1.495 . S
C3961 H3967 0.959 . S
C3961 H3968 0.961 . S
C3961 H3969 0.960 . S
C3962 C3960 1.381 . S
C3962 C3963 1.394 . S
C3962 H3970 0.930 . S
C3963 C3962 1.394 . S
C3963 C3964 1.383 . S
C3963 H3971 0.929 . S
C3964 C3963 1.383 . S
C3964 C3965 1.377 . S
C3965 H3949 0.930 . S
C3965 C3964 1.377 . S
C3965 C3966 1.379 . S
C3966 H3950 0.931 . S
C3966 C3960 1.383 . S
C3966 C3965 1.379 . S
H3967 C3961 0.959 . S
H3968 C3961 0.961 . S
H3969 C3961 0.960 . S
H3970 C3962 0.930 . S
H3971 C3963 0.929 . S
H3972 C3980 0.929 . S
H3973 C3982 0.930 . S
H3974 C3984 0.930 . S
H3975 C3987 0.929 . S
H3976 C3990 0.930 . S
H3977 C3992 0.960 . S
H3978 C3992 0.960 . S
H3979 C3992 0.960 . S
C3980 H3972 0.929 . S
C3980 C3981 1.377 . S
C3980 C3982 1.384 . S
C3981 C3980 1.377 . S
C3981 C3987 1.390 . S
C3982 H3973 0.930 . S
C3982 C3980 1.384 . S
C3982 C3983 1.372 . S
C3983 C3982 1.372 . S
C3983 C3984 1.400 . S
C3983 C3988 1.490 . S
C3984 H3974 0.930 . S
C3984 C3983 1.400 . S
C3984 C3987 1.386 . S
H3985 C4001 0.930 . S
H3986 C4002 0.931 . S
C3987 H3975 0.929 . S
C3987 C3981 1.390 . S
C3987 C3984 1.386 . S
C3988 C3983 1.490 . S
C3988 C3990 1.395 . S
C3988 C3991 1.403 . S
H3989 C3995 0.930 . S
C3990 H3976 0.930 . S
C3990 C3988 1.395 . S
C3990 C3993 1.403 . S
C3991 C3988 1.403 . S
C3991 C3992 1.524 . S
C3991 C3995 1.400 . S
C3992 H3977 0.960 . S
C3992 H3978 0.960 . S
C3992 H3979 0.960 . S
C3992 C3991 1.524 . S
C3993 C3990 1.403 . S
C3993 C3994 1.392 . S
C3993 C3997 1.495 . S
C3994 C3993 1.392 . S
C3994 C3995 1.385 . S
C3994 C3996 1.478 . S
C3995 H3989 0.930 . S
C3995 C3991 1.400 . S
C3995 C3994 1.385 . S
C3996 C3994 1.478 . S
C3996 C3998 1.381 . S
C3996 C4002 1.383 . S
C3997 C3993 1.495 . S
C3997 H4003 0.959 . S
C3997 H4004 0.961 . S
C3997 H4005 0.960 . S
C3998 C3996 1.381 . S
C3998 C3999 1.394 . S
C3998 H4006 0.930 . S
C3999 C3998 1.394 . S
C3999 C4000 1.383 . S
C3999 H4007 0.929 . S
C4000 C3999 1.383 . S
C4000 C4001 1.377 . S
C4001 H3985 0.930 . S
C4001 C4000 1.377 . S
C4001 C4002 1.379 . S
C4002 H3986 0.931 . S
C4002 C3996 1.383 . S
C4002 C4001 1.379 . S
H4003 C3997 0.959 . S
H4004 C3997 0.961 . S
H4005 C3997 0.960 . S
H4006 C3998 0.930 . S
H4007 C3999 0.929 . S
H4008 C4016 0.929 . S
H4009 C4018 0.930 . S
H4010 C4020 0.930 . S
H4011 C4023 0.929 . S
H4012 C4026 0.930 . S
H4013 C4028 0.960 . S
H4014 C4028 0.960 . S
H4015 C4028 0.960 . S
C4016 H4008 0.929 . S
C4016 C4017 1.377 . S
C4016 C4018 1.384 . S
C4017 C4016 1.377 . S
C4017 C4023 1.390 . S
C4018 H4009 0.930 . S
C4018 C4016 1.384 . S
C4018 C4019 1.372 . S
C4019 C4018 1.372 . S
C4019 C4020 1.400 . S
C4019 C4024 1.490 . S
C4020 H4010 0.930 . S
C4020 C4019 1.400 . S
C4020 C4023 1.386 . S
H4021 C4037 0.930 . S
H4022 C4038 0.931 . S
C4023 H4011 0.929 . S
C4023 C4017 1.390 . S
C4023 C4020 1.386 . S
C4024 C4019 1.490 . S
C4024 C4026 1.395 . S
C4024 C4027 1.403 . S
H4025 C4031 0.930 . S
C4026 H4012 0.930 . S
C4026 C4024 1.395 . S
C4026 C4029 1.403 . S
C4027 C4024 1.403 . S
C4027 C4028 1.524 . S
C4027 C4031 1.400 . S
C4028 H4013 0.960 . S
C4028 H4014 0.960 . S
C4028 H4015 0.960 . S
C4028 C4027 1.524 . S
C4029 C4026 1.403 . S
C4029 C4030 1.392 . S
C4029 C4033 1.495 . S
C4030 C4029 1.392 . S
C4030 C4031 1.385 . S
C4030 C4032 1.478 . S
C4031 H4025 0.930 . S
C4031 C4027 1.400 . S
C4031 C4030 1.385 . S
C4032 C4030 1.478 . S
C4032 C4034 1.381 . S
C4032 C4038 1.383 . S
C4033 C4029 1.495 . S
C4033 H4039 0.959 . S
C4033 H4040 0.961 . S
C4033 H4041 0.960 . S
C4034 C4032 1.381 . S
C4034 C4035 1.394 . S
C4034 H4042 0.930 . S
C4035 C4034 1.394 . S
C4035 C4036 1.383 . S
C4035 H4043 0.929 . S
C4036 C4035 1.383 . S
C4036 C4037 1.377 . S
C4037 H4021 0.930 . S
C4037 C4036 1.377 . S
C4037 C4038 1.379 . S
C4038 H4022 0.931 . S
C4038 C4032 1.383 . S
C4038 C4037 1.379 . S
H4039 C4033 0.959 . S
H4040 C4033 0.961 . S
H4041 C4033 0.960 . S
H4042 C4034 0.930 . S
H4043 C4035 0.929 . S
H4044 C4052 0.929 . S
H4045 C4054 0.930 . S
H4046 C4056 0.930 . S
H4047 C4059 0.929 . S
H4048 C4062 0.930 . S
H4049 C4064 0.960 . S
H4050 C4064 0.960 . S
H4051 C4064 0.960 . S
C4052 H4044 0.929 . S
C4052 C4053 1.377 . S
C4052 C4054 1.384 . S
C4053 C4052 1.377 . S
C4053 C4059 1.390 . S
C4054 H4045 0.930 . S
C4054 C4052 1.384 . S
C4054 C4055 1.372 . S
C4055 C4054 1.372 . S
C4055 C4056 1.400 . S
C4055 C4060 1.490 . S
C4056 H4046 0.930 . S
C4056 C4055 1.400 . S
C4056 C4059 1.386 . S
H4057 C4073 0.930 . S
H4058 C4074 0.931 . S
C4059 H4047 0.929 . S
C4059 C4053 1.390 . S
C4059 C4056 1.386 . S
C4060 C4055 1.490 . S
C4060 C4062 1.395 . S
C4060 C4063 1.403 . S
H4061 C4067 0.930 . S
C4062 H4048 0.930 . S
C4062 C4060 1.395 . S
C4062 C4065 1.403 . S
C4063 C4060 1.403 . S
C4063 C4064 1.524 . S
C4063 C4067 1.400 . S
C4064 H4049 0.960 . S
C4064 H4050 0.960 . S
C4064 H4051 0.960 . S
C4064 C4063 1.524 . S
C4065 C4062 1.403 . S
C4065 C4066 1.392 . S
C4065 C4069 1.495 . S
C4066 C4065 1.392 . S
C4066 C4067 1.385 . S
C4066 C4068 1.478 . S
C4067 H4061 0.930 . S
C4067 C4063 1.400 . S
C4067 C4066 1.385 . S
C4068 C4066 1.478 . S
C4068 C4070 1.381 . S
C4068 C4074 1.383 . S
C4069 C4065 1.495 . S
C4069 H4075 0.959 . S
C4069 H4076 0.961 . S
C4069 H4077 0.960 . S
C4070 C4068 1.381 . S
C4070 C4071 1.394 . S
C4070 H4078 0.930 . S
C4071 C4070 1.394 . S
C4071 C4072 1.383 . S
C4071 H4079 0.929 . S
C4072 C4071 1.383 . S
C4072 C4073 1.377 . S
C4073 H4057 0.930 . S
C4073 C4072 1.377 . S
C4073 C4074 1.379 . S
C4074 H4058 0.931 . S
C4074 C4068 1.383 . S
C4074 C4073 1.379 . S
H4075 C4069 0.959 . S
H4076 C4069 0.961 . S
H4077 C4069 0.960 . S
H4078 C4070 0.930 . S
H4079 C4071 0.929 . S
H4080 C4088 0.929 . S
H4081 C4090 0.930 . S
H4082 C4092 0.930 . S
H4083 C4095 0.929 . S
H4084 C4098 0.930 . S
H4085 C4100 0.960 . S
H4086 C4100 0.960 . S
H4087 C4100 0.960 . S
C4088 H4080 0.929 . S
C4088 C4089 1.377 . S
C4088 C4090 1.384 . S
C4089 C4088 1.377 . S
C4089 C4095 1.390 . S
C4090 H4081 0.930 . S
C4090 C4088 1.384 . S
C4090 C4091 1.372 . S
C4091 C4090 1.372 . S
C4091 C4092 1.400 . S
C4091 C4096 1.490 . S
C4092 H4082 0.930 . S
C4092 C4091 1.400 . S
C4092 C4095 1.386 . S
H4093 C4109 0.930 . S
H4094 C4110 0.931 . S
C4095 H4083 0.929 . S
C4095 C4089 1.390 . S
C4095 C4092 1.386 . S
C4096 C4091 1.490 . S
C4096 C4098 1.395 . S
C4096 C4099 1.403 . S
H4097 C4103 0.930 . S
C4098 H4084 0.930 . S
C4098 C4096 1.395 . S
C4098 C4101 1.403 . S
C4099 C4096 1.403 . S
C4099 C4100 1.524 . S
C4099 C4103 1.400 . S
C4100 H4085 0.960 . S
C4100 H4086 0.960 . S
C4100 H4087 0.960 . S
C4100 C4099 1.524 . S
C4101 C4098 1.403 . S
C4101 C4102 1.392 . S
C4101 C4105 1.495 . S
C4102 C4101 1.392 . S
C4102 C4103 1.385 . S
C4102 C4104 1.478 . S
C4103 H4097 0.930 . S
C4103 C4099 1.400 . S
C4103 C4102 1.385 . S
C4104 C4102 1.478 . S
C4104 C4106 1.381 . S
C4104 C4110 1.383 . S
C4105 C4101 1.495 . S
C4105 H4111 0.959 . S
C4105 H4112 0.961 . S
C4105 H4113 0.960 . S
C4106 C4104 1.381 . S
C4106 C4107 1.394 . S
C4106 H4114 0.930 . S
C4107 C4106 1.394 . S
C4107 C4108 1.383 . S
C4107 H4115 0.929 . S
C4108 C4107 1.383 . S
C4108 C4109 1.377 . S
C4109 H4093 0.930 . S
C4109 C4108 1.377 . S
C4109 C4110 1.379 . S
C4110 H4094 0.931 . S
C4110 C4104 1.383 . S
C4110 C4109 1.379 . S
H4111 C4105 0.959 . S
H4112 C4105 0.961 . S
H4113 C4105 0.960 . S
H4114 C4106 0.930 . S
H4115 C4107 0.929 . S
H4116 C4124 0.929 . S
H4117 C4126 0.930 . S
H4118 C4128 0.930 . S
H4119 C4131 0.929 . S
H4120 C4134 0.930 . S
H4121 C4136 0.960 . S
H4122 C4136 0.960 . S
H4123 C4136 0.960 . S
C4124 H4116 0.929 . S
C4124 C4125 1.377 . S
C4124 C4126 1.384 . S
C4125 C4124 1.377 . S
C4125 C4131 1.390 . S
C4126 H4117 0.930 . S
C4126 C4124 1.384 . S
C4126 C4127 1.372 . S
C4127 C4126 1.372 . S
C4127 C4128 1.400 . S
C4127 C4132 1.490 . S
C4128 H4118 0.930 . S
C4128 C4127 1.400 . S
C4128 C4131 1.386 . S
H4129 C4145 0.930 . S
H4130 C4146 0.931 . S
C4131 H4119 0.929 . S
C4131 C4125 1.390 . S
C4131 C4128 1.386 . S
C4132 C4127 1.490 . S
C4132 C4134 1.395 . S
C4132 C4135 1.403 . S
H4133 C4139 0.930 . S
C4134 H4120 0.930 . S
C4134 C4132 1.395 . S
C4134 C4137 1.403 . S
C4135 C4132 1.403 . S
C4135 C4136 1.524 . S
C4135 C4139 1.400 . S
C4136 H4121 0.960 . S
C4136 H4122 0.960 . S
C4136 H4123 0.960 . S
C4136 C4135 1.524 . S
C4137 C4134 1.403 . S
C4137 C4138 1.392 . S
C4137 C4141 1.495 . S
C4138 C4137 1.392 . S
C4138 C4139 1.385 . S
C4138 C4140 1.478 . S
C4139 H4133 0.930 . S
C4139 C4135 1.400 . S
C4139 C4138 1.385 . S
C4140 C4138 1.478 . S
C4140 C4142 1.381 . S
C4140 C4146 1.383 . S
C4141 C4137 1.495 . S
C4141 H4147 0.959 . S
C4141 H4148 0.961 . S
C4141 H4149 0.960 . S
C4142 C4140 1.381 . S
C4142 C4143 1.394 . S
C4142 H4150 0.930 . S
C4143 C4142 1.394 . S
C4143 C4144 1.383 . S
C4143 H4151 0.929 . S
C4144 C4143 1.383 . S
C4144 C4145 1.377 . S
C4145 H4129 0.930 . S
C4145 C4144 1.377 . S
C4145 C4146 1.379 . S
C4146 H4130 0.931 . S
C4146 C4140 1.383 . S
C4146 C4145 1.379 . S
H4147 C4141 0.959 . S
H4148 C4141 0.961 . S
H4149 C4141 0.960 . S
H4150 C4142 0.930 . S
H4151 C4143 0.929 . S
H4152 C4160 0.929 . S
H4153 C4162 0.930 . S
H4154 C4164 0.930 . S
H4155 C4167 0.929 . S
H4156 C4170 0.930 . S
H4157 C4172 0.960 . S
H4158 C4172 0.960 . S
H4159 C4172 0.960 . S
C4160 H4152 0.929 . S
C4160 C4161 1.377 . S
C4160 C4162 1.384 . S
C4161 C4160 1.377 . S
C4161 C4167 1.390 . S
C4162 H4153 0.930 . S
C4162 C4160 1.384 . S
C4162 C4163 1.372 . S
C4163 C4162 1.372 . S
C4163 C4164 1.400 . S
C4163 C4168 1.490 . S
C4164 H4154 0.930 . S
C4164 C4163 1.400 . S
C4164 C4167 1.386 . S
H4165 C4181 0.930 . S
H4166 C4182 0.931 . S
C4167 H4155 0.929 . S
C4167 C4161 1.390 . S
C4167 C4164 1.386 . S
C4168 C4163 1.490 . S
C4168 C4170 1.395 . S
C4168 C4171 1.403 . S
H4169 C4175 0.930 . S
C4170 H4156 0.930 . S
C4170 C4168 1.395 . S
C4170 C4173 1.403 . S
C4171 C4168 1.403 . S
C4171 C4172 1.524 . S
C4171 C4175 1.400 . S
C4172 H4157 0.960 . S
C4172 H4158 0.960 . S
C4172 H4159 0.960 . S
C4172 C4171 1.524 . S
C4173 C4170 1.403 . S
C4173 C4174 1.392 . S
C4173 C4177 1.495 . S
C4174 C4173 1.392 . S
C4174 C4175 1.385 . S
C4174 C4176 1.478 . S
C4175 H4169 0.930 . S
C4175 C4171 1.400 . S
C4175 C4174 1.385 . S
C4176 C4174 1.478 . S
C4176 C4178 1.381 . S
C4176 C4182 1.383 . S
C4177 C4173 1.495 . S
C4177 H4183 0.959 . S
C4177 H4184 0.961 . S
C4177 H4185 0.960 . S
C4178 C4176 1.381 . S
C4178 C4179 1.394 . S
C4178 H4186 0.930 . S
C4179 C4178 1.394 . S
C4179 C4180 1.383 . S
C4179 H4187 0.929 . S
C4180 C4179 1.383 . S
C4180 C4181 1.377 . S
C4181 H4165 0.930 . S
C4181 C4180 1.377 . S
C4181 C4182 1.379 . S
C4182 H4166 0.931 . S
C4182 C4176 1.383 . S
C4182 C4181 1.379 . S
H4183 C4177 0.959 . S
H4184 C4177 0.961 . S
H4185 C4177 0.960 . S
H4186 C4178 0.930 . S
H4187 C4179 0.929 . S
H4188 C4196 0.929 . S
H4189 C4198 0.930 . S
H4190 C4200 0.930 . S
H4191 C4203 0.929 . S
H4192 C4206 0.930 . S
H4193 C4208 0.960 . S
H4194 C4208 0.960 . S
H4195 C4208 0.960 . S
C4196 H4188 0.929 . S
C4196 C4197 1.377 . S
C4196 C4198 1.384 . S
C4197 C4196 1.377 . S
C4197 C4203 1.390 . S
C4198 H4189 0.930 . S
C4198 C4196 1.384 . S
C4198 C4199 1.372 . S
C4199 C4198 1.372 . S
C4199 C4200 1.400 . S
C4199 C4204 1.490 . S
C4200 H4190 0.930 . S
C4200 C4199 1.400 . S
C4200 C4203 1.386 . S
H4201 C4217 0.930 . S
H4202 C4218 0.931 . S
C4203 H4191 0.929 . S
C4203 C4197 1.390 . S
C4203 C4200 1.386 . S
C4204 C4199 1.490 . S
C4204 C4206 1.395 . S
C4204 C4207 1.403 . S
H4205 C4211 0.930 . S
C4206 H4192 0.930 . S
C4206 C4204 1.395 . S
C4206 C4209 1.403 . S
C4207 C4204 1.403 . S
C4207 C4208 1.524 . S
C4207 C4211 1.400 . S
C4208 H4193 0.960 . S
C4208 H4194 0.960 . S
C4208 H4195 0.960 . S
C4208 C4207 1.524 . S
C4209 C4206 1.403 . S
C4209 C4210 1.392 . S
C4209 C4213 1.495 . S
C4210 C4209 1.392 . S
C4210 C4211 1.385 . S
C4210 C4212 1.478 . S
C4211 H4205 0.930 . S
C4211 C4207 1.400 . S
C4211 C4210 1.385 . S
C4212 C4210 1.478 . S
C4212 C4214 1.381 . S
C4212 C4218 1.383 . S
C4213 C4209 1.495 . S
C4213 H4219 0.959 . S
C4213 H4220 0.961 . S
C4213 H4221 0.960 . S
C4214 C4212 1.381 . S
C4214 C4215 1.394 . S
C4214 H4222 0.930 . S
C4215 C4214 1.394 . S
C4215 C4216 1.383 . S
C4215 H4223 0.929 . S
C4216 C4215 1.383 . S
C4216 C4217 1.377 . S
C4217 H4201 0.930 . S
C4217 C4216 1.377 . S
C4217 C4218 1.379 . S
C4218 H4202 0.931 . S
C4218 C4212 1.383 . S
C4218 C4217 1.379 . S
H4219 C4213 0.959 . S
H4220 C4213 0.961 . S
H4221 C4213 0.960 . S
H4222 C4214 0.930 . S
H4223 C4215 0.929 . S
H4224 C4232 0.892 1_556 S
H4225 C4234 0.930 . S
H4226 C4236 0.930 . S
H4227 C4239 0.929 . S
H4228 C4242 0.930 . S
H4229 C4244 0.960 . S
H4230 C4244 0.960 . S
H4231 C4244 0.960 . S
C4232 H4224 0.892 1_554 S
C4232 C4233 1.378 1_554 S
C4232 C4234 1.422 . S
C4233 C4232 1.378 1_556 S
C4233 C4239 1.348 1_556 S
C4234 H4225 0.930 . S
C4234 C4232 1.422 . S
C4234 C4235 1.372 . S
C4235 C4234 1.372 . S
C4235 C4236 1.400 . S
C4235 C4240 1.490 . S
C4236 H4226 0.930 . S
C4236 C4235 1.400 . S
C4236 C4239 1.386 . S
H4237 C4253 0.930 . S
H4238 C4254 0.931 . S
C4239 H4227 0.929 . S
C4239 C4233 1.348 1_554 S
C4239 C4236 1.386 . S
C4240 C4235 1.490 . S
C4240 C4242 1.395 . S
C4240 C4243 1.403 . S
H4241 C4247 0.930 . S
C4242 H4228 0.930 . S
C4242 C4240 1.395 . S
C4242 C4245 1.403 . S
C4243 C4240 1.403 . S
C4243 C4244 1.524 . S
C4243 C4247 1.400 . S
C4244 H4229 0.960 . S
C4244 H4230 0.960 . S
C4244 H4231 0.960 . S
C4244 C4243 1.524 . S
C4245 C4242 1.403 . S
C4245 C4246 1.392 . S
C4245 C4249 1.495 . S
C4246 C4245 1.392 . S
C4246 C4247 1.385 . S
C4246 C4248 1.478 . S
C4247 H4241 0.930 . S
C4247 C4243 1.400 . S
C4247 C4246 1.385 . S
C4248 C4246 1.478 . S
C4248 C4250 1.381 . S
C4248 C4254 1.383 . S
C4249 C4245 1.495 . S
C4249 H4255 0.959 . S
C4249 H4256 0.961 . S
C4249 H4257 0.960 . S
C4250 C4248 1.381 . S
C4250 C4251 1.394 . S
C4250 H4258 0.930 . S
C4251 C4250 1.394 . S
C4251 C4252 1.383 . S
C4251 H4259 0.929 . S
C4252 C4251 1.383 . S
C4252 C4253 1.377 . S
C4253 H4237 0.930 . S
C4253 C4252 1.377 . S
C4253 C4254 1.379 . S
C4254 H4238 0.931 . S
C4254 C4248 1.383 . S
C4254 C4253 1.379 . S
H4255 C4249 0.959 . S
H4256 C4249 0.961 . S
H4257 C4249 0.960 . S
H4258 C4250 0.930 . S
H4259 C4251 0.929 . S
H4260 C4268 0.929 . S
H4261 C4270 0.930 . S
H4262 C4272 0.930 . S
H4263 C4275 0.929 . S
H4264 C4278 0.930 . S
H4265 C4280 0.960 . S
H4266 C4280 0.960 . S
H4267 C4280 0.960 . S
C4268 H4260 0.929 . S
C4268 C4269 1.377 . S
C4268 C4270 1.384 . S
C4269 C4268 1.377 . S
C4269 C4275 1.390 . S
C4270 H4261 0.930 . S
C4270 C4268 1.384 . S
C4270 C4271 1.372 . S
C4271 C4270 1.372 . S
C4271 C4272 1.400 . S
C4271 C4276 1.490 . S
C4272 H4262 0.930 . S
C4272 C4271 1.400 . S
C4272 C4275 1.386 . S
H4273 C4289 0.930 . S
H4274 C4290 0.931 . S
C4275 H4263 0.929 . S
C4275 C4269 1.390 . S
C4275 C4272 1.386 . S
C4276 C4271 1.490 . S
C4276 C4278 1.395 . S
C4276 C4279 1.403 . S
H4277 C4283 0.930 . S
C4278 H4264 0.930 . S
C4278 C4276 1.395 . S
C4278 C4281 1.403 . S
C4279 C4276 1.403 . S
C4279 C4280 1.524 . S
C4279 C4283 1.400 . S
C4280 H4265 0.960 . S
C4280 H4266 0.960 . S
C4280 H4267 0.960 . S
C4280 C4279 1.524 . S
C4281 C4278 1.403 . S
C4281 C4282 1.392 . S
C4281 C4285 1.495 . S
C4282 C4281 1.392 . S
C4282 C4283 1.385 . S
C4282 C4284 1.478 . S
C4283 H4277 0.930 . S
C4283 C4279 1.400 . S
C4283 C4282 1.385 . S
C4284 C4282 1.478 . S
C4284 C4286 1.381 . S
C4284 C4290 1.383 . S
C4285 C4281 1.495 . S
C4285 H4291 0.959 . S
C4285 H4292 0.961 . S
C4285 H4293 0.960 . S
C4286 C4284 1.381 . S
C4286 C4287 1.394 . S
C4286 H4294 0.930 . S
C4287 C4286 1.394 . S
C4287 C4288 1.383 . S
C4287 H4295 0.929 . S
C4288 C4287 1.383 . S
C4288 C4289 1.377 . S
C4289 H4273 0.930 . S
C4289 C4288 1.377 . S
C4289 C4290 1.379 . S
C4290 H4274 0.931 . S
C4290 C4284 1.383 . S
C4290 C4289 1.379 . S
H4291 C4285 0.959 . S
H4292 C4285 0.961 . S
H4293 C4285 0.960 . S
H4294 C4286 0.930 . S
H4295 C4287 0.929 . S
H4296 C4304 0.929 . S
H4297 C4306 0.930 . S
H4298 C4308 0.930 . S
H4299 C4311 0.929 . S
H4300 C4314 0.930 . S
H4301 C4316 0.960 . S
H4302 C4316 0.960 . S
H4303 C4316 0.960 . S
C4304 H4296 0.929 . S
C4304 C4305 1.377 . S
C4304 C4306 1.384 . S
C4305 C4304 1.377 . S
C4305 C4311 1.390 . S
C4306 H4297 0.930 . S
C4306 C4304 1.384 . S
C4306 C4307 1.372 . S
C4307 C4306 1.372 . S
C4307 C4308 1.400 . S
C4307 C4312 1.490 . S
C4308 H4298 0.930 . S
C4308 C4307 1.400 . S
C4308 C4311 1.386 . S
H4309 C4325 0.930 . S
H4310 C4326 0.931 . S
C4311 H4299 0.929 . S
C4311 C4305 1.390 . S
C4311 C4308 1.386 . S
C4312 C4307 1.490 . S
C4312 C4314 1.395 . S
C4312 C4315 1.403 . S
H4313 C4319 0.930 . S
C4314 H4300 0.930 . S
C4314 C4312 1.395 . S
C4314 C4317 1.403 . S
C4315 C4312 1.403 . S
C4315 C4316 1.524 . S
C4315 C4319 1.400 . S
C4316 H4301 0.960 . S
C4316 H4302 0.960 . S
C4316 H4303 0.960 . S
C4316 C4315 1.524 . S
C4317 C4314 1.403 . S
C4317 C4318 1.392 . S
C4317 C4321 1.495 . S
C4318 C4317 1.392 . S
C4318 C4319 1.385 . S
C4318 C4320 1.478 . S
C4319 H4313 0.930 . S
C4319 C4315 1.400 . S
C4319 C4318 1.385 . S
C4320 C4318 1.478 . S
C4320 C4322 1.381 . S
C4320 C4326 1.383 . S
C4321 C4317 1.495 . S
C4321 H4327 0.959 . S
C4321 H4328 0.961 . S
C4321 H4329 0.960 . S
C4322 C4320 1.381 . S
C4322 C4323 1.394 . S
C4322 H4330 0.930 . S
C4323 C4322 1.394 . S
C4323 C4324 1.383 . S
C4323 H4331 0.929 . S
C4324 C4323 1.383 . S
C4324 C4325 1.377 . S
C4325 H4309 0.930 . S
C4325 C4324 1.377 . S
C4325 C4326 1.379 . S
C4326 H4310 0.931 . S
C4326 C4320 1.383 . S
C4326 C4325 1.379 . S
H4327 C4321 0.959 . S
H4328 C4321 0.961 . S
H4329 C4321 0.960 . S
H4330 C4322 0.930 . S
H4331 C4323 0.929 . S
H4332 C4340 0.929 . S
H4333 C4342 0.930 . S
H4334 C4344 0.930 . S
H4335 C4347 0.929 . S
H4336 C4350 0.930 . S
H4337 C4352 0.960 . S
H4338 C4352 0.960 . S
H4339 C4352 0.960 . S
C4340 H4332 0.929 . S
C4340 C4341 1.377 . S
C4340 C4342 1.384 . S
C4341 C4340 1.377 . S
C4341 C4347 1.390 . S
C4342 H4333 0.930 . S
C4342 C4340 1.384 . S
C4342 C4343 1.372 . S
C4343 C4342 1.372 . S
C4343 C4344 1.400 . S
C4343 C4348 1.490 . S
C4344 H4334 0.930 . S
C4344 C4343 1.400 . S
C4344 C4347 1.386 . S
H4345 C4361 0.930 . S
H4346 C4362 0.931 . S
C4347 H4335 0.929 . S
C4347 C4341 1.390 . S
C4347 C4344 1.386 . S
C4348 C4343 1.490 . S
C4348 C4350 1.395 . S
C4348 C4351 1.403 . S
H4349 C4355 0.930 . S
C4350 H4336 0.930 . S
C4350 C4348 1.395 . S
C4350 C4353 1.403 . S
C4351 C4348 1.403 . S
C4351 C4352 1.524 . S
C4351 C4355 1.400 . S
C4352 H4337 0.960 . S
C4352 H4338 0.960 . S
C4352 H4339 0.960 . S
C4352 C4351 1.524 . S
C4353 C4350 1.403 . S
C4353 C4354 1.392 . S
C4353 C4357 1.495 . S
C4354 C4353 1.392 . S
C4354 C4355 1.385 . S
C4354 C4356 1.478 . S
C4355 H4349 0.930 . S
C4355 C4351 1.400 . S
C4355 C4354 1.385 . S
C4356 C4354 1.478 . S
C4356 C4358 1.381 . S
C4356 C4362 1.383 . S
C4357 C4353 1.495 . S
C4357 H4363 0.959 . S
C4357 H4364 0.961 . S
C4357 H4365 0.960 . S
C4358 C4356 1.381 . S
C4358 C4359 1.394 . S
C4358 H4366 0.930 . S
C4359 C4358 1.394 . S
C4359 C4360 1.383 . S
C4359 H4367 0.929 . S
C4360 C4359 1.383 . S
C4360 C4361 1.377 . S
C4361 H4345 0.930 . S
C4361 C4360 1.377 . S
C4361 C4362 1.379 . S
C4362 H4346 0.931 . S
C4362 C4356 1.383 . S
C4362 C4361 1.379 . S
H4363 C4357 0.959 . S
H4364 C4357 0.961 . S
H4365 C4357 0.960 . S
H4366 C4358 0.930 . S
H4367 C4359 0.929 . S
H4368 C4376 0.929 . S
H4369 C4378 0.930 . S
H4370 C4380 0.930 . S
H4371 C4383 0.929 . S
H4372 C4386 0.930 . S
H4373 C4388 0.960 . S
H4374 C4388 0.960 . S
H4375 C4388 0.960 . S
C4376 H4368 0.929 . S
C4376 C4377 1.377 . S
C4376 C4378 1.384 . S
C4377 C4376 1.377 . S
C4377 C4383 1.390 . S
C4378 H4369 0.930 . S
C4378 C4376 1.384 . S
C4378 C4379 1.372 . S
C4379 C4378 1.372 . S
C4379 C4380 1.400 . S
C4379 C4384 1.490 . S
C4380 H4370 0.930 . S
C4380 C4379 1.400 . S
C4380 C4383 1.386 . S
H4381 C4397 0.930 . S
H4382 C4398 0.931 . S
C4383 H4371 0.929 . S
C4383 C4377 1.390 . S
C4383 C4380 1.386 . S
C4384 C4379 1.490 . S
C4384 C4386 1.395 . S
C4384 C4387 1.403 . S
H4385 C4391 0.930 . S
C4386 H4372 0.930 . S
C4386 C4384 1.395 . S
C4386 C4389 1.403 . S
C4387 C4384 1.403 . S
C4387 C4388 1.524 . S
C4387 C4391 1.400 . S
C4388 H4373 0.960 . S
C4388 H4374 0.960 . S
C4388 H4375 0.960 . S
C4388 C4387 1.524 . S
C4389 C4386 1.403 . S
C4389 C4390 1.392 . S
C4389 C4393 1.495 . S
C4390 C4389 1.392 . S
C4390 C4391 1.385 . S
C4390 C4392 1.478 . S
C4391 H4385 0.930 . S
C4391 C4387 1.400 . S
C4391 C4390 1.385 . S
C4392 C4390 1.478 . S
C4392 C4394 1.381 . S
C4392 C4398 1.383 . S
C4393 C4389 1.495 . S
C4393 H4399 0.959 . S
C4393 H4400 0.961 . S
C4393 H4401 0.960 . S
C4394 C4392 1.381 . S
C4394 C4395 1.394 . S
C4394 H4402 0.930 . S
C4395 C4394 1.394 . S
C4395 C4396 1.383 . S
C4395 H4403 0.929 . S
C4396 C4395 1.383 . S
C4396 C4397 1.377 . S
C4397 H4381 0.930 . S
C4397 C4396 1.377 . S
C4397 C4398 1.379 . S
C4398 H4382 0.931 . S
C4398 C4392 1.383 . S
C4398 C4397 1.379 . S
H4399 C4393 0.959 . S
H4400 C4393 0.961 . S
H4401 C4393 0.960 . S
H4402 C4394 0.930 . S
H4403 C4395 0.929 . S
H4404 C4412 0.929 . S
H4405 C4414 0.930 . S
H4406 C4416 0.930 . S
H4407 C4419 0.929 . S
H4408 C4422 0.930 . S
H4409 C4424 0.960 . S
H4410 C4424 0.960 . S
H4411 C4424 0.960 . S
C4412 H4404 0.929 . S
C4412 C4413 1.377 . S
C4412 C4414 1.384 . S
C4413 C4412 1.377 . S
C4413 C4419 1.390 . S
C4414 H4405 0.930 . S
C4414 C4412 1.384 . S
C4414 C4415 1.372 . S
C4415 C4414 1.372 . S
C4415 C4416 1.400 . S
C4415 C4420 1.490 . S
C4416 H4406 0.930 . S
C4416 C4415 1.400 . S
C4416 C4419 1.386 . S
H4417 C4433 0.930 . S
H4418 C4434 0.931 . S
C4419 H4407 0.929 . S
C4419 C4413 1.390 . S
C4419 C4416 1.386 . S
C4420 C4415 1.490 . S
C4420 C4422 1.395 . S
C4420 C4423 1.403 . S
H4421 C4427 0.930 . S
C4422 H4408 0.930 . S
C4422 C4420 1.395 . S
C4422 C4425 1.403 . S
C4423 C4420 1.403 . S
C4423 C4424 1.524 . S
C4423 C4427 1.400 . S
C4424 H4409 0.960 . S
C4424 H4410 0.960 . S
C4424 H4411 0.960 . S
C4424 C4423 1.524 . S
C4425 C4422 1.403 . S
C4425 C4426 1.392 . S
C4425 C4429 1.495 . S
C4426 C4425 1.392 . S
C4426 C4427 1.385 . S
C4426 C4428 1.478 . S
C4427 H4421 0.930 . S
C4427 C4423 1.400 . S
C4427 C4426 1.385 . S
C4428 C4426 1.478 . S
C4428 C4430 1.381 . S
C4428 C4434 1.383 . S
C4429 C4425 1.495 . S
C4429 H4435 0.959 . S
C4429 H4436 0.961 . S
C4429 H4437 0.960 . S
C4430 C4428 1.381 . S
C4430 C4431 1.394 . S
C4430 H4438 0.930 . S
C4431 C4430 1.394 . S
C4431 C4432 1.383 . S
C4431 H4439 0.929 . S
C4432 C4431 1.383 . S
C4432 C4433 1.377 . S
C4433 H4417 0.930 . S
C4433 C4432 1.377 . S
C4433 C4434 1.379 . S
C4434 H4418 0.931 . S
C4434 C4428 1.383 . S
C4434 C4433 1.379 . S
H4435 C4429 0.959 . S
H4436 C4429 0.961 . S
H4437 C4429 0.960 . S
H4438 C4430 0.930 . S
H4439 C4431 0.929 . S
H4440 C4448 0.929 . S
H4441 C4450 0.930 . S
H4442 C4452 0.930 . S
H4443 C4455 0.929 . S
H4444 C4458 0.930 . S
H4445 C4460 0.960 . S
H4446 C4460 0.960 . S
H4447 C4460 0.960 . S
C4448 H4440 0.929 . S
C4448 C4449 1.377 . S
C4448 C4450 1.384 . S
C4449 C4448 1.377 . S
C4449 C4455 1.390 . S
C4450 H4441 0.930 . S
C4450 C4448 1.384 . S
C4450 C4451 1.372 . S
C4451 C4450 1.372 . S
C4451 C4452 1.400 . S
C4451 C4456 1.490 . S
C4452 H4442 0.930 . S
C4452 C4451 1.400 . S
C4452 C4455 1.386 . S
H4453 C4469 0.930 . S
H4454 C4470 0.931 . S
C4455 H4443 0.929 . S
C4455 C4449 1.390 . S
C4455 C4452 1.386 . S
C4456 C4451 1.490 . S
C4456 C4458 1.395 . S
C4456 C4459 1.403 . S
H4457 C4463 0.930 . S
C4458 H4444 0.930 . S
C4458 C4456 1.395 . S
C4458 C4461 1.403 . S
C4459 C4456 1.403 . S
C4459 C4460 1.524 . S
C4459 C4463 1.400 . S
C4460 H4445 0.960 . S
C4460 H4446 0.960 . S
C4460 H4447 0.960 . S
C4460 C4459 1.524 . S
C4461 C4458 1.403 . S
C4461 C4462 1.392 . S
C4461 C4465 1.495 . S
C4462 C4461 1.392 . S
C4462 C4463 1.385 . S
C4462 C4464 1.478 . S
C4463 H4457 0.930 . S
C4463 C4459 1.400 . S
C4463 C4462 1.385 . S
C4464 C4462 1.478 . S
C4464 C4466 1.381 . S
C4464 C4470 1.383 . S
C4465 C4461 1.495 . S
C4465 H4471 0.959 . S
C4465 H4472 0.961 . S
C4465 H4473 0.960 . S
C4466 C4464 1.381 . S
C4466 C4467 1.394 . S
C4466 H4474 0.930 . S
C4467 C4466 1.394 . S
C4467 C4468 1.383 . S
C4467 H4475 0.929 . S
C4468 C4467 1.383 . S
C4468 C4469 1.377 . S
C4469 H4453 0.930 . S
C4469 C4468 1.377 . S
C4469 C4470 1.379 . S
C4470 H4454 0.931 . S
C4470 C4464 1.383 . S
C4470 C4469 1.379 . S
H4471 C4465 0.959 . S
H4472 C4465 0.961 . S
H4473 C4465 0.960 . S
H4474 C4466 0.930 . S
H4475 C4467 0.929 . S
H4476 C4484 0.929 . S
H4477 C4486 0.930 . S
H4478 C4488 0.930 . S
H4479 C4491 0.929 . S
H4480 C4494 0.930 . S
H4481 C4496 0.960 . S
H4482 C4496 0.960 . S
H4483 C4496 0.960 . S
C4484 H4476 0.929 . S
C4484 C4485 1.377 . S
C4484 C4486 1.384 . S
C4485 C4484 1.377 . S
C4485 C4491 1.390 . S
C4486 H4477 0.930 . S
C4486 C4484 1.384 . S
C4486 C4487 1.372 . S
C4487 C4486 1.372 . S
C4487 C4488 1.400 . S
C4487 C4492 1.490 . S
C4488 H4478 0.930 . S
C4488 C4487 1.400 . S
C4488 C4491 1.386 . S
H4489 C4505 0.930 . S
H4490 C4506 0.931 . S
C4491 H4479 0.929 . S
C4491 C4485 1.390 . S
C4491 C4488 1.386 . S
C4492 C4487 1.490 . S
C4492 C4494 1.395 . S
C4492 C4495 1.403 . S
H4493 C4499 0.930 . S
C4494 H4480 0.930 . S
C4494 C4492 1.395 . S
C4494 C4497 1.403 . S
C4495 C4492 1.403 . S
C4495 C4496 1.524 . S
C4495 C4499 1.400 . S
C4496 H4481 0.960 . S
C4496 H4482 0.960 . S
C4496 H4483 0.960 . S
C4496 C4495 1.524 . S
C4497 C4494 1.403 . S
C4497 C4498 1.392 . S
C4497 C4501 1.495 . S
C4498 C4497 1.392 . S
C4498 C4499 1.385 . S
C4498 C4500 1.478 . S
C4499 H4493 0.930 . S
C4499 C4495 1.400 . S
C4499 C4498 1.385 . S
C4500 C4498 1.478 . S
C4500 C4502 1.381 . S
C4500 C4506 1.383 . S
C4501 C4497 1.495 . S
C4501 H4507 0.959 . S
C4501 H4508 0.961 . S
C4501 H4509 0.960 . S
C4502 C4500 1.381 . S
C4502 C4503 1.394 . S
C4502 H4510 0.930 . S
C4503 C4502 1.394 . S
C4503 C4504 1.383 . S
C4503 H4511 0.929 . S
C4504 C4503 1.383 . S
C4504 C4505 1.377 . S
C4505 H4489 0.930 . S
C4505 C4504 1.377 . S
C4505 C4506 1.379 . S
C4506 H4490 0.931 . S
C4506 C4500 1.383 . S
C4506 C4505 1.379 . S
H4507 C4501 0.959 . S
H4508 C4501 0.961 . S
H4509 C4501 0.960 . S
H4510 C4502 0.930 . S
H4511 C4503 0.929 . S
H4512 C4520 0.929 . S
H4513 C4522 0.930 . S
H4514 C4524 0.930 . S
H4515 C4527 0.929 . S
H4516 C4530 0.930 . S
H4517 C4532 0.960 . S
H4518 C4532 0.960 . S
H4519 C4532 0.960 . S
C4520 H4512 0.929 . S
C4520 C4521 1.377 . S
C4520 C4522 1.384 . S
C4521 C4520 1.377 . S
C4521 C4527 1.390 . S
C4522 H4513 0.930 . S
C4522 C4520 1.384 . S
C4522 C4523 1.372 . S
C4523 C4522 1.372 . S
C4523 C4524 1.400 . S
C4523 C4528 1.490 . S
C4524 H4514 0.930 . S
C4524 C4523 1.400 . S
C4524 C4527 1.386 . S
H4525 C4541 0.930 . S
H4526 C4542 0.931 . S
C4527 H4515 0.929 . S
C4527 C4521 1.390 . S
C4527 C4524 1.386 . S
C4528 C4523 1.490 . S
C4528 C4530 1.395 . S
C4528 C4531 1.403 . S
H4529 C4535 0.930 . S
C4530 H4516 0.930 . S
C4530 C4528 1.395 . S
C4530 C4533 1.403 . S
C4531 C4528 1.403 . S
C4531 C4532 1.524 . S
C4531 C4535 1.400 . S
C4532 H4517 0.960 . S
C4532 H4518 0.960 . S
C4532 H4519 0.960 . S
C4532 C4531 1.524 . S
C4533 C4530 1.403 . S
C4533 C4534 1.392 . S
C4533 C4537 1.495 . S
C4534 C4533 1.392 . S
C4534 C4535 1.385 . S
C4534 C4536 1.478 . S
C4535 H4529 0.930 . S
C4535 C4531 1.400 . S
C4535 C4534 1.385 . S
C4536 C4534 1.478 . S
C4536 C4538 1.381 . S
C4536 C4542 1.383 . S
C4537 C4533 1.495 . S
C4537 H4543 0.959 . S
C4537 H4544 0.961 . S
C4537 H4545 0.960 . S
C4538 C4536 1.381 . S
C4538 C4539 1.394 . S
C4538 H4546 0.930 . S
C4539 C4538 1.394 . S
C4539 C4540 1.383 . S
C4539 H4547 0.929 . S
C4540 C4539 1.383 . S
C4540 C4541 1.377 . S
C4541 H4525 0.930 . S
C4541 C4540 1.377 . S
C4541 C4542 1.379 . S
C4542 H4526 0.931 . S
C4542 C4536 1.383 . S
C4542 C4541 1.379 . S
H4543 C4537 0.959 . S
H4544 C4537 0.961 . S
H4545 C4537 0.960 . S
H4546 C4538 0.930 . S
H4547 C4539 0.929 . S
H4548 C4556 0.929 . S
H4549 C4558 0.930 . S
H4550 C4560 0.930 . S
H4551 C4563 0.929 . S
H4552 C4566 0.930 . S
H4553 C4568 0.960 . S
H4554 C4568 0.960 . S
H4555 C4568 0.960 . S
C4556 H4548 0.929 . S
C4556 C4557 1.377 . S
C4556 C4558 1.384 . S
C4557 C4556 1.377 . S
C4557 C4563 1.390 . S
C4558 H4549 0.930 . S
C4558 C4556 1.384 . S
C4558 C4559 1.372 . S
C4559 C4558 1.372 . S
C4559 C4560 1.400 . S
C4559 C4564 1.490 . S
C4560 H4550 0.930 . S
C4560 C4559 1.400 . S
C4560 C4563 1.386 . S
H4561 C4577 0.930 . S
H4562 C4578 0.931 . S
C4563 H4551 0.929 . S
C4563 C4557 1.390 . S
C4563 C4560 1.386 . S
C4564 C4559 1.490 . S
C4564 C4566 1.395 . S
C4564 C4567 1.403 . S
H4565 C4571 0.930 . S
C4566 H4552 0.930 . S
C4566 C4564 1.395 . S
C4566 C4569 1.403 . S
C4567 C4564 1.403 . S
C4567 C4568 1.524 . S
C4567 C4571 1.400 . S
C4568 H4553 0.960 . S
C4568 H4554 0.960 . S
C4568 H4555 0.960 . S
C4568 C4567 1.524 . S
C4569 C4566 1.403 . S
C4569 C4570 1.392 . S
C4569 C4573 1.495 . S
C4570 C4569 1.392 . S
C4570 C4571 1.385 . S
C4570 C4572 1.478 . S
C4571 H4565 0.930 . S
C4571 C4567 1.400 . S
C4571 C4570 1.385 . S
C4572 C4570 1.478 . S
C4572 C4574 1.381 . S
C4572 C4578 1.383 . S
C4573 C4569 1.495 . S
C4573 H4579 0.959 . S
C4573 H4580 0.961 . S
C4573 H4581 0.960 . S
C4574 C4572 1.381 . S
C4574 C4575 1.394 . S
C4574 H4582 0.930 . S
C4575 C4574 1.394 . S
C4575 C4576 1.383 . S
C4575 H4583 0.929 . S
C4576 C4575 1.383 . S
C4576 C4577 1.377 . S
C4577 H4561 0.930 . S
C4577 C4576 1.377 . S
C4577 C4578 1.379 . S
C4578 H4562 0.931 . S
C4578 C4572 1.383 . S
C4578 C4577 1.379 . S
H4579 C4573 0.959 . S
H4580 C4573 0.961 . S
H4581 C4573 0.960 . S
H4582 C4574 0.930 . S
H4583 C4575 0.929 . S
H4584 C4592 0.929 . S
H4585 C4594 0.930 . S
H4586 C4596 0.930 . S
H4587 C4599 0.929 . S
H4588 C4602 0.930 . S
H4589 C4604 0.960 . S
H4590 C4604 0.960 . S
H4591 C4604 0.960 . S
C4592 H4584 0.929 . S
C4592 C4593 1.377 . S
C4592 C4594 1.384 . S
C4593 C4592 1.377 . S
C4593 C4599 1.390 . S
C4594 H4585 0.930 . S
C4594 C4592 1.384 . S
C4594 C4595 1.372 . S
C4595 C4594 1.372 . S
C4595 C4596 1.400 . S
C4595 C4600 1.490 . S
C4596 H4586 0.930 . S
C4596 C4595 1.400 . S
C4596 C4599 1.386 . S
H4597 C4613 0.930 . S
H4598 C4614 0.931 . S
C4599 H4587 0.929 . S
C4599 C4593 1.390 . S
C4599 C4596 1.386 . S
C4600 C4595 1.490 . S
C4600 C4602 1.395 . S
C4600 C4603 1.403 . S
H4601 C4607 0.930 . S
C4602 H4588 0.930 . S
C4602 C4600 1.395 . S
C4602 C4605 1.403 . S
C4603 C4600 1.403 . S
C4603 C4604 1.524 . S
C4603 C4607 1.400 . S
C4604 H4589 0.960 . S
C4604 H4590 0.960 . S
C4604 H4591 0.960 . S
C4604 C4603 1.524 . S
C4605 C4602 1.403 . S
C4605 C4606 1.392 . S
C4605 C4609 1.495 . S
C4606 C4605 1.392 . S
C4606 C4607 1.385 . S
C4606 C4608 1.478 . S
C4607 H4601 0.930 . S
C4607 C4603 1.400 . S
C4607 C4606 1.385 . S
C4608 C4606 1.478 . S
C4608 C4610 1.381 . S
C4608 C4614 1.383 . S
C4609 C4605 1.495 . S
C4609 H4615 0.959 . S
C4609 H4616 0.961 . S
C4609 H4617 0.960 . S
C4610 C4608 1.381 . S
C4610 C4611 1.394 . S
C4610 H4618 0.930 . S
C4611 C4610 1.394 . S
C4611 C4612 1.383 . S
C4611 H4619 0.929 . S
C4612 C4611 1.383 . S
C4612 C4613 1.377 . S
C4613 H4597 0.930 . S
C4613 C4612 1.377 . S
C4613 C4614 1.379 . S
C4614 H4598 0.931 . S
C4614 C4608 1.383 . S
C4614 C4613 1.379 . S
H4615 C4609 0.959 . S
H4616 C4609 0.961 . S
H4617 C4609 0.960 . S
H4618 C4610 0.930 . S
H4619 C4611 0.929 . S
H4620 C4628 0.929 . S
H4621 C4630 0.930 . S
H4622 C4632 0.930 . S
H4623 C4635 0.929 . S
H4624 C4638 0.930 . S
H4625 C4640 0.960 . S
H4626 C4640 0.960 . S
H4627 C4640 0.960 . S
C4628 H4620 0.929 . S
C4628 C4629 1.377 . S
C4628 C4630 1.384 . S
C4629 C4628 1.377 . S
C4629 C4635 1.390 . S
C4630 H4621 0.930 . S
C4630 C4628 1.384 . S
C4630 C4631 1.372 . S
C4631 C4630 1.372 . S
C4631 C4632 1.400 . S
C4631 C4636 1.490 . S
C4632 H4622 0.930 . S
C4632 C4631 1.400 . S
C4632 C4635 1.386 . S
H4633 C4649 0.930 . S
H4634 C4650 0.931 . S
C4635 H4623 0.929 . S
C4635 C4629 1.390 . S
C4635 C4632 1.386 . S
C4636 C4631 1.490 . S
C4636 C4638 1.395 . S
C4636 C4639 1.403 . S
H4637 C4643 0.930 . S
C4638 H4624 0.930 . S
C4638 C4636 1.395 . S
C4638 C4641 1.403 . S
C4639 C4636 1.403 . S
C4639 C4640 1.524 . S
C4639 C4643 1.400 . S
C4640 H4625 0.960 . S
C4640 H4626 0.960 . S
C4640 H4627 0.960 . S
C4640 C4639 1.524 . S
C4641 C4638 1.403 . S
C4641 C4642 1.392 . S
C4641 C4645 1.495 . S
C4642 C4641 1.392 . S
C4642 C4643 1.385 . S
C4642 C4644 1.478 . S
C4643 H4637 0.930 . S
C4643 C4639 1.400 . S
C4643 C4642 1.385 . S
C4644 C4642 1.478 . S
C4644 C4646 1.381 . S
C4644 C4650 1.383 . S
C4645 C4641 1.495 . S
C4645 H4651 0.959 . S
C4645 H4652 0.961 . S
C4645 H4653 0.960 . S
C4646 C4644 1.381 . S
C4646 C4647 1.394 . S
C4646 H4654 0.930 . S
C4647 C4646 1.394 . S
C4647 C4648 1.383 . S
C4647 H4655 0.929 . S
C4648 C4647 1.383 . S
C4648 C4649 1.377 . S
C4649 H4633 0.930 . S
C4649 C4648 1.377 . S
C4649 C4650 1.379 . S
C4650 H4634 0.931 . S
C4650 C4644 1.383 . S
C4650 C4649 1.379 . S
H4651 C4645 0.959 . S
H4652 C4645 0.961 . S
H4653 C4645 0.960 . S
H4654 C4646 0.930 . S
H4655 C4647 0.929 . S
H4656 C4664 0.929 . S
H4657 C4666 0.930 . S
H4658 C4668 0.930 . S
H4659 C4671 0.929 . S
H4660 C4674 0.930 . S
H4661 C4676 0.960 . S
H4662 C4676 0.960 . S
H4663 C4676 0.960 . S
C4664 H4656 0.929 . S
C4664 C4665 1.377 . S
C4664 C4666 1.384 . S
C4665 C4664 1.377 . S
C4665 C4671 1.390 . S
C4666 H4657 0.930 . S
C4666 C4664 1.384 . S
C4666 C4667 1.372 . S
C4667 C4666 1.372 . S
C4667 C4668 1.400 . S
C4667 C4672 1.490 . S
C4668 H4658 0.930 . S
C4668 C4667 1.400 . S
C4668 C4671 1.386 . S
H4669 C4685 0.930 . S
H4670 C4686 0.931 . S
C4671 H4659 0.929 . S
C4671 C4665 1.390 . S
C4671 C4668 1.386 . S
C4672 C4667 1.490 . S
C4672 C4674 1.395 . S
C4672 C4675 1.403 . S
H4673 C4679 0.930 . S
C4674 H4660 0.930 . S
C4674 C4672 1.395 . S
C4674 C4677 1.403 . S
C4675 C4672 1.403 . S
C4675 C4676 1.524 . S
C4675 C4679 1.400 . S
C4676 H4661 0.960 . S
C4676 H4662 0.960 . S
C4676 H4663 0.960 . S
C4676 C4675 1.524 . S
C4677 C4674 1.403 . S
C4677 C4678 1.392 . S
C4677 C4681 1.495 . S
C4678 C4677 1.392 . S
C4678 C4679 1.385 . S
C4678 C4680 1.478 . S
C4679 H4673 0.930 . S
C4679 C4675 1.400 . S
C4679 C4678 1.385 . S
C4680 C4678 1.478 . S
C4680 C4682 1.381 . S
C4680 C4686 1.383 . S
C4681 C4677 1.495 . S
C4681 H4687 0.959 . S
C4681 H4688 0.961 . S
C4681 H4689 0.960 . S
C4682 C4680 1.381 . S
C4682 C4683 1.394 . S
C4682 H4690 0.930 . S
C4683 C4682 1.394 . S
C4683 C4684 1.383 . S
C4683 H4691 0.929 . S
C4684 C4683 1.383 . S
C4684 C4685 1.377 . S
C4685 H4669 0.930 . S
C4685 C4684 1.377 . S
C4685 C4686 1.379 . S
C4686 H4670 0.931 . S
C4686 C4680 1.383 . S
C4686 C4685 1.379 . S
H4687 C4681 0.959 . S
H4688 C4681 0.961 . S
H4689 C4681 0.960 . S
H4690 C4682 0.930 . S
H4691 C4683 0.929 . S
H4692 C4700 0.929 . S
H4693 C4702 0.930 . S
H4694 C4704 0.930 . S
H4695 C4707 0.929 . S
H4696 C4710 0.930 . S
H4697 C4712 0.960 . S
H4698 C4712 0.960 . S
H4699 C4712 0.960 . S
C4700 H4692 0.929 . S
C4700 C4701 1.377 . S
C4700 C4702 1.384 . S
C4701 C4700 1.377 . S
C4701 C4707 1.390 . S
C4702 H4693 0.930 . S
C4702 C4700 1.384 . S
C4702 C4703 1.372 . S
C4703 C4702 1.372 . S
C4703 C4704 1.400 . S
C4703 C4708 1.490 . S
C4704 H4694 0.930 . S
C4704 C4703 1.400 . S
C4704 C4707 1.386 . S
H4705 C4721 0.930 . S
H4706 C4722 0.931 . S
C4707 H4695 0.929 . S
C4707 C4701 1.390 . S
C4707 C4704 1.386 . S
C4708 C4703 1.490 . S
C4708 C4710 1.395 . S
C4708 C4711 1.403 . S
H4709 C4715 0.930 . S
C4710 H4696 0.930 . S
C4710 C4708 1.395 . S
C4710 C4713 1.403 . S
C4711 C4708 1.403 . S
C4711 C4712 1.524 . S
C4711 C4715 1.400 . S
C4712 H4697 0.960 . S
C4712 H4698 0.960 . S
C4712 H4699 0.960 . S
C4712 C4711 1.524 . S
C4713 C4710 1.403 . S
C4713 C4714 1.392 . S
C4713 C4717 1.495 . S
C4714 C4713 1.392 . S
C4714 C4715 1.385 . S
C4714 C4716 1.478 . S
C4715 H4709 0.930 . S
C4715 C4711 1.400 . S
C4715 C4714 1.385 . S
C4716 C4714 1.478 . S
C4716 C4718 1.381 . S
C4716 C4722 1.383 . S
C4717 C4713 1.495 . S
C4717 H4723 0.959 . S
C4717 H4724 0.961 . S
C4717 H4725 0.960 . S
C4718 C4716 1.381 . S
C4718 C4719 1.394 . S
C4718 H4726 0.930 . S
C4719 C4718 1.394 . S
C4719 C4720 1.383 . S
C4719 H4727 0.929 . S
C4720 C4719 1.383 . S
C4720 C4721 1.377 . S
C4721 H4705 0.930 . S
C4721 C4720 1.377 . S
C4721 C4722 1.379 . S
C4722 H4706 0.931 . S
C4722 C4716 1.383 . S
C4722 C4721 1.379 . S
H4723 C4717 0.959 . S
H4724 C4717 0.961 . S
H4725 C4717 0.960 . S
H4726 C4718 0.930 . S
H4727 C4719 0.929 . S
H4728 C4736 0.929 . S
H4729 C4738 0.930 . S
H4730 C4740 0.930 . S
H4731 C4743 0.929 . S
H4732 C4746 0.930 . S
H4733 C4748 0.960 . S
H4734 C4748 0.960 . S
H4735 C4748 0.960 . S
C4736 H4728 0.929 . S
C4736 C4737 1.377 . S
C4736 C4738 1.384 . S
C4737 C4736 1.377 . S
C4737 C4743 1.390 . S
C4738 H4729 0.930 . S
C4738 C4736 1.384 . S
C4738 C4739 1.372 . S
C4739 C4738 1.372 . S
C4739 C4740 1.400 . S
C4739 C4744 1.490 . S
C4740 H4730 0.930 . S
C4740 C4739 1.400 . S
C4740 C4743 1.386 . S
H4741 C4757 0.930 . S
H4742 C4758 0.931 . S
C4743 H4731 0.929 . S
C4743 C4737 1.390 . S
C4743 C4740 1.386 . S
C4744 C4739 1.490 . S
C4744 C4746 1.395 . S
C4744 C4747 1.403 . S
H4745 C4751 0.930 . S
C4746 H4732 0.930 . S
C4746 C4744 1.395 . S
C4746 C4749 1.403 . S
C4747 C4744 1.403 . S
C4747 C4748 1.524 . S
C4747 C4751 1.400 . S
C4748 H4733 0.960 . S
C4748 H4734 0.960 . S
C4748 H4735 0.960 . S
C4748 C4747 1.524 . S
C4749 C4746 1.403 . S
C4749 C4750 1.392 . S
C4749 C4753 1.495 . S
C4750 C4749 1.392 . S
C4750 C4751 1.385 . S
C4750 C4752 1.478 . S
C4751 H4745 0.930 . S
C4751 C4747 1.400 . S
C4751 C4750 1.385 . S
C4752 C4750 1.478 . S
C4752 C4754 1.381 . S
C4752 C4758 1.383 . S
C4753 C4749 1.495 . S
C4753 H4759 0.959 . S
C4753 H4760 0.961 . S
C4753 H4761 0.960 . S
C4754 C4752 1.381 . S
C4754 C4755 1.394 . S
C4754 H4762 0.930 . S
C4755 C4754 1.394 . S
C4755 C4756 1.383 . S
C4755 H4763 0.929 . S
C4756 C4755 1.383 . S
C4756 C4757 1.377 . S
C4757 H4741 0.930 . S
C4757 C4756 1.377 . S
C4757 C4758 1.379 . S
C4758 H4742 0.931 . S
C4758 C4752 1.383 . S
C4758 C4757 1.379 . S
H4759 C4753 0.959 . S
H4760 C4753 0.961 . S
H4761 C4753 0.960 . S
H4762 C4754 0.930 . S
H4763 C4755 0.929 . S
H4764 C4772 0.929 . S
H4765 C4774 0.930 . S
H4766 C4776 0.930 . S
H4767 C4779 0.929 . S
H4768 C4782 0.930 . S
H4769 C4784 0.960 . S
H4770 C4784 0.960 . S
H4771 C4784 0.960 . S
C4772 H4764 0.929 . S
C4772 C4773 1.377 . S
C4772 C4774 1.384 . S
C4773 C4772 1.377 . S
C4773 C4779 1.390 . S
C4774 H4765 0.930 . S
C4774 C4772 1.384 . S
C4774 C4775 1.372 . S
C4775 C4774 1.372 . S
C4775 C4776 1.400 . S
C4775 C4780 1.490 . S
C4776 H4766 0.930 . S
C4776 C4775 1.400 . S
C4776 C4779 1.386 . S
H4777 C4793 0.930 . S
H4778 C4794 0.931 . S
C4779 H4767 0.929 . S
C4779 C4773 1.390 . S
C4779 C4776 1.386 . S
C4780 C4775 1.490 . S
C4780 C4782 1.395 . S
C4780 C4783 1.403 . S
H4781 C4787 0.930 . S
C4782 H4768 0.930 . S
C4782 C4780 1.395 . S
C4782 C4785 1.403 . S
C4783 C4780 1.403 . S
C4783 C4784 1.524 . S
C4783 C4787 1.400 . S
C4784 H4769 0.960 . S
C4784 H4770 0.960 . S
C4784 H4771 0.960 . S
C4784 C4783 1.524 . S
C4785 C4782 1.403 . S
C4785 C4786 1.392 . S
C4785 C4789 1.495 . S
C4786 C4785 1.392 . S
C4786 C4787 1.385 . S
C4786 C4788 1.478 . S
C4787 H4781 0.930 . S
C4787 C4783 1.400 . S
C4787 C4786 1.385 . S
C4788 C4786 1.478 . S
C4788 C4790 1.381 . S
C4788 C4794 1.383 . S
C4789 C4785 1.495 . S
C4789 H4795 0.959 . S
C4789 H4796 0.961 . S
C4789 H4797 0.960 . S
C4790 C4788 1.381 . S
C4790 C4791 1.394 . S
C4790 H4798 0.930 . S
C4791 C4790 1.394 . S
C4791 C4792 1.383 . S
C4791 H4799 0.929 . S
C4792 C4791 1.383 . S
C4792 C4793 1.377 . S
C4793 H4777 0.930 . S
C4793 C4792 1.377 . S
C4793 C4794 1.379 . S
C4794 H4778 0.931 . S
C4794 C4788 1.383 . S
C4794 C4793 1.379 . S
H4795 C4789 0.959 . S
H4796 C4789 0.961 . S
H4797 C4789 0.960 . S
H4798 C4790 0.930 . S
H4799 C4791 0.929 . S
H4800 C4808 0.929 . S
H4801 C4810 0.930 . S
H4802 C4812 0.930 . S
H4803 C4815 0.929 . S
H4804 C4818 0.930 . S
H4805 C4820 0.960 . S
H4806 C4820 0.960 . S
H4807 C4820 0.960 . S
C4808 H4800 0.929 . S
C4808 C4809 1.377 . S
C4808 C4810 1.384 . S
C4809 C4808 1.377 . S
C4809 C4815 1.390 . S
C4810 H4801 0.930 . S
C4810 C4808 1.384 . S
C4810 C4811 1.372 . S
C4811 C4810 1.372 . S
C4811 C4812 1.400 . S
C4811 C4816 1.490 . S
C4812 H4802 0.930 . S
C4812 C4811 1.400 . S
C4812 C4815 1.386 . S
H4813 C4829 0.930 . S
H4814 C4830 0.931 . S
C4815 H4803 0.929 . S
C4815 C4809 1.390 . S
C4815 C4812 1.386 . S
C4816 C4811 1.490 . S
C4816 C4818 1.395 . S
C4816 C4819 1.403 . S
H4817 C4823 0.930 . S
C4818 H4804 0.930 . S
C4818 C4816 1.395 . S
C4818 C4821 1.403 . S
C4819 C4816 1.403 . S
C4819 C4820 1.524 . S
C4819 C4823 1.400 . S
C4820 H4805 0.960 . S
C4820 H4806 0.960 . S
C4820 H4807 0.960 . S
C4820 C4819 1.524 . S
C4821 C4818 1.403 . S
C4821 C4822 1.392 . S
C4821 C4825 1.495 . S
C4822 C4821 1.392 . S
C4822 C4823 1.385 . S
C4822 C4824 1.478 . S
C4823 H4817 0.930 . S
C4823 C4819 1.400 . S
C4823 C4822 1.385 . S
C4824 C4822 1.478 . S
C4824 C4826 1.381 . S
C4824 C4830 1.383 . S
C4825 C4821 1.495 . S
C4825 H4831 0.959 . S
C4825 H4832 0.961 . S
C4825 H4833 0.960 . S
C4826 C4824 1.381 . S
C4826 C4827 1.394 . S
C4826 H4834 0.930 . S
C4827 C4826 1.394 . S
C4827 C4828 1.383 . S
C4827 H4835 0.929 . S
C4828 C4827 1.383 . S
C4828 C4829 1.377 . S
C4829 H4813 0.930 . S
C4829 C4828 1.377 . S
C4829 C4830 1.379 . S
C4830 H4814 0.931 . S
C4830 C4824 1.383 . S
C4830 C4829 1.379 . S
H4831 C4825 0.959 . S
H4832 C4825 0.961 . S
H4833 C4825 0.960 . S
H4834 C4826 0.930 . S
H4835 C4827 0.929 . S
H4836 C4844 0.929 . S
H4837 C4846 0.930 . S
H4838 C4848 0.930 . S
H4839 C4851 0.929 . S
H4840 C4854 0.930 . S
H4841 C4856 0.960 . S
H4842 C4856 0.960 . S
H4843 C4856 0.960 . S
C4844 H4836 0.929 . S
C4844 C4845 1.377 . S
C4844 C4846 1.384 . S
C4845 C4844 1.377 . S
C4845 C4851 1.390 . S
C4846 H4837 0.930 . S
C4846 C4844 1.384 . S
C4846 C4847 1.372 . S
C4847 C4846 1.372 . S
C4847 C4848 1.400 . S
C4847 C4852 1.490 . S
C4848 H4838 0.930 . S
C4848 C4847 1.400 . S
C4848 C4851 1.386 . S
H4849 C4865 0.930 . S
H4850 C4866 0.931 . S
C4851 H4839 0.929 . S
C4851 C4845 1.390 . S
C4851 C4848 1.386 . S
C4852 C4847 1.490 . S
C4852 C4854 1.395 . S
C4852 C4855 1.403 . S
H4853 C4859 0.930 . S
C4854 H4840 0.930 . S
C4854 C4852 1.395 . S
C4854 C4857 1.403 . S
C4855 C4852 1.403 . S
C4855 C4856 1.524 . S
C4855 C4859 1.400 . S
C4856 H4841 0.960 . S
C4856 H4842 0.960 . S
C4856 H4843 0.960 . S
C4856 C4855 1.524 . S
C4857 C4854 1.403 . S
C4857 C4858 1.392 . S
C4857 C4861 1.495 . S
C4858 C4857 1.392 . S
C4858 C4859 1.385 . S
C4858 C4860 1.478 . S
C4859 H4853 0.930 . S
C4859 C4855 1.400 . S
C4859 C4858 1.385 . S
C4860 C4858 1.478 . S
C4860 C4862 1.381 . S
C4860 C4866 1.383 . S
C4861 C4857 1.495 . S
C4861 H4867 0.959 . S
C4861 H4868 0.961 . S
C4861 H4869 0.960 . S
C4862 C4860 1.381 . S
C4862 C4863 1.394 . S
C4862 H4870 0.930 . S
C4863 C4862 1.394 . S
C4863 C4864 1.383 . S
C4863 H4871 0.929 . S
C4864 C4863 1.383 . S
C4864 C4865 1.377 . S
C4865 H4849 0.930 . S
C4865 C4864 1.377 . S
C4865 C4866 1.379 . S
C4866 H4850 0.931 . S
C4866 C4860 1.383 . S
C4866 C4865 1.379 . S
H4867 C4861 0.959 . S
H4868 C4861 0.961 . S
H4869 C4861 0.960 . S
H4870 C4862 0.930 . S
H4871 C4863 0.929 . S
H4872 C4880 0.929 . S
H4873 C4882 0.930 . S
H4874 C4884 0.930 . S
H4875 C4887 0.929 . S
H4876 C4890 0.930 . S
H4877 C4892 0.960 . S
H4878 C4892 0.960 . S
H4879 C4892 0.960 . S
C4880 H4872 0.929 . S
C4880 C4881 1.377 . S
C4880 C4882 1.384 . S
C4881 C4880 1.377 . S
C4881 C4887 1.390 . S
C4882 H4873 0.930 . S
C4882 C4880 1.384 . S
C4882 C4883 1.372 . S
C4883 C4882 1.372 . S
C4883 C4884 1.400 . S
C4883 C4888 1.490 . S
C4884 H4874 0.930 . S
C4884 C4883 1.400 . S
C4884 C4887 1.386 . S
H4885 C4901 0.930 . S
H4886 C4902 0.931 . S
C4887 H4875 0.929 . S
C4887 C4881 1.390 . S
C4887 C4884 1.386 . S
C4888 C4883 1.490 . S
C4888 C4890 1.395 . S
C4888 C4891 1.403 . S
H4889 C4895 0.930 . S
C4890 H4876 0.930 . S
C4890 C4888 1.395 . S
C4890 C4893 1.403 . S
C4891 C4888 1.403 . S
C4891 C4892 1.524 . S
C4891 C4895 1.400 . S
C4892 H4877 0.960 . S
C4892 H4878 0.960 . S
C4892 H4879 0.960 . S
C4892 C4891 1.524 . S
C4893 C4890 1.403 . S
C4893 C4894 1.392 . S
C4893 C4897 1.495 . S
C4894 C4893 1.392 . S
C4894 C4895 1.385 . S
C4894 C4896 1.478 . S
C4895 H4889 0.930 . S
C4895 C4891 1.400 . S
C4895 C4894 1.385 . S
C4896 C4894 1.478 . S
C4896 C4898 1.381 . S
C4896 C4902 1.383 . S
C4897 C4893 1.495 . S
C4897 H4903 0.959 . S
C4897 H4904 0.961 . S
C4897 H4905 0.960 . S
C4898 C4896 1.381 . S
C4898 C4899 1.394 . S
C4898 H4906 0.930 . S
C4899 C4898 1.394 . S
C4899 C4900 1.383 . S
C4899 H4907 0.929 . S
C4900 C4899 1.383 . S
C4900 C4901 1.377 . S
C4901 H4885 0.930 . S
C4901 C4900 1.377 . S
C4901 C4902 1.379 . S
C4902 H4886 0.931 . S
C4902 C4896 1.383 . S
C4902 C4901 1.379 . S
H4903 C4897 0.959 . S
H4904 C4897 0.961 . S
H4905 C4897 0.960 . S
H4906 C4898 0.930 . S
H4907 C4899 0.929 . S
H4908 C4916 0.929 . S
H4909 C4918 0.930 . S
H4910 C4920 0.930 . S
H4911 C4923 0.929 . S
H4912 C4926 0.930 . S
H4913 C4928 0.960 . S
H4914 C4928 0.960 . S
H4915 C4928 0.960 . S
C4916 H4908 0.929 . S
C4916 C4917 1.377 . S
C4916 C4918 1.384 . S
C4917 C4916 1.377 . S
C4917 C4923 1.390 . S
C4918 H4909 0.930 . S
C4918 C4916 1.384 . S
C4918 C4919 1.372 . S
C4919 C4918 1.372 . S
C4919 C4920 1.400 . S
C4919 C4924 1.490 . S
C4920 H4910 0.930 . S
C4920 C4919 1.400 . S
C4920 C4923 1.386 . S
H4921 C4937 0.930 . S
H4922 C4938 0.931 . S
C4923 H4911 0.929 . S
C4923 C4917 1.390 . S
C4923 C4920 1.386 . S
C4924 C4919 1.490 . S
C4924 C4926 1.395 . S
C4924 C4927 1.403 . S
H4925 C4931 0.930 . S
C4926 H4912 0.930 . S
C4926 C4924 1.395 . S
C4926 C4929 1.403 . S
C4927 C4924 1.403 . S
C4927 C4928 1.524 . S
C4927 C4931 1.400 . S
C4928 H4913 0.960 . S
C4928 H4914 0.960 . S
C4928 H4915 0.960 . S
C4928 C4927 1.524 . S
C4929 C4926 1.403 . S
C4929 C4930 1.392 . S
C4929 C4933 1.495 . S
C4930 C4929 1.392 . S
C4930 C4931 1.385 . S
C4930 C4932 1.478 . S
C4931 H4925 0.930 . S
C4931 C4927 1.400 . S
C4931 C4930 1.385 . S
C4932 C4930 1.478 . S
C4932 C4934 1.381 . S
C4932 C4938 1.383 . S
C4933 C4929 1.495 . S
C4933 H4939 0.959 . S
C4933 H4940 0.961 . S
C4933 H4941 0.960 . S
C4934 C4932 1.381 . S
C4934 C4935 1.394 . S
C4934 H4942 0.930 . S
C4935 C4934 1.394 . S
C4935 C4936 1.383 . S
C4935 H4943 0.929 . S
C4936 C4935 1.383 . S
C4936 C4937 1.377 . S
C4937 H4921 0.930 . S
C4937 C4936 1.377 . S
C4937 C4938 1.379 . S
C4938 H4922 0.931 . S
C4938 C4932 1.383 . S
C4938 C4937 1.379 . S
H4939 C4933 0.959 . S
H4940 C4933 0.961 . S
H4941 C4933 0.960 . S
H4942 C4934 0.930 . S
H4943 C4935 0.929 . S
H4944 C4952 0.929 . S
H4945 C4954 0.930 . S
H4946 C4956 0.930 . S
H4947 C4959 0.929 . S
H4948 C4962 0.930 . S
H4949 C4964 0.960 . S
H4950 C4964 0.960 . S
H4951 C4964 0.960 . S
C4952 H4944 0.929 . S
C4952 C4953 1.377 . S
C4952 C4954 1.384 . S
C4953 C4952 1.377 . S
C4953 C4959 1.390 . S
C4954 H4945 0.930 . S
C4954 C4952 1.384 . S
C4954 C4955 1.372 . S
C4955 C4954 1.372 . S
C4955 C4956 1.400 . S
C4955 C4960 1.490 . S
C4956 H4946 0.930 . S
C4956 C4955 1.400 . S
C4956 C4959 1.386 . S
H4957 C4973 0.930 . S
H4958 C4974 0.931 . S
C4959 H4947 0.929 . S
C4959 C4953 1.390 . S
C4959 C4956 1.386 . S
C4960 C4955 1.490 . S
C4960 C4962 1.395 . S
C4960 C4963 1.403 . S
H4961 C4967 0.930 . S
C4962 H4948 0.930 . S
C4962 C4960 1.395 . S
C4962 C4965 1.403 . S
C4963 C4960 1.403 . S
C4963 C4964 1.524 . S
C4963 C4967 1.400 . S
C4964 H4949 0.960 . S
C4964 H4950 0.960 . S
C4964 H4951 0.960 . S
C4964 C4963 1.524 . S
C4965 C4962 1.403 . S
C4965 C4966 1.392 . S
C4965 C4969 1.495 . S
C4966 C4965 1.392 . S
C4966 C4967 1.385 . S
C4966 C4968 1.478 . S
C4967 H4961 0.930 . S
C4967 C4963 1.400 . S
C4967 C4966 1.385 . S
C4968 C4966 1.478 . S
C4968 C4970 1.381 . S
C4968 C4974 1.383 . S
C4969 C4965 1.495 . S
C4969 H4975 0.959 . S
C4969 H4976 0.961 . S
C4969 H4977 0.960 . S
C4970 C4968 1.381 . S
C4970 C4971 1.394 . S
C4970 H4978 0.930 . S
C4971 C4970 1.394 . S
C4971 C4972 1.383 . S
C4971 H4979 0.929 . S
C4972 C4971 1.383 . S
C4972 C4973 1.377 . S
C4973 H4957 0.930 . S
C4973 C4972 1.377 . S
C4973 C4974 1.379 . S
C4974 H4958 0.931 . S
C4974 C4968 1.383 . S
C4974 C4973 1.379 . S
H4975 C4969 0.959 . S
H4976 C4969 0.961 . S
H4977 C4969 0.960 . S
H4978 C4970 0.930 . S
H4979 C4971 0.929 . S
H4980 C4988 0.929 . S
H4981 C4990 0.930 . S
H4982 C4992 0.930 . S
H4983 C4995 0.929 . S
H4984 C4998 0.930 . S
H4985 C5000 0.960 . S
H4986 C5000 0.960 . S
H4987 C5000 0.960 . S
C4988 H4980 0.929 . S
C4988 C4989 1.377 . S
C4988 C4990 1.384 . S
C4989 C4988 1.377 . S
C4989 C4995 1.390 . S
C4990 H4981 0.930 . S
C4990 C4988 1.384 . S
C4990 C4991 1.372 . S
C4991 C4990 1.372 . S
C4991 C4992 1.400 . S
C4991 C4996 1.490 . S
C4992 H4982 0.930 . S
C4992 C4991 1.400 . S
C4992 C4995 1.386 . S
H4993 C5009 0.930 . S
H4994 C5010 0.931 . S
C4995 H4983 0.929 . S
C4995 C4989 1.390 . S
C4995 C4992 1.386 . S
C4996 C4991 1.490 . S
C4996 C4998 1.395 . S
C4996 C4999 1.403 . S
H4997 C5003 0.930 . S
C4998 H4984 0.930 . S
C4998 C4996 1.395 . S
C4998 C5001 1.403 . S
C4999 C4996 1.403 . S
C4999 C5000 1.524 . S
C4999 C5003 1.400 . S
C5000 H4985 0.960 . S
C5000 H4986 0.960 . S
C5000 H4987 0.960 . S
C5000 C4999 1.524 . S
C5001 C4998 1.403 . S
C5001 C5002 1.392 . S
C5001 C5005 1.495 . S
C5002 C5001 1.392 . S
C5002 C5003 1.385 . S
C5002 C5004 1.478 . S
C5003 H4997 0.930 . S
C5003 C4999 1.400 . S
C5003 C5002 1.385 . S
C5004 C5002 1.478 . S
C5004 C5006 1.381 . S
C5004 C5010 1.383 . S
C5005 C5001 1.495 . S
C5005 H5011 0.959 . S
C5005 H5012 0.961 . S
C5005 H5013 0.960 . S
C5006 C5004 1.381 . S
C5006 C5007 1.394 . S
C5006 H5014 0.930 . S
C5007 C5006 1.394 . S
C5007 C5008 1.383 . S
C5007 H5015 0.929 . S
C5008 C5007 1.383 . S
C5008 C5009 1.377 . S
C5009 H4993 0.930 . S
C5009 C5008 1.377 . S
C5009 C5010 1.379 . S
C5010 H4994 0.931 . S
C5010 C5004 1.383 . S
C5010 C5009 1.379 . S
H5011 C5005 0.959 . S
H5012 C5005 0.961 . S
H5013 C5005 0.960 . S
H5014 C5006 0.930 . S
H5015 C5007 0.929 . S
H5016 C5024 0.929 . S
H5017 C5026 0.930 . S
H5018 C5028 0.930 . S
H5019 C5031 0.929 . S
H5020 C5034 0.930 . S
H5021 C5036 0.960 . S
H5022 C5036 0.960 . S
H5023 C5036 0.960 . S
C5024 H5016 0.929 . S
C5024 C5025 1.377 . S
C5024 C5026 1.384 . S
C5025 C5024 1.377 . S
C5025 C5031 1.390 . S
C5026 H5017 0.930 . S
C5026 C5024 1.384 . S
C5026 C5027 1.372 . S
C5027 C5026 1.372 . S
C5027 C5028 1.400 . S
C5027 C5032 1.490 . S
C5028 H5018 0.930 . S
C5028 C5027 1.400 . S
C5028 C5031 1.386 . S
H5029 C5045 0.930 . S
H5030 C5046 0.931 . S
C5031 H5019 0.929 . S
C5031 C5025 1.390 . S
C5031 C5028 1.386 . S
C5032 C5027 1.490 . S
C5032 C5034 1.395 . S
C5032 C5035 1.403 . S
H5033 C5039 0.930 . S
C5034 H5020 0.930 . S
C5034 C5032 1.395 . S
C5034 C5037 1.403 . S
C5035 C5032 1.403 . S
C5035 C5036 1.524 . S
C5035 C5039 1.400 . S
C5036 H5021 0.960 . S
C5036 H5022 0.960 . S
C5036 H5023 0.960 . S
C5036 C5035 1.524 . S
C5037 C5034 1.403 . S
C5037 C5038 1.392 . S
C5037 C5041 1.495 . S
C5038 C5037 1.392 . S
C5038 C5039 1.385 . S
C5038 C5040 1.478 . S
C5039 H5033 0.930 . S
C5039 C5035 1.400 . S
C5039 C5038 1.385 . S
C5040 C5038 1.478 . S
C5040 C5042 1.381 . S
C5040 C5046 1.383 . S
C5041 C5037 1.495 . S
C5041 H5047 0.959 . S
C5041 H5048 0.961 . S
C5041 H5049 0.960 . S
C5042 C5040 1.381 . S
C5042 C5043 1.394 . S
C5042 H5050 0.930 . S
C5043 C5042 1.394 . S
C5043 C5044 1.383 . S
C5043 H5051 0.929 . S
C5044 C5043 1.383 . S
C5044 C5045 1.377 . S
C5045 H5029 0.930 . S
C5045 C5044 1.377 . S
C5045 C5046 1.379 . S
C5046 H5030 0.931 . S
C5046 C5040 1.383 . S
C5046 C5045 1.379 . S
H5047 C5041 0.959 . S
H5048 C5041 0.961 . S
H5049 C5041 0.960 . S
H5050 C5042 0.930 . S
H5051 C5043 0.929 . S
H5052 C5060 0.929 . S
H5053 C5062 0.930 . S
H5054 C5064 0.930 . S
H5055 C5067 0.929 . S
H5056 C5070 0.930 . S
H5057 C5072 0.960 . S
H5058 C5072 0.960 . S
H5059 C5072 0.960 . S
C5060 H5052 0.929 . S
C5060 C5061 1.377 . S
C5060 C5062 1.384 . S
C5061 C5060 1.377 . S
C5061 C5067 1.390 . S
C5062 H5053 0.930 . S
C5062 C5060 1.384 . S
C5062 C5063 1.372 . S
C5063 C5062 1.372 . S
C5063 C5064 1.400 . S
C5063 C5068 1.490 . S
C5064 H5054 0.930 . S
C5064 C5063 1.400 . S
C5064 C5067 1.386 . S
H5065 C5081 0.930 . S
H5066 C5082 0.931 . S
C5067 H5055 0.929 . S
C5067 C5061 1.390 . S
C5067 C5064 1.386 . S
C5068 C5063 1.490 . S
C5068 C5070 1.395 . S
C5068 C5071 1.403 . S
H5069 C5075 0.930 . S
C5070 H5056 0.930 . S
C5070 C5068 1.395 . S
C5070 C5073 1.403 . S
C5071 C5068 1.403 . S
C5071 C5072 1.524 . S
C5071 C5075 1.400 . S
C5072 H5057 0.960 . S
C5072 H5058 0.960 . S
C5072 H5059 0.960 . S
C5072 C5071 1.524 . S
C5073 C5070 1.403 . S
C5073 C5074 1.392 . S
C5073 C5077 1.495 . S
C5074 C5073 1.392 . S
C5074 C5075 1.385 . S
C5074 C5076 1.478 . S
C5075 H5069 0.930 . S
C5075 C5071 1.400 . S
C5075 C5074 1.385 . S
C5076 C5074 1.478 . S
C5076 C5078 1.381 . S
C5076 C5082 1.383 . S
C5077 C5073 1.495 . S
C5077 H5083 0.959 . S
C5077 H5084 0.961 . S
C5077 H5085 0.960 . S
C5078 C5076 1.381 . S
C5078 C5079 1.394 . S
C5078 H5086 0.930 . S
C5079 C5078 1.394 . S
C5079 C5080 1.383 . S
C5079 H5087 0.929 . S
C5080 C5079 1.383 . S
C5080 C5081 1.377 . S
C5081 H5065 0.930 . S
C5081 C5080 1.377 . S
C5081 C5082 1.379 . S
C5082 H5066 0.931 . S
C5082 C5076 1.383 . S
C5082 C5081 1.379 . S
H5083 C5077 0.959 . S
H5084 C5077 0.961 . S
H5085 C5077 0.960 . S
H5086 C5078 0.930 . S
H5087 C5079 0.929 . S
H5088 C5096 0.929 . S
H5089 C5098 0.930 . S
H5090 C5100 0.930 . S
H5091 C5103 0.929 . S
H5092 C5106 0.930 . S
H5093 C5108 0.960 . S
H5094 C5108 0.960 . S
H5095 C5108 0.960 . S
C5096 H5088 0.929 . S
C5096 C5097 1.377 . S
C5096 C5098 1.384 . S
C5097 C5096 1.377 . S
C5097 C5103 1.390 . S
C5098 H5089 0.930 . S
C5098 C5096 1.384 . S
C5098 C5099 1.372 . S
C5099 C5098 1.372 . S
C5099 C5100 1.400 . S
C5099 C5104 1.490 . S
C5100 H5090 0.930 . S
C5100 C5099 1.400 . S
C5100 C5103 1.386 . S
H5101 C5117 0.930 . S
H5102 C5118 0.931 . S
C5103 H5091 0.929 . S
C5103 C5097 1.390 . S
C5103 C5100 1.386 . S
C5104 C5099 1.490 . S
C5104 C5106 1.395 . S
C5104 C5107 1.403 . S
H5105 C5111 0.930 . S
C5106 H5092 0.930 . S
C5106 C5104 1.395 . S
C5106 C5109 1.403 . S
C5107 C5104 1.403 . S
C5107 C5108 1.524 . S
C5107 C5111 1.400 . S
C5108 H5093 0.960 . S
C5108 H5094 0.960 . S
C5108 H5095 0.960 . S
C5108 C5107 1.524 . S
C5109 C5106 1.403 . S
C5109 C5110 1.392 . S
C5109 C5113 1.495 . S
C5110 C5109 1.392 . S
C5110 C5111 1.385 . S
C5110 C5112 1.478 . S
C5111 H5105 0.930 . S
C5111 C5107 1.400 . S
C5111 C5110 1.385 . S
C5112 C5110 1.478 . S
C5112 C5114 1.381 . S
C5112 C5118 1.383 . S
C5113 C5109 1.495 . S
C5113 H5119 0.959 . S
C5113 H5120 0.961 . S
C5113 H5121 0.960 . S
C5114 C5112 1.381 . S
C5114 C5115 1.394 . S
C5114 H5122 0.930 . S
C5115 C5114 1.394 . S
C5115 C5116 1.383 . S
C5115 H5123 0.929 . S
C5116 C5115 1.383 . S
C5116 C5117 1.377 . S
C5117 H5101 0.930 . S
C5117 C5116 1.377 . S
C5117 C5118 1.379 . S
C5118 H5102 0.931 . S
C5118 C5112 1.383 . S
C5118 C5117 1.379 . S
H5119 C5113 0.959 . S
H5120 C5113 0.961 . S
H5121 C5113 0.960 . S
H5122 C5114 0.930 . S
H5123 C5115 0.929 . S
H5124 C5132 0.929 . S
H5125 C5134 0.930 . S
H5126 C5136 0.930 . S
H5127 C5139 0.929 . S
H5128 C5142 0.930 . S
H5129 C5144 0.960 . S
H5130 C5144 0.960 . S
H5131 C5144 0.960 . S
C5132 H5124 0.929 . S
C5132 C5133 1.377 . S
C5132 C5134 1.384 . S
C5133 C5132 1.377 . S
C5133 C5139 1.390 . S
C5134 H5125 0.930 . S
C5134 C5132 1.384 . S
C5134 C5135 1.372 . S
C5135 C5134 1.372 . S
C5135 C5136 1.400 . S
C5135 C5140 1.490 . S
C5136 H5126 0.930 . S
C5136 C5135 1.400 . S
C5136 C5139 1.386 . S
H5137 C5153 0.930 . S
H5138 C5154 0.931 . S
C5139 H5127 0.929 . S
C5139 C5133 1.390 . S
C5139 C5136 1.386 . S
C5140 C5135 1.490 . S
C5140 C5142 1.395 . S
C5140 C5143 1.403 . S
H5141 C5147 0.930 . S
C5142 H5128 0.930 . S
C5142 C5140 1.395 . S
C5142 C5145 1.403 . S
C5143 C5140 1.403 . S
C5143 C5144 1.524 . S
C5143 C5147 1.400 . S
C5144 H5129 0.960 . S
C5144 H5130 0.960 . S
C5144 H5131 0.960 . S
C5144 C5143 1.524 . S
C5145 C5142 1.403 . S
C5145 C5146 1.392 . S
C5145 C5149 1.495 . S
C5146 C5145 1.392 . S
C5146 C5147 1.385 . S
C5146 C5148 1.478 . S
C5147 H5141 0.930 . S
C5147 C5143 1.400 . S
C5147 C5146 1.385 . S
C5148 C5146 1.478 . S
C5148 C5150 1.381 . S
C5148 C5154 1.383 . S
C5149 C5145 1.495 . S
C5149 H5155 0.959 . S
C5149 H5156 0.961 . S
C5149 H5157 0.960 . S
C5150 C5148 1.381 . S
C5150 C5151 1.394 . S
C5150 H5158 0.930 . S
C5151 C5150 1.394 . S
C5151 C5152 1.383 . S
C5151 H5159 0.929 . S
C5152 C5151 1.383 . S
C5152 C5153 1.377 . S
C5153 H5137 0.930 . S
C5153 C5152 1.377 . S
C5153 C5154 1.379 . S
C5154 H5138 0.931 . S
C5154 C5148 1.383 . S
C5154 C5153 1.379 . S
H5155 C5149 0.959 . S
H5156 C5149 0.961 . S
H5157 C5149 0.960 . S
H5158 C5150 0.930 . S
H5159 C5151 0.929 . S
H5160 C5168 0.929 . S
H5161 C5170 0.930 . S
H5162 C5172 0.930 . S
H5163 C5175 0.929 . S
H5164 C5178 0.930 . S
H5165 C5180 0.960 . S
H5166 C5180 0.960 . S
H5167 C5180 0.960 . S
C5168 H5160 0.929 . S
C5168 C5169 1.377 . S
C5168 C5170 1.384 . S
C5169 C5168 1.377 . S
C5169 C5175 1.390 . S
C5170 H5161 0.930 . S
C5170 C5168 1.384 . S
C5170 C5171 1.372 . S
C5171 C5170 1.372 . S
C5171 C5172 1.400 . S
C5171 C5176 1.490 . S
C5172 H5162 0.930 . S
C5172 C5171 1.400 . S
C5172 C5175 1.386 . S
H5173 C5189 0.930 . S
H5174 C5190 0.931 . S
C5175 H5163 0.929 . S
C5175 C5169 1.390 . S
C5175 C5172 1.386 . S
C5176 C5171 1.490 . S
C5176 C5178 1.395 . S
C5176 C5179 1.403 . S
H5177 C5183 0.930 . S
C5178 H5164 0.930 . S
C5178 C5176 1.395 . S
C5178 C5181 1.403 . S
C5179 C5176 1.403 . S
C5179 C5180 1.524 . S
C5179 C5183 1.400 . S
C5180 H5165 0.960 . S
C5180 H5166 0.960 . S
C5180 H5167 0.960 . S
C5180 C5179 1.524 . S
C5181 C5178 1.403 . S
C5181 C5182 1.392 . S
C5181 C5185 1.495 . S
C5182 C5181 1.392 . S
C5182 C5183 1.385 . S
C5182 C5184 1.478 . S
C5183 H5177 0.930 . S
C5183 C5179 1.400 . S
C5183 C5182 1.385 . S
C5184 C5182 1.478 . S
C5184 C5186 1.381 . S
C5184 C5190 1.383 . S
C5185 C5181 1.495 . S
C5185 H5191 0.959 . S
C5185 H5192 0.961 . S
C5185 H5193 0.960 . S
C5186 C5184 1.381 . S
C5186 C5187 1.394 . S
C5186 H5194 0.930 . S
C5187 C5186 1.394 . S
C5187 C5188 1.383 . S
C5187 H5195 0.929 . S
C5188 C5187 1.383 . S
C5188 C5189 1.377 . S
C5189 H5173 0.930 . S
C5189 C5188 1.377 . S
C5189 C5190 1.379 . S
C5190 H5174 0.931 . S
C5190 C5184 1.383 . S
C5190 C5189 1.379 . S
H5191 C5185 0.959 . S
H5192 C5185 0.961 . S
H5193 C5185 0.960 . S
H5194 C5186 0.930 . S
H5195 C5187 0.929 . S
H5196 C5204 0.929 . S
H5197 C5206 0.930 . S
H5198 C5208 0.930 . S
H5199 C5211 0.929 . S
H5200 C5214 0.930 . S
H5201 C5216 0.960 . S
H5202 C5216 0.960 . S
H5203 C5216 0.960 . S
C5204 H5196 0.929 . S
C5204 C5205 1.377 . S
C5204 C5206 1.384 . S
C5205 C5204 1.377 . S
C5205 C5211 1.390 . S
C5206 H5197 0.930 . S
C5206 C5204 1.384 . S
C5206 C5207 1.372 . S
C5207 C5206 1.372 . S
C5207 C5208 1.400 . S
C5207 C5212 1.490 . S
C5208 H5198 0.930 . S
C5208 C5207 1.400 . S
C5208 C5211 1.386 . S
H5209 C5225 0.930 . S
H5210 C5226 0.931 . S
C5211 H5199 0.929 . S
C5211 C5205 1.390 . S
C5211 C5208 1.386 . S
C5212 C5207 1.490 . S
C5212 C5214 1.395 . S
C5212 C5215 1.403 . S
H5213 C5219 0.930 . S
C5214 H5200 0.930 . S
C5214 C5212 1.395 . S
C5214 C5217 1.403 . S
C5215 C5212 1.403 . S
C5215 C5216 1.524 . S
C5215 C5219 1.400 . S
C5216 H5201 0.960 . S
C5216 H5202 0.960 . S
C5216 H5203 0.960 . S
C5216 C5215 1.524 . S
C5217 C5214 1.403 . S
C5217 C5218 1.392 . S
C5217 C5221 1.495 . S
C5218 C5217 1.392 . S
C5218 C5219 1.385 . S
C5218 C5220 1.478 . S
C5219 H5213 0.930 . S
C5219 C5215 1.400 . S
C5219 C5218 1.385 . S
C5220 C5218 1.478 . S
C5220 C5222 1.381 . S
C5220 C5226 1.383 . S
C5221 C5217 1.495 . S
C5221 H5227 0.959 . S
C5221 H5228 0.961 . S
C5221 H5229 0.960 . S
C5222 C5220 1.381 . S
C5222 C5223 1.394 . S
C5222 H5230 0.930 . S
C5223 C5222 1.394 . S
C5223 C5224 1.383 . S
C5223 H5231 0.929 . S
C5224 C5223 1.383 . S
C5224 C5225 1.377 . S
C5225 H5209 0.930 . S
C5225 C5224 1.377 . S
C5225 C5226 1.379 . S
C5226 H5210 0.931 . S
C5226 C5220 1.383 . S
C5226 C5225 1.379 . S
H5227 C5221 0.959 . S
H5228 C5221 0.961 . S
H5229 C5221 0.960 . S
H5230 C5222 0.930 . S
H5231 C5223 0.929 . S
H5232 C5240 0.929 . S
H5233 C5242 0.930 . S
H5234 C5244 0.930 . S
H5235 C5247 0.929 . S
H5236 C5250 0.930 . S
H5237 C5252 0.960 . S
H5238 C5252 0.960 . S
H5239 C5252 0.960 . S
C5240 H5232 0.929 . S
C5240 C5241 1.377 . S
C5240 C5242 1.384 . S
C5241 C5240 1.377 . S
C5241 C5247 1.390 . S
C5242 H5233 0.930 . S
C5242 C5240 1.384 . S
C5242 C5243 1.372 . S
C5243 C5242 1.372 . S
C5243 C5244 1.400 . S
C5243 C5248 1.490 . S
C5244 H5234 0.930 . S
C5244 C5243 1.400 . S
C5244 C5247 1.386 . S
H5245 C5261 0.930 . S
H5246 C5262 0.931 . S
C5247 H5235 0.929 . S
C5247 C5241 1.390 . S
C5247 C5244 1.386 . S
C5248 C5243 1.490 . S
C5248 C5250 1.395 . S
C5248 C5251 1.403 . S
H5249 C5255 0.930 . S
C5250 H5236 0.930 . S
C5250 C5248 1.395 . S
C5250 C5253 1.403 . S
C5251 C5248 1.403 . S
C5251 C5252 1.524 . S
C5251 C5255 1.400 . S
C5252 H5237 0.960 . S
C5252 H5238 0.960 . S
C5252 H5239 0.960 . S
C5252 C5251 1.524 . S
C5253 C5250 1.403 . S
C5253 C5254 1.392 . S
C5253 C5257 1.495 . S
C5254 C5253 1.392 . S
C5254 C5255 1.385 . S
C5254 C5256 1.478 . S
C5255 H5249 0.930 . S
C5255 C5251 1.400 . S
C5255 C5254 1.385 . S
C5256 C5254 1.478 . S
C5256 C5258 1.381 . S
C5256 C5262 1.383 . S
C5257 C5253 1.495 . S
C5257 H5263 0.959 . S
C5257 H5264 0.961 . S
C5257 H5265 0.960 . S
C5258 C5256 1.381 . S
C5258 C5259 1.394 . S
C5258 H5266 0.930 . S
C5259 C5258 1.394 . S
C5259 C5260 1.383 . S
C5259 H5267 0.929 . S
C5260 C5259 1.383 . S
C5260 C5261 1.377 . S
C5261 H5245 0.930 . S
C5261 C5260 1.377 . S
C5261 C5262 1.379 . S
C5262 H5246 0.931 . S
C5262 C5256 1.383 . S
C5262 C5261 1.379 . S
H5263 C5257 0.959 . S
H5264 C5257 0.961 . S
H5265 C5257 0.960 . S
H5266 C5258 0.930 . S
H5267 C5259 0.929 . S
H5268 C5276 0.929 . S
H5269 C5278 0.930 . S
H5270 C5280 0.930 . S
H5271 C5283 0.929 . S
H5272 C5286 0.930 . S
H5273 C5288 0.960 . S
H5274 C5288 0.960 . S
H5275 C5288 0.960 . S
C5276 H5268 0.929 . S
C5276 C5277 1.377 . S
C5276 C5278 1.384 . S
C5277 C5276 1.377 . S
C5277 C5283 1.390 . S
C5278 H5269 0.930 . S
C5278 C5276 1.384 . S
C5278 C5279 1.372 . S
C5279 C5278 1.372 . S
C5279 C5280 1.400 . S
C5279 C5284 1.490 . S
C5280 H5270 0.930 . S
C5280 C5279 1.400 . S
C5280 C5283 1.386 . S
H5281 C5297 0.930 . S
H5282 C5298 0.931 . S
C5283 H5271 0.929 . S
C5283 C5277 1.390 . S
C5283 C5280 1.386 . S
C5284 C5279 1.490 . S
C5284 C5286 1.395 . S
C5284 C5287 1.403 . S
H5285 C5291 0.930 . S
C5286 H5272 0.930 . S
C5286 C5284 1.395 . S
C5286 C5289 1.403 . S
C5287 C5284 1.403 . S
C5287 C5288 1.524 . S
C5287 C5291 1.400 . S
C5288 H5273 0.960 . S
C5288 H5274 0.960 . S
C5288 H5275 0.960 . S
C5288 C5287 1.524 . S
C5289 C5286 1.403 . S
C5289 C5290 1.392 . S
C5289 C5293 1.495 . S
C5290 C5289 1.392 . S
C5290 C5291 1.385 . S
C5290 C5292 1.478 . S
C5291 H5285 0.930 . S
C5291 C5287 1.400 . S
C5291 C5290 1.385 . S
C5292 C5290 1.478 . S
C5292 C5294 1.381 . S
C5292 C5298 1.383 . S
C5293 C5289 1.495 . S
C5293 H5299 0.959 . S
C5293 H5300 0.961 . S
C5293 H5301 0.960 . S
C5294 C5292 1.381 . S
C5294 C5295 1.394 . S
C5294 H5302 0.930 . S
C5295 C5294 1.394 . S
C5295 C5296 1.383 . S
C5295 H5303 0.929 . S
C5296 C5295 1.383 . S
C5296 C5297 1.377 . S
C5297 H5281 0.930 . S
C5297 C5296 1.377 . S
C5297 C5298 1.379 . S
C5298 H5282 0.931 . S
C5298 C5292 1.383 . S
C5298 C5297 1.379 . S
H5299 C5293 0.959 . S
H5300 C5293 0.961 . S
H5301 C5293 0.960 . S
H5302 C5294 0.930 . S
H5303 C5295 0.929 . S
H5304 C5312 0.925 . S
H5305 C5314 0.930 . S
H5306 C5316 0.930 . S
H5307 C5319 0.929 . S
H5308 C5322 0.930 . S
H5309 C5324 0.960 . S
H5310 C5324 0.960 . S
H5311 C5324 0.960 . S
C5312 H5304 0.925 . S
C5312 C5313 1.375 . S
C5312 C5314 1.389 1_556 S
C5313 C5312 1.375 . S
C5313 C5319 1.379 1_556 S
C5314 H5305 0.930 . S
C5314 C5312 1.389 1_554 S
C5314 C5315 1.372 . S
C5315 C5314 1.372 . S
C5315 C5316 1.400 . S
C5315 C5320 1.490 . S
C5316 H5306 0.930 . S
C5316 C5315 1.400 . S
C5316 C5319 1.386 . S
H5317 C5333 0.930 . S
H5318 C5334 0.931 . S
C5319 H5307 0.929 . S
C5319 C5313 1.379 1_554 S
C5319 C5316 1.386 . S
C5320 C5315 1.490 . S
C5320 C5322 1.395 . S
C5320 C5323 1.403 . S
H5321 C5327 0.930 . S
C5322 H5308 0.930 . S
C5322 C5320 1.395 . S
C5322 C5325 1.403 . S
C5323 C5320 1.403 . S
C5323 C5324 1.524 . S
C5323 C5327 1.400 . S
C5324 H5309 0.960 . S
C5324 H5310 0.960 . S
C5324 H5311 0.960 . S
C5324 C5323 1.524 . S
C5325 C5322 1.403 . S
C5325 C5326 1.392 . S
C5325 C5329 1.495 . S
C5326 C5325 1.392 . S
C5326 C5327 1.385 . S
C5326 C5328 1.478 . S
C5327 H5321 0.930 . S
C5327 C5323 1.400 . S
C5327 C5326 1.385 . S
C5328 C5326 1.478 . S
C5328 C5330 1.381 . S
C5328 C5334 1.383 . S
C5329 C5325 1.495 . S
C5329 H5335 0.959 . S
C5329 H5336 0.961 . S
C5329 H5337 0.960 . S
C5330 C5328 1.381 . S
C5330 C5331 1.394 . S
C5330 H5338 0.930 . S
C5331 C5330 1.394 . S
C5331 C5332 1.383 . S
C5331 H5339 0.929 . S
C5332 C5331 1.383 . S
C5332 C5333 1.377 . S
C5333 H5317 0.930 . S
C5333 C5332 1.377 . S
C5333 C5334 1.379 . S
C5334 H5318 0.931 . S
C5334 C5328 1.383 . S
C5334 C5333 1.379 . S
H5335 C5329 0.959 . S
H5336 C5329 0.961 . S
H5337 C5329 0.960 . S
H5338 C5330 0.930 . S
H5339 C5331 0.929 . S
H5340 C5348 0.929 . S
H5341 C5350 0.930 . S
H5342 C5352 0.930 . S
H5343 C5355 0.929 . S
H5344 C5358 0.930 . S
H5345 C5360 0.960 . S
H5346 C5360 0.960 . S
H5347 C5360 0.960 . S
C5348 H5340 0.929 . S
C5348 C5349 1.377 . S
C5348 C5350 1.384 . S
C5349 C5348 1.377 . S
C5349 C5355 1.390 . S
C5350 H5341 0.930 . S
C5350 C5348 1.384 . S
C5350 C5351 1.372 . S
C5351 C5350 1.372 . S
C5351 C5352 1.400 . S
C5351 C5356 1.490 . S
C5352 H5342 0.930 . S
C5352 C5351 1.400 . S
C5352 C5355 1.386 . S
H5353 C5369 0.930 . S
H5354 C5370 0.931 . S
C5355 H5343 0.929 . S
C5355 C5349 1.390 . S
C5355 C5352 1.386 . S
C5356 C5351 1.490 . S
C5356 C5358 1.395 . S
C5356 C5359 1.403 . S
H5357 C5363 0.930 . S
C5358 H5344 0.930 . S
C5358 C5356 1.395 . S
C5358 C5361 1.403 . S
C5359 C5356 1.403 . S
C5359 C5360 1.524 . S
C5359 C5363 1.400 . S
C5360 H5345 0.960 . S
C5360 H5346 0.960 . S
C5360 H5347 0.960 . S
C5360 C5359 1.524 . S
C5361 C5358 1.403 . S
C5361 C5362 1.392 . S
C5361 C5365 1.495 . S
C5362 C5361 1.392 . S
C5362 C5363 1.385 . S
C5362 C5364 1.478 . S
C5363 H5357 0.930 . S
C5363 C5359 1.400 . S
C5363 C5362 1.385 . S
C5364 C5362 1.478 . S
C5364 C5366 1.381 . S
C5364 C5370 1.383 . S
C5365 C5361 1.495 . S
C5365 H5371 0.959 . S
C5365 H5372 0.961 . S
C5365 H5373 0.960 . S
C5366 C5364 1.381 . S
C5366 C5367 1.394 . S
C5366 H5374 0.930 . S
C5367 C5366 1.394 . S
C5367 C5368 1.383 . S
C5367 H5375 0.929 . S
C5368 C5367 1.383 . S
C5368 C5369 1.377 . S
C5369 H5353 0.930 . S
C5369 C5368 1.377 . S
C5369 C5370 1.379 . S
C5370 H5354 0.931 . S
C5370 C5364 1.383 . S
C5370 C5369 1.379 . S
H5371 C5365 0.959 . S
H5372 C5365 0.961 . S
H5373 C5365 0.960 . S
H5374 C5366 0.930 . S
H5375 C5367 0.929 . S
H5376 C5384 0.929 . S
H5377 C5386 0.930 . S
H5378 C5388 0.930 . S
H5379 C5391 0.929 . S
H5380 C5394 0.930 . S
H5381 C5396 0.960 . S
H5382 C5396 0.960 . S
H5383 C5396 0.960 . S
C5384 H5376 0.929 . S
C5384 C5385 1.377 . S
C5384 C5386 1.384 . S
C5385 C5384 1.377 . S
C5385 C5391 1.390 . S
C5386 H5377 0.930 . S
C5386 C5384 1.384 . S
C5386 C5387 1.372 . S
C5387 C5386 1.372 . S
C5387 C5388 1.400 . S
C5387 C5392 1.490 . S
C5388 H5378 0.930 . S
C5388 C5387 1.400 . S
C5388 C5391 1.386 . S
H5389 C5405 0.930 . S
H5390 C5406 0.931 . S
C5391 H5379 0.929 . S
C5391 C5385 1.390 . S
C5391 C5388 1.386 . S
C5392 C5387 1.490 . S
C5392 C5394 1.395 . S
C5392 C5395 1.403 . S
H5393 C5399 0.930 . S
C5394 H5380 0.930 . S
C5394 C5392 1.395 . S
C5394 C5397 1.403 . S
C5395 C5392 1.403 . S
C5395 C5396 1.524 . S
C5395 C5399 1.400 . S
C5396 H5381 0.960 . S
C5396 H5382 0.960 . S
C5396 H5383 0.960 . S
C5396 C5395 1.524 . S
C5397 C5394 1.403 . S
C5397 C5398 1.392 . S
C5397 C5401 1.495 . S
C5398 C5397 1.392 . S
C5398 C5399 1.385 . S
C5398 C5400 1.478 . S
C5399 H5393 0.930 . S
C5399 C5395 1.400 . S
C5399 C5398 1.385 . S
C5400 C5398 1.478 . S
C5400 C5402 1.381 . S
C5400 C5406 1.383 . S
C5401 C5397 1.495 . S
C5401 H5407 0.959 . S
C5401 H5408 0.961 . S
C5401 H5409 0.960 . S
C5402 C5400 1.381 . S
C5402 C5403 1.394 . S
C5402 H5410 0.930 . S
C5403 C5402 1.394 . S
C5403 C5404 1.383 . S
C5403 H5411 0.929 . S
C5404 C5403 1.383 . S
C5404 C5405 1.377 . S
C5405 H5389 0.930 . S
C5405 C5404 1.377 . S
C5405 C5406 1.379 . S
C5406 H5390 0.931 . S
C5406 C5400 1.383 . S
C5406 C5405 1.379 . S
H5407 C5401 0.959 . S
H5408 C5401 0.961 . S
H5409 C5401 0.960 . S
H5410 C5402 0.930 . S
H5411 C5403 0.929 . S
H5412 C5420 0.929 . S
H5413 C5422 0.930 . S
H5414 C5424 0.930 . S
H5415 C5427 0.929 . S
H5416 C5430 0.930 . S
H5417 C5432 0.960 . S
H5418 C5432 0.960 . S
H5419 C5432 0.960 . S
C5420 H5412 0.929 . S
C5420 C5421 1.377 . S
C5420 C5422 1.384 . S
C5421 C5420 1.377 . S
C5421 C5427 1.390 . S
C5422 H5413 0.930 . S
C5422 C5420 1.384 . S
C5422 C5423 1.372 . S
C5423 C5422 1.372 . S
C5423 C5424 1.400 . S
C5423 C5428 1.490 . S
C5424 H5414 0.930 . S
C5424 C5423 1.400 . S
C5424 C5427 1.386 . S
H5425 C5441 0.930 . S
H5426 C5442 0.931 . S
C5427 H5415 0.929 . S
C5427 C5421 1.390 . S
C5427 C5424 1.386 . S
C5428 C5423 1.490 . S
C5428 C5430 1.395 . S
C5428 C5431 1.403 . S
H5429 C5435 0.930 . S
C5430 H5416 0.930 . S
C5430 C5428 1.395 . S
C5430 C5433 1.403 . S
C5431 C5428 1.403 . S
C5431 C5432 1.524 . S
C5431 C5435 1.400 . S
C5432 H5417 0.960 . S
C5432 H5418 0.960 . S
C5432 H5419 0.960 . S
C5432 C5431 1.524 . S
C5433 C5430 1.403 . S
C5433 C5434 1.392 . S
C5433 C5437 1.495 . S
C5434 C5433 1.392 . S
C5434 C5435 1.385 . S
C5434 C5436 1.478 . S
C5435 H5429 0.930 . S
C5435 C5431 1.400 . S
C5435 C5434 1.385 . S
C5436 C5434 1.478 . S
C5436 C5438 1.381 . S
C5436 C5442 1.383 . S
C5437 C5433 1.495 . S
C5437 H5443 0.959 . S
C5437 H5444 0.961 . S
C5437 H5445 0.960 . S
C5438 C5436 1.381 . S
C5438 C5439 1.394 . S
C5438 H5446 0.930 . S
C5439 C5438 1.394 . S
C5439 C5440 1.383 . S
C5439 H5447 0.929 . S
C5440 C5439 1.383 . S
C5440 C5441 1.377 . S
C5441 H5425 0.930 . S
C5441 C5440 1.377 . S
C5441 C5442 1.379 . S
C5442 H5426 0.931 . S
C5442 C5436 1.383 . S
C5442 C5441 1.379 . S
H5443 C5437 0.959 . S
H5444 C5437 0.961 . S
H5445 C5437 0.960 . S
H5446 C5438 0.930 . S
H5447 C5439 0.929 . S
H5448 C5456 0.929 . S
H5449 C5458 0.930 . S
H5450 C5460 0.930 . S
H5451 C5463 0.929 . S
H5452 C5466 0.930 . S
H5453 C5468 0.960 . S
H5454 C5468 0.960 . S
H5455 C5468 0.960 . S
C5456 H5448 0.929 . S
C5456 C5457 1.377 . S
C5456 C5458 1.384 . S
C5457 C5456 1.377 . S
C5457 C5463 1.390 . S
C5458 H5449 0.930 . S
C5458 C5456 1.384 . S
C5458 C5459 1.372 . S
C5459 C5458 1.372 . S
C5459 C5460 1.400 . S
C5459 C5464 1.490 . S
C5460 H5450 0.930 . S
C5460 C5459 1.400 . S
C5460 C5463 1.386 . S
H5461 C5477 0.930 . S
H5462 C5478 0.931 . S
C5463 H5451 0.929 . S
C5463 C5457 1.390 . S
C5463 C5460 1.386 . S
C5464 C5459 1.490 . S
C5464 C5466 1.395 . S
C5464 C5467 1.403 . S
H5465 C5471 0.930 . S
C5466 H5452 0.930 . S
C5466 C5464 1.395 . S
C5466 C5469 1.403 . S
C5467 C5464 1.403 . S
C5467 C5468 1.524 . S
C5467 C5471 1.400 . S
C5468 H5453 0.960 . S
C5468 H5454 0.960 . S
C5468 H5455 0.960 . S
C5468 C5467 1.524 . S
C5469 C5466 1.403 . S
C5469 C5470 1.392 . S
C5469 C5473 1.495 . S
C5470 C5469 1.392 . S
C5470 C5471 1.385 . S
C5470 C5472 1.478 . S
C5471 H5465 0.930 . S
C5471 C5467 1.400 . S
C5471 C5470 1.385 . S
C5472 C5470 1.478 . S
C5472 C5474 1.381 . S
C5472 C5478 1.383 . S
C5473 C5469 1.495 . S
C5473 H5479 0.959 . S
C5473 H5480 0.961 . S
C5473 H5481 0.960 . S
C5474 C5472 1.381 . S
C5474 C5475 1.394 . S
C5474 H5482 0.930 . S
C5475 C5474 1.394 . S
C5475 C5476 1.383 . S
C5475 H5483 0.929 . S
C5476 C5475 1.383 . S
C5476 C5477 1.377 . S
C5477 H5461 0.930 . S
C5477 C5476 1.377 . S
C5477 C5478 1.379 . S
C5478 H5462 0.931 . S
C5478 C5472 1.383 . S
C5478 C5477 1.379 . S
H5479 C5473 0.959 . S
H5480 C5473 0.961 . S
H5481 C5473 0.960 . S
H5482 C5474 0.930 . S
H5483 C5475 0.929 . S
H5484 C5492 0.929 . S
H5485 C5494 0.930 . S
H5486 C5496 0.930 . S
H5487 C5499 0.929 . S
H5488 C5502 0.930 . S
H5489 C5504 0.960 . S
H5490 C5504 0.960 . S
H5491 C5504 0.960 . S
C5492 H5484 0.929 . S
C5492 C5493 1.377 . S
C5492 C5494 1.384 . S
C5493 C5492 1.377 . S
C5493 C5499 1.390 . S
C5494 H5485 0.930 . S
C5494 C5492 1.384 . S
C5494 C5495 1.372 . S
C5495 C5494 1.372 . S
C5495 C5496 1.400 . S
C5495 C5500 1.490 . S
C5496 H5486 0.930 . S
C5496 C5495 1.400 . S
C5496 C5499 1.386 . S
H5497 C5513 0.930 . S
H5498 C5514 0.931 . S
C5499 H5487 0.929 . S
C5499 C5493 1.390 . S
C5499 C5496 1.386 . S
C5500 C5495 1.490 . S
C5500 C5502 1.395 . S
C5500 C5503 1.403 . S
H5501 C5507 0.930 . S
C5502 H5488 0.930 . S
C5502 C5500 1.395 . S
C5502 C5505 1.403 . S
C5503 C5500 1.403 . S
C5503 C5504 1.524 . S
C5503 C5507 1.400 . S
C5504 H5489 0.960 . S
C5504 H5490 0.960 . S
C5504 H5491 0.960 . S
C5504 C5503 1.524 . S
C5505 C5502 1.403 . S
C5505 C5506 1.392 . S
C5505 C5509 1.495 . S
C5506 C5505 1.392 . S
C5506 C5507 1.385 . S
C5506 C5508 1.478 . S
C5507 H5501 0.930 . S
C5507 C5503 1.400 . S
C5507 C5506 1.385 . S
C5508 C5506 1.478 . S
C5508 C5510 1.381 . S
C5508 C5514 1.383 . S
C5509 C5505 1.495 . S
C5509 H5515 0.959 . S
C5509 H5516 0.961 . S
C5509 H5517 0.960 . S
C5510 C5508 1.381 . S
C5510 C5511 1.394 . S
C5510 H5518 0.930 . S
C5511 C5510 1.394 . S
C5511 C5512 1.383 . S
C5511 H5519 0.929 . S
C5512 C5511 1.383 . S
C5512 C5513 1.377 . S
C5513 H5497 0.930 . S
C5513 C5512 1.377 . S
C5513 C5514 1.379 . S
C5514 H5498 0.931 . S
C5514 C5508 1.383 . S
C5514 C5513 1.379 . S
H5515 C5509 0.959 . S
H5516 C5509 0.961 . S
H5517 C5509 0.960 . S
H5518 C5510 0.930 . S
H5519 C5511 0.929 . S
H5520 C5528 0.929 . S
H5521 C5530 0.930 . S
H5522 C5532 0.930 . S
H5523 C5535 0.929 . S
H5524 C5538 0.930 . S
H5525 C5540 0.960 . S
H5526 C5540 0.960 . S
H5527 C5540 0.960 . S
C5528 H5520 0.929 . S
C5528 C5529 1.377 . S
C5528 C5530 1.384 . S
C5529 C5528 1.377 . S
C5529 C5535 1.390 . S
C5530 H5521 0.930 . S
C5530 C5528 1.384 . S
C5530 C5531 1.372 . S
C5531 C5530 1.372 . S
C5531 C5532 1.400 . S
C5531 C5536 1.490 . S
C5532 H5522 0.930 . S
C5532 C5531 1.400 . S
C5532 C5535 1.386 . S
H5533 C5549 0.930 . S
H5534 C5550 0.931 . S
C5535 H5523 0.929 . S
C5535 C5529 1.390 . S
C5535 C5532 1.386 . S
C5536 C5531 1.490 . S
C5536 C5538 1.395 . S
C5536 C5539 1.403 . S
H5537 C5543 0.930 . S
C5538 H5524 0.930 . S
C5538 C5536 1.395 . S
C5538 C5541 1.403 . S
C5539 C5536 1.403 . S
C5539 C5540 1.524 . S
C5539 C5543 1.400 . S
C5540 H5525 0.960 . S
C5540 H5526 0.960 . S
C5540 H5527 0.960 . S
C5540 C5539 1.524 . S
C5541 C5538 1.403 . S
C5541 C5542 1.392 . S
C5541 C5545 1.495 . S
C5542 C5541 1.392 . S
C5542 C5543 1.385 . S
C5542 C5544 1.478 . S
C5543 H5537 0.930 . S
C5543 C5539 1.400 . S
C5543 C5542 1.385 . S
C5544 C5542 1.478 . S
C5544 C5546 1.381 . S
C5544 C5550 1.383 . S
C5545 C5541 1.495 . S
C5545 H5551 0.959 . S
C5545 H5552 0.961 . S
C5545 H5553 0.960 . S
C5546 C5544 1.381 . S
C5546 C5547 1.394 . S
C5546 H5554 0.930 . S
C5547 C5546 1.394 . S
C5547 C5548 1.383 . S
C5547 H5555 0.929 . S
C5548 C5547 1.383 . S
C5548 C5549 1.377 . S
C5549 H5533 0.930 . S
C5549 C5548 1.377 . S
C5549 C5550 1.379 . S
C5550 H5534 0.931 . S
C5550 C5544 1.383 . S
C5550 C5549 1.379 . S
H5551 C5545 0.959 . S
H5552 C5545 0.961 . S
H5553 C5545 0.960 . S
H5554 C5546 0.930 . S
H5555 C5547 0.929 . S
H5556 C5564 0.929 . S
H5557 C5566 0.930 . S
H5558 C5568 0.930 . S
H5559 C5571 0.929 . S
H5560 C5574 0.930 . S
H5561 C5576 0.960 . S
H5562 C5576 0.960 . S
H5563 C5576 0.960 . S
C5564 H5556 0.929 . S
C5564 C5565 1.377 . S
C5564 C5566 1.384 . S
C5565 C5564 1.377 . S
C5565 C5571 1.390 . S
C5566 H5557 0.930 . S
C5566 C5564 1.384 . S
C5566 C5567 1.372 . S
C5567 C5566 1.372 . S
C5567 C5568 1.400 . S
C5567 C5572 1.490 . S
C5568 H5558 0.930 . S
C5568 C5567 1.400 . S
C5568 C5571 1.386 . S
H5569 C5585 0.930 . S
H5570 C5586 0.931 . S
C5571 H5559 0.929 . S
C5571 C5565 1.390 . S
C5571 C5568 1.386 . S
C5572 C5567 1.490 . S
C5572 C5574 1.395 . S
C5572 C5575 1.403 . S
H5573 C5579 0.930 . S
C5574 H5560 0.930 . S
C5574 C5572 1.395 . S
C5574 C5577 1.403 . S
C5575 C5572 1.403 . S
C5575 C5576 1.524 . S
C5575 C5579 1.400 . S
C5576 H5561 0.960 . S
C5576 H5562 0.960 . S
C5576 H5563 0.960 . S
C5576 C5575 1.524 . S
C5577 C5574 1.403 . S
C5577 C5578 1.392 . S
C5577 C5581 1.495 . S
C5578 C5577 1.392 . S
C5578 C5579 1.385 . S
C5578 C5580 1.478 . S
C5579 H5573 0.930 . S
C5579 C5575 1.400 . S
C5579 C5578 1.385 . S
C5580 C5578 1.478 . S
C5580 C5582 1.381 . S
C5580 C5586 1.383 . S
C5581 C5577 1.495 . S
C5581 H5587 0.959 . S
C5581 H5588 0.961 . S
C5581 H5589 0.960 . S
C5582 C5580 1.381 . S
C5582 C5583 1.394 . S
C5582 H5590 0.930 . S
C5583 C5582 1.394 . S
C5583 C5584 1.383 . S
C5583 H5591 0.929 . S
C5584 C5583 1.383 . S
C5584 C5585 1.377 . S
C5585 H5569 0.930 . S
C5585 C5584 1.377 . S
C5585 C5586 1.379 . S
C5586 H5570 0.931 . S
C5586 C5580 1.383 . S
C5586 C5585 1.379 . S
H5587 C5581 0.959 . S
H5588 C5581 0.961 . S
H5589 C5581 0.960 . S
H5590 C5582 0.930 . S
H5591 C5583 0.929 . S
H5592 C5600 0.929 . S
H5593 C5602 0.930 . S
H5594 C5604 0.930 . S
H5595 C5607 0.929 . S
H5596 C5610 0.930 . S
H5597 C5612 0.960 . S
H5598 C5612 0.960 . S
H5599 C5612 0.960 . S
C5600 H5592 0.929 . S
C5600 C5601 1.377 . S
C5600 C5602 1.384 . S
C5601 C5600 1.377 . S
C5601 C5607 1.390 . S
C5602 H5593 0.930 . S
C5602 C5600 1.384 . S
C5602 C5603 1.372 . S
C5603 C5602 1.372 . S
C5603 C5604 1.400 . S
C5603 C5608 1.490 . S
C5604 H5594 0.930 . S
C5604 C5603 1.400 . S
C5604 C5607 1.386 . S
H5605 C5621 0.930 . S
H5606 C5622 0.931 . S
C5607 H5595 0.929 . S
C5607 C5601 1.390 . S
C5607 C5604 1.386 . S
C5608 C5603 1.490 . S
C5608 C5610 1.395 . S
C5608 C5611 1.403 . S
H5609 C5615 0.930 . S
C5610 H5596 0.930 . S
C5610 C5608 1.395 . S
C5610 C5613 1.403 . S
C5611 C5608 1.403 . S
C5611 C5612 1.524 . S
C5611 C5615 1.400 . S
C5612 H5597 0.960 . S
C5612 H5598 0.960 . S
C5612 H5599 0.960 . S
C5612 C5611 1.524 . S
C5613 C5610 1.403 . S
C5613 C5614 1.392 . S
C5613 C5617 1.495 . S
C5614 C5613 1.392 . S
C5614 C5615 1.385 . S
C5614 C5616 1.478 . S
C5615 H5609 0.930 . S
C5615 C5611 1.400 . S
C5615 C5614 1.385 . S
C5616 C5614 1.478 . S
C5616 C5618 1.381 . S
C5616 C5622 1.383 . S
C5617 C5613 1.495 . S
C5617 H5623 0.959 . S
C5617 H5624 0.961 . S
C5617 H5625 0.960 . S
C5618 C5616 1.381 . S
C5618 C5619 1.394 . S
C5618 H5626 0.930 . S
C5619 C5618 1.394 . S
C5619 C5620 1.383 . S
C5619 H5627 0.929 . S
C5620 C5619 1.383 . S
C5620 C5621 1.377 . S
C5621 H5605 0.930 . S
C5621 C5620 1.377 . S
C5621 C5622 1.379 . S
C5622 H5606 0.931 . S
C5622 C5616 1.383 . S
C5622 C5621 1.379 . S
H5623 C5617 0.959 . S
H5624 C5617 0.961 . S
H5625 C5617 0.960 . S
H5626 C5618 0.930 . S
H5627 C5619 0.929 . S
H5628 C5636 0.929 . S
H5629 C5638 0.930 . S
H5630 C5640 0.930 . S
H5631 C5643 0.929 . S
H5632 C5646 0.930 . S
H5633 C5648 0.960 . S
H5634 C5648 0.960 . S
H5635 C5648 0.960 . S
C5636 H5628 0.929 . S
C5636 C5637 1.377 . S
C5636 C5638 1.384 . S
C5637 C5636 1.377 . S
C5637 C5643 1.390 . S
C5638 H5629 0.930 . S
C5638 C5636 1.384 . S
C5638 C5639 1.372 . S
C5639 C5638 1.372 . S
C5639 C5640 1.400 . S
C5639 C5644 1.490 . S
C5640 H5630 0.930 . S
C5640 C5639 1.400 . S
C5640 C5643 1.386 . S
H5641 C5657 0.930 . S
H5642 C5658 0.931 . S
C5643 H5631 0.929 . S
C5643 C5637 1.390 . S
C5643 C5640 1.386 . S
C5644 C5639 1.490 . S
C5644 C5646 1.395 . S
C5644 C5647 1.403 . S
H5645 C5651 0.930 . S
C5646 H5632 0.930 . S
C5646 C5644 1.395 . S
C5646 C5649 1.403 . S
C5647 C5644 1.403 . S
C5647 C5648 1.524 . S
C5647 C5651 1.400 . S
C5648 H5633 0.960 . S
C5648 H5634 0.960 . S
C5648 H5635 0.960 . S
C5648 C5647 1.524 . S
C5649 C5646 1.403 . S
C5649 C5650 1.392 . S
C5649 C5653 1.495 . S
C5650 C5649 1.392 . S
C5650 C5651 1.385 . S
C5650 C5652 1.478 . S
C5651 H5645 0.930 . S
C5651 C5647 1.400 . S
C5651 C5650 1.385 . S
C5652 C5650 1.478 . S
C5652 C5654 1.381 . S
C5652 C5658 1.383 . S
C5653 C5649 1.495 . S
C5653 H5659 0.959 . S
C5653 H5660 0.961 . S
C5653 H5661 0.960 . S
C5654 C5652 1.381 . S
C5654 C5655 1.394 . S
C5654 H5662 0.930 . S
C5655 C5654 1.394 . S
C5655 C5656 1.383 . S
C5655 H5663 0.929 . S
C5656 C5655 1.383 . S
C5656 C5657 1.377 . S
C5657 H5641 0.930 . S
C5657 C5656 1.377 . S
C5657 C5658 1.379 . S
C5658 H5642 0.931 . S
C5658 C5652 1.383 . S
C5658 C5657 1.379 . S
H5659 C5653 0.959 . S
H5660 C5653 0.961 . S
H5661 C5653 0.960 . S
H5662 C5654 0.930 . S
H5663 C5655 0.929 . S
H5664 C5672 0.929 . S
H5665 C5674 0.930 . S
H5666 C5676 0.930 . S
H5667 C5679 0.929 . S
H5668 C5682 0.930 . S
H5669 C5684 0.960 . S
H5670 C5684 0.960 . S
H5671 C5684 0.960 . S
C5672 H5664 0.929 . S
C5672 C5673 1.377 . S
C5672 C5674 1.384 . S
C5673 C5672 1.377 . S
C5673 C5679 1.390 . S
C5674 H5665 0.930 . S
C5674 C5672 1.384 . S
C5674 C5675 1.372 . S
C5675 C5674 1.372 . S
C5675 C5676 1.400 . S
C5675 C5680 1.490 . S
C5676 H5666 0.930 . S
C5676 C5675 1.400 . S
C5676 C5679 1.386 . S
H5677 C5693 0.930 . S
H5678 C5694 0.931 . S
C5679 H5667 0.929 . S
C5679 C5673 1.390 . S
C5679 C5676 1.386 . S
C5680 C5675 1.490 . S
C5680 C5682 1.395 . S
C5680 C5683 1.403 . S
H5681 C5687 0.930 . S
C5682 H5668 0.930 . S
C5682 C5680 1.395 . S
C5682 C5685 1.403 . S
C5683 C5680 1.403 . S
C5683 C5684 1.524 . S
C5683 C5687 1.400 . S
C5684 H5669 0.960 . S
C5684 H5670 0.960 . S
C5684 H5671 0.960 . S
C5684 C5683 1.524 . S
C5685 C5682 1.403 . S
C5685 C5686 1.392 . S
C5685 C5689 1.495 . S
C5686 C5685 1.392 . S
C5686 C5687 1.385 . S
C5686 C5688 1.478 . S
C5687 H5681 0.930 . S
C5687 C5683 1.400 . S
C5687 C5686 1.385 . S
C5688 C5686 1.478 . S
C5688 C5690 1.381 . S
C5688 C5694 1.383 . S
C5689 C5685 1.495 . S
C5689 H5695 0.959 . S
C5689 H5696 0.961 . S
C5689 H5697 0.960 . S
C5690 C5688 1.381 . S
C5690 C5691 1.394 . S
C5690 H5698 0.930 . S
C5691 C5690 1.394 . S
C5691 C5692 1.383 . S
C5691 H5699 0.929 . S
C5692 C5691 1.383 . S
C5692 C5693 1.377 . S
C5693 H5677 0.930 . S
C5693 C5692 1.377 . S
C5693 C5694 1.379 . S
C5694 H5678 0.931 . S
C5694 C5688 1.383 . S
C5694 C5693 1.379 . S
H5695 C5689 0.959 . S
H5696 C5689 0.961 . S
H5697 C5689 0.960 . S
H5698 C5690 0.930 . S
H5699 C5691 0.929 . S
H5700 C5708 0.929 . S
H5701 C5710 0.930 . S
H5702 C5712 0.930 . S
H5703 C5715 0.929 . S
H5704 C5718 0.930 . S
H5705 C5720 0.960 . S
H5706 C5720 0.960 . S
H5707 C5720 0.960 . S
C5708 H5700 0.929 . S
C5708 C5709 1.377 . S
C5708 C5710 1.384 . S
C5709 C5708 1.377 . S
C5709 C5715 1.390 . S
C5710 H5701 0.930 . S
C5710 C5708 1.384 . S
C5710 C5711 1.372 . S
C5711 C5710 1.372 . S
C5711 C5712 1.400 . S
C5711 C5716 1.490 . S
C5712 H5702 0.930 . S
C5712 C5711 1.400 . S
C5712 C5715 1.386 . S
H5713 C5729 0.930 . S
H5714 C5730 0.931 . S
C5715 H5703 0.929 . S
C5715 C5709 1.390 . S
C5715 C5712 1.386 . S
C5716 C5711 1.490 . S
C5716 C5718 1.395 . S
C5716 C5719 1.403 . S
H5717 C5723 0.930 . S
C5718 H5704 0.930 . S
C5718 C5716 1.395 . S
C5718 C5721 1.403 . S
C5719 C5716 1.403 . S
C5719 C5720 1.524 . S
C5719 C5723 1.400 . S
C5720 H5705 0.960 . S
C5720 H5706 0.960 . S
C5720 H5707 0.960 . S
C5720 C5719 1.524 . S
C5721 C5718 1.403 . S
C5721 C5722 1.392 . S
C5721 C5725 1.495 . S
C5722 C5721 1.392 . S
C5722 C5723 1.385 . S
C5722 C5724 1.478 . S
C5723 H5717 0.930 . S
C5723 C5719 1.400 . S
C5723 C5722 1.385 . S
C5724 C5722 1.478 . S
C5724 C5726 1.381 . S
C5724 C5730 1.383 . S
C5725 C5721 1.495 . S
C5725 H5731 0.959 . S
C5725 H5732 0.961 . S
C5725 H5733 0.960 . S
C5726 C5724 1.381 . S
C5726 C5727 1.394 . S
C5726 H5734 0.930 . S
C5727 C5726 1.394 . S
C5727 C5728 1.383 . S
C5727 H5735 0.929 . S
C5728 C5727 1.383 . S
C5728 C5729 1.377 . S
C5729 H5713 0.930 . S
C5729 C5728 1.377 . S
C5729 C5730 1.379 . S
C5730 H5714 0.931 . S
C5730 C5724 1.383 . S
C5730 C5729 1.379 . S
H5731 C5725 0.959 . S
H5732 C5725 0.961 . S
H5733 C5725 0.960 . S
H5734 C5726 0.930 . S
H5735 C5727 0.929 . S
H5736 C5744 0.929 . S
H5737 C5746 0.930 . S
H5738 C5748 0.930 . S
H5739 C5751 0.929 . S
H5740 C5754 0.930 . S
H5741 C5756 0.960 . S
H5742 C5756 0.960 . S
H5743 C5756 0.960 . S
C5744 H5736 0.929 . S
C5744 C5745 1.377 . S
C5744 C5746 1.384 . S
C5745 C5744 1.377 . S
C5745 C5751 1.390 . S
C5746 H5737 0.930 . S
C5746 C5744 1.384 . S
C5746 C5747 1.372 . S
C5747 C5746 1.372 . S
C5747 C5748 1.400 . S
C5747 C5752 1.490 . S
C5748 H5738 0.930 . S
C5748 C5747 1.400 . S
C5748 C5751 1.386 . S
H5749 C5765 0.930 . S
H5750 C5766 0.931 . S
C5751 H5739 0.929 . S
C5751 C5745 1.390 . S
C5751 C5748 1.386 . S
C5752 C5747 1.490 . S
C5752 C5754 1.395 . S
C5752 C5755 1.403 . S
H5753 C5759 0.930 . S
C5754 H5740 0.930 . S
C5754 C5752 1.395 . S
C5754 C5757 1.403 . S
C5755 C5752 1.403 . S
C5755 C5756 1.524 . S
C5755 C5759 1.400 . S
C5756 H5741 0.960 . S
C5756 H5742 0.960 . S
C5756 H5743 0.960 . S
C5756 C5755 1.524 . S
C5757 C5754 1.403 . S
C5757 C5758 1.392 . S
C5757 C5761 1.495 . S
C5758 C5757 1.392 . S
C5758 C5759 1.385 . S
C5758 C5760 1.478 . S
C5759 H5753 0.930 . S
C5759 C5755 1.400 . S
C5759 C5758 1.385 . S
C5760 C5758 1.478 . S
C5760 C5762 1.381 . S
C5760 C5766 1.383 . S
C5761 C5757 1.495 . S
C5761 H5767 0.959 . S
C5761 H5768 0.961 . S
C5761 H5769 0.960 . S
C5762 C5760 1.381 . S
C5762 C5763 1.394 . S
C5762 H5770 0.930 . S
C5763 C5762 1.394 . S
C5763 C5764 1.383 . S
C5763 H5771 0.929 . S
C5764 C5763 1.383 . S
C5764 C5765 1.377 . S
C5765 H5749 0.930 . S
C5765 C5764 1.377 . S
C5765 C5766 1.379 . S
C5766 H5750 0.931 . S
C5766 C5760 1.383 . S
C5766 C5765 1.379 . S
H5767 C5761 0.959 . S
H5768 C5761 0.961 . S
H5769 C5761 0.960 . S
H5770 C5762 0.930 . S
H5771 C5763 0.929 . S
H5772 C5780 0.929 . S
H5773 C5782 0.930 . S
H5774 C5784 0.930 . S
H5775 C5787 0.929 . S
H5776 C5790 0.930 . S
H5777 C5792 0.960 . S
H5778 C5792 0.960 . S
H5779 C5792 0.960 . S
C5780 H5772 0.929 . S
C5780 C5781 1.377 . S
C5780 C5782 1.384 . S
C5781 C5780 1.377 . S
C5781 C5787 1.390 . S
C5782 H5773 0.930 . S
C5782 C5780 1.384 . S
C5782 C5783 1.372 . S
C5783 C5782 1.372 . S
C5783 C5784 1.400 . S
C5783 C5788 1.490 . S
C5784 H5774 0.930 . S
C5784 C5783 1.400 . S
C5784 C5787 1.386 . S
H5785 C5801 0.930 . S
H5786 C5802 0.931 . S
C5787 H5775 0.929 . S
C5787 C5781 1.390 . S
C5787 C5784 1.386 . S
C5788 C5783 1.490 . S
C5788 C5790 1.395 . S
C5788 C5791 1.403 . S
H5789 C5795 0.930 . S
C5790 H5776 0.930 . S
C5790 C5788 1.395 . S
C5790 C5793 1.403 . S
C5791 C5788 1.403 . S
C5791 C5792 1.524 . S
C5791 C5795 1.400 . S
C5792 H5777 0.960 . S
C5792 H5778 0.960 . S
C5792 H5779 0.960 . S
C5792 C5791 1.524 . S
C5793 C5790 1.403 . S
C5793 C5794 1.392 . S
C5793 C5797 1.495 . S
C5794 C5793 1.392 . S
C5794 C5795 1.385 . S
C5794 C5796 1.478 . S
C5795 H5789 0.930 . S
C5795 C5791 1.400 . S
C5795 C5794 1.385 . S
C5796 C5794 1.478 . S
C5796 C5798 1.381 . S
C5796 C5802 1.383 . S
C5797 C5793 1.495 . S
C5797 H5803 0.959 . S
C5797 H5804 0.961 . S
C5797 H5805 0.960 . S
C5798 C5796 1.381 . S
C5798 C5799 1.394 . S
C5798 H5806 0.930 . S
C5799 C5798 1.394 . S
C5799 C5800 1.383 . S
C5799 H5807 0.929 . S
C5800 C5799 1.383 . S
C5800 C5801 1.377 . S
C5801 H5785 0.930 . S
C5801 C5800 1.377 . S
C5801 C5802 1.379 . S
C5802 H5786 0.931 . S
C5802 C5796 1.383 . S
C5802 C5801 1.379 . S
H5803 C5797 0.959 . S
H5804 C5797 0.961 . S
H5805 C5797 0.960 . S
H5806 C5798 0.930 . S
H5807 C5799 0.929 . S
H5808 C5816 0.929 . S
H5809 C5818 0.930 . S
H5810 C5820 0.930 . S
H5811 C5823 0.929 . S
H5812 C5826 0.930 . S
H5813 C5828 0.960 . S
H5814 C5828 0.960 . S
H5815 C5828 0.960 . S
C5816 H5808 0.929 . S
C5816 C5817 1.377 . S
C5816 C5818 1.384 . S
C5817 C5816 1.377 . S
C5817 C5823 1.390 . S
C5818 H5809 0.930 . S
C5818 C5816 1.384 . S
C5818 C5819 1.372 . S
C5819 C5818 1.372 . S
C5819 C5820 1.400 . S
C5819 C5824 1.490 . S
C5820 H5810 0.930 . S
C5820 C5819 1.400 . S
C5820 C5823 1.386 . S
H5821 C5837 0.930 . S
H5822 C5838 0.931 . S
C5823 H5811 0.929 . S
C5823 C5817 1.390 . S
C5823 C5820 1.386 . S
C5824 C5819 1.490 . S
C5824 C5826 1.395 . S
C5824 C5827 1.403 . S
H5825 C5831 0.930 . S
C5826 H5812 0.930 . S
C5826 C5824 1.395 . S
C5826 C5829 1.403 . S
C5827 C5824 1.403 . S
C5827 C5828 1.524 . S
C5827 C5831 1.400 . S
C5828 H5813 0.960 . S
C5828 H5814 0.960 . S
C5828 H5815 0.960 . S
C5828 C5827 1.524 . S
C5829 C5826 1.403 . S
C5829 C5830 1.392 . S
C5829 C5833 1.495 . S
C5830 C5829 1.392 . S
C5830 C5831 1.385 . S
C5830 C5832 1.478 . S
C5831 H5825 0.930 . S
C5831 C5827 1.400 . S
C5831 C5830 1.385 . S
C5832 C5830 1.478 . S
C5832 C5834 1.381 . S
C5832 C5838 1.383 . S
C5833 C5829 1.495 . S
C5833 H5839 0.959 . S
C5833 H5840 0.961 . S
C5833 H5841 0.960 . S
C5834 C5832 1.381 . S
C5834 C5835 1.394 . S
C5834 H5842 0.930 . S
C5835 C5834 1.394 . S
C5835 C5836 1.383 . S
C5835 H5843 0.929 . S
C5836 C5835 1.383 . S
C5836 C5837 1.377 . S
C5837 H5821 0.930 . S
C5837 C5836 1.377 . S
C5837 C5838 1.379 . S
C5838 H5822 0.931 . S
C5838 C5832 1.383 . S
C5838 C5837 1.379 . S
H5839 C5833 0.959 . S
H5840 C5833 0.961 . S
H5841 C5833 0.960 . S
H5842 C5834 0.930 . S
H5843 C5835 0.929 . S
H5844 C5852 0.929 . S
H5845 C5854 0.930 . S
H5846 C5856 0.930 . S
H5847 C5859 0.929 . S
H5848 C5862 0.930 . S
H5849 C5864 0.960 . S
H5850 C5864 0.960 . S
H5851 C5864 0.960 . S
C5852 H5844 0.929 . S
C5852 C5853 1.377 . S
C5852 C5854 1.384 . S
C5853 C5852 1.377 . S
C5853 C5859 1.390 . S
C5854 H5845 0.930 . S
C5854 C5852 1.384 . S
C5854 C5855 1.372 . S
C5855 C5854 1.372 . S
C5855 C5856 1.400 . S
C5855 C5860 1.490 . S
C5856 H5846 0.930 . S
C5856 C5855 1.400 . S
C5856 C5859 1.386 . S
H5857 C5873 0.930 . S
H5858 C5874 0.931 . S
C5859 H5847 0.929 . S
C5859 C5853 1.390 . S
C5859 C5856 1.386 . S
C5860 C5855 1.490 . S
C5860 C5862 1.395 . S
C5860 C5863 1.403 . S
H5861 C5867 0.930 . S
C5862 H5848 0.930 . S
C5862 C5860 1.395 . S
C5862 C5865 1.403 . S
C5863 C5860 1.403 . S
C5863 C5864 1.524 . S
C5863 C5867 1.400 . S
C5864 H5849 0.960 . S
C5864 H5850 0.960 . S
C5864 H5851 0.960 . S
C5864 C5863 1.524 . S
C5865 C5862 1.403 . S
C5865 C5866 1.392 . S
C5865 C5869 1.495 . S
C5866 C5865 1.392 . S
C5866 C5867 1.385 . S
C5866 C5868 1.478 . S
C5867 H5861 0.930 . S
C5867 C5863 1.400 . S
C5867 C5866 1.385 . S
C5868 C5866 1.478 . S
C5868 C5870 1.381 . S
C5868 C5874 1.383 . S
C5869 C5865 1.495 . S
C5869 H5875 0.959 . S
C5869 H5876 0.961 . S
C5869 H5877 0.960 . S
C5870 C5868 1.381 . S
C5870 C5871 1.394 . S
C5870 H5878 0.930 . S
C5871 C5870 1.394 . S
C5871 C5872 1.383 . S
C5871 H5879 0.929 . S
C5872 C5871 1.383 . S
C5872 C5873 1.377 . S
C5873 H5857 0.930 . S
C5873 C5872 1.377 . S
C5873 C5874 1.379 . S
C5874 H5858 0.931 . S
C5874 C5868 1.383 . S
C5874 C5873 1.379 . S
H5875 C5869 0.959 . S
H5876 C5869 0.961 . S
H5877 C5869 0.960 . S
H5878 C5870 0.930 . S
H5879 C5871 0.929 . S
H5880 C5888 0.929 . S
H5881 C5890 0.930 . S
H5882 C5892 0.930 . S
H5883 C5895 0.929 . S
H5884 C5898 0.930 . S
H5885 C5900 0.960 . S
H5886 C5900 0.960 . S
H5887 C5900 0.960 . S
C5888 H5880 0.929 . S
C5888 C5889 1.377 . S
C5888 C5890 1.384 . S
C5889 C5888 1.377 . S
C5889 C5895 1.390 . S
C5890 H5881 0.930 . S
C5890 C5888 1.384 . S
C5890 C5891 1.372 . S
C5891 C5890 1.372 . S
C5891 C5892 1.400 . S
C5891 C5896 1.490 . S
C5892 H5882 0.930 . S
C5892 C5891 1.400 . S
C5892 C5895 1.386 . S
H5893 C5909 0.930 . S
H5894 C5910 0.931 . S
C5895 H5883 0.929 . S
C5895 C5889 1.390 . S
C5895 C5892 1.386 . S
C5896 C5891 1.490 . S
C5896 C5898 1.395 . S
C5896 C5899 1.403 . S
H5897 C5903 0.930 . S
C5898 H5884 0.930 . S
C5898 C5896 1.395 . S
C5898 C5901 1.403 . S
C5899 C5896 1.403 . S
C5899 C5900 1.524 . S
C5899 C5903 1.400 . S
C5900 H5885 0.960 . S
C5900 H5886 0.960 . S
C5900 H5887 0.960 . S
C5900 C5899 1.524 . S
C5901 C5898 1.403 . S
C5901 C5902 1.392 . S
C5901 C5905 1.495 . S
C5902 C5901 1.392 . S
C5902 C5903 1.385 . S
C5902 C5904 1.478 . S
C5903 H5897 0.930 . S
C5903 C5899 1.400 . S
C5903 C5902 1.385 . S
C5904 C5902 1.478 . S
C5904 C5906 1.381 . S
C5904 C5910 1.383 . S
C5905 C5901 1.495 . S
C5905 H5911 0.959 . S
C5905 H5912 0.961 . S
C5905 H5913 0.960 . S
C5906 C5904 1.381 . S
C5906 C5907 1.394 . S
C5906 H5914 0.930 . S
C5907 C5906 1.394 . S
C5907 C5908 1.383 . S
C5907 H5915 0.929 . S
C5908 C5907 1.383 . S
C5908 C5909 1.377 . S
C5909 H5893 0.930 . S
C5909 C5908 1.377 . S
C5909 C5910 1.379 . S
C5910 H5894 0.931 . S
C5910 C5904 1.383 . S
C5910 C5909 1.379 . S
H5911 C5905 0.959 . S
H5912 C5905 0.961 . S
H5913 C5905 0.960 . S
H5914 C5906 0.930 . S
H5915 C5907 0.929 . S
H5916 C5924 0.929 . S
H5917 C5926 0.930 . S
H5918 C5928 0.930 . S
H5919 C5931 0.929 . S
H5920 C5934 0.930 . S
H5921 C5936 0.960 . S
H5922 C5936 0.960 . S
H5923 C5936 0.960 . S
C5924 H5916 0.929 . S
C5924 C5925 1.377 . S
C5924 C5926 1.384 . S
C5925 C5924 1.377 . S
C5925 C5931 1.390 . S
C5926 H5917 0.930 . S
C5926 C5924 1.384 . S
C5926 C5927 1.372 . S
C5927 C5926 1.372 . S
C5927 C5928 1.400 . S
C5927 C5932 1.490 . S
C5928 H5918 0.930 . S
C5928 C5927 1.400 . S
C5928 C5931 1.386 . S
H5929 C5945 0.930 . S
H5930 C5946 0.931 . S
C5931 H5919 0.929 . S
C5931 C5925 1.390 . S
C5931 C5928 1.386 . S
C5932 C5927 1.490 . S
C5932 C5934 1.395 . S
C5932 C5935 1.403 . S
H5933 C5939 0.930 . S
C5934 H5920 0.930 . S
C5934 C5932 1.395 . S
C5934 C5937 1.403 . S
C5935 C5932 1.403 . S
C5935 C5936 1.524 . S
C5935 C5939 1.400 . S
C5936 H5921 0.960 . S
C5936 H5922 0.960 . S
C5936 H5923 0.960 . S
C5936 C5935 1.524 . S
C5937 C5934 1.403 . S
C5937 C5938 1.392 . S
C5937 C5941 1.495 . S
C5938 C5937 1.392 . S
C5938 C5939 1.385 . S
C5938 C5940 1.478 . S
C5939 H5933 0.930 . S
C5939 C5935 1.400 . S
C5939 C5938 1.385 . S
C5940 C5938 1.478 . S
C5940 C5942 1.381 . S
C5940 C5946 1.383 . S
C5941 C5937 1.495 . S
C5941 H5947 0.959 . S
C5941 H5948 0.961 . S
C5941 H5949 0.960 . S
C5942 C5940 1.381 . S
C5942 C5943 1.394 . S
C5942 H5950 0.930 . S
C5943 C5942 1.394 . S
C5943 C5944 1.383 . S
C5943 H5951 0.929 . S
C5944 C5943 1.383 . S
C5944 C5945 1.377 . S
C5945 H5929 0.930 . S
C5945 C5944 1.377 . S
C5945 C5946 1.379 . S
C5946 H5930 0.931 . S
C5946 C5940 1.383 . S
C5946 C5945 1.379 . S
H5947 C5941 0.959 . S
H5948 C5941 0.961 . S
H5949 C5941 0.960 . S
H5950 C5942 0.930 . S
H5951 C5943 0.929 . S
H5952 C5960 0.929 . S
H5953 C5962 0.930 . S
H5954 C5964 0.930 . S
H5955 C5967 0.929 . S
H5956 C5970 0.930 . S
H5957 C5972 0.960 . S
H5958 C5972 0.960 . S
H5959 C5972 0.960 . S
C5960 H5952 0.929 . S
C5960 C5961 1.377 . S
C5960 C5962 1.384 . S
C5961 C5960 1.377 . S
C5961 C5967 1.390 . S
C5962 H5953 0.930 . S
C5962 C5960 1.384 . S
C5962 C5963 1.372 . S
C5963 C5962 1.372 . S
C5963 C5964 1.400 . S
C5963 C5968 1.490 . S
C5964 H5954 0.930 . S
C5964 C5963 1.400 . S
C5964 C5967 1.386 . S
H5965 C5981 0.930 . S
H5966 C5982 0.931 . S
C5967 H5955 0.929 . S
C5967 C5961 1.390 . S
C5967 C5964 1.386 . S
C5968 C5963 1.490 . S
C5968 C5970 1.395 . S
C5968 C5971 1.403 . S
H5969 C5975 0.930 . S
C5970 H5956 0.930 . S
C5970 C5968 1.395 . S
C5970 C5973 1.403 . S
C5971 C5968 1.403 . S
C5971 C5972 1.524 . S
C5971 C5975 1.400 . S
C5972 H5957 0.960 . S
C5972 H5958 0.960 . S
C5972 H5959 0.960 . S
C5972 C5971 1.524 . S
C5973 C5970 1.403 . S
C5973 C5974 1.392 . S
C5973 C5977 1.495 . S
C5974 C5973 1.392 . S
C5974 C5975 1.385 . S
C5974 C5976 1.478 . S
C5975 H5969 0.930 . S
C5975 C5971 1.400 . S
C5975 C5974 1.385 . S
C5976 C5974 1.478 . S
C5976 C5978 1.381 . S
C5976 C5982 1.383 . S
C5977 C5973 1.495 . S
C5977 H5983 0.959 . S
C5977 H5984 0.961 . S
C5977 H5985 0.960 . S
C5978 C5976 1.381 . S
C5978 C5979 1.394 . S
C5978 H5986 0.930 . S
C5979 C5978 1.394 . S
C5979 C5980 1.383 . S
C5979 H5987 0.929 . S
C5980 C5979 1.383 . S
C5980 C5981 1.377 . S
C5981 H5965 0.930 . S
C5981 C5980 1.377 . S
C5981 C5982 1.379 . S
C5982 H5966 0.931 . S
C5982 C5976 1.383 . S
C5982 C5981 1.379 . S
H5983 C5977 0.959 . S
H5984 C5977 0.961 . S
H5985 C5977 0.960 . S
H5986 C5978 0.930 . S
H5987 C5979 0.929 . S
H5988 C5996 0.929 . S
H5989 C5998 0.930 . S
H5990 C6000 0.930 . S
H5991 C6003 0.929 . S
H5992 C6006 0.930 . S
H5993 C6008 0.960 . S
H5994 C6008 0.960 . S
H5995 C6008 0.960 . S
C5996 H5988 0.929 . S
C5996 C5997 1.377 . S
C5996 C5998 1.384 . S
C5997 C5996 1.377 . S
C5997 C6003 1.390 . S
C5998 H5989 0.930 . S
C5998 C5996 1.384 . S
C5998 C5999 1.372 . S
C5999 C5998 1.372 . S
C5999 C6000 1.400 . S
C5999 C6004 1.490 . S
C6000 H5990 0.930 . S
C6000 C5999 1.400 . S
C6000 C6003 1.386 . S
H6001 C6017 0.930 . S
H6002 C6018 0.931 . S
C6003 H5991 0.929 . S
C6003 C5997 1.390 . S
C6003 C6000 1.386 . S
C6004 C5999 1.490 . S
C6004 C6006 1.395 . S
C6004 C6007 1.403 . S
H6005 C6011 0.930 . S
C6006 H5992 0.930 . S
C6006 C6004 1.395 . S
C6006 C6009 1.403 . S
C6007 C6004 1.403 . S
C6007 C6008 1.524 . S
C6007 C6011 1.400 . S
C6008 H5993 0.960 . S
C6008 H5994 0.960 . S
C6008 H5995 0.960 . S
C6008 C6007 1.524 . S
C6009 C6006 1.403 . S
C6009 C6010 1.392 . S
C6009 C6013 1.495 . S
C6010 C6009 1.392 . S
C6010 C6011 1.385 . S
C6010 C6012 1.478 . S
C6011 H6005 0.930 . S
C6011 C6007 1.400 . S
C6011 C6010 1.385 . S
C6012 C6010 1.478 . S
C6012 C6014 1.381 . S
C6012 C6018 1.383 . S
C6013 C6009 1.495 . S
C6013 H6019 0.959 . S
C6013 H6020 0.961 . S
C6013 H6021 0.960 . S
C6014 C6012 1.381 . S
C6014 C6015 1.394 . S
C6014 H6022 0.930 . S
C6015 C6014 1.394 . S
C6015 C6016 1.383 . S
C6015 H6023 0.929 . S
C6016 C6015 1.383 . S
C6016 C6017 1.377 . S
C6017 H6001 0.930 . S
C6017 C6016 1.377 . S
C6017 C6018 1.379 . S
C6018 H6002 0.931 . S
C6018 C6012 1.383 . S
C6018 C6017 1.379 . S
H6019 C6013 0.959 . S
H6020 C6013 0.961 . S
H6021 C6013 0.960 . S
H6022 C6014 0.930 . S
H6023 C6015 0.929 . S
H6024 C6032 0.929 . S
H6025 C6034 0.930 . S
H6026 C6036 0.930 . S
H6027 C6039 0.929 . S
H6028 C6042 0.930 . S
H6029 C6044 0.960 . S
H6030 C6044 0.960 . S
H6031 C6044 0.960 . S
C6032 H6024 0.929 . S
C6032 C6033 1.377 . S
C6032 C6034 1.384 . S
C6033 C6032 1.377 . S
C6033 C6039 1.390 . S
C6034 H6025 0.930 . S
C6034 C6032 1.384 . S
C6034 C6035 1.372 . S
C6035 C6034 1.372 . S
C6035 C6036 1.400 . S
C6035 C6040 1.490 . S
C6036 H6026 0.930 . S
C6036 C6035 1.400 . S
C6036 C6039 1.386 . S
H6037 C6053 0.930 . S
H6038 C6054 0.931 . S
C6039 H6027 0.929 . S
C6039 C6033 1.390 . S
C6039 C6036 1.386 . S
C6040 C6035 1.490 . S
C6040 C6042 1.395 . S
C6040 C6043 1.403 . S
H6041 C6047 0.930 . S
C6042 H6028 0.930 . S
C6042 C6040 1.395 . S
C6042 C6045 1.403 . S
C6043 C6040 1.403 . S
C6043 C6044 1.524 . S
C6043 C6047 1.400 . S
C6044 H6029 0.960 . S
C6044 H6030 0.960 . S
C6044 H6031 0.960 . S
C6044 C6043 1.524 . S
C6045 C6042 1.403 . S
C6045 C6046 1.392 . S
C6045 C6049 1.495 . S
C6046 C6045 1.392 . S
C6046 C6047 1.385 . S
C6046 C6048 1.478 . S
C6047 H6041 0.930 . S
C6047 C6043 1.400 . S
C6047 C6046 1.385 . S
C6048 C6046 1.478 . S
C6048 C6050 1.381 . S
C6048 C6054 1.383 . S
C6049 C6045 1.495 . S
C6049 H6055 0.959 . S
C6049 H6056 0.961 . S
C6049 H6057 0.960 . S
C6050 C6048 1.381 . S
C6050 C6051 1.394 . S
C6050 H6058 0.930 . S
C6051 C6050 1.394 . S
C6051 C6052 1.383 . S
C6051 H6059 0.929 . S
C6052 C6051 1.383 . S
C6052 C6053 1.377 . S
C6053 H6037 0.930 . S
C6053 C6052 1.377 . S
C6053 C6054 1.379 . S
C6054 H6038 0.931 . S
C6054 C6048 1.383 . S
C6054 C6053 1.379 . S
H6055 C6049 0.959 . S
H6056 C6049 0.961 . S
H6057 C6049 0.960 . S
H6058 C6050 0.930 . S
H6059 C6051 0.929 . S
H6060 C6068 0.929 . S
H6061 C6070 0.930 . S
H6062 C6072 0.930 . S
H6063 C6075 0.929 . S
H6064 C6078 0.930 . S
H6065 C6080 0.960 . S
H6066 C6080 0.960 . S
H6067 C6080 0.960 . S
C6068 H6060 0.929 . S
C6068 C6069 1.377 . S
C6068 C6070 1.384 . S
C6069 C6068 1.377 . S
C6069 C6075 1.390 . S
C6070 H6061 0.930 . S
C6070 C6068 1.384 . S
C6070 C6071 1.372 . S
C6071 C6070 1.372 . S
C6071 C6072 1.400 . S
C6071 C6076 1.490 . S
C6072 H6062 0.930 . S
C6072 C6071 1.400 . S
C6072 C6075 1.386 . S
H6073 C6089 0.930 . S
H6074 C6090 0.931 . S
C6075 H6063 0.929 . S
C6075 C6069 1.390 . S
C6075 C6072 1.386 . S
C6076 C6071 1.490 . S
C6076 C6078 1.395 . S
C6076 C6079 1.403 . S
H6077 C6083 0.930 . S
C6078 H6064 0.930 . S
C6078 C6076 1.395 . S
C6078 C6081 1.403 . S
C6079 C6076 1.403 . S
C6079 C6080 1.524 . S
C6079 C6083 1.400 . S
C6080 H6065 0.960 . S
C6080 H6066 0.960 . S
C6080 H6067 0.960 . S
C6080 C6079 1.524 . S
C6081 C6078 1.403 . S
C6081 C6082 1.392 . S
C6081 C6085 1.495 . S
C6082 C6081 1.392 . S
C6082 C6083 1.385 . S
C6082 C6084 1.478 . S
C6083 H6077 0.930 . S
C6083 C6079 1.400 . S
C6083 C6082 1.385 . S
C6084 C6082 1.478 . S
C6084 C6086 1.381 . S
C6084 C6090 1.383 . S
C6085 C6081 1.495 . S
C6085 H6091 0.959 . S
C6085 H6092 0.961 . S
C6085 H6093 0.960 . S
C6086 C6084 1.381 . S
C6086 C6087 1.394 . S
C6086 H6094 0.930 . S
C6087 C6086 1.394 . S
C6087 C6088 1.383 . S
C6087 H6095 0.929 . S
C6088 C6087 1.383 . S
C6088 C6089 1.377 . S
C6089 H6073 0.930 . S
C6089 C6088 1.377 . S
C6089 C6090 1.379 . S
C6090 H6074 0.931 . S
C6090 C6084 1.383 . S
C6090 C6089 1.379 . S
H6091 C6085 0.959 . S
H6092 C6085 0.961 . S
H6093 C6085 0.960 . S
H6094 C6086 0.930 . S
H6095 C6087 0.929 . S
H6096 C6104 0.929 . S
H6097 C6106 0.930 . S
H6098 C6108 0.930 . S
H6099 C6111 0.929 . S
H6100 C6114 0.930 . S
H6101 C6116 0.960 . S
H6102 C6116 0.960 . S
H6103 C6116 0.960 . S
C6104 H6096 0.929 . S
C6104 C6105 1.377 . S
C6104 C6106 1.384 . S
C6105 C6104 1.377 . S
C6105 C6111 1.390 . S
C6106 H6097 0.930 . S
C6106 C6104 1.384 . S
C6106 C6107 1.372 . S
C6107 C6106 1.372 . S
C6107 C6108 1.400 . S
C6107 C6112 1.490 . S
C6108 H6098 0.930 . S
C6108 C6107 1.400 . S
C6108 C6111 1.386 . S
H6109 C6125 0.930 . S
H6110 C6126 0.931 . S
C6111 H6099 0.929 . S
C6111 C6105 1.390 . S
C6111 C6108 1.386 . S
C6112 C6107 1.490 . S
C6112 C6114 1.395 . S
C6112 C6115 1.403 . S
H6113 C6119 0.930 . S
C6114 H6100 0.930 . S
C6114 C6112 1.395 . S
C6114 C6117 1.403 . S
C6115 C6112 1.403 . S
C6115 C6116 1.524 . S
C6115 C6119 1.400 . S
C6116 H6101 0.960 . S
C6116 H6102 0.960 . S
C6116 H6103 0.960 . S
C6116 C6115 1.524 . S
C6117 C6114 1.403 . S
C6117 C6118 1.392 . S
C6117 C6121 1.495 . S
C6118 C6117 1.392 . S
C6118 C6119 1.385 . S
C6118 C6120 1.478 . S
C6119 H6113 0.930 . S
C6119 C6115 1.400 . S
C6119 C6118 1.385 . S
C6120 C6118 1.478 . S
C6120 C6122 1.381 . S
C6120 C6126 1.383 . S
C6121 C6117 1.495 . S
C6121 H6127 0.959 . S
C6121 H6128 0.961 . S
C6121 H6129 0.960 . S
C6122 C6120 1.381 . S
C6122 C6123 1.394 . S
C6122 H6130 0.930 . S
C6123 C6122 1.394 . S
C6123 C6124 1.383 . S
C6123 H6131 0.929 . S
C6124 C6123 1.383 . S
C6124 C6125 1.377 . S
C6125 H6109 0.930 . S
C6125 C6124 1.377 . S
C6125 C6126 1.379 . S
C6126 H6110 0.931 . S
C6126 C6120 1.383 . S
C6126 C6125 1.379 . S
H6127 C6121 0.959 . S
H6128 C6121 0.961 . S
H6129 C6121 0.960 . S
H6130 C6122 0.930 . S
H6131 C6123 0.929 . S
H6132 C6140 0.929 . S
H6133 C6142 0.930 . S
H6134 C6144 0.930 . S
H6135 C6147 0.929 . S
H6136 C6150 0.930 . S
H6137 C6152 0.960 . S
H6138 C6152 0.960 . S
H6139 C6152 0.960 . S
C6140 H6132 0.929 . S
C6140 C6141 1.377 . S
C6140 C6142 1.384 . S
C6141 C6140 1.377 . S
C6141 C6147 1.390 . S
C6142 H6133 0.930 . S
C6142 C6140 1.384 . S
C6142 C6143 1.372 . S
C6143 C6142 1.372 . S
C6143 C6144 1.400 . S
C6143 C6148 1.490 . S
C6144 H6134 0.930 . S
C6144 C6143 1.400 . S
C6144 C6147 1.386 . S
H6145 C6161 0.930 . S
H6146 C6162 0.931 . S
C6147 H6135 0.929 . S
C6147 C6141 1.390 . S
C6147 C6144 1.386 . S
C6148 C6143 1.490 . S
C6148 C6150 1.395 . S
C6148 C6151 1.403 . S
H6149 C6155 0.930 . S
C6150 H6136 0.930 . S
C6150 C6148 1.395 . S
C6150 C6153 1.403 . S
C6151 C6148 1.403 . S
C6151 C6152 1.524 . S
C6151 C6155 1.400 . S
C6152 H6137 0.960 . S
C6152 H6138 0.960 . S
C6152 H6139 0.960 . S
C6152 C6151 1.524 . S
C6153 C6150 1.403 . S
C6153 C6154 1.392 . S
C6153 C6157 1.495 . S
C6154 C6153 1.392 . S
C6154 C6155 1.385 . S
C6154 C6156 1.478 . S
C6155 H6149 0.930 . S
C6155 C6151 1.400 . S
C6155 C6154 1.385 . S
C6156 C6154 1.478 . S
C6156 C6158 1.381 . S
C6156 C6162 1.383 . S
C6157 C6153 1.495 . S
C6157 H6163 0.959 . S
C6157 H6164 0.961 . S
C6157 H6165 0.960 . S
C6158 C6156 1.381 . S
C6158 C6159 1.394 . S
C6158 H6166 0.930 . S
C6159 C6158 1.394 . S
C6159 C6160 1.383 . S
C6159 H6167 0.929 . S
C6160 C6159 1.383 . S
C6160 C6161 1.377 . S
C6161 H6145 0.930 . S
C6161 C6160 1.377 . S
C6161 C6162 1.379 . S
C6162 H6146 0.931 . S
C6162 C6156 1.383 . S
C6162 C6161 1.379 . S
H6163 C6157 0.959 . S
H6164 C6157 0.961 . S
H6165 C6157 0.960 . S
H6166 C6158 0.930 . S
H6167 C6159 0.929 . S
H6168 C6176 0.929 . S
H6169 C6178 0.930 . S
H6170 C6180 0.930 . S
H6171 C6183 0.929 . S
H6172 C6186 0.930 . S
H6173 C6188 0.960 . S
H6174 C6188 0.960 . S
H6175 C6188 0.960 . S
C6176 H6168 0.929 . S
C6176 C6177 1.377 . S
C6176 C6178 1.384 . S
C6177 C6176 1.377 . S
C6177 C6183 1.390 . S
C6178 H6169 0.930 . S
C6178 C6176 1.384 . S
C6178 C6179 1.372 . S
C6179 C6178 1.372 . S
C6179 C6180 1.400 . S
C6179 C6184 1.490 . S
C6180 H6170 0.930 . S
C6180 C6179 1.400 . S
C6180 C6183 1.386 . S
H6181 C6197 0.930 . S
H6182 C6198 0.931 . S
C6183 H6171 0.929 . S
C6183 C6177 1.390 . S
C6183 C6180 1.386 . S
C6184 C6179 1.490 . S
C6184 C6186 1.395 . S
C6184 C6187 1.403 . S
H6185 C6191 0.930 . S
C6186 H6172 0.930 . S
C6186 C6184 1.395 . S
C6186 C6189 1.403 . S
C6187 C6184 1.403 . S
C6187 C6188 1.524 . S
C6187 C6191 1.400 . S
C6188 H6173 0.960 . S
C6188 H6174 0.960 . S
C6188 H6175 0.960 . S
C6188 C6187 1.524 . S
C6189 C6186 1.403 . S
C6189 C6190 1.392 . S
C6189 C6193 1.495 . S
C6190 C6189 1.392 . S
C6190 C6191 1.385 . S
C6190 C6192 1.478 . S
C6191 H6185 0.930 . S
C6191 C6187 1.400 . S
C6191 C6190 1.385 . S
C6192 C6190 1.478 . S
C6192 C6194 1.381 . S
C6192 C6198 1.383 . S
C6193 C6189 1.495 . S
C6193 H6199 0.959 . S
C6193 H6200 0.961 . S
C6193 H6201 0.960 . S
C6194 C6192 1.381 . S
C6194 C6195 1.394 . S
C6194 H6202 0.930 . S
C6195 C6194 1.394 . S
C6195 C6196 1.383 . S
C6195 H6203 0.929 . S
C6196 C6195 1.383 . S
C6196 C6197 1.377 . S
C6197 H6181 0.930 . S
C6197 C6196 1.377 . S
C6197 C6198 1.379 . S
C6198 H6182 0.931 . S
C6198 C6192 1.383 . S
C6198 C6197 1.379 . S
H6199 C6193 0.959 . S
H6200 C6193 0.961 . S
H6201 C6193 0.960 . S
H6202 C6194 0.930 . S
H6203 C6195 0.929 . S
H6204 C6212 0.929 . S
H6205 C6214 0.930 . S
H6206 C6216 0.930 . S
H6207 C6219 0.929 . S
H6208 C6222 0.930 . S
H6209 C6224 0.960 . S
H6210 C6224 0.960 . S
H6211 C6224 0.960 . S
C6212 H6204 0.929 . S
C6212 C6213 1.377 . S
C6212 C6214 1.384 . S
C6213 C6212 1.377 . S
C6213 C6219 1.390 . S
C6214 H6205 0.930 . S
C6214 C6212 1.384 . S
C6214 C6215 1.372 . S
C6215 C6214 1.372 . S
C6215 C6216 1.400 . S
C6215 C6220 1.490 . S
C6216 H6206 0.930 . S
C6216 C6215 1.400 . S
C6216 C6219 1.386 . S
H6217 C6233 0.930 . S
H6218 C6234 0.931 . S
C6219 H6207 0.929 . S
C6219 C6213 1.390 . S
C6219 C6216 1.386 . S
C6220 C6215 1.490 . S
C6220 C6222 1.395 . S
C6220 C6223 1.403 . S
H6221 C6227 0.930 . S
C6222 H6208 0.930 . S
C6222 C6220 1.395 . S
C6222 C6225 1.403 . S
C6223 C6220 1.403 . S
C6223 C6224 1.524 . S
C6223 C6227 1.400 . S
C6224 H6209 0.960 . S
C6224 H6210 0.960 . S
C6224 H6211 0.960 . S
C6224 C6223 1.524 . S
C6225 C6222 1.403 . S
C6225 C6226 1.392 . S
C6225 C6229 1.495 . S
C6226 C6225 1.392 . S
C6226 C6227 1.385 . S
C6226 C6228 1.478 . S
C6227 H6221 0.930 . S
C6227 C6223 1.400 . S
C6227 C6226 1.385 . S
C6228 C6226 1.478 . S
C6228 C6230 1.381 . S
C6228 C6234 1.383 . S
C6229 C6225 1.495 . S
C6229 H6235 0.959 . S
C6229 H6236 0.961 . S
C6229 H6237 0.960 . S
C6230 C6228 1.381 . S
C6230 C6231 1.394 . S
C6230 H6238 0.930 . S
C6231 C6230 1.394 . S
C6231 C6232 1.383 . S
C6231 H6239 0.929 . S
C6232 C6231 1.383 . S
C6232 C6233 1.377 . S
C6233 H6217 0.930 . S
C6233 C6232 1.377 . S
C6233 C6234 1.379 . S
C6234 H6218 0.931 . S
C6234 C6228 1.383 . S
C6234 C6233 1.379 . S
H6235 C6229 0.959 . S
H6236 C6229 0.961 . S
H6237 C6229 0.960 . S
H6238 C6230 0.930 . S
H6239 C6231 0.929 . S
H6240 C6248 0.929 . S
H6241 C6250 0.930 . S
H6242 C6252 0.930 . S
H6243 C6255 0.929 . S
H6244 C6258 0.930 . S
H6245 C6260 0.960 . S
H6246 C6260 0.960 . S
H6247 C6260 0.960 . S
C6248 H6240 0.929 . S
C6248 C6249 1.377 . S
C6248 C6250 1.384 . S
C6249 C6248 1.377 . S
C6249 C6255 1.390 . S
C6250 H6241 0.930 . S
C6250 C6248 1.384 . S
C6250 C6251 1.372 . S
C6251 C6250 1.372 . S
C6251 C6252 1.400 . S
C6251 C6256 1.490 . S
C6252 H6242 0.930 . S
C6252 C6251 1.400 . S
C6252 C6255 1.386 . S
H6253 C6269 0.930 . S
H6254 C6270 0.931 . S
C6255 H6243 0.929 . S
C6255 C6249 1.390 . S
C6255 C6252 1.386 . S
C6256 C6251 1.490 . S
C6256 C6258 1.395 . S
C6256 C6259 1.403 . S
H6257 C6263 0.930 . S
C6258 H6244 0.930 . S
C6258 C6256 1.395 . S
C6258 C6261 1.403 . S
C6259 C6256 1.403 . S
C6259 C6260 1.524 . S
C6259 C6263 1.400 . S
C6260 H6245 0.960 . S
C6260 H6246 0.960 . S
C6260 H6247 0.960 . S
C6260 C6259 1.524 . S
C6261 C6258 1.403 . S
C6261 C6262 1.392 . S
C6261 C6265 1.495 . S
C6262 C6261 1.392 . S
C6262 C6263 1.385 . S
C6262 C6264 1.478 . S
C6263 H6257 0.930 . S
C6263 C6259 1.400 . S
C6263 C6262 1.385 . S
C6264 C6262 1.478 . S
C6264 C6266 1.381 . S
C6264 C6270 1.383 . S
C6265 C6261 1.495 . S
C6265 H6271 0.959 . S
C6265 H6272 0.961 . S
C6265 H6273 0.960 . S
C6266 C6264 1.381 . S
C6266 C6267 1.394 . S
C6266 H6274 0.930 . S
C6267 C6266 1.394 . S
C6267 C6268 1.383 . S
C6267 H6275 0.929 . S
C6268 C6267 1.383 . S
C6268 C6269 1.377 . S
C6269 H6253 0.930 . S
C6269 C6268 1.377 . S
C6269 C6270 1.379 . S
C6270 H6254 0.931 . S
C6270 C6264 1.383 . S
C6270 C6269 1.379 . S
H6271 C6265 0.959 . S
H6272 C6265 0.961 . S
H6273 C6265 0.960 . S
H6274 C6266 0.930 . S
H6275 C6267 0.929 . S
H6276 C6284 0.929 . S
H6277 C6286 0.930 . S
H6278 C6288 0.930 . S
H6279 C6291 0.929 . S
H6280 C6294 0.930 . S
H6281 C6296 0.960 . S
H6282 C6296 0.960 . S
H6283 C6296 0.960 . S
C6284 H6276 0.929 . S
C6284 C6285 1.377 . S
C6284 C6286 1.384 . S
C6285 C6284 1.377 . S
C6285 C6291 1.390 . S
C6286 H6277 0.930 . S
C6286 C6284 1.384 . S
C6286 C6287 1.372 . S
C6287 C6286 1.372 . S
C6287 C6288 1.400 . S
C6287 C6292 1.490 . S
C6288 H6278 0.930 . S
C6288 C6287 1.400 . S
C6288 C6291 1.386 . S
H6289 C6305 0.930 . S
H6290 C6306 0.931 . S
C6291 H6279 0.929 . S
C6291 C6285 1.390 . S
C6291 C6288 1.386 . S
C6292 C6287 1.490 . S
C6292 C6294 1.395 . S
C6292 C6295 1.403 . S
H6293 C6299 0.930 . S
C6294 H6280 0.930 . S
C6294 C6292 1.395 . S
C6294 C6297 1.403 . S
C6295 C6292 1.403 . S
C6295 C6296 1.524 . S
C6295 C6299 1.400 . S
C6296 H6281 0.960 . S
C6296 H6282 0.960 . S
C6296 H6283 0.960 . S
C6296 C6295 1.524 . S
C6297 C6294 1.403 . S
C6297 C6298 1.392 . S
C6297 C6301 1.495 . S
C6298 C6297 1.392 . S
C6298 C6299 1.385 . S
C6298 C6300 1.478 . S
C6299 H6293 0.930 . S
C6299 C6295 1.400 . S
C6299 C6298 1.385 . S
C6300 C6298 1.478 . S
C6300 C6302 1.381 . S
C6300 C6306 1.383 . S
C6301 C6297 1.495 . S
C6301 H6307 0.959 . S
C6301 H6308 0.961 . S
C6301 H6309 0.960 . S
C6302 C6300 1.381 . S
C6302 C6303 1.394 . S
C6302 H6310 0.930 . S
C6303 C6302 1.394 . S
C6303 C6304 1.383 . S
C6303 H6311 0.929 . S
C6304 C6303 1.383 . S
C6304 C6305 1.377 . S
C6305 H6289 0.930 . S
C6305 C6304 1.377 . S
C6305 C6306 1.379 . S
C6306 H6290 0.931 . S
C6306 C6300 1.383 . S
C6306 C6305 1.379 . S
H6307 C6301 0.959 . S
H6308 C6301 0.961 . S
H6309 C6301 0.960 . S
H6310 C6302 0.930 . S
H6311 C6303 0.929 . S
H6312 C6320 0.929 . S
H6313 C6322 0.930 . S
H6314 C6324 0.930 . S
H6315 C6327 0.929 . S
H6316 C6330 0.930 . S
H6317 C6332 0.960 . S
H6318 C6332 0.960 . S
H6319 C6332 0.960 . S
C6320 H6312 0.929 . S
C6320 C6321 1.377 . S
C6320 C6322 1.384 . S
C6321 C6320 1.377 . S
C6321 C6327 1.390 . S
C6322 H6313 0.930 . S
C6322 C6320 1.384 . S
C6322 C6323 1.372 . S
C6323 C6322 1.372 . S
C6323 C6324 1.400 . S
C6323 C6328 1.490 . S
C6324 H6314 0.930 . S
C6324 C6323 1.400 . S
C6324 C6327 1.386 . S
H6325 C6341 0.930 . S
H6326 C6342 0.931 . S
C6327 H6315 0.929 . S
C6327 C6321 1.390 . S
C6327 C6324 1.386 . S
C6328 C6323 1.490 . S
C6328 C6330 1.395 . S
C6328 C6331 1.403 . S
H6329 C6335 0.930 . S
C6330 H6316 0.930 . S
C6330 C6328 1.395 . S
C6330 C6333 1.403 . S
C6331 C6328 1.403 . S
C6331 C6332 1.524 . S
C6331 C6335 1.400 . S
C6332 H6317 0.960 . S
C6332 H6318 0.960 . S
C6332 H6319 0.960 . S
C6332 C6331 1.524 . S
C6333 C6330 1.403 . S
C6333 C6334 1.392 . S
C6333 C6337 1.495 . S
C6334 C6333 1.392 . S
C6334 C6335 1.385 . S
C6334 C6336 1.478 . S
C6335 H6329 0.930 . S
C6335 C6331 1.400 . S
C6335 C6334 1.385 . S
C6336 C6334 1.478 . S
C6336 C6338 1.381 . S
C6336 C6342 1.383 . S
C6337 C6333 1.495 . S
C6337 H6343 0.959 . S
C6337 H6344 0.961 . S
C6337 H6345 0.960 . S
C6338 C6336 1.381 . S
C6338 C6339 1.394 . S
C6338 H6346 0.930 . S
C6339 C6338 1.394 . S
C6339 C6340 1.383 . S
C6339 H6347 0.929 . S
C6340 C6339 1.383 . S
C6340 C6341 1.377 . S
C6341 H6325 0.930 . S
C6341 C6340 1.377 . S
C6341 C6342 1.379 . S
C6342 H6326 0.931 . S
C6342 C6336 1.383 . S
C6342 C6341 1.379 . S
H6343 C6337 0.959 . S
H6344 C6337 0.961 . S
H6345 C6337 0.960 . S
H6346 C6338 0.930 . S
H6347 C6339 0.929 . S
H6348 C6356 0.929 . S
H6349 C6358 0.930 . S
H6350 C6360 0.930 . S
H6351 C6363 0.929 . S
H6352 C6366 0.930 . S
H6353 C6368 0.960 . S
H6354 C6368 0.960 . S
H6355 C6368 0.960 . S
C6356 H6348 0.929 . S
C6356 C6357 1.377 . S
C6356 C6358 1.384 . S
C6357 C6356 1.377 . S
C6357 C6363 1.390 . S
C6358 H6349 0.930 . S
C6358 C6356 1.384 . S
C6358 C6359 1.372 . S
C6359 C6358 1.372 . S
C6359 C6360 1.400 . S
C6359 C6364 1.490 . S
C6360 H6350 0.930 . S
C6360 C6359 1.400 . S
C6360 C6363 1.386 . S
H6361 C6377 0.930 . S
H6362 C6378 0.931 . S
C6363 H6351 0.929 . S
C6363 C6357 1.390 . S
C6363 C6360 1.386 . S
C6364 C6359 1.490 . S
C6364 C6366 1.395 . S
C6364 C6367 1.403 . S
H6365 C6371 0.930 . S
C6366 H6352 0.930 . S
C6366 C6364 1.395 . S
C6366 C6369 1.403 . S
C6367 C6364 1.403 . S
C6367 C6368 1.524 . S
C6367 C6371 1.400 . S
C6368 H6353 0.960 . S
C6368 H6354 0.960 . S
C6368 H6355 0.960 . S
C6368 C6367 1.524 . S
C6369 C6366 1.403 . S
C6369 C6370 1.392 . S
C6369 C6373 1.495 . S
C6370 C6369 1.392 . S
C6370 C6371 1.385 . S
C6370 C6372 1.478 . S
C6371 H6365 0.930 . S
C6371 C6367 1.400 . S
C6371 C6370 1.385 . S
C6372 C6370 1.478 . S
C6372 C6374 1.381 . S
C6372 C6378 1.383 . S
C6373 C6369 1.495 . S
C6373 H6379 0.959 . S
C6373 H6380 0.961 . S
C6373 H6381 0.960 . S
C6374 C6372 1.381 . S
C6374 C6375 1.394 . S
C6374 H6382 0.930 . S
C6375 C6374 1.394 . S
C6375 C6376 1.383 . S
C6375 H6383 0.929 . S
C6376 C6375 1.383 . S
C6376 C6377 1.377 . S
C6377 H6361 0.930 . S
C6377 C6376 1.377 . S
C6377 C6378 1.379 . S
C6378 H6362 0.931 . S
C6378 C6372 1.383 . S
C6378 C6377 1.379 . S
H6379 C6373 0.959 . S
H6380 C6373 0.961 . S
H6381 C6373 0.960 . S
H6382 C6374 0.930 . S
H6383 C6375 0.929 . S
H6384 C6392 0.929 . S
H6385 C6394 0.930 . S
H6386 C6396 0.930 . S
H6387 C6399 0.929 . S
H6388 C6402 0.930 . S
H6389 C6404 0.960 . S
H6390 C6404 0.960 . S
H6391 C6404 0.960 . S
C6392 H6384 0.929 . S
C6392 C6393 1.377 . S
C6392 C6394 1.384 . S
C6393 C6392 1.377 . S
C6393 C6399 1.390 . S
C6394 H6385 0.930 . S
C6394 C6392 1.384 . S
C6394 C6395 1.372 . S
C6395 C6394 1.372 . S
C6395 C6396 1.400 . S
C6395 C6400 1.490 . S
C6396 H6386 0.930 . S
C6396 C6395 1.400 . S
C6396 C6399 1.386 . S
H6397 C6413 0.930 . S
H6398 C6414 0.931 . S
C6399 H6387 0.929 . S
C6399 C6393 1.390 . S
C6399 C6396 1.386 . S
C6400 C6395 1.490 . S
C6400 C6402 1.395 . S
C6400 C6403 1.403 . S
H6401 C6407 0.930 . S
C6402 H6388 0.930 . S
C6402 C6400 1.395 . S
C6402 C6405 1.403 . S
C6403 C6400 1.403 . S
C6403 C6404 1.524 . S
C6403 C6407 1.400 . S
C6404 H6389 0.960 . S
C6404 H6390 0.960 . S
C6404 H6391 0.960 . S
C6404 C6403 1.524 . S
C6405 C6402 1.403 . S
C6405 C6406 1.392 . S
C6405 C6409 1.495 . S
C6406 C6405 1.392 . S
C6406 C6407 1.385 . S
C6406 C6408 1.478 . S
C6407 H6401 0.930 . S
C6407 C6403 1.400 . S
C6407 C6406 1.385 . S
C6408 C6406 1.478 . S
C6408 C6410 1.381 . S
C6408 C6414 1.383 . S
C6409 C6405 1.495 . S
C6409 H6415 0.959 . S
C6409 H6416 0.961 . S
C6409 H6417 0.960 . S
C6410 C6408 1.381 . S
C6410 C6411 1.394 . S
C6410 H6418 0.930 . S
C6411 C6410 1.394 . S
C6411 C6412 1.383 . S
C6411 H6419 0.929 . S
C6412 C6411 1.383 . S
C6412 C6413 1.377 . S
C6413 H6397 0.930 . S
C6413 C6412 1.377 . S
C6413 C6414 1.379 . S
C6414 H6398 0.931 . S
C6414 C6408 1.383 . S
C6414 C6413 1.379 . S
H6415 C6409 0.959 . S
H6416 C6409 0.961 . S
H6417 C6409 0.960 . S
H6418 C6410 0.930 . S
H6419 C6411 0.929 . S
H6420 C6428 0.929 . S
H6421 C6430 0.930 . S
H6422 C6432 0.930 . S
H6423 C6435 0.929 . S
H6424 C6438 0.930 . S
H6425 C6440 0.960 . S
H6426 C6440 0.960 . S
H6427 C6440 0.960 . S
C6428 H6420 0.929 . S
C6428 C6429 1.377 . S
C6428 C6430 1.384 . S
C6429 C6428 1.377 . S
C6429 C6435 1.390 . S
C6430 H6421 0.930 . S
C6430 C6428 1.384 . S
C6430 C6431 1.372 . S
C6431 C6430 1.372 . S
C6431 C6432 1.400 . S
C6431 C6436 1.490 . S
C6432 H6422 0.930 . S
C6432 C6431 1.400 . S
C6432 C6435 1.386 . S
H6433 C6449 0.930 . S
H6434 C6450 0.931 . S
C6435 H6423 0.929 . S
C6435 C6429 1.390 . S
C6435 C6432 1.386 . S
C6436 C6431 1.490 . S
C6436 C6438 1.395 . S
C6436 C6439 1.403 . S
H6437 C6443 0.930 . S
C6438 H6424 0.930 . S
C6438 C6436 1.395 . S
C6438 C6441 1.403 . S
C6439 C6436 1.403 . S
C6439 C6440 1.524 . S
C6439 C6443 1.400 . S
C6440 H6425 0.960 . S
C6440 H6426 0.960 . S
C6440 H6427 0.960 . S
C6440 C6439 1.524 . S
C6441 C6438 1.403 . S
C6441 C6442 1.392 . S
C6441 C6445 1.495 . S
C6442 C6441 1.392 . S
C6442 C6443 1.385 . S
C6442 C6444 1.478 . S
C6443 H6437 0.930 . S
C6443 C6439 1.400 . S
C6443 C6442 1.385 . S
C6444 C6442 1.478 . S
C6444 C6446 1.381 . S
C6444 C6450 1.383 . S
C6445 C6441 1.495 . S
C6445 H6451 0.959 . S
C6445 H6452 0.961 . S
C6445 H6453 0.960 . S
C6446 C6444 1.381 . S
C6446 C6447 1.394 . S
C6446 H6454 0.930 . S
C6447 C6446 1.394 . S
C6447 C6448 1.383 . S
C6447 H6455 0.929 . S
C6448 C6447 1.383 . S
C6448 C6449 1.377 . S
C6449 H6433 0.930 . S
C6449 C6448 1.377 . S
C6449 C6450 1.379 . S
C6450 H6434 0.931 . S
C6450 C6444 1.383 . S
C6450 C6449 1.379 . S
H6451 C6445 0.959 . S
H6452 C6445 0.961 . S
H6453 C6445 0.960 . S
H6454 C6446 0.930 . S
H6455 C6447 0.929 . S
H6456 C6464 0.929 . S
H6457 C6466 0.930 . S
H6458 C6468 0.930 . S
H6459 C6471 0.929 . S
H6460 C6474 0.930 . S
H6461 C6476 0.960 . S
H6462 C6476 0.960 . S
H6463 C6476 0.960 . S
C6464 H6456 0.929 . S
C6464 C6465 1.377 . S
C6464 C6466 1.384 . S
C6465 C6464 1.377 . S
C6465 C6471 1.390 . S
C6466 H6457 0.930 . S
C6466 C6464 1.384 . S
C6466 C6467 1.372 . S
C6467 C6466 1.372 . S
C6467 C6468 1.400 . S
C6467 C6472 1.490 . S
C6468 H6458 0.930 . S
C6468 C6467 1.400 . S
C6468 C6471 1.386 . S
H6469 C6485 0.930 . S
H6470 C6486 0.931 . S
C6471 H6459 0.929 . S
C6471 C6465 1.390 . S
C6471 C6468 1.386 . S
C6472 C6467 1.490 . S
C6472 C6474 1.395 . S
C6472 C6475 1.403 . S
H6473 C6479 0.930 . S
C6474 H6460 0.930 . S
C6474 C6472 1.395 . S
C6474 C6477 1.403 . S
C6475 C6472 1.403 . S
C6475 C6476 1.524 . S
C6475 C6479 1.400 . S
C6476 H6461 0.960 . S
C6476 H6462 0.960 . S
C6476 H6463 0.960 . S
C6476 C6475 1.524 . S
C6477 C6474 1.403 . S
C6477 C6478 1.392 . S
C6477 C6481 1.495 . S
C6478 C6477 1.392 . S
C6478 C6479 1.385 . S
C6478 C6480 1.478 . S
C6479 H6473 0.930 . S
C6479 C6475 1.400 . S
C6479 C6478 1.385 . S
C6480 C6478 1.478 . S
C6480 C6482 1.381 . S
C6480 C6486 1.383 . S
C6481 C6477 1.495 . S
C6481 H6487 0.959 . S
C6481 H6488 0.961 . S
C6481 H6489 0.960 . S
C6482 C6480 1.381 . S
C6482 C6483 1.394 . S
C6482 H6490 0.930 . S
C6483 C6482 1.394 . S
C6483 C6484 1.383 . S
C6483 H6491 0.929 . S
C6484 C6483 1.383 . S
C6484 C6485 1.377 . S
C6485 H6469 0.930 . S
C6485 C6484 1.377 . S
C6485 C6486 1.379 . S
C6486 H6470 0.931 . S
C6486 C6480 1.383 . S
C6486 C6485 1.379 . S
H6487 C6481 0.959 . S
H6488 C6481 0.961 . S
H6489 C6481 0.960 . S
H6490 C6482 0.930 . S
H6491 C6483 0.929 . S
H6492 C6500 0.929 . S
H6493 C6502 0.930 . S
H6494 C6504 0.930 . S
H6495 C6507 0.929 . S
H6496 C6510 0.930 . S
H6497 C6512 0.960 . S
H6498 C6512 0.960 . S
H6499 C6512 0.960 . S
C6500 H6492 0.929 . S
C6500 C6501 1.377 . S
C6500 C6502 1.384 . S
C6501 C6500 1.377 . S
C6501 C6507 1.390 . S
C6502 H6493 0.930 . S
C6502 C6500 1.384 . S
C6502 C6503 1.372 . S
C6503 C6502 1.372 . S
C6503 C6504 1.400 . S
C6503 C6508 1.490 . S
C6504 H6494 0.930 . S
C6504 C6503 1.400 . S
C6504 C6507 1.386 . S
H6505 C6521 0.930 . S
H6506 C6522 0.931 . S
C6507 H6495 0.929 . S
C6507 C6501 1.390 . S
C6507 C6504 1.386 . S
C6508 C6503 1.490 . S
C6508 C6510 1.395 . S
C6508 C6511 1.403 . S
H6509 C6515 0.930 . S
C6510 H6496 0.930 . S
C6510 C6508 1.395 . S
C6510 C6513 1.403 . S
C6511 C6508 1.403 . S
C6511 C6512 1.524 . S
C6511 C6515 1.400 . S
C6512 H6497 0.960 . S
C6512 H6498 0.960 . S
C6512 H6499 0.960 . S
C6512 C6511 1.524 . S
C6513 C6510 1.403 . S
C6513 C6514 1.392 . S
C6513 C6517 1.495 . S
C6514 C6513 1.392 . S
C6514 C6515 1.385 . S
C6514 C6516 1.478 . S
C6515 H6509 0.930 . S
C6515 C6511 1.400 . S
C6515 C6514 1.385 . S
C6516 C6514 1.478 . S
C6516 C6518 1.381 . S
C6516 C6522 1.383 . S
C6517 C6513 1.495 . S
C6517 H6523 0.959 . S
C6517 H6524 0.961 . S
C6517 H6525 0.960 . S
C6518 C6516 1.381 . S
C6518 C6519 1.394 . S
C6518 H6526 0.930 . S
C6519 C6518 1.394 . S
C6519 C6520 1.383 . S
C6519 H6527 0.929 . S
C6520 C6519 1.383 . S
C6520 C6521 1.377 . S
C6521 H6505 0.930 . S
C6521 C6520 1.377 . S
C6521 C6522 1.379 . S
C6522 H6506 0.931 . S
C6522 C6516 1.383 . S
C6522 C6521 1.379 . S
H6523 C6517 0.959 . S
H6524 C6517 0.961 . S
H6525 C6517 0.960 . S
H6526 C6518 0.930 . S
H6527 C6519 0.929 . S
H6528 C6536 0.929 . S
H6529 C6538 0.930 . S
H6530 C6540 0.930 . S
H6531 C6543 0.929 . S
H6532 C6546 0.930 . S
H6533 C6548 0.960 . S
H6534 C6548 0.960 . S
H6535 C6548 0.960 . S
C6536 H6528 0.929 . S
C6536 C6537 1.377 . S
C6536 C6538 1.384 . S
C6537 C6536 1.377 . S
C6537 C6543 1.390 . S
C6538 H6529 0.930 . S
C6538 C6536 1.384 . S
C6538 C6539 1.372 . S
C6539 C6538 1.372 . S
C6539 C6540 1.400 . S
C6539 C6544 1.490 . S
C6540 H6530 0.930 . S
C6540 C6539 1.400 . S
C6540 C6543 1.386 . S
H6541 C6557 0.930 . S
H6542 C6558 0.931 . S
C6543 H6531 0.929 . S
C6543 C6537 1.390 . S
C6543 C6540 1.386 . S
C6544 C6539 1.490 . S
C6544 C6546 1.395 . S
C6544 C6547 1.403 . S
H6545 C6551 0.930 . S
C6546 H6532 0.930 . S
C6546 C6544 1.395 . S
C6546 C6549 1.403 . S
C6547 C6544 1.403 . S
C6547 C6548 1.524 . S
C6547 C6551 1.400 . S
C6548 H6533 0.960 . S
C6548 H6534 0.960 . S
C6548 H6535 0.960 . S
C6548 C6547 1.524 . S
C6549 C6546 1.403 . S
C6549 C6550 1.392 . S
C6549 C6553 1.495 . S
C6550 C6549 1.392 . S
C6550 C6551 1.385 . S
C6550 C6552 1.478 . S
C6551 H6545 0.930 . S
C6551 C6547 1.400 . S
C6551 C6550 1.385 . S
C6552 C6550 1.478 . S
C6552 C6554 1.381 . S
C6552 C6558 1.383 . S
C6553 C6549 1.495 . S
C6553 H6559 0.959 . S
C6553 H6560 0.961 . S
C6553 H6561 0.960 . S
C6554 C6552 1.381 . S
C6554 C6555 1.394 . S
C6554 H6562 0.930 . S
C6555 C6554 1.394 . S
C6555 C6556 1.383 . S
C6555 H6563 0.929 . S
C6556 C6555 1.383 . S
C6556 C6557 1.377 . S
C6557 H6541 0.930 . S
C6557 C6556 1.377 . S
C6557 C6558 1.379 . S
C6558 H6542 0.931 . S
C6558 C6552 1.383 . S
C6558 C6557 1.379 . S
H6559 C6553 0.959 . S
H6560 C6553 0.961 . S
H6561 C6553 0.960 . S
H6562 C6554 0.930 . S
H6563 C6555 0.929 . S
H6564 C6572 0.929 . S
H6565 C6574 0.930 . S
H6566 C6576 0.930 . S
H6567 C6579 0.929 . S
H6568 C6582 0.930 . S
H6569 C6584 0.960 . S
H6570 C6584 0.960 . S
H6571 C6584 0.960 . S
C6572 H6564 0.929 . S
C6572 C6573 1.377 . S
C6572 C6574 1.384 . S
C6573 C6572 1.377 . S
C6573 C6579 1.390 . S
C6574 H6565 0.930 . S
C6574 C6572 1.384 . S
C6574 C6575 1.372 . S
C6575 C6574 1.372 . S
C6575 C6576 1.400 . S
C6575 C6580 1.490 . S
C6576 H6566 0.930 . S
C6576 C6575 1.400 . S
C6576 C6579 1.386 . S
H6577 C6593 0.930 . S
H6578 C6594 0.931 . S
C6579 H6567 0.929 . S
C6579 C6573 1.390 . S
C6579 C6576 1.386 . S
C6580 C6575 1.490 . S
C6580 C6582 1.395 . S
C6580 C6583 1.403 . S
H6581 C6587 0.930 . S
C6582 H6568 0.930 . S
C6582 C6580 1.395 . S
C6582 C6585 1.403 . S
C6583 C6580 1.403 . S
C6583 C6584 1.524 . S
C6583 C6587 1.400 . S
C6584 H6569 0.960 . S
C6584 H6570 0.960 . S
C6584 H6571 0.960 . S
C6584 C6583 1.524 . S
C6585 C6582 1.403 . S
C6585 C6586 1.392 . S
C6585 C6589 1.495 . S
C6586 C6585 1.392 . S
C6586 C6587 1.385 . S
C6586 C6588 1.478 . S
C6587 H6581 0.930 . S
C6587 C6583 1.400 . S
C6587 C6586 1.385 . S
C6588 C6586 1.478 . S
C6588 C6590 1.381 . S
C6588 C6594 1.383 . S
C6589 C6585 1.495 . S
C6589 H6595 0.959 . S
C6589 H6596 0.961 . S
C6589 H6597 0.960 . S
C6590 C6588 1.381 . S
C6590 C6591 1.394 . S
C6590 H6598 0.930 . S
C6591 C6590 1.394 . S
C6591 C6592 1.383 . S
C6591 H6599 0.929 . S
C6592 C6591 1.383 . S
C6592 C6593 1.377 . S
C6593 H6577 0.930 . S
C6593 C6592 1.377 . S
C6593 C6594 1.379 . S
C6594 H6578 0.931 . S
C6594 C6588 1.383 . S
C6594 C6593 1.379 . S
H6595 C6589 0.959 . S
H6596 C6589 0.961 . S
H6597 C6589 0.960 . S
H6598 C6590 0.930 . S
H6599 C6591 0.929 . S
H6600 C6608 0.929 . S
H6601 C6610 0.930 . S
H6602 C6612 0.930 . S
H6603 C6615 0.929 . S
H6604 C6618 0.930 . S
H6605 C6620 0.960 . S
H6606 C6620 0.960 . S
H6607 C6620 0.960 . S
C6608 H6600 0.929 . S
C6608 C6609 1.377 . S
C6608 C6610 1.384 . S
C6609 C6608 1.377 . S
C6609 C6615 1.390 . S
C6610 H6601 0.930 . S
C6610 C6608 1.384 . S
C6610 C6611 1.372 . S
C6611 C6610 1.372 . S
C6611 C6612 1.400 . S
C6611 C6616 1.490 . S
C6612 H6602 0.930 . S
C6612 C6611 1.400 . S
C6612 C6615 1.386 . S
H6613 C6629 0.930 . S
H6614 C6630 0.931 . S
C6615 H6603 0.929 . S
C6615 C6609 1.390 . S
C6615 C6612 1.386 . S
C6616 C6611 1.490 . S
C6616 C6618 1.395 . S
C6616 C6619 1.403 . S
H6617 C6623 0.930 . S
C6618 H6604 0.930 . S
C6618 C6616 1.395 . S
C6618 C6621 1.403 . S
C6619 C6616 1.403 . S
C6619 C6620 1.524 . S
C6619 C6623 1.400 . S
C6620 H6605 0.960 . S
C6620 H6606 0.960 . S
C6620 H6607 0.960 . S
C6620 C6619 1.524 . S
C6621 C6618 1.403 . S
C6621 C6622 1.392 . S
C6621 C6625 1.495 . S
C6622 C6621 1.392 . S
C6622 C6623 1.385 . S
C6622 C6624 1.478 . S
C6623 H6617 0.930 . S
C6623 C6619 1.400 . S
C6623 C6622 1.385 . S
C6624 C6622 1.478 . S
C6624 C6626 1.381 . S
C6624 C6630 1.383 . S
C6625 C6621 1.495 . S
C6625 H6631 0.959 . S
C6625 H6632 0.961 . S
C6625 H6633 0.960 . S
C6626 C6624 1.381 . S
C6626 C6627 1.394 . S
C6626 H6634 0.930 . S
C6627 C6626 1.394 . S
C6627 C6628 1.383 . S
C6627 H6635 0.929 . S
C6628 C6627 1.383 . S
C6628 C6629 1.377 . S
C6629 H6613 0.930 . S
C6629 C6628 1.377 . S
C6629 C6630 1.379 . S
C6630 H6614 0.931 . S
C6630 C6624 1.383 . S
C6630 C6629 1.379 . S
H6631 C6625 0.959 . S
H6632 C6625 0.961 . S
H6633 C6625 0.960 . S
H6634 C6626 0.930 . S
H6635 C6627 0.929 . S
H6636 C6644 0.929 . S
H6637 C6646 0.930 . S
H6638 C6648 0.930 . S
H6639 C6651 0.929 . S
H6640 C6654 0.930 . S
H6641 C6656 0.960 . S
H6642 C6656 0.960 . S
H6643 C6656 0.960 . S
C6644 H6636 0.929 . S
C6644 C6645 1.377 . S
C6644 C6646 1.384 . S
C6645 C6644 1.377 . S
C6645 C6651 1.390 . S
C6646 H6637 0.930 . S
C6646 C6644 1.384 . S
C6646 C6647 1.372 . S
C6647 C6646 1.372 . S
C6647 C6648 1.400 . S
C6647 C6652 1.490 . S
C6648 H6638 0.930 . S
C6648 C6647 1.400 . S
C6648 C6651 1.386 . S
H6649 C6665 0.930 . S
H6650 C6666 0.931 . S
C6651 H6639 0.929 . S
C6651 C6645 1.390 . S
C6651 C6648 1.386 . S
C6652 C6647 1.490 . S
C6652 C6654 1.395 . S
C6652 C6655 1.403 . S
H6653 C6659 0.930 . S
C6654 H6640 0.930 . S
C6654 C6652 1.395 . S
C6654 C6657 1.403 . S
C6655 C6652 1.403 . S
C6655 C6656 1.524 . S
C6655 C6659 1.400 . S
C6656 H6641 0.960 . S
C6656 H6642 0.960 . S
C6656 H6643 0.960 . S
C6656 C6655 1.524 . S
C6657 C6654 1.403 . S
C6657 C6658 1.392 . S
C6657 C6661 1.495 . S
C6658 C6657 1.392 . S
C6658 C6659 1.385 . S
C6658 C6660 1.478 . S
C6659 H6653 0.930 . S
C6659 C6655 1.400 . S
C6659 C6658 1.385 . S
C6660 C6658 1.478 . S
C6660 C6662 1.381 . S
C6660 C6666 1.383 . S
C6661 C6657 1.495 . S
C6661 H6667 0.959 . S
C6661 H6668 0.961 . S
C6661 H6669 0.960 . S
C6662 C6660 1.381 . S
C6662 C6663 1.394 . S
C6662 H6670 0.930 . S
C6663 C6662 1.394 . S
C6663 C6664 1.383 . S
C6663 H6671 0.929 . S
C6664 C6663 1.383 . S
C6664 C6665 1.377 . S
C6665 H6649 0.930 . S
C6665 C6664 1.377 . S
C6665 C6666 1.379 . S
C6666 H6650 0.931 . S
C6666 C6660 1.383 . S
C6666 C6665 1.379 . S
H6667 C6661 0.959 . S
H6668 C6661 0.961 . S
H6669 C6661 0.960 . S
H6670 C6662 0.930 . S
H6671 C6663 0.929 . S
H6672 C6680 0.929 . S
H6673 C6682 0.930 . S
H6674 C6684 0.930 . S
H6675 C6687 0.929 . S
H6676 C6690 0.930 . S
H6677 C6692 0.960 . S
H6678 C6692 0.960 . S
H6679 C6692 0.960 . S
C6680 H6672 0.929 . S
C6680 C6681 1.377 . S
C6680 C6682 1.384 . S
C6681 C6680 1.377 . S
C6681 C6687 1.390 . S
C6682 H6673 0.930 . S
C6682 C6680 1.384 . S
C6682 C6683 1.372 . S
C6683 C6682 1.372 . S
C6683 C6684 1.400 . S
C6683 C6688 1.490 . S
C6684 H6674 0.930 . S
C6684 C6683 1.400 . S
C6684 C6687 1.386 . S
H6685 C6701 0.930 . S
H6686 C6702 0.931 . S
C6687 H6675 0.929 . S
C6687 C6681 1.390 . S
C6687 C6684 1.386 . S
C6688 C6683 1.490 . S
C6688 C6690 1.395 . S
C6688 C6691 1.403 . S
H6689 C6695 0.930 . S
C6690 H6676 0.930 . S
C6690 C6688 1.395 . S
C6690 C6693 1.403 . S
C6691 C6688 1.403 . S
C6691 C6692 1.524 . S
C6691 C6695 1.400 . S
C6692 H6677 0.960 . S
C6692 H6678 0.960 . S
C6692 H6679 0.960 . S
C6692 C6691 1.524 . S
C6693 C6690 1.403 . S
C6693 C6694 1.392 . S
C6693 C6697 1.495 . S
C6694 C6693 1.392 . S
C6694 C6695 1.385 . S
C6694 C6696 1.478 . S
C6695 H6689 0.930 . S
C6695 C6691 1.400 . S
C6695 C6694 1.385 . S
C6696 C6694 1.478 . S
C6696 C6698 1.381 . S
C6696 C6702 1.383 . S
C6697 C6693 1.495 . S
C6697 H6703 0.959 . S
C6697 H6704 0.961 . S
C6697 H6705 0.960 . S
C6698 C6696 1.381 . S
C6698 C6699 1.394 . S
C6698 H6706 0.930 . S
C6699 C6698 1.394 . S
C6699 C6700 1.383 . S
C6699 H6707 0.929 . S
C6700 C6699 1.383 . S
C6700 C6701 1.377 . S
C6701 H6685 0.930 . S
C6701 C6700 1.377 . S
C6701 C6702 1.379 . S
C6702 H6686 0.931 . S
C6702 C6696 1.383 . S
C6702 C6701 1.379 . S
H6703 C6697 0.959 . S
H6704 C6697 0.961 . S
H6705 C6697 0.960 . S
H6706 C6698 0.930 . S
H6707 C6699 0.929 . S
H6708 C6716 0.929 . S
H6709 C6718 0.930 . S
H6710 C6720 0.930 . S
H6711 C6723 0.929 . S
H6712 C6726 0.930 . S
H6713 C6728 0.960 . S
H6714 C6728 0.960 . S
H6715 C6728 0.960 . S
C6716 H6708 0.929 . S
C6716 C6717 1.377 . S
C6716 C6718 1.384 . S
C6717 C6716 1.377 . S
C6717 C6723 1.390 . S
C6718 H6709 0.930 . S
C6718 C6716 1.384 . S
C6718 C6719 1.372 . S
C6719 C6718 1.372 . S
C6719 C6720 1.400 . S
C6719 C6724 1.490 . S
C6720 H6710 0.930 . S
C6720 C6719 1.400 . S
C6720 C6723 1.386 . S
H6721 C6737 0.930 . S
H6722 C6738 0.931 . S
C6723 H6711 0.929 . S
C6723 C6717 1.390 . S
C6723 C6720 1.386 . S
C6724 C6719 1.490 . S
C6724 C6726 1.395 . S
C6724 C6727 1.403 . S
H6725 C6731 0.930 . S
C6726 H6712 0.930 . S
C6726 C6724 1.395 . S
C6726 C6729 1.403 . S
C6727 C6724 1.403 . S
C6727 C6728 1.524 . S
C6727 C6731 1.400 . S
C6728 H6713 0.960 . S
C6728 H6714 0.960 . S
C6728 H6715 0.960 . S
C6728 C6727 1.524 . S
C6729 C6726 1.403 . S
C6729 C6730 1.392 . S
C6729 C6733 1.495 . S
C6730 C6729 1.392 . S
C6730 C6731 1.385 . S
C6730 C6732 1.478 . S
C6731 H6725 0.930 . S
C6731 C6727 1.400 . S
C6731 C6730 1.385 . S
C6732 C6730 1.478 . S
C6732 C6734 1.381 . S
C6732 C6738 1.383 . S
C6733 C6729 1.495 . S
C6733 H6739 0.959 . S
C6733 H6740 0.961 . S
C6733 H6741 0.960 . S
C6734 C6732 1.381 . S
C6734 C6735 1.394 . S
C6734 H6742 0.930 . S
C6735 C6734 1.394 . S
C6735 C6736 1.383 . S
C6735 H6743 0.929 . S
C6736 C6735 1.383 . S
C6736 C6737 1.377 . S
C6737 H6721 0.930 . S
C6737 C6736 1.377 . S
C6737 C6738 1.379 . S
C6738 H6722 0.931 . S
C6738 C6732 1.383 . S
C6738 C6737 1.379 . S
H6739 C6733 0.959 . S
H6740 C6733 0.961 . S
H6741 C6733 0.960 . S
H6742 C6734 0.930 . S
H6743 C6735 0.929 . S
H6744 C6752 0.929 . S
H6745 C6754 0.930 . S
H6746 C6756 0.930 . S
H6747 C6759 0.929 . S
H6748 C6762 0.930 . S
H6749 C6764 0.960 . S
H6750 C6764 0.960 . S
H6751 C6764 0.960 . S
C6752 H6744 0.929 . S
C6752 C6753 1.377 . S
C6752 C6754 1.384 . S
C6753 C6752 1.377 . S
C6753 C6759 1.390 . S
C6754 H6745 0.930 . S
C6754 C6752 1.384 . S
C6754 C6755 1.372 . S
C6755 C6754 1.372 . S
C6755 C6756 1.400 . S
C6755 C6760 1.490 . S
C6756 H6746 0.930 . S
C6756 C6755 1.400 . S
C6756 C6759 1.386 . S
H6757 C6773 0.930 . S
H6758 C6774 0.931 . S
C6759 H6747 0.929 . S
C6759 C6753 1.390 . S
C6759 C6756 1.386 . S
C6760 C6755 1.490 . S
C6760 C6762 1.395 . S
C6760 C6763 1.403 . S
H6761 C6767 0.930 . S
C6762 H6748 0.930 . S
C6762 C6760 1.395 . S
C6762 C6765 1.403 . S
C6763 C6760 1.403 . S
C6763 C6764 1.524 . S
C6763 C6767 1.400 . S
C6764 H6749 0.960 . S
C6764 H6750 0.960 . S
C6764 H6751 0.960 . S
C6764 C6763 1.524 . S
C6765 C6762 1.403 . S
C6765 C6766 1.392 . S
C6765 C6769 1.495 . S
C6766 C6765 1.392 . S
C6766 C6767 1.385 . S
C6766 C6768 1.478 . S
C6767 H6761 0.930 . S
C6767 C6763 1.400 . S
C6767 C6766 1.385 . S
C6768 C6766 1.478 . S
C6768 C6770 1.381 . S
C6768 C6774 1.383 . S
C6769 C6765 1.495 . S
C6769 H6775 0.959 . S
C6769 H6776 0.961 . S
C6769 H6777 0.960 . S
C6770 C6768 1.381 . S
C6770 C6771 1.394 . S
C6770 H6778 0.930 . S
C6771 C6770 1.394 . S
C6771 C6772 1.383 . S
C6771 H6779 0.929 . S
C6772 C6771 1.383 . S
C6772 C6773 1.377 . S
C6773 H6757 0.930 . S
C6773 C6772 1.377 . S
C6773 C6774 1.379 . S
C6774 H6758 0.931 . S
C6774 C6768 1.383 . S
C6774 C6773 1.379 . S
H6775 C6769 0.959 . S
H6776 C6769 0.961 . S
H6777 C6769 0.960 . S
H6778 C6770 0.930 . S
H6779 C6771 0.929 . S
H6780 C6788 0.929 . S
H6781 C6790 0.930 . S
H6782 C6792 0.930 . S
H6783 C6795 0.929 1_565 S
H6784 C6798 0.930 . S
H6785 C6800 0.960 . S
H6786 C6800 0.960 . S
H6787 C6800 0.960 . S
C6788 H6780 0.929 . S
C6788 C6789 1.377 . S
C6788 C6790 1.384 . S
C6789 C6788 1.377 . S
C6789 C6795 1.390 . S
C6790 H6781 0.930 . S
C6790 C6788 1.384 . S
C6790 C6791 1.372 . S
C6791 C6790 1.372 . S
C6791 C6792 1.400 . S
C6791 C6796 1.490 . S
C6792 H6782 0.930 . S
C6792 C6791 1.400 . S
C6792 C6795 1.386 . S
H6793 C6809 0.930 . S
H6794 C6810 0.931 . S
C6795 H6783 0.929 1_545 S
C6795 C6789 1.390 . S
C6795 C6792 1.386 . S
C6796 C6791 1.490 . S
C6796 C6798 1.395 . S
C6796 C6799 1.403 . S
H6797 C6803 0.930 . S
C6798 H6784 0.930 . S
C6798 C6796 1.395 . S
C6798 C6801 1.403 . S
C6799 C6796 1.403 . S
C6799 C6800 1.524 . S
C6799 C6803 1.400 . S
C6800 H6785 0.960 . S
C6800 H6786 0.960 . S
C6800 H6787 0.960 . S
C6800 C6799 1.524 . S
C6801 C6798 1.403 . S
C6801 C6802 1.392 . S
C6801 C6805 1.495 . S
C6802 C6801 1.392 . S
C6802 C6803 1.385 . S
C6802 C6804 1.478 . S
C6803 H6797 0.930 . S
C6803 C6799 1.400 . S
C6803 C6802 1.385 . S
C6804 C6802 1.478 . S
C6804 C6806 1.381 . S
C6804 C6810 1.383 . S
C6805 C6801 1.495 . S
C6805 H6811 0.959 . S
C6805 H6812 0.961 . S
C6805 H6813 0.960 . S
C6806 C6804 1.381 . S
C6806 C6807 1.394 . S
C6806 H6814 0.930 . S
C6807 C6806 1.394 . S
C6807 C6808 1.383 . S
C6807 H6815 0.929 . S
C6808 C6807 1.383 . S
C6808 C6809 1.377 . S
C6809 H6793 0.930 . S
C6809 C6808 1.377 . S
C6809 C6810 1.379 . S
C6810 H6794 0.931 . S
C6810 C6804 1.383 . S
C6810 C6809 1.379 . S
H6811 C6805 0.959 . S
H6812 C6805 0.961 . S
H6813 C6805 0.960 . S
H6814 C6806 0.930 . S
H6815 C6807 0.929 . S
H6816 C6824 0.929 . S
H6817 C6826 0.930 . S
H6818 C6828 0.930 . S
H6819 C6831 0.929 . S
H6820 C6834 0.930 . S
H6821 C6836 0.960 . S
H6822 C6836 0.960 . S
H6823 C6836 0.960 . S
C6824 H6816 0.929 . S
C6824 C6825 1.377 . S
C6824 C6826 1.384 . S
C6825 C6824 1.377 . S
C6825 C6831 1.390 . S
C6826 H6817 0.930 . S
C6826 C6824 1.384 . S
C6826 C6827 1.372 . S
C6827 C6826 1.372 . S
C6827 C6828 1.400 . S
C6827 C6832 1.490 . S
C6828 H6818 0.930 . S
C6828 C6827 1.400 . S
C6828 C6831 1.386 . S
H6829 C6845 0.930 . S
H6830 C6846 0.931 . S
C6831 H6819 0.929 . S
C6831 C6825 1.390 . S
C6831 C6828 1.386 . S
C6832 C6827 1.490 . S
C6832 C6834 1.395 . S
C6832 C6835 1.403 . S
H6833 C6839 0.930 . S
C6834 H6820 0.930 . S
C6834 C6832 1.395 . S
C6834 C6837 1.403 . S
C6835 C6832 1.403 . S
C6835 C6836 1.524 . S
C6835 C6839 1.400 . S
C6836 H6821 0.960 . S
C6836 H6822 0.960 . S
C6836 H6823 0.960 . S
C6836 C6835 1.524 . S
C6837 C6834 1.403 . S
C6837 C6838 1.392 . S
C6837 C6841 1.495 . S
C6838 C6837 1.392 . S
C6838 C6839 1.385 . S
C6838 C6840 1.478 . S
C6839 H6833 0.930 . S
C6839 C6835 1.400 . S
C6839 C6838 1.385 . S
C6840 C6838 1.478 . S
C6840 C6842 1.381 . S
C6840 C6846 1.383 . S
C6841 C6837 1.495 . S
C6841 H6847 0.959 . S
C6841 H6848 0.961 . S
C6841 H6849 0.960 . S
C6842 C6840 1.381 . S
C6842 C6843 1.394 . S
C6842 H6850 0.930 . S
C6843 C6842 1.394 . S
C6843 C6844 1.383 . S
C6843 H6851 0.929 . S
C6844 C6843 1.383 . S
C6844 C6845 1.377 . S
C6845 H6829 0.930 . S
C6845 C6844 1.377 . S
C6845 C6846 1.379 . S
C6846 H6830 0.931 . S
C6846 C6840 1.383 . S
C6846 C6845 1.379 . S
H6847 C6841 0.959 . S
H6848 C6841 0.961 . S
H6849 C6841 0.960 . S
H6850 C6842 0.930 . S
H6851 C6843 0.929 . S
H6852 C6860 0.929 . S
H6853 C6862 0.930 . S
H6854 C6864 0.930 . S
H6855 C6867 0.929 . S
H6856 C6870 0.930 . S
H6857 C6872 0.960 . S
H6858 C6872 0.960 . S
H6859 C6872 0.960 . S
C6860 H6852 0.929 . S
C6860 C6861 1.377 . S
C6860 C6862 1.384 . S
C6861 C6860 1.377 . S
C6861 C6867 1.390 . S
C6862 H6853 0.930 . S
C6862 C6860 1.384 . S
C6862 C6863 1.372 . S
C6863 C6862 1.372 . S
C6863 C6864 1.400 . S
C6863 C6868 1.490 . S
C6864 H6854 0.930 . S
C6864 C6863 1.400 . S
C6864 C6867 1.386 . S
H6865 C6881 0.930 . S
H6866 C6882 0.931 . S
C6867 H6855 0.929 . S
C6867 C6861 1.390 . S
C6867 C6864 1.386 . S
C6868 C6863 1.490 . S
C6868 C6870 1.395 . S
C6868 C6871 1.403 . S
H6869 C6875 0.930 . S
C6870 H6856 0.930 . S
C6870 C6868 1.395 . S
C6870 C6873 1.403 . S
C6871 C6868 1.403 . S
C6871 C6872 1.524 . S
C6871 C6875 1.400 . S
C6872 H6857 0.960 . S
C6872 H6858 0.960 . S
C6872 H6859 0.960 . S
C6872 C6871 1.524 . S
C6873 C6870 1.403 . S
C6873 C6874 1.392 . S
C6873 C6877 1.495 . S
C6874 C6873 1.392 . S
C6874 C6875 1.385 . S
C6874 C6876 1.478 . S
C6875 H6869 0.930 . S
C6875 C6871 1.400 . S
C6875 C6874 1.385 . S
C6876 C6874 1.478 . S
C6876 C6878 1.381 . S
C6876 C6882 1.383 . S
C6877 C6873 1.495 . S
C6877 H6883 0.959 . S
C6877 H6884 0.961 . S
C6877 H6885 0.960 . S
C6878 C6876 1.381 . S
C6878 C6879 1.394 . S
C6878 H6886 0.930 . S
C6879 C6878 1.394 . S
C6879 C6880 1.383 . S
C6879 H6887 0.929 . S
C6880 C6879 1.383 . S
C6880 C6881 1.377 . S
C6881 H6865 0.930 . S
C6881 C6880 1.377 . S
C6881 C6882 1.379 . S
C6882 H6866 0.931 . S
C6882 C6876 1.383 . S
C6882 C6881 1.379 . S
H6883 C6877 0.959 . S
H6884 C6877 0.961 . S
H6885 C6877 0.960 . S
H6886 C6878 0.930 . S
H6887 C6879 0.929 . S
H6888 C6896 0.929 . S
H6889 C6898 0.930 . S
H6890 C6900 0.930 . S
H6891 C6903 0.929 . S
H6892 C6906 0.930 . S
H6893 C6908 0.960 . S
H6894 C6908 0.960 . S
H6895 C6908 0.960 . S
C6896 H6888 0.929 . S
C6896 C6897 1.377 . S
C6896 C6898 1.384 1_554 S
C6897 C6896 1.377 . S
C6897 C6903 1.390 . S
C6898 H6889 0.930 . S
C6898 C6896 1.384 1_556 S
C6898 C6899 1.372 . S
C6899 C6898 1.372 . S
C6899 C6900 1.400 . S
C6899 C6904 1.490 . S
C6900 H6890 0.930 . S
C6900 C6899 1.400 . S
C6900 C6903 1.386 1_556 S
H6901 C6917 0.930 . S
H6902 C6918 0.931 . S
C6903 H6891 0.929 . S
C6903 C6897 1.390 . S
C6903 C6900 1.386 1_554 S
C6904 C6899 1.490 . S
C6904 C6906 1.395 . S
C6904 C6907 1.403 . S
H6905 C6911 0.930 . S
C6906 H6892 0.930 . S
C6906 C6904 1.395 . S
C6906 C6909 1.403 . S
C6907 C6904 1.403 . S
C6907 C6908 1.524 . S
C6907 C6911 1.400 . S
C6908 H6893 0.960 . S
C6908 H6894 0.960 . S
C6908 H6895 0.960 . S
C6908 C6907 1.524 . S
C6909 C6906 1.403 . S
C6909 C6910 1.392 . S
C6909 C6913 1.495 . S
C6910 C6909 1.392 . S
C6910 C6911 1.385 . S
C6910 C6912 1.478 . S
C6911 H6905 0.930 . S
C6911 C6907 1.400 . S
C6911 C6910 1.385 . S
C6912 C6910 1.478 . S
C6912 C6914 1.381 . S
C6912 C6918 1.383 . S
C6913 C6909 1.495 . S
C6913 H6919 0.959 . S
C6913 H6920 0.961 . S
C6913 H6921 0.960 . S
C6914 C6912 1.381 . S
C6914 C6915 1.394 . S
C6914 H6922 0.930 . S
C6915 C6914 1.394 . S
C6915 C6916 1.383 . S
C6915 H6923 0.929 . S
C6916 C6915 1.383 . S
C6916 C6917 1.377 . S
C6917 H6901 0.930 . S
C6917 C6916 1.377 . S
C6917 C6918 1.379 . S
C6918 H6902 0.931 . S
C6918 C6912 1.383 . S
C6918 C6917 1.379 . S
H6919 C6913 0.959 . S
H6920 C6913 0.961 . S
H6921 C6913 0.960 . S
H6922 C6914 0.930 . S
H6923 C6915 0.929 . S
H6924 C6932 0.929 . S
H6925 C6934 0.930 . S
H6926 C6936 0.930 . S
H6927 C6939 0.929 . S
H6928 C6942 0.930 . S
H6929 C6944 0.960 . S
H6930 C6944 0.960 . S
H6931 C6944 0.960 . S
C6932 H6924 0.929 . S
C6932 C6933 1.377 . S
C6932 C6934 1.384 . S
C6933 C6932 1.377 . S
C6933 C6939 1.390 . S
C6934 H6925 0.930 . S
C6934 C6932 1.384 . S
C6934 C6935 1.372 . S
C6935 C6934 1.372 . S
C6935 C6936 1.400 . S
C6935 C6940 1.490 . S
C6936 H6926 0.930 . S
C6936 C6935 1.400 . S
C6936 C6939 1.386 . S
H6937 C6953 0.930 . S
H6938 C6954 0.931 . S
C6939 H6927 0.929 . S
C6939 C6933 1.390 . S
C6939 C6936 1.386 . S
C6940 C6935 1.490 . S
C6940 C6942 1.395 . S
C6940 C6943 1.403 . S
H6941 C6947 0.930 . S
C6942 H6928 0.930 . S
C6942 C6940 1.395 . S
C6942 C6945 1.403 . S
C6943 C6940 1.403 . S
C6943 C6944 1.524 . S
C6943 C6947 1.400 . S
C6944 H6929 0.960 . S
C6944 H6930 0.960 . S
C6944 H6931 0.960 . S
C6944 C6943 1.524 . S
C6945 C6942 1.403 . S
C6945 C6946 1.392 . S
C6945 C6949 1.495 . S
C6946 C6945 1.392 . S
C6946 C6947 1.385 . S
C6946 C6948 1.478 . S
C6947 H6941 0.930 . S
C6947 C6943 1.400 . S
C6947 C6946 1.385 . S
C6948 C6946 1.478 . S
C6948 C6950 1.381 . S
C6948 C6954 1.383 . S
C6949 C6945 1.495 . S
C6949 H6955 0.959 . S
C6949 H6956 0.961 . S
C6949 H6957 0.960 . S
C6950 C6948 1.381 . S
C6950 C6951 1.394 . S
C6950 H6958 0.930 . S
C6951 C6950 1.394 . S
C6951 C6952 1.383 . S
C6951 H6959 0.929 . S
C6952 C6951 1.383 . S
C6952 C6953 1.377 . S
C6953 H6937 0.930 . S
C6953 C6952 1.377 . S
C6953 C6954 1.379 . S
C6954 H6938 0.931 . S
C6954 C6948 1.383 . S
C6954 C6953 1.379 . S
H6955 C6949 0.959 . S
H6956 C6949 0.961 . S
H6957 C6949 0.960 . S
H6958 C6950 0.930 . S
H6959 C6951 0.929 . S
H6960 C6968 0.929 . S
H6961 C6970 0.930 . S
H6962 C6972 0.930 . S
H6963 C6975 0.929 . S
H6964 C6978 0.930 . S
H6965 C6980 0.960 . S
H6966 C6980 0.960 . S
H6967 C6980 0.960 . S
C6968 H6960 0.929 . S
C6968 C6969 1.377 . S
C6968 C6970 1.384 . S
C6969 C6968 1.377 . S
C6969 C6975 1.390 . S
C6970 H6961 0.930 . S
C6970 C6968 1.384 . S
C6970 C6971 1.372 . S
C6971 C6970 1.372 . S
C6971 C6972 1.400 . S
C6971 C6976 1.490 . S
C6972 H6962 0.930 . S
C6972 C6971 1.400 . S
C6972 C6975 1.386 . S
H6973 C6989 0.930 . S
H6974 C6990 0.931 . S
C6975 H6963 0.929 . S
C6975 C6969 1.390 . S
C6975 C6972 1.386 . S
C6976 C6971 1.490 . S
C6976 C6978 1.395 . S
C6976 C6979 1.403 . S
H6977 C6983 0.930 . S
C6978 H6964 0.930 . S
C6978 C6976 1.395 . S
C6978 C6981 1.403 . S
C6979 C6976 1.403 . S
C6979 C6980 1.524 . S
C6979 C6983 1.400 . S
C6980 H6965 0.960 . S
C6980 H6966 0.960 . S
C6980 H6967 0.960 . S
C6980 C6979 1.524 . S
C6981 C6978 1.403 . S
C6981 C6982 1.392 . S
C6981 C6985 1.495 . S
C6982 C6981 1.392 . S
C6982 C6983 1.385 . S
C6982 C6984 1.478 . S
C6983 H6977 0.930 . S
C6983 C6979 1.400 . S
C6983 C6982 1.385 . S
C6984 C6982 1.478 . S
C6984 C6986 1.381 . S
C6984 C6990 1.383 . S
C6985 C6981 1.495 . S
C6985 H6991 0.959 . S
C6985 H6992 0.961 . S
C6985 H6993 0.960 . S
C6986 C6984 1.381 . S
C6986 C6987 1.394 . S
C6986 H6994 0.930 . S
C6987 C6986 1.394 . S
C6987 C6988 1.383 . S
C6987 H6995 0.929 . S
C6988 C6987 1.383 . S
C6988 C6989 1.377 . S
C6989 H6973 0.930 . S
C6989 C6988 1.377 . S
C6989 C6990 1.379 . S
C6990 H6974 0.931 . S
C6990 C6984 1.383 . S
C6990 C6989 1.379 . S
H6991 C6985 0.959 . S
H6992 C6985 0.961 . S
H6993 C6985 0.960 . S
H6994 C6986 0.930 . S
H6995 C6987 0.929 . S
H6996 C7004 0.929 . S
H6997 C7006 0.930 . S
H6998 C7008 0.930 . S
H6999 C7011 0.929 . S
H7000 C7014 0.930 . S
H7001 C7016 0.960 . S
H7002 C7016 0.960 . S
H7003 C7016 0.960 . S
C7004 H6996 0.929 . S
C7004 C7005 1.377 . S
C7004 C7006 1.384 . S
C7005 C7004 1.377 . S
C7005 C7011 1.390 . S
C7006 H6997 0.930 . S
C7006 C7004 1.384 . S
C7006 C7007 1.372 . S
C7007 C7006 1.372 . S
C7007 C7008 1.400 . S
C7007 C7012 1.490 . S
C7008 H6998 0.930 . S
C7008 C7007 1.400 . S
C7008 C7011 1.386 . S
H7009 C7025 0.930 . S
H7010 C7026 0.931 . S
C7011 H6999 0.929 . S
C7011 C7005 1.390 . S
C7011 C7008 1.386 . S
C7012 C7007 1.490 . S
C7012 C7014 1.395 . S
C7012 C7015 1.403 . S
H7013 C7019 0.930 . S
C7014 H7000 0.930 . S
C7014 C7012 1.395 . S
C7014 C7017 1.403 . S
C7015 C7012 1.403 . S
C7015 C7016 1.524 . S
C7015 C7019 1.400 . S
C7016 H7001 0.960 . S
C7016 H7002 0.960 . S
C7016 H7003 0.960 . S
C7016 C7015 1.524 . S
C7017 C7014 1.403 . S
C7017 C7018 1.392 . S
C7017 C7021 1.495 . S
C7018 C7017 1.392 . S
C7018 C7019 1.385 . S
C7018 C7020 1.478 . S
C7019 H7013 0.930 . S
C7019 C7015 1.400 . S
C7019 C7018 1.385 . S
C7020 C7018 1.478 . S
C7020 C7022 1.381 . S
C7020 C7026 1.383 . S
C7021 C7017 1.495 . S
C7021 H7027 0.959 . S
C7021 H7028 0.961 . S
C7021 H7029 0.960 . S
C7022 C7020 1.381 . S
C7022 C7023 1.394 . S
C7022 H7030 0.930 . S
C7023 C7022 1.394 . S
C7023 C7024 1.383 . S
C7023 H7031 0.929 . S
C7024 C7023 1.383 . S
C7024 C7025 1.377 . S
C7025 H7009 0.930 . S
C7025 C7024 1.377 . S
C7025 C7026 1.379 . S
C7026 H7010 0.931 . S
C7026 C7020 1.383 . S
C7026 C7025 1.379 . S
H7027 C7021 0.959 . S
H7028 C7021 0.961 . S
H7029 C7021 0.960 . S
H7030 C7022 0.930 . S
H7031 C7023 0.929 . S
H7032 C7040 0.929 . S
H7033 C7042 0.930 . S
H7034 C7044 0.930 . S
H7035 C7047 0.929 . S
H7036 C7050 0.930 . S
H7037 C7052 0.960 . S
H7038 C7052 0.960 . S
H7039 C7052 0.960 . S
C7040 H7032 0.929 . S
C7040 C7041 1.377 . S
C7040 C7042 1.384 . S
C7041 C7040 1.377 . S
C7041 C7047 1.390 . S
C7042 H7033 0.930 . S
C7042 C7040 1.384 . S
C7042 C7043 1.372 . S
C7043 C7042 1.372 . S
C7043 C7044 1.400 . S
C7043 C7048 1.490 . S
C7044 H7034 0.930 . S
C7044 C7043 1.400 . S
C7044 C7047 1.386 . S
H7045 C7061 0.930 . S
H7046 C7062 0.931 . S
C7047 H7035 0.929 . S
C7047 C7041 1.390 . S
C7047 C7044 1.386 . S
C7048 C7043 1.490 . S
C7048 C7050 1.395 . S
C7048 C7051 1.403 . S
H7049 C7055 0.930 . S
C7050 H7036 0.930 . S
C7050 C7048 1.395 . S
C7050 C7053 1.403 . S
C7051 C7048 1.403 . S
C7051 C7052 1.524 . S
C7051 C7055 1.400 . S
C7052 H7037 0.960 . S
C7052 H7038 0.960 . S
C7052 H7039 0.960 . S
C7052 C7051 1.524 . S
C7053 C7050 1.403 . S
C7053 C7054 1.392 . S
C7053 C7057 1.495 . S
C7054 C7053 1.392 . S
C7054 C7055 1.385 . S
C7054 C7056 1.478 . S
C7055 H7049 0.930 . S
C7055 C7051 1.400 . S
C7055 C7054 1.385 . S
C7056 C7054 1.478 . S
C7056 C7058 1.381 . S
C7056 C7062 1.383 . S
C7057 C7053 1.495 . S
C7057 H7063 0.959 . S
C7057 H7064 0.961 . S
C7057 H7065 0.960 . S
C7058 C7056 1.381 . S
C7058 C7059 1.394 . S
C7058 H7066 0.930 . S
C7059 C7058 1.394 . S
C7059 C7060 1.383 . S
C7059 H7067 0.929 . S
C7060 C7059 1.383 . S
C7060 C7061 1.377 . S
C7061 H7045 0.930 . S
C7061 C7060 1.377 . S
C7061 C7062 1.379 . S
C7062 H7046 0.931 . S
C7062 C7056 1.383 . S
C7062 C7061 1.379 . S
H7063 C7057 0.959 . S
H7064 C7057 0.961 . S
H7065 C7057 0.960 . S
H7066 C7058 0.930 . S
H7067 C7059 0.929 . S
H7068 C7076 0.929 . S
H7069 C7078 0.930 . S
H7070 C7080 0.930 . S
H7071 C7083 0.929 . S
H7072 C7086 0.930 . S
H7073 C7088 0.960 . S
H7074 C7088 0.960 . S
H7075 C7088 0.960 . S
C7076 H7068 0.929 . S
C7076 C7077 1.377 . S
C7076 C7078 1.384 . S
C7077 C7076 1.377 . S
C7077 C7083 1.390 . S
C7078 H7069 0.930 . S
C7078 C7076 1.384 . S
C7078 C7079 1.372 . S
C7079 C7078 1.372 . S
C7079 C7080 1.400 . S
C7079 C7084 1.490 . S
C7080 H7070 0.930 . S
C7080 C7079 1.400 . S
C7080 C7083 1.386 . S
H7081 C7097 0.930 . S
H7082 C7098 0.931 . S
C7083 H7071 0.929 . S
C7083 C7077 1.390 . S
C7083 C7080 1.386 . S
C7084 C7079 1.490 . S
C7084 C7086 1.395 . S
C7084 C7087 1.403 . S
H7085 C7091 0.930 . S
C7086 H7072 0.930 . S
C7086 C7084 1.395 . S
C7086 C7089 1.403 . S
C7087 C7084 1.403 . S
C7087 C7088 1.524 . S
C7087 C7091 1.400 . S
C7088 H7073 0.960 . S
C7088 H7074 0.960 . S
C7088 H7075 0.960 . S
C7088 C7087 1.524 . S
C7089 C7086 1.403 . S
C7089 C7090 1.392 . S
C7089 C7093 1.495 . S
C7090 C7089 1.392 . S
C7090 C7091 1.385 . S
C7090 C7092 1.478 . S
C7091 H7085 0.930 . S
C7091 C7087 1.400 . S
C7091 C7090 1.385 . S
C7092 C7090 1.478 . S
C7092 C7094 1.381 . S
C7092 C7098 1.383 . S
C7093 C7089 1.495 . S
C7093 H7099 0.959 . S
C7093 H7100 0.961 . S
C7093 H7101 0.960 . S
C7094 C7092 1.381 . S
C7094 C7095 1.394 . S
C7094 H7102 0.930 . S
C7095 C7094 1.394 . S
C7095 C7096 1.383 . S
C7095 H7103 0.929 . S
C7096 C7095 1.383 . S
C7096 C7097 1.377 . S
C7097 H7081 0.930 . S
C7097 C7096 1.377 . S
C7097 C7098 1.379 . S
C7098 H7082 0.931 . S
C7098 C7092 1.383 . S
C7098 C7097 1.379 . S
H7099 C7093 0.959 . S
H7100 C7093 0.961 . S
H7101 C7093 0.960 . S
H7102 C7094 0.930 . S
H7103 C7095 0.929 . S
H7104 C7112 0.929 . S
H7105 C7114 0.930 . S
H7106 C7116 0.930 . S
H7107 C7119 0.929 . S
H7108 C7122 0.930 . S
H7109 C7124 0.960 . S
H7110 C7124 0.960 . S
H7111 C7124 0.960 . S
C7112 H7104 0.929 . S
C7112 C7113 1.377 . S
C7112 C7114 1.384 . S
C7113 C7112 1.377 . S
C7113 C7119 1.390 . S
C7114 H7105 0.930 . S
C7114 C7112 1.384 . S
C7114 C7115 1.372 . S
C7115 C7114 1.372 . S
C7115 C7116 1.400 . S
C7115 C7120 1.490 . S
C7116 H7106 0.930 . S
C7116 C7115 1.400 . S
C7116 C7119 1.386 . S
H7117 C7133 0.930 . S
H7118 C7134 0.931 . S
C7119 H7107 0.929 . S
C7119 C7113 1.390 . S
C7119 C7116 1.386 . S
C7120 C7115 1.490 . S
C7120 C7122 1.395 . S
C7120 C7123 1.403 . S
H7121 C7127 0.930 . S
C7122 H7108 0.930 . S
C7122 C7120 1.395 . S
C7122 C7125 1.403 . S
C7123 C7120 1.403 . S
C7123 C7124 1.524 . S
C7123 C7127 1.400 . S
C7124 H7109 0.960 . S
C7124 H7110 0.960 . S
C7124 H7111 0.960 . S
C7124 C7123 1.524 . S
C7125 C7122 1.403 . S
C7125 C7126 1.392 . S
C7125 C7129 1.495 . S
C7126 C7125 1.392 . S
C7126 C7127 1.385 . S
C7126 C7128 1.478 . S
C7127 H7121 0.930 . S
C7127 C7123 1.400 . S
C7127 C7126 1.385 . S
C7128 C7126 1.478 . S
C7128 C7130 1.381 . S
C7128 C7134 1.383 . S
C7129 C7125 1.495 . S
C7129 H7135 0.959 . S
C7129 H7136 0.961 . S
C7129 H7137 0.960 . S
C7130 C7128 1.381 . S
C7130 C7131 1.394 . S
C7130 H7138 0.930 . S
C7131 C7130 1.394 . S
C7131 C7132 1.383 . S
C7131 H7139 0.929 . S
C7132 C7131 1.383 . S
C7132 C7133 1.377 . S
C7133 H7117 0.930 . S
C7133 C7132 1.377 . S
C7133 C7134 1.379 . S
C7134 H7118 0.931 . S
C7134 C7128 1.383 . S
C7134 C7133 1.379 . S
H7135 C7129 0.959 . S
H7136 C7129 0.961 . S
H7137 C7129 0.960 . S
H7138 C7130 0.930 . S
H7139 C7131 0.929 . S
H7140 C7148 0.929 . S
H7141 C7150 0.930 . S
H7142 C7152 0.930 . S
H7143 C7155 0.929 . S
H7144 C7158 0.930 . S
H7145 C7160 0.960 . S
H7146 C7160 0.960 . S
H7147 C7160 0.960 . S
C7148 H7140 0.929 . S
C7148 C7149 1.377 . S
C7148 C7150 1.384 . S
C7149 C7148 1.377 . S
C7149 C7155 1.390 . S
C7150 H7141 0.930 . S
C7150 C7148 1.384 . S
C7150 C7151 1.372 . S
C7151 C7150 1.372 . S
C7151 C7152 1.400 . S
C7151 C7156 1.490 . S
C7152 H7142 0.930 . S
C7152 C7151 1.400 . S
C7152 C7155 1.386 . S
H7153 C7169 0.930 . S
H7154 C7170 0.931 . S
C7155 H7143 0.929 . S
C7155 C7149 1.390 . S
C7155 C7152 1.386 . S
C7156 C7151 1.490 . S
C7156 C7158 1.395 . S
C7156 C7159 1.403 . S
H7157 C7163 0.930 . S
C7158 H7144 0.930 . S
C7158 C7156 1.395 . S
C7158 C7161 1.403 . S
C7159 C7156 1.403 . S
C7159 C7160 1.524 . S
C7159 C7163 1.400 . S
C7160 H7145 0.960 . S
C7160 H7146 0.960 . S
C7160 H7147 0.960 . S
C7160 C7159 1.524 . S
C7161 C7158 1.403 . S
C7161 C7162 1.392 . S
C7161 C7165 1.495 . S
C7162 C7161 1.392 . S
C7162 C7163 1.385 . S
C7162 C7164 1.478 . S
C7163 H7157 0.930 . S
C7163 C7159 1.400 . S
C7163 C7162 1.385 . S
C7164 C7162 1.478 . S
C7164 C7166 1.381 . S
C7164 C7170 1.383 . S
C7165 C7161 1.495 . S
C7165 H7171 0.959 . S
C7165 H7172 0.961 . S
C7165 H7173 0.960 . S
C7166 C7164 1.381 . S
C7166 C7167 1.394 . S
C7166 H7174 0.930 . S
C7167 C7166 1.394 . S
C7167 C7168 1.383 . S
C7167 H7175 0.929 . S
C7168 C7167 1.383 . S
C7168 C7169 1.377 . S
C7169 H7153 0.930 . S
C7169 C7168 1.377 . S
C7169 C7170 1.379 . S
C7170 H7154 0.931 . S
C7170 C7164 1.383 . S
C7170 C7169 1.379 . S
H7171 C7165 0.959 . S
H7172 C7165 0.961 . S
H7173 C7165 0.960 . S
H7174 C7166 0.930 . S
H7175 C7167 0.929 . S
H7176 C7184 0.929 . S
H7177 C7186 0.930 . S
H7178 C7188 0.930 . S
H7179 C7191 0.929 . S
H7180 C7194 0.930 . S
H7181 C7196 0.960 . S
H7182 C7196 0.960 . S
H7183 C7196 0.960 . S
C7184 H7176 0.929 . S
C7184 C7185 1.377 . S
C7184 C7186 1.384 . S
C7185 C7184 1.377 . S
C7185 C7191 1.390 . S
C7186 H7177 0.930 . S
C7186 C7184 1.384 . S
C7186 C7187 1.372 . S
C7187 C7186 1.372 . S
C7187 C7188 1.400 . S
C7187 C7192 1.490 . S
C7188 H7178 0.930 . S
C7188 C7187 1.400 . S
C7188 C7191 1.386 . S
H7189 C7205 0.930 . S
H7190 C7206 0.931 . S
C7191 H7179 0.929 . S
C7191 C7185 1.390 . S
C7191 C7188 1.386 . S
C7192 C7187 1.490 . S
C7192 C7194 1.395 . S
C7192 C7195 1.403 . S
H7193 C7199 0.930 . S
C7194 H7180 0.930 . S
C7194 C7192 1.395 . S
C7194 C7197 1.403 . S
C7195 C7192 1.403 . S
C7195 C7196 1.524 . S
C7195 C7199 1.400 . S
C7196 H7181 0.960 . S
C7196 H7182 0.960 . S
C7196 H7183 0.960 . S
C7196 C7195 1.524 . S
C7197 C7194 1.403 . S
C7197 C7198 1.392 . S
C7197 C7201 1.495 . S
C7198 C7197 1.392 . S
C7198 C7199 1.385 . S
C7198 C7200 1.478 . S
C7199 H7193 0.930 . S
C7199 C7195 1.400 . S
C7199 C7198 1.385 . S
C7200 C7198 1.478 . S
C7200 C7202 1.381 . S
C7200 C7206 1.383 . S
C7201 C7197 1.495 . S
C7201 H7207 0.959 . S
C7201 H7208 0.961 . S
C7201 H7209 0.960 . S
C7202 C7200 1.381 . S
C7202 C7203 1.394 . S
C7202 H7210 0.930 . S
C7203 C7202 1.394 . S
C7203 C7204 1.383 . S
C7203 H7211 0.929 . S
C7204 C7203 1.383 . S
C7204 C7205 1.377 . S
C7205 H7189 0.930 . S
C7205 C7204 1.377 . S
C7205 C7206 1.379 . S
C7206 H7190 0.931 . S
C7206 C7200 1.383 . S
C7206 C7205 1.379 . S
H7207 C7201 0.959 . S
H7208 C7201 0.961 . S
H7209 C7201 0.960 . S
H7210 C7202 0.930 . S
H7211 C7203 0.929 . S
H7212 C7220 0.929 . S
H7213 C7222 0.930 . S
H7214 C7224 0.930 . S
H7215 C7227 0.929 . S
H7216 C7230 0.930 . S
H7217 C7232 0.960 . S
H7218 C7232 0.960 . S
H7219 C7232 0.960 . S
C7220 H7212 0.929 . S
C7220 C7221 1.377 . S
C7220 C7222 1.384 . S
C7221 C7220 1.377 . S
C7221 C7227 1.390 . S
C7222 H7213 0.930 . S
C7222 C7220 1.384 . S
C7222 C7223 1.372 . S
C7223 C7222 1.372 . S
C7223 C7224 1.400 . S
C7223 C7228 1.490 . S
C7224 H7214 0.930 . S
C7224 C7223 1.400 . S
C7224 C7227 1.386 . S
H7225 C7241 0.930 . S
H7226 C7242 0.931 . S
C7227 H7215 0.929 . S
C7227 C7221 1.390 . S
C7227 C7224 1.386 . S
C7228 C7223 1.490 . S
C7228 C7230 1.395 . S
C7228 C7231 1.403 . S
H7229 C7235 0.930 . S
C7230 H7216 0.930 . S
C7230 C7228 1.395 . S
C7230 C7233 1.403 . S
C7231 C7228 1.403 . S
C7231 C7232 1.524 . S
C7231 C7235 1.400 . S
C7232 H7217 0.960 . S
C7232 H7218 0.960 . S
C7232 H7219 0.960 . S
C7232 C7231 1.524 . S
C7233 C7230 1.403 . S
C7233 C7234 1.392 . S
C7233 C7237 1.495 . S
C7234 C7233 1.392 . S
C7234 C7235 1.385 . S
C7234 C7236 1.478 . S
C7235 H7229 0.930 . S
C7235 C7231 1.400 . S
C7235 C7234 1.385 . S
C7236 C7234 1.478 . S
C7236 C7238 1.381 . S
C7236 C7242 1.383 . S
C7237 C7233 1.495 . S
C7237 H7243 0.959 . S
C7237 H7244 0.961 . S
C7237 H7245 0.960 . S
C7238 C7236 1.381 . S
C7238 C7239 1.394 . S
C7238 H7246 0.930 . S
C7239 C7238 1.394 . S
C7239 C7240 1.383 . S
C7239 H7247 0.929 . S
C7240 C7239 1.383 . S
C7240 C7241 1.377 . S
C7241 H7225 0.930 . S
C7241 C7240 1.377 . S
C7241 C7242 1.379 . S
C7242 H7226 0.931 . S
C7242 C7236 1.383 . S
C7242 C7241 1.379 . S
H7243 C7237 0.959 . S
H7244 C7237 0.961 . S
H7245 C7237 0.960 . S
H7246 C7238 0.930 . S
H7247 C7239 0.929 . S
H7248 C7256 0.929 . S
H7249 C7258 0.930 . S
H7250 C7260 0.930 . S
H7251 C7263 0.929 . S
H7252 C7266 0.930 . S
H7253 C7268 0.960 . S
H7254 C7268 0.960 . S
H7255 C7268 0.960 . S
C7256 H7248 0.929 . S
C7256 C7257 1.377 . S
C7256 C7258 1.384 . S
C7257 C7256 1.377 . S
C7257 C7263 1.390 . S
C7258 H7249 0.930 . S
C7258 C7256 1.384 . S
C7258 C7259 1.372 . S
C7259 C7258 1.372 . S
C7259 C7260 1.400 . S
C7259 C7264 1.490 . S
C7260 H7250 0.930 . S
C7260 C7259 1.400 . S
C7260 C7263 1.386 . S
H7261 C7277 0.930 . S
H7262 C7278 0.931 . S
C7263 H7251 0.929 . S
C7263 C7257 1.390 . S
C7263 C7260 1.386 . S
C7264 C7259 1.490 . S
C7264 C7266 1.395 . S
C7264 C7267 1.403 . S
H7265 C7271 0.930 . S
C7266 H7252 0.930 . S
C7266 C7264 1.395 . S
C7266 C7269 1.403 . S
C7267 C7264 1.403 . S
C7267 C7268 1.524 . S
C7267 C7271 1.400 . S
C7268 H7253 0.960 . S
C7268 H7254 0.960 . S
C7268 H7255 0.960 . S
C7268 C7267 1.524 . S
C7269 C7266 1.403 . S
C7269 C7270 1.392 . S
C7269 C7273 1.495 . S
C7270 C7269 1.392 . S
C7270 C7271 1.385 . S
C7270 C7272 1.478 . S
C7271 H7265 0.930 . S
C7271 C7267 1.400 . S
C7271 C7270 1.385 . S
C7272 C7270 1.478 . S
C7272 C7274 1.381 . S
C7272 C7278 1.383 . S
C7273 C7269 1.495 . S
C7273 H7279 0.959 . S
C7273 H7280 0.961 . S
C7273 H7281 0.960 . S
C7274 C7272 1.381 . S
C7274 C7275 1.394 . S
C7274 H7282 0.930 . S
C7275 C7274 1.394 . S
C7275 C7276 1.383 . S
C7275 H7283 0.929 . S
C7276 C7275 1.383 . S
C7276 C7277 1.377 . S
C7277 H7261 0.930 . S
C7277 C7276 1.377 . S
C7277 C7278 1.379 . S
C7278 H7262 0.931 . S
C7278 C7272 1.383 . S
C7278 C7277 1.379 . S
H7279 C7273 0.959 . S
H7280 C7273 0.961 . S
H7281 C7273 0.960 . S
H7282 C7274 0.930 . S
H7283 C7275 0.929 . S
H7284 C7292 0.929 . S
H7285 C7294 0.930 . S
H7286 C7296 0.930 . S
H7287 C7299 0.929 . S
H7288 C7302 0.930 . S
H7289 C7304 0.960 . S
H7290 C7304 0.960 . S
H7291 C7304 0.960 . S
C7292 H7284 0.929 . S
C7292 C7293 1.377 . S
C7292 C7294 1.384 . S
C7293 C7292 1.377 . S
C7293 C7299 1.390 . S
C7294 H7285 0.930 . S
C7294 C7292 1.384 . S
C7294 C7295 1.372 . S
C7295 C7294 1.372 . S
C7295 C7296 1.400 . S
C7295 C7300 1.490 . S
C7296 H7286 0.930 . S
C7296 C7295 1.400 . S
C7296 C7299 1.386 . S
H7297 C7313 0.930 . S
H7298 C7314 0.931 . S
C7299 H7287 0.929 . S
C7299 C7293 1.390 . S
C7299 C7296 1.386 . S
C7300 C7295 1.490 . S
C7300 C7302 1.395 . S
C7300 C7303 1.403 . S
H7301 C7307 0.930 . S
C7302 H7288 0.930 . S
C7302 C7300 1.395 . S
C7302 C7305 1.403 . S
C7303 C7300 1.403 . S
C7303 C7304 1.524 . S
C7303 C7307 1.400 . S
C7304 H7289 0.960 . S
C7304 H7290 0.960 . S
C7304 H7291 0.960 . S
C7304 C7303 1.524 . S
C7305 C7302 1.403 . S
C7305 C7306 1.392 . S
C7305 C7309 1.495 . S
C7306 C7305 1.392 . S
C7306 C7307 1.385 . S
C7306 C7308 1.478 . S
C7307 H7301 0.930 . S
C7307 C7303 1.400 . S
C7307 C7306 1.385 . S
C7308 C7306 1.478 . S
C7308 C7310 1.381 . S
C7308 C7314 1.383 . S
C7309 C7305 1.495 . S
C7309 H7315 0.959 . S
C7309 H7316 0.961 . S
C7309 H7317 0.960 . S
C7310 C7308 1.381 . S
C7310 C7311 1.394 . S
C7310 H7318 0.930 . S
C7311 C7310 1.394 . S
C7311 C7312 1.383 . S
C7311 H7319 0.929 . S
C7312 C7311 1.383 . S
C7312 C7313 1.377 . S
C7313 H7297 0.930 . S
C7313 C7312 1.377 . S
C7313 C7314 1.379 . S
C7314 H7298 0.931 . S
C7314 C7308 1.383 . S
C7314 C7313 1.379 . S
H7315 C7309 0.959 . S
H7316 C7309 0.961 . S
H7317 C7309 0.960 . S
H7318 C7310 0.930 . S
H7319 C7311 0.929 . S
H7320 C7328 0.929 . S
H7321 C7330 0.930 . S
H7322 C7332 0.930 . S
H7323 C7335 0.929 . S
H7324 C7338 0.930 . S
H7325 C7340 0.960 . S
H7326 C7340 0.960 . S
H7327 C7340 0.960 . S
C7328 H7320 0.929 . S
C7328 C7329 1.377 . S
C7328 C7330 1.384 . S
C7329 C7328 1.377 . S
C7329 C7335 1.390 . S
C7330 H7321 0.930 . S
C7330 C7328 1.384 . S
C7330 C7331 1.372 . S
C7331 C7330 1.372 . S
C7331 C7332 1.400 . S
C7331 C7336 1.490 . S
C7332 H7322 0.930 . S
C7332 C7331 1.400 . S
C7332 C7335 1.386 . S
H7333 C7349 0.930 . S
H7334 C7350 0.931 . S
C7335 H7323 0.929 . S
C7335 C7329 1.390 . S
C7335 C7332 1.386 . S
C7336 C7331 1.490 . S
C7336 C7338 1.395 . S
C7336 C7339 1.403 . S
H7337 C7343 0.930 . S
C7338 H7324 0.930 . S
C7338 C7336 1.395 . S
C7338 C7341 1.403 . S
C7339 C7336 1.403 . S
C7339 C7340 1.524 . S
C7339 C7343 1.400 . S
C7340 H7325 0.960 . S
C7340 H7326 0.960 . S
C7340 H7327 0.960 . S
C7340 C7339 1.524 . S
C7341 C7338 1.403 . S
C7341 C7342 1.392 . S
C7341 C7345 1.495 . S
C7342 C7341 1.392 . S
C7342 C7343 1.385 . S
C7342 C7344 1.478 . S
C7343 H7337 0.930 . S
C7343 C7339 1.400 . S
C7343 C7342 1.385 . S
C7344 C7342 1.478 . S
C7344 C7346 1.381 . S
C7344 C7350 1.383 . S
C7345 C7341 1.495 . S
C7345 H7351 0.959 . S
C7345 H7352 0.961 . S
C7345 H7353 0.960 . S
C7346 C7344 1.381 . S
C7346 C7347 1.394 . S
C7346 H7354 0.930 . S
C7347 C7346 1.394 . S
C7347 C7348 1.383 . S
C7347 H7355 0.929 . S
C7348 C7347 1.383 . S
C7348 C7349 1.377 . S
C7349 H7333 0.930 . S
C7349 C7348 1.377 . S
C7349 C7350 1.379 . S
C7350 H7334 0.931 . S
C7350 C7344 1.383 . S
C7350 C7349 1.379 . S
H7351 C7345 0.959 . S
H7352 C7345 0.961 . S
H7353 C7345 0.960 . S
H7354 C7346 0.930 . S
H7355 C7347 0.929 . S
H7356 C7364 0.929 . S
H7357 C7366 0.930 . S
H7358 C7368 0.930 . S
H7359 C7371 0.929 . S
H7360 C7374 0.930 . S
H7361 C7376 0.960 . S
H7362 C7376 0.960 . S
H7363 C7376 0.960 . S
C7364 H7356 0.929 . S
C7364 C7365 1.377 . S
C7364 C7366 1.384 . S
C7365 C7364 1.377 . S
C7365 C7371 1.390 . S
C7366 H7357 0.930 . S
C7366 C7364 1.384 . S
C7366 C7367 1.372 . S
C7367 C7366 1.372 . S
C7367 C7368 1.400 . S
C7367 C7372 1.490 . S
C7368 H7358 0.930 . S
C7368 C7367 1.400 . S
C7368 C7371 1.386 . S
H7369 C7385 0.930 . S
H7370 C7386 0.931 . S
C7371 H7359 0.929 . S
C7371 C7365 1.390 . S
C7371 C7368 1.386 . S
C7372 C7367 1.490 . S
C7372 C7374 1.395 . S
C7372 C7375 1.403 . S
H7373 C7379 0.930 . S
C7374 H7360 0.930 . S
C7374 C7372 1.395 . S
C7374 C7377 1.403 . S
C7375 C7372 1.403 . S
C7375 C7376 1.524 . S
C7375 C7379 1.400 . S
C7376 H7361 0.960 . S
C7376 H7362 0.960 . S
C7376 H7363 0.960 . S
C7376 C7375 1.524 . S
C7377 C7374 1.403 . S
C7377 C7378 1.392 . S
C7377 C7381 1.495 . S
C7378 C7377 1.392 . S
C7378 C7379 1.385 . S
C7378 C7380 1.478 . S
C7379 H7373 0.930 . S
C7379 C7375 1.400 . S
C7379 C7378 1.385 . S
C7380 C7378 1.478 . S
C7380 C7382 1.381 . S
C7380 C7386 1.383 . S
C7381 C7377 1.495 . S
C7381 H7387 0.959 . S
C7381 H7388 0.961 . S
C7381 H7389 0.960 . S
C7382 C7380 1.381 . S
C7382 C7383 1.394 . S
C7382 H7390 0.930 . S
C7383 C7382 1.394 . S
C7383 C7384 1.383 . S
C7383 H7391 0.929 . S
C7384 C7383 1.383 . S
C7384 C7385 1.377 . S
C7385 H7369 0.930 . S
C7385 C7384 1.377 . S
C7385 C7386 1.379 . S
C7386 H7370 0.931 . S
C7386 C7380 1.383 . S
C7386 C7385 1.379 . S
H7387 C7381 0.959 . S
H7388 C7381 0.961 . S
H7389 C7381 0.960 . S
H7390 C7382 0.930 . S
H7391 C7383 0.929 . S
H7392 C7400 0.929 . S
H7393 C7402 0.930 . S
H7394 C7404 0.930 . S
H7395 C7407 0.929 . S
H7396 C7410 0.930 . S
H7397 C7412 0.960 . S
H7398 C7412 0.960 . S
H7399 C7412 0.960 . S
C7400 H7392 0.929 . S
C7400 C7401 1.377 . S
C7400 C7402 1.384 . S
C7401 C7400 1.377 . S
C7401 C7407 1.390 . S
C7402 H7393 0.930 . S
C7402 C7400 1.384 . S
C7402 C7403 1.372 . S
C7403 C7402 1.372 . S
C7403 C7404 1.400 . S
C7403 C7408 1.490 . S
C7404 H7394 0.930 . S
C7404 C7403 1.400 . S
C7404 C7407 1.386 . S
H7405 C7421 0.930 . S
H7406 C7422 0.931 . S
C7407 H7395 0.929 . S
C7407 C7401 1.390 . S
C7407 C7404 1.386 . S
C7408 C7403 1.490 . S
C7408 C7410 1.395 . S
C7408 C7411 1.403 . S
H7409 C7415 0.930 . S
C7410 H7396 0.930 . S
C7410 C7408 1.395 . S
C7410 C7413 1.403 . S
C7411 C7408 1.403 . S
C7411 C7412 1.524 . S
C7411 C7415 1.400 . S
C7412 H7397 0.960 . S
C7412 H7398 0.960 . S
C7412 H7399 0.960 . S
C7412 C7411 1.524 . S
C7413 C7410 1.403 . S
C7413 C7414 1.392 . S
C7413 C7417 1.495 . S
C7414 C7413 1.392 . S
C7414 C7415 1.385 . S
C7414 C7416 1.478 . S
C7415 H7409 0.930 . S
C7415 C7411 1.400 . S
C7415 C7414 1.385 . S
C7416 C7414 1.478 . S
C7416 C7418 1.381 . S
C7416 C7422 1.383 . S
C7417 C7413 1.495 . S
C7417 H7423 0.959 . S
C7417 H7424 0.961 . S
C7417 H7425 0.960 . S
C7418 C7416 1.381 . S
C7418 C7419 1.394 . S
C7418 H7426 0.930 . S
C7419 C7418 1.394 . S
C7419 C7420 1.383 . S
C7419 H7427 0.929 . S
C7420 C7419 1.383 . S
C7420 C7421 1.377 . S
C7421 H7405 0.930 . S
C7421 C7420 1.377 . S
C7421 C7422 1.379 . S
C7422 H7406 0.931 . S
C7422 C7416 1.383 . S
C7422 C7421 1.379 . S
H7423 C7417 0.959 . S
H7424 C7417 0.961 . S
H7425 C7417 0.960 . S
H7426 C7418 0.930 . S
H7427 C7419 0.929 . S
H7428 C7436 0.929 . S
H7429 C7438 0.930 . S
H7430 C7440 0.930 . S
H7431 C7443 0.929 . S
H7432 C7446 0.930 . S
H7433 C7448 0.960 . S
H7434 C7448 0.960 . S
H7435 C7448 0.960 . S
C7436 H7428 0.929 . S
C7436 C7437 1.377 . S
C7436 C7438 1.384 . S
C7437 C7436 1.377 . S
C7437 C7443 1.390 . S
C7438 H7429 0.930 . S
C7438 C7436 1.384 . S
C7438 C7439 1.372 . S
C7439 C7438 1.372 . S
C7439 C7440 1.400 . S
C7439 C7444 1.490 . S
C7440 H7430 0.930 . S
C7440 C7439 1.400 . S
C7440 C7443 1.386 . S
H7441 C7457 0.930 . S
H7442 C7458 0.931 . S
C7443 H7431 0.929 . S
C7443 C7437 1.390 . S
C7443 C7440 1.386 . S
C7444 C7439 1.490 . S
C7444 C7446 1.395 . S
C7444 C7447 1.403 . S
H7445 C7451 0.930 . S
C7446 H7432 0.930 . S
C7446 C7444 1.395 . S
C7446 C7449 1.403 . S
C7447 C7444 1.403 . S
C7447 C7448 1.524 . S
C7447 C7451 1.400 . S
C7448 H7433 0.960 . S
C7448 H7434 0.960 . S
C7448 H7435 0.960 . S
C7448 C7447 1.524 . S
C7449 C7446 1.403 . S
C7449 C7450 1.392 . S
C7449 C7453 1.495 . S
C7450 C7449 1.392 . S
C7450 C7451 1.385 . S
C7450 C7452 1.478 . S
C7451 H7445 0.930 . S
C7451 C7447 1.400 . S
C7451 C7450 1.385 . S
C7452 C7450 1.478 . S
C7452 C7454 1.381 . S
C7452 C7458 1.383 . S
C7453 C7449 1.495 . S
C7453 H7459 0.959 . S
C7453 H7460 0.961 . S
C7453 H7461 0.960 . S
C7454 C7452 1.381 . S
C7454 C7455 1.394 . S
C7454 H7462 0.930 . S
C7455 C7454 1.394 . S
C7455 C7456 1.383 . S
C7455 H7463 0.929 . S
C7456 C7455 1.383 . S
C7456 C7457 1.377 . S
C7457 H7441 0.930 . S
C7457 C7456 1.377 . S
C7457 C7458 1.379 . S
C7458 H7442 0.931 . S
C7458 C7452 1.383 . S
C7458 C7457 1.379 . S
H7459 C7453 0.959 . S
H7460 C7453 0.961 . S
H7461 C7453 0.960 . S
H7462 C7454 0.930 . S
H7463 C7455 0.929 . S
H7464 C7472 0.929 . S
H7465 C7474 0.930 . S
H7466 C7476 0.930 . S
H7467 C7479 0.929 . S
H7468 C7482 0.930 . S
H7469 C7484 0.960 . S
H7470 C7484 0.960 . S
H7471 C7484 0.960 . S
C7472 H7464 0.929 . S
C7472 C7473 1.377 . S
C7472 C7474 1.384 . S
C7473 C7472 1.377 . S
C7473 C7479 1.390 . S
C7474 H7465 0.930 . S
C7474 C7472 1.384 . S
C7474 C7475 1.372 . S
C7475 C7474 1.372 . S
C7475 C7476 1.400 . S
C7475 C7480 1.490 . S
C7476 H7466 0.930 . S
C7476 C7475 1.400 . S
C7476 C7479 1.386 . S
H7477 C7493 0.930 . S
H7478 C7494 0.931 . S
C7479 H7467 0.929 . S
C7479 C7473 1.390 . S
C7479 C7476 1.386 . S
C7480 C7475 1.490 . S
C7480 C7482 1.395 . S
C7480 C7483 1.403 . S
H7481 C7487 0.930 . S
C7482 H7468 0.930 . S
C7482 C7480 1.395 . S
C7482 C7485 1.403 . S
C7483 C7480 1.403 . S
C7483 C7484 1.524 . S
C7483 C7487 1.400 . S
C7484 H7469 0.960 . S
C7484 H7470 0.960 . S
C7484 H7471 0.960 . S
C7484 C7483 1.524 . S
C7485 C7482 1.403 . S
C7485 C7486 1.392 . S
C7485 C7489 1.495 . S
C7486 C7485 1.392 . S
C7486 C7487 1.385 . S
C7486 C7488 1.478 . S
C7487 H7481 0.930 . S
C7487 C7483 1.400 . S
C7487 C7486 1.385 . S
C7488 C7486 1.478 . S
C7488 C7490 1.381 . S
C7488 C7494 1.383 . S
C7489 C7485 1.495 . S
C7489 H7495 0.959 . S
C7489 H7496 0.961 . S
C7489 H7497 0.960 . S
C7490 C7488 1.381 . S
C7490 C7491 1.394 . S
C7490 H7498 0.930 . S
C7491 C7490 1.394 . S
C7491 C7492 1.383 . S
C7491 H7499 0.929 . S
C7492 C7491 1.383 . S
C7492 C7493 1.377 . S
C7493 H7477 0.930 . S
C7493 C7492 1.377 . S
C7493 C7494 1.379 . S
C7494 H7478 0.931 . S
C7494 C7488 1.383 . S
C7494 C7493 1.379 . S
H7495 C7489 0.959 . S
H7496 C7489 0.961 . S
H7497 C7489 0.960 . S
H7498 C7490 0.930 . S
H7499 C7491 0.929 . S
H7500 C7508 0.929 . S
H7501 C7510 0.930 . S
H7502 C7512 0.930 . S
H7503 C7515 0.929 . S
H7504 C7518 0.930 . S
H7505 C7520 0.960 . S
H7506 C7520 0.960 . S
H7507 C7520 0.960 . S
C7508 H7500 0.929 . S
C7508 C7509 1.377 . S
C7508 C7510 1.384 . S
C7509 C7508 1.377 . S
C7509 C7515 1.390 . S
C7510 H7501 0.930 . S
C7510 C7508 1.384 . S
C7510 C7511 1.372 . S
C7511 C7510 1.372 . S
C7511 C7512 1.400 . S
C7511 C7516 1.490 . S
C7512 H7502 0.930 . S
C7512 C7511 1.400 . S
C7512 C7515 1.386 . S
H7513 C7529 0.930 . S
H7514 C7530 0.931 . S
C7515 H7503 0.929 . S
C7515 C7509 1.390 . S
C7515 C7512 1.386 . S
C7516 C7511 1.490 . S
C7516 C7518 1.395 . S
C7516 C7519 1.403 . S
H7517 C7523 0.930 . S
C7518 H7504 0.930 . S
C7518 C7516 1.395 . S
C7518 C7521 1.403 . S
C7519 C7516 1.403 . S
C7519 C7520 1.524 . S
C7519 C7523 1.400 . S
C7520 H7505 0.960 . S
C7520 H7506 0.960 . S
C7520 H7507 0.960 . S
C7520 C7519 1.524 . S
C7521 C7518 1.403 . S
C7521 C7522 1.392 . S
C7521 C7525 1.495 . S
C7522 C7521 1.392 . S
C7522 C7523 1.385 . S
C7522 C7524 1.478 . S
C7523 H7517 0.930 . S
C7523 C7519 1.400 . S
C7523 C7522 1.385 . S
C7524 C7522 1.478 . S
C7524 C7526 1.381 . S
C7524 C7530 1.383 . S
C7525 C7521 1.495 . S
C7525 H7531 0.959 . S
C7525 H7532 0.961 . S
C7525 H7533 0.960 . S
C7526 C7524 1.381 . S
C7526 C7527 1.394 . S
C7526 H7534 0.930 . S
C7527 C7526 1.394 . S
C7527 C7528 1.383 . S
C7527 H7535 0.929 . S
C7528 C7527 1.383 . S
C7528 C7529 1.377 . S
C7529 H7513 0.930 . S
C7529 C7528 1.377 . S
C7529 C7530 1.379 . S
C7530 H7514 0.931 . S
C7530 C7524 1.383 . S
C7530 C7529 1.379 . S
H7531 C7525 0.959 . S
H7532 C7525 0.961 . S
H7533 C7525 0.960 . S
H7534 C7526 0.930 . S
H7535 C7527 0.929 . S
H7536 C7544 0.929 . S
H7537 C7546 0.930 . S
H7538 C7548 0.930 . S
H7539 C7551 0.929 . S
H7540 C7554 0.930 . S
H7541 C7556 0.960 . S
H7542 C7556 0.960 . S
H7543 C7556 0.960 . S
C7544 H7536 0.929 . S
C7544 C7545 1.377 . S
C7544 C7546 1.384 . S
C7545 C7544 1.377 . S
C7545 C7551 1.390 . S
C7546 H7537 0.930 . S
C7546 C7544 1.384 . S
C7546 C7547 1.372 . S
C7547 C7546 1.372 . S
C7547 C7548 1.400 . S
C7547 C7552 1.490 . S
C7548 H7538 0.930 . S
C7548 C7547 1.400 . S
C7548 C7551 1.386 . S
H7549 C7565 0.930 . S
H7550 C7566 0.931 . S
C7551 H7539 0.929 . S
C7551 C7545 1.390 . S
C7551 C7548 1.386 . S
C7552 C7547 1.490 . S
C7552 C7554 1.395 . S
C7552 C7555 1.403 . S
H7553 C7559 0.930 . S
C7554 H7540 0.930 . S
C7554 C7552 1.395 . S
C7554 C7557 1.403 . S
C7555 C7552 1.403 . S
C7555 C7556 1.524 . S
C7555 C7559 1.400 . S
C7556 H7541 0.960 . S
C7556 H7542 0.960 . S
C7556 H7543 0.960 . S
C7556 C7555 1.524 . S
C7557 C7554 1.403 . S
C7557 C7558 1.392 . S
C7557 C7561 1.495 . S
C7558 C7557 1.392 . S
C7558 C7559 1.385 . S
C7558 C7560 1.478 . S
C7559 H7553 0.930 . S
C7559 C7555 1.400 . S
C7559 C7558 1.385 . S
C7560 C7558 1.478 . S
C7560 C7562 1.381 . S
C7560 C7566 1.383 . S
C7561 C7557 1.495 . S
C7561 H7567 0.959 . S
C7561 H7568 0.961 . S
C7561 H7569 0.960 . S
C7562 C7560 1.381 . S
C7562 C7563 1.394 . S
C7562 H7570 0.930 . S
C7563 C7562 1.394 . S
C7563 C7564 1.383 . S
C7563 H7571 0.929 . S
C7564 C7563 1.383 . S
C7564 C7565 1.377 . S
C7565 H7549 0.930 . S
C7565 C7564 1.377 . S
C7565 C7566 1.379 . S
C7566 H7550 0.931 . S
C7566 C7560 1.383 . S
C7566 C7565 1.379 . S
H7567 C7561 0.959 . S
H7568 C7561 0.961 . S
H7569 C7561 0.960 . S
H7570 C7562 0.930 . S
H7571 C7563 0.929 . S
H7572 C7580 0.929 . S
H7573 C7582 0.930 . S
H7574 C7584 0.930 . S
H7575 C7587 0.929 . S
H7576 C7590 0.930 . S
H7577 C7592 0.960 . S
H7578 C7592 0.960 . S
H7579 C7592 0.960 . S
C7580 H7572 0.929 . S
C7580 C7581 1.377 . S
C7580 C7582 1.384 . S
C7581 C7580 1.377 . S
C7581 C7587 1.390 . S
C7582 H7573 0.930 . S
C7582 C7580 1.384 . S
C7582 C7583 1.372 . S
C7583 C7582 1.372 . S
C7583 C7584 1.400 . S
C7583 C7588 1.490 . S
C7584 H7574 0.930 . S
C7584 C7583 1.400 . S
C7584 C7587 1.386 . S
H7585 C7601 0.930 . S
H7586 C7602 0.931 . S
C7587 H7575 0.929 . S
C7587 C7581 1.390 . S
C7587 C7584 1.386 . S
C7588 C7583 1.490 . S
C7588 C7590 1.395 . S
C7588 C7591 1.403 . S
H7589 C7595 0.930 . S
C7590 H7576 0.930 . S
C7590 C7588 1.395 . S
C7590 C7593 1.403 . S
C7591 C7588 1.403 . S
C7591 C7592 1.524 . S
C7591 C7595 1.400 . S
C7592 H7577 0.960 . S
C7592 H7578 0.960 . S
C7592 H7579 0.960 . S
C7592 C7591 1.524 . S
C7593 C7590 1.403 . S
C7593 C7594 1.392 . S
C7593 C7597 1.495 . S
C7594 C7593 1.392 . S
C7594 C7595 1.385 . S
C7594 C7596 1.478 . S
C7595 H7589 0.930 . S
C7595 C7591 1.400 . S
C7595 C7594 1.385 . S
C7596 C7594 1.478 . S
C7596 C7598 1.381 . S
C7596 C7602 1.383 . S
C7597 C7593 1.495 . S
C7597 H7603 0.959 . S
C7597 H7604 0.961 . S
C7597 H7605 0.960 . S
C7598 C7596 1.381 . S
C7598 C7599 1.394 . S
C7598 H7606 0.930 . S
C7599 C7598 1.394 . S
C7599 C7600 1.383 . S
C7599 H7607 0.929 . S
C7600 C7599 1.383 . S
C7600 C7601 1.377 . S
C7601 H7585 0.930 . S
C7601 C7600 1.377 . S
C7601 C7602 1.379 . S
C7602 H7586 0.931 . S
C7602 C7596 1.383 . S
C7602 C7601 1.379 . S
H7603 C7597 0.959 . S
H7604 C7597 0.961 . S
H7605 C7597 0.960 . S
H7606 C7598 0.930 . S
H7607 C7599 0.929 . S
H7608 C7616 0.929 . S
H7609 C7618 0.930 . S
H7610 C7620 0.930 . S
H7611 C7623 0.906 1_565 S
H7612 C7626 0.930 . S
H7613 C7628 0.960 . S
H7614 C7628 0.960 . S
H7615 C7628 0.960 . S
C7616 H7608 0.929 . S
C7616 C7617 1.377 . S
C7616 C7618 1.384 . S
C7617 C7616 1.377 . S
C7617 C7623 1.390 . S
C7618 H7609 0.930 . S
C7618 C7616 1.384 . S
C7618 C7619 1.372 . S
C7619 C7618 1.372 . S
C7619 C7620 1.400 . S
C7619 C7624 1.490 . S
C7620 H7610 0.930 . S
C7620 C7619 1.400 . S
C7620 C7623 1.386 . S
H7621 C7637 0.930 . S
H7622 C7638 0.931 . S
C7623 H7611 0.906 1_545 S
C7623 C7617 1.390 . S
C7623 C7620 1.386 . S
C7624 C7619 1.490 . S
C7624 C7626 1.395 . S
C7624 C7627 1.403 . S
H7625 C7631 0.930 . S
C7626 H7612 0.930 . S
C7626 C7624 1.395 . S
C7626 C7629 1.403 . S
C7627 C7624 1.403 . S
C7627 C7628 1.524 . S
C7627 C7631 1.400 . S
C7628 H7613 0.960 . S
C7628 H7614 0.960 . S
C7628 H7615 0.960 . S
C7628 C7627 1.524 . S
C7629 C7626 1.403 . S
C7629 C7630 1.392 . S
C7629 C7633 1.495 . S
C7630 C7629 1.392 . S
C7630 C7631 1.385 . S
C7630 C7632 1.478 . S
C7631 H7625 0.930 . S
C7631 C7627 1.400 . S
C7631 C7630 1.385 . S
C7632 C7630 1.478 . S
C7632 C7634 1.381 . S
C7632 C7638 1.383 . S
C7633 C7629 1.495 . S
C7633 H7639 0.959 . S
C7633 H7640 0.961 . S
C7633 H7641 0.960 . S
C7634 C7632 1.381 . S
C7634 C7635 1.394 . S
C7634 H7642 0.930 . S
C7635 C7634 1.394 . S
C7635 C7636 1.383 . S
C7635 H7643 0.929 . S
C7636 C7635 1.383 . S
C7636 C7637 1.377 . S
C7637 H7621 0.930 . S
C7637 C7636 1.377 . S
C7637 C7638 1.379 . S
C7638 H7622 0.931 . S
C7638 C7632 1.383 . S
C7638 C7637 1.379 . S
H7639 C7633 0.959 . S
H7640 C7633 0.961 . S
H7641 C7633 0.960 . S
H7642 C7634 0.930 . S
H7643 C7635 0.929 . S
H7644 C7652 0.929 . S
H7645 C7654 0.930 . S
H7646 C7656 0.930 . S
H7647 C7659 0.929 . S
H7648 C7662 0.930 1_545 S
H7649 C7664 0.960 . S
H7650 C7664 0.960 . S
H7651 C7664 0.960 . S
C7652 H7644 0.929 . S
C7652 C7653 1.377 . S
C7652 C7654 1.384 . S
C7653 C7652 1.377 . S
C7653 C7659 1.390 . S
C7654 H7645 0.930 . S
C7654 C7652 1.384 . S
C7654 C7655 1.372 . S
C7655 C7654 1.372 . S
C7655 C7656 1.400 . S
C7655 C7660 1.490 . S
C7656 H7646 0.930 . S
C7656 C7655 1.400 . S
C7656 C7659 1.386 . S
H7657 C7673 0.930 . S
H7658 C7674 0.931 . S
C7659 H7647 0.929 . S
C7659 C7653 1.390 . S
C7659 C7656 1.386 . S
C7660 C7655 1.490 . S
C7660 C7662 1.395 . S
C7660 C7663 1.403 . S
H7661 C7667 0.930 . S
C7662 H7648 0.930 1_565 S
C7662 C7660 1.395 . S
C7662 C7665 1.403 . S
C7663 C7660 1.403 . S
C7663 C7664 1.524 . S
C7663 C7667 1.400 . S
C7664 H7649 0.960 . S
C7664 H7650 0.960 . S
C7664 H7651 0.960 . S
C7664 C7663 1.524 . S
C7665 C7662 1.403 . S
C7665 C7666 1.392 . S
C7665 C7669 1.495 1_565 S
C7666 C7665 1.392 . S
C7666 C7667 1.385 . S
C7666 C7668 1.478 . S
C7667 H7661 0.930 . S
C7667 C7663 1.400 . S
C7667 C7666 1.385 . S
C7668 C7666 1.478 . S
C7668 C7670 1.381 . S
C7668 C7674 1.383 . S
C7669 C7665 1.495 1_545 S
C7669 H7675 0.959 . S
C7669 H7676 0.961 . S
C7669 H7677 0.960 . S
C7670 C7668 1.381 . S
C7670 C7671 1.394 . S
C7670 H7678 0.930 . S
C7671 C7670 1.394 . S
C7671 C7672 1.383 . S
C7671 H7679 0.929 . S
C7672 C7671 1.383 . S
C7672 C7673 1.377 . S
C7673 H7657 0.930 . S
C7673 C7672 1.377 . S
C7673 C7674 1.379 . S
C7674 H7658 0.931 . S
C7674 C7668 1.383 . S
C7674 C7673 1.379 . S
H7675 C7669 0.959 . S
H7676 C7669 0.961 . S
H7677 C7669 0.960 . S
H7678 C7670 0.930 . S
H7679 C7671 0.929 . S
C2505 C1781 1.757 . S
C2524 C1929 1.801 . S
C2541 C981 1.695 . S
C2560 C1941 1.653 . S
C2596 C1953 1.651 . S
C2577 C1861 1.602 . S
C2613 C1061 1.680 . S
C2632 C1965 1.645 . S
C2649 C1901 1.645 . S
C2668 C1977 1.607 . S
C2685 C941 1.727 . S
C2704 C1989 1.753 . S
C2721 C1821 1.616 . S
C2740 C2001 1.656 . S
C2757 C1021 1.638 . S
C2776 C2013 1.664 . S
C2793 C661 1.217 . S
C2812 C2025 1.186 . S
C2829 C1621 1.486 . S
C2848 C2037 1.479 . S
C2865 C741 1.775 . S
C2884 C2049 1.769 . S
C2901 C1581 1.758 . S
C2920 C2061 1.757 . S
C2937 C901 1.627 . S
C2956 C2073 1.611 . S
C2992 C2085 1.825 . S
C2973 C1661 1.792 . S
C3028 C2097 1.904 . S
C3009 C821 1.945 . S
C3045 C1141 1.581 . S
C3064 C2109 1.609 . S
C3100 C2121 1.793 . S
C3081 C781 1.759 . S
C3136 C2133 1.860 . S
C3117 C1701 1.896 . S
C3153 C861 1.603 . S
C3172 C2145 1.649 . S
C3189 C1181 1.701 . S
C3208 C2157 1.685 . S
C3244 C2169 1.348 . S
C3225 C1101 1.368 . S
C3261 C1421 1.347 . S
C3280 C2181 1.340 . S
C3316 C2193 1.641 . S
C3297 C381 1.648 . S
C3352 C2205 1.663 . S
C3333 C1501 1.662 . S
C3388 C2217 1.232 . S
C3369 C461 1.274 . S
C3424 C2229 1.523 . S
C3405 C1541 1.565 . S
C3441 C341 1.093 . S
C3460 C2241 1.061 . S
C3496 C2253 1.730 . S
C3477 C1461 1.743 . S
C3513 C421 1.707 . S
C3532 C2265 1.728 . S
C3568 C2277 1.508 . S
C3549 C61 1.554 . S
C3604 C2289 1.852 . S
C3585 C1261 1.790 . S
C3621 C141 1.541 . S
C3640 C2301 1.529 . S
C3676 C2313 1.526 . S
C3657 C1221 1.525 . S
C3712 C2325 1.446 . S
C3693 C301 1.466 . S
C3729 C1301 1.875 . S
C3748 C2337 1.854 . S
C3784 C2349 1.400 . S
C3765 C221 1.440 . S
C3820 C2361 1.600 . S
C3801 C541 1.609 . S
C3837 C181 1.686 . S
C3856 C2373 1.672 . S
C3892 C2385 1.381 . S
C3873 C1341 1.426 . S
C3909 C261 1.656 . S
C3928 C2397 1.651 . S
C3964 C2409 1.468 . S
C3945 C581 1.527 . S
C3981 C501 1.561 . S
C4000 C2421 1.528 . S
C4017 C701 1.452 . S
C4036 C2433 1.478 . S
C4072 C2445 1.780 . S
C4053 C621 1.780 . S
C4089 C1741 1.725 . S
C4108 C2457 1.688 . S
C4125 C101 1.662 . S
C4144 C2469 1.709 . S
C4180 C2481 1.466 . S
C4161 C21 1.478 . S
C4216 C2493 1.734 . S
C4197 C1381 1.757 . S
C4233 C1335 1.506 . S
C4252 C1926 1.475 . S
C4269 C535 1.370 . S
C4288 C1938 1.374 . S
C4305 C1362 1.878 . S
C4324 C1948 1.833 . S
C4360 C1960 1.604 . S
C4341 C1295 1.602 . S
C4377 C575 1.254 . S
C4396 C1972 1.242 . S
C4413 C1215 1.311 . S
C4432 C1984 1.300 . S
C4468 C1996 1.506 . S
C4449 C495 1.521 . S
C4485 C1242 1.504 . S
C4504 C2010 1.535 . S
C4521 C1255 1.683 . S
C4540 C2022 1.653 . S
C4576 C2032 1.463 . S
C4557 C562 1.503 . S
C4593 C1202 1.414 . S
C4612 C2044 1.393 . S
C4648 C2056 1.541 . S
C4629 C482 1.609 . S
C4665 C522 1.178 . S
C4684 C2070 1.114 . S
C4701 C1375 1.706 . S
C4720 C2080 1.702 . S
C4756 C2092 1.719 . S
C4737 C1282 1.796 . S
C4792 C2106 1.666 . S
C4773 C1322 1.681 . S
C4809 C455 1.758 . S
C4828 C2058 1.758 . S
C4845 C1415 1.375 . S
C4864 C2118 1.396 . S
C4881 C1455 1.576 . S
C4900 C2130 1.547 . S
C4936 C2140 1.399 . S
C4917 C1482 1.425 . S
C4972 C2068 1.581 . S
C4953 C442 1.667 . S
C4989 C362 1.558 . S
C5008 C2034 1.548 . S
C5025 C1495 1.312 . S
C5044 C2154 1.295 . S
C5080 C2164 1.464 . S
C5061 C1402 1.527 . S
C5116 C2178 1.978 . S
C5097 C1695 1.975 . S
C5133 C1135 1.399 . S
C5152 C2190 1.413 . S
C5188 C2200 1.663 . S
C5169 C1722 1.685 . S
C5224 C2212 1.425 . S
C5205 C1655 1.470 . S
C5241 C1175 1.899 . S
C5260 C2226 1.859 . S
C5277 C1562 1.492 . S
C5296 C2236 1.477 . S
C5313 C1095 1.350 . S
C5332 C2248 1.303 . S
C5368 C2262 1.560 . S
C5349 C1615 1.571 . S
C5404 C2274 1.558 . S
C5385 C1602 1.612 . S
C5421 C1162 1.799 . S
C5440 C2284 1.798 . S
C5476 C2298 1.630 . S
C5457 C1575 1.669 . S
C5493 C1082 1.464 . S
C5512 C2308 1.439 . S
C5548 C2320 1.571 . S
C5529 C1122 1.591 . S
C5565 C1735 1.906 . S
C5584 C2334 1.891 . S
C5620 C2346 1.290 . S
C5601 C1642 1.305 . S
C5637 C1682 1.905 . S
C5656 C2356 1.892 . S
C5673 C1042 1.590 . S
C5692 C2310 1.589 . S
C5709 C1775 1.633 . S
C5728 C2368 1.650 . S
C5745 C1815 1.384 . S
C5764 C2380 1.400 . S
C5800 C2394 1.570 . S
C5781 C1842 1.569 . S
C5817 C1055 1.475 . S
C5836 C2322 1.437 . S
C5853 C975 1.540 . S
C5872 C2286 1.510 . S
C5908 C2404 1.799 . S
C5889 C1855 1.783 . S
C5925 C1762 1.804 . S
C5944 C2416 1.766 . S
C5980 C1986 1.494 . S
C5961 C215 1.494 . S
C6016 C1998 1.326 . S
C5997 C255 1.330 . S
C6052 C2008 1.698 . S
C6033 C282 1.784 . S
C6088 C1974 1.416 . S
C6069 C175 1.418 . S
C6124 C1962 1.386 . S
C6105 C135 1.281 1_556 S
C6141 C15 1.332 . S
C6160 C1924 1.339 . S
C6177 C55 1.607 . S
C6196 C1936 1.599 . S
C6213 C82 1.529 . S
C6232 C1950 1.568 . S
C6249 C95 1.657 . S
C6268 C2166 1.641 . S
C6285 C122 1.392 . S
C6304 C2428 1.404 . S
C6321 C2 1.587 . S
C6340 C2152 1.541 . S
C6357 C42 1.708 . S
C6376 C2440 1.677 . S
C6393 C242 1.221 . S
C6412 C2454 1.196 . S
C6448 C2116 1.488 . S
C6429 C295 1.478 . S
C6465 C162 1.648 . S
C6484 C2128 1.586 . S
C6501 C202 1.649 . S
C6520 C2142 1.618 . S
C6556 C2442 1.571 . S
C6537 C1535 1.562 . S
C6573 C335 1.641 . S
C6592 C2082 1.641 . S
C6609 C375 1.638 . S
C6628 C2094 1.612 . S
C6645 C402 1.478 . S
C6664 C2104 1.478 . S
C6700 C2452 1.665 . S
C6681 C1522 1.727 . S
C6736 C2430 1.566 . S
C6717 C1442 1.580 . S
C6772 C2046 1.376 . S
C6753 C415 1.401 . S
C6789 C322 1.519 . S
C6808 C2020 1.463 . S
C6825 C815 1.974 . S
C6844 C2238 1.917 . S
C6861 C855 1.488 . S
C6880 C2250 1.517 . S
C6897 C882 1.776 . S
C6916 C2260 1.763 . S
C6933 C775 1.524 . S
C6952 C2224 1.489 . S
C6988 C2214 1.778 . S
C6969 C735 1.811 . S
C7024 C2176 1.439 . S
C7005 C602 1.441 . S
C7060 C2188 1.320 . S
C7041 C655 1.356 . S
C7077 C695 1.597 . S
C7096 C2202 1.611 . S
C7132 C2418 1.530 . S
C7113 C682 1.558 . S
C7149 C722 1.641 . S
C7168 C2464 1.638 . S
C7185 C615 1.712 . S
C7204 C2406 1.687 . S
C7240 C2476 1.379 . S
C7221 C642 1.383 . S
C7257 C842 1.662 . S
C7276 C2488 1.646 . S
C7312 C2370 1.946 . S
C7293 C895 1.979 . S
C7329 C762 1.278 . S
C7348 C2382 1.278 . S
C7365 C802 1.873 . S
C7384 C2392 1.857 . S
C7401 C1895 1.527 . S
C7420 C2478 1.470 . S
C7456 C2332 1.817 . S
C7437 C935 1.816 . S
C7473 C962 1.475 . S
C7492 C2344 1.438 . S
C7509 C1002 1.628 . S
C7528 C2358 1.678 . S
C7545 C1882 1.477 . S
C7564 C2490 1.445 . S
C7581 C1802 1.369 . S
C7600 C2466 1.374 . S
C7636 C2296 1.659 . S
C7617 C1015 1.664 . S
C7672 C2272 1.908 . S
C7653 C922 1.917 . S
