# Generated by pormake.
# Topology pto, (3,4)-cn, num edge types: 1
# Building blocks:
#     Node 0, Type 0, BuildingBlock: ESEHIV_clean_linker_0, # of connection points: 3
#     Node 1, Type 0, BuildingBlock: ESEHIV_clean_linker_0, # of connection points: 3
#     Node 2, Type 0, BuildingBlock: ESEHIV_clean_linker_0, # of connection points: 3
#     Node 3, Type 0, BuildingBlock: ESEHIV_clean_linker_0, # of connection points: 3
#     Node 4, Type 0, BuildingBlock: ESEHIV_clean_linker_0, # of connection points: 3
#     Node 5, Type 0, BuildingBlock: ESEHIV_clean_linker_0, # of connection points: 3
#     Node 6, Type 0, BuildingBlock: ESEHIV_clean_linker_0, # of connection points: 3
#     Node 7, Type 0, BuildingBlock: ESEHIV_clean_linker_0, # of connection points: 3
#     Node 8, Type 1, BuildingBlock: NAWXER_clean_sbu_0, # of connection points: 4
#     Node 9, Type 1, BuildingBlock: NAWXER_clean_sbu_0, # of connection points: 4
#     Node 10, Type 1, BuildingBlock: NAWXER_clean_sbu_0, # of connection points: 4
#     Node 11, Type 1, BuildingBlock: NAWXER_clean_sbu_0, # of connection points: 4
#     Node 12, Type 1, BuildingBlock: NAWXER_clean_sbu_0, # of connection points: 4
#     Node 13, Type 1, BuildingBlock: NAWXER_clean_sbu_0, # of connection points: 4
#     Edge 14, Type (0, 1), BuildingBlock: UVAHIK_clean_linker_0, # of connection points: 2
#     Edge 15, Type (0, 1), BuildingBlock: UVAHIK_clean_linker_0, # of connection points: 2
#     Edge 16, Type (0, 1), BuildingBlock: UVAHIK_clean_linker_0, # of connection points: 2
#     Edge 17, Type (0, 1), BuildingBlock: UVAHIK_clean_linker_0, # of connection points: 2
#     Edge 18, Type (0, 1), BuildingBlock: UVAHIK_clean_linker_0, # of connection points: 2
#     Edge 19, Type (0, 1), BuildingBlock: UVAHIK_clean_linker_0, # of connection points: 2
#     Edge 20, Type (0, 1), BuildingBlock: UVAHIK_clean_linker_0, # of connection points: 2
#     Edge 21, Type (0, 1), BuildingBlock: UVAHIK_clean_linker_0, # of connection points: 2
#     Edge 22, Type (0, 1), BuildingBlock: UVAHIK_clean_linker_0, # of connection points: 2
#     Edge 23, Type (0, 1), BuildingBlock: UVAHIK_clean_linker_0, # of connection points: 2
#     Edge 24, Type (0, 1), BuildingBlock: UVAHIK_clean_linker_0, # of connection points: 2
#     Edge 25, Type (0, 1), BuildingBlock: UVAHIK_clean_linker_0, # of connection points: 2
#     Edge 26, Type (0, 1), BuildingBlock: UVAHIK_clean_linker_0, # of connection points: 2
#     Edge 27, Type (0, 1), BuildingBlock: UVAHIK_clean_linker_0, # of connection points: 2
#     Edge 28, Type (0, 1), BuildingBlock: UVAHIK_clean_linker_0, # of connection points: 2
#     Edge 29, Type (0, 1), BuildingBlock: UVAHIK_clean_linker_0, # of connection points: 2
#     Edge 30, Type (0, 1), BuildingBlock: UVAHIK_clean_linker_0, # of connection points: 2
#     Edge 31, Type (0, 1), BuildingBlock: UVAHIK_clean_linker_0, # of connection points: 2
#     Edge 32, Type (0, 1), BuildingBlock: UVAHIK_clean_linker_0, # of connection points: 2
#     Edge 33, Type (0, 1), BuildingBlock: UVAHIK_clean_linker_0, # of connection points: 2
#     Edge 34, Type (0, 1), BuildingBlock: UVAHIK_clean_linker_0, # of connection points: 2
#     Edge 35, Type (0, 1), BuildingBlock: UVAHIK_clean_linker_0, # of connection points: 2
#     Edge 36, Type (0, 1), BuildingBlock: UVAHIK_clean_linker_0, # of connection points: 2
#     Edge 37, Type (0, 1), BuildingBlock: UVAHIK_clean_linker_0, # of connection points: 2
# Relax obj value: 0.000
# Max RMSD: 0.005
# Mean RMSD: 0.003
data_MOF--net-pto--node1-NAWXER_clean_sbu_0--node2-ESEHIV_clean_linker_0--edge1-UVAHIK_clean_linker_0
_symmetry_space_group_name_H-M    P1
_symmetry_Int_Tables_number       1
_symmetry_cell_setting            triclinic
loop_
_symmetry_equiv_pos_as_xyz
'x, y, z'
_cell_length_a     54.588293
_cell_length_b     51.210469
_cell_length_c     47.772325
_cell_angle_alpha  90.477714
_cell_angle_beta   90.015354
_cell_angle_gamma 90.040548
loop_
_atom_site_label
_atom_site_type_symbol
_atom_site_fract_x
_atom_site_fract_y
_atom_site_fract_z
_atom_type_partial_charge
H0 H 0.25608 0.3012 0.22163 0.0
H1 H 0.27617 0.22522 0.2523 0.0
H2 H 0.21642 0.2671 0.28988 0.0
C3 C 0.25337 0.28523 0.23604 0.0
C4 C 0.23485 0.28703 0.2564 0.0
C5 C 0.26836 0.26288 0.23425 0.0
C6 C 0.26438 0.24224 0.25295 0.0
C7 C 0.24585 0.24378 0.27324 0.0
C8 C 0.23122 0.26619 0.27478 0.0
H9 H 0.25778 0.6998 0.78015 0.0
H10 H 0.27806 0.7761 0.75081 0.0
H11 H 0.21553 0.73665 0.71583 0.0
C12 C 0.2548 0.71619 0.76636 0.0
C13 C 0.23543 0.71529 0.74699 0.0
C14 C 0.27013 0.73827 0.76816 0.0
C15 C 0.26587 0.75941 0.75019 0.0
C16 C 0.2463 0.75898 0.73107 0.0
C17 C 0.23122 0.73683 0.72972 0.0
H18 H 0.72458 0.77366 0.25197 0.0
H19 H 0.78819 0.73672 0.28684 0.0
H20 H 0.74705 0.69775 0.22232 0.0
C21 C 0.73729 0.75744 0.2525 0.0
C22 C 0.7337 0.73601 0.23435 0.0
C23 C 0.75685 0.75792 0.27162 0.0
C24 C 0.7725 0.73627 0.27293 0.0
C25 C 0.76882 0.71433 0.25568 0.0
C26 C 0.74956 0.71441 0.23617 0.0
H27 H 0.72652 0.22611 0.75545 0.0
H28 H 0.78953 0.26431 0.72066 0.0
H29 H 0.74785 0.30233 0.78533 0.0
C30 C 0.739 0.24256 0.75497 0.0
C31 C 0.73512 0.26386 0.7732 0.0
C32 C 0.75852 0.2425 0.73581 0.0
C33 C 0.77386 0.26444 0.73459 0.0
C34 C 0.76988 0.28625 0.75192 0.0
C35 C 0.75062 0.28576 0.77144 0.0
H36 H 0.71223 0.75587 0.74369 0.0
H37 H 0.75218 0.69703 0.78803 0.0
H38 H 0.78837 0.74259 0.72508 0.0
C39 C 0.7291 0.7453 0.74727 0.0
C40 C 0.75014 0.75162 0.73172 0.0
C41 C 0.72966 0.72565 0.76763 0.0
C42 C 0.75165 0.71218 0.77236 0.0
C43 C 0.77299 0.71816 0.75723 0.0
C44 C 0.77203 0.73788 0.73686 0.0
H45 H 0.71258 0.24745 0.26202 0.0
H46 H 0.75232 0.30618 0.21716 0.0
H47 H 0.78871 0.26125 0.2804 0.0
C48 C 0.72943 0.25805 0.2583 0.0
C49 C 0.75052 0.25191 0.27385 0.0
C50 C 0.72988 0.2776 0.23781 0.0
C51 C 0.75184 0.29112 0.23293 0.0
C52 C 0.77321 0.28536 0.24808 0.0
C53 C 0.77234 0.26576 0.26858 0.0
H54 H 0.21484 0.2583 0.73134 0.0
H55 H 0.29044 0.24498 0.7529 0.0
H56 H 0.25016 0.3063 0.79367 0.0
C57 C 0.23097 0.2633 0.74347 0.0
C58 C 0.22966 0.28368 0.76342 0.0
C59 C 0.25291 0.24928 0.73922 0.0
C60 C 0.27367 0.25608 0.75521 0.0
C61 C 0.27271 0.27644 0.77507 0.0
C62 C 0.25072 0.29014 0.7789 0.0
H63 H 0.21726 0.74468 0.27624 0.0
H64 H 0.25235 0.69593 0.21455 0.0
H65 H 0.29164 0.76017 0.2519 0.0
C66 C 0.23326 0.73961 0.26393 0.0
C67 C 0.25482 0.75449 0.26687 0.0
C68 C 0.232 0.71888 0.24443 0.0
C69 C 0.25287 0.7127 0.2285 0.0
C70 C 0.27449 0.72747 0.23079 0.0
C71 C 0.27519 0.74845 0.24998 0.0
C72 C 0.97367 0.46418 0.22385 0.0
C73 C 0.03169 0.5379 0.22449 0.0
O74 O 0.98002 0.47232 0.24822 0.0
Zn75 Zn 0.00244 0.5013 0.26757 0.0
O76 O 0.98234 0.47531 0.20225 0.0
Zn77 Zn 0.00264 0.50106 0.22208 0.0
O78 O 0.02937 0.47721 0.24139 0.0
O79 O 0.0265 0.48016 0.28741 0.0
O80 O 0.02315 0.52661 0.20271 0.0
O81 O 0.0251 0.53002 0.24873 0.0
O82 O 0.97819 0.52266 0.2872 0.0
O83 O 0.97567 0.52505 0.24117 0.0
C84 C 0.03693 0.47072 0.26573 0.0
C85 C 0.96789 0.5318 0.26545 0.0
C86 C 0.96715 0.47134 0.74214 0.0
C87 C 0.03672 0.53184 0.74128 0.0
O88 O 0.9749 0.47833 0.76637 0.0
Zn89 Zn 0.00201 0.50239 0.78524 0.0
O90 O 0.97757 0.48018 0.72032 0.0
Zn91 Zn 0.0019 0.50161 0.73978 0.0
O92 O 0.02425 0.47291 0.75913 0.0
O93 O 0.02221 0.47691 0.80509 0.0
O94 O 0.02616 0.52232 0.71973 0.0
O95 O 0.02908 0.52572 0.76571 0.0
O96 O 0.98186 0.52852 0.80463 0.0
O97 O 0.97962 0.53096 0.75861 0.0
C98 C 0.0307 0.46527 0.7835 0.0
C99 C 0.97328 0.53942 0.78286 0.0
C100 C 0.215 0.96888 0.54117 0.0
C101 C 0.2226 0.03328 0.46748 0.0
O102 O 0.19757 0.97842 0.5269 0.0
Zn103 Zn 0.21789 1.00032 0.50352 0.0
O104 O 0.23725 0.97495 0.53574 0.0
Zn105 Zn 0.25707 0.99852 0.507 0.0
O106 O 0.27431 0.02224 0.53228 0.0
O107 O 0.23411 0.02709 0.53323 0.0
O108 O 0.24322 0.02523 0.47689 0.0
O109 O 0.20279 0.02386 0.47714 0.0
O110 O 0.23492 0.97246 0.47645 0.0
O111 O 0.27473 0.97282 0.4841 0.0
C112 C 0.25544 0.03367 0.54216 0.0
C113 C 0.25634 0.96364 0.47091 0.0
C114 C 0.53467 0.73437 0.03608 0.0
C115 C 0.46811 0.73594 0.96739 0.0
O116 O 0.52777 0.71162 0.02785 0.0
Zn117 Zn 0.50183 0.69439 0.99945 0.0
O118 O 0.52442 0.75456 0.02606 0.0
Zn119 Zn 0.50139 0.7363 0.00197 0.0
O120 O 0.47888 0.71686 0.03181 0.0
O121 O 0.4808 0.67426 0.02412 0.0
O122 O 0.47772 0.75557 0.97966 0.0
O123 O 0.47569 0.71294 0.97317 0.0
O124 O 0.52309 0.67704 0.97236 0.0
O125 O 0.52514 0.72005 0.97091 0.0
C126 C 0.47246 0.69357 0.03806 0.0
C127 C 0.53193 0.69765 0.9616 0.0
C128 C 0.7496 0.96505 0.5359 0.0
C129 C 0.75025 0.0381 0.46954 0.0
O130 O 0.73096 0.9758 0.52487 0.0
Zn131 Zn 0.7487 0.00151 0.50261 0.0
O132 O 0.77109 0.97295 0.52924 0.0
Zn133 Zn 0.78799 0.00113 0.50261 0.0
O134 O 0.80609 0.02275 0.52871 0.0
O135 O 0.76588 0.02488 0.53428 0.0
O136 O 0.77159 0.02977 0.47616 0.0
O137 O 0.73141 0.02762 0.48045 0.0
O138 O 0.76538 0.97777 0.47097 0.0
O139 O 0.80562 0.97913 0.4765 0.0
C140 C 0.78755 0.03144 0.54189 0.0
C141 C 0.78691 0.97077 0.46336 0.0
C142 C 0.53225 0.30086 0.04367 0.0
C143 C 0.47188 0.30069 0.96759 0.0
O144 O 0.52581 0.27805 0.03523 0.0
Zn145 Zn 0.50244 0.26013 0.00494 0.0
O146 O 0.52313 0.32092 0.03205 0.0
Zn147 Zn 0.5021 0.30221 0.00561 0.0
O148 O 0.47634 0.28382 0.03273 0.0
O149 O 0.47951 0.24101 0.02823 0.0
O150 O 0.48076 0.32078 0.97976 0.0
O151 O 0.47869 0.27791 0.97531 0.0
O152 O 0.5257 0.24183 0.98103 0.0
O153 O 0.52815 0.28473 0.97791 0.0
C154 C 0.46938 0.26082 0.03956 0.0
C155 C 0.5355 0.26198 0.97035 0.0
C156 C 0.21202 0.32071 0.28433 0.0
C157 C 0.21834 0.30995 0.25812 0.0
C158 C 0.19376 0.3397 0.28649 0.0
C159 C 0.13869 0.36067 0.24941 0.0
H160 H 0.14077 0.42102 0.29901 0.0
C161 C 0.06742 0.44153 0.2428 0.0
C162 C 0.0578 0.45237 0.26761 0.0
C163 C 0.08716 0.42444 0.24355 0.0
C164 C 0.13983 0.40403 0.28539 0.0
H165 H 0.21144 0.31161 0.21352 0.0
H166 H 0.17974 0.34512 0.2172 0.0
H167 H 0.17638 0.39206 0.29564 0.0
H168 H 0.06161 0.4538 0.31277 0.0
H169 H 0.09647 0.42347 0.31409 0.0
H170 H 0.10228 0.37241 0.23914 0.0
C171 C 0.18867 0.33854 0.23613 0.0
C172 C 0.16023 0.38755 0.28335 0.0
C173 C 0.207 0.3196 0.23396 0.0
C174 C 0.06856 0.44571 0.29332 0.0
C175 C 0.08856 0.4285 0.29405 0.0
C176 C 0.11838 0.37702 0.2515 0.0
C177 C 0.18141 0.34827 0.26248 0.0
C178 C 0.15996 0.3659 0.26502 0.0
C179 C 0.09792 0.41759 0.26911 0.0
C180 C 0.11883 0.39911 0.26916 0.0
H181 H 0.22069 0.31382 0.30328 0.0
H182 H 0.18856 0.34678 0.30708 0.0
H183 H 0.13766 0.34375 0.2357 0.0
H184 H 0.05973 0.44624 0.22255 0.0
H185 H 0.09421 0.41679 0.22393 0.0
C186 C 0.20832 0.68214 0.76975 0.0
C187 C 0.21859 0.6926 0.74535 0.0
C188 C 0.18991 0.66323 0.76793 0.0
C189 C 0.15964 0.61553 0.7206 0.0
H190 H 0.10369 0.62856 0.76867 0.0
C191 C 0.06779 0.55724 0.71324 0.0
C192 C 0.05787 0.54985 0.73916 0.0
C193 C 0.08785 0.57438 0.71222 0.0
C194 C 0.11924 0.62451 0.75524 0.0
H195 H 0.21883 0.69031 0.7 0.0
H196 H 0.18655 0.65741 0.69683 0.0
H197 H 0.13899 0.65745 0.77119 0.0
H198 H 0.06152 0.55442 0.78427 0.0
H199 H 0.09613 0.58373 0.78238 0.0
H200 H 0.13972 0.58241 0.70478 0.0
C201 C 0.19268 0.66381 0.71734 0.0
C202 C 0.13951 0.64101 0.75678 0.0
C203 C 0.21102 0.68278 0.71916 0.0
C204 C 0.06849 0.55977 0.76388 0.0
C205 C 0.08833 0.57676 0.76285 0.0
C206 C 0.1393 0.5989 0.7191 0.0
C207 C 0.18148 0.65434 0.74168 0.0
C208 C 0.16006 0.63656 0.73974 0.0
C209 C 0.09815 0.58447 0.73708 0.0
C210 C 0.11902 0.60305 0.73671 0.0
H211 H 0.21372 0.68941 0.7902 0.0
H212 H 0.18187 0.65597 0.78708 0.0
H213 H 0.17525 0.61162 0.70721 0.0
H214 H 0.06006 0.54988 0.69385 0.0
H215 H 0.09502 0.58006 0.69203 0.0
C216 C 0.79676 0.68133 0.23346 0.0
C217 C 0.78601 0.69202 0.25764 0.0
C218 C 0.81533 0.66268 0.23567 0.0
C219 C 0.84499 0.61593 0.28362 0.0
H220 H 0.90175 0.62854 0.23686 0.0
C221 C 0.9366 0.55782 0.2929 0.0
C222 C 0.94691 0.55004 0.26718 0.0
C223 C 0.91662 0.57506 0.29353 0.0
C224 C 0.88597 0.62462 0.24993 0.0
H225 H 0.78511 0.6905 0.30297 0.0
H226 H 0.81763 0.65805 0.30683 0.0
H227 H 0.86641 0.65722 0.23356 0.0
H228 H 0.94409 0.55411 0.22201 0.0
H229 H 0.90962 0.58359 0.22322 0.0
H230 H 0.8647 0.58312 0.29983 0.0
C231 C 0.81177 0.66405 0.2862 0.0
C232 C 0.86569 0.641 0.24794 0.0
C233 C 0.7933 0.68276 0.28399 0.0
C234 C 0.9368 0.55974 0.24226 0.0
C235 C 0.91704 0.57684 0.24291 0.0
C236 C 0.86535 0.59942 0.28556 0.0
C237 C 0.82341 0.6543 0.26209 0.0
C238 C 0.84486 0.63668 0.2645 0.0
C239 C 0.90679 0.58487 0.26848 0.0
C240 C 0.88592 0.60342 0.26844 0.0
H241 H 0.79158 0.68818 0.2129 0.0
H242 H 0.82373 0.6552 0.21669 0.0
H243 H 0.82916 0.61213 0.29663 0.0
H244 H 0.94394 0.55063 0.31244 0.0
H245 H 0.90911 0.581 0.31357 0.0
C246 C 0.79402 0.31824 0.72371 0.0
C247 C 0.78674 0.30889 0.75003 0.0
C248 C 0.81223 0.33728 0.7216 0.0
C249 C 0.86552 0.36156 0.76035 0.0
H250 H 0.86428 0.4188 0.70765 0.0
C251 C 0.9358 0.44381 0.76553 0.0
C252 C 0.94613 0.4531 0.74054 0.0
C253 C 0.91613 0.42658 0.76498 0.0
C254 C 0.86499 0.40268 0.72217 0.0
H255 H 0.79201 0.31297 0.79481 0.0
H256 H 0.82364 0.34655 0.79117 0.0
H257 H 0.82908 0.38928 0.71083 0.0
H258 H 0.94357 0.45169 0.69526 0.0
H259 H 0.90886 0.42111 0.69431 0.0
H260 H 0.90132 0.37475 0.77171 0.0
C261 C 0.81548 0.33886 0.77215 0.0
C262 C 0.84483 0.38587 0.72409 0.0
C263 C 0.79719 0.31986 0.77426 0.0
C264 C 0.93606 0.44484 0.71486 0.0
C265 C 0.91616 0.42747 0.71432 0.0
C266 C 0.88561 0.37826 0.7584 0.0
C267 C 0.82359 0.34732 0.74576 0.0
C268 C 0.84479 0.36532 0.74346 0.0
C269 C 0.90616 0.41802 0.73945 0.0
C270 C 0.88546 0.39922 0.73959 0.0
H271 H 0.78605 0.31032 0.70469 0.0
H272 H 0.81811 0.34333 0.70099 0.0
H273 H 0.86634 0.34551 0.77494 0.0
H274 H 0.9429 0.44983 0.78575 0.0
H275 H 0.90856 0.4201 0.78471 0.0
C276 C 0.23761 0.22751 0.32154 0.0
C277 C 0.24167 0.22213 0.29303 0.0
C278 C 0.23327 0.20727 0.34024 0.0
C279 C 0.2138 0.13856 0.34464 0.0
H280 H 0.24947 0.14033 0.41484 0.0
C281 C 0.20051 0.06369 0.4349 0.0
C282 C 0.22247 0.05409 0.44625 0.0
C283 C 0.20098 0.08424 0.41573 0.0
C284 C 0.23938 0.13959 0.39532 0.0
H285 H 0.24408 0.19141 0.26166 0.0
H286 H 0.23684 0.15587 0.29454 0.0
H287 H 0.25403 0.17612 0.38204 0.0
H288 H 0.26212 0.05814 0.44586 0.0
H289 H 0.26279 0.0937 0.41276 0.0
H290 H 0.19957 0.1016 0.35791 0.0
C291 C 0.23679 0.17581 0.3023 0.0
C292 C 0.24183 0.16017 0.37665 0.0
C293 C 0.24123 0.19608 0.28357 0.0
C294 C 0.24482 0.06511 0.4377 0.0
C295 C 0.24525 0.08561 0.41882 0.0
C296 C 0.21123 0.11797 0.36347 0.0
C297 C 0.23286 0.18122 0.33084 0.0
C298 C 0.22928 0.15975 0.35099 0.0
C299 C 0.22337 0.09561 0.4079 0.0
C300 C 0.2243 0.11815 0.38879 0.0
H301 H 0.23803 0.24739 0.32946 0.0
H302 H 0.23014 0.21204 0.36208 0.0
H303 H 0.20373 0.13789 0.32511 0.0
H304 H 0.18302 0.05555 0.44104 0.0
H305 H 0.18384 0.09167 0.40759 0.0
C306 C 0.29555 0.76276 0.80357 0.0
C307 C 0.29053 0.73948 0.7888 0.0
C308 C 0.3151 0.76418 0.82243 0.0
C309 C 0.37339 0.73145 0.84021 0.0
H310 H 0.36637 0.76784 0.9113 0.0
C311 C 0.44077 0.71703 0.93064 0.0
C312 C 0.44844 0.73894 0.94628 0.0
C313 C 0.4222 0.71913 0.9108 0.0
C314 C 0.36871 0.75794 0.89136 0.0
H315 H 0.30213 0.69938 0.78245 0.0
H316 H 0.33583 0.70163 0.81585 0.0
H317 H 0.3322 0.76704 0.87823 0.0
H318 H 0.44248 0.78033 0.95329 0.0
H319 H 0.40966 0.78399 0.91841 0.0
H320 H 0.4097 0.72195 0.85351 0.0
C321 C 0.32488 0.71896 0.81251 0.0
C322 C 0.34914 0.75744 0.87241 0.0
C323 C 0.30536 0.71755 0.79362 0.0
C324 C 0.43701 0.76311 0.94156 0.0
C325 C 0.41817 0.76517 0.92172 0.0
C326 C 0.39287 0.73188 0.85914 0.0
C327 C 0.33009 0.74234 0.82702 0.0
C328 C 0.35115 0.74388 0.84676 0.0
C329 C 0.41066 0.74317 0.90607 0.0
C330 C 0.39064 0.7448 0.88509 0.0
H331 H 0.28429 0.77993 0.80064 0.0
H332 H 0.31868 0.78254 0.83308 0.0
H333 H 0.37578 0.72135 0.82039 0.0
H334 H 0.44912 0.69808 0.93368 0.0
H335 H 0.41659 0.70173 0.89943 0.0
C336 C 0.75694 0.80653 0.27988 0.0
C337 C 0.76133 0.78116 0.28984 0.0
C338 C 0.76155 0.82832 0.29685 0.0
C339 C 0.79893 0.8526 0.35349 0.0
H340 H 0.74477 0.89859 0.37161 0.0
C341 C 0.80441 0.93044 0.44169 0.0
C342 C 0.78931 0.95246 0.43975 0.0
C343 C 0.8032 0.9108 0.4212 0.0
C344 C 0.76033 0.88642 0.36631 0.0
H345 H 0.7737 0.75902 0.32582 0.0
H346 H 0.78273 0.79723 0.35483 0.0
H347 H 0.73832 0.862 0.33973 0.0
H348 H 0.76262 0.97253 0.41428 0.0
H349 H 0.7617 0.93935 0.37757 0.0
H350 H 0.82121 0.87724 0.37936 0.0
C351 C 0.77568 0.80002 0.33386 0.0
C352 C 0.75649 0.86533 0.34821 0.0
C353 C 0.77058 0.77821 0.31716 0.0
C354 C 0.77425 0.95549 0.41626 0.0
C355 C 0.77354 0.93631 0.39543 0.0
C356 C 0.80295 0.87407 0.37116 0.0
C357 C 0.77112 0.82519 0.32385 0.0
C358 C 0.77567 0.84813 0.34192 0.0
C359 C 0.78726 0.91321 0.39813 0.0
C360 C 0.78363 0.89116 0.37802 0.0
H361 H 0.75028 0.80966 0.25882 0.0
H362 H 0.75798 0.84765 0.28876 0.0
H363 H 0.814 0.83955 0.3487 0.0
H364 H 0.81598 0.92767 0.45985 0.0
H365 H 0.81388 0.89326 0.42424 0.0
C366 C 0.7002 0.28493 0.79929 0.0
C367 C 0.71489 0.26291 0.79404 0.0
C368 C 0.68066 0.28359 0.81815 0.0
C369 C 0.65584 0.24459 0.87681 0.0
H370 H 0.59535 0.28003 0.85811 0.0
C371 C 0.567 0.236 0.94341 0.0
C372 C 0.55525 0.25986 0.94921 0.0
C373 C 0.58612 0.23479 0.92385 0.0
C374 C 0.61216 0.27012 0.86368 0.0
H375 H 0.721 0.22244 0.8052 0.0
H376 H 0.6866 0.21993 0.83745 0.0
H377 H 0.62975 0.28148 0.8257 0.0
H378 H 0.55419 0.30105 0.93873 0.0
H379 H 0.58724 0.29886 0.90489 0.0
H380 H 0.63809 0.23326 0.91486 0.0
C381 C 0.69026 0.2383 0.82721 0.0
C382 C 0.63192 0.27105 0.84517 0.0
C383 C 0.70982 0.23967 0.80843 0.0
C384 C 0.56281 0.28233 0.93483 0.0
C385 C 0.58168 0.28107 0.91525 0.0
C386 C 0.636 0.24357 0.8953 0.0
C387 C 0.67532 0.26019 0.83216 0.0
C388 C 0.65411 0.25856 0.85163 0.0
C389 C 0.59361 0.25735 0.90955 0.0
C390 C 0.61405 0.25661 0.88907 0.0
H391 H 0.70349 0.30308 0.78844 0.0
H392 H 0.66975 0.30094 0.82179 0.0
H393 H 0.67274 0.23497 0.88259 0.0
H394 H 0.56161 0.21837 0.95416 0.0
H395 H 0.59493 0.21621 0.91975 0.0
C396 C 0.24411 0.80742 0.7232 0.0
C397 C 0.24114 0.78178 0.71293 0.0
C398 C 0.23866 0.82878 0.70634 0.0
C399 C 0.20208 0.84932 0.64662 0.0
H400 H 0.25204 0.90224 0.63688 0.0
C401 C 0.19828 0.92707 0.55939 0.0
C402 C 0.21041 0.9508 0.56417 0.0
C403 C 0.19885 0.90757 0.57973 0.0
C404 C 0.23758 0.88805 0.6398 0.0
H405 H 0.23047 0.75867 0.67656 0.0
H406 H 0.22028 0.79607 0.64754 0.0
H407 H 0.25955 0.86605 0.66825 0.0
H408 H 0.2309 0.97393 0.59417 0.0
H409 H 0.23055 0.94077 0.63039 0.0
H410 H 0.17991 0.87144 0.61848 0.0
C411 C 0.22673 0.79946 0.66871 0.0
C412 C 0.24203 0.86721 0.65766 0.0
C413 C 0.23254 0.77809 0.68539 0.0
C414 C 0.22152 0.95561 0.59012 0.0
C415 C 0.22157 0.93648 0.61066 0.0
C416 C 0.19743 0.87045 0.62904 0.0
C417 C 0.22979 0.82497 0.67904 0.0
C418 C 0.22443 0.84756 0.66103 0.0
C419 C 0.21122 0.91177 0.6053 0.0
C420 C 0.21521 0.89001 0.62525 0.0
H421 H 0.25026 0.81102 0.74444 0.0
H422 H 0.24105 0.84833 0.71478 0.0
H423 H 0.18816 0.83443 0.64909 0.0
H424 H 0.18987 0.92295 0.53928 0.0
H425 H 0.19082 0.88877 0.57472 0.0
C426 C 0.69927 0.71409 0.20811 0.0
C427 C 0.71345 0.73649 0.2135 0.0
C428 C 0.6798 0.71491 0.18912 0.0
C429 C 0.65441 0.75348 0.1304 0.0
H430 H 0.59478 0.71589 0.14807 0.0
C431 C 0.56562 0.76056 0.06361 0.0
C432 C 0.55443 0.73651 0.05722 0.0
C433 C 0.58469 0.76191 0.08322 0.0
C434 C 0.61136 0.72639 0.14279 0.0
H435 H 0.71865 0.77714 0.20247 0.0
H436 H 0.68432 0.77878 0.17006 0.0
H437 H 0.62898 0.71524 0.18082 0.0
H438 H 0.55429 0.6951 0.06671 0.0
H439 H 0.58727 0.69753 0.10073 0.0
H440 H 0.63659 0.76466 0.09234 0.0
C441 C 0.68837 0.76048 0.18026 0.0
C442 C 0.63101 0.72593 0.16149 0.0
C443 C 0.70788 0.75962 0.19915 0.0
C444 C 0.5625 0.71396 0.07107 0.0
C445 C 0.58132 0.71535 0.09075 0.0
C446 C 0.63466 0.75406 0.11174 0.0
C447 C 0.67398 0.73818 0.17511 0.0
C448 C 0.65288 0.73923 0.15542 0.0
C449 C 0.59268 0.73929 0.09701 0.0
C450 C 0.61304 0.74027 0.1176 0.0
H451 H 0.70293 0.696 0.21893 0.0
H452 H 0.66934 0.69725 0.18534 0.0
H453 H 0.67107 0.76371 0.12489 0.0
H454 H 0.55982 0.77827 0.05328 0.0
H455 H 0.59304 0.78066 0.08778 0.0
C456 C 0.77231 0.22269 0.69008 0.0
C457 C 0.76324 0.21944 0.71743 0.0
C458 C 0.77745 0.20105 0.67314 0.0
C459 C 0.75834 0.13577 0.6584 0.0
H460 H 0.82274 0.12443 0.62624 0.0
C461 C 0.77553 0.04623 0.58934 0.0
C462 C 0.79028 0.04952 0.56564 0.0
C463 C 0.77506 0.06524 0.61036 0.0
C464 C 0.80457 0.12744 0.63473 0.0
H465 H 0.75264 0.1906 0.74829 0.0
H466 H 0.7604 0.15291 0.71797 0.0
H467 H 0.81577 0.16183 0.65735 0.0
H468 H 0.81664 0.07457 0.54534 0.0
H469 H 0.81493 0.10869 0.58131 0.0
H470 H 0.74646 0.10265 0.63486 0.0
C471 C 0.76379 0.17234 0.71002 0.0
C472 C 0.80068 0.14876 0.65265 0.0
C473 C 0.75914 0.19395 0.72722 0.0
C474 C 0.80531 0.07161 0.56366 0.0
C475 C 0.80433 0.09107 0.58436 0.0
C476 C 0.76204 0.11484 0.64006 0.0
C477 C 0.77311 0.17576 0.68296 0.0
C478 C 0.77754 0.153 0.6646 0.0
C479 C 0.78869 0.08842 0.60765 0.0
C480 C 0.78522 0.11031 0.62799 0.0
H481 H 0.77521 0.24197 0.68156 0.0
H482 H 0.78431 0.20407 0.65213 0.0
H483 H 0.74026 0.13894 0.66716 0.0
H484 H 0.76395 0.02914 0.59133 0.0
H485 H 0.76345 0.06201 0.62837 0.0
C486 C 0.30362 0.28291 0.20835 0.0
C487 C 0.28856 0.26121 0.21343 0.0
C488 C 0.3234 0.28095 0.1899 0.0
C489 C 0.34873 0.24109 0.13175 0.0
H490 H 0.40919 0.27616 0.15225 0.0
C491 C 0.43811 0.23395 0.06545 0.0
C492 C 0.44964 0.25805 0.0606 0.0
C493 C 0.41894 0.23216 0.0849 0.0
C494 C 0.3924 0.26633 0.14618 0.0
H495 H 0.28207 0.2206 0.20241 0.0
H496 H 0.3169 0.21704 0.17064 0.0
H497 H 0.3744 0.27762 0.18412 0.0
H498 H 0.45031 0.29904 0.07266 0.0
H499 H 0.41721 0.29587 0.10626 0.0
H500 H 0.36687 0.22996 0.09366 0.0
C501 C 0.31331 0.23564 0.18079 0.0
C502 C 0.37243 0.26726 0.16439 0.0
C503 C 0.2935 0.23761 0.19922 0.0
C504 C 0.44185 0.28015 0.07581 0.0
C505 C 0.42295 0.27832 0.09527 0.0
C506 C 0.3688 0.2401 0.11353 0.0
C507 C 0.32865 0.25722 0.17611 0.0
C508 C 0.35021 0.25503 0.15721 0.0
C509 C 0.41122 0.25438 0.10002 0.0
C510 C 0.3907 0.2531 0.12036 0.0
H511 H 0.30048 0.30131 0.21911 0.0
H512 H 0.33461 0.29809 0.18644 0.0
H513 H 0.33184 0.23161 0.12549 0.0
H514 H 0.44368 0.21658 0.05404 0.0
H515 H 0.41028 0.21341 0.08824 0.0
C516 C 0.8027 0.69681 0.79027 0.0
C517 C 0.7961 0.70356 0.76276 0.0
C518 C 0.82358 0.68177 0.7954 0.0
C519 C 0.88221 0.66043 0.76405 0.0
H520 H 0.87595 0.6011 0.81352 0.0
C521 C 0.94897 0.57441 0.75985 0.0
C522 C 0.95558 0.56138 0.78453 0.0
C523 C 0.93135 0.59407 0.76024 0.0
C524 C 0.87819 0.61786 0.80007 0.0
H525 H 0.80665 0.69997 0.71914 0.0
H526 H 0.84323 0.67404 0.72812 0.0
H527 H 0.84166 0.63126 0.80815 0.0
H528 H 0.94909 0.5593 0.82921 0.0
H529 H 0.91812 0.59405 0.82995 0.0
H530 H 0.91857 0.64696 0.75568 0.0
C531 C 0.83228 0.68054 0.74575 0.0
C532 C 0.8585 0.63511 0.79692 0.0
C533 C 0.81131 0.69545 0.74059 0.0
C534 C 0.94441 0.56895 0.80984 0.0
C535 C 0.92658 0.58873 0.81022 0.0
C536 C 0.9019 0.64329 0.7673 0.0
C537 C 0.83852 0.67329 0.77319 0.0
C538 C 0.86011 0.65628 0.77841 0.0
C539 C 0.91976 0.60142 0.78534 0.0
C540 C 0.89996 0.62143 0.78483 0.0
H541 H 0.79171 0.70316 0.80792 0.0
H542 H 0.82808 0.67685 0.8168 0.0
H543 H 0.88421 0.67684 0.75007 0.0
H544 H 0.95715 0.56919 0.73992 0.0
H545 H 0.9263 0.603 0.7406 0.0
C546 C 0.8115 0.30823 0.26466 0.0
C547 C 0.79627 0.30008 0.2425 0.0
C548 C 0.83247 0.32314 0.25948 0.0
C549 C 0.85874 0.36864 0.20849 0.0
H550 H 0.91885 0.35639 0.24952 0.0
C551 C 0.94476 0.43499 0.19642 0.0
C552 C 0.9559 0.44228 0.22185 0.0
C553 C 0.92691 0.41521 0.19575 0.0
C554 C 0.90217 0.36017 0.23796 0.0
H555 H 0.79183 0.30049 0.19734 0.0
H556 H 0.82819 0.32686 0.18844 0.0
H557 H 0.88443 0.32651 0.25492 0.0
H558 H 0.95738 0.43399 0.26636 0.0
H559 H 0.92651 0.40019 0.26519 0.0
H560 H 0.87624 0.40278 0.19221 0.0
C561 C 0.82371 0.32192 0.20984 0.0
C562 C 0.88245 0.34303 0.24108 0.0
C563 C 0.80283 0.30685 0.21499 0.0
C564 C 0.94922 0.42899 0.24635 0.0
C565 C 0.93159 0.40933 0.24566 0.0
C566 C 0.87846 0.38591 0.20548 0.0
C567 C 0.83869 0.33038 0.23204 0.0
C568 C 0.86034 0.34734 0.22682 0.0
C569 C 0.92004 0.40224 0.22045 0.0
C570 C 0.90024 0.3822 0.22067 0.0
H571 H 0.80686 0.30373 0.28612 0.0
H572 H 0.84345 0.32965 0.2771 0.0
H573 H 0.84189 0.3726 0.19734 0.0
H574 H 0.94948 0.44485 0.17719 0.0
H575 H 0.91846 0.4101 0.17593 0.0
C576 C 0.19959 0.30622 0.79538 0.0
C577 C 0.20653 0.29855 0.76814 0.0
C578 C 0.17882 0.32167 0.79982 0.0
C579 C 0.12098 0.34302 0.76698 0.0
H580 H 0.12743 0.40353 0.81584 0.0
C581 C 0.0551 0.42968 0.76105 0.0
C582 C 0.04835 0.44332 0.78554 0.0
C583 C 0.07258 0.40991 0.76182 0.0
C584 C 0.12513 0.38647 0.80255 0.0
H585 H 0.19667 0.30084 0.72426 0.0
H586 H 0.16025 0.32754 0.73204 0.0
H587 H 0.16137 0.37276 0.81138 0.0
H588 H 0.05449 0.44639 0.83027 0.0
H589 H 0.08522 0.41143 0.83167 0.0
H590 H 0.0849 0.35679 0.75787 0.0
C591 C 0.17087 0.32145 0.74999 0.0
C592 C 0.14462 0.36886 0.79993 0.0
C593 C 0.19173 0.3061 0.74553 0.0
C594 C 0.05928 0.43628 0.81104 0.0
C595 C 0.07696 0.41637 0.8118 0.0
C596 C 0.10148 0.36053 0.7697 0.0
C597 C 0.16434 0.32967 0.77716 0.0
C598 C 0.14294 0.34721 0.78168 0.0
C599 C 0.08388 0.40304 0.78711 0.0
C600 C 0.10349 0.3828 0.78703 0.0
H601 H 0.21027 0.30033 0.81336 0.0
H602 H 0.17408 0.32732 0.82103 0.0
H603 H 0.11893 0.32628 0.75318 0.0
H604 H 0.04711 0.4345 0.74099 0.0
H605 H 0.07772 0.40047 0.74231 0.0
C606 C 0.19451 0.69609 0.26315 0.0
C607 C 0.20901 0.7036 0.24026 0.0
C608 C 0.17365 0.68058 0.25907 0.0
C609 C 0.14677 0.63312 0.20938 0.0
H610 H 0.08741 0.64525 0.252 0.0
C611 C 0.06065 0.56692 0.19747 0.0
C612 C 0.04961 0.55965 0.22284 0.0
C613 C 0.07859 0.58658 0.19706 0.0
C614 C 0.10389 0.64149 0.24002 0.0
H615 H 0.2122 0.70162 0.195 0.0
H616 H 0.17605 0.67443 0.18801 0.0
H617 H 0.12171 0.67547 0.25676 0.0
H618 H 0.04849 0.56785 0.26753 0.0
H619 H 0.07956 0.60146 0.26679 0.0
H620 H 0.12918 0.59876 0.19317 0.0
C621 C 0.18103 0.68016 0.20913 0.0
C622 C 0.12356 0.65882 0.24279 0.0
C623 C 0.20178 0.69573 0.21318 0.0
C624 C 0.05654 0.57284 0.24755 0.0
C625 C 0.0743 0.59238 0.24713 0.0
C626 C 0.12711 0.6157 0.20669 0.0
C627 C 0.16683 0.67219 0.23203 0.0
C628 C 0.14537 0.65464 0.22782 0.0
C629 C 0.0857 0.59945 0.22197 0.0
C630 C 0.10558 0.61942 0.22236 0.0
H631 H 0.19965 0.70157 0.28429 0.0
H632 H 0.16325 0.67454 0.27721 0.0
H633 H 0.1634 0.6292 0.19772 0.0
H634 H 0.05573 0.55715 0.17807 0.0
H635 H 0.08691 0.5917 0.17727 0.0
C636 C 0.72845 0.77639 0.6936 0.0
C637 C 0.74922 0.77301 0.71067 0.0
C638 C 0.72703 0.79722 0.6749 0.0
C639 C 0.75454 0.86229 0.66094 0.0
H640 H 0.72441 0.85371 0.5879 0.0
C641 C 0.76759 0.93662 0.57278 0.0
C642 C 0.74716 0.94376 0.55662 0.0
C643 C 0.76605 0.91638 0.59206 0.0
C644 C 0.73258 0.85649 0.60837 0.0
H645 H 0.78494 0.78896 0.72102 0.0
H646 H 0.78287 0.82464 0.68778 0.0
H647 H 0.72592 0.81679 0.61993 0.0
H648 H 0.70898 0.93511 0.54815 0.0
H649 H 0.70636 0.89925 0.58187 0.0
H650 H 0.76171 0.90179 0.64909 0.0
C651 C 0.76739 0.8115 0.68927 0.0
C652 C 0.73347 0.83533 0.62677 0.0
C653 C 0.76875 0.79075 0.70808 0.0
C654 C 0.72504 0.93011 0.5603 0.0
C655 C 0.72358 0.90953 0.57948 0.0
C656 C 0.7538 0.88333 0.64251 0.0
C657 C 0.7464 0.81521 0.67261 0.0
C658 C 0.74471 0.83787 0.65321 0.0
C659 C 0.7441 0.90251 0.59562 0.0
C660 C 0.74307 0.88061 0.61589 0.0
H661 H 0.71318 0.76292 0.6947 0.0
H662 H 0.7105 0.79949 0.66262 0.0
H663 H 0.76278 0.86525 0.68134 0.0
H664 H 0.78493 0.9467 0.57059 0.0
H665 H 0.78227 0.91127 0.60388 0.0
C666 C 0.69227 0.26328 0.21146 0.0
C667 C 0.70758 0.28356 0.22104 0.0
C668 C 0.67168 0.26872 0.19516 0.0
C669 C 0.64648 0.3168 0.14675 0.0
H670 H 0.5859 0.27922 0.15964 0.0
C671 C 0.56093 0.327 0.07459 0.0
C672 C 0.55025 0.30302 0.0668 0.0
C673 C 0.57862 0.32808 0.09591 0.0
C674 C 0.6027 0.28984 0.15571 0.0
H675 H 0.71285 0.32559 0.22132 0.0
H676 H 0.67709 0.33496 0.19233 0.0
H677 H 0.61991 0.2743 0.1922 0.0
H678 H 0.54955 0.26147 0.07568 0.0
H679 H 0.58013 0.26336 0.11222 0.0
H680 H 0.62947 0.33163 0.10967 0.0
C681 C 0.68117 0.31486 0.19742 0.0
C682 C 0.62217 0.287 0.17436 0.0
C683 C 0.70169 0.30945 0.21395 0.0
C684 C 0.55734 0.28032 0.08104 0.0
C685 C 0.57478 0.28141 0.10226 0.0
C686 C 0.62698 0.31955 0.12795 0.0
C687 C 0.66596 0.29454 0.18786 0.0
C688 C 0.64448 0.29993 0.16972 0.0
C689 C 0.58572 0.30523 0.10995 0.0
C690 C 0.6051 0.30553 0.13184 0.0
H691 H 0.69647 0.2431 0.216 0.0
H692 H 0.66055 0.25259 0.18769 0.0
H693 H 0.6635 0.32692 0.14257 0.0
H694 H 0.55586 0.34482 0.06401 0.0
H695 H 0.58668 0.34674 0.10145 0.0
C696 C 0.27538 0.22285 0.70253 0.0
C697 C 0.25414 0.22717 0.71864 0.0
C698 C 0.27691 0.20157 0.68402 0.0
C699 C 0.24795 0.13715 0.66852 0.0
H700 H 0.28115 0.14387 0.59717 0.0
C701 C 0.23655 0.06234 0.57881 0.0
C702 C 0.25748 0.05458 0.56374 0.0
C703 C 0.23776 0.08258 0.59852 0.0
C704 C 0.27209 0.1416 0.61717 0.0
H705 H 0.21779 0.21226 0.72761 0.0
H706 H 0.22006 0.17591 0.69465 0.0
H707 H 0.27952 0.18117 0.6293 0.0
H708 H 0.29621 0.06203 0.55773 0.0
H709 H 0.29826 0.09782 0.59216 0.0
H710 H 0.23999 0.09779 0.65599 0.0
C711 C 0.23581 0.18864 0.69674 0.0
C712 C 0.27115 0.16298 0.63565 0.0
C713 C 0.23435 0.20981 0.71538 0.0
C714 C 0.27977 0.0675 0.56904 0.0
C715 C 0.28092 0.08807 0.58861 0.0
C716 C 0.24872 0.11589 0.64997 0.0
C717 C 0.25719 0.18408 0.68094 0.0
C718 C 0.25887 0.16113 0.66149 0.0
C719 C 0.25988 0.09582 0.60355 0.0
C720 C 0.2606 0.11793 0.62398 0.0
H721 H 0.29089 0.23597 0.70414 0.0
H722 H 0.29375 0.19864 0.67246 0.0
H723 H 0.23885 0.13469 0.68845 0.0
H724 H 0.21907 0.05281 0.57534 0.0
H725 H 0.22117 0.08824 0.60944 0.0
C726 C 0.29297 0.71163 0.18535 0.0
C727 C 0.29616 0.721 0.21294 0.0
C728 C 0.31316 0.70543 0.16861 0.0
C729 C 0.3759 0.72339 0.15627 0.0
H730 H 0.38228 0.65664 0.11803 0.0
C731 C 0.45902 0.70401 0.08635 0.0
C732 C 0.45527 0.69001 0.0614 0.0
C733 C 0.4411 0.70441 0.10715 0.0
C734 C 0.38068 0.67551 0.12823 0.0
H735 H 0.32346 0.73075 0.24445 0.0
H736 H 0.35866 0.72114 0.21458 0.0
H737 H 0.34759 0.6644 0.14936 0.0
H738 H 0.43032 0.66484 0.03862 0.0
H739 H 0.39824 0.66648 0.07429 0.0
H740 H 0.40786 0.73536 0.13429 0.0
C741 C 0.34038 0.71839 0.20623 0.0
C742 C 0.36088 0.67985 0.1463 0.0
C743 C 0.32018 0.7241 0.2232 0.0
C744 C 0.43367 0.67553 0.05791 0.0
C745 C 0.41534 0.67649 0.07844 0.0
C746 C 0.39536 0.7193 0.13782 0.0
C747 C 0.33703 0.70895 0.17882 0.0
C748 C 0.35835 0.70383 0.16046 0.0
C749 C 0.41856 0.69153 0.10307 0.0
C750 C 0.39812 0.69529 0.12351 0.0
H751 H 0.27485 0.7095 0.17638 0.0
H752 H 0.31014 0.69854 0.14738 0.0
H753 H 0.37413 0.74219 0.16665 0.0
H754 H 0.47568 0.71519 0.08951 0.0
H755 H 0.44474 0.71543 0.12612 0.0
C756 C 0.76958 0.21353 0.2984 0.0
C757 C 0.74974 0.23077 0.29521 0.0
C758 C 0.76863 0.19338 0.31798 0.0
C759 C 0.7258 0.15244 0.35793 0.0
H760 H 0.78262 0.13897 0.40425 0.0
C761 C 0.72634 0.07391 0.44578 0.0
C762 C 0.74822 0.05986 0.44931 0.0
C763 C 0.72541 0.09523 0.42749 0.0
C764 C 0.76666 0.14219 0.39126 0.0
H765 H 0.71345 0.24042 0.31076 0.0
H766 H 0.71168 0.20495 0.34449 0.0
H767 H 0.78338 0.17503 0.37143 0.0
H768 H 0.78599 0.05659 0.43549 0.0
H769 H 0.78419 0.0929 0.40342 0.0
H770 H 0.70925 0.11923 0.37738 0.0
C771 C 0.7279 0.20698 0.33163 0.0
C772 C 0.76711 0.16295 0.37248 0.0
C773 C 0.72893 0.22729 0.31222 0.0
C774 C 0.76889 0.06716 0.43364 0.0
C775 C 0.76791 0.08819 0.41531 0.0
C776 C 0.72541 0.13147 0.37661 0.0
C777 C 0.74775 0.1898 0.33475 0.0
C778 C 0.74679 0.16821 0.3554 0.0
C779 C 0.74631 0.10281 0.41224 0.0
C780 C 0.74596 0.12588 0.39331 0.0
H781 H 0.78572 0.21523 0.28537 0.0
H782 H 0.78411 0.18026 0.31961 0.0
H783 H 0.7099 0.15588 0.34491 0.0
H784 H 0.7101 0.06881 0.45757 0.0
H785 H 0.70847 0.1061 0.42579 0.0
C786 C 0.31786 0.28506 0.78009 0.0
C787 C 0.29452 0.28318 0.79231 0.0
C788 C 0.33834 0.29123 0.79648 0.0
C789 C 0.35675 0.31758 0.86646 0.0
H790 H 0.41591 0.27773 0.85268 0.0
C791 C 0.44325 0.32681 0.93713 0.0
C792 C 0.45364 0.30277 0.94473 0.0
C793 C 0.42535 0.32786 0.91607 0.0
C794 C 0.39953 0.28905 0.85681 0.0
H795 H 0.27439 0.28607 0.83131 0.0
H796 H 0.31005 0.29633 0.85996 0.0
H797 H 0.38127 0.27296 0.82107 0.0
H798 H 0.45359 0.26109 0.9358 0.0
H799 H 0.42258 0.26294 0.89977 0.0
H800 H 0.37471 0.33261 0.90309 0.0
C801 C 0.31254 0.29374 0.83762 0.0
C802 C 0.37973 0.28655 0.83847 0.0
C803 C 0.29208 0.28773 0.82122 0.0
C804 C 0.44605 0.27999 0.93056 0.0
C805 C 0.42835 0.28105 0.90962 0.0
C806 C 0.37656 0.32002 0.88489 0.0
C807 C 0.33596 0.29547 0.82551 0.0
C808 C 0.35787 0.30033 0.84339 0.0
C809 C 0.41769 0.30493 0.90213 0.0
C810 C 0.39796 0.30527 0.88065 0.0
H811 H 0.32025 0.282 0.75779 0.0
H812 H 0.35603 0.29273 0.78638 0.0
H813 H 0.34035 0.32885 0.8706 0.0
H814 H 0.44872 0.34471 0.94764 0.0
H815 H 0.41755 0.34659 0.91067 0.0
C816 C 0.2664 0.80058 0.2798 0.0
C817 C 0.25617 0.77645 0.28744 0.0
C818 C 0.26817 0.82107 0.29925 0.0
C819 C 0.26976 0.83549 0.37505 0.0
H820 H 0.24974 0.90495 0.35288 0.0
C821 C 0.28021 0.92756 0.44699 0.0
C822 C 0.25901 0.94303 0.44908 0.0
C823 C 0.28171 0.90746 0.42688 0.0
C824 C 0.25545 0.88567 0.35937 0.0
H825 H 0.23996 0.75489 0.3216 0.0
H826 H 0.24303 0.79073 0.35564 0.0
H827 H 0.24829 0.86914 0.31886 0.0
H828 H 0.22302 0.94986 0.43122 0.0
H829 H 0.22581 0.9153 0.39622 0.0
H830 H 0.27661 0.85208 0.41572 0.0
C831 C 0.24976 0.79373 0.33458 0.0
C832 C 0.25477 0.86519 0.33984 0.0
C833 C 0.24776 0.7733 0.31502 0.0
C834 C 0.23961 0.93829 0.43031 0.0
C835 C 0.24125 0.91856 0.41007 0.0
C836 C 0.2707 0.85607 0.39454 0.0
C837 C 0.25996 0.81787 0.32691 0.0
C838 C 0.26163 0.83979 0.34751 0.0
C839 C 0.26221 0.90279 0.40818 0.0
C840 C 0.26323 0.88133 0.38701 0.0
H841 H 0.27288 0.80369 0.25866 0.0
H842 H 0.27622 0.83936 0.29271 0.0
H843 H 0.2754 0.81619 0.38152 0.0
H844 H 0.29544 0.93068 0.46118 0.0
H845 H 0.29816 0.89568 0.42581 0.0
C846 C 0.70145 0.69366 0.79123 0.0
C847 C 0.70744 0.7196 0.78449 0.0
C848 C 0.68099 0.68815 0.80781 0.0
C849 C 0.62238 0.71626 0.83201 0.0
H850 H 0.62943 0.6695 0.89496 0.0
C851 C 0.5573 0.71979 0.92549 0.0
C852 C 0.5501 0.69653 0.93857 0.0
C853 C 0.57488 0.71956 0.90437 0.0
C854 C 0.62701 0.68222 0.87718 0.0
H855 H 0.69664 0.76006 0.79018 0.0
H856 H 0.66086 0.75043 0.81869 0.0
H857 H 0.66338 0.67491 0.86214 0.0
H858 H 0.55564 0.65462 0.93943 0.0
H859 H 0.58662 0.65421 0.9022 0.0
H860 H 0.58624 0.72396 0.84718 0.0
C861 C 0.67183 0.73432 0.81087 0.0
C862 C 0.64647 0.68536 0.85841 0.0
C863 C 0.69233 0.73984 0.79448 0.0
C864 C 0.56079 0.67287 0.92976 0.0
C865 C 0.57858 0.67265 0.90856 0.0
C866 C 0.60295 0.71306 0.85065 0.0
C867 C 0.66596 0.70844 0.81782 0.0
C868 C 0.64455 0.70291 0.83603 0.0
C869 C 0.58581 0.69605 0.89566 0.0
C870 C 0.60525 0.69654 0.87388 0.0
H871 H 0.71248 0.67756 0.78354 0.0
H872 H 0.6768 0.668 0.81259 0.0
H873 H 0.62016 0.7295 0.81462 0.0
H874 H 0.54951 0.73841 0.93169 0.0
H875 H 0.58031 0.73799 0.8953 0.0
loop_
_geom_bond_atom_site_label_1
_geom_bond_atom_site_label_2
_geom_bond_distance
_geom_bond_site_symmetry_2
_ccdc_geom_bond_type
H0 C3 0.931 . S
H1 C6 0.928 . S
H2 C8 0.930 . S
C3 H0 0.931 . S
C3 C4 1.413 . S
C3 C5 1.360 . S
C4 C3 1.413 . S
C4 C8 1.429 . S
C5 C3 1.360 . S
C5 C6 1.372 . S
C6 H1 0.928 . S
C6 C5 1.372 . S
C6 C7 1.404 . S
C7 C6 1.404 . S
C7 C8 1.391 . S
C8 H2 0.930 . S
C8 C4 1.429 . S
C8 C7 1.391 . S
H9 C12 0.931 . S
H10 C15 0.928 . S
H11 C17 0.930 . S
C12 H9 0.931 . S
C12 C13 1.413 . S
C12 C14 1.360 . S
C13 C12 1.413 . S
C13 C17 1.429 . S
C14 C12 1.360 . S
C14 C15 1.372 . S
C15 H10 0.928 . S
C15 C14 1.372 . S
C15 C16 1.404 . S
C16 C15 1.404 . S
C16 C17 1.391 . S
C17 H11 0.930 . S
C17 C13 1.429 . S
C17 C16 1.391 . S
H18 C21 0.931 . S
H19 C24 0.928 . S
H20 C26 0.930 . S
C21 H18 0.931 . S
C21 C22 1.413 . S
C21 C23 1.360 . S
C22 C21 1.413 . S
C22 C26 1.429 . S
C23 C21 1.360 . S
C23 C24 1.372 . S
C24 H19 0.928 . S
C24 C23 1.372 . S
C24 C25 1.404 . S
C25 C24 1.404 . S
C25 C26 1.391 . S
C26 H20 0.930 . S
C26 C22 1.429 . S
C26 C25 1.391 . S
H27 C30 0.931 . S
H28 C33 0.928 . S
H29 C35 0.930 . S
C30 H27 0.931 . S
C30 C31 1.413 . S
C30 C32 1.360 . S
C31 C30 1.413 . S
C31 C35 1.429 . S
C32 C30 1.360 . S
C32 C33 1.372 . S
C33 H28 0.928 . S
C33 C32 1.372 . S
C33 C34 1.404 . S
C34 C33 1.404 . S
C34 C35 1.391 . S
C35 H29 0.930 . S
C35 C31 1.429 . S
C35 C34 1.391 . S
H36 C39 0.931 . S
H37 C42 0.928 . S
H38 C44 0.930 . S
C39 H36 0.931 . S
C39 C40 1.413 . S
C39 C41 1.360 . S
C40 C39 1.413 . S
C40 C44 1.429 . S
C41 C39 1.360 . S
C41 C42 1.372 . S
C42 H37 0.928 . S
C42 C41 1.372 . S
C42 C43 1.404 . S
C43 C42 1.404 . S
C43 C44 1.391 . S
C44 H38 0.930 . S
C44 C40 1.429 . S
C44 C43 1.391 . S
H45 C48 0.931 . S
H46 C51 0.928 . S
H47 C53 0.930 . S
C48 H45 0.931 . S
C48 C49 1.413 . S
C48 C50 1.360 . S
C49 C48 1.413 . S
C49 C53 1.429 . S
C50 C48 1.360 . S
C50 C51 1.372 . S
C51 H46 0.928 . S
C51 C50 1.372 . S
C51 C52 1.404 . S
C52 C51 1.404 . S
C52 C53 1.391 . S
C53 H47 0.930 . S
C53 C49 1.429 . S
C53 C52 1.391 . S
H54 C57 0.931 . S
H55 C60 0.928 . S
H56 C62 0.930 . S
C57 H54 0.931 . S
C57 C58 1.413 . S
C57 C59 1.360 . S
C58 C57 1.413 . S
C58 C62 1.429 . S
C59 C57 1.360 . S
C59 C60 1.372 . S
C60 H55 0.928 . S
C60 C59 1.372 . S
C60 C61 1.404 . S
C61 C60 1.404 . S
C61 C62 1.391 . S
C62 H56 0.930 . S
C62 C58 1.429 . S
C62 C61 1.391 . S
H63 C66 0.931 . S
H64 C69 0.928 . S
H65 C71 0.930 . S
C66 H63 0.931 . S
C66 C67 1.413 . S
C66 C68 1.360 . S
C67 C66 1.413 . S
C67 C71 1.429 . S
C68 C66 1.360 . S
C68 C69 1.372 . S
C69 H64 0.928 . S
C69 C68 1.372 . S
C69 C70 1.404 . S
C70 C69 1.404 . S
C70 C71 1.391 . S
C71 H65 0.930 . S
C71 C67 1.429 . S
C71 C70 1.391 . S
C72 O74 1.247 . S
C72 O76 1.258 . S
C73 O80 1.247 . S
C73 O81 1.258 . S
O74 C72 1.247 . S
O74 Zn75 2.028 1_655 S
Zn75 O74 2.028 1_455 S
Zn75 O79 2.035 . S
Zn75 O81 2.035 . S
Zn75 O82 2.028 1_455 S
O76 C72 1.258 . S
O76 Zn77 2.035 1_655 S
Zn77 O76 2.035 1_455 S
Zn77 O78 2.028 . S
Zn77 O80 2.028 . S
Zn77 O83 2.035 1_455 S
O78 Zn77 2.028 . S
O78 C84 1.247 . S
O79 Zn75 2.035 . S
O79 C84 1.258 . S
O80 C73 1.247 . S
O80 Zn77 2.028 . S
O81 C73 1.258 . S
O81 Zn75 2.035 . S
O82 Zn75 2.028 1_655 S
O82 C85 1.247 . S
O83 Zn77 2.035 1_655 S
O83 C85 1.258 . S
C84 O78 1.247 . S
C84 O79 1.258 . S
C85 O82 1.247 . S
C85 O83 1.258 . S
C86 O88 1.247 . S
C86 O90 1.258 . S
C87 O94 1.247 . S
C87 O95 1.258 . S
O88 C86 1.247 . S
O88 Zn89 2.028 1_655 S
Zn89 O88 2.028 1_455 S
Zn89 O93 2.035 . S
Zn89 O95 2.035 . S
Zn89 O96 2.028 1_455 S
O90 C86 1.258 . S
O90 Zn91 2.035 1_655 S
Zn91 O90 2.035 1_455 S
Zn91 O92 2.028 . S
Zn91 O94 2.028 . S
Zn91 O97 2.035 1_455 S
O92 Zn91 2.028 . S
O92 C98 1.247 . S
O93 Zn89 2.035 . S
O93 C98 1.258 . S
O94 C87 1.247 . S
O94 Zn91 2.028 . S
O95 C87 1.258 . S
O95 Zn89 2.035 . S
O96 Zn89 2.028 1_655 S
O96 C99 1.247 . S
O97 Zn91 2.035 1_655 S
O97 C99 1.258 . S
C98 O92 1.247 . S
C98 O93 1.258 . S
C99 O96 1.247 . S
C99 O97 1.258 . S
C100 O102 1.247 . S
C100 O104 1.258 . S
C101 O108 1.247 . S
C101 O109 1.258 . S
O102 C100 1.247 . S
O102 Zn103 2.019 1_565 S
Zn103 O102 2.019 1_545 S
Zn103 O107 2.044 . S
Zn103 O109 2.044 . S
Zn103 O110 2.019 1_545 S
O104 C100 1.258 . S
O104 Zn105 2.010 1_565 S
Zn105 O104 2.010 1_545 S
Zn105 O106 2.053 . S
Zn105 O108 2.053 . S
Zn105 O111 2.010 1_545 S
O106 Zn105 2.053 . S
O106 C112 1.247 . S
O107 Zn103 2.044 . S
O107 C112 1.258 . S
O108 C101 1.247 . S
O108 Zn105 2.053 . S
O109 C101 1.258 . S
O109 Zn103 2.044 . S
O110 Zn103 2.019 1_565 S
O110 C113 1.247 . S
O111 Zn105 2.010 1_565 S
O111 C113 1.258 . S
C112 O106 1.247 . S
C112 O107 1.258 . S
C113 O110 1.247 . S
C113 O111 1.258 . S
C114 O116 1.247 . S
C114 O118 1.258 . S
C115 O122 1.247 . S
C115 O123 1.258 . S
O116 C114 1.247 . S
O116 Zn117 2.027 . S
Zn117 O116 2.027 . S
Zn117 O121 2.035 . S
Zn117 O123 2.036 1_554 S
Zn117 O124 2.028 1_554 S
O118 C114 1.258 . S
O118 Zn119 2.048 . S
Zn119 O118 2.048 . S
Zn119 O120 2.041 . S
Zn119 O122 2.015 1_554 S
Zn119 O125 2.022 1_554 S
O120 Zn119 2.041 . S
O120 C126 1.247 . S
O121 Zn117 2.035 . S
O121 C126 1.258 . S
O122 C115 1.247 . S
O122 Zn119 2.015 1_556 S
O123 C115 1.258 . S
O123 Zn117 2.036 1_556 S
O124 Zn117 2.028 1_556 S
O124 C127 1.247 . S
O125 Zn119 2.022 1_556 S
O125 C127 1.258 . S
C126 O120 1.247 . S
C126 O121 1.258 . S
C127 O124 1.247 . S
C127 O125 1.258 . S
C128 O130 1.247 . S
C128 O132 1.258 . S
C129 O136 1.247 . S
C129 O137 1.258 . S
O130 C128 1.247 . S
O130 Zn131 2.029 1_565 S
Zn131 O130 2.029 1_545 S
Zn131 O135 2.034 . S
Zn131 O137 2.034 . S
Zn131 O138 2.029 1_545 S
O132 C128 1.258 . S
O132 Zn133 2.020 1_565 S
Zn133 O132 2.020 1_545 S
Zn133 O134 2.042 . S
Zn133 O136 2.043 . S
Zn133 O139 2.021 1_545 S
O134 Zn133 2.042 . S
O134 C140 1.247 . S
O135 Zn131 2.034 . S
O135 C140 1.258 . S
O136 C129 1.247 . S
O136 Zn133 2.043 . S
O137 C129 1.258 . S
O137 Zn131 2.034 . S
O138 Zn131 2.029 1_565 S
O138 C141 1.247 . S
O139 Zn133 2.021 1_565 S
O139 C141 1.258 . S
C140 O134 1.247 . S
C140 O135 1.258 . S
C141 O138 1.247 . S
C141 O139 1.258 . S
C142 O144 1.247 . S
C142 O146 1.258 . S
C143 O150 1.247 . S
C143 O151 1.258 . S
O144 C142 1.247 . S
O144 Zn145 2.028 . S
Zn145 O144 2.028 . S
Zn145 O149 2.035 . S
Zn145 O151 2.035 1_554 S
Zn145 O152 2.028 1_554 S
O146 C142 1.258 . S
O146 Zn147 2.035 . S
Zn147 O146 2.035 . S
Zn147 O148 2.028 . S
Zn147 O150 2.028 1_554 S
Zn147 O153 2.035 1_554 S
O148 Zn147 2.028 . S
O148 C154 1.247 . S
O149 Zn145 2.035 . S
O149 C154 1.258 . S
O150 C143 1.247 . S
O150 Zn147 2.028 1_556 S
O151 C143 1.258 . S
O151 Zn145 2.035 1_556 S
O152 Zn145 2.028 1_556 S
O152 C155 1.247 . S
O153 Zn147 2.035 1_556 S
O153 C155 1.258 . S
C154 O148 1.247 . S
C154 O149 1.258 . S
C155 O152 1.247 . S
C155 O153 1.258 . S
C156 C157 1.349 . S
C156 C158 1.327 . S
C156 H181 0.950 . S
C157 C156 1.349 . S
C157 C173 1.349 . S
C158 C156 1.327 . S
C158 C177 1.429 . S
C158 H182 0.950 . S
C159 C176 1.574 . S
C159 C178 1.368 . S
C159 H183 0.949 . S
H160 C164 0.949 . S
C161 C162 1.349 . S
C161 C163 1.327 . S
C161 H184 0.950 . S
C162 C161 1.349 . S
C162 C174 1.349 . S
C163 C161 1.327 . S
C163 C179 1.429 . S
C163 H185 0.950 . S
C164 H160 0.949 . S
C164 C172 1.574 . S
C164 C180 1.368 . S
H165 C173 0.950 . S
H166 C171 0.950 . S
H167 C172 0.949 . S
H168 C174 0.950 . S
H169 C175 0.950 . S
H170 C176 0.949 . S
C171 H166 0.950 . S
C171 C173 1.327 . S
C171 C177 1.429 . S
C172 C164 1.574 . S
C172 H167 0.949 . S
C172 C178 1.368 . S
C173 C157 1.349 . S
C173 H165 0.950 . S
C173 C171 1.327 . S
C174 C162 1.349 . S
C174 H168 0.950 . S
C174 C175 1.327 . S
C175 H169 0.950 . S
C175 C174 1.327 . S
C175 C179 1.429 . S
C176 C159 1.574 . S
C176 H170 0.949 . S
C176 C180 1.368 . S
C177 C158 1.429 . S
C177 C171 1.429 . S
C177 C178 1.523 . S
C178 C159 1.368 . S
C178 C172 1.368 . S
C178 C177 1.523 . S
C179 C163 1.429 . S
C179 C175 1.429 . S
C179 C180 1.523 . S
C180 C164 1.368 . S
C180 C176 1.368 . S
C180 C179 1.523 . S
H181 C156 0.950 . S
H182 C158 0.950 . S
H183 C159 0.949 . S
H184 C161 0.950 . S
H185 C163 0.950 . S
C186 C187 1.349 . S
C186 C188 1.327 . S
C186 H211 0.950 . S
C187 C186 1.349 . S
C187 C203 1.349 . S
C188 C186 1.327 . S
C188 C207 1.429 . S
C188 H212 0.950 . S
C189 C206 1.574 . S
C189 C208 1.368 . S
C189 H213 0.949 . S
H190 C194 0.949 . S
C191 C192 1.349 . S
C191 C193 1.327 . S
C191 H214 0.950 . S
C192 C191 1.349 . S
C192 C204 1.349 . S
C193 C191 1.327 . S
C193 C209 1.429 . S
C193 H215 0.950 . S
C194 H190 0.949 . S
C194 C202 1.574 . S
C194 C210 1.368 . S
H195 C203 0.950 . S
H196 C201 0.950 . S
H197 C202 0.949 . S
H198 C204 0.950 . S
H199 C205 0.950 . S
H200 C206 0.949 . S
C201 H196 0.950 . S
C201 C203 1.327 . S
C201 C207 1.429 . S
C202 C194 1.574 . S
C202 H197 0.949 . S
C202 C208 1.368 . S
C203 C187 1.349 . S
C203 H195 0.950 . S
C203 C201 1.327 . S
C204 C192 1.349 . S
C204 H198 0.950 . S
C204 C205 1.327 . S
C205 H199 0.950 . S
C205 C204 1.327 . S
C205 C209 1.429 . S
C206 C189 1.574 . S
C206 H200 0.949 . S
C206 C210 1.368 . S
C207 C188 1.429 . S
C207 C201 1.429 . S
C207 C208 1.523 . S
C208 C189 1.368 . S
C208 C202 1.368 . S
C208 C207 1.523 . S
C209 C193 1.429 . S
C209 C205 1.429 . S
C209 C210 1.523 . S
C210 C194 1.368 . S
C210 C206 1.368 . S
C210 C209 1.523 . S
H211 C186 0.950 . S
H212 C188 0.950 . S
H213 C189 0.949 . S
H214 C191 0.950 . S
H215 C193 0.950 . S
C216 C217 1.349 . S
C216 C218 1.327 . S
C216 H241 0.950 . S
C217 C216 1.349 . S
C217 C233 1.349 . S
C218 C216 1.327 . S
C218 C237 1.429 . S
C218 H242 0.950 . S
C219 C236 1.574 . S
C219 C238 1.368 . S
C219 H243 0.949 . S
H220 C224 0.949 . S
C221 C222 1.349 . S
C221 C223 1.327 . S
C221 H244 0.950 . S
C222 C221 1.349 . S
C222 C234 1.349 . S
C223 C221 1.327 . S
C223 C239 1.429 . S
C223 H245 0.950 . S
C224 H220 0.949 . S
C224 C232 1.574 . S
C224 C240 1.368 . S
H225 C233 0.950 . S
H226 C231 0.950 . S
H227 C232 0.949 . S
H228 C234 0.950 . S
H229 C235 0.950 . S
H230 C236 0.949 . S
C231 H226 0.950 . S
C231 C233 1.327 . S
C231 C237 1.429 . S
C232 C224 1.574 . S
C232 H227 0.949 . S
C232 C238 1.368 . S
C233 C217 1.349 . S
C233 H225 0.950 . S
C233 C231 1.327 . S
C234 C222 1.349 . S
C234 H228 0.950 . S
C234 C235 1.327 . S
C235 H229 0.950 . S
C235 C234 1.327 . S
C235 C239 1.429 . S
C236 C219 1.574 . S
C236 H230 0.949 . S
C236 C240 1.368 . S
C237 C218 1.429 . S
C237 C231 1.429 . S
C237 C238 1.523 . S
C238 C219 1.368 . S
C238 C232 1.368 . S
C238 C237 1.523 . S
C239 C223 1.429 . S
C239 C235 1.429 . S
C239 C240 1.523 . S
C240 C224 1.368 . S
C240 C236 1.368 . S
C240 C239 1.523 . S
H241 C216 0.950 . S
H242 C218 0.950 . S
H243 C219 0.949 . S
H244 C221 0.950 . S
H245 C223 0.950 . S
C246 C247 1.349 . S
C246 C248 1.327 . S
C246 H271 0.950 . S
C247 C246 1.349 . S
C247 C263 1.349 . S
C248 C246 1.327 . S
C248 C267 1.429 . S
C248 H272 0.950 . S
C249 C266 1.574 . S
C249 C268 1.368 . S
C249 H273 0.949 . S
H250 C254 0.949 . S
C251 C252 1.349 . S
C251 C253 1.327 . S
C251 H274 0.950 . S
C252 C251 1.349 . S
C252 C264 1.349 . S
C253 C251 1.327 . S
C253 C269 1.429 . S
C253 H275 0.950 . S
C254 H250 0.949 . S
C254 C262 1.574 . S
C254 C270 1.368 . S
H255 C263 0.950 . S
H256 C261 0.950 . S
H257 C262 0.949 . S
H258 C264 0.950 . S
H259 C265 0.950 . S
H260 C266 0.949 . S
C261 H256 0.950 . S
C261 C263 1.327 . S
C261 C267 1.429 . S
C262 C254 1.574 . S
C262 H257 0.949 . S
C262 C268 1.368 . S
C263 C247 1.349 . S
C263 H255 0.950 . S
C263 C261 1.327 . S
C264 C252 1.349 . S
C264 H258 0.950 . S
C264 C265 1.327 . S
C265 H259 0.950 . S
C265 C264 1.327 . S
C265 C269 1.429 . S
C266 C249 1.574 . S
C266 H260 0.949 . S
C266 C270 1.368 . S
C267 C248 1.429 . S
C267 C261 1.429 . S
C267 C268 1.523 . S
C268 C249 1.368 . S
C268 C262 1.368 . S
C268 C267 1.523 . S
C269 C253 1.429 . S
C269 C265 1.429 . S
C269 C270 1.523 . S
C270 C254 1.368 . S
C270 C266 1.368 . S
C270 C269 1.523 . S
H271 C246 0.950 . S
H272 C248 0.950 . S
H273 C249 0.949 . S
H274 C251 0.950 . S
H275 C253 0.950 . S
C276 C277 1.349 . S
C276 C278 1.327 . S
C276 H301 0.950 . S
C277 C276 1.349 . S
C277 C293 1.349 . S
C278 C276 1.327 . S
C278 C297 1.429 . S
C278 H302 0.950 . S
C279 C296 1.574 . S
C279 C298 1.368 . S
C279 H303 0.949 . S
H280 C284 0.949 . S
C281 C282 1.349 . S
C281 C283 1.327 . S
C281 H304 0.950 . S
C282 C281 1.349 . S
C282 C294 1.349 . S
C283 C281 1.327 . S
C283 C299 1.429 . S
C283 H305 0.950 . S
C284 H280 0.949 . S
C284 C292 1.574 . S
C284 C300 1.368 . S
H285 C293 0.950 . S
H286 C291 0.950 . S
H287 C292 0.949 . S
H288 C294 0.950 . S
H289 C295 0.950 . S
H290 C296 0.949 . S
C291 H286 0.950 . S
C291 C293 1.327 . S
C291 C297 1.429 . S
C292 C284 1.574 . S
C292 H287 0.949 . S
C292 C298 1.368 . S
C293 C277 1.349 . S
C293 H285 0.950 . S
C293 C291 1.327 . S
C294 C282 1.349 . S
C294 H288 0.950 . S
C294 C295 1.327 . S
C295 H289 0.950 . S
C295 C294 1.327 . S
C295 C299 1.429 . S
C296 C279 1.574 . S
C296 H290 0.949 . S
C296 C300 1.368 . S
C297 C278 1.429 . S
C297 C291 1.429 . S
C297 C298 1.523 . S
C298 C279 1.368 . S
C298 C292 1.368 . S
C298 C297 1.523 . S
C299 C283 1.429 . S
C299 C295 1.429 . S
C299 C300 1.523 . S
C300 C284 1.368 . S
C300 C296 1.368 . S
C300 C299 1.523 . S
H301 C276 0.950 . S
H302 C278 0.950 . S
H303 C279 0.949 . S
H304 C281 0.950 . S
H305 C283 0.950 . S
C306 C307 1.349 . S
C306 C308 1.327 . S
C306 H331 0.950 . S
C307 C306 1.349 . S
C307 C323 1.349 . S
C308 C306 1.327 . S
C308 C327 1.429 . S
C308 H332 0.950 . S
C309 C326 1.574 . S
C309 C328 1.368 . S
C309 H333 0.949 . S
H310 C314 0.949 . S
C311 C312 1.349 . S
C311 C313 1.327 . S
C311 H334 0.950 . S
C312 C311 1.349 . S
C312 C324 1.349 . S
C313 C311 1.327 . S
C313 C329 1.429 . S
C313 H335 0.950 . S
C314 H310 0.949 . S
C314 C322 1.574 . S
C314 C330 1.368 . S
H315 C323 0.950 . S
H316 C321 0.950 . S
H317 C322 0.949 . S
H318 C324 0.950 . S
H319 C325 0.950 . S
H320 C326 0.949 . S
C321 H316 0.950 . S
C321 C323 1.327 . S
C321 C327 1.429 . S
C322 C314 1.574 . S
C322 H317 0.949 . S
C322 C328 1.368 . S
C323 C307 1.349 . S
C323 H315 0.950 . S
C323 C321 1.327 . S
C324 C312 1.349 . S
C324 H318 0.950 . S
C324 C325 1.327 . S
C325 H319 0.950 . S
C325 C324 1.327 . S
C325 C329 1.429 . S
C326 C309 1.574 . S
C326 H320 0.949 . S
C326 C330 1.368 . S
C327 C308 1.429 . S
C327 C321 1.429 . S
C327 C328 1.523 . S
C328 C309 1.368 . S
C328 C322 1.368 . S
C328 C327 1.523 . S
C329 C313 1.429 . S
C329 C325 1.429 . S
C329 C330 1.523 . S
C330 C314 1.368 . S
C330 C326 1.368 . S
C330 C329 1.523 . S
H331 C306 0.950 . S
H332 C308 0.950 . S
H333 C309 0.949 . S
H334 C311 0.950 . S
H335 C313 0.950 . S
C336 C337 1.349 . S
C336 C338 1.327 . S
C336 H361 0.950 . S
C337 C336 1.349 . S
C337 C353 1.349 . S
C338 C336 1.327 . S
C338 C357 1.429 . S
C338 H362 0.950 . S
C339 C356 1.574 . S
C339 C358 1.368 . S
C339 H363 0.949 . S
H340 C344 0.949 . S
C341 C342 1.349 . S
C341 C343 1.327 . S
C341 H364 0.950 . S
C342 C341 1.349 . S
C342 C354 1.349 . S
C343 C341 1.327 . S
C343 C359 1.429 . S
C343 H365 0.950 . S
C344 H340 0.949 . S
C344 C352 1.574 . S
C344 C360 1.368 . S
H345 C353 0.950 . S
H346 C351 0.950 . S
H347 C352 0.949 . S
H348 C354 0.950 . S
H349 C355 0.950 . S
H350 C356 0.949 . S
C351 H346 0.950 . S
C351 C353 1.327 . S
C351 C357 1.429 . S
C352 C344 1.574 . S
C352 H347 0.949 . S
C352 C358 1.368 . S
C353 C337 1.349 . S
C353 H345 0.950 . S
C353 C351 1.327 . S
C354 C342 1.349 . S
C354 H348 0.950 . S
C354 C355 1.327 . S
C355 H349 0.950 . S
C355 C354 1.327 . S
C355 C359 1.429 . S
C356 C339 1.574 . S
C356 H350 0.949 . S
C356 C360 1.368 . S
C357 C338 1.429 . S
C357 C351 1.429 . S
C357 C358 1.523 . S
C358 C339 1.368 . S
C358 C352 1.368 . S
C358 C357 1.523 . S
C359 C343 1.429 . S
C359 C355 1.429 . S
C359 C360 1.523 . S
C360 C344 1.368 . S
C360 C356 1.368 . S
C360 C359 1.523 . S
H361 C336 0.950 . S
H362 C338 0.950 . S
H363 C339 0.949 . S
H364 C341 0.950 . S
H365 C343 0.950 . S
C366 C367 1.349 . S
C366 C368 1.327 . S
C366 H391 0.950 . S
C367 C366 1.349 . S
C367 C383 1.349 . S
C368 C366 1.327 . S
C368 C387 1.429 . S
C368 H392 0.950 . S
C369 C386 1.574 . S
C369 C388 1.368 . S
C369 H393 0.949 . S
H370 C374 0.949 . S
C371 C372 1.349 . S
C371 C373 1.327 . S
C371 H394 0.950 . S
C372 C371 1.349 . S
C372 C384 1.349 . S
C373 C371 1.327 . S
C373 C389 1.429 . S
C373 H395 0.950 . S
C374 H370 0.949 . S
C374 C382 1.574 . S
C374 C390 1.368 . S
H375 C383 0.950 . S
H376 C381 0.950 . S
H377 C382 0.949 . S
H378 C384 0.950 . S
H379 C385 0.950 . S
H380 C386 0.949 . S
C381 H376 0.950 . S
C381 C383 1.327 . S
C381 C387 1.429 . S
C382 C374 1.574 . S
C382 H377 0.949 . S
C382 C388 1.368 . S
C383 C367 1.349 . S
C383 H375 0.950 . S
C383 C381 1.327 . S
C384 C372 1.349 . S
C384 H378 0.950 . S
C384 C385 1.327 . S
C385 H379 0.950 . S
C385 C384 1.327 . S
C385 C389 1.429 . S
C386 C369 1.574 . S
C386 H380 0.949 . S
C386 C390 1.368 . S
C387 C368 1.429 . S
C387 C381 1.429 . S
C387 C388 1.523 . S
C388 C369 1.368 . S
C388 C382 1.368 . S
C388 C387 1.523 . S
C389 C373 1.429 . S
C389 C385 1.429 . S
C389 C390 1.523 . S
C390 C374 1.368 . S
C390 C386 1.368 . S
C390 C389 1.523 . S
H391 C366 0.950 . S
H392 C368 0.950 . S
H393 C369 0.949 . S
H394 C371 0.950 . S
H395 C373 0.950 . S
C396 C397 1.349 . S
C396 C398 1.327 . S
C396 H421 0.950 . S
C397 C396 1.349 . S
C397 C413 1.349 . S
C398 C396 1.327 . S
C398 C417 1.429 . S
C398 H422 0.950 . S
C399 C416 1.574 . S
C399 C418 1.368 . S
C399 H423 0.949 . S
H400 C404 0.949 . S
C401 C402 1.349 . S
C401 C403 1.327 . S
C401 H424 0.950 . S
C402 C401 1.349 . S
C402 C414 1.349 . S
C403 C401 1.327 . S
C403 C419 1.429 . S
C403 H425 0.950 . S
C404 H400 0.949 . S
C404 C412 1.574 . S
C404 C420 1.368 . S
H405 C413 0.950 . S
H406 C411 0.950 . S
H407 C412 0.949 . S
H408 C414 0.950 . S
H409 C415 0.950 . S
H410 C416 0.949 . S
C411 H406 0.950 . S
C411 C413 1.327 . S
C411 C417 1.429 . S
C412 C404 1.574 . S
C412 H407 0.949 . S
C412 C418 1.368 . S
C413 C397 1.349 . S
C413 H405 0.950 . S
C413 C411 1.327 . S
C414 C402 1.349 . S
C414 H408 0.950 . S
C414 C415 1.327 . S
C415 H409 0.950 . S
C415 C414 1.327 . S
C415 C419 1.429 . S
C416 C399 1.574 . S
C416 H410 0.949 . S
C416 C420 1.368 . S
C417 C398 1.429 . S
C417 C411 1.429 . S
C417 C418 1.523 . S
C418 C399 1.368 . S
C418 C412 1.368 . S
C418 C417 1.523 . S
C419 C403 1.429 . S
C419 C415 1.429 . S
C419 C420 1.523 . S
C420 C404 1.368 . S
C420 C416 1.368 . S
C420 C419 1.523 . S
H421 C396 0.950 . S
H422 C398 0.950 . S
H423 C399 0.949 . S
H424 C401 0.950 . S
H425 C403 0.950 . S
C426 C427 1.349 . S
C426 C428 1.327 . S
C426 H451 0.950 . S
C427 C426 1.349 . S
C427 C443 1.349 . S
C428 C426 1.327 . S
C428 C447 1.429 . S
C428 H452 0.950 . S
C429 C446 1.574 . S
C429 C448 1.368 . S
C429 H453 0.949 . S
H430 C434 0.949 . S
C431 C432 1.349 . S
C431 C433 1.327 . S
C431 H454 0.950 . S
C432 C431 1.349 . S
C432 C444 1.349 . S
C433 C431 1.327 . S
C433 C449 1.429 . S
C433 H455 0.950 . S
C434 H430 0.949 . S
C434 C442 1.574 . S
C434 C450 1.368 . S
H435 C443 0.950 . S
H436 C441 0.950 . S
H437 C442 0.949 . S
H438 C444 0.950 . S
H439 C445 0.950 . S
H440 C446 0.949 . S
C441 H436 0.950 . S
C441 C443 1.327 . S
C441 C447 1.429 . S
C442 C434 1.574 . S
C442 H437 0.949 . S
C442 C448 1.368 . S
C443 C427 1.349 . S
C443 H435 0.950 . S
C443 C441 1.327 . S
C444 C432 1.349 . S
C444 H438 0.950 . S
C444 C445 1.327 . S
C445 H439 0.950 . S
C445 C444 1.327 . S
C445 C449 1.429 . S
C446 C429 1.574 . S
C446 H440 0.949 . S
C446 C450 1.368 . S
C447 C428 1.429 . S
C447 C441 1.429 . S
C447 C448 1.523 . S
C448 C429 1.368 . S
C448 C442 1.368 . S
C448 C447 1.523 . S
C449 C433 1.429 . S
C449 C445 1.429 . S
C449 C450 1.523 . S
C450 C434 1.368 . S
C450 C446 1.368 . S
C450 C449 1.523 . S
H451 C426 0.950 . S
H452 C428 0.950 . S
H453 C429 0.949 . S
H454 C431 0.950 . S
H455 C433 0.950 . S
C456 C457 1.349 . S
C456 C458 1.327 . S
C456 H481 0.950 . S
C457 C456 1.349 . S
C457 C473 1.349 . S
C458 C456 1.327 . S
C458 C477 1.429 . S
C458 H482 0.950 . S
C459 C476 1.574 . S
C459 C478 1.368 . S
C459 H483 0.949 . S
H460 C464 0.949 . S
C461 C462 1.349 . S
C461 C463 1.327 . S
C461 H484 0.950 . S
C462 C461 1.349 . S
C462 C474 1.349 . S
C463 C461 1.327 . S
C463 C479 1.429 . S
C463 H485 0.950 . S
C464 H460 0.949 . S
C464 C472 1.574 . S
C464 C480 1.368 . S
H465 C473 0.950 . S
H466 C471 0.950 . S
H467 C472 0.949 . S
H468 C474 0.950 . S
H469 C475 0.950 . S
H470 C476 0.949 . S
C471 H466 0.950 . S
C471 C473 1.327 . S
C471 C477 1.429 . S
C472 C464 1.574 . S
C472 H467 0.949 . S
C472 C478 1.368 . S
C473 C457 1.349 . S
C473 H465 0.950 . S
C473 C471 1.327 . S
C474 C462 1.349 . S
C474 H468 0.950 . S
C474 C475 1.327 . S
C475 H469 0.950 . S
C475 C474 1.327 . S
C475 C479 1.429 . S
C476 C459 1.574 . S
C476 H470 0.949 . S
C476 C480 1.368 . S
C477 C458 1.429 . S
C477 C471 1.429 . S
C477 C478 1.523 . S
C478 C459 1.368 . S
C478 C472 1.368 . S
C478 C477 1.523 . S
C479 C463 1.429 . S
C479 C475 1.429 . S
C479 C480 1.523 . S
C480 C464 1.368 . S
C480 C476 1.368 . S
C480 C479 1.523 . S
H481 C456 0.950 . S
H482 C458 0.950 . S
H483 C459 0.949 . S
H484 C461 0.950 . S
H485 C463 0.950 . S
C486 C487 1.349 . S
C486 C488 1.327 . S
C486 H511 0.950 . S
C487 C486 1.349 . S
C487 C503 1.349 . S
C488 C486 1.327 . S
C488 C507 1.429 . S
C488 H512 0.950 . S
C489 C506 1.574 . S
C489 C508 1.368 . S
C489 H513 0.949 . S
H490 C494 0.949 . S
C491 C492 1.349 . S
C491 C493 1.327 . S
C491 H514 0.950 . S
C492 C491 1.349 . S
C492 C504 1.349 . S
C493 C491 1.327 . S
C493 C509 1.429 . S
C493 H515 0.950 . S
C494 H490 0.949 . S
C494 C502 1.574 . S
C494 C510 1.368 . S
H495 C503 0.950 . S
H496 C501 0.950 . S
H497 C502 0.949 . S
H498 C504 0.950 . S
H499 C505 0.950 . S
H500 C506 0.949 . S
C501 H496 0.950 . S
C501 C503 1.327 . S
C501 C507 1.429 . S
C502 C494 1.574 . S
C502 H497 0.949 . S
C502 C508 1.368 . S
C503 C487 1.349 . S
C503 H495 0.950 . S
C503 C501 1.327 . S
C504 C492 1.349 . S
C504 H498 0.950 . S
C504 C505 1.327 . S
C505 H499 0.950 . S
C505 C504 1.327 . S
C505 C509 1.429 . S
C506 C489 1.574 . S
C506 H500 0.949 . S
C506 C510 1.368 . S
C507 C488 1.429 . S
C507 C501 1.429 . S
C507 C508 1.523 . S
C508 C489 1.368 . S
C508 C502 1.368 . S
C508 C507 1.523 . S
C509 C493 1.429 . S
C509 C505 1.429 . S
C509 C510 1.523 . S
C510 C494 1.368 . S
C510 C506 1.368 . S
C510 C509 1.523 . S
H511 C486 0.950 . S
H512 C488 0.950 . S
H513 C489 0.949 . S
H514 C491 0.950 . S
H515 C493 0.950 . S
C516 C517 1.349 . S
C516 C518 1.327 . S
C516 H541 0.950 . S
C517 C516 1.349 . S
C517 C533 1.349 . S
C518 C516 1.327 . S
C518 C537 1.429 . S
C518 H542 0.950 . S
C519 C536 1.574 . S
C519 C538 1.368 . S
C519 H543 0.949 . S
H520 C524 0.949 . S
C521 C522 1.349 . S
C521 C523 1.327 . S
C521 H544 0.950 . S
C522 C521 1.349 . S
C522 C534 1.349 . S
C523 C521 1.327 . S
C523 C539 1.429 . S
C523 H545 0.950 . S
C524 H520 0.949 . S
C524 C532 1.574 . S
C524 C540 1.368 . S
H525 C533 0.950 . S
H526 C531 0.950 . S
H527 C532 0.949 . S
H528 C534 0.950 . S
H529 C535 0.950 . S
H530 C536 0.949 . S
C531 H526 0.950 . S
C531 C533 1.327 . S
C531 C537 1.429 . S
C532 C524 1.574 . S
C532 H527 0.949 . S
C532 C538 1.368 . S
C533 C517 1.349 . S
C533 H525 0.950 . S
C533 C531 1.327 . S
C534 C522 1.349 . S
C534 H528 0.950 . S
C534 C535 1.327 . S
C535 H529 0.950 . S
C535 C534 1.327 . S
C535 C539 1.429 . S
C536 C519 1.574 . S
C536 H530 0.949 . S
C536 C540 1.368 . S
C537 C518 1.429 . S
C537 C531 1.429 . S
C537 C538 1.523 . S
C538 C519 1.368 . S
C538 C532 1.368 . S
C538 C537 1.523 . S
C539 C523 1.429 . S
C539 C535 1.429 . S
C539 C540 1.523 . S
C540 C524 1.368 . S
C540 C536 1.368 . S
C540 C539 1.523 . S
H541 C516 0.950 . S
H542 C518 0.950 . S
H543 C519 0.949 . S
H544 C521 0.950 . S
H545 C523 0.950 . S
C546 C547 1.349 . S
C546 C548 1.327 . S
C546 H571 0.950 . S
C547 C546 1.349 . S
C547 C563 1.349 . S
C548 C546 1.327 . S
C548 C567 1.429 . S
C548 H572 0.950 . S
C549 C566 1.574 . S
C549 C568 1.368 . S
C549 H573 0.949 . S
H550 C554 0.949 . S
C551 C552 1.349 . S
C551 C553 1.327 . S
C551 H574 0.950 . S
C552 C551 1.349 . S
C552 C564 1.349 . S
C553 C551 1.327 . S
C553 C569 1.429 . S
C553 H575 0.950 . S
C554 H550 0.949 . S
C554 C562 1.574 . S
C554 C570 1.368 . S
H555 C563 0.950 . S
H556 C561 0.950 . S
H557 C562 0.949 . S
H558 C564 0.950 . S
H559 C565 0.950 . S
H560 C566 0.949 . S
C561 H556 0.950 . S
C561 C563 1.327 . S
C561 C567 1.429 . S
C562 C554 1.574 . S
C562 H557 0.949 . S
C562 C568 1.368 . S
C563 C547 1.349 . S
C563 H555 0.950 . S
C563 C561 1.327 . S
C564 C552 1.349 . S
C564 H558 0.950 . S
C564 C565 1.327 . S
C565 H559 0.950 . S
C565 C564 1.327 . S
C565 C569 1.429 . S
C566 C549 1.574 . S
C566 H560 0.949 . S
C566 C570 1.368 . S
C567 C548 1.429 . S
C567 C561 1.429 . S
C567 C568 1.523 . S
C568 C549 1.368 . S
C568 C562 1.368 . S
C568 C567 1.523 . S
C569 C553 1.429 . S
C569 C565 1.429 . S
C569 C570 1.523 . S
C570 C554 1.368 . S
C570 C566 1.368 . S
C570 C569 1.523 . S
H571 C546 0.950 . S
H572 C548 0.950 . S
H573 C549 0.949 . S
H574 C551 0.950 . S
H575 C553 0.950 . S
C576 C577 1.349 . S
C576 C578 1.327 . S
C576 H601 0.950 . S
C577 C576 1.349 . S
C577 C593 1.349 . S
C578 C576 1.327 . S
C578 C597 1.429 . S
C578 H602 0.950 . S
C579 C596 1.574 . S
C579 C598 1.368 . S
C579 H603 0.949 . S
H580 C584 0.949 . S
C581 C582 1.349 . S
C581 C583 1.327 . S
C581 H604 0.950 . S
C582 C581 1.349 . S
C582 C594 1.349 . S
C583 C581 1.327 . S
C583 C599 1.429 . S
C583 H605 0.950 . S
C584 H580 0.949 . S
C584 C592 1.574 . S
C584 C600 1.368 . S
H585 C593 0.950 . S
H586 C591 0.950 . S
H587 C592 0.949 . S
H588 C594 0.950 . S
H589 C595 0.950 . S
H590 C596 0.949 . S
C591 H586 0.950 . S
C591 C593 1.327 . S
C591 C597 1.429 . S
C592 C584 1.574 . S
C592 H587 0.949 . S
C592 C598 1.368 . S
C593 C577 1.349 . S
C593 H585 0.950 . S
C593 C591 1.327 . S
C594 C582 1.349 . S
C594 H588 0.950 . S
C594 C595 1.327 . S
C595 H589 0.950 . S
C595 C594 1.327 . S
C595 C599 1.429 . S
C596 C579 1.574 . S
C596 H590 0.949 . S
C596 C600 1.368 . S
C597 C578 1.429 . S
C597 C591 1.429 . S
C597 C598 1.523 . S
C598 C579 1.368 . S
C598 C592 1.368 . S
C598 C597 1.523 . S
C599 C583 1.429 . S
C599 C595 1.429 . S
C599 C600 1.523 . S
C600 C584 1.368 . S
C600 C596 1.368 . S
C600 C599 1.523 . S
H601 C576 0.950 . S
H602 C578 0.950 . S
H603 C579 0.949 . S
H604 C581 0.950 . S
H605 C583 0.950 . S
C606 C607 1.349 . S
C606 C608 1.327 . S
C606 H631 0.950 . S
C607 C606 1.349 . S
C607 C623 1.349 . S
C608 C606 1.327 . S
C608 C627 1.429 . S
C608 H632 0.950 . S
C609 C626 1.574 . S
C609 C628 1.368 . S
C609 H633 0.949 . S
H610 C614 0.949 . S
C611 C612 1.349 . S
C611 C613 1.327 . S
C611 H634 0.950 . S
C612 C611 1.349 . S
C612 C624 1.349 . S
C613 C611 1.327 . S
C613 C629 1.429 . S
C613 H635 0.950 . S
C614 H610 0.949 . S
C614 C622 1.574 . S
C614 C630 1.368 . S
H615 C623 0.950 . S
H616 C621 0.950 . S
H617 C622 0.949 . S
H618 C624 0.950 . S
H619 C625 0.950 . S
H620 C626 0.949 . S
C621 H616 0.950 . S
C621 C623 1.327 . S
C621 C627 1.429 . S
C622 C614 1.574 . S
C622 H617 0.949 . S
C622 C628 1.368 . S
C623 C607 1.349 . S
C623 H615 0.950 . S
C623 C621 1.327 . S
C624 C612 1.349 . S
C624 H618 0.950 . S
C624 C625 1.327 . S
C625 H619 0.950 . S
C625 C624 1.327 . S
C625 C629 1.429 . S
C626 C609 1.574 . S
C626 H620 0.949 . S
C626 C630 1.368 . S
C627 C608 1.429 . S
C627 C621 1.429 . S
C627 C628 1.523 . S
C628 C609 1.368 . S
C628 C622 1.368 . S
C628 C627 1.523 . S
C629 C613 1.429 . S
C629 C625 1.429 . S
C629 C630 1.523 . S
C630 C614 1.368 . S
C630 C626 1.368 . S
C630 C629 1.523 . S
H631 C606 0.950 . S
H632 C608 0.950 . S
H633 C609 0.949 . S
H634 C611 0.950 . S
H635 C613 0.950 . S
C636 C637 1.349 . S
C636 C638 1.327 . S
C636 H661 0.950 . S
C637 C636 1.349 . S
C637 C653 1.349 . S
C638 C636 1.327 . S
C638 C657 1.429 . S
C638 H662 0.950 . S
C639 C656 1.574 . S
C639 C658 1.368 . S
C639 H663 0.949 . S
H640 C644 0.949 . S
C641 C642 1.349 . S
C641 C643 1.327 . S
C641 H664 0.950 . S
C642 C641 1.349 . S
C642 C654 1.349 . S
C643 C641 1.327 . S
C643 C659 1.429 . S
C643 H665 0.950 . S
C644 H640 0.949 . S
C644 C652 1.574 . S
C644 C660 1.368 . S
H645 C653 0.950 . S
H646 C651 0.950 . S
H647 C652 0.949 . S
H648 C654 0.950 . S
H649 C655 0.950 . S
H650 C656 0.949 . S
C651 H646 0.950 . S
C651 C653 1.327 . S
C651 C657 1.429 . S
C652 C644 1.574 . S
C652 H647 0.949 . S
C652 C658 1.368 . S
C653 C637 1.349 . S
C653 H645 0.950 . S
C653 C651 1.327 . S
C654 C642 1.349 . S
C654 H648 0.950 . S
C654 C655 1.327 . S
C655 H649 0.950 . S
C655 C654 1.327 . S
C655 C659 1.429 . S
C656 C639 1.574 . S
C656 H650 0.949 . S
C656 C660 1.368 . S
C657 C638 1.429 . S
C657 C651 1.429 . S
C657 C658 1.523 . S
C658 C639 1.368 . S
C658 C652 1.368 . S
C658 C657 1.523 . S
C659 C643 1.429 . S
C659 C655 1.429 . S
C659 C660 1.523 . S
C660 C644 1.368 . S
C660 C656 1.368 . S
C660 C659 1.523 . S
H661 C636 0.950 . S
H662 C638 0.950 . S
H663 C639 0.949 . S
H664 C641 0.950 . S
H665 C643 0.950 . S
C666 C667 1.349 . S
C666 C668 1.327 . S
C666 H691 0.950 . S
C667 C666 1.349 . S
C667 C683 1.349 . S
C668 C666 1.327 . S
C668 C687 1.429 . S
C668 H692 0.950 . S
C669 C686 1.574 . S
C669 C688 1.368 . S
C669 H693 0.949 . S
H670 C674 0.949 . S
C671 C672 1.349 . S
C671 C673 1.327 . S
C671 H694 0.950 . S
C672 C671 1.349 . S
C672 C684 1.349 . S
C673 C671 1.327 . S
C673 C689 1.429 . S
C673 H695 0.950 . S
C674 H670 0.949 . S
C674 C682 1.574 . S
C674 C690 1.368 . S
H675 C683 0.950 . S
H676 C681 0.950 . S
H677 C682 0.949 . S
H678 C684 0.950 . S
H679 C685 0.950 . S
H680 C686 0.949 . S
C681 H676 0.950 . S
C681 C683 1.327 . S
C681 C687 1.429 . S
C682 C674 1.574 . S
C682 H677 0.949 . S
C682 C688 1.368 . S
C683 C667 1.349 . S
C683 H675 0.950 . S
C683 C681 1.327 . S
C684 C672 1.349 . S
C684 H678 0.950 . S
C684 C685 1.327 . S
C685 H679 0.950 . S
C685 C684 1.327 . S
C685 C689 1.429 . S
C686 C669 1.574 . S
C686 H680 0.949 . S
C686 C690 1.368 . S
C687 C668 1.429 . S
C687 C681 1.429 . S
C687 C688 1.523 . S
C688 C669 1.368 . S
C688 C682 1.368 . S
C688 C687 1.523 . S
C689 C673 1.429 . S
C689 C685 1.429 . S
C689 C690 1.523 . S
C690 C674 1.368 . S
C690 C686 1.368 . S
C690 C689 1.523 . S
H691 C666 0.950 . S
H692 C668 0.950 . S
H693 C669 0.949 . S
H694 C671 0.950 . S
H695 C673 0.950 . S
C696 C697 1.349 . S
C696 C698 1.327 . S
C696 H721 0.950 . S
C697 C696 1.349 . S
C697 C713 1.349 . S
C698 C696 1.327 . S
C698 C717 1.429 . S
C698 H722 0.950 . S
C699 C716 1.574 . S
C699 C718 1.368 . S
C699 H723 0.949 . S
H700 C704 0.949 . S
C701 C702 1.349 . S
C701 C703 1.327 . S
C701 H724 0.950 . S
C702 C701 1.349 . S
C702 C714 1.349 . S
C703 C701 1.327 . S
C703 C719 1.429 . S
C703 H725 0.950 . S
C704 H700 0.949 . S
C704 C712 1.574 . S
C704 C720 1.368 . S
H705 C713 0.950 . S
H706 C711 0.950 . S
H707 C712 0.949 . S
H708 C714 0.950 . S
H709 C715 0.950 . S
H710 C716 0.949 . S
C711 H706 0.950 . S
C711 C713 1.327 . S
C711 C717 1.429 . S
C712 C704 1.574 . S
C712 H707 0.949 . S
C712 C718 1.368 . S
C713 C697 1.349 . S
C713 H705 0.950 . S
C713 C711 1.327 . S
C714 C702 1.349 . S
C714 H708 0.950 . S
C714 C715 1.327 . S
C715 H709 0.950 . S
C715 C714 1.327 . S
C715 C719 1.429 . S
C716 C699 1.574 . S
C716 H710 0.949 . S
C716 C720 1.368 . S
C717 C698 1.429 . S
C717 C711 1.429 . S
C717 C718 1.523 . S
C718 C699 1.368 . S
C718 C712 1.368 . S
C718 C717 1.523 . S
C719 C703 1.429 . S
C719 C715 1.429 . S
C719 C720 1.523 . S
C720 C704 1.368 . S
C720 C716 1.368 . S
C720 C719 1.523 . S
H721 C696 0.950 . S
H722 C698 0.950 . S
H723 C699 0.949 . S
H724 C701 0.950 . S
H725 C703 0.950 . S
C726 C727 1.349 . S
C726 C728 1.327 . S
C726 H751 0.950 . S
C727 C726 1.349 . S
C727 C743 1.349 . S
C728 C726 1.327 . S
C728 C747 1.429 . S
C728 H752 0.950 . S
C729 C746 1.574 . S
C729 C748 1.368 . S
C729 H753 0.949 . S
H730 C734 0.949 . S
C731 C732 1.349 . S
C731 C733 1.327 . S
C731 H754 0.950 . S
C732 C731 1.349 . S
C732 C744 1.349 . S
C733 C731 1.327 . S
C733 C749 1.429 . S
C733 H755 0.950 . S
C734 H730 0.949 . S
C734 C742 1.574 . S
C734 C750 1.368 . S
H735 C743 0.950 . S
H736 C741 0.950 . S
H737 C742 0.949 . S
H738 C744 0.950 . S
H739 C745 0.950 . S
H740 C746 0.949 . S
C741 H736 0.950 . S
C741 C743 1.327 . S
C741 C747 1.429 . S
C742 C734 1.574 . S
C742 H737 0.949 . S
C742 C748 1.368 . S
C743 C727 1.349 . S
C743 H735 0.950 . S
C743 C741 1.327 . S
C744 C732 1.349 . S
C744 H738 0.950 . S
C744 C745 1.327 . S
C745 H739 0.950 . S
C745 C744 1.327 . S
C745 C749 1.429 . S
C746 C729 1.574 . S
C746 H740 0.949 . S
C746 C750 1.368 . S
C747 C728 1.429 . S
C747 C741 1.429 . S
C747 C748 1.523 . S
C748 C729 1.368 . S
C748 C742 1.368 . S
C748 C747 1.523 . S
C749 C733 1.429 . S
C749 C745 1.429 . S
C749 C750 1.523 . S
C750 C734 1.368 . S
C750 C746 1.368 . S
C750 C749 1.523 . S
H751 C726 0.950 . S
H752 C728 0.950 . S
H753 C729 0.949 . S
H754 C731 0.950 . S
H755 C733 0.950 . S
C756 C757 1.349 . S
C756 C758 1.327 . S
C756 H781 0.950 . S
C757 C756 1.349 . S
C757 C773 1.349 . S
C758 C756 1.327 . S
C758 C777 1.429 . S
C758 H782 0.950 . S
C759 C776 1.574 . S
C759 C778 1.368 . S
C759 H783 0.949 . S
H760 C764 0.949 . S
C761 C762 1.349 . S
C761 C763 1.327 . S
C761 H784 0.950 . S
C762 C761 1.349 . S
C762 C774 1.349 . S
C763 C761 1.327 . S
C763 C779 1.429 . S
C763 H785 0.950 . S
C764 H760 0.949 . S
C764 C772 1.574 . S
C764 C780 1.368 . S
H765 C773 0.950 . S
H766 C771 0.950 . S
H767 C772 0.949 . S
H768 C774 0.950 . S
H769 C775 0.950 . S
H770 C776 0.949 . S
C771 H766 0.950 . S
C771 C773 1.327 . S
C771 C777 1.429 . S
C772 C764 1.574 . S
C772 H767 0.949 . S
C772 C778 1.368 . S
C773 C757 1.349 . S
C773 H765 0.950 . S
C773 C771 1.327 . S
C774 C762 1.349 . S
C774 H768 0.950 . S
C774 C775 1.327 . S
C775 H769 0.950 . S
C775 C774 1.327 . S
C775 C779 1.429 . S
C776 C759 1.574 . S
C776 H770 0.949 . S
C776 C780 1.368 . S
C777 C758 1.429 . S
C777 C771 1.429 . S
C777 C778 1.523 . S
C778 C759 1.368 . S
C778 C772 1.368 . S
C778 C777 1.523 . S
C779 C763 1.429 . S
C779 C775 1.429 . S
C779 C780 1.523 . S
C780 C764 1.368 . S
C780 C776 1.368 . S
C780 C779 1.523 . S
H781 C756 0.950 . S
H782 C758 0.950 . S
H783 C759 0.949 . S
H784 C761 0.950 . S
H785 C763 0.950 . S
C786 C787 1.349 . S
C786 C788 1.327 . S
C786 H811 0.950 . S
C787 C786 1.349 . S
C787 C803 1.349 . S
C788 C786 1.327 . S
C788 C807 1.429 . S
C788 H812 0.950 . S
C789 C806 1.574 . S
C789 C808 1.368 . S
C789 H813 0.949 . S
H790 C794 0.949 . S
C791 C792 1.349 . S
C791 C793 1.327 . S
C791 H814 0.950 . S
C792 C791 1.349 . S
C792 C804 1.349 . S
C793 C791 1.327 . S
C793 C809 1.429 . S
C793 H815 0.950 . S
C794 H790 0.949 . S
C794 C802 1.574 . S
C794 C810 1.368 . S
H795 C803 0.950 . S
H796 C801 0.950 . S
H797 C802 0.949 . S
H798 C804 0.950 . S
H799 C805 0.950 . S
H800 C806 0.949 . S
C801 H796 0.950 . S
C801 C803 1.327 . S
C801 C807 1.429 . S
C802 C794 1.574 . S
C802 H797 0.949 . S
C802 C808 1.368 . S
C803 C787 1.349 . S
C803 H795 0.950 . S
C803 C801 1.327 . S
C804 C792 1.349 . S
C804 H798 0.950 . S
C804 C805 1.327 . S
C805 H799 0.950 . S
C805 C804 1.327 . S
C805 C809 1.429 . S
C806 C789 1.574 . S
C806 H800 0.949 . S
C806 C810 1.368 . S
C807 C788 1.429 . S
C807 C801 1.429 . S
C807 C808 1.523 . S
C808 C789 1.368 . S
C808 C802 1.368 . S
C808 C807 1.523 . S
C809 C793 1.429 . S
C809 C805 1.429 . S
C809 C810 1.523 . S
C810 C794 1.368 . S
C810 C806 1.368 . S
C810 C809 1.523 . S
H811 C786 0.950 . S
H812 C788 0.950 . S
H813 C789 0.949 . S
H814 C791 0.950 . S
H815 C793 0.950 . S
C816 C817 1.349 . S
C816 C818 1.327 . S
C816 H841 0.950 . S
C817 C816 1.349 . S
C817 C833 1.349 . S
C818 C816 1.327 . S
C818 C837 1.429 . S
C818 H842 0.950 . S
C819 C836 1.574 . S
C819 C838 1.368 . S
C819 H843 0.949 . S
H820 C824 0.949 . S
C821 C822 1.349 . S
C821 C823 1.327 . S
C821 H844 0.950 . S
C822 C821 1.349 . S
C822 C834 1.349 . S
C823 C821 1.327 . S
C823 C839 1.429 . S
C823 H845 0.950 . S
C824 H820 0.949 . S
C824 C832 1.574 . S
C824 C840 1.368 . S
H825 C833 0.950 . S
H826 C831 0.950 . S
H827 C832 0.949 . S
H828 C834 0.950 . S
H829 C835 0.950 . S
H830 C836 0.949 . S
C831 H826 0.950 . S
C831 C833 1.327 . S
C831 C837 1.429 . S
C832 C824 1.574 . S
C832 H827 0.949 . S
C832 C838 1.368 . S
C833 C817 1.349 . S
C833 H825 0.950 . S
C833 C831 1.327 . S
C834 C822 1.349 . S
C834 H828 0.950 . S
C834 C835 1.327 . S
C835 H829 0.950 . S
C835 C834 1.327 . S
C835 C839 1.429 . S
C836 C819 1.574 . S
C836 H830 0.949 . S
C836 C840 1.368 . S
C837 C818 1.429 . S
C837 C831 1.429 . S
C837 C838 1.523 . S
C838 C819 1.368 . S
C838 C832 1.368 . S
C838 C837 1.523 . S
C839 C823 1.429 . S
C839 C835 1.429 . S
C839 C840 1.523 . S
C840 C824 1.368 . S
C840 C836 1.368 . S
C840 C839 1.523 . S
H841 C816 0.950 . S
H842 C818 0.950 . S
H843 C819 0.949 . S
H844 C821 0.950 . S
H845 C823 0.950 . S
C846 C847 1.349 . S
C846 C848 1.327 . S
C846 H871 0.950 . S
C847 C846 1.349 . S
C847 C863 1.349 . S
C848 C846 1.327 . S
C848 C867 1.429 . S
C848 H872 0.950 . S
C849 C866 1.574 . S
C849 C868 1.368 . S
C849 H873 0.949 . S
H850 C854 0.949 . S
C851 C852 1.349 . S
C851 C853 1.327 . S
C851 H874 0.950 . S
C852 C851 1.349 . S
C852 C864 1.349 . S
C853 C851 1.327 . S
C853 C869 1.429 . S
C853 H875 0.950 . S
C854 H850 0.949 . S
C854 C862 1.574 . S
C854 C870 1.368 . S
H855 C863 0.950 . S
H856 C861 0.950 . S
H857 C862 0.949 . S
H858 C864 0.950 . S
H859 C865 0.950 . S
H860 C866 0.949 . S
C861 H856 0.950 . S
C861 C863 1.327 . S
C861 C867 1.429 . S
C862 C854 1.574 . S
C862 H857 0.949 . S
C862 C868 1.368 . S
C863 C847 1.349 . S
C863 H855 0.950 . S
C863 C861 1.327 . S
C864 C852 1.349 . S
C864 H858 0.950 . S
C864 C865 1.327 . S
C865 H859 0.950 . S
C865 C864 1.327 . S
C865 C869 1.429 . S
C866 C849 1.574 . S
C866 H860 0.949 . S
C866 C870 1.368 . S
C867 C848 1.429 . S
C867 C861 1.429 . S
C867 C868 1.523 . S
C868 C849 1.368 . S
C868 C862 1.368 . S
C868 C867 1.523 . S
C869 C853 1.429 . S
C869 C865 1.429 . S
C869 C870 1.523 . S
C870 C854 1.368 . S
C870 C866 1.368 . S
C870 C869 1.523 . S
H871 C846 0.950 . S
H872 C848 0.950 . S
H873 C849 0.949 . S
H874 C851 0.950 . S
H875 C853 0.950 . S
C162 C84 1.503 . S
C157 C4 1.505 . S
C192 C87 1.502 . S
C187 C13 1.503 . S
C222 C85 1.506 . S
C217 C25 1.508 . S
C252 C86 1.504 . S
C247 C34 1.506 . S
C282 C101 1.494 . S
C277 C7 1.496 . S
C312 C115 1.508 . S
C307 C14 1.510 . S
C337 C23 1.504 . S
C342 C141 1.503 . S
C372 C155 1.511 . S
C367 C31 1.513 . S
C402 C100 1.494 . S
C397 C16 1.495 . S
C427 C22 1.515 . S
C432 C114 1.513 . S
C462 C140 1.502 . S
C457 C32 1.503 . S
C492 C154 1.508 . S
C487 C5 1.510 . S
C517 C43 1.509 . S
C522 C99 1.508 . S
C552 C72 1.509 . S
C547 C52 1.510 . S
C577 C58 1.503 . S
C582 C98 1.502 . S
C607 C68 1.506 . S
C612 C73 1.504 . S
C642 C128 1.511 . S
C637 C40 1.512 . S
C672 C142 1.504 . S
C667 C50 1.506 . S
C702 C112 1.502 . S
C697 C59 1.503 . S
C727 C70 1.501 . S
C732 C126 1.499 . S
C762 C129 1.511 . S
C757 C49 1.512 . S
C792 C143 1.497 . S
C787 C61 1.499 . S
C822 C113 1.502 . S
C817 C67 1.504 . S
C847 C41 1.506 . S
C852 C127 1.504 . S
