# Generated by pormake.
# Topology anh, (6,3)-cn, num edge types: 1
# Building blocks:
#     Node 0, Type 0, BuildingBlock: PAMTOO_clean_sbu_0, # of connection points: 6
#     Node 1, Type 0, BuildingBlock: PAMTOO_clean_sbu_0, # of connection points: 6
#     Node 2, Type 0, BuildingBlock: PAMTOO_clean_sbu_0, # of connection points: 6
#     Node 3, Type 1, BuildingBlock: BETDIP_clean_linker_0, # of connection points: 3
#     Node 4, Type 1, BuildingBlock: BETDIP_clean_linker_0, # of connection points: 3
#     Node 5, Type 1, BuildingBlock: BETDIP_clean_linker_0, # of connection points: 3
#     Node 6, Type 1, BuildingBlock: BETDIP_clean_linker_0, # of connection points: 3
#     Node 7, Type 1, BuildingBlock: BETDIP_clean_linker_0, # of connection points: 3
#     Node 8, Type 1, BuildingBlock: BETDIP_clean_linker_0, # of connection points: 3
#     Edge 9, Type (0, 1), BuildingBlock: OJICUG_clean_linker_0, # of connection points: 2
#     Edge 10, Type (0, 1), BuildingBlock: OJICUG_clean_linker_0, # of connection points: 2
#     Edge 11, Type (0, 1), BuildingBlock: OJICUG_clean_linker_0, # of connection points: 2
#     Edge 12, Type (0, 1), BuildingBlock: OJICUG_clean_linker_0, # of connection points: 2
#     Edge 13, Type (0, 1), BuildingBlock: OJICUG_clean_linker_0, # of connection points: 2
#     Edge 14, Type (0, 1), BuildingBlock: OJICUG_clean_linker_0, # of connection points: 2
#     Edge 15, Type (0, 1), BuildingBlock: OJICUG_clean_linker_0, # of connection points: 2
#     Edge 16, Type (0, 1), BuildingBlock: OJICUG_clean_linker_0, # of connection points: 2
#     Edge 17, Type (0, 1), BuildingBlock: OJICUG_clean_linker_0, # of connection points: 2
#     Edge 18, Type (0, 1), BuildingBlock: OJICUG_clean_linker_0, # of connection points: 2
#     Edge 19, Type (0, 1), BuildingBlock: OJICUG_clean_linker_0, # of connection points: 2
#     Edge 20, Type (0, 1), BuildingBlock: OJICUG_clean_linker_0, # of connection points: 2
#     Edge 21, Type (0, 1), BuildingBlock: OJICUG_clean_linker_0, # of connection points: 2
#     Edge 22, Type (0, 1), BuildingBlock: OJICUG_clean_linker_0, # of connection points: 2
#     Edge 23, Type (0, 1), BuildingBlock: OJICUG_clean_linker_0, # of connection points: 2
#     Edge 24, Type (0, 1), BuildingBlock: OJICUG_clean_linker_0, # of connection points: 2
#     Edge 25, Type (0, 1), BuildingBlock: OJICUG_clean_linker_0, # of connection points: 2
#     Edge 26, Type (0, 1), BuildingBlock: OJICUG_clean_linker_0, # of connection points: 2
# Relax obj value: 0.226
# Max RMSD: 0.215
# Mean RMSD: 0.137
data_MOF--net-anh--node1-PAMTOO_clean_sbu_0--node2-BETDIP_clean_linker_0--edge1-OJICUG_clean_linker_0
_symmetry_space_group_name_H-M    P1
_symmetry_Int_Tables_number       1
_symmetry_cell_setting            triclinic
loop_
_symmetry_equiv_pos_as_xyz
'x, y, z'
_cell_length_a     22.775358
_cell_length_b     21.7127
_cell_length_c     36.389022
_cell_angle_alpha  93.707755
_cell_angle_beta   95.698398
_cell_angle_gamma 97.814201
loop_
_atom_site_label
_atom_site_type_symbol
_atom_site_fract_x
_atom_site_fract_y
_atom_site_fract_z
_atom_type_partial_charge
Dy0 Dy 0.12257 0.6904 0.1401 0.0
Dy1 Dy 1.09745 0.54274 0.11519 0.0
C2 C 0.11068 0.6433 0.0571 0.0
O3 O 1.0216 0.66641 0.14581 0.0
O4 O 1.00509 0.57343 0.11019 0.0
O5 O 0.14481 0.78302 0.12298 0.0
O6 O 0.13225 0.77017 0.18033 0.0
O7 O 1.0836 0.55623 0.17494 0.0
O8 O 0.15347 0.64134 0.1885 0.0
O9 O 0.19991 0.56066 0.12456 0.0
O10 O 0.215 0.66775 0.12743 0.0
O11 O 0.10926 0.44851 0.12646 0.0
O12 O 1.05 0.4651 0.07895 0.0
C13 C 0.9837 0.6192 0.12806 0.0
O14 O 1.08645 0.67642 0.08101 0.0
O15 O 0.12689 0.58994 0.06575 0.0
C16 C 0.20955 0.84734 0.1675 0.0
C17 C 0.32309 0.91987 0.18091 0.0
C18 C 0.27138 0.94866 0.17624 0.0
C19 C 0.215 0.91256 0.16929 0.0
C20 C 0.26096 0.81857 0.17285 0.0
C21 C 0.31719 0.85444 0.17933 0.0
C22 C 0.15134 0.809 0.1567 0.0
C23 C 0.12159 0.59233 0.19899 0.0
C24 C 0.23679 0.61396 0.12576 0.0
C25 C 1.01727 0.38389 0.1152 0.0
C26 C 0.92874 0.30834 0.1477 0.0
C27 C 0.93732 0.37352 0.15489 0.0
C28 C 0.98102 0.41082 0.13881 0.0
C29 C 1.00802 0.31905 0.10703 0.0
C30 C 0.96379 0.28148 0.12303 0.0
C31 C 1.06626 0.42406 0.10116 0.0
H32 H 0.27464 0.999 0.17733 0.0
H33 H 0.17581 0.93549 0.16481 0.0
H34 H 0.25765 0.76827 0.17159 0.0
H35 H 0.35606 0.83093 0.18353 0.0
H36 H 0.91052 0.39574 0.1733 0.0
H37 H 0.98733 0.46081 0.14543 0.0
H38 H 1.03569 0.29744 0.08894 0.0
H39 H 0.95837 0.23138 0.11711 0.0
Dy40 Dy 0.57975 1.0105 0.50885 0.0
Dy41 Dy 0.72567 0.02401 0.52277 0.0
C42 C 0.64763 0.02672 0.58892 0.0
O43 O 0.60872 0.11041 0.49915 0.0
O44 O 0.70323 0.12174 0.52996 0.0
O45 O 0.49683 0.99497 0.53298 0.0
O46 O 0.4962 1.00851 0.47454 0.0
O47 O 0.69964 0.04623 0.46495 0.0
O48 O 0.61234 0.97997 0.45575 0.0
O49 O 0.69708 0.91999 0.51198 0.0
O50 O 0.59904 0.91618 0.52299 0.0
O51 O 0.80927 1.00642 0.50388 0.0
O52 O 0.80862 0.06154 0.55562 0.0
C53 C 0.65779 0.14588 0.51426 0.0
O54 O 0.61083 0.05145 0.56624 0.0
O55 O 0.69094 1.0004 0.57629 0.0
C56 C 0.41903 0.93738 0.49314 0.0
C57 C 0.33213 0.83055 0.47961 0.0
C58 C 0.31593 0.88901 0.48998 0.0
C59 C 0.3591 0.94196 0.49673 0.0
C60 C 0.43566 0.87919 0.48333 0.0
C61 C 0.39262 0.82623 0.4766 0.0
C62 C 0.46435 0.99274 0.50126 0.0
C63 C 0.65689 1.0129 0.44252 0.0
C64 C 0.64559 0.88823 0.51772 0.0
C65 C 0.88246 0.09581 0.5166 0.0
C66 C 0.94947 0.19473 0.48532 0.0
C67 C 0.94311 0.13339 0.46896 0.0
C68 C 0.91024 0.08446 0.48452 0.0
C69 C 0.89128 0.15671 0.53398 0.0
C70 C 0.92451 0.20558 0.51853 0.0
C71 C 0.84062 0.04543 0.52967 0.0
H72 H 0.26988 0.89384 0.49288 0.0
H73 H 0.34569 0.98646 0.50477 0.0
H74 H 0.48191 0.87482 0.48068 0.0
H75 H 0.40657 0.78224 0.4681 0.0
H76 H 0.96263 0.12339 0.44367 0.0
H77 H 0.90485 0.03802 0.47068 0.0
H78 H 0.87079 0.16724 0.55882 0.0
H79 H 0.92836 0.25236 0.53171 0.0
Dy80 Dy 0.62897 0.4831 0.83514 0.0
Dy81 Dy 0.4851 0.45292 0.81141 0.0
C82 C 0.57638 0.4658 0.75186 0.0
O83 O 0.60166 0.57914 0.83664 0.0
O84 O 0.51018 0.55389 0.8023 0.0
O85 O 0.70945 0.52917 0.86748 0.0
O86 O 0.71337 0.45552 0.82485 0.0
O87 O 0.49887 0.49646 0.86982 0.0
O88 O 0.58965 0.4674 0.8876 0.0
O89 O 0.50556 0.35999 0.82821 0.0
O90 O 0.60662 0.37889 0.82537 0.0
O91 O 0.39367 0.43605 0.82419 0.0
O92 O 0.41267 0.44282 0.76744 0.0
C93 C 0.5542 0.59567 0.81826 0.0
O94 O 0.6125 0.50306 0.77635 0.0
O95 O 0.53186 0.42845 0.76225 0.0
C96 C 0.79501 0.53429 0.83554 0.0
C97 C 0.89621 0.60329 0.81219 0.0
C98 C 0.83893 0.61733 0.80093 0.0
C99 C 0.78851 0.5828 0.81245 0.0
C100 C 0.85156 0.51874 0.84565 0.0
C101 C 0.90172 0.55286 0.83414 0.0
C102 C 0.74357 0.49821 0.8488 0.0
C103 C 0.54077 0.48805 0.8957 0.0
C104 C 0.55764 0.34029 0.82798 0.0
C105 C 0.33983 0.50046 0.78824 0.0
C106 C 0.30334 0.61875 0.79878 0.0
C107 C 0.33861 0.60654 0.77042 0.0
C108 C 0.35667 0.54802 0.76517 0.0
C109 C 0.29966 0.51078 0.81404 0.0
C110 C 0.28153 0.5694 0.81926 0.0
C111 C 0.37308 0.4466 0.79073 0.0
H112 H 0.83332 0.65588 0.78408 0.0
H113 H 0.74471 0.59458 0.80397 0.0
H114 H 0.85707 0.48098 0.86319 0.0
H115 H 0.94508 0.54161 0.84415 0.0
H116 H 0.35611 0.64343 0.75413 0.0
H117 H 0.3875 0.54183 0.74486 0.0
H118 H 0.28569 0.47494 0.83201 0.0
H119 H 0.25297 0.57704 0.84071 0.0
H120 H 0.59643 0.07547 0.18169 0.0
H121 H 0.72128 0.08701 0.27978 0.0
H122 H 0.53833 1.00831 0.28239 0.0
H123 H 0.75901 0.17593 0.25636 0.0
C124 C 0.75655 0.16343 0.22681 0.0
C125 C 0.60626 0.06727 0.21057 0.0
C126 C 0.56095 0.03899 0.23005 0.0
C127 C 0.66366 0.08749 0.22876 0.0
C128 C 0.6764 0.07511 0.26611 0.0
C129 C 0.63157 0.04592 0.28572 0.0
C130 C 0.57385 0.0293 0.26748 0.0
N131 N 0.70744 0.12055 0.2091 0.0
H132 H 0.66886 0.46141 0.49801 0.0
H133 H 0.62301 0.56417 0.59396 0.0
H134 H 0.63027 0.36788 0.59554 0.0
H135 H 0.5663 0.60146 0.53818 0.0
C136 C 0.60909 0.619 0.52909 0.0
C137 C 0.6567 0.46285 0.52605 0.0
C138 C 0.65044 0.40764 0.54483 0.0
C139 C 0.64597 0.51976 0.54358 0.0
C140 C 0.63042 0.52068 0.58008 0.0
C141 C 0.62445 0.46615 0.59887 0.0
C142 C 0.63435 0.41009 0.581 0.0
N143 N 0.65074 0.57606 0.52497 0.0
H144 H 0.14643 0.82103 0.82381 0.0
H145 H 0.22187 0.82718 0.93763 0.0
H146 H 1.08101 0.68093 0.89348 0.0
H147 H 0.28884 0.91099 0.83077 0.0
C148 C 0.27158 0.87062 0.84456 0.0
C149 C 0.14811 0.80138 0.85046 0.0
C150 C 0.10932 0.74772 0.85539 0.0
C151 C 0.18977 0.82935 0.87995 0.0
C152 C 0.19014 0.80515 0.91485 0.0
C153 C 0.15191 0.75033 0.91956 0.0
C154 C 0.11226 0.72181 0.8896 0.0
N155 N 0.23479 0.87814 0.87349 0.0
H156 H 0.15347 0.5581 0.46349 0.0
H157 H 1.09621 0.46727 0.35443 0.0
H158 H 0.18381 0.65612 0.3668 0.0
H159 H 1.03366 0.40649 0.38202 0.0
C160 C 1.05177 0.40441 0.41054 0.0
C161 C 0.14915 0.55923 0.43362 0.0
C162 C 0.17238 0.61319 0.41761 0.0
C163 C 0.11912 0.50704 0.41121 0.0
C164 C 0.11554 0.50815 0.37228 0.0
C165 C 0.13911 0.56171 0.35599 0.0
C166 C 0.16621 0.6142 0.379 0.0
N167 N 1.09396 0.45424 0.42867 0.0
H168 H 0.55909 0.02534 0.84378 0.0
H169 H 0.59668 0.92496 0.74454 0.0
H170 H 0.60166 0.12367 0.74869 0.0
H171 H 0.50694 0.86085 0.76742 0.0
C172 C 0.5358 0.85512 0.79227 0.0
C173 C 0.57095 0.02504 0.81568 0.0
C174 C 0.57949 0.0815 0.79828 0.0
C175 C 0.57676 0.96793 0.7962 0.0
C176 C 0.59212 0.9684 0.75966 0.0
C177 C 0.60077 0.02426 0.74229 0.0
C178 C 0.59467 0.08028 0.7619 0.0
N179 N 0.56699 0.91008 0.81296 0.0
H180 H 0.55624 0.63532 0.15406 0.0
H181 H 0.6382 0.58023 0.05744 0.0
H182 H 0.44874 0.57766 0.04961 0.0
H183 H 0.69764 0.53918 0.10296 0.0
C184 C 0.71406 0.5846 0.11738 0.0
C185 C 0.55264 0.61918 0.12506 0.0
C186 C 0.49393 0.6061 0.10395 0.0
C187 C 0.6064 0.6091 0.1083 0.0
C188 C 0.59907 0.58796 0.07065 0.0
C189 C 0.54316 0.57715 0.04934 0.0
C190 C 0.49166 0.58585 0.06625 0.0
N191 N 0.66743 0.62088 0.12746 0.0
C192 C 0.34656 0.66838 0.12528 0.0
C193 C 0.30474 0.61317 0.12445 0.0
H194 H 0.43744 0.71043 0.12074 0.0
C195 C 0.32912 0.55661 0.12147 0.0
H196 H 0.33108 0.71333 0.1274 0.0
C197 C 0.39083 0.55516 0.11818 0.0
C198 C 0.4325 0.61005 0.1182 0.0
H199 H 0.29999 0.51265 0.12058 0.0
H200 H 0.4057 0.51018 0.11397 0.0
C201 C 0.4086 0.66684 0.12203 0.0
C202 C 0.96444 0.25057 0.42815 0.0
C203 C 0.97835 0.24764 0.46644 0.0
H204 H 0.97668 0.30273 0.38086 0.0
C205 C 1.01789 0.29661 0.48644 0.0
H206 H 0.93342 0.21416 0.41204 0.0
C207 C 1.04279 0.34747 0.46848 0.0
C208 C 1.02806 0.35047 0.43026 0.0
H209 H 1.02964 0.2955 0.51595 0.0
H210 H 1.07292 0.3846 0.48458 0.0
C211 C 0.98887 0.30147 0.41033 0.0
C212 C 0.59081 0.71187 0.8331 0.0
C213 C 0.55001 0.66307 0.8136 0.0
H214 H 0.61837 0.8113 0.84236 0.0
C215 C 0.50412 0.67908 0.78879 0.0
H216 H 0.62665 0.70146 0.85251 0.0
C217 C 0.49958 0.74136 0.78304 0.0
C218 C 0.54041 0.79007 0.80203 0.0
H219 H 0.47197 0.64334 0.77307 0.0
H220 H 0.46412 0.75142 0.76318 0.0
C221 C 0.5859 0.77484 0.82748 0.0
C222 C 0.88352 0.6624 0.14122 0.0
C223 C 0.91477 0.61463 0.12741 0.0
H224 H 0.79782 0.69295 0.14951 0.0
C225 C 0.87823 0.5594 0.11192 0.0
H226 H 0.90871 0.70599 0.15351 0.0
C227 C 0.81523 0.55197 0.10989 0.0
C228 C 0.78334 0.59904 0.12305 0.0
H229 H 0.89839 0.52068 0.10101 0.0
H230 H 0.79096 0.50804 0.09737 0.0
C231 C 0.81919 0.6549 0.13899 0.0
C232 C 0.29637 0.71532 0.47871 0.0
C233 C 0.28596 0.77515 0.46938 0.0
H234 H 0.26749 0.61665 0.47006 0.0
C235 C 0.23299 0.78111 0.44741 0.0
H236 H 0.33629 0.70929 0.49609 0.0
C237 C 0.19355 0.7283 0.43295 0.0
C238 C 0.20611 0.66837 0.44013 0.0
H239 H 0.22364 0.8263 0.43949 0.0
H240 H 0.15469 0.73412 0.41448 0.0
C241 C 0.25667 0.66236 0.46427 0.0
C242 C 0.61824 0.25167 0.83064 0.0
C243 C 0.5619 0.27203 0.82762 0.0
H244 H 0.66763 0.17484 0.82478 0.0
C245 C 0.51084 0.2265 0.82134 0.0
H246 H 0.65868 0.28496 0.83574 0.0
C247 C 0.51627 0.16284 0.8155 0.0
C248 C 0.57278 0.14337 0.81622 0.0
H249 H 0.46674 0.24023 0.81883 0.0
H250 H 0.47641 0.12937 0.8079 0.0
C251 C 0.62355 0.18833 0.82487 0.0
C252 C 0.68561 0.78371 0.51535 0.0
C253 C 0.63831 0.81873 0.519 0.0
H254 H 0.71421 0.6928 0.51539 0.0
C255 C 0.58226 0.78649 0.5244 0.0
H256 H 0.72937 0.80675 0.5111 0.0
C257 C 0.57381 0.72202 0.52675 0.0
C258 C 0.62082 0.68703 0.52371 0.0
H259 H 0.54443 0.81105 0.52722 0.0
H260 H 0.53004 0.69943 0.53144 0.0
C261 C 0.67695 0.71839 0.51768 0.0
C262 C 1.00403 0.62203 0.80214 0.0
C263 C 0.95064 0.64603 0.80676 0.0
H264 H 1.09912 0.63773 0.81393 0.0
C265 C 0.95294 0.71044 0.81539 0.0
H266 H 1.00348 0.57286 0.79455 0.0
C267 C 1.00778 0.74777 0.8255 0.0
C268 C 1.06044 0.72087 0.82721 0.0
H269 H 0.9127 0.73051 0.81904 0.0
H270 H 1.00833 0.79527 0.83684 0.0
C271 C 1.05877 0.65919 0.81273 0.0
C272 C 0.43168 0.94062 0.17158 0.0
C273 C 0.38306 0.95744 0.18903 0.0
H274 H 0.52666 0.9548 0.17043 0.0
C275 C 0.39303 1.00732 0.21649 0.0
H276 H 0.42513 0.90277 0.15001 0.0
C277 C 0.4509 0.03685 0.22808 0.0
C278 C 0.49978 0.01762 0.21211 0.0
H279 H 0.35656 0.02113 0.23054 0.0
H280 H 0.45784 0.07282 0.25078 0.0
C281 C 0.48958 0.97074 0.1829 0.0
C282 C 0.61197 0.24302 0.50096 0.0
C283 C 0.66042 0.21524 0.51611 0.0
H284 H 0.5717 0.32682 0.49734 0.0
C285 C 0.70987 0.25438 0.53528 0.0
H286 H 0.5732 0.21464 0.48589 0.0
C287 C 0.70902 0.31868 0.54145 0.0
C288 C 0.65917 0.34566 0.52819 0.0
H289 H 0.74817 0.23503 0.5472 0.0
H290 H 0.74584 0.34681 0.55862 0.0
C291 C 0.61133 0.30749 0.50703 0.0
C292 C 0.30206 0.70455 0.84761 0.0
C293 C 0.29541 0.68384 0.80985 0.0
H294 H 0.30204 0.78051 0.88797 0.0
C295 C 0.28503 0.72667 0.78331 0.0
H296 H 0.31222 0.67352 0.86875 0.0
C297 C 0.27964 0.78843 0.79449 0.0
C298 C 0.28418 0.80793 0.83226 0.0
H299 H 0.28012 0.71219 0.75399 0.0
H300 H 0.26997 0.82029 0.77373 0.0
C301 C 0.29675 0.76594 0.85865 0.0
C302 C 0.84483 0.21955 0.14864 0.0
C303 C 0.88523 0.26907 0.16744 0.0
H304 H 0.77162 0.14727 0.15241 0.0
C305 C 0.88349 0.28191 0.20564 0.0
H306 H 0.84504 0.20868 0.11919 0.0
C307 C 0.84196 0.24685 0.22453 0.0
C308 C 0.80079 0.19832 0.20574 0.0
H309 H 0.91457 0.31906 0.22106 0.0
H310 H 0.84175 0.25814 0.25396 0.0
C311 C 0.80268 0.18465 0.1676 0.0
C312 C 0.12522 0.7347 0.01919 0.0
C313 C 0.12443 0.67023 0.02215 0.0
H314 H 0.1363 0.81074 0.98462 0.0
C315 C 0.13832 0.63326 -0.00795 0.0
H316 H 0.11565 0.76476 0.0421 0.0
C317 C 0.15006 0.65989 0.95905 0.0
C318 C 0.14924 0.72407 0.95592 0.0
H319 H 0.13866 0.58367 -0.00633 0.0
H320 H 0.15855 0.63018 0.93565 0.0
C321 C 0.13793 0.76139 0.98651 0.0
C322 C 0.68752 0.06975 0.38829 0.0
C323 C 0.6555 0.01792 0.40217 0.0
H324 H 0.7042 0.12008 0.34087 0.0
C325 C 0.61963 0.97289 0.37727 0.0
H326 H 0.71546 0.10537 0.40687 0.0
C327 C 0.61429 0.98053 0.33933 0.0
C328 C 0.64363 0.03412 0.32548 0.0
H329 H 0.59509 0.93204 0.38712 0.0
H330 H 0.58623 0.9448 0.32092 0.0
C331 C 0.68133 0.07801 0.35038 0.0
C332 C 0.55514 0.42126 0.68573 0.0
C333 C 0.58663 0.46661 0.7124 0.0
H334 H 0.54223 0.3858 0.6287 0.0
C335 C 0.62893 0.51305 0.70115 0.0
H336 H 0.52217 0.38503 0.6935 0.0
C337 C 0.64012 0.51368 0.66417 0.0
C338 C 0.60961 0.46763 0.63763 0.0
H339 H 0.65383 0.54891 0.72097 0.0
H340 H 0.67379 0.54931 0.6565 0.0
C341 C 0.56674 0.4216 0.6487 0.0
C342 C 0.59505 0.06098 0.6419 0.0
C343 C 0.63805 0.02723 0.62856 0.0
H344 H 0.54917 0.08562 0.68787 0.0
C345 C 0.66914 0.99224 0.65299 0.0
H346 H 0.57005 0.08824 0.62386 0.0
C347 C 0.65696 0.99072 0.68996 0.0
C348 C 0.61386 0.02457 0.70314 0.0
H349 H 0.70231 0.96546 0.64349 0.0
H350 H 0.68159 0.9636 0.7083 0.0
C351 C 0.58317 0.05969 0.67869 0.0
C352 C 0.49045 0.49218 0.95395 0.0
C353 C 0.53835 0.51215 0.93414 0.0
H354 H 0.45515 0.49504 0.00638 0.0
C355 C 0.58556 0.5558 0.95137 0.0
H356 H 0.45348 0.45858 0.94098 0.0
C357 C 0.5856 0.57862 -0.01194 0.0
C358 C 0.53943 0.55659 0.009 0.0
H359 H 0.62239 0.57277 0.93627 0.0
H360 H 0.62228 0.61345 -2e-05 0.0
C361 C 0.49133 0.51356 -0.00873 0.0
C362 C 1.08054 0.54447 0.25369 0.0
C363 C 0.12729 0.57953 0.23839 0.0
H364 H 1.04694 0.5123 0.30308 0.0
C365 C 0.17932 0.60434 0.26138 0.0
H366 H 1.03991 0.52472 0.2365 0.0
C367 C 0.18397 0.59599 0.29914 0.0
C368 C 0.13612 0.56385 0.31505 0.0
H369 H 0.21651 0.63059 0.25021 0.0
H370 H 0.22497 0.61559 0.31597 0.0
C371 C 1.08473 0.53706 0.29176 0.0
loop_
_geom_bond_atom_site_label_1
_geom_bond_atom_site_label_2
_geom_bond_distance
_geom_bond_site_symmetry_2
_ccdc_geom_bond_type
Dy0 O3 2.307 1_455 S
Dy0 O5 2.395 . S
Dy0 O6 2.379 . S
Dy0 O8 2.339 . S
Dy0 O10 2.298 . S
Dy0 O14 2.275 . S
Dy0 C22 2.738 . S
Dy1 O4 2.298 . S
Dy1 O7 2.275 1_655 S
Dy1 O9 2.307 1_655 S
Dy1 O11 2.395 . S
Dy1 O12 2.379 . S
Dy1 O15 2.339 . S
Dy1 C31 2.738 . S
C2 O14 1.254 . S
C2 O15 1.257 1_455 S
O3 Dy0 2.307 1_655 S
O3 C13 1.266 . S
O4 Dy1 2.298 . S
O4 C13 1.236 . S
O5 Dy0 2.395 . S
O5 C22 1.255 . S
O6 Dy0 2.379 . S
O6 C22 1.249 . S
O7 Dy1 2.275 1_455 S
O7 C23 1.254 . S
O8 Dy0 2.339 . S
O8 C23 1.257 . S
O9 Dy1 2.307 1_455 S
O9 C24 1.266 . S
O10 Dy0 2.298 . S
O10 C24 1.236 . S
O11 Dy1 2.395 . S
O11 C31 1.255 . S
O12 Dy1 2.379 . S
O12 C31 1.249 . S
C13 O3 1.266 . S
C13 O4 1.236 . S
O14 Dy0 2.275 . S
O14 C2 1.254 . S
O15 Dy1 2.339 . S
O15 C2 1.257 1_655 S
C16 C19 1.344 . S
C16 C20 1.328 . S
C16 C22 1.516 . S
C17 C18 1.304 . S
C17 C21 1.323 . S
C18 C17 1.304 . S
C18 C19 1.371 . S
C18 H32 0.930 . S
C19 C16 1.344 . S
C19 C18 1.371 . S
C19 H33 0.931 . S
C20 C16 1.328 . S
C20 C21 1.433 . S
C20 H34 0.931 . S
C21 C17 1.323 . S
C21 C20 1.433 . S
C21 H35 0.933 . S
C22 Dy0 2.738 . S
C22 O5 1.255 . S
C22 O6 1.249 . S
C22 C16 1.516 . S
C23 O7 1.254 . S
C23 O8 1.257 . S
C24 O9 1.266 . S
C24 O10 1.236 . S
C25 C28 1.344 . S
C25 C29 1.328 . S
C25 C31 1.516 . S
C26 C27 1.304 . S
C26 C30 1.323 . S
C27 C26 1.304 . S
C27 C28 1.371 . S
C27 H36 0.930 . S
C28 C25 1.344 . S
C28 C27 1.371 . S
C28 H37 0.931 . S
C29 C25 1.328 . S
C29 C30 1.433 . S
C29 H38 0.931 . S
C30 C26 1.323 . S
C30 C29 1.433 . S
C30 H39 0.933 . S
C31 Dy1 2.738 . S
C31 O11 1.255 . S
C31 O12 1.249 . S
C31 C25 1.516 . S
H32 C18 0.930 . S
H33 C19 0.931 . S
H34 C20 0.931 . S
H35 C21 0.933 . S
H36 C27 0.930 . S
H37 C28 0.931 . S
H38 C29 0.931 . S
H39 C30 0.933 . S
Dy40 O43 2.307 . S
Dy40 O45 2.395 1_545 S
Dy40 O46 2.379 1_545 S
Dy40 O48 2.339 . S
Dy40 O50 2.298 1_545 S
Dy40 O54 2.275 . S
Dy40 C62 2.738 1_545 S
Dy41 O44 2.298 . S
Dy41 O47 2.275 . S
Dy41 O49 2.307 1_545 S
Dy41 O51 2.395 . S
Dy41 O52 2.379 . S
Dy41 O55 2.339 . S
Dy41 C71 2.738 . S
C42 O54 1.254 . S
C42 O55 1.257 . S
O43 Dy40 2.307 . S
O43 C53 1.266 . S
O44 Dy41 2.298 . S
O44 C53 1.236 . S
O45 Dy40 2.395 1_565 S
O45 C62 1.255 . S
O46 Dy40 2.379 1_565 S
O46 C62 1.249 . S
O47 Dy41 2.275 . S
O47 C63 1.254 . S
O48 Dy40 2.339 . S
O48 C63 1.257 . S
O49 Dy41 2.307 1_565 S
O49 C64 1.266 . S
O50 Dy40 2.298 1_565 S
O50 C64 1.236 . S
O51 Dy41 2.395 . S
O51 C71 1.255 . S
O52 Dy41 2.379 . S
O52 C71 1.249 . S
C53 O43 1.266 . S
C53 O44 1.236 . S
O54 Dy40 2.275 . S
O54 C42 1.254 . S
O55 Dy41 2.339 . S
O55 C42 1.257 . S
C56 C59 1.344 . S
C56 C60 1.328 . S
C56 C62 1.516 . S
C57 C58 1.304 . S
C57 C61 1.323 . S
C58 C57 1.304 . S
C58 C59 1.371 . S
C58 H72 0.930 . S
C59 C56 1.344 . S
C59 C58 1.371 . S
C59 H73 0.931 . S
C60 C56 1.328 . S
C60 C61 1.433 . S
C60 H74 0.931 . S
C61 C57 1.323 . S
C61 C60 1.433 . S
C61 H75 0.933 . S
C62 Dy40 2.738 1_565 S
C62 O45 1.255 . S
C62 O46 1.249 . S
C62 C56 1.516 . S
C63 O47 1.254 . S
C63 O48 1.257 . S
C64 O49 1.266 . S
C64 O50 1.236 . S
C65 C68 1.344 . S
C65 C69 1.328 . S
C65 C71 1.516 . S
C66 C67 1.304 . S
C66 C70 1.323 . S
C67 C66 1.304 . S
C67 C68 1.371 . S
C67 H76 0.930 . S
C68 C65 1.344 . S
C68 C67 1.371 . S
C68 H77 0.931 . S
C69 C65 1.328 . S
C69 C70 1.433 . S
C69 H78 0.931 . S
C70 C66 1.323 . S
C70 C69 1.433 . S
C70 H79 0.933 . S
C71 Dy41 2.738 . S
C71 O51 1.255 . S
C71 O52 1.249 . S
C71 C65 1.516 . S
H72 C58 0.930 . S
H73 C59 0.931 . S
H74 C60 0.931 . S
H75 C61 0.933 . S
H76 C67 0.930 . S
H77 C68 0.931 . S
H78 C69 0.931 . S
H79 C70 0.933 . S
Dy80 O83 2.307 . S
Dy80 O85 2.395 . S
Dy80 O86 2.379 . S
Dy80 O88 2.339 . S
Dy80 O90 2.298 . S
Dy80 O94 2.275 . S
Dy80 C102 2.738 . S
Dy81 O84 2.298 . S
Dy81 O87 2.275 . S
Dy81 O89 2.307 . S
Dy81 O91 2.395 . S
Dy81 O92 2.379 . S
Dy81 O95 2.339 . S
Dy81 C111 2.738 . S
C82 O94 1.254 . S
C82 O95 1.257 . S
O83 Dy80 2.307 . S
O83 C93 1.266 . S
O84 Dy81 2.298 . S
O84 C93 1.236 . S
O85 Dy80 2.395 . S
O85 C102 1.255 . S
O86 Dy80 2.379 . S
O86 C102 1.249 . S
O87 Dy81 2.275 . S
O87 C103 1.254 . S
O88 Dy80 2.339 . S
O88 C103 1.257 . S
O89 Dy81 2.307 . S
O89 C104 1.266 . S
O90 Dy80 2.298 . S
O90 C104 1.236 . S
O91 Dy81 2.395 . S
O91 C111 1.255 . S
O92 Dy81 2.379 . S
O92 C111 1.249 . S
C93 O83 1.266 . S
C93 O84 1.236 . S
O94 Dy80 2.275 . S
O94 C82 1.254 . S
O95 Dy81 2.339 . S
O95 C82 1.257 . S
C96 C99 1.344 . S
C96 C100 1.328 . S
C96 C102 1.516 . S
C97 C98 1.304 . S
C97 C101 1.323 . S
C98 C97 1.304 . S
C98 C99 1.371 . S
C98 H112 0.930 . S
C99 C96 1.344 . S
C99 C98 1.371 . S
C99 H113 0.931 . S
C100 C96 1.328 . S
C100 C101 1.433 . S
C100 H114 0.931 . S
C101 C97 1.323 . S
C101 C100 1.433 . S
C101 H115 0.933 . S
C102 Dy80 2.738 . S
C102 O85 1.255 . S
C102 O86 1.249 . S
C102 C96 1.516 . S
C103 O87 1.254 . S
C103 O88 1.257 . S
C104 O89 1.266 . S
C104 O90 1.236 . S
C105 C108 1.344 . S
C105 C109 1.328 . S
C105 C111 1.516 . S
C106 C107 1.304 . S
C106 C110 1.323 . S
C107 C106 1.304 . S
C107 C108 1.371 . S
C107 H116 0.930 . S
C108 C105 1.344 . S
C108 C107 1.371 . S
C108 H117 0.931 . S
C109 C105 1.328 . S
C109 C110 1.433 . S
C109 H118 0.931 . S
C110 C106 1.323 . S
C110 C109 1.433 . S
C110 H119 0.933 . S
C111 Dy81 2.738 . S
C111 O91 1.255 . S
C111 O92 1.249 . S
C111 C105 1.516 . S
H112 C98 0.930 . S
H113 C99 0.931 . S
H114 C100 0.931 . S
H115 C101 0.933 . S
H116 C107 0.930 . S
H117 C108 0.931 . S
H118 C109 0.931 . S
H119 C110 0.933 . S
H120 C125 0.930 . S
H121 C128 0.930 . S
H122 C130 0.930 . S
H123 C124 1.016 . S
C124 H123 1.016 . S
C124 N131 1.286 . S
C125 H120 0.930 . S
C125 C126 1.397 . S
C125 C127 1.361 . S
C126 C125 1.397 . S
C126 C130 1.390 . S
C127 C125 1.361 . S
C127 C128 1.393 . S
C127 N131 1.413 . S
C128 H121 0.930 . S
C128 C127 1.393 . S
C128 C129 1.399 . S
C129 C128 1.399 . S
C129 C130 1.381 . S
C130 H122 0.930 . S
C130 C126 1.390 . S
C130 C129 1.381 . S
N131 C124 1.286 . S
N131 C127 1.413 . S
H132 C137 0.930 . S
H133 C140 0.930 . S
H134 C142 0.930 . S
H135 C136 1.016 . S
C136 H135 1.016 . S
C136 N143 1.286 . S
C137 H132 0.930 . S
C137 C138 1.397 . S
C137 C139 1.361 . S
C138 C137 1.397 . S
C138 C142 1.390 . S
C139 C137 1.361 . S
C139 C140 1.393 . S
C139 N143 1.413 . S
C140 H133 0.930 . S
C140 C139 1.393 . S
C140 C141 1.399 . S
C141 C140 1.399 . S
C141 C142 1.381 . S
C142 H134 0.930 . S
C142 C138 1.390 . S
C142 C141 1.381 . S
N143 C136 1.286 . S
N143 C139 1.413 . S
H144 C149 0.930 . S
H145 C152 0.930 . S
H146 C154 0.930 . S
H147 C148 1.016 . S
C148 H147 1.016 . S
C148 N155 1.286 . S
C149 H144 0.930 . S
C149 C150 1.397 . S
C149 C151 1.361 1_655 S
C150 C149 1.397 . S
C150 C154 1.390 . S
C151 C149 1.361 1_455 S
C151 C152 1.393 . S
C151 N155 1.413 . S
C152 H145 0.930 . S
C152 C151 1.393 . S
C152 C153 1.399 . S
C153 C152 1.399 . S
C153 C154 1.381 1_455 S
C154 H146 0.930 . S
C154 C150 1.390 . S
C154 C153 1.381 1_655 S
N155 C148 1.286 . S
N155 C151 1.413 . S
H156 C161 0.930 . S
H157 C164 0.930 . S
H158 C166 0.930 . S
H159 C160 1.016 . S
C160 H159 1.016 . S
C160 N167 1.286 . S
C161 H156 0.930 . S
C161 C162 1.397 . S
C161 C163 1.361 . S
C162 C161 1.397 . S
C162 C166 1.390 . S
C163 C161 1.361 . S
C163 C164 1.393 1_455 S
C163 N167 1.413 1_455 S
C164 H157 0.930 . S
C164 C163 1.393 1_655 S
C164 C165 1.399 1_655 S
C165 C164 1.399 1_455 S
C165 C166 1.381 . S
C166 H158 0.930 . S
C166 C162 1.390 . S
C166 C165 1.381 . S
N167 C160 1.286 . S
N167 C163 1.413 1_655 S
H168 C173 0.930 . S
H169 C176 0.930 . S
H170 C178 0.930 . S
H171 C172 1.016 . S
C172 H171 1.016 . S
C172 N179 1.286 . S
C173 H168 0.930 . S
C173 C174 1.397 . S
C173 C175 1.361 1_545 S
C174 C173 1.397 . S
C174 C178 1.390 . S
C175 C173 1.361 1_565 S
C175 C176 1.393 . S
C175 N179 1.413 . S
C176 H169 0.930 . S
C176 C175 1.393 . S
C176 C177 1.399 1_565 S
C177 C176 1.399 1_545 S
C177 C178 1.381 . S
C178 H170 0.930 . S
C178 C174 1.390 . S
C178 C177 1.381 . S
N179 C172 1.286 . S
N179 C175 1.413 . S
H180 C185 0.930 . S
H181 C188 0.930 . S
H182 C190 0.930 . S
H183 C184 1.016 . S
C184 H183 1.016 . S
C184 N191 1.286 . S
C185 H180 0.930 . S
C185 C186 1.397 . S
C185 C187 1.361 . S
C186 C185 1.397 . S
C186 C190 1.390 . S
C187 C185 1.361 . S
C187 C188 1.393 . S
C187 N191 1.413 . S
C188 H181 0.930 . S
C188 C187 1.393 . S
C188 C189 1.399 . S
C189 C188 1.399 . S
C189 C190 1.381 . S
C190 H182 0.930 . S
C190 C186 1.390 . S
C190 C189 1.381 . S
N191 C184 1.286 . S
N191 C187 1.413 . S
C192 C193 1.387 . S
C192 H196 0.950 . S
C192 C201 1.390 . S
C193 C192 1.387 . S
C193 C195 1.387 . S
H194 C201 0.950 . S
C195 C193 1.387 . S
C195 C197 1.390 . S
C195 H199 0.950 . S
H196 C192 0.950 . S
C197 C195 1.390 . S
C197 C198 1.387 . S
C197 H200 0.950 . S
C198 C197 1.387 . S
C198 C201 1.387 . S
H199 C195 0.950 . S
H200 C197 0.950 . S
C201 C192 1.390 . S
C201 H194 0.950 . S
C201 C198 1.387 . S
C202 C203 1.387 . S
C202 H206 0.950 . S
C202 C211 1.390 . S
C203 C202 1.387 . S
C203 C205 1.387 . S
H204 C211 0.950 . S
C205 C203 1.387 . S
C205 C207 1.390 . S
C205 H209 0.950 . S
H206 C202 0.950 . S
C207 C205 1.390 . S
C207 C208 1.387 . S
C207 H210 0.950 . S
C208 C207 1.387 . S
C208 C211 1.387 . S
H209 C205 0.950 . S
H210 C207 0.950 . S
C211 C202 1.390 . S
C211 H204 0.950 . S
C211 C208 1.387 . S
C212 C213 1.387 . S
C212 H216 0.950 . S
C212 C221 1.390 . S
C213 C212 1.387 . S
C213 C215 1.387 . S
H214 C221 0.950 . S
C215 C213 1.387 . S
C215 C217 1.390 . S
C215 H219 0.950 . S
H216 C212 0.950 . S
C217 C215 1.390 . S
C217 C218 1.387 . S
C217 H220 0.950 . S
C218 C217 1.387 . S
C218 C221 1.387 . S
H219 C215 0.950 . S
H220 C217 0.950 . S
C221 C212 1.390 . S
C221 H214 0.950 . S
C221 C218 1.387 . S
C222 C223 1.387 . S
C222 H226 0.950 . S
C222 C231 1.390 . S
C223 C222 1.387 . S
C223 C225 1.387 . S
H224 C231 0.950 . S
C225 C223 1.387 . S
C225 C227 1.390 . S
C225 H229 0.950 . S
H226 C222 0.950 . S
C227 C225 1.390 . S
C227 C228 1.387 . S
C227 H230 0.950 . S
C228 C227 1.387 . S
C228 C231 1.387 . S
H229 C225 0.950 . S
H230 C227 0.950 . S
C231 C222 1.390 . S
C231 H224 0.950 . S
C231 C228 1.387 . S
C232 C233 1.387 . S
C232 H236 0.950 . S
C232 C241 1.390 . S
C233 C232 1.387 . S
C233 C235 1.387 . S
H234 C241 0.950 . S
C235 C233 1.387 . S
C235 C237 1.390 . S
C235 H239 0.950 . S
H236 C232 0.950 . S
C237 C235 1.390 . S
C237 C238 1.387 . S
C237 H240 0.950 . S
C238 C237 1.387 . S
C238 C241 1.387 . S
H239 C235 0.950 . S
H240 C237 0.950 . S
C241 C232 1.390 . S
C241 H234 0.950 . S
C241 C238 1.387 . S
C242 C243 1.387 . S
C242 H246 0.950 . S
C242 C251 1.390 . S
C243 C242 1.387 . S
C243 C245 1.387 . S
H244 C251 0.950 . S
C245 C243 1.387 . S
C245 C247 1.390 . S
C245 H249 0.950 . S
H246 C242 0.950 . S
C247 C245 1.390 . S
C247 C248 1.387 . S
C247 H250 0.950 . S
C248 C247 1.387 . S
C248 C251 1.387 . S
H249 C245 0.950 . S
H250 C247 0.950 . S
C251 C242 1.390 . S
C251 H244 0.950 . S
C251 C248 1.387 . S
C252 C253 1.387 . S
C252 H256 0.950 . S
C252 C261 1.390 . S
C253 C252 1.387 . S
C253 C255 1.387 . S
H254 C261 0.950 . S
C255 C253 1.387 . S
C255 C257 1.390 . S
C255 H259 0.950 . S
H256 C252 0.950 . S
C257 C255 1.390 . S
C257 C258 1.387 . S
C257 H260 0.950 . S
C258 C257 1.387 . S
C258 C261 1.387 . S
H259 C255 0.950 . S
H260 C257 0.950 . S
C261 C252 1.390 . S
C261 H254 0.950 . S
C261 C258 1.387 . S
C262 C263 1.387 . S
C262 H266 0.950 . S
C262 C271 1.390 . S
C263 C262 1.387 . S
C263 C265 1.387 . S
H264 C271 0.950 . S
C265 C263 1.387 . S
C265 C267 1.390 . S
C265 H269 0.950 . S
H266 C262 0.950 . S
C267 C265 1.390 . S
C267 C268 1.387 . S
C267 H270 0.950 . S
C268 C267 1.387 . S
C268 C271 1.387 . S
H269 C265 0.950 . S
H270 C267 0.950 . S
C271 C262 1.390 . S
C271 H264 0.950 . S
C271 C268 1.387 . S
C272 C273 1.387 . S
C272 H276 0.950 . S
C272 C281 1.390 . S
C273 C272 1.387 . S
C273 C275 1.387 . S
H274 C281 0.950 . S
C275 C273 1.387 . S
C275 C277 1.390 . S
C275 H279 0.950 . S
H276 C272 0.950 . S
C277 C275 1.390 . S
C277 C278 1.387 . S
C277 H280 0.950 1_565 S
C278 C277 1.387 . S
C278 C281 1.387 . S
H279 C275 0.950 . S
H280 C277 0.950 1_545 S
C281 C272 1.390 . S
C281 H274 0.950 . S
C281 C278 1.387 . S
C282 C283 1.387 . S
C282 H286 0.950 . S
C282 C291 1.390 . S
C283 C282 1.387 . S
C283 C285 1.387 . S
H284 C291 0.950 . S
C285 C283 1.387 . S
C285 C287 1.390 . S
C285 H289 0.950 . S
H286 C282 0.950 . S
C287 C285 1.390 . S
C287 C288 1.387 . S
C287 H290 0.950 . S
C288 C287 1.387 . S
C288 C291 1.387 . S
H289 C285 0.950 . S
H290 C287 0.950 . S
C291 C282 1.390 . S
C291 H284 0.950 . S
C291 C288 1.387 . S
C292 C293 1.387 . S
C292 H296 0.950 . S
C292 C301 1.390 . S
C293 C292 1.387 . S
C293 C295 1.387 . S
H294 C301 0.950 . S
C295 C293 1.387 . S
C295 C297 1.390 . S
C295 H299 0.950 . S
H296 C292 0.950 . S
C297 C295 1.390 . S
C297 C298 1.387 . S
C297 H300 0.950 . S
C298 C297 1.387 . S
C298 C301 1.387 . S
H299 C295 0.950 . S
H300 C297 0.950 . S
C301 C292 1.390 . S
C301 H294 0.950 . S
C301 C298 1.387 . S
C302 C303 1.387 . S
C302 H306 0.950 . S
C302 C311 1.390 . S
C303 C302 1.387 . S
C303 C305 1.387 . S
H304 C311 0.950 . S
C305 C303 1.387 . S
C305 C307 1.390 . S
C305 H309 0.950 . S
H306 C302 0.950 . S
C307 C305 1.390 . S
C307 C308 1.387 . S
C307 H310 0.950 . S
C308 C307 1.387 . S
C308 C311 1.387 . S
H309 C305 0.950 . S
H310 C307 0.950 . S
C311 C302 1.390 . S
C311 H304 0.950 . S
C311 C308 1.387 . S
C312 C313 1.387 . S
C312 H316 0.950 . S
C312 C321 1.390 . S
C313 C312 1.387 . S
C313 C315 1.387 1_455 S
H314 C321 0.950 1_556 S
C315 C313 1.387 1_655 S
C315 C317 1.390 1_554 S
C315 H319 0.950 . S
H316 C312 0.950 . S
C317 C315 1.390 1_556 S
C317 C318 1.387 1_655 S
C317 H320 0.950 . S
C318 C317 1.387 1_455 S
C318 C321 1.387 1_556 S
H319 C315 0.950 . S
H320 C317 0.950 . S
C321 C312 1.390 . S
C321 H314 0.950 1_554 S
C321 C318 1.387 1_554 S
C322 C323 1.387 . S
C322 H326 0.950 . S
C322 C331 1.390 . S
C323 C322 1.387 . S
C323 C325 1.387 . S
H324 C331 0.950 . S
C325 C323 1.387 . S
C325 C327 1.390 . S
C325 H329 0.950 1_545 S
H326 C322 0.950 . S
C327 C325 1.390 . S
C327 C328 1.387 . S
C327 H330 0.950 1_545 S
C328 C327 1.387 . S
C328 C331 1.387 . S
H329 C325 0.950 1_565 S
H330 C327 0.950 1_565 S
C331 C322 1.390 . S
C331 H324 0.950 . S
C331 C328 1.387 . S
C332 C333 1.387 . S
C332 H336 0.950 . S
C332 C341 1.390 . S
C333 C332 1.387 . S
C333 C335 1.387 . S
H334 C341 0.950 . S
C335 C333 1.387 . S
C335 C337 1.390 . S
C335 H339 0.950 . S
H336 C332 0.950 . S
C337 C335 1.390 . S
C337 C338 1.387 . S
C337 H340 0.950 . S
C338 C337 1.387 . S
C338 C341 1.387 . S
H339 C335 0.950 . S
H340 C337 0.950 . S
C341 C332 1.390 . S
C341 H334 0.950 . S
C341 C338 1.387 . S
C342 C343 1.387 . S
C342 H346 0.950 . S
C342 C351 1.390 . S
C343 C342 1.387 . S
C343 C345 1.387 1_545 S
H344 C351 0.950 . S
C345 C343 1.387 1_565 S
C345 C347 1.390 . S
C345 H349 0.950 . S
H346 C342 0.950 . S
C347 C345 1.390 . S
C347 C348 1.387 1_565 S
C347 H350 0.950 . S
C348 C347 1.387 1_545 S
C348 C351 1.387 . S
H349 C345 0.950 . S
H350 C347 0.950 . S
C351 C342 1.390 . S
C351 H344 0.950 . S
C351 C348 1.387 . S
C352 C353 1.387 . S
C352 H356 0.950 . S
C352 C361 1.372 1_556 S
C353 C352 1.387 . S
C353 C355 1.387 . S
H354 C361 0.962 . S
C355 C353 1.387 . S
C355 C357 1.390 . S
C355 H359 0.950 . S
H356 C352 0.950 . S
C357 C355 1.390 . S
C357 C358 1.387 1_556 S
C357 H360 0.950 1_556 S
C358 C357 1.387 1_554 S
C358 C361 1.394 . S
H359 C355 0.950 . S
H360 C357 0.950 1_554 S
C361 C352 1.372 1_554 S
C361 H354 0.962 . S
C361 C358 1.394 . S
C362 C363 1.387 1_655 S
C362 H366 0.950 . S
C362 C371 1.390 . S
C363 C362 1.387 1_455 S
C363 C365 1.387 . S
H364 C371 0.950 . S
C365 C363 1.387 . S
C365 C367 1.390 . S
C365 H369 0.950 . S
H366 C362 0.950 . S
C367 C365 1.390 . S
C367 C368 1.387 . S
C367 H370 0.950 . S
C368 C367 1.387 . S
C368 C371 1.387 1_455 S
H369 C365 0.950 . S
H370 C367 0.950 . S
C371 C362 1.390 . S
C371 H364 0.950 . S
C371 C368 1.387 1_655 S
C193 C24 3.259 . S
C198 C186 3.243 . S
C203 C66 1.293 . S
C208 C160 1.358 . S
C213 C93 1.919 . S
C218 C172 1.849 . S
C223 C13 2.978 . S
C228 C184 2.846 . S
C238 C162 1.223 . S
C233 C57 1.203 . S
C248 C174 1.858 . S
C243 C104 1.900 . S
C253 C64 2.001 . S
C258 C136 1.901 . S
C263 C97 1.130 . S
C268 C150 1.202 . S
C273 C17 1.364 . S
C278 C126 1.433 1_565 S
C288 C138 1.777 . S
C283 C53 1.812 . S
C298 C148 0.349 . S
C293 C106 0.614 . S
C303 C26 1.349 . S
C308 C124 1.434 . S
C318 C153 1.130 . S
C313 C2 1.111 . S
C323 C63 1.473 . S
C328 C129 1.484 . S
C333 C82 1.431 . S
C338 C141 1.454 . S
C348 C177 1.442 . S
C343 C42 1.413 . S
C358 C189 1.842 . S
C353 C103 1.819 . S
C363 C23 1.514 . S
C368 C165 1.520 . S
