# Generated by pormake.
# Topology zzz, (3,6)-cn, num edge types: 1
# Building blocks:
#     Node 0, Type 0, BuildingBlock: BETDAH_clean_linker_0, # of connection points: 3
#     Node 1, Type 0, BuildingBlock: BETDAH_clean_linker_0, # of connection points: 3
#     Node 2, Type 0, BuildingBlock: BETDAH_clean_linker_0, # of connection points: 3
#     Node 3, Type 0, BuildingBlock: BETDAH_clean_linker_0, # of connection points: 3
#     Node 4, Type 0, BuildingBlock: BETDAH_clean_linker_0, # of connection points: 3
#     Node 5, Type 0, BuildingBlock: BETDAH_clean_linker_0, # of connection points: 3
#     Node 6, Type 0, BuildingBlock: BETDAH_clean_linker_0, # of connection points: 3
#     Node 7, Type 0, BuildingBlock: BETDAH_clean_linker_0, # of connection points: 3
#     Node 8, Type 1, BuildingBlock: KUMBUR_clean_sbu_0, # of connection points: 6
#     Node 9, Type 1, BuildingBlock: KUMBUR_clean_sbu_0, # of connection points: 6
#     Node 10, Type 1, BuildingBlock: KUMBUR_clean_sbu_0, # of connection points: 6
#     Node 11, Type 1, BuildingBlock: KUMBUR_clean_sbu_0, # of connection points: 6
#     Edge 12, Type (0, 1), BuildingBlock: MIFKUJ_clean_linker_0, # of connection points: 2
#     Edge 13, Type (0, 1), BuildingBlock: MIFKUJ_clean_linker_0, # of connection points: 2
#     Edge 14, Type (0, 1), BuildingBlock: MIFKUJ_clean_linker_0, # of connection points: 2
#     Edge 15, Type (0, 1), BuildingBlock: MIFKUJ_clean_linker_0, # of connection points: 2
#     Edge 16, Type (0, 1), BuildingBlock: MIFKUJ_clean_linker_0, # of connection points: 2
#     Edge 17, Type (0, 1), BuildingBlock: MIFKUJ_clean_linker_0, # of connection points: 2
#     Edge 18, Type (0, 1), BuildingBlock: MIFKUJ_clean_linker_0, # of connection points: 2
#     Edge 19, Type (0, 1), BuildingBlock: MIFKUJ_clean_linker_0, # of connection points: 2
#     Edge 20, Type (0, 1), BuildingBlock: MIFKUJ_clean_linker_0, # of connection points: 2
#     Edge 21, Type (0, 1), BuildingBlock: MIFKUJ_clean_linker_0, # of connection points: 2
#     Edge 22, Type (0, 1), BuildingBlock: MIFKUJ_clean_linker_0, # of connection points: 2
#     Edge 23, Type (0, 1), BuildingBlock: MIFKUJ_clean_linker_0, # of connection points: 2
#     Edge 24, Type (0, 1), BuildingBlock: MIFKUJ_clean_linker_0, # of connection points: 2
#     Edge 25, Type (0, 1), BuildingBlock: MIFKUJ_clean_linker_0, # of connection points: 2
#     Edge 26, Type (0, 1), BuildingBlock: MIFKUJ_clean_linker_0, # of connection points: 2
#     Edge 27, Type (0, 1), BuildingBlock: MIFKUJ_clean_linker_0, # of connection points: 2
#     Edge 28, Type (0, 1), BuildingBlock: MIFKUJ_clean_linker_0, # of connection points: 2
#     Edge 29, Type (0, 1), BuildingBlock: MIFKUJ_clean_linker_0, # of connection points: 2
#     Edge 30, Type (0, 1), BuildingBlock: MIFKUJ_clean_linker_0, # of connection points: 2
#     Edge 31, Type (0, 1), BuildingBlock: MIFKUJ_clean_linker_0, # of connection points: 2
#     Edge 32, Type (0, 1), BuildingBlock: MIFKUJ_clean_linker_0, # of connection points: 2
#     Edge 33, Type (0, 1), BuildingBlock: MIFKUJ_clean_linker_0, # of connection points: 2
#     Edge 34, Type (0, 1), BuildingBlock: MIFKUJ_clean_linker_0, # of connection points: 2
#     Edge 35, Type (0, 1), BuildingBlock: MIFKUJ_clean_linker_0, # of connection points: 2
# Relax obj value: 0.147
# Max RMSD: 0.152
# Mean RMSD: 0.113
data_MOF--net-zzz--node1-KUMBUR_clean_sbu_0--node2-BETDAH_clean_linker_0--edge1-MIFKUJ_clean_linker_0
_symmetry_space_group_name_H-M    P1
_symmetry_Int_Tables_number       1
_symmetry_cell_setting            triclinic
loop_
_symmetry_equiv_pos_as_xyz
'x, y, z'
_cell_length_a     65.964289
_cell_length_b     65.903799
_cell_length_c     19.2718
_cell_angle_alpha  90.497987
_cell_angle_beta   90.11548
_cell_angle_gamma 90.050352
loop_
_atom_site_label
_atom_site_type_symbol
_atom_site_fract_x
_atom_site_fract_y
_atom_site_fract_z
_atom_type_partial_charge
H0 H 0.80366 0.53147 0.14323 0.0
H1 H 0.74111 0.52999 0.08085 0.0
H2 H 0.75687 0.53051 0.29821 0.0
C3 C 0.78771 0.53153 0.15676 0.0
C4 C 0.78221 0.5314 0.22709 0.0
C5 C 0.77301 0.53078 0.10383 0.0
C6 C 0.7524 0.53031 0.12168 0.0
C7 C 0.74638 0.53033 0.19163 0.0
C8 C 0.7614 0.53062 0.24421 0.0
N9 N 0.72543 0.53008 0.21029 0.0
C10 C 0.70928 0.52952 0.16289 0.0
H11 H 0.0296 0.80903 0.15517 0.0
H12 H 0.02192 0.74847 0.07732 0.0
H13 H 0.99736 0.76517 0.27774 0.0
C14 C 0.02385 0.79378 0.16287 0.0
C15 C 0.0135 0.78912 0.22429 0.0
C16 C 0.02681 0.77922 0.1105 0.0
C17 C 0.01946 0.75949 0.11846 0.0
C18 C 0.00863 0.75418 0.17835 0.0
C19 C 1.00557 0.76916 0.2312 0.0
N20 N 1.00074 0.73406 0.18629 0.0
C21 C 1.00284 0.71808 0.13774 0.0
H22 H 0.71539 1.00043 0.16888 0.0
H23 H 0.77786 0.99555 0.10988 0.0
H24 H 0.762 1.00726 0.32363 0.0
C25 C 0.73129 1.00019 0.18321 0.0
C26 C 0.73667 1.00375 0.25268 0.0
C27 C 0.74604 0.99717 0.13168 0.0
C28 C 0.76659 0.99779 0.14987 0.0
C29 C 0.77263 1.00157 0.21869 0.0
C30 C 0.75752 1.0042 0.27046 0.0
N31 N 0.79367 1.00333 0.23624 0.0
C32 C 0.80963 1.00314 0.18792 0.0
H33 H 0.55464 0.72574 0.16112 0.0
H34 H 0.55092 0.78806 0.10166 0.0
H35 H 0.53296 0.77018 0.30773 0.0
C36 C 0.55149 0.7414 0.17492 0.0
C37 C 0.54345 0.74596 0.24038 0.0
C38 C 0.5542 0.75649 0.12516 0.0
C39 C 0.54932 0.77665 0.14128 0.0
C40 C 0.54204 0.78186 0.20776 0.0
C41 C 0.53922 0.76639 0.25734 0.0
N42 N 0.53673 0.80225 0.2252 0.0
C43 C 0.5369 0.81845 0.17871 0.0
H44 H 0.22102 0.51884 0.09449 0.0
H45 H 0.28103 0.5114 0.17738 0.0
H46 H 0.26878 0.49738 0.96181 0.0
C47 C 0.23674 0.51445 0.08729 0.0
C48 C 0.24313 0.508 0.02162 0.0
C49 C 0.25021 0.51544 0.14364 0.0
C50 C 0.27067 0.51042 0.13382 0.0
C51 C 0.27756 0.50381 0.06827 0.0
C52 C 0.26361 0.50243 0.01239 0.0
N53 N 0.29829 0.49851 0.05698 0.0
C54 C 0.31371 0.49957 0.10701 0.0
H55 H 0.0402 0.22205 0.08214 0.0
H56 H 0.0343 0.28392 0.14971 0.0
H57 H 0.02674 0.26839 0.93292 0.0
C58 C 0.03812 0.23793 0.06945 0.0
C59 C 0.03394 0.24324 1.00065 0.0
C60 C 0.03797 0.25252 0.12292 0.0
C61 C 0.03452 0.27292 0.10762 0.0
C62 C 0.03076 0.27902 0.03924 0.0
C63 C 0.03016 0.26398 0.98565 0.0
N64 N 0.02704 0.29996 0.02404 0.0
C65 C 0.02693 0.31583 0.07357 0.0
H66 H 0.30599 0.02896 0.06509 0.0
H67 H 0.24448 0.03446 0.13598 0.0
H68 H 0.25746 0.03206 0.91659 0.0
C69 C 0.28996 0.03064 0.05388 0.0
C70 C 0.28362 0.03074 0.98454 0.0
C71 C 0.27598 0.03206 0.10866 0.0
C72 C 0.25521 0.03338 0.09367 0.0
C73 C 0.24827 0.03333 0.02466 0.0
C74 C 0.26263 0.03218 0.96997 0.0
N75 N 0.22705 0.03416 0.00927 0.0
C76 C 0.21151 0.03413 0.05906 0.0
H77 H 0.49723 0.30519 0.04878 0.0
H78 H 0.49734 0.24356 0.11781 0.0
H79 H 0.49893 0.25655 0.89846 0.0
C80 C 0.49751 0.2891 0.03642 0.0
C81 C 0.49788 0.28276 0.96682 0.0
C82 C 0.49746 0.27504 0.09058 0.0
C83 C 0.49754 0.25424 0.07546 0.0
C84 C 0.49824 0.24739 0.00606 0.0
C85 C 0.49856 0.26176 0.95193 0.0
N86 N 0.49856 0.22627 0.98926 0.0
C87 C 0.49831 0.21072 0.0382 0.0
Tb88 Tb 0.02905 1.00812 0.68311 0.0
C89 C 0.95021 1.00297 0.52296 0.0
C90 C 0.95616 0.97737 0.4343 0.0
C91 C 0.92198 0.98329 0.47647 0.0
C92 C 0.96361 0.99207 0.48148 0.0
C93 C 0.9292 0.99898 0.51951 0.0
C94 C 0.9354 0.97264 0.43352 0.0
C95 C 0.92355 0.02843 0.59212 0.0
N96 N 0.95757 0.01865 0.56188 0.0
C97 C 0.94442 0.03204 0.59312 0.0
C98 C 0.91592 0.01162 0.55628 0.0
Tb99 Tb 0.99217 0.02254 0.55887 0.0
N100 N 0.98353 0.99752 0.48144 0.0
C101 C 0.99619 0.99034 0.43071 0.0
C102 C 0.96953 0.96884 0.38609 0.0
C103 C 0.98954 0.97555 0.38359 0.0
H104 H 0.9498 0.0454 0.61999 0.0
H105 H 0.99979 0.96949 0.34486 0.0
H106 H 0.92938 0.96149 0.39753 0.0
H107 H 0.91333 0.03874 0.61856 0.0
H108 H 0.01161 0.99551 0.42682 0.0
H109 H 0.01916 0.06071 0.8981 0.0
H110 H 0.96434 0.95788 0.34822 0.0
H111 H 0.07138 0.98885 0.61515 0.0
H112 H 0.00845 0.03465 0.81405 0.0
H113 H 0.10789 0.99629 0.6174 0.0
H114 H 0.90591 0.97996 0.47341 0.0
H115 H 0.05447 0.07332 0.89798 0.0
H116 H 0.08977 0.07067 0.85011 0.0
H117 H 0.8997 0.00903 0.55487 0.0
H118 H 0.11399 0.05312 0.77342 0.0
N119 N 0.03721 0.0327 0.76385 0.0
C120 C 0.02392 0.03987 0.81282 0.0
C121 C 0.04985 0.06184 0.86058 0.0
C122 C 0.06372 0.05356 0.81346 0.0
C123 C 0.02993 0.05472 0.86094 0.0
C124 C 0.05689 0.03871 0.76567 0.0
H125 H 0.12095 0.02511 0.68737 0.0
N126 N 0.06339 0.0138 0.68096 0.0
C127 C 0.09751 1.00569 0.64689 0.0
C128 C 0.07047 0.02889 0.72274 0.0
C129 C 0.07672 1.00154 0.64574 0.0
C130 C 0.10482 0.022 0.68629 0.0
C131 C 0.09132 0.03359 0.72601 0.0
O132 O 0.03716 0.97797 0.70387 0.0
O133 O 1.00737 0.99691 0.60543 0.0
O134 O 0.97465 0.00887 0.64292 0.0
O135 O 0.99855 0.00882 0.73229 0.0
O136 O 0.03539 0.98395 0.60735 0.0
O137 O 0.02858 0.99817 0.78685 0.0
O138 O 0.99825 0.05245 0.52619 0.0
O139 O 0.01294 0.03336 0.63827 0.0
O140 O 0.04519 0.02469 0.60165 0.0
O141 O 0.02259 0.01914 0.51062 0.0
O142 O 0.98485 0.04629 0.63492 0.0
O143 O 0.98192 0.03185 0.46056 0.0
C144 C 0.01806 0.98307 0.57705 0.0
C145 C 0.05386 0.97333 0.80924 0.0
C146 C 0.07484 0.9445 0.84215 0.0
C147 C 0.05793 0.95253 0.80763 0.0
C148 C 0.08814 0.95781 0.87702 0.0
C149 C 0.06713 0.98647 0.84473 0.0
C150 C 0.08426 0.9787 0.87811 0.0
C151 C 0.9796 1.00702 0.70919 0.0
C152 C 0.03611 0.98055 0.77049 0.0
C153 C 0.09807 0.04914 0.77069 0.0
C154 C 0.08428 0.05912 0.81435 0.0
C155 C 1.00198 0.04694 0.66697 0.0
C156 C 0.97097 0.06604 0.46326 0.0
C157 C 0.97613 0.08657 0.47025 0.0
C158 C 0.96131 0.10173 0.46405 0.0
C159 C 0.94111 0.09618 0.45096 0.0
C160 C 0.95067 0.06069 0.44991 0.0
C161 C 0.93584 0.07571 0.4443 0.0
C162 C 0.04097 0.02391 0.53433 0.0
C163 C 0.98696 0.05061 0.47145 0.0
H164 H 0.04784 0.94255 0.77875 0.0
H165 H 0.10121 0.95207 0.90467 0.0
H166 H 0.06435 1.00264 0.84653 0.0
H167 H 0.09448 0.98886 0.90542 0.0
H168 H 0.99185 0.09077 0.4788 0.0
H169 H 0.92948 0.10765 0.44536 0.0
H170 H 0.9462 0.04496 0.44395 0.0
H171 H 0.92024 0.07149 0.43416 0.0
Tb172 Tb 0.51314 0.0364 0.68494 0.0
C173 C 0.53604 0.95956 0.53973 0.0
C174 C 0.56289 0.96882 0.46039 0.0
C175 C 0.56287 0.93545 0.51288 0.0
C176 C 0.54524 0.97393 0.49802 0.0
C177 C 0.54437 0.93993 0.54544 0.0
C178 C 0.57213 0.94988 0.47043 0.0
C179 C 0.51415 0.92973 0.60657 0.0
N180 N 0.51798 0.96429 0.56971 0.0
C181 C 0.50646 0.94937 0.59948 0.0
C182 C 0.53338 0.92511 0.58083 0.0
Tb183 Tb 0.5078 0.99736 0.5572 0.0
N184 N 0.53573 0.99203 0.4886 0.0
C185 C 0.54161 1.00432 0.43539 0.0
C186 C 0.57007 0.98238 0.41078 0.0
C187 C 0.55904 0.99991 0.39686 0.0
H188 H 0.49158 0.95262 0.61968 0.0
H189 H 0.56398 0.01011 0.35654 0.0
H190 H 0.58591 0.94588 0.44301 0.0
H191 H 0.50525 0.91818 0.63203 0.0
H192 H 0.5334 0.01783 0.42281 0.0
H193 H 0.4562 0.02157 0.88222 0.0
H194 H 0.58355 0.97902 0.38076 0.0
H195 H 0.52987 0.08129 0.62664 0.0
H196 H 0.48585 0.01364 0.81248 0.0
H197 H 0.51728 0.11623 0.62151 0.0
H198 H 0.56967 0.92057 0.51767 0.0
H199 H 0.4387 0.0544 0.86917 0.0
H200 H 0.43776 0.08883 0.81577 0.0
H201 H 0.53925 0.90985 0.58622 0.0
H202 H 0.45425 0.1146 0.74381 0.0
N203 N 0.48535 0.04134 0.75516 0.0
C204 C 0.47871 0.02804 0.80452 0.0
C205 C 0.45184 0.05101 0.83749 0.0
C206 C 0.45952 0.06524 0.79107 0.0
C207 C 0.46171 0.03249 0.84509 0.0
C208 C 0.47666 0.06004 0.75078 0.0
H209 H 0.48413 0.12509 0.67253 0.0
N210 N 0.50354 0.06974 0.67744 0.0
C211 C 0.50822 0.10464 0.64582 0.0
C212 C 0.48597 0.07464 0.7103 0.0
C213 C 0.51528 0.08468 0.64886 0.0
C214 C 0.48947 0.10956 0.67459 0.0
C215 C 0.47834 0.09465 0.70898 0.0
O216 O 0.54026 0.02942 0.73756 0.0
O217 O 0.52874 0.01732 0.61027 0.0
O218 O 0.52155 0.98411 0.65016 0.0
O219 O 0.5116 1.00669 0.73691 0.0
O220 O 0.53879 0.0465 0.62058 0.0
O221 O 0.52125 0.05371 0.77293 0.0
O222 O 0.5006 0.97951 0.46946 0.0
O223 O 0.49197 0.01685 0.63045 0.0
O224 O 0.50037 0.05035 0.59111 0.0
O225 O 0.50929 0.027 0.5046 0.0
O226 O 0.48216 0.98756 0.62192 0.0
O227 O 0.48052 1.00307 0.50347 0.0
C228 C 0.54203 0.02961 0.58853 0.0
C229 C 0.55672 0.05881 0.78117 0.0
C230 C 0.5936 0.06298 0.78147 0.0
C231 C 0.57626 0.05065 0.77423 0.0
C232 C 0.59097 0.08393 0.79322 0.0
C233 C 0.5545 0.07977 0.79286 0.0
C234 C 0.57155 0.09222 0.79818 0.0
C235 C 0.51876 0.98883 0.71632 0.0
C236 C 0.53891 0.04521 0.778 0.0
C237 C 0.46047 0.09939 0.74499 0.0
C238 C 0.45109 0.08472 0.78602 0.0
C239 C 0.47855 1.00468 0.65213 0.0
C240 C 0.4654 0.97253 0.4652 0.0
C241 C 0.44549 0.97991 0.46287 0.0
C242 C 0.42889 0.96662 0.46725 0.0
C243 C 0.43236 0.94574 0.47468 0.0
C244 C 0.4686 0.9515 0.47105 0.0
C245 C 0.45215 0.93825 0.47622 0.0
C246 C 0.50289 0.04524 0.52489 0.0
C247 C 0.48249 0.98703 0.4645 0.0
H248 H 0.57789 0.03457 0.76362 0.0
H249 H 0.60385 0.09391 0.80053 0.0
H250 H 0.53963 0.08655 0.79833 0.0
H251 H 0.56972 0.10834 0.80758 0.0
H252 H 0.44291 0.9961 0.45843 0.0
H253 H 0.4198 0.93518 0.47756 0.0
H254 H 0.48377 0.94525 0.47221 0.0
H255 H 0.45475 0.92211 0.48113 0.0
Tb256 Tb 0.5362 0.50955 0.55572 0.0
C257 C 0.4534 0.50015 0.69304 0.0
C258 C 0.42994 0.51387 0.60872 0.0
C259 C 0.41877 0.48749 0.68709 0.0
C260 C 0.44958 0.51304 0.63804 0.0
C261 C 0.4378 0.48781 0.71971 0.0
C262 C 0.41484 0.5005 0.63169 0.0
C263 C 0.45992 0.4793 0.81501 0.0
N264 N 0.47187 0.50106 0.72428 0.0
C265 C 0.47492 0.49174 0.78678 0.0
C266 C 0.44146 0.47693 0.78045 0.0
Tb267 Tb 0.49543 0.52118 0.67123 0.0
N268 N 0.46454 0.52586 0.61715 0.0
C269 C 0.45987 0.5414 0.57286 0.0
C270 C 0.42577 0.52865 0.55919 0.0
C271 C 0.44067 0.54273 0.5424 0.0
H272 H 0.48901 0.49343 0.81461 0.0
H273 H 0.43739 0.55467 0.50582 0.0
H274 H 0.39982 0.50069 0.6088 0.0
H275 H 0.46264 0.47151 0.86337 0.0
H276 H 0.47066 0.55286 0.55885 0.0
H277 H 0.58894 0.46306 0.70065 0.0
H278 H 0.41091 0.52974 0.53539 0.0
H279 H 0.54449 0.54801 0.44899 0.0
H280 H 0.55592 0.47239 0.65477 0.0
H281 H 0.57279 0.5708 0.41849 0.0
H282 H 0.40671 0.47787 0.70618 0.0
H283 H 0.61888 0.48467 0.67852 0.0
H284 H 0.63345 0.516 0.62586 0.0
H285 H 0.42985 0.46733 0.80261 0.0
H286 H 0.62896 0.54566 0.55071 0.0
N287 N 0.56614 0.4998 0.60708 0.0
C288 C 0.56846 0.48231 0.64424 0.0
C289 C 0.60417 0.48912 0.65899 0.0
C290 C 0.60194 0.50674 0.62001 0.0
C291 C 0.58736 0.47684 0.67105 0.0
C292 C 0.58258 0.51155 0.59356 0.0
H293 H 0.60644 0.56617 0.47301 0.0
N294 N 0.56157 0.53145 0.5235 0.0
C295 C 0.57506 0.55894 0.45621 0.0
C296 C 0.58014 0.5281 0.55108 0.0
C297 C 0.55908 0.54603 0.4737 0.0
C298 C 0.594 0.5563 0.48718 0.0
C299 C 0.59686 0.54047 0.5341 0.0
O300 O 0.54297 0.50682 0.45005 0.0
O301 O 0.50353 0.51042 0.5685 0.0
O302 O 0.4953 0.48789 0.66355 0.0
O303 O 0.52559 0.48117 0.60434 0.0
O304 O 0.5148 0.52085 0.47723 0.0
O305 O 0.54071 0.48024 0.51396 0.0
O306 O 0.47679 0.53676 0.74231 0.0
O307 O 0.5279 0.51805 0.6599 0.0
O308 O 0.53626 0.54199 0.58425 0.0
O309 O 0.50195 0.54651 0.60131 0.0
O310 O 0.5156 0.50841 0.75073 0.0
O311 O 0.50741 0.54626 0.72677 0.0
C312 C 0.49832 0.51664 0.50931 0.0
C313 C 0.52632 0.47854 0.40094 0.0
C314 C 0.50472 0.45057 0.36222 0.0
C315 C 0.51936 0.4585 0.40808 0.0
C316 C 0.49687 0.46301 0.30964 0.0
C317 C 0.51842 0.49057 0.34721 0.0
C318 C 0.50365 0.48288 0.30248 0.0
C319 C 0.50919 0.47519 0.6387 0.0
C320 C 0.54115 0.48717 0.4507 0.0
C321 C 0.61597 0.53626 0.56271 0.0
C322 C 0.61852 0.51937 0.6054 0.0
C323 C 0.53245 0.51029 0.71776 0.0
C324 C 0.48301 0.57207 0.73771 0.0
C325 C 0.49638 0.58845 0.7478 0.0
C326 C 0.49074 0.60831 0.72912 0.0
C327 C 0.47136 0.61142 0.70049 0.0
C328 C 0.46362 0.57573 0.7101 0.0
C329 C 0.45792 0.59527 0.6915 0.0
C330 C 0.51995 0.55361 0.58406 0.0
C331 C 0.48989 0.55119 0.75208 0.0
H332 H 0.52562 0.44897 0.44838 0.0
H333 H 0.48562 0.45734 0.27348 0.0
H334 H 0.52345 0.50606 0.34001 0.0
H335 H 0.49753 0.49231 0.2618 0.0
H336 H 0.5111 0.58562 0.77076 0.0
H337 H 0.46652 0.62636 0.68474 0.0
H338 H 0.45289 0.56349 0.70205 0.0
H339 H 0.44303 0.59791 0.66964 0.0
Tb340 Tb 0.01984 0.53473 0.56144 0.0
C341 C 0.02916 0.45389 0.70612 0.0
C342 C 0.01508 0.42834 0.62879 0.0
C343 C 0.04227 0.41939 0.70794 0.0
C344 C 0.01599 0.44863 0.65271 0.0
C345 C 0.04204 0.43917 0.73552 0.0
C346 C 0.02876 0.41396 0.65485 0.0
C347 C 0.05147 0.46375 0.82348 0.0
N348 N 0.02813 0.47299 0.73302 0.0
C349 C 0.0383 0.47775 0.79325 0.0
C350 C 0.05362 0.44449 0.7938 0.0
Tb351 Tb 1.0065 0.4946 0.67656 0.0
N352 N 1.00285 0.46288 0.62866 0.0
C353 C 0.987 0.45709 0.58704 0.0
C354 C 0.9998 0.42283 0.58204 0.0
C355 C 0.98547 0.4372 0.5623 0.0
H356 H 0.03692 0.49256 0.81695 0.0
H357 H 0.97308 0.43306 0.52838 0.0
H358 H 0.02847 0.39841 0.63616 0.0
H359 H 0.05995 0.46783 0.86967 0.0
H360 H 0.97538 0.46751 0.57166 0.0
H361 H 0.05062 0.59724 0.71196 0.0
H362 H 0.99847 0.40736 0.56325 0.0
H363 H 0.98881 0.53518 0.4254 0.0
H364 H 0.04889 0.56226 0.66839 0.0
H365 H 0.96582 0.55928 0.36828 0.0
H366 H 0.05223 0.40796 0.7293 0.0
H367 H 0.02538 0.62253 0.67379 0.0
H368 H 0.99599 0.63105 0.59605 0.0
H369 H 0.06371 0.43362 0.81773 0.0
H370 H 0.97285 0.6207 0.50176 0.0
N371 N 0.02227 0.56693 0.60752 0.0
C372 C 0.03766 0.57289 0.6509 0.0
C373 C 0.02447 0.60707 0.65443 0.0
C374 C 0.00967 0.60132 0.6061 0.0
C375 C 0.03877 0.59286 0.67591 0.0
C376 C 0.00916 0.58097 0.58274 0.0
H377 H 0.96184 0.59406 0.41521 0.0
N378 N 0.99767 0.55595 0.50543 0.0
C379 C 0.97422 0.56394 0.4139 0.0
C380 C 0.99634 0.57525 0.52977 0.0
C381 C 0.98736 0.55034 0.44643 0.0
C382 C 0.97197 0.58354 0.44071 0.0
C383 C 0.98337 0.58955 0.49862 0.0
O384 O 0.03093 0.53948 0.46049 0.0
O385 O 0.01812 0.50197 0.57522 0.0
O386 O 0.03975 0.49483 0.66818 0.0
O387 O 0.04549 0.52781 0.63146 0.0
O388 O 0.01371 0.51235 0.4779 0.0
O389 O 0.05069 0.54162 0.5496 0.0
O390 O 0.99323 0.477 0.75489 0.0
O391 O 0.00903 0.52706 0.66379 0.0
O392 O 0.98672 0.53471 0.57646 0.0
O393 O 0.98216 0.50055 0.60013 0.0
O394 O 0.01533 0.5161 0.75981 0.0
O395 O 0.9781 0.50336 0.71678 0.0
C396 C 0.01455 0.49608 0.51362 0.0
C397 C 0.05718 0.56422 0.45943 0.0
C398 C 0.08693 0.58537 0.44103 0.0
C399 C 0.07816 0.56721 0.46365 0.0
C400 C 0.07448 0.60078 0.41489 0.0
C401 C 0.04481 0.57983 0.43388 0.0
C402 C 0.05347 0.59806 0.41209 0.0
C403 C 0.05188 0.51057 0.65894 0.0
C404 C 0.04876 0.54485 0.48349 0.0
C405 C 0.98285 0.60953 0.52448 0.0
C406 C 0.99601 0.61542 0.57818 0.0
C407 C 0.01413 0.53252 0.72457 0.0
C408 C 0.95776 0.47463 0.73817 0.0
C409 C 0.93918 0.48448 0.72728 0.0
C410 C 0.92131 0.47333 0.7147 0.0
C411 C 0.92252 0.452 0.7111 0.0
C412 C 0.95854 0.45333 0.73443 0.0
C413 C 0.94103 0.44216 0.72032 0.0
C414 C 0.975 0.51834 0.57932 0.0
C415 C 0.9762 0.48677 0.75192 0.0
H416 H 0.08778 0.5551 0.48267 0.0
H417 H 0.08103 0.61479 0.39625 0.0
H418 H 0.02855 0.57795 0.43032 0.0
H419 H 0.04389 0.61001 0.39212 0.0
H420 H 0.93874 0.50091 0.72867 0.0
H421 H 0.90911 0.44278 0.70343 0.0
H422 H 0.97265 0.44525 0.74207 0.0
H423 H 0.94175 0.42576 0.71772 0.0
H424 H 0.20336 1.00615 0.15791 0.0
H425 H 0.17414 1.00536 0.23687 0.0
H426 H 0.15185 0.06092 0.14797 0.0
H427 H 0.18122 0.06176 0.06974 0.0
H428 H 0.14632 0.06283 0.28201 0.0
H429 H 0.13035 0.01386 0.10748 0.0
H430 H 0.13501 0.98395 0.0314 0.0
H431 H 0.13936 0.94561 0.2098 0.0
H432 H 0.13493 0.97534 0.28702 0.0
H433 H 0.04107 0.01605 0.39361 0.0
H434 H 0.06926 0.01901 0.31217 0.0
H435 H 0.10791 0.04047 0.47798 0.0
H436 H 0.07957 0.03832 0.55896 0.0
H437 H 0.10382 1.00098 0.29953 0.0
H438 H 0.14471 0.07135 0.41771 0.0
H439 H 0.13595 0.10274 0.48159 0.0
H440 H 0.076 0.10125 0.39439 0.0
H441 H 0.08449 0.07003 0.3293 0.0
C442 C 0.19222 0.0182 0.15553 0.0
C443 C 0.19452 0.034 0.10773 0.0
C444 C 0.17543 0.01771 0.20045 0.0
C445 C 0.16045 0.03295 0.19834 0.0
C446 C 0.16305 0.04894 0.1511 0.0
C447 C 0.17983 0.04941 0.1062 0.0
C448 C 0.14212 0.03219 0.24487 0.0
C449 C 0.13712 0.04925 0.28587 0.0
C450 C 0.12954 0.01475 0.24918 0.0
C451 C 0.13254 0.99687 0.20304 0.0
C452 C 0.1325 0.99908 0.13051 0.0
C453 C 0.13505 0.98215 0.08717 0.0
C454 C 0.13754 0.9629 0.11575 0.0
C455 C 0.13746 0.96054 0.18774 0.0
C456 C 0.13491 0.97742 0.23132 0.0
C457 C 0.0555 0.02156 0.41289 0.0
C458 C 0.05795 0.02671 0.48354 0.0
C459 C 0.07173 0.02313 0.36605 0.0
C460 C 0.09091 0.03003 0.38821 0.0
C461 C 0.09333 0.03534 0.4587 0.0
C462 C 0.07707 0.03388 0.50544 0.0
C463 C 0.10832 0.03144 0.33792 0.0
C464 C 0.11312 0.01452 0.29607 0.0
C465 C 0.12031 0.04922 0.3313 0.0
C466 C 0.1152 0.06823 0.36916 0.0
C467 C 0.1297 0.07778 0.41191 0.0
C468 C 0.12477 0.09553 0.44839 0.0
C469 C 0.10542 0.10395 0.44224 0.0
C470 C 0.09097 0.09468 0.39933 0.0
C471 C 0.09583 0.07695 0.36268 0.0
H472 H 0.10165 0.11768 0.47059 0.0
H473 H 0.13948 0.94981 0.08212 0.0
H474 H 0.513 0.17301 0.01601 0.0
H475 H 0.51275 0.14444 0.09698 0.0
H476 H 0.48283 0.18199 0.24999 0.0
H477 H 0.48329 0.21062 0.16901 0.0
H478 H 0.513 0.16056 0.30818 0.0
H479 H 0.45709 0.14504 0.15478 0.0
H480 H 0.44069 0.1388 0.04146 0.0
H481 H 0.48092 0.08882 1.0026 0.0
H482 H 0.49775 0.09492 0.11535 0.0
H483 H 0.48487 0.08256 0.5405 0.0
H484 H 0.48369 0.1103 0.45739 0.0
H485 H 0.51279 0.07229 0.30415 0.0
H486 H 0.51421 0.04459 0.38717 0.0
H487 H 0.48315 0.09375 0.24543 0.0
H488 H 0.53952 0.10837 0.39175 0.0
H489 H 0.55842 0.11436 0.5005 0.0
H490 H 0.52021 0.16528 0.54832 0.0
H491 H 0.50084 0.15939 0.4403 0.0
C492 C 0.50637 0.17509 0.06698 0.0
C493 C 0.49816 0.19392 0.08651 0.0
C494 C 0.50613 0.15875 0.11311 0.0
C495 C 0.49754 0.1609 0.17957 0.0
C496 C 0.48951 0.17988 0.19913 0.0
C497 C 0.48974 0.19622 0.1529 0.0
C498 C 0.49723 0.14351 0.22902 0.0
C499 C 0.50615 0.14607 0.29481 0.0
C500 C 0.48897 0.12429 0.21098 0.0
C501 C 0.47881 0.12057 0.14326 0.0
C502 C 0.46254 0.13281 0.12185 0.0
C503 C 0.45315 0.12928 0.05776 0.0
C504 C 0.45979 0.11346 0.01477 0.0
C505 C 0.47581 0.10109 0.0359 0.0
C506 C 0.48527 0.10457 0.09993 0.0
C507 C 0.49128 0.08013 0.4895 0.0
C508 C 0.50029 0.06142 0.47176 0.0
C509 C 0.49049 0.09603 0.44174 0.0
C510 C 0.49854 0.09362 0.37468 0.0
C511 C 0.50663 0.07466 0.35565 0.0
C512 C 0.5075 0.05878 0.40354 0.0
C513 C 0.49874 0.1109 0.32482 0.0
C514 C 0.48988 0.10829 0.25895 0.0
C515 C 0.50731 0.13 0.34236 0.0
C516 C 0.51861 0.13333 0.40818 0.0
C517 C 0.53501 0.12072 0.42577 0.0
C518 C 0.54586 0.12414 0.48717 0.0
C519 C 0.54057 0.14024 0.53112 0.0
C520 C 0.52433 0.15286 0.51406 0.0
C521 C 0.5134 0.14948 0.45278 0.0
H522 H 0.549 0.14288 0.5786 0.0
H523 H 0.4525 0.11075 0.96517 0.0
H524 H 0.31707 0.51859 0.23266 0.0
H525 H 0.34712 0.51968 0.30851 0.0
H526 H 0.37987 0.48279 0.16055 0.0
H527 H 0.34976 0.48146 0.08574 0.0
H528 H 0.38849 0.47036 0.28677 0.0
H529 H 0.3861 0.53562 0.17502 0.0
H530 H 0.37082 0.56838 0.14294 0.0
H531 H 0.3656 0.58479 0.35829 0.0
H532 H 0.38062 0.55199 0.39166 0.0
H533 H 0.48467 0.53531 0.39407 0.0
H534 H 0.45318 0.52948 0.33038 0.0
H535 H 0.43674 0.48278 0.47575 0.0
H536 H 0.46921 0.48751 0.53558 0.0
H537 H 0.41773 0.53639 0.36063 0.0
H538 H 0.40307 0.45783 0.43945 0.0
H539 H 0.41815 0.42395 0.45737 0.0
H540 H 0.45837 0.43355 0.2861 0.0
H541 H 0.44442 0.46797 0.27005 0.0
C542 C 0.33069 0.51066 0.21674 0.0
C543 C 0.33117 0.49996 0.15345 0.0
C544 C 0.34791 0.51135 0.25992 0.0
C545 C 0.366 0.50148 0.24029 0.0
C546 C 0.36622 0.49051 0.1773 0.0
C547 C 0.34902 0.4898 0.13436 0.0
C548 C 0.38484 0.50281 0.28406 0.0
C549 C 0.39485 0.48484 0.30284 0.0
C550 C 0.39332 0.52159 0.30578 0.0
C551 C 0.38424 0.54126 0.28582 0.0
C552 C 0.38153 0.54615 0.21553 0.0
C553 C 0.37295 0.56473 0.19712 0.0
C554 C 0.36718 0.57863 0.24855 0.0
C555 C 0.37003 0.57399 0.31851 0.0
C556 C 0.37858 0.55541 0.3372 0.0
C557 C 0.47441 0.52363 0.41189 0.0
C558 C 0.47907 0.5124 0.47137 0.0
C559 C 0.45628 0.52031 0.37553 0.0
C560 C 0.44217 0.50566 0.39753 0.0
C561 C 0.44727 0.49383 0.4557 0.0
C562 C 0.4657 0.49688 0.49127 0.0
C563 C 0.42194 0.50392 0.36138 0.0
C564 C 0.41145 0.52187 0.34466 0.0
C565 C 0.41315 0.48515 0.34078 0.0
C566 C 0.42298 0.46548 0.3544 0.0
C567 C 0.41543 0.45281 0.40661 0.0
C568 C 0.42388 0.43361 0.41674 0.0
C569 C 0.43949 0.42674 0.37362 0.0
C570 C 0.44674 0.43913 0.3207 0.0
C571 C 0.43873 0.45856 0.31153 0.0
H572 H 0.44578 0.41174 0.38067 0.0
H573 H 0.36054 0.59301 0.23419 0.0
H574 H 0.04208 0.35375 0.05494 0.0
H575 H 0.04038 0.38285 0.13531 0.0
H576 H 0.00904 0.34578 0.28414 0.0
H577 H 0.01054 0.31678 0.20308 0.0
H578 H 0.99116 0.38081 0.28011 0.0
H579 H 0.0604 0.36097 0.30368 0.0
H580 H 0.09493 0.3524 0.26446 0.0
H581 H 0.10167 0.41199 0.17911 0.0
H582 H 0.06706 0.42083 0.21704 0.0
H583 H 0.04016 0.46329 0.53669 0.0
H584 H 0.04154 0.43113 0.47051 0.0
H585 H 0.9928 0.45199 0.34021 0.0
H586 H 0.99055 0.48312 0.40876 0.0
H587 H 0.05075 0.42304 0.34322 0.0
H588 H 0.97021 0.42776 0.28137 0.0
H589 H 0.93553 0.43104 0.32829 0.0
H590 H 0.95204 0.39414 0.50207 0.0
H591 H 0.98693 0.39115 0.45667 0.0
C592 C 0.03494 0.35181 0.10503 0.0
C593 C 0.0265 0.33297 0.12277 0.0
C594 C 0.03405 0.36847 0.1513 0.0
C595 C 0.02477 0.36671 0.21686 0.0
C596 C 0.01631 0.34775 0.23431 0.0
C597 C 0.01722 0.3311 0.18799 0.0
C598 C 0.02329 0.38467 0.26613 0.0
C599 C 1.00428 0.38998 0.29363 0.0
C600 C 0.04026 0.39676 0.28552 0.0
C601 C 0.06107 0.39149 0.26262 0.0
C602 C 0.06919 0.3722 0.27607 0.0
C603 C 0.08878 0.36729 0.25416 0.0
C604 C 0.10047 0.38162 0.21916 0.0
C605 C 0.09259 0.4009 0.20614 0.0
C606 C 0.073 0.40587 0.22789 0.0
C607 C 0.02921 0.46057 0.49573 0.0
C608 C 0.01458 0.47542 0.48034 0.0
C609 C 0.03013 0.44223 0.45707 0.0
C610 C 0.01668 0.43836 0.40121 0.0
C611 C 1.00253 0.45359 0.38504 0.0
C612 C 1.00146 0.4717 0.42395 0.0
C613 C 0.01853 0.41942 0.35632 0.0
C614 C 0.03765 0.41389 0.32955 0.0
C615 C 1.00171 0.40693 0.33805 0.0
C616 C 0.98132 0.41007 0.36757 0.0
C617 C 0.96652 0.42079 0.33045 0.0
C618 C 0.94683 0.42252 0.35656 0.0
C619 C 0.94164 0.41303 0.41863 0.0
C620 C 0.95612 0.4017 0.45445 0.0
C621 C 0.97591 0.40021 0.42905 0.0
H622 H 0.92637 0.41428 0.4386 0.0
H623 H 0.11564 0.3778 0.20225 0.0
H624 H 0.80917 0.99682 0.04793 0.0
H625 H 0.83819 0.99696 0.96857 0.0
H626 H 0.87827 0.00976 0.1406 0.0
H627 H 0.8491 0.00987 0.21989 0.0
H628 H 0.88898 0.03226 0.0321 0.0
H629 H 0.87471 0.96156 0.0649 0.0
H630 H 0.85347 0.93076 0.06628 0.0
H631 H 0.84118 0.93736 0.84876 0.0
H632 H 0.86215 0.96837 0.84628 0.0
H633 H 0.98094 0.01141 0.85172 0.0
H634 H 0.95275 0.00991 0.93386 0.0
H635 H 0.91166 0.99575 0.76602 0.0
H636 H 0.93987 0.99646 0.68421 0.0
H637 H 0.9018 0.97391 0.87399 0.0
H638 H 0.91601 0.04446 0.84032 0.0
H639 H 0.9378 0.07487 0.83754 0.0
H640 H 0.95016 0.06876 0.0552 0.0
H641 H 0.92873 0.03807 0.05902 0.0
C642 C 0.82416 0.99964 0.06883 0.0
C643 C 0.82688 1.00323 0.14021 0.0
C644 C 0.84082 0.99964 0.02337 0.0
C645 C 0.86066 1.00312 0.04822 0.0
C646 C 0.86325 1.00701 0.11968 0.0
C647 C 0.84657 1.007 0.16511 0.0
C648 C 0.87861 1.00264 0.99997 0.0
C649 C 0.8919 0.01936 0.99828 0.0
C650 C 0.8824 0.98606 0.95429 0.0
C651 C 0.86984 0.96739 0.95557 0.0
C652 C 0.86736 0.95653 0.01748 0.0
C653 C 0.85539 0.93902 0.01844 0.0
C654 C 0.84593 0.93214 0.95769 0.0
C655 C 0.84848 0.94272 0.8958 0.0
C656 C 0.86043 0.96025 0.89457 0.0
C657 C 0.96595 1.00784 0.83214 0.0
C658 C 0.96275 1.0045 0.76062 0.0
C659 C 0.94973 1.00713 0.87935 0.0
C660 C 0.9298 1.00317 0.85645 0.0
C661 C 0.92673 0.99904 0.78546 0.0
C662 C 0.94295 0.99966 0.73836 0.0
C663 C 0.91215 1.00354 0.90596 0.0
C664 C 0.89891 0.98681 0.90785 0.0
C665 C 0.90838 0.02014 0.95161 0.0
C666 C 0.92091 0.03885 0.94981 0.0
C667 C 0.92346 0.04953 0.88753 0.0
C668 C 0.93575 0.06682 0.88575 0.0
C669 C 0.94539 0.07371 0.94612 0.0
C670 C 0.9427 0.06338 0.00845 0.0
C671 C 0.93048 0.04604 0.01046 0.0
H672 H 0.95492 0.08709 0.94463 0.0
H673 H 0.83667 0.91858 0.95854 0.0
H674 H 0.52064 0.85496 0.20895 0.0
H675 H 0.51888 0.88476 0.13371 0.0
H676 H 0.54963 0.85137 0.9717 0.0
H677 H 0.55166 0.82166 0.04763 0.0
H678 H 0.56427 0.88941 0.98079 0.0
H679 H 0.49788 0.85946 0.96705 0.0
H680 H 0.4658 0.84592 0.01322 0.0
H681 H 0.45276 0.90362 0.10813 0.0
H682 H 0.4849 0.91744 0.06326 0.0
H683 H 0.54085 0.95403 0.69949 0.0
H684 H 0.54453 0.92591 0.77964 0.0
H685 H 0.51075 0.95927 0.93434 0.0
H686 H 0.50608 0.98708 0.85259 0.0
H687 H 0.49797 0.92172 0.93134 0.0
H688 H 0.56382 0.95219 0.94262 0.0
H689 H 0.59559 0.96601 0.89502 0.0
H690 H 0.60973 0.9079 0.80508 0.0
H691 H 0.57789 0.89379 0.85134 0.0
C692 C 0.52703 0.85405 0.15726 0.0
C693 C 0.53619 0.83605 0.13382 0.0
C694 C 0.52596 0.87105 0.11415 0.0
C695 C 0.53389 0.87034 0.04641 0.0
C696 C 0.54337 0.85236 0.02354 0.0
C697 C 0.54446 0.83535 0.0668 0.0
C698 C 0.53212 0.88823 0.9994 0.0
C699 C 0.54974 0.89632 0.96937 0.0
C700 C 0.51325 0.89767 0.98554 0.0
C701 C 0.49389 0.88942 0.01238 0.0
C702 C 0.48824 0.86922 0.99821 0.0
C703 C 0.47004 0.8615 0.02406 0.0
C704 C 0.45728 0.87389 0.06374 0.0
C705 C 0.46267 0.89404 0.07748 0.0
C706 C 0.48087 0.90182 0.0518 0.0
C707 C 0.53396 0.95534 0.7502 0.0
C708 C 0.5227 0.97271 0.76858 0.0
C709 C 0.53637 0.9393 0.79664 0.0
C710 C 0.52807 0.94038 0.86368 0.0
C711 C 0.51727 0.95795 0.88295 0.0
C712 C 0.51468 0.97394 0.8361 0.0
C713 C 0.53012 0.92297 0.91269 0.0
C714 C 0.51254 0.91492 0.94301 0.0
C715 C 0.54904 0.91362 0.92691 0.0
C716 C 0.56838 0.92197 0.90002 0.0
C717 C 0.57365 0.94238 0.91238 0.0
C718 C 0.59168 0.95026 0.88566 0.0
C719 C 0.60465 0.93785 0.84693 0.0
C720 C 0.59966 0.9175 0.83505 0.0
C721 C 0.58163 0.90955 0.86159 0.0
H722 H 0.61859 0.94399 0.82623 0.0
H723 H 0.44319 0.86789 0.08371 0.0
H724 H 0.70458 0.54731 0.03699 0.0
H725 H 0.67484 0.54507 0.95988 0.0
H726 H 0.64453 0.50739 0.10955 0.0
H727 H 0.67431 0.50948 0.1858 0.0
H728 H 0.64047 0.49141 0.98603 0.0
H729 H 0.63088 0.55803 0.08038 0.0
H730 H 0.63991 0.5934 0.10965 0.0
H731 H 0.6476 0.60656 0.89347 0.0
H732 H 0.63888 0.57117 0.86293 0.0
H733 H 0.54349 0.48793 0.82824 0.0
H734 H 0.57313 0.49165 0.90234 0.0
H735 H 0.59611 0.5385 0.76836 0.0
H736 H 0.56495 0.53633 0.69892 0.0
H737 H 0.60471 0.55016 0.88403 0.0
H738 H 0.62398 0.48154 0.79694 0.0
H739 H 0.61953 0.44504 0.7706 0.0
H740 H 0.59557 0.43569 0.97497 0.0
H741 H 0.60012 0.47212 1.00206 0.0
C742 C 0.69149 0.53863 0.05326 0.0
C743 C 0.69168 0.52853 0.11713 0.0
C744 C 0.67443 0.53746 0.00944 0.0
C745 C 0.65719 0.52622 0.02884 0.0
C746 C 0.65752 0.51618 0.09306 0.0
C747 C 0.67454 0.51737 0.13672 0.0
C748 C 0.63924 0.52394 0.98122 0.0
C749 C 0.63252 0.50432 0.96442 0.0
C750 C 0.62904 0.54065 0.95117 0.0
C751 C 0.63444 0.56188 0.96943 0.0
C752 C 0.63469 0.56841 0.03911 0.0
C753 C 0.63971 0.58847 0.05593 0.0
C754 C 0.64438 0.6022 0.00347 0.0
C755 C 0.64401 0.5959 0.93406 0.0
C756 C 0.63901 0.57584 0.91696 0.0
C757 C 0.55501 0.49886 0.81405 0.0
C758 C 0.55217 0.51129 0.75592 0.0
C759 C 0.5723 0.50077 0.8561 0.0
C760 C 0.58772 0.51481 0.84049 0.0
C761 C 0.5848 0.52733 0.78211 0.0
C762 C 0.56709 0.52587 0.74131 0.0
C763 C 0.60596 0.51745 0.88757 0.0
C764 C 0.6127 0.53719 0.90487 0.0
C765 C 0.61631 0.50085 0.91827 0.0
C766 C 0.61182 0.47951 0.90042 0.0
C767 C 0.61729 0.47171 0.83525 0.0
C768 C 0.61497 0.45104 0.82063 0.0
C769 C 0.60713 0.43806 0.87098 0.0
C770 C 0.60156 0.44576 0.93595 0.0
C771 C 0.60408 0.46639 0.951 0.0
H772 H 0.60554 0.42201 0.85999 0.0
H773 H 0.64824 0.61773 0.01659 0.0
H774 H 0.03049 0.68757 0.14132 0.0
H775 H 0.03209 0.65732 0.06621 0.0
H776 H 0.9799 0.6784 0.95268 0.0
H777 H 0.97817 0.70853 0.02882 0.0
H778 H 0.97587 0.63916 0.9733 0.0
H779 H 0.02975 0.68015 0.8858 0.0
H780 H 0.06093 0.70077 0.89144 0.0
H781 H 0.0941 0.64957 0.96806 0.0
H782 H 0.06304 0.62871 0.96382 0.0
H783 H 0.98623 0.5633 0.70445 0.0
H784 H 0.98392 0.59581 0.76785 0.0
H785 H 0.03617 0.57938 0.89001 0.0
H786 H 0.03866 0.54726 0.82579 0.0
H787 H 0.03953 0.61758 0.85805 0.0
H788 H 0.98529 0.5772 0.95177 0.0
H789 H 0.9542 0.55645 0.94556 0.0
H790 H 0.92186 0.60643 0.85655 0.0
H791 H 0.95285 0.62741 0.86144 0.0
C792 C 0.01946 0.6858 0.09997 0.0
C793 C 1.00431 0.70051 0.09064 0.0
C794 C 0.0204 0.66848 0.05669 0.0
C795 C 1.00628 0.66544 1.00248 0.0
C796 C 0.99105 0.6802 0.99361 0.0
C797 C 0.99011 0.69752 0.03699 0.0
C798 C 1.0072 0.6468 0.95613 0.0
C799 C 0.98976 0.63468 0.94738 0.0
C800 C 0.02531 0.64043 0.92263 0.0
C801 C 0.04402 0.65293 0.92513 0.0
C802 C 0.04366 0.67333 0.90436 0.0
C803 C 0.06132 0.68506 0.90723 0.0
C804 C 0.07947 0.67651 0.93027 0.0
C805 C 0.08002 0.65619 0.95032 0.0
C806 C 0.0624 0.6444 0.94765 0.0
C807 C 0.99735 0.5668 0.7442 0.0
C808 C 0.01296 0.55292 0.75881 0.0
C809 C 0.9959 0.58532 0.78122 0.0
C810 C 0.00979 0.59027 0.83467 0.0
C811 C 0.02529 0.57624 0.84913 0.0
C812 C 0.0267 0.55779 0.81237 0.0
C813 C 0.00829 0.6098 0.87612 0.0
C814 C 0.02563 0.62211 0.88385 0.0
C815 C 0.9901 0.61632 0.90872 0.0
C816 C 0.97143 0.6038 0.90633 0.0
C817 C 0.97158 0.58372 0.93048 0.0
C818 C 0.95397 0.57192 0.92724 0.0
C819 C 0.93608 0.5801 0.9005 0.0
C820 C 0.93574 0.60011 0.87715 0.0
C821 C 0.95331 0.61197 0.88019 0.0
H822 H 0.92246 0.57093 0.898 0.0
H823 H 0.09313 0.68561 0.93243 0.0
H824 H 0.00943 0.25978 0.22012 0.0
H825 H 1.00387 0.24012 0.32427 0.0
H826 H 0.06157 0.21035 0.29459 0.0
H827 H 0.06655 0.22938 0.18741 0.0
H828 H 0.03468 0.18419 0.28799 0.0
H829 H 0.04732 0.23436 0.45559 0.0
H830 H 0.0474 0.268 0.51239 0.0
H831 H 0.98262 0.26572 0.53171 0.0
H832 H 0.98206 0.23222 0.47404 0.0
H833 H 0.98523 0.1213 0.55902 0.0
H834 H 1.003 0.15371 0.54143 0.0
H835 H 0.9699 0.16231 0.35109 0.0
H836 H 0.95214 0.13023 0.36828 0.0
H837 H 0.99399 0.19728 0.50001 0.0
H838 H 1.00434 0.16045 0.23344 0.0
H839 H 1.00574 0.12618 0.18048 0.0
H840 H 0.02997 0.10238 0.37022 0.0
H841 H 0.02902 0.13666 0.42301 0.0
C842 C 0.0213 0.24965 0.23748 0.0
C843 C 0.03823 0.24574 0.19554 0.0
C844 C 0.01822 0.23851 0.29763 0.0
C845 C 0.03223 0.22358 0.31735 0.0
C846 C 0.05046 0.22166 0.28012 0.0
C847 C 0.05331 0.23246 0.21894 0.0
C848 C 0.02539 0.20694 0.36301 0.0
C849 C 0.02632 0.18718 0.33542 0.0
C850 C 0.01452 0.21052 0.42536 0.0
C851 C 0.01466 0.23071 0.46029 0.0
C852 C 0.03306 0.24107 0.47152 0.0
C853 C 0.0332 0.26013 0.50396 0.0
C854 C 0.01503 0.269 0.52564 0.0
C855 C 0.99669 0.25882 0.51499 0.0
C856 C 0.99646 0.23976 0.48257 0.0
C857 C 0.98137 0.1305 0.51466 0.0
C858 C 0.96766 0.12321 0.46431 0.0
C859 C 0.99141 0.14894 0.50497 0.0
C860 C 0.98798 0.16002 0.44452 0.0
C861 C 0.97273 0.15383 0.39804 0.0
C862 C 0.9626 0.13553 0.4079 0.0
C863 C 1.00271 0.17543 0.4222 0.0
C864 C 1.0031 0.19461 0.45407 0.0
C865 C 0.0153 0.1714 0.36466 0.0
C866 C 0.01642 0.15095 0.33226 0.0
C867 C 0.01006 0.14788 0.26341 0.0
C868 C 0.01076 0.12849 0.23348 0.0
C869 C 0.01787 0.11208 0.27204 0.0
C870 C 0.02438 0.11506 0.34045 0.0
C871 C 0.02374 0.13444 0.37039 0.0
H872 H 0.01837 0.09707 0.24887 0.0
H873 H 0.01517 0.28375 0.55072 0.0
H874 H 0.2595 0.01066 0.2162 0.0
H875 H 0.27529 1.00371 0.3283 0.0
H876 H 0.32538 0.04276 0.27474 0.0
H877 H 0.30913 0.05067 0.16533 0.0
H878 H 0.30718 0.98325 0.33566 0.0
H879 H 0.35419 0.05764 0.40171 0.0
H880 H 0.34772 0.09415 0.41734 0.0
H881 H 0.2845 0.08214 0.4501 0.0
H882 H 0.2906 0.04546 0.43628 0.0
H883 H 0.41503 0.99335 0.37233 0.0
H884 H 0.38078 1.00675 0.36035 0.0
H885 H 0.36108 0.97095 0.53393 0.0
H886 H 0.39575 0.95769 0.54744 0.0
H887 H 0.35407 0.02725 0.47061 0.0
H888 H 0.3141 0.95357 0.46336 0.0
H889 H 0.32041 0.91681 0.4495 0.0
H890 H 0.36758 0.92909 0.30234 0.0
H891 H 0.36136 0.96588 0.31497 0.0
C892 C 0.27346 0.01841 0.22965 0.0
C893 C 0.28329 0.03092 0.18138 0.0
C894 C 0.28251 0.01437 0.29372 0.0
C895 C 0.30154 0.02268 0.3104 0.0
C896 C 0.31053 0.03642 0.26429 0.0
C897 C 0.3014 0.04064 0.20083 0.0
C898 C 0.31401 0.01409 0.36721 0.0
C899 C 0.31684 0.99294 0.36728 0.0
C900 C 0.32662 0.02652 0.40943 0.0
C901 C 0.32288 0.04867 0.41791 0.0
C902 C 0.33892 0.0627 0.41295 0.0
C903 C 0.33531 0.08347 0.42134 0.0
C904 C 0.31571 0.09047 0.43464 0.0
C905 C 0.29967 0.0767 0.43965 0.0
C906 C 0.3032 0.0559 0.43147 0.0
C907 C 0.40352 0.98856 0.4087 0.0
C908 C 0.40804 0.97462 0.46112 0.0
C909 C 0.384 0.99624 0.4019 0.0
C910 C 0.36861 0.99005 0.44702 0.0
C911 C 0.37292 0.97606 0.49937 0.0
C912 C 0.39259 0.9684 0.5065 0.0
C913 C 0.34784 0.9971 0.43337 0.0
C914 C 0.34354 0.01778 0.44175 0.0
C915 C 0.33374 0.98435 0.39954 0.0
C916 C 0.33742 0.96236 0.39069 0.0
C917 C 0.32579 0.94837 0.42803 0.0
C918 C 0.32934 0.92756 0.42037 0.0
C919 C 0.34444 0.92062 0.37524 0.0
C920 C 0.35595 0.93448 0.33745 0.0
C921 C 0.35242 0.9553 0.34487 0.0
H922 H 0.34718 0.90451 0.36943 0.0
H923 H 0.31294 0.10656 0.44105 0.0
H924 H 0.46785 0.26952 0.1874 0.0
H925 H 0.4625 0.29091 0.29088 0.0
H926 H 0.52026 0.31987 0.25599 0.0
H927 H 0.52558 0.29854 0.15384 0.0
H928 H 0.51015 0.32169 0.39388 0.0
H929 H 0.47847 0.33581 0.16278 0.0
H930 H 0.45544 0.32601 0.06706 0.0
H931 H 0.40664 0.31879 0.212 0.0
H932 H 0.42949 0.32844 0.30863 0.0
H933 H 0.50121 0.42395 0.25526 0.0
H934 H 0.49177 0.38838 0.25915 0.0
H935 H 0.48539 0.39231 0.48176 0.0
H936 H 0.49468 0.42849 0.47796 0.0
H937 H 0.45785 0.36863 0.30327 0.0
H938 H 0.50068 0.34535 0.53785 0.0
H939 H 0.52757 0.35737 0.6175 0.0
H940 H 0.558 0.38625 0.44797 0.0
H941 H 0.53139 0.37416 0.36732 0.0
C942 C 0.47975 0.27982 0.20405 0.0
C943 C 0.49697 0.28273 0.16263 0.0
C944 C 0.4767 0.292 0.26304 0.0
C945 C 0.49083 0.30721 0.28049 0.0
C946 C 0.50916 0.30824 0.24377 0.0
C947 C 0.51215 0.29617 0.18504 0.0
C948 C 0.48501 0.32506 0.32329 0.0
C949 C 0.49821 0.3317 0.37612 0.0
C950 C 0.46942 0.33819 0.30044 0.0
C951 C 0.45565 0.33263 0.24269 0.0
C952 C 0.46282 0.33209 0.17408 0.0
C953 C 0.44983 0.32654 0.11975 0.0
C954 C 0.4296 0.32172 0.13345 0.0
C955 C 0.42232 0.32249 0.20151 0.0
C956 C 0.43527 0.32798 0.25606 0.0
C957 C 0.49747 0.4174 0.30498 0.0
C958 C 0.49852 0.42903 0.36615 0.0
C959 C 0.49201 0.39706 0.30718 0.0
C960 C 0.48765 0.38775 0.37063 0.0
C961 C 0.4886 0.39925 0.43224 0.0
C962 C 0.49403 0.41981 0.43001 0.0
C963 C 0.48385 0.36561 0.37009 0.0
C964 C 0.46876 0.35816 0.32533 0.0
C965 C 0.49792 0.35195 0.39928 0.0
C966 C 0.51408 0.35896 0.44692 0.0
C967 C 0.51317 0.3542 0.5177 0.0
C968 C 0.52834 0.36104 0.56297 0.0
C969 C 0.54448 0.37259 0.53779 0.0
C970 C 0.5455 0.3773 0.46735 0.0
C971 C 0.53041 0.37045 0.42187 0.0
H972 H 0.55623 0.3779 0.57269 0.0
H973 H 0.41956 0.31742 0.09132 0.0
H974 H 0.21719 0.50113 0.21036 0.0
H975 H 0.19884 0.51785 0.30375 0.0
H976 H 0.24729 0.56154 0.32641 0.0
H977 H 0.26542 0.54512 0.2299 0.0
H978 H 0.20008 0.5296 0.43183 0.0
H979 H 0.22568 0.60765 0.34825 0.0
H980 H 0.24318 0.62456 0.25132 0.0
H981 H 0.21918 0.58026 0.1084 0.0
H982 H 0.20141 0.56327 0.20439 0.0
H983 H 0.114 0.58256 0.54801 0.0
H984 H 0.15083 0.57812 0.53797 0.0
H985 H 0.14604 0.58516 0.3158 0.0
H986 H 0.10973 0.59091 0.32674 0.0
H987 H 0.18048 0.59807 0.35074 0.0
H988 H 0.14131 0.53696 0.41041 0.0
H989 H 0.1199 0.51637 0.48771 0.0
H990 H 0.16475 0.52134 0.64889 0.0
H991 H 0.18628 0.54211 0.57274 0.0
C992 C 0.22414 0.51403 0.23631 0.0
C993 C 0.2424 0.5222 0.21189 0.0
C994 C 0.21374 0.5235 0.29026 0.0
C995 C 0.22145 0.54127 0.32117 0.0
C996 C 0.24089 0.54806 0.30243 0.0
C997 C 0.25128 0.53863 0.24763 0.0
C998 C 0.2074 0.55405 0.36283 0.0
C999 C 0.19608 0.5448 0.41542 0.0
C1000 C 0.20211 0.57386 0.34147 0.0
C1001 C 0.21249 0.5841 0.28345 0.0
C1002 C 0.22415 0.60158 0.29608 0.0
C1003 C 0.2341 0.61117 0.24135 0.0
C1004 C 0.23235 0.60345 0.17379 0.0
C1005 C 0.22056 0.5862 0.16074 0.0
C1006 C 0.21055 0.5766 0.21525 0.0
C1007 C 0.12107 0.58383 0.49754 0.0
C1008 C 0.1092 0.58697 0.438 0.0
C1009 C 0.14204 0.58116 0.49171 0.0
C1010 C 0.15121 0.58075 0.42593 0.0
C1011 C 0.13944 0.58541 0.36724 0.0
C1012 C 0.11865 0.58865 0.37332 0.0
C1013 C 0.17214 0.57293 0.41557 0.0
C1014 C 0.18496 0.58328 0.36976 0.0
C1015 C 0.17822 0.55368 0.44059 0.0
C1016 C 0.16524 0.54129 0.48637 0.0
C1017 C 0.14652 0.53373 0.46251 0.0
C1018 C 0.13437 0.52203 0.50607 0.0
C1019 C 0.14094 0.51756 0.57321 0.0
C1020 C 0.15965 0.52481 0.59697 0.0
C1021 C 0.17182 0.53657 0.55367 0.0
H1022 H 0.13155 0.50839 0.60657 0.0
H1023 H 0.2401 0.61087 0.13154 0.0
H1024 H 0.0122 0.80332 0.01014 0.0
H1025 H 0.03163 0.82009 0.91993 0.0
H1026 H 0.08491 0.7863 0.97918 0.0
H1027 H 0.06516 0.76943 0.07028 0.0
H1028 H 0.09147 0.82529 0.99063 0.0
H1029 H 0.06913 0.78492 0.80636 0.0
H1030 H 0.04645 0.7642 0.73272 0.0
H1031 H 0.01005 0.81661 0.69017 0.0
H1032 H 0.03222 0.8376 0.76442 0.0
H1033 H 0.11042 0.92264 0.83108 0.0
H1034 H 0.11422 0.8855 0.83506 0.0
H1035 H 0.04952 0.87928 0.85932 0.0
H1036 H 0.0457 0.9158 0.85787 0.0
H1037 H 0.06633 0.85064 0.76489 0.0
H1038 H 0.07953 0.8809 1.00163 0.0
H1039 H 0.10075 0.90231 0.07858 0.0
H1040 H 0.15354 0.86831 0.01895 0.0
H1041 H 0.13259 0.84685 0.94119 0.0
C1042 C 0.02785 0.79894 1.00195 0.0
C1043 C 0.0373 0.78524 0.04664 0.0
C1044 C 0.03895 0.80836 0.94998 0.0
C1045 C 0.05976 0.80433 0.94213 0.0
C1046 C 0.06886 0.78948 0.9838 0.0
C1047 C 0.05763 0.7799 0.0357 0.0
C1048 C 0.07221 0.81889 0.90233 0.0
C1049 C 0.0866 0.83032 0.93979 0.0
C1050 C 0.06614 0.82542 0.83566 0.0
C1051 C 0.05249 0.81289 0.79104 0.0
C1052 C 0.05623 0.79203 0.78168 0.0
C1053 C 0.04344 0.78023 0.73976 0.0
C1054 C 0.02682 0.78909 0.7068 0.0
C1055 C 0.02294 0.80977 0.71572 0.0
C1056 C 0.03568 0.82165 0.75755 0.0
C1057 C 0.09706 0.91329 0.83729 0.0
C1058 C 0.07773 0.92217 0.84361 0.0
C1059 C 0.09924 0.89213 0.83868 0.0
C1060 C 0.0821 0.87969 0.84617 0.0
C1061 C 0.06289 0.88858 0.85174 0.0
C1062 C 0.06074 0.90952 0.85104 0.0
C1063 C 0.08362 0.85757 0.85673 0.0
C1064 C 0.07207 0.84478 0.81354 0.0
C1065 C 0.09214 0.84976 0.91815 0.0
C1066 C 0.1046 0.86246 0.96533 0.0
C1067 C 0.09568 0.87807 0.00487 0.0
C1068 C 0.10764 0.8902 0.04855 0.0
C1069 C 0.12849 0.88671 0.05351 0.0
C1070 C 0.1374 0.87103 0.01494 0.0
C1071 C 0.1255 0.85889 0.97106 0.0
H1072 H 0.13773 0.89612 0.08732 0.0
H1073 H 0.01696 0.77993 0.67428 0.0
H1074 H 0.76302 0.01622 0.0204 0.0
H1075 H 0.74658 0.02223 0.9091 0.0
H1076 H 0.69789 0.98199 0.96593 0.0
H1077 H 0.71468 0.97518 0.07613 0.0
H1078 H 0.7013 0.98598 0.82134 0.0
H1079 H 0.6967 0.02848 0.032 0.0
H1080 H 0.71241 0.0487 0.12609 0.0
H1081 H 0.74072 0.08715 0.97574 0.0
H1082 H 0.72538 0.0669 0.8807 0.0
H1083 H 0.60479 0.02542 0.82836 0.0
H1084 H 0.63846 0.01126 0.83609 0.0
H1085 H 0.66355 0.06531 0.74541 0.0
H1086 H 0.62968 0.07977 0.7365 0.0
H1087 H 0.68013 0.0571 0.86746 0.0
H1088 H 0.67053 0.01972 0.66036 0.0
H1089 H 0.65162 0.99902 0.57545 0.0
H1090 H 0.64676 0.9508 0.72276 0.0
H1091 H 0.66565 0.97125 0.80903 0.0
C1092 C 0.74936 1.00781 0.00786 0.0
C1093 C 0.73973 0.99576 0.05791 0.0
C1094 C 0.74 0.01126 0.94404 0.0
C1095 C 0.72077 1.00301 0.93031 0.0
C1096 C 0.71265 0.98865 0.97582 0.0
C1097 C 0.7221 0.98503 0.03929 0.0
C1098 C 0.70689 0.01313 0.88134 0.0
C1099 C 0.69682 1.00162 0.8303 0.0
C1100 C 0.70128 0.03364 0.89261 0.0
C1101 C 0.71013 0.04609 0.94944 0.0
C1102 C 0.70634 0.04121 0.01911 0.0
C1103 C 0.71518 0.05265 0.07256 0.0
C1104 C 0.7276 0.06917 0.05691 0.0
C1105 C 0.73114 0.07432 0.98776 0.0
C1106 C 0.7224 0.06286 0.93408 0.0
C1107 C 0.61722 0.03414 0.80737 0.0
C1108 C 0.61422 0.05374 0.78079 0.0
C1109 C 0.63659 0.02591 0.81177 0.0
C1110 C 0.65349 0.03705 0.78997 0.0
C1111 C 0.65065 0.05636 0.76166 0.0
C1112 C 0.63122 0.06465 0.7572 0.0
C1113 C 0.67399 0.02982 0.80856 0.0
C1114 C 0.68523 0.04185 0.85494 0.0
C1115 C 0.68038 0.00978 0.7934 0.0
C1116 C 0.66955 0.99705 0.74123 0.0
C1117 C 0.66543 1.00471 0.67477 0.0
C1118 C 0.65468 0.99301 0.62634 0.0
C1119 C 0.64791 0.97362 0.64365 0.0
C1120 C 0.65203 0.96582 0.70937 0.0
C1121 C 0.66286 0.97742 0.75799 0.0
H1122 H 0.63947 0.96466 0.60619 0.0
H1123 H 0.73444 0.07801 0.09837 0.0
H1124 H 0.52974 0.75951 0.01359 0.0
H1125 H 0.53103 0.7375 0.91152 0.0
H1126 H 0.59027 0.71637 0.97341 0.0
H1127 H 0.58835 0.73764 0.07815 0.0
H1128 H 0.5502 0.72588 0.80115 0.0
H1129 H 0.59258 0.66637 0.95558 0.0
H1130 H 0.60202 0.65771 0.07584 0.0
H1131 H 0.54828 0.68707 0.15162 0.0
H1132 H 0.53858 0.69599 0.03182 0.0
H1133 H 0.53261 0.60916 0.72333 0.0
H1134 H 0.55503 0.63724 0.75594 0.0
H1135 H 0.50308 0.67536 0.79333 0.0
H1136 H 0.4806 0.64737 0.7651 0.0
H1137 H 0.55234 0.65562 0.89126 0.0
H1138 H 0.51576 0.72345 0.74386 0.0
H1139 H 0.50163 0.73006 0.62767 0.0
H1140 H 0.53765 0.68183 0.54226 0.0
H1141 H 0.55227 0.67514 0.65693 0.0
C1142 C 0.54339 0.75083 0.00374 0.0
C1143 C 0.55884 0.75 0.05365 0.0
C1144 C 0.54415 0.73819 0.94539 0.0
C1145 C 0.56047 0.72475 0.93597 0.0
C1146 C 0.57727 0.72619 0.98068 0.0
C1147 C 0.57629 0.73846 0.04005 0.0
C1148 C 0.55785 0.70712 0.88834 0.0
C1149 C 0.55085 0.7105 0.82052 0.0
C1150 C 0.5592 0.68692 0.91283 0.0
C1151 C 0.56504 0.68205 0.98504 0.0
C1152 C 0.58284 0.67104 0.99802 0.0
C1153 C 0.58824 0.66611 0.06602 0.0
C1154 C 0.57581 0.67196 0.12133 0.0
C1155 C 0.55795 0.68271 0.10876 0.0
C1156 C 0.55252 0.68774 0.04087 0.0
C1157 C 0.52589 0.62348 0.73837 0.0
C1158 C 0.50466 0.62581 0.74168 0.0
C1159 C 0.53878 0.63958 0.75617 0.0
C1160 C 0.53068 0.65839 0.77603 0.0
C1161 C 0.50962 0.66105 0.7766 0.0
C1162 C 0.49675 0.64495 0.76015 0.0
C1163 C 0.54366 0.67455 0.80585 0.0
C1164 C 0.55256 0.67088 0.87051 0.0
C1165 C 0.54354 0.69444 0.77909 0.0
C1166 C 0.53508 0.69875 0.7093 0.0
C1167 C 0.52081 0.71436 0.70011 0.0
C1168 C 0.51267 0.71809 0.63437 0.0
C1169 C 0.51871 0.70634 0.57739 0.0
C1170 C 0.53293 0.69089 0.5861 0.0
C1171 C 0.54114 0.6871 0.65151 0.0
H1172 H 0.51239 0.7092 0.52652 0.0
H1173 H 0.57998 0.66806 0.17387 0.0
H1174 H 0.80269 0.55253 0.03952 0.0
H1175 H 0.81737 0.54596 0.92582 0.0
H1176 H 0.77228 0.49974 0.88638 0.0
H1177 H 0.75795 0.5058 1.0017 0.0
H1178 H 0.80729 0.48428 0.87019 0.0
H1179 H 0.77729 0.54083 0.77219 0.0
H1180 H 0.76413 0.57557 0.75914 0.0
H1181 H 0.82459 0.59943 0.77397 0.0
H1182 H 0.83811 0.56487 0.7882 0.0
H1183 H 0.88729 0.4625 0.63898 0.0
H1184 H 0.85283 0.47496 0.65714 0.0
H1185 H 0.87552 0.52097 0.79732 0.0
H1186 H 0.90949 0.50777 0.78467 0.0
H1187 H 0.8411 0.53382 0.71628 0.0
H1188 H 0.86449 0.47593 0.86258 0.0
H1189 H 0.87698 0.44074 0.87148 0.0
H1190 H 0.82567 0.4194 0.75414 0.0
H1191 H 0.81307 0.45455 0.74388 0.0
C1192 C 0.79569 0.54119 0.0062 0.0
C1193 C 0.7794 0.52945 0.03007 0.0
C1194 C 0.80388 0.53767 0.94052 0.0
C1195 C 0.79586 0.52242 0.89697 0.0
C1196 C 0.77867 0.51164 0.91882 0.0
C1197 C 0.77048 0.51515 0.98474 0.0
C1198 C 0.80784 0.51541 0.83611 0.0
C1199 C 0.81403 0.49503 0.83466 0.0
C1200 C 0.81665 0.52925 0.7891 0.0
C1201 C 0.80871 0.55019 0.7815 0.0
C1202 C 0.78778 0.55349 0.77326 0.0
C1203 C 0.78025 0.57316 0.76552 0.0
C1204 C 0.79351 0.5897 0.76577 0.0
C1205 C 0.81433 0.58659 0.77371 0.0
C1206 C 0.82195 0.56695 0.78145 0.0
C1207 C 0.88502 0.47538 0.6733 0.0
C1208 C 0.90126 0.48371 0.71173 0.0
C1209 C 0.86533 0.48274 0.68235 0.0
C1210 C 0.86167 0.49891 0.72839 0.0
C1211 C 0.87806 0.5086 0.76095 0.0
C1212 C 0.89761 0.50097 0.75344 0.0
C1213 C 0.84108 0.50328 0.75446 0.0
C1214 C 0.83346 0.52306 0.74954 0.0
C1215 C 0.8306 0.48885 0.79467 0.0
C1216 C 0.83795 0.46778 0.80203 0.0
C1217 C 0.85594 0.46371 0.83857 0.0
C1218 C 0.86303 0.4438 0.84379 0.0
C1219 C 0.85214 0.42785 0.81329 0.0
C1220 C 0.83411 0.43177 0.77764 0.0
C1221 C 0.82698 0.45167 0.77208 0.0
H1222 H 0.85766 0.41244 0.81737 0.0
H1223 H 0.78765 0.60492 0.75975 0.0
H1224 H 0.99967 0.22717 0.94082 0.0
H1225 H 0.99643 0.19441 0.87956 0.0
H1226 H 0.06129 0.18702 0.88585 0.0
H1227 H 0.06447 0.21959 0.94817 0.0
H1228 H 0.04351 0.17271 0.75734 0.0
H1229 H 0.03452 0.16501 0.00393 0.0
H1230 H 0.01877 0.17301 0.11675 0.0
H1231 H 0.96065 0.15473 0.03711 0.0
H1232 H 0.97599 0.14705 0.92324 0.0
H1233 H 0.03965 0.06654 0.66923 0.0
H1234 H 0.0481 0.09899 0.72621 0.0
H1235 H 0.9858 0.10529 0.79124 0.0
H1236 H 0.97814 0.07207 0.74167 0.0
H1237 H 1.00507 0.12047 0.88592 0.0
H1238 H 0.01267 0.12764 0.64075 0.0
H1239 H 0.02735 0.1185 0.5275 0.0
H1240 H 0.08577 0.13929 0.5965 0.0
H1241 H 0.07164 0.14725 0.71208 0.0
C1242 C 0.01328 0.2189 0.92702 0.0
C1243 C 0.03237 0.22628 0.94817 0.0
C1244 C 0.01142 0.2 0.89256 0.0
C1245 C 0.0286 0.18797 0.87801 0.0
C1246 C 0.04777 0.19588 0.89581 0.0
C1247 C 0.04959 0.21462 0.93118 0.0
C1248 C 0.02647 0.16658 0.84981 0.0
C1249 C 0.03525 0.16122 0.78567 0.0
C1250 C 0.01551 0.15146 0.88589 0.0
C1251 C 1.00637 0.15568 0.9548 0.0
C1252 C 0.01835 0.16285 0.0103 0.0
C1253 C 0.0095 0.16732 0.07446 0.0
C1254 C 0.9887 0.16444 0.08402 0.0
C1255 C 0.97674 0.15699 0.02956 0.0
C1256 C 0.98551 0.1526 0.96518 0.0
C1257 C 0.02796 0.07461 0.69753 0.0
C1258 C 0.00834 0.06633 0.70245 0.0
C1259 C 0.03267 0.09349 0.72914 0.0
C1260 C 0.01757 0.10527 0.7626 0.0
C1261 C 0.99797 0.09687 0.76671 0.0
C1262 C 0.9935 0.07778 0.73762 0.0
C1263 C 0.02157 0.12645 0.79176 0.0
C1264 C 0.01327 0.13183 0.85678 0.0
C1265 C 0.0327 0.14163 0.75571 0.0
C1266 C 0.04109 0.13783 0.68535 0.0
C1267 C 0.02866 0.13017 0.63188 0.0
C1268 C 0.03691 0.12513 0.56733 0.0
C1269 C 0.05746 0.1285 0.55445 0.0
C1270 C 0.06984 0.13672 0.6065 0.0
C1271 C 0.06174 0.14133 0.6718 0.0
H1272 H 0.06377 0.12471 0.50421 0.0
H1273 H 0.98183 0.16796 0.13362 0.0
H1274 H 0.30312 0.99621 0.94508 0.0
H1275 H 0.33467 0.99338 0.87868 0.0
H1276 H 0.3333 0.05773 0.84055 0.0
H1277 H 0.30142 0.06044 0.90635 0.0
H1278 H 0.34903 0.03741 0.72807 0.0
H1279 H 0.36108 0.0389 0.97254 0.0
H1280 H 0.35642 0.02803 0.09358 0.0
H1281 H 0.37807 0.96847 0.04052 0.0
H1282 H 0.38249 0.97888 0.91879 0.0
H1283 H 0.45576 0.03988 0.64023 0.0
H1284 H 0.42215 0.04676 0.68998 0.0
H1285 H 0.42009 0.98563 0.7685 0.0
H1286 H 0.45423 0.97958 0.72443 0.0
H1287 H 0.40577 1.00751 0.86155 0.0
H1288 H 0.39585 0.00863 0.61177 0.0
H1289 H 0.40237 0.02275 0.49608 0.0
H1290 H 0.37566 0.07932 0.55806 0.0
H1291 H 0.37071 0.06632 0.67633 0.0
C1292 C 0.30918 0.00962 0.92045 0.0
C1293 C 0.29956 0.02847 0.92989 0.0
C1294 C 0.32739 1.00806 0.88311 0.0
C1295 C 0.33674 0.02539 0.85522 0.0
C1296 C 0.32653 0.04409 0.86127 0.0
C1297 C 0.3082 0.04563 0.89856 0.0
C1298 C 0.3578 0.02414 0.82506 0.0
C1299 C 0.3615 0.031 0.75732 0.0
C1300 C 0.37422 0.01582 0.86291 0.0
C1301 C 0.37195 0.00962 0.93638 0.0
C1302 C 0.36473 0.02345 0.98658 0.0
C1303 C 0.36213 0.01737 0.05532 0.0
C1304 C 0.36692 0.99756 0.07471 0.0
C1305 C 0.37436 0.98381 0.02541 0.0
C1306 C 0.37691 0.98979 0.95653 0.0
C1307 C 0.44825 0.02812 0.6695 0.0
C1308 C 0.45802 0.00946 0.68078 0.0
C1309 C 0.42877 0.03189 0.69688 0.0
C1310 C 0.41809 0.01669 0.73304 0.0
C1311 C 0.42777 0.99783 0.74187 0.0
C1312 C 0.44735 0.9943 0.71626 0.0
C1313 C 0.39712 0.02007 0.7629 0.0
C1314 C 0.39339 0.01376 0.83141 0.0
C1315 C 0.3808 0.02908 0.72561 0.0
C1316 C 0.38316 0.03655 0.65352 0.0
C1317 C 0.39155 0.02416 0.60116 0.0
C1318 C 0.39504 0.03199 0.53508 0.0
C1319 C 0.38925 0.0518 0.51945 0.0
C1320 C 0.38018 0.06397 0.57024 0.0
C1321 C 0.37726 0.05646 0.63711 0.0
H1322 H 0.3918 0.05772 0.46799 0.0
H1323 H 0.36489 0.99288 0.12795 0.0
H1324 H 0.4714 0.31416 0.95546 0.0
H1325 H 0.47329 0.34324 0.8784 0.0
H1326 H 0.52518 0.31677 0.77637 0.0
H1327 H 0.52351 0.28757 0.85519 0.0
H1328 H 0.5325 0.35562 0.80603 0.0
H1329 H 0.47935 0.32103 0.69028 0.0
H1330 H 0.4473 0.30212 0.6768 0.0
H1331 H 0.41422 0.35304 0.75851 0.0
H1332 H 0.4461 0.37217 0.77337 0.0
H1333 H 0.53299 0.44346 0.59227 0.0
H1334 H 0.53038 0.40763 0.62241 0.0
H1335 H 0.47758 0.42062 0.7466 0.0
H1336 H 0.47927 0.45603 0.7126 0.0
H1337 H 0.47302 0.3852 0.68596 0.0
H1338 H 0.53001 0.41852 0.80669 0.0
H1339 H 0.56231 0.43727 0.79748 0.0
H1340 H 0.58932 0.38647 0.69183 0.0
H1341 H 0.55719 0.36754 0.69969 0.0
C1342 C 0.48306 0.31437 0.91602 0.0
C1343 C 0.49733 0.29855 0.91162 0.0
C1344 C 0.48407 0.331 0.87154 0.0
C1345 C 0.4993 0.33228 0.8209 0.0
C1346 C 0.51325 0.31619 0.81485 0.0
C1347 C 0.51219 0.2994 0.85945 0.0
C1348 C 0.50119 0.35106 0.77799 0.0
C1349 C 0.51955 0.3619 0.77893 0.0
C1350 C 0.4844 0.3594 0.74212 0.0
C1351 C 0.46515 0.34798 0.73342 0.0
C1352 C 0.46526 0.32814 0.70589 0.0
C1353 C 0.44711 0.3174 0.69789 0.0
C1354 C 0.42874 0.32636 0.71691 0.0
C1355 C 0.42846 0.34611 0.74383 0.0
C1356 C 0.44657 0.35693 0.75196 0.0
C1357 C 0.52071 0.43873 0.6256 0.0
C1358 C 0.50675 0.453 0.65215 0.0
C1359 C 0.51927 0.41813 0.64298 0.0
C1360 C 0.5042 0.41135 0.68895 0.0
C1361 C 0.48959 0.42536 0.71204 0.0
C1362 C 0.49074 0.44582 0.69334 0.0
C1363 C 0.50404 0.39013 0.71645 0.0
C1364 C 0.48599 0.37883 0.71271 0.0
C1365 C 0.5212 0.38127 0.74896 0.0
C1366 C 0.54105 0.39181 0.75223 0.0
C1367 C 0.54287 0.41134 0.78171 0.0
C1368 C 0.56112 0.42202 0.77654 0.0
C1369 C 0.57773 0.41315 0.74318 0.0
C1370 C 0.57636 0.39338 0.71698 0.0
C1371 C 0.55814 0.38268 0.72182 0.0
H1372 H 0.59169 0.42155 0.7375 0.0
H1373 H 0.4147 0.31801 0.71068 0.0
H1374 H 0.22566 0.47482 0.95898 0.0
H1375 H 0.19484 0.47438 0.88729 0.0
H1376 H 0.19433 0.53986 0.88789 0.0
H1377 H 0.22467 0.54017 0.96132 0.0
H1378 H 0.15878 0.52815 0.91788 0.0
H1379 H 0.2041 0.50923 0.73555 0.0
H1380 H 0.23091 0.48955 0.6767 0.0
H1381 H 0.19504 0.4354 0.69274 0.0
H1382 H 0.16809 0.45472 0.75242 0.0
H1383 H 0.07918 0.54171 0.67714 0.0
H1384 H 0.1131 0.54023 0.72763 0.0
H1385 H 0.10734 0.47547 0.75016 0.0
H1386 H 0.07353 0.47675 0.69754 0.0
H1387 H 0.1456 0.48598 0.70823 0.0
H1388 H 0.09954 0.50709 0.88764 0.0
H1389 H 0.0724 0.52863 0.93611 0.0
H1390 H 0.11045 0.58118 0.91721 0.0
H1391 H 0.13771 0.56 0.86736 0.0
C1392 C 0.2193 0.48907 0.94178 0.0
C1393 C 0.22778 0.50753 0.96467 0.0
C1394 C 0.20159 0.48885 0.90091 0.0
C1395 C 0.19207 0.50711 0.88143 0.0
C1396 C 0.20116 0.52553 0.90203 0.0
C1397 C 0.21868 0.52573 0.94337 0.0
C1398 C 0.17195 0.50714 0.84434 0.0
C1399 C 0.15613 0.51915 0.87134 0.0
C1400 C 0.16798 0.49508 0.78443 0.0
C1401 C 0.1842 0.48337 0.74922 0.0
C1402 C 0.20202 0.49308 0.72712 0.0
C1403 C 0.21721 0.48201 0.69346 0.0
C1404 C 0.21471 0.46123 0.68121 0.0
C1405 C 0.19697 0.45149 0.7024 0.0
C1406 C 0.18173 0.4625 0.73608 0.0
C1407 C 0.08507 0.5271 0.69244 0.0
C1408 C 0.07324 0.50941 0.68487 0.0
C1409 C 0.10452 0.52629 0.72173 0.0
C1410 C 0.1127 0.5078 0.74449 0.0
C1411 C 0.10136 0.48997 0.7339 0.0
C1412 C 0.08188 0.49076 0.70442 0.0
C1413 C 0.13276 0.50725 0.78114 0.0
C1414 C 0.14841 0.495 0.75461 0.0
C1415 C 0.1367 0.51934 0.84082 0.0
C1416 C 0.12062 0.53198 0.87329 0.0
C1417 C 0.1021 0.52325 0.8936 0.0
C1418 C 0.08669 0.5354 0.92126 0.0
C1419 C 0.08969 0.55627 0.92961 0.0
C1420 C 0.10815 0.56501 0.91065 0.0
C1421 C 0.12359 0.55294 0.88273 0.0
H1422 H 0.07771 0.56566 0.95084 0.0
H1423 H 0.22649 0.45268 0.65512 0.0
H1424 H 0.04312 0.81433 0.27483 0.0
H1425 H 0.03952 0.84494 0.34551 0.0
H1426 H 0.97563 0.83289 0.36805 0.0
H1427 H 0.97918 0.80222 0.29511 0.0
H1428 H 0.97946 0.87063 0.33952 0.0
H1429 H 0.01089 0.83049 0.50797 0.0
H1430 H 0.03536 0.80724 0.56218 0.0
H1431 H 0.0831 0.85057 0.53214 0.0
H1432 H 0.05904 0.87391 0.47604 0.0
H1433 H 0.98207 0.9604 0.58498 0.0
H1434 H 0.97599 0.92623 0.53557 0.0
H1435 H 0.03463 0.92779 0.43775 0.0
H1436 H 0.04082 0.96136 0.48791 0.0
H1437 H 0.02808 0.89314 0.52063 0.0
H1438 H 0.98623 0.91207 0.27943 0.0
H1439 H 0.95596 0.92753 0.22601 0.0
H1440 H 0.92334 0.92094 0.41715 0.0
H1441 H 0.95324 0.90494 0.47073 0.0
C1442 C 0.0283 0.81796 0.29561 0.0
C1443 C 0.01144 0.80565 0.27876 0.0
C1444 C 0.02627 0.83555 0.33675 0.0
C1445 C 1.00731 0.84152 0.3633 0.0
C1446 C 0.9905 0.82885 0.34864 0.0
C1447 C 0.99255 0.81111 0.30735 0.0
C1448 C 1.00501 0.86162 0.40146 0.0
C1449 C 0.99 0.87533 0.37986 0.0
C1450 C 0.01843 0.86809 0.45507 0.0
C1451 C 0.03315 0.85391 0.48718 0.0
C1452 C 0.02665 0.83499 0.51214 0.0
C1453 C 0.04044 0.8218 0.54341 0.0
C1454 C 0.06076 0.82743 0.55074 0.0
C1455 C 0.06735 0.84623 0.52647 0.0
C1456 C 0.05364 0.85944 0.49486 0.0
C1457 C 0.99339 0.95363 0.55143 0.0
C1458 C 0.01186 0.96385 0.53978 0.0
C1459 C 0.98987 0.93403 0.52262 0.0
C1460 C 1.00467 0.92422 0.48122 0.0
C1461 C 0.02281 0.9348 0.46863 0.0
C1462 C 0.02635 0.95411 0.49753 0.0
C1463 C 1.00291 0.90232 0.45712 0.0
C1464 C 0.01743 0.88828 0.48086 0.0
C1465 C 0.98864 0.89531 0.40715 0.0
C1466 C 0.9722 0.90813 0.3799 0.0
C1467 C 0.97274 0.91439 0.31042 0.0
C1468 C 0.95554 0.92289 0.27972 0.0
C1469 C 0.93775 0.92528 0.31824 0.0
C1470 C 0.93717 0.91922 0.38754 0.0
C1471 C 0.95427 0.91054 0.4182 0.0
H1472 H 0.92444 0.93186 0.29445 0.0
H1473 H 0.07138 0.81723 0.57527 0.0
H1474 H 0.72585 0.98237 0.36978 0.0
H1475 H 0.69434 0.98594 0.43741 0.0
H1476 H 0.67741 0.03747 0.31372 0.0
H1477 H 0.70875 0.03401 0.24727 0.0
H1478 H 0.66673 0.04447 0.44331 0.0
H1479 H 0.65884 0.9886 0.2823 0.0
H1480 H 0.66732 0.95544 0.22965 0.0
H1481 H 0.65831 0.92646 0.42593 0.0
H1482 H 0.65007 0.95952 0.47995 0.0
H1483 H 0.5609 0.0514 0.48959 0.0
H1484 H 0.59448 0.046 0.43912 0.0
H1485 H 0.60289 0.9936 0.56884 0.0
H1486 H 0.56846 0.99827 0.61572 0.0
H1487 H 0.61931 0.98605 0.44788 0.0
H1488 H 0.62107 0.04407 0.6016 0.0
H1489 H 0.60789 0.07743 0.63882 0.0
H1490 H 0.62839 0.10391 0.44907 0.0
H1491 H 0.64001 0.07045 0.40757 0.0
C1492 C 0.71563 0.99476 0.35841 0.0
C1493 C 0.7199 1.00797 0.30334 0.0
C1494 C 0.69745 0.99666 0.3965 0.0
C1495 C 0.68312 0.01182 0.38033 0.0
C1496 C 0.688 0.02561 0.32763 0.0
C1497 C 0.70601 0.02365 0.28957 0.0
C1498 C 0.66272 0.01305 0.41541 0.0
C1499 C 0.65637 0.03169 0.44408 0.0
C1500 C 0.64909 0.99639 0.41768 0.0
C1501 C 0.6541 0.97655 0.38535 0.0
C1502 C 0.65885 0.97518 0.31436 0.0
C1503 C 0.66358 0.9564 0.28424 0.0
C1504 C 0.66342 0.93886 0.32447 0.0
C1505 C 0.65848 0.94006 0.39487 0.0
C1506 C 0.65378 0.95881 0.42527 0.0
C1507 C 0.56984 0.03857 0.50661 0.0
C1508 C 0.56192 0.02506 0.55558 0.0
C1509 C 0.58917 0.03556 0.47819 0.0
C1510 C 0.6017 0.01965 0.50104 0.0
C1511 C 0.59372 1.00604 0.55012 0.0
C1512 C 0.57403 0.00869 0.57698 0.0
C1513 C 0.62317 0.01759 0.47498 0.0
C1514 C 0.62973 0.9988 0.44801 0.0
C1515 C 0.63694 0.03422 0.47372 0.0
C1516 C 0.63131 0.05462 0.50117 0.0
C1517 C 0.62272 0.05696 0.56758 0.0
C1518 C 0.61544 0.07589 0.58938 0.0
C1519 C 0.61758 0.0928 0.54691 0.0
C1520 C 0.62679 0.0908 0.48206 0.0
C1521 C 0.63354 0.07181 0.45902 0.0
H1522 H 0.61199 0.10744 0.56412 0.0
H1523 H 0.66707 0.92434 0.30105 0.0
H1524 H 0.55522 0.73918 0.37585 0.0
H1525 H 0.55006 0.70795 0.44306 0.0
H1526 H 0.51513 0.68243 0.27406 0.0
H1527 H 0.51999 0.71346 0.20801 0.0
H1528 H 0.49804 0.67312 0.39357 0.0
H1529 H 0.56552 0.67046 0.29873 0.0
H1530 H 0.60029 0.68307 0.27994 0.0
H1531 H 0.61177 0.68115 0.4992 0.0
H1532 H 0.57695 0.6688 0.51936 0.0
H1533 H 0.49946 0.56831 0.47371 0.0
H1534 H 0.50257 0.60168 0.42083 0.0
H1535 H 0.54553 0.61944 0.57972 0.0
H1536 H 0.54397 0.58505 0.62764 0.0
H1537 H 0.55812 0.63433 0.47165 0.0
H1538 H 0.48829 0.63561 0.56216 0.0
H1539 H 0.4529 0.62334 0.57146 0.0
H1540 H 0.44578 0.62692 0.35095 0.0
H1541 H 0.48089 0.63931 0.33983 0.0
C1542 C 0.54612 0.72703 0.35391 0.0
C1543 C 0.5381 0.72872 0.28659 0.0
C1544 C 0.54334 0.7091 0.39194 0.0
C1545 C 0.53244 0.69261 0.36329 0.0
C1546 C 0.52363 0.6948 0.29745 0.0
C1547 C 0.52645 0.71257 0.25964 0.0
C1548 C 0.53057 0.67278 0.40003 0.0
C1549 C 0.51119 0.66459 0.41051 0.0
C1550 C 0.54765 0.66162 0.42264 0.0
C1551 C 0.5686 0.66888 0.41056 0.0
C1552 C 0.57543 0.67284 0.34293 0.0
C1553 C 0.59514 0.67993 0.33204 0.0
C1554 C 0.60822 0.68293 0.38835 0.0
C1555 C 0.60162 0.67883 0.45565 0.0
C1556 C 0.5819 0.67178 0.46684 0.0
C1557 C 0.5095 0.57943 0.49733 0.0
C1558 C 0.52131 0.57428 0.55513 0.0
C1559 C 0.51109 0.5987 0.46765 0.0
C1560 C 0.52374 0.6137 0.49729 0.0
C1561 C 0.53554 0.6084 0.55556 0.0
C1562 C 0.53459 0.58879 0.58337 0.0
C1563 C 0.52544 0.63447 0.46592 0.0
C1564 C 0.54486 0.64287 0.45596 0.0
C1565 C 0.50835 0.64571 0.44274 0.0
C1566 C 0.48725 0.63827 0.45017 0.0
C1567 C 0.47919 0.63371 0.51568 0.0
C1568 C 0.45922 0.62674 0.52129 0.0
C1569 C 0.44723 0.62423 0.46203 0.0
C1570 C 0.45509 0.62883 0.39685 0.0
C1571 C 0.47498 0.6359 0.39084 0.0
H1572 H 0.4318 0.6188 0.46668 0.0
H1573 H 0.62347 0.68842 0.37982 0.0
H1574 H 0.79006 0.50376 0.3301 0.0
H1575 H 0.82067 0.50152 0.40241 0.0
H1576 H 0.84227 0.55782 0.31673 0.0
H1577 H 0.81221 0.55948 0.24271 0.0
H1578 H 0.87118 0.53332 0.31078 0.0
H1579 H 0.82794 0.55172 0.50634 0.0
H1580 H 0.79828 0.54873 0.58366 0.0
H1581 H 0.81294 0.48631 0.62128 0.0
H1582 H 0.84266 0.489 0.54401 0.0
H1583 H 0.95372 0.55229 0.53987 0.0
H1584 H 0.91955 0.55405 0.49102 0.0
H1585 H 0.91155 0.49006 0.52559 0.0
H1586 H 0.94619 0.48791 0.57075 0.0
H1587 H 0.87594 0.5165 0.56064 0.0
H1588 H 0.92181 0.50057 0.37473 0.0
H1589 H 0.95218 0.50501 0.30212 0.0
H1590 H 0.93198 0.56453 0.24529 0.0
H1591 H 0.90168 0.56062 0.3189 0.0
C1592 C 0.80115 0.51587 0.32808 0.0
C1593 C 0.79867 0.53182 0.28077 0.0
C1594 C 0.8187 0.51464 0.36969 0.0
C1595 C 0.83403 0.52955 0.36591 0.0
C1596 C 0.83094 0.54598 0.32085 0.0
C1597 C 0.81363 0.54702 0.27868 0.0
C1598 C 0.85399 0.52735 0.40349 0.0
C1599 C 0.87204 0.53001 0.36573 0.0
C1600 C 0.85556 0.52232 0.47484 0.0
C1601 C 0.83743 0.52054 0.51948 0.0
C1602 C 0.82473 0.53734 0.53081 0.0
C1603 C 0.80794 0.53571 0.57461 0.0
C1604 C 0.80366 0.51731 0.60704 0.0
C1605 C 0.81621 0.50052 0.59587 0.0
C1606 C 0.83308 0.50212 0.55244 0.0
C1607 C 0.94493 0.53847 0.536 0.0
C1608 C 0.95327 0.5198 0.55663 0.0
C1609 C 0.9252 0.53958 0.5089 0.0
C1610 C 0.91297 0.52215 0.5037 0.0
C1611 C 0.92068 0.50371 0.52851 0.0
C1612 C 0.94063 0.50251 0.55406 0.0
C1613 C 0.8928 0.52306 0.46797 0.0
C1614 C 0.87487 0.51999 0.50583 0.0
C1615 C 0.89127 0.52791 0.39675 0.0
C1616 C 0.90957 0.53038 0.35289 0.0
C1617 C 0.92395 0.5147 0.34739 0.0
C1618 C 0.94113 0.5171 0.30589 0.0
C1619 C 0.94398 0.53502 0.26897 0.0
C1620 C 0.92971 0.55063 0.27377 0.0
C1621 C 0.91255 0.54834 0.31545 0.0
H1622 H 0.95728 0.53684 0.23683 0.0
H1623 H 0.79072 0.5161 0.6412 0.0
loop_
_geom_bond_atom_site_label_1
_geom_bond_atom_site_label_2
_geom_bond_distance
_geom_bond_site_symmetry_2
_ccdc_geom_bond_type
H0 C3 0.929 . S
H1 C6 0.929 . S
H2 C8 0.930 . S
C3 H0 0.929 . S
C3 C4 1.398 . S
C3 C5 1.396 . S
C4 C3 1.398 . S
C4 C8 1.407 . S
C5 C3 1.396 . S
C5 C6 1.394 . S
C6 H1 0.929 . S
C6 C5 1.394 . S
C6 C7 1.382 . S
C7 C6 1.382 . S
C7 C8 1.392 . S
C7 N9 1.420 . S
C8 H2 0.930 . S
C8 C4 1.407 . S
C8 C7 1.392 . S
N9 C7 1.420 . S
N9 C10 1.244 . S
C10 N9 1.244 . S
H11 C14 0.929 . S
H12 C17 0.929 . S
H13 C19 0.930 . S
C14 H11 0.929 . S
C14 C15 1.398 . S
C14 C16 1.396 . S
C15 C14 1.398 . S
C15 C19 1.407 . S
C16 C14 1.396 . S
C16 C17 1.394 . S
C17 H12 0.929 . S
C17 C16 1.394 . S
C17 C18 1.382 . S
C18 C17 1.382 . S
C18 C19 1.392 . S
C18 N20 1.420 . S
C19 H13 0.930 . S
C19 C15 1.407 . S
C19 C18 1.392 . S
N20 C18 1.420 . S
N20 C21 1.244 . S
C21 N20 1.244 . S
H22 C25 0.929 . S
H23 C28 0.929 . S
H24 C30 0.930 . S
C25 H22 0.929 . S
C25 C26 1.398 . S
C25 C27 1.396 . S
C26 C25 1.398 . S
C26 C30 1.407 . S
C27 C25 1.396 . S
C27 C28 1.394 . S
C28 H23 0.929 . S
C28 C27 1.394 . S
C28 C29 1.382 . S
C29 C28 1.382 . S
C29 C30 1.392 . S
C29 N31 1.420 . S
C30 H24 0.930 . S
C30 C26 1.407 . S
C30 C29 1.392 . S
N31 C29 1.420 . S
N31 C32 1.244 . S
C32 N31 1.244 . S
H33 C36 0.929 . S
H34 C39 0.929 . S
H35 C41 0.930 . S
C36 H33 0.929 . S
C36 C37 1.398 . S
C36 C38 1.396 . S
C37 C36 1.398 . S
C37 C41 1.407 . S
C38 C36 1.396 . S
C38 C39 1.394 . S
C39 H34 0.929 . S
C39 C38 1.394 . S
C39 C40 1.382 . S
C40 C39 1.382 . S
C40 C41 1.392 . S
C40 N42 1.420 . S
C41 H35 0.930 . S
C41 C37 1.407 . S
C41 C40 1.392 . S
N42 C40 1.420 . S
N42 C43 1.244 . S
C43 N42 1.244 . S
H44 C47 0.929 . S
H45 C50 0.929 . S
H46 C52 0.930 . S
C47 H44 0.929 . S
C47 C48 1.398 . S
C47 C49 1.396 1_556 S
C48 C47 1.398 . S
C48 C52 1.407 . S
C49 C47 1.396 1_554 S
C49 C50 1.394 . S
C50 H45 0.929 . S
C50 C49 1.394 . S
C50 C51 1.382 . S
C51 C50 1.382 . S
C51 C52 1.392 1_554 S
C51 N53 1.420 . S
C52 H46 0.930 . S
C52 C48 1.407 . S
C52 C51 1.392 1_556 S
N53 C51 1.420 . S
N53 C54 1.244 . S
C54 N53 1.244 . S
H55 C58 0.929 . S
H56 C61 0.929 . S
H57 C63 0.930 . S
C58 H55 0.929 . S
C58 C59 1.398 . S
C58 C60 1.396 1_556 S
C59 C58 1.398 . S
C59 C63 1.407 . S
C60 C58 1.396 1_554 S
C60 C61 1.394 . S
C61 H56 0.929 . S
C61 C60 1.394 . S
C61 C62 1.382 . S
C62 C61 1.382 . S
C62 C63 1.392 1_554 S
C62 N64 1.420 . S
C63 H57 0.930 . S
C63 C59 1.407 . S
C63 C62 1.392 1_556 S
N64 C62 1.420 . S
N64 C65 1.244 . S
C65 N64 1.244 . S
H66 C69 0.929 . S
H67 C72 0.929 . S
H68 C74 0.930 . S
C69 H66 0.929 . S
C69 C70 1.398 . S
C69 C71 1.396 1_556 S
C70 C69 1.398 . S
C70 C74 1.407 . S
C71 C69 1.396 1_554 S
C71 C72 1.394 . S
C72 H67 0.929 . S
C72 C71 1.394 . S
C72 C73 1.382 . S
C73 C72 1.382 . S
C73 C74 1.392 1_554 S
C73 N75 1.420 . S
C74 H68 0.930 . S
C74 C70 1.407 . S
C74 C73 1.392 1_556 S
N75 C73 1.420 . S
N75 C76 1.244 . S
C76 N75 1.244 . S
H77 C80 0.929 . S
H78 C83 0.929 . S
H79 C85 0.930 . S
C80 H77 0.929 . S
C80 C81 1.398 . S
C80 C82 1.396 1_556 S
C81 C80 1.398 . S
C81 C85 1.407 . S
C82 C80 1.396 1_554 S
C82 C83 1.394 . S
C83 H78 0.929 . S
C83 C82 1.394 . S
C83 C84 1.382 . S
C84 C83 1.382 . S
C84 C85 1.392 1_554 S
C84 N86 1.420 . S
C85 H79 0.930 . S
C85 C81 1.407 . S
C85 C84 1.392 1_556 S
N86 C84 1.420 . S
N86 C87 1.244 . S
C87 N86 1.244 . S
Tb88 N119 2.660 1_565 S
Tb88 N126 2.597 1_565 S
Tb88 O132 2.546 . S
Tb88 O133 2.610 1_455 S
Tb88 O135 2.320 1_455 S
Tb88 O136 2.552 . S
Tb88 O137 2.413 . S
Tb88 O139 2.362 1_565 S
Tb88 O140 2.421 . S
Tb88 C152 2.833 . S
C89 C92 1.411 1_545 S
C89 C93 1.414 . S
C89 N96 1.359 . S
C90 C92 1.449 . S
C90 C94 1.432 . S
C90 C102 1.410 . S
C91 C93 1.444 1_565 S
C91 C94 1.317 . S
C91 H114 0.929 . S
C92 C89 1.411 1_565 S
C92 C90 1.449 . S
C92 N100 1.350 1_565 S
C93 C89 1.414 . S
C93 C91 1.444 1_545 S
C93 C98 1.385 . S
C94 C90 1.432 . S
C94 C91 1.317 . S
C94 H106 0.930 . S
C95 C97 1.392 . S
C95 C98 1.370 . S
C95 H107 0.931 . S
N96 C89 1.359 . S
N96 C97 1.327 . S
N96 Tb99 2.600 . S
C97 C95 1.392 . S
C97 N96 1.327 . S
C97 H104 0.930 . S
C98 C93 1.385 . S
C98 C95 1.370 . S
C98 H117 0.930 . S
Tb99 N96 2.600 . S
Tb99 N100 2.660 . S
Tb99 O133 2.362 1_545 S
Tb99 O134 2.421 . S
Tb99 O138 2.546 . S
Tb99 O139 2.610 1_655 S
Tb99 O141 2.320 1_655 S
Tb99 O142 2.552 1_655 S
Tb99 O143 2.413 . S
Tb99 C163 2.833 . S
N100 C92 1.350 1_545 S
N100 Tb99 2.660 . S
N100 C101 1.305 1_645 S
C101 N100 1.305 1_465 S
C101 C103 1.407 . S
C101 H108 0.930 . S
C102 C90 1.410 . S
C102 C103 1.345 1_655 S
C102 H110 0.930 . S
C103 C101 1.407 . S
C103 C102 1.345 1_455 S
C103 H105 0.930 . S
H104 C97 0.930 . S
H105 C103 0.930 . S
H106 C94 0.930 . S
H107 C95 0.931 . S
H108 C101 0.930 . S
H109 C123 0.930 1_655 S
H110 C102 0.930 . S
H111 C129 0.930 . S
H112 C120 0.930 1_655 S
H113 C127 0.931 . S
H114 C91 0.929 . S
H115 C121 0.930 . S
H116 C154 0.930 . S
H117 C98 0.930 . S
H118 C153 0.929 . S
N119 Tb88 2.660 1_545 S
N119 C120 1.305 . S
N119 C124 1.360 . S
C120 H112 0.930 1_455 S
C120 N119 1.305 . S
C120 C123 1.407 . S
C121 H115 0.930 . S
C121 C122 1.410 . S
C121 C123 1.345 . S
C122 C121 1.410 . S
C122 C124 1.417 . S
C122 C154 1.432 . S
C123 H109 0.930 1_455 S
C123 C120 1.407 . S
C123 C121 1.345 . S
C124 N119 1.360 . S
C124 C122 1.417 . S
C124 C128 1.432 . S
H125 C130 0.930 . S
N126 Tb88 2.597 1_545 S
N126 C128 1.365 . S
N126 C129 1.322 1_545 S
C127 H113 0.931 . S
C127 C129 1.392 . S
C127 C130 1.370 1_565 S
C128 C124 1.432 . S
C128 N126 1.365 . S
C128 C131 1.414 . S
C129 H111 0.930 . S
C129 N126 1.322 1_565 S
C129 C127 1.392 . S
C130 H125 0.930 . S
C130 C127 1.370 1_545 S
C130 C131 1.385 . S
C131 C128 1.414 . S
C131 C130 1.385 . S
C131 C153 1.444 . S
O132 Tb88 2.546 . S
O132 C152 1.251 . S
O133 Tb88 2.610 1_655 S
O133 Tb99 2.362 1_565 S
O133 C144 1.283 . S
O134 Tb99 2.421 . S
O134 C151 1.262 . S
O135 Tb88 2.320 1_655 S
O135 C151 1.260 1_565 S
O136 Tb88 2.552 . S
O136 C144 1.243 1_455 S
O137 Tb88 2.413 . S
O137 C152 1.256 . S
O138 Tb99 2.546 . S
O138 C163 1.251 . S
O139 Tb88 2.362 1_545 S
O139 Tb99 2.610 1_455 S
O139 C155 1.283 . S
O140 Tb88 2.421 . S
O140 C162 1.262 1_565 S
O141 Tb99 2.320 1_455 S
O141 C162 1.260 . S
O142 Tb99 2.552 1_455 S
O142 C155 1.243 . S
O143 Tb99 2.413 . S
O143 C163 1.253 . S
C144 O133 1.283 . S
C144 O136 1.243 1_655 S
C145 C147 1.382 . S
C145 C149 1.393 . S
C145 C152 1.500 . S
C146 C147 1.400 . S
C146 C148 1.384 . S
C147 C145 1.382 . S
C147 C146 1.400 . S
C147 H164 0.930 1_455 S
C148 C146 1.384 . S
C148 C150 1.392 . S
C148 H165 0.931 . S
C149 C145 1.393 . S
C149 C150 1.401 . S
C149 H166 0.930 . S
C150 C148 1.392 . S
C150 C149 1.401 . S
C150 H167 0.930 . S
C151 O134 1.262 . S
C151 O135 1.260 1_545 S
C152 Tb88 2.833 . S
C152 O132 1.251 . S
C152 O137 1.256 . S
C152 C145 1.500 . S
C153 H118 0.929 . S
C153 C131 1.444 . S
C153 C154 1.317 . S
C154 H116 0.930 . S
C154 C122 1.432 . S
C154 C153 1.317 . S
C155 O139 1.283 . S
C155 O142 1.243 . S
C156 C157 1.345 1_655 S
C156 C160 1.393 . S
C156 C163 1.500 . S
C157 C156 1.345 1_455 S
C157 C158 1.398 1_455 S
C157 H168 0.970 . S
C158 C157 1.398 1_655 S
C158 C159 1.397 . S
C159 C158 1.397 . S
C159 C161 1.392 . S
C159 H169 0.931 . S
C160 C156 1.393 . S
C160 C161 1.401 . S
C160 H170 0.930 . S
C161 C159 1.392 . S
C161 C160 1.401 . S
C161 H171 0.930 . S
C162 O140 1.262 1_545 S
C162 O141 1.260 . S
C163 Tb99 2.833 . S
C163 O138 1.251 . S
C163 O143 1.253 . S
C163 C156 1.500 . S
H164 C147 0.930 1_655 S
H165 C148 0.931 . S
H166 C149 0.930 . S
H167 C150 0.930 . S
H168 C157 0.970 . S
H169 C159 0.931 . S
H170 C160 0.930 . S
H171 C161 0.930 . S
Tb172 N203 2.660 . S
Tb172 N210 2.600 . S
Tb172 O216 2.546 . S
Tb172 O217 2.610 1_545 S
Tb172 O219 2.320 1_545 S
Tb172 O220 2.552 . S
Tb172 O221 2.413 . S
Tb172 O223 2.362 . S
Tb172 O224 2.421 . S
Tb172 C236 2.833 . S
C173 C176 1.432 . S
C173 C177 1.414 . S
C173 N180 1.359 . S
C174 C176 1.417 . S
C174 C178 1.432 . S
C174 C186 1.410 . S
C175 C177 1.444 . S
C175 C178 1.317 . S
C175 H198 0.929 . S
C176 C173 1.432 . S
C176 C174 1.417 . S
C176 N184 1.360 . S
C177 C173 1.414 . S
C177 C175 1.444 . S
C177 C182 1.385 . S
C178 C174 1.432 . S
C178 C175 1.317 . S
C178 H190 0.930 . S
C179 C181 1.392 . S
C179 C182 1.370 . S
C179 H191 0.931 . S
N180 C173 1.359 . S
N180 C181 1.327 . S
N180 Tb183 2.600 . S
C181 C179 1.392 . S
C181 N180 1.327 . S
C181 H188 0.930 . S
C182 C177 1.385 . S
C182 C179 1.370 . S
C182 H201 0.930 . S
Tb183 N180 2.600 . S
Tb183 N184 2.660 . S
Tb183 O217 2.362 . S
Tb183 O218 2.421 . S
Tb183 O222 2.546 . S
Tb183 O223 2.610 1_565 S
Tb183 O225 2.320 1_565 S
Tb183 O226 2.552 1_565 S
Tb183 O227 2.413 1_565 S
Tb183 C247 2.833 . S
N184 C176 1.360 . S
N184 Tb183 2.660 . S
N184 C185 1.305 1_565 S
C185 N184 1.305 1_545 S
C185 C187 1.407 . S
C185 H192 0.930 . S
C186 C174 1.410 . S
C186 C187 1.345 1_565 S
C186 H194 0.930 . S
C187 C185 1.407 . S
C187 C186 1.345 1_545 S
C187 H189 0.930 . S
H188 C181 0.930 . S
H189 C187 0.930 . S
H190 C178 0.930 . S
H191 C179 0.931 . S
H192 C185 0.930 . S
H193 C207 0.930 1_565 S
H194 C186 0.930 . S
H195 C213 0.930 . S
H196 C204 0.930 1_565 S
H197 C211 0.931 . S
H198 C175 0.929 . S
H199 C205 0.930 . S
H200 C238 0.930 . S
H201 C182 0.930 . S
H202 C237 0.929 . S
N203 Tb172 2.660 . S
N203 C204 1.305 . S
N203 C208 1.360 . S
C204 H196 0.930 1_545 S
C204 N203 1.305 . S
C204 C207 1.407 . S
C205 H199 0.930 . S
C205 C206 1.410 . S
C205 C207 1.345 . S
C206 C205 1.410 . S
C206 C208 1.417 . S
C206 C238 1.432 . S
C207 H193 0.930 1_545 S
C207 C204 1.407 . S
C207 C205 1.345 . S
C208 N203 1.360 . S
C208 C206 1.417 . S
C208 C212 1.432 . S
H209 C214 0.930 . S
N210 Tb172 2.600 . S
N210 C212 1.359 . S
N210 C213 1.327 . S
C211 H197 0.931 . S
C211 C213 1.392 . S
C211 C214 1.370 . S
C212 C208 1.432 . S
C212 N210 1.359 . S
C212 C215 1.414 . S
C213 H195 0.930 . S
C213 N210 1.327 . S
C213 C211 1.392 . S
C214 H209 0.930 . S
C214 C211 1.370 . S
C214 C215 1.385 . S
C215 C212 1.414 . S
C215 C214 1.385 . S
C215 C237 1.444 . S
O216 Tb172 2.546 . S
O216 C236 1.251 . S
O217 Tb172 2.610 1_565 S
O217 Tb183 2.362 . S
O217 C228 1.283 1_565 S
O218 Tb183 2.421 . S
O218 C235 1.262 . S
O219 Tb172 2.320 1_565 S
O219 C235 1.260 . S
O220 Tb172 2.552 . S
O220 C228 1.251 . S
O221 Tb172 2.413 . S
O221 C236 1.256 . S
O222 Tb183 2.546 . S
O222 C247 1.251 . S
O223 Tb172 2.362 . S
O223 Tb183 2.610 1_545 S
O223 C239 1.283 . S
O224 Tb172 2.421 . S
O224 C246 1.262 . S
O225 Tb183 2.320 1_545 S
O225 C246 1.260 . S
O226 Tb183 2.552 1_545 S
O226 C239 1.243 . S
O227 Tb183 2.413 1_545 S
O227 C247 1.256 1_545 S
C228 O217 1.283 1_545 S
C228 O220 1.251 . S
C229 C231 1.382 . S
C229 C233 1.393 . S
C229 C236 1.500 . S
C230 C231 1.400 . S
C230 C232 1.384 . S
C231 C229 1.382 . S
C231 C230 1.400 . S
C231 H248 0.930 . S
C232 C230 1.384 . S
C232 C234 1.392 . S
C232 H249 0.931 . S
C233 C229 1.393 . S
C233 C234 1.401 . S
C233 H250 0.930 . S
C234 C232 1.392 . S
C234 C233 1.401 . S
C234 H251 0.930 . S
C235 O218 1.262 . S
C235 O219 1.260 . S
C236 Tb172 2.833 . S
C236 O216 1.251 . S
C236 O221 1.256 . S
C236 C229 1.500 . S
C237 H202 0.929 . S
C237 C215 1.444 . S
C237 C238 1.317 . S
C238 H200 0.930 . S
C238 C206 1.432 . S
C238 C237 1.317 . S
C239 O223 1.283 . S
C239 O226 1.243 . S
C240 C241 1.382 1_565 S
C240 C244 1.393 . S
C240 C247 1.500 . S
C241 C240 1.382 1_545 S
C241 C242 1.405 . S
C241 H252 0.930 . S
C242 C241 1.405 . S
C242 C243 1.333 1_545 S
C243 C242 1.333 1_565 S
C243 C245 1.392 . S
C243 H253 0.931 . S
C244 C240 1.393 . S
C244 C245 1.401 . S
C244 H254 0.930 . S
C245 C243 1.392 . S
C245 C244 1.401 . S
C245 H255 0.930 . S
C246 O224 1.262 . S
C246 O225 1.260 . S
C247 Tb183 2.833 . S
C247 O222 1.251 . S
C247 O227 1.256 1_565 S
C247 C240 1.500 . S
H248 C231 0.930 . S
H249 C232 0.931 . S
H250 C233 0.930 . S
H251 C234 0.930 . S
H252 C241 0.930 . S
H253 C243 0.931 . S
H254 C244 0.930 . S
H255 C245 0.930 . S
Tb256 N287 2.660 . S
Tb256 N294 2.600 . S
Tb256 O300 2.546 . S
Tb256 O301 2.610 . S
Tb256 O303 2.320 . S
Tb256 O304 2.552 . S
Tb256 O305 2.413 . S
Tb256 O307 2.362 . S
Tb256 O308 2.421 . S
Tb256 C320 2.833 . S
C257 C260 1.432 . S
C257 C261 1.414 . S
C257 N264 1.359 . S
C258 C260 1.417 . S
C258 C262 1.432 . S
C258 C270 1.410 . S
C259 C261 1.444 . S
C259 C262 1.317 . S
C259 H282 0.929 . S
C260 C257 1.432 . S
C260 C258 1.417 . S
C260 N268 1.360 . S
C261 C257 1.414 . S
C261 C259 1.444 . S
C261 C266 1.385 . S
C262 C258 1.432 . S
C262 C259 1.317 . S
C262 H274 0.930 . S
C263 C265 1.392 . S
C263 C266 1.370 . S
C263 H275 0.931 . S
N264 C257 1.359 . S
N264 C265 1.327 . S
N264 Tb267 2.600 . S
C265 C263 1.392 . S
C265 N264 1.327 . S
C265 H272 0.930 . S
C266 C261 1.385 . S
C266 C263 1.370 . S
C266 H285 0.930 . S
Tb267 N264 2.600 . S
Tb267 N268 2.660 . S
Tb267 O301 2.362 . S
Tb267 O302 2.421 . S
Tb267 O306 2.546 . S
Tb267 O307 2.610 . S
Tb267 O309 2.320 . S
Tb267 O310 2.552 . S
Tb267 O311 2.413 . S
Tb267 C331 2.833 . S
N268 C260 1.360 . S
N268 Tb267 2.660 . S
N268 C269 1.305 . S
C269 N268 1.305 . S
C269 C271 1.407 . S
C269 H276 0.930 . S
C270 C258 1.410 . S
C270 C271 1.345 . S
C270 H278 0.930 . S
C271 C269 1.407 . S
C271 C270 1.345 . S
C271 H273 0.930 . S
H272 C265 0.930 . S
H273 C271 0.930 . S
H274 C262 0.930 . S
H275 C263 0.931 . S
H276 C269 0.930 . S
H277 C291 0.930 . S
H278 C270 0.930 . S
H279 C297 0.930 . S
H280 C288 0.930 . S
H281 C295 0.931 . S
H282 C259 0.929 . S
H283 C289 0.930 . S
H284 C322 0.930 . S
H285 C266 0.930 . S
H286 C321 0.929 . S
N287 Tb256 2.660 . S
N287 C288 1.305 . S
N287 C292 1.360 . S
C288 H280 0.930 . S
C288 N287 1.305 . S
C288 C291 1.407 . S
C289 H283 0.930 . S
C289 C290 1.410 . S
C289 C291 1.345 . S
C290 C289 1.410 . S
C290 C292 1.417 . S
C290 C322 1.432 . S
C291 H277 0.930 . S
C291 C288 1.407 . S
C291 C289 1.345 . S
C292 N287 1.360 . S
C292 C290 1.417 . S
C292 C296 1.432 . S
H293 C298 0.930 . S
N294 Tb256 2.600 . S
N294 C296 1.359 . S
N294 C297 1.327 . S
C295 H281 0.931 . S
C295 C297 1.392 . S
C295 C298 1.370 . S
C296 C292 1.432 . S
C296 N294 1.359 . S
C296 C299 1.414 . S
C297 H279 0.930 . S
C297 N294 1.327 . S
C297 C295 1.392 . S
C298 H293 0.930 . S
C298 C295 1.370 . S
C298 C299 1.385 . S
C299 C296 1.414 . S
C299 C298 1.385 . S
C299 C321 1.444 . S
O300 Tb256 2.546 . S
O300 C320 1.251 . S
O301 Tb256 2.610 . S
O301 Tb267 2.362 . S
O301 C312 1.283 . S
O302 Tb267 2.421 . S
O302 C319 1.262 . S
O303 Tb256 2.320 . S
O303 C319 1.260 . S
O304 Tb256 2.552 . S
O304 C312 1.243 . S
O305 Tb256 2.413 . S
O305 C320 1.256 . S
O306 Tb267 2.546 . S
O306 C331 1.251 . S
O307 Tb256 2.362 . S
O307 Tb267 2.610 . S
O307 C323 1.283 . S
O308 Tb256 2.421 . S
O308 C330 1.262 . S
O309 Tb267 2.320 . S
O309 C330 1.260 . S
O310 Tb267 2.552 . S
O310 C323 1.243 . S
O311 Tb267 2.413 . S
O311 C331 1.256 . S
C312 O301 1.283 . S
C312 O304 1.243 . S
C313 C315 1.382 . S
C313 C317 1.393 . S
C313 C320 1.500 . S
C314 C315 1.400 . S
C314 C316 1.384 . S
C315 C313 1.382 . S
C315 C314 1.400 . S
C315 H332 0.930 . S
C316 C314 1.384 . S
C316 C318 1.392 . S
C316 H333 0.931 . S
C317 C313 1.393 . S
C317 C318 1.401 . S
C317 H334 0.930 . S
C318 C316 1.392 . S
C318 C317 1.401 . S
C318 H335 0.930 . S
C319 O302 1.262 . S
C319 O303 1.260 . S
C320 Tb256 2.833 . S
C320 O300 1.251 . S
C320 O305 1.256 . S
C320 C313 1.500 . S
C321 H286 0.929 . S
C321 C299 1.444 . S
C321 C322 1.317 . S
C322 H284 0.930 . S
C322 C290 1.432 . S
C322 C321 1.317 . S
C323 O307 1.283 . S
C323 O310 1.243 . S
C324 C325 1.382 . S
C324 C328 1.393 . S
C324 C331 1.500 . S
C325 C324 1.382 . S
C325 C326 1.400 . S
C325 H336 0.930 . S
C326 C325 1.400 . S
C326 C327 1.384 . S
C327 C326 1.384 . S
C327 C329 1.392 . S
C327 H337 0.931 . S
C328 C324 1.393 . S
C328 C329 1.401 . S
C328 H338 0.930 . S
C329 C327 1.392 . S
C329 C328 1.401 . S
C329 H339 0.930 1_556 S
C330 O308 1.262 . S
C330 O309 1.260 . S
C331 Tb267 2.833 . S
C331 O306 1.251 . S
C331 O311 1.256 . S
C331 C324 1.500 . S
H332 C315 0.930 . S
H333 C316 0.931 . S
H334 C317 0.930 . S
H335 C318 0.930 . S
H336 C325 0.930 . S
H337 C327 0.931 . S
H338 C328 0.930 . S
H339 C329 0.930 1_554 S
Tb340 N371 2.660 . S
Tb340 N378 2.600 . S
Tb340 O384 2.546 . S
Tb340 O385 2.610 . S
Tb340 O387 2.320 . S
Tb340 O388 2.552 . S
Tb340 O389 2.413 . S
Tb340 O391 2.362 . S
Tb340 O392 2.421 1_455 S
Tb340 C404 2.833 . S
C341 C344 1.432 . S
C341 C345 1.414 . S
C341 N348 1.359 . S
C342 C344 1.417 . S
C342 C346 1.432 . S
C342 C354 1.410 . S
C343 C345 1.444 . S
C343 C346 1.317 . S
C343 H366 0.929 . S
C344 C341 1.432 . S
C344 C342 1.417 . S
C344 N352 1.360 . S
C345 C341 1.414 . S
C345 C343 1.444 . S
C345 C350 1.385 1_655 S
C346 C342 1.432 . S
C346 C343 1.317 . S
C346 H358 0.930 . S
C347 C349 1.392 . S
C347 C350 1.370 . S
C347 H359 0.931 . S
N348 C341 1.359 . S
N348 C349 1.327 1_655 S
N348 Tb351 2.600 . S
C349 C347 1.392 . S
C349 N348 1.327 1_455 S
C349 H356 0.930 . S
C350 C345 1.385 1_455 S
C350 C347 1.370 . S
C350 H369 0.930 . S
Tb351 N348 2.600 . S
Tb351 N352 2.660 . S
Tb351 O385 2.362 1_655 S
Tb351 O386 2.421 1_655 S
Tb351 O390 2.546 . S
Tb351 O391 2.610 1_655 S
Tb351 O393 2.320 . S
Tb351 O394 2.552 . S
Tb351 O395 2.413 . S
Tb351 C415 2.833 . S
N352 C344 1.360 . S
N352 Tb351 2.660 . S
N352 C353 1.305 . S
C353 N352 1.305 . S
C353 C355 1.407 . S
C353 H360 0.930 . S
C354 C342 1.410 . S
C354 C355 1.345 . S
C354 H362 0.930 . S
C355 C353 1.407 . S
C355 C354 1.345 . S
C355 H357 0.930 . S
H356 C349 0.930 . S
H357 C355 0.930 . S
H358 C346 0.930 . S
H359 C347 0.931 . S
H360 C353 0.930 . S
H361 C375 0.930 . S
H362 C354 0.930 . S
H363 C381 0.930 1_655 S
H364 C372 0.930 . S
H365 C379 0.931 1_655 S
H366 C343 0.929 . S
H367 C373 0.930 . S
H368 C406 0.930 . S
H369 C350 0.930 . S
H370 C405 0.929 . S
N371 Tb340 2.660 . S
N371 C372 1.305 . S
N371 C376 1.360 . S
C372 H364 0.930 . S
C372 N371 1.305 . S
C372 C375 1.407 . S
C373 H367 0.930 . S
C373 C374 1.410 . S
C373 C375 1.345 . S
C374 C373 1.410 . S
C374 C376 1.417 . S
C374 C406 1.432 . S
C375 H361 0.930 . S
C375 C372 1.407 . S
C375 C373 1.345 . S
C376 N371 1.360 . S
C376 C374 1.417 . S
C376 C380 1.432 . S
H377 C382 0.930 . S
N378 Tb340 2.600 . S
N378 C380 1.359 . S
N378 C381 1.327 . S
C379 H365 0.931 1_455 S
C379 C381 1.392 . S
C379 C382 1.370 . S
C380 C376 1.432 . S
C380 N378 1.359 . S
C380 C383 1.414 . S
C381 H363 0.930 1_455 S
C381 N378 1.327 . S
C381 C379 1.392 . S
C382 H377 0.930 . S
C382 C379 1.370 . S
C382 C383 1.385 . S
C383 C380 1.414 . S
C383 C382 1.385 . S
C383 C405 1.444 . S
O384 Tb340 2.546 . S
O384 C404 1.251 . S
O385 Tb340 2.610 . S
O385 Tb351 2.362 1_455 S
O385 C396 1.283 . S
O386 Tb351 2.421 1_455 S
O386 C403 1.262 . S
O387 Tb340 2.320 . S
O387 C403 1.260 . S
O388 Tb340 2.552 . S
O388 C396 1.243 . S
O389 Tb340 2.413 . S
O389 C404 1.256 . S
O390 Tb351 2.546 . S
O390 C415 1.251 . S
O391 Tb340 2.362 . S
O391 Tb351 2.610 1_455 S
O391 C407 1.283 1_455 S
O392 Tb340 2.421 1_655 S
O392 C414 1.262 . S
O393 Tb351 2.320 . S
O393 C414 1.260 . S
O394 Tb351 2.552 . S
O394 C407 1.243 . S
O395 Tb351 2.413 . S
O395 C415 1.256 . S
C396 O385 1.283 . S
C396 O388 1.243 . S
C397 C399 1.382 . S
C397 C401 1.393 . S
C397 C404 1.500 . S
C398 C399 1.400 . S
C398 C400 1.384 . S
C399 C397 1.382 . S
C399 C398 1.400 . S
C399 H416 0.930 . S
C400 C398 1.384 . S
C400 C402 1.392 . S
C400 H417 0.931 . S
C401 C397 1.393 . S
C401 C402 1.401 . S
C401 H418 0.930 . S
C402 C400 1.392 . S
C402 C401 1.401 . S
C402 H419 0.930 . S
C403 O386 1.262 . S
C403 O387 1.260 . S
C404 Tb340 2.833 . S
C404 O384 1.251 . S
C404 O389 1.256 . S
C404 C397 1.500 . S
C405 H370 0.929 . S
C405 C383 1.444 . S
C405 C406 1.317 . S
C406 H368 0.930 . S
C406 C374 1.432 . S
C406 C405 1.317 . S
C407 O391 1.283 1_655 S
C407 O394 1.243 . S
C408 C409 1.382 . S
C408 C412 1.393 . S
C408 C415 1.500 . S
C409 C408 1.382 . S
C409 C410 1.400 . S
C409 H420 0.930 . S
C410 C409 1.400 . S
C410 C411 1.384 . S
C411 C410 1.384 . S
C411 C413 1.392 . S
C411 H421 0.931 . S
C412 C408 1.393 . S
C412 C413 1.401 . S
C412 H422 0.930 . S
C413 C411 1.392 . S
C413 C412 1.401 . S
C413 H423 0.930 1_556 S
C414 O392 1.262 . S
C414 O393 1.260 . S
C415 Tb351 2.833 . S
C415 O390 1.251 . S
C415 O395 1.256 . S
C415 C408 1.500 . S
H416 C399 0.930 . S
H417 C400 0.931 . S
H418 C401 0.930 . S
H419 C402 0.930 . S
H420 C409 0.930 . S
H421 C411 0.931 . S
H422 C412 0.930 . S
H423 C413 0.930 1_554 S
H424 C442 0.951 . S
H425 C444 0.951 . S
H426 C446 0.950 . S
H427 C447 0.950 . S
H428 C449 0.950 . S
H429 C452 0.950 . S
H430 C453 0.950 . S
H431 C455 0.950 . S
H432 C456 0.950 . S
H433 C457 0.951 . S
H434 C459 0.951 . S
H435 C461 0.950 . S
H436 C462 0.950 1_565 S
H437 C464 0.950 . S
H438 C467 0.950 . S
H439 C468 0.950 . S
H440 C470 0.950 . S
H441 C471 0.950 . S
C442 H424 0.951 . S
C442 C443 1.366 . S
C442 C444 1.388 . S
C443 C442 1.366 . S
C443 C447 1.385 . S
C444 H425 0.951 . S
C444 C442 1.388 . S
C444 C445 1.366 . S
C445 C444 1.366 . S
C445 C446 1.414 . S
C445 C448 1.499 . S
C446 H426 0.950 . S
C446 C445 1.414 . S
C446 C447 1.374 . S
C447 H427 0.950 . S
C447 C443 1.385 . S
C447 C446 1.374 . S
C448 C445 1.499 . S
C448 C449 1.373 . S
C448 C450 1.389 . S
C449 H428 0.950 . S
C449 C448 1.373 . S
C449 C465 1.377 . S
C450 C448 1.389 . S
C450 C451 1.524 . S
C450 C464 1.377 . S
C451 C450 1.524 . S
C451 C452 1.397 . S
C451 C456 1.363 1_545 S
C452 H429 0.950 . S
C452 C451 1.397 . S
C452 C453 1.334 . S
C453 H430 0.950 . S
C453 C452 1.334 . S
C453 C454 1.287 1_545 S
C454 C453 1.287 1_565 S
C454 C455 1.524 . S
C454 H473 0.913 . S
C455 H431 0.950 . S
C455 C454 1.524 . S
C455 C456 1.415 . S
C456 H432 0.950 . S
C456 C451 1.363 1_565 S
C456 C455 1.415 . S
C457 H433 0.951 . S
C457 C458 1.366 . S
C457 C459 1.388 . S
C458 C457 1.366 . S
C458 C462 1.385 . S
C459 H434 0.951 . S
C459 C457 1.388 . S
C459 C460 1.366 . S
C460 C459 1.366 . S
C460 C461 1.414 . S
C460 C463 1.499 . S
C461 H435 0.950 . S
C461 C460 1.414 . S
C461 C462 1.374 . S
C462 H436 0.950 1_545 S
C462 C458 1.385 . S
C462 C461 1.374 . S
C463 C460 1.499 . S
C463 C464 1.373 . S
C463 C465 1.389 . S
C464 H437 0.950 . S
C464 C450 1.377 . S
C464 C463 1.373 . S
C465 C449 1.377 . S
C465 C463 1.389 . S
C465 C466 1.524 . S
C466 C465 1.524 . S
C466 C467 1.397 . S
C466 C471 1.363 . S
C467 H438 0.950 . S
C467 C466 1.397 . S
C467 C468 1.334 . S
C468 H439 0.950 . S
C468 C467 1.334 . S
C468 C469 1.287 . S
C469 C468 1.287 . S
C469 C470 1.524 . S
C469 H472 0.999 . S
C470 H440 0.950 . S
C470 C469 1.524 . S
C470 C471 1.415 . S
C471 H441 0.950 . S
C471 C466 1.363 . S
C471 C470 1.415 . S
H472 C469 0.999 . S
H473 C454 0.913 . S
H474 C492 0.951 . S
H475 C494 0.951 . S
H476 C496 0.950 . S
H477 C497 0.950 . S
H478 C499 0.950 . S
H479 C502 0.950 . S
H480 C503 0.950 . S
H481 C505 0.950 . S
H482 C506 0.950 . S
H483 C507 0.951 . S
H484 C509 0.951 . S
H485 C511 0.950 . S
H486 C512 0.950 . S
H487 C514 0.950 . S
H488 C517 0.950 . S
H489 C518 0.950 . S
H490 C520 0.950 . S
H491 C521 0.950 . S
C492 H474 0.951 . S
C492 C493 1.366 . S
C492 C494 1.388 . S
C493 C492 1.366 . S
C493 C497 1.385 . S
C494 H475 0.951 . S
C494 C492 1.388 . S
C494 C495 1.366 . S
C495 C494 1.366 . S
C495 C496 1.414 . S
C495 C498 1.499 . S
C496 H476 0.950 . S
C496 C495 1.414 . S
C496 C497 1.374 . S
C497 H477 0.950 . S
C497 C493 1.385 . S
C497 C496 1.374 . S
C498 C495 1.499 . S
C498 C499 1.373 . S
C498 C500 1.389 . S
C499 H478 0.950 . S
C499 C498 1.373 . S
C499 C515 1.377 . S
C500 C498 1.389 . S
C500 C501 1.524 . S
C500 C514 1.377 . S
C501 C500 1.524 . S
C501 C502 1.397 . S
C501 C506 1.363 . S
C502 H479 0.950 . S
C502 C501 1.397 . S
C502 C503 1.334 . S
C503 H480 0.950 . S
C503 C502 1.334 . S
C503 C504 1.287 . S
C504 C503 1.287 . S
C504 C505 1.524 . S
C504 H523 0.913 1_554 S
C505 H481 0.950 . S
C505 C504 1.524 . S
C505 C506 1.415 . S
C506 H482 0.950 . S
C506 C501 1.363 . S
C506 C505 1.415 . S
C507 H483 0.951 . S
C507 C508 1.366 . S
C507 C509 1.388 . S
C508 C507 1.366 . S
C508 C512 1.385 . S
C509 H484 0.951 . S
C509 C507 1.388 . S
C509 C510 1.366 . S
C510 C509 1.366 . S
C510 C511 1.414 . S
C510 C513 1.499 . S
C511 H485 0.950 . S
C511 C510 1.414 . S
C511 C512 1.374 . S
C512 H486 0.950 . S
C512 C508 1.385 . S
C512 C511 1.374 . S
C513 C510 1.499 . S
C513 C514 1.373 . S
C513 C515 1.389 . S
C514 H487 0.950 . S
C514 C500 1.377 . S
C514 C513 1.373 . S
C515 C499 1.377 . S
C515 C513 1.389 . S
C515 C516 1.524 . S
C516 C515 1.524 . S
C516 C517 1.397 . S
C516 C521 1.363 . S
C517 H488 0.950 . S
C517 C516 1.397 . S
C517 C518 1.334 . S
C518 H489 0.950 . S
C518 C517 1.334 . S
C518 C519 1.287 . S
C519 C518 1.287 . S
C519 C520 1.524 . S
C519 H522 0.999 . S
C520 H490 0.950 . S
C520 C519 1.524 . S
C520 C521 1.415 . S
C521 H491 0.950 . S
C521 C516 1.363 . S
C521 C520 1.415 . S
H522 C519 0.999 . S
H523 C504 0.913 1_556 S
H524 C542 0.951 . S
H525 C544 0.951 . S
H526 C546 0.950 . S
H527 C547 0.950 . S
H528 C549 0.950 . S
H529 C552 0.950 . S
H530 C553 0.950 . S
H531 C555 0.950 . S
H532 C556 0.950 . S
H533 C557 0.951 . S
H534 C559 0.951 . S
H535 C561 0.950 . S
H536 C562 0.950 . S
H537 C564 0.950 . S
H538 C567 0.950 . S
H539 C568 0.950 . S
H540 C570 0.950 . S
H541 C571 0.950 . S
C542 H524 0.951 . S
C542 C543 1.366 . S
C542 C544 1.388 . S
C543 C542 1.366 . S
C543 C547 1.385 . S
C544 H525 0.951 . S
C544 C542 1.388 . S
C544 C545 1.366 . S
C545 C544 1.366 . S
C545 C546 1.414 . S
C545 C548 1.499 . S
C546 H526 0.950 . S
C546 C545 1.414 . S
C546 C547 1.374 . S
C547 H527 0.950 . S
C547 C543 1.385 . S
C547 C546 1.374 . S
C548 C545 1.499 . S
C548 C549 1.373 . S
C548 C550 1.389 . S
C549 H528 0.950 . S
C549 C548 1.373 . S
C549 C565 1.377 . S
C550 C548 1.389 . S
C550 C551 1.524 . S
C550 C564 1.377 . S
C551 C550 1.524 . S
C551 C552 1.397 . S
C551 C556 1.363 . S
C552 H529 0.950 . S
C552 C551 1.397 . S
C552 C553 1.334 . S
C553 H530 0.950 . S
C553 C552 1.334 . S
C553 C554 1.287 . S
C554 C553 1.287 . S
C554 C555 1.524 . S
C554 H573 0.913 . S
C555 H531 0.950 . S
C555 C554 1.524 . S
C555 C556 1.415 . S
C556 H532 0.950 . S
C556 C551 1.363 . S
C556 C555 1.415 . S
C557 H533 0.951 . S
C557 C558 1.366 . S
C557 C559 1.388 . S
C558 C557 1.366 . S
C558 C562 1.385 . S
C559 H534 0.951 . S
C559 C557 1.388 . S
C559 C560 1.366 . S
C560 C559 1.366 . S
C560 C561 1.414 . S
C560 C563 1.499 . S
C561 H535 0.950 . S
C561 C560 1.414 . S
C561 C562 1.374 . S
C562 H536 0.950 . S
C562 C558 1.385 . S
C562 C561 1.374 . S
C563 C560 1.499 . S
C563 C564 1.373 . S
C563 C565 1.389 . S
C564 H537 0.950 . S
C564 C550 1.377 . S
C564 C563 1.373 . S
C565 C549 1.377 . S
C565 C563 1.389 . S
C565 C566 1.524 . S
C566 C565 1.524 . S
C566 C567 1.397 . S
C566 C571 1.363 . S
C567 H538 0.950 . S
C567 C566 1.397 . S
C567 C568 1.334 . S
C568 H539 0.950 . S
C568 C567 1.334 . S
C568 C569 1.287 . S
C569 C568 1.287 . S
C569 C570 1.524 . S
C569 H572 0.999 . S
C570 H540 0.950 . S
C570 C569 1.524 . S
C570 C571 1.415 . S
C571 H541 0.950 . S
C571 C566 1.363 . S
C571 C570 1.415 . S
H572 C569 0.999 . S
H573 C554 0.913 . S
H574 C592 0.951 . S
H575 C594 0.951 . S
H576 C596 0.950 . S
H577 C597 0.950 . S
H578 C599 0.950 . S
H579 C602 0.950 . S
H580 C603 0.950 . S
H581 C605 0.950 . S
H582 C606 0.950 . S
H583 C607 0.951 . S
H584 C609 0.951 . S
H585 C611 0.950 . S
H586 C612 0.950 . S
H587 C614 0.950 . S
H588 C617 0.950 . S
H589 C618 0.950 . S
H590 C620 0.950 . S
H591 C621 0.963 . S
C592 H574 0.951 . S
C592 C593 1.366 . S
C592 C594 1.388 . S
C593 C592 1.366 . S
C593 C597 1.385 . S
C594 H575 0.951 . S
C594 C592 1.388 . S
C594 C595 1.366 . S
C595 C594 1.366 . S
C595 C596 1.414 . S
C595 C598 1.499 . S
C596 H576 0.950 . S
C596 C595 1.414 . S
C596 C597 1.374 . S
C597 H577 0.950 . S
C597 C593 1.385 . S
C597 C596 1.374 . S
C598 C595 1.499 . S
C598 C599 1.373 . S
C598 C600 1.389 . S
C599 H578 0.950 . S
C599 C598 1.373 . S
C599 C615 1.377 . S
C600 C598 1.389 . S
C600 C601 1.524 . S
C600 C614 1.377 . S
C601 C600 1.524 . S
C601 C602 1.397 . S
C601 C606 1.363 . S
C602 H579 0.950 . S
C602 C601 1.397 . S
C602 C603 1.334 . S
C603 H580 0.950 . S
C603 C602 1.334 . S
C603 C604 1.287 . S
C604 C603 1.287 . S
C604 C605 1.524 . S
C604 H623 0.913 . S
C605 H581 0.950 . S
C605 C604 1.524 . S
C605 C606 1.415 . S
C606 H582 0.950 . S
C606 C601 1.363 . S
C606 C605 1.415 . S
C607 H583 0.951 . S
C607 C608 1.366 . S
C607 C609 1.388 . S
C608 C607 1.366 . S
C608 C612 1.385 . S
C609 H584 0.951 . S
C609 C607 1.388 . S
C609 C610 1.366 . S
C610 C609 1.366 . S
C610 C611 1.414 . S
C610 C613 1.499 . S
C611 H585 0.950 . S
C611 C610 1.414 . S
C611 C612 1.374 . S
C612 H586 0.950 . S
C612 C608 1.385 . S
C612 C611 1.374 . S
C613 C610 1.499 . S
C613 C614 1.373 . S
C613 C615 1.389 . S
C614 H587 0.950 . S
C614 C600 1.377 . S
C614 C613 1.373 . S
C615 C599 1.377 . S
C615 C613 1.389 . S
C615 C616 1.524 . S
C616 C615 1.524 . S
C616 C617 1.397 1_455 S
C616 C621 1.366 . S
C617 H588 0.950 . S
C617 C616 1.397 1_655 S
C617 C618 1.334 . S
C618 H589 0.950 . S
C618 C617 1.334 . S
C618 C619 1.287 . S
C619 C618 1.287 . S
C619 C620 1.524 . S
C619 H622 0.999 . S
C620 H590 0.950 . S
C620 C619 1.524 . S
C620 C621 1.400 1_655 S
C621 H591 0.963 . S
C621 C616 1.366 . S
C621 C620 1.400 1_455 S
H622 C619 0.999 . S
H623 C604 0.913 . S
H624 C642 0.951 . S
H625 C644 0.951 1_556 S
H626 C646 0.950 . S
H627 C647 0.950 . S
H628 C649 0.950 1_554 S
H629 C652 0.950 . S
H630 C653 0.950 . S
H631 C655 0.950 . S
H632 C656 0.950 . S
H633 C657 0.951 . S
H634 C659 0.951 . S
H635 C661 0.950 1_545 S
H636 C662 0.950 . S
H637 C664 0.950 . S
H638 C667 0.950 . S
H639 C668 0.950 . S
H640 C670 0.935 1_565 S
H641 C671 0.950 . S
C642 H624 0.951 . S
C642 C643 1.366 . S
C642 C644 1.388 . S
C643 C642 1.366 . S
C643 C647 1.385 . S
C644 H625 0.951 1_554 S
C644 C642 1.388 . S
C644 C645 1.366 . S
C645 C644 1.366 . S
C645 C646 1.414 . S
C645 C648 1.499 1_554 S
C646 H626 0.950 . S
C646 C645 1.414 . S
C646 C647 1.374 . S
C647 H627 0.950 . S
C647 C643 1.385 . S
C647 C646 1.374 . S
C648 C645 1.499 1_556 S
C648 C649 1.373 . S
C648 C650 1.389 . S
C649 H628 0.950 1_556 S
C649 C648 1.373 . S
C649 C665 1.377 . S
C650 C648 1.389 . S
C650 C651 1.524 . S
C650 C664 1.377 . S
C651 C650 1.524 . S
C651 C652 1.397 . S
C651 C656 1.363 . S
C652 H629 0.950 . S
C652 C651 1.397 . S
C652 C653 1.334 . S
C653 H630 0.950 . S
C653 C652 1.334 . S
C653 C654 1.287 . S
C654 C653 1.287 . S
C654 C655 1.524 . S
C654 H673 0.913 . S
C655 H631 0.950 . S
C655 C654 1.524 . S
C655 C656 1.415 . S
C656 H632 0.950 . S
C656 C651 1.363 . S
C656 C655 1.415 . S
C657 H633 0.951 . S
C657 C658 1.366 . S
C657 C659 1.388 . S
C658 C657 1.366 . S
C658 C662 1.385 1_565 S
C659 H634 0.951 . S
C659 C657 1.388 . S
C659 C660 1.366 . S
C660 C659 1.366 . S
C660 C661 1.414 . S
C660 C663 1.499 . S
C661 H635 0.950 1_565 S
C661 C660 1.414 . S
C661 C662 1.374 1_565 S
C662 H636 0.950 . S
C662 C658 1.385 1_545 S
C662 C661 1.374 1_545 S
C663 C660 1.499 . S
C663 C664 1.373 . S
C663 C665 1.389 . S
C664 H637 0.950 . S
C664 C650 1.377 . S
C664 C663 1.373 . S
C665 C649 1.377 . S
C665 C663 1.389 . S
C665 C666 1.524 . S
C666 C665 1.524 . S
C666 C667 1.397 1_565 S
C666 C671 1.363 1_556 S
C667 H638 0.950 . S
C667 C666 1.397 1_545 S
C667 C668 1.334 . S
C668 H639 0.950 . S
C668 C667 1.334 . S
C668 C669 1.287 1_556 S
C669 C668 1.287 1_554 S
C669 C670 1.566 . S
C669 H672 0.999 . S
C670 H640 0.935 1_545 S
C670 C669 1.566 . S
C670 C671 1.391 1_545 S
C671 H641 0.950 . S
C671 C666 1.363 1_554 S
C671 C670 1.391 1_565 S
H672 C669 0.999 . S
H673 C654 0.913 . S
H674 C692 0.951 . S
H675 C694 0.951 . S
H676 C696 0.958 . S
H677 C697 0.950 . S
H678 C699 0.950 . S
H679 C702 0.950 1_556 S
H680 C703 0.950 . S
H681 C705 0.950 . S
H682 C706 0.950 . S
H683 C707 0.951 . S
H684 C709 0.951 . S
H685 C711 0.950 . S
H686 C712 0.950 . S
H687 C714 0.950 . S
H688 C717 0.950 . S
H689 C718 0.950 . S
H690 C720 0.950 . S
H691 C721 0.950 . S
C692 H674 0.951 . S
C692 C693 1.366 . S
C692 C694 1.388 . S
C693 C692 1.366 . S
C693 C697 1.385 . S
C694 H675 0.951 . S
C694 C692 1.388 . S
C694 C695 1.366 . S
C695 C694 1.366 . S
C695 C696 1.412 1_554 S
C695 C698 1.499 1_554 S
C696 H676 0.958 . S
C696 C695 1.412 1_556 S
C696 C697 1.369 1_556 S
C697 H677 0.950 . S
C697 C693 1.385 . S
C697 C696 1.369 1_554 S
C698 C695 1.499 1_556 S
C698 C699 1.373 . S
C698 C700 1.389 . S
C699 H678 0.950 . S
C699 C698 1.373 . S
C699 C715 1.377 . S
C700 C698 1.389 . S
C700 C701 1.524 1_556 S
C700 C714 1.377 . S
C701 C700 1.524 1_554 S
C701 C702 1.397 . S
C701 C706 1.363 . S
C702 H679 0.950 1_554 S
C702 C701 1.397 . S
C702 C703 1.334 . S
C703 H680 0.950 . S
C703 C702 1.334 . S
C703 C704 1.287 . S
C704 C703 1.287 . S
C704 C705 1.524 . S
C704 H723 0.913 . S
C705 H681 0.950 . S
C705 C704 1.524 . S
C705 C706 1.415 . S
C706 H682 0.950 . S
C706 C701 1.363 . S
C706 C705 1.415 . S
C707 H683 0.951 . S
C707 C708 1.366 . S
C707 C709 1.388 . S
C708 C707 1.366 . S
C708 C712 1.385 . S
C709 H684 0.951 . S
C709 C707 1.388 . S
C709 C710 1.366 . S
C710 C709 1.366 . S
C710 C711 1.414 . S
C710 C713 1.499 . S
C711 H685 0.950 . S
C711 C710 1.414 . S
C711 C712 1.374 . S
C712 H686 0.950 . S
C712 C708 1.385 . S
C712 C711 1.374 . S
C713 C710 1.499 . S
C713 C714 1.373 . S
C713 C715 1.389 . S
C714 H687 0.950 . S
C714 C700 1.377 . S
C714 C713 1.373 . S
C715 C699 1.377 . S
C715 C713 1.389 . S
C715 C716 1.524 . S
C716 C715 1.524 . S
C716 C717 1.397 . S
C716 C721 1.363 . S
C717 H688 0.950 . S
C717 C716 1.397 . S
C717 C718 1.334 . S
C718 H689 0.950 . S
C718 C717 1.334 . S
C718 C719 1.287 . S
C719 C718 1.287 . S
C719 C720 1.524 . S
C719 H722 0.999 . S
C720 H690 0.950 . S
C720 C719 1.524 . S
C720 C721 1.415 . S
C721 H691 0.950 . S
C721 C716 1.363 . S
C721 C720 1.415 . S
H722 C719 0.999 . S
H723 C704 0.913 . S
H724 C742 0.951 . S
H725 C744 0.951 . S
H726 C746 0.950 . S
H727 C747 0.950 . S
H728 C749 0.950 1_554 S
H729 C752 0.950 . S
H730 C753 0.950 . S
H731 C755 0.950 . S
H732 C756 0.950 . S
H733 C757 0.951 . S
H734 C759 0.951 . S
H735 C761 0.950 . S
H736 C762 0.950 . S
H737 C764 0.950 . S
H738 C767 0.950 . S
H739 C768 0.950 . S
H740 C770 0.950 . S
H741 C771 0.950 . S
C742 H724 0.951 . S
C742 C743 1.366 . S
C742 C744 1.388 1_554 S
C743 C742 1.366 . S
C743 C747 1.385 . S
C744 H725 0.951 . S
C744 C742 1.388 1_556 S
C744 C745 1.366 1_556 S
C745 C744 1.366 1_554 S
C745 C746 1.414 . S
C745 C748 1.499 1_554 S
C746 H726 0.950 . S
C746 C745 1.414 . S
C746 C747 1.374 . S
C747 H727 0.950 . S
C747 C743 1.385 . S
C747 C746 1.374 . S
C748 C745 1.499 1_556 S
C748 C749 1.373 . S
C748 C750 1.389 . S
C749 H728 0.950 1_556 S
C749 C748 1.373 . S
C749 C765 1.377 . S
C750 C748 1.389 . S
C750 C751 1.524 . S
C750 C764 1.377 . S
C751 C750 1.524 . S
C751 C752 1.397 . S
C751 C756 1.363 . S
C752 H729 0.950 . S
C752 C751 1.397 . S
C752 C753 1.334 . S
C753 H730 0.950 . S
C753 C752 1.334 . S
C753 C754 1.287 . S
C754 C753 1.287 . S
C754 C755 1.524 . S
C754 H773 0.913 . S
C755 H731 0.950 . S
C755 C754 1.524 . S
C755 C756 1.415 . S
C756 H732 0.950 . S
C756 C751 1.363 . S
C756 C755 1.415 . S
C757 H733 0.951 . S
C757 C758 1.366 . S
C757 C759 1.388 . S
C758 C757 1.366 . S
C758 C762 1.385 . S
C759 H734 0.951 . S
C759 C757 1.388 . S
C759 C760 1.366 . S
C760 C759 1.366 . S
C760 C761 1.414 . S
C760 C763 1.499 . S
C761 H735 0.950 . S
C761 C760 1.414 . S
C761 C762 1.374 . S
C762 H736 0.950 . S
C762 C758 1.385 . S
C762 C761 1.374 . S
C763 C760 1.499 . S
C763 C764 1.373 . S
C763 C765 1.389 . S
C764 H737 0.950 . S
C764 C750 1.377 . S
C764 C763 1.373 . S
C765 C749 1.377 . S
C765 C763 1.389 . S
C765 C766 1.524 . S
C766 C765 1.524 . S
C766 C767 1.397 . S
C766 C771 1.363 1_556 S
C767 H738 0.950 . S
C767 C766 1.397 . S
C767 C768 1.334 . S
C768 H739 0.950 . S
C768 C767 1.334 . S
C768 C769 1.287 . S
C769 C768 1.287 . S
C769 C770 1.524 1_556 S
C769 H772 0.999 . S
C770 H740 0.950 . S
C770 C769 1.524 1_554 S
C770 C771 1.415 . S
C771 H741 0.950 . S
C771 C766 1.363 1_554 S
C771 C770 1.415 . S
H772 C769 0.999 . S
H773 C754 0.913 . S
H774 C792 0.951 . S
H775 C794 0.951 . S
H776 C796 0.950 1_556 S
H777 C797 0.950 . S
H778 C799 0.950 . S
H779 C802 0.950 . S
H780 C803 0.950 1_455 S
H781 C805 0.950 . S
H782 C806 0.950 . S
H783 C807 0.951 1_455 S
H784 C809 0.951 . S
H785 C811 0.950 . S
H786 C812 0.950 . S
H787 C814 0.950 . S
H788 C817 0.950 . S
H789 C818 0.950 . S
H790 C820 0.950 . S
H791 C821 0.950 . S
C792 H774 0.951 . S
C792 C793 1.366 . S
C792 C794 1.388 . S
C793 C792 1.366 . S
C793 C797 1.385 . S
C794 H775 0.951 . S
C794 C792 1.388 . S
C794 C795 1.366 . S
C795 C794 1.366 . S
C795 C796 1.414 . S
C795 C798 1.499 1_554 S
C796 H776 0.950 1_554 S
C796 C795 1.414 . S
C796 C797 1.374 . S
C797 H777 0.950 . S
C797 C793 1.385 . S
C797 C796 1.374 . S
C798 C795 1.499 1_556 S
C798 C799 1.373 . S
C798 C800 1.389 . S
C799 H778 0.950 . S
C799 C798 1.373 . S
C799 C815 1.377 . S
C800 C798 1.389 . S
C800 C801 1.524 1_556 S
C800 C814 1.377 . S
C801 C800 1.524 1_554 S
C801 C802 1.397 . S
C801 C806 1.363 . S
C802 H779 0.950 . S
C802 C801 1.397 . S
C802 C803 1.334 . S
C803 H780 0.950 1_655 S
C803 C802 1.334 . S
C803 C804 1.287 . S
C804 C803 1.287 . S
C804 C805 1.524 . S
C804 H823 0.913 . S
C805 H781 0.950 . S
C805 C804 1.524 . S
C805 C806 1.415 . S
C806 H782 0.950 . S
C806 C801 1.363 . S
C806 C805 1.415 . S
C807 H783 0.951 1_655 S
C807 C808 1.366 . S
C807 C809 1.388 . S
C808 C807 1.366 . S
C808 C812 1.385 . S
C809 H784 0.951 . S
C809 C807 1.388 . S
C809 C810 1.366 . S
C810 C809 1.366 . S
C810 C811 1.414 . S
C810 C813 1.499 . S
C811 H785 0.950 . S
C811 C810 1.414 . S
C811 C812 1.374 . S
C812 H786 0.950 . S
C812 C808 1.385 . S
C812 C811 1.374 . S
C813 C810 1.499 . S
C813 C814 1.373 . S
C813 C815 1.389 . S
C814 H787 0.950 . S
C814 C800 1.377 . S
C814 C813 1.373 . S
C815 C799 1.377 . S
C815 C813 1.389 . S
C815 C816 1.524 . S
C816 C815 1.524 . S
C816 C817 1.397 . S
C816 C821 1.363 . S
C817 H788 0.950 . S
C817 C816 1.397 . S
C817 C818 1.334 . S
C818 H789 0.950 . S
C818 C817 1.334 . S
C818 C819 1.287 . S
C819 C818 1.287 . S
C819 C820 1.524 . S
C819 H822 0.999 . S
C820 H790 0.950 . S
C820 C819 1.524 . S
C820 C821 1.415 . S
C821 H791 0.950 . S
C821 C816 1.363 . S
C821 C820 1.415 . S
H822 C819 0.999 . S
H823 C804 0.913 . S
H824 C842 0.951 . S
H825 C844 0.951 . S
H826 C846 0.950 . S
H827 C847 0.950 . S
H828 C849 0.950 . S
H829 C852 0.950 . S
H830 C853 0.950 . S
H831 C855 0.950 . S
H832 C856 0.934 1_655 S
H833 C857 0.951 . S
H834 C859 0.951 . S
H835 C861 0.950 1_655 S
H836 C862 0.950 . S
H837 C864 0.950 . S
H838 C867 0.950 . S
H839 C868 0.950 . S
H840 C870 0.950 . S
H841 C871 0.950 . S
C842 H824 0.951 . S
C842 C843 1.366 . S
C842 C844 1.388 . S
C843 C842 1.366 . S
C843 C847 1.385 . S
C844 H825 0.951 . S
C844 C842 1.388 . S
C844 C845 1.366 . S
C845 C844 1.366 . S
C845 C846 1.414 . S
C845 C848 1.499 . S
C846 H826 0.950 . S
C846 C845 1.414 . S
C846 C847 1.374 . S
C847 H827 0.950 . S
C847 C843 1.385 . S
C847 C846 1.374 . S
C848 C845 1.499 . S
C848 C849 1.373 . S
C848 C850 1.389 . S
C849 H828 0.950 . S
C849 C848 1.373 . S
C849 C865 1.377 . S
C850 C848 1.389 . S
C850 C851 1.524 . S
C850 C864 1.377 . S
C851 C850 1.524 . S
C851 C852 1.397 . S
C851 C856 1.389 . S
C852 H829 0.950 . S
C852 C851 1.397 . S
C852 C853 1.334 . S
C853 H830 0.950 . S
C853 C852 1.334 . S
C853 C854 1.287 . S
C854 C853 1.287 . S
C854 C855 1.524 1_455 S
C854 H873 0.913 . S
C855 H831 0.950 . S
C855 C854 1.524 1_655 S
C855 C856 1.405 1_655 S
C856 H832 0.934 1_455 S
C856 C851 1.389 . S
C856 C855 1.405 1_455 S
C857 H833 0.951 . S
C857 C858 1.366 . S
C857 C859 1.388 . S
C858 C857 1.366 . S
C858 C862 1.385 1_455 S
C859 H834 0.951 . S
C859 C857 1.388 . S
C859 C860 1.366 . S
C860 C859 1.366 . S
C860 C861 1.414 . S
C860 C863 1.499 . S
C861 H835 0.950 1_455 S
C861 C860 1.414 . S
C861 C862 1.374 1_455 S
C862 H836 0.950 . S
C862 C858 1.385 1_655 S
C862 C861 1.374 1_655 S
C863 C860 1.499 . S
C863 C864 1.373 . S
C863 C865 1.389 . S
C864 H837 0.950 . S
C864 C850 1.377 . S
C864 C863 1.373 . S
C865 C849 1.377 . S
C865 C863 1.389 . S
C865 C866 1.524 . S
C866 C865 1.524 . S
C866 C867 1.397 . S
C866 C871 1.363 . S
C867 H838 0.950 . S
C867 C866 1.397 . S
C867 C868 1.334 . S
C868 H839 0.950 . S
C868 C867 1.334 . S
C868 C869 1.287 . S
C869 C868 1.287 . S
C869 C870 1.524 . S
C869 H872 0.999 . S
C870 H840 0.950 . S
C870 C869 1.524 . S
C870 C871 1.415 . S
C871 H841 0.950 . S
C871 C866 1.363 . S
C871 C870 1.415 . S
H872 C869 0.999 . S
H873 C854 0.913 . S
H874 C892 0.951 . S
H875 C894 0.951 . S
H876 C896 0.950 . S
H877 C897 0.950 1_556 S
H878 C899 0.950 . S
H879 C902 0.950 . S
H880 C903 0.950 . S
H881 C905 0.950 . S
H882 C906 0.950 . S
H883 C907 0.951 . S
H884 C909 0.951 . S
H885 C911 0.950 . S
H886 C912 0.950 . S
H887 C914 0.950 . S
H888 C917 0.950 . S
H889 C918 0.950 . S
H890 C920 0.950 . S
H891 C921 0.950 1_545 S
C892 H874 0.951 . S
C892 C893 1.366 . S
C892 C894 1.388 . S
C893 C892 1.366 . S
C893 C897 1.385 . S
C894 H875 0.951 . S
C894 C892 1.388 . S
C894 C895 1.366 . S
C895 C894 1.366 . S
C895 C896 1.414 . S
C895 C898 1.499 . S
C896 H876 0.950 . S
C896 C895 1.414 . S
C896 C897 1.374 . S
C897 H877 0.950 1_554 S
C897 C893 1.385 . S
C897 C896 1.374 . S
C898 C895 1.499 . S
C898 C899 1.373 . S
C898 C900 1.389 . S
C899 H878 0.950 . S
C899 C898 1.373 . S
C899 C915 1.377 . S
C900 C898 1.389 . S
C900 C901 1.524 . S
C900 C914 1.377 . S
C901 C900 1.524 . S
C901 C902 1.397 . S
C901 C906 1.363 . S
C902 H879 0.950 . S
C902 C901 1.397 . S
C902 C903 1.334 . S
C903 H880 0.950 . S
C903 C902 1.334 . S
C903 C904 1.287 . S
C904 C903 1.287 . S
C904 C905 1.524 . S
C904 H923 0.913 . S
C905 H881 0.950 . S
C905 C904 1.524 . S
C905 C906 1.415 . S
C906 H882 0.950 . S
C906 C901 1.363 . S
C906 C905 1.415 . S
C907 H883 0.951 . S
C907 C908 1.366 . S
C907 C909 1.388 . S
C908 C907 1.366 . S
C908 C912 1.385 . S
C909 H884 0.951 . S
C909 C907 1.388 . S
C909 C910 1.366 . S
C910 C909 1.366 . S
C910 C911 1.414 . S
C910 C913 1.499 . S
C911 H885 0.950 . S
C911 C910 1.414 . S
C911 C912 1.374 . S
C912 H886 0.950 . S
C912 C908 1.385 . S
C912 C911 1.374 . S
C913 C910 1.499 . S
C913 C914 1.373 . S
C913 C915 1.389 . S
C914 H887 0.950 . S
C914 C900 1.377 . S
C914 C913 1.373 . S
C915 C899 1.377 . S
C915 C913 1.389 . S
C915 C916 1.524 1_545 S
C916 C915 1.524 1_565 S
C916 C917 1.397 . S
C916 C921 1.363 . S
C917 H888 0.950 . S
C917 C916 1.397 . S
C917 C918 1.334 . S
C918 H889 0.950 . S
C918 C917 1.334 . S
C918 C919 1.287 . S
C919 C918 1.287 . S
C919 C920 1.524 . S
C919 H922 0.999 . S
C920 H890 0.950 . S
C920 C919 1.524 . S
C920 C921 1.415 . S
C921 H891 0.950 1_565 S
C921 C916 1.363 . S
C921 C920 1.415 . S
H922 C919 0.999 . S
H923 C904 0.913 . S
H924 C942 0.951 . S
H925 C944 0.951 . S
H926 C946 0.950 . S
H927 C947 0.950 . S
H928 C949 0.950 . S
H929 C952 0.950 . S
H930 C953 0.950 . S
H931 C955 0.950 . S
H932 C956 0.950 . S
H933 C957 0.951 . S
H934 C959 0.951 . S
H935 C961 0.950 . S
H936 C962 0.950 . S
H937 C964 0.950 . S
H938 C967 0.950 . S
H939 C968 0.950 . S
H940 C970 0.950 . S
H941 C971 0.950 . S
C942 H924 0.951 . S
C942 C943 1.366 . S
C942 C944 1.388 . S
C943 C942 1.366 . S
C943 C947 1.385 . S
C944 H925 0.951 . S
C944 C942 1.388 . S
C944 C945 1.366 . S
C945 C944 1.366 . S
C945 C946 1.414 . S
C945 C948 1.499 . S
C946 H926 0.950 . S
C946 C945 1.414 . S
C946 C947 1.374 . S
C947 H927 0.950 . S
C947 C943 1.385 . S
C947 C946 1.374 . S
C948 C945 1.499 . S
C948 C949 1.373 . S
C948 C950 1.389 . S
C949 H928 0.950 . S
C949 C948 1.373 . S
C949 C965 1.377 . S
C950 C948 1.389 . S
C950 C951 1.524 . S
C950 C964 1.377 . S
C951 C950 1.524 . S
C951 C952 1.397 . S
C951 C956 1.363 . S
C952 H929 0.950 . S
C952 C951 1.397 . S
C952 C953 1.334 . S
C953 H930 0.950 . S
C953 C952 1.334 . S
C953 C954 1.287 . S
C954 C953 1.287 . S
C954 C955 1.524 . S
C954 H973 0.913 . S
C955 H931 0.950 . S
C955 C954 1.524 . S
C955 C956 1.415 . S
C956 H932 0.950 . S
C956 C951 1.363 . S
C956 C955 1.415 . S
C957 H933 0.951 . S
C957 C958 1.366 . S
C957 C959 1.388 . S
C958 C957 1.366 . S
C958 C962 1.385 . S
C959 H934 0.951 . S
C959 C957 1.388 . S
C959 C960 1.366 . S
C960 C959 1.366 . S
C960 C961 1.414 . S
C960 C963 1.499 . S
C961 H935 0.950 . S
C961 C960 1.414 . S
C961 C962 1.374 . S
C962 H936 0.950 . S
C962 C958 1.385 . S
C962 C961 1.374 . S
C963 C960 1.499 . S
C963 C964 1.373 . S
C963 C965 1.389 . S
C964 H937 0.950 . S
C964 C950 1.377 . S
C964 C963 1.373 . S
C965 C949 1.377 . S
C965 C963 1.389 . S
C965 C966 1.524 . S
C966 C965 1.524 . S
C966 C967 1.397 . S
C966 C971 1.363 . S
C967 H938 0.950 . S
C967 C966 1.397 . S
C967 C968 1.334 . S
C968 H939 0.950 . S
C968 C967 1.334 . S
C968 C969 1.287 . S
C969 C968 1.287 . S
C969 C970 1.524 . S
C969 H972 0.999 . S
C970 H940 0.950 . S
C970 C969 1.524 . S
C970 C971 1.415 . S
C971 H941 0.950 . S
C971 C966 1.363 . S
C971 C970 1.415 . S
H972 C969 0.999 . S
H973 C954 0.913 . S
H974 C992 0.951 . S
H975 C994 0.951 . S
H976 C996 0.950 . S
H977 C997 0.950 . S
H978 C999 0.950 . S
H979 C1002 0.950 . S
H980 C1003 0.950 . S
H981 C1005 0.950 . S
H982 C1006 0.950 . S
H983 C1007 0.951 . S
H984 C1009 0.951 . S
H985 C1011 0.950 . S
H986 C1012 0.950 . S
H987 C1014 0.950 . S
H988 C1017 0.950 . S
H989 C1018 0.950 . S
H990 C1020 0.950 . S
H991 C1021 0.950 . S
C992 H974 0.951 . S
C992 C993 1.366 . S
C992 C994 1.388 . S
C993 C992 1.366 . S
C993 C997 1.385 . S
C994 H975 0.951 . S
C994 C992 1.388 . S
C994 C995 1.366 . S
C995 C994 1.366 . S
C995 C996 1.414 . S
C995 C998 1.499 . S
C996 H976 0.950 . S
C996 C995 1.414 . S
C996 C997 1.374 . S
C997 H977 0.950 . S
C997 C993 1.385 . S
C997 C996 1.374 . S
C998 C995 1.499 . S
C998 C999 1.373 . S
C998 C1000 1.389 . S
C999 H978 0.950 . S
C999 C998 1.373 . S
C999 C1015 1.377 . S
C1000 C998 1.389 . S
C1000 C1001 1.524 . S
C1000 C1014 1.377 . S
C1001 C1000 1.524 . S
C1001 C1002 1.397 . S
C1001 C1006 1.363 . S
C1002 H979 0.950 . S
C1002 C1001 1.397 . S
C1002 C1003 1.334 1_554 S
C1003 H980 0.950 . S
C1003 C1002 1.334 1_556 S
C1003 C1004 1.287 . S
C1004 C1003 1.287 . S
C1004 C1005 1.524 . S
C1004 H1023 0.913 . S
C1005 H981 0.950 . S
C1005 C1004 1.524 . S
C1005 C1006 1.415 1_556 S
C1006 H982 0.950 . S
C1006 C1001 1.363 . S
C1006 C1005 1.415 1_554 S
C1007 H983 0.951 . S
C1007 C1008 1.366 . S
C1007 C1009 1.388 . S
C1008 C1007 1.366 . S
C1008 C1012 1.385 . S
C1009 H984 0.951 . S
C1009 C1007 1.388 . S
C1009 C1010 1.366 . S
C1010 C1009 1.366 . S
C1010 C1011 1.414 . S
C1010 C1013 1.499 . S
C1011 H985 0.950 . S
C1011 C1010 1.414 . S
C1011 C1012 1.374 . S
C1012 H986 0.950 . S
C1012 C1008 1.385 . S
C1012 C1011 1.374 . S
C1013 C1010 1.499 . S
C1013 C1014 1.373 . S
C1013 C1015 1.389 . S
C1014 H987 0.950 . S
C1014 C1000 1.377 . S
C1014 C1013 1.373 . S
C1015 C999 1.377 . S
C1015 C1013 1.389 . S
C1015 C1016 1.524 . S
C1016 C1015 1.524 . S
C1016 C1017 1.397 . S
C1016 C1021 1.363 . S
C1017 H988 0.950 . S
C1017 C1016 1.397 . S
C1017 C1018 1.334 . S
C1018 H989 0.950 . S
C1018 C1017 1.334 . S
C1018 C1019 1.287 . S
C1019 C1018 1.287 . S
C1019 C1020 1.524 . S
C1019 H1022 0.999 . S
C1020 H990 0.950 . S
C1020 C1019 1.524 . S
C1020 C1021 1.415 . S
C1021 H991 0.950 . S
C1021 C1016 1.363 . S
C1021 C1020 1.415 . S
H1022 C1019 0.999 . S
H1023 C1004 0.913 . S
H1024 C1042 0.951 . S
H1025 C1044 0.951 . S
H1026 C1046 0.950 . S
H1027 C1047 0.950 . S
H1028 C1049 0.950 . S
H1029 C1052 0.950 . S
H1030 C1053 0.950 . S
H1031 C1055 0.950 . S
H1032 C1056 0.950 . S
H1033 C1057 0.951 . S
H1034 C1059 0.951 . S
H1035 C1061 0.950 . S
H1036 C1062 0.950 . S
H1037 C1064 0.950 . S
H1038 C1067 0.950 . S
H1039 C1068 0.950 . S
H1040 C1070 0.950 . S
H1041 C1071 0.950 . S
C1042 H1024 0.951 . S
C1042 C1043 1.366 . S
C1042 C1044 1.388 . S
C1043 C1042 1.366 . S
C1043 C1047 1.385 . S
C1044 H1025 0.951 . S
C1044 C1042 1.388 . S
C1044 C1045 1.366 . S
C1045 C1044 1.366 . S
C1045 C1046 1.414 . S
C1045 C1048 1.499 . S
C1046 H1026 0.950 . S
C1046 C1045 1.414 . S
C1046 C1047 1.374 . S
C1047 H1027 0.950 . S
C1047 C1043 1.385 . S
C1047 C1046 1.374 . S
C1048 C1045 1.499 . S
C1048 C1049 1.373 . S
C1048 C1050 1.389 . S
C1049 H1028 0.950 . S
C1049 C1048 1.373 . S
C1049 C1065 1.377 1_554 S
C1050 C1048 1.389 . S
C1050 C1051 1.524 . S
C1050 C1064 1.377 1_554 S
C1051 C1050 1.524 . S
C1051 C1052 1.397 1_554 S
C1051 C1056 1.363 . S
C1052 H1029 0.950 . S
C1052 C1051 1.397 1_556 S
C1052 C1053 1.334 . S
C1053 H1030 0.950 . S
C1053 C1052 1.334 . S
C1053 C1054 1.287 . S
C1054 C1053 1.287 . S
C1054 C1055 1.524 1_556 S
C1054 H1073 0.913 . S
C1055 H1031 0.950 . S
C1055 C1054 1.524 1_554 S
C1055 C1056 1.415 . S
C1056 H1032 0.950 . S
C1056 C1051 1.363 . S
C1056 C1055 1.415 . S
C1057 H1033 0.951 . S
C1057 C1058 1.366 . S
C1057 C1059 1.388 . S
C1058 C1057 1.366 . S
C1058 C1062 1.385 1_455 S
C1059 H1034 0.951 . S
C1059 C1057 1.388 . S
C1059 C1060 1.366 1_455 S
C1060 C1059 1.366 1_655 S
C1060 C1061 1.414 . S
C1060 C1063 1.499 . S
C1061 H1035 0.950 . S
C1061 C1060 1.414 . S
C1061 C1062 1.374 . S
C1062 H1036 0.950 . S
C1062 C1058 1.385 1_655 S
C1062 C1061 1.374 . S
C1063 C1060 1.499 . S
C1063 C1064 1.373 . S
C1063 C1065 1.389 . S
C1064 H1037 0.950 . S
C1064 C1050 1.377 1_556 S
C1064 C1063 1.373 . S
C1065 C1049 1.377 1_556 S
C1065 C1063 1.389 . S
C1065 C1066 1.524 1_656 S
C1066 C1065 1.524 1_454 S
C1066 C1067 1.397 . S
C1066 C1071 1.363 1_554 S
C1067 H1038 0.950 . S
C1067 C1066 1.397 . S
C1067 C1068 1.334 . S
C1068 H1039 0.950 . S
C1068 C1067 1.334 . S
C1068 C1069 1.287 . S
C1069 C1068 1.287 . S
C1069 C1070 1.524 1_554 S
C1069 H1072 0.999 . S
C1070 H1040 0.950 . S
C1070 C1069 1.524 1_556 S
C1070 C1071 1.415 . S
C1071 H1041 0.950 . S
C1071 C1066 1.363 1_556 S
C1071 C1070 1.415 . S
H1072 C1069 0.999 . S
H1073 C1054 0.913 . S
H1074 C1092 0.951 . S
H1075 C1094 0.951 . S
H1076 C1096 0.950 . S
H1077 C1097 0.950 . S
H1078 C1099 0.950 . S
H1079 C1102 0.962 . S
H1080 C1103 0.950 . S
H1081 C1105 0.950 . S
H1082 C1106 0.950 1_556 S
H1083 C1107 0.951 . S
H1084 C1109 0.951 . S
H1085 C1111 0.950 . S
H1086 C1112 0.950 . S
H1087 C1114 1.009 . S
H1088 C1117 0.950 . S
H1089 C1118 0.950 . S
H1090 C1120 0.950 . S
H1091 C1121 0.950 1_554 S
C1092 H1074 0.951 . S
C1092 C1093 1.366 . S
C1092 C1094 1.388 . S
C1093 C1092 1.366 . S
C1093 C1097 1.385 . S
C1094 H1075 0.951 . S
C1094 C1092 1.388 . S
C1094 C1095 1.366 . S
C1095 C1094 1.366 . S
C1095 C1096 1.414 . S
C1095 C1098 1.499 . S
C1096 H1076 0.950 . S
C1096 C1095 1.414 . S
C1096 C1097 1.374 . S
C1097 H1077 0.950 . S
C1097 C1093 1.385 . S
C1097 C1096 1.374 . S
C1098 C1095 1.499 . S
C1098 C1099 1.373 . S
C1098 C1100 1.389 . S
C1099 H1078 0.950 . S
C1099 C1098 1.373 . S
C1099 C1115 1.377 1_554 S
C1100 C1098 1.389 . S
C1100 C1101 1.524 1_565 S
C1100 C1114 1.360 1_564 S
C1101 C1100 1.524 1_545 S
C1101 C1102 1.397 . S
C1101 C1106 1.363 . S
C1102 H1079 0.962 . S
C1102 C1101 1.397 . S
C1102 C1103 1.334 . S
C1103 H1080 0.950 . S
C1103 C1102 1.334 . S
C1103 C1104 1.287 . S
C1104 C1103 1.287 . S
C1104 C1105 1.524 . S
C1104 H1123 0.913 . S
C1105 H1081 0.950 . S
C1105 C1104 1.524 . S
C1105 C1106 1.415 . S
C1106 H1082 0.950 1_554 S
C1106 C1101 1.363 . S
C1106 C1105 1.415 . S
C1107 H1083 0.951 . S
C1107 C1108 1.366 1_565 S
C1107 C1109 1.388 . S
C1108 C1107 1.366 1_545 S
C1108 C1112 1.385 . S
C1109 H1084 0.951 . S
C1109 C1107 1.388 . S
C1109 C1110 1.366 . S
C1110 C1109 1.366 . S
C1110 C1111 1.414 1_565 S
C1110 C1113 1.499 . S
C1111 H1085 0.950 . S
C1111 C1110 1.414 1_545 S
C1111 C1112 1.374 . S
C1112 H1086 0.950 . S
C1112 C1108 1.385 . S
C1112 C1111 1.374 . S
C1113 C1110 1.499 . S
C1113 C1114 1.334 1_565 S
C1113 C1115 1.389 . S
C1114 H1087 1.009 . S
C1114 C1100 1.360 1_546 S
C1114 C1113 1.334 1_545 S
C1115 C1099 1.377 1_556 S
C1115 C1113 1.389 . S
C1115 C1116 1.524 . S
C1116 C1115 1.524 . S
C1116 C1117 1.397 . S
C1116 C1121 1.363 . S
C1117 H1088 0.950 . S
C1117 C1116 1.397 . S
C1117 C1118 1.334 . S
C1118 H1089 0.950 . S
C1118 C1117 1.334 . S
C1118 C1119 1.287 . S
C1119 C1118 1.287 . S
C1119 C1120 1.524 . S
C1119 H1122 0.999 . S
C1120 H1090 0.950 . S
C1120 C1119 1.524 . S
C1120 C1121 1.415 . S
C1121 H1091 0.950 1_556 S
C1121 C1116 1.363 . S
C1121 C1120 1.415 . S
H1122 C1119 0.999 . S
H1123 C1104 0.913 . S
H1124 C1142 0.951 . S
H1125 C1144 0.951 . S
H1126 C1146 0.950 1_556 S
H1127 C1147 0.950 . S
H1128 C1149 0.950 . S
H1129 C1152 0.950 . S
H1130 C1153 0.950 . S
H1131 C1155 0.950 . S
H1132 C1156 0.950 . S
H1133 C1157 0.951 . S
H1134 C1159 0.951 . S
H1135 C1161 0.950 1_554 S
H1136 C1162 0.950 . S
H1137 C1164 0.950 . S
H1138 C1167 0.950 . S
H1139 C1168 0.950 . S
H1140 C1170 0.950 . S
H1141 C1171 0.950 . S
C1142 H1124 0.951 . S
C1142 C1143 1.366 . S
C1142 C1144 1.388 . S
C1143 C1142 1.366 . S
C1143 C1147 1.385 . S
C1144 H1125 0.951 . S
C1144 C1142 1.388 . S
C1144 C1145 1.366 . S
C1145 C1144 1.366 . S
C1145 C1146 1.414 . S
C1145 C1148 1.499 . S
C1146 H1126 0.950 1_554 S
C1146 C1145 1.414 . S
C1146 C1147 1.374 . S
C1147 H1127 0.950 . S
C1147 C1143 1.385 . S
C1147 C1146 1.374 . S
C1148 C1145 1.499 . S
C1148 C1149 1.373 1_554 S
C1148 C1150 1.389 . S
C1149 H1128 0.950 . S
C1149 C1148 1.373 1_556 S
C1149 C1165 1.377 . S
C1150 C1148 1.389 . S
C1150 C1151 1.524 . S
C1150 C1164 1.377 . S
C1151 C1150 1.524 . S
C1151 C1152 1.397 . S
C1151 C1156 1.363 . S
C1152 H1129 0.950 . S
C1152 C1151 1.397 . S
C1152 C1153 1.334 . S
C1153 H1130 0.950 . S
C1153 C1152 1.334 . S
C1153 C1154 1.287 . S
C1154 C1153 1.287 . S
C1154 C1155 1.524 . S
C1154 H1173 0.913 . S
C1155 H1131 0.950 . S
C1155 C1154 1.524 . S
C1155 C1156 1.415 . S
C1156 H1132 0.950 . S
C1156 C1151 1.363 . S
C1156 C1155 1.415 . S
C1157 H1133 0.951 . S
C1157 C1158 1.366 . S
C1157 C1159 1.388 . S
C1158 C1157 1.366 . S
C1158 C1162 1.385 . S
C1159 H1134 0.951 . S
C1159 C1157 1.388 . S
C1159 C1160 1.366 . S
C1160 C1159 1.366 . S
C1160 C1161 1.414 . S
C1160 C1163 1.499 . S
C1161 H1135 0.950 1_556 S
C1161 C1160 1.414 . S
C1161 C1162 1.374 . S
C1162 H1136 0.950 . S
C1162 C1158 1.385 . S
C1162 C1161 1.374 . S
C1163 C1160 1.499 . S
C1163 C1164 1.373 1_556 S
C1163 C1165 1.389 . S
C1164 H1137 0.950 . S
C1164 C1150 1.377 . S
C1164 C1163 1.373 1_554 S
C1165 C1149 1.377 . S
C1165 C1163 1.389 . S
C1165 C1166 1.524 . S
C1166 C1165 1.524 . S
C1166 C1167 1.397 . S
C1166 C1171 1.363 . S
C1167 H1138 0.950 . S
C1167 C1166 1.397 . S
C1167 C1168 1.334 . S
C1168 H1139 0.950 . S
C1168 C1167 1.334 . S
C1168 C1169 1.287 . S
C1169 C1168 1.287 . S
C1169 C1170 1.524 . S
C1169 H1172 0.999 . S
C1170 H1140 0.950 . S
C1170 C1169 1.524 . S
C1170 C1171 1.415 . S
C1171 H1141 0.950 . S
C1171 C1166 1.363 . S
C1171 C1170 1.415 . S
H1172 C1169 0.999 . S
H1173 C1154 0.913 . S
H1174 C1192 0.951 . S
H1175 C1194 0.951 . S
H1176 C1196 0.950 . S
H1177 C1197 0.950 . S
H1178 C1199 0.950 . S
H1179 C1202 0.950 . S
H1180 C1203 0.950 . S
H1181 C1205 0.950 1_554 S
H1182 C1206 0.950 . S
H1183 C1207 0.951 . S
H1184 C1209 0.951 . S
H1185 C1211 0.950 . S
H1186 C1212 0.950 . S
H1187 C1214 0.950 . S
H1188 C1217 0.950 . S
H1189 C1218 0.950 . S
H1190 C1220 0.950 . S
H1191 C1221 0.950 1_556 S
C1192 H1174 0.951 . S
C1192 C1193 1.366 . S
C1192 C1194 1.388 . S
C1193 C1192 1.366 . S
C1193 C1197 1.385 . S
C1194 H1175 0.951 . S
C1194 C1192 1.388 . S
C1194 C1195 1.366 . S
C1195 C1194 1.366 . S
C1195 C1196 1.414 . S
C1195 C1198 1.499 . S
C1196 H1176 0.950 . S
C1196 C1195 1.414 . S
C1196 C1197 1.374 . S
C1197 H1177 0.950 . S
C1197 C1193 1.385 . S
C1197 C1196 1.374 . S
C1198 C1195 1.499 . S
C1198 C1199 1.373 . S
C1198 C1200 1.389 . S
C1199 H1178 0.950 . S
C1199 C1198 1.373 . S
C1199 C1215 1.377 . S
C1200 C1198 1.389 . S
C1200 C1201 1.524 1_554 S
C1200 C1214 1.377 1_554 S
C1201 C1200 1.524 1_556 S
C1201 C1202 1.397 . S
C1201 C1206 1.363 1_556 S
C1202 H1179 0.950 . S
C1202 C1201 1.397 . S
C1202 C1203 1.334 . S
C1203 H1180 0.950 . S
C1203 C1202 1.334 . S
C1203 C1204 1.287 . S
C1204 C1203 1.287 . S
C1204 C1205 1.524 . S
C1204 H1223 0.913 . S
C1205 H1181 0.950 1_556 S
C1205 C1204 1.524 . S
C1205 C1206 1.415 1_556 S
C1206 H1182 0.950 . S
C1206 C1201 1.363 1_554 S
C1206 C1205 1.415 1_554 S
C1207 H1183 0.951 . S
C1207 C1208 1.366 . S
C1207 C1209 1.388 . S
C1208 C1207 1.366 . S
C1208 C1212 1.385 . S
C1209 H1184 0.951 . S
C1209 C1207 1.388 . S
C1209 C1210 1.366 . S
C1210 C1209 1.366 . S
C1210 C1211 1.414 . S
C1210 C1213 1.499 . S
C1211 H1185 0.950 . S
C1211 C1210 1.414 . S
C1211 C1212 1.374 . S
C1212 H1186 0.950 . S
C1212 C1208 1.385 . S
C1212 C1211 1.374 . S
C1213 C1210 1.499 . S
C1213 C1214 1.373 . S
C1213 C1215 1.389 1_556 S
C1214 H1187 0.950 . S
C1214 C1200 1.377 1_556 S
C1214 C1213 1.373 . S
C1215 C1199 1.377 . S
C1215 C1213 1.389 1_554 S
C1215 C1216 1.524 . S
C1216 C1215 1.524 . S
C1216 C1217 1.397 . S
C1216 C1221 1.363 . S
C1217 H1188 0.950 . S
C1217 C1216 1.397 . S
C1217 C1218 1.334 . S
C1218 H1189 0.950 . S
C1218 C1217 1.334 . S
C1218 C1219 1.287 . S
C1219 C1218 1.287 . S
C1219 C1220 1.524 . S
C1219 H1222 0.999 . S
C1220 H1190 0.950 . S
C1220 C1219 1.524 . S
C1220 C1221 1.415 . S
C1221 H1191 0.950 1_554 S
C1221 C1216 1.363 . S
C1221 C1220 1.415 . S
H1222 C1219 0.999 . S
H1223 C1204 0.913 . S
H1224 C1242 0.951 . S
H1225 C1244 0.951 . S
H1226 C1246 0.950 . S
H1227 C1247 0.950 . S
H1228 C1249 0.950 . S
H1229 C1252 0.950 . S
H1230 C1253 0.950 . S
H1231 C1255 0.950 . S
H1232 C1256 0.951 1_455 S
H1233 C1257 0.951 . S
H1234 C1259 0.951 . S
H1235 C1261 0.950 . S
H1236 C1262 0.950 . S
H1237 C1264 0.950 . S
H1238 C1267 0.950 . S
H1239 C1268 0.950 . S
H1240 C1270 0.950 . S
H1241 C1271 0.950 . S
C1242 H1224 0.951 . S
C1242 C1243 1.366 . S
C1242 C1244 1.388 . S
C1243 C1242 1.366 . S
C1243 C1247 1.385 . S
C1244 H1225 0.951 . S
C1244 C1242 1.388 . S
C1244 C1245 1.366 . S
C1245 C1244 1.366 . S
C1245 C1246 1.414 . S
C1245 C1248 1.499 . S
C1246 H1226 0.950 . S
C1246 C1245 1.414 . S
C1246 C1247 1.374 . S
C1247 H1227 0.950 . S
C1247 C1243 1.385 . S
C1247 C1246 1.374 . S
C1248 C1245 1.499 . S
C1248 C1249 1.373 . S
C1248 C1250 1.389 . S
C1249 H1228 0.950 . S
C1249 C1248 1.373 . S
C1249 C1265 1.377 . S
C1250 C1248 1.389 . S
C1250 C1251 1.524 . S
C1250 C1264 1.377 . S
C1251 C1250 1.524 . S
C1251 C1252 1.397 . S
C1251 C1256 1.363 1_455 S
C1252 H1229 0.950 . S
C1252 C1251 1.397 . S
C1252 C1253 1.334 1_455 S
C1253 H1230 0.950 . S
C1253 C1252 1.334 1_655 S
C1253 C1254 1.287 . S
C1254 C1253 1.287 . S
C1254 C1255 1.524 . S
C1254 H1273 0.913 . S
C1255 H1231 0.950 . S
C1255 C1254 1.524 . S
C1255 C1256 1.415 . S
C1256 H1232 0.951 1_655 S
C1256 C1251 1.363 1_655 S
C1256 C1255 1.415 . S
C1257 H1233 0.951 . S
C1257 C1258 1.366 . S
C1257 C1259 1.388 . S
C1258 C1257 1.366 . S
C1258 C1262 1.385 . S
C1259 H1234 0.951 . S
C1259 C1257 1.388 . S
C1259 C1260 1.366 . S
C1260 C1259 1.366 . S
C1260 C1261 1.414 . S
C1260 C1263 1.499 . S
C1261 H1235 0.950 . S
C1261 C1260 1.414 . S
C1261 C1262 1.374 . S
C1262 H1236 0.950 . S
C1262 C1258 1.385 . S
C1262 C1261 1.374 . S
C1263 C1260 1.499 . S
C1263 C1264 1.373 . S
C1263 C1265 1.389 . S
C1264 H1237 0.950 . S
C1264 C1250 1.377 . S
C1264 C1263 1.373 . S
C1265 C1249 1.377 . S
C1265 C1263 1.389 . S
C1265 C1266 1.524 . S
C1266 C1265 1.524 . S
C1266 C1267 1.397 . S
C1266 C1271 1.363 . S
C1267 H1238 0.950 . S
C1267 C1266 1.397 . S
C1267 C1268 1.334 . S
C1268 H1239 0.950 . S
C1268 C1267 1.334 . S
C1268 C1269 1.287 . S
C1269 C1268 1.287 . S
C1269 C1270 1.524 . S
C1269 H1272 0.999 . S
C1270 H1240 0.950 . S
C1270 C1269 1.524 . S
C1270 C1271 1.415 . S
C1271 H1241 0.950 . S
C1271 C1266 1.363 . S
C1271 C1270 1.415 . S
H1272 C1269 0.999 . S
H1273 C1254 0.913 . S
H1274 C1292 0.951 . S
H1275 C1294 0.951 . S
H1276 C1296 0.950 . S
H1277 C1297 0.950 . S
H1278 C1299 0.950 . S
H1279 C1302 0.950 . S
H1280 C1303 0.956 . S
H1281 C1305 0.950 . S
H1282 C1306 0.950 . S
H1283 C1307 0.951 . S
H1284 C1309 0.951 . S
H1285 C1311 0.950 . S
H1286 C1312 0.918 1_565 S
H1287 C1314 0.950 . S
H1288 C1317 0.950 . S
H1289 C1318 0.950 . S
H1290 C1320 0.950 . S
H1291 C1321 0.950 . S
C1292 H1274 0.951 . S
C1292 C1293 1.366 . S
C1292 C1294 1.388 . S
C1293 C1292 1.366 . S
C1293 C1297 1.385 . S
C1294 H1275 0.951 . S
C1294 C1292 1.388 . S
C1294 C1295 1.366 . S
C1295 C1294 1.366 . S
C1295 C1296 1.414 . S
C1295 C1298 1.499 . S
C1296 H1276 0.950 . S
C1296 C1295 1.414 . S
C1296 C1297 1.374 . S
C1297 H1277 0.950 . S
C1297 C1293 1.385 . S
C1297 C1296 1.374 . S
C1298 C1295 1.499 . S
C1298 C1299 1.373 . S
C1298 C1300 1.389 . S
C1299 H1278 0.950 . S
C1299 C1298 1.373 . S
C1299 C1315 1.377 . S
C1300 C1298 1.389 . S
C1300 C1301 1.524 . S
C1300 C1314 1.377 . S
C1301 C1300 1.524 . S
C1301 C1302 1.397 . S
C1301 C1306 1.363 1_545 S
C1302 H1279 0.950 . S
C1302 C1301 1.397 . S
C1302 C1303 1.329 1_556 S
C1303 H1280 0.956 . S
C1303 C1302 1.329 1_554 S
C1303 C1304 1.286 1_544 S
C1304 C1303 1.286 1_566 S
C1304 C1305 1.524 . S
C1304 H1323 0.913 1_556 S
C1305 H1281 0.950 . S
C1305 C1304 1.524 . S
C1305 C1306 1.415 . S
C1306 H1282 0.950 . S
C1306 C1301 1.363 1_565 S
C1306 C1305 1.415 . S
C1307 H1283 0.951 . S
C1307 C1308 1.366 . S
C1307 C1309 1.388 . S
C1308 C1307 1.366 . S
C1308 C1312 1.385 . S
C1309 H1284 0.951 . S
C1309 C1307 1.388 . S
C1309 C1310 1.366 . S
C1310 C1309 1.366 . S
C1310 C1311 1.414 . S
C1310 C1313 1.499 . S
C1311 H1285 0.950 . S
C1311 C1310 1.414 . S
C1311 C1312 1.374 . S
C1312 H1286 0.918 1_545 S
C1312 C1308 1.385 . S
C1312 C1311 1.374 . S
C1313 C1310 1.499 . S
C1313 C1314 1.373 . S
C1313 C1315 1.389 . S
C1314 H1287 0.950 . S
C1314 C1300 1.377 . S
C1314 C1313 1.373 . S
C1315 C1299 1.377 . S
C1315 C1313 1.389 . S
C1315 C1316 1.524 . S
C1316 C1315 1.524 . S
C1316 C1317 1.397 . S
C1316 C1321 1.363 . S
C1317 H1288 0.950 . S
C1317 C1316 1.397 . S
C1317 C1318 1.334 . S
C1318 H1289 0.950 . S
C1318 C1317 1.334 . S
C1318 C1319 1.287 . S
C1319 C1318 1.287 . S
C1319 C1320 1.524 . S
C1319 H1322 0.999 . S
C1320 H1290 0.950 . S
C1320 C1319 1.524 . S
C1320 C1321 1.415 . S
C1321 H1291 0.950 . S
C1321 C1316 1.363 . S
C1321 C1320 1.415 . S
H1322 C1319 0.999 . S
H1323 C1304 0.913 1_554 S
H1324 C1342 0.951 . S
H1325 C1344 0.951 . S
H1326 C1346 0.950 . S
H1327 C1347 0.950 . S
H1328 C1349 0.950 . S
H1329 C1352 0.950 . S
H1330 C1353 0.950 . S
H1331 C1355 0.950 . S
H1332 C1356 0.950 . S
H1333 C1357 0.951 . S
H1334 C1359 0.951 . S
H1335 C1361 0.950 . S
H1336 C1362 0.950 . S
H1337 C1364 0.950 . S
H1338 C1367 0.950 . S
H1339 C1368 0.950 . S
H1340 C1370 0.950 . S
H1341 C1371 0.950 . S
C1342 H1324 0.951 . S
C1342 C1343 1.366 . S
C1342 C1344 1.388 . S
C1343 C1342 1.366 . S
C1343 C1347 1.385 . S
C1344 H1325 0.951 . S
C1344 C1342 1.388 . S
C1344 C1345 1.366 . S
C1345 C1344 1.366 . S
C1345 C1346 1.414 . S
C1345 C1348 1.499 . S
C1346 H1326 0.950 . S
C1346 C1345 1.414 . S
C1346 C1347 1.374 . S
C1347 H1327 0.950 . S
C1347 C1343 1.385 . S
C1347 C1346 1.374 . S
C1348 C1345 1.499 . S
C1348 C1349 1.373 . S
C1348 C1350 1.389 . S
C1349 H1328 0.950 . S
C1349 C1348 1.373 . S
C1349 C1365 1.377 . S
C1350 C1348 1.389 . S
C1350 C1351 1.524 . S
C1350 C1364 1.377 . S
C1351 C1350 1.524 . S
C1351 C1352 1.397 . S
C1351 C1356 1.363 . S
C1352 H1329 0.950 . S
C1352 C1351 1.397 . S
C1352 C1353 1.334 . S
C1353 H1330 0.950 . S
C1353 C1352 1.334 . S
C1353 C1354 1.287 . S
C1354 C1353 1.287 . S
C1354 C1355 1.524 . S
C1354 H1373 0.913 . S
C1355 H1331 0.950 . S
C1355 C1354 1.524 . S
C1355 C1356 1.415 . S
C1356 H1332 0.950 . S
C1356 C1351 1.363 . S
C1356 C1355 1.415 . S
C1357 H1333 0.951 . S
C1357 C1358 1.366 . S
C1357 C1359 1.388 . S
C1358 C1357 1.366 . S
C1358 C1362 1.385 . S
C1359 H1334 0.951 . S
C1359 C1357 1.388 . S
C1359 C1360 1.366 . S
C1360 C1359 1.366 . S
C1360 C1361 1.414 . S
C1360 C1363 1.499 . S
C1361 H1335 0.950 . S
C1361 C1360 1.414 . S
C1361 C1362 1.374 . S
C1362 H1336 0.950 . S
C1362 C1358 1.385 . S
C1362 C1361 1.374 . S
C1363 C1360 1.499 . S
C1363 C1364 1.373 . S
C1363 C1365 1.389 . S
C1364 H1337 0.950 . S
C1364 C1350 1.377 . S
C1364 C1363 1.373 . S
C1365 C1349 1.377 . S
C1365 C1363 1.389 . S
C1365 C1366 1.524 . S
C1366 C1365 1.524 . S
C1366 C1367 1.397 . S
C1366 C1371 1.363 . S
C1367 H1338 0.950 . S
C1367 C1366 1.397 . S
C1367 C1368 1.334 . S
C1368 H1339 0.950 . S
C1368 C1367 1.334 . S
C1368 C1369 1.287 . S
C1369 C1368 1.287 . S
C1369 C1370 1.524 . S
C1369 H1372 0.999 . S
C1370 H1340 0.950 . S
C1370 C1369 1.524 . S
C1370 C1371 1.415 . S
C1371 H1341 0.950 . S
C1371 C1366 1.363 . S
C1371 C1370 1.415 . S
H1372 C1369 0.999 . S
H1373 C1354 0.913 . S
H1374 C1392 0.951 . S
H1375 C1394 0.951 . S
H1376 C1396 0.950 . S
H1377 C1397 0.950 . S
H1378 C1399 0.950 . S
H1379 C1402 0.950 . S
H1380 C1403 0.950 . S
H1381 C1405 0.950 . S
H1382 C1406 0.950 . S
H1383 C1407 0.951 . S
H1384 C1409 0.951 . S
H1385 C1411 0.950 . S
H1386 C1412 0.950 . S
H1387 C1414 0.950 . S
H1388 C1417 0.950 . S
H1389 C1418 0.950 . S
H1390 C1420 0.950 . S
H1391 C1421 0.950 . S
C1392 H1374 0.951 . S
C1392 C1393 1.366 . S
C1392 C1394 1.388 . S
C1393 C1392 1.366 . S
C1393 C1397 1.385 . S
C1394 H1375 0.951 . S
C1394 C1392 1.388 . S
C1394 C1395 1.366 . S
C1395 C1394 1.366 . S
C1395 C1396 1.414 . S
C1395 C1398 1.499 . S
C1396 H1376 0.950 . S
C1396 C1395 1.414 . S
C1396 C1397 1.374 . S
C1397 H1377 0.950 . S
C1397 C1393 1.385 . S
C1397 C1396 1.374 . S
C1398 C1395 1.499 . S
C1398 C1399 1.373 . S
C1398 C1400 1.389 . S
C1399 H1378 0.950 . S
C1399 C1398 1.373 . S
C1399 C1415 1.377 . S
C1400 C1398 1.389 . S
C1400 C1401 1.524 . S
C1400 C1414 1.377 . S
C1401 C1400 1.524 . S
C1401 C1402 1.397 . S
C1401 C1406 1.363 . S
C1402 H1379 0.950 . S
C1402 C1401 1.397 . S
C1402 C1403 1.334 . S
C1403 H1380 0.950 . S
C1403 C1402 1.334 . S
C1403 C1404 1.287 . S
C1404 C1403 1.287 . S
C1404 C1405 1.524 . S
C1404 H1423 0.913 . S
C1405 H1381 0.950 . S
C1405 C1404 1.524 . S
C1405 C1406 1.415 . S
C1406 H1382 0.950 . S
C1406 C1401 1.363 . S
C1406 C1405 1.415 . S
C1407 H1383 0.951 . S
C1407 C1408 1.366 . S
C1407 C1409 1.388 . S
C1408 C1407 1.366 . S
C1408 C1412 1.385 . S
C1409 H1384 0.951 . S
C1409 C1407 1.388 . S
C1409 C1410 1.366 . S
C1410 C1409 1.366 . S
C1410 C1411 1.414 . S
C1410 C1413 1.499 . S
C1411 H1385 0.950 . S
C1411 C1410 1.414 . S
C1411 C1412 1.374 . S
C1412 H1386 0.950 . S
C1412 C1408 1.385 . S
C1412 C1411 1.374 . S
C1413 C1410 1.499 . S
C1413 C1414 1.373 . S
C1413 C1415 1.389 . S
C1414 H1387 0.950 . S
C1414 C1400 1.377 . S
C1414 C1413 1.373 . S
C1415 C1399 1.377 . S
C1415 C1413 1.389 . S
C1415 C1416 1.524 . S
C1416 C1415 1.524 . S
C1416 C1417 1.397 . S
C1416 C1421 1.363 . S
C1417 H1388 0.950 . S
C1417 C1416 1.397 . S
C1417 C1418 1.334 . S
C1418 H1389 0.950 . S
C1418 C1417 1.334 . S
C1418 C1419 1.287 . S
C1419 C1418 1.287 . S
C1419 C1420 1.524 . S
C1419 H1422 0.999 . S
C1420 H1390 0.950 . S
C1420 C1419 1.524 . S
C1420 C1421 1.415 . S
C1421 H1391 0.950 . S
C1421 C1416 1.363 . S
C1421 C1420 1.415 . S
H1422 C1419 0.999 . S
H1423 C1404 0.913 . S
H1424 C1442 0.951 . S
H1425 C1444 0.951 . S
H1426 C1446 0.950 . S
H1427 C1447 0.950 . S
H1428 C1449 0.950 . S
H1429 C1452 0.950 1_655 S
H1430 C1453 0.950 . S
H1431 C1455 0.950 . S
H1432 C1456 0.950 . S
H1433 C1457 0.951 . S
H1434 C1459 0.951 . S
H1435 C1461 0.950 . S
H1436 C1462 0.950 1_455 S
H1437 C1464 0.950 1_455 S
H1438 C1467 0.950 . S
H1439 C1468 0.950 . S
H1440 C1470 0.950 . S
H1441 C1471 0.950 . S
C1442 H1424 0.951 . S
C1442 C1443 1.366 . S
C1442 C1444 1.388 . S
C1443 C1442 1.366 . S
C1443 C1447 1.385 . S
C1444 H1425 0.951 . S
C1444 C1442 1.388 . S
C1444 C1445 1.366 . S
C1445 C1444 1.366 . S
C1445 C1446 1.414 . S
C1445 C1448 1.499 . S
C1446 H1426 0.950 . S
C1446 C1445 1.414 . S
C1446 C1447 1.374 . S
C1447 H1427 0.950 . S
C1447 C1443 1.385 . S
C1447 C1446 1.374 . S
C1448 C1445 1.499 . S
C1448 C1449 1.373 . S
C1448 C1450 1.389 . S
C1449 H1428 0.950 . S
C1449 C1448 1.373 . S
C1449 C1465 1.377 . S
C1450 C1448 1.389 . S
C1450 C1451 1.524 1_655 S
C1450 C1464 1.377 . S
C1451 C1450 1.524 1_455 S
C1451 C1452 1.397 . S
C1451 C1456 1.363 . S
C1452 H1429 0.950 1_455 S
C1452 C1451 1.397 . S
C1452 C1453 1.334 . S
C1453 H1430 0.950 . S
C1453 C1452 1.334 . S
C1453 C1454 1.287 . S
C1454 C1453 1.287 . S
C1454 C1455 1.524 . S
C1454 H1473 0.913 . S
C1455 H1431 0.950 . S
C1455 C1454 1.524 . S
C1455 C1456 1.415 . S
C1456 H1432 0.950 . S
C1456 C1451 1.363 . S
C1456 C1455 1.415 . S
C1457 H1433 0.951 . S
C1457 C1458 1.366 . S
C1457 C1459 1.388 . S
C1458 C1457 1.366 . S
C1458 C1462 1.385 . S
C1459 H1434 0.951 . S
C1459 C1457 1.388 . S
C1459 C1460 1.366 . S
C1460 C1459 1.366 . S
C1460 C1461 1.414 . S
C1460 C1463 1.499 . S
C1461 H1435 0.950 . S
C1461 C1460 1.414 . S
C1461 C1462 1.374 . S
C1462 H1436 0.950 1_655 S
C1462 C1458 1.385 . S
C1462 C1461 1.374 . S
C1463 C1460 1.499 . S
C1463 C1464 1.373 . S
C1463 C1465 1.389 . S
C1464 H1437 0.950 1_655 S
C1464 C1450 1.377 . S
C1464 C1463 1.373 . S
C1465 C1449 1.377 . S
C1465 C1463 1.389 . S
C1465 C1466 1.524 . S
C1466 C1465 1.524 . S
C1466 C1467 1.397 . S
C1466 C1471 1.363 . S
C1467 H1438 0.950 . S
C1467 C1466 1.397 . S
C1467 C1468 1.334 . S
C1468 H1439 0.950 . S
C1468 C1467 1.334 . S
C1468 C1469 1.287 . S
C1469 C1468 1.287 . S
C1469 C1470 1.524 . S
C1469 H1472 0.999 . S
C1470 H1440 0.950 . S
C1470 C1469 1.524 . S
C1470 C1471 1.415 . S
C1471 H1441 0.950 . S
C1471 C1466 1.363 . S
C1471 C1470 1.415 . S
H1472 C1469 0.999 . S
H1473 C1454 0.913 . S
H1474 C1492 0.951 . S
H1475 C1494 0.951 . S
H1476 C1496 0.950 . S
H1477 C1497 0.950 . S
H1478 C1499 0.950 . S
H1479 C1502 0.950 . S
H1480 C1503 0.950 . S
H1481 C1505 0.950 . S
H1482 C1506 0.950 . S
H1483 C1507 0.951 . S
H1484 C1509 0.970 . S
H1485 C1511 0.950 . S
H1486 C1512 0.950 . S
H1487 C1514 0.950 . S
H1488 C1517 0.950 . S
H1489 C1518 0.950 . S
H1490 C1520 0.950 . S
H1491 C1521 0.950 . S
C1492 H1474 0.951 . S
C1492 C1493 1.366 . S
C1492 C1494 1.388 . S
C1493 C1492 1.366 . S
C1493 C1497 1.385 . S
C1494 H1475 0.951 . S
C1494 C1492 1.388 . S
C1494 C1495 1.366 . S
C1495 C1494 1.366 . S
C1495 C1496 1.414 . S
C1495 C1498 1.499 . S
C1496 H1476 0.950 . S
C1496 C1495 1.414 . S
C1496 C1497 1.374 . S
C1497 H1477 0.950 . S
C1497 C1493 1.385 . S
C1497 C1496 1.374 . S
C1498 C1495 1.499 . S
C1498 C1499 1.373 . S
C1498 C1500 1.389 . S
C1499 H1478 0.950 . S
C1499 C1498 1.373 . S
C1499 C1515 1.377 . S
C1500 C1498 1.389 . S
C1500 C1501 1.524 . S
C1500 C1514 1.377 . S
C1501 C1500 1.524 . S
C1501 C1502 1.397 . S
C1501 C1506 1.363 . S
C1502 H1479 0.950 . S
C1502 C1501 1.397 . S
C1502 C1503 1.334 . S
C1503 H1480 0.950 . S
C1503 C1502 1.334 . S
C1503 C1504 1.287 . S
C1504 C1503 1.287 . S
C1504 C1505 1.524 . S
C1504 H1523 0.913 . S
C1505 H1481 0.950 . S
C1505 C1504 1.524 . S
C1505 C1506 1.415 . S
C1506 H1482 0.950 . S
C1506 C1501 1.363 . S
C1506 C1505 1.415 . S
C1507 H1483 0.951 . S
C1507 C1508 1.366 1_545 S
C1507 C1509 1.393 . S
C1508 C1507 1.366 1_565 S
C1508 C1512 1.385 . S
C1509 H1484 0.970 . S
C1509 C1507 1.393 . S
C1509 C1510 1.342 1_545 S
C1510 C1509 1.342 1_565 S
C1510 C1511 1.414 . S
C1510 C1513 1.499 . S
C1511 H1485 0.950 . S
C1511 C1510 1.414 . S
C1511 C1512 1.374 . S
C1512 H1486 0.950 . S
C1512 C1508 1.385 . S
C1512 C1511 1.374 . S
C1513 C1510 1.499 . S
C1513 C1514 1.373 . S
C1513 C1515 1.389 . S
C1514 H1487 0.950 . S
C1514 C1500 1.377 . S
C1514 C1513 1.373 . S
C1515 C1499 1.377 . S
C1515 C1513 1.389 . S
C1515 C1516 1.524 . S
C1516 C1515 1.524 . S
C1516 C1517 1.397 . S
C1516 C1521 1.363 1_565 S
C1517 H1488 0.950 . S
C1517 C1516 1.397 . S
C1517 C1518 1.334 . S
C1518 H1489 0.950 . S
C1518 C1517 1.334 . S
C1518 C1519 1.254 1_565 S
C1519 C1518 1.254 1_545 S
C1519 C1520 1.549 . S
C1519 H1522 1.014 . S
C1520 H1490 0.950 . S
C1520 C1519 1.549 . S
C1520 C1521 1.415 . S
C1521 H1491 0.950 . S
C1521 C1516 1.363 1_545 S
C1521 C1520 1.415 . S
H1522 C1519 1.014 . S
H1523 C1504 0.913 . S
H1524 C1542 0.951 . S
H1525 C1544 0.951 . S
H1526 C1546 0.950 . S
H1527 C1547 0.950 . S
H1528 C1549 0.950 . S
H1529 C1552 0.950 . S
H1530 C1553 0.950 . S
H1531 C1555 0.950 . S
H1532 C1556 0.950 . S
H1533 C1557 0.951 . S
H1534 C1559 0.951 . S
H1535 C1561 0.950 . S
H1536 C1562 0.950 . S
H1537 C1564 0.950 . S
H1538 C1567 0.950 . S
H1539 C1568 0.950 . S
H1540 C1570 0.950 . S
H1541 C1571 0.950 . S
C1542 H1524 0.951 . S
C1542 C1543 1.366 . S
C1542 C1544 1.388 . S
C1543 C1542 1.366 . S
C1543 C1547 1.385 . S
C1544 H1525 0.951 . S
C1544 C1542 1.388 . S
C1544 C1545 1.366 . S
C1545 C1544 1.366 . S
C1545 C1546 1.414 . S
C1545 C1548 1.499 . S
C1546 H1526 0.950 . S
C1546 C1545 1.414 . S
C1546 C1547 1.374 . S
C1547 H1527 0.950 . S
C1547 C1543 1.385 . S
C1547 C1546 1.374 . S
C1548 C1545 1.499 . S
C1548 C1549 1.373 . S
C1548 C1550 1.389 . S
C1549 H1528 0.950 . S
C1549 C1548 1.373 . S
C1549 C1565 1.377 . S
C1550 C1548 1.389 . S
C1550 C1551 1.524 . S
C1550 C1564 1.377 . S
C1551 C1550 1.524 . S
C1551 C1552 1.397 . S
C1551 C1556 1.363 . S
C1552 H1529 0.950 . S
C1552 C1551 1.397 . S
C1552 C1553 1.334 . S
C1553 H1530 0.950 . S
C1553 C1552 1.334 . S
C1553 C1554 1.287 . S
C1554 C1553 1.287 . S
C1554 C1555 1.524 . S
C1554 H1573 0.913 . S
C1555 H1531 0.950 . S
C1555 C1554 1.524 . S
C1555 C1556 1.415 . S
C1556 H1532 0.950 . S
C1556 C1551 1.363 . S
C1556 C1555 1.415 . S
C1557 H1533 0.951 . S
C1557 C1558 1.366 . S
C1557 C1559 1.388 . S
C1558 C1557 1.366 . S
C1558 C1562 1.385 . S
C1559 H1534 0.951 . S
C1559 C1557 1.388 . S
C1559 C1560 1.366 . S
C1560 C1559 1.366 . S
C1560 C1561 1.414 . S
C1560 C1563 1.499 . S
C1561 H1535 0.950 . S
C1561 C1560 1.414 . S
C1561 C1562 1.374 . S
C1562 H1536 0.950 . S
C1562 C1558 1.385 . S
C1562 C1561 1.374 . S
C1563 C1560 1.499 . S
C1563 C1564 1.373 . S
C1563 C1565 1.389 . S
C1564 H1537 0.950 . S
C1564 C1550 1.377 . S
C1564 C1563 1.373 . S
C1565 C1549 1.377 . S
C1565 C1563 1.389 . S
C1565 C1566 1.524 . S
C1566 C1565 1.524 . S
C1566 C1567 1.397 . S
C1566 C1571 1.363 . S
C1567 H1538 0.950 . S
C1567 C1566 1.397 . S
C1567 C1568 1.334 . S
C1568 H1539 0.950 . S
C1568 C1567 1.334 . S
C1568 C1569 1.287 . S
C1569 C1568 1.287 . S
C1569 C1570 1.524 . S
C1569 H1572 0.999 . S
C1570 H1540 0.950 . S
C1570 C1569 1.524 . S
C1570 C1571 1.415 . S
C1571 H1541 0.950 . S
C1571 C1566 1.363 . S
C1571 C1570 1.415 . S
H1572 C1569 0.999 . S
H1573 C1554 0.913 . S
H1574 C1592 0.951 . S
H1575 C1594 0.951 . S
H1576 C1596 0.950 . S
H1577 C1597 0.950 . S
H1578 C1599 0.950 . S
H1579 C1602 0.950 . S
H1580 C1603 0.950 . S
H1581 C1605 0.950 . S
H1582 C1606 0.950 . S
H1583 C1607 0.951 . S
H1584 C1609 0.951 . S
H1585 C1611 0.950 . S
H1586 C1612 0.950 . S
H1587 C1614 0.950 . S
H1588 C1617 0.950 . S
H1589 C1618 0.950 . S
H1590 C1620 0.950 . S
H1591 C1621 0.950 . S
C1592 H1574 0.951 . S
C1592 C1593 1.366 . S
C1592 C1594 1.388 . S
C1593 C1592 1.366 . S
C1593 C1597 1.385 . S
C1594 H1575 0.951 . S
C1594 C1592 1.388 . S
C1594 C1595 1.366 . S
C1595 C1594 1.366 . S
C1595 C1596 1.414 . S
C1595 C1598 1.499 . S
C1596 H1576 0.950 . S
C1596 C1595 1.414 . S
C1596 C1597 1.374 . S
C1597 H1577 0.950 . S
C1597 C1593 1.385 . S
C1597 C1596 1.374 . S
C1598 C1595 1.499 . S
C1598 C1599 1.373 . S
C1598 C1600 1.389 . S
C1599 H1578 0.950 . S
C1599 C1598 1.373 . S
C1599 C1615 1.377 . S
C1600 C1598 1.389 . S
C1600 C1601 1.524 . S
C1600 C1614 1.377 . S
C1601 C1600 1.524 . S
C1601 C1602 1.397 . S
C1601 C1606 1.363 . S
C1602 H1579 0.950 . S
C1602 C1601 1.397 . S
C1602 C1603 1.334 . S
C1603 H1580 0.950 . S
C1603 C1602 1.334 . S
C1603 C1604 1.287 . S
C1604 C1603 1.287 . S
C1604 C1605 1.524 . S
C1604 H1623 0.913 . S
C1605 H1581 0.950 . S
C1605 C1604 1.524 . S
C1605 C1606 1.415 . S
C1606 H1582 0.950 . S
C1606 C1601 1.363 . S
C1606 C1605 1.415 . S
C1607 H1583 0.951 . S
C1607 C1608 1.366 . S
C1607 C1609 1.388 . S
C1608 C1607 1.366 . S
C1608 C1612 1.385 . S
C1609 H1584 0.951 . S
C1609 C1607 1.388 . S
C1609 C1610 1.366 . S
C1610 C1609 1.366 . S
C1610 C1611 1.414 . S
C1610 C1613 1.499 . S
C1611 H1585 0.950 . S
C1611 C1610 1.414 . S
C1611 C1612 1.374 . S
C1612 H1586 0.950 . S
C1612 C1608 1.385 . S
C1612 C1611 1.374 . S
C1613 C1610 1.499 . S
C1613 C1614 1.373 . S
C1613 C1615 1.389 . S
C1614 H1587 0.950 . S
C1614 C1600 1.377 . S
C1614 C1613 1.373 . S
C1615 C1599 1.377 . S
C1615 C1613 1.389 . S
C1615 C1616 1.524 . S
C1616 C1615 1.524 . S
C1616 C1617 1.397 . S
C1616 C1621 1.363 . S
C1617 H1588 0.950 . S
C1617 C1616 1.397 . S
C1617 C1618 1.334 . S
C1618 H1589 0.950 . S
C1618 C1617 1.334 . S
C1618 C1619 1.287 . S
C1619 C1618 1.287 . S
C1619 C1620 1.524 . S
C1619 H1622 0.999 . S
C1620 H1590 0.950 . S
C1620 C1619 1.524 . S
C1620 C1621 1.415 . S
C1621 H1591 0.950 . S
C1621 C1616 1.363 . S
C1621 C1620 1.415 . S
H1622 C1619 0.999 . S
H1623 C1604 0.913 . S
C443 C76 1.798 . S
C458 C162 1.847 . S
C508 C246 1.879 . S
C493 C87 1.828 . S
C558 C312 1.898 . S
C543 C54 1.947 . S
C608 C396 1.870 . S
C593 C65 1.919 . S
C658 C151 1.848 1_565 S
C643 C32 1.807 . S
C693 C43 1.838 . S
C708 C235 1.879 . S
C743 C10 1.957 . S
C758 C323 1.898 . S
C793 C21 1.928 . S
C808 C407 1.870 . S
C858 C158 0.516 1_455 S
C843 C60 0.490 . S
C908 C242 0.573 . S
C893 C71 0.459 . S
C958 C314 0.506 . S
C943 C82 0.440 . S
C993 C49 0.468 . S
C1008 C398 0.515 . S
C1043 C16 0.500 . S
C1058 C146 0.533 . S
C1108 C230 0.513 . S
C1093 C27 0.475 . S
C1158 C326 0.505 . S
C1143 C38 0.456 . S
C1193 C5 0.479 . S
C1208 C410 0.519 . S
C1243 C59 1.955 . S
C1258 C155 1.997 . S
C1293 C70 1.916 . S
C1308 C239 1.959 . S
C1358 C319 1.940 . S
C1343 C81 1.808 . S
C1408 C403 1.975 . S
C1393 C48 1.842 . S
C1443 C15 1.942 . S
C1458 C144 1.997 . S
C1508 C228 1.954 1_565 S
C1493 C26 1.905 . S
C1558 C330 1.940 . S
C1543 C37 1.796 . S
C1593 C4 1.829 . S
C1608 C414 1.975 . S
