# Generated by pormake.
# Topology csq, (4,8)-cn, num edge types: 1
# Building blocks:
#     Node 0, Type 0, BuildingBlock: GIZVER_clean_linker_0, # of connection points: 4
#     Node 1, Type 0, BuildingBlock: GIZVER_clean_linker_0, # of connection points: 4
#     Node 2, Type 0, BuildingBlock: GIZVER_clean_linker_0, # of connection points: 4
#     Node 3, Type 0, BuildingBlock: GIZVER_clean_linker_0, # of connection points: 4
#     Node 4, Type 0, BuildingBlock: GIZVER_clean_linker_0, # of connection points: 4
#     Node 5, Type 0, BuildingBlock: GIZVER_clean_linker_0, # of connection points: 4
#     Node 6, Type 1, BuildingBlock: TAGTUT_clean_sbu_3, # of connection points: 8
#     Node 7, Type 1, BuildingBlock: TAGTUT_clean_sbu_3, # of connection points: 8
#     Node 8, Type 1, BuildingBlock: TAGTUT_clean_sbu_3, # of connection points: 8
#     Edge 9, Type (0, 1), BuildingBlock: EYOCIG_clean_linker_4, # of connection points: 2
#     Edge 10, Type (0, 1), BuildingBlock: EYOCIG_clean_linker_4, # of connection points: 2
#     Edge 11, Type (0, 1), BuildingBlock: EYOCIG_clean_linker_4, # of connection points: 2
#     Edge 12, Type (0, 1), BuildingBlock: EYOCIG_clean_linker_4, # of connection points: 2
#     Edge 13, Type (0, 1), BuildingBlock: EYOCIG_clean_linker_4, # of connection points: 2
#     Edge 14, Type (0, 1), BuildingBlock: EYOCIG_clean_linker_4, # of connection points: 2
#     Edge 15, Type (0, 1), BuildingBlock: EYOCIG_clean_linker_4, # of connection points: 2
#     Edge 16, Type (0, 1), BuildingBlock: EYOCIG_clean_linker_4, # of connection points: 2
#     Edge 17, Type (0, 1), BuildingBlock: EYOCIG_clean_linker_4, # of connection points: 2
#     Edge 18, Type (0, 1), BuildingBlock: EYOCIG_clean_linker_4, # of connection points: 2
#     Edge 19, Type (0, 1), BuildingBlock: EYOCIG_clean_linker_4, # of connection points: 2
#     Edge 20, Type (0, 1), BuildingBlock: EYOCIG_clean_linker_4, # of connection points: 2
#     Edge 21, Type (0, 1), BuildingBlock: EYOCIG_clean_linker_4, # of connection points: 2
#     Edge 22, Type (0, 1), BuildingBlock: EYOCIG_clean_linker_4, # of connection points: 2
#     Edge 23, Type (0, 1), BuildingBlock: EYOCIG_clean_linker_4, # of connection points: 2
#     Edge 24, Type (0, 1), BuildingBlock: EYOCIG_clean_linker_4, # of connection points: 2
#     Edge 25, Type (0, 1), BuildingBlock: EYOCIG_clean_linker_4, # of connection points: 2
#     Edge 26, Type (0, 1), BuildingBlock: EYOCIG_clean_linker_4, # of connection points: 2
#     Edge 27, Type (0, 1), BuildingBlock: EYOCIG_clean_linker_4, # of connection points: 2
#     Edge 28, Type (0, 1), BuildingBlock: EYOCIG_clean_linker_4, # of connection points: 2
#     Edge 29, Type (0, 1), BuildingBlock: EYOCIG_clean_linker_4, # of connection points: 2
#     Edge 30, Type (0, 1), BuildingBlock: EYOCIG_clean_linker_4, # of connection points: 2
#     Edge 31, Type (0, 1), BuildingBlock: EYOCIG_clean_linker_4, # of connection points: 2
#     Edge 32, Type (0, 1), BuildingBlock: EYOCIG_clean_linker_4, # of connection points: 2
# Relax obj value: 0.039
# Max RMSD: 0.111
# Mean RMSD: 0.081
data_MOF--net-csq--node1-TAGTUT_clean_sbu_3--node2-GIZVER_clean_linker_0--edge1-EYOCIG_clean_linker_4
_symmetry_space_group_name_H-M    P1
_symmetry_Int_Tables_number       1
_symmetry_cell_setting            triclinic
loop_
_symmetry_equiv_pos_as_xyz
'x, y, z'
_cell_length_a     44.520025
_cell_length_b     43.813426
_cell_length_c     15.207404
_cell_angle_alpha  92.644944
_cell_angle_beta   92.832522
_cell_angle_gamma 119.81159
loop_
_atom_site_label
_atom_site_type_symbol
_atom_site_fract_x
_atom_site_fract_y
_atom_site_fract_z
_atom_type_partial_charge
H0 H 0.22307 0.48466 0.0175 0.0
H1 H 0.22606 0.52823 0.28037 0.0
H2 H 0.12816 0.45679 0.13665 0.0
H3 H 0.27271 0.54592 0.08727 0.0
H4 H 0.27766 0.55353 0.20446 0.0
H5 H 0.29404 0.51122 0.01466 0.0
H6 H 0.3506 0.47554 0.17507 0.0
H7 H 0.28986 0.51408 0.29829 0.0
C8 C 0.20988 0.48563 0.07473 0.0
C9 C 0.1735 0.4672 0.0701 0.0
C10 C 0.2292 0.50776 0.15071 0.0
C11 C 0.21157 0.51046 0.2226 0.0
C12 C 0.17516 0.49191 0.21745 0.0
C13 C 0.15636 0.47012 0.14172 0.0
C14 C 0.26779 0.53237 0.14948 0.0
C15 C 0.28809 0.51327 0.15538 0.0
C16 C 0.30044 0.50521 0.07887 0.0
C17 C 0.32298 0.49161 0.08675 0.0
C18 C 0.3323 0.48511 0.16925 0.0
C19 C 0.32063 0.49324 0.24504 0.0
C20 C 0.29803 0.50677 0.23879 0.0
H21 H 0.8182 0.25973 0.94249 0.0
H22 H 0.83881 0.25383 0.2197 0.0
H23 H 0.87713 0.35468 0.11314 0.0
H24 H 0.8134 0.20633 -0.00709 0.0
H25 H 0.82429 0.20378 0.10567 0.0
H26 H 0.75354 0.19234 0.9414 0.0
H27 H 0.67455 0.13323 0.11401 0.0
H28 H 0.78165 0.18701 0.21416 0.0
C29 C 0.82833 0.27252 0.0085 0.0
C30 C 0.84703 0.3093 0.02085 0.0
C31 C 0.82531 0.25219 0.07977 0.0
C32 C 0.84023 0.26926 0.16471 0.0
C33 C 0.85856 0.30635 0.17694 0.0
C34 C 0.86167 0.32607 0.1048 0.0
C35 C 0.81006 0.21292 0.06197 0.0
C36 C 0.77202 0.19318 0.07695 0.0
C37 C 0.74616 0.18415 0.00682 0.0
C38 C 0.71091 0.16248 0.02078 0.0
C39 C 0.70171 0.15089 0.10399 0.0
C40 C 0.72705 0.1596 0.17291 0.0
C41 C 0.76211 0.18115 0.16053 0.0
H42 H 0.58303 0.83059 0.91895 0.0
H43 H 0.57995 0.81757 0.19822 0.0
H44 H 0.53717 0.87664 0.08192 0.0
H45 H 0.62175 0.81388 -0.00435 0.0
H46 H 0.62321 0.81235 0.11258 0.0
H47 H 0.58777 0.761 0.90086 0.0
H48 H 0.53953 0.66201 0.01816 0.0
H49 H 0.57712 0.75858 0.18164 0.0
C50 C 0.57485 0.83431 -0.01739 0.0
C51 C 0.55821 0.85425 -0.00871 0.0
C52 C 0.58263 0.82077 0.05728 0.0
C53 C 0.5729 0.82674 0.13993 0.0
C54 C 0.55654 0.84676 0.14876 0.0
C55 C 0.54892 0.86021 0.07441 0.0
C56 C 0.60516 0.80415 0.05179 0.0
C57 C 0.58388 0.76439 0.04194 0.0
C58 C 0.57827 0.74635 0.95846 0.0
C59 C 0.56249 0.70957 0.9504 0.0
C60 C 0.55104 0.69052 0.02463 0.0
C61 C 0.55583 0.70793 0.1078 0.0
C62 C 0.57215 0.74493 0.11669 0.0
H63 H 0.75205 0.56677 0.87267 0.0
H64 H 0.78613 0.61408 0.14034 0.0
H65 H 0.67733 0.5466 0.06199 0.0
H66 H 0.80954 0.61937 0.90776 0.0
H67 H 0.82523 0.63707 0.01943 0.0
H68 H 0.82585 0.57877 0.84176 0.0
H69 H 0.88276 0.54429 0.00578 0.0
H70 H 0.83732 0.60041 0.12556 0.0
C71 C 0.74639 0.56964 0.94013 0.0
C72 C 0.71195 0.55369 0.96143 0.0
C73 C 0.77347 0.59158 0.00417 0.0
C74 C 0.76557 0.59652 0.09086 0.0
C75 C 0.73079 0.57982 0.1118 0.0
C76 C 0.70429 0.55833 0.04697 0.0
C77 C 0.81001 0.61201 -0.02333 0.0
C78 C 0.82808 0.59074 -0.01677 0.0
C79 C 0.83462 0.57583 0.90692 0.0
C80 C 0.85438 0.55896 0.91569 0.0
C81 C 0.86659 0.55634 -0.00082 0.0
C82 C 0.86058 0.5713 0.07393 0.0
C83 C 0.84099 0.58801 0.0669 0.0
H84 H 0.26144 0.78907 0.95422 0.0
H85 H 0.31192 0.79869 0.21199 0.0
H86 H 0.34369 0.89011 0.06668 0.0
H87 H 0.26804 0.73873 0.02148 0.0
H88 H 0.27722 0.74171 0.13753 0.0
H89 H 0.21088 0.72225 0.95784 0.0
H90 H 0.12821 0.67425 0.12829 0.0
H91 H 0.23373 0.73791 0.24049 0.0
C92 C 0.27956 0.80529 0.00972 0.0
C93 C 0.3013 0.84159 0.00345 0.0
C94 C 0.2832 0.7895 0.08514 0.0
C95 C 0.30826 0.81067 0.15463 0.0
C96 C 0.32998 0.84689 0.14788 0.0
C97 C 0.32621 0.86222 0.07276 0.0
C98 C 0.26483 0.74983 0.08533 0.0
C99 C 0.22658 0.73353 0.09778 0.0
C100 C 0.2021 0.71913 0.02381 0.0
C101 C 0.1667 0.69776 0.03476 0.0
C102 C 0.15546 0.69199 0.11991 0.0
C103 C 0.1795 0.70668 0.19422 0.0
C104 C 0.21499 0.72787 0.18322 0.0
H105 H 0.52493 0.28999 0.03474 0.0
H106 H 0.49223 0.28778 0.29766 0.0
H107 H 0.45755 0.33077 0.095 0.0
H108 H 0.5588 0.28672 0.16587 0.0
H109 H 0.54559 0.28786 0.27411 0.0
H110 H 0.52177 0.23026 0.06288 0.0
H111 H 0.49435 0.13705 0.19708 0.0
H112 H 0.51912 0.23359 0.34666 0.0
C113 C 0.50883 0.29368 0.08035 0.0
C114 C 0.48921 0.30927 0.05286 0.0
C115 C 0.50963 0.28533 0.16906 0.0
C116 C 0.49011 0.29207 0.22846 0.0
C117 C 0.4719 0.30886 0.2019 0.0
C118 C 0.47062 0.31645 0.11404 0.0
C119 C 0.53582 0.27565 0.2054 0.0
C120 C 0.52096 0.23627 0.20442 0.0
C121 C 0.51647 0.21711 0.12362 0.0
C122 C 0.50698 0.18158 0.12161 0.0
C123 C 0.50114 0.16458 0.19949 0.0
C124 C 0.50521 0.18298 0.28071 0.0
C125 C 0.51494 0.21893 0.28355 0.0
C126 C 0.05965 0.48589 0.48611 0.0
C127 C 0.05416 0.43708 0.79039 0.0
C128 C 0.94981 0.42398 0.7775 0.0
Mg129 Mg 0.01932 0.52388 0.4008 0.0
Mg130 Mg 1.00435 0.57432 0.53627 0.0
O131 O 0.99495 0.52841 0.50378 0.0
Mg132 Mg 0.01006 0.50683 0.59432 0.0
O133 O 0.02623 0.48313 0.67747 0.0
Mg134 Mg 1.00295 0.43405 0.61632 0.0
Mg135 Mg 0.02316 0.48711 0.79896 0.0
C136 C 0.96048 0.53288 0.68945 0.0
O137 O 0.04843 0.56016 0.67522 0.0
O138 O 0.98469 0.54094 0.32203 0.0
O139 O 0.04766 0.54425 0.81506 0.0
O140 O 0.06332 0.58202 0.41763 0.0
O141 O 0.97673 0.57592 0.42117 0.0
O142 O 0.05844 0.613 0.53079 0.0
O143 O 0.97265 0.45202 0.52444 0.0
O144 O 0.97612 0.46532 0.38415 0.0
C145 C 0.9637 0.44286 0.44202 0.0
C146 C 0.97153 0.56021 0.34449 0.0
O147 O 0.96771 0.50795 0.67768 0.0
O148 O 0.03743 0.42276 0.71495 0.0
O149 O 0.97543 0.56179 0.65169 0.0
O150 O 0.95871 0.41329 0.70936 0.0
O151 O 0.05265 0.46206 0.83323 0.0
O152 O 0.96972 0.45358 0.82082 0.0
O153 O 0.04978 0.50838 0.50109 0.0
O154 O 0.04684 0.45693 0.52344 0.0
C155 C 0.07506 0.61036 0.46786 0.0
C156 C 0.0568 0.56765 0.7589 0.0
C157 C 0.50158 0.05788 0.48921 0.0
C158 C 0.61289 0.05054 0.41208 0.0
C159 C 0.5508 0.94272 0.4691 0.0
Mg160 Mg 0.44454 0.01034 0.62626 0.0
Mg161 Mg 0.46871 0.98185 0.79947 0.0
O162 O 0.46645 0.98357 0.67694 0.0
Mg163 Mg 0.50967 0.0036 0.61406 0.0
O164 O 0.55047 0.02296 0.54343 0.0
Mg165 Mg 0.52678 0.0027 0.42247 0.0
Mg166 Mg 0.58467 0.01201 0.57982 0.0
C167 C 0.51622 0.9495 0.7509 0.0
O168 O 0.54784 0.04255 0.72961 0.0
O169 O 0.39489 0.97199 0.69529 0.0
O170 O 0.59554 0.0378 0.71144 0.0
O171 O 0.46448 0.05078 0.74739 0.0
O172 O 0.4137 0.95209 0.80762 0.0
O173 O 0.48839 0.03461 0.8553 0.0
O174 O 0.47624 0.96831 0.4909 0.0
O175 O 0.42762 0.97061 0.50542 0.0
C176 C 0.44505 0.95948 0.46386 0.0
C177 C 0.38938 0.9525 0.76011 0.0
O178 O 0.52072 0.96155 0.67405 0.0
O179 O 0.58195 0.03911 0.37633 0.0
O180 O 0.49981 0.95632 0.80848 0.0
O181 O 0.53802 0.95706 0.42043 0.0
O182 O 0.61953 0.04263 0.48751 0.0
O183 O 0.56722 0.95712 0.54405 0.0
O184 O 0.4966 0.04442 0.56375 0.0
O185 O 0.51425 0.04789 0.42791 0.0
C186 C 0.48103 0.0566 0.82286 0.0
C187 C 0.57933 0.05063 0.75263 0.0
C188 C 0.53322 0.57266 0.71653 0.0
C189 C 0.43068 0.46799 0.84887 0.0
C190 C 0.47738 0.40622 0.75813 0.0
Mg191 Mg 0.57536 0.57406 0.54801 0.0
Mg192 Mg 0.53655 0.5171 0.37324 0.0
O193 O 0.54591 0.52383 0.4959 0.0
Mg194 Mg 0.51003 0.50317 0.58495 0.0
O195 O 0.47803 0.48532 0.68125 0.0
Mg196 Mg 0.51098 0.49525 0.78713 0.0
Mg197 Mg 0.43944 0.43954 0.6669 0.0
C198 C 0.48825 0.43869 0.43321 0.0
O199 O 0.4633 0.49937 0.50297 0.0
O200 O 0.61729 0.58056 0.45275 0.0
O201 O 0.41929 0.4475 0.54234 0.0
O202 O 0.55262 0.59575 0.4445 0.0
O203 O 0.59 0.53792 0.34129 0.0
O204 O 0.5212 0.55472 0.33402 0.0
O205 O 0.55075 0.50323 0.68233 0.0
O206 O 0.59786 0.55195 0.64823 0.0
C207 C 0.58333 0.52474 0.69187 0.0
C208 C 0.61758 0.56381 0.38151 0.0
O209 O 0.49181 0.4485 0.51588 0.0
O210 O 0.46383 0.48566 0.86767 0.0
O211 O 0.50068 0.46007 0.37222 0.0
O212 O 0.49705 0.43712 0.79563 0.0
O213 O 0.41625 0.44818 0.77758 0.0
O214 O 0.45422 0.40022 0.6962 0.0
O215 O 0.53017 0.55993 0.63761 0.0
O216 O 0.52606 0.55344 0.78151 0.0
C217 C 0.53346 0.5857 0.37186 0.0
C218 C 0.43119 0.47469 0.49729 0.0
C219 C 0.13646 0.4985 0.33448 0.0
C220 C 0.15626 0.49719 0.28513 0.0
C221 C 0.1105 0.49734 0.38639 0.0
C222 C 0.08747 0.49386 0.43089 0.0
C223 C 0.69669 0.12286 0.30192 0.0
C224 C 0.71579 0.14221 0.25171 0.0
C225 C 0.66797 0.09736 0.34115 0.0
C226 C 0.64192 0.07591 0.37062 0.0
C227 C 0.5382 0.6648 0.23546 0.0
C228 C 0.54702 0.68714 0.18331 0.0
C229 C 0.53187 0.63626 0.28656 0.0
C230 C 0.53195 0.61244 0.32339 0.0
C231 C 0.89869 0.56996 0.20548 0.0
C232 C 0.87916 0.57294 0.15453 0.0
C233 C 0.92446 0.56535 0.24843 0.0
C234 C 0.94627 0.5613 0.28627 0.0
C235 C 0.38139 0.88814 0.26802 0.0
C236 C 0.35767 0.86836 0.21503 0.0
C237 C 0.4078 0.91265 0.3313 0.0
C238 C 0.42726 0.93375 0.39012 0.0
C239 C 0.45595 0.34353 0.31886 0.0
C240 C 0.46348 0.32719 0.26782 0.0
C241 C 0.45982 0.37252 0.37197 0.0
C242 C 0.47195 0.40182 0.4071 0.0
C243 C 0.54698 0.8872 0.86303 0.0
C244 C 0.553 0.87127 0.91749 0.0
C245 C 0.53869 0.90817 0.8099 0.0
C246 C 0.52978 0.92706 0.77556 0.0
C247 C 0.65767 0.52432 0.8459 0.0
C248 C 0.68399 0.53779 0.89365 0.0
C249 C 0.62759 0.51711 0.79431 0.0
C250 C 0.60497 0.51784 0.7499 0.0
C251 C 0.12185 0.65835 0.89983 0.0
C252 C 0.14287 0.67667 0.95995 0.0
C253 C 0.09822 0.63106 0.83678 0.0
C254 C 0.07948 0.60366 0.79293 0.0
C255 C 0.50219 0.1422 -0.01937 0.0
C256 C 0.50504 0.1624 0.04078 0.0
C257 C 0.49675 0.11443 0.92022 0.0
C258 C 0.48948 0.08805 0.87536 0.0
C259 C 0.36036 0.48279 0.97249 0.0
C260 C 0.34091 0.48792 0.01476 0.0
C261 C 0.38633 0.47799 0.93577 0.0
C262 C 0.40853 0.475 0.90089 0.0
C263 C 0.86882 0.35184 0.89364 0.0
C264 C 0.85698 0.33006 0.9463 0.0
C265 C 0.8925 0.37847 0.84436 0.0
C266 C 0.91873 0.39944 0.8143 0.0
C267 C 0.88318 0.53748 0.80145 0.0
C268 C 0.86707 0.54795 0.84245 0.0
C269 C 0.90763 0.52943 0.76695 0.0
C270 C 0.93083 0.52712 0.73516 0.0
C271 C 0.31012 0.87803 0.8657 0.0
C272 C 0.30222 0.85772 0.92251 0.0
C273 C 0.33011 0.90519 0.81179 0.0
C274 C 0.35454 0.92808 0.77905 0.0
C275 C 0.4885 0.33658 0.90161 0.0
C276 C 0.49108 0.3227 0.96656 0.0
C277 C 0.48378 0.35697 0.83787 0.0
C278 C 0.47889 0.3773 0.79632 0.0
C279 C 0.13037 0.43564 0.92905 0.0
C280 C 0.15304 0.45016 -0.01188 0.0
C281 C 0.10183 0.42701 0.86831 0.0
C282 C 0.07905 0.42811 0.82499 0.0
C283 C 0.65612 0.12976 0.90675 0.0
C284 C 0.68354 0.14713 0.95029 0.0
C285 C 0.62429 0.10396 0.86129 0.0
C286 C 0.60043 0.08023 0.81549 0.0
C287 C 0.55659 0.66893 0.81112 0.0
C288 C 0.5608 0.69075 0.86876 0.0
C289 C 0.55026 0.63816 0.76124 0.0
C290 C 0.54288 0.60892 0.73344 0.0
C291 C 0.49798 0.14225 0.40929 0.0
C292 C 0.5019 0.16436 0.35908 0.0
C293 C 0.49583 0.11312 0.45173 0.0
C294 C 0.49725 0.08793 0.47619 0.0
C295 C 0.35598 0.48762 0.37703 0.0
C296 C 0.33665 0.49159 0.32721 0.0
C297 C 0.38268 0.48364 0.418 0.0
C298 C 0.40586 0.48079 0.45302 0.0
C299 C 0.89519 0.3475 0.31922 0.0
C300 C 0.8773 0.32538 0.26002 0.0
C301 C 0.91834 0.37807 0.37517 0.0
C302 C 0.93872 0.40672 0.41203 0.0
C303 C 0.5478 0.86845 0.30546 0.0
C304 C 0.55221 0.85786 0.23549 0.0
C305 C 0.5475 0.88855 0.38018 0.0
C306 C 0.55062 0.91223 0.43029 0.0
C307 C 0.70296 0.5856 0.25497 0.0
C308 C 0.72039 0.58609 0.19603 0.0
C309 C 0.67613 0.58086 0.30875 0.0
C310 C 0.65027 0.57431 0.34502 0.0
C311 C 0.15249 0.68322 0.34435 0.0
C312 C 0.1676 0.69573 0.28001 0.0
C313 C 0.12932 0.66272 0.40595 0.0
C314 C 0.10497 0.64122 0.44214 0.0
loop_
_geom_bond_atom_site_label_1
_geom_bond_atom_site_label_2
_geom_bond_distance
_geom_bond_site_symmetry_2
_ccdc_geom_bond_type
H0 C8 0.930 . S
H1 C11 0.930 . S
H2 C13 0.930 . S
H3 C14 0.970 . S
H4 C14 0.970 . S
H5 C16 0.930 . S
H6 C18 0.930 . S
H7 C20 0.930 . S
C8 H0 0.930 . S
C8 C9 1.382 . S
C8 C10 1.426 . S
C9 C8 1.382 . S
C9 C13 1.389 . S
C10 C8 1.426 . S
C10 C11 1.375 . S
C10 C14 1.532 . S
C11 H1 0.930 . S
C11 C10 1.375 . S
C11 C12 1.416 . S
C12 C11 1.416 . S
C12 C13 1.371 . S
C13 H2 0.930 . S
C13 C9 1.389 . S
C13 C12 1.371 . S
C14 H3 0.970 . S
C14 H4 0.970 . S
C14 C10 1.532 . S
C14 C15 1.499 . S
C15 C14 1.499 . S
C15 C16 1.370 . S
C15 C20 1.415 . S
C16 H5 0.930 . S
C16 C15 1.370 . S
C16 C17 1.407 . S
C17 C16 1.407 . S
C17 C18 1.365 . S
C18 H6 0.930 . S
C18 C17 1.365 . S
C18 C19 1.393 . S
C19 C18 1.393 . S
C19 C20 1.387 . S
C20 H7 0.930 . S
C20 C15 1.415 . S
C20 C19 1.387 . S
H21 C29 0.930 1_556 S
H22 C32 0.930 . S
H23 C34 0.930 . S
H24 C35 0.970 . S
H25 C35 0.970 . S
H26 C37 0.930 1_556 S
H27 C39 0.930 . S
H28 C41 0.930 . S
C29 H21 0.930 1_554 S
C29 C30 1.382 . S
C29 C31 1.426 . S
C30 C29 1.382 . S
C30 C34 1.389 . S
C31 C29 1.426 . S
C31 C32 1.375 . S
C31 C35 1.532 . S
C32 H22 0.930 . S
C32 C31 1.375 . S
C32 C33 1.416 . S
C33 C32 1.416 . S
C33 C34 1.371 . S
C34 H23 0.930 . S
C34 C30 1.389 . S
C34 C33 1.371 . S
C35 H24 0.970 . S
C35 H25 0.970 . S
C35 C31 1.532 . S
C35 C36 1.499 . S
C36 C35 1.499 . S
C36 C37 1.370 . S
C36 C41 1.415 . S
C37 H26 0.930 1_554 S
C37 C36 1.370 . S
C37 C38 1.407 . S
C38 C37 1.407 . S
C38 C39 1.365 . S
C39 H27 0.930 . S
C39 C38 1.365 . S
C39 C40 1.393 . S
C40 C39 1.393 . S
C40 C41 1.387 . S
C41 H28 0.930 . S
C41 C36 1.415 . S
C41 C40 1.387 . S
H42 C50 0.930 . S
H43 C53 0.930 . S
H44 C55 0.930 . S
H45 C56 0.970 . S
H46 C56 0.970 . S
H47 C58 0.930 . S
H48 C60 0.930 . S
H49 C62 0.930 . S
C50 H42 0.930 . S
C50 C51 1.382 . S
C50 C52 1.426 1_556 S
C51 C50 1.382 . S
C51 C55 1.389 1_556 S
C52 C50 1.426 1_554 S
C52 C53 1.375 . S
C52 C56 1.532 . S
C53 H43 0.930 . S
C53 C52 1.375 . S
C53 C54 1.416 . S
C54 C53 1.416 . S
C54 C55 1.371 . S
C55 H44 0.930 . S
C55 C51 1.389 1_554 S
C55 C54 1.371 . S
C56 H45 0.970 . S
C56 H46 0.970 . S
C56 C52 1.532 . S
C56 C57 1.499 . S
C57 C56 1.499 . S
C57 C58 1.370 1_554 S
C57 C62 1.415 . S
C58 H47 0.930 . S
C58 C57 1.370 1_556 S
C58 C59 1.407 . S
C59 C58 1.407 . S
C59 C60 1.365 1_556 S
C60 H48 0.930 . S
C60 C59 1.365 1_554 S
C60 C61 1.393 . S
C61 C60 1.393 . S
C61 C62 1.387 . S
C62 H49 0.930 . S
C62 C57 1.415 . S
C62 C61 1.387 . S
H63 C71 0.930 . S
H64 C74 0.930 . S
H65 C76 0.930 . S
H66 C77 0.970 1_556 S
H67 C77 0.970 . S
H68 C79 0.930 . S
H69 C81 0.930 . S
H70 C83 0.930 . S
C71 H63 0.930 . S
C71 C72 1.382 . S
C71 C73 1.426 1_556 S
C72 C71 1.382 . S
C72 C76 1.389 1_556 S
C73 C71 1.426 1_554 S
C73 C74 1.375 . S
C73 C77 1.532 . S
C74 H64 0.930 . S
C74 C73 1.375 . S
C74 C75 1.416 . S
C75 C74 1.416 . S
C75 C76 1.371 . S
C76 H65 0.930 . S
C76 C72 1.389 1_554 S
C76 C75 1.371 . S
C77 H66 0.970 1_554 S
C77 H67 0.970 . S
C77 C73 1.532 . S
C77 C78 1.499 . S
C78 C77 1.499 . S
C78 C79 1.370 1_554 S
C78 C83 1.415 . S
C79 H68 0.930 . S
C79 C78 1.370 1_556 S
C79 C80 1.407 . S
C80 C79 1.407 . S
C80 C81 1.365 1_556 S
C81 H69 0.930 . S
C81 C80 1.365 1_554 S
C81 C82 1.393 . S
C82 C81 1.393 . S
C82 C83 1.387 . S
C83 H70 0.930 . S
C83 C78 1.415 . S
C83 C82 1.387 . S
H84 C92 0.930 1_556 S
H85 C95 0.930 . S
H86 C97 0.930 . S
H87 C98 0.970 . S
H88 C98 0.970 . S
H89 C100 0.930 1_556 S
H90 C102 0.930 . S
H91 C104 0.930 . S
C92 H84 0.930 1_554 S
C92 C93 1.382 . S
C92 C94 1.426 . S
C93 C92 1.382 . S
C93 C97 1.389 . S
C94 C92 1.426 . S
C94 C95 1.375 . S
C94 C98 1.532 . S
C95 H85 0.930 . S
C95 C94 1.375 . S
C95 C96 1.416 . S
C96 C95 1.416 . S
C96 C97 1.371 . S
C97 H86 0.930 . S
C97 C93 1.389 . S
C97 C96 1.371 . S
C98 H87 0.970 . S
C98 H88 0.970 . S
C98 C94 1.532 . S
C98 C99 1.499 . S
C99 C98 1.499 . S
C99 C100 1.370 . S
C99 C104 1.415 . S
C100 H89 0.930 1_554 S
C100 C99 1.370 . S
C100 C101 1.407 . S
C101 C100 1.407 . S
C101 C102 1.365 . S
C102 H90 0.930 . S
C102 C101 1.365 . S
C102 C103 1.393 . S
C103 C102 1.393 . S
C103 C104 1.387 . S
C104 H91 0.930 . S
C104 C99 1.415 . S
C104 C103 1.387 . S
H105 C113 0.930 . S
H106 C116 0.930 . S
H107 C118 0.930 . S
H108 C119 0.970 . S
H109 C119 0.970 . S
H110 C121 0.930 . S
H111 C123 0.930 . S
H112 C125 0.930 . S
C113 H105 0.930 . S
C113 C114 1.382 . S
C113 C115 1.426 . S
C114 C113 1.382 . S
C114 C118 1.389 . S
C115 C113 1.426 . S
C115 C116 1.375 . S
C115 C119 1.532 . S
C116 H106 0.930 . S
C116 C115 1.375 . S
C116 C117 1.416 . S
C117 C116 1.416 . S
C117 C118 1.371 . S
C118 H107 0.930 . S
C118 C114 1.389 . S
C118 C117 1.371 . S
C119 H108 0.970 . S
C119 H109 0.970 . S
C119 C115 1.532 . S
C119 C120 1.499 . S
C120 C119 1.499 . S
C120 C121 1.370 . S
C120 C125 1.415 . S
C121 H110 0.930 . S
C121 C120 1.370 . S
C121 C122 1.407 . S
C122 C121 1.407 . S
C122 C123 1.365 . S
C123 H111 0.930 . S
C123 C122 1.365 . S
C123 C124 1.393 . S
C124 C123 1.393 . S
C124 C125 1.387 . S
C125 H112 0.930 . S
C125 C120 1.415 . S
C125 C124 1.387 . S
C126 O153 1.312 . S
C126 O154 1.208 . S
C127 O148 1.331 . S
C127 O151 1.244 . S
C128 O150 1.264 . S
C128 O152 1.273 . S
Mg129 O131 1.936 1_455 S
Mg129 O138 2.081 1_455 S
Mg129 O140 2.023 . S
Mg129 O144 2.031 1_455 S
Mg129 O153 2.291 . S
Mg130 O131 1.963 . S
Mg130 O141 1.942 . S
Mg130 O142 1.955 1_655 S
Mg130 O149 1.986 . S
O131 Mg129 1.936 1_655 S
O131 Mg130 1.963 . S
O131 Mg132 1.915 1_655 S
Mg132 O131 1.915 1_455 S
Mg132 O133 1.915 . S
Mg132 O137 2.013 . S
Mg132 O143 2.114 1_455 S
Mg132 O147 2.013 1_455 S
Mg132 O153 2.114 . S
O133 Mg132 1.915 . S
O133 Mg134 1.936 . S
O133 Mg135 1.963 . S
Mg134 O133 1.936 . S
Mg134 O143 2.291 1_455 S
Mg134 O148 2.081 . S
Mg134 O150 2.023 1_455 S
Mg134 O154 2.031 . S
Mg135 O133 1.963 . S
Mg135 O139 1.986 . S
Mg135 O151 1.942 . S
Mg135 O152 1.955 1_455 S
C136 O147 1.191 . S
C136 O149 1.307 . S
O137 Mg132 2.013 . S
O137 C156 1.191 . S
O138 Mg129 2.081 1_655 S
O138 C146 1.331 . S
O139 Mg135 1.986 . S
O139 C156 1.307 . S
O140 Mg129 2.023 . S
O140 C155 1.264 . S
O141 Mg130 1.942 . S
O141 C146 1.244 . S
O142 Mg130 1.955 1_455 S
O142 C155 1.273 . S
O143 Mg132 2.114 1_655 S
O143 Mg134 2.291 1_655 S
O143 C145 1.312 . S
O144 Mg129 2.031 1_655 S
O144 C145 1.208 . S
C145 O143 1.312 . S
C145 O144 1.208 . S
C146 O138 1.331 . S
C146 O141 1.244 . S
O147 Mg132 2.013 1_655 S
O147 C136 1.191 . S
O148 C127 1.331 . S
O148 Mg134 2.081 . S
O149 Mg130 1.986 . S
O149 C136 1.307 . S
O150 C128 1.264 . S
O150 Mg134 2.023 1_655 S
O151 C127 1.244 . S
O151 Mg135 1.942 . S
O152 C128 1.273 . S
O152 Mg135 1.955 1_655 S
O153 C126 1.312 . S
O153 Mg129 2.291 . S
O153 Mg132 2.114 . S
O154 C126 1.208 . S
O154 Mg134 2.031 . S
C155 O140 1.264 . S
C155 O142 1.273 . S
C156 O137 1.191 . S
C156 O139 1.307 . S
C157 O184 1.312 . S
C157 O185 1.208 . S
C158 O179 1.331 . S
C158 O182 1.244 . S
C159 O181 1.264 . S
C159 O183 1.273 . S
Mg160 O162 1.936 1_545 S
Mg160 O169 2.081 1_545 S
Mg160 O171 2.023 . S
Mg160 O175 2.031 1_545 S
Mg160 O184 2.291 . S
Mg161 O162 1.963 . S
Mg161 O172 1.942 . S
Mg161 O173 1.955 1_565 S
Mg161 O180 1.986 . S
O162 Mg160 1.936 1_565 S
O162 Mg161 1.963 . S
O162 Mg163 1.915 1_565 S
Mg163 O162 1.915 1_545 S
Mg163 O164 1.915 . S
Mg163 O168 2.013 . S
Mg163 O174 2.114 1_545 S
Mg163 O178 2.013 1_545 S
Mg163 O184 2.114 . S
O164 Mg163 1.915 . S
O164 Mg165 1.936 . S
O164 Mg166 1.963 . S
Mg165 O164 1.936 . S
Mg165 O174 2.291 1_545 S
Mg165 O179 2.081 . S
Mg165 O181 2.023 1_545 S
Mg165 O185 2.031 . S
Mg166 O164 1.963 . S
Mg166 O170 1.986 . S
Mg166 O182 1.942 . S
Mg166 O183 1.955 1_545 S
C167 O178 1.191 . S
C167 O180 1.307 . S
O168 Mg163 2.013 . S
O168 C187 1.191 . S
O169 Mg160 2.081 1_565 S
O169 C177 1.331 . S
O170 Mg166 1.986 . S
O170 C187 1.307 . S
O171 Mg160 2.023 . S
O171 C186 1.264 . S
O172 Mg161 1.942 . S
O172 C177 1.244 . S
O173 Mg161 1.955 1_545 S
O173 C186 1.273 . S
O174 Mg163 2.114 1_565 S
O174 Mg165 2.291 1_565 S
O174 C176 1.312 . S
O175 Mg160 2.031 1_565 S
O175 C176 1.208 . S
C176 O174 1.312 . S
C176 O175 1.208 . S
C177 O169 1.331 . S
C177 O172 1.244 . S
O178 Mg163 2.013 1_565 S
O178 C167 1.191 . S
O179 C158 1.331 . S
O179 Mg165 2.081 . S
O180 Mg161 1.986 . S
O180 C167 1.307 . S
O181 C159 1.264 . S
O181 Mg165 2.023 1_565 S
O182 C158 1.244 . S
O182 Mg166 1.942 . S
O183 C159 1.273 . S
O183 Mg166 1.955 1_565 S
O184 C157 1.312 . S
O184 Mg160 2.291 . S
O184 Mg163 2.114 . S
O185 C157 1.208 . S
O185 Mg165 2.031 . S
C186 O171 1.264 . S
C186 O173 1.273 . S
C187 O168 1.191 . S
C187 O170 1.307 . S
C188 O215 1.312 . S
C188 O216 1.208 . S
C189 O210 1.331 . S
C189 O213 1.244 . S
C190 O212 1.264 . S
C190 O214 1.273 . S
Mg191 O193 1.936 . S
Mg191 O200 2.081 . S
Mg191 O202 2.023 . S
Mg191 O206 2.031 . S
Mg191 O215 2.291 . S
Mg192 O193 1.963 . S
Mg192 O203 1.942 . S
Mg192 O204 1.955 . S
Mg192 O211 1.986 . S
O193 Mg191 1.936 . S
O193 Mg192 1.963 . S
O193 Mg194 1.915 . S
Mg194 O193 1.915 . S
Mg194 O195 1.915 . S
Mg194 O199 2.013 . S
Mg194 O205 2.114 . S
Mg194 O209 2.013 . S
Mg194 O215 2.114 . S
O195 Mg194 1.915 . S
O195 Mg196 1.936 . S
O195 Mg197 1.963 . S
Mg196 O195 1.936 . S
Mg196 O205 2.291 . S
Mg196 O210 2.081 . S
Mg196 O212 2.023 . S
Mg196 O216 2.031 . S
Mg197 O195 1.963 . S
Mg197 O201 1.986 . S
Mg197 O213 1.942 . S
Mg197 O214 1.955 . S
C198 O209 1.191 . S
C198 O211 1.307 . S
O199 Mg194 2.013 . S
O199 C218 1.191 . S
O200 Mg191 2.081 . S
O200 C208 1.331 . S
O201 Mg197 1.986 . S
O201 C218 1.307 . S
O202 Mg191 2.023 . S
O202 C217 1.264 . S
O203 Mg192 1.942 . S
O203 C208 1.244 . S
O204 Mg192 1.955 . S
O204 C217 1.273 . S
O205 Mg194 2.114 . S
O205 Mg196 2.291 . S
O205 C207 1.312 . S
O206 Mg191 2.031 . S
O206 C207 1.208 . S
C207 O205 1.312 . S
C207 O206 1.208 . S
C208 O200 1.331 . S
C208 O203 1.244 . S
O209 Mg194 2.013 . S
O209 C198 1.191 . S
O210 C189 1.331 . S
O210 Mg196 2.081 . S
O211 Mg192 1.986 . S
O211 C198 1.307 . S
O212 C190 1.264 . S
O212 Mg196 2.023 . S
O213 C189 1.244 . S
O213 Mg197 1.942 . S
O214 C190 1.273 . S
O214 Mg197 1.955 . S
O215 C188 1.312 . S
O215 Mg191 2.291 . S
O215 Mg194 2.114 . S
O216 C188 1.208 . S
O216 Mg196 2.031 . S
C217 O202 1.264 . S
C217 O204 1.273 . S
C218 O199 1.191 . S
C218 O201 1.307 . S
C219 C220 1.170 . S
C219 C221 1.380 . S
C220 C219 1.170 . S
C221 C219 1.380 . S
C221 C222 1.170 . S
C222 C221 1.170 . S
C223 C224 1.170 . S
C223 C225 1.380 . S
C224 C223 1.170 . S
C225 C223 1.380 . S
C225 C226 1.170 . S
C226 C225 1.170 . S
C227 C228 1.170 . S
C227 C229 1.380 . S
C228 C227 1.170 . S
C229 C227 1.380 . S
C229 C230 1.170 . S
C230 C229 1.170 . S
C231 C232 1.170 . S
C231 C233 1.380 . S
C232 C231 1.170 . S
C233 C231 1.380 . S
C233 C234 1.170 . S
C234 C233 1.170 . S
C235 C236 1.170 . S
C235 C237 1.380 . S
C236 C235 1.170 . S
C237 C235 1.380 . S
C237 C238 1.170 . S
C238 C237 1.170 . S
C239 C240 1.170 . S
C239 C241 1.380 . S
C240 C239 1.170 . S
C241 C239 1.380 . S
C241 C242 1.170 . S
C242 C241 1.170 . S
C243 C244 1.170 . S
C243 C245 1.380 . S
C244 C243 1.170 . S
C245 C243 1.380 . S
C245 C246 1.170 . S
C246 C245 1.170 . S
C247 C248 1.170 . S
C247 C249 1.380 . S
C248 C247 1.170 . S
C249 C247 1.380 . S
C249 C250 1.170 . S
C250 C249 1.170 . S
C251 C252 1.170 . S
C251 C253 1.380 . S
C252 C251 1.170 . S
C253 C251 1.380 . S
C253 C254 1.170 . S
C254 C253 1.170 . S
C255 C256 1.170 . S
C255 C257 1.380 1_554 S
C256 C255 1.170 . S
C257 C255 1.380 1_556 S
C257 C258 1.170 . S
C258 C257 1.170 . S
C259 C260 1.170 . S
C259 C261 1.380 1_554 S
C260 C259 1.170 . S
C261 C259 1.380 1_556 S
C261 C262 1.170 . S
C262 C261 1.170 . S
C263 C264 1.170 . S
C263 C265 1.380 . S
C264 C263 1.170 . S
C265 C263 1.380 . S
C265 C266 1.170 . S
C266 C265 1.170 . S
C267 C268 1.170 . S
C267 C269 1.380 . S
C268 C267 1.170 . S
C269 C267 1.380 . S
C269 C270 1.170 . S
C270 C269 1.170 . S
C271 C272 1.170 . S
C271 C273 1.380 . S
C272 C271 1.170 . S
C273 C271 1.380 . S
C273 C274 1.170 . S
C274 C273 1.170 . S
C275 C276 1.170 1_556 S
C275 C277 1.380 . S
C276 C275 1.170 1_554 S
C277 C275 1.380 . S
C277 C278 1.170 . S
C278 C277 1.170 . S
C279 C280 1.170 . S
C279 C281 1.380 1_554 S
C280 C279 1.170 . S
C281 C279 1.380 1_556 S
C281 C282 1.170 . S
C282 C281 1.170 . S
C283 C284 1.170 . S
C283 C285 1.380 . S
C284 C283 1.170 . S
C285 C283 1.380 . S
C285 C286 1.170 . S
C286 C285 1.170 . S
C287 C288 1.170 . S
C287 C289 1.380 . S
C288 C287 1.170 . S
C289 C287 1.380 . S
C289 C290 1.170 . S
C290 C289 1.170 . S
C291 C292 1.170 . S
C291 C293 1.380 . S
C292 C291 1.170 . S
C293 C291 1.380 . S
C293 C294 1.170 . S
C294 C293 1.170 . S
C295 C296 1.170 . S
C295 C297 1.380 . S
C296 C295 1.170 . S
C297 C295 1.380 . S
C297 C298 1.170 . S
C298 C297 1.170 . S
C299 C300 1.170 . S
C299 C301 1.380 . S
C300 C299 1.170 . S
C301 C299 1.380 . S
C301 C302 1.170 . S
C302 C301 1.170 . S
C303 C304 1.170 . S
C303 C305 1.380 . S
C304 C303 1.170 . S
C305 C303 1.380 . S
C305 C306 1.170 . S
C306 C305 1.170 . S
C307 C308 1.170 . S
C307 C309 1.380 . S
C308 C307 1.170 . S
C309 C307 1.380 . S
C309 C310 1.170 . S
C310 C309 1.170 . S
C311 C312 1.170 . S
C311 C313 1.380 . S
C312 C311 1.170 . S
C313 C311 1.380 . S
C313 C314 1.170 . S
C314 C313 1.170 . S
C220 C12 1.623 . S
C222 C126 1.785 . S
C224 C40 1.496 . S
C226 C158 1.492 . S
C230 C217 1.794 . S
C228 C61 1.840 . S
C234 C146 1.411 . S
C232 C82 1.393 . S
C236 C96 1.578 . S
C238 C176 1.655 . S
C242 C198 1.377 . S
C240 C117 1.237 . S
C246 C167 1.776 . S
C244 C51 1.720 . S
C248 C72 1.390 . S
C250 C207 1.400 . S
C254 C156 1.675 . S
C252 C101 1.574 1_556 S
C256 C122 1.384 . S
C258 C186 1.491 . S
C260 C17 1.673 . S
C262 C189 1.768 . S
C266 C128 1.568 . S
C264 C30 1.549 1_556 S
C270 C136 1.725 . S
C268 C80 1.675 . S
C274 C177 1.484 . S
C272 C93 1.409 1_556 S
C278 C190 1.830 . S
C276 C114 1.798 . S
C282 C127 1.378 . S
C280 C9 1.355 . S
C286 C187 1.611 . S
C284 C38 1.612 1_556 S
C288 C59 1.282 . S
C290 C188 1.313 . S
C294 C157 1.668 . S
C292 C124 1.607 . S
C298 C218 1.327 . S
C296 C19 1.282 . S
C302 C145 1.582 . S
C300 C33 1.630 . S
C306 C159 1.488 . S
C304 C54 1.488 . S
C308 C75 1.716 . S
C310 C208 1.715 . S
C312 C103 1.475 . S
C314 C155 1.556 . S
