# Generated by pormake.
# Topology pyr, (3,6)-cn, num edge types: 1
# Building blocks:
#     Node 0, Type 0, BuildingBlock: VETTIZ_charged_linker_0, # of connection points: 3
#     Node 1, Type 0, BuildingBlock: VETTIZ_charged_linker_0, # of connection points: 3
#     Node 2, Type 0, BuildingBlock: VETTIZ_charged_linker_0, # of connection points: 3
#     Node 3, Type 0, BuildingBlock: VETTIZ_charged_linker_0, # of connection points: 3
#     Node 4, Type 0, BuildingBlock: VETTIZ_charged_linker_0, # of connection points: 3
#     Node 5, Type 0, BuildingBlock: VETTIZ_charged_linker_0, # of connection points: 3
#     Node 6, Type 0, BuildingBlock: VETTIZ_charged_linker_0, # of connection points: 3
#     Node 7, Type 0, BuildingBlock: VETTIZ_charged_linker_0, # of connection points: 3
#     Node 8, Type 1, BuildingBlock: PAMTOO_clean_sbu_0, # of connection points: 6
#     Node 9, Type 1, BuildingBlock: PAMTOO_clean_sbu_0, # of connection points: 6
#     Node 10, Type 1, BuildingBlock: PAMTOO_clean_sbu_0, # of connection points: 6
#     Node 11, Type 1, BuildingBlock: PAMTOO_clean_sbu_0, # of connection points: 6
#     Edge 12, Type (0, 1), BuildingBlock: XIVTED_clean_linker_0, # of connection points: 2
#     Edge 13, Type (0, 1), BuildingBlock: XIVTED_clean_linker_0, # of connection points: 2
#     Edge 14, Type (0, 1), BuildingBlock: XIVTED_clean_linker_0, # of connection points: 2
#     Edge 15, Type (0, 1), BuildingBlock: XIVTED_clean_linker_0, # of connection points: 2
#     Edge 16, Type (0, 1), BuildingBlock: XIVTED_clean_linker_0, # of connection points: 2
#     Edge 17, Type (0, 1), BuildingBlock: XIVTED_clean_linker_0, # of connection points: 2
#     Edge 18, Type (0, 1), BuildingBlock: XIVTED_clean_linker_0, # of connection points: 2
#     Edge 19, Type (0, 1), BuildingBlock: XIVTED_clean_linker_0, # of connection points: 2
#     Edge 20, Type (0, 1), BuildingBlock: XIVTED_clean_linker_0, # of connection points: 2
#     Edge 21, Type (0, 1), BuildingBlock: XIVTED_clean_linker_0, # of connection points: 2
#     Edge 22, Type (0, 1), BuildingBlock: XIVTED_clean_linker_0, # of connection points: 2
#     Edge 23, Type (0, 1), BuildingBlock: XIVTED_clean_linker_0, # of connection points: 2
#     Edge 24, Type (0, 1), BuildingBlock: XIVTED_clean_linker_0, # of connection points: 2
#     Edge 25, Type (0, 1), BuildingBlock: XIVTED_clean_linker_0, # of connection points: 2
#     Edge 26, Type (0, 1), BuildingBlock: XIVTED_clean_linker_0, # of connection points: 2
#     Edge 27, Type (0, 1), BuildingBlock: XIVTED_clean_linker_0, # of connection points: 2
#     Edge 28, Type (0, 1), BuildingBlock: XIVTED_clean_linker_0, # of connection points: 2
#     Edge 29, Type (0, 1), BuildingBlock: XIVTED_clean_linker_0, # of connection points: 2
#     Edge 30, Type (0, 1), BuildingBlock: XIVTED_clean_linker_0, # of connection points: 2
#     Edge 31, Type (0, 1), BuildingBlock: XIVTED_clean_linker_0, # of connection points: 2
#     Edge 32, Type (0, 1), BuildingBlock: XIVTED_clean_linker_0, # of connection points: 2
#     Edge 33, Type (0, 1), BuildingBlock: XIVTED_clean_linker_0, # of connection points: 2
#     Edge 34, Type (0, 1), BuildingBlock: XIVTED_clean_linker_0, # of connection points: 2
#     Edge 35, Type (0, 1), BuildingBlock: XIVTED_clean_linker_0, # of connection points: 2
# Relax obj value: 0.092
# Max RMSD: 0.158
# Mean RMSD: 0.068
data_MOF--net-pyr--node1-PAMTOO_clean_sbu_0--node2-VETTIZ_charged_linker_0--edge1-XIVTED_clean_linker_0
_symmetry_space_group_name_H-M    P1
_symmetry_Int_Tables_number       1
_symmetry_cell_setting            triclinic
loop_
_symmetry_equiv_pos_as_xyz
'x, y, z'
_cell_length_a     45.704464
_cell_length_b     47.424581
_cell_length_c     46.597004
_cell_angle_alpha  89.971499
_cell_angle_beta   90.031543
_cell_angle_gamma 102.01167
loop_
_atom_site_label
_atom_site_type_symbol
_atom_site_fract_x
_atom_site_fract_y
_atom_site_fract_z
_atom_type_partial_charge
C0 C 0.30799 0.23979 0.32766 0.0
C1 C 0.2831 0.24657 0.3418 0.0
C2 C 0.26833 0.26665 0.32882 0.0
C3 C 0.2994 0.26829 0.2865 0.0
C4 C 0.31517 0.25017 0.29988 0.0
C5 C 0.33672 0.24014 0.27987 0.0
H6 H 0.37972 0.22161 0.14409 0.0
C7 C 0.30909 0.27135 0.2562 0.0
C8 C 0.33078 0.25476 0.25209 0.0
H9 H 0.40689 0.18555 0.22245 0.0
H10 H 0.38054 0.21495 0.25044 0.0
H11 H 0.38737 0.28975 0.1704 0.0
H12 H 0.31259 0.21777 0.16146 0.0
H13 H 0.30143 0.24938 0.15033 0.0
H14 H 0.33063 0.23731 0.13106 0.0
H15 H 0.37155 0.27805 0.13605 0.0
H16 H 0.35621 0.3027 0.15811 0.0
C17 C 0.36883 0.25197 0.29108 0.0
C18 C 0.32783 0.20671 0.27785 0.0
C19 C 0.25611 0.32715 0.18819 0.0
C20 C 0.25696 0.33136 0.15836 0.0
C21 C 0.27741 0.31962 0.14189 0.0
C22 C 0.29656 0.30378 0.15508 0.0
C23 C 0.29487 0.29926 0.18496 0.0
C24 C 0.27501 0.31115 0.20092 0.0
C25 C 0.27497 0.30329 0.23209 0.0
C26 C 0.29873 0.28534 0.23254 0.0
C27 C 0.31024 0.28276 0.2049 0.0
C28 C 0.28461 0.33141 0.24967 0.0
C29 C 0.24346 0.28531 0.23979 0.0
C30 C 0.38031 0.22055 0.1673 0.0
C31 C 0.395 0.20109 0.18121 0.0
C32 C 0.39534 0.20014 0.21139 0.0
C33 C 0.37999 0.21718 0.22757 0.0
C34 C 0.36356 0.23496 0.21345 0.0
C35 C 0.36459 0.23721 0.18387 0.0
C36 C 0.34537 0.25716 0.17284 0.0
C37 C 0.33195 0.2656 0.20062 0.0
C38 C 0.34256 0.25224 0.22424 0.0
C39 C 0.36599 0.28329 0.15836 0.0
C40 C 0.32126 0.23975 0.15269 0.0
H41 H 0.26379 0.29216 0.29247 0.0
H42 H 0.32047 0.22504 0.33707 0.0
H43 H 0.30339 0.19885 0.28127 0.0
H44 H 0.3319 0.19826 0.2565 0.0
H45 H 0.33967 0.1963 0.29429 0.0
H46 H 0.37086 0.27401 0.30014 0.0
H47 H 0.37482 0.23801 0.30832 0.0
H48 H 0.38587 0.2544 0.27393 0.0
H49 H 0.24013 0.33518 0.2014 0.0
H50 H 0.2785 0.32263 0.11884 0.0
H51 H 0.31154 0.29523 0.14147 0.0
H52 H 0.30342 0.34632 0.2389 0.0
H53 H 0.26583 0.34283 0.25184 0.0
H54 H 0.29299 0.32767 0.27127 0.0
H55 H 0.23139 0.275 0.22051 0.0
H56 H 0.24446 0.26703 0.25426 0.0
H57 H 0.22924 0.29897 0.24975 0.0
H58 H 0.24902 0.27241 0.33881 0.0
C59 C 0.27659 0.27778 0.30148 0.0
C60 C 0.12085 0.81506 0.66636 0.0
C61 C 0.10637 0.83465 0.68028 0.0
C62 C 0.10619 0.83566 0.71045 0.0
C63 C 0.13778 0.80066 0.71247 0.0
C64 C 0.13658 0.79835 0.6829 0.0
C65 C 0.15568 0.77832 0.67184 0.0
H66 H 0.2614 0.70073 0.70002 0.0
C67 C 0.15879 0.78335 0.72322 0.0
C68 C 0.16922 0.76991 0.69958 0.0
H69 H 0.22231 0.7129 0.61764 0.0
H70 H 0.18921 0.74008 0.64041 0.0
H71 H 0.26989 0.76081 0.7191 0.0
H72 H 0.19818 0.68925 0.73774 0.0
H73 H 0.20861 0.70796 0.77008 0.0
H74 H 0.23581 0.69289 0.75065 0.0
H75 H 0.27234 0.73675 0.74823 0.0
H76 H 0.25705 0.76861 0.75297 0.0
C77 C 0.17969 0.79566 0.65155 0.0
C78 C 0.13492 0.7522 0.65749 0.0
C79 C 0.19407 0.79608 0.82644 0.0
C80 C 0.21895 0.78919 0.84054 0.0
C81 C 0.23358 0.76902 0.82756 0.0
C82 C 0.22517 0.75788 0.80025 0.0
C83 C 0.20236 0.76746 0.78531 0.0
C84 C 0.18673 0.78566 0.79871 0.0
C85 C 0.16506 0.79566 0.77877 0.0
C86 C 0.17078 0.78092 0.75101 0.0
C87 C 0.19247 0.76431 0.75506 0.0
C88 C 0.174 0.82908 0.77661 0.0
C89 C 0.13302 0.78391 0.79017 0.0
C90 C 0.24524 0.70861 0.68687 0.0
C91 C 0.24425 0.70439 0.65704 0.0
C92 C 0.22355 0.71594 0.64068 0.0
C93 C 0.20436 0.73165 0.65395 0.0
C94 C 0.20625 0.73625 0.68381 0.0
C95 C 0.22629 0.72448 0.69968 0.0
C96 C 0.22647 0.73235 0.73085 0.0
C97 C 0.20266 0.75025 0.73138 0.0
C98 C 0.19097 0.75275 0.70379 0.0
C99 C 0.25799 0.7504 0.73843 0.0
C100 C 0.21697 0.70424 0.74847 0.0
H101 H 0.12112 0.82085 0.74948 0.0
H102 H 0.12132 0.81397 0.64315 0.0
H103 H 0.1136 0.74582 0.66961 0.0
H104 H 0.14465 0.73276 0.65726 0.0
H105 H 0.12926 0.7574 0.63519 0.0
H106 H 0.18848 0.81764 0.66026 0.0
H107 H 0.1702 0.79809 0.62996 0.0
H108 H 0.19947 0.78597 0.6491 0.0
H109 H 0.18172 0.81091 0.83586 0.0
H110 H 0.25287 0.76318 0.83753 0.0
H111 H 0.23787 0.74343 0.79123 0.0
H112 H 0.19845 0.83692 0.77994 0.0
H113 H 0.16225 0.83957 0.79303 0.0
H114 H 0.16985 0.83745 0.75523 0.0
H115 H 0.131 0.7619 0.79929 0.0
H116 H 0.11586 0.78147 0.77311 0.0
H117 H 0.12718 0.79794 0.80741 0.0
H118 H 0.09481 0.85036 0.72152 0.0
C119 C 0.12152 0.81856 0.72661 0.0
C120 C 0.61359 0.26049 0.90377 0.0
C121 C 0.58925 0.24149 0.89131 0.0
C122 C 0.57586 0.25067 0.86659 0.0
C123 C 0.61187 0.29658 0.86695 0.0
C124 C 0.62443 0.28749 0.89138 0.0
C125 C 0.65041 0.3094 0.90239 0.0
H126 H 0.75098 0.43405 0.8874 0.0
C127 C 0.62934 0.32593 0.85962 0.0
C128 C 0.65192 0.33323 0.88046 0.0
H129 H 0.74285 0.37055 0.95538 0.0
H130 H 0.69892 0.34311 0.93356 0.0
H131 H 0.68096 0.4355 0.88812 0.0
H132 H 0.73092 0.38936 0.83361 0.0
H133 H 0.70719 0.40557 0.81215 0.0
H134 H 0.73569 0.42793 0.83353 0.0
H135 H 0.70305 0.45284 0.8588 0.0
H136 H 0.6647 0.43411 0.8539 0.0
C137 C 0.64224 0.31897 0.93273 0.0
C138 C 0.67848 0.29577 0.90133 0.0
C139 C 0.60262 0.38169 0.77257 0.0
C140 C 0.61468 0.40944 0.76159 0.0
C141 C 0.64002 0.42617 0.77524 0.0
C142 C 0.65292 0.4158 0.79933 0.0
C143 C 0.64042 0.38834 0.81029 0.0
C144 C 0.61566 0.3717 0.79699 0.0
C145 C 0.60514 0.34325 0.81225 0.0
C146 C 0.62739 0.34578 0.83697 0.0
C147 C 0.64821 0.37227 0.83552 0.0
C148 C 0.57288 0.34177 0.82304 0.0
C149 C 0.60818 0.31872 0.79136 0.0
C150 C 0.73964 0.41428 0.89762 0.0
C151 C 0.75132 0.40414 0.92284 0.0
C152 C 0.73537 0.37848 0.93547 0.0
C153 C 0.70944 0.36256 0.92284 0.0
C154 C 0.69871 0.37226 0.89725 0.0
C155 C 0.71324 0.39804 0.88532 0.0
C156 C 0.69714 0.40539 0.85886 0.0
C157 C 0.67132 0.37923 0.85653 0.0
C158 C 0.67274 0.35992 0.87899 0.0
C159 C 0.68597 0.4335 0.86494 0.0
C160 C 0.71876 0.40739 0.83306 0.0
H161 H 0.57615 0.28371 0.83541 0.0
H162 H 0.62404 0.25462 0.92312 0.0
H163 H 0.67784 0.28161 0.8822 0.0
H164 H 0.69964 0.31179 0.89915 0.0
H165 H 0.67982 0.28237 0.92065 0.0
H166 H 0.61763 0.31659 0.93527 0.0
H167 H 0.64998 0.30587 0.94979 0.0
H168 H 0.65139 0.34209 0.93692 0.0
H169 H 0.58305 0.36833 0.76279 0.0
H170 H 0.65009 0.44737 0.76711 0.0
H171 H 0.67216 0.42966 0.80856 0.0
H172 H 0.57058 0.36288 0.83215 0.0
H173 H 0.5565 0.33639 0.80522 0.0
H174 H 0.56643 0.32597 0.84048 0.0
H175 H 0.62958 0.32434 0.77926 0.0
H176 H 0.60875 0.2983 0.80244 0.0
H177 H 0.5896 0.31487 0.77551 0.0
H178 H 0.55704 0.23652 0.85648 0.0
C179 C 0.58709 0.27805 0.85431 0.0
C180 C 0.90521 0.77305 0.38609 0.0
C181 C 0.89476 0.78584 0.41045 0.0
C182 C 0.86717 0.77227 0.42261 0.0
C183 C 0.8621 0.73311 0.38857 0.0
C184 C 0.8884 0.74665 0.37549 0.0
C185 C 0.89543 0.72957 0.34983 0.0
H186 H 0.8583 0.6078 0.26778 0.0
C187 C 0.85027 0.70577 0.37343 0.0
C188 C 0.86943 0.7034 0.35045 0.0
H189 H 0.93229 0.67998 0.2553 0.0
H190 H 0.91681 0.70385 0.29679 0.0
H191 H 0.86326 0.60548 0.33831 0.0
H192 H 0.80978 0.64598 0.28138 0.0
H193 H 0.78711 0.63062 0.31016 0.0
H194 H 0.80265 0.60761 0.28633 0.0
H195 H 0.83419 0.58517 0.31613 0.0
H196 H 0.82609 0.59846 0.3508 0.0
C197 C 0.9258 0.72102 0.35522 0.0
C198 C 0.89476 0.74811 0.32261 0.0
C199 C 0.75739 0.64023 0.41335 0.0
C200 C 0.73979 0.61357 0.40491 0.0
C201 C 0.74862 0.59993 0.38035 0.0
C202 C 0.77427 0.61275 0.36459 0.0
C203 C 0.79134 0.63962 0.3733 0.0
C204 C 0.78254 0.65281 0.39727 0.0
C205 C 0.80245 0.68152 0.40329 0.0
C206 C 0.82506 0.68345 0.3792 0.0
C207 C 0.81869 0.65888 0.36167 0.0
C208 C 0.81697 0.67977 0.43319 0.0
C209 C 0.78335 0.70496 0.40057 0.0
C210 C 0.87133 0.62864 0.2741 0.0
C211 C 0.89666 0.6419 0.25817 0.0
C212 C 0.91258 0.66933 0.26695 0.0
C213 C 0.90361 0.68315 0.29115 0.0
C214 C 0.87824 0.6696 0.30679 0.0
C215 C 0.86248 0.64283 0.29804 0.0
C216 C 0.83559 0.63192 0.31667 0.0
C217 C 0.83781 0.65639 0.33811 0.0
C218 C 0.863 0.67849 0.3324 0.0
C219 C 0.83969 0.60366 0.33122 0.0
C220 C 0.80717 0.62859 0.2978 0.0
H221 H 0.83059 0.73711 0.42281 0.0
H222 H 0.92609 0.78298 0.37589 0.0
H223 H 0.87677 0.76065 0.32414 0.0
H224 H 0.88959 0.73504 0.30296 0.0
H225 H 0.91633 0.7637 0.31968 0.0
H226 H 0.92703 0.71322 0.37762 0.0
H227 H 0.94463 0.73976 0.35204 0.0
H228 H 0.92937 0.70322 0.34134 0.0
H229 H 0.75192 0.65126 0.43231 0.0
H230 H 0.73546 0.57955 0.37299 0.0
H231 H 0.77971 0.60134 0.34611 0.0
H232 H 0.82234 0.65817 0.43661 0.0
H233 H 0.80164 0.68334 0.45067 0.0
H234 H 0.83854 0.69511 0.4358 0.0
H235 H 0.76373 0.69787 0.3862 0.0
H236 H 0.79582 0.72508 0.39059 0.0
H237 H 0.77464 0.71007 0.42177 0.0
H238 H 0.85777 0.78191 0.44052 0.0
C239 C 0.85106 0.74616 0.41202 0.0
C240 C 0.7152 0.69716 0.9073 0.0
C241 C 0.73507 0.68203 0.89415 0.0
C242 C 0.73626 0.68116 0.86392 0.0
C243 C 0.70194 0.71352 0.86065 0.0
C244 C 0.69873 0.71259 0.89012 0.0
C245 C 0.67749 0.73092 0.90029 0.0
H246 H 0.60375 0.83748 0.87148 0.0
C247 C 0.68524 0.73451 0.8492 0.0
C248 C 0.67028 0.74442 0.87218 0.0
H249 H 0.60581 0.79152 0.95142 0.0
H250 H 0.63413 0.76002 0.92874 0.0
H251 H 0.59185 0.77863 0.82948 0.0
H252 H 0.66795 0.84259 0.85607 0.0
H253 H 0.67668 0.83231 0.82156 0.0
H254 H 0.64488 0.84886 0.82662 0.0
H255 H 0.59861 0.81578 0.81871 0.0
H256 H 0.61422 0.7897 0.79905 0.0
C257 C 0.64956 0.71086 0.91339 0.0
C258 C 0.69452 0.75376 0.92141 0.0
C259 C 0.70866 0.7729 0.74857 0.0
C260 C 0.70397 0.798 0.7348 0.0
C261 C 0.68291 0.81267 0.74663 0.0
C262 C 0.66875 0.80385 0.77278 0.0
C263 C 0.67614 0.7805 0.78765 0.0
C264 C 0.69523 0.76504 0.77516 0.0
C265 C 0.70287 0.74266 0.79505 0.0
C266 C 0.68544 0.74747 0.8217 0.0
C267 C 0.66977 0.76958 0.8172 0.0
C268 C 0.69091 0.71253 0.78173 0.0
C269 C 0.73724 0.75016 0.80005 0.0
C270 C 0.6097 0.82027 0.884 0.0
C271 C 0.60266 0.81718 0.91336 0.0
C272 C 0.61137 0.79472 0.9289 0.0
C273 C 0.62773 0.77637 0.9157 0.0
C274 C 0.63568 0.78057 0.88667 0.0
C275 C 0.62606 0.80178 0.87117 0.0
C276 C 0.63675 0.80327 0.8406 0.0
C277 C 0.65385 0.77906 0.84017 0.0
C278 C 0.65363 0.76618 0.86736 0.0
C279 C 0.60903 0.7967 0.82071 0.0
C280 C 0.65749 0.83327 0.83568 0.0
H281 H 0.72227 0.69574 0.82435 0.0
H282 H 0.71319 0.69763 0.93044 0.0
H283 H 0.71683 0.76392 0.91256 0.0
H284 H 0.68298 0.77158 0.92548 0.0
H285 H 0.69809 0.74377 0.94234 0.0
H286 H 0.64592 0.6888 0.90408 0.0
H287 H 0.65187 0.70877 0.93698 0.0
H288 H 0.62867 0.71831 0.90865 0.0
H289 H 0.72414 0.76067 0.73989 0.0
H290 H 0.67875 0.83212 0.73675 0.0
H291 H 0.65383 0.81654 0.78115 0.0
H292 H 0.67055 0.71233 0.76856 0.0
H293 H 0.70788 0.70599 0.76757 0.0
H294 H 0.68372 0.69568 0.79818 0.0
H295 H 0.74553 0.77391 0.80141 0.0
H296 H 0.74433 0.74185 0.82039 0.0
H297 H 0.74931 0.74209 0.78218 0.0
H298 H 0.75134 0.66982 0.8531 0.0
C299 C 0.71962 0.69656 0.84717 0.0
C300 C 0.8831 0.22777 0.40831 0.0
C301 C 0.89999 0.20932 0.39576 0.0
C302 C 0.90118 0.20764 0.36558 0.0
C303 C 0.86628 0.23948 0.36123 0.0
C304 C 0.86644 0.24255 0.3907 0.0
C305 C 0.84566 0.26142 0.40058 0.0
H306 H 0.73454 0.33067 0.36805 0.0
C307 C 0.84427 0.2551 0.3493 0.0
C308 C 0.83232 0.26833 0.37221 0.0
H309 H 0.77379 0.32292 0.45137 0.0
H310 H 0.8094 0.29789 0.42992 0.0
H311 H 0.73108 0.27047 0.34949 0.0
H312 H 0.79864 0.34588 0.33201 0.0
H313 H 0.79126 0.32644 0.2997 0.0
H314 H 0.76151 0.33942 0.31734 0.0
H315 H 0.72715 0.29445 0.32068 0.0
H316 H 0.74497 0.26424 0.31562 0.0
C317 C 0.82186 0.24332 0.42058 0.0
C318 C 0.86463 0.28868 0.4148 0.0
C319 C 0.81205 0.239 0.24531 0.0
C320 C 0.78737 0.24501 0.2301 0.0
C321 C 0.77138 0.26455 0.24224 0.0
C322 C 0.77835 0.27604 0.26966 0.0
C323 C 0.80113 0.26752 0.28557 0.0
C324 C 0.81808 0.24991 0.2731 0.0
C325 C 0.83988 0.24138 0.29394 0.0
C326 C 0.83274 0.25633 0.32111 0.0
C327 C 0.81008 0.2716 0.316 0.0
C328 C 0.83222 0.20804 0.29684 0.0
C329 C 0.87197 0.25396 0.28311 0.0
C330 C 0.75119 0.32419 0.38168 0.0
C331 C 0.75138 0.32891 0.41145 0.0
C332 C 0.77299 0.31933 0.42841 0.0
C333 C 0.79368 0.30488 0.41589 0.0
C334 C 0.79255 0.29964 0.38615 0.0
C335 C 0.77178 0.30965 0.36959 0.0
C336 C 0.77303 0.30156 0.33855 0.0
C337 C 0.79829 0.28534 0.33902 0.0
C338 C 0.80953 0.28401 0.36694 0.0
C339 C 0.74255 0.28183 0.3304 0.0
C340 C 0.78134 0.32968 0.32074 0.0
H341 H 0.88589 0.21998 0.32553 0.0
H342 H 0.88219 0.23008 0.43139 0.0
H343 H 0.88661 0.29538 0.40383 0.0
H344 H 0.85411 0.30759 0.4132 0.0
H345 H 0.86911 0.28469 0.43772 0.0
H346 H 0.81458 0.22098 0.41221 0.0
H347 H 0.83097 0.24185 0.44251 0.0
H348 H 0.8012 0.25175 0.42217 0.0
H349 H 0.82538 0.22468 0.23658 0.0
H350 H 0.75213 0.26962 0.23148 0.0
H351 H 0.76464 0.28993 0.27798 0.0
H352 H 0.80763 0.19965 0.29561 0.0
H353 H 0.84275 0.19767 0.2794 0.0
H354 H 0.83876 0.2002 0.31766 0.0
H355 H 0.87316 0.27517 0.27244 0.0
H356 H 0.8885 0.25842 0.30072 0.0
H357 H 0.8793 0.23937 0.26727 0.0
H358 H 0.91382 0.19356 0.35524 0.0
C359 C 0.88464 0.22277 0.3483 0.0
C360 C 0.40083 0.64453 0.31195 0.0
C361 C 0.38719 0.61785 0.32443 0.0
C362 C 0.36013 0.60256 0.3124 0.0
C363 C 0.36098 0.63979 0.2764 0.0
C364 C 0.38741 0.65503 0.28807 0.0
C365 C 0.39884 0.68294 0.27216 0.0
H366 H 0.37923 0.77326 0.16317 0.0
C367 C 0.3528 0.65639 0.25174 0.0
C368 C 0.37498 0.68186 0.24912 0.0
H369 H 0.4525 0.78606 0.22363 0.0
H370 H 0.43032 0.74089 0.24722 0.0
H371 H 0.32831 0.75195 0.20766 0.0
H372 H 0.37833 0.70865 0.15109 0.0
H373 H 0.34197 0.68757 0.15089 0.0
H374 H 0.34825 0.7245 0.13875 0.0
H375 H 0.32121 0.74883 0.16982 0.0
H376 H 0.30256 0.72194 0.19483 0.0
C377 C 0.39948 0.70822 0.29325 0.0
C378 C 0.42967 0.68188 0.25911 0.0
C379 C 0.25713 0.61821 0.19403 0.0
C380 C 0.24396 0.62978 0.17057 0.0
C381 C 0.25905 0.65609 0.15859 0.0
C382 C 0.28615 0.67099 0.16994 0.0
C383 C 0.29873 0.65967 0.19368 0.0
C384 C 0.28446 0.63363 0.2053 0.0
C385 C 0.30154 0.62534 0.23067 0.0
C386 C 0.32817 0.6508 0.23225 0.0
C387 C 0.3262 0.6707 0.21047 0.0
C388 C 0.28131 0.62356 0.25754 0.0
C389 C 0.31133 0.59687 0.22322 0.0
C390 C 0.39086 0.76636 0.18128 0.0
C391 C 0.41793 0.78325 0.19118 0.0
C392 C 0.4316 0.77357 0.21547 0.0
C393 C 0.41875 0.74724 0.22905 0.0
C394 C 0.39183 0.7304 0.21836 0.0
C395 C 0.37848 0.74035 0.19489 0.0
C396 C 0.35015 0.72027 0.18598 0.0
C397 C 0.34843 0.69635 0.20783 0.0
C398 C 0.37278 0.70212 0.22694 0.0
C399 C 0.32409 0.73643 0.18947 0.0
C400 C 0.35457 0.70973 0.15503 0.0
H401 H 0.3265 0.60052 0.28069 0.0
H402 H 0.4217 0.65687 0.32031 0.0
H403 H 0.42948 0.66024 0.24981 0.0
H404 H 0.43595 0.69726 0.24129 0.0
H405 H 0.44749 0.6862 0.27573 0.0
H406 H 0.3791 0.7042 0.30694 0.0
H407 H 0.41927 0.71097 0.30762 0.0
H408 H 0.39955 0.72883 0.28225 0.0
H409 H 0.2461 0.59806 0.20377 0.0
H410 H 0.24987 0.66523 0.14019 0.0
H411 H 0.29612 0.69092 0.15974 0.0
H412 H 0.26778 0.64053 0.25691 0.0
H413 H 0.26554 0.60233 0.25882 0.0
H414 H 0.29411 0.62745 0.27775 0.0
H415 H 0.31807 0.59669 0.20029 0.0
H416 H 0.33114 0.59385 0.23544 0.0
H417 H 0.29278 0.57797 0.2268 0.0
H418 H 0.34864 0.58234 0.32168 0.0
C419 C 0.34708 0.61329 0.2886 0.0
C420 C 0.0868 0.27023 0.70106 0.0
C421 C 0.09667 0.2572 0.67662 0.0
C422 C 0.12394 0.27049 0.66375 0.0
C423 C 0.13036 0.30966 0.69793 0.0
C424 C 0.10399 0.29661 0.71124 0.0
C425 C 0.09701 0.31443 0.73632 0.0
H426 H 0.13706 0.43571 0.81846 0.0
C427 C 0.14268 0.33705 0.71282 0.0
C428 C 0.12338 0.34024 0.73544 0.0
H429 H 0.0594 0.36658 0.82822 0.0
H430 H 0.07471 0.34217 0.78723 0.0
H431 H 0.13281 0.43937 0.74847 0.0
H432 H 0.18396 0.39503 0.80414 0.0
H433 H 0.20736 0.4119 0.77641 0.0
H434 H 0.19141 0.43363 0.80122 0.0
H435 H 0.16345 0.45831 0.76972 0.0
H436 H 0.16939 0.444 0.73486 0.0
C437 C 0.06695 0.32338 0.73018 0.0
C438 C 0.09706 0.29642 0.76399 0.0
C439 C 0.23947 0.39833 0.67579 0.0
C440 C 0.25741 0.42483 0.68408 0.0
C441 C 0.2479 0.43985 0.70728 0.0
C442 C 0.2213 0.42826 0.72223 0.0
C443 C 0.20389 0.40141 0.71384 0.0
C444 C 0.21316 0.38714 0.69082 0.0
C445 C 0.1922 0.3591 0.68441 0.0
C446 C 0.16873 0.35855 0.70747 0.0
C447 C 0.17551 0.38328 0.72477 0.0
C448 C 0.17927 0.36121 0.65384 0.0
C449 C 0.20965 0.33455 0.68849 0.0
C450 C 0.12314 0.41548 0.81166 0.0
C451 C 0.09698 0.40315 0.82695 0.0
C452 C 0.0799 0.37648 0.81733 0.0
C453 C 0.08873 0.36233 0.79334 0.0
C454 C 0.11501 0.37481 0.77853 0.0
C455 C 0.13169 0.40103 0.78772 0.0
C456 C 0.15904 0.4111 0.76943 0.0
C457 C 0.15615 0.38664 0.74788 0.0
C458 C 0.13023 0.3653 0.75324 0.0
C459 C 0.15635 0.43981 0.7549 0.0
C460 C 0.18706 0.41328 0.78866 0.0
H461 H 0.16104 0.3052 0.66304 0.0
H462 H 0.06597 0.26053 0.71149 0.0
H463 H 0.11552 0.2844 0.76346 0.0
H464 H 0.101 0.30978 0.78354 0.0
H465 H 0.07568 0.28041 0.76635 0.0
H466 H 0.06542 0.32928 0.70719 0.0
H467 H 0.04773 0.30544 0.73498 0.0
H468 H 0.06428 0.34265 0.74233 0.0
H469 H 0.24564 0.38644 0.65772 0.0
H470 H 0.26132 0.46029 0.71421 0.0
H471 H 0.2154 0.44055 0.73985 0.0
H472 H 0.17741 0.38371 0.64876 0.0
H473 H 0.19378 0.3544 0.63722 0.0
H474 H 0.15623 0.34849 0.65138 0.0
H475 H 0.22705 0.34011 0.70545 0.0
H476 H 0.19532 0.31415 0.69595 0.0
H477 H 0.22112 0.33047 0.66838 0.0
H478 H 0.13246 0.2607 0.6454 0.0
C479 C 0.14068 0.29643 0.67416 0.0
Dy480 Dy 0.03145 0.02817 0.52396 0.0
Dy481 Dy 0.96847 1.01485 0.56081 0.0
C482 C 0.02022 0.07019 0.57406 0.0
O483 O 0.0384 1.00477 0.56424 0.0
O484 O 0.99107 0.97857 0.57016 0.0
O485 O 0.07952 0.03739 0.52587 0.0
O486 O 0.05707 0.03119 0.4846 0.0
O487 O 0.95943 0.98567 0.52258 0.0
O488 O 0.00752 0.98489 0.50842 0.0
O489 O 0.96635 0.05344 0.53436 0.0
O490 O 0.00092 0.05045 0.49921 0.0
O491 O 0.92059 1.01045 0.56342 0.0
O492 O 0.9464 1.00632 0.60173 0.0
C493 C 0.0199 0.982 0.5742 0.0
O494 O 0.03072 0.06859 0.54803 0.0
O495 O 0.00097 0.04851 0.58536 0.0
C496 C 0.10453 0.06257 0.48643 0.0
C497 C 0.14964 0.1076 0.46553 0.0
C498 C 0.13033 0.11283 0.48748 0.0
C499 C 0.10789 0.09046 0.49786 0.0
C500 C 0.12328 0.05744 0.4642 0.0
C501 C 0.14557 0.07972 0.45377 0.0
C502 C 0.08258 0.03823 0.49805 0.0
C503 C 0.97856 0.97441 0.50758 0.0
C504 C 0.97859 0.06106 0.5093 0.0
C505 C 0.89717 0.97767 0.5993 0.0
C506 C 0.85313 0.93007 0.6175 0.0
C507 C 0.8504 0.94325 0.59091 0.0
C508 C 0.8722 0.96684 0.58189 0.0
C509 C 0.89983 0.96447 0.62589 0.0
C510 C 0.87813 0.9409 0.63483 0.0
C511 C 0.91971 1.00336 0.59053 0.0
H512 H 0.13292 0.13403 0.49702 0.0
H513 H 0.0935 0.09481 0.51505 0.0
H514 H 0.12087 0.03606 0.45507 0.0
H515 H 0.15953 0.07509 0.43636 0.0
H516 H 0.83143 0.93533 0.57706 0.0
H517 H 0.86932 0.9767 0.5614 0.0
H518 H 0.91851 0.97257 0.64002 0.0
H519 H 0.88058 0.93162 0.65572 0.0
Dy520 Dy 0.46997 1.00664 1.02603 0.0
Dy521 Dy 0.53367 0.02206 0.06106 0.0
C522 C 0.48245 0.96703 0.07788 0.0
O523 O 0.46343 0.0311 0.06571 0.0
O524 O 0.51066 0.05811 0.0702 0.0
O525 O 0.4219 0.99615 1.02807 0.0
O526 O 0.44416 1.00345 0.98676 0.0
O527 O 0.5414 0.04807 1.02041 0.0
O528 O 0.4928 0.05026 1.01049 0.0
O529 O 0.53411 0.98138 1.03771 0.0
O530 O 0.50052 0.98388 1.00166 0.0
O531 O 0.58138 0.02539 0.0622 0.0
O532 O 0.55772 0.03375 0.10066 0.0
C533 C 0.48189 0.05427 0.07495 0.0
O534 O 0.47091 0.96743 0.0521 0.0
O535 O 0.50235 0.98913 0.08767 0.0
C536 C 0.39698 0.97152 0.98816 0.0
C537 C 0.3521 0.92688 0.96617 0.0
C538 C 0.3706 0.92142 0.98876 0.0
C539 C 0.39292 0.94361 0.9997 0.0
C540 C 0.37906 0.97685 0.96529 0.0
C541 C 0.3569 0.95477 0.95433 0.0
C542 C 0.41875 0.99575 1.00025 0.0
C543 C 0.52165 0.05979 1.00681 0.0
C544 C 0.52232 0.97307 1.01267 0.0
C545 C 0.60808 0.05788 0.0959 0.0
C546 C 0.65608 0.10336 0.11 0.0
C547 C 0.63528 0.10713 0.08878 0.0
C548 C 0.61142 0.08448 0.08174 0.0
C549 C 0.62864 0.05409 0.11702 0.0
C550 C 0.65237 0.07658 0.12407 0.0
C551 C 0.58363 0.03359 0.08897 0.0
H552 H 0.36744 0.9002 0.99837 0.0
H553 H 0.40666 0.93909 1.01738 0.0
H554 H 0.38201 0.99824 0.95606 0.0
H555 H 0.34359 0.95956 0.93645 0.0
H556 H 0.63757 0.12745 0.07752 0.0
H557 H 0.59564 0.08768 0.0653 0.0
H558 H 0.62626 0.03369 0.12821 0.0
H559 H 0.6675 0.07312 0.14098 0.0
Dy560 Dy 0.49648 0.48275 0.52783 0.0
Dy561 Dy 0.50229 0.54512 0.56059 0.0
C562 C 0.52905 0.49347 0.58869 0.0
O563 O 0.45973 0.47666 0.56032 0.0
O564 O 0.45406 0.5233 0.56291 0.0
O565 O 0.48899 0.43628 0.52937 0.0
O566 O 0.49714 0.45847 0.48865 0.0
O567 O 0.48906 0.55214 0.51534 0.0
O568 O 0.46638 0.50598 0.50311 0.0
O569 O 0.54858 0.54664 0.54427 0.0
O570 O 0.53719 0.5115 0.50962 0.0
O571 O 0.5116 0.59174 0.56063 0.0
O572 O 0.4965 0.56813 0.59945 0.0
C573 C 0.44422 0.49578 0.56803 0.0
O574 O 0.52959 0.48194 0.56311 0.0
O575 O 0.51583 0.51521 0.59306 0.0
C576 C 0.52016 0.41923 0.49598 0.0
C577 C 0.57054 0.3968 0.48092 0.0
C578 C 0.56805 0.40786 0.50856 0.0
C579 C 0.5432 0.41915 0.51596 0.0
C580 C 0.52212 0.40736 0.46869 0.0
C581 C 0.54713 0.39628 0.46118 0.0
C582 C 0.49579 0.43428 0.50237 0.0
C583 C 0.47155 0.53395 0.49833 0.0
C584 C 0.55564 0.53349 0.52123 0.0
C585 C 0.47652 0.60866 0.58977 0.0
C586 C 0.42483 0.63084 0.59968 0.0
C587 C 0.4298 0.61956 0.57268 0.0
C588 C 0.45533 0.60833 0.56782 0.0
C589 C 0.47221 0.621 0.61633 0.0
C590 C 0.44654 0.63195 0.62128 0.0
C591 C 0.50091 0.59297 0.58644 0.0
H592 H 0.58588 0.40886 0.52409 0.0
H593 H 0.54248 0.42861 0.53703 0.0
H594 H 0.50471 0.40742 0.45291 0.0
H595 H 0.54834 0.38765 0.4398 0.0
H596 H 0.4133 0.61819 0.55575 0.0
H597 H 0.45791 0.59844 0.54728 0.0
H598 H 0.48814 0.62118 0.63359 0.0
H599 H 0.44337 0.64077 0.64222 0.0
Dy600 Dy -0.0009 0.55039 1.02654 0.0
Dy601 Dy 0.99683 0.49045 0.06287 0.0
C602 C 0.96909 0.54227 0.08879 0.0
O603 O 0.03709 0.55989 0.05769 0.0
O604 O 0.04461 0.51404 0.0635 0.0
O605 O 0.00329 0.59661 1.02522 0.0
O606 O 0.99718 0.57187 0.98587 0.0
O607 O 0.00879 0.48144 1.01781 0.0
O608 O 0.02979 0.52713 1.00276 0.0
O609 O 0.94963 0.48691 0.04807 0.0
O610 O 0.95876 0.51929 1.01075 0.0
O611 O 0.98843 0.44394 0.06537 0.0
O612 O 0.00519 0.46975 0.10245 0.0
C613 C 0.0536 0.54201 0.06657 0.0
O614 O 0.96725 0.55224 0.06268 0.0
O615 O 0.98323 0.52136 0.09402 0.0
C616 C 0.9705 0.60894 0.99015 0.0
C617 C 0.91707 0.62513 0.97317 0.0
C618 C 0.9224 0.62018 1.00224 0.0
C619 C 0.94877 0.61196 1.01064 0.0
C620 C 0.96571 0.61497 0.96127 0.0
C621 C 0.93919 0.6229 0.95283 0.0
C622 C 0.99639 0.59644 0.99804 0.0
C623 C 0.02536 0.49898 0.9996 0.0
C624 C 0.94124 0.49798 1.0243 0.0
C625 C 0.02507 0.42891 0.09404 0.0
C626 C 0.07695 0.40683 0.10323 0.0
C627 C 0.07122 0.41749 0.07613 0.0
C628 C 0.0456 0.42867 0.07163 0.0
C629 C 0.03016 0.41726 0.12075 0.0
C630 C 0.05591 0.40635 0.12535 0.0
C631 C 0.00039 0.44424 0.09082 0.0
H632 H 0.90565 0.6215 1.01834 0.0
H633 H 0.95164 0.60707 1.03305 0.0
H634 H 0.98206 0.61262 0.94509 0.0
H635 H 0.9358 0.62692 0.9303 0.0
H636 H 0.08718 0.41837 0.05881 0.0
H637 H 0.04238 0.43801 0.05093 0.0
H638 H 0.01472 0.4175 0.13835 0.0
H639 H 0.05966 0.398 0.14637 0.0
H640 H 0.25128 0.26349 0.38712 0.0
H641 H 0.20666 0.10399 0.45076 0.0
H642 H 0.28356 0.19012 0.35463 0.0
H643 H 0.14807 0.16448 0.45539 0.0
H644 H 0.24407 0.14062 0.42682 0.0
H645 H 0.22207 0.23196 0.42311 0.0
C646 C 0.25263 0.24098 0.38763 0.0
C647 C 0.26981 0.22959 0.36732 0.0
C648 C 0.22314 0.14594 0.43336 0.0
C649 C 0.23707 0.19375 0.40901 0.0
C650 C 0.20168 0.12501 0.44685 0.0
C651 C 0.17386 0.13093 0.45447 0.0
C652 C 0.21689 0.1731 0.42757 0.0
C653 C 0.16913 0.15892 0.44977 0.0
C654 C 0.23604 0.22309 0.40831 0.0
C655 C 0.27118 0.20032 0.36981 0.0
N656 N 0.19033 0.17893 0.4363 0.0
N657 N 0.2549 0.18348 0.39007 0.0
H658 H 0.25048 0.77197 0.88595 0.0
H659 H 0.29573 0.93128 0.94994 0.0
H660 H 0.21902 0.84574 0.85325 0.0
H661 H 0.35316 0.86985 0.95629 0.0
H662 H 0.2585 0.89509 0.92528 0.0
H663 H 0.27964 0.80324 0.92217 0.0
C664 C 0.24932 0.79452 0.88646 0.0
C665 C 0.23234 0.80609 0.86606 0.0
C666 C 0.27914 0.88946 0.93233 0.0
C667 C 0.26506 0.84166 0.90797 0.0
C668 C 0.30049 0.91013 0.94624 0.0
C669 C 0.32794 0.90382 0.95458 0.0
C670 C 0.28511 0.86214 0.9268 0.0
C671 C 0.33238 0.87571 0.95011 0.0
C672 C 0.26587 0.81227 0.90726 0.0
C673 C 0.23123 0.83542 0.86851 0.0
N674 N 0.31129 0.85594 0.9362 0.0
N675 N 0.24747 0.85212 0.88889 0.0
H676 H 0.60382 0.46381 0.75497 0.0
H677 H 0.54918 0.44259 0.59131 0.0
H678 H 0.59443 0.38268 0.71053 0.0
H679 H 0.53964 0.51549 0.64317 0.0
H680 H 0.56926 0.4216 0.63317 0.0
H681 H 0.58363 0.48413 0.71299 0.0
C682 C 0.59758 0.45024 0.73634 0.0
C683 C 0.60101 0.42146 0.73635 0.0
C684 C 0.56279 0.4422 0.63536 0.0
C685 C 0.57774 0.44477 0.68786 0.0
C686 C 0.55145 0.45432 0.6114 0.0
C687 C 0.54266 0.48096 0.61356 0.0
C688 C 0.56572 0.45689 0.66175 0.0
C689 C 0.54603 0.49494 0.64034 0.0
C690 C 0.5859 0.46186 0.71237 0.0
C691 C 0.59204 0.40489 0.71162 0.0
N692 N 0.55732 0.48282 0.66324 0.0
N693 N 0.58104 0.41681 0.68835 0.0
H694 H 0.91532 0.66523 0.20553 0.0
H695 H 0.95885 0.52189 0.14384 0.0
H696 H 0.90027 0.58502 0.25232 0.0
H697 H 0.95015 0.59372 0.08996 0.0
H698 H 0.94034 0.54567 0.18455 0.0
H699 H 0.93144 0.64068 0.16394 0.0
C700 C 0.91551 0.64248 0.20712 0.0
C701 C 0.90642 0.62722 0.23256 0.0
C702 C 0.94232 0.55617 0.16379 0.0
C703 C 0.9249 0.5989 0.18488 0.0
C704 C 0.95294 0.5426 0.14048 0.0
C705 C 0.95609 0.55575 0.1133 0.0
C706 C 0.93514 0.58336 0.16016 0.0
C707 C 0.94799 0.58265 0.11041 0.0
C708 C 0.92453 0.62843 0.18328 0.0
C709 C 0.90682 0.59765 0.23315 0.0
N710 N 0.93814 0.59563 0.13354 0.0
N711 N 0.91606 0.58455 0.2098 0.0
H712 H 0.3817 0.14305 0.18732 0.0
H713 H 0.50817 0.11116 0.08285 0.0
H714 H 0.43667 0.21082 0.13787 0.0
H715 H 0.42805 0.04798 0.10217 0.0
H716 H 0.48687 0.1478 0.10782 0.0
H717 H 0.40302 0.10747 0.1611 0.0
C718 C 0.39836 0.15038 0.17093 0.0
C719 C 0.4076 0.17981 0.16474 0.0
C720 C 0.47402 0.1259 0.1065 0.0
C721 C 0.43219 0.13934 0.13485 0.0
C722 C 0.4862 0.10497 0.09247 0.0
C723 C 0.46985 0.07648 0.09052 0.0
C724 C 0.4456 0.1181 0.11908 0.0
C725 C 0.44139 0.06968 0.10313 0.0
C726 C 0.41039 0.13011 0.15591 0.0
C727 C 0.429 0.18825 0.14315 0.0
N728 N 0.43026 0.09029 0.11705 0.0
N729 N 0.44084 0.16808 0.12908 0.0
H730 H 0.12048 0.8927 0.6859 0.0
H731 H 0.993 0.92545 0.58311 0.0
H732 H 0.06407 0.82508 0.63748 0.0
H733 H 0.07427 0.98787 0.60042 0.0
H734 H 0.0142 0.88869 0.60803 0.0
H735 H 0.0993 0.92845 0.65971 0.0
C736 C 0.10354 0.88545 0.66974 0.0
C737 C 0.09386 0.85601 0.66382 0.0
C738 C 0.02732 0.91044 0.60628 0.0
C739 C 0.06941 0.89666 0.63399 0.0
C740 C 0.01521 0.93145 0.59229 0.0
C741 C 0.0319 0.95976 0.58979 0.0
C742 C 0.05605 0.91799 0.61828 0.0
C743 C 0.06066 0.96631 0.60182 0.0
C744 C 0.09159 0.90581 0.65474 0.0
C745 C 0.07209 0.84764 0.64253 0.0
N746 N 0.07173 0.94563 0.61574 0.0
N747 N 0.06032 0.86791 0.6285 0.0
H748 H 0.77427 0.46292 0.92707 0.0
H749 H 0.90609 0.44442 1.03365 0.0
H750 H 0.7942 0.3805 0.94931 0.0
H751 H 0.90967 0.52232 0.98465 0.0
H752 H 0.85989 0.42245 1.00855 0.0
H753 H 0.81993 0.4868 0.95235 0.0
C754 C 0.7882 0.44981 0.93704 0.0
C755 C 0.77992 0.41954 0.93632 0.0
C756 C 0.87076 0.44439 1.00337 0.0
C757 C 0.83176 0.44679 0.96584 0.0
C758 C 0.89701 0.45701 1.01785 0.0
C759 C 0.91188 0.4852 1.01117 0.0
C760 C 0.85897 0.46017 0.98233 0.0
C761 C 0.89908 0.50044 0.99034 0.0
C762 C 0.81415 0.46348 0.95163 0.0
C763 C 0.79895 0.40381 0.94992 0.0
N764 N 0.87334 0.48776 0.9767 0.0
N765 N 0.82369 0.41757 0.96426 0.0
H766 H 0.71622 0.556 0.41603 0.0
H767 H 0.59196 0.58727 0.52531 0.0
H768 H 0.70049 0.64127 0.43243 0.0
H769 H 0.58495 0.50507 0.48325 0.0
H770 H 0.63715 0.60622 0.4973 0.0
H771 H 0.67238 0.5358 0.44537 0.0
C772 C 0.70358 0.57052 0.42557 0.0
C773 C 0.71245 0.60051 0.42177 0.0
C774 C 0.62575 0.584 0.49432 0.0
C775 C 0.66264 0.57745 0.45606 0.0
C776 C 0.60009 0.57311 0.51045 0.0
C777 C 0.58454 0.54458 0.50655 0.0
C778 C 0.63622 0.56613 0.47442 0.0
C779 C 0.59608 0.52727 0.48682 0.0
C780 C 0.67866 0.55894 0.4425 0.0
C781 C 0.69521 0.61812 0.43519 0.0
N782 N 0.62122 0.53829 0.47153 0.0
N783 N 0.67136 0.60636 0.45181 0.0
H784 H 0.22284 0.31612 0.11004 0.0
H785 H 0.1143 0.42186 0.14873 0.0
H786 H 0.24089 0.38074 0.17649 0.0
H787 H 0.10493 0.37196 0.07065 0.0
H788 H 0.16116 0.40683 0.15865 0.0
H789 H 0.1809 0.33691 0.0936 0.0
C790 C 0.21837 0.33502 0.12079 0.0
C791 C 0.23511 0.34649 0.14491 0.0
C792 C 0.149 0.39922 0.13925 0.0
C793 C 0.18694 0.36994 0.12665 0.0
C794 C 0.12209 0.40759 0.13374 0.0
C795 C 0.10558 0.39787 0.10901 0.0
C796 C 0.15943 0.3807 0.12007 0.0
C797 C 0.11702 0.37991 0.08998 0.0
C798 C 0.19431 0.34674 0.11154 0.0
C799 C 0.22818 0.37085 0.15818 0.0
N800 N 0.14315 0.37165 0.09604 0.0
N801 N 0.20445 0.38152 0.1491 0.0
H802 H 0.53106 0.21215 0.89993 0.0
H803 H 0.57935 0.08691 0.99347 0.0
H804 H 0.62255 0.20463 0.91324 0.0
H805 H 0.48739 0.09076 0.97654 0.0
H806 H 0.5954 0.12935 0.96304 0.0
H807 H 0.51434 0.16673 0.9261 0.0
C808 C 0.54763 0.20082 0.90803 0.0
C809 C 0.57829 0.2125 0.90458 0.0
C810 C 0.57169 0.12085 0.96588 0.0
C811 C 0.55932 0.1606 0.93494 0.0
C812 C 0.5625 0.09656 0.9833 0.0
C813 C 0.53193 0.08513 0.9877 0.0
C814 C 0.55023 0.134 0.95272 0.0
C815 C 0.5112 0.09873 0.97388 0.0
C816 C 0.53808 0.17497 0.92316 0.0
C817 C 0.5987 0.19686 0.91582 0.0
N818 N 0.52071 0.12242 0.95715 0.0
N819 N 0.58888 0.17193 0.93056 0.0
H820 H 0.90068 0.79878 0.46764 0.0
H821 H 0.00315 0.95471 0.45963 0.0
H822 H 0.92805 0.835 0.38444 0.0
H823 H 0.92869 0.93287 0.51808 0.0
H824 H 0.98512 0.9087 0.43435 0.0
H825 H 0.92136 0.84517 0.48961 0.0
C826 C 0.91101 0.81647 0.45387 0.0
C827 C 0.91172 0.81303 0.42391 0.0
C828 C 0.97275 0.91419 0.45261 0.0
C829 C 0.93645 0.86626 0.44941 0.0
C830 C 0.983 0.94031 0.46707 0.0
C831 C 0.96732 0.94767 0.49096 0.0
C832 C 0.94723 0.89499 0.46269 0.0
C833 C 0.94135 0.92823 0.49967 0.0
C834 C 0.9229 0.84295 0.46655 0.0
C835 C 0.92674 0.8366 0.40755 0.0
N836 N 0.93237 0.90268 0.4858 0.0
N837 N 0.93847 0.86233 0.42051 0.0
H838 H 0.2776 0.71975 0.60828 0.0
H839 H 0.38887 0.61644 0.64624 0.0
H840 H 0.26145 0.65552 0.67526 0.0
H841 H 0.39551 0.66471 0.56719 0.0
H842 H 0.34194 0.63104 0.65687 0.0
H843 H 0.31972 0.6995 0.59146 0.0
C844 C 0.28252 0.70104 0.61908 0.0
C845 C 0.26625 0.68954 0.64345 0.0
C846 C 0.35353 0.63839 0.63711 0.0
C847 C 0.31467 0.66672 0.62474 0.0
C848 C 0.38047 0.63027 0.63119 0.0
C849 C 0.39623 0.63966 0.60597 0.0
C850 C 0.34229 0.65631 0.61784 0.0
C851 C 0.38401 0.65705 0.5869 0.0
C852 C 0.30669 0.68963 0.6096 0.0
C853 C 0.27378 0.66546 0.65676 0.0
N854 N 0.35786 0.66506 0.59334 0.0
N855 N 0.29762 0.6551 0.64746 0.0
H856 H 0.76336 0.79736 0.72781 0.0
H857 H 0.79216 0.92412 0.614 0.0
H858 H 0.69137 0.8297 0.68813 0.0
H859 H 0.86035 0.88098 0.64496 0.0
H860 H 0.75406 0.88692 0.63674 0.0
H861 H 0.79791 0.82421 0.69349 0.0
C862 C 0.7545 0.80951 0.71148 0.0
C863 C 0.72415 0.81117 0.7111 0.0
C864 C 0.77733 0.8854 0.63823 0.0
C865 C 0.76441 0.84324 0.67208 0.0
C866 C 0.79909 0.90656 0.62515 0.0
C867 C 0.82953 0.90589 0.62796 0.0
C868 C 0.78613 0.86352 0.65431 0.0
C869 C 0.83721 0.88273 0.64282 0.0
C870 C 0.7745 0.82519 0.69195 0.0
C871 C 0.71459 0.82813 0.68969 0.0
N872 N 0.8157 0.86268 0.65567 0.0
N873 N 0.73473 0.84383 0.67128 0.0
H874 H 0.75704 0.26132 0.1834 0.0
H875 H 0.71389 0.1006 0.12284 0.0
H876 H 0.78987 0.18893 0.21757 0.0
H877 H 0.65505 0.16076 0.11684 0.0
H878 H 0.75178 0.13816 0.14506 0.0
H879 H 0.72922 0.22932 0.14701 0.0
C880 C 0.75881 0.23892 0.18317 0.0
C881 C 0.77556 0.22789 0.20417 0.0
C882 C 0.73072 0.14322 0.13849 0.0
C883 C 0.74446 0.19151 0.16197 0.0
C884 C 0.70902 0.12179 0.12595 0.0
C885 C 0.68094 0.12732 0.11863 0.0
C886 C 0.72443 0.17048 0.14363 0.0
C887 C 0.6763 0.15547 0.12228 0.0
C888 C 0.74304 0.22076 0.16224 0.0
C889 C 0.77765 0.19879 0.20195 0.0
N890 N 0.6977 0.17595 0.13491 0.0
N891 N 0.76209 0.18164 0.18146 0.0
H892 H 0.41666 0.64704 0.37088 0.0
H893 H 0.439 0.50419 0.45383 0.0
H894 H 0.38851 0.56114 0.33656 0.0
H895 H 0.47354 0.59058 0.48446 0.0
H896 H 0.41891 0.52445 0.41152 0.0
H897 H 0.43689 0.62671 0.4129 0.0
C898 C 0.41488 0.62394 0.37198 0.0
C899 C 0.40065 0.60589 0.34994 0.0
C900 C 0.43087 0.53897 0.42752 0.0
C901 C 0.42353 0.58228 0.39856 0.0
C902 C 0.44229 0.52738 0.45178 0.0
C903 C 0.4581 0.54562 0.47287 0.0
C904 C 0.43513 0.56906 0.42425 0.0
C905 C 0.46164 0.57557 0.46883 0.0
C906 C 0.42629 0.61229 0.39616 0.0
C907 C 0.39874 0.576 0.35307 0.0
N908 N 0.4503 0.58627 0.44512 0.0
N909 N 0.40995 0.56521 0.37682 0.0
H910 H 0.07232 0.37824 0.87706 0.0
H911 H 0.05531 0.52646 0.95241 0.0
H912 H 0.1005 0.46133 0.83658 0.0
H913 H 0.02485 0.44203 0.9895 0.0
H914 H 0.07392 0.50383 0.91068 0.0
H915 H 0.05634 0.40191 0.91891 0.0
C916 C 0.07501 0.40147 0.87682 0.0
C917 C 0.08766 0.41767 0.85296 0.0
C918 C 0.06323 0.49031 0.92802 0.0
C919 C 0.06962 0.44521 0.90145 0.0
C920 C 0.05265 0.50323 0.95191 0.0
C921 C 0.03833 0.4862 0.97459 0.0
C922 C 0.05955 0.46012 0.92676 0.0
C923 C 0.03554 0.45616 0.97259 0.0
C924 C 0.06602 0.41504 0.90092 0.0
C925 C 0.09113 0.44786 0.85445 0.0
N926 N 0.04595 0.44418 0.9492 0.0
N927 N 0.0821 0.4606 0.87818 0.0
H928 H 0.55705 0.84215 0.89385 0.0
H929 H 0.56583 0.94558 1.03048 0.0
H930 H 0.61582 0.84136 0.96627 0.0
H931 H 0.50389 0.94718 0.96073 0.0
H932 H 0.58358 0.90691 1.00676 0.0
H933 H 0.53643 0.87986 0.91755 0.0
C934 C 0.56556 0.84983 0.91474 0.0
C935 C 0.58821 0.83851 0.92809 0.0
C936 C 0.5661 0.91562 0.99654 0.0
C937 C 0.56469 0.88156 0.95528 0.0
C938 C 0.55591 0.93785 1.01009 0.0
C939 C 0.53329 0.94979 0.99759 0.0
C940 C 0.55372 0.90506 0.97013 0.0
C941 C 0.5214 0.93868 0.97113 0.0
C942 C 0.55371 0.87128 0.92827 0.0
C943 C 0.59811 0.84905 0.9553 0.0
N944 N 0.5318 0.91692 0.95823 0.0
N945 N 0.58639 0.87 0.96788 0.0
H946 H 0.9541 0.19335 0.3879 0.0
H947 H 0.93057 0.08493 0.52154 0.0
H948 H 0.87778 0.18062 0.44462 0.0
H949 H 0.00155 0.08853 0.45961 0.0
H950 H 0.91315 0.12253 0.49517 0.0
H951 H 0.97412 0.15777 0.41561 0.0
C952 C 0.94159 0.18319 0.40621 0.0
C953 C 0.91414 0.19002 0.41386 0.0
C954 C 0.93253 0.11512 0.48728 0.0
C955 C 0.93704 0.14938 0.44573 0.0
C956 C 0.94253 0.09358 0.50235 0.0
C957 C 0.96757 0.08342 0.49277 0.0
C958 C 0.94765 0.12679 0.4624 0.0
C959 C 0.98207 0.09557 0.46773 0.0
C960 C 0.95308 0.16292 0.42205 0.0
C961 C 0.8992 0.17644 0.43809 0.0
N962 N 0.97191 0.11665 0.45341 0.0
N963 N 0.91077 0.15675 0.45304 0.0
H964 H 0.19759 0.6548 0.15562 0.0
H965 H 0.09457 0.51243 0.08861 0.0
H966 H 0.22304 0.5722 0.15759 0.0
H967 H 0.07778 0.59829 0.07963 0.0
H968 H 0.14016 0.53248 0.11579 0.0
H969 H 0.15168 0.63291 0.13073 0.0
C970 C 0.19348 0.63197 0.15082 0.0
C971 C 0.21446 0.61542 0.15838 0.0
C972 C 0.1265 0.54688 0.10779 0.0
C973 C 0.1615 0.58997 0.12973 0.0
C974 C 0.10049 0.53548 0.09218 0.0
C975 C 0.08223 0.55369 0.08169 0.0
C976 C 0.13423 0.57668 0.1131 0.0
C977 C 0.09106 0.58336 0.08715 0.0
C978 C 0.16718 0.61944 0.13658 0.0
C979 C 0.20751 0.58577 0.15218 0.0
N980 N 0.11628 0.59383 0.10247 0.0
N981 N 0.18169 0.57401 0.13802 0.0
H982 H 0.29875 0.39468 0.66569 0.0
H983 H 0.40624 0.52884 0.58934 0.0
H984 H 0.28127 0.48065 0.66692 0.0
H985 H 0.41767 0.44087 0.58413 0.0
H986 H 0.36123 0.51249 0.6184 0.0
H987 H 0.34342 0.41217 0.63713 0.0
C988 C 0.30426 0.41729 0.65989 0.0
C989 C 0.28594 0.43614 0.66851 0.0
C990 C 0.37356 0.49679 0.6108 0.0
C991 C 0.33758 0.4565 0.63578 0.0
C992 C 0.39924 0.50608 0.59412 0.0
C993 C 0.41585 0.4862 0.58418 0.0
C994 C 0.36444 0.46742 0.61771 0.0
C995 C 0.40567 0.45702 0.59122 0.0
C996 C 0.3299 0.4273 0.6436 0.0
C997 C 0.29475 0.46536 0.66087 0.0
N998 N 0.38076 0.44858 0.60755 0.0
N999 N 0.31986 0.47462 0.64483 0.0
H1000 H 0.76681 0.70515 0.94155 0.0
H1001 H 0.88192 0.60092 0.92859 0.0
H1002 H 0.75357 0.63118 0.88542 0.0
H1003 H 0.88586 0.66288 0.99698 0.0
H1004 H 0.83429 0.61147 0.91309 0.0
H1005 H 0.80883 0.68898 0.96389 0.0
C1006 C 0.77228 0.68517 0.93432 0.0
C1007 C 0.75681 0.66969 0.9113 0.0
C1008 C 0.84545 0.62268 0.93159 0.0
C1009 C 0.80542 0.65149 0.93632 0.0
C1010 C 0.87278 0.61686 0.94027 0.0
C1011 C 0.88799 0.63128 0.96391 0.0
C1012 C 0.8333 0.64331 0.94646 0.0
C1013 C 0.87483 0.65128 0.97864 0.0
C1014 C 0.79648 0.67609 0.94694 0.0
C1015 C 0.76524 0.64415 0.90266 0.0
N1016 N 0.84835 0.65691 0.96951 0.0
N1017 N 0.78918 0.63606 0.91492 0.0
H1018 H 0.44604 0.83623 0.2134 0.0
H1019 H 0.44893 0.91504 0.06119 0.0
H1020 H 0.42056 0.79253 0.13319 0.0
H1021 H 0.49616 0.95778 0.13457 0.0
H1022 H 0.43573 0.87088 0.08905 0.0
H1023 H 0.46322 0.88144 0.18666 0.0
C1024 C 0.44432 0.83602 0.19022 0.0
C1025 C 0.43136 0.8105 0.17564 0.0
C1026 C 0.44902 0.88985 0.09916 0.0
C1027 C 0.45054 0.86221 0.14499 0.0
C1028 C 0.45649 0.91525 0.08324 0.0
C1029 C 0.47373 0.94035 0.09547 0.0
C1030 C 0.45856 0.88929 0.12779 0.0
C1031 C 0.48286 0.93899 0.12421 0.0
C1032 C 0.45397 0.86187 0.17499 0.0
C1033 C 0.42963 0.81168 0.14554 0.0
N1034 N 0.47508 0.91393 0.13943 0.0
N1035 N 0.43882 0.837 0.13137 0.0
H1036 H 0.07017 0.20591 0.70305 0.0
H1037 H 0.05022 0.122 0.55348 0.0
H1038 H 0.08391 0.24687 0.6201 0.0
H1039 H 0.01122 0.08133 0.63136 0.0
H1040 H 0.06478 0.16731 0.57918 0.0
H1041 H 0.04897 0.15982 0.679 0.0
C1042 C 0.06826 0.20532 0.67988 0.0
C1043 C 0.07924 0.23019 0.66354 0.0
C1044 C 0.05296 0.14856 0.59075 0.0
C1045 C 0.05562 0.1777 0.63599 0.0
C1046 C 0.04476 0.12252 0.57607 0.0
C1047 C 0.02948 0.09766 0.59023 0.0
C1048 C 0.04622 0.15001 0.62006 0.0
C1049 C 0.02295 0.09994 0.61955 0.0
C1050 C 0.05636 0.17902 0.66617 0.0
C1051 C 0.07632 0.22816 0.63356 0.0
N1052 N 0.03151 0.12562 0.63357 0.0
N1053 N 0.06516 0.20245 0.62084 0.0
H1054 H 0.72955 0.37475 0.39138 0.0
H1055 H 0.602 0.36314 0.51106 0.0
H1056 H 0.71957 0.31347 0.46105 0.0
H1057 H 0.60229 0.40942 0.43128 0.0
H1058 H 0.64839 0.34891 0.49645 0.0
H1059 H 0.68663 0.39241 0.40951 0.0
C1060 C 0.7184 0.36508 0.41059 0.0
C1061 C 0.72797 0.34233 0.42451 0.0
C1062 C 0.63826 0.36216 0.48216 0.0
C1063 C 0.6788 0.36258 0.44547 0.0
C1064 C 0.61186 0.37033 0.4905 0.0
C1065 C 0.59818 0.38731 0.47225 0.0
C1066 C 0.65122 0.37131 0.45553 0.0
C1067 C 0.61182 0.39593 0.44581 0.0
C1068 C 0.6939 0.37519 0.42093 0.0
C1069 C 0.71307 0.33111 0.44969 0.0
N1070 N 0.63758 0.38788 0.43828 0.0
N1071 N 0.68907 0.34121 0.45927 0.0
loop_
_geom_bond_atom_site_label_1
_geom_bond_atom_site_label_2
_geom_bond_distance
_geom_bond_site_symmetry_2
_ccdc_geom_bond_type
C0 C1 1.391 . S
C0 C4 1.391 . S
C0 H42 0.948 . S
C1 C0 1.391 . S
C1 C2 1.391 . S
C2 C1 1.391 . S
C2 H58 0.947 . S
C2 C59 1.392 . S
C3 C4 1.391 . S
C3 C7 1.397 . S
C3 C59 1.419 . S
C4 C0 1.391 . S
C4 C3 1.391 . S
C4 C5 1.399 . S
C5 C4 1.399 . S
C5 C8 1.396 . S
C5 C17 1.453 . S
C5 C18 1.684 . S
H6 C30 0.948 . S
C7 C3 1.397 . S
C7 C8 1.394 . S
C7 C26 1.723 . S
C8 C5 1.396 . S
C8 C7 1.394 . S
C8 C38 1.723 . S
H9 C32 0.947 . S
H10 C33 0.948 . S
H11 C39 0.982 . S
H12 C40 0.979 . S
H13 C40 0.980 . S
H14 C40 0.983 . S
H15 C39 0.979 . S
H16 C39 0.977 . S
C17 C5 1.453 . S
C17 H46 0.982 . S
C17 H47 0.979 . S
C17 H48 0.977 . S
C18 C5 1.684 . S
C18 H43 0.979 . S
C18 H44 0.980 . S
C18 H45 0.983 . S
C19 C20 1.391 . S
C19 C24 1.391 . S
C19 H49 0.948 . S
C20 C19 1.391 . S
C20 C21 1.391 . S
C21 C20 1.391 . S
C21 C22 1.392 . S
C21 H50 0.947 . S
C22 C21 1.392 . S
C22 C23 1.419 . S
C22 H51 0.948 . S
C23 C22 1.419 . S
C23 C24 1.391 . S
C23 C27 1.397 . S
C24 C19 1.391 . S
C24 C23 1.391 . S
C24 C25 1.399 . S
C25 C24 1.399 . S
C25 C26 1.396 . S
C25 C28 1.453 . S
C25 C29 1.684 . S
C26 C7 1.723 . S
C26 C25 1.396 . S
C26 C27 1.394 . S
C27 C23 1.397 . S
C27 C26 1.394 . S
C27 C37 1.723 . S
C28 C25 1.453 . S
C28 H52 0.982 . S
C28 H53 0.979 . S
C28 H54 0.977 . S
C29 C25 1.684 . S
C29 H55 0.979 . S
C29 H56 0.980 . S
C29 H57 0.983 . S
C30 H6 0.948 . S
C30 C31 1.391 . S
C30 C35 1.391 . S
C31 C30 1.391 . S
C31 C32 1.391 . S
C32 H9 0.947 . S
C32 C31 1.391 . S
C32 C33 1.392 . S
C33 H10 0.948 . S
C33 C32 1.392 . S
C33 C34 1.419 . S
C34 C33 1.419 . S
C34 C35 1.391 . S
C34 C38 1.397 . S
C35 C30 1.391 . S
C35 C34 1.391 . S
C35 C36 1.399 . S
C36 C35 1.399 . S
C36 C37 1.396 . S
C36 C39 1.453 . S
C36 C40 1.684 . S
C37 C27 1.723 . S
C37 C36 1.396 . S
C37 C38 1.394 . S
C38 C8 1.723 . S
C38 C34 1.397 . S
C38 C37 1.394 . S
C39 H11 0.982 . S
C39 H15 0.979 . S
C39 H16 0.977 . S
C39 C36 1.453 . S
C40 H12 0.979 . S
C40 H13 0.980 . S
C40 H14 0.983 . S
C40 C36 1.684 . S
H41 C59 0.948 . S
H42 C0 0.948 . S
H43 C18 0.979 . S
H44 C18 0.980 . S
H45 C18 0.983 . S
H46 C17 0.982 . S
H47 C17 0.979 . S
H48 C17 0.977 . S
H49 C19 0.948 . S
H50 C21 0.947 . S
H51 C22 0.948 . S
H52 C28 0.982 . S
H53 C28 0.979 . S
H54 C28 0.977 . S
H55 C29 0.979 . S
H56 C29 0.980 . S
H57 C29 0.983 . S
H58 C2 0.947 . S
C59 C2 1.392 . S
C59 C3 1.419 . S
C59 H41 0.948 . S
C60 C61 1.391 . S
C60 C64 1.391 . S
C60 H102 0.948 . S
C61 C60 1.391 . S
C61 C62 1.391 . S
C62 C61 1.391 . S
C62 H118 0.947 . S
C62 C119 1.392 . S
C63 C64 1.391 . S
C63 C67 1.397 . S
C63 C119 1.419 . S
C64 C60 1.391 . S
C64 C63 1.391 . S
C64 C65 1.399 . S
C65 C64 1.399 . S
C65 C68 1.396 . S
C65 C77 1.453 . S
C65 C78 1.684 . S
H66 C90 0.948 . S
C67 C63 1.397 . S
C67 C68 1.394 . S
C67 C86 1.723 . S
C68 C65 1.396 . S
C68 C67 1.394 . S
C68 C98 1.723 . S
H69 C92 0.947 . S
H70 C93 0.948 . S
H71 C99 0.982 . S
H72 C100 0.979 . S
H73 C100 0.980 . S
H74 C100 0.983 . S
H75 C99 0.979 . S
H76 C99 0.977 . S
C77 C65 1.453 . S
C77 H106 0.982 . S
C77 H107 0.979 . S
C77 H108 0.977 . S
C78 C65 1.684 . S
C78 H103 0.979 . S
C78 H104 0.980 . S
C78 H105 0.983 . S
C79 C80 1.391 . S
C79 C84 1.391 . S
C79 H109 0.948 . S
C80 C79 1.391 . S
C80 C81 1.391 . S
C81 C80 1.391 . S
C81 C82 1.392 . S
C81 H110 0.947 . S
C82 C81 1.392 . S
C82 C83 1.419 . S
C82 H111 0.948 . S
C83 C82 1.419 . S
C83 C84 1.391 . S
C83 C87 1.397 . S
C84 C79 1.391 . S
C84 C83 1.391 . S
C84 C85 1.399 . S
C85 C84 1.399 . S
C85 C86 1.396 . S
C85 C88 1.453 . S
C85 C89 1.684 . S
C86 C67 1.723 . S
C86 C85 1.396 . S
C86 C87 1.394 . S
C87 C83 1.397 . S
C87 C86 1.394 . S
C87 C97 1.723 . S
C88 C85 1.453 . S
C88 H112 0.982 . S
C88 H113 0.979 . S
C88 H114 0.977 . S
C89 C85 1.684 . S
C89 H115 0.979 . S
C89 H116 0.980 . S
C89 H117 0.983 . S
C90 H66 0.948 . S
C90 C91 1.391 . S
C90 C95 1.391 . S
C91 C90 1.391 . S
C91 C92 1.391 . S
C92 H69 0.947 . S
C92 C91 1.391 . S
C92 C93 1.392 . S
C93 H70 0.948 . S
C93 C92 1.392 . S
C93 C94 1.419 . S
C94 C93 1.419 . S
C94 C95 1.391 . S
C94 C98 1.397 . S
C95 C90 1.391 . S
C95 C94 1.391 . S
C95 C96 1.399 . S
C96 C95 1.399 . S
C96 C97 1.396 . S
C96 C99 1.453 . S
C96 C100 1.684 . S
C97 C87 1.723 . S
C97 C96 1.396 . S
C97 C98 1.394 . S
C98 C68 1.723 . S
C98 C94 1.397 . S
C98 C97 1.394 . S
C99 H71 0.982 . S
C99 H75 0.979 . S
C99 H76 0.977 . S
C99 C96 1.453 . S
C100 H72 0.979 . S
C100 H73 0.980 . S
C100 H74 0.983 . S
C100 C96 1.684 . S
H101 C119 0.948 . S
H102 C60 0.948 . S
H103 C78 0.979 . S
H104 C78 0.980 . S
H105 C78 0.983 . S
H106 C77 0.982 . S
H107 C77 0.979 . S
H108 C77 0.977 . S
H109 C79 0.948 . S
H110 C81 0.947 . S
H111 C82 0.948 . S
H112 C88 0.982 . S
H113 C88 0.979 . S
H114 C88 0.977 . S
H115 C89 0.979 . S
H116 C89 0.980 . S
H117 C89 0.983 . S
H118 C62 0.947 . S
C119 C62 1.392 . S
C119 C63 1.419 . S
C119 H101 0.948 . S
C120 C121 1.391 . S
C120 C124 1.391 . S
C120 H162 0.948 . S
C121 C120 1.391 . S
C121 C122 1.391 . S
C122 C121 1.391 . S
C122 H178 0.947 . S
C122 C179 1.392 . S
C123 C124 1.391 . S
C123 C127 1.397 . S
C123 C179 1.419 . S
C124 C120 1.391 . S
C124 C123 1.391 . S
C124 C125 1.399 . S
C125 C124 1.399 . S
C125 C128 1.396 . S
C125 C137 1.453 . S
C125 C138 1.684 . S
H126 C150 0.948 . S
C127 C123 1.397 . S
C127 C128 1.394 . S
C127 C146 1.723 . S
C128 C125 1.396 . S
C128 C127 1.394 . S
C128 C158 1.723 . S
H129 C152 0.947 . S
H130 C153 0.948 . S
H131 C159 0.982 . S
H132 C160 0.979 . S
H133 C160 0.980 . S
H134 C160 0.983 . S
H135 C159 0.979 . S
H136 C159 0.977 . S
C137 C125 1.453 . S
C137 H166 0.982 . S
C137 H167 0.979 . S
C137 H168 0.977 . S
C138 C125 1.684 . S
C138 H163 0.979 . S
C138 H164 0.980 . S
C138 H165 0.983 . S
C139 C140 1.391 . S
C139 C144 1.391 . S
C139 H169 0.948 . S
C140 C139 1.391 . S
C140 C141 1.391 . S
C141 C140 1.391 . S
C141 C142 1.392 . S
C141 H170 0.947 . S
C142 C141 1.392 . S
C142 C143 1.419 . S
C142 H171 0.948 . S
C143 C142 1.419 . S
C143 C144 1.391 . S
C143 C147 1.397 . S
C144 C139 1.391 . S
C144 C143 1.391 . S
C144 C145 1.399 . S
C145 C144 1.399 . S
C145 C146 1.396 . S
C145 C148 1.453 . S
C145 C149 1.684 . S
C146 C127 1.723 . S
C146 C145 1.396 . S
C146 C147 1.394 . S
C147 C143 1.397 . S
C147 C146 1.394 . S
C147 C157 1.723 . S
C148 C145 1.453 . S
C148 H172 0.982 . S
C148 H173 0.979 . S
C148 H174 0.977 . S
C149 C145 1.684 . S
C149 H175 0.979 . S
C149 H176 0.980 . S
C149 H177 0.983 . S
C150 H126 0.948 . S
C150 C151 1.391 . S
C150 C155 1.391 . S
C151 C150 1.391 . S
C151 C152 1.391 . S
C152 H129 0.947 . S
C152 C151 1.391 . S
C152 C153 1.392 . S
C153 H130 0.948 . S
C153 C152 1.392 . S
C153 C154 1.419 . S
C154 C153 1.419 . S
C154 C155 1.391 . S
C154 C158 1.397 . S
C155 C150 1.391 . S
C155 C154 1.391 . S
C155 C156 1.399 . S
C156 C155 1.399 . S
C156 C157 1.396 . S
C156 C159 1.453 . S
C156 C160 1.684 . S
C157 C147 1.723 . S
C157 C156 1.396 . S
C157 C158 1.394 . S
C158 C128 1.723 . S
C158 C154 1.397 . S
C158 C157 1.394 . S
C159 H131 0.982 . S
C159 H135 0.979 . S
C159 H136 0.977 . S
C159 C156 1.453 . S
C160 H132 0.979 . S
C160 H133 0.980 . S
C160 H134 0.983 . S
C160 C156 1.684 . S
H161 C179 0.948 . S
H162 C120 0.948 . S
H163 C138 0.979 . S
H164 C138 0.980 . S
H165 C138 0.983 . S
H166 C137 0.982 . S
H167 C137 0.979 . S
H168 C137 0.977 . S
H169 C139 0.948 . S
H170 C141 0.947 . S
H171 C142 0.948 . S
H172 C148 0.982 . S
H173 C148 0.979 . S
H174 C148 0.977 . S
H175 C149 0.979 . S
H176 C149 0.980 . S
H177 C149 0.983 . S
H178 C122 0.947 . S
C179 C122 1.392 . S
C179 C123 1.419 . S
C179 H161 0.948 . S
C180 C181 1.391 . S
C180 C184 1.391 . S
C180 H222 0.948 . S
C181 C180 1.391 . S
C181 C182 1.391 . S
C182 C181 1.391 . S
C182 H238 0.947 . S
C182 C239 1.392 . S
C183 C184 1.391 . S
C183 C187 1.397 . S
C183 C239 1.419 . S
C184 C180 1.391 . S
C184 C183 1.391 . S
C184 C185 1.399 . S
C185 C184 1.399 . S
C185 C188 1.396 . S
C185 C197 1.453 . S
C185 C198 1.684 . S
H186 C210 0.948 . S
C187 C183 1.397 . S
C187 C188 1.394 . S
C187 C206 1.723 . S
C188 C185 1.396 . S
C188 C187 1.394 . S
C188 C218 1.723 . S
H189 C212 0.947 . S
H190 C213 0.948 . S
H191 C219 0.982 . S
H192 C220 0.979 . S
H193 C220 0.980 . S
H194 C220 0.983 . S
H195 C219 0.979 . S
H196 C219 0.977 . S
C197 C185 1.453 . S
C197 H226 0.982 . S
C197 H227 0.979 . S
C197 H228 0.977 . S
C198 C185 1.684 . S
C198 H223 0.979 . S
C198 H224 0.980 . S
C198 H225 0.983 . S
C199 C200 1.391 . S
C199 C204 1.391 . S
C199 H229 0.948 . S
C200 C199 1.391 . S
C200 C201 1.391 . S
C201 C200 1.391 . S
C201 C202 1.392 . S
C201 H230 0.947 . S
C202 C201 1.392 . S
C202 C203 1.419 . S
C202 H231 0.948 . S
C203 C202 1.419 . S
C203 C204 1.391 . S
C203 C207 1.397 . S
C204 C199 1.391 . S
C204 C203 1.391 . S
C204 C205 1.399 . S
C205 C204 1.399 . S
C205 C206 1.396 . S
C205 C208 1.453 . S
C205 C209 1.684 . S
C206 C187 1.723 . S
C206 C205 1.396 . S
C206 C207 1.394 . S
C207 C203 1.397 . S
C207 C206 1.394 . S
C207 C217 1.723 . S
C208 C205 1.453 . S
C208 H232 0.982 . S
C208 H233 0.979 . S
C208 H234 0.977 . S
C209 C205 1.684 . S
C209 H235 0.979 . S
C209 H236 0.980 . S
C209 H237 0.983 . S
C210 H186 0.948 . S
C210 C211 1.391 . S
C210 C215 1.391 . S
C211 C210 1.391 . S
C211 C212 1.391 . S
C212 H189 0.947 . S
C212 C211 1.391 . S
C212 C213 1.392 . S
C213 H190 0.948 . S
C213 C212 1.392 . S
C213 C214 1.419 . S
C214 C213 1.419 . S
C214 C215 1.391 . S
C214 C218 1.397 . S
C215 C210 1.391 . S
C215 C214 1.391 . S
C215 C216 1.399 . S
C216 C215 1.399 . S
C216 C217 1.396 . S
C216 C219 1.453 . S
C216 C220 1.684 . S
C217 C207 1.723 . S
C217 C216 1.396 . S
C217 C218 1.394 . S
C218 C188 1.723 . S
C218 C214 1.397 . S
C218 C217 1.394 . S
C219 H191 0.982 . S
C219 H195 0.979 . S
C219 H196 0.977 . S
C219 C216 1.453 . S
C220 H192 0.979 . S
C220 H193 0.980 . S
C220 H194 0.983 . S
C220 C216 1.684 . S
H221 C239 0.948 . S
H222 C180 0.948 . S
H223 C198 0.979 . S
H224 C198 0.980 . S
H225 C198 0.983 . S
H226 C197 0.982 . S
H227 C197 0.979 . S
H228 C197 0.977 . S
H229 C199 0.948 . S
H230 C201 0.947 . S
H231 C202 0.948 . S
H232 C208 0.982 . S
H233 C208 0.979 . S
H234 C208 0.977 . S
H235 C209 0.979 . S
H236 C209 0.980 . S
H237 C209 0.983 . S
H238 C182 0.947 . S
C239 C182 1.392 . S
C239 C183 1.419 . S
C239 H221 0.948 . S
C240 C241 1.391 . S
C240 C244 1.391 . S
C240 H282 0.948 . S
C241 C240 1.391 . S
C241 C242 1.391 . S
C242 C241 1.391 . S
C242 H298 0.947 . S
C242 C299 1.392 . S
C243 C244 1.391 . S
C243 C247 1.397 . S
C243 C299 1.419 . S
C244 C240 1.391 . S
C244 C243 1.391 . S
C244 C245 1.399 . S
C245 C244 1.399 . S
C245 C248 1.396 . S
C245 C257 1.453 . S
C245 C258 1.684 . S
H246 C270 0.948 . S
C247 C243 1.397 . S
C247 C248 1.394 . S
C247 C266 1.723 . S
C248 C245 1.396 . S
C248 C247 1.394 . S
C248 C278 1.723 . S
H249 C272 0.947 . S
H250 C273 0.948 . S
H251 C279 0.982 . S
H252 C280 0.979 . S
H253 C280 0.980 . S
H254 C280 0.983 . S
H255 C279 0.979 . S
H256 C279 0.977 . S
C257 C245 1.453 . S
C257 H286 0.982 . S
C257 H287 0.979 . S
C257 H288 0.977 . S
C258 C245 1.684 . S
C258 H283 0.979 . S
C258 H284 0.980 . S
C258 H285 0.983 . S
C259 C260 1.391 . S
C259 C264 1.391 . S
C259 H289 0.948 . S
C260 C259 1.391 . S
C260 C261 1.391 . S
C261 C260 1.391 . S
C261 C262 1.392 . S
C261 H290 0.947 . S
C262 C261 1.392 . S
C262 C263 1.419 . S
C262 H291 0.948 . S
C263 C262 1.419 . S
C263 C264 1.391 . S
C263 C267 1.397 . S
C264 C259 1.391 . S
C264 C263 1.391 . S
C264 C265 1.399 . S
C265 C264 1.399 . S
C265 C266 1.396 . S
C265 C268 1.453 . S
C265 C269 1.684 . S
C266 C247 1.723 . S
C266 C265 1.396 . S
C266 C267 1.394 . S
C267 C263 1.397 . S
C267 C266 1.394 . S
C267 C277 1.723 . S
C268 C265 1.453 . S
C268 H292 0.982 . S
C268 H293 0.979 . S
C268 H294 0.977 . S
C269 C265 1.684 . S
C269 H295 0.979 . S
C269 H296 0.980 . S
C269 H297 0.983 . S
C270 H246 0.948 . S
C270 C271 1.391 . S
C270 C275 1.391 . S
C271 C270 1.391 . S
C271 C272 1.391 . S
C272 H249 0.947 . S
C272 C271 1.391 . S
C272 C273 1.392 . S
C273 H250 0.948 . S
C273 C272 1.392 . S
C273 C274 1.419 . S
C274 C273 1.419 . S
C274 C275 1.391 . S
C274 C278 1.397 . S
C275 C270 1.391 . S
C275 C274 1.391 . S
C275 C276 1.399 . S
C276 C275 1.399 . S
C276 C277 1.396 . S
C276 C279 1.453 . S
C276 C280 1.684 . S
C277 C267 1.723 . S
C277 C276 1.396 . S
C277 C278 1.394 . S
C278 C248 1.723 . S
C278 C274 1.397 . S
C278 C277 1.394 . S
C279 H251 0.982 . S
C279 H255 0.979 . S
C279 H256 0.977 . S
C279 C276 1.453 . S
C280 H252 0.979 . S
C280 H253 0.980 . S
C280 H254 0.983 . S
C280 C276 1.684 . S
H281 C299 0.948 . S
H282 C240 0.948 . S
H283 C258 0.979 . S
H284 C258 0.980 . S
H285 C258 0.983 . S
H286 C257 0.982 . S
H287 C257 0.979 . S
H288 C257 0.977 . S
H289 C259 0.948 . S
H290 C261 0.947 . S
H291 C262 0.948 . S
H292 C268 0.982 . S
H293 C268 0.979 . S
H294 C268 0.977 . S
H295 C269 0.979 . S
H296 C269 0.980 . S
H297 C269 0.983 . S
H298 C242 0.947 . S
C299 C242 1.392 . S
C299 C243 1.419 . S
C299 H281 0.948 . S
C300 C301 1.391 . S
C300 C304 1.391 . S
C300 H342 0.948 . S
C301 C300 1.391 . S
C301 C302 1.391 . S
C302 C301 1.391 . S
C302 H358 0.947 . S
C302 C359 1.392 . S
C303 C304 1.391 . S
C303 C307 1.397 . S
C303 C359 1.419 . S
C304 C300 1.391 . S
C304 C303 1.391 . S
C304 C305 1.399 . S
C305 C304 1.399 . S
C305 C308 1.396 . S
C305 C317 1.453 . S
C305 C318 1.684 . S
H306 C330 0.948 . S
C307 C303 1.397 . S
C307 C308 1.394 . S
C307 C326 1.723 . S
C308 C305 1.396 . S
C308 C307 1.394 . S
C308 C338 1.723 . S
H309 C332 0.947 . S
H310 C333 0.948 . S
H311 C339 0.982 . S
H312 C340 0.979 . S
H313 C340 0.980 . S
H314 C340 0.983 . S
H315 C339 0.979 . S
H316 C339 0.977 . S
C317 C305 1.453 . S
C317 H346 0.982 . S
C317 H347 0.979 . S
C317 H348 0.977 . S
C318 C305 1.684 . S
C318 H343 0.979 . S
C318 H344 0.980 . S
C318 H345 0.983 . S
C319 C320 1.391 . S
C319 C324 1.391 . S
C319 H349 0.948 . S
C320 C319 1.391 . S
C320 C321 1.391 . S
C321 C320 1.391 . S
C321 C322 1.392 . S
C321 H350 0.947 . S
C322 C321 1.392 . S
C322 C323 1.419 . S
C322 H351 0.948 . S
C323 C322 1.419 . S
C323 C324 1.391 . S
C323 C327 1.397 . S
C324 C319 1.391 . S
C324 C323 1.391 . S
C324 C325 1.399 . S
C325 C324 1.399 . S
C325 C326 1.396 . S
C325 C328 1.453 . S
C325 C329 1.684 . S
C326 C307 1.723 . S
C326 C325 1.396 . S
C326 C327 1.394 . S
C327 C323 1.397 . S
C327 C326 1.394 . S
C327 C337 1.723 . S
C328 C325 1.453 . S
C328 H352 0.982 . S
C328 H353 0.979 . S
C328 H354 0.977 . S
C329 C325 1.684 . S
C329 H355 0.979 . S
C329 H356 0.980 . S
C329 H357 0.983 . S
C330 H306 0.948 . S
C330 C331 1.391 . S
C330 C335 1.391 . S
C331 C330 1.391 . S
C331 C332 1.391 . S
C332 H309 0.947 . S
C332 C331 1.391 . S
C332 C333 1.392 . S
C333 H310 0.948 . S
C333 C332 1.392 . S
C333 C334 1.419 . S
C334 C333 1.419 . S
C334 C335 1.391 . S
C334 C338 1.397 . S
C335 C330 1.391 . S
C335 C334 1.391 . S
C335 C336 1.399 . S
C336 C335 1.399 . S
C336 C337 1.396 . S
C336 C339 1.453 . S
C336 C340 1.684 . S
C337 C327 1.723 . S
C337 C336 1.396 . S
C337 C338 1.394 . S
C338 C308 1.723 . S
C338 C334 1.397 . S
C338 C337 1.394 . S
C339 H311 0.982 . S
C339 H315 0.979 . S
C339 H316 0.977 . S
C339 C336 1.453 . S
C340 H312 0.979 . S
C340 H313 0.980 . S
C340 H314 0.983 . S
C340 C336 1.684 . S
H341 C359 0.948 . S
H342 C300 0.948 . S
H343 C318 0.979 . S
H344 C318 0.980 . S
H345 C318 0.983 . S
H346 C317 0.982 . S
H347 C317 0.979 . S
H348 C317 0.977 . S
H349 C319 0.948 . S
H350 C321 0.947 . S
H351 C322 0.948 . S
H352 C328 0.982 . S
H353 C328 0.979 . S
H354 C328 0.977 . S
H355 C329 0.979 . S
H356 C329 0.980 . S
H357 C329 0.983 . S
H358 C302 0.947 . S
C359 C302 1.392 . S
C359 C303 1.419 . S
C359 H341 0.948 . S
C360 C361 1.391 . S
C360 C364 1.391 . S
C360 H402 0.948 . S
C361 C360 1.391 . S
C361 C362 1.391 . S
C362 C361 1.391 . S
C362 H418 0.947 . S
C362 C419 1.392 . S
C363 C364 1.391 . S
C363 C367 1.397 . S
C363 C419 1.419 . S
C364 C360 1.391 . S
C364 C363 1.391 . S
C364 C365 1.399 . S
C365 C364 1.399 . S
C365 C368 1.396 . S
C365 C377 1.453 . S
C365 C378 1.684 . S
H366 C390 0.948 . S
C367 C363 1.397 . S
C367 C368 1.394 . S
C367 C386 1.723 . S
C368 C365 1.396 . S
C368 C367 1.394 . S
C368 C398 1.723 . S
H369 C392 0.947 . S
H370 C393 0.948 . S
H371 C399 0.982 . S
H372 C400 0.979 . S
H373 C400 0.980 . S
H374 C400 0.983 . S
H375 C399 0.979 . S
H376 C399 0.977 . S
C377 C365 1.453 . S
C377 H406 0.982 . S
C377 H407 0.979 . S
C377 H408 0.977 . S
C378 C365 1.684 . S
C378 H403 0.979 . S
C378 H404 0.980 . S
C378 H405 0.983 . S
C379 C380 1.391 . S
C379 C384 1.391 . S
C379 H409 0.948 . S
C380 C379 1.391 . S
C380 C381 1.391 . S
C381 C380 1.391 . S
C381 C382 1.392 . S
C381 H410 0.947 . S
C382 C381 1.392 . S
C382 C383 1.419 . S
C382 H411 0.948 . S
C383 C382 1.419 . S
C383 C384 1.391 . S
C383 C387 1.397 . S
C384 C379 1.391 . S
C384 C383 1.391 . S
C384 C385 1.399 . S
C385 C384 1.399 . S
C385 C386 1.396 . S
C385 C388 1.453 . S
C385 C389 1.684 . S
C386 C367 1.723 . S
C386 C385 1.396 . S
C386 C387 1.394 . S
C387 C383 1.397 . S
C387 C386 1.394 . S
C387 C397 1.723 . S
C388 C385 1.453 . S
C388 H412 0.982 . S
C388 H413 0.979 . S
C388 H414 0.977 . S
C389 C385 1.684 . S
C389 H415 0.979 . S
C389 H416 0.980 . S
C389 H417 0.983 . S
C390 H366 0.948 . S
C390 C391 1.391 . S
C390 C395 1.391 . S
C391 C390 1.391 . S
C391 C392 1.391 . S
C392 H369 0.947 . S
C392 C391 1.391 . S
C392 C393 1.392 . S
C393 H370 0.948 . S
C393 C392 1.392 . S
C393 C394 1.419 . S
C394 C393 1.419 . S
C394 C395 1.391 . S
C394 C398 1.397 . S
C395 C390 1.391 . S
C395 C394 1.391 . S
C395 C396 1.399 . S
C396 C395 1.399 . S
C396 C397 1.396 . S
C396 C399 1.453 . S
C396 C400 1.684 . S
C397 C387 1.723 . S
C397 C396 1.396 . S
C397 C398 1.394 . S
C398 C368 1.723 . S
C398 C394 1.397 . S
C398 C397 1.394 . S
C399 H371 0.982 . S
C399 H375 0.979 . S
C399 H376 0.977 . S
C399 C396 1.453 . S
C400 H372 0.979 . S
C400 H373 0.980 . S
C400 H374 0.983 . S
C400 C396 1.684 . S
H401 C419 0.948 . S
H402 C360 0.948 . S
H403 C378 0.979 . S
H404 C378 0.980 . S
H405 C378 0.983 . S
H406 C377 0.982 . S
H407 C377 0.979 . S
H408 C377 0.977 . S
H409 C379 0.948 . S
H410 C381 0.947 . S
H411 C382 0.948 . S
H412 C388 0.982 . S
H413 C388 0.979 . S
H414 C388 0.977 . S
H415 C389 0.979 . S
H416 C389 0.980 . S
H417 C389 0.983 . S
H418 C362 0.947 . S
C419 C362 1.392 . S
C419 C363 1.419 . S
C419 H401 0.948 . S
C420 C421 1.391 . S
C420 C424 1.391 . S
C420 H462 0.948 . S
C421 C420 1.391 . S
C421 C422 1.391 . S
C422 C421 1.391 . S
C422 H478 0.947 . S
C422 C479 1.392 . S
C423 C424 1.391 . S
C423 C427 1.397 . S
C423 C479 1.419 . S
C424 C420 1.391 . S
C424 C423 1.391 . S
C424 C425 1.399 . S
C425 C424 1.399 . S
C425 C428 1.396 . S
C425 C437 1.453 . S
C425 C438 1.684 . S
H426 C450 0.948 . S
C427 C423 1.397 . S
C427 C428 1.394 . S
C427 C446 1.723 . S
C428 C425 1.396 . S
C428 C427 1.394 . S
C428 C458 1.723 . S
H429 C452 0.947 . S
H430 C453 0.948 . S
H431 C459 0.982 . S
H432 C460 0.979 . S
H433 C460 0.980 . S
H434 C460 0.983 . S
H435 C459 0.979 . S
H436 C459 0.977 . S
C437 C425 1.453 . S
C437 H466 0.982 . S
C437 H467 0.979 . S
C437 H468 0.977 . S
C438 C425 1.684 . S
C438 H463 0.979 . S
C438 H464 0.980 . S
C438 H465 0.983 . S
C439 C440 1.391 . S
C439 C444 1.391 . S
C439 H469 0.948 . S
C440 C439 1.391 . S
C440 C441 1.391 . S
C441 C440 1.391 . S
C441 C442 1.392 . S
C441 H470 0.947 . S
C442 C441 1.392 . S
C442 C443 1.419 . S
C442 H471 0.948 . S
C443 C442 1.419 . S
C443 C444 1.391 . S
C443 C447 1.397 . S
C444 C439 1.391 . S
C444 C443 1.391 . S
C444 C445 1.399 . S
C445 C444 1.399 . S
C445 C446 1.396 . S
C445 C448 1.453 . S
C445 C449 1.684 . S
C446 C427 1.723 . S
C446 C445 1.396 . S
C446 C447 1.394 . S
C447 C443 1.397 . S
C447 C446 1.394 . S
C447 C457 1.723 . S
C448 C445 1.453 . S
C448 H472 0.982 . S
C448 H473 0.979 . S
C448 H474 0.977 . S
C449 C445 1.684 . S
C449 H475 0.979 . S
C449 H476 0.980 . S
C449 H477 0.983 . S
C450 H426 0.948 . S
C450 C451 1.391 . S
C450 C455 1.391 . S
C451 C450 1.391 . S
C451 C452 1.391 . S
C452 H429 0.947 . S
C452 C451 1.391 . S
C452 C453 1.392 . S
C453 H430 0.948 . S
C453 C452 1.392 . S
C453 C454 1.419 . S
C454 C453 1.419 . S
C454 C455 1.391 . S
C454 C458 1.397 . S
C455 C450 1.391 . S
C455 C454 1.391 . S
C455 C456 1.399 . S
C456 C455 1.399 . S
C456 C457 1.396 . S
C456 C459 1.453 . S
C456 C460 1.684 . S
C457 C447 1.723 . S
C457 C456 1.396 . S
C457 C458 1.394 . S
C458 C428 1.723 . S
C458 C454 1.397 . S
C458 C457 1.394 . S
C459 H431 0.982 . S
C459 H435 0.979 . S
C459 H436 0.977 . S
C459 C456 1.453 . S
C460 H432 0.979 . S
C460 H433 0.980 . S
C460 H434 0.983 . S
C460 C456 1.684 . S
H461 C479 0.948 . S
H462 C420 0.948 . S
H463 C438 0.979 . S
H464 C438 0.980 . S
H465 C438 0.983 . S
H466 C437 0.982 . S
H467 C437 0.979 . S
H468 C437 0.977 . S
H469 C439 0.948 . S
H470 C441 0.947 . S
H471 C442 0.948 . S
H472 C448 0.982 . S
H473 C448 0.979 . S
H474 C448 0.977 . S
H475 C449 0.979 . S
H476 C449 0.980 . S
H477 C449 0.983 . S
H478 C422 0.947 . S
C479 C422 1.392 . S
C479 C423 1.419 . S
C479 H461 0.948 . S
Dy480 O483 2.307 1_545 S
Dy480 O485 2.395 . S
Dy480 O486 2.379 . S
Dy480 O488 2.339 1_545 S
Dy480 O490 2.298 1_455 S
Dy480 O494 2.275 . S
Dy480 C502 2.738 . S
Dy481 O484 2.298 1_655 S
Dy481 O487 2.275 . S
Dy481 O489 2.307 1_565 S
Dy481 O491 2.395 . S
Dy481 O492 2.379 . S
Dy481 O495 2.339 1_565 S
Dy481 C511 2.738 . S
C482 O494 1.254 . S
C482 O495 1.257 1_455 S
O483 Dy480 2.307 1_565 S
O483 C493 1.266 . S
O484 Dy481 2.298 1_455 S
O484 C493 1.236 . S
O485 Dy480 2.395 . S
O485 C502 1.255 . S
O486 Dy480 2.379 . S
O486 C502 1.249 . S
O487 Dy481 2.275 . S
O487 C503 1.254 . S
O488 Dy480 2.339 1_565 S
O488 C503 1.257 1_455 S
O489 Dy481 2.307 1_545 S
O489 C504 1.266 . S
O490 Dy480 2.298 1_655 S
O490 C504 1.236 . S
O491 Dy481 2.395 . S
O491 C511 1.255 . S
O492 Dy481 2.379 . S
O492 C511 1.249 . S
C493 O483 1.266 . S
C493 O484 1.236 . S
O494 Dy480 2.275 . S
O494 C482 1.254 . S
O495 Dy481 2.339 1_545 S
O495 C482 1.257 1_655 S
C496 C499 1.344 . S
C496 C500 1.328 . S
C496 C502 1.516 . S
C497 C498 1.304 . S
C497 C501 1.323 . S
C498 C497 1.304 . S
C498 C499 1.371 . S
C498 H512 0.930 . S
C499 C496 1.344 . S
C499 C498 1.371 . S
C499 H513 0.931 . S
C500 C496 1.328 . S
C500 C501 1.433 . S
C500 H514 0.931 . S
C501 C497 1.323 . S
C501 C500 1.433 . S
C501 H515 0.933 . S
C502 Dy480 2.738 . S
C502 O485 1.255 . S
C502 O486 1.249 . S
C502 C496 1.516 . S
C503 O487 1.254 . S
C503 O488 1.257 1_655 S
C504 O489 1.266 . S
C504 O490 1.236 . S
C505 C508 1.344 . S
C505 C509 1.328 . S
C505 C511 1.516 . S
C506 C507 1.304 . S
C506 C510 1.323 . S
C507 C506 1.304 . S
C507 C508 1.371 . S
C507 H516 0.930 . S
C508 C505 1.344 . S
C508 C507 1.371 . S
C508 H517 0.931 . S
C509 C505 1.328 . S
C509 C510 1.433 . S
C509 H518 0.931 . S
C510 C506 1.323 . S
C510 C509 1.433 . S
C510 H519 0.933 . S
C511 Dy481 2.738 . S
C511 O491 1.255 . S
C511 O492 1.249 . S
C511 C505 1.516 . S
H512 C498 0.930 . S
H513 C499 0.931 . S
H514 C500 0.931 . S
H515 C501 0.933 . S
H516 C507 0.930 . S
H517 C508 0.931 . S
H518 C509 0.931 . S
H519 C510 0.933 . S
Dy520 O523 2.307 1_566 S
Dy520 O525 2.395 . S
Dy520 O526 2.379 . S
Dy520 O528 2.339 1_565 S
Dy520 O530 2.298 . S
Dy520 O534 2.275 1_556 S
Dy520 C542 2.738 . S
Dy521 O524 2.298 . S
Dy521 O527 2.275 1_554 S
Dy521 O529 2.307 1_544 S
Dy521 O531 2.395 . S
Dy521 O532 2.379 . S
Dy521 O535 2.339 1_545 S
Dy521 C551 2.738 . S
C522 O534 1.254 . S
C522 O535 1.257 . S
O523 Dy520 2.307 1_544 S
O523 C533 1.266 . S
O524 Dy521 2.298 . S
O524 C533 1.236 . S
O525 Dy520 2.395 . S
O525 C542 1.255 . S
O526 Dy520 2.379 . S
O526 C542 1.249 . S
O527 Dy521 2.275 1_556 S
O527 C543 1.254 . S
O528 Dy520 2.339 1_545 S
O528 C543 1.257 . S
O529 Dy521 2.307 1_566 S
O529 C544 1.266 . S
O530 Dy520 2.298 . S
O530 C544 1.236 . S
O531 Dy521 2.395 . S
O531 C551 1.255 . S
O532 Dy521 2.379 . S
O532 C551 1.249 . S
C533 O523 1.266 . S
C533 O524 1.236 . S
O534 Dy520 2.275 1_554 S
O534 C522 1.254 . S
O535 Dy521 2.339 1_565 S
O535 C522 1.257 . S
C536 C539 1.344 . S
C536 C540 1.328 . S
C536 C542 1.516 . S
C537 C538 1.304 . S
C537 C541 1.323 . S
C538 C537 1.304 . S
C538 C539 1.371 . S
C538 H552 0.930 . S
C539 C536 1.344 . S
C539 C538 1.371 . S
C539 H553 0.931 . S
C540 C536 1.328 . S
C540 C541 1.433 . S
C540 H554 0.931 . S
C541 C537 1.323 . S
C541 C540 1.433 . S
C541 H555 0.933 . S
C542 Dy520 2.738 . S
C542 O525 1.255 . S
C542 O526 1.249 . S
C542 C536 1.516 . S
C543 O527 1.254 . S
C543 O528 1.257 . S
C544 O529 1.266 . S
C544 O530 1.236 . S
C545 C548 1.344 . S
C545 C549 1.328 . S
C545 C551 1.516 . S
C546 C547 1.304 . S
C546 C550 1.323 . S
C547 C546 1.304 . S
C547 C548 1.371 . S
C547 H556 0.930 . S
C548 C545 1.344 . S
C548 C547 1.371 . S
C548 H557 0.931 . S
C549 C545 1.328 . S
C549 C550 1.433 . S
C549 H558 0.931 . S
C550 C546 1.323 . S
C550 C549 1.433 . S
C550 H559 0.933 . S
C551 Dy521 2.738 . S
C551 O531 1.255 . S
C551 O532 1.249 . S
C551 C545 1.516 . S
H552 C538 0.930 . S
H553 C539 0.931 . S
H554 C540 0.931 . S
H555 C541 0.933 . S
H556 C547 0.930 . S
H557 C548 0.931 . S
H558 C549 0.931 . S
H559 C550 0.933 . S
Dy560 O563 2.307 . S
Dy560 O565 2.395 . S
Dy560 O566 2.379 . S
Dy560 O568 2.339 . S
Dy560 O570 2.298 . S
Dy560 O574 2.275 . S
Dy560 C582 2.738 . S
Dy561 O564 2.298 . S
Dy561 O567 2.275 . S
Dy561 O569 2.307 . S
Dy561 O571 2.395 . S
Dy561 O572 2.379 . S
Dy561 O575 2.339 . S
Dy561 C591 2.738 . S
C562 O574 1.254 . S
C562 O575 1.257 . S
O563 Dy560 2.307 . S
O563 C573 1.266 . S
O564 Dy561 2.298 . S
O564 C573 1.236 . S
O565 Dy560 2.395 . S
O565 C582 1.255 . S
O566 Dy560 2.379 . S
O566 C582 1.249 . S
O567 Dy561 2.275 . S
O567 C583 1.254 . S
O568 Dy560 2.339 . S
O568 C583 1.257 . S
O569 Dy561 2.307 . S
O569 C584 1.266 . S
O570 Dy560 2.298 . S
O570 C584 1.236 . S
O571 Dy561 2.395 . S
O571 C591 1.255 . S
O572 Dy561 2.379 . S
O572 C591 1.249 . S
C573 O563 1.266 . S
C573 O564 1.236 . S
O574 Dy560 2.275 . S
O574 C562 1.254 . S
O575 Dy561 2.339 . S
O575 C562 1.257 . S
C576 C579 1.344 . S
C576 C580 1.328 . S
C576 C582 1.516 . S
C577 C578 1.304 . S
C577 C581 1.323 . S
C578 C577 1.304 . S
C578 C579 1.371 . S
C578 H592 0.930 . S
C579 C576 1.344 . S
C579 C578 1.371 . S
C579 H593 0.931 . S
C580 C576 1.328 . S
C580 C581 1.433 . S
C580 H594 0.931 . S
C581 C577 1.323 . S
C581 C580 1.433 . S
C581 H595 0.933 . S
C582 Dy560 2.738 . S
C582 O565 1.255 . S
C582 O566 1.249 . S
C582 C576 1.516 . S
C583 O567 1.254 . S
C583 O568 1.257 . S
C584 O569 1.266 . S
C584 O570 1.236 . S
C585 C588 1.344 . S
C585 C589 1.328 . S
C585 C591 1.516 . S
C586 C587 1.304 . S
C586 C590 1.323 . S
C587 C586 1.304 . S
C587 C588 1.371 . S
C587 H596 0.930 . S
C588 C585 1.344 . S
C588 C587 1.371 . S
C588 H597 0.931 . S
C589 C585 1.328 . S
C589 C590 1.433 . S
C589 H598 0.931 . S
C590 C586 1.323 . S
C590 C589 1.433 . S
C590 H599 0.933 . S
C591 Dy561 2.738 . S
C591 O571 1.255 . S
C591 O572 1.249 . S
C591 C585 1.516 . S
H592 C578 0.930 . S
H593 C579 0.931 . S
H594 C580 0.931 . S
H595 C581 0.933 . S
H596 C587 0.930 . S
H597 C588 0.931 . S
H598 C589 0.931 . S
H599 C590 0.933 . S
Dy600 O603 2.307 1_656 S
Dy600 O605 2.395 . S
Dy600 O606 2.379 . S
Dy600 O608 2.339 1_655 S
Dy600 O610 2.298 . S
Dy600 O614 2.275 1_556 S
Dy600 C622 2.738 . S
Dy601 O604 2.298 . S
Dy601 O607 2.275 1_554 S
Dy601 O609 2.307 1_455 S
Dy601 O611 2.395 . S
Dy601 O612 2.379 . S
Dy601 O615 2.339 1_455 S
Dy601 C631 2.738 . S
C602 O614 1.254 . S
C602 O615 1.257 . S
O603 Dy600 2.307 1_454 S
O603 C613 1.266 . S
O604 Dy601 2.298 . S
O604 C613 1.236 . S
O605 Dy600 2.395 . S
O605 C622 1.255 . S
O606 Dy600 2.379 . S
O606 C622 1.249 . S
O607 Dy601 2.275 1_556 S
O607 C623 1.254 . S
O608 Dy600 2.339 1_455 S
O608 C623 1.257 . S
O609 Dy601 2.307 1_655 S
O609 C624 1.266 1_554 S
O610 Dy600 2.298 . S
O610 C624 1.236 . S
O611 Dy601 2.395 . S
O611 C631 1.255 . S
O612 Dy601 2.379 . S
O612 C631 1.249 . S
C613 O603 1.266 . S
C613 O604 1.236 . S
O614 Dy600 2.275 1_554 S
O614 C602 1.254 . S
O615 Dy601 2.339 1_655 S
O615 C602 1.257 . S
C616 C619 1.344 . S
C616 C620 1.328 . S
C616 C622 1.516 . S
C617 C618 1.304 . S
C617 C621 1.323 . S
C618 C617 1.304 . S
C618 C619 1.371 . S
C618 H632 0.930 . S
C619 C616 1.344 . S
C619 C618 1.371 . S
C619 H633 0.931 . S
C620 C616 1.328 . S
C620 C621 1.433 . S
C620 H634 0.931 . S
C621 C617 1.323 . S
C621 C620 1.433 . S
C621 H635 0.933 . S
C622 Dy600 2.738 . S
C622 O605 1.255 . S
C622 O606 1.249 . S
C622 C616 1.516 . S
C623 O607 1.254 . S
C623 O608 1.257 . S
C624 O609 1.266 1_556 S
C624 O610 1.236 . S
C625 C628 1.344 . S
C625 C629 1.328 . S
C625 C631 1.516 . S
C626 C627 1.304 . S
C626 C630 1.323 . S
C627 C626 1.304 . S
C627 C628 1.371 . S
C627 H636 0.930 . S
C628 C625 1.344 . S
C628 C627 1.371 . S
C628 H637 0.931 . S
C629 C625 1.328 . S
C629 C630 1.433 . S
C629 H638 0.931 . S
C630 C626 1.323 . S
C630 C629 1.433 . S
C630 H639 0.933 . S
C631 Dy601 2.738 . S
C631 O611 1.255 . S
C631 O612 1.249 . S
C631 C625 1.516 . S
H632 C618 0.930 . S
H633 C619 0.931 . S
H634 C620 0.931 . S
H635 C621 0.933 . S
H636 C627 0.930 . S
H637 C628 0.931 . S
H638 C629 0.931 . S
H639 C630 0.933 . S
H640 C646 0.930 . S
H641 C650 0.930 . S
H642 C655 0.929 . S
H643 C653 0.929 . S
H644 C648 0.929 . S
H645 C654 0.929 . S
C646 H640 0.930 . S
C646 C647 1.367 . S
C646 C654 1.378 . S
C647 C646 1.367 . S
C647 C655 1.433 . S
C648 H644 0.929 . S
C648 C650 1.378 . S
C648 C652 1.350 . S
C649 C652 1.463 . S
C649 C654 1.350 . S
C649 N657 1.427 . S
C650 H641 0.930 . S
C650 C648 1.378 . S
C650 C651 1.367 . S
C651 C650 1.367 . S
C651 C653 1.433 . S
C652 C648 1.350 . S
C652 C649 1.463 . S
C652 N656 1.427 . S
C653 H643 0.929 . S
C653 C651 1.433 . S
C653 N656 1.384 . S
C654 H645 0.929 . S
C654 C646 1.378 . S
C654 C649 1.350 . S
C655 H642 0.929 . S
C655 C647 1.433 . S
C655 N657 1.384 . S
N656 C652 1.427 . S
N656 C653 1.384 . S
N657 C649 1.427 . S
N657 C655 1.384 . S
H658 C664 0.930 . S
H659 C668 0.930 . S
H660 C673 0.929 . S
H661 C671 0.929 . S
H662 C666 0.929 . S
H663 C672 0.929 . S
C664 H658 0.930 . S
C664 C665 1.367 . S
C664 C672 1.378 . S
C665 C664 1.367 . S
C665 C673 1.433 . S
C666 H662 0.929 . S
C666 C668 1.378 . S
C666 C670 1.350 . S
C667 C670 1.463 . S
C667 C672 1.350 . S
C667 N675 1.427 . S
C668 H659 0.930 . S
C668 C666 1.378 . S
C668 C669 1.367 . S
C669 C668 1.367 . S
C669 C671 1.433 . S
C670 C666 1.350 . S
C670 C667 1.463 . S
C670 N674 1.427 . S
C671 H661 0.929 . S
C671 C669 1.433 . S
C671 N674 1.384 . S
C672 H663 0.929 . S
C672 C664 1.378 . S
C672 C667 1.350 . S
C673 H660 0.929 . S
C673 C665 1.433 . S
C673 N675 1.384 . S
N674 C670 1.427 . S
N674 C671 1.384 . S
N675 C667 1.427 . S
N675 C673 1.384 . S
H676 C682 0.930 . S
H677 C686 0.930 . S
H678 C691 0.929 . S
H679 C689 0.929 . S
H680 C684 0.929 . S
H681 C690 0.929 . S
C682 H676 0.930 . S
C682 C683 1.367 . S
C682 C690 1.378 . S
C683 C682 1.367 . S
C683 C691 1.433 . S
C684 H680 0.929 . S
C684 C686 1.378 . S
C684 C688 1.350 . S
C685 C688 1.463 . S
C685 C690 1.350 . S
C685 N693 1.427 . S
C686 H677 0.930 . S
C686 C684 1.378 . S
C686 C687 1.367 . S
C687 C686 1.367 . S
C687 C689 1.433 . S
C688 C684 1.350 . S
C688 C685 1.463 . S
C688 N692 1.427 . S
C689 H679 0.929 . S
C689 C687 1.433 . S
C689 N692 1.384 . S
C690 H681 0.929 . S
C690 C682 1.378 . S
C690 C685 1.350 . S
C691 H678 0.929 . S
C691 C683 1.433 . S
C691 N693 1.384 . S
N692 C688 1.427 . S
N692 C689 1.384 . S
N693 C685 1.427 . S
N693 C691 1.384 . S
H694 C700 0.930 . S
H695 C704 0.930 . S
H696 C709 0.929 . S
H697 C707 0.929 . S
H698 C702 0.929 . S
H699 C708 0.929 . S
C700 H694 0.930 . S
C700 C701 1.367 . S
C700 C708 1.378 . S
C701 C700 1.367 . S
C701 C709 1.433 . S
C702 H698 0.929 . S
C702 C704 1.378 . S
C702 C706 1.350 . S
C703 C706 1.463 . S
C703 C708 1.350 . S
C703 N711 1.427 . S
C704 H695 0.930 . S
C704 C702 1.378 . S
C704 C705 1.367 . S
C705 C704 1.367 . S
C705 C707 1.433 . S
C706 C702 1.350 . S
C706 C703 1.463 . S
C706 N710 1.427 . S
C707 H697 0.929 . S
C707 C705 1.433 . S
C707 N710 1.384 . S
C708 H699 0.929 . S
C708 C700 1.378 . S
C708 C703 1.350 . S
C709 H696 0.929 . S
C709 C701 1.433 . S
C709 N711 1.384 . S
N710 C706 1.427 . S
N710 C707 1.384 . S
N711 C703 1.427 . S
N711 C709 1.384 . S
H712 C718 0.930 . S
H713 C722 0.930 . S
H714 C727 0.929 . S
H715 C725 0.929 . S
H716 C720 0.929 . S
H717 C726 0.929 . S
C718 H712 0.930 . S
C718 C719 1.367 . S
C718 C726 1.378 . S
C719 C718 1.367 . S
C719 C727 1.433 . S
C720 H716 0.929 . S
C720 C722 1.378 . S
C720 C724 1.350 . S
C721 C724 1.463 . S
C721 C726 1.350 . S
C721 N729 1.427 . S
C722 H713 0.930 . S
C722 C720 1.378 . S
C722 C723 1.367 . S
C723 C722 1.367 . S
C723 C725 1.433 . S
C724 C720 1.350 . S
C724 C721 1.463 . S
C724 N728 1.427 . S
C725 H715 0.929 . S
C725 C723 1.433 . S
C725 N728 1.384 . S
C726 H717 0.929 . S
C726 C718 1.378 . S
C726 C721 1.350 . S
C727 H714 0.929 . S
C727 C719 1.433 . S
C727 N729 1.384 . S
N728 C724 1.427 . S
N728 C725 1.384 . S
N729 C721 1.427 . S
N729 C727 1.384 . S
H730 C736 0.930 . S
H731 C740 0.930 . S
H732 C745 0.929 . S
H733 C743 0.929 . S
H734 C738 0.929 . S
H735 C744 0.929 . S
C736 H730 0.930 . S
C736 C737 1.367 . S
C736 C744 1.378 . S
C737 C736 1.367 . S
C737 C745 1.433 . S
C738 H734 0.929 . S
C738 C740 1.378 . S
C738 C742 1.350 . S
C739 C742 1.463 . S
C739 C744 1.350 . S
C739 N747 1.427 . S
C740 H731 0.930 . S
C740 C738 1.378 . S
C740 C741 1.367 . S
C741 C740 1.367 . S
C741 C743 1.433 . S
C742 C738 1.350 . S
C742 C739 1.463 . S
C742 N746 1.427 . S
C743 H733 0.929 . S
C743 C741 1.433 . S
C743 N746 1.384 . S
C744 H735 0.929 . S
C744 C736 1.378 . S
C744 C739 1.350 . S
C745 H732 0.929 . S
C745 C737 1.433 . S
C745 N747 1.384 . S
N746 C742 1.427 . S
N746 C743 1.384 . S
N747 C739 1.427 . S
N747 C745 1.384 . S
H748 C754 0.930 . S
H749 C758 0.930 . S
H750 C763 0.929 . S
H751 C761 0.929 . S
H752 C756 0.929 . S
H753 C762 0.929 . S
C754 H748 0.930 . S
C754 C755 1.367 . S
C754 C762 1.378 . S
C755 C754 1.367 . S
C755 C763 1.433 . S
C756 H752 0.929 . S
C756 C758 1.378 . S
C756 C760 1.350 . S
C757 C760 1.463 . S
C757 C762 1.350 . S
C757 N765 1.427 . S
C758 H749 0.930 . S
C758 C756 1.378 . S
C758 C759 1.367 . S
C759 C758 1.367 . S
C759 C761 1.433 . S
C760 C756 1.350 . S
C760 C757 1.463 . S
C760 N764 1.427 . S
C761 H751 0.929 . S
C761 C759 1.433 . S
C761 N764 1.384 . S
C762 H753 0.929 . S
C762 C754 1.378 . S
C762 C757 1.350 . S
C763 H750 0.929 . S
C763 C755 1.433 . S
C763 N765 1.384 . S
N764 C760 1.427 . S
N764 C761 1.384 . S
N765 C757 1.427 . S
N765 C763 1.384 . S
H766 C772 0.930 . S
H767 C776 0.930 . S
H768 C781 0.929 . S
H769 C779 0.929 . S
H770 C774 0.929 . S
H771 C780 0.929 . S
C772 H766 0.930 . S
C772 C773 1.367 . S
C772 C780 1.378 . S
C773 C772 1.367 . S
C773 C781 1.433 . S
C774 H770 0.929 . S
C774 C776 1.378 . S
C774 C778 1.350 . S
C775 C778 1.463 . S
C775 C780 1.350 . S
C775 N783 1.427 . S
C776 H767 0.930 . S
C776 C774 1.378 . S
C776 C777 1.367 . S
C777 C776 1.367 . S
C777 C779 1.433 . S
C778 C774 1.350 . S
C778 C775 1.463 . S
C778 N782 1.427 . S
C779 H769 0.929 . S
C779 C777 1.433 . S
C779 N782 1.384 . S
C780 H771 0.929 . S
C780 C772 1.378 . S
C780 C775 1.350 . S
C781 H768 0.929 . S
C781 C773 1.433 . S
C781 N783 1.384 . S
N782 C778 1.427 . S
N782 C779 1.384 . S
N783 C775 1.427 . S
N783 C781 1.384 . S
H784 C790 0.930 . S
H785 C794 0.930 . S
H786 C799 0.929 . S
H787 C797 0.929 . S
H788 C792 0.929 . S
H789 C798 0.929 . S
C790 H784 0.930 . S
C790 C791 1.367 . S
C790 C798 1.378 . S
C791 C790 1.367 . S
C791 C799 1.433 . S
C792 H788 0.929 . S
C792 C794 1.378 . S
C792 C796 1.350 . S
C793 C796 1.463 . S
C793 C798 1.350 . S
C793 N801 1.427 . S
C794 H785 0.930 . S
C794 C792 1.378 . S
C794 C795 1.367 . S
C795 C794 1.367 . S
C795 C797 1.433 . S
C796 C792 1.350 . S
C796 C793 1.463 . S
C796 N800 1.427 . S
C797 H787 0.929 . S
C797 C795 1.433 . S
C797 N800 1.384 . S
C798 H789 0.929 . S
C798 C790 1.378 . S
C798 C793 1.350 . S
C799 H786 0.929 . S
C799 C791 1.433 . S
C799 N801 1.384 . S
N800 C796 1.427 . S
N800 C797 1.384 . S
N801 C793 1.427 . S
N801 C799 1.384 . S
H802 C808 0.930 . S
H803 C812 0.930 . S
H804 C817 0.929 . S
H805 C815 0.929 . S
H806 C810 0.929 . S
H807 C816 0.929 . S
C808 H802 0.930 . S
C808 C809 1.367 . S
C808 C816 1.378 . S
C809 C808 1.367 . S
C809 C817 1.433 . S
C810 H806 0.929 . S
C810 C812 1.378 . S
C810 C814 1.350 . S
C811 C814 1.463 . S
C811 C816 1.350 . S
C811 N819 1.427 . S
C812 H803 0.930 . S
C812 C810 1.378 . S
C812 C813 1.367 . S
C813 C812 1.367 . S
C813 C815 1.433 . S
C814 C810 1.350 . S
C814 C811 1.463 . S
C814 N818 1.427 . S
C815 H805 0.929 . S
C815 C813 1.433 . S
C815 N818 1.384 . S
C816 H807 0.929 . S
C816 C808 1.378 . S
C816 C811 1.350 . S
C817 H804 0.929 . S
C817 C809 1.433 . S
C817 N819 1.384 . S
N818 C814 1.427 . S
N818 C815 1.384 . S
N819 C811 1.427 . S
N819 C817 1.384 . S
H820 C826 0.930 . S
H821 C830 0.930 . S
H822 C835 0.929 . S
H823 C833 0.929 . S
H824 C828 0.929 . S
H825 C834 0.929 . S
C826 H820 0.930 . S
C826 C827 1.367 . S
C826 C834 1.378 . S
C827 C826 1.367 . S
C827 C835 1.433 . S
C828 H824 0.929 . S
C828 C830 1.378 . S
C828 C832 1.350 . S
C829 C832 1.463 . S
C829 C834 1.350 . S
C829 N837 1.427 . S
C830 H821 0.930 . S
C830 C828 1.378 . S
C830 C831 1.367 . S
C831 C830 1.367 . S
C831 C833 1.433 . S
C832 C828 1.350 . S
C832 C829 1.463 . S
C832 N836 1.427 . S
C833 H823 0.929 . S
C833 C831 1.433 . S
C833 N836 1.384 . S
C834 H825 0.929 . S
C834 C826 1.378 . S
C834 C829 1.350 . S
C835 H822 0.929 . S
C835 C827 1.433 . S
C835 N837 1.384 . S
N836 C832 1.427 . S
N836 C833 1.384 . S
N837 C829 1.427 . S
N837 C835 1.384 . S
H838 C844 0.930 . S
H839 C848 0.930 . S
H840 C853 0.929 . S
H841 C851 0.929 . S
H842 C846 0.929 . S
H843 C852 0.929 . S
C844 H838 0.930 . S
C844 C845 1.367 . S
C844 C852 1.378 . S
C845 C844 1.367 . S
C845 C853 1.433 . S
C846 H842 0.929 . S
C846 C848 1.378 . S
C846 C850 1.350 . S
C847 C850 1.463 . S
C847 C852 1.350 . S
C847 N855 1.427 . S
C848 H839 0.930 . S
C848 C846 1.378 . S
C848 C849 1.367 . S
C849 C848 1.367 . S
C849 C851 1.433 . S
C850 C846 1.350 . S
C850 C847 1.463 . S
C850 N854 1.427 . S
C851 H841 0.929 . S
C851 C849 1.433 . S
C851 N854 1.384 . S
C852 H843 0.929 . S
C852 C844 1.378 . S
C852 C847 1.350 . S
C853 H840 0.929 . S
C853 C845 1.433 . S
C853 N855 1.384 . S
N854 C850 1.427 . S
N854 C851 1.384 . S
N855 C847 1.427 . S
N855 C853 1.384 . S
H856 C862 0.930 . S
H857 C866 0.930 . S
H858 C871 0.929 . S
H859 C869 0.929 . S
H860 C864 0.929 . S
H861 C870 0.929 . S
C862 H856 0.930 . S
C862 C863 1.367 . S
C862 C870 1.378 . S
C863 C862 1.367 . S
C863 C871 1.433 . S
C864 H860 0.929 . S
C864 C866 1.378 . S
C864 C868 1.350 . S
C865 C868 1.463 . S
C865 C870 1.350 . S
C865 N873 1.427 . S
C866 H857 0.930 . S
C866 C864 1.378 . S
C866 C867 1.367 . S
C867 C866 1.367 . S
C867 C869 1.433 . S
C868 C864 1.350 . S
C868 C865 1.463 . S
C868 N872 1.427 . S
C869 H859 0.929 . S
C869 C867 1.433 . S
C869 N872 1.384 . S
C870 H861 0.929 . S
C870 C862 1.378 . S
C870 C865 1.350 . S
C871 H858 0.929 . S
C871 C863 1.433 . S
C871 N873 1.384 . S
N872 C868 1.427 . S
N872 C869 1.384 . S
N873 C865 1.427 . S
N873 C871 1.384 . S
H874 C880 0.930 . S
H875 C884 0.930 . S
H876 C889 0.929 . S
H877 C887 0.929 . S
H878 C882 0.929 . S
H879 C888 0.929 . S
C880 H874 0.930 . S
C880 C881 1.367 . S
C880 C888 1.378 . S
C881 C880 1.367 . S
C881 C889 1.433 . S
C882 H878 0.929 . S
C882 C884 1.378 . S
C882 C886 1.350 . S
C883 C886 1.463 . S
C883 C888 1.350 . S
C883 N891 1.427 . S
C884 H875 0.930 . S
C884 C882 1.378 . S
C884 C885 1.367 . S
C885 C884 1.367 . S
C885 C887 1.433 . S
C886 C882 1.350 . S
C886 C883 1.463 . S
C886 N890 1.427 . S
C887 H877 0.929 . S
C887 C885 1.433 . S
C887 N890 1.384 . S
C888 H879 0.929 . S
C888 C880 1.378 . S
C888 C883 1.350 . S
C889 H876 0.929 . S
C889 C881 1.433 . S
C889 N891 1.384 . S
N890 C886 1.427 . S
N890 C887 1.384 . S
N891 C883 1.427 . S
N891 C889 1.384 . S
H892 C898 0.930 . S
H893 C902 0.930 . S
H894 C907 0.929 . S
H895 C905 0.929 . S
H896 C900 0.929 . S
H897 C906 0.929 . S
C898 H892 0.930 . S
C898 C899 1.367 . S
C898 C906 1.378 . S
C899 C898 1.367 . S
C899 C907 1.433 . S
C900 H896 0.929 . S
C900 C902 1.378 . S
C900 C904 1.350 . S
C901 C904 1.463 . S
C901 C906 1.350 . S
C901 N909 1.427 . S
C902 H893 0.930 . S
C902 C900 1.378 . S
C902 C903 1.367 . S
C903 C902 1.367 . S
C903 C905 1.433 . S
C904 C900 1.350 . S
C904 C901 1.463 . S
C904 N908 1.427 . S
C905 H895 0.929 . S
C905 C903 1.433 . S
C905 N908 1.384 . S
C906 H897 0.929 . S
C906 C898 1.378 . S
C906 C901 1.350 . S
C907 H894 0.929 . S
C907 C899 1.433 . S
C907 N909 1.384 . S
N908 C904 1.427 . S
N908 C905 1.384 . S
N909 C901 1.427 . S
N909 C907 1.384 . S
H910 C916 0.930 . S
H911 C920 0.930 . S
H912 C925 0.929 . S
H913 C923 0.929 . S
H914 C918 0.929 . S
H915 C924 0.929 . S
C916 H910 0.930 . S
C916 C917 1.367 . S
C916 C924 1.378 . S
C917 C916 1.367 . S
C917 C925 1.433 . S
C918 H914 0.929 . S
C918 C920 1.378 . S
C918 C922 1.350 . S
C919 C922 1.463 . S
C919 C924 1.350 . S
C919 N927 1.427 . S
C920 H911 0.930 . S
C920 C918 1.378 . S
C920 C921 1.367 . S
C921 C920 1.367 . S
C921 C923 1.433 . S
C922 C918 1.350 . S
C922 C919 1.463 . S
C922 N926 1.427 . S
C923 H913 0.929 . S
C923 C921 1.433 . S
C923 N926 1.384 . S
C924 H915 0.929 . S
C924 C916 1.378 . S
C924 C919 1.350 . S
C925 H912 0.929 . S
C925 C917 1.433 . S
C925 N927 1.384 . S
N926 C922 1.427 . S
N926 C923 1.384 . S
N927 C919 1.427 . S
N927 C925 1.384 . S
H928 C934 0.930 . S
H929 C938 0.930 . S
H930 C943 0.929 . S
H931 C941 0.929 . S
H932 C936 0.929 . S
H933 C942 0.929 . S
C934 H928 0.930 . S
C934 C935 1.367 . S
C934 C942 1.378 . S
C935 C934 1.367 . S
C935 C943 1.433 . S
C936 H932 0.929 . S
C936 C938 1.378 . S
C936 C940 1.350 . S
C937 C940 1.463 . S
C937 C942 1.350 . S
C937 N945 1.427 . S
C938 H929 0.930 . S
C938 C936 1.378 . S
C938 C939 1.367 . S
C939 C938 1.367 . S
C939 C941 1.433 . S
C940 C936 1.350 . S
C940 C937 1.463 . S
C940 N944 1.427 . S
C941 H931 0.929 . S
C941 C939 1.433 . S
C941 N944 1.384 . S
C942 H933 0.929 . S
C942 C934 1.378 . S
C942 C937 1.350 . S
C943 H930 0.929 . S
C943 C935 1.433 . S
C943 N945 1.384 . S
N944 C940 1.427 . S
N944 C941 1.384 . S
N945 C937 1.427 . S
N945 C943 1.384 . S
H946 C952 0.930 . S
H947 C956 0.930 . S
H948 C961 0.929 . S
H949 C959 0.929 . S
H950 C954 0.929 . S
H951 C960 0.929 . S
C952 H946 0.930 . S
C952 C953 1.367 . S
C952 C960 1.378 . S
C953 C952 1.367 . S
C953 C961 1.433 . S
C954 H950 0.929 . S
C954 C956 1.378 . S
C954 C958 1.350 . S
C955 C958 1.463 . S
C955 C960 1.350 . S
C955 N963 1.427 . S
C956 H947 0.930 . S
C956 C954 1.378 . S
C956 C957 1.367 . S
C957 C956 1.367 . S
C957 C959 1.433 . S
C958 C954 1.350 . S
C958 C955 1.463 . S
C958 N962 1.427 . S
C959 H949 0.929 . S
C959 C957 1.433 . S
C959 N962 1.384 . S
C960 H951 0.929 . S
C960 C952 1.378 . S
C960 C955 1.350 . S
C961 H948 0.929 . S
C961 C953 1.433 . S
C961 N963 1.384 . S
N962 C958 1.427 . S
N962 C959 1.384 . S
N963 C955 1.427 . S
N963 C961 1.384 . S
H964 C970 0.930 . S
H965 C974 0.930 . S
H966 C979 0.929 . S
H967 C977 0.929 . S
H968 C972 0.929 . S
H969 C978 0.929 . S
C970 H964 0.930 . S
C970 C971 1.367 . S
C970 C978 1.378 . S
C971 C970 1.367 . S
C971 C979 1.433 . S
C972 H968 0.929 . S
C972 C974 1.378 . S
C972 C976 1.350 . S
C973 C976 1.463 . S
C973 C978 1.350 . S
C973 N981 1.427 . S
C974 H965 0.930 . S
C974 C972 1.378 . S
C974 C975 1.367 . S
C975 C974 1.367 . S
C975 C977 1.433 . S
C976 C972 1.350 . S
C976 C973 1.463 . S
C976 N980 1.427 . S
C977 H967 0.929 . S
C977 C975 1.433 . S
C977 N980 1.384 . S
C978 H969 0.929 . S
C978 C970 1.378 . S
C978 C973 1.350 . S
C979 H966 0.929 . S
C979 C971 1.433 . S
C979 N981 1.384 . S
N980 C976 1.427 . S
N980 C977 1.384 . S
N981 C973 1.427 . S
N981 C979 1.384 . S
H982 C988 0.930 . S
H983 C992 0.930 . S
H984 C997 0.929 . S
H985 C995 0.929 . S
H986 C990 0.929 . S
H987 C996 0.929 . S
C988 H982 0.930 . S
C988 C989 1.367 . S
C988 C996 1.378 . S
C989 C988 1.367 . S
C989 C997 1.433 . S
C990 H986 0.929 . S
C990 C992 1.378 . S
C990 C994 1.350 . S
C991 C994 1.463 . S
C991 C996 1.350 . S
C991 N999 1.427 . S
C992 H983 0.930 . S
C992 C990 1.378 . S
C992 C993 1.367 . S
C993 C992 1.367 . S
C993 C995 1.433 . S
C994 C990 1.350 . S
C994 C991 1.463 . S
C994 N998 1.427 . S
C995 H985 0.929 . S
C995 C993 1.433 . S
C995 N998 1.384 . S
C996 H987 0.929 . S
C996 C988 1.378 . S
C996 C991 1.350 . S
C997 H984 0.929 . S
C997 C989 1.433 . S
C997 N999 1.384 . S
N998 C994 1.427 . S
N998 C995 1.384 . S
N999 C991 1.427 . S
N999 C997 1.384 . S
H1000 C1006 0.930 . S
H1001 C1010 0.930 . S
H1002 C1015 0.929 . S
H1003 C1013 0.929 . S
H1004 C1008 0.929 . S
H1005 C1014 0.929 . S
C1006 H1000 0.930 . S
C1006 C1007 1.367 . S
C1006 C1014 1.378 . S
C1007 C1006 1.367 . S
C1007 C1015 1.433 . S
C1008 H1004 0.929 . S
C1008 C1010 1.378 . S
C1008 C1012 1.350 . S
C1009 C1012 1.463 . S
C1009 C1014 1.350 . S
C1009 N1017 1.427 . S
C1010 H1001 0.930 . S
C1010 C1008 1.378 . S
C1010 C1011 1.367 . S
C1011 C1010 1.367 . S
C1011 C1013 1.433 . S
C1012 C1008 1.350 . S
C1012 C1009 1.463 . S
C1012 N1016 1.427 . S
C1013 H1003 0.929 . S
C1013 C1011 1.433 . S
C1013 N1016 1.384 . S
C1014 H1005 0.929 . S
C1014 C1006 1.378 . S
C1014 C1009 1.350 . S
C1015 H1002 0.929 . S
C1015 C1007 1.433 . S
C1015 N1017 1.384 . S
N1016 C1012 1.427 . S
N1016 C1013 1.384 . S
N1017 C1009 1.427 . S
N1017 C1015 1.384 . S
H1018 C1024 0.930 . S
H1019 C1028 0.930 . S
H1020 C1033 0.929 . S
H1021 C1031 0.929 . S
H1022 C1026 0.929 . S
H1023 C1032 0.929 . S
C1024 H1018 0.930 . S
C1024 C1025 1.367 . S
C1024 C1032 1.378 . S
C1025 C1024 1.367 . S
C1025 C1033 1.433 . S
C1026 H1022 0.929 . S
C1026 C1028 1.378 . S
C1026 C1030 1.350 . S
C1027 C1030 1.463 . S
C1027 C1032 1.350 . S
C1027 N1035 1.427 . S
C1028 H1019 0.930 . S
C1028 C1026 1.378 . S
C1028 C1029 1.367 . S
C1029 C1028 1.367 . S
C1029 C1031 1.433 . S
C1030 C1026 1.350 . S
C1030 C1027 1.463 . S
C1030 N1034 1.427 . S
C1031 H1021 0.929 . S
C1031 C1029 1.433 . S
C1031 N1034 1.384 . S
C1032 H1023 0.929 . S
C1032 C1024 1.378 . S
C1032 C1027 1.350 . S
C1033 H1020 0.929 . S
C1033 C1025 1.433 . S
C1033 N1035 1.384 . S
N1034 C1030 1.427 . S
N1034 C1031 1.384 . S
N1035 C1027 1.427 . S
N1035 C1033 1.384 . S
H1036 C1042 0.930 . S
H1037 C1046 0.930 . S
H1038 C1051 0.929 . S
H1039 C1049 0.929 . S
H1040 C1044 0.929 . S
H1041 C1050 0.929 . S
C1042 H1036 0.930 . S
C1042 C1043 1.367 . S
C1042 C1050 1.378 . S
C1043 C1042 1.367 . S
C1043 C1051 1.433 . S
C1044 H1040 0.929 . S
C1044 C1046 1.378 . S
C1044 C1048 1.350 . S
C1045 C1048 1.463 . S
C1045 C1050 1.350 . S
C1045 N1053 1.427 . S
C1046 H1037 0.930 . S
C1046 C1044 1.378 . S
C1046 C1047 1.367 . S
C1047 C1046 1.367 . S
C1047 C1049 1.433 . S
C1048 C1044 1.350 . S
C1048 C1045 1.463 . S
C1048 N1052 1.427 . S
C1049 H1039 0.929 . S
C1049 C1047 1.433 . S
C1049 N1052 1.384 . S
C1050 H1041 0.929 . S
C1050 C1042 1.378 . S
C1050 C1045 1.350 . S
C1051 H1038 0.929 . S
C1051 C1043 1.433 . S
C1051 N1053 1.384 . S
N1052 C1048 1.427 . S
N1052 C1049 1.384 . S
N1053 C1045 1.427 . S
N1053 C1051 1.384 . S
H1054 C1060 0.930 . S
H1055 C1064 0.930 . S
H1056 C1069 0.929 . S
H1057 C1067 0.929 . S
H1058 C1062 0.929 . S
H1059 C1068 0.929 . S
C1060 H1054 0.930 . S
C1060 C1061 1.367 . S
C1060 C1068 1.378 . S
C1061 C1060 1.367 . S
C1061 C1069 1.433 . S
C1062 H1058 0.929 . S
C1062 C1064 1.378 . S
C1062 C1066 1.350 . S
C1063 C1066 1.463 . S
C1063 C1068 1.350 . S
C1063 N1071 1.427 . S
C1064 H1055 0.930 . S
C1064 C1062 1.378 . S
C1064 C1065 1.367 . S
C1065 C1064 1.367 . S
C1065 C1067 1.433 . S
C1066 C1062 1.350 . S
C1066 C1063 1.463 . S
C1066 N1070 1.427 . S
C1067 H1057 0.929 . S
C1067 C1065 1.433 . S
C1067 N1070 1.384 . S
C1068 H1059 0.929 . S
C1068 C1060 1.378 . S
C1068 C1063 1.350 . S
C1069 H1056 0.929 . S
C1069 C1061 1.433 . S
C1069 N1071 1.384 . S
N1070 C1066 1.427 . S
N1070 C1067 1.384 . S
N1071 C1063 1.427 . S
N1071 C1069 1.384 . S
C647 C1 1.125 . S
C651 C497 1.233 . S
C665 C80 1.190 . S
C669 C537 1.237 . S
C687 C562 2.385 . S
C683 C140 2.390 . S
C701 C211 2.414 . S
C705 C602 2.380 . S
C723 C533 1.812 . S
C719 C31 1.630 . S
C741 C493 1.812 . S
C737 C61 1.728 . S
C759 C624 1.682 . S
C755 C151 1.654 . S
C777 C584 1.682 . S
C773 C200 1.706 . S
C791 C20 1.344 . S
C795 C626 1.398 . S
C813 C543 2.154 . S
C809 C121 2.183 . S
C827 C181 2.124 . S
C831 C503 2.149 . S
C845 C91 1.417 . S
C849 C586 1.401 . S
C867 C506 1.230 . S
C863 C260 1.173 . S
C881 C320 1.191 . S
C885 C546 1.235 . S
C899 C361 2.407 . S
C903 C583 2.380 . S
C917 C451 2.414 . S
C921 C623 2.380 . S
C935 C271 1.690 . S
C939 C544 1.815 . S
C957 C504 1.814 . S
C953 C301 1.736 . S
C975 C613 1.678 . S
C971 C380 1.637 . S
C993 C573 1.682 . S
C989 C440 1.704 . S
C1007 C241 1.272 . S
C1011 C617 1.404 . S
C1029 C522 2.151 . S
C1025 C391 2.194 . S
C1047 C482 2.153 . S
C1043 C421 2.124 . S
C1061 C331 1.419 . S
C1065 C577 1.395 . S
