# Generated by pormake.
# Topology ssb, (4,4)-cn, num edge types: 1
# Building blocks:
#     Node 0, Type 0, BuildingBlock: MIFKUJ_clean_linker_1, # of connection points: 4
#     Node 1, Type 0, BuildingBlock: MIFKUJ_clean_linker_1, # of connection points: 4
#     Node 2, Type 0, BuildingBlock: MIFKUJ_clean_linker_1, # of connection points: 4
#     Node 3, Type 0, BuildingBlock: MIFKUJ_clean_linker_1, # of connection points: 4
#     Node 4, Type 0, BuildingBlock: MIFKUJ_clean_linker_1, # of connection points: 4
#     Node 5, Type 0, BuildingBlock: MIFKUJ_clean_linker_1, # of connection points: 4
#     Node 6, Type 0, BuildingBlock: MIFKUJ_clean_linker_1, # of connection points: 4
#     Node 7, Type 0, BuildingBlock: MIFKUJ_clean_linker_1, # of connection points: 4
#     Node 8, Type 1, BuildingBlock: NAWXER_clean_sbu_0, # of connection points: 4
#     Node 9, Type 1, BuildingBlock: NAWXER_clean_sbu_0, # of connection points: 4
#     Node 10, Type 1, BuildingBlock: NAWXER_clean_sbu_0, # of connection points: 4
#     Node 11, Type 1, BuildingBlock: NAWXER_clean_sbu_0, # of connection points: 4
#     Node 12, Type 1, BuildingBlock: NAWXER_clean_sbu_0, # of connection points: 4
#     Node 13, Type 1, BuildingBlock: NAWXER_clean_sbu_0, # of connection points: 4
#     Node 14, Type 1, BuildingBlock: NAWXER_clean_sbu_0, # of connection points: 4
#     Node 15, Type 1, BuildingBlock: NAWXER_clean_sbu_0, # of connection points: 4
#     Edge 16, Type (0, 1), BuildingBlock: MIFKUJ_clean_linker_0, # of connection points: 2
#     Edge 17, Type (0, 1), BuildingBlock: MIFKUJ_clean_linker_0, # of connection points: 2
#     Edge 18, Type (0, 1), BuildingBlock: MIFKUJ_clean_linker_0, # of connection points: 2
#     Edge 19, Type (0, 1), BuildingBlock: MIFKUJ_clean_linker_0, # of connection points: 2
#     Edge 20, Type (0, 1), BuildingBlock: MIFKUJ_clean_linker_0, # of connection points: 2
#     Edge 21, Type (0, 1), BuildingBlock: MIFKUJ_clean_linker_0, # of connection points: 2
#     Edge 22, Type (0, 1), BuildingBlock: MIFKUJ_clean_linker_0, # of connection points: 2
#     Edge 23, Type (0, 1), BuildingBlock: MIFKUJ_clean_linker_0, # of connection points: 2
#     Edge 24, Type (0, 1), BuildingBlock: MIFKUJ_clean_linker_0, # of connection points: 2
#     Edge 25, Type (0, 1), BuildingBlock: MIFKUJ_clean_linker_0, # of connection points: 2
#     Edge 26, Type (0, 1), BuildingBlock: MIFKUJ_clean_linker_0, # of connection points: 2
#     Edge 27, Type (0, 1), BuildingBlock: MIFKUJ_clean_linker_0, # of connection points: 2
#     Edge 28, Type (0, 1), BuildingBlock: MIFKUJ_clean_linker_0, # of connection points: 2
#     Edge 29, Type (0, 1), BuildingBlock: MIFKUJ_clean_linker_0, # of connection points: 2
#     Edge 30, Type (0, 1), BuildingBlock: MIFKUJ_clean_linker_0, # of connection points: 2
#     Edge 31, Type (0, 1), BuildingBlock: MIFKUJ_clean_linker_0, # of connection points: 2
#     Edge 32, Type (0, 1), BuildingBlock: MIFKUJ_clean_linker_0, # of connection points: 2
#     Edge 33, Type (0, 1), BuildingBlock: MIFKUJ_clean_linker_0, # of connection points: 2
#     Edge 34, Type (0, 1), BuildingBlock: MIFKUJ_clean_linker_0, # of connection points: 2
#     Edge 35, Type (0, 1), BuildingBlock: MIFKUJ_clean_linker_0, # of connection points: 2
#     Edge 36, Type (0, 1), BuildingBlock: MIFKUJ_clean_linker_0, # of connection points: 2
#     Edge 37, Type (0, 1), BuildingBlock: MIFKUJ_clean_linker_0, # of connection points: 2
#     Edge 38, Type (0, 1), BuildingBlock: MIFKUJ_clean_linker_0, # of connection points: 2
#     Edge 39, Type (0, 1), BuildingBlock: MIFKUJ_clean_linker_0, # of connection points: 2
#     Edge 40, Type (0, 1), BuildingBlock: MIFKUJ_clean_linker_0, # of connection points: 2
#     Edge 41, Type (0, 1), BuildingBlock: MIFKUJ_clean_linker_0, # of connection points: 2
#     Edge 42, Type (0, 1), BuildingBlock: MIFKUJ_clean_linker_0, # of connection points: 2
#     Edge 43, Type (0, 1), BuildingBlock: MIFKUJ_clean_linker_0, # of connection points: 2
#     Edge 44, Type (0, 1), BuildingBlock: MIFKUJ_clean_linker_0, # of connection points: 2
#     Edge 45, Type (0, 1), BuildingBlock: MIFKUJ_clean_linker_0, # of connection points: 2
#     Edge 46, Type (0, 1), BuildingBlock: MIFKUJ_clean_linker_0, # of connection points: 2
#     Edge 47, Type (0, 1), BuildingBlock: MIFKUJ_clean_linker_0, # of connection points: 2
# Relax obj value: 0.000
# Max RMSD: 0.000
# Mean RMSD: 0.000
data_MOF--net-ssb--node1-NAWXER_clean_sbu_0--node2-MIFKUJ_clean_linker_1--edge1-MIFKUJ_clean_linker_0
_symmetry_space_group_name_H-M    P1
_symmetry_Int_Tables_number       1
_symmetry_cell_setting            triclinic
loop_
_symmetry_equiv_pos_as_xyz
'x, y, z'
_cell_length_a     67.751495
_cell_length_b     67.75065
_cell_length_c     59.115665
_cell_angle_alpha  89.951451
_cell_angle_beta   90.066039
_cell_angle_gamma 89.981807
loop_
_atom_site_label
_atom_site_type_symbol
_atom_site_fract_x
_atom_site_fract_y
_atom_site_fract_z
_atom_type_partial_charge
H0 H 0.27457 0.23726 0.2109 0.0
H1 H 0.30183 0.23811 0.18354 0.0
H2 H 0.32837 0.2863 0.22042 0.0
H3 H 0.30109 0.28545 0.24755 0.0
H4 H 0.27501 0.23344 0.26099 0.0
H5 H 0.25146 0.27645 0.2017 0.0
H6 H 0.25588 0.30279 0.17378 0.0
H7 H 0.27027 0.34358 0.22743 0.0
H8 H 0.2658 0.31707 0.25536 0.0
H9 H 0.22956 0.29353 0.30746 0.0
H10 H 0.202 0.29656 0.33368 0.0
H11 H 0.17985 0.23993 0.31144 0.0
H12 H 0.20673 0.23769 0.28415 0.0
H13 H 0.23121 0.29214 0.26333 0.0
H14 H 0.24663 0.24671 0.32374 0.0
H15 H 0.24076 0.21841 0.34867 0.0
H16 H 0.24238 0.17942 0.29103 0.0
H17 H 0.24732 0.20777 0.26597 0.0
C18 C 0.28587 0.26127 0.2312 0.0
C19 C 0.28639 0.24784 0.21318 0.0
C20 C 0.30185 0.24845 0.19751 0.0
C21 C 0.31718 0.2623 0.19987 0.0
C22 C 0.31685 0.27538 0.21829 0.0
C23 C 0.30127 0.27493 0.23375 0.0
C24 C 0.26869 0.26193 0.24666 0.0
C25 C 0.26522 0.24611 0.26146 0.0
C26 C 0.2562 0.27859 0.24725 0.0
C27 C 0.25833 0.29483 0.23057 0.0
C28 C 0.25553 0.29108 0.20744 0.0
C29 C 0.25798 0.30614 0.19153 0.0
C30 C 0.26342 0.32524 0.19843 0.0
C31 C 0.26623 0.32896 0.22163 0.0
C32 C 0.26354 0.31391 0.23758 0.0
C33 C 0.22042 0.26527 0.294 0.0
C34 C 0.21867 0.28185 0.30809 0.0
C35 C 0.20298 0.28344 0.32331 0.0
C36 C 0.18871 0.26841 0.32493 0.0
C37 C 0.19039 0.25191 0.31057 0.0
C38 C 0.20594 0.25047 0.29511 0.0
C39 C 0.23737 0.26363 0.27814 0.0
C40 C 0.24088 0.27938 0.26313 0.0
C41 C 0.24973 0.24668 0.27731 0.0
C42 C 0.24707 0.2295 0.29283 0.0
C43 C 0.24543 0.23213 0.31637 0.0
C44 C 0.24214 0.21596 0.33064 0.0
C45 C 0.24102 0.19677 0.32174 0.0
C46 C 0.24323 0.19406 0.29832 0.0
C47 C 0.24611 0.21026 0.28402 0.0
H48 H 0.71072 0.2413 0.23767 0.0
H49 H 0.68227 0.23982 0.21221 0.0
H50 H 0.72149 0.23282 0.15522 0.0
H51 H 0.74998 0.23423 0.18086 0.0
H52 H 0.73868 0.21286 0.24502 0.0
H53 H 0.73501 0.2784 0.2158 0.0
H54 H 0.73515 0.30551 0.18883 0.0
H55 H 0.79568 0.29182 0.1716 0.0
H56 H 0.79474 0.2636 0.19703 0.0
H57 H 0.82085 0.23283 0.24981 0.0
H58 H 0.84738 0.23109 0.2779 0.0
H59 H 0.80483 0.24119 0.33113 0.0
H60 H 0.77845 0.24239 0.303 0.0
H61 H 0.79241 0.26239 0.23975 0.0
H62 H 0.79486 0.19509 0.2647 0.0
H63 H 0.79689 0.1697 0.294 0.0
H64 H 0.74093 0.18922 0.321 0.0
H65 H 0.73895 0.21451 0.2915 0.0
C66 C 0.73245 0.23798 0.21114 0.0
C67 C 0.71319 0.2395 0.21968 0.0
C68 C 0.69697 0.23877 0.20512 0.0
C69 C 0.69967 0.23624 0.18173 0.0
C70 C 0.71898 0.23465 0.17319 0.0
C71 C 0.73524 0.23559 0.18777 0.0
C72 C 0.7495 0.23829 0.2269 0.0
C73 C 0.75032 0.22382 0.2439 0.0
C74 C 0.76496 0.25231 0.22512 0.0
C75 C 0.76473 0.26861 0.20821 0.0
C76 C 0.74812 0.28084 0.20573 0.0
C77 C 0.74838 0.29667 0.19056 0.0
C78 C 0.76547 0.30105 0.17797 0.0
C79 C 0.7821 0.28879 0.18058 0.0
C80 C 0.78167 0.27272 0.19538 0.0
C81 C 0.79771 0.23757 0.27436 0.0
C82 C 0.81733 0.23481 0.26753 0.0
C83 C 0.83246 0.23386 0.28362 0.0
C84 C 0.82823 0.23582 0.30683 0.0
C85 C 0.80858 0.23916 0.31348 0.0
C86 C 0.79349 0.24001 0.29742 0.0
C87 C 0.78145 0.23704 0.25758 0.0
C88 C 0.7808 0.25139 0.24052 0.0
C89 C 0.7662 0.22289 0.25907 0.0
C90 C 0.76683 0.20679 0.27606 0.0
C91 C 0.78304 0.1939 0.27695 0.0
C92 C 0.78423 0.17946 0.29376 0.0
C93 C 0.76914 0.17752 0.30993 0.0
C94 C 0.75271 0.19019 0.30868 0.0
C95 C 0.75155 0.20466 0.29185 0.0
H96 H 0.71629 0.77455 0.20826 0.0
H97 H 0.69025 0.76919 0.18007 0.0
H98 H 0.67447 0.71453 0.21301 0.0
H99 H 0.70064 0.71989 0.24108 0.0
H100 H 0.71477 0.77662 0.25683 0.0
H101 H 0.74175 0.73723 0.1973 0.0
H102 H 0.74046 0.70909 0.17146 0.0
H103 H 0.74661 0.66924 0.22805 0.0
H104 H 0.7471 0.69745 0.25404 0.0
H105 H 0.76976 0.73178 0.30892 0.0
H106 H 0.79761 0.73686 0.33491 0.0
H107 H 0.81279 0.79053 0.29962 0.0
H108 H 0.78464 0.78566 0.274 0.0
H109 H 0.77036 0.72893 0.26001 0.0
H110 H 0.74384 0.7677 0.31953 0.0
H111 H 0.74099 0.79507 0.34618 0.0
H112 H 0.73269 0.83553 0.29049 0.0
H113 H 0.73611 0.80812 0.26375 0.0
C114 C 0.71042 0.74759 0.22669 0.0
C115 C 0.7071 0.76151 0.20951 0.0
C116 C 0.69237 0.75834 0.19333 0.0
C117 C 0.68045 0.74138 0.19429 0.0
C118 C 0.6834 0.72775 0.21191 0.0
C119 C 0.69833 0.73078 0.22791 0.0
C120 C 0.72717 0.75017 0.24261 0.0
C121 C 0.72708 0.76638 0.25736 0.0
C122 C 0.74294 0.73647 0.24355 0.0
C123 C 0.74406 0.71947 0.2277 0.0
C124 C 0.74263 0.72245 0.20422 0.0
C125 C 0.74194 0.70638 0.18945 0.0
C126 C 0.74324 0.68702 0.19781 0.0
C127 C 0.74559 0.68404 0.22119 0.0
C128 C 0.74592 0.70013 0.23602 0.0
C129 C 0.77512 0.75838 0.2896 0.0
C130 C 0.77909 0.74463 0.3068 0.0
C131 C 0.79489 0.7476 0.32168 0.0
C132 C 0.80728 0.7641 0.31925 0.0
C133 C 0.80348 0.77767 0.30179 0.0
C134 C 0.78742 0.77492 0.28722 0.0
C135 C 0.75805 0.75551 0.2742 0.0
C136 C 0.7581 0.73923 0.25949 0.0
C137 C 0.74221 0.76915 0.27334 0.0
C138 C 0.74061 0.78586 0.28955 0.0
C139 C 0.74182 0.78249 0.31297 0.0
C140 C 0.74008 0.79814 0.32822 0.0
C141 C 0.7367 0.81744 0.3204 0.0
C142 C 0.73518 0.82078 0.29699 0.0
C143 C 0.73716 0.80514 0.28171 0.0
H144 H 0.22411 0.72265 0.28872 0.0
H145 H 0.19701 0.72047 0.31556 0.0
H146 H 0.18362 0.78212 0.30405 0.0
H147 H 0.20964 0.78366 0.27576 0.0
H148 H 0.22428 0.72769 0.2465 0.0
H149 H 0.25213 0.76496 0.30783 0.0
H150 H 0.25549 0.79091 0.3364 0.0
H151 H 0.25346 0.83513 0.28377 0.0
H152 H 0.24984 0.80923 0.25536 0.0
H153 H 0.27085 0.78518 0.1983 0.0
H154 H 0.2981 0.78777 0.17135 0.0
H155 H 0.31774 0.72935 0.19029 0.0
H156 H 0.29074 0.72706 0.21761 0.0
H157 H 0.2739 0.78137 0.24354 0.0
H158 H 0.243 0.7436 0.18302 0.0
H159 H 0.24051 0.71723 0.15473 0.0
H160 H 0.25035 0.67376 0.20703 0.0
H161 H 0.25283 0.70013 0.23518 0.0
C162 C 0.21914 0.75337 0.28029 0.0
C163 C 0.21527 0.73569 0.29188 0.0
C164 C 0.19986 0.73454 0.30751 0.0
C165 C 0.18804 0.75114 0.31217 0.0
C166 C 0.19213 0.76892 0.30074 0.0
C167 C 0.20731 0.76994 0.28477 0.0
C168 C 0.23493 0.75412 0.2628 0.0
C169 C 0.23528 0.73932 0.24613 0.0
C170 C 0.2491 0.76951 0.26186 0.0
C171 C 0.25055 0.78513 0.27943 0.0
C172 C 0.25215 0.78025 0.30247 0.0
C173 C 0.25411 0.79508 0.31877 0.0
C174 C 0.25483 0.81505 0.3123 0.0
C175 C 0.25324 0.81987 0.28925 0.0
C176 C 0.25111 0.80508 0.273 0.0
C177 C 0.27867 0.75587 0.20984 0.0
C178 C 0.28097 0.77288 0.19653 0.0
C179 C 0.29648 0.7743 0.18106 0.0
C180 C 0.31011 0.75879 0.17873 0.0
C181 C 0.30761 0.74165 0.19187 0.0
C182 C 0.29205 0.74022 0.2073 0.0
C183 C 0.26306 0.75508 0.2274 0.0
C184 C 0.26281 0.76982 0.24406 0.0
C185 C 0.24911 0.7396 0.22848 0.0
C186 C 0.24822 0.72381 0.21117 0.0
C187 C 0.24475 0.72839 0.18834 0.0
C188 C 0.24318 0.71333 0.17225 0.0
C189 C 0.24524 0.69346 0.1787 0.0
C190 C 0.24888 0.68895 0.20155 0.0
C191 C 0.2502 0.70398 0.21764 0.0
H192 H 0.19321 0.75797 0.74623 0.0
H193 H 0.16562 0.76139 0.71953 0.0
H194 H 0.20629 0.75641 0.66364 0.0
H195 H 0.23378 0.75312 0.69035 0.0
H196 H 0.22185 0.72744 0.75155 0.0
H197 H 0.21742 0.79528 0.73244 0.0
H198 H 0.21443 0.82291 0.70642 0.0
H199 H 0.27357 0.81157 0.68213 0.0
H200 H 0.2757 0.78283 0.70688 0.0
H201 H 0.30397 0.74516 0.75224 0.0
H202 H 0.33244 0.73871 0.77677 0.0
H203 H 0.29474 0.74309 0.83549 0.0
H204 H 0.26644 0.74943 0.81089 0.0
H205 H 0.27603 0.77681 0.74995 0.0
H206 H 0.27497 0.7047 0.76087 0.0
H207 H 0.27936 0.6768 0.78687 0.0
H208 H 0.23286 0.69972 0.82928 0.0
H209 H 0.22835 0.72749 0.803 0.0
C210 C 0.21553 0.75539 0.72025 0.0
C211 C 0.19613 0.75749 0.72822 0.0
C212 C 0.18044 0.75959 0.71299 0.0
C213 C 0.18384 0.75922 0.68953 0.0
C214 C 0.20323 0.75663 0.68162 0.0
C215 C 0.21893 0.75481 0.69684 0.0
C216 C 0.23235 0.75442 0.73632 0.0
C217 C 0.23352 0.7384 0.75137 0.0
C218 C 0.24772 0.76865 0.73594 0.0
C219 C 0.24659 0.78656 0.72128 0.0
C220 C 0.22963 0.79851 0.72124 0.0
C221 C 0.22808 0.81461 0.70653 0.0
C222 C 0.2437 0.81957 0.6919 0.0
C223 C 0.261 0.80802 0.69265 0.0
C224 C 0.26238 0.79167 0.70708 0.0
C225 C 0.28307 0.74761 0.77972 0.0
C226 C 0.30192 0.74492 0.77041 0.0
C227 C 0.31816 0.74121 0.78446 0.0
C228 C 0.31584 0.74016 0.8081 0.0
C229 C 0.29699 0.74336 0.81735 0.0
C230 C 0.28081 0.74712 0.80332 0.0
C231 C 0.26555 0.74975 0.7648 0.0
C232 C 0.26425 0.76597 0.75005 0.0
C233 C 0.25001 0.73583 0.76544 0.0
C234 C 0.25129 0.71807 0.78001 0.0
C235 C 0.26554 0.70353 0.7756 0.0
C236 C 0.26803 0.68765 0.79044 0.0
C237 C 0.2565 0.68617 0.81011 0.0
C238 C 0.24204 0.70061 0.81432 0.0
C239 C 0.23933 0.71633 0.79926 0.0
H240 H 0.31072 0.25382 0.7647 0.0
H241 H 0.337 0.25216 0.79303 0.0
H242 H 0.2934 0.24358 0.84541 0.0
H243 H 0.2672 0.24486 0.81691 0.0
H244 H 0.28573 0.22489 0.75374 0.0
H245 H 0.27992 0.29136 0.77876 0.0
H246 H 0.2768 0.31877 0.80527 0.0
H247 H 0.22143 0.29481 0.82901 0.0
H248 H 0.2245 0.2676 0.80207 0.0
H249 H 0.2015 0.2386 0.74911 0.0
H250 H 0.17405 0.23461 0.72261 0.0
H251 H 0.21463 0.23871 0.66653 0.0
H252 H 0.24201 0.24324 0.69306 0.0
H253 H 0.22616 0.26736 0.7568 0.0
H254 H 0.23405 0.19925 0.73262 0.0
H255 H 0.2384 0.17217 0.70581 0.0
H256 H 0.29098 0.20037 0.67989 0.0
H257 H 0.28673 0.22715 0.70715 0.0
C258 C 0.28699 0.24959 0.78869 0.0
C259 C 0.30682 0.25175 0.78231 0.0
C260 C 0.32181 0.25091 0.79853 0.0
C261 C 0.31727 0.2477 0.82145 0.0
C262 C 0.29737 0.24588 0.82786 0.0
C263 C 0.28237 0.24682 0.81163 0.0
C264 C 0.27128 0.24872 0.77122 0.0
C265 C 0.27285 0.23441 0.75418 0.0
C266 C 0.25432 0.26088 0.77207 0.0
C267 C 0.25253 0.27732 0.78855 0.0
C268 C 0.26719 0.29192 0.7898 0.0
C269 C 0.26539 0.30758 0.80503 0.0
C270 C 0.24888 0.309 0.81938 0.0
C271 C 0.2342 0.29435 0.81803 0.0
C272 C 0.23598 0.27872 0.80271 0.0
C273 C 0.2239 0.24099 0.72315 0.0
C274 C 0.2045 0.23877 0.73111 0.0
C275 C 0.18882 0.23649 0.71596 0.0
C276 C 0.19223 0.23626 0.69252 0.0
C277 C 0.21162 0.23854 0.68452 0.0
C278 C 0.22728 0.24109 0.69968 0.0
C279 C 0.24048 0.24331 0.73946 0.0
C280 C 0.23907 0.2579 0.7563 0.0
C281 C 0.25768 0.23147 0.73839 0.0
C282 C 0.25998 0.21527 0.72174 0.0
C283 C 0.24643 0.19963 0.72106 0.0
C284 C 0.24893 0.18419 0.70565 0.0
C285 C 0.26504 0.18409 0.69063 0.0
C286 C 0.27858 0.19981 0.69141 0.0
C287 C 0.27612 0.21519 0.70689 0.0
H288 H 0.71033 0.2377 0.78986 0.0
H289 H 0.68331 0.24041 0.81713 0.0
H290 H 0.66865 0.29796 0.7904 0.0
H291 H 0.69563 0.29514 0.76316 0.0
H292 H 0.713 0.23799 0.74433 0.0
H293 H 0.73566 0.27718 0.80538 0.0
H294 H 0.73299 0.30385 0.83305 0.0
H295 H 0.73647 0.34675 0.77915 0.0
H296 H 0.7386 0.31998 0.75138 0.0
H297 H 0.76451 0.29152 0.6972 0.0
H298 H 0.79319 0.29151 0.67215 0.0
H299 H 0.81105 0.235 0.69937 0.0
H300 H 0.78213 0.23499 0.72403 0.0
H301 H 0.76373 0.29082 0.74344 0.0
H302 H 0.73708 0.24965 0.68257 0.0
H303 H 0.73662 0.22163 0.65628 0.0
H304 H 0.74272 0.18143 0.71259 0.0
H305 H 0.74305 0.20946 0.73877 0.0
C306 C 0.70515 0.2663 0.77465 0.0
C307 C 0.70114 0.25078 0.7897 0.0
C308 C 0.6857 0.25236 0.80527 0.0
C309 C 0.67394 0.26948 0.80605 0.0
C310 C 0.67765 0.28475 0.79051 0.0
C311 C 0.69302 0.28312 0.77488 0.0
C312 C 0.72253 0.26533 0.75939 0.0
C313 C 0.72421 0.24943 0.7443 0.0
C314 C 0.73712 0.2803 0.75932 0.0
C315 C 0.73698 0.29655 0.77623 0.0
C316 C 0.73569 0.29232 0.79946 0.0
C317 C 0.73415 0.30755 0.81527 0.0
C318 C 0.73432 0.32736 0.80822 0.0
C319 C 0.73633 0.33161 0.78505 0.0
C320 C 0.73759 0.31634 0.76919 0.0
C321 C 0.77107 0.26319 0.71234 0.0
C322 C 0.77457 0.2791 0.69768 0.0
C323 C 0.79105 0.27911 0.68346 0.0
C324 C 0.8045 0.26327 0.68374 0.0
C325 C 0.80087 0.2473 0.6984 0.0
C326 C 0.78434 0.24727 0.71256 0.0
C327 C 0.754 0.26367 0.72806 0.0
C328 C 0.75248 0.27943 0.74341 0.0
C329 C 0.73973 0.24842 0.72862 0.0
C330 C 0.7402 0.23161 0.71259 0.0
C331 C 0.73844 0.2348 0.6892 0.0
C332 C 0.73805 0.21881 0.67424 0.0
C333 C 0.73964 0.19937 0.68241 0.0
C334 C 0.74164 0.19625 0.70582 0.0
C335 C 0.74174 0.21222 0.72078 0.0
H336 H 0.7825 0.71744 0.71607 0.0
H337 H 0.80888 0.71349 0.68852 0.0
H338 H 0.82775 0.77347 0.70126 0.0
H339 H 0.80233 0.77668 0.73014 0.0
H340 H 0.78345 0.72288 0.7592 0.0
H341 H 0.76047 0.76227 0.69607 0.0
H342 H 0.76246 0.78911 0.66831 0.0
H343 H 0.76333 0.8317 0.72257 0.0
H344 H 0.76208 0.80491 0.75027 0.0
H345 H 0.73486 0.78386 0.80135 0.0
H346 H 0.70689 0.78778 0.82672 0.0
H347 H 0.69063 0.72686 0.81532 0.0
H348 H 0.71775 0.72355 0.78856 0.0
H349 H 0.73576 0.77831 0.75916 0.0
H350 H 0.75978 0.74033 0.82219 0.0
H351 H 0.76242 0.71431 0.85087 0.0
H352 H 0.7613 0.67014 0.79827 0.0
H353 H 0.75822 0.69607 0.76973 0.0
C354 C 0.7902 0.74745 0.72503 0.0
C355 C 0.79242 0.72969 0.71306 0.0
C356 C 0.80742 0.72754 0.69705 0.0
C357 C 0.82046 0.74319 0.6924 0.0
C358 C 0.81821 0.76097 0.7045 0.0
C359 C 0.80344 0.76296 0.72083 0.0
C360 C 0.77426 0.7494 0.74219 0.0
C361 C 0.77281 0.73485 0.75901 0.0
C362 C 0.76084 0.76544 0.74242 0.0
C363 C 0.76141 0.78153 0.72531 0.0
C364 C 0.76133 0.77736 0.70201 0.0
C365 C 0.76243 0.79267 0.68617 0.0
C366 C 0.76308 0.81242 0.69335 0.0
C367 C 0.76271 0.81659 0.71661 0.0
C368 C 0.76198 0.8013 0.73242 0.0
C369 C 0.7286 0.75336 0.79308 0.0
C370 C 0.72524 0.77134 0.80426 0.0
C371 C 0.70931 0.77349 0.81904 0.0
C372 C 0.69639 0.75764 0.82324 0.0
C373 C 0.70001 0.73952 0.81232 0.0
C374 C 0.71578 0.73748 0.79723 0.0
C375 C 0.74486 0.7517 0.77622 0.0
C376 C 0.74635 0.7663 0.7594 0.0
C377 C 0.75843 0.73578 0.77609 0.0
C378 C 0.75866 0.72017 0.79377 0.0
C379 C 0.75972 0.72504 0.81685 0.0
C380 C 0.7613 0.71018 0.83322 0.0
C381 C 0.7622 0.69024 0.82675 0.0
C382 C 0.7609 0.68541 0.8037 0.0
C383 C 0.7591 0.70021 0.7874 0.0
C384 C 0.9763 0.26108 0.53992 0.0
C385 C 0.02835 0.26696 0.48306 0.0
O386 O 0.98455 0.27679 0.53289 0.0
Zn387 Zn 0.00271 0.26446 0.51213 0.0
O388 O 0.98213 0.24429 0.53235 0.0
Zn389 Zn 0.00372 0.23322 0.50862 0.0
O390 O 0.02184 0.21798 0.52714 0.0
O391 O 0.02277 0.24988 0.5345 0.0
O392 O 0.02329 0.24906 0.48691 0.0
O393 O 0.02032 0.28086 0.49416 0.0
O394 O 0.98273 0.25206 0.48753 0.0
O395 O 0.98743 0.21976 0.4867 0.0
C396 C 0.02886 0.2323 0.53844 0.0
C397 C 0.97844 0.235 0.47949 0.0
C398 C 0.73753 0.02903 0.53717 0.0
C399 C 0.73559 0.97539 0.48186 0.0
O400 O 0.75472 0.02262 0.53183 0.0
Zn401 Zn 0.76744 1.00109 0.50955 0.0
O402 O 0.72232 0.02142 0.52807 0.0
Zn403 Zn 0.73599 0.0023 0.5094 0.0
O404 O 0.74889 0.98237 0.53366 0.0
O405 O 0.78132 0.98371 0.52995 0.0
O406 O 0.72094 0.98469 0.49005 0.0
O407 O 0.75315 0.9802 0.48778 0.0
O408 O 0.78241 0.01739 0.48869 0.0
O409 O 0.75019 0.02094 0.48528 0.0
C410 C 0.76616 0.97655 0.53961 0.0
C411 C 0.76771 0.02549 0.47905 0.0
C412 C 0.97527 0.73824 0.5272 0.0
C413 C 0.02435 0.74308 0.46702 0.0
O414 O 0.98042 0.75601 0.52278 0.0
Zn415 Zn 0.99892 0.77147 0.49969 0.0
O416 O 0.98241 0.7241 0.51572 0.0
Zn417 Zn 0.99949 0.74011 0.49655 0.0
O418 O 0.0205 0.7524 0.51994 0.0
O419 O 0.01686 0.78478 0.52029 0.0
O420 O 0.01701 0.7274 0.47535 0.0
O421 O 0.01871 0.75999 0.47436 0.0
O422 O 0.9798 0.78666 0.48242 0.0
O423 O 0.97876 0.75475 0.47477 0.0
C424 C 0.02568 0.7694 0.52742 0.0
C425 C 0.97253 0.77236 0.4713 0.0
C426 C 0.26648 0.02889 0.52663 0.0
C427 C 0.26187 0.97713 0.46924 0.0
O428 O 0.28078 0.02066 0.5164 0.0
Zn429 Zn 0.2649 0.00341 0.49724 0.0
O430 O 0.24876 0.02377 0.52189 0.0
Zn431 Zn 0.2334 0.00393 0.50026 0.0
O432 O 0.22025 0.98705 0.52224 0.0
O433 O 0.25259 0.98289 0.52118 0.0
O434 O 0.24504 0.9826 0.47693 0.0
O435 O 0.27751 0.98576 0.47591 0.0
O436 O 0.25033 0.02384 0.47526 0.0
O437 O 0.21827 0.02204 0.48126 0.0
C438 C 0.23565 0.97812 0.52917 0.0
C439 C 0.23277 0.02969 0.47078 0.0
C440 C 0.47474 0.76211 0.02512 0.0
C441 C 0.52718 0.76533 0.96841 0.0
O442 O 0.48266 0.77761 0.017 0.0
Zn443 Zn 0.5011 0.76438 0.99711 0.0
O444 O 0.48079 0.74509 0.01859 0.0
Zn445 Zn 0.50214 0.73284 0.99563 0.0
O446 O 0.52012 0.71861 0.01572 0.0
O447 O 0.52077 0.75086 0.02069 0.0
O448 O 0.52202 0.74763 0.97329 0.0
O449 O 0.519 0.77976 0.97844 0.0
O450 O 0.48141 0.75096 0.97314 0.0
O451 O 0.48524 0.71863 0.97459 0.0
C452 C 0.52684 0.73359 0.02616 0.0
C453 C 0.47662 0.73366 0.96623 0.0
C454 C 0.24281 0.52932 0.02551 0.0
C455 C 0.24586 0.47607 0.9697 0.0
O456 O 0.26039 0.52352 0.02118 0.0
Zn457 Zn 0.27514 0.50298 0.99981 0.0
O458 O 0.22834 0.52149 0.01517 0.0
Zn459 Zn 0.2437 0.50296 0.99708 0.0
O460 O 0.25585 0.48309 0.02193 0.0
O461 O 0.28828 0.4862 0.02177 0.0
O462 O 0.23046 0.48472 0.97698 0.0
O463 O 0.26291 0.48162 0.97675 0.0
O464 O 0.29057 0.52042 0.98055 0.0
O465 O 0.25853 0.52209 0.97378 0.0
C466 C 0.27283 0.47805 0.02966 0.0
C467 C 0.27621 0.52755 0.96937 0.0
C468 C 0.52681 0.26833 0.98015 0.0
C469 C 0.4774 0.26598 0.04036 0.0
O470 O 0.51941 0.28288 0.99075 0.0
Zn471 Zn 0.50248 0.26767 0.01061 0.0
O472 O 0.52168 0.25072 0.9855 0.0
Zn473 Zn 0.50263 0.23626 0.00936 0.0
O474 O 0.48446 0.22221 0.98985 0.0
O475 O 0.48205 0.25465 0.98713 0.0
O476 O 0.4829 0.24882 0.03377 0.0
O477 O 0.48498 0.28124 0.03136 0.0
O478 O 0.52345 0.25364 0.03261 0.0
O479 O 0.52118 0.22144 0.02759 0.0
C480 C 0.47655 0.23737 0.98093 0.0
C481 C 0.52923 0.23608 0.03735 0.0
C482 C 0.73765 0.52497 0.04148 0.0
C483 C 0.73534 0.47914 0.97771 0.0
O484 O 0.75483 0.51955 0.03474 0.0
Zn485 Zn 0.76739 0.50086 0.00896 0.0
O486 O 0.72233 0.51823 0.0317 0.0
Zn487 Zn 0.73597 0.50197 0.00993 0.0
O488 O 0.74919 0.4798 0.03094 0.0
O489 O 0.78149 0.48101 0.02616 0.0
O490 O 0.7208 0.48639 0.98842 0.0
O491 O 0.75295 0.48357 0.98373 0.0
O492 O 0.78216 0.51946 0.99079 0.0
O493 O 0.74991 0.52419 0.98948 0.0
C494 C 0.7665 0.47323 0.03549 0.0
C495 C 0.76742 0.52929 0.98368 0.0
H496 H 0.18959 0.28406 0.36782 0.0
H497 H 0.16241 0.28713 0.39455 0.0
H498 H 0.12348 0.2583 0.34716 0.0
H499 H 0.15022 0.25641 0.3197 0.0
H500 H 0.10465 0.28693 0.36526 0.0
H501 H 0.1441 0.23446 0.39463 0.0
H502 H 0.1741 0.21771 0.40846 0.0
H503 H 0.17901 0.2597 0.46254 0.0
H504 H 0.14919 0.27689 0.44883 0.0
H505 H 0.03569 0.24589 0.44507 0.0
H506 H 0.06288 0.25016 0.41832 0.0
H507 H 0.08371 0.30031 0.45629 0.0
H508 H 0.05601 0.2965 0.48289 0.0
H509 H 0.11186 0.26382 0.4445 0.0
H510 H 0.06897 0.31443 0.41362 0.0
H511 H 0.03713 0.32698 0.39937 0.0
H512 H 0.03708 0.28285 0.34728 0.0
H513 H 0.06879 0.26984 0.36145 0.0
C514 C 0.17519 0.27862 0.36288 0.0
C515 C 0.17219 0.26996 0.3415 0.0
C516 C 0.15969 0.28015 0.37837 0.0
C517 C 0.14091 0.27268 0.37307 0.0
C518 C 0.13783 0.26413 0.35172 0.0
C519 C 0.15325 0.26284 0.3361 0.0
C520 C 0.12444 0.27385 0.38966 0.0
C521 C 0.10627 0.28175 0.38253 0.0
C522 C 0.12649 0.26731 0.41234 0.0
C523 C 0.14455 0.25712 0.42052 0.0
C524 C 0.15169 0.24025 0.40934 0.0
C525 C 0.16864 0.23064 0.41718 0.0
C526 C 0.1785 0.23767 0.43632 0.0
C527 C 0.17139 0.2543 0.44768 0.0
C528 C 0.15446 0.26397 0.43989 0.0
C529 C 0.04591 0.25799 0.44757 0.0
C530 C 0.04377 0.27089 0.46602 0.0
C531 C 0.0614 0.2604 0.43229 0.0
C532 C 0.07524 0.27551 0.43541 0.0
C533 C 0.07309 0.28859 0.45365 0.0
C534 C 0.05726 0.28647 0.46871 0.0
C535 C 0.09235 0.27687 0.41999 0.0
C536 C 0.11051 0.26928 0.42731 0.0
C537 C 0.09017 0.28319 0.39736 0.0
C538 C 0.07116 0.29105 0.38874 0.0
C539 C 0.06207 0.30728 0.39927 0.0
C540 C 0.04407 0.31451 0.39117 0.0
C541 C 0.03506 0.30569 0.37246 0.0
C542 C 0.04407 0.28965 0.36178 0.0
C543 C 0.06206 0.28236 0.36983 0.0
H544 H 0.02112 0.3113 0.36621 0.0
H545 H 0.1916 0.2302 0.44238 0.0
H546 H 0.8017 0.16718 0.33479 0.0
H547 H 0.80402 0.14198 0.36435 0.0
H548 H 0.74221 0.12864 0.3558 0.0
H549 H 0.73981 0.15365 0.32611 0.0
H550 H 0.75219 0.13181 0.40006 0.0
H551 H 0.77749 0.09878 0.33375 0.0
H552 H 0.7997 0.0948 0.30104 0.0
H553 H 0.8499 0.09428 0.34544 0.0
H554 H 0.82799 0.09852 0.3784 0.0
H555 H 0.73958 0.04006 0.45085 0.0
H556 H 0.74276 0.06651 0.42326 0.0
H557 H 0.80466 0.07203 0.43923 0.0
H558 H 0.80166 0.04507 0.46685 0.0
H559 H 0.79787 0.07479 0.39382 0.0
H560 H 0.77211 0.10483 0.46062 0.0
H561 H 0.74965 0.10846 0.49317 0.0
H562 H 0.70035 0.11478 0.4481 0.0
H563 H 0.72242 0.1109 0.41526 0.0
C564 C 0.78864 0.15875 0.33905 0.0
C565 C 0.77057 0.16237 0.32803 0.0
C566 C 0.78999 0.14439 0.35599 0.0
C567 C 0.77333 0.13333 0.36214 0.0
C568 C 0.75524 0.13706 0.35135 0.0
C569 C 0.75388 0.15139 0.33443 0.0
C570 C 0.77461 0.11786 0.37984 0.0
C571 C 0.76206 0.11926 0.39862 0.0
C572 C 0.78796 0.10184 0.37829 0.0
C573 C 0.80113 0.09919 0.35851 0.0
C574 C 0.79328 0.09797 0.33652 0.0
C575 C 0.80581 0.09564 0.31794 0.0
C576 C 0.8262 0.09434 0.32115 0.0
C577 C 0.83411 0.09532 0.34297 0.0
C578 C 0.82164 0.09767 0.36161 0.0
C579 C 0.75393 0.04681 0.4485 0.0
C580 C 0.77034 0.04059 0.46122 0.0
C581 C 0.75569 0.062 0.43276 0.0
C582 C 0.77384 0.07154 0.42956 0.0
C583 C 0.79048 0.06494 0.44159 0.0
C584 C 0.78875 0.04956 0.45734 0.0
C585 C 0.77511 0.08851 0.41378 0.0
C586 C 0.78816 0.08745 0.39541 0.0
C587 C 0.76223 0.1049 0.41571 0.0
C588 C 0.74893 0.10745 0.43546 0.0
C589 C 0.75646 0.10687 0.45764 0.0
C590 C 0.74381 0.10898 0.47615 0.0
C591 C 0.7236 0.11181 0.47271 0.0
C592 C 0.716 0.11258 0.45074 0.0
C593 C 0.72858 0.11046 0.43217 0.0
H594 H 0.71384 0.11344 0.48706 0.0
H595 H 0.83588 0.09254 0.30675 0.0
H596 H 0.84589 0.76976 0.30803 0.0
H597 H 0.87416 0.77334 0.33378 0.0
H598 H 0.8351 0.76906 0.39108 0.0
H599 H 0.80683 0.76494 0.36539 0.0
H600 H 0.86687 0.80237 0.38989 0.0
H601 H 0.85628 0.73134 0.38378 0.0
H602 H 0.85199 0.70058 0.36205 0.0
H603 H 0.90833 0.70939 0.33043 0.0
H604 H 0.91281 0.74039 0.35173 0.0
H605 H 0.93638 0.78844 0.47893 0.0
H606 H 0.90826 0.78906 0.45287 0.0
H607 H 0.945 0.76441 0.40027 0.0
H608 H 0.97253 0.76232 0.42701 0.0
H609 H 0.9137 0.74653 0.39817 0.0
H610 H 0.92644 0.8158 0.40271 0.0
H611 H 0.93201 0.84799 0.4211 0.0
H612 H 0.87443 0.8452 0.45121 0.0
H613 H 0.86861 0.81287 0.43322 0.0
C614 C 0.84336 0.7697 0.32612 0.0
C615 C 0.82424 0.76702 0.33477 0.0
C616 C 0.85947 0.77173 0.34077 0.0
C617 C 0.85666 0.7715 0.36428 0.0
C618 C 0.83752 0.76934 0.37297 0.0
C619 C 0.82145 0.76688 0.35833 0.0
C620 C 0.87383 0.77271 0.37978 0.0
C621 C 0.87707 0.79015 0.39197 0.0
C622 C 0.88739 0.75699 0.3818 0.0
C623 C 0.88477 0.73828 0.36914 0.0
C624 C 0.86766 0.72682 0.37202 0.0
C625 C 0.86521 0.70932 0.35982 0.0
C626 C 0.87985 0.70306 0.34481 0.0
C627 C 0.89699 0.71427 0.34203 0.0
C628 C 0.89949 0.73179 0.35417 0.0
C629 C 0.93842 0.78348 0.46167 0.0
C630 C 0.95655 0.77552 0.4548 0.0
C631 C 0.92238 0.78391 0.44669 0.0
C632 C 0.92442 0.77708 0.4243 0.0
C633 C 0.94287 0.76972 0.41737 0.0
C634 C 0.95867 0.76866 0.43257 0.0
C635 C 0.90715 0.7764 0.40852 0.0
C636 C 0.90375 0.75896 0.3962 0.0
C637 C 0.89374 0.79237 0.40598 0.0
C638 C 0.89717 0.81183 0.41678 0.0
C639 C 0.91502 0.82199 0.41337 0.0
C640 C 0.91821 0.84027 0.42371 0.0
C641 C 0.9036 0.84861 0.43736 0.0
C642 C 0.88574 0.83871 0.44065 0.0
C643 C 0.88248 0.82042 0.43037 0.0
H644 H 0.9061 0.86276 0.44535 0.0
H645 H 0.87793 0.68951 0.33539 0.0
H646 H 0.23579 0.81878 0.35287 0.0
H647 H 0.23875 0.84575 0.38024 0.0
H648 H 0.28203 0.87407 0.33775 0.0
H649 H 0.27933 0.84703 0.31044 0.0
H650 H 0.29193 0.87455 0.38415 0.0
H651 H 0.23614 0.89018 0.33584 0.0
H652 H 0.20427 0.88273 0.31754 0.0
H653 H 0.17732 0.87489 0.38265 0.0
H654 H 0.2091 0.8821 0.40132 0.0
H655 H 0.28945 0.96942 0.43644 0.0
H656 H 0.28968 0.94163 0.40987 0.0
H657 H 0.23711 0.91835 0.44136 0.0
H658 H 0.23625 0.94655 0.46686 0.0
H659 H 0.23252 0.91512 0.39964 0.0
H660 H 0.28629 0.89856 0.44895 0.0
H661 H 0.31774 0.90363 0.46917 0.0
H662 H 0.34799 0.91037 0.40584 0.0
H663 H 0.31666 0.90558 0.38524 0.0
C664 C 0.24611 0.83063 0.3495 0.0
C665 C 0.25723 0.83087 0.32944 0.0
C666 C 0.2477 0.84607 0.36508 0.0
C667 C 0.26048 0.86197 0.3609 0.0
C668 C 0.27206 0.86194 0.34125 0.0
C669 C 0.27037 0.84659 0.3256 0.0
C670 C 0.26119 0.87903 0.37656 0.0
C671 C 0.27903 0.8836 0.38742 0.0
C672 C 0.24422 0.89047 0.38118 0.0
C673 C 0.22503 0.88653 0.36996 0.0
C674 C 0.22344 0.88678 0.34624 0.0
C675 C 0.20539 0.88261 0.33581 0.0
C676 C 0.18879 0.8783 0.34892 0.0
C677 C 0.19019 0.87823 0.37251 0.0
C678 C 0.20821 0.88238 0.38303 0.0
C679 C 0.278 0.95831 0.43763 0.0
C680 C 0.26279 0.96017 0.4536 0.0
C681 C 0.27819 0.94236 0.42256 0.0
C682 C 0.26353 0.92766 0.42371 0.0
C683 C 0.24853 0.92947 0.43995 0.0
C684 C 0.24806 0.9456 0.45456 0.0
C685 C 0.26329 0.91068 0.40769 0.0
C686 C 0.2455 0.90614 0.39658 0.0
C687 C 0.28024 0.89904 0.40323 0.0
C688 C 0.2991 0.90192 0.41557 0.0
C689 C 0.29963 0.90127 0.43934 0.0
C690 C 0.31743 0.90407 0.45087 0.0
C691 C 0.33484 0.90738 0.4388 0.0
C692 C 0.33449 0.90784 0.41517 0.0
C693 C 0.31672 0.90507 0.40356 0.0
H694 H 0.34862 0.90954 0.44775 0.0
H695 H 0.17483 0.87505 0.34081 0.0
H696 H 0.15483 0.78727 0.68993 0.0
H697 H 0.12802 0.79173 0.66257 0.0
H698 H 0.1485 0.74086 0.62544 0.0
H699 H 0.17565 0.7368 0.65236 0.0
H700 H 0.13943 0.76803 0.59697 0.0
H701 H 0.10664 0.74033 0.66156 0.0
H702 H 0.09662 0.73809 0.70157 0.0
H703 H 0.0684 0.7947 0.69675 0.0
H704 H 0.07848 0.79739 0.65676 0.0
H705 H 0.05322 0.74136 0.53681 0.0
H706 H 0.08003 0.74284 0.56434 0.0
H707 H 0.06203 0.80151 0.58357 0.0
H708 H 0.03511 0.80027 0.55565 0.0
H709 H 0.06949 0.77394 0.62086 0.0
H710 H 0.10079 0.79907 0.55389 0.0
H711 H 0.10989 0.79872 0.51353 0.0
H712 H 0.14016 0.74361 0.52281 0.0
H713 H 0.13097 0.74347 0.56318 0.0
C714 C 0.1535 0.77699 0.67599 0.0
C715 C 0.16727 0.76165 0.67329 0.0
C716 C 0.13815 0.77951 0.66038 0.0
C717 C 0.13601 0.76648 0.64204 0.0
C718 C 0.14981 0.75116 0.63937 0.0
C719 C 0.16531 0.74882 0.65477 0.0
C720 C 0.11959 0.76883 0.62545 0.0
C721 C 0.12414 0.76913 0.60226 0.0
C722 C 0.0996 0.77074 0.63223 0.0
C723 C 0.09351 0.76916 0.65625 0.0
C724 C 0.09844 0.75237 0.66909 0.0
C725 C 0.09272 0.75101 0.69175 0.0
C726 C 0.08193 0.76627 0.70172 0.0
C727 C 0.07679 0.78291 0.68902 0.0
C728 C 0.08249 0.78435 0.66635 0.0
C729 C 0.05493 0.75462 0.54685 0.0
C730 C 0.04203 0.77072 0.54403 0.0
C731 C 0.07031 0.75545 0.56253 0.0
C732 C 0.07306 0.7723 0.5759 0.0
C733 C 0.06014 0.78838 0.57336 0.0
C734 C 0.04485 0.78768 0.55736 0.0
C735 C 0.08942 0.77283 0.59258 0.0
C736 C 0.08483 0.77305 0.61571 0.0
C737 C 0.10934 0.77106 0.58577 0.0
C738 C 0.11505 0.77119 0.56153 0.0
C739 C 0.10925 0.7868 0.54729 0.0
C740 C 0.11445 0.7867 0.52442 0.0
C741 C 0.12556 0.77113 0.5156 0.0
C742 C 0.13154 0.75565 0.52966 0.0
C743 C 0.12636 0.75567 0.55255 0.0
H744 H 0.12956 0.77108 0.49788 0.0
H745 H 0.07752 0.76519 0.71926 0.0
H746 H 0.2996 0.1661 0.67778 0.0
H747 H 0.3038 0.13897 0.65091 0.0
H748 H 0.24088 0.13733 0.64002 0.0
H749 H 0.23656 0.16471 0.66637 0.0
H750 H 0.25688 0.10041 0.64762 0.0
H751 H 0.27041 0.15799 0.60149 0.0
H752 H 0.28801 0.18867 0.59169 0.0
H753 H 0.34281 0.1569 0.58887 0.0
H754 H 0.32554 0.12605 0.59896 0.0
H755 H 0.23837 0.05055 0.54789 0.0
H756 H 0.24267 0.07546 0.57691 0.0
H757 H 0.3058 0.06756 0.57423 0.0
H758 H 0.30163 0.04245 0.54453 0.0
H759 H 0.2951 0.10687 0.57641 0.0
H760 H 0.28105 0.0485 0.61793 0.0
H761 H 0.26347 0.01771 0.62731 0.0
H762 H 0.21028 0.0505 0.63935 0.0
H763 H 0.22745 0.08147 0.62971 0.0
C764 C 0.28667 0.16014 0.66946 0.0
C765 C 0.26772 0.16761 0.67426 0.0
C766 C 0.2891 0.14458 0.65418 0.0
C767 C 0.27265 0.13618 0.64344 0.0
C768 C 0.25376 0.14354 0.64823 0.0
C769 C 0.25131 0.15914 0.66339 0.0
C770 C 0.27495 0.1196 0.62731 0.0
C771 C 0.26515 0.10185 0.63199 0.0
C772 C 0.28637 0.12125 0.60736 0.0
C773 C 0.29673 0.13977 0.60125 0.0
C774 C 0.28624 0.15758 0.59898 0.0
C775 C 0.29615 0.17499 0.59333 0.0
C776 C 0.31653 0.17475 0.58973 0.0
C777 C 0.32703 0.15707 0.59171 0.0
C778 C 0.31719 0.13962 0.59738 0.0
C779 C 0.25323 0.05399 0.55338 0.0
C780 C 0.26967 0.04434 0.54398 0.0
C781 C 0.25564 0.06824 0.57009 0.0
C782 C 0.27451 0.0731 0.57806 0.0
C783 C 0.29108 0.0639 0.56841 0.0
C784 C 0.28868 0.04956 0.5515 0.0
C785 C 0.27651 0.08788 0.59641 0.0
C786 C 0.28713 0.10528 0.59222 0.0
C787 C 0.26591 0.0859 0.61692 0.0
C788 C 0.25554 0.06731 0.62298 0.0
C789 C 0.26557 0.04914 0.62245 0.0
C790 C 0.25568 0.03165 0.62782 0.0
C791 C 0.23577 0.03214 0.63389 0.0
C792 C 0.22571 0.05014 0.63465 0.0
C793 C 0.23552 0.06767 0.62926 0.0
H794 H 0.22813 0.01859 0.63804 0.0
H795 H 0.32417 0.18824 0.58536 0.0
H796 H 0.82136 0.23244 0.66064 0.0
H797 H 0.85117 0.23293 0.63739 0.0
H798 H 0.85788 0.29524 0.65003 0.0
H799 H 0.82831 0.29484 0.67368 0.0
H800 H 0.86332 0.286 0.60526 0.0
H801 H 0.88674 0.263 0.67732 0.0
H802 H 0.88707 0.2415 0.71099 0.0
H803 H 0.89783 0.19097 0.66897 0.0
H804 H 0.89727 0.21214 0.635 0.0
H805 H 0.96061 0.29368 0.56086 0.0
H806 H 0.93211 0.29487 0.58624 0.0
H807 H 0.92529 0.23178 0.58026 0.0
H808 H 0.95393 0.2304 0.55537 0.0
H809 H 0.92029 0.2425 0.62266 0.0
H810 H 0.89566 0.26446 0.55071 0.0
H811 H 0.8947 0.28523 0.51645 0.0
H812 H 0.88553 0.33677 0.55736 0.0
H813 H 0.88671 0.31632 0.5919 0.0
C814 C 0.82926 0.24622 0.65869 0.0
C815 C 0.82242 0.26359 0.66913 0.0
C816 C 0.84628 0.24649 0.64532 0.0
C817 C 0.85685 0.26409 0.64214 0.0
C818 C 0.84993 0.2815 0.65223 0.0
C819 C 0.83296 0.28124 0.66566 0.0
C820 C 0.87512 0.26434 0.62827 0.0
C821 C 0.87591 0.27671 0.60924 0.0
C822 C 0.89135 0.25189 0.63319 0.0
C823 C 0.89178 0.23914 0.6536 0.0
C824 C 0.88902 0.24728 0.67524 0.0
C825 C 0.88928 0.23516 0.69439 0.0
C826 C 0.89242 0.21487 0.69212 0.0
C827 C 0.89537 0.20668 0.6707 0.0
C828 C 0.8951 0.21874 0.6515 0.0
C829 C 0.9531 0.28005 0.56503 0.0
C830 C 0.95954 0.26196 0.55601 0.0
C831 C 0.93674 0.28076 0.57946 0.0
C832 C 0.92637 0.26344 0.58494 0.0
C833 C 0.93302 0.24534 0.57629 0.0
C834 C 0.94941 0.2446 0.562 0.0
C835 C 0.90849 0.26407 0.59951 0.0
C836 C 0.90776 0.25186 0.6187 0.0
C837 C 0.89225 0.27656 0.59463 0.0
C838 C 0.89149 0.28888 0.5739 0.0
C839 C 0.8936 0.28024 0.55241 0.0
C840 C 0.89298 0.29195 0.53294 0.0
C841 C 0.89011 0.31232 0.53473 0.0
C842 C 0.88779 0.321 0.556 0.0
C843 C 0.88842 0.30935 0.57553 0.0
H844 H 0.88963 0.32136 0.51964 0.0
H845 H 0.89262 0.20551 0.70696 0.0
H846 H 0.7885 0.81641 0.65781 0.0
H847 H 0.79065 0.84412 0.63107 0.0
H848 H 0.74192 0.87267 0.66464 0.0
H849 H 0.73986 0.84518 0.69152 0.0
H850 H 0.73942 0.87111 0.61575 0.0
H851 H 0.78498 0.889 0.67578 0.0
H852 H 0.81363 0.88327 0.70071 0.0
H853 H 0.85144 0.87839 0.64274 0.0
H854 H 0.82294 0.88382 0.61744 0.0
H855 H 0.73958 0.9666 0.57206 0.0
H856 H 0.7409 0.93857 0.59793 0.0
H857 H 0.79775 0.9221 0.57101 0.0
H858 H 0.79685 0.95074 0.54565 0.0
H859 H 0.79758 0.91563 0.61445 0.0
H860 H 0.75438 0.89869 0.55408 0.0
H861 H 0.72672 0.90287 0.52737 0.0
H862 H 0.68571 0.90338 0.58269 0.0
H863 H 0.71316 0.8995 0.60978 0.0
C864 C 0.77821 0.82858 0.65936 0.0
C865 C 0.76404 0.82874 0.67671 0.0
C866 C 0.77951 0.84438 0.64419 0.0
C867 C 0.7665 0.86043 0.646 0.0
C868 C 0.7521 0.86041 0.66303 0.0
C869 C 0.75099 0.84479 0.67838 0.0
C870 C 0.76787 0.87735 0.63025 0.0
C871 C 0.75202 0.88099 0.61558 0.0
C872 C 0.78466 0.88972 0.62952 0.0
C873 C 0.8018 0.88659 0.64472 0.0
C874 C 0.79937 0.88653 0.66835 0.0
C875 C 0.81559 0.88337 0.68254 0.0
C876 C 0.83433 0.88041 0.67331 0.0
C877 C 0.83691 0.88066 0.64986 0.0
C878 C 0.82073 0.88378 0.63559 0.0
C879 C 0.75245 0.95712 0.5718 0.0
C880 C 0.76804 0.96075 0.55671 0.0
C881 C 0.75314 0.94102 0.5865 0.0
C882 C 0.76917 0.92788 0.58599 0.0
C883 C 0.78516 0.93194 0.5716 0.0
C884 C 0.78464 0.9483 0.55713 0.0
C885 C 0.76891 0.90971 0.60012 0.0
C886 C 0.78498 0.90576 0.61445 0.0
C887 C 0.75246 0.89677 0.60022 0.0
C888 C 0.73586 0.89896 0.58398 0.0
C889 C 0.73948 0.89982 0.56057 0.0
C890 C 0.72383 0.90213 0.54535 0.0
C891 C 0.70447 0.90343 0.55333 0.0
C892 C 0.70072 0.90239 0.57654 0.0
C893 C 0.71631 0.90011 0.59183 0.0
H894 H 0.69238 0.90522 0.54152 0.0
H895 H 0.84687 0.87797 0.68433 0.0
H896 H 0.81929 0.72234 0.65243 0.0
H897 H 0.84558 0.71845 0.62453 0.0
H898 H 0.8836 0.75572 0.66439 0.0
H899 H 0.85791 0.75886 0.69307 0.0
H900 H 0.87924 0.76558 0.61576 0.0
H901 H 0.89339 0.7108 0.6664 0.0
H902 H 0.88473 0.68031 0.68692 0.0
H903 H 0.87153 0.65148 0.62404 0.0
H904 H 0.87983 0.68192 0.60316 0.0
H905 H 0.97092 0.75963 0.56541 0.0
H906 H 0.94455 0.75738 0.59328 0.0
H907 H 0.91966 0.7078 0.55741 0.0
H908 H 0.94678 0.7095 0.52982 0.0
H909 H 0.91485 0.70277 0.60146 0.0
H910 H 0.90129 0.75476 0.54999 0.0
H911 H 0.90798 0.78459 0.52736 0.0
H912 H 0.91664 0.81814 0.58816 0.0
H913 H 0.91032 0.78842 0.61117 0.0
C914 C 0.83333 0.72944 0.65557 0.0
C915 C 0.83638 0.74093 0.67515 0.0
C916 C 0.84829 0.72729 0.63948 0.0
C917 C 0.86648 0.73678 0.64247 0.0
C918 C 0.86959 0.74834 0.66179 0.0
C919 C 0.85479 0.75024 0.67808 0.0
C920 C 0.88219 0.73507 0.62521 0.0
C921 C 0.88719 0.75193 0.61277 0.0
C922 C 0.89189 0.71701 0.6207 0.0
C923 C 0.88701 0.6987 0.63325 0.0
C924 C 0.88845 0.69802 0.65697 0.0
C925 C 0.88365 0.68073 0.66866 0.0
C926 C 0.87752 0.66398 0.6568 0.0
C927 C 0.87624 0.66447 0.63321 0.0
C928 C 0.88101 0.68173 0.62144 0.0
C929 C 0.95997 0.74807 0.56362 0.0
C930 C 0.96072 0.73487 0.54535 0.0
C931 C 0.94484 0.74686 0.57949 0.0
C932 C 0.92976 0.73282 0.57706 0.0
C933 C 0.93104 0.71888 0.55951 0.0
C934 C 0.94651 0.71983 0.54379 0.0
C935 C 0.91235 0.73349 0.59233 0.0
C936 C 0.90689 0.71644 0.60431 0.0
C937 C 0.90186 0.75131 0.59607 0.0
C938 C 0.90547 0.76931 0.58231 0.0
C939 C 0.90474 0.76847 0.55854 0.0
C940 C 0.90846 0.78536 0.54564 0.0
C941 C 0.91277 0.80324 0.55632 0.0
C942 C 0.91332 0.80427 0.57992 0.0
C943 C 0.90965 0.78741 0.5929 0.0
H944 H 0.91564 0.8163 0.5463 0.0
H945 H 0.87381 0.65062 0.66588 0.0
H946 H 0.25918 0.82303 0.64903 0.0
H947 H 0.25656 0.85094 0.62307 0.0
H948 H 0.22052 0.88211 0.67123 0.0
H949 H 0.22393 0.85481 0.69799 0.0
H950 H 0.20619 0.8806 0.62284 0.0
H951 H 0.26265 0.89778 0.66891 0.0
H952 H 0.29492 0.89133 0.68679 0.0
H953 H 0.32094 0.88205 0.62146 0.0
H954 H 0.28873 0.88816 0.60321 0.0
H955 H 0.20806 0.97248 0.56264 0.0
H956 H 0.20792 0.94648 0.59157 0.0
H957 H 0.26004 0.92084 0.56156 0.0
H958 H 0.26078 0.94725 0.53362 0.0
H959 H 0.26516 0.92052 0.60347 0.0
H960 H 0.21065 0.90096 0.55657 0.0
H961 H 0.17887 0.90483 0.53667 0.0
H962 H 0.14968 0.91554 0.59992 0.0
H963 H 0.18135 0.91196 0.62018 0.0
C964 C 0.25096 0.8359 0.65439 0.0
C965 C 0.24187 0.83655 0.67582 0.0
C966 C 0.24932 0.85177 0.63937 0.0
C967 C 0.23832 0.86854 0.64524 0.0
C968 C 0.22895 0.86922 0.66634 0.0
C969 C 0.23086 0.85349 0.68157 0.0
C970 C 0.23702 0.88549 0.62943 0.0
C971 C 0.21897 0.88957 0.61878 0.0
C972 C 0.25384 0.89677 0.62378 0.0
C973 C 0.27324 0.89324 0.63472 0.0
C974 C 0.27521 0.89419 0.65837 0.0
C975 C 0.2935 0.89063 0.66857 0.0
C976 C 0.30996 0.88623 0.65528 0.0
C977 C 0.30817 0.88544 0.63174 0.0
C978 C 0.28991 0.88897 0.62146 0.0
C979 C 0.21939 0.96121 0.56223 0.0
C980 C 0.23446 0.96193 0.54594 0.0
C981 C 0.21927 0.94628 0.57869 0.0
C982 C 0.23388 0.93147 0.57873 0.0
C983 C 0.24868 0.93208 0.56212 0.0
C984 C 0.24906 0.94719 0.54607 0.0
C985 C 0.2343 0.91561 0.59629 0.0
C986 C 0.25225 0.91171 0.60742 0.0
C987 C 0.21744 0.90423 0.60199 0.0
C988 C 0.1984 0.90642 0.58986 0.0
C989 C 0.19748 0.90429 0.56622 0.0
C990 C 0.17948 0.90641 0.55488 0.0
C991 C 0.16228 0.91049 0.56702 0.0
C992 C 0.16303 0.91241 0.59054 0.0
C993 C 0.18099 0.91033 0.60196 0.0
H994 H 0.14836 0.91211 0.55821 0.0
H995 H 0.3241 0.88348 0.6632 0.0
H996 H 0.15686 0.25546 0.69299 0.0
H997 H 0.12918 0.25141 0.66691 0.0
H998 H 0.16199 0.20737 0.62997 0.0
H999 H 0.18999 0.21179 0.65579 0.0
H1000 H 0.14397 0.2305 0.60138 0.0
H1001 H 0.12358 0.19485 0.66675 0.0
H1002 H 0.1171 0.18916 0.70727 0.0
H1003 H 0.07447 0.23607 0.70728 0.0
H1004 H 0.0809 0.24224 0.66683 0.0
H1005 H 0.05593 0.20226 0.54075 0.0
H1006 H 0.08385 0.19947 0.56717 0.0
H1007 H 0.06487 0.25257 0.60092 0.0
H1008 H 0.03731 0.25567 0.57445 0.0
H1009 H 0.07605 0.22046 0.63054 0.0
H1010 H 0.09939 0.25728 0.56539 0.0
H1011 H 0.10589 0.26203 0.52472 0.0
H1012 H 0.14302 0.21065 0.52436 0.0
H1013 H 0.13647 0.20542 0.565 0.0
C1014 C 0.15812 0.24483 0.67938 0.0
C1015 C 0.17552 0.23384 0.6765 0.0
C1016 C 0.14227 0.24247 0.66451 0.0
C1017 C 0.1433 0.22878 0.64671 0.0
C1018 C 0.1608 0.21797 0.64361 0.0
C1019 C 0.17678 0.22052 0.65834 0.0
C1020 C 0.12621 0.22603 0.6312 0.0
C1021 C 0.1292 0.22791 0.60778 0.0
C1022 C 0.10683 0.22283 0.63946 0.0
C1023 C 0.10283 0.2191 0.66378 0.0
C1024 C 0.11292 0.20404 0.67543 0.0
C1025 C 0.10924 0.20072 0.69838 0.0
C1026 C 0.09541 0.21227 0.70985 0.0
C1027 C 0.08519 0.22714 0.69838 0.0
C1028 C 0.08883 0.23054 0.67543 0.0
C1029 C 0.05761 0.21318 0.55399 0.0
C1030 C 0.04451 0.22922 0.55552 0.0
C1031 C 0.07357 0.21161 0.56897 0.0
C1032 C 0.07642 0.22588 0.58589 0.0
C1033 C 0.0629 0.24143 0.58798 0.0
C1034 C 0.04721 0.2432 0.5728 0.0
C1035 C 0.09388 0.22522 0.60096 0.0
C1036 C 0.09092 0.22273 0.62424 0.0
C1037 C 0.11326 0.22764 0.59256 0.0
C1038 C 0.11723 0.23081 0.56816 0.0
C1039 C 0.10878 0.24687 0.55659 0.0
C1040 C 0.1125 0.24968 0.53355 0.0
C1041 C 0.12481 0.23661 0.52194 0.0
C1042 C 0.13345 0.22074 0.53337 0.0
C1043 C 0.12974 0.21784 0.5564 0.0
H1044 H 0.1277 0.23882 0.50411 0.0
H1045 H 0.09259 0.20967 0.72762 0.0
H1046 H 0.71312 0.19259 0.64842 0.0
H1047 H 0.71147 0.16391 0.62316 0.0
H1048 H 0.76287 0.13914 0.65561 0.0
H1049 H 0.76453 0.16771 0.68096 0.0
H1050 H 0.76393 0.13817 0.60746 0.0
H1051 H 0.72019 0.12115 0.66902 0.0
H1052 H 0.69201 0.12659 0.69463 0.0
H1053 H 0.65255 0.12836 0.63777 0.0
H1054 H 0.68057 0.12322 0.61178 0.0
H1055 H 0.7646 0.04093 0.56827 0.0
H1056 H 0.76341 0.07003 0.59244 0.0
H1057 H 0.70601 0.08482 0.56561 0.0
H1058 H 0.70681 0.05512 0.54191 0.0
H1059 H 0.70674 0.09244 0.60898 0.0
H1060 H 0.74921 0.10808 0.54717 0.0
H1061 H 0.77692 0.10334 0.52068 0.0
H1062 H 0.81803 0.10574 0.5759 0.0
H1063 H 0.79058 0.11014 0.6028 0.0
C1064 C 0.72413 0.18107 0.65004 0.0
C1065 C 0.73894 0.18234 0.66666 0.0
C1066 C 0.7231 0.16467 0.63571 0.0
C1067 C 0.73698 0.14937 0.63762 0.0
C1068 C 0.752 0.15079 0.6539 0.0
C1069 C 0.75288 0.16704 0.66843 0.0
C1070 C 0.73584 0.1318 0.62272 0.0
C1071 C 0.75154 0.12804 0.60791 0.0
C1072 C 0.71935 0.11901 0.62283 0.0
C1073 C 0.7025 0.12203 0.63844 0.0
C1074 C 0.70553 0.12289 0.66196 0.0
C1075 C 0.68958 0.12587 0.67655 0.0
C1076 C 0.67051 0.12788 0.66783 0.0
C1077 C 0.66734 0.12684 0.6445 0.0
C1078 C 0.68324 0.12388 0.62983 0.0
C1079 C 0.75165 0.05029 0.56761 0.0
C1080 C 0.73586 0.04582 0.55306 0.0
C1081 C 0.75104 0.06702 0.58135 0.0
C1082 C 0.73486 0.07995 0.58043 0.0
C1083 C 0.71873 0.07515 0.56651 0.0
C1084 C 0.71919 0.05817 0.55298 0.0
C1085 C 0.73501 0.09855 0.59383 0.0
C1086 C 0.71911 0.10258 0.60834 0.0
C1087 C 0.75123 0.11177 0.59322 0.0
C1088 C 0.7678 0.10929 0.57703 0.0
C1089 C 0.76414 0.10747 0.55369 0.0
C1090 C 0.7798 0.10485 0.5386 0.0
C1091 C 0.7992 0.10421 0.5466 0.0
C1092 C 0.80299 0.10622 0.56972 0.0
C1093 C 0.78739 0.10879 0.5849 0.0
H1094 H 0.81129 0.10219 0.53489 0.0
H1095 H 0.65818 0.13018 0.67915 0.0
H1096 H 0.82659 0.21781 0.3483 0.0
H1097 H 0.85214 0.21677 0.37741 0.0
H1098 H 0.8919 0.24812 0.33318 0.0
H1099 H 0.86607 0.25017 0.30443 0.0
H1100 H 0.88704 0.20112 0.38066 0.0
H1101 H 0.92142 0.27823 0.36353 0.0
H1102 H 0.91117 0.31096 0.34939 0.0
H1103 H 0.85143 0.29923 0.36948 0.0
H1104 H 0.86136 0.26658 0.384 0.0
H1105 H 0.97599 0.20863 0.44456 0.0
H1106 H 0.95091 0.20762 0.41467 0.0
H1107 H 0.9202 0.25609 0.44646 0.0
H1108 H 0.94586 0.25789 0.47534 0.0
H1109 H 0.92002 0.26283 0.40525 0.0
H1110 H 0.90452 0.20486 0.44831 0.0
H1111 H 0.91093 0.17281 0.46675 0.0
H1112 H 0.92619 0.14741 0.40258 0.0
H1113 H 0.92009 0.17938 0.3838 0.0
C1114 C 0.84069 0.22471 0.34484 0.0
C1115 C 0.84417 0.23431 0.3241 0.0
C1116 C 0.85537 0.22388 0.36142 0.0
C1117 C 0.87388 0.23256 0.35762 0.0
C1118 C 0.87763 0.24159 0.33666 0.0
C1119 C 0.86289 0.24258 0.32013 0.0
C1120 C 0.88905 0.23257 0.3758 0.0
C1121 C 0.89428 0.21461 0.38604 0.0
C1122 C 0.89821 0.2502 0.38319 0.0
C1123 C 0.89212 0.26987 0.3746 0.0
C1124 C 0.90611 0.28266 0.36497 0.0
C1125 C 0.90036 0.3012 0.35689 0.0
C1126 C 0.88065 0.30714 0.35846 0.0
C1127 C 0.86667 0.29458 0.36819 0.0
C1128 C 0.87235 0.27605 0.37632 0.0
C1129 C 0.96381 0.21898 0.44513 0.0
C1130 C 0.96284 0.23336 0.46218 0.0
C1131 C 0.94941 0.21834 0.42813 0.0
C1132 C 0.93344 0.23164 0.42836 0.0
C1133 C 0.93238 0.24575 0.44572 0.0
C1134 C 0.94702 0.24674 0.46229 0.0
C1135 C 0.91807 0.23135 0.41031 0.0
C1136 C 0.91285 0.24929 0.39993 0.0
C1137 C 0.9084 0.2138 0.40345 0.0
C1138 C 0.91204 0.19456 0.41469 0.0
C1139 C 0.90937 0.19247 0.43816 0.0
C1140 C 0.91293 0.17432 0.44867 0.0
C1141 C 0.91902 0.1581 0.43585 0.0
C1142 C 0.9215 0.15999 0.41249 0.0
C1143 C 0.91798 0.17812 0.4019 0.0
H1144 H 0.92176 0.14406 0.44402 0.0
H1145 H 0.87622 0.32149 0.35219 0.0
H1146 H 0.76026 0.8257 0.35661 0.0
H1147 H 0.75666 0.85247 0.38396 0.0
H1148 H 0.7048 0.87311 0.34866 0.0
H1149 H 0.70867 0.84654 0.32089 0.0
H1150 H 0.72626 0.90336 0.36041 0.0
H1151 H 0.70164 0.84719 0.39952 0.0
H1152 H 0.70158 0.8131 0.41416 0.0
H1153 H 0.75297 0.82569 0.4542 0.0
H1154 H 0.75351 0.85978 0.43955 0.0
H1155 H 0.70343 0.96735 0.45496 0.0
H1156 H 0.7001 0.94038 0.42736 0.0
H1157 H 0.75802 0.91915 0.44544 0.0
H1158 H 0.76158 0.94601 0.47259 0.0
H1159 H 0.72857 0.8892 0.44274 0.0
H1160 H 0.75401 0.94484 0.39984 0.0
H1161 H 0.75289 0.97895 0.38529 0.0
H1162 H 0.69744 0.96699 0.35283 0.0
H1163 H 0.6981 0.93286 0.36749 0.0
C1164 C 0.74804 0.8359 0.35475 0.0
C1165 C 0.73467 0.83397 0.33671 0.0
C1166 C 0.74595 0.85117 0.37043 0.0
C1167 C 0.73021 0.8646 0.36868 0.0
C1168 C 0.71702 0.8629 0.35043 0.0
C1169 C 0.71925 0.84774 0.33456 0.0
C1170 C 0.72775 0.88052 0.38579 0.0
C1171 C 0.72638 0.90019 0.3784 0.0
C1172 C 0.72801 0.87649 0.40932 0.0
C1173 C 0.72769 0.85601 0.41829 0.0
C1174 C 0.71301 0.84265 0.41133 0.0
C1175 C 0.71288 0.82333 0.41964 0.0
C1176 C 0.72729 0.81722 0.43506 0.0
C1177 C 0.74183 0.83044 0.44224 0.0
C1178 C 0.74203 0.84977 0.43396 0.0
C1179 C 0.71539 0.95686 0.45308 0.0
C1180 C 0.73281 0.95885 0.46583 0.0
C1181 C 0.71348 0.94153 0.43731 0.0
C1182 C 0.72885 0.92784 0.43436 0.0
C1183 C 0.746 0.92955 0.44749 0.0
C1184 C 0.74803 0.94498 0.46291 0.0
C1185 C 0.7275 0.91189 0.41729 0.0
C1186 C 0.72815 0.89224 0.42472 0.0
C1187 C 0.72634 0.91593 0.39386 0.0
C1188 C 0.72598 0.9364 0.385 0.0
C1189 C 0.74148 0.94955 0.38978 0.0
C1190 C 0.74095 0.96886 0.38148 0.0
C1191 C 0.72507 0.97515 0.3682 0.0
C1192 C 0.70971 0.96211 0.36315 0.0
C1193 C 0.71016 0.94278 0.37145 0.0
H1194 H 0.72469 0.99011 0.36178 0.0
H1195 H 0.72716 0.80226 0.44148 0.0
H1196 H 0.15211 0.77003 0.31024 0.0
H1197 H 0.12484 0.76785 0.33705 0.0
H1198 H 0.15776 0.72611 0.37713 0.0
H1199 H 0.18569 0.72901 0.35122 0.0
H1200 H 0.11552 0.71589 0.36488 0.0
H1201 H 0.15631 0.7667 0.39844 0.0
H1202 H 0.17526 0.79776 0.39767 0.0
H1203 H 0.12296 0.82969 0.37898 0.0
H1204 H 0.10376 0.79874 0.3793 0.0
H1205 H 0.05155 0.71383 0.46044 0.0
H1206 H 0.07946 0.71415 0.4342 0.0
H1207 H 0.05991 0.77032 0.40781 0.0
H1208 H 0.03272 0.77051 0.43487 0.0
H1209 H 0.0966 0.77254 0.41334 0.0
H1210 H 0.05541 0.72387 0.37836 0.0
H1211 H 0.03534 0.69358 0.37604 0.0
H1212 H 0.08598 0.65859 0.3935 0.0
H1213 H 0.10631 0.68871 0.39621 0.0
C1214 C 0.15382 0.76065 0.32494 0.0
C1215 C 0.17128 0.74976 0.32849 0.0
C1216 C 0.13809 0.75928 0.34012 0.0
C1217 C 0.13933 0.7468 0.35898 0.0
C1218 C 0.15652 0.73573 0.36254 0.0
C1219 C 0.17243 0.73735 0.3476 0.0
C1220 C 0.12268 0.7455 0.37507 0.0
C1221 C 0.11146 0.72813 0.37575 0.0
C1222 C 0.11716 0.76172 0.38863 0.0
C1223 C 0.12865 0.78037 0.38866 0.0
C1224 C 0.14889 0.78031 0.39397 0.0
C1225 C 0.15967 0.79791 0.39365 0.0
C1226 C 0.15033 0.81568 0.38821 0.0
C1227 C 0.13018 0.81591 0.38316 0.0
C1228 C 0.11934 0.79835 0.38342 0.0
C1229 C 0.05313 0.72612 0.44884 0.0
C1230 C 0.03998 0.74213 0.44965 0.0
C1231 C 0.06905 0.72627 0.43377 0.0
C1232 C 0.07176 0.74217 0.41875 0.0
C1233 C 0.05827 0.75792 0.41924 0.0
C1234 C 0.04267 0.75799 0.43465 0.0
C1235 C 0.08903 0.74289 0.40318 0.0
C1236 C 0.10049 0.76019 0.40256 0.0
C1237 C 0.09451 0.7267 0.38933 0.0
C1238 C 0.08233 0.70857 0.38771 0.0
C1239 C 0.06223 0.70973 0.38187 0.0
C1240 C 0.05081 0.69259 0.38046 0.0
C1241 C 0.05936 0.67418 0.38468 0.0
C1242 C 0.07937 0.67287 0.39027 0.0
C1243 C 0.09085 0.68996 0.39173 0.0
H1244 H 0.0505 0.66092 0.38358 0.0
H1245 H 0.1587 0.82929 0.38796 0.0
H1246 H 0.21204 0.19189 0.35337 0.0
H1247 H 0.20635 0.16318 0.37774 0.0
H1248 H 0.25742 0.13452 0.34898 0.0
H1249 H 0.26248 0.1628 0.32391 0.0
H1250 H 0.23029 0.10872 0.35318 0.0
H1251 H 0.2564 0.15835 0.40397 0.0
H1252 H 0.25691 0.19105 0.42229 0.0
H1253 H 0.19902 0.18077 0.44934 0.0
H1254 H 0.19811 0.14804 0.43102 0.0
H1255 H 0.25866 0.04174 0.43851 0.0
H1256 H 0.25556 0.06959 0.4126 0.0
H1257 H 0.19778 0.08245 0.4393 0.0
H1258 H 0.20072 0.05427 0.46539 0.0
H1259 H 0.22321 0.11591 0.43629 0.0
H1260 H 0.19978 0.06394 0.38876 0.0
H1261 H 0.20053 0.03116 0.37071 0.0
H1262 H 0.25504 0.04587 0.33778 0.0
H1263 H 0.25477 0.07865 0.3559 0.0
C1264 C 0.22204 0.17944 0.35235 0.0
C1265 C 0.23774 0.17956 0.33683 0.0
C1266 C 0.21884 0.16306 0.36634 0.0
C1267 C 0.23163 0.14671 0.36556 0.0
C1268 C 0.24728 0.14687 0.34995 0.0
C1269 C 0.25022 0.16305 0.33565 0.0
C1270 C 0.22885 0.12937 0.38085 0.0
C1271 C 0.22893 0.11035 0.37137 0.0
C1272 C 0.22642 0.13136 0.40458 0.0
C1273 C 0.22711 0.15085 0.41596 0.0
C1274 C 0.24375 0.1631 0.41376 0.0
C1275 C 0.24412 0.18163 0.42415 0.0
C1276 C 0.22799 0.18801 0.43692 0.0
C1277 C 0.2115 0.17582 0.43942 0.0
C1278 C 0.21106 0.15727 0.42908 0.0
C1279 C 0.24519 0.05036 0.4388 0.0
C1280 C 0.22992 0.04576 0.45402 0.0
C1281 C 0.24343 0.06626 0.42391 0.0
C1282 C 0.22641 0.07805 0.42394 0.0
C1283 C 0.21103 0.0735 0.43899 0.0
C1284 C 0.21268 0.05735 0.45377 0.0
C1285 C 0.22521 0.09541 0.40859 0.0
C1286 C 0.22436 0.11437 0.41807 0.0
C1287 C 0.22715 0.09339 0.38488 0.0
C1288 C 0.22732 0.07372 0.37383 0.0
C1289 C 0.212 0.06014 0.37781 0.0
C1290 C 0.21233 0.04156 0.36754 0.0
C1291 C 0.22784 0.03642 0.35314 0.0
C1292 C 0.24304 0.04987 0.34894 0.0
C1293 C 0.24279 0.06846 0.35919 0.0
H1294 H 0.22807 0.02203 0.34521 0.0
H1295 H 0.22827 0.20237 0.4449 0.0
H1296 H 0.65954 0.741 0.81908 0.0
H1297 H 0.63107 0.7454 0.84356 0.0
H1298 H 0.66434 0.78567 0.8853 0.0
H1299 H 0.69345 0.78012 0.86191 0.0
H1300 H 0.64367 0.76402 0.91133 0.0
H1301 H 0.6281 0.80147 0.8457 0.0
H1302 H 0.62375 0.80842 0.80505 0.0
H1303 H 0.579 0.7637 0.80089 0.0
H1304 H 0.58327 0.75629 0.84146 0.0
H1305 H 0.55409 0.7955 0.96658 0.0
H1306 H 0.5828 0.79795 0.94128 0.0
H1307 H 0.56463 0.74462 0.9074 0.0
H1308 H 0.53635 0.74182 0.93285 0.0
H1309 H 0.57774 0.77741 0.87801 0.0
H1310 H 0.59693 0.739 0.94436 0.0
H1311 H 0.60109 0.73434 0.98547 0.0
H1312 H 0.63923 0.78489 0.98828 0.0
H1313 H 0.63502 0.79003 0.94721 0.0
C1314 C 0.66101 0.75054 0.83367 0.0
C1315 C 0.67893 0.76023 0.83837 0.0
C1316 C 0.64452 0.75333 0.84748 0.0
C1317 C 0.64533 0.76627 0.86602 0.0
C1318 C 0.66324 0.77575 0.87099 0.0
C1319 C 0.67986 0.77271 0.8574 0.0
C1320 C 0.62759 0.76955 0.88043 0.0
C1321 C 0.62936 0.76733 0.90399 0.0
C1322 C 0.60879 0.77379 0.87101 0.0
C1323 C 0.60612 0.77822 0.8466 0.0
C1324 C 0.61742 0.79302 0.83608 0.0
C1325 C 0.61496 0.79706 0.81306 0.0
C1326 C 0.60113 0.78648 0.80038 0.0
C1327 C 0.58971 0.77187 0.81072 0.0
C1328 C 0.59213 0.76776 0.83374 0.0
C1329 C 0.5561 0.7845 0.95351 0.0
C1330 C 0.54307 0.76843 0.95171 0.0
C1331 C 0.57249 0.78587 0.93915 0.0
C1332 C 0.57581 0.77141 0.92256 0.0
C1333 C 0.56229 0.75592 0.92008 0.0
C1334 C 0.5462 0.75431 0.93467 0.0
C1335 C 0.59393 0.77159 0.90859 0.0
C1336 C 0.59218 0.77442 0.88519 0.0
C1337 C 0.61277 0.76827 0.91816 0.0
C1338 C 0.61546 0.76505 0.94278 0.0
C1339 C 0.60605 0.74923 0.95378 0.0
C1340 C 0.60844 0.74648 0.97707 0.0
C1341 C 0.62036 0.75935 0.9895 0.0
C1342 C 0.62996 0.77496 0.97864 0.0
C1343 C 0.62758 0.7778 0.95536 0.0
H1344 H 0.6222 0.7572 0.00752 0.0
H1345 H 0.59925 0.78962 0.78256 0.0
H1346 H 0.26163 0.68865 0.85585 0.0
H1347 H 0.26756 0.66152 0.88258 0.0
H1348 H 0.26463 0.6197 0.82773 0.0
H1349 H 0.25892 0.64678 0.80092 0.0
H1350 H 0.24104 0.61027 0.86731 0.0
H1351 H 0.30756 0.63001 0.84706 0.0
H1352 H 0.33424 0.65449 0.84287 0.0
H1353 H 0.33187 0.66688 0.91403 0.0
H1354 H 0.30496 0.64267 0.9186 0.0
H1355 H 0.26806 0.52465 0.9247 0.0
H1356 H 0.26801 0.55133 0.89675 0.0
H1357 H 0.2889 0.5919 0.94775 0.0
H1358 H 0.29029 0.56474 0.97523 0.0
H1359 H 0.30357 0.60298 0.91034 0.0
H1360 H 0.238 0.58658 0.93254 0.0
H1361 H 0.20927 0.56509 0.93952 0.0
H1362 H 0.20692 0.55018 0.86898 0.0
H1363 H 0.23582 0.57139 0.86162 0.0
C1364 C 0.26219 0.67365 0.84955 0.0
C1365 C 0.25979 0.66978 0.82634 0.0
C1366 C 0.26569 0.65821 0.86478 0.0
C1367 C 0.26663 0.63864 0.85709 0.0
C1368 C 0.26401 0.63472 0.83397 0.0
C1369 C 0.26082 0.65017 0.81869 0.0
C1370 C 0.27001 0.62217 0.87318 0.0
C1371 C 0.2548 0.60847 0.87649 0.0
C1372 C 0.28767 0.62038 0.88581 0.0
C1373 C 0.30413 0.63464 0.88313 0.0
C1374 C 0.31263 0.63805 0.86179 0.0
C1375 C 0.32782 0.65186 0.85935 0.0
C1376 C 0.33472 0.66226 0.87816 0.0
C1377 C 0.3265 0.65882 0.89947 0.0
C1378 C 0.3113 0.64504 0.902 0.0
C1379 C 0.27313 0.53918 0.92968 0.0
C1380 C 0.27928 0.54273 0.95194 0.0
C1381 C 0.27287 0.55449 0.91382 0.0
C1382 C 0.27784 0.57387 0.92024 0.0
C1383 C 0.28489 0.57717 0.94232 0.0
C1384 C 0.28572 0.56168 0.95801 0.0
C1385 C 0.27464 0.59072 0.90436 0.0
C1386 C 0.2898 0.60463 0.90114 0.0
C1387 C 0.25667 0.59308 0.89226 0.0
C1388 C 0.23919 0.58042 0.89657 0.0
C1389 C 0.23143 0.57862 0.91854 0.0
C1390 C 0.21511 0.5665 0.92256 0.0
C1391 C 0.20631 0.55624 0.90471 0.0
C1392 C 0.21377 0.55812 0.88279 0.0
C1393 C 0.23011 0.5702 0.87868 0.0
H1394 H 0.19368 0.54686 0.90786 0.0
H1395 H 0.34649 0.67293 0.87624 0.0
H1396 H 0.32026 0.22023 0.8552 0.0
H1397 H 0.34724 0.21592 0.88227 0.0
H1398 H 0.37754 0.2658 0.85306 0.0
H1399 H 0.35065 0.27009 0.82585 0.0
H1400 H 0.40246 0.23623 0.85948 0.0
H1401 H 0.35319 0.26895 0.90418 0.0
H1402 H 0.32026 0.2738 0.92101 0.0
H1403 H 0.32522 0.21826 0.95561 0.0
H1404 H 0.35809 0.21295 0.93873 0.0
H1405 H 0.46706 0.26398 0.94838 0.0
H1406 H 0.44023 0.26213 0.92082 0.0
H1407 H 0.42346 0.20515 0.94702 0.0
H1408 H 0.45071 0.2067 0.97451 0.0
H1409 H 0.39172 0.23463 0.94247 0.0
H1410 H 0.443 0.204 0.89965 0.0
H1411 H 0.47619 0.20057 0.88307 0.0
H1412 H 0.46761 0.25397 0.84514 0.0
H1413 H 0.43452 0.25796 0.86187 0.0
C1414 C 0.33256 0.23043 0.85473 0.0
C1415 C 0.3333 0.24555 0.83844 0.0
C1416 C 0.34799 0.22792 0.87019 0.0
C1417 C 0.36436 0.24063 0.86983 0.0
C1418 C 0.3651 0.25577 0.85361 0.0
C1419 C 0.34973 0.25821 0.83807 0.0
C1420 C 0.38086 0.23804 0.88613 0.0
C1421 C 0.40011 0.23608 0.87763 0.0
C1422 C 0.37776 0.23729 0.90981 0.0
C1423 C 0.358 0.24045 0.91998 0.0
C1424 C 0.34719 0.25769 0.91522 0.0
C1425 C 0.32855 0.26054 0.9248 0.0
C1426 C 0.32063 0.24632 0.93931 0.0
C1427 C 0.33136 0.22925 0.94433 0.0
C1428 C 0.35 0.22631 0.93477 0.0
C1429 C 0.45776 0.25098 0.9482 0.0
C1430 C 0.46095 0.23548 0.96359 0.0
C1431 C 0.44249 0.24993 0.93241 0.0
C1432 C 0.42994 0.2335 0.9319 0.0
C1433 C 0.43306 0.21793 0.94718 0.0
C1434 C 0.44864 0.21879 0.96275 0.0
C1435 C 0.41322 0.23312 0.91577 0.0
C1436 C 0.39398 0.23457 0.92431 0.0
C1437 C 0.41633 0.23361 0.89213 0.0
C1438 C 0.43633 0.23137 0.88219 0.0
C1439 C 0.44827 0.21515 0.88798 0.0
C1440 C 0.46706 0.21308 0.87852 0.0
C1441 C 0.47402 0.22706 0.8631 0.0
C1442 C 0.46221 0.24316 0.85712 0.0
C1443 C 0.44344 0.24533 0.86659 0.0
H1444 H 0.48855 0.22539 0.85574 0.0
H1445 H 0.3062 0.24856 0.94672 0.0
H1446 H 0.7568 0.36067 0.81161 0.0
H1447 H 0.75453 0.3867 0.84023 0.0
H1448 H 0.70556 0.35653 0.87141 0.0
H1449 H 0.70775 0.3304 0.8428 0.0
H1450 H 0.70033 0.39852 0.86661 0.0
H1451 H 0.74738 0.35171 0.89562 0.0
H1452 H 0.77693 0.33051 0.89387 0.0
H1453 H 0.81335 0.38146 0.88278 0.0
H1454 H 0.78396 0.40294 0.88413 0.0
H1455 H 0.70381 0.45464 0.96975 0.0
H1456 H 0.70129 0.42901 0.9406 0.0
H1457 H 0.75774 0.44691 0.91369 0.0
H1458 H 0.76064 0.47181 0.94322 0.0
H1459 H 0.75763 0.40944 0.91738 0.0
H1460 H 0.71149 0.45645 0.88675 0.0
H1461 H 0.68232 0.47825 0.88705 0.0
H1462 H 0.64477 0.42838 0.89956 0.0
H1463 H 0.67375 0.40631 0.89962 0.0
C1464 C 0.74544 0.35969 0.82444 0.0
C1465 C 0.73251 0.34348 0.82506 0.0
C1466 C 0.74421 0.3745 0.84081 0.0
C1467 C 0.72995 0.37346 0.85798 0.0
C1468 C 0.71667 0.35758 0.8583 0.0
C1469 C 0.71804 0.34263 0.84208 0.0
C1470 C 0.7294 0.38865 0.876 0.0
C1471 C 0.71273 0.40081 0.87794 0.0
C1472 C 0.74573 0.39179 0.89045 0.0
C1473 C 0.76344 0.37891 0.88976 0.0
C1474 C 0.76167 0.35838 0.89262 0.0
C1475 C 0.77839 0.34631 0.89173 0.0
C1476 C 0.797 0.35463 0.88816 0.0
C1477 C 0.79893 0.37504 0.88552 0.0
C1478 C 0.78224 0.38716 0.88636 0.0
C1479 C 0.71553 0.45322 0.95741 0.0
C1480 C 0.73245 0.46515 0.9588 0.0
C1481 C 0.71407 0.43861 0.94071 0.0
C1482 C 0.7293 0.43603 0.92481 0.0
C1483 C 0.74586 0.44845 0.92581 0.0
C1484 C 0.74747 0.46274 0.94268 0.0
C1485 C 0.72869 0.41983 0.9078 0.0
C1486 C 0.74516 0.4073 0.90611 0.0
C1487 C 0.71224 0.41653 0.89346 0.0
C1488 C 0.69481 0.42977 0.89343 0.0
C1489 C 0.69703 0.45016 0.88975 0.0
C1490 C 0.68053 0.46256 0.88981 0.0
C1491 C 0.66171 0.45471 0.89339 0.0
C1492 C 0.65935 0.43444 0.89683 0.0
C1493 C 0.67581 0.42198 0.8968 0.0
H1494 H 0.64896 0.46433 0.89343 0.0
H1495 H 0.80993 0.34527 0.88748 0.0
H1496 H 0.69288 0.20946 0.14802 0.0
H1497 H 0.66367 0.20676 0.12381 0.0
H1498 H 0.63822 0.25763 0.15663 0.0
H1499 H 0.6672 0.2601 0.18114 0.0
H1500 H 0.61126 0.23057 0.15213 0.0
H1501 H 0.65923 0.25965 0.10261 0.0
H1502 H 0.69105 0.26226 0.08263 0.0
H1503 H 0.67989 0.20718 0.04911 0.0
H1504 H 0.64809 0.20411 0.06914 0.0
H1505 H 0.54191 0.26189 0.06944 0.0
H1506 H 0.57036 0.25854 0.09457 0.0
H1507 H 0.58264 0.20105 0.0667 0.0
H1508 H 0.55386 0.20415 0.0416 0.0
H1509 H 0.61588 0.22805 0.06842 0.0
H1510 H 0.56574 0.2014 0.11673 0.0
H1511 H 0.53353 0.201 0.13607 0.0
H1512 H 0.54859 0.25435 0.17123 0.0
H1513 H 0.58081 0.25523 0.15185 0.0
C1514 C 0.68111 0.22016 0.1499 0.0
C1515 C 0.68232 0.23501 0.16643 0.0
C1516 C 0.66442 0.21861 0.13607 0.0
C1517 C 0.64878 0.23211 0.13822 0.0
C1518 C 0.65003 0.24699 0.15469 0.0
C1519 C 0.6666 0.24841 0.16868 0.0
C1520 C 0.63099 0.23068 0.12354 0.0
C1521 C 0.61231 0.2302 0.13382 0.0
C1522 C 0.63229 0.22974 0.09964 0.0
C1523 C 0.65139 0.23154 0.08757 0.0
C1524 C 0.66364 0.24802 0.09112 0.0
C1525 C 0.68165 0.24959 0.07976 0.0
C1526 C 0.68751 0.23486 0.06466 0.0
C1527 C 0.67534 0.21855 0.06085 0.0
C1528 C 0.65732 0.21689 0.07219 0.0
C1529 C 0.55055 0.24845 0.06876 0.0
C1530 C 0.54566 0.23328 0.05354 0.0
C1531 C 0.56676 0.24655 0.08318 0.0
C1532 C 0.57854 0.22954 0.08251 0.0
C1533 C 0.57367 0.21427 0.06746 0.0
C1534 C 0.55721 0.21603 0.05324 0.0
C1535 C 0.5963 0.2282 0.09706 0.0
C1536 C 0.61493 0.2282 0.08674 0.0
C1537 C 0.59496 0.22899 0.1209 0.0
C1538 C 0.57563 0.22846 0.13268 0.0
C1539 C 0.56213 0.21314 0.12844 0.0
C1540 C 0.54388 0.21281 0.13944 0.0
C1541 C 0.539 0.22767 0.15483 0.0
C1542 C 0.55239 0.24286 0.15929 0.0
C1543 C 0.57065 0.24327 0.14832 0.0
H1544 H 0.52486 0.22738 0.16333 0.0
H1545 H 0.70147 0.23612 0.05588 0.0
H1546 H 0.71533 0.68047 0.16543 0.0
H1547 H 0.71291 0.65227 0.13954 0.0
H1548 H 0.76559 0.62722 0.16883 0.0
H1549 H 0.76794 0.65527 0.19498 0.0
H1550 H 0.76429 0.62891 0.11937 0.0
H1551 H 0.72518 0.60759 0.18354 0.0
H1552 H 0.69849 0.61124 0.21155 0.0
H1553 H 0.65568 0.61418 0.15803 0.0
H1554 H 0.68217 0.61084 0.12968 0.0
H1555 H 0.76562 0.53462 0.07259 0.0
H1556 H 0.76471 0.56142 0.10006 0.0
H1557 H 0.70566 0.57635 0.07861 0.0
H1558 H 0.70625 0.549 0.05146 0.0
H1559 H 0.70894 0.58102 0.12298 0.0
H1560 H 0.74561 0.60125 0.05878 0.0
H1561 H 0.77091 0.59838 0.02908 0.0
H1562 H 0.81661 0.6004 0.07941 0.0
H1563 H 0.79153 0.60263 0.10953 0.0
C1564 C 0.72641 0.66895 0.16628 0.0
C1565 C 0.74183 0.67 0.18217 0.0
C1566 C 0.72496 0.65286 0.15159 0.0
C1567 C 0.73905 0.63769 0.15236 0.0
C1568 C 0.75458 0.6388 0.16803 0.0
C1569 C 0.75586 0.65474 0.18298 0.0
C1570 C 0.73764 0.62067 0.13673 0.0
C1571 C 0.75235 0.61827 0.12031 0.0
C1572 C 0.72161 0.60732 0.13745 0.0
C1573 C 0.70568 0.60917 0.15449 0.0
C1574 C 0.71009 0.60919 0.17774 0.0
C1575 C 0.695 0.61117 0.19368 0.0
C1576 C 0.6754 0.613 0.18657 0.0
C1577 C 0.67086 0.61279 0.16351 0.0
C1578 C 0.68591 0.61084 0.1475 0.0
C1579 C 0.75234 0.54347 0.07386 0.0
C1580 C 0.73608 0.53984 0.05969 0.0
C1581 C 0.75187 0.55884 0.08953 0.0
C1582 C 0.7353 0.57122 0.09102 0.0
C1583 C 0.71865 0.56706 0.07766 0.0
C1584 C 0.71901 0.55145 0.06215 0.0
C1585 C 0.73584 0.58895 0.10581 0.0
C1586 C 0.72091 0.59161 0.12198 0.0
C1587 C 0.75147 0.60282 0.10454 0.0
C1588 C 0.76666 0.60192 0.08645 0.0
C1589 C 0.76105 0.60094 0.06355 0.0
C1590 C 0.77535 0.59941 0.04663 0.0
C1591 C 0.79536 0.59921 0.05235 0.0
C1592 C 0.8011 0.60054 0.07501 0.0
C1593 C 0.78684 0.6019 0.09202 0.0
H1594 H 0.80643 0.59805 0.03923 0.0
H1595 H 0.66374 0.61453 0.19894 0.0
H1596 H 0.31026 0.77368 0.13562 0.0
H1597 H 0.33838 0.77656 0.10986 0.0
H1598 H 0.37645 0.75086 0.16046 0.0
H1599 H 0.34851 0.74835 0.18649 0.0
H1600 H 0.39412 0.78203 0.13938 0.0
H1601 H 0.35895 0.72323 0.11878 0.0
H1602 H 0.32957 0.70412 0.10773 0.0
H1603 H 0.32417 0.73845 0.04693 0.0
H1604 H 0.35327 0.75814 0.05794 0.0
H1605 H 0.45509 0.73153 0.04475 0.0
H1606 H 0.42743 0.73297 0.07093 0.0
H1607 H 0.42891 0.79659 0.06879 0.0
H1608 H 0.45692 0.79531 0.04256 0.0
H1609 H 0.39121 0.74745 0.06549 0.0
H1610 H 0.41369 0.81353 0.1214 0.0
H1611 H 0.44387 0.83045 0.13448 0.0
H1612 H 0.47684 0.77669 0.12717 0.0
H1613 H 0.44682 0.75941 0.11435 0.0
C1614 C 0.32466 0.76883 0.14134 0.0
C1615 C 0.32713 0.76066 0.16304 0.0
C1616 C 0.34068 0.7704 0.12657 0.0
C1617 C 0.35947 0.76381 0.1332 0.0
C1618 C 0.36208 0.75604 0.15501 0.0
C1619 C 0.34606 0.75441 0.16976 0.0
C1620 C 0.37628 0.76425 0.11714 0.0
C1621 C 0.39346 0.77458 0.12316 0.0
C1622 C 0.3755 0.75429 0.09613 0.0
C1623 C 0.35816 0.7423 0.08931 0.0
C1624 C 0.35141 0.72682 0.10314 0.0
C1625 C 0.33481 0.71586 0.09687 0.0
C1626 C 0.32499 0.72006 0.07663 0.0
C1627 C 0.33177 0.73523 0.06262 0.0
C1628 C 0.34831 0.74631 0.06888 0.0
C1629 C 0.44964 0.74588 0.04985 0.0
C1630 C 0.45827 0.76332 0.04154 0.0
C1631 C 0.43374 0.74665 0.06478 0.0
C1632 C 0.42611 0.76486 0.07186 0.0
C1633 C 0.43468 0.78236 0.0637 0.0
C1634 C 0.45066 0.78161 0.04869 0.0
C1635 C 0.40909 0.7653 0.08765 0.0
C1636 C 0.39182 0.75513 0.08158 0.0
C1637 C 0.40995 0.77508 0.10878 0.0
C1638 C 0.42806 0.78526 0.11666 0.0
C1639 C 0.42738 0.80532 0.12264 0.0
C1640 C 0.44445 0.81497 0.13001 0.0
C1641 C 0.46228 0.80467 0.13157 0.0
C1642 C 0.46304 0.78468 0.12586 0.0
C1643 C 0.44601 0.77496 0.11851 0.0
H1644 H 0.47548 0.81217 0.13727 0.0
H1645 H 0.31215 0.71156 0.07179 0.0
H1646 H 0.29389 0.35159 0.19489 0.0
H1647 H 0.29834 0.37741 0.1663 0.0
H1648 H 0.24307 0.36084 0.1353 0.0
H1649 H 0.23888 0.33474 0.16345 0.0
H1650 H 0.26879 0.36687 0.10382 0.0
H1651 H 0.24882 0.40296 0.16995 0.0
H1652 H 0.2507 0.4138 0.20971 0.0
H1653 H 0.30867 0.43732 0.19813 0.0
H1654 H 0.30723 0.42639 0.15834 0.0
H1655 H 0.24379 0.45276 0.04274 0.0
H1656 H 0.24545 0.42681 0.07129 0.0
H1657 H 0.30605 0.44193 0.08527 0.0
H1658 H 0.30461 0.46801 0.05636 0.0
H1659 H 0.28144 0.43663 0.12478 0.0
H1660 H 0.29895 0.4025 0.05665 0.0
H1661 H 0.29494 0.39263 0.01677 0.0
H1662 H 0.23897 0.36622 0.0323 0.0
H1663 H 0.2425 0.3762 0.07223 0.0
C1664 C 0.28266 0.35357 0.18203 0.0
C1665 C 0.26602 0.34118 0.18142 0.0
C1666 C 0.28519 0.36834 0.16571 0.0
C1667 C 0.27093 0.37128 0.14873 0.0
C1668 C 0.25433 0.35886 0.14813 0.0
C1669 C 0.25193 0.34395 0.16425 0.0
C1670 C 0.27324 0.38714 0.13144 0.0
C1671 C 0.27138 0.38214 0.10848 0.0
C1672 C 0.27712 0.40705 0.13736 0.0
C1673 C 0.278 0.41366 0.16125 0.0
C1674 C 0.26203 0.41031 0.17593 0.0
C1675 C 0.263 0.41649 0.19846 0.0
C1676 C 0.27982 0.42619 0.20646 0.0
C1677 C 0.29567 0.42977 0.19192 0.0
C1678 C 0.29478 0.4236 0.16938 0.0
C1679 C 0.25751 0.45064 0.05186 0.0
C1680 C 0.2741 0.46247 0.04724 0.0
C1681 C 0.25843 0.43574 0.06813 0.0
C1682 C 0.2759 0.43237 0.08027 0.0
C1683 C 0.29244 0.44429 0.07602 0.0
C1684 C 0.29161 0.45912 0.05947 0.0
C1685 C 0.27664 0.41633 0.09736 0.0
C1686 C 0.27907 0.42131 0.12021 0.0
C1687 C 0.27301 0.39644 0.09138 0.0
C1688 C 0.27093 0.39024 0.06741 0.0
C1689 C 0.28572 0.39472 0.05154 0.0
C1690 C 0.28354 0.38908 0.02892 0.0
C1691 C 0.2667 0.37884 0.022 0.0
C1692 C 0.25201 0.37416 0.03769 0.0
C1693 C 0.2541 0.37979 0.06032 0.0
H1694 H 0.26504 0.3745 0.00448 0.0
H1695 H 0.28055 0.43096 0.22391 0.0
H1696 H 0.35686 0.26422 0.20772 0.0
H1697 H 0.38337 0.26678 0.17983 0.0
H1698 H 0.34031 0.2662 0.12595 0.0
H1699 H 0.31381 0.26304 0.15384 0.0
H1700 H 0.36923 0.2444 0.11417 0.0
H1701 H 0.36455 0.3095 0.14331 0.0
H1702 H 0.36309 0.3355 0.17242 0.0
H1703 H 0.42136 0.32007 0.19496 0.0
H1704 H 0.42306 0.29378 0.16619 0.0
H1705 H 0.45553 0.29865 0.05181 0.0
H1706 H 0.42749 0.30005 0.07797 0.0
H1707 H 0.43604 0.23857 0.09435 0.0
H1708 H 0.46357 0.23694 0.06796 0.0
H1709 H 0.42214 0.29462 0.12167 0.0
H1710 H 0.39288 0.21566 0.10163 0.0
H1711 H 0.39201 0.19254 0.06941 0.0
H1712 H 0.39712 0.24105 0.023 0.0
H1713 H 0.39772 0.26447 0.0549 0.0
C1714 C 0.35308 0.26468 0.18991 0.0
C1715 C 0.33329 0.26345 0.18293 0.0
C1716 C 0.36823 0.26624 0.17398 0.0
C1717 C 0.36387 0.26705 0.15074 0.0
C1718 C 0.34408 0.26563 0.14375 0.0
C1719 C 0.32895 0.26378 0.15968 0.0
C1720 C 0.37996 0.26898 0.13375 0.0
C1721 C 0.38075 0.25542 0.11583 0.0
C1722 C 0.39477 0.2837 0.13543 0.0
C1723 C 0.39386 0.29956 0.1527 0.0
C1724 C 0.377 0.31157 0.15457 0.0
C1725 C 0.37613 0.32637 0.171 0.0
C1726 C 0.3921 0.32941 0.18556 0.0
C1727 C 0.40899 0.31768 0.18368 0.0
C1728 C 0.40992 0.30284 0.1673 0.0
C1729 C 0.45149 0.28548 0.06111 0.0
C1730 C 0.46165 0.26763 0.05762 0.0
C1731 C 0.43548 0.2863 0.07606 0.0
C1732 C 0.42939 0.26931 0.08779 0.0
C1733 C 0.44012 0.25175 0.08508 0.0
C1734 C 0.45594 0.25087 0.07003 0.0
C1735 C 0.41164 0.26968 0.10257 0.0
C1736 C 0.41055 0.28367 0.12002 0.0
C1737 C 0.39618 0.25578 0.10002 0.0
C1738 C 0.39552 0.2418 0.08069 0.0
C1739 C 0.39372 0.2214 0.08455 0.0
C1740 C 0.39329 0.20824 0.06634 0.0
C1741 C 0.39456 0.21532 0.04418 0.0
C1742 C 0.3962 0.23558 0.04017 0.0
C1743 C 0.3966 0.2488 0.05832 0.0
H1744 H 0.39425 0.20511 0.03011 0.0
H1745 H 0.3914 0.34088 0.19827 0.0
H1746 H 0.78539 0.30519 0.13759 0.0
H1747 H 0.78742 0.33447 0.11355 0.0
H1748 H 0.7484 0.36564 0.15857 0.0
H1749 H 0.74721 0.33701 0.18357 0.0
H1750 H 0.73943 0.36551 0.1077 0.0
H1751 H 0.7903 0.37875 0.16393 0.0
H1752 H 0.82035 0.37034 0.18544 0.0
H1753 H 0.85307 0.36548 0.12353 0.0
H1754 H 0.8231 0.37357 0.10162 0.0
H1755 H 0.74138 0.46257 0.06904 0.0
H1756 H 0.74296 0.43331 0.09298 0.0
H1757 H 0.79722 0.41578 0.06047 0.0
H1758 H 0.79614 0.44571 0.0371 0.0
H1759 H 0.79957 0.40715 0.10308 0.0
H1760 H 0.7515 0.39488 0.04624 0.0
H1761 H 0.72234 0.4014 0.02239 0.0
H1762 H 0.68531 0.4015 0.08129 0.0
H1763 H 0.7143 0.39526 0.10555 0.0
C1764 C 0.77747 0.31832 0.14268 0.0
C1765 C 0.76615 0.3186 0.16268 0.0
C1766 C 0.77854 0.33499 0.12877 0.0
C1767 C 0.76807 0.35214 0.13436 0.0
C1768 C 0.75651 0.35246 0.15398 0.0
C1769 C 0.75573 0.33596 0.16814 0.0
C1770 C 0.76908 0.36978 0.1197 0.0
C1771 C 0.75246 0.37478 0.10682 0.0
C1772 C 0.7864 0.3813 0.11797 0.0
C1773 C 0.80441 0.37652 0.13114 0.0
C1774 C 0.80385 0.37568 0.15489 0.0
C1775 C 0.82088 0.37102 0.16716 0.0
C1776 C 0.8386 0.36731 0.15586 0.0
C1777 C 0.83933 0.36831 0.13226 0.0
C1778 C 0.82233 0.37295 0.11991 0.0
C1779 C 0.75373 0.45256 0.0671 0.0
C1780 C 0.76855 0.4563 0.05107 0.0
C1781 C 0.75456 0.43576 0.08071 0.0
C1782 C 0.7699 0.422 0.07811 0.0
C1783 C 0.78515 0.42608 0.06268 0.0
C1784 C 0.78453 0.44317 0.04934 0.0
C1785 C 0.76969 0.40327 0.09124 0.0
C1786 C 0.78649 0.39793 0.10378 0.0
C1787 C 0.75264 0.39115 0.09227 0.0
C1788 C 0.73512 0.39476 0.07773 0.0
C1789 C 0.73716 0.39642 0.05413 0.0
C1790 C 0.72066 0.40005 0.04053 0.0
C1791 C 0.70199 0.4019 0.05032 0.0
C1792 C 0.69978 0.40007 0.07373 0.0
C1793 C 0.71624 0.39647 0.08741 0.0
H1794 H 0.68923 0.40472 0.03977 0.0
H1795 H 0.85177 0.36371 0.16539 0.0
H1796 H 0.68442 0.74353 0.14844 0.0
H1797 H 0.6588 0.73907 0.11968 0.0
H1798 H 0.61603 0.72745 0.17208 0.0
H1799 H 0.64183 0.73125 0.20083 0.0
H1800 H 0.60882 0.70421 0.13806 0.0
H1801 H 0.62072 0.77371 0.14596 0.0
H1802 H 0.64071 0.80413 0.14667 0.0
H1803 H 0.65771 0.79456 0.07759 0.0
H1804 H 0.63803 0.76393 0.07657 0.0
H1805 H 0.5357 0.76065 0.05839 0.0
H1806 H 0.56143 0.75913 0.08704 0.0
H1807 H 0.57826 0.70123 0.06353 0.0
H1808 H 0.55188 0.70245 0.03502 0.0
H1809 H 0.59891 0.75835 0.08268 0.0
H1810 H 0.60032 0.67575 0.10736 0.0
H1811 H 0.57755 0.64741 0.10989 0.0
H1812 H 0.52867 0.68691 0.11924 0.0
H1813 H 0.55116 0.71546 0.11706 0.0
C1814 C 0.66954 0.73998 0.15378 0.0
C1815 C 0.66504 0.73793 0.17686 0.0
C1816 C 0.6549 0.73745 0.13735 0.0
C1817 C 0.63535 0.73328 0.14369 0.0
C1818 C 0.63097 0.73066 0.16673 0.0
C1819 C 0.6457 0.73288 0.18316 0.0
C1820 C 0.61933 0.73246 0.12643 0.0
C1821 C 0.60669 0.71602 0.1259 0.0
C1822 C 0.61628 0.74799 0.11074 0.0
C1823 C 0.62808 0.76643 0.11128 0.0
C1824 C 0.62884 0.77802 0.13098 0.0
C1825 C 0.64009 0.79531 0.13143 0.0
C1826 C 0.65052 0.80124 0.11221 0.0
C1827 C 0.64966 0.78993 0.09248 0.0
C1828 C 0.63845 0.77261 0.09195 0.0
C1829 C 0.54476 0.74749 0.05937 0.0
C1830 C 0.54178 0.73167 0.04436 0.0
C1831 C 0.55954 0.74667 0.07577 0.0
C1832 C 0.57187 0.73009 0.07752 0.0
C1833 C 0.56879 0.7141 0.06275 0.0
C1834 C 0.55374 0.71481 0.04643 0.0
C1835 C 0.58826 0.73015 0.09434 0.0
C1836 C 0.60108 0.74644 0.09472 0.0
C1837 C 0.59105 0.71478 0.11029 0.0
C1838 C 0.5774 0.69773 0.11176 0.0
C1839 C 0.58472 0.67837 0.11 0.0
C1840 C 0.57186 0.66228 0.11137 0.0
C1841 C 0.55167 0.66536 0.11463 0.0
C1842 C 0.5443 0.68454 0.11662 0.0
C1843 C 0.55709 0.70069 0.11528 0.0
H1844 H 0.54174 0.65288 0.11568 0.0
H1845 H 0.65922 0.81463 0.11259 0.0
H1846 H 0.26967 0.66183 0.17313 0.0
H1847 H 0.26658 0.635 0.14566 0.0
H1848 H 0.21386 0.66184 0.11863 0.0
H1849 H 0.21686 0.68879 0.14617 0.0
H1850 H 0.21044 0.62055 0.1264 0.0
H1851 H 0.25382 0.66604 0.08922 0.0
H1852 H 0.28277 0.68779 0.0851 0.0
H1853 H 0.32144 0.63844 0.0959 0.0
H1854 H 0.29272 0.61644 0.10047 0.0
H1855 H 0.2108 0.554 0.03063 0.0
H1856 H 0.20841 0.58279 0.05572 0.0
H1857 H 0.26605 0.56947 0.0829 0.0
H1858 H 0.2687 0.54127 0.05768 0.0
H1859 H 0.26439 0.60657 0.0721 0.0
H1860 H 0.22221 0.56164 0.11287 0.0
H1861 H 0.19393 0.53914 0.11783 0.0
H1862 H 0.15389 0.58622 0.1016 0.0
H1863 H 0.18196 0.60895 0.09625 0.0
C1864 C 0.25739 0.66198 0.16137 0.0
C1865 C 0.24352 0.6774 0.16175 0.0
C1866 C 0.2557 0.64671 0.14563 0.0
C1867 C 0.24005 0.64651 0.13005 0.0
C1868 C 0.22605 0.66177 0.1305 0.0
C1869 C 0.22787 0.67719 0.1461 0.0
C1870 C 0.23845 0.63028 0.11334 0.0
C1871 C 0.22206 0.61763 0.11424 0.0
C1872 C 0.25379 0.62634 0.09779 0.0
C1873 C 0.27109 0.63961 0.09535 0.0
C1874 C 0.26849 0.65986 0.09095 0.0
C1875 C 0.28486 0.67222 0.08849 0.0
C1876 C 0.30393 0.66449 0.09024 0.0
C1877 C 0.30666 0.6444 0.09454 0.0
C1878 C 0.29034 0.63198 0.09705 0.0
C1879 C 0.22282 0.55713 0.04217 0.0
C1880 C 0.23998 0.54546 0.04206 0.0
C1881 C 0.22144 0.57356 0.05652 0.0
C1882 C 0.23708 0.57834 0.07121 0.0
C1883 C 0.25388 0.56623 0.07159 0.0
C1884 C 0.25534 0.55005 0.05717 0.0
C1885 C 0.23665 0.59637 0.08555 0.0
C1886 C 0.25266 0.60948 0.08412 0.0
C1887 C 0.22107 0.60057 0.10074 0.0
C1888 C 0.20419 0.58692 0.10389 0.0
C1889 C 0.20738 0.56715 0.11016 0.0
C1890 C 0.19139 0.55436 0.11308 0.0
C1891 C 0.17213 0.56123 0.10996 0.0
C1892 C 0.16882 0.58091 0.10396 0.0
C1893 C 0.18476 0.59375 0.101 0.0
H1894 H 0.15977 0.55131 0.11224 0.0
H1895 H 0.31659 0.67403 0.08818 0.0
H1896 H 0.31697 0.71614 0.84545 0.0
H1897 H 0.34451 0.71104 0.87159 0.0
H1898 H 0.38108 0.74914 0.83089 0.0
H1899 H 0.35356 0.7545 0.8048 0.0
H1900 H 0.4018 0.71711 0.84607 0.0
H1901 H 0.3584 0.76696 0.87749 0.0
H1902 H 0.32634 0.77969 0.89081 0.0
H1903 H 0.32322 0.73325 0.94017 0.0
H1904 H 0.35517 0.72011 0.92693 0.0
H1905 H 0.45282 0.76273 0.94994 0.0
H1906 H 0.42595 0.75994 0.92281 0.0
H1907 H 0.43679 0.69745 0.91672 0.0
H1908 H 0.46396 0.70009 0.94416 0.0
H1909 H 0.39191 0.73859 0.92548 0.0
H1910 H 0.42522 0.68578 0.8599 0.0
H1911 H 0.45785 0.67521 0.84584 0.0
H1912 H 0.48237 0.73147 0.86393 0.0
H1913 H 0.44985 0.74244 0.87781 0.0
C1914 C 0.33086 0.72347 0.84207 0.0
C1915 C 0.33298 0.73593 0.82315 0.0
C1916 C 0.34663 0.72042 0.85695 0.0
C1917 C 0.36481 0.72983 0.85331 0.0
C1918 C 0.36721 0.74167 0.834 0.0
C1919 C 0.35145 0.74472 0.81909 0.0
C1920 C 0.38094 0.72844 0.87029 0.0
C1921 C 0.3996 0.72164 0.86348 0.0
C1922 C 0.37815 0.73446 0.89299 0.0
C1923 C 0.35905 0.74245 0.90109 0.0
C1924 C 0.35081 0.7594 0.89109 0.0
C1925 C 0.33267 0.7667 0.89864 0.0
C1926 C 0.32273 0.75726 0.91629 0.0
C1927 C 0.33093 0.74053 0.92648 0.0
C1928 C 0.34905 0.73316 0.91897 0.0
C1929 C 0.44961 0.74835 0.94285 0.0
C1930 C 0.46061 0.73162 0.94924 0.0
C1931 C 0.43414 0.74679 0.92739 0.0
C1932 C 0.42935 0.72851 0.91773 0.0
C1933 C 0.44031 0.71173 0.9239 0.0
C1934 C 0.4558 0.71325 0.93959 0.0
C1935 C 0.41282 0.72736 0.90126 0.0
C1936 C 0.39404 0.73369 0.90818 0.0
C1937 C 0.4156 0.72113 0.87865 0.0
C1938 C 0.43517 0.71481 0.87014 0.0
C1939 C 0.43758 0.69589 0.86082 0.0
C1940 C 0.45605 0.68983 0.85288 0.0
C1941 C 0.47219 0.70263 0.85407 0.0
C1942 C 0.46988 0.72154 0.86312 0.0
C1943 C 0.45144 0.72767 0.87105 0.0
H1944 H 0.48647 0.69791 0.84794 0.0
H1945 H 0.30869 0.76293 0.92211 0.0
H1946 H 0.27804 0.32635 0.84467 0.0
H1947 H 0.27514 0.35432 0.87038 0.0
H1948 H 0.21254 0.35717 0.85736 0.0
H1949 H 0.21548 0.32974 0.8307 0.0
H1950 H 0.22771 0.39309 0.85721 0.0
H1951 H 0.23103 0.33783 0.9072 0.0
H1952 H 0.24449 0.30693 0.92299 0.0
H1953 H 0.29855 0.33657 0.93981 0.0
H1954 H 0.28553 0.3676 0.92382 0.0
H1955 H 0.2126 0.46026 0.95001 0.0
H1956 H 0.21076 0.43148 0.92494 0.0
H1957 H 0.27399 0.42487 0.92873 0.0
H1958 H 0.27598 0.45337 0.95372 0.0
H1959 H 0.25523 0.38994 0.93493 0.0
H1960 H 0.25234 0.44453 0.88233 0.0
H1961 H 0.2386 0.47536 0.86663 0.0
H1962 H 0.18298 0.44661 0.85535 0.0
H1963 H 0.19632 0.41567 0.87128 0.0
C1964 C 0.26367 0.33301 0.84707 0.0
C1965 C 0.24699 0.32574 0.83558 0.0
C1966 C 0.26198 0.34888 0.86203 0.0
C1967 C 0.24356 0.35769 0.8661 0.0
C1968 C 0.22689 0.35056 0.85459 0.0
C1969 C 0.22858 0.33474 0.83951 0.0
C1970 C 0.24183 0.37456 0.88207 0.0
C1971 C 0.23342 0.39228 0.87434 0.0
C1972 C 0.2495 0.37363 0.90435 0.0
C1973 C 0.25735 0.35501 0.91413 0.0
C1974 C 0.24584 0.33773 0.91412 0.0
C1975 C 0.25339 0.32019 0.92313 0.0
C1976 C 0.27238 0.31977 0.93235 0.0
C1977 C 0.28385 0.33691 0.93264 0.0
C1978 C 0.27638 0.35448 0.92363 0.0
C1979 C 0.22611 0.45272 0.94542 0.0
C1980 C 0.24444 0.45916 0.95386 0.0
C1981 C 0.22504 0.4363 0.93107 0.0
C1982 C 0.24226 0.42606 0.92491 0.0
C1983 C 0.26052 0.4325 0.9333 0.0
C1984 C 0.26162 0.44888 0.94753 0.0
C1985 C 0.24146 0.40851 0.9099 0.0
C1986 C 0.24936 0.39066 0.91786 0.0
C1987 C 0.23325 0.4093 0.8879 0.0
C1988 C 0.22525 0.42786 0.87824 0.0
C1989 C 0.23713 0.44483 0.87668 0.0
C1990 C 0.22942 0.46232 0.8677 0.0
C1991 C 0.20991 0.46296 0.86006 0.0
C1992 C 0.19808 0.4461 0.86131 0.0
C1993 C 0.2057 0.42859 0.8703 0.0
H1994 H 0.20397 0.47651 0.85312 0.0
H1995 H 0.27821 0.30618 0.9393 0.0
H1996 H 0.66495 0.30197 0.83155 0.0
H1997 H 0.6391 0.30518 0.86019 0.0
H1998 H 0.62163 0.24482 0.84851 0.0
H1999 H 0.64711 0.24166 0.81945 0.0
H2000 H 0.58986 0.26925 0.85152 0.0
H2001 H 0.64976 0.25714 0.89395 0.0
H2002 H 0.68408 0.2639 0.90553 0.0
H2003 H 0.66713 0.32153 0.92863 0.0
H2004 H 0.63273 0.3152 0.91691 0.0
H2005 H 0.53932 0.24106 0.94963 0.0
H2006 H 0.56328 0.24526 0.91934 0.0
H2007 H 0.57111 0.30626 0.93809 0.0
H2008 H 0.54689 0.3022 0.96867 0.0
H2009 H 0.60684 0.28615 0.93087 0.0
H2010 H 0.54666 0.29753 0.8919 0.0
H2011 H 0.51228 0.29143 0.88017 0.0
H2012 H 0.52944 0.23627 0.85038 0.0
H2013 H 0.56393 0.24191 0.86221 0.0
C2014 C 0.65546 0.28945 0.83491 0.0
C2015 C 0.65809 0.27154 0.82325 0.0
C2016 C 0.64081 0.29126 0.85142 0.0
C2017 C 0.62855 0.27518 0.85663 0.0
C2018 C 0.63095 0.2574 0.84478 0.0
C2019 C 0.64562 0.25556 0.82832 0.0
C2020 C 0.61332 0.27674 0.87457 0.0
C2021 C 0.5936 0.27278 0.8689 0.0
C2022 C 0.6181 0.28204 0.8971 0.0
C2023 C 0.63873 0.28578 0.90433 0.0
C2024 C 0.65338 0.27131 0.90134 0.0
C2025 C 0.67284 0.27505 0.90796 0.0
C2026 C 0.67779 0.29315 0.91775 0.0
C2027 C 0.66327 0.30753 0.92101 0.0
C2028 C 0.64379 0.30387 0.9144 0.0
C2029 C 0.54607 0.25542 0.94737 0.0
C2030 C 0.54117 0.27132 0.96158 0.0
C2031 C 0.55972 0.2578 0.92995 0.0
C2032 C 0.56884 0.27611 0.92635 0.0
C2033 C 0.56416 0.29203 0.94057 0.0
C2034 C 0.55029 0.2897 0.95796 0.0
C2035 C 0.58348 0.27823 0.90788 0.0
C2036 C 0.60307 0.28286 0.91343 0.0
C2037 C 0.57859 0.27364 0.88521 0.0
C2038 C 0.55787 0.27009 0.87809 0.0
C2039 C 0.54309 0.28402 0.88302 0.0
C2040 C 0.52359 0.28066 0.87632 0.0
C2041 C 0.51869 0.26348 0.86455 0.0
C2042 C 0.53328 0.24959 0.85948 0.0
C2043 C 0.55281 0.25287 0.86616 0.0
H2044 H 0.50361 0.26098 0.8593 0.0
H2045 H 0.69286 0.29603 0.92285 0.0
H2046 H 0.78833 0.65967 0.82546 0.0
H2047 H 0.79242 0.63311 0.85308 0.0
H2048 H 0.74623 0.65845 0.89407 0.0
H2049 H 0.74244 0.68535 0.86667 0.0
H2050 H 0.775 0.64625 0.92019 0.0
H2051 H 0.73832 0.61787 0.85888 0.0
H2052 H 0.73147 0.60887 0.81923 0.0
H2053 H 0.78456 0.57428 0.81721 0.0
H2054 H 0.79186 0.5833 0.85678 0.0
H2055 H 0.74273 0.56063 0.97956 0.0
H2056 H 0.74596 0.58898 0.95425 0.0
H2057 H 0.80093 0.56572 0.92899 0.0
H2058 H 0.79802 0.53737 0.95479 0.0
H2059 H 0.77092 0.57649 0.89511 0.0
H2060 H 0.80548 0.60354 0.95863 0.0
H2061 H 0.81083 0.61277 0.99849 0.0
H2062 H 0.75914 0.64942 0.99678 0.0
H2063 H 0.75335 0.64024 0.95694 0.0
C2064 C 0.77902 0.65953 0.84034 0.0
C2065 C 0.76494 0.67446 0.84385 0.0
C2066 C 0.78135 0.64434 0.85611 0.0
C2067 C 0.7694 0.64357 0.87548 0.0
C2068 C 0.75561 0.65871 0.87924 0.0
C2069 C 0.75344 0.67406 0.8636 0.0
C2070 C 0.77108 0.62685 0.89166 0.0
C2071 C 0.77391 0.63101 0.91471 0.0
C2072 C 0.77011 0.60692 0.88449 0.0
C2073 C 0.76574 0.60144 0.86071 0.0
C2074 C 0.74861 0.60848 0.84992 0.0
C2075 C 0.74464 0.60335 0.82747 0.0
C2076 C 0.7576 0.59106 0.81568 0.0
C2077 C 0.77455 0.58383 0.82635 0.0
C2078 C 0.7786 0.58893 0.84879 0.0
C2079 C 0.75559 0.5616 0.96873 0.0
C2080 C 0.7701 0.54676 0.96904 0.0
C2081 C 0.75745 0.57784 0.95438 0.0
C2082 C 0.7737 0.57943 0.93985 0.0
C2083 C 0.78831 0.56474 0.94018 0.0
C2084 C 0.78666 0.54862 0.95491 0.0
C2085 C 0.77466 0.59596 0.92353 0.0
C2086 C 0.77222 0.59175 0.90049 0.0
C2087 C 0.77569 0.61582 0.93074 0.0
C2088 C 0.7789 0.62107 0.95484 0.0
C2089 C 0.79513 0.6134 0.96681 0.0
C2090 C 0.79828 0.61869 0.98939 0.0
C2091 C 0.78534 0.63169 1.00015 0.0
C2092 C 0.76917 0.63938 0.9884 0.0
C2093 C 0.76596 0.63416 0.96581 0.0
H2094 H 0.78785 0.63581 0.01761 0.0
H2095 H 0.7545 0.5871 0.79831 0.0
loop_
_geom_bond_atom_site_label_1
_geom_bond_atom_site_label_2
_geom_bond_distance
_geom_bond_site_symmetry_2
_ccdc_geom_bond_type
H0 C19 0.949 . S
H1 C20 0.950 . S
H2 C22 0.950 . S
H3 C23 0.950 . S
H4 C25 0.950 . S
H5 C28 0.950 . S
H6 C29 0.950 . S
H7 C31 0.951 . S
H8 C32 0.949 . S
H9 C34 0.949 . S
H10 C35 0.950 . S
H11 C37 0.950 . S
H12 C38 0.950 . S
H13 C40 0.950 . S
H14 C43 0.950 . S
H15 C44 0.950 . S
H16 C46 0.951 . S
H17 C47 0.949 . S
C18 C19 1.376 . S
C18 C23 1.386 . S
C18 C24 1.483 . S
C19 H0 0.949 . S
C19 C18 1.376 . S
C19 C20 1.397 . S
C20 H1 0.950 . S
C20 C19 1.397 . S
C20 C21 1.391 . S
C21 C20 1.391 . S
C21 C22 1.405 . S
C22 H2 0.950 . S
C22 C21 1.405 . S
C22 C23 1.367 . S
C23 H3 0.950 . S
C23 C18 1.386 . S
C23 C22 1.367 . S
C24 C18 1.483 . S
C24 C25 1.382 . S
C24 C26 1.403 . S
C25 H4 0.950 . S
C25 C24 1.382 . S
C25 C41 1.411 . S
C26 C24 1.403 . S
C26 C27 1.489 . S
C26 C40 1.411 . S
C27 C26 1.489 . S
C27 C28 1.383 . S
C27 C32 1.382 . S
C28 H5 0.950 . S
C28 C27 1.383 . S
C28 C29 1.395 . S
C29 H6 0.950 . S
C29 C28 1.395 . S
C29 C30 1.288 . S
C30 C29 1.288 . S
C30 C31 1.392 . S
C31 H7 0.951 . S
C31 C30 1.392 . S
C31 C32 1.392 . S
C32 H8 0.949 . S
C32 C27 1.382 . S
C32 C31 1.392 . S
C33 C34 1.376 . S
C33 C38 1.386 . S
C33 C39 1.483 . S
C34 H9 0.949 . S
C34 C33 1.376 . S
C34 C35 1.397 . S
C35 H10 0.950 . S
C35 C34 1.397 . S
C35 C36 1.391 . S
C36 C35 1.391 . S
C36 C37 1.405 . S
C37 H11 0.950 . S
C37 C36 1.405 . S
C37 C38 1.367 . S
C38 H12 0.950 . S
C38 C33 1.386 . S
C38 C37 1.367 . S
C39 C33 1.483 . S
C39 C40 1.382 . S
C39 C41 1.403 . S
C40 H13 0.950 . S
C40 C26 1.411 . S
C40 C39 1.382 . S
C41 C25 1.411 . S
C41 C39 1.403 . S
C41 C42 1.489 . S
C42 C41 1.489 . S
C42 C43 1.383 . S
C42 C47 1.382 . S
C43 H14 0.950 . S
C43 C42 1.383 . S
C43 C44 1.395 . S
C44 H15 0.950 . S
C44 C43 1.395 . S
C44 C45 1.288 . S
C45 C44 1.288 . S
C45 C46 1.392 . S
C46 H16 0.951 . S
C46 C45 1.392 . S
C46 C47 1.392 . S
C47 H17 0.949 . S
C47 C42 1.382 . S
C47 C46 1.392 . S
H48 C67 0.949 . S
H49 C68 0.950 . S
H50 C70 0.950 . S
H51 C71 0.950 . S
H52 C73 0.950 . S
H53 C76 0.950 . S
H54 C77 0.950 . S
H55 C79 0.951 . S
H56 C80 0.949 . S
H57 C82 0.949 . S
H58 C83 0.950 . S
H59 C85 0.950 . S
H60 C86 0.950 . S
H61 C88 0.950 . S
H62 C91 0.950 . S
H63 C92 0.950 . S
H64 C94 0.951 . S
H65 C95 0.949 . S
C66 C67 1.376 . S
C66 C71 1.386 . S
C66 C72 1.483 . S
C67 H48 0.949 . S
C67 C66 1.376 . S
C67 C68 1.397 . S
C68 H49 0.950 . S
C68 C67 1.397 . S
C68 C69 1.391 . S
C69 C68 1.391 . S
C69 C70 1.405 . S
C70 H50 0.950 . S
C70 C69 1.405 . S
C70 C71 1.367 . S
C71 H51 0.950 . S
C71 C66 1.386 . S
C71 C70 1.367 . S
C72 C66 1.483 . S
C72 C73 1.382 . S
C72 C74 1.403 . S
C73 H52 0.950 . S
C73 C72 1.382 . S
C73 C89 1.411 . S
C74 C72 1.403 . S
C74 C75 1.489 . S
C74 C88 1.411 . S
C75 C74 1.489 . S
C75 C76 1.383 . S
C75 C80 1.382 . S
C76 H53 0.950 . S
C76 C75 1.383 . S
C76 C77 1.395 . S
C77 H54 0.950 . S
C77 C76 1.395 . S
C77 C78 1.288 . S
C78 C77 1.288 . S
C78 C79 1.392 . S
C79 H55 0.951 . S
C79 C78 1.392 . S
C79 C80 1.392 . S
C80 H56 0.949 . S
C80 C75 1.382 . S
C80 C79 1.392 . S
C81 C82 1.376 . S
C81 C86 1.386 . S
C81 C87 1.483 . S
C82 H57 0.949 . S
C82 C81 1.376 . S
C82 C83 1.397 . S
C83 H58 0.950 . S
C83 C82 1.397 . S
C83 C84 1.391 . S
C84 C83 1.391 . S
C84 C85 1.405 . S
C85 H59 0.950 . S
C85 C84 1.405 . S
C85 C86 1.367 . S
C86 H60 0.950 . S
C86 C81 1.386 . S
C86 C85 1.367 . S
C87 C81 1.483 . S
C87 C88 1.382 . S
C87 C89 1.403 . S
C88 H61 0.950 . S
C88 C74 1.411 . S
C88 C87 1.382 . S
C89 C73 1.411 . S
C89 C87 1.403 . S
C89 C90 1.489 . S
C90 C89 1.489 . S
C90 C91 1.383 . S
C90 C95 1.382 . S
C91 H62 0.950 . S
C91 C90 1.383 . S
C91 C92 1.395 . S
C92 H63 0.950 . S
C92 C91 1.395 . S
C92 C93 1.288 . S
C93 C92 1.288 . S
C93 C94 1.392 . S
C94 H64 0.951 . S
C94 C93 1.392 . S
C94 C95 1.392 . S
C95 H65 0.949 . S
C95 C90 1.382 . S
C95 C94 1.392 . S
H96 C115 0.949 . S
H97 C116 0.950 . S
H98 C118 0.950 . S
H99 C119 0.950 . S
H100 C121 0.950 . S
H101 C124 0.950 . S
H102 C125 0.950 . S
H103 C127 0.951 . S
H104 C128 0.949 . S
H105 C130 0.949 . S
H106 C131 0.950 . S
H107 C133 0.950 . S
H108 C134 0.950 . S
H109 C136 0.950 . S
H110 C139 0.950 . S
H111 C140 0.950 . S
H112 C142 0.951 . S
H113 C143 0.949 . S
C114 C115 1.376 . S
C114 C119 1.386 . S
C114 C120 1.483 . S
C115 H96 0.949 . S
C115 C114 1.376 . S
C115 C116 1.397 . S
C116 H97 0.950 . S
C116 C115 1.397 . S
C116 C117 1.391 . S
C117 C116 1.391 . S
C117 C118 1.405 . S
C118 H98 0.950 . S
C118 C117 1.405 . S
C118 C119 1.367 . S
C119 H99 0.950 . S
C119 C114 1.386 . S
C119 C118 1.367 . S
C120 C114 1.483 . S
C120 C121 1.382 . S
C120 C122 1.403 . S
C121 H100 0.950 . S
C121 C120 1.382 . S
C121 C137 1.411 . S
C122 C120 1.403 . S
C122 C123 1.489 . S
C122 C136 1.411 . S
C123 C122 1.489 . S
C123 C124 1.383 . S
C123 C128 1.382 . S
C124 H101 0.950 . S
C124 C123 1.383 . S
C124 C125 1.395 . S
C125 H102 0.950 . S
C125 C124 1.395 . S
C125 C126 1.288 . S
C126 C125 1.288 . S
C126 C127 1.392 . S
C127 H103 0.951 . S
C127 C126 1.392 . S
C127 C128 1.392 . S
C128 H104 0.949 . S
C128 C123 1.382 . S
C128 C127 1.392 . S
C129 C130 1.376 . S
C129 C134 1.386 . S
C129 C135 1.483 . S
C130 H105 0.949 . S
C130 C129 1.376 . S
C130 C131 1.397 . S
C131 H106 0.950 . S
C131 C130 1.397 . S
C131 C132 1.391 . S
C132 C131 1.391 . S
C132 C133 1.405 . S
C133 H107 0.950 . S
C133 C132 1.405 . S
C133 C134 1.367 . S
C134 H108 0.950 . S
C134 C129 1.386 . S
C134 C133 1.367 . S
C135 C129 1.483 . S
C135 C136 1.382 . S
C135 C137 1.403 . S
C136 H109 0.950 . S
C136 C122 1.411 . S
C136 C135 1.382 . S
C137 C121 1.411 . S
C137 C135 1.403 . S
C137 C138 1.489 . S
C138 C137 1.489 . S
C138 C139 1.383 . S
C138 C143 1.382 . S
C139 H110 0.950 . S
C139 C138 1.383 . S
C139 C140 1.395 . S
C140 H111 0.950 . S
C140 C139 1.395 . S
C140 C141 1.288 . S
C141 C140 1.288 . S
C141 C142 1.392 . S
C142 H112 0.951 . S
C142 C141 1.392 . S
C142 C143 1.392 . S
C143 H113 0.949 . S
C143 C138 1.382 . S
C143 C142 1.392 . S
H144 C163 0.949 . S
H145 C164 0.950 . S
H146 C166 0.950 . S
H147 C167 0.950 . S
H148 C169 0.950 . S
H149 C172 0.950 . S
H150 C173 0.950 . S
H151 C175 0.951 . S
H152 C176 0.949 . S
H153 C178 0.949 . S
H154 C179 0.950 . S
H155 C181 0.950 . S
H156 C182 0.950 . S
H157 C184 0.950 . S
H158 C187 0.950 . S
H159 C188 0.950 . S
H160 C190 0.951 . S
H161 C191 0.949 . S
C162 C163 1.376 . S
C162 C167 1.386 . S
C162 C168 1.483 . S
C163 H144 0.949 . S
C163 C162 1.376 . S
C163 C164 1.397 . S
C164 H145 0.950 . S
C164 C163 1.397 . S
C164 C165 1.391 . S
C165 C164 1.391 . S
C165 C166 1.405 . S
C166 H146 0.950 . S
C166 C165 1.405 . S
C166 C167 1.367 . S
C167 H147 0.950 . S
C167 C162 1.386 . S
C167 C166 1.367 . S
C168 C162 1.483 . S
C168 C169 1.382 . S
C168 C170 1.403 . S
C169 H148 0.950 . S
C169 C168 1.382 . S
C169 C185 1.411 . S
C170 C168 1.403 . S
C170 C171 1.489 . S
C170 C184 1.411 . S
C171 C170 1.489 . S
C171 C172 1.383 . S
C171 C176 1.382 . S
C172 H149 0.950 . S
C172 C171 1.383 . S
C172 C173 1.395 . S
C173 H150 0.950 . S
C173 C172 1.395 . S
C173 C174 1.288 . S
C174 C173 1.288 . S
C174 C175 1.392 . S
C175 H151 0.951 . S
C175 C174 1.392 . S
C175 C176 1.392 . S
C176 H152 0.949 . S
C176 C171 1.382 . S
C176 C175 1.392 . S
C177 C178 1.376 . S
C177 C182 1.386 . S
C177 C183 1.483 . S
C178 H153 0.949 . S
C178 C177 1.376 . S
C178 C179 1.397 . S
C179 H154 0.950 . S
C179 C178 1.397 . S
C179 C180 1.391 . S
C180 C179 1.391 . S
C180 C181 1.405 . S
C181 H155 0.950 . S
C181 C180 1.405 . S
C181 C182 1.367 . S
C182 H156 0.950 . S
C182 C177 1.386 . S
C182 C181 1.367 . S
C183 C177 1.483 . S
C183 C184 1.382 . S
C183 C185 1.403 . S
C184 H157 0.950 . S
C184 C170 1.411 . S
C184 C183 1.382 . S
C185 C169 1.411 . S
C185 C183 1.403 . S
C185 C186 1.489 . S
C186 C185 1.489 . S
C186 C187 1.383 . S
C186 C191 1.382 . S
C187 H158 0.950 . S
C187 C186 1.383 . S
C187 C188 1.395 . S
C188 H159 0.950 . S
C188 C187 1.395 . S
C188 C189 1.288 . S
C189 C188 1.288 . S
C189 C190 1.392 . S
C190 H160 0.951 . S
C190 C189 1.392 . S
C190 C191 1.392 . S
C191 H161 0.949 . S
C191 C186 1.382 . S
C191 C190 1.392 . S
H192 C211 0.949 . S
H193 C212 0.950 . S
H194 C214 0.950 . S
H195 C215 0.950 . S
H196 C217 0.950 . S
H197 C220 0.950 . S
H198 C221 0.950 . S
H199 C223 0.951 . S
H200 C224 0.949 . S
H201 C226 0.949 . S
H202 C227 0.950 . S
H203 C229 0.950 . S
H204 C230 0.950 . S
H205 C232 0.950 . S
H206 C235 0.950 . S
H207 C236 0.950 . S
H208 C238 0.951 . S
H209 C239 0.949 . S
C210 C211 1.376 . S
C210 C215 1.386 . S
C210 C216 1.483 . S
C211 H192 0.949 . S
C211 C210 1.376 . S
C211 C212 1.397 . S
C212 H193 0.950 . S
C212 C211 1.397 . S
C212 C213 1.391 . S
C213 C212 1.391 . S
C213 C214 1.405 . S
C214 H194 0.950 . S
C214 C213 1.405 . S
C214 C215 1.367 . S
C215 H195 0.950 . S
C215 C210 1.386 . S
C215 C214 1.367 . S
C216 C210 1.483 . S
C216 C217 1.382 . S
C216 C218 1.403 . S
C217 H196 0.950 . S
C217 C216 1.382 . S
C217 C233 1.411 . S
C218 C216 1.403 . S
C218 C219 1.489 . S
C218 C232 1.411 . S
C219 C218 1.489 . S
C219 C220 1.383 . S
C219 C224 1.382 . S
C220 H197 0.950 . S
C220 C219 1.383 . S
C220 C221 1.395 . S
C221 H198 0.950 . S
C221 C220 1.395 . S
C221 C222 1.288 . S
C222 C221 1.288 . S
C222 C223 1.392 . S
C223 H199 0.951 . S
C223 C222 1.392 . S
C223 C224 1.392 . S
C224 H200 0.949 . S
C224 C219 1.382 . S
C224 C223 1.392 . S
C225 C226 1.376 . S
C225 C230 1.386 . S
C225 C231 1.483 . S
C226 H201 0.949 . S
C226 C225 1.376 . S
C226 C227 1.397 . S
C227 H202 0.950 . S
C227 C226 1.397 . S
C227 C228 1.391 . S
C228 C227 1.391 . S
C228 C229 1.405 . S
C229 H203 0.950 . S
C229 C228 1.405 . S
C229 C230 1.367 . S
C230 H204 0.950 . S
C230 C225 1.386 . S
C230 C229 1.367 . S
C231 C225 1.483 . S
C231 C232 1.382 . S
C231 C233 1.403 . S
C232 H205 0.950 . S
C232 C218 1.411 . S
C232 C231 1.382 . S
C233 C217 1.411 . S
C233 C231 1.403 . S
C233 C234 1.489 . S
C234 C233 1.489 . S
C234 C235 1.383 . S
C234 C239 1.382 . S
C235 H206 0.950 . S
C235 C234 1.383 . S
C235 C236 1.395 . S
C236 H207 0.950 . S
C236 C235 1.395 . S
C236 C237 1.288 . S
C237 C236 1.288 . S
C237 C238 1.392 . S
C238 H208 0.951 . S
C238 C237 1.392 . S
C238 C239 1.392 . S
C239 H209 0.949 . S
C239 C234 1.382 . S
C239 C238 1.392 . S
H240 C259 0.949 . S
H241 C260 0.950 . S
H242 C262 0.950 . S
H243 C263 0.950 . S
H244 C265 0.950 . S
H245 C268 0.950 . S
H246 C269 0.950 . S
H247 C271 0.951 . S
H248 C272 0.949 . S
H249 C274 0.949 . S
H250 C275 0.950 . S
H251 C277 0.950 . S
H252 C278 0.950 . S
H253 C280 0.950 . S
H254 C283 0.950 . S
H255 C284 0.950 . S
H256 C286 0.951 . S
H257 C287 0.949 . S
C258 C259 1.376 . S
C258 C263 1.386 . S
C258 C264 1.483 . S
C259 H240 0.949 . S
C259 C258 1.376 . S
C259 C260 1.397 . S
C260 H241 0.950 . S
C260 C259 1.397 . S
C260 C261 1.391 . S
C261 C260 1.391 . S
C261 C262 1.405 . S
C262 H242 0.950 . S
C262 C261 1.405 . S
C262 C263 1.367 . S
C263 H243 0.950 . S
C263 C258 1.386 . S
C263 C262 1.367 . S
C264 C258 1.483 . S
C264 C265 1.382 . S
C264 C266 1.403 . S
C265 H244 0.950 . S
C265 C264 1.382 . S
C265 C281 1.411 . S
C266 C264 1.403 . S
C266 C267 1.489 . S
C266 C280 1.411 . S
C267 C266 1.489 . S
C267 C268 1.383 . S
C267 C272 1.382 . S
C268 H245 0.950 . S
C268 C267 1.383 . S
C268 C269 1.395 . S
C269 H246 0.950 . S
C269 C268 1.395 . S
C269 C270 1.288 . S
C270 C269 1.288 . S
C270 C271 1.392 . S
C271 H247 0.951 . S
C271 C270 1.392 . S
C271 C272 1.392 . S
C272 H248 0.949 . S
C272 C267 1.382 . S
C272 C271 1.392 . S
C273 C274 1.376 . S
C273 C278 1.386 . S
C273 C279 1.483 . S
C274 H249 0.949 . S
C274 C273 1.376 . S
C274 C275 1.397 . S
C275 H250 0.950 . S
C275 C274 1.397 . S
C275 C276 1.391 . S
C276 C275 1.391 . S
C276 C277 1.405 . S
C277 H251 0.950 . S
C277 C276 1.405 . S
C277 C278 1.367 . S
C278 H252 0.950 . S
C278 C273 1.386 . S
C278 C277 1.367 . S
C279 C273 1.483 . S
C279 C280 1.382 . S
C279 C281 1.403 . S
C280 H253 0.950 . S
C280 C266 1.411 . S
C280 C279 1.382 . S
C281 C265 1.411 . S
C281 C279 1.403 . S
C281 C282 1.489 . S
C282 C281 1.489 . S
C282 C283 1.383 . S
C282 C287 1.382 . S
C283 H254 0.950 . S
C283 C282 1.383 . S
C283 C284 1.395 . S
C284 H255 0.950 . S
C284 C283 1.395 . S
C284 C285 1.288 . S
C285 C284 1.288 . S
C285 C286 1.392 . S
C286 H256 0.951 . S
C286 C285 1.392 . S
C286 C287 1.392 . S
C287 H257 0.949 . S
C287 C282 1.382 . S
C287 C286 1.392 . S
H288 C307 0.949 . S
H289 C308 0.950 . S
H290 C310 0.950 . S
H291 C311 0.950 . S
H292 C313 0.950 . S
H293 C316 0.950 . S
H294 C317 0.950 . S
H295 C319 0.951 . S
H296 C320 0.949 . S
H297 C322 0.949 . S
H298 C323 0.950 . S
H299 C325 0.950 . S
H300 C326 0.950 . S
H301 C328 0.950 . S
H302 C331 0.950 . S
H303 C332 0.950 . S
H304 C334 0.951 . S
H305 C335 0.949 . S
C306 C307 1.376 . S
C306 C311 1.386 . S
C306 C312 1.483 . S
C307 H288 0.949 . S
C307 C306 1.376 . S
C307 C308 1.397 . S
C308 H289 0.950 . S
C308 C307 1.397 . S
C308 C309 1.391 . S
C309 C308 1.391 . S
C309 C310 1.405 . S
C310 H290 0.950 . S
C310 C309 1.405 . S
C310 C311 1.367 . S
C311 H291 0.950 . S
C311 C306 1.386 . S
C311 C310 1.367 . S
C312 C306 1.483 . S
C312 C313 1.382 . S
C312 C314 1.403 . S
C313 H292 0.950 . S
C313 C312 1.382 . S
C313 C329 1.411 . S
C314 C312 1.403 . S
C314 C315 1.489 . S
C314 C328 1.411 . S
C315 C314 1.489 . S
C315 C316 1.383 . S
C315 C320 1.382 . S
C316 H293 0.950 . S
C316 C315 1.383 . S
C316 C317 1.395 . S
C317 H294 0.950 . S
C317 C316 1.395 . S
C317 C318 1.288 . S
C318 C317 1.288 . S
C318 C319 1.392 . S
C319 H295 0.951 . S
C319 C318 1.392 . S
C319 C320 1.392 . S
C320 H296 0.949 . S
C320 C315 1.382 . S
C320 C319 1.392 . S
C321 C322 1.376 . S
C321 C326 1.386 . S
C321 C327 1.483 . S
C322 H297 0.949 . S
C322 C321 1.376 . S
C322 C323 1.397 . S
C323 H298 0.950 . S
C323 C322 1.397 . S
C323 C324 1.391 . S
C324 C323 1.391 . S
C324 C325 1.405 . S
C325 H299 0.950 . S
C325 C324 1.405 . S
C325 C326 1.367 . S
C326 H300 0.950 . S
C326 C321 1.386 . S
C326 C325 1.367 . S
C327 C321 1.483 . S
C327 C328 1.382 . S
C327 C329 1.403 . S
C328 H301 0.950 . S
C328 C314 1.411 . S
C328 C327 1.382 . S
C329 C313 1.411 . S
C329 C327 1.403 . S
C329 C330 1.489 . S
C330 C329 1.489 . S
C330 C331 1.383 . S
C330 C335 1.382 . S
C331 H302 0.950 . S
C331 C330 1.383 . S
C331 C332 1.395 . S
C332 H303 0.950 . S
C332 C331 1.395 . S
C332 C333 1.288 . S
C333 C332 1.288 . S
C333 C334 1.392 . S
C334 H304 0.951 . S
C334 C333 1.392 . S
C334 C335 1.392 . S
C335 H305 0.949 . S
C335 C330 1.382 . S
C335 C334 1.392 . S
H336 C355 0.949 . S
H337 C356 0.950 . S
H338 C358 0.950 . S
H339 C359 0.950 . S
H340 C361 0.950 . S
H341 C364 0.950 . S
H342 C365 0.950 . S
H343 C367 0.951 . S
H344 C368 0.949 . S
H345 C370 0.949 . S
H346 C371 0.950 . S
H347 C373 0.950 . S
H348 C374 0.950 . S
H349 C376 0.950 . S
H350 C379 0.950 . S
H351 C380 0.950 . S
H352 C382 0.951 . S
H353 C383 0.949 . S
C354 C355 1.376 . S
C354 C359 1.386 . S
C354 C360 1.483 . S
C355 H336 0.949 . S
C355 C354 1.376 . S
C355 C356 1.397 . S
C356 H337 0.950 . S
C356 C355 1.397 . S
C356 C357 1.391 . S
C357 C356 1.391 . S
C357 C358 1.405 . S
C358 H338 0.950 . S
C358 C357 1.405 . S
C358 C359 1.367 . S
C359 H339 0.950 . S
C359 C354 1.386 . S
C359 C358 1.367 . S
C360 C354 1.483 . S
C360 C361 1.382 . S
C360 C362 1.403 . S
C361 H340 0.950 . S
C361 C360 1.382 . S
C361 C377 1.411 . S
C362 C360 1.403 . S
C362 C363 1.489 . S
C362 C376 1.411 . S
C363 C362 1.489 . S
C363 C364 1.383 . S
C363 C368 1.382 . S
C364 H341 0.950 . S
C364 C363 1.383 . S
C364 C365 1.395 . S
C365 H342 0.950 . S
C365 C364 1.395 . S
C365 C366 1.288 . S
C366 C365 1.288 . S
C366 C367 1.392 . S
C367 H343 0.951 . S
C367 C366 1.392 . S
C367 C368 1.392 . S
C368 H344 0.949 . S
C368 C363 1.382 . S
C368 C367 1.392 . S
C369 C370 1.376 . S
C369 C374 1.386 . S
C369 C375 1.483 . S
C370 H345 0.949 . S
C370 C369 1.376 . S
C370 C371 1.397 . S
C371 H346 0.950 . S
C371 C370 1.397 . S
C371 C372 1.391 . S
C372 C371 1.391 . S
C372 C373 1.405 . S
C373 H347 0.950 . S
C373 C372 1.405 . S
C373 C374 1.367 . S
C374 H348 0.950 . S
C374 C369 1.386 . S
C374 C373 1.367 . S
C375 C369 1.483 . S
C375 C376 1.382 . S
C375 C377 1.403 . S
C376 H349 0.950 . S
C376 C362 1.411 . S
C376 C375 1.382 . S
C377 C361 1.411 . S
C377 C375 1.403 . S
C377 C378 1.489 . S
C378 C377 1.489 . S
C378 C379 1.383 . S
C378 C383 1.382 . S
C379 H350 0.950 . S
C379 C378 1.383 . S
C379 C380 1.395 . S
C380 H351 0.950 . S
C380 C379 1.395 . S
C380 C381 1.288 . S
C381 C380 1.288 . S
C381 C382 1.392 . S
C382 H352 0.951 . S
C382 C381 1.392 . S
C382 C383 1.392 . S
C383 H353 0.949 . S
C383 C378 1.382 . S
C383 C382 1.392 . S
C384 O386 1.247 . S
C384 O388 1.258 . S
C385 O392 1.247 . S
C385 O393 1.258 . S
O386 C384 1.247 . S
O386 Zn387 2.032 1_655 S
Zn387 O386 2.032 1_455 S
Zn387 O391 2.031 . S
Zn387 O393 2.031 . S
Zn387 O394 2.032 1_455 S
O388 C384 1.258 . S
O388 Zn389 2.025 1_655 S
Zn389 O388 2.025 1_455 S
Zn389 O390 2.038 . S
Zn389 O392 2.038 . S
Zn389 O395 2.025 1_455 S
O390 Zn389 2.038 . S
O390 C396 1.247 . S
O391 Zn387 2.031 . S
O391 C396 1.258 . S
O392 C385 1.247 . S
O392 Zn389 2.038 . S
O393 C385 1.258 . S
O393 Zn387 2.031 . S
O394 Zn387 2.032 1_655 S
O394 C397 1.247 . S
O395 Zn389 2.025 1_655 S
O395 C397 1.258 . S
C396 O390 1.247 . S
C396 O391 1.258 . S
C397 O394 1.247 . S
C397 O395 1.258 . S
C398 O400 1.247 . S
C398 O402 1.258 . S
C399 O406 1.247 . S
C399 O407 1.258 . S
O400 C398 1.247 . S
O400 Zn401 2.036 . S
Zn401 O400 2.036 . S
Zn401 O405 2.027 1_545 S
Zn401 O407 2.027 1_545 S
Zn401 O408 2.036 . S
O402 C398 1.258 . S
O402 Zn403 2.039 1_545 S
Zn403 O402 2.039 1_565 S
Zn403 O404 2.025 . S
Zn403 O406 2.025 . S
Zn403 O409 2.039 1_565 S
O404 Zn403 2.025 . S
O404 C410 1.247 . S
O405 Zn401 2.027 1_565 S
O405 C410 1.258 . S
O406 C399 1.247 . S
O406 Zn403 2.025 . S
O407 C399 1.258 . S
O407 Zn401 2.027 1_565 S
O408 Zn401 2.036 . S
O408 C411 1.247 . S
O409 Zn403 2.039 1_545 S
O409 C411 1.258 . S
C410 O404 1.247 . S
C410 O405 1.258 . S
C411 O408 1.247 . S
C411 O409 1.258 . S
C412 O414 1.247 . S
C412 O416 1.258 . S
C413 O420 1.247 . S
C413 O421 1.258 . S
O414 C412 1.247 . S
O414 Zn415 2.026 . S
Zn415 O414 2.026 . S
Zn415 O419 2.037 1_655 S
Zn415 O421 2.037 1_655 S
Zn415 O422 2.026 . S
O416 C412 1.258 . S
O416 Zn417 2.028 1_655 S
Zn417 O416 2.028 1_455 S
Zn417 O418 2.035 . S
Zn417 O420 2.035 . S
Zn417 O423 2.028 1_455 S
O418 Zn417 2.035 . S
O418 C424 1.247 . S
O419 Zn415 2.037 1_455 S
O419 C424 1.258 . S
O420 C413 1.247 . S
O420 Zn417 2.035 . S
O421 C413 1.258 . S
O421 Zn415 2.037 1_455 S
O422 Zn415 2.026 . S
O422 C425 1.247 . S
O423 Zn417 2.028 1_655 S
O423 C425 1.258 . S
C424 O418 1.247 . S
C424 O419 1.258 . S
C425 O422 1.247 . S
C425 O423 1.258 . S
C426 O428 1.247 . S
C426 O430 1.258 . S
C427 O434 1.247 . S
C427 O435 1.258 . S
O428 C426 1.247 . S
O428 Zn429 2.036 . S
Zn429 O428 2.036 . S
Zn429 O433 2.027 1_545 S
Zn429 O435 2.027 1_545 S
Zn429 O436 2.036 . S
O430 C426 1.258 . S
O430 Zn431 2.039 1_545 S
Zn431 O430 2.039 1_565 S
Zn431 O432 2.024 . S
Zn431 O434 2.024 . S
Zn431 O437 2.039 1_565 S
O432 Zn431 2.024 . S
O432 C438 1.247 . S
O433 Zn429 2.027 1_565 S
O433 C438 1.258 . S
O434 C427 1.247 . S
O434 Zn431 2.024 . S
O435 C427 1.258 . S
O435 Zn429 2.027 1_565 S
O436 Zn429 2.036 . S
O436 C439 1.247 . S
O437 Zn431 2.039 1_545 S
O437 C439 1.258 . S
C438 O432 1.247 . S
C438 O433 1.258 . S
C439 O436 1.247 . S
C439 O437 1.258 . S
C440 O442 1.247 . S
C440 O444 1.258 . S
C441 O448 1.247 . S
C441 O449 1.258 . S
O442 C440 1.247 . S
O442 Zn443 2.028 . S
Zn443 O442 2.028 . S
Zn443 O447 2.035 . S
Zn443 O449 2.035 1_554 S
Zn443 O450 2.028 1_554 S
O444 C440 1.258 . S
O444 Zn445 2.035 . S
Zn445 O444 2.035 . S
Zn445 O446 2.028 . S
Zn445 O448 2.028 1_554 S
Zn445 O451 2.035 1_554 S
O446 Zn445 2.028 . S
O446 C452 1.247 . S
O447 Zn443 2.035 . S
O447 C452 1.258 . S
O448 C441 1.247 . S
O448 Zn445 2.028 1_556 S
O449 C441 1.258 . S
O449 Zn443 2.035 1_556 S
O450 Zn443 2.028 1_556 S
O450 C453 1.247 . S
O451 Zn445 2.035 1_556 S
O451 C453 1.258 . S
C452 O446 1.247 . S
C452 O447 1.258 . S
C453 O450 1.247 . S
C453 O451 1.258 . S
C454 O456 1.247 . S
C454 O458 1.258 . S
C455 O462 1.247 . S
C455 O463 1.258 . S
O456 C454 1.247 . S
O456 Zn457 2.028 . S
Zn457 O456 2.028 . S
Zn457 O461 2.035 . S
Zn457 O463 2.035 1_554 S
Zn457 O464 2.028 1_554 S
O458 C454 1.258 . S
O458 Zn459 2.035 . S
Zn459 O458 2.035 . S
Zn459 O460 2.028 . S
Zn459 O462 2.028 1_554 S
Zn459 O465 2.035 1_554 S
O460 Zn459 2.028 . S
O460 C466 1.247 . S
O461 Zn457 2.035 . S
O461 C466 1.258 . S
O462 C455 1.247 . S
O462 Zn459 2.028 1_556 S
O463 C455 1.258 . S
O463 Zn457 2.035 1_556 S
O464 Zn457 2.028 1_556 S
O464 C467 1.247 . S
O465 Zn459 2.035 1_556 S
O465 C467 1.258 . S
C466 O460 1.247 . S
C466 O461 1.258 . S
C467 O464 1.247 . S
C467 O465 1.258 . S
C468 O470 1.247 . S
C468 O472 1.258 . S
C469 O476 1.247 . S
C469 O477 1.258 . S
O470 C468 1.247 . S
O470 Zn471 2.028 1_556 S
Zn471 O470 2.028 1_554 S
Zn471 O475 2.035 1_554 S
Zn471 O477 2.035 . S
Zn471 O478 2.028 . S
O472 C468 1.258 . S
O472 Zn473 2.035 1_556 S
Zn473 O472 2.035 1_554 S
Zn473 O474 2.028 1_554 S
Zn473 O476 2.028 . S
Zn473 O479 2.035 . S
O474 Zn473 2.028 1_556 S
O474 C480 1.247 . S
O475 Zn471 2.035 1_556 S
O475 C480 1.258 . S
O476 C469 1.247 . S
O476 Zn473 2.028 . S
O477 C469 1.258 . S
O477 Zn471 2.035 . S
O478 Zn471 2.028 . S
O478 C481 1.247 . S
O479 Zn473 2.035 . S
O479 C481 1.258 . S
C480 O474 1.247 . S
C480 O475 1.258 . S
C481 O478 1.247 . S
C481 O479 1.258 . S
C482 O484 1.247 . S
C482 O486 1.258 . S
C483 O490 1.247 . S
C483 O491 1.258 . S
O484 C482 1.247 . S
O484 Zn485 2.028 . S
Zn485 O484 2.028 . S
Zn485 O489 2.035 . S
Zn485 O491 2.035 1_554 S
Zn485 O492 2.028 1_554 S
O486 C482 1.258 . S
O486 Zn487 2.035 . S
Zn487 O486 2.035 . S
Zn487 O488 2.028 . S
Zn487 O490 2.028 1_554 S
Zn487 O493 2.035 1_554 S
O488 Zn487 2.028 . S
O488 C494 1.247 . S
O489 Zn485 2.035 . S
O489 C494 1.258 . S
O490 C483 1.247 . S
O490 Zn487 2.028 1_556 S
O491 C483 1.258 . S
O491 Zn485 2.035 1_556 S
O492 Zn485 2.028 1_556 S
O492 C495 1.247 . S
O493 Zn487 2.035 1_556 S
O493 C495 1.258 . S
C494 O488 1.247 . S
C494 O489 1.258 . S
C495 O492 1.247 . S
C495 O493 1.258 . S
H496 C514 0.951 . S
H497 C516 0.951 . S
H498 C518 0.950 . S
H499 C519 0.950 . S
H500 C521 0.950 . S
H501 C524 0.950 . S
H502 C525 0.950 . S
H503 C527 0.950 . S
H504 C528 0.950 . S
H505 C529 0.951 . S
H506 C531 0.951 . S
H507 C533 0.950 . S
H508 C534 0.950 . S
H509 C536 0.950 . S
H510 C539 0.950 . S
H511 C540 0.950 . S
H512 C542 0.950 . S
H513 C543 0.950 . S
C514 H496 0.951 . S
C514 C515 1.366 . S
C514 C516 1.388 . S
C515 C514 1.366 . S
C515 C519 1.385 . S
C516 H497 0.951 . S
C516 C514 1.388 . S
C516 C517 1.366 . S
C517 C516 1.366 . S
C517 C518 1.414 . S
C517 C520 1.499 . S
C518 H498 0.950 . S
C518 C517 1.414 . S
C518 C519 1.374 . S
C519 H499 0.950 . S
C519 C515 1.385 . S
C519 C518 1.374 . S
C520 C517 1.499 . S
C520 C521 1.373 . S
C520 C522 1.389 . S
C521 H500 0.950 . S
C521 C520 1.373 . S
C521 C537 1.377 . S
C522 C520 1.389 . S
C522 C523 1.524 . S
C522 C536 1.377 . S
C523 C522 1.524 . S
C523 C524 1.397 . S
C523 C528 1.363 . S
C524 H501 0.950 . S
C524 C523 1.397 . S
C524 C525 1.334 . S
C525 H502 0.950 . S
C525 C524 1.334 . S
C525 C526 1.287 . S
C526 C525 1.287 . S
C526 C527 1.524 . S
C526 H545 0.913 . S
C527 H503 0.950 . S
C527 C526 1.524 . S
C527 C528 1.415 . S
C528 H504 0.950 . S
C528 C523 1.363 . S
C528 C527 1.415 . S
C529 H505 0.951 . S
C529 C530 1.366 . S
C529 C531 1.388 . S
C530 C529 1.366 . S
C530 C534 1.385 . S
C531 H506 0.951 . S
C531 C529 1.388 . S
C531 C532 1.366 . S
C532 C531 1.366 . S
C532 C533 1.414 . S
C532 C535 1.499 . S
C533 H507 0.950 . S
C533 C532 1.414 . S
C533 C534 1.374 . S
C534 H508 0.950 . S
C534 C530 1.385 . S
C534 C533 1.374 . S
C535 C532 1.499 . S
C535 C536 1.373 . S
C535 C537 1.389 . S
C536 H509 0.950 . S
C536 C522 1.377 . S
C536 C535 1.373 . S
C537 C521 1.377 . S
C537 C535 1.389 . S
C537 C538 1.524 . S
C538 C537 1.524 . S
C538 C539 1.397 . S
C538 C543 1.363 . S
C539 H510 0.950 . S
C539 C538 1.397 . S
C539 C540 1.334 . S
C540 H511 0.950 . S
C540 C539 1.334 . S
C540 C541 1.287 . S
C541 C540 1.287 . S
C541 C542 1.524 . S
C541 H544 0.999 . S
C542 H512 0.950 . S
C542 C541 1.524 . S
C542 C543 1.415 . S
C543 H513 0.950 . S
C543 C538 1.363 . S
C543 C542 1.415 . S
H544 C541 0.999 . S
H545 C526 0.913 . S
H546 C564 0.951 . S
H547 C566 0.951 . S
H548 C568 0.950 . S
H549 C569 0.950 . S
H550 C571 0.950 . S
H551 C574 0.950 . S
H552 C575 0.950 . S
H553 C577 0.950 . S
H554 C578 0.950 . S
H555 C579 0.951 . S
H556 C581 0.951 . S
H557 C583 0.950 . S
H558 C584 0.950 . S
H559 C586 0.950 . S
H560 C589 0.950 . S
H561 C590 0.950 . S
H562 C592 0.950 . S
H563 C593 0.950 . S
C564 H546 0.951 . S
C564 C565 1.366 . S
C564 C566 1.388 . S
C565 C564 1.366 . S
C565 C569 1.385 . S
C566 H547 0.951 . S
C566 C564 1.388 . S
C566 C567 1.366 . S
C567 C566 1.366 . S
C567 C568 1.414 . S
C567 C570 1.499 . S
C568 H548 0.950 . S
C568 C567 1.414 . S
C568 C569 1.374 . S
C569 H549 0.950 . S
C569 C565 1.385 . S
C569 C568 1.374 . S
C570 C567 1.499 . S
C570 C571 1.373 . S
C570 C572 1.389 . S
C571 H550 0.950 . S
C571 C570 1.373 . S
C571 C587 1.377 . S
C572 C570 1.389 . S
C572 C573 1.524 . S
C572 C586 1.377 . S
C573 C572 1.524 . S
C573 C574 1.397 . S
C573 C578 1.363 . S
C574 H551 0.950 . S
C574 C573 1.397 . S
C574 C575 1.334 . S
C575 H552 0.950 . S
C575 C574 1.334 . S
C575 C576 1.287 . S
C576 C575 1.287 . S
C576 C577 1.524 . S
C576 H595 0.913 . S
C577 H553 0.950 . S
C577 C576 1.524 . S
C577 C578 1.415 . S
C578 H554 0.950 . S
C578 C573 1.363 . S
C578 C577 1.415 . S
C579 H555 0.951 . S
C579 C580 1.366 . S
C579 C581 1.388 . S
C580 C579 1.366 . S
C580 C584 1.385 . S
C581 H556 0.951 . S
C581 C579 1.388 . S
C581 C582 1.366 . S
C582 C581 1.366 . S
C582 C583 1.414 . S
C582 C585 1.499 . S
C583 H557 0.950 . S
C583 C582 1.414 . S
C583 C584 1.374 . S
C584 H558 0.950 . S
C584 C580 1.385 . S
C584 C583 1.374 . S
C585 C582 1.499 . S
C585 C586 1.373 . S
C585 C587 1.389 . S
C586 H559 0.950 . S
C586 C572 1.377 . S
C586 C585 1.373 . S
C587 C571 1.377 . S
C587 C585 1.389 . S
C587 C588 1.524 . S
C588 C587 1.524 . S
C588 C589 1.397 . S
C588 C593 1.363 . S
C589 H560 0.950 . S
C589 C588 1.397 . S
C589 C590 1.334 . S
C590 H561 0.950 . S
C590 C589 1.334 . S
C590 C591 1.287 . S
C591 C590 1.287 . S
C591 C592 1.524 . S
C591 H594 0.999 . S
C592 H562 0.950 . S
C592 C591 1.524 . S
C592 C593 1.415 . S
C593 H563 0.950 . S
C593 C588 1.363 . S
C593 C592 1.415 . S
H594 C591 0.999 . S
H595 C576 0.913 . S
H596 C614 0.951 . S
H597 C616 0.951 . S
H598 C618 0.950 . S
H599 C619 0.950 . S
H600 C621 0.950 . S
H601 C624 0.950 . S
H602 C625 0.950 . S
H603 C627 0.950 . S
H604 C628 0.950 . S
H605 C629 0.951 . S
H606 C631 0.951 . S
H607 C633 0.950 . S
H608 C634 0.950 . S
H609 C636 0.950 . S
H610 C639 0.950 . S
H611 C640 0.950 . S
H612 C642 0.950 . S
H613 C643 0.950 . S
C614 H596 0.951 . S
C614 C615 1.366 . S
C614 C616 1.388 . S
C615 C614 1.366 . S
C615 C619 1.385 . S
C616 H597 0.951 . S
C616 C614 1.388 . S
C616 C617 1.366 . S
C617 C616 1.366 . S
C617 C618 1.414 . S
C617 C620 1.499 . S
C618 H598 0.950 . S
C618 C617 1.414 . S
C618 C619 1.374 . S
C619 H599 0.950 . S
C619 C615 1.385 . S
C619 C618 1.374 . S
C620 C617 1.499 . S
C620 C621 1.373 . S
C620 C622 1.389 . S
C621 H600 0.950 . S
C621 C620 1.373 . S
C621 C637 1.377 . S
C622 C620 1.389 . S
C622 C623 1.524 . S
C622 C636 1.377 . S
C623 C622 1.524 . S
C623 C624 1.397 . S
C623 C628 1.363 . S
C624 H601 0.950 . S
C624 C623 1.397 . S
C624 C625 1.334 . S
C625 H602 0.950 . S
C625 C624 1.334 . S
C625 C626 1.287 . S
C626 C625 1.287 . S
C626 C627 1.524 . S
C626 H645 0.913 . S
C627 H603 0.950 . S
C627 C626 1.524 . S
C627 C628 1.415 . S
C628 H604 0.950 . S
C628 C623 1.363 . S
C628 C627 1.415 . S
C629 H605 0.951 . S
C629 C630 1.366 . S
C629 C631 1.388 . S
C630 C629 1.366 . S
C630 C634 1.385 . S
C631 H606 0.951 . S
C631 C629 1.388 . S
C631 C632 1.366 . S
C632 C631 1.366 . S
C632 C633 1.414 . S
C632 C635 1.499 . S
C633 H607 0.950 . S
C633 C632 1.414 . S
C633 C634 1.374 . S
C634 H608 0.950 . S
C634 C630 1.385 . S
C634 C633 1.374 . S
C635 C632 1.499 . S
C635 C636 1.373 . S
C635 C637 1.389 . S
C636 H609 0.950 . S
C636 C622 1.377 . S
C636 C635 1.373 . S
C637 C621 1.377 . S
C637 C635 1.389 . S
C637 C638 1.524 . S
C638 C637 1.524 . S
C638 C639 1.397 . S
C638 C643 1.363 . S
C639 H610 0.950 . S
C639 C638 1.397 . S
C639 C640 1.334 . S
C640 H611 0.950 . S
C640 C639 1.334 . S
C640 C641 1.287 . S
C641 C640 1.287 . S
C641 C642 1.524 . S
C641 H644 0.999 . S
C642 H612 0.950 . S
C642 C641 1.524 . S
C642 C643 1.415 . S
C643 H613 0.950 . S
C643 C638 1.363 . S
C643 C642 1.415 . S
H644 C641 0.999 . S
H645 C626 0.913 . S
H646 C664 0.951 . S
H647 C666 0.951 . S
H648 C668 0.950 . S
H649 C669 0.950 . S
H650 C671 0.950 . S
H651 C674 0.950 . S
H652 C675 0.950 . S
H653 C677 0.950 . S
H654 C678 0.950 . S
H655 C679 0.951 . S
H656 C681 0.951 . S
H657 C683 0.950 . S
H658 C684 0.950 . S
H659 C686 0.950 . S
H660 C689 0.950 . S
H661 C690 0.950 . S
H662 C692 0.950 . S
H663 C693 0.950 . S
C664 H646 0.951 . S
C664 C665 1.366 . S
C664 C666 1.388 . S
C665 C664 1.366 . S
C665 C669 1.385 . S
C666 H647 0.951 . S
C666 C664 1.388 . S
C666 C667 1.366 . S
C667 C666 1.366 . S
C667 C668 1.414 . S
C667 C670 1.499 . S
C668 H648 0.950 . S
C668 C667 1.414 . S
C668 C669 1.374 . S
C669 H649 0.950 . S
C669 C665 1.385 . S
C669 C668 1.374 . S
C670 C667 1.499 . S
C670 C671 1.373 . S
C670 C672 1.389 . S
C671 H650 0.950 . S
C671 C670 1.373 . S
C671 C687 1.377 . S
C672 C670 1.389 . S
C672 C673 1.524 . S
C672 C686 1.377 . S
C673 C672 1.524 . S
C673 C674 1.397 . S
C673 C678 1.363 . S
C674 H651 0.950 . S
C674 C673 1.397 . S
C674 C675 1.334 . S
C675 H652 0.950 . S
C675 C674 1.334 . S
C675 C676 1.287 . S
C676 C675 1.287 . S
C676 C677 1.524 . S
C676 H695 0.913 . S
C677 H653 0.950 . S
C677 C676 1.524 . S
C677 C678 1.415 . S
C678 H654 0.950 . S
C678 C673 1.363 . S
C678 C677 1.415 . S
C679 H655 0.951 . S
C679 C680 1.366 . S
C679 C681 1.388 . S
C680 C679 1.366 . S
C680 C684 1.385 . S
C681 H656 0.951 . S
C681 C679 1.388 . S
C681 C682 1.366 . S
C682 C681 1.366 . S
C682 C683 1.414 . S
C682 C685 1.499 . S
C683 H657 0.950 . S
C683 C682 1.414 . S
C683 C684 1.374 . S
C684 H658 0.950 . S
C684 C680 1.385 . S
C684 C683 1.374 . S
C685 C682 1.499 . S
C685 C686 1.373 . S
C685 C687 1.389 . S
C686 H659 0.950 . S
C686 C672 1.377 . S
C686 C685 1.373 . S
C687 C671 1.377 . S
C687 C685 1.389 . S
C687 C688 1.524 . S
C688 C687 1.524 . S
C688 C689 1.397 . S
C688 C693 1.363 . S
C689 H660 0.950 . S
C689 C688 1.397 . S
C689 C690 1.334 . S
C690 H661 0.950 . S
C690 C689 1.334 . S
C690 C691 1.287 . S
C691 C690 1.287 . S
C691 C692 1.524 . S
C691 H694 0.999 . S
C692 H662 0.950 . S
C692 C691 1.524 . S
C692 C693 1.415 . S
C693 H663 0.950 . S
C693 C688 1.363 . S
C693 C692 1.415 . S
H694 C691 0.999 . S
H695 C676 0.913 . S
H696 C714 0.951 . S
H697 C716 0.951 . S
H698 C718 0.950 . S
H699 C719 0.950 . S
H700 C721 0.950 . S
H701 C724 0.950 . S
H702 C725 0.950 . S
H703 C727 0.950 . S
H704 C728 0.950 . S
H705 C729 0.951 . S
H706 C731 0.951 . S
H707 C733 0.950 . S
H708 C734 0.950 . S
H709 C736 0.950 . S
H710 C739 0.950 . S
H711 C740 0.950 . S
H712 C742 0.950 . S
H713 C743 0.950 . S
C714 H696 0.951 . S
C714 C715 1.366 . S
C714 C716 1.388 . S
C715 C714 1.366 . S
C715 C719 1.385 . S
C716 H697 0.951 . S
C716 C714 1.388 . S
C716 C717 1.366 . S
C717 C716 1.366 . S
C717 C718 1.414 . S
C717 C720 1.499 . S
C718 H698 0.950 . S
C718 C717 1.414 . S
C718 C719 1.374 . S
C719 H699 0.950 . S
C719 C715 1.385 . S
C719 C718 1.374 . S
C720 C717 1.499 . S
C720 C721 1.373 . S
C720 C722 1.389 . S
C721 H700 0.950 . S
C721 C720 1.373 . S
C721 C737 1.377 . S
C722 C720 1.389 . S
C722 C723 1.524 . S
C722 C736 1.377 . S
C723 C722 1.524 . S
C723 C724 1.397 . S
C723 C728 1.363 . S
C724 H701 0.950 . S
C724 C723 1.397 . S
C724 C725 1.334 . S
C725 H702 0.950 . S
C725 C724 1.334 . S
C725 C726 1.287 . S
C726 C725 1.287 . S
C726 C727 1.524 . S
C726 H745 0.913 . S
C727 H703 0.950 . S
C727 C726 1.524 . S
C727 C728 1.415 . S
C728 H704 0.950 . S
C728 C723 1.363 . S
C728 C727 1.415 . S
C729 H705 0.951 . S
C729 C730 1.366 . S
C729 C731 1.388 . S
C730 C729 1.366 . S
C730 C734 1.385 . S
C731 H706 0.951 . S
C731 C729 1.388 . S
C731 C732 1.366 . S
C732 C731 1.366 . S
C732 C733 1.414 . S
C732 C735 1.499 . S
C733 H707 0.950 . S
C733 C732 1.414 . S
C733 C734 1.374 . S
C734 H708 0.950 . S
C734 C730 1.385 . S
C734 C733 1.374 . S
C735 C732 1.499 . S
C735 C736 1.373 . S
C735 C737 1.389 . S
C736 H709 0.950 . S
C736 C722 1.377 . S
C736 C735 1.373 . S
C737 C721 1.377 . S
C737 C735 1.389 . S
C737 C738 1.524 . S
C738 C737 1.524 . S
C738 C739 1.397 . S
C738 C743 1.363 . S
C739 H710 0.950 . S
C739 C738 1.397 . S
C739 C740 1.334 . S
C740 H711 0.950 . S
C740 C739 1.334 . S
C740 C741 1.287 . S
C741 C740 1.287 . S
C741 C742 1.524 . S
C741 H744 0.999 . S
C742 H712 0.950 . S
C742 C741 1.524 . S
C742 C743 1.415 . S
C743 H713 0.950 . S
C743 C738 1.363 . S
C743 C742 1.415 . S
H744 C741 0.999 . S
H745 C726 0.913 . S
H746 C764 0.951 . S
H747 C766 0.951 . S
H748 C768 0.950 . S
H749 C769 0.950 . S
H750 C771 0.950 . S
H751 C774 0.950 . S
H752 C775 0.950 . S
H753 C777 0.950 . S
H754 C778 0.950 . S
H755 C779 0.951 . S
H756 C781 0.951 . S
H757 C783 0.950 . S
H758 C784 0.950 . S
H759 C786 0.950 . S
H760 C789 0.950 . S
H761 C790 0.950 . S
H762 C792 0.950 . S
H763 C793 0.950 . S
C764 H746 0.951 . S
C764 C765 1.366 . S
C764 C766 1.388 . S
C765 C764 1.366 . S
C765 C769 1.385 . S
C766 H747 0.951 . S
C766 C764 1.388 . S
C766 C767 1.366 . S
C767 C766 1.366 . S
C767 C768 1.414 . S
C767 C770 1.499 . S
C768 H748 0.950 . S
C768 C767 1.414 . S
C768 C769 1.374 . S
C769 H749 0.950 . S
C769 C765 1.385 . S
C769 C768 1.374 . S
C770 C767 1.499 . S
C770 C771 1.373 . S
C770 C772 1.389 . S
C771 H750 0.950 . S
C771 C770 1.373 . S
C771 C787 1.377 . S
C772 C770 1.389 . S
C772 C773 1.524 . S
C772 C786 1.377 . S
C773 C772 1.524 . S
C773 C774 1.397 . S
C773 C778 1.363 . S
C774 H751 0.950 . S
C774 C773 1.397 . S
C774 C775 1.334 . S
C775 H752 0.950 . S
C775 C774 1.334 . S
C775 C776 1.287 . S
C776 C775 1.287 . S
C776 C777 1.524 . S
C776 H795 0.913 . S
C777 H753 0.950 . S
C777 C776 1.524 . S
C777 C778 1.415 . S
C778 H754 0.950 . S
C778 C773 1.363 . S
C778 C777 1.415 . S
C779 H755 0.951 . S
C779 C780 1.366 . S
C779 C781 1.388 . S
C780 C779 1.366 . S
C780 C784 1.385 . S
C781 H756 0.951 . S
C781 C779 1.388 . S
C781 C782 1.366 . S
C782 C781 1.366 . S
C782 C783 1.414 . S
C782 C785 1.499 . S
C783 H757 0.950 . S
C783 C782 1.414 . S
C783 C784 1.374 . S
C784 H758 0.950 . S
C784 C780 1.385 . S
C784 C783 1.374 . S
C785 C782 1.499 . S
C785 C786 1.373 . S
C785 C787 1.389 . S
C786 H759 0.950 . S
C786 C772 1.377 . S
C786 C785 1.373 . S
C787 C771 1.377 . S
C787 C785 1.389 . S
C787 C788 1.524 . S
C788 C787 1.524 . S
C788 C789 1.397 . S
C788 C793 1.363 . S
C789 H760 0.950 . S
C789 C788 1.397 . S
C789 C790 1.334 . S
C790 H761 0.950 . S
C790 C789 1.334 . S
C790 C791 1.287 . S
C791 C790 1.287 . S
C791 C792 1.524 . S
C791 H794 0.999 . S
C792 H762 0.950 . S
C792 C791 1.524 . S
C792 C793 1.415 . S
C793 H763 0.950 . S
C793 C788 1.363 . S
C793 C792 1.415 . S
H794 C791 0.999 . S
H795 C776 0.913 . S
H796 C814 0.951 . S
H797 C816 0.951 . S
H798 C818 0.950 . S
H799 C819 0.950 . S
H800 C821 0.950 . S
H801 C824 0.950 . S
H802 C825 0.950 . S
H803 C827 0.950 . S
H804 C828 0.950 . S
H805 C829 0.951 . S
H806 C831 0.951 . S
H807 C833 0.950 . S
H808 C834 0.950 . S
H809 C836 0.950 . S
H810 C839 0.950 . S
H811 C840 0.950 . S
H812 C842 0.950 . S
H813 C843 0.950 . S
C814 H796 0.951 . S
C814 C815 1.366 . S
C814 C816 1.388 . S
C815 C814 1.366 . S
C815 C819 1.385 . S
C816 H797 0.951 . S
C816 C814 1.388 . S
C816 C817 1.366 . S
C817 C816 1.366 . S
C817 C818 1.414 . S
C817 C820 1.499 . S
C818 H798 0.950 . S
C818 C817 1.414 . S
C818 C819 1.374 . S
C819 H799 0.950 . S
C819 C815 1.385 . S
C819 C818 1.374 . S
C820 C817 1.499 . S
C820 C821 1.373 . S
C820 C822 1.389 . S
C821 H800 0.950 . S
C821 C820 1.373 . S
C821 C837 1.377 . S
C822 C820 1.389 . S
C822 C823 1.524 . S
C822 C836 1.377 . S
C823 C822 1.524 . S
C823 C824 1.397 . S
C823 C828 1.363 . S
C824 H801 0.950 . S
C824 C823 1.397 . S
C824 C825 1.334 . S
C825 H802 0.950 . S
C825 C824 1.334 . S
C825 C826 1.287 . S
C826 C825 1.287 . S
C826 C827 1.524 . S
C826 H845 0.913 . S
C827 H803 0.950 . S
C827 C826 1.524 . S
C827 C828 1.415 . S
C828 H804 0.950 . S
C828 C823 1.363 . S
C828 C827 1.415 . S
C829 H805 0.951 . S
C829 C830 1.366 . S
C829 C831 1.388 . S
C830 C829 1.366 . S
C830 C834 1.385 . S
C831 H806 0.951 . S
C831 C829 1.388 . S
C831 C832 1.366 . S
C832 C831 1.366 . S
C832 C833 1.414 . S
C832 C835 1.499 . S
C833 H807 0.950 . S
C833 C832 1.414 . S
C833 C834 1.374 . S
C834 H808 0.950 . S
C834 C830 1.385 . S
C834 C833 1.374 . S
C835 C832 1.499 . S
C835 C836 1.373 . S
C835 C837 1.389 . S
C836 H809 0.950 . S
C836 C822 1.377 . S
C836 C835 1.373 . S
C837 C821 1.377 . S
C837 C835 1.389 . S
C837 C838 1.524 . S
C838 C837 1.524 . S
C838 C839 1.397 . S
C838 C843 1.363 . S
C839 H810 0.950 . S
C839 C838 1.397 . S
C839 C840 1.334 . S
C840 H811 0.950 . S
C840 C839 1.334 . S
C840 C841 1.287 . S
C841 C840 1.287 . S
C841 C842 1.524 . S
C841 H844 0.999 . S
C842 H812 0.950 . S
C842 C841 1.524 . S
C842 C843 1.415 . S
C843 H813 0.950 . S
C843 C838 1.363 . S
C843 C842 1.415 . S
H844 C841 0.999 . S
H845 C826 0.913 . S
H846 C864 0.951 . S
H847 C866 0.951 . S
H848 C868 0.950 . S
H849 C869 0.950 . S
H850 C871 0.950 . S
H851 C874 0.950 . S
H852 C875 0.950 . S
H853 C877 0.950 . S
H854 C878 0.950 . S
H855 C879 0.951 . S
H856 C881 0.951 . S
H857 C883 0.950 . S
H858 C884 0.950 . S
H859 C886 0.950 . S
H860 C889 0.950 . S
H861 C890 0.950 . S
H862 C892 0.950 . S
H863 C893 0.950 . S
C864 H846 0.951 . S
C864 C865 1.366 . S
C864 C866 1.388 . S
C865 C864 1.366 . S
C865 C869 1.385 . S
C866 H847 0.951 . S
C866 C864 1.388 . S
C866 C867 1.366 . S
C867 C866 1.366 . S
C867 C868 1.414 . S
C867 C870 1.499 . S
C868 H848 0.950 . S
C868 C867 1.414 . S
C868 C869 1.374 . S
C869 H849 0.950 . S
C869 C865 1.385 . S
C869 C868 1.374 . S
C870 C867 1.499 . S
C870 C871 1.373 . S
C870 C872 1.389 . S
C871 H850 0.950 . S
C871 C870 1.373 . S
C871 C887 1.377 . S
C872 C870 1.389 . S
C872 C873 1.524 . S
C872 C886 1.377 . S
C873 C872 1.524 . S
C873 C874 1.397 . S
C873 C878 1.363 . S
C874 H851 0.950 . S
C874 C873 1.397 . S
C874 C875 1.334 . S
C875 H852 0.950 . S
C875 C874 1.334 . S
C875 C876 1.287 . S
C876 C875 1.287 . S
C876 C877 1.524 . S
C876 H895 0.913 . S
C877 H853 0.950 . S
C877 C876 1.524 . S
C877 C878 1.415 . S
C878 H854 0.950 . S
C878 C873 1.363 . S
C878 C877 1.415 . S
C879 H855 0.951 . S
C879 C880 1.366 . S
C879 C881 1.388 . S
C880 C879 1.366 . S
C880 C884 1.385 . S
C881 H856 0.951 . S
C881 C879 1.388 . S
C881 C882 1.366 . S
C882 C881 1.366 . S
C882 C883 1.414 . S
C882 C885 1.499 . S
C883 H857 0.950 . S
C883 C882 1.414 . S
C883 C884 1.374 . S
C884 H858 0.950 . S
C884 C880 1.385 . S
C884 C883 1.374 . S
C885 C882 1.499 . S
C885 C886 1.373 . S
C885 C887 1.389 . S
C886 H859 0.950 . S
C886 C872 1.377 . S
C886 C885 1.373 . S
C887 C871 1.377 . S
C887 C885 1.389 . S
C887 C888 1.524 . S
C888 C887 1.524 . S
C888 C889 1.397 . S
C888 C893 1.363 . S
C889 H860 0.950 . S
C889 C888 1.397 . S
C889 C890 1.334 . S
C890 H861 0.950 . S
C890 C889 1.334 . S
C890 C891 1.287 . S
C891 C890 1.287 . S
C891 C892 1.524 . S
C891 H894 0.999 . S
C892 H862 0.950 . S
C892 C891 1.524 . S
C892 C893 1.415 . S
C893 H863 0.950 . S
C893 C888 1.363 . S
C893 C892 1.415 . S
H894 C891 0.999 . S
H895 C876 0.913 . S
H896 C914 0.951 . S
H897 C916 0.951 . S
H898 C918 0.950 . S
H899 C919 0.950 . S
H900 C921 0.950 . S
H901 C924 0.950 . S
H902 C925 0.950 . S
H903 C927 0.950 . S
H904 C928 0.950 . S
H905 C929 0.951 . S
H906 C931 0.951 . S
H907 C933 0.950 . S
H908 C934 0.950 . S
H909 C936 0.950 . S
H910 C939 0.950 . S
H911 C940 0.950 . S
H912 C942 0.950 . S
H913 C943 0.950 . S
C914 H896 0.951 . S
C914 C915 1.366 . S
C914 C916 1.388 . S
C915 C914 1.366 . S
C915 C919 1.385 . S
C916 H897 0.951 . S
C916 C914 1.388 . S
C916 C917 1.366 . S
C917 C916 1.366 . S
C917 C918 1.414 . S
C917 C920 1.499 . S
C918 H898 0.950 . S
C918 C917 1.414 . S
C918 C919 1.374 . S
C919 H899 0.950 . S
C919 C915 1.385 . S
C919 C918 1.374 . S
C920 C917 1.499 . S
C920 C921 1.373 . S
C920 C922 1.389 . S
C921 H900 0.950 . S
C921 C920 1.373 . S
C921 C937 1.377 . S
C922 C920 1.389 . S
C922 C923 1.524 . S
C922 C936 1.377 . S
C923 C922 1.524 . S
C923 C924 1.397 . S
C923 C928 1.363 . S
C924 H901 0.950 . S
C924 C923 1.397 . S
C924 C925 1.334 . S
C925 H902 0.950 . S
C925 C924 1.334 . S
C925 C926 1.287 . S
C926 C925 1.287 . S
C926 C927 1.524 . S
C926 H945 0.913 . S
C927 H903 0.950 . S
C927 C926 1.524 . S
C927 C928 1.415 . S
C928 H904 0.950 . S
C928 C923 1.363 . S
C928 C927 1.415 . S
C929 H905 0.951 . S
C929 C930 1.366 . S
C929 C931 1.388 . S
C930 C929 1.366 . S
C930 C934 1.385 . S
C931 H906 0.951 . S
C931 C929 1.388 . S
C931 C932 1.366 . S
C932 C931 1.366 . S
C932 C933 1.414 . S
C932 C935 1.499 . S
C933 H907 0.950 . S
C933 C932 1.414 . S
C933 C934 1.374 . S
C934 H908 0.950 . S
C934 C930 1.385 . S
C934 C933 1.374 . S
C935 C932 1.499 . S
C935 C936 1.373 . S
C935 C937 1.389 . S
C936 H909 0.950 . S
C936 C922 1.377 . S
C936 C935 1.373 . S
C937 C921 1.377 . S
C937 C935 1.389 . S
C937 C938 1.524 . S
C938 C937 1.524 . S
C938 C939 1.397 . S
C938 C943 1.363 . S
C939 H910 0.950 . S
C939 C938 1.397 . S
C939 C940 1.334 . S
C940 H911 0.950 . S
C940 C939 1.334 . S
C940 C941 1.287 . S
C941 C940 1.287 . S
C941 C942 1.524 . S
C941 H944 0.999 . S
C942 H912 0.950 . S
C942 C941 1.524 . S
C942 C943 1.415 . S
C943 H913 0.950 . S
C943 C938 1.363 . S
C943 C942 1.415 . S
H944 C941 0.999 . S
H945 C926 0.913 . S
H946 C964 0.951 . S
H947 C966 0.951 . S
H948 C968 0.950 . S
H949 C969 0.950 . S
H950 C971 0.950 . S
H951 C974 0.950 . S
H952 C975 0.950 . S
H953 C977 0.950 . S
H954 C978 0.950 . S
H955 C979 0.951 . S
H956 C981 0.951 . S
H957 C983 0.950 . S
H958 C984 0.950 . S
H959 C986 0.950 . S
H960 C989 0.950 . S
H961 C990 0.950 . S
H962 C992 0.950 . S
H963 C993 0.950 . S
C964 H946 0.951 . S
C964 C965 1.366 . S
C964 C966 1.388 . S
C965 C964 1.366 . S
C965 C969 1.385 . S
C966 H947 0.951 . S
C966 C964 1.388 . S
C966 C967 1.366 . S
C967 C966 1.366 . S
C967 C968 1.414 . S
C967 C970 1.499 . S
C968 H948 0.950 . S
C968 C967 1.414 . S
C968 C969 1.374 . S
C969 H949 0.950 . S
C969 C965 1.385 . S
C969 C968 1.374 . S
C970 C967 1.499 . S
C970 C971 1.373 . S
C970 C972 1.389 . S
C971 H950 0.950 . S
C971 C970 1.373 . S
C971 C987 1.377 . S
C972 C970 1.389 . S
C972 C973 1.524 . S
C972 C986 1.377 . S
C973 C972 1.524 . S
C973 C974 1.397 . S
C973 C978 1.363 . S
C974 H951 0.950 . S
C974 C973 1.397 . S
C974 C975 1.334 . S
C975 H952 0.950 . S
C975 C974 1.334 . S
C975 C976 1.287 . S
C976 C975 1.287 . S
C976 C977 1.524 . S
C976 H995 0.913 . S
C977 H953 0.950 . S
C977 C976 1.524 . S
C977 C978 1.415 . S
C978 H954 0.950 . S
C978 C973 1.363 . S
C978 C977 1.415 . S
C979 H955 0.951 . S
C979 C980 1.366 . S
C979 C981 1.388 . S
C980 C979 1.366 . S
C980 C984 1.385 . S
C981 H956 0.951 . S
C981 C979 1.388 . S
C981 C982 1.366 . S
C982 C981 1.366 . S
C982 C983 1.414 . S
C982 C985 1.499 . S
C983 H957 0.950 . S
C983 C982 1.414 . S
C983 C984 1.374 . S
C984 H958 0.950 . S
C984 C980 1.385 . S
C984 C983 1.374 . S
C985 C982 1.499 . S
C985 C986 1.373 . S
C985 C987 1.389 . S
C986 H959 0.950 . S
C986 C972 1.377 . S
C986 C985 1.373 . S
C987 C971 1.377 . S
C987 C985 1.389 . S
C987 C988 1.524 . S
C988 C987 1.524 . S
C988 C989 1.397 . S
C988 C993 1.363 . S
C989 H960 0.950 . S
C989 C988 1.397 . S
C989 C990 1.334 . S
C990 H961 0.950 . S
C990 C989 1.334 . S
C990 C991 1.287 . S
C991 C990 1.287 . S
C991 C992 1.524 . S
C991 H994 0.999 . S
C992 H962 0.950 . S
C992 C991 1.524 . S
C992 C993 1.415 . S
C993 H963 0.950 . S
C993 C988 1.363 . S
C993 C992 1.415 . S
H994 C991 0.999 . S
H995 C976 0.913 . S
H996 C1014 0.951 . S
H997 C1016 0.951 . S
H998 C1018 0.950 . S
H999 C1019 0.950 . S
H1000 C1021 0.950 . S
H1001 C1024 0.950 . S
H1002 C1025 0.950 . S
H1003 C1027 0.950 . S
H1004 C1028 0.950 . S
H1005 C1029 0.951 . S
H1006 C1031 0.951 . S
H1007 C1033 0.950 . S
H1008 C1034 0.950 . S
H1009 C1036 0.950 . S
H1010 C1039 0.950 . S
H1011 C1040 0.950 . S
H1012 C1042 0.950 . S
H1013 C1043 0.950 . S
C1014 H996 0.951 . S
C1014 C1015 1.366 . S
C1014 C1016 1.388 . S
C1015 C1014 1.366 . S
C1015 C1019 1.385 . S
C1016 H997 0.951 . S
C1016 C1014 1.388 . S
C1016 C1017 1.366 . S
C1017 C1016 1.366 . S
C1017 C1018 1.414 . S
C1017 C1020 1.499 . S
C1018 H998 0.950 . S
C1018 C1017 1.414 . S
C1018 C1019 1.374 . S
C1019 H999 0.950 . S
C1019 C1015 1.385 . S
C1019 C1018 1.374 . S
C1020 C1017 1.499 . S
C1020 C1021 1.373 . S
C1020 C1022 1.389 . S
C1021 H1000 0.950 . S
C1021 C1020 1.373 . S
C1021 C1037 1.377 . S
C1022 C1020 1.389 . S
C1022 C1023 1.524 . S
C1022 C1036 1.377 . S
C1023 C1022 1.524 . S
C1023 C1024 1.397 . S
C1023 C1028 1.363 . S
C1024 H1001 0.950 . S
C1024 C1023 1.397 . S
C1024 C1025 1.334 . S
C1025 H1002 0.950 . S
C1025 C1024 1.334 . S
C1025 C1026 1.287 . S
C1026 C1025 1.287 . S
C1026 C1027 1.524 . S
C1026 H1045 0.913 . S
C1027 H1003 0.950 . S
C1027 C1026 1.524 . S
C1027 C1028 1.415 . S
C1028 H1004 0.950 . S
C1028 C1023 1.363 . S
C1028 C1027 1.415 . S
C1029 H1005 0.951 . S
C1029 C1030 1.366 . S
C1029 C1031 1.388 . S
C1030 C1029 1.366 . S
C1030 C1034 1.385 . S
C1031 H1006 0.951 . S
C1031 C1029 1.388 . S
C1031 C1032 1.366 . S
C1032 C1031 1.366 . S
C1032 C1033 1.414 . S
C1032 C1035 1.499 . S
C1033 H1007 0.950 . S
C1033 C1032 1.414 . S
C1033 C1034 1.374 . S
C1034 H1008 0.950 . S
C1034 C1030 1.385 . S
C1034 C1033 1.374 . S
C1035 C1032 1.499 . S
C1035 C1036 1.373 . S
C1035 C1037 1.389 . S
C1036 H1009 0.950 . S
C1036 C1022 1.377 . S
C1036 C1035 1.373 . S
C1037 C1021 1.377 . S
C1037 C1035 1.389 . S
C1037 C1038 1.524 . S
C1038 C1037 1.524 . S
C1038 C1039 1.397 . S
C1038 C1043 1.363 . S
C1039 H1010 0.950 . S
C1039 C1038 1.397 . S
C1039 C1040 1.334 . S
C1040 H1011 0.950 . S
C1040 C1039 1.334 . S
C1040 C1041 1.287 . S
C1041 C1040 1.287 . S
C1041 C1042 1.524 . S
C1041 H1044 0.999 . S
C1042 H1012 0.950 . S
C1042 C1041 1.524 . S
C1042 C1043 1.415 . S
C1043 H1013 0.950 . S
C1043 C1038 1.363 . S
C1043 C1042 1.415 . S
H1044 C1041 0.999 . S
H1045 C1026 0.913 . S
H1046 C1064 0.951 . S
H1047 C1066 0.951 . S
H1048 C1068 0.950 . S
H1049 C1069 0.950 . S
H1050 C1071 0.950 . S
H1051 C1074 0.950 . S
H1052 C1075 0.950 . S
H1053 C1077 0.950 . S
H1054 C1078 0.950 . S
H1055 C1079 0.951 . S
H1056 C1081 0.951 . S
H1057 C1083 0.950 . S
H1058 C1084 0.950 . S
H1059 C1086 0.950 . S
H1060 C1089 0.950 . S
H1061 C1090 0.950 . S
H1062 C1092 0.950 . S
H1063 C1093 0.950 . S
C1064 H1046 0.951 . S
C1064 C1065 1.366 . S
C1064 C1066 1.388 . S
C1065 C1064 1.366 . S
C1065 C1069 1.385 . S
C1066 H1047 0.951 . S
C1066 C1064 1.388 . S
C1066 C1067 1.366 . S
C1067 C1066 1.366 . S
C1067 C1068 1.414 . S
C1067 C1070 1.499 . S
C1068 H1048 0.950 . S
C1068 C1067 1.414 . S
C1068 C1069 1.374 . S
C1069 H1049 0.950 . S
C1069 C1065 1.385 . S
C1069 C1068 1.374 . S
C1070 C1067 1.499 . S
C1070 C1071 1.373 . S
C1070 C1072 1.389 . S
C1071 H1050 0.950 . S
C1071 C1070 1.373 . S
C1071 C1087 1.377 . S
C1072 C1070 1.389 . S
C1072 C1073 1.524 . S
C1072 C1086 1.377 . S
C1073 C1072 1.524 . S
C1073 C1074 1.397 . S
C1073 C1078 1.363 . S
C1074 H1051 0.950 . S
C1074 C1073 1.397 . S
C1074 C1075 1.334 . S
C1075 H1052 0.950 . S
C1075 C1074 1.334 . S
C1075 C1076 1.287 . S
C1076 C1075 1.287 . S
C1076 C1077 1.524 . S
C1076 H1095 0.913 . S
C1077 H1053 0.950 . S
C1077 C1076 1.524 . S
C1077 C1078 1.415 . S
C1078 H1054 0.950 . S
C1078 C1073 1.363 . S
C1078 C1077 1.415 . S
C1079 H1055 0.951 . S
C1079 C1080 1.366 . S
C1079 C1081 1.388 . S
C1080 C1079 1.366 . S
C1080 C1084 1.385 . S
C1081 H1056 0.951 . S
C1081 C1079 1.388 . S
C1081 C1082 1.366 . S
C1082 C1081 1.366 . S
C1082 C1083 1.414 . S
C1082 C1085 1.499 . S
C1083 H1057 0.950 . S
C1083 C1082 1.414 . S
C1083 C1084 1.374 . S
C1084 H1058 0.950 . S
C1084 C1080 1.385 . S
C1084 C1083 1.374 . S
C1085 C1082 1.499 . S
C1085 C1086 1.373 . S
C1085 C1087 1.389 . S
C1086 H1059 0.950 . S
C1086 C1072 1.377 . S
C1086 C1085 1.373 . S
C1087 C1071 1.377 . S
C1087 C1085 1.389 . S
C1087 C1088 1.524 . S
C1088 C1087 1.524 . S
C1088 C1089 1.397 . S
C1088 C1093 1.363 . S
C1089 H1060 0.950 . S
C1089 C1088 1.397 . S
C1089 C1090 1.334 . S
C1090 H1061 0.950 . S
C1090 C1089 1.334 . S
C1090 C1091 1.287 . S
C1091 C1090 1.287 . S
C1091 C1092 1.524 . S
C1091 H1094 0.999 . S
C1092 H1062 0.950 . S
C1092 C1091 1.524 . S
C1092 C1093 1.415 . S
C1093 H1063 0.950 . S
C1093 C1088 1.363 . S
C1093 C1092 1.415 . S
H1094 C1091 0.999 . S
H1095 C1076 0.913 . S
H1096 C1114 0.951 . S
H1097 C1116 0.951 . S
H1098 C1118 0.950 . S
H1099 C1119 0.950 . S
H1100 C1121 0.950 . S
H1101 C1124 0.950 . S
H1102 C1125 0.950 . S
H1103 C1127 0.950 . S
H1104 C1128 0.950 . S
H1105 C1129 0.951 . S
H1106 C1131 0.951 . S
H1107 C1133 0.950 . S
H1108 C1134 0.950 . S
H1109 C1136 0.950 . S
H1110 C1139 0.950 . S
H1111 C1140 0.950 . S
H1112 C1142 0.950 . S
H1113 C1143 0.950 . S
C1114 H1096 0.951 . S
C1114 C1115 1.366 . S
C1114 C1116 1.388 . S
C1115 C1114 1.366 . S
C1115 C1119 1.385 . S
C1116 H1097 0.951 . S
C1116 C1114 1.388 . S
C1116 C1117 1.366 . S
C1117 C1116 1.366 . S
C1117 C1118 1.414 . S
C1117 C1120 1.499 . S
C1118 H1098 0.950 . S
C1118 C1117 1.414 . S
C1118 C1119 1.374 . S
C1119 H1099 0.950 . S
C1119 C1115 1.385 . S
C1119 C1118 1.374 . S
C1120 C1117 1.499 . S
C1120 C1121 1.373 . S
C1120 C1122 1.389 . S
C1121 H1100 0.950 . S
C1121 C1120 1.373 . S
C1121 C1137 1.377 . S
C1122 C1120 1.389 . S
C1122 C1123 1.524 . S
C1122 C1136 1.377 . S
C1123 C1122 1.524 . S
C1123 C1124 1.397 . S
C1123 C1128 1.363 . S
C1124 H1101 0.950 . S
C1124 C1123 1.397 . S
C1124 C1125 1.334 . S
C1125 H1102 0.950 . S
C1125 C1124 1.334 . S
C1125 C1126 1.287 . S
C1126 C1125 1.287 . S
C1126 C1127 1.524 . S
C1126 H1145 0.913 . S
C1127 H1103 0.950 . S
C1127 C1126 1.524 . S
C1127 C1128 1.415 . S
C1128 H1104 0.950 . S
C1128 C1123 1.363 . S
C1128 C1127 1.415 . S
C1129 H1105 0.951 . S
C1129 C1130 1.366 . S
C1129 C1131 1.388 . S
C1130 C1129 1.366 . S
C1130 C1134 1.385 . S
C1131 H1106 0.951 . S
C1131 C1129 1.388 . S
C1131 C1132 1.366 . S
C1132 C1131 1.366 . S
C1132 C1133 1.414 . S
C1132 C1135 1.499 . S
C1133 H1107 0.950 . S
C1133 C1132 1.414 . S
C1133 C1134 1.374 . S
C1134 H1108 0.950 . S
C1134 C1130 1.385 . S
C1134 C1133 1.374 . S
C1135 C1132 1.499 . S
C1135 C1136 1.373 . S
C1135 C1137 1.389 . S
C1136 H1109 0.950 . S
C1136 C1122 1.377 . S
C1136 C1135 1.373 . S
C1137 C1121 1.377 . S
C1137 C1135 1.389 . S
C1137 C1138 1.524 . S
C1138 C1137 1.524 . S
C1138 C1139 1.397 . S
C1138 C1143 1.363 . S
C1139 H1110 0.950 . S
C1139 C1138 1.397 . S
C1139 C1140 1.334 . S
C1140 H1111 0.950 . S
C1140 C1139 1.334 . S
C1140 C1141 1.287 . S
C1141 C1140 1.287 . S
C1141 C1142 1.524 . S
C1141 H1144 0.999 . S
C1142 H1112 0.950 . S
C1142 C1141 1.524 . S
C1142 C1143 1.415 . S
C1143 H1113 0.950 . S
C1143 C1138 1.363 . S
C1143 C1142 1.415 . S
H1144 C1141 0.999 . S
H1145 C1126 0.913 . S
H1146 C1164 0.951 . S
H1147 C1166 0.951 . S
H1148 C1168 0.950 . S
H1149 C1169 0.950 . S
H1150 C1171 0.950 . S
H1151 C1174 0.950 . S
H1152 C1175 0.950 . S
H1153 C1177 0.950 . S
H1154 C1178 0.950 . S
H1155 C1179 0.951 . S
H1156 C1181 0.951 . S
H1157 C1183 0.950 . S
H1158 C1184 0.950 . S
H1159 C1186 0.950 . S
H1160 C1189 0.950 . S
H1161 C1190 0.950 . S
H1162 C1192 0.950 . S
H1163 C1193 0.950 . S
C1164 H1146 0.951 . S
C1164 C1165 1.366 . S
C1164 C1166 1.388 . S
C1165 C1164 1.366 . S
C1165 C1169 1.385 . S
C1166 H1147 0.951 . S
C1166 C1164 1.388 . S
C1166 C1167 1.366 . S
C1167 C1166 1.366 . S
C1167 C1168 1.414 . S
C1167 C1170 1.499 . S
C1168 H1148 0.950 . S
C1168 C1167 1.414 . S
C1168 C1169 1.374 . S
C1169 H1149 0.950 . S
C1169 C1165 1.385 . S
C1169 C1168 1.374 . S
C1170 C1167 1.499 . S
C1170 C1171 1.373 . S
C1170 C1172 1.389 . S
C1171 H1150 0.950 . S
C1171 C1170 1.373 . S
C1171 C1187 1.377 . S
C1172 C1170 1.389 . S
C1172 C1173 1.524 . S
C1172 C1186 1.377 . S
C1173 C1172 1.524 . S
C1173 C1174 1.397 . S
C1173 C1178 1.363 . S
C1174 H1151 0.950 . S
C1174 C1173 1.397 . S
C1174 C1175 1.334 . S
C1175 H1152 0.950 . S
C1175 C1174 1.334 . S
C1175 C1176 1.287 . S
C1176 C1175 1.287 . S
C1176 C1177 1.524 . S
C1176 H1195 0.913 . S
C1177 H1153 0.950 . S
C1177 C1176 1.524 . S
C1177 C1178 1.415 . S
C1178 H1154 0.950 . S
C1178 C1173 1.363 . S
C1178 C1177 1.415 . S
C1179 H1155 0.951 . S
C1179 C1180 1.366 . S
C1179 C1181 1.388 . S
C1180 C1179 1.366 . S
C1180 C1184 1.385 . S
C1181 H1156 0.951 . S
C1181 C1179 1.388 . S
C1181 C1182 1.366 . S
C1182 C1181 1.366 . S
C1182 C1183 1.414 . S
C1182 C1185 1.499 . S
C1183 H1157 0.950 . S
C1183 C1182 1.414 . S
C1183 C1184 1.374 . S
C1184 H1158 0.950 . S
C1184 C1180 1.385 . S
C1184 C1183 1.374 . S
C1185 C1182 1.499 . S
C1185 C1186 1.373 . S
C1185 C1187 1.389 . S
C1186 H1159 0.950 . S
C1186 C1172 1.377 . S
C1186 C1185 1.373 . S
C1187 C1171 1.377 . S
C1187 C1185 1.389 . S
C1187 C1188 1.524 . S
C1188 C1187 1.524 . S
C1188 C1189 1.397 . S
C1188 C1193 1.363 . S
C1189 H1160 0.950 . S
C1189 C1188 1.397 . S
C1189 C1190 1.334 . S
C1190 H1161 0.950 . S
C1190 C1189 1.334 . S
C1190 C1191 1.287 . S
C1191 C1190 1.287 . S
C1191 C1192 1.524 . S
C1191 H1194 0.999 . S
C1192 H1162 0.950 . S
C1192 C1191 1.524 . S
C1192 C1193 1.415 . S
C1193 H1163 0.950 . S
C1193 C1188 1.363 . S
C1193 C1192 1.415 . S
H1194 C1191 0.999 . S
H1195 C1176 0.913 . S
H1196 C1214 0.951 . S
H1197 C1216 0.951 . S
H1198 C1218 0.950 . S
H1199 C1219 0.950 . S
H1200 C1221 0.950 . S
H1201 C1224 0.950 . S
H1202 C1225 0.950 . S
H1203 C1227 0.950 . S
H1204 C1228 0.950 . S
H1205 C1229 0.951 . S
H1206 C1231 0.951 . S
H1207 C1233 0.950 . S
H1208 C1234 0.950 . S
H1209 C1236 0.950 . S
H1210 C1239 0.950 . S
H1211 C1240 0.950 . S
H1212 C1242 0.950 . S
H1213 C1243 0.950 . S
C1214 H1196 0.951 . S
C1214 C1215 1.366 . S
C1214 C1216 1.388 . S
C1215 C1214 1.366 . S
C1215 C1219 1.385 . S
C1216 H1197 0.951 . S
C1216 C1214 1.388 . S
C1216 C1217 1.366 . S
C1217 C1216 1.366 . S
C1217 C1218 1.414 . S
C1217 C1220 1.499 . S
C1218 H1198 0.950 . S
C1218 C1217 1.414 . S
C1218 C1219 1.374 . S
C1219 H1199 0.950 . S
C1219 C1215 1.385 . S
C1219 C1218 1.374 . S
C1220 C1217 1.499 . S
C1220 C1221 1.373 . S
C1220 C1222 1.389 . S
C1221 H1200 0.950 . S
C1221 C1220 1.373 . S
C1221 C1237 1.377 . S
C1222 C1220 1.389 . S
C1222 C1223 1.524 . S
C1222 C1236 1.377 . S
C1223 C1222 1.524 . S
C1223 C1224 1.397 . S
C1223 C1228 1.363 . S
C1224 H1201 0.950 . S
C1224 C1223 1.397 . S
C1224 C1225 1.334 . S
C1225 H1202 0.950 . S
C1225 C1224 1.334 . S
C1225 C1226 1.287 . S
C1226 C1225 1.287 . S
C1226 C1227 1.524 . S
C1226 H1245 0.913 . S
C1227 H1203 0.950 . S
C1227 C1226 1.524 . S
C1227 C1228 1.415 . S
C1228 H1204 0.950 . S
C1228 C1223 1.363 . S
C1228 C1227 1.415 . S
C1229 H1205 0.951 . S
C1229 C1230 1.366 . S
C1229 C1231 1.388 . S
C1230 C1229 1.366 . S
C1230 C1234 1.385 . S
C1231 H1206 0.951 . S
C1231 C1229 1.388 . S
C1231 C1232 1.366 . S
C1232 C1231 1.366 . S
C1232 C1233 1.414 . S
C1232 C1235 1.499 . S
C1233 H1207 0.950 . S
C1233 C1232 1.414 . S
C1233 C1234 1.374 . S
C1234 H1208 0.950 . S
C1234 C1230 1.385 . S
C1234 C1233 1.374 . S
C1235 C1232 1.499 . S
C1235 C1236 1.373 . S
C1235 C1237 1.389 . S
C1236 H1209 0.950 . S
C1236 C1222 1.377 . S
C1236 C1235 1.373 . S
C1237 C1221 1.377 . S
C1237 C1235 1.389 . S
C1237 C1238 1.524 . S
C1238 C1237 1.524 . S
C1238 C1239 1.397 . S
C1238 C1243 1.363 . S
C1239 H1210 0.950 . S
C1239 C1238 1.397 . S
C1239 C1240 1.334 . S
C1240 H1211 0.950 . S
C1240 C1239 1.334 . S
C1240 C1241 1.287 . S
C1241 C1240 1.287 . S
C1241 C1242 1.524 . S
C1241 H1244 0.999 . S
C1242 H1212 0.950 . S
C1242 C1241 1.524 . S
C1242 C1243 1.415 . S
C1243 H1213 0.950 . S
C1243 C1238 1.363 . S
C1243 C1242 1.415 . S
H1244 C1241 0.999 . S
H1245 C1226 0.913 . S
H1246 C1264 0.951 . S
H1247 C1266 0.951 . S
H1248 C1268 0.950 . S
H1249 C1269 0.950 . S
H1250 C1271 0.950 . S
H1251 C1274 0.950 . S
H1252 C1275 0.950 . S
H1253 C1277 0.950 . S
H1254 C1278 0.950 . S
H1255 C1279 0.951 . S
H1256 C1281 0.951 . S
H1257 C1283 0.950 . S
H1258 C1284 0.950 . S
H1259 C1286 0.950 . S
H1260 C1289 0.950 . S
H1261 C1290 0.950 . S
H1262 C1292 0.950 . S
H1263 C1293 0.950 . S
C1264 H1246 0.951 . S
C1264 C1265 1.366 . S
C1264 C1266 1.388 . S
C1265 C1264 1.366 . S
C1265 C1269 1.385 . S
C1266 H1247 0.951 . S
C1266 C1264 1.388 . S
C1266 C1267 1.366 . S
C1267 C1266 1.366 . S
C1267 C1268 1.414 . S
C1267 C1270 1.499 . S
C1268 H1248 0.950 . S
C1268 C1267 1.414 . S
C1268 C1269 1.374 . S
C1269 H1249 0.950 . S
C1269 C1265 1.385 . S
C1269 C1268 1.374 . S
C1270 C1267 1.499 . S
C1270 C1271 1.373 . S
C1270 C1272 1.389 . S
C1271 H1250 0.950 . S
C1271 C1270 1.373 . S
C1271 C1287 1.377 . S
C1272 C1270 1.389 . S
C1272 C1273 1.524 . S
C1272 C1286 1.377 . S
C1273 C1272 1.524 . S
C1273 C1274 1.397 . S
C1273 C1278 1.363 . S
C1274 H1251 0.950 . S
C1274 C1273 1.397 . S
C1274 C1275 1.334 . S
C1275 H1252 0.950 . S
C1275 C1274 1.334 . S
C1275 C1276 1.287 . S
C1276 C1275 1.287 . S
C1276 C1277 1.524 . S
C1276 H1295 0.913 . S
C1277 H1253 0.950 . S
C1277 C1276 1.524 . S
C1277 C1278 1.415 . S
C1278 H1254 0.950 . S
C1278 C1273 1.363 . S
C1278 C1277 1.415 . S
C1279 H1255 0.951 . S
C1279 C1280 1.366 . S
C1279 C1281 1.388 . S
C1280 C1279 1.366 . S
C1280 C1284 1.385 . S
C1281 H1256 0.951 . S
C1281 C1279 1.388 . S
C1281 C1282 1.366 . S
C1282 C1281 1.366 . S
C1282 C1283 1.414 . S
C1282 C1285 1.499 . S
C1283 H1257 0.950 . S
C1283 C1282 1.414 . S
C1283 C1284 1.374 . S
C1284 H1258 0.950 . S
C1284 C1280 1.385 . S
C1284 C1283 1.374 . S
C1285 C1282 1.499 . S
C1285 C1286 1.373 . S
C1285 C1287 1.389 . S
C1286 H1259 0.950 . S
C1286 C1272 1.377 . S
C1286 C1285 1.373 . S
C1287 C1271 1.377 . S
C1287 C1285 1.389 . S
C1287 C1288 1.524 . S
C1288 C1287 1.524 . S
C1288 C1289 1.397 . S
C1288 C1293 1.363 . S
C1289 H1260 0.950 . S
C1289 C1288 1.397 . S
C1289 C1290 1.334 . S
C1290 H1261 0.950 . S
C1290 C1289 1.334 . S
C1290 C1291 1.287 . S
C1291 C1290 1.287 . S
C1291 C1292 1.524 . S
C1291 H1294 0.999 . S
C1292 H1262 0.950 . S
C1292 C1291 1.524 . S
C1292 C1293 1.415 . S
C1293 H1263 0.950 . S
C1293 C1288 1.363 . S
C1293 C1292 1.415 . S
H1294 C1291 0.999 . S
H1295 C1276 0.913 . S
H1296 C1314 0.951 . S
H1297 C1316 0.951 . S
H1298 C1318 0.950 . S
H1299 C1319 0.950 . S
H1300 C1321 0.950 . S
H1301 C1324 0.950 . S
H1302 C1325 0.950 . S
H1303 C1327 0.950 . S
H1304 C1328 0.950 . S
H1305 C1329 0.951 . S
H1306 C1331 0.951 . S
H1307 C1333 0.950 . S
H1308 C1334 0.950 . S
H1309 C1336 0.950 . S
H1310 C1339 0.950 . S
H1311 C1340 0.950 . S
H1312 C1342 0.950 . S
H1313 C1343 0.950 . S
C1314 H1296 0.951 . S
C1314 C1315 1.366 . S
C1314 C1316 1.388 . S
C1315 C1314 1.366 . S
C1315 C1319 1.385 . S
C1316 H1297 0.951 . S
C1316 C1314 1.388 . S
C1316 C1317 1.366 . S
C1317 C1316 1.366 . S
C1317 C1318 1.414 . S
C1317 C1320 1.499 . S
C1318 H1298 0.950 . S
C1318 C1317 1.414 . S
C1318 C1319 1.374 . S
C1319 H1299 0.950 . S
C1319 C1315 1.385 . S
C1319 C1318 1.374 . S
C1320 C1317 1.499 . S
C1320 C1321 1.373 . S
C1320 C1322 1.389 . S
C1321 H1300 0.950 . S
C1321 C1320 1.373 . S
C1321 C1337 1.377 . S
C1322 C1320 1.389 . S
C1322 C1323 1.524 . S
C1322 C1336 1.377 . S
C1323 C1322 1.524 . S
C1323 C1324 1.397 . S
C1323 C1328 1.363 . S
C1324 H1301 0.950 . S
C1324 C1323 1.397 . S
C1324 C1325 1.334 . S
C1325 H1302 0.950 . S
C1325 C1324 1.334 . S
C1325 C1326 1.287 . S
C1326 C1325 1.287 . S
C1326 C1327 1.524 . S
C1326 H1345 0.913 . S
C1327 H1303 0.950 . S
C1327 C1326 1.524 . S
C1327 C1328 1.415 . S
C1328 H1304 0.950 . S
C1328 C1323 1.363 . S
C1328 C1327 1.415 . S
C1329 H1305 0.951 . S
C1329 C1330 1.366 . S
C1329 C1331 1.388 . S
C1330 C1329 1.366 . S
C1330 C1334 1.385 . S
C1331 H1306 0.951 . S
C1331 C1329 1.388 . S
C1331 C1332 1.366 . S
C1332 C1331 1.366 . S
C1332 C1333 1.414 . S
C1332 C1335 1.499 . S
C1333 H1307 0.950 . S
C1333 C1332 1.414 . S
C1333 C1334 1.374 . S
C1334 H1308 0.950 . S
C1334 C1330 1.385 . S
C1334 C1333 1.374 . S
C1335 C1332 1.499 . S
C1335 C1336 1.373 . S
C1335 C1337 1.389 . S
C1336 H1309 0.950 . S
C1336 C1322 1.377 . S
C1336 C1335 1.373 . S
C1337 C1321 1.377 . S
C1337 C1335 1.389 . S
C1337 C1338 1.524 . S
C1338 C1337 1.524 . S
C1338 C1339 1.397 . S
C1338 C1343 1.363 . S
C1339 H1310 0.950 . S
C1339 C1338 1.397 . S
C1339 C1340 1.334 . S
C1340 H1311 0.950 . S
C1340 C1339 1.334 . S
C1340 C1341 1.287 . S
C1341 C1340 1.287 . S
C1341 C1342 1.524 . S
C1341 H1344 0.999 . S
C1342 H1312 0.950 . S
C1342 C1341 1.524 . S
C1342 C1343 1.415 . S
C1343 H1313 0.950 . S
C1343 C1338 1.363 . S
C1343 C1342 1.415 . S
H1344 C1341 0.999 . S
H1345 C1326 0.913 . S
H1346 C1364 0.951 . S
H1347 C1366 0.951 . S
H1348 C1368 0.950 . S
H1349 C1369 0.950 . S
H1350 C1371 0.950 . S
H1351 C1374 0.950 . S
H1352 C1375 0.950 . S
H1353 C1377 0.950 . S
H1354 C1378 0.950 . S
H1355 C1379 0.951 . S
H1356 C1381 0.951 . S
H1357 C1383 0.950 . S
H1358 C1384 0.950 . S
H1359 C1386 0.950 . S
H1360 C1389 0.950 . S
H1361 C1390 0.950 . S
H1362 C1392 0.950 . S
H1363 C1393 0.950 . S
C1364 H1346 0.951 . S
C1364 C1365 1.366 . S
C1364 C1366 1.388 . S
C1365 C1364 1.366 . S
C1365 C1369 1.385 . S
C1366 H1347 0.951 . S
C1366 C1364 1.388 . S
C1366 C1367 1.366 . S
C1367 C1366 1.366 . S
C1367 C1368 1.414 . S
C1367 C1370 1.499 . S
C1368 H1348 0.950 . S
C1368 C1367 1.414 . S
C1368 C1369 1.374 . S
C1369 H1349 0.950 . S
C1369 C1365 1.385 . S
C1369 C1368 1.374 . S
C1370 C1367 1.499 . S
C1370 C1371 1.373 . S
C1370 C1372 1.389 . S
C1371 H1350 0.950 . S
C1371 C1370 1.373 . S
C1371 C1387 1.377 . S
C1372 C1370 1.389 . S
C1372 C1373 1.524 . S
C1372 C1386 1.377 . S
C1373 C1372 1.524 . S
C1373 C1374 1.397 . S
C1373 C1378 1.363 . S
C1374 H1351 0.950 . S
C1374 C1373 1.397 . S
C1374 C1375 1.334 . S
C1375 H1352 0.950 . S
C1375 C1374 1.334 . S
C1375 C1376 1.287 . S
C1376 C1375 1.287 . S
C1376 C1377 1.524 . S
C1376 H1395 0.913 . S
C1377 H1353 0.950 . S
C1377 C1376 1.524 . S
C1377 C1378 1.415 . S
C1378 H1354 0.950 . S
C1378 C1373 1.363 . S
C1378 C1377 1.415 . S
C1379 H1355 0.951 . S
C1379 C1380 1.366 . S
C1379 C1381 1.388 . S
C1380 C1379 1.366 . S
C1380 C1384 1.385 . S
C1381 H1356 0.951 . S
C1381 C1379 1.388 . S
C1381 C1382 1.366 . S
C1382 C1381 1.366 . S
C1382 C1383 1.414 . S
C1382 C1385 1.499 . S
C1383 H1357 0.950 . S
C1383 C1382 1.414 . S
C1383 C1384 1.374 . S
C1384 H1358 0.950 . S
C1384 C1380 1.385 . S
C1384 C1383 1.374 . S
C1385 C1382 1.499 . S
C1385 C1386 1.373 . S
C1385 C1387 1.389 . S
C1386 H1359 0.950 . S
C1386 C1372 1.377 . S
C1386 C1385 1.373 . S
C1387 C1371 1.377 . S
C1387 C1385 1.389 . S
C1387 C1388 1.524 . S
C1388 C1387 1.524 . S
C1388 C1389 1.397 . S
C1388 C1393 1.363 . S
C1389 H1360 0.950 . S
C1389 C1388 1.397 . S
C1389 C1390 1.334 . S
C1390 H1361 0.950 . S
C1390 C1389 1.334 . S
C1390 C1391 1.287 . S
C1391 C1390 1.287 . S
C1391 C1392 1.524 . S
C1391 H1394 0.999 . S
C1392 H1362 0.950 . S
C1392 C1391 1.524 . S
C1392 C1393 1.415 . S
C1393 H1363 0.950 . S
C1393 C1388 1.363 . S
C1393 C1392 1.415 . S
H1394 C1391 0.999 . S
H1395 C1376 0.913 . S
H1396 C1414 0.951 . S
H1397 C1416 0.951 . S
H1398 C1418 0.950 . S
H1399 C1419 0.950 . S
H1400 C1421 0.950 . S
H1401 C1424 0.950 . S
H1402 C1425 0.950 . S
H1403 C1427 0.950 . S
H1404 C1428 0.950 . S
H1405 C1429 0.951 . S
H1406 C1431 0.951 . S
H1407 C1433 0.950 . S
H1408 C1434 0.950 . S
H1409 C1436 0.950 . S
H1410 C1439 0.950 . S
H1411 C1440 0.950 . S
H1412 C1442 0.950 . S
H1413 C1443 0.950 . S
C1414 H1396 0.951 . S
C1414 C1415 1.366 . S
C1414 C1416 1.388 . S
C1415 C1414 1.366 . S
C1415 C1419 1.385 . S
C1416 H1397 0.951 . S
C1416 C1414 1.388 . S
C1416 C1417 1.366 . S
C1417 C1416 1.366 . S
C1417 C1418 1.414 . S
C1417 C1420 1.499 . S
C1418 H1398 0.950 . S
C1418 C1417 1.414 . S
C1418 C1419 1.374 . S
C1419 H1399 0.950 . S
C1419 C1415 1.385 . S
C1419 C1418 1.374 . S
C1420 C1417 1.499 . S
C1420 C1421 1.373 . S
C1420 C1422 1.389 . S
C1421 H1400 0.950 . S
C1421 C1420 1.373 . S
C1421 C1437 1.377 . S
C1422 C1420 1.389 . S
C1422 C1423 1.524 . S
C1422 C1436 1.377 . S
C1423 C1422 1.524 . S
C1423 C1424 1.397 . S
C1423 C1428 1.363 . S
C1424 H1401 0.950 . S
C1424 C1423 1.397 . S
C1424 C1425 1.334 . S
C1425 H1402 0.950 . S
C1425 C1424 1.334 . S
C1425 C1426 1.287 . S
C1426 C1425 1.287 . S
C1426 C1427 1.524 . S
C1426 H1445 0.913 . S
C1427 H1403 0.950 . S
C1427 C1426 1.524 . S
C1427 C1428 1.415 . S
C1428 H1404 0.950 . S
C1428 C1423 1.363 . S
C1428 C1427 1.415 . S
C1429 H1405 0.951 . S
C1429 C1430 1.366 . S
C1429 C1431 1.388 . S
C1430 C1429 1.366 . S
C1430 C1434 1.385 . S
C1431 H1406 0.951 . S
C1431 C1429 1.388 . S
C1431 C1432 1.366 . S
C1432 C1431 1.366 . S
C1432 C1433 1.414 . S
C1432 C1435 1.499 . S
C1433 H1407 0.950 . S
C1433 C1432 1.414 . S
C1433 C1434 1.374 . S
C1434 H1408 0.950 . S
C1434 C1430 1.385 . S
C1434 C1433 1.374 . S
C1435 C1432 1.499 . S
C1435 C1436 1.373 . S
C1435 C1437 1.389 . S
C1436 H1409 0.950 . S
C1436 C1422 1.377 . S
C1436 C1435 1.373 . S
C1437 C1421 1.377 . S
C1437 C1435 1.389 . S
C1437 C1438 1.524 . S
C1438 C1437 1.524 . S
C1438 C1439 1.397 . S
C1438 C1443 1.363 . S
C1439 H1410 0.950 . S
C1439 C1438 1.397 . S
C1439 C1440 1.334 . S
C1440 H1411 0.950 . S
C1440 C1439 1.334 . S
C1440 C1441 1.287 . S
C1441 C1440 1.287 . S
C1441 C1442 1.524 . S
C1441 H1444 0.999 . S
C1442 H1412 0.950 . S
C1442 C1441 1.524 . S
C1442 C1443 1.415 . S
C1443 H1413 0.950 . S
C1443 C1438 1.363 . S
C1443 C1442 1.415 . S
H1444 C1441 0.999 . S
H1445 C1426 0.913 . S
H1446 C1464 0.951 . S
H1447 C1466 0.951 . S
H1448 C1468 0.950 . S
H1449 C1469 0.950 . S
H1450 C1471 0.950 . S
H1451 C1474 0.950 . S
H1452 C1475 0.950 . S
H1453 C1477 0.950 . S
H1454 C1478 0.950 . S
H1455 C1479 0.951 . S
H1456 C1481 0.951 . S
H1457 C1483 0.950 . S
H1458 C1484 0.950 . S
H1459 C1486 0.950 . S
H1460 C1489 0.950 . S
H1461 C1490 0.950 . S
H1462 C1492 0.950 . S
H1463 C1493 0.950 . S
C1464 H1446 0.951 . S
C1464 C1465 1.366 . S
C1464 C1466 1.388 . S
C1465 C1464 1.366 . S
C1465 C1469 1.385 . S
C1466 H1447 0.951 . S
C1466 C1464 1.388 . S
C1466 C1467 1.366 . S
C1467 C1466 1.366 . S
C1467 C1468 1.414 . S
C1467 C1470 1.499 . S
C1468 H1448 0.950 . S
C1468 C1467 1.414 . S
C1468 C1469 1.374 . S
C1469 H1449 0.950 . S
C1469 C1465 1.385 . S
C1469 C1468 1.374 . S
C1470 C1467 1.499 . S
C1470 C1471 1.373 . S
C1470 C1472 1.389 . S
C1471 H1450 0.950 . S
C1471 C1470 1.373 . S
C1471 C1487 1.377 . S
C1472 C1470 1.389 . S
C1472 C1473 1.524 . S
C1472 C1486 1.377 . S
C1473 C1472 1.524 . S
C1473 C1474 1.397 . S
C1473 C1478 1.363 . S
C1474 H1451 0.950 . S
C1474 C1473 1.397 . S
C1474 C1475 1.334 . S
C1475 H1452 0.950 . S
C1475 C1474 1.334 . S
C1475 C1476 1.287 . S
C1476 C1475 1.287 . S
C1476 C1477 1.524 . S
C1476 H1495 0.913 . S
C1477 H1453 0.950 . S
C1477 C1476 1.524 . S
C1477 C1478 1.415 . S
C1478 H1454 0.950 . S
C1478 C1473 1.363 . S
C1478 C1477 1.415 . S
C1479 H1455 0.951 . S
C1479 C1480 1.366 . S
C1479 C1481 1.388 . S
C1480 C1479 1.366 . S
C1480 C1484 1.385 . S
C1481 H1456 0.951 . S
C1481 C1479 1.388 . S
C1481 C1482 1.366 . S
C1482 C1481 1.366 . S
C1482 C1483 1.414 . S
C1482 C1485 1.499 . S
C1483 H1457 0.950 . S
C1483 C1482 1.414 . S
C1483 C1484 1.374 . S
C1484 H1458 0.950 . S
C1484 C1480 1.385 . S
C1484 C1483 1.374 . S
C1485 C1482 1.499 . S
C1485 C1486 1.373 . S
C1485 C1487 1.389 . S
C1486 H1459 0.950 . S
C1486 C1472 1.377 . S
C1486 C1485 1.373 . S
C1487 C1471 1.377 . S
C1487 C1485 1.389 . S
C1487 C1488 1.524 . S
C1488 C1487 1.524 . S
C1488 C1489 1.397 . S
C1488 C1493 1.363 . S
C1489 H1460 0.950 . S
C1489 C1488 1.397 . S
C1489 C1490 1.334 . S
C1490 H1461 0.950 . S
C1490 C1489 1.334 . S
C1490 C1491 1.287 . S
C1491 C1490 1.287 . S
C1491 C1492 1.524 . S
C1491 H1494 0.999 . S
C1492 H1462 0.950 . S
C1492 C1491 1.524 . S
C1492 C1493 1.415 . S
C1493 H1463 0.950 . S
C1493 C1488 1.363 . S
C1493 C1492 1.415 . S
H1494 C1491 0.999 . S
H1495 C1476 0.913 . S
H1496 C1514 0.951 . S
H1497 C1516 0.951 . S
H1498 C1518 0.950 . S
H1499 C1519 0.950 . S
H1500 C1521 0.950 . S
H1501 C1524 0.950 . S
H1502 C1525 0.950 . S
H1503 C1527 0.950 . S
H1504 C1528 0.950 . S
H1505 C1529 0.951 . S
H1506 C1531 0.951 . S
H1507 C1533 0.950 . S
H1508 C1534 0.950 . S
H1509 C1536 0.950 . S
H1510 C1539 0.950 . S
H1511 C1540 0.950 . S
H1512 C1542 0.950 . S
H1513 C1543 0.950 . S
C1514 H1496 0.951 . S
C1514 C1515 1.366 . S
C1514 C1516 1.388 . S
C1515 C1514 1.366 . S
C1515 C1519 1.385 . S
C1516 H1497 0.951 . S
C1516 C1514 1.388 . S
C1516 C1517 1.366 . S
C1517 C1516 1.366 . S
C1517 C1518 1.414 . S
C1517 C1520 1.499 . S
C1518 H1498 0.950 . S
C1518 C1517 1.414 . S
C1518 C1519 1.374 . S
C1519 H1499 0.950 . S
C1519 C1515 1.385 . S
C1519 C1518 1.374 . S
C1520 C1517 1.499 . S
C1520 C1521 1.373 . S
C1520 C1522 1.389 . S
C1521 H1500 0.950 . S
C1521 C1520 1.373 . S
C1521 C1537 1.377 . S
C1522 C1520 1.389 . S
C1522 C1523 1.524 . S
C1522 C1536 1.377 . S
C1523 C1522 1.524 . S
C1523 C1524 1.397 . S
C1523 C1528 1.363 . S
C1524 H1501 0.950 . S
C1524 C1523 1.397 . S
C1524 C1525 1.334 . S
C1525 H1502 0.950 . S
C1525 C1524 1.334 . S
C1525 C1526 1.287 . S
C1526 C1525 1.287 . S
C1526 C1527 1.524 . S
C1526 H1545 0.913 . S
C1527 H1503 0.950 . S
C1527 C1526 1.524 . S
C1527 C1528 1.415 . S
C1528 H1504 0.950 . S
C1528 C1523 1.363 . S
C1528 C1527 1.415 . S
C1529 H1505 0.951 . S
C1529 C1530 1.366 . S
C1529 C1531 1.388 . S
C1530 C1529 1.366 . S
C1530 C1534 1.385 . S
C1531 H1506 0.951 . S
C1531 C1529 1.388 . S
C1531 C1532 1.366 . S
C1532 C1531 1.366 . S
C1532 C1533 1.414 . S
C1532 C1535 1.499 . S
C1533 H1507 0.950 . S
C1533 C1532 1.414 . S
C1533 C1534 1.374 . S
C1534 H1508 0.950 . S
C1534 C1530 1.385 . S
C1534 C1533 1.374 . S
C1535 C1532 1.499 . S
C1535 C1536 1.373 . S
C1535 C1537 1.389 . S
C1536 H1509 0.950 . S
C1536 C1522 1.377 . S
C1536 C1535 1.373 . S
C1537 C1521 1.377 . S
C1537 C1535 1.389 . S
C1537 C1538 1.524 . S
C1538 C1537 1.524 . S
C1538 C1539 1.397 . S
C1538 C1543 1.363 . S
C1539 H1510 0.950 . S
C1539 C1538 1.397 . S
C1539 C1540 1.334 . S
C1540 H1511 0.950 . S
C1540 C1539 1.334 . S
C1540 C1541 1.287 . S
C1541 C1540 1.287 . S
C1541 C1542 1.524 . S
C1541 H1544 0.999 . S
C1542 H1512 0.950 . S
C1542 C1541 1.524 . S
C1542 C1543 1.415 . S
C1543 H1513 0.950 . S
C1543 C1538 1.363 . S
C1543 C1542 1.415 . S
H1544 C1541 0.999 . S
H1545 C1526 0.913 . S
H1546 C1564 0.951 . S
H1547 C1566 0.951 . S
H1548 C1568 0.950 . S
H1549 C1569 0.950 . S
H1550 C1571 0.950 . S
H1551 C1574 0.950 . S
H1552 C1575 0.950 . S
H1553 C1577 0.950 . S
H1554 C1578 0.950 . S
H1555 C1579 0.951 . S
H1556 C1581 0.951 . S
H1557 C1583 0.950 . S
H1558 C1584 0.950 . S
H1559 C1586 0.950 . S
H1560 C1589 0.950 . S
H1561 C1590 0.950 . S
H1562 C1592 0.950 . S
H1563 C1593 0.950 . S
C1564 H1546 0.951 . S
C1564 C1565 1.366 . S
C1564 C1566 1.388 . S
C1565 C1564 1.366 . S
C1565 C1569 1.385 . S
C1566 H1547 0.951 . S
C1566 C1564 1.388 . S
C1566 C1567 1.366 . S
C1567 C1566 1.366 . S
C1567 C1568 1.414 . S
C1567 C1570 1.499 . S
C1568 H1548 0.950 . S
C1568 C1567 1.414 . S
C1568 C1569 1.374 . S
C1569 H1549 0.950 . S
C1569 C1565 1.385 . S
C1569 C1568 1.374 . S
C1570 C1567 1.499 . S
C1570 C1571 1.373 . S
C1570 C1572 1.389 . S
C1571 H1550 0.950 . S
C1571 C1570 1.373 . S
C1571 C1587 1.377 . S
C1572 C1570 1.389 . S
C1572 C1573 1.524 . S
C1572 C1586 1.377 . S
C1573 C1572 1.524 . S
C1573 C1574 1.397 . S
C1573 C1578 1.363 . S
C1574 H1551 0.950 . S
C1574 C1573 1.397 . S
C1574 C1575 1.334 . S
C1575 H1552 0.950 . S
C1575 C1574 1.334 . S
C1575 C1576 1.287 . S
C1576 C1575 1.287 . S
C1576 C1577 1.524 . S
C1576 H1595 0.913 . S
C1577 H1553 0.950 . S
C1577 C1576 1.524 . S
C1577 C1578 1.415 . S
C1578 H1554 0.950 . S
C1578 C1573 1.363 . S
C1578 C1577 1.415 . S
C1579 H1555 0.951 . S
C1579 C1580 1.366 . S
C1579 C1581 1.388 . S
C1580 C1579 1.366 . S
C1580 C1584 1.385 . S
C1581 H1556 0.951 . S
C1581 C1579 1.388 . S
C1581 C1582 1.366 . S
C1582 C1581 1.366 . S
C1582 C1583 1.414 . S
C1582 C1585 1.499 . S
C1583 H1557 0.950 . S
C1583 C1582 1.414 . S
C1583 C1584 1.374 . S
C1584 H1558 0.950 . S
C1584 C1580 1.385 . S
C1584 C1583 1.374 . S
C1585 C1582 1.499 . S
C1585 C1586 1.373 . S
C1585 C1587 1.389 . S
C1586 H1559 0.950 . S
C1586 C1572 1.377 . S
C1586 C1585 1.373 . S
C1587 C1571 1.377 . S
C1587 C1585 1.389 . S
C1587 C1588 1.524 . S
C1588 C1587 1.524 . S
C1588 C1589 1.397 . S
C1588 C1593 1.363 . S
C1589 H1560 0.950 . S
C1589 C1588 1.397 . S
C1589 C1590 1.334 . S
C1590 H1561 0.950 . S
C1590 C1589 1.334 . S
C1590 C1591 1.287 . S
C1591 C1590 1.287 . S
C1591 C1592 1.524 . S
C1591 H1594 0.999 . S
C1592 H1562 0.950 . S
C1592 C1591 1.524 . S
C1592 C1593 1.415 . S
C1593 H1563 0.950 . S
C1593 C1588 1.363 . S
C1593 C1592 1.415 . S
H1594 C1591 0.999 . S
H1595 C1576 0.913 . S
H1596 C1614 0.951 . S
H1597 C1616 0.951 . S
H1598 C1618 0.950 . S
H1599 C1619 0.950 . S
H1600 C1621 0.950 . S
H1601 C1624 0.950 . S
H1602 C1625 0.950 . S
H1603 C1627 0.950 . S
H1604 C1628 0.950 . S
H1605 C1629 0.951 . S
H1606 C1631 0.951 . S
H1607 C1633 0.950 . S
H1608 C1634 0.950 . S
H1609 C1636 0.950 . S
H1610 C1639 0.950 . S
H1611 C1640 0.950 . S
H1612 C1642 0.950 . S
H1613 C1643 0.950 . S
C1614 H1596 0.951 . S
C1614 C1615 1.366 . S
C1614 C1616 1.388 . S
C1615 C1614 1.366 . S
C1615 C1619 1.385 . S
C1616 H1597 0.951 . S
C1616 C1614 1.388 . S
C1616 C1617 1.366 . S
C1617 C1616 1.366 . S
C1617 C1618 1.414 . S
C1617 C1620 1.499 . S
C1618 H1598 0.950 . S
C1618 C1617 1.414 . S
C1618 C1619 1.374 . S
C1619 H1599 0.950 . S
C1619 C1615 1.385 . S
C1619 C1618 1.374 . S
C1620 C1617 1.499 . S
C1620 C1621 1.373 . S
C1620 C1622 1.389 . S
C1621 H1600 0.950 . S
C1621 C1620 1.373 . S
C1621 C1637 1.377 . S
C1622 C1620 1.389 . S
C1622 C1623 1.524 . S
C1622 C1636 1.377 . S
C1623 C1622 1.524 . S
C1623 C1624 1.397 . S
C1623 C1628 1.363 . S
C1624 H1601 0.950 . S
C1624 C1623 1.397 . S
C1624 C1625 1.334 . S
C1625 H1602 0.950 . S
C1625 C1624 1.334 . S
C1625 C1626 1.287 . S
C1626 C1625 1.287 . S
C1626 C1627 1.524 . S
C1626 H1645 0.913 . S
C1627 H1603 0.950 . S
C1627 C1626 1.524 . S
C1627 C1628 1.415 . S
C1628 H1604 0.950 . S
C1628 C1623 1.363 . S
C1628 C1627 1.415 . S
C1629 H1605 0.951 . S
C1629 C1630 1.366 . S
C1629 C1631 1.388 . S
C1630 C1629 1.366 . S
C1630 C1634 1.385 . S
C1631 H1606 0.951 . S
C1631 C1629 1.388 . S
C1631 C1632 1.366 . S
C1632 C1631 1.366 . S
C1632 C1633 1.414 . S
C1632 C1635 1.499 . S
C1633 H1607 0.950 . S
C1633 C1632 1.414 . S
C1633 C1634 1.374 . S
C1634 H1608 0.950 . S
C1634 C1630 1.385 . S
C1634 C1633 1.374 . S
C1635 C1632 1.499 . S
C1635 C1636 1.373 . S
C1635 C1637 1.389 . S
C1636 H1609 0.950 . S
C1636 C1622 1.377 . S
C1636 C1635 1.373 . S
C1637 C1621 1.377 . S
C1637 C1635 1.389 . S
C1637 C1638 1.524 . S
C1638 C1637 1.524 . S
C1638 C1639 1.397 . S
C1638 C1643 1.363 . S
C1639 H1610 0.950 . S
C1639 C1638 1.397 . S
C1639 C1640 1.334 . S
C1640 H1611 0.950 . S
C1640 C1639 1.334 . S
C1640 C1641 1.287 . S
C1641 C1640 1.287 . S
C1641 C1642 1.524 . S
C1641 H1644 0.999 . S
C1642 H1612 0.950 . S
C1642 C1641 1.524 . S
C1642 C1643 1.415 . S
C1643 H1613 0.950 . S
C1643 C1638 1.363 . S
C1643 C1642 1.415 . S
H1644 C1641 0.999 . S
H1645 C1626 0.913 . S
H1646 C1664 0.951 . S
H1647 C1666 0.951 . S
H1648 C1668 0.950 . S
H1649 C1669 0.950 . S
H1650 C1671 0.950 . S
H1651 C1674 0.950 . S
H1652 C1675 0.950 . S
H1653 C1677 0.950 . S
H1654 C1678 0.950 . S
H1655 C1679 0.951 . S
H1656 C1681 0.951 . S
H1657 C1683 0.950 . S
H1658 C1684 0.950 . S
H1659 C1686 0.950 . S
H1660 C1689 0.950 . S
H1661 C1690 0.950 . S
H1662 C1692 0.950 . S
H1663 C1693 0.950 . S
C1664 H1646 0.951 . S
C1664 C1665 1.366 . S
C1664 C1666 1.388 . S
C1665 C1664 1.366 . S
C1665 C1669 1.385 . S
C1666 H1647 0.951 . S
C1666 C1664 1.388 . S
C1666 C1667 1.366 . S
C1667 C1666 1.366 . S
C1667 C1668 1.414 . S
C1667 C1670 1.499 . S
C1668 H1648 0.950 . S
C1668 C1667 1.414 . S
C1668 C1669 1.374 . S
C1669 H1649 0.950 . S
C1669 C1665 1.385 . S
C1669 C1668 1.374 . S
C1670 C1667 1.499 . S
C1670 C1671 1.373 . S
C1670 C1672 1.389 . S
C1671 H1650 0.950 . S
C1671 C1670 1.373 . S
C1671 C1687 1.377 . S
C1672 C1670 1.389 . S
C1672 C1673 1.524 . S
C1672 C1686 1.377 . S
C1673 C1672 1.524 . S
C1673 C1674 1.397 . S
C1673 C1678 1.363 . S
C1674 H1651 0.950 . S
C1674 C1673 1.397 . S
C1674 C1675 1.334 . S
C1675 H1652 0.950 . S
C1675 C1674 1.334 . S
C1675 C1676 1.287 . S
C1676 C1675 1.287 . S
C1676 C1677 1.524 . S
C1676 H1695 0.913 . S
C1677 H1653 0.950 . S
C1677 C1676 1.524 . S
C1677 C1678 1.415 . S
C1678 H1654 0.950 . S
C1678 C1673 1.363 . S
C1678 C1677 1.415 . S
C1679 H1655 0.951 . S
C1679 C1680 1.366 . S
C1679 C1681 1.388 . S
C1680 C1679 1.366 . S
C1680 C1684 1.385 . S
C1681 H1656 0.951 . S
C1681 C1679 1.388 . S
C1681 C1682 1.366 . S
C1682 C1681 1.366 . S
C1682 C1683 1.414 . S
C1682 C1685 1.499 . S
C1683 H1657 0.950 . S
C1683 C1682 1.414 . S
C1683 C1684 1.374 . S
C1684 H1658 0.950 . S
C1684 C1680 1.385 . S
C1684 C1683 1.374 . S
C1685 C1682 1.499 . S
C1685 C1686 1.373 . S
C1685 C1687 1.389 . S
C1686 H1659 0.950 . S
C1686 C1672 1.377 . S
C1686 C1685 1.373 . S
C1687 C1671 1.377 . S
C1687 C1685 1.389 . S
C1687 C1688 1.524 . S
C1688 C1687 1.524 . S
C1688 C1689 1.397 . S
C1688 C1693 1.363 . S
C1689 H1660 0.950 . S
C1689 C1688 1.397 . S
C1689 C1690 1.334 . S
C1690 H1661 0.950 . S
C1690 C1689 1.334 . S
C1690 C1691 1.287 . S
C1691 C1690 1.287 . S
C1691 C1692 1.524 . S
C1691 H1694 0.999 . S
C1692 H1662 0.950 . S
C1692 C1691 1.524 . S
C1692 C1693 1.415 . S
C1693 H1663 0.950 . S
C1693 C1688 1.363 . S
C1693 C1692 1.415 . S
H1694 C1691 0.999 . S
H1695 C1676 0.913 . S
H1696 C1714 0.951 . S
H1697 C1716 0.951 . S
H1698 C1718 0.950 . S
H1699 C1719 0.950 . S
H1700 C1721 0.950 . S
H1701 C1724 0.950 . S
H1702 C1725 0.950 . S
H1703 C1727 0.950 . S
H1704 C1728 0.950 . S
H1705 C1729 0.951 . S
H1706 C1731 0.951 . S
H1707 C1733 0.950 . S
H1708 C1734 0.950 . S
H1709 C1736 0.950 . S
H1710 C1739 0.950 . S
H1711 C1740 0.950 . S
H1712 C1742 0.950 . S
H1713 C1743 0.950 . S
C1714 H1696 0.951 . S
C1714 C1715 1.366 . S
C1714 C1716 1.388 . S
C1715 C1714 1.366 . S
C1715 C1719 1.385 . S
C1716 H1697 0.951 . S
C1716 C1714 1.388 . S
C1716 C1717 1.366 . S
C1717 C1716 1.366 . S
C1717 C1718 1.414 . S
C1717 C1720 1.499 . S
C1718 H1698 0.950 . S
C1718 C1717 1.414 . S
C1718 C1719 1.374 . S
C1719 H1699 0.950 . S
C1719 C1715 1.385 . S
C1719 C1718 1.374 . S
C1720 C1717 1.499 . S
C1720 C1721 1.373 . S
C1720 C1722 1.389 . S
C1721 H1700 0.950 . S
C1721 C1720 1.373 . S
C1721 C1737 1.377 . S
C1722 C1720 1.389 . S
C1722 C1723 1.524 . S
C1722 C1736 1.377 . S
C1723 C1722 1.524 . S
C1723 C1724 1.397 . S
C1723 C1728 1.363 . S
C1724 H1701 0.950 . S
C1724 C1723 1.397 . S
C1724 C1725 1.334 . S
C1725 H1702 0.950 . S
C1725 C1724 1.334 . S
C1725 C1726 1.287 . S
C1726 C1725 1.287 . S
C1726 C1727 1.524 . S
C1726 H1745 0.913 . S
C1727 H1703 0.950 . S
C1727 C1726 1.524 . S
C1727 C1728 1.415 . S
C1728 H1704 0.950 . S
C1728 C1723 1.363 . S
C1728 C1727 1.415 . S
C1729 H1705 0.951 . S
C1729 C1730 1.366 . S
C1729 C1731 1.388 . S
C1730 C1729 1.366 . S
C1730 C1734 1.385 . S
C1731 H1706 0.951 . S
C1731 C1729 1.388 . S
C1731 C1732 1.366 . S
C1732 C1731 1.366 . S
C1732 C1733 1.414 . S
C1732 C1735 1.499 . S
C1733 H1707 0.950 . S
C1733 C1732 1.414 . S
C1733 C1734 1.374 . S
C1734 H1708 0.950 . S
C1734 C1730 1.385 . S
C1734 C1733 1.374 . S
C1735 C1732 1.499 . S
C1735 C1736 1.373 . S
C1735 C1737 1.389 . S
C1736 H1709 0.950 . S
C1736 C1722 1.377 . S
C1736 C1735 1.373 . S
C1737 C1721 1.377 . S
C1737 C1735 1.389 . S
C1737 C1738 1.524 . S
C1738 C1737 1.524 . S
C1738 C1739 1.397 . S
C1738 C1743 1.363 . S
C1739 H1710 0.950 . S
C1739 C1738 1.397 . S
C1739 C1740 1.334 . S
C1740 H1711 0.950 . S
C1740 C1739 1.334 . S
C1740 C1741 1.287 . S
C1741 C1740 1.287 . S
C1741 C1742 1.524 . S
C1741 H1744 0.999 . S
C1742 H1712 0.950 . S
C1742 C1741 1.524 . S
C1742 C1743 1.415 . S
C1743 H1713 0.950 . S
C1743 C1738 1.363 . S
C1743 C1742 1.415 . S
H1744 C1741 0.999 . S
H1745 C1726 0.913 . S
H1746 C1764 0.951 . S
H1747 C1766 0.951 . S
H1748 C1768 0.950 . S
H1749 C1769 0.950 . S
H1750 C1771 0.950 . S
H1751 C1774 0.950 . S
H1752 C1775 0.950 . S
H1753 C1777 0.950 . S
H1754 C1778 0.950 . S
H1755 C1779 0.951 . S
H1756 C1781 0.951 . S
H1757 C1783 0.950 . S
H1758 C1784 0.950 . S
H1759 C1786 0.950 . S
H1760 C1789 0.950 . S
H1761 C1790 0.950 . S
H1762 C1792 0.950 . S
H1763 C1793 0.950 . S
C1764 H1746 0.951 . S
C1764 C1765 1.366 . S
C1764 C1766 1.388 . S
C1765 C1764 1.366 . S
C1765 C1769 1.385 . S
C1766 H1747 0.951 . S
C1766 C1764 1.388 . S
C1766 C1767 1.366 . S
C1767 C1766 1.366 . S
C1767 C1768 1.414 . S
C1767 C1770 1.499 . S
C1768 H1748 0.950 . S
C1768 C1767 1.414 . S
C1768 C1769 1.374 . S
C1769 H1749 0.950 . S
C1769 C1765 1.385 . S
C1769 C1768 1.374 . S
C1770 C1767 1.499 . S
C1770 C1771 1.373 . S
C1770 C1772 1.389 . S
C1771 H1750 0.950 . S
C1771 C1770 1.373 . S
C1771 C1787 1.377 . S
C1772 C1770 1.389 . S
C1772 C1773 1.524 . S
C1772 C1786 1.377 . S
C1773 C1772 1.524 . S
C1773 C1774 1.397 . S
C1773 C1778 1.363 . S
C1774 H1751 0.950 . S
C1774 C1773 1.397 . S
C1774 C1775 1.334 . S
C1775 H1752 0.950 . S
C1775 C1774 1.334 . S
C1775 C1776 1.287 . S
C1776 C1775 1.287 . S
C1776 C1777 1.524 . S
C1776 H1795 0.913 . S
C1777 H1753 0.950 . S
C1777 C1776 1.524 . S
C1777 C1778 1.415 . S
C1778 H1754 0.950 . S
C1778 C1773 1.363 . S
C1778 C1777 1.415 . S
C1779 H1755 0.951 . S
C1779 C1780 1.366 . S
C1779 C1781 1.388 . S
C1780 C1779 1.366 . S
C1780 C1784 1.385 . S
C1781 H1756 0.951 . S
C1781 C1779 1.388 . S
C1781 C1782 1.366 . S
C1782 C1781 1.366 . S
C1782 C1783 1.414 . S
C1782 C1785 1.499 . S
C1783 H1757 0.950 . S
C1783 C1782 1.414 . S
C1783 C1784 1.374 . S
C1784 H1758 0.950 . S
C1784 C1780 1.385 . S
C1784 C1783 1.374 . S
C1785 C1782 1.499 . S
C1785 C1786 1.373 . S
C1785 C1787 1.389 . S
C1786 H1759 0.950 . S
C1786 C1772 1.377 . S
C1786 C1785 1.373 . S
C1787 C1771 1.377 . S
C1787 C1785 1.389 . S
C1787 C1788 1.524 . S
C1788 C1787 1.524 . S
C1788 C1789 1.397 . S
C1788 C1793 1.363 . S
C1789 H1760 0.950 . S
C1789 C1788 1.397 . S
C1789 C1790 1.334 . S
C1790 H1761 0.950 . S
C1790 C1789 1.334 . S
C1790 C1791 1.287 . S
C1791 C1790 1.287 . S
C1791 C1792 1.524 . S
C1791 H1794 0.999 . S
C1792 H1762 0.950 . S
C1792 C1791 1.524 . S
C1792 C1793 1.415 . S
C1793 H1763 0.950 . S
C1793 C1788 1.363 . S
C1793 C1792 1.415 . S
H1794 C1791 0.999 . S
H1795 C1776 0.913 . S
H1796 C1814 0.951 . S
H1797 C1816 0.951 . S
H1798 C1818 0.950 . S
H1799 C1819 0.950 . S
H1800 C1821 0.950 . S
H1801 C1824 0.950 . S
H1802 C1825 0.950 . S
H1803 C1827 0.950 . S
H1804 C1828 0.950 . S
H1805 C1829 0.951 . S
H1806 C1831 0.951 . S
H1807 C1833 0.950 . S
H1808 C1834 0.950 . S
H1809 C1836 0.950 . S
H1810 C1839 0.950 . S
H1811 C1840 0.950 . S
H1812 C1842 0.950 . S
H1813 C1843 0.950 . S
C1814 H1796 0.951 . S
C1814 C1815 1.366 . S
C1814 C1816 1.388 . S
C1815 C1814 1.366 . S
C1815 C1819 1.385 . S
C1816 H1797 0.951 . S
C1816 C1814 1.388 . S
C1816 C1817 1.366 . S
C1817 C1816 1.366 . S
C1817 C1818 1.414 . S
C1817 C1820 1.499 . S
C1818 H1798 0.950 . S
C1818 C1817 1.414 . S
C1818 C1819 1.374 . S
C1819 H1799 0.950 . S
C1819 C1815 1.385 . S
C1819 C1818 1.374 . S
C1820 C1817 1.499 . S
C1820 C1821 1.373 . S
C1820 C1822 1.389 . S
C1821 H1800 0.950 . S
C1821 C1820 1.373 . S
C1821 C1837 1.377 . S
C1822 C1820 1.389 . S
C1822 C1823 1.524 . S
C1822 C1836 1.377 . S
C1823 C1822 1.524 . S
C1823 C1824 1.397 . S
C1823 C1828 1.363 . S
C1824 H1801 0.950 . S
C1824 C1823 1.397 . S
C1824 C1825 1.334 . S
C1825 H1802 0.950 . S
C1825 C1824 1.334 . S
C1825 C1826 1.287 . S
C1826 C1825 1.287 . S
C1826 C1827 1.524 . S
C1826 H1845 0.913 . S
C1827 H1803 0.950 . S
C1827 C1826 1.524 . S
C1827 C1828 1.415 . S
C1828 H1804 0.950 . S
C1828 C1823 1.363 . S
C1828 C1827 1.415 . S
C1829 H1805 0.951 . S
C1829 C1830 1.366 . S
C1829 C1831 1.388 . S
C1830 C1829 1.366 . S
C1830 C1834 1.385 . S
C1831 H1806 0.951 . S
C1831 C1829 1.388 . S
C1831 C1832 1.366 . S
C1832 C1831 1.366 . S
C1832 C1833 1.414 . S
C1832 C1835 1.499 . S
C1833 H1807 0.950 . S
C1833 C1832 1.414 . S
C1833 C1834 1.374 . S
C1834 H1808 0.950 . S
C1834 C1830 1.385 . S
C1834 C1833 1.374 . S
C1835 C1832 1.499 . S
C1835 C1836 1.373 . S
C1835 C1837 1.389 . S
C1836 H1809 0.950 . S
C1836 C1822 1.377 . S
C1836 C1835 1.373 . S
C1837 C1821 1.377 . S
C1837 C1835 1.389 . S
C1837 C1838 1.524 . S
C1838 C1837 1.524 . S
C1838 C1839 1.397 . S
C1838 C1843 1.363 . S
C1839 H1810 0.950 . S
C1839 C1838 1.397 . S
C1839 C1840 1.334 . S
C1840 H1811 0.950 . S
C1840 C1839 1.334 . S
C1840 C1841 1.287 . S
C1841 C1840 1.287 . S
C1841 C1842 1.524 . S
C1841 H1844 0.999 . S
C1842 H1812 0.950 . S
C1842 C1841 1.524 . S
C1842 C1843 1.415 . S
C1843 H1813 0.950 . S
C1843 C1838 1.363 . S
C1843 C1842 1.415 . S
H1844 C1841 0.999 . S
H1845 C1826 0.913 . S
H1846 C1864 0.951 . S
H1847 C1866 0.951 . S
H1848 C1868 0.950 . S
H1849 C1869 0.950 . S
H1850 C1871 0.950 . S
H1851 C1874 0.950 . S
H1852 C1875 0.950 . S
H1853 C1877 0.950 . S
H1854 C1878 0.950 . S
H1855 C1879 0.951 . S
H1856 C1881 0.951 . S
H1857 C1883 0.950 . S
H1858 C1884 0.950 . S
H1859 C1886 0.950 . S
H1860 C1889 0.950 . S
H1861 C1890 0.950 . S
H1862 C1892 0.950 . S
H1863 C1893 0.950 . S
C1864 H1846 0.951 . S
C1864 C1865 1.366 . S
C1864 C1866 1.388 . S
C1865 C1864 1.366 . S
C1865 C1869 1.385 . S
C1866 H1847 0.951 . S
C1866 C1864 1.388 . S
C1866 C1867 1.366 . S
C1867 C1866 1.366 . S
C1867 C1868 1.414 . S
C1867 C1870 1.499 . S
C1868 H1848 0.950 . S
C1868 C1867 1.414 . S
C1868 C1869 1.374 . S
C1869 H1849 0.950 . S
C1869 C1865 1.385 . S
C1869 C1868 1.374 . S
C1870 C1867 1.499 . S
C1870 C1871 1.373 . S
C1870 C1872 1.389 . S
C1871 H1850 0.950 . S
C1871 C1870 1.373 . S
C1871 C1887 1.377 . S
C1872 C1870 1.389 . S
C1872 C1873 1.524 . S
C1872 C1886 1.377 . S
C1873 C1872 1.524 . S
C1873 C1874 1.397 . S
C1873 C1878 1.363 . S
C1874 H1851 0.950 . S
C1874 C1873 1.397 . S
C1874 C1875 1.334 . S
C1875 H1852 0.950 . S
C1875 C1874 1.334 . S
C1875 C1876 1.287 . S
C1876 C1875 1.287 . S
C1876 C1877 1.524 . S
C1876 H1895 0.913 . S
C1877 H1853 0.950 . S
C1877 C1876 1.524 . S
C1877 C1878 1.415 . S
C1878 H1854 0.950 . S
C1878 C1873 1.363 . S
C1878 C1877 1.415 . S
C1879 H1855 0.951 . S
C1879 C1880 1.366 . S
C1879 C1881 1.388 . S
C1880 C1879 1.366 . S
C1880 C1884 1.385 . S
C1881 H1856 0.951 . S
C1881 C1879 1.388 . S
C1881 C1882 1.366 . S
C1882 C1881 1.366 . S
C1882 C1883 1.414 . S
C1882 C1885 1.499 . S
C1883 H1857 0.950 . S
C1883 C1882 1.414 . S
C1883 C1884 1.374 . S
C1884 H1858 0.950 . S
C1884 C1880 1.385 . S
C1884 C1883 1.374 . S
C1885 C1882 1.499 . S
C1885 C1886 1.373 . S
C1885 C1887 1.389 . S
C1886 H1859 0.950 . S
C1886 C1872 1.377 . S
C1886 C1885 1.373 . S
C1887 C1871 1.377 . S
C1887 C1885 1.389 . S
C1887 C1888 1.524 . S
C1888 C1887 1.524 . S
C1888 C1889 1.397 . S
C1888 C1893 1.363 . S
C1889 H1860 0.950 . S
C1889 C1888 1.397 . S
C1889 C1890 1.334 . S
C1890 H1861 0.950 . S
C1890 C1889 1.334 . S
C1890 C1891 1.287 . S
C1891 C1890 1.287 . S
C1891 C1892 1.524 . S
C1891 H1894 0.999 . S
C1892 H1862 0.950 . S
C1892 C1891 1.524 . S
C1892 C1893 1.415 . S
C1893 H1863 0.950 . S
C1893 C1888 1.363 . S
C1893 C1892 1.415 . S
H1894 C1891 0.999 . S
H1895 C1876 0.913 . S
H1896 C1914 0.951 . S
H1897 C1916 0.951 . S
H1898 C1918 0.950 . S
H1899 C1919 0.950 . S
H1900 C1921 0.950 . S
H1901 C1924 0.950 . S
H1902 C1925 0.950 . S
H1903 C1927 0.950 . S
H1904 C1928 0.950 . S
H1905 C1929 0.951 . S
H1906 C1931 0.951 . S
H1907 C1933 0.950 . S
H1908 C1934 0.950 . S
H1909 C1936 0.950 . S
H1910 C1939 0.950 . S
H1911 C1940 0.950 . S
H1912 C1942 0.950 . S
H1913 C1943 0.950 . S
C1914 H1896 0.951 . S
C1914 C1915 1.366 . S
C1914 C1916 1.388 . S
C1915 C1914 1.366 . S
C1915 C1919 1.385 . S
C1916 H1897 0.951 . S
C1916 C1914 1.388 . S
C1916 C1917 1.366 . S
C1917 C1916 1.366 . S
C1917 C1918 1.414 . S
C1917 C1920 1.499 . S
C1918 H1898 0.950 . S
C1918 C1917 1.414 . S
C1918 C1919 1.374 . S
C1919 H1899 0.950 . S
C1919 C1915 1.385 . S
C1919 C1918 1.374 . S
C1920 C1917 1.499 . S
C1920 C1921 1.373 . S
C1920 C1922 1.389 . S
C1921 H1900 0.950 . S
C1921 C1920 1.373 . S
C1921 C1937 1.377 . S
C1922 C1920 1.389 . S
C1922 C1923 1.524 . S
C1922 C1936 1.377 . S
C1923 C1922 1.524 . S
C1923 C1924 1.397 . S
C1923 C1928 1.363 . S
C1924 H1901 0.950 . S
C1924 C1923 1.397 . S
C1924 C1925 1.334 . S
C1925 H1902 0.950 . S
C1925 C1924 1.334 . S
C1925 C1926 1.287 . S
C1926 C1925 1.287 . S
C1926 C1927 1.524 . S
C1926 H1945 0.913 . S
C1927 H1903 0.950 . S
C1927 C1926 1.524 . S
C1927 C1928 1.415 . S
C1928 H1904 0.950 . S
C1928 C1923 1.363 . S
C1928 C1927 1.415 . S
C1929 H1905 0.951 . S
C1929 C1930 1.366 . S
C1929 C1931 1.388 . S
C1930 C1929 1.366 . S
C1930 C1934 1.385 . S
C1931 H1906 0.951 . S
C1931 C1929 1.388 . S
C1931 C1932 1.366 . S
C1932 C1931 1.366 . S
C1932 C1933 1.414 . S
C1932 C1935 1.499 . S
C1933 H1907 0.950 . S
C1933 C1932 1.414 . S
C1933 C1934 1.374 . S
C1934 H1908 0.950 . S
C1934 C1930 1.385 . S
C1934 C1933 1.374 . S
C1935 C1932 1.499 . S
C1935 C1936 1.373 . S
C1935 C1937 1.389 . S
C1936 H1909 0.950 . S
C1936 C1922 1.377 . S
C1936 C1935 1.373 . S
C1937 C1921 1.377 . S
C1937 C1935 1.389 . S
C1937 C1938 1.524 . S
C1938 C1937 1.524 . S
C1938 C1939 1.397 . S
C1938 C1943 1.363 . S
C1939 H1910 0.950 . S
C1939 C1938 1.397 . S
C1939 C1940 1.334 . S
C1940 H1911 0.950 . S
C1940 C1939 1.334 . S
C1940 C1941 1.287 . S
C1941 C1940 1.287 . S
C1941 C1942 1.524 . S
C1941 H1944 0.999 . S
C1942 H1912 0.950 . S
C1942 C1941 1.524 . S
C1942 C1943 1.415 . S
C1943 H1913 0.950 . S
C1943 C1938 1.363 . S
C1943 C1942 1.415 . S
H1944 C1941 0.999 . S
H1945 C1926 0.913 . S
H1946 C1964 0.951 . S
H1947 C1966 0.951 . S
H1948 C1968 0.950 . S
H1949 C1969 0.950 . S
H1950 C1971 0.950 . S
H1951 C1974 0.950 . S
H1952 C1975 0.950 . S
H1953 C1977 0.950 . S
H1954 C1978 0.950 . S
H1955 C1979 0.951 . S
H1956 C1981 0.951 . S
H1957 C1983 0.950 . S
H1958 C1984 0.950 . S
H1959 C1986 0.950 . S
H1960 C1989 0.950 . S
H1961 C1990 0.950 . S
H1962 C1992 0.950 . S
H1963 C1993 0.950 . S
C1964 H1946 0.951 . S
C1964 C1965 1.366 . S
C1964 C1966 1.388 . S
C1965 C1964 1.366 . S
C1965 C1969 1.385 . S
C1966 H1947 0.951 . S
C1966 C1964 1.388 . S
C1966 C1967 1.366 . S
C1967 C1966 1.366 . S
C1967 C1968 1.414 . S
C1967 C1970 1.499 . S
C1968 H1948 0.950 . S
C1968 C1967 1.414 . S
C1968 C1969 1.374 . S
C1969 H1949 0.950 . S
C1969 C1965 1.385 . S
C1969 C1968 1.374 . S
C1970 C1967 1.499 . S
C1970 C1971 1.373 . S
C1970 C1972 1.389 . S
C1971 H1950 0.950 . S
C1971 C1970 1.373 . S
C1971 C1987 1.377 . S
C1972 C1970 1.389 . S
C1972 C1973 1.524 . S
C1972 C1986 1.377 . S
C1973 C1972 1.524 . S
C1973 C1974 1.397 . S
C1973 C1978 1.363 . S
C1974 H1951 0.950 . S
C1974 C1973 1.397 . S
C1974 C1975 1.334 . S
C1975 H1952 0.950 . S
C1975 C1974 1.334 . S
C1975 C1976 1.287 . S
C1976 C1975 1.287 . S
C1976 C1977 1.524 . S
C1976 H1995 0.913 . S
C1977 H1953 0.950 . S
C1977 C1976 1.524 . S
C1977 C1978 1.415 . S
C1978 H1954 0.950 . S
C1978 C1973 1.363 . S
C1978 C1977 1.415 . S
C1979 H1955 0.951 . S
C1979 C1980 1.366 . S
C1979 C1981 1.388 . S
C1980 C1979 1.366 . S
C1980 C1984 1.385 . S
C1981 H1956 0.951 . S
C1981 C1979 1.388 . S
C1981 C1982 1.366 . S
C1982 C1981 1.366 . S
C1982 C1983 1.414 . S
C1982 C1985 1.499 . S
C1983 H1957 0.950 . S
C1983 C1982 1.414 . S
C1983 C1984 1.374 . S
C1984 H1958 0.950 . S
C1984 C1980 1.385 . S
C1984 C1983 1.374 . S
C1985 C1982 1.499 . S
C1985 C1986 1.373 . S
C1985 C1987 1.389 . S
C1986 H1959 0.950 . S
C1986 C1972 1.377 . S
C1986 C1985 1.373 . S
C1987 C1971 1.377 . S
C1987 C1985 1.389 . S
C1987 C1988 1.524 . S
C1988 C1987 1.524 . S
C1988 C1989 1.397 . S
C1988 C1993 1.363 . S
C1989 H1960 0.950 . S
C1989 C1988 1.397 . S
C1989 C1990 1.334 . S
C1990 H1961 0.950 . S
C1990 C1989 1.334 . S
C1990 C1991 1.287 . S
C1991 C1990 1.287 . S
C1991 C1992 1.524 . S
C1991 H1994 0.999 . S
C1992 H1962 0.950 . S
C1992 C1991 1.524 . S
C1992 C1993 1.415 . S
C1993 H1963 0.950 . S
C1993 C1988 1.363 . S
C1993 C1992 1.415 . S
H1994 C1991 0.999 . S
H1995 C1976 0.913 . S
H1996 C2014 0.951 . S
H1997 C2016 0.951 . S
H1998 C2018 0.950 . S
H1999 C2019 0.950 . S
H2000 C2021 0.950 . S
H2001 C2024 0.950 . S
H2002 C2025 0.950 . S
H2003 C2027 0.950 . S
H2004 C2028 0.950 . S
H2005 C2029 0.951 . S
H2006 C2031 0.951 . S
H2007 C2033 0.950 . S
H2008 C2034 0.950 . S
H2009 C2036 0.950 . S
H2010 C2039 0.950 . S
H2011 C2040 0.950 . S
H2012 C2042 0.950 . S
H2013 C2043 0.950 . S
C2014 H1996 0.951 . S
C2014 C2015 1.366 . S
C2014 C2016 1.388 . S
C2015 C2014 1.366 . S
C2015 C2019 1.385 . S
C2016 H1997 0.951 . S
C2016 C2014 1.388 . S
C2016 C2017 1.366 . S
C2017 C2016 1.366 . S
C2017 C2018 1.414 . S
C2017 C2020 1.499 . S
C2018 H1998 0.950 . S
C2018 C2017 1.414 . S
C2018 C2019 1.374 . S
C2019 H1999 0.950 . S
C2019 C2015 1.385 . S
C2019 C2018 1.374 . S
C2020 C2017 1.499 . S
C2020 C2021 1.373 . S
C2020 C2022 1.389 . S
C2021 H2000 0.950 . S
C2021 C2020 1.373 . S
C2021 C2037 1.377 . S
C2022 C2020 1.389 . S
C2022 C2023 1.524 . S
C2022 C2036 1.377 . S
C2023 C2022 1.524 . S
C2023 C2024 1.397 . S
C2023 C2028 1.363 . S
C2024 H2001 0.950 . S
C2024 C2023 1.397 . S
C2024 C2025 1.334 . S
C2025 H2002 0.950 . S
C2025 C2024 1.334 . S
C2025 C2026 1.287 . S
C2026 C2025 1.287 . S
C2026 C2027 1.524 . S
C2026 H2045 0.913 . S
C2027 H2003 0.950 . S
C2027 C2026 1.524 . S
C2027 C2028 1.415 . S
C2028 H2004 0.950 . S
C2028 C2023 1.363 . S
C2028 C2027 1.415 . S
C2029 H2005 0.951 . S
C2029 C2030 1.366 . S
C2029 C2031 1.388 . S
C2030 C2029 1.366 . S
C2030 C2034 1.385 . S
C2031 H2006 0.951 . S
C2031 C2029 1.388 . S
C2031 C2032 1.366 . S
C2032 C2031 1.366 . S
C2032 C2033 1.414 . S
C2032 C2035 1.499 . S
C2033 H2007 0.950 . S
C2033 C2032 1.414 . S
C2033 C2034 1.374 . S
C2034 H2008 0.950 . S
C2034 C2030 1.385 . S
C2034 C2033 1.374 . S
C2035 C2032 1.499 . S
C2035 C2036 1.373 . S
C2035 C2037 1.389 . S
C2036 H2009 0.950 . S
C2036 C2022 1.377 . S
C2036 C2035 1.373 . S
C2037 C2021 1.377 . S
C2037 C2035 1.389 . S
C2037 C2038 1.524 . S
C2038 C2037 1.524 . S
C2038 C2039 1.397 . S
C2038 C2043 1.363 . S
C2039 H2010 0.950 . S
C2039 C2038 1.397 . S
C2039 C2040 1.334 . S
C2040 H2011 0.950 . S
C2040 C2039 1.334 . S
C2040 C2041 1.287 . S
C2041 C2040 1.287 . S
C2041 C2042 1.524 . S
C2041 H2044 0.999 . S
C2042 H2012 0.950 . S
C2042 C2041 1.524 . S
C2042 C2043 1.415 . S
C2043 H2013 0.950 . S
C2043 C2038 1.363 . S
C2043 C2042 1.415 . S
H2044 C2041 0.999 . S
H2045 C2026 0.913 . S
H2046 C2064 0.951 . S
H2047 C2066 0.951 . S
H2048 C2068 0.950 . S
H2049 C2069 0.950 . S
H2050 C2071 0.950 . S
H2051 C2074 0.950 . S
H2052 C2075 0.950 . S
H2053 C2077 0.950 . S
H2054 C2078 0.950 . S
H2055 C2079 0.951 . S
H2056 C2081 0.951 . S
H2057 C2083 0.950 . S
H2058 C2084 0.950 . S
H2059 C2086 0.950 . S
H2060 C2089 0.950 . S
H2061 C2090 0.950 . S
H2062 C2092 0.950 . S
H2063 C2093 0.950 . S
C2064 H2046 0.951 . S
C2064 C2065 1.366 . S
C2064 C2066 1.388 . S
C2065 C2064 1.366 . S
C2065 C2069 1.385 . S
C2066 H2047 0.951 . S
C2066 C2064 1.388 . S
C2066 C2067 1.366 . S
C2067 C2066 1.366 . S
C2067 C2068 1.414 . S
C2067 C2070 1.499 . S
C2068 H2048 0.950 . S
C2068 C2067 1.414 . S
C2068 C2069 1.374 . S
C2069 H2049 0.950 . S
C2069 C2065 1.385 . S
C2069 C2068 1.374 . S
C2070 C2067 1.499 . S
C2070 C2071 1.373 . S
C2070 C2072 1.389 . S
C2071 H2050 0.950 . S
C2071 C2070 1.373 . S
C2071 C2087 1.377 . S
C2072 C2070 1.389 . S
C2072 C2073 1.524 . S
C2072 C2086 1.377 . S
C2073 C2072 1.524 . S
C2073 C2074 1.397 . S
C2073 C2078 1.363 . S
C2074 H2051 0.950 . S
C2074 C2073 1.397 . S
C2074 C2075 1.334 . S
C2075 H2052 0.950 . S
C2075 C2074 1.334 . S
C2075 C2076 1.287 . S
C2076 C2075 1.287 . S
C2076 C2077 1.524 . S
C2076 H2095 0.913 . S
C2077 H2053 0.950 . S
C2077 C2076 1.524 . S
C2077 C2078 1.415 . S
C2078 H2054 0.950 . S
C2078 C2073 1.363 . S
C2078 C2077 1.415 . S
C2079 H2055 0.951 . S
C2079 C2080 1.366 . S
C2079 C2081 1.388 . S
C2080 C2079 1.366 . S
C2080 C2084 1.385 . S
C2081 H2056 0.951 . S
C2081 C2079 1.388 . S
C2081 C2082 1.366 . S
C2082 C2081 1.366 . S
C2082 C2083 1.414 . S
C2082 C2085 1.499 . S
C2083 H2057 0.950 . S
C2083 C2082 1.414 . S
C2083 C2084 1.374 . S
C2084 H2058 0.950 . S
C2084 C2080 1.385 . S
C2084 C2083 1.374 . S
C2085 C2082 1.499 . S
C2085 C2086 1.373 . S
C2085 C2087 1.389 . S
C2086 H2059 0.950 . S
C2086 C2072 1.377 . S
C2086 C2085 1.373 . S
C2087 C2071 1.377 . S
C2087 C2085 1.389 . S
C2087 C2088 1.524 . S
C2088 C2087 1.524 . S
C2088 C2089 1.397 . S
C2088 C2093 1.363 . S
C2089 H2060 0.950 . S
C2089 C2088 1.397 . S
C2089 C2090 1.334 . S
C2090 H2061 0.950 . S
C2090 C2089 1.334 . S
C2090 C2091 1.287 . S
C2091 C2090 1.287 . S
C2091 C2092 1.524 . S
C2091 H2094 0.999 . S
C2092 H2062 0.950 . S
C2092 C2091 1.524 . S
C2092 C2093 1.415 . S
C2093 H2063 0.950 . S
C2093 C2088 1.363 . S
C2093 C2092 1.415 . S
H2094 C2091 0.999 . S
H2095 C2076 0.913 . S
C530 C385 1.502 . S
C515 C36 1.502 . S
C580 C411 1.501 . S
C565 C93 1.497 . S
C630 C425 1.502 . S
C615 C132 1.502 . S
C680 C427 1.501 . S
C665 C174 1.498 . S
C715 C213 1.502 . S
C730 C424 1.501 . S
C780 C426 1.501 . S
C765 C285 1.498 . S
C830 C384 1.502 . S
C815 C324 1.502 . S
C880 C410 1.501 . S
C865 C366 1.498 . S
C930 C412 1.502 . S
C915 C357 1.502 . S
C980 C438 1.501 . S
C965 C222 1.498 . S
C1030 C396 1.502 . S
C1015 C276 1.502 . S
C1080 C398 1.501 . S
C1065 C333 1.498 . S
C1130 C397 1.502 . S
C1115 C84 1.502 . S
C1180 C399 1.501 . S
C1165 C141 1.498 . S
C1230 C413 1.502 . S
C1215 C165 1.502 . S
C1280 C439 1.501 . S
C1265 C45 1.498 . S
C1330 C441 1.502 . S
C1315 C372 1.505 . S
C1365 C237 1.497 . S
C1380 C467 1.504 . S
C1415 C261 1.502 . S
C1430 C480 1.505 . S
C1465 C318 1.498 . S
C1480 C483 1.505 . S
C1515 C69 1.502 . S
C1530 C481 1.498 . S
C1565 C126 1.498 . S
C1580 C482 1.498 . S
C1615 C180 1.502 . S
C1630 C440 1.498 . S
C1680 C466 1.501 . S
C1665 C30 1.494 . S
C1730 C469 1.502 . S
C1715 C21 1.498 . S
C1765 C78 1.498 . S
C1780 C494 1.498 . S
C1815 C117 1.502 . S
C1830 C452 1.498 . S
C1865 C189 1.498 . S
C1880 C454 1.498 . S
C1930 C453 1.502 . S
C1915 C228 1.506 . S
C1980 C455 1.501 . S
C1965 C270 1.501 . S
C2015 C309 1.502 . S
C2030 C468 1.505 . S
C2080 C495 1.501 . S
C2065 C381 1.502 . S
