# Generated by pormake.
# Topology ctn, (3,4)-cn, num edge types: 1
# Building blocks:
#     Node 0, Type 0, BuildingBlock: BELTOD_clean_linker_0, # of connection points: 3
#     Node 1, Type 0, BuildingBlock: BELTOD_clean_linker_0, # of connection points: 3
#     Node 2, Type 0, BuildingBlock: BELTOD_clean_linker_0, # of connection points: 3
#     Node 3, Type 0, BuildingBlock: BELTOD_clean_linker_0, # of connection points: 3
#     Node 4, Type 0, BuildingBlock: BELTOD_clean_linker_0, # of connection points: 3
#     Node 5, Type 0, BuildingBlock: BELTOD_clean_linker_0, # of connection points: 3
#     Node 6, Type 0, BuildingBlock: BELTOD_clean_linker_0, # of connection points: 3
#     Node 7, Type 0, BuildingBlock: BELTOD_clean_linker_0, # of connection points: 3
#     Node 8, Type 0, BuildingBlock: BELTOD_clean_linker_0, # of connection points: 3
#     Node 9, Type 0, BuildingBlock: BELTOD_clean_linker_0, # of connection points: 3
#     Node 10, Type 0, BuildingBlock: BELTOD_clean_linker_0, # of connection points: 3
#     Node 11, Type 0, BuildingBlock: BELTOD_clean_linker_0, # of connection points: 3
#     Node 12, Type 0, BuildingBlock: BELTOD_clean_linker_0, # of connection points: 3
#     Node 13, Type 0, BuildingBlock: BELTOD_clean_linker_0, # of connection points: 3
#     Node 14, Type 0, BuildingBlock: BELTOD_clean_linker_0, # of connection points: 3
#     Node 15, Type 0, BuildingBlock: BELTOD_clean_linker_0, # of connection points: 3
#     Node 16, Type 1, BuildingBlock: AZAVOO_clean_sbu_0, # of connection points: 4
#     Node 17, Type 1, BuildingBlock: AZAVOO_clean_sbu_0, # of connection points: 4
#     Node 18, Type 1, BuildingBlock: AZAVOO_clean_sbu_0, # of connection points: 4
#     Node 19, Type 1, BuildingBlock: AZAVOO_clean_sbu_0, # of connection points: 4
#     Node 20, Type 1, BuildingBlock: AZAVOO_clean_sbu_0, # of connection points: 4
#     Node 21, Type 1, BuildingBlock: AZAVOO_clean_sbu_0, # of connection points: 4
#     Node 22, Type 1, BuildingBlock: AZAVOO_clean_sbu_0, # of connection points: 4
#     Node 23, Type 1, BuildingBlock: AZAVOO_clean_sbu_0, # of connection points: 4
#     Node 24, Type 1, BuildingBlock: AZAVOO_clean_sbu_0, # of connection points: 4
#     Node 25, Type 1, BuildingBlock: AZAVOO_clean_sbu_0, # of connection points: 4
#     Node 26, Type 1, BuildingBlock: AZAVOO_clean_sbu_0, # of connection points: 4
#     Node 27, Type 1, BuildingBlock: AZAVOO_clean_sbu_0, # of connection points: 4
#     Edge 28, Type (0, 1), BuildingBlock: XIVTED_clean_linker_0, # of connection points: 2
#     Edge 29, Type (0, 1), BuildingBlock: XIVTED_clean_linker_0, # of connection points: 2
#     Edge 30, Type (0, 1), BuildingBlock: XIVTED_clean_linker_0, # of connection points: 2
#     Edge 31, Type (0, 1), BuildingBlock: XIVTED_clean_linker_0, # of connection points: 2
#     Edge 32, Type (0, 1), BuildingBlock: XIVTED_clean_linker_0, # of connection points: 2
#     Edge 33, Type (0, 1), BuildingBlock: XIVTED_clean_linker_0, # of connection points: 2
#     Edge 34, Type (0, 1), BuildingBlock: XIVTED_clean_linker_0, # of connection points: 2
#     Edge 35, Type (0, 1), BuildingBlock: XIVTED_clean_linker_0, # of connection points: 2
#     Edge 36, Type (0, 1), BuildingBlock: XIVTED_clean_linker_0, # of connection points: 2
#     Edge 37, Type (0, 1), BuildingBlock: XIVTED_clean_linker_0, # of connection points: 2
#     Edge 38, Type (0, 1), BuildingBlock: XIVTED_clean_linker_0, # of connection points: 2
#     Edge 39, Type (0, 1), BuildingBlock: XIVTED_clean_linker_0, # of connection points: 2
#     Edge 40, Type (0, 1), BuildingBlock: XIVTED_clean_linker_0, # of connection points: 2
#     Edge 41, Type (0, 1), BuildingBlock: XIVTED_clean_linker_0, # of connection points: 2
#     Edge 42, Type (0, 1), BuildingBlock: XIVTED_clean_linker_0, # of connection points: 2
#     Edge 43, Type (0, 1), BuildingBlock: XIVTED_clean_linker_0, # of connection points: 2
#     Edge 44, Type (0, 1), BuildingBlock: XIVTED_clean_linker_0, # of connection points: 2
#     Edge 45, Type (0, 1), BuildingBlock: XIVTED_clean_linker_0, # of connection points: 2
#     Edge 46, Type (0, 1), BuildingBlock: XIVTED_clean_linker_0, # of connection points: 2
#     Edge 47, Type (0, 1), BuildingBlock: XIVTED_clean_linker_0, # of connection points: 2
#     Edge 48, Type (0, 1), BuildingBlock: XIVTED_clean_linker_0, # of connection points: 2
#     Edge 49, Type (0, 1), BuildingBlock: XIVTED_clean_linker_0, # of connection points: 2
#     Edge 50, Type (0, 1), BuildingBlock: XIVTED_clean_linker_0, # of connection points: 2
#     Edge 51, Type (0, 1), BuildingBlock: XIVTED_clean_linker_0, # of connection points: 2
#     Edge 52, Type (0, 1), BuildingBlock: XIVTED_clean_linker_0, # of connection points: 2
#     Edge 53, Type (0, 1), BuildingBlock: XIVTED_clean_linker_0, # of connection points: 2
#     Edge 54, Type (0, 1), BuildingBlock: XIVTED_clean_linker_0, # of connection points: 2
#     Edge 55, Type (0, 1), BuildingBlock: XIVTED_clean_linker_0, # of connection points: 2
#     Edge 56, Type (0, 1), BuildingBlock: XIVTED_clean_linker_0, # of connection points: 2
#     Edge 57, Type (0, 1), BuildingBlock: XIVTED_clean_linker_0, # of connection points: 2
#     Edge 58, Type (0, 1), BuildingBlock: XIVTED_clean_linker_0, # of connection points: 2
#     Edge 59, Type (0, 1), BuildingBlock: XIVTED_clean_linker_0, # of connection points: 2
#     Edge 60, Type (0, 1), BuildingBlock: XIVTED_clean_linker_0, # of connection points: 2
#     Edge 61, Type (0, 1), BuildingBlock: XIVTED_clean_linker_0, # of connection points: 2
#     Edge 62, Type (0, 1), BuildingBlock: XIVTED_clean_linker_0, # of connection points: 2
#     Edge 63, Type (0, 1), BuildingBlock: XIVTED_clean_linker_0, # of connection points: 2
#     Edge 64, Type (0, 1), BuildingBlock: XIVTED_clean_linker_0, # of connection points: 2
#     Edge 65, Type (0, 1), BuildingBlock: XIVTED_clean_linker_0, # of connection points: 2
#     Edge 66, Type (0, 1), BuildingBlock: XIVTED_clean_linker_0, # of connection points: 2
#     Edge 67, Type (0, 1), BuildingBlock: XIVTED_clean_linker_0, # of connection points: 2
#     Edge 68, Type (0, 1), BuildingBlock: XIVTED_clean_linker_0, # of connection points: 2
#     Edge 69, Type (0, 1), BuildingBlock: XIVTED_clean_linker_0, # of connection points: 2
#     Edge 70, Type (0, 1), BuildingBlock: XIVTED_clean_linker_0, # of connection points: 2
#     Edge 71, Type (0, 1), BuildingBlock: XIVTED_clean_linker_0, # of connection points: 2
#     Edge 72, Type (0, 1), BuildingBlock: XIVTED_clean_linker_0, # of connection points: 2
#     Edge 73, Type (0, 1), BuildingBlock: XIVTED_clean_linker_0, # of connection points: 2
#     Edge 74, Type (0, 1), BuildingBlock: XIVTED_clean_linker_0, # of connection points: 2
#     Edge 75, Type (0, 1), BuildingBlock: XIVTED_clean_linker_0, # of connection points: 2
# Relax obj value: 0.002
# Max RMSD: 0.043
# Mean RMSD: 0.025
data_MOF--net-ctn--node1-AZAVOO_clean_sbu_0--node2-BELTOD_clean_linker_0--edge1-XIVTED_clean_linker_0
_symmetry_space_group_name_H-M    P1
_symmetry_Int_Tables_number       1
_symmetry_cell_setting            triclinic
loop_
_symmetry_equiv_pos_as_xyz
'x, y, z'
_cell_length_a     61.479679
_cell_length_b     62.897292
_cell_length_c     62.308048
_cell_angle_alpha  89.411185
_cell_angle_beta   92.86697
_cell_angle_gamma 93.802225
loop_
_atom_site_label
_atom_site_type_symbol
_atom_site_fract_x
_atom_site_fract_y
_atom_site_fract_z
_atom_type_partial_charge
P0 P 0.07847 0.04006 0.04956 0.0
H1 H 0.07309 0.01925 0.09102 0.0
H2 H 0.04103 0.00902 0.11118 0.0
H3 H 0.9993 0.02651 0.0568 0.0
H4 H 0.03162 0.03707 0.03686 0.0
H5 H 0.12398 0.03257 0.04377 0.0
H6 H 0.14174 0.0036 0.02778 0.0
H7 H 0.07858 0.97422 0.00732 0.0
H8 H 0.06091 0.00308 0.02423 0.0
H9 H 0.06944 0.08332 0.05915 0.0
H10 H 0.07009 0.04442 0.00264 0.0
O11 O 0.09634 0.04996 0.06854 0.0
H12 H 0.05807 0.11318 0.03704 0.0
H13 H 0.05825 0.07422 0.98029 0.0
C14 C 0.05471 0.02939 0.0627 0.0
C15 C 0.05704 0.02065 0.08336 0.0
C16 C 0.03864 0.01465 0.0948 0.0
C17 C 0.01754 0.01714 0.08568 0.0
C18 C 0.01531 0.02476 0.06443 0.0
C19 C 0.03377 0.03075 0.05299 0.0
C20 C 0.09115 0.01969 0.03558 0.0
C21 C 0.11395 0.01992 0.03579 0.0
C22 C 0.1241 0.0034 0.0264 0.0
C23 C 0.11163 0.98641 0.01631 0.0
C24 C 0.08871 0.9868 0.0153 0.0
C25 C 0.07856 0.00332 0.02487 0.0
C26 C 0.07104 0.06187 0.03248 0.0
C27 C 0.06722 0.08127 0.04192 0.0
C28 C 0.06045 0.09824 0.02927 0.0
C29 C 0.05717 0.09607 0.00689 0.0
C30 C 0.06087 0.07647 0.99746 0.0
C31 C 0.06765 0.05943 0.0102 0.0
P32 P 0.34898 0.70224 0.21572 0.0
H33 H 0.36968 0.72173 0.17849 0.0
H34 H 0.35664 0.74574 0.15037 0.0
H35 H 0.29766 0.75193 0.18408 0.0
H36 H 0.31101 0.72804 0.21238 0.0
H37 H 0.35892 0.68089 0.25614 0.0
H38 H 0.3777 0.6929 0.2897 0.0
H39 H 0.38272 0.75734 0.26482 0.0
H40 H 0.36407 0.7451 0.23112 0.0
H41 H 0.33011 0.66834 0.18811 0.0
H42 H 0.316 0.69606 0.24843 0.0
O43 O 0.36862 0.68922 0.20514 0.0
H44 H 0.29931 0.64219 0.19136 0.0
H45 H 0.28564 0.66937 0.25233 0.0
C46 C 0.34109 0.72282 0.19726 0.0
C47 C 0.35408 0.72847 0.18 0.0
C48 C 0.34657 0.74214 0.16389 0.0
C49 C 0.32597 0.75045 0.16483 0.0
C50 C 0.31362 0.74583 0.18292 0.0
C51 C 0.32117 0.7321 0.19904 0.0
C52 C 0.35974 0.71215 0.24132 0.0
C53 C 0.36364 0.69768 0.2581 0.0
C54 C 0.37434 0.70459 0.2773 0.0
C55 C 0.38166 0.7261 0.27998 0.0
C56 C 0.3774 0.74064 0.26321 0.0
C57 C 0.36658 0.7337 0.24399 0.0
C58 C 0.32577 0.68361 0.21838 0.0
C59 C 0.32047 0.66864 0.20217 0.0
C60 C 0.30288 0.65367 0.2041 0.0
C61 C 0.29021 0.6534 0.22231 0.0
C62 C 0.29501 0.66911 0.23808 0.0
C63 C 0.31256 0.68421 0.23603 0.0
P64 P 0.98798 0.51729 0.03613 0.0
H65 H 0.99656 0.50172 0.99346 0.0
H66 H 0.99673 0.46618 0.97864 0.0
H67 H 0.97278 0.43952 0.03799 0.0
H68 H 0.97457 0.47506 0.05324 0.0
H69 H 0.97187 0.55939 0.02884 0.0
H70 H 0.93633 0.57371 0.03222 0.0
H71 H 0.91085 0.5128 0.05602 0.0
H72 H 0.94651 0.49848 0.05257 0.0
H73 H 0.03485 0.5219 0.04395 0.0
H74 H 0.9785 0.50856 0.08158 0.0
O75 O 0.00117 0.53373 0.01921 0.0
H76 H 0.05876 0.51728 0.07571 0.0
H77 H 0.00249 0.5033 0.11359 0.0
C78 C 0.98543 0.49111 0.02444 0.0
C79 C 0.99128 0.48823 0.00327 0.0
C80 C 0.99116 0.46778 0.99471 0.0
C81 C 0.98478 0.44973 0.00703 0.0
C82 C 0.97824 0.45285 0.02807 0.0
C83 C 0.97886 0.47329 0.03675 0.0
C84 C 0.96184 0.52772 0.04007 0.0
C85 C 0.95868 0.54904 0.03474 0.0
C86 C 0.93831 0.55722 0.0366 0.0
C87 C 0.92072 0.54431 0.04413 0.0
C88 C 0.9241 0.52313 0.05017 0.0
C89 C 0.9445 0.51489 0.0481 0.0
C90 C 0.0049 0.51597 0.06047 0.0
C91 C 0.0276 0.5182 0.05914 0.0
C92 C 0.04128 0.51529 0.07731 0.0
C93 C 0.03256 0.50973 0.0972 0.0
C94 C 0.00972 0.50777 0.09857 0.0
C95 C 0.99599 0.51075 0.08028 0.0
P96 P 0.67247 0.85135 0.19856 0.0
H97 H 0.70121 0.87715 0.17155 0.0
H98 H 0.73643 0.89702 0.17874 0.0
H99 H 0.73625 0.87642 0.24504 0.0
H100 H 0.7014 0.85601 0.23763 0.0
H101 H 0.66418 0.83509 0.15492 0.0
H102 H 0.67227 0.80209 0.13786 0.0
H103 H 0.70043 0.77976 0.1983 0.0
H104 H 0.69288 0.81339 0.21507 0.0
H105 H 0.66453 0.87955 0.2338 0.0
H106 H 0.64564 0.81485 0.21505 0.0
O107 O 0.6577 0.86573 0.18134 0.0
H108 H 0.64397 0.87451 0.26629 0.0
H109 H 0.62534 0.80963 0.24753 0.0
C110 C 0.69837 0.86572 0.20421 0.0
C111 C 0.70873 0.87695 0.18764 0.0
C112 C 0.72886 0.88819 0.19172 0.0
C113 C 0.73886 0.88842 0.2125 0.0
C114 C 0.72866 0.87676 0.22898 0.0
C115 C 0.70872 0.86519 0.22477 0.0
C116 C 0.67769 0.82654 0.18631 0.0
C117 C 0.67197 0.82306 0.16455 0.0
C118 C 0.67648 0.80405 0.15484 0.0
C119 C 0.68681 0.78808 0.16673 0.0
C120 C 0.6926 0.79172 0.1886 0.0
C121 C 0.68818 0.81086 0.19826 0.0
C122 C 0.65728 0.84736 0.22241 0.0
C123 C 0.65617 0.86419 0.2368 0.0
C124 C 0.64443 0.86129 0.25536 0.0
C125 C 0.63321 0.84161 0.25958 0.0
C126 C 0.63376 0.825 0.24471 0.0
C127 C 0.64561 0.8279 0.22623 0.0
P128 P 0.06033 0.96834 0.4674 0.0
H129 H 0.10746 0.97569 0.47341 0.0
H130 H 0.13074 0.00422 0.49033 0.0
H131 H 0.07369 0.03236 0.51245 0.0
H132 H 0.05037 0.00374 0.495 0.0
H133 H 0.07508 0.92539 0.47062 0.0
H134 H 0.06409 0.89437 0.49188 0.0
H135 H 0.01818 0.93103 0.5236 0.0
H136 H 0.02903 0.9622 0.50151 0.0
H137 H 0.05425 0.01034 0.4487 0.0
H138 H 0.01643 0.95048 0.45431 0.0
O139 O 0.07511 0.95967 0.44792 0.0
H140 H 0.02683 0.02295 0.42284 0.0
H141 H 0.98906 0.96291 0.42815 0.0
C142 C 0.0772 0.98794 0.48251 0.0
C143 C 0.09994 0.98791 0.48202 0.0
C144 C 0.11327 0.00417 0.4919 0.0
C145 C 0.10409 0.02072 0.50261 0.0
C146 C 0.08126 0.02006 0.50401 0.0
C147 C 0.06792 0.00369 0.49413 0.0
C148 C 0.05267 0.94601 0.4843 0.0
C149 C 0.06267 0.92685 0.48214 0.0
C150 C 0.05649 0.90911 0.49453 0.0
C151 C 0.0403 0.91017 0.50959 0.0
C152 C 0.03055 0.92959 0.51202 0.0
C153 C 0.03678 0.94743 0.49951 0.0
C154 C 0.03721 0.97963 0.45382 0.0
C155 C 0.03965 0.0002 0.44502 0.0
C156 C 0.02403 0.00733 0.43008 0.0
C157 C 0.00584 0.99388 0.42336 0.0
C158 C 0.00273 0.97376 0.43321 0.0
C159 C 0.01841 0.96663 0.44818 0.0
P160 P 0.21226 0.73853 0.73617 0.0
H161 H 0.2324 0.7755 0.75935 0.0
H162 H 0.2313 0.78698 0.7966 0.0
H163 H 0.18568 0.73364 0.80935 0.0
H164 H 0.18689 0.72224 0.77198 0.0
H165 H 0.25674 0.73638 0.72215 0.0
H166 H 0.28334 0.70941 0.72642 0.0
H167 H 0.23654 0.66851 0.75966 0.0
H168 H 0.20973 0.69549 0.75475 0.0
H169 H 0.16963 0.75595 0.73643 0.0
H170 H 0.19767 0.70247 0.70815 0.0
O171 O 0.2223 0.75847 0.72095 0.0
H172 H 0.1352 0.74725 0.71629 0.0
H173 H 0.16307 0.69317 0.68848 0.0
C174 C 0.20954 0.74816 0.76289 0.0
C175 C 0.22187 0.76648 0.77005 0.0
C176 C 0.22117 0.77307 0.79134 0.0
C177 C 0.20835 0.76124 0.80589 0.0
C178 C 0.1958 0.743 0.79854 0.0
C179 C 0.19641 0.73652 0.7772 0.0
C180 C 0.2312 0.71787 0.73798 0.0
C181 C 0.25209 0.72154 0.73016 0.0
C182 C 0.26739 0.70615 0.73281 0.0
C183 C 0.26216 0.68682 0.74352 0.0
C184 C 0.24106 0.68311 0.75115 0.0
C185 C 0.22574 0.69855 0.74845 0.0
C186 C 0.18608 0.72964 0.7241 0.0
C187 C 0.16817 0.74197 0.72632 0.0
C188 C 0.14844 0.73692 0.71483 0.0
C189 C 0.1463 0.71948 0.70073 0.0
C190 C 0.16419 0.70684 0.699 0.0
C191 C 0.18396 0.712 0.71043 0.0
P192 P 0.98509 0.4805 0.47635 0.0
H193 H 0.02678 0.46634 0.46336 0.0
H194 H 0.04493 0.46821 0.4295 0.0
H195 H 0.9896 0.49765 0.39919 0.0
H196 H 0.97157 0.49598 0.43352 0.0
H197 H 0.9582 0.49566 0.50945 0.0
H198 H 0.95359 0.5309 0.52379 0.0
H199 H 1.00006 0.55838 0.47977 0.0
H200 H 0.00384 0.52316 0.46494 0.0
H201 H 0.97638 0.43464 0.47862 0.0
H202 H 0.93883 0.48969 0.46875 0.0
O203 O 0.00163 0.46967 0.49486 0.0
H204 H 0.94282 0.41179 0.4794 0.0
H205 H 0.90505 0.46714 0.47076 0.0
C206 C 0.99785 0.48107 0.45094 0.0
C207 C 0.01846 0.47311 0.44945 0.0
C208 C 0.02878 0.47405 0.42998 0.0
C209 C 0.0187 0.483 0.41157 0.0
C210 C 0.99789 0.49082 0.4131 0.0
C211 C 0.98752 0.48978 0.43264 0.0
C212 C 0.98077 0.50685 0.48563 0.0
C213 C 0.96704 0.50934 0.50258 0.0
C214 C 0.96466 0.52951 0.51098 0.0
C215 C 0.97641 0.54758 0.50294 0.0
C216 C 0.99038 0.54494 0.48606 0.0
C217 C 0.99259 0.52474 0.47755 0.0
C218 C 0.96008 0.4639 0.47439 0.0
C219 C 0.96086 0.44181 0.47673 0.0
C220 C 0.94161 0.42879 0.47734 0.0
C221 C 0.92113 0.43764 0.47575 0.0
C222 C 0.92045 0.45973 0.47211 0.0
C223 C 0.93979 0.47271 0.4712 0.0
P224 P 0.83074 0.7957 0.8162 0.0
H225 H 0.86081 0.81843 0.78831 0.0
H226 H 0.8787 0.80834 0.75615 0.0
H227 H 0.84786 0.74478 0.76066 0.0
H228 H 0.82977 0.75513 0.79267 0.0
H229 H 0.81095 0.83086 0.83616 0.0
H230 H 0.78039 0.85201 0.8252 0.0
H231 H 0.76864 0.81387 0.76791 0.0
H232 H 0.79975 0.79323 0.77876 0.0
H233 H 0.84885 0.77699 0.85575 0.0
H234 H 0.7919 0.76599 0.81309 0.0
O235 O 0.84856 0.81146 0.83082 0.0
H236 H 0.83391 0.75052 0.88084 0.0
H237 H 0.777 0.73907 0.83787 0.0
C238 C 0.84428 0.78744 0.79306 0.0
C239 C 0.85806 0.80227 0.78246 0.0
C240 C 0.86833 0.79645 0.76412 0.0
C241 C 0.86484 0.7757 0.75591 0.0
C242 C 0.8508 0.76092 0.76649 0.0
C243 C 0.84055 0.76677 0.7849 0.0
C244 C 0.80794 0.8109 0.80799 0.0
C245 C 0.80185 0.82715 0.82119 0.0
C246 C 0.78416 0.83905 0.81502 0.0
C247 C 0.77204 0.83472 0.79561 0.0
C248 C 0.77784 0.8179 0.78276 0.0
C249 C 0.79562 0.80608 0.78893 0.0
C250 C 0.82125 0.77379 0.83282 0.0
C251 C 0.83326 0.76864 0.85163 0.0
C252 C 0.82475 0.75333 0.86589 0.0
C253 C 0.80411 0.7428 0.8615 0.0
C254 C 0.79273 0.74717 0.84196 0.0
C255 C 0.80125 0.76252 0.82773 0.0
P256 P 0.33176 0.29532 0.31494 0.0
H257 H 0.36743 0.31643 0.29224 0.0
H258 H 0.38884 0.30558 0.26272 0.0
H259 H 0.34945 0.24612 0.25811 0.0
H260 H 0.32824 0.25706 0.28786 0.0
H261 H 0.31424 0.33275 0.33302 0.0
H262 H 0.28366 0.35387 0.32208 0.0
H263 H 0.2695 0.31348 0.26675 0.0
H264 H 0.30046 0.29254 0.27773 0.0
H265 H 0.35151 0.25698 0.33128 0.0
H266 H 0.28938 0.28477 0.33358 0.0
O267 O 0.34905 0.30988 0.33127 0.0
H268 H 0.33884 0.22842 0.35557 0.0
H269 H 0.27694 0.25696 0.35813 0.0
C270 C 0.34663 0.28733 0.29254 0.0
C271 C 0.36343 0.30104 0.28489 0.0
C272 C 0.37556 0.29488 0.2679 0.0
C273 C 0.37098 0.2749 0.25817 0.0
C274 C 0.35366 0.26144 0.26553 0.0
C275 C 0.34149 0.26768 0.2825 0.0
C276 C 0.30994 0.31144 0.30588 0.0
C277 C 0.30471 0.32857 0.31841 0.0
C278 C 0.28701 0.34046 0.31229 0.0
C279 C 0.27408 0.33535 0.29356 0.0
C280 C 0.27928 0.31799 0.28112 0.0
C281 C 0.29699 0.30604 0.28734 0.0
C282 C 0.32132 0.27284 0.33033 0.0
C283 C 0.33504 0.25675 0.33673 0.0
C284 C 0.32783 0.24054 0.35075 0.0
C285 C 0.30682 0.24031 0.3588 0.0
C286 C 0.29303 0.25629 0.35193 0.0
C287 C 0.30022 0.27238 0.3379 0.0
P288 P 0.48264 0.01441 0.54391 0.0
H289 H 0.48399 0.00162 0.499 0.0
H290 H 0.48333 0.96688 0.48176 0.0
H291 H 0.47638 0.93601 0.54359 0.0
H292 H 0.47645 0.97085 0.56058 0.0
H293 H 0.46981 0.0479 0.57155 0.0
H294 H 0.43482 0.0628 0.57681 0.0
H295 H 0.40261 0.01465 0.53513 0.0
H296 H 0.43777 0.00015 0.52961 0.0
H297 H 0.5297 0.0219 0.54935 0.0
H298 H 0.47635 0.0032 0.5893 0.0
O299 O 0.49315 0.03258 0.52696 0.0
H300 H 0.55554 0.01833 0.57992 0.0
H301 H 0.50224 0.99907 0.62006 0.0
C302 C 0.48072 0.98879 0.53112 0.0
C303 C 0.48226 0.98738 0.50883 0.0
C304 C 0.48197 0.96748 0.499 0.0
C305 C 0.48005 0.94863 0.51131 0.0
C306 C 0.47773 0.95018 0.53359 0.0
C307 C 0.47797 0.9701 0.54338 0.0
C308 C 0.45635 0.02271 0.55051 0.0
C309 C 0.45514 0.04028 0.56392 0.0
C310 C 0.43508 0.04875 0.56694 0.0
C311 C 0.41585 0.03991 0.5564 0.0
C312 C 0.41711 0.02197 0.54333 0.0
C313 C 0.43721 0.01352 0.54032 0.0
C314 C 0.50112 0.01322 0.56717 0.0
C315 C 0.52354 0.0172 0.56479 0.0
C316 C 0.53832 0.01492 0.58226 0.0
C317 C 0.53099 0.00831 0.60246 0.0
C318 C 0.50841 0.00444 0.60481 0.0
C319 C 0.4936 0.00676 0.58725 0.0
P320 P 0.17169 0.36365 0.69504 0.0
H321 H 0.20587 0.3779 0.66646 0.0
H322 H 0.23877 0.40177 0.67128 0.0
H323 H 0.22115 0.41552 0.73571 0.0
H324 H 0.18821 0.39182 0.73071 0.0
H325 H 0.14631 0.33033 0.67078 0.0
H326 H 0.15647 0.29799 0.65296 0.0
H327 H 0.22345 0.31124 0.67545 0.0
H328 H 0.21317 0.34291 0.69402 0.0
H329 H 0.12723 0.36384 0.70984 0.0
H330 H 0.1903 0.34674 0.73511 0.0
O331 O 0.15319 0.37477 0.6788 0.0
H332 H 0.11104 0.35229 0.74331 0.0
H333 H 0.17445 0.33586 0.76905 0.0
C334 C 0.19502 0.38245 0.69848 0.0
C335 C 0.20912 0.38602 0.68163 0.0
C336 C 0.22793 0.39963 0.68443 0.0
C337 C 0.23272 0.41027 0.704 0.0
C338 C 0.21792 0.40752 0.72046 0.0
C339 C 0.19918 0.39378 0.71768 0.0
C340 C 0.17913 0.33945 0.68298 0.0
C341 C 0.16315 0.32619 0.67197 0.0
C342 C 0.1689 0.30771 0.66196 0.0
C343 C 0.19073 0.30239 0.66276 0.0
C344 C 0.20655 0.31521 0.67451 0.0
C345 C 0.2007 0.3334 0.68491 0.0
C346 C 0.16 0.35638 0.72016 0.0
C347 C 0.13766 0.35788 0.72274 0.0
C348 C 0.12844 0.35136 0.74197 0.0
C349 C 0.14143 0.34321 0.75897 0.0
C350 C 0.16389 0.34181 0.75624 0.0
C351 C 0.17303 0.34818 0.73694 0.0
P352 P 0.85284 0.20327 0.70756 0.0
H353 H 0.872 0.22793 0.67259 0.0
H354 H 0.85654 0.25249 0.64623 0.0
H355 H 0.79705 0.25063 0.68049 0.0
H356 H 0.81275 0.22621 0.70698 0.0
H357 H 0.8951 0.19304 0.72669 0.0
H358 H 0.91609 0.20518 0.75895 0.0
H359 H 0.86507 0.24593 0.77372 0.0
H360 H 0.844 0.23372 0.74104 0.0
H361 H 0.82292 0.17775 0.67964 0.0
H362 H 0.83216 0.18913 0.74774 0.0
O363 O 0.86924 0.18992 0.69281 0.0
H364 H 0.79217 0.15228 0.68616 0.0
H365 H 0.8015 0.1635 0.75441 0.0
C366 C 0.84328 0.22487 0.69136 0.0
C367 C 0.85578 0.23311 0.67465 0.0
C368 C 0.84692 0.24709 0.65957 0.0
C369 C 0.82544 0.25315 0.66108 0.0
C370 C 0.81364 0.24625 0.67891 0.0
C371 C 0.82254 0.2322 0.69398 0.0
C372 C 0.86812 0.21269 0.73135 0.0
C373 C 0.88844 0.20472 0.73671 0.0
C374 C 0.90048 0.21171 0.75515 0.0
C375 C 0.8923 0.22664 0.76875 0.0
C376 C 0.87174 0.23439 0.76353 0.0
C377 C 0.85977 0.22753 0.74486 0.0
C378 C 0.82993 0.18515 0.71318 0.0
C379 C 0.81831 0.17474 0.69601 0.0
C380 C 0.80078 0.16017 0.69976 0.0
C381 C 0.7945 0.15579 0.72081 0.0
C382 C 0.80585 0.16668 0.738 0.0
C383 C 0.82349 0.18124 0.73421 0.0
P384 P 0.58716 0.54371 0.55594 0.0
H385 H 0.58343 0.52732 0.59966 0.0
H386 H 0.55211 0.51883 0.62143 0.0
H387 H 0.50865 0.52944 0.5662 0.0
H388 H 0.5402 0.53839 0.54463 0.0
H389 H 0.6318 0.53442 0.54798 0.0
H390 H 0.64748 0.50494 0.53066 0.0
H391 H 0.58258 0.47799 0.51296 0.0
H392 H 0.56702 0.50733 0.53119 0.0
H393 H 0.57876 0.58704 0.56592 0.0
H394 H 0.57649 0.54792 0.50933 0.0
O395 O 0.60648 0.55353 0.57359 0.0
H396 H 0.56606 0.61675 0.54436 0.0
H397 H 0.56333 0.57756 0.48757 0.0
C398 C 0.56411 0.53394 0.5707 0.0
C399 C 0.56717 0.52759 0.59218 0.0
C400 C 0.5492 0.52257 0.60458 0.0
C401 C 0.52781 0.52367 0.59563 0.0
C402 C 0.52488 0.52884 0.5737 0.0
C403 C 0.5429 0.53388 0.56132 0.0
C404 C 0.59827 0.5228 0.54126 0.0
C405 C 0.62093 0.52219 0.54035 0.0
C406 C 0.62989 0.50538 0.53019 0.0
C407 C 0.61634 0.48893 0.52044 0.0
C408 C 0.59353 0.49013 0.52064 0.0
C409 C 0.58459 0.50693 0.53098 0.0
C410 C 0.57897 0.56547 0.53915 0.0
C411 C 0.57563 0.58491 0.54878 0.0
C412 C 0.56811 0.6018 0.53647 0.0
C413 C 0.56359 0.59951 0.51424 0.0
C414 C 0.5669 0.57991 0.50461 0.0
C415 C 0.57442 0.56295 0.51702 0.0
P416 P 0.55347 0.46081 0.9607 0.0
H417 H 0.60097 0.46808 0.96306 0.0
H418 H 0.62554 0.49646 0.97857 0.0
H419 H 0.57045 0.52567 0.00364 0.0
H420 H 0.54585 0.49734 0.98746 0.0
H421 H 0.51932 0.42651 0.9563 0.0
H422 H 0.50892 0.39609 0.97918 0.0
H423 H 0.55793 0.41805 0.02738 0.0
H424 H 0.56791 0.44883 0.00468 0.0
H425 H 0.55321 0.4875 0.9226 0.0
H426 H 0.50613 0.46303 0.96722 0.0
O427 O 0.56731 0.44873 0.94251 0.0
H428 H 0.52394 0.50185 0.89998 0.0
H429 H 0.47664 0.47671 0.94417 0.0
C430 C 0.57157 0.48085 0.9738 0.0
C431 C 0.59416 0.48056 0.97193 0.0
C432 C 0.60825 0.49673 0.981 0.0
C433 C 0.6 0.51346 0.99227 0.0
C434 C 0.57733 0.51325 0.99474 0.0
C435 C 0.56325 0.49703 0.9856 0.0
C436 C 0.54389 0.44034 0.97904 0.0
C437 C 0.52735 0.42519 0.97209 0.0
C438 C 0.52144 0.40778 0.98514 0.0
C439 C 0.5325 0.40484 0.00512 0.0
C440 C 0.54908 0.42003 0.01209 0.0
C441 C 0.5547 0.43767 0.99916 0.0
C442 C 0.53178 0.47358 0.94618 0.0
C443 C 0.53658 0.48534 0.9276 0.0
C444 C 0.51986 0.49365 0.91476 0.0
C445 C 0.49801 0.4902 0.92024 0.0
C446 C 0.49333 0.47935 0.93947 0.0
C447 C 0.51017 0.47139 0.95255 0.0
P448 P 0.72868 0.23548 0.23155 0.0
H449 H 0.76305 0.24708 0.26308 0.0
H450 H 0.76353 0.25952 0.30001 0.0
H451 H 0.69307 0.258 0.29645 0.0
H452 H 0.69273 0.2459 0.25911 0.0
H453 H 0.76143 0.21928 0.20472 0.0
H454 H 0.78445 0.18918 0.20891 0.0
H455 H 0.75054 0.16845 0.26528 0.0
H456 H 0.72739 0.19864 0.2609 0.0
H457 H 0.70891 0.25551 0.19366 0.0
H458 H 0.69047 0.20601 0.23894 0.0
O459 O 0.74352 0.25375 0.21796 0.0
H460 H 0.67415 0.249 0.1736 0.0
H461 H 0.65524 0.19946 0.21877 0.0
C462 C 0.72789 0.24534 0.25846 0.0
C463 C 0.74769 0.24948 0.27021 0.0
C464 C 0.74793 0.25649 0.29136 0.0
C465 C 0.72831 0.2595 0.30124 0.0
C466 C 0.70843 0.25588 0.28923 0.0
C467 C 0.70822 0.24881 0.26795 0.0
C468 C 0.74298 0.21138 0.23272 0.0
C469 C 0.75877 0.20815 0.21785 0.0
C470 C 0.772 0.19099 0.22033 0.0
C471 C 0.76956 0.17664 0.23764 0.0
C472 C 0.75281 0.17921 0.25178 0.0
C473 C 0.73962 0.19648 0.24933 0.0
C474 C 0.70233 0.23116 0.21775 0.0
C475 C 0.69736 0.24325 0.19936 0.0
C476 C 0.67748 0.23948 0.18783 0.0
C477 C 0.66207 0.22361 0.19453 0.0
C478 C 0.66681 0.21184 0.2133 0.0
C479 C 0.68691 0.21549 0.22476 0.0
P480 P 0.48917 0.97439 0.98241 0.0
H481 H 0.53601 0.97473 0.97797 0.0
H482 H 0.55894 0.97914 0.94722 0.0
H483 H 0.50139 0.98237 0.90489 0.0
H484 H 0.4784 0.97775 0.93594 0.0
H485 H 0.45962 0.98977 0.01304 0.0
H486 H 0.45493 0.02503 0.02758 0.0
H487 H 0.50545 0.05195 0.98765 0.0
H488 H 0.5095 0.01691 0.97275 0.0
H489 H 0.4774 0.92905 0.98652 0.0
H490 H 0.44539 0.98539 0.96643 0.0
O491 O 0.503 0.96252 0.00237 0.0
H492 H 0.44277 0.90791 0.98264 0.0
H493 H 0.41051 0.96423 0.96217 0.0
C494 C 0.50551 0.97554 0.95919 0.0
C495 C 0.52827 0.97606 0.96206 0.0
C496 C 0.54138 0.97879 0.94447 0.0
C497 C 0.53198 0.98118 0.92362 0.0
C498 C 0.50909 0.98034 0.92072 0.0
C499 C 0.49595 0.97772 0.93844 0.0
C500 C 0.48456 0.00074 0.99148 0.0
C501 C 0.4694 0.00335 0.00716 0.0
C502 C 0.46692 0.0235 0.01564 0.0
C503 C 0.47981 0.04138 0.0088 0.0
C504 C 0.49496 0.03865 0.99302 0.0
C505 C 0.49735 0.01851 0.9845 0.0
C506 C 0.46384 0.95883 0.97724 0.0
C507 C 0.4629 0.93684 0.9811 0.0
C508 C 0.44308 0.92474 0.9787 0.0
C509 C 0.42379 0.93439 0.97222 0.0
C510 C 0.42498 0.95637 0.96755 0.0
C511 C 0.4449 0.96847 0.9699 0.0
Mg512 Mg 0.23552 0.83261 0.00215 0.0
O513 O 0.26935 0.84775 0.99391 0.0
O514 O 0.29119 0.82076 0.99243 0.0
Mg515 Mg 0.27247 0.78943 0.00081 0.0
C516 C 0.28792 0.84058 0.99075 0.0
C517 C 0.198 0.86072 0.99287 0.0
O518 O 0.18866 0.84166 0.99624 0.0
O519 O 0.23041 0.81974 0.96796 0.0
O520 O 0.25154 0.7921 0.96945 0.0
O521 O 0.24418 0.8361 0.0373 0.0
O522 O 0.2502 0.80783 0.01836 0.0
C523 C 0.23779 0.80347 0.95944 0.0
C524 C 0.25239 0.81772 0.03641 0.0
O525 O 0.21872 0.8629 0.99315 0.0
Mg526 Mg 0.16301 0.4979 0.26841 0.0
O527 O 0.14236 0.49688 0.23638 0.0
O528 O 0.16596 0.49647 0.21025 0.0
Mg529 Mg 0.20083 0.49864 0.22463 0.0
C530 C 0.14648 0.49621 0.21649 0.0
C531 C 0.11852 0.50228 0.28992 0.0
O532 O 0.12067 0.521 0.28044 0.0
O533 O 0.17093 0.46289 0.2652 0.0
O534 O 0.1952 0.46547 0.23955 0.0
O535 O 0.16615 0.53382 0.26736 0.0
O536 O 0.18925 0.51314 0.25346 0.0
C537 C 0.18439 0.45455 0.2533 0.0
C538 C 0.18351 0.53205 0.25676 0.0
O539 O 0.1328 0.48892 0.28736 0.0
Mg540 Mg 0.75452 0.65857 0.04273 0.0
O541 O 0.72343 0.63647 0.03604 0.0
O542 O 0.69636 0.65782 0.0283 0.0
Mg543 Mg 0.70921 0.69264 0.031 0.0
C544 C 0.70342 0.63925 0.03075 0.0
C545 C 0.78419 0.62079 0.05522 0.0
O546 O 0.77767 0.62466 0.07447 0.0
O547 O 0.75614 0.66632 0.00698 0.0
O548 O 0.72956 0.68862 0.00149 0.0
O549 O 0.74824 0.6606 0.0779 0.0
O550 O 0.73553 0.68225 0.05292 0.0
C551 C 0.74537 0.67873 0.99478 0.0
C552 C 0.73653 0.67642 0.07277 0.0
O553 O 0.7768 0.63129 0.03923 0.0
Mg554 Mg 0.90225 0.02698 0.24035 0.0
O555 O 0.87803 0.99765 0.23716 0.0
O556 O 0.89744 0.96944 0.2322 0.0
Mg557 Mg 0.93364 0.98036 0.23208 0.0
C558 C 0.87925 0.97771 0.23417 0.0
C559 C 0.88094 0.0673 0.25137 0.0
O560 O 0.90118 0.07361 0.24747 0.0
O561 O 0.91277 0.01712 0.27479 0.0
O562 O 0.93403 0.99096 0.26715 0.0
O563 O 0.90122 0.0319 0.20455 0.0
O564 O 0.92454 0.01217 0.22214 0.0
C565 C 0.9263 0.0033 0.28059 0.0
C566 C 0.91705 0.01939 0.20406 0.0
O567 O 0.87551 0.04744 0.25113 0.0
Mg568 Mg 0.2593 0.16594 0.54349 0.0
O569 O 0.22727 0.14509 0.53849 0.0
O570 O 0.20112 0.16645 0.52783 0.0
Mg571 Mg 0.21614 0.20059 0.52584 0.0
C572 C 0.20744 0.148 0.53271 0.0
C573 C 0.29018 0.13237 0.56225 0.0
O574 O 0.28883 0.14451 0.5791 0.0
O575 O 0.26255 0.16892 0.50719 0.0
O576 O 0.23642 0.19091 0.49793 0.0
O577 O 0.25129 0.17305 0.57748 0.0
O578 O 0.24226 0.19249 0.54917 0.0
C579 C 0.25207 0.17971 0.49312 0.0
C580 C 0.24177 0.18933 0.56954 0.0
O581 O 0.27917 0.1365 0.54507 0.0
Mg582 Mg 0.40179 0.54187 0.74258 0.0
O583 O 0.37618 0.51432 0.73511 0.0
O584 O 0.39352 0.48463 0.73113 0.0
Mg585 Mg 0.43005 0.49289 0.73688 0.0
C586 C 0.37599 0.49441 0.73124 0.0
C587 C 0.37924 0.58277 0.75301 0.0
O588 O 0.39969 0.59005 0.75196 0.0
O589 O 0.40684 0.53011 0.77724 0.0
O590 O 0.42468 0.50081 0.77212 0.0
O591 O 0.4058 0.54776 0.70751 0.0
O592 O 0.42549 0.52611 0.72727 0.0
C593 C 0.41644 0.5139 0.78448 0.0
C594 C 0.42081 0.53423 0.7087 0.0
O595 O 0.37454 0.56292 0.75074 0.0
Mg596 Mg 0.73263 0.33143 0.49816 0.0
O597 O 0.76726 0.34738 0.49427 0.0
O598 O 0.79023 0.32122 0.49732 0.0
Mg599 Mg 0.7711 0.28929 0.50131 0.0
C600 C 0.78657 0.34085 0.49475 0.0
C601 C 0.69591 0.36051 0.48974 0.0
O602 O 0.68632 0.34189 0.49452 0.0
O603 O 0.73202 0.31942 0.46347 0.0
O604 O 0.75504 0.29349 0.4677 0.0
O605 O 0.73723 0.33411 0.53402 0.0
O606 O 0.74568 0.30638 0.51552 0.0
C607 C 0.74203 0.30417 0.45593 0.0
C608 C 0.74585 0.3159 0.53371 0.0
O609 O 0.71653 0.36195 0.48843 0.0
Mg610 Mg 0.66723 0.00171 0.76999 0.0
O611 O 0.64559 7e-05 0.73852 0.0
O612 O 0.66846 0.9983 0.71189 0.0
Mg613 Mg 0.70367 0.00012 0.72529 0.0
C614 C 0.64919 0.99866 0.71855 0.0
C615 C 0.63858 0.00567 0.80748 0.0
O616 O 0.65531 0.01953 0.81094 0.0
O617 O 0.67396 0.96638 0.76765 0.0
O618 O 0.69761 0.96757 0.74147 0.0
O619 O 0.67094 0.03745 0.76802 0.0
O620 O 0.69319 0.01608 0.75377 0.0
C621 C 0.68689 0.95732 0.75574 0.0
C622 C 0.68785 0.03519 0.7569 0.0
O623 O 0.63778 0.99453 0.7905 0.0
Mg624 Mg 0.03469 0.27395 0.92298 0.0
O625 O 0.00444 0.26545 0.90121 0.0
O626 O 0.97772 0.25228 0.9215 0.0
Mg627 Mg 0.99165 0.25122 0.95638 0.0
C628 C 0.98487 0.25784 0.90324 0.0
C629 C 0.06911 0.28793 0.89124 0.0
O630 O 0.07845 0.27328 0.90296 0.0
O631 O 0.01876 0.30288 0.93512 0.0
O632 O 0.99471 0.288 0.95754 0.0
O633 O 0.04593 0.24141 0.91915 0.0
O634 O 0.02492 0.25032 0.94491 0.0
C635 C 0.00436 0.30438 0.94901 0.0
C636 C 0.03466 0.23574 0.9355 0.0
O637 O 0.05012 0.29286 0.89565 0.0
Mg638 Mg 0.53248 0.77383 0.42547 0.0
O639 O 0.5008 0.76409 0.40637 0.0
O640 O 0.47621 0.75026 0.42863 0.0
Mg641 Mg 0.49278 0.75121 0.46249 0.0
C642 C 0.48178 0.7558 0.40981 0.0
C643 C 0.56212 0.80359 0.39702 0.0
O644 O 0.57322 0.80592 0.41552 0.0
O645 O 0.51703 0.80265 0.43818 0.0
O646 O 0.49413 0.78811 0.46182 0.0
O647 O 0.54418 0.74157 0.42154 0.0
O648 O 0.52528 0.75079 0.44886 0.0
C649 C 0.50305 0.80439 0.45242 0.0
C650 C 0.53456 0.73618 0.43899 0.0
O651 O 0.54436 0.79204 0.39618 0.0
Mg652 Mg 0.96503 0.72735 0.58587 0.0
O653 O 0.99819 0.72025 0.60257 0.0
O654 O 0.02003 0.71121 0.57699 0.0
Mg655 Mg 0.00191 0.714 0.54437 0.0
C656 C 0.01648 0.71434 0.59669 0.0
C657 C 0.93348 0.73549 0.62021 0.0
O658 O 0.92192 0.72397 0.60572 0.0
O659 O 0.97966 0.75989 0.57516 0.0
O660 O 0.0018 0.75011 0.55012 0.0
O661 O 0.95422 0.69285 0.58745 0.0
O662 O 0.97104 0.70792 0.56014 0.0
C663 C 0.99368 0.76445 0.56108 0.0
C664 C 0.96307 0.69086 0.56923 0.0
O665 O 0.95341 0.74061 0.61694 0.0
Mg666 Mg 0.47234 0.2219 0.0917 0.0
O667 O 0.5066 0.21667 0.10715 0.0
O668 O 0.5274 0.20826 0.08046 0.0
Mg669 Mg 0.50747 0.20866 0.04864 0.0
C670 C 0.52486 0.21166 0.10033 0.0
C671 C 0.45875 0.22469 0.13904 0.0
O672 O 0.46354 0.20467 0.13837 0.0
O673 O 0.48499 0.25435 0.07895 0.0
O674 O 0.50587 0.2449 0.05268 0.0
O675 O 0.46275 0.18713 0.09472 0.0
O676 O 0.47783 0.20189 0.06633 0.0
C677 C 0.4977 0.25911 0.06376 0.0
C678 C 0.47072 0.18489 0.07611 0.0
O679 O 0.46165 0.23647 0.12259 0.0
H680 H 0.21192 0.73485 0.84078 0.0
H681 H 0.21818 0.82789 0.92805 0.0
H682 H 0.20719 0.80104 0.82343 0.0
H683 H 0.2409 0.76517 0.94013 0.0
H684 H 0.20825 0.81752 0.89076 0.0
H685 H 0.2163 0.74494 0.87854 0.0
C686 C 0.2115 0.75149 0.84494 0.0
C687 C 0.20926 0.76714 0.82893 0.0
C688 C 0.21533 0.80606 0.90166 0.0
C689 C 0.21452 0.77884 0.87215 0.0
C690 C 0.22093 0.81193 0.92293 0.0
C691 C 0.23055 0.79744 0.93718 0.0
C692 C 0.21911 0.78549 0.89476 0.0
C693 C 0.23375 0.77696 0.92967 0.0
C694 C 0.21418 0.75726 0.86649 0.0
C695 C 0.20914 0.78851 0.83527 0.0
N696 N 0.22806 0.77162 0.90902 0.0
N697 N 0.21179 0.79375 0.85641 0.0
H698 H 0.02094 0.51652 0.38297 0.0
H699 H 0.10988 0.46564 0.31311 0.0
H700 H 0.04309 0.45341 0.3937 0.0
H701 H 0.08739 0.52855 0.30172 0.0
H702 H 0.08319 0.45975 0.34067 0.0
H703 H 0.04267 0.52005 0.35115 0.0
C704 C 0.03014 0.50329 0.37849 0.0
C705 C 0.03031 0.48471 0.39117 0.0
C706 C 0.08398 0.4748 0.33204 0.0
C707 C 0.05549 0.48875 0.35488 0.0
C708 C 0.09921 0.47816 0.31626 0.0
C709 C 0.10103 0.4977 0.30518 0.0
C710 C 0.07047 0.49109 0.33687 0.0
C711 C 0.08668 0.51328 0.30992 0.0
C712 C 0.04266 0.50537 0.36038 0.0
C713 C 0.04277 0.46819 0.38467 0.0
N714 N 0.07214 0.50971 0.32551 0.0
N715 N 0.05493 0.47065 0.36708 0.0
H716 H 0.76148 0.74039 0.87251 0.0
H717 H 0.78291 0.66788 0.97654 0.0
H718 H 0.82319 0.71371 0.88858 0.0
H719 H 0.72388 0.70008 0.9626 0.0
H720 H 0.79599 0.67966 0.94163 0.0
H721 H 0.74561 0.72069 0.9024 0.0
C722 C 0.77163 0.73008 0.88207 0.0
C723 C 0.79378 0.72885 0.87806 0.0
C724 C 0.78008 0.68395 0.94615 0.0
C725 C 0.77574 0.70653 0.91275 0.0
C726 C 0.77256 0.67717 0.96605 0.0
C727 C 0.75236 0.68323 0.97267 0.0
C728 C 0.7673 0.69681 0.93274 0.0
C729 C 0.73966 0.69524 0.95834 0.0
C730 C 0.76258 0.71896 0.89929 0.0
C731 C 0.80615 0.71545 0.89129 0.0
N732 N 0.74741 0.70176 0.93917 0.0
N733 N 0.79701 0.70495 0.90815 0.0
H734 H 0.02029 0.01 0.38569 0.0
H735 H 0.90812 0.01498 0.31827 0.0
H736 H 0.96098 0.98933 0.41628 0.0
H737 H 0.96624 0.99128 0.29364 0.0
H738 H 0.92603 0.01503 0.35476 0.0
H739 H 0.99922 0.01433 0.35197 0.0
C740 C 0.00274 0.00684 0.38546 0.0
C741 C 0.99238 0.99928 0.40386 0.0
C742 C 0.93465 0.00979 0.34124 0.0
C743 C 0.96822 0.00402 0.36513 0.0
C744 C 0.92453 0.00978 0.32052 0.0
C745 C 0.93566 0.00297 0.30293 0.0
C746 C 0.95616 0.00364 0.34403 0.0
C747 C 0.95692 0.99644 0.3067 0.0
C748 C 0.99078 0.00913 0.36615 0.0
C749 C 0.96959 0.99505 0.4024 0.0
N750 N 0.96651 0.99715 0.32673 0.0
N751 N 0.95819 0.99743 0.38328 0.0
H752 H 0.17829 0.25986 0.66637 0.0
H753 H 0.23098 0.22927 0.55854 0.0
H754 H 0.21795 0.30472 0.62993 0.0
H755 H 0.22995 0.18452 0.61155 0.0
H756 H 0.21761 0.25602 0.58169 0.0
H757 H 0.18949 0.23079 0.64384 0.0
C758 C 0.18934 0.2635 0.65363 0.0
C759 C 0.19736 0.28455 0.64993 0.0
C760 C 0.22019 0.2403 0.5882 0.0
C761 C 0.20965 0.25188 0.6241 0.0
C762 C 0.22767 0.22495 0.57499 0.0
C763 C 0.23167 0.20464 0.58317 0.0
C764 C 0.21627 0.23526 0.60967 0.0
C765 C 0.22717 0.20003 0.60467 0.0
C766 C 0.19573 0.24702 0.64091 0.0
C767 C 0.21158 0.28863 0.6333 0.0
N768 N 0.21961 0.21526 0.61725 0.0
N769 N 0.21711 0.27247 0.62085 0.0
H770 H 0.5211 0.49507 0.62872 0.0
H771 H 0.41651 0.5504 0.66778 0.0
H772 H 0.4914 0.54669 0.59465 0.0
H773 H 0.45298 0.50637 0.7064 0.0
H774 H 0.43978 0.54463 0.63791 0.0
H775 H 0.49228 0.49452 0.65437 0.0
C776 C 0.50845 0.50619 0.62653 0.0
C777 C 0.50887 0.52111 0.60961 0.0
C778 C 0.4425 0.53605 0.65286 0.0
C779 C 0.47571 0.52049 0.63889 0.0
C780 C 0.42919 0.53929 0.6699 0.0
C781 C 0.43286 0.52895 0.68969 0.0
C782 C 0.4596 0.52236 0.65562 0.0
C783 C 0.44953 0.51472 0.69149 0.0
C784 C 0.49195 0.50582 0.64115 0.0
C785 C 0.49173 0.53482 0.60734 0.0
N786 N 0.46236 0.51197 0.67474 0.0
N787 N 0.47599 0.53432 0.62193 0.0
H788 H 0.7989 0.28677 0.66225 0.0
H789 H 0.76356 0.27736 0.53787 0.0
H790 H 0.82679 0.24459 0.61853 0.0
H791 H 0.75339 0.33393 0.57372 0.0
H792 H 0.78352 0.26338 0.56893 0.0
H793 H 0.77919 0.30291 0.63151 0.0
C794 C 0.80097 0.28102 0.6462 0.0
C795 C 0.8146 0.26442 0.6429 0.0
C796 C 0.77704 0.27892 0.57001 0.0
C797 C 0.79201 0.28249 0.60793 0.0
C798 C 0.76567 0.28697 0.55221 0.0
C799 C 0.75713 0.30706 0.553 0.0
C800 C 0.7797 0.29084 0.58898 0.0
C801 C 0.75985 0.31843 0.57236 0.0
C802 C 0.7898 0.29025 0.62872 0.0
C803 C 0.81674 0.25756 0.6218 0.0
N804 N 0.77091 0.31014 0.58964 0.0
N805 N 0.80546 0.26651 0.60519 0.0
H806 H 0.52823 0.01868 0.64508 0.0
H807 H 0.64981 0.98768 0.67637 0.0
H808 H 0.57024 0.99035 0.6015 0.0
H809 H 0.60646 0.00791 0.72348 0.0
H810 H 0.62027 0.98837 0.64905 0.0
H811 H 0.55589 0.01448 0.67431 0.0
C812 C 0.54317 0.01143 0.64168 0.0
C813 C 0.547 0.00508 0.62071 0.0
C814 C 0.6171 0.99257 0.66536 0.0
C815 C 0.57874 0.00041 0.65402 0.0
C816 C 0.63403 0.99223 0.68102 0.0
C817 C 0.6307 0.99787 0.70229 0.0
C818 C 0.59658 0.99877 0.67082 0.0
C819 C 0.60978 0.00344 0.7073 0.0
C820 C 0.55897 0.00912 0.65836 0.0
C821 C 0.56673 0.99593 0.61725 0.0
N822 N 0.59354 0.00391 0.69163 0.0
N823 N 0.58184 0.99398 0.63366 0.0
H824 H 0.93571 0.23899 0.77227 0.0
H825 H 0.94111 0.2452 0.90044 0.0
H826 H 0.87861 0.23043 0.80972 0.0
H827 H 0.99525 0.26405 0.8613 0.0
H828 H 0.91783 0.23956 0.86771 0.0
H829 H 0.9577 0.24815 0.80497 0.0
C830 C 0.9278 0.2391 0.78742 0.0
C831 C 0.90534 0.23381 0.78833 0.0
C832 C 0.93478 0.24504 0.86633 0.0
C833 C 0.93042 0.24426 0.8259 0.0
C834 C 0.94811 0.24821 0.88501 0.0
C835 C 0.97024 0.25503 0.88367 0.0
C836 C 0.94366 0.24854 0.84616 0.0
C837 C 0.97833 0.25875 0.86319 0.0
C838 C 0.94034 0.2444 0.80608 0.0
C839 C 0.89587 0.23449 0.80832 0.0
N840 N 0.96509 0.25535 0.84529 0.0
N841 N 0.90849 0.23943 0.82638 0.0
H842 H 0.45639 0.91105 0.51965 0.0
H843 H 0.52012 0.84306 0.43801 0.0
H844 H 0.50683 0.93794 0.47977 0.0
H845 H 0.47399 0.81506 0.48197 0.0
H846 H 0.51297 0.87833 0.45084 0.0
H847 H 0.4604 0.87613 0.50399 0.0
C848 C 0.46831 0.90963 0.50761 0.0
C849 C 0.48134 0.92749 0.5011 0.0
C850 C 0.50434 0.86447 0.45762 0.0
C851 C 0.48588 0.88755 0.48294 0.0
C852 C 0.50838 0.84429 0.45027 0.0
C853 C 0.49776 0.82598 0.45901 0.0
C854 C 0.48954 0.86644 0.47383 0.0
C855 C 0.48267 0.82867 0.47482 0.0
C856 C 0.47052 0.8897 0.49859 0.0
C857 C 0.49624 0.92472 0.48513 0.0
N858 N 0.4791 0.84849 0.48178 0.0
N859 N 0.49815 0.90514 0.47669 0.0
H860 H 0.15118 0.30849 0.7838 0.0
H861 H 0.05592 0.32025 0.86464 0.0
H862 H 0.10886 0.36069 0.78033 0.0
H863 H 0.10738 0.27726 0.87517 0.0
H864 H 0.07399 0.33456 0.83291 0.0
H865 H 0.13434 0.29611 0.81663 0.0
C866 C 0.1385 0.3175 0.79002 0.0
C867 C 0.1315 0.33573 0.77922 0.0
C868 C 0.08135 0.32207 0.84225 0.0
C869 C 0.11179 0.32131 0.81672 0.0
C870 C 0.07104 0.31388 0.86034 0.0
C871 C 0.08013 0.2975 0.87256 0.0
C872 C 0.10077 0.31369 0.83626 0.0
C873 C 0.09976 0.28987 0.86625 0.0
C874 C 0.12879 0.31033 0.80874 0.0
C875 C 0.1146 0.3464 0.78789 0.0
N876 N 0.10935 0.29794 0.8485 0.0
N877 N 0.10529 0.339 0.80608 0.0
H878 H 0.53368 0.62762 0.52477 0.0
H879 H 0.55322 0.7023 0.42189 0.0
H880 H 0.57566 0.61294 0.4742 0.0
H881 H 0.51734 0.72009 0.47601 0.0
H882 H 0.55741 0.66733 0.43841 0.0
H883 H 0.52359 0.65939 0.50482 0.0
C884 C 0.54076 0.63106 0.50944 0.0
C885 C 0.55578 0.61773 0.50129 0.0
C886 C 0.54846 0.67882 0.44659 0.0
C887 C 0.54411 0.65403 0.47825 0.0
C888 C 0.54601 0.69879 0.43714 0.0
C889 C 0.53503 0.71422 0.44766 0.0
C890 C 0.5399 0.67423 0.46671 0.0
C891 C 0.52598 0.70873 0.46735 0.0
C892 C 0.5349 0.64916 0.49801 0.0
C893 C 0.56399 0.62271 0.48109 0.0
N894 N 0.52875 0.68924 0.47631 0.0
N895 N 0.55819 0.64056 0.47035 0.0
H896 H 0.90689 0.7861 0.74468 0.0
H897 H 0.8916 0.72625 0.63159 0.0
H898 H 0.8472 0.75168 0.72208 0.0
H899 H 0.95231 0.75885 0.65421 0.0
H900 H 0.87512 0.7359 0.66457 0.0
H901 H 0.92381 0.77676 0.71166 0.0
C902 C 0.89731 0.77663 0.73275 0.0
C903 C 0.87555 0.76968 0.73618 0.0
C904 C 0.89205 0.74097 0.66236 0.0
C905 C 0.8949 0.75881 0.69838 0.0
C906 C 0.90149 0.73548 0.64348 0.0
C907 C 0.9234 0.74174 0.6401 0.0
C908 C 0.90455 0.75285 0.67807 0.0
C909 C 0.93536 0.75369 0.65613 0.0
C910 C 0.90702 0.77122 0.71394 0.0
C911 C 0.86407 0.75718 0.72028 0.0
N912 N 0.92578 0.75885 0.67443 0.0
N913 N 0.87386 0.7522 0.70208 0.0
H914 H 0.99877 0.89606 0.52027 0.0
H915 H 0.03279 0.77948 0.54666 0.0
H916 H 0.06591 0.87977 0.5271 0.0
H917 H 0.9715 0.80052 0.5664 0.0
H918 H 0.04443 0.81619 0.53793 0.0
H919 H 0.98757 0.8616 0.53645 0.0
C920 C 0.0112 0.88544 0.52547 0.0
C921 C 0.03332 0.89072 0.52195 0.0
C922 C 0.0285 0.81286 0.54435 0.0
C923 C 0.02052 0.85118 0.54003 0.0
C924 C 0.02179 0.79187 0.54922 0.0
C925 C 0.0011 0.78693 0.55714 0.0
C926 C 0.01428 0.82909 0.54698 0.0
C927 C 0.98761 0.80368 0.56033 0.0
C928 C 0.00476 0.86574 0.53461 0.0
C929 C 0.04863 0.87619 0.5289 0.0
N930 N 0.99431 0.82404 0.55495 0.0
N931 N 0.04193 0.85702 0.53731 0.0
H932 H 0.10355 0.72317 0.71081 0.0
H933 H 0.05687 0.70033 0.59045 0.0
H934 H 0.14291 0.70715 0.65857 0.0
H935 H 0.01768 0.7229 0.64005 0.0
H936 H 0.08752 0.69894 0.61654 0.0
H937 H 0.07108 0.71965 0.68639 0.0
C938 C 0.10539 0.71884 0.69425 0.0
C939 C 0.12609 0.71554 0.68676 0.0
C940 C 0.07221 0.70411 0.62178 0.0
C941 C 0.08892 0.71132 0.65879 0.0
C942 C 0.05462 0.70491 0.60686 0.0
C943 C 0.03463 0.71193 0.61296 0.0
C944 C 0.06993 0.71041 0.64306 0.0
C945 C 0.03278 0.71748 0.63456 0.0
C946 C 0.08682 0.71675 0.68035 0.0
C947 C 0.12735 0.7096 0.66521 0.0
N948 N 0.05025 0.71673 0.6488 0.0
N949 N 0.10909 0.70779 0.65201 0.0
H950 H 0.97619 0.58648 0.48232 0.0
H951 H 0.95536 0.65172 0.58799 0.0
H952 H 0.97225 0.5576 0.54532 0.0
H953 H 0.9752 0.68173 0.52886 0.0
H954 H 0.95862 0.61684 0.57189 0.0
H955 H 0.9733 0.62136 0.49842 0.0
C956 C 0.97484 0.58743 0.49954 0.0
C957 C 0.97446 0.56896 0.51243 0.0
C958 C 0.96232 0.63106 0.56246 0.0
C959 C 0.97077 0.60892 0.53093 0.0
C960 C 0.96041 0.65098 0.57163 0.0
C961 C 0.9651 0.66966 0.55977 0.0
C962 C 0.96874 0.62981 0.54121 0.0
C963 C 0.97158 0.66774 0.53863 0.0
C964 C 0.97308 0.60737 0.5087 0.0
C965 C 0.97225 0.57126 0.53463 0.0
N966 N 0.97313 0.64817 0.53 0.0
N967 N 0.97045 0.59083 0.54314 0.0
H968 H 0.74893 0.9174 0.24442 0.0
H969 H 0.87343 0.93835 0.21577 0.0
H970 H 0.77621 0.88792 0.19061 0.0
H971 H 0.83872 0.98529 0.24783 0.0
H972 H 0.83946 0.91601 0.21134 0.0
H973 H 0.78346 0.93888 0.25076 0.0
C974 C 0.76227 0.91537 0.23406 0.0
C975 C 0.7598 0.90096 0.21695 0.0
C976 C 0.83932 0.93119 0.21936 0.0
C977 C 0.79915 0.92523 0.22415 0.0
C978 C 0.8587 0.94391 0.22201 0.0
C979 C 0.8589 0.96377 0.23213 0.0
C980 C 0.82005 0.93818 0.22721 0.0
C981 C 0.83927 0.97016 0.23981 0.0
C982 C 0.78185 0.92768 0.2376 0.0
C983 C 0.77746 0.899 0.20387 0.0
N984 N 0.82063 0.95735 0.23726 0.0
N985 N 0.79645 0.91093 0.20781 0.0
H986 H 0.76137 0.13447 0.24895 0.0
H987 H 0.88791 0.11054 0.25233 0.0
H988 H 0.81383 0.18101 0.23573 0.0
H989 H 0.83636 0.06058 0.25408 0.0
H990 H 0.86066 0.13692 0.25102 0.0
H991 H 0.78826 0.10754 0.25511 0.0
C992 C 0.77852 0.13903 0.24741 0.0
C993 C 0.78535 0.15996 0.24158 0.0
C994 C 0.85525 0.12021 0.2518 0.0
C995 C 0.81611 0.12937 0.24871 0.0
C996 C 0.87085 0.10509 0.25263 0.0
C997 C 0.86444 0.08327 0.25313 0.0
C998 C 0.83298 0.11356 0.25145 0.0
C999 C 0.84204 0.07724 0.25362 0.0
C1000 C 0.79383 0.12366 0.25086 0.0
C1001 C 0.80777 0.16499 0.23977 0.0
N1002 N 0.82708 0.09231 0.25263 0.0
N1003 N 0.82229 0.14984 0.24332 0.0
H1004 H 0.41492 0.89374 0.95723 0.0
H1005 H 0.29125 0.88441 0.99312 0.0
H1006 H 0.38414 0.94583 0.98526 0.0
H1007 H 0.32716 0.83087 0.97599 0.0
H1008 H 0.32325 0.9083 0.98587 0.0
H1009 H 0.38092 0.8717 0.95941 0.0
C1010 C 0.40099 0.90057 0.96381 0.0
C1011 C 0.40251 0.92161 0.97131 0.0
C1012 C 0.32403 0.89132 0.98362 0.0
C1013 C 0.36337 0.89644 0.97373 0.0
C1014 C 0.30576 0.87768 0.98771 0.0
C1015 C 0.30654 0.85556 0.98534 0.0
C1016 C 0.34313 0.88279 0.97696 0.0
C1017 C 0.32582 0.84777 0.97826 0.0
C1018 C 0.38154 0.88799 0.96499 0.0
C1019 C 0.38372 0.92974 0.97919 0.0
N1020 N 0.3433 0.86134 0.97438 0.0
N1021 N 0.36498 0.91709 0.98035 0.0
H1022 H 0.24401 0.35197 0.31873 0.0
H1023 H 0.20161 0.42813 0.2252 0.0
H1024 H 0.26241 0.34904 0.25294 0.0
H1025 H 0.18111 0.43063 0.29029 0.0
H1026 H 0.21896 0.39519 0.23391 0.0
H1027 H 0.21678 0.37709 0.30777 0.0
C1028 C 0.24224 0.35651 0.30195 0.0
C1029 C 0.25576 0.34861 0.28678 0.0
C1030 C 0.21039 0.40271 0.24624 0.0
C1031 C 0.22448 0.37727 0.2741 0.0
C1032 C 0.2004 0.42151 0.24125 0.0
C1033 C 0.19016 0.43231 0.25713 0.0
C1034 C 0.21044 0.39474 0.26738 0.0
C1035 C 0.1889 0.42287 0.27758 0.0
C1036 C 0.22658 0.37075 0.29568 0.0
C1037 C 0.25236 0.35467 0.26519 0.0
N1038 N 0.1993 0.40482 0.28224 0.0
N1039 N 0.23727 0.36882 0.25956 0.0
H1040 H 0.14466 0.02068 0.52336 0.0
H1041 H 0.16381 0.1478 0.52118 0.0
H1042 H 0.09607 0.06307 0.50037 0.0
H1043 H 0.21414 0.1057 0.54031 0.0
H1044 H 0.13785 0.11698 0.51675 0.0
H1045 H 0.16928 0.05162 0.53296 0.0
C1046 C 0.13911 0.03648 0.52043 0.0
C1047 C 0.11828 0.03924 0.51088 0.0
C1048 C 0.15454 0.11447 0.522 0.0
C1049 C 0.1464 0.07476 0.52192 0.0
C1050 C 0.16943 0.13209 0.52455 0.0
C1051 C 0.1913 0.1294 0.531 0.0
C1052 C 0.1615 0.0939 0.5259 0.0
C1053 C 0.1975 0.10859 0.53521 0.0
C1054 C 0.15317 0.05415 0.52597 0.0
C1055 C 0.11187 0.06012 0.50784 0.0
N1056 N 0.1827 0.09165 0.53249 0.0
N1057 N 0.12592 0.07704 0.51319 0.0
H1058 H 0.76111 0.15698 0.74849 0.0
H1059 H 0.72167 0.03509 0.73004 0.0
H1060 H 0.78789 0.11662 0.70229 0.0
H1061 H 0.68499 0.07755 0.76587 0.0
H1062 H 0.74581 0.06512 0.71971 0.0
H1063 H 0.73313 0.12845 0.75552 0.0
C1064 C 0.76108 0.14214 0.73982 0.0
C1065 C 0.77686 0.13916 0.7248 0.0
C1066 C 0.73236 0.06797 0.72965 0.0
C1067 C 0.74497 0.10656 0.7327 0.0
C1068 C 0.71846 0.05076 0.73553 0.0
C1069 C 0.70118 0.05374 0.74881 0.0
C1070 C 0.72925 0.08838 0.73735 0.0
C1071 C 0.69808 0.07452 0.75555 0.0
C1072 C 0.74504 0.12594 0.74373 0.0
C1073 C 0.77592 0.11971 0.71384 0.0
N1074 N 0.71213 0.09105 0.74992 0.0
N1075 N 0.76037 0.10415 0.71811 0.0
H1076 H 0.38464 0.04627 0.52436 0.0
H1077 H 0.3163 0.11966 0.59623 0.0
H1078 H 0.39942 0.05749 0.59192 0.0
H1079 H 0.30048 0.10708 0.52907 0.0
H1080 H 0.34491 0.09457 0.59568 0.0
H1081 H 0.3519 0.06589 0.52653 0.0
C1082 C 0.38086 0.05257 0.53975 0.0
C1083 C 0.39492 0.05027 0.55798 0.0
C1084 C 0.33508 0.09717 0.5811 0.0
C1085 C 0.35755 0.07316 0.56047 0.0
C1086 C 0.3187 0.11149 0.5814 0.0
C1087 C 0.30606 0.11564 0.56262 0.0
C1088 C 0.33895 0.08694 0.56185 0.0
C1089 C 0.30988 0.10448 0.54391 0.0
C1090 C 0.3622 0.06393 0.54093 0.0
C1091 C 0.38928 0.05914 0.57737 0.0
N1092 N 0.32609 0.09078 0.54396 0.0
N1093 N 0.37112 0.07029 0.57807 0.0
H1094 H 0.60102 0.44695 0.52197 0.0
H1095 H 0.71054 0.40227 0.48318 0.0
H1096 H 0.65404 0.48773 0.4984 0.0
H1097 H 0.65229 0.3626 0.49505 0.0
H1098 H 0.68979 0.43387 0.48682 0.0
H1099 H 0.61892 0.416 0.51026 0.0
C1100 C 0.61624 0.44948 0.51402 0.0
C1101 C 0.62605 0.47009 0.51136 0.0
C1102 C 0.68151 0.41823 0.48838 0.0
C1103 C 0.64701 0.43447 0.49833 0.0
C1104 C 0.69335 0.40018 0.48628 0.0
C1105 C 0.68321 0.37974 0.48904 0.0
C1106 C 0.65945 0.4158 0.49343 0.0
C1107 C 0.66087 0.37802 0.49298 0.0
C1108 C 0.62656 0.43173 0.50746 0.0
C1109 C 0.64605 0.47218 0.50125 0.0
N1110 N 0.64983 0.39578 0.49528 0.0
N1111 N 0.65596 0.4546 0.49531 0.0
H1112 H 0.75327 0.24375 0.33422 0.0
H1113 H 0.71464 0.32097 0.4244 0.0
H1114 H 0.70465 0.2891 0.3206 0.0
H1115 H 0.76203 0.27373 0.43493 0.0
H1116 H 0.71 0.31 0.38658 0.0
H1117 H 0.75587 0.25487 0.3715 0.0
C1118 C 0.74317 0.25615 0.33909 0.0
C1119 C 0.7289 0.26567 0.3242 0.0
C1120 C 0.72137 0.30209 0.39726 0.0
C1121 C 0.73162 0.27846 0.36719 0.0
C1122 C 0.72406 0.30835 0.41882 0.0
C1123 C 0.73875 0.29829 0.43294 0.0
C1124 C 0.73349 0.28569 0.38986 0.0
C1125 C 0.75049 0.282 0.42479 0.0
C1126 C 0.74458 0.26245 0.36046 0.0
C1127 C 0.71583 0.28131 0.33158 0.0
N1128 N 0.7476 0.27628 0.4039 0.0
N1129 N 0.71758 0.28733 0.35258 0.0
H1130 H 0.52798 0.96362 0.88317 0.0
H1131 H 0.63655 0.02741 0.84481 0.0
H1132 H 0.56831 0.00841 0.92221 0.0
H1133 H 0.60201 0.97768 0.8069 0.0
H1134 H 0.60966 0.02223 0.87199 0.0
H1135 H 0.55282 0.97014 0.85376 0.0
C1136 C 0.54197 0.9749 0.8855 0.0
C1137 C 0.5462 0.98534 0.90524 0.0
C1138 C 0.60787 0.01243 0.85774 0.0
C1139 C 0.57461 0.99284 0.87178 0.0
C1140 C 0.62326 0.0154 0.84215 0.0
C1141 C 0.62163 0.00289 0.82355 0.0
C1142 C 0.5906 0.99681 0.85484 0.0
C1143 C 0.60394 0.98764 0.82102 0.0
C1144 C 0.55618 0.97853 0.86877 0.0
C1145 C 0.56461 -0.00028 0.90743 0.0
N1146 N 0.58912 0.98498 0.83654 0.0
N1147 N 0.57809 0.00301 0.89096 0.0
H1148 H 0.33138 0.2248 0.39283 0.0
H1149 H 0.22795 0.1887 0.45664 0.0
H1150 H 0.26614 0.22037 0.36344 0.0
H1151 H 0.29304 0.17483 0.47914 0.0
H1152 H 0.24159 0.19766 0.42136 0.0
H1153 H 0.31818 0.20379 0.42323 0.0
C1154 C 0.31438 0.21905 0.3925 0.0
C1155 C 0.29979 0.22471 0.37563 0.0
C1156 C 0.25286 0.19231 0.43387 0.0
C1157 C 0.28449 0.20102 0.41073 0.0
C1158 C 0.24508 0.18722 0.45403 0.0
C1159 C 0.25943 0.18125 0.4709 0.0
C1160 C 0.27527 0.19188 0.43063 0.0
C1161 C 0.28142 0.17942 0.46658 0.0
C1162 C 0.30682 0.20712 0.40996 0.0
C1163 C 0.27788 0.21693 0.37632 0.0
N1164 N 0.28877 0.18513 0.44697 0.0
N1165 N 0.27084 0.20579 0.39372 0.0
H1166 H 0.49361 0.52834 0.89931 0.0
H1167 H 0.41821 0.47672 0.80703 0.0
H1168 H 0.46255 0.46523 0.90551 0.0
H1169 H 0.42524 0.54491 0.81476 0.0
H1170 H 0.43286 0.47232 0.84388 0.0
H1171 H 0.46773 0.53545 0.86928 0.0
C1172 C 0.48108 0.51614 0.89456 0.0
C1173 C 0.48027 0.49613 0.90477 0.0
C1174 C 0.43078 0.48825 0.83771 0.0
C1175 C 0.45093 0.50399 0.87031 0.0
C1176 C 0.42243 0.49076 0.81668 0.0
C1177 C 0.42064 0.5112 0.80785 0.0
C1178 C 0.43799 0.50632 0.84979 0.0
C1179 C 0.42632 0.52888 0.82102 0.0
C1180 C 0.46628 0.52021 0.87751 0.0
C1181 C 0.46368 0.48088 0.8981 0.0
N1182 N 0.43523 0.52604 0.84121 0.0
N1183 N 0.44993 0.48497 0.88102 0.0
H1184 H 0.72338 0.76534 0.17311 0.0
H1185 H 0.69907 0.69737 0.06762 0.0
H1186 H 0.66219 0.76512 0.13589 0.0
H1187 H 0.74958 0.68269 0.1149 0.0
H1188 H 0.68484 0.7216 0.09294 0.0
H1189 H 0.73294 0.73446 0.15293 0.0
C1190 C 0.71179 0.75865 0.16094 0.0
C1191 C 0.69204 0.7681 0.15604 0.0
C1192 C 0.69888 0.7129 0.09793 0.0
C1193 C 0.70312 0.73294 0.13262 0.0
C1194 C 0.70708 0.69913 0.0834 0.0
C1195 C 0.7257 0.68825 0.08907 0.0
C1196 C 0.70964 0.71614 0.11815 0.0
C1197 C 0.73517 0.69082 0.10992 0.0
C1198 C 0.71732 0.74104 0.14937 0.0
C1199 C 0.67784 0.75879 0.13989 0.0
N1200 N 0.72727 0.70481 0.12362 0.0
N1201 N 0.68377 0.74192 0.12861 0.0
H1202 H 0.98186 0.04103 0.08696 0.0
H1203 H 0.94648 0.98961 0.19735 0.0
H1204 H 0.00929 0.98516 0.11512 0.0
H1205 H 0.91115 0.0384 0.16457 0.0
H1206 H 0.96691 0.98537 0.16551 0.0
H1207 H 0.95324 0.03796 0.1128 0.0
C1208 C 0.98164 0.02784 0.09827 0.0
C1209 C 0.99824 0.01349 0.09903 0.0
C1210 C 0.95449 0.99681 0.1651 0.0
C1211 C 0.9657 0.01017 0.12899 0.0
C1212 C 0.94274 0.99923 0.18336 0.0
C1213 C 0.92715 0.01451 0.18377 0.0
C1214 C 0.95095 0.01002 0.14715 0.0
C1215 C 0.92308 0.02648 0.16502 0.0
C1216 C 0.96533 0.02619 0.11313 0.0
C1217 C 0.99716 0.99688 0.11425 0.0
N1218 N 0.93516 0.02422 0.14757 0.0
N1219 N 0.98137 0.99585 0.12877 0.0
H1220 H 0.30305 0.78665 0.16471 0.0
H1221 H 0.27176 0.77981 0.03904 0.0
H1222 H 0.3272 0.74068 0.12242 0.0
H1223 H 0.26003 0.83474 0.07671 0.0
H1224 H 0.29092 0.76476 0.07008 0.0
H1225 H 0.28594 0.80411 0.13337 0.0
C1226 C 0.30483 0.7803 0.14885 0.0
C1227 C 0.31664 0.76223 0.14616 0.0
C1228 C 0.28431 0.78019 0.07156 0.0
C1229 C 0.29707 0.78198 0.11038 0.0
C1230 C 0.27338 0.78884 0.05376 0.0
C1231 C 0.26443 0.80869 0.05515 0.0
C1232 C 0.28612 0.79128 0.09107 0.0
C1233 C 0.26675 0.81942 0.07489 0.0
C1234 C 0.29515 0.7903 0.13099 0.0
C1235 C 0.31854 0.75474 0.12524 0.0
N1236 N 0.27729 0.81053 0.09213 0.0
N1237 N 0.30876 0.76455 0.10821 0.0
H1238 H 0.02921 0.52132 0.13945 0.0
H1239 H 0.1478 0.48492 0.1745 0.0
H1240 H 0.06984 0.4883 0.09811 0.0
H1241 H 0.1039 0.50636 0.22046 0.0
H1242 H 0.11892 0.48622 0.14652 0.0
H1243 H 0.05557 0.51592 0.1696 0.0
C1244 C 0.04354 0.51278 0.13674 0.0
C1245 C 0.04746 0.50553 0.11611 0.0
C1246 C 0.11548 0.49054 0.16272 0.0
C1247 C 0.07771 0.49948 0.15044 0.0
C1248 C 0.13203 0.48985 0.17875 0.0
C1249 C 0.12834 0.49566 0.19987 0.0
C1250 C 0.09503 0.49732 0.16768 0.0
C1251 C 0.10747 0.50174 0.20439 0.0
C1252 C 0.0586 0.50977 0.15394 0.0
C1253 C 0.06637 0.49466 0.11355 0.0
N1254 N 0.09162 0.5026 0.18836 0.0
N1255 N 0.0808 0.49211 0.13043 0.0
H1256 H 0.41849 0.75308 0.28269 0.0
H1257 H 0.44066 0.73562 0.40924 0.0
H1258 H 0.37533 0.71432 0.32192 0.0
H1259 H 0.48642 0.76872 0.36809 0.0
H1260 H 0.41506 0.73006 0.37817 0.0
H1261 H 0.44182 0.7618 0.31464 0.0
C1262 C 0.41375 0.74663 0.29808 0.0
C1263 C 0.39493 0.7329 0.2996 0.0
C1264 C 0.4307 0.73858 0.37598 0.0
C1265 C 0.42182 0.74255 0.33627 0.0
C1266 C 0.44533 0.74177 0.39372 0.0
C1267 C 0.46582 0.75257 0.39131 0.0
C1268 C 0.43653 0.74631 0.35568 0.0
C1269 C 0.4709 0.7602 0.37076 0.0
C1270 C 0.42719 0.75147 0.31631 0.0
C1271 C 0.38982 0.72475 0.31995 0.0
N1272 N 0.45639 0.7569 0.35378 0.0
N1273 N 0.40323 0.72964 0.33747 0.0
H1274 H 0.99428 0.41296 0.02903 0.0
H1275 H 0.00948 0.34262 0.92763 0.0
H1276 H 0.97805 0.4361 0.965 0.0
H1277 H 0.9884 0.31478 0.98734 0.0
H1278 H 0.00298 0.37801 0.94131 0.0
H1279 H 0.99689 0.37753 0.01441 0.0
C1280 C 0.99097 0.41068 0.01196 0.0
C1281 C 0.98583 0.42779 0.99832 0.0
C1282 C 0.99965 0.36409 0.95129 0.0
C1283 C 0.98967 0.38717 0.98143 0.0
C1284 C 0.00343 0.34394 0.94356 0.0
C1285 C 0.99947 0.32575 0.95638 0.0
C1286 C 0.99241 0.36603 0.97214 0.0
C1287 C 0.99156 0.32837 0.97688 0.0
C1288 C 0.99265 0.3904 0.00363 0.0
C1289 C 0.98246 0.42366 0.97619 0.0
N1290 N 0.98855 0.34816 0.98423 0.0
N1291 N 0.98464 0.40383 0.96841 0.0
H1292 H 0.59289 0.82126 0.26426 0.0
H1293 H 0.60022 0.82811 0.39254 0.0
H1294 H 0.6463 0.85428 0.30042 0.0
H1295 H 0.54494 0.79886 0.35583 0.0
H1296 H 0.61651 0.83955 0.35898 0.0
H1297 H 0.57437 0.81425 0.29763 0.0
C1298 C 0.60072 0.82703 0.27923 0.0
C1299 C 0.62124 0.83825 0.27957 0.0
C1300 C 0.60074 0.83076 0.35828 0.0
C1301 C 0.60007 0.8304 0.31786 0.0
C1302 C 0.59141 0.82424 0.37744 0.0
C1303 C 0.57125 0.81236 0.37701 0.0
C1304 C 0.58988 0.82528 0.33853 0.0
C1305 C 0.56056 0.80789 0.35696 0.0
C1306 C 0.59008 0.82314 0.29827 0.0
C1307 C 0.63044 0.84569 0.29939 0.0
N1308 N 0.57008 0.81421 0.33855 0.0
N1309 N 0.61986 0.8415 0.31776 0.0
H1310 H 0.07183 0.10946 0.96777 0.0
H1311 H 0.01326 0.21888 0.96996 0.0
H1312 H 0.02709 0.12465 0.01572 0.0
H1313 H 0.05438 0.20201 0.91947 0.0
H1314 H 0.01548 0.18311 0.98513 0.0
H1315 H 0.06298 0.14175 0.94797 0.0
C1316 C 0.05992 0.11942 0.97399 0.0
C1317 C 0.0504 0.11446 0.99359 0.0
C1318 C 0.02384 0.18714 0.9706 0.0
C1319 C 0.04041 0.15163 0.97115 0.0
C1320 C 0.02253 0.20758 0.96189 0.0
C1321 C 0.03377 0.21351 0.94349 0.0
C1322 C 0.03662 0.17256 0.96094 0.0
C1323 C 0.04556 0.19817 0.93376 0.0
C1324 C 0.05496 0.13793 0.96273 0.0
C1325 C 0.03521 0.12808 0.00094 0.0
N1326 N 0.04685 0.17848 0.94271 0.0
N1327 N 0.03083 0.14612 0.98982 0.0
H1328 H 0.3865 0.29862 0.22427 0.0
H1329 H 0.44786 0.20289 0.17563 0.0
H1330 H 0.38641 0.23557 0.25228 0.0
H1331 H 0.4446 0.26461 0.14509 0.0
H1332 H 0.42726 0.21534 0.20498 0.0
H1333 H 0.40937 0.28711 0.19615 0.0
C1334 C 0.39136 0.28237 0.22456 0.0
C1335 C 0.38448 0.26803 0.24067 0.0
C1336 C 0.43111 0.2262 0.19191 0.0
C1337 C 0.41061 0.25471 0.20843 0.0
C1338 C 0.44296 0.21912 0.17515 0.0
C1339 C 0.4479 0.23269 0.15778 0.0
C1340 C 0.42413 0.24703 0.19137 0.0
C1341 C 0.44112 0.25357 0.1581 0.0
C1342 C 0.40435 0.27579 0.20845 0.0
C1343 C 0.39105 0.24709 0.24004 0.0
N1344 N 0.42951 0.26006 0.17457 0.0
N1345 N 0.40375 0.24109 0.22422 0.0
H1346 H 0.5618 0.37776 0.022 0.0
H1347 H 0.47337 0.29352 0.06949 0.0
H1348 H 0.4928 0.38673 0.01627 0.0
H1349 H 0.53455 0.27615 0.04593 0.0
H1350 H 0.48214 0.33051 0.05804 0.0
H1351 H 0.55382 0.34315 0.03928 0.0
C1352 C 0.54499 0.37258 0.02472 0.0
C1353 C 0.52791 0.38504 0.01766 0.0
C1354 C 0.49365 0.31856 0.05555 0.0
C1355 C 0.51871 0.34556 0.03734 0.0
C1356 C 0.48872 0.29753 0.06214 0.0
C1357 C 0.50319 0.28175 0.05848 0.0
C1358 C 0.51337 0.32384 0.04572 0.0
C1359 C 0.52283 0.28778 0.04884 0.0
C1360 C 0.54046 0.3528 0.03442 0.0
C1361 C 0.5064 0.37749 0.02135 0.0
N1362 N 0.52736 0.30835 0.04284 0.0
N1363 N 0.50238 0.3582 0.03095 0.0
H1364 H 0.65751 0.21823 0.15125 0.0
H1365 H 0.52748 0.21777 0.14426 0.0
H1366 H 0.61997 0.21893 0.20785 0.0
H1367 H 0.56647 0.20354 0.09109 0.0
H1368 H 0.5605 0.21848 0.16814 0.0
H1369 H 0.62377 0.21326 0.12916 0.0
C1370 C 0.6421 0.21731 0.15902 0.0
C1371 C 0.64151 0.21916 0.18138 0.0
C1372 C 0.56172 0.21505 0.15127 0.0
C1373 C 0.60265 0.21347 0.15615 0.0
C1374 C 0.54289 0.21466 0.13761 0.0
C1375 C 0.54415 0.21074 0.11555 0.0
C1376 C 0.58194 0.21165 0.14276 0.0
C1377 C 0.5646 0.20675 0.1079 0.0
C1378 C 0.62281 0.21437 0.14641 0.0
C1379 C 0.6211 0.21753 0.19065 0.0
N1380 N 0.58261 0.20747 0.12142 0.0
N1381 N 0.60242 0.21498 0.17796 0.0
H1382 H 0.4818 0.08056 0.98878 0.0
H1383 H 0.46283 0.14586 0.09513 0.0
H1384 H 0.47362 0.05091 0.05093 0.0
H1385 H 0.48184 0.17541 0.03551 0.0
H1386 H 0.46472 0.11084 0.07883 0.0
H1387 H 0.4799 0.1154 0.00523 0.0
C1388 C 0.47969 0.08134 0.0059 0.0
C1389 C 0.47792 0.06269 0.01846 0.0
C1390 C 0.46854 0.12499 0.06934 0.0
C1391 C 0.47546 0.10264 0.03739 0.0
C1392 C 0.46745 0.14499 0.07863 0.0
C1393 C 0.47228 0.16359 0.06669 0.0
C1394 C 0.47433 0.12359 0.04789 0.0
C1395 C 0.47815 0.1615 0.04537 0.0
C1396 C 0.47852 0.10126 0.01527 0.0
C1397 C 0.47477 0.06477 0.04052 0.0
N1398 N 0.47895 0.14188 0.03664 0.0
N1399 N 0.47365 0.08436 0.04926 0.0
H1400 H 0.2392 0.44956 0.72302 0.0
H1401 H 0.36903 0.45342 0.71682 0.0
H1402 H 0.27352 0.40101 0.6931 0.0
H1403 H 0.33461 0.50747 0.73542 0.0
H1404 H 0.33413 0.43341 0.70976 0.0
H1405 H 0.27395 0.47045 0.72944 0.0
C1406 C 0.25404 0.4433 0.71782 0.0
C1407 C 0.25346 0.42353 0.70747 0.0
C1408 C 0.33419 0.44966 0.71534 0.0
C1409 C 0.29323 0.44731 0.71476 0.0
C1410 C 0.35415 0.46111 0.71944 0.0
C1411 C 0.35481 0.4822 0.72675 0.0
C1412 C 0.31467 0.45925 0.71871 0.0
C1413 C 0.33492 0.49128 0.72976 0.0
C1414 C 0.27384 0.45527 0.72139 0.0
C1415 C 0.27317 0.41628 0.70089 0.0
N1416 N 0.31566 0.47972 0.72581 0.0
N1417 N 0.29223 0.42811 0.70473 0.0
H1418 H 0.25653 0.64313 0.74065 0.0
H1419 H 0.38393 0.62582 0.75931 0.0
H1420 H 0.3058 0.69397 0.7543 0.0
H1421 H 0.3348 0.57401 0.75006 0.0
H1422 H 0.35521 0.65079 0.75886 0.0
H1423 H 0.28455 0.61737 0.74535 0.0
C1424 C 0.27319 0.64889 0.74479 0.0
C1425 C 0.27881 0.67081 0.74691 0.0
C1426 C 0.35066 0.63396 0.75706 0.0
C1427 C 0.31102 0.64138 0.75212 0.0
C1428 C 0.36709 0.61966 0.75733 0.0
C1429 C 0.3618 0.59777 0.75461 0.0
C1430 C 0.32873 0.62638 0.75392 0.0
C1431 C 0.33965 0.59075 0.75218 0.0
C1432 C 0.28921 0.63416 0.74738 0.0
C1433 C 0.30074 0.6773 0.75207 0.0
N1434 N 0.32394 0.60502 0.75174 0.0
N1435 N 0.316 0.66269 0.75442 0.0
H1436 H 0.91534 0.40394 0.50355 0.0
H1437 H 0.7874 0.38158 0.47782 0.0
H1438 H 0.8802 0.44026 0.45564 0.0
H1439 H 0.82914 0.33529 0.50632 0.0
H1440 H 0.81979 0.40603 0.47331 0.0
H1441 H 0.88237 0.38126 0.50841 0.0
C1442 C 0.90078 0.40707 0.49385 0.0
C1443 C 0.90077 0.42393 0.47889 0.0
C1444 C 0.82175 0.3905 0.48054 0.0
C1445 C 0.86257 0.39816 0.4849 0.0
C1446 C 0.80331 0.3766 0.48322 0.0
C1447 C 0.80556 0.35632 0.49238 0.0
C1448 C 0.84247 0.38416 0.48742 0.0
C1449 C 0.82658 0.35068 0.49902 0.0
C1450 C 0.88187 0.39415 0.49678 0.0
C1451 C 0.88104 0.42754 0.46742 0.0
N1452 N 0.84415 0.36452 0.49647 0.0
N1453 N 0.86271 0.41475 0.47065 0.0
H1454 H 0.76199 0.84871 0.75472 0.0
H1455 H 0.68151 0.93364 0.7927 0.0
H1456 H 0.74161 0.85236 0.81983 0.0
H1457 H 0.70449 0.93022 0.72857 0.0
H1458 H 0.69768 0.89983 0.80148 0.0
H1459 H 0.73558 0.8743 0.74359 0.0
C1460 C 0.75172 0.85459 0.76665 0.0
C1461 C 0.75428 0.8485 0.78832 0.0
C1462 C 0.69884 0.90632 0.78539 0.0
C1463 C 0.72417 0.87832 0.7757 0.0
C1464 C 0.68949 0.92554 0.78032 0.0
C1465 C 0.69198 0.93494 0.75998 0.0
C1466 C 0.7107 0.89648 0.76997 0.0
C1467 C 0.7025 0.92375 0.74458 0.0
C1468 C 0.73669 0.86937 0.76029 0.0
C1469 C 0.7406 0.85696 0.80304 0.0
N1470 N 0.71169 0.90529 0.74997 0.0
N1471 N 0.72631 0.87161 0.79651 0.0
H1472 H 0.64144 0.51222 0.01103 0.0
H1473 H 0.65983 0.63911 0.01945 0.0
H1474 H 0.59275 0.55602 0.99192 0.0
H1475 H 0.71117 0.59658 0.03325 0.0
H1476 H 0.63443 0.60848 0.012 0.0
H1477 H 0.66652 0.5425 0.02178 0.0
C1478 C 0.63599 0.52818 0.0091 0.0
C1479 C 0.61492 0.53152 0.00045 0.0
C1480 C 0.65123 0.60579 0.0167 0.0
C1481 C 0.64354 0.56627 0.01291 0.0
C1482 C 0.66581 0.62333 0.02098 0.0
C1483 C 0.68779 0.6205 0.02691 0.0
C1484 C 0.65856 0.58515 0.01832 0.0
C1485 C 0.69442 0.59957 0.02867 0.0
C1486 C 0.6503 0.54545 0.01533 0.0
C1487 C 0.60868 0.55257 0.99872 0.0
N1488 N 0.67988 0.5827 0.02434 0.0
N1489 N 0.62293 0.5691 0.0048 0.0
H1490 H 0.29146 0.61127 0.21259 0.0
H1491 H 0.17684 0.57464 0.26143 0.0
H1492 H 0.24973 0.65582 0.23916 0.0
H1493 H 0.22105 0.53227 0.23529 0.0
H1494 H 0.20146 0.60507 0.25131 0.0
H1495 H 0.26393 0.58265 0.2185 0.0
C1496 C 0.27637 0.61512 0.21943 0.0
C1497 C 0.27294 0.63607 0.2253 0.0
C1498 C 0.20559 0.58908 0.24763 0.0
C1499 C 0.24129 0.60304 0.23261 0.0
C1500 C 0.19153 0.57173 0.25335 0.0
C1501 C 0.19682 0.55084 0.24915 0.0
C1502 C 0.22503 0.58544 0.2377 0.0
C1503 C 0.21612 0.548 0.23873 0.0
C1504 C 0.26066 0.59868 0.22297 0.0
C1505 C 0.25319 0.63988 0.2346 0.0
N1506 N 0.22949 0.56505 0.23347 0.0
N1507 N 0.23812 0.6235 0.23804 0.0
H1508 H 0.8925 0.54011 0.07696 0.0
H1509 H 0.80482 0.61283 0.01846 0.0
H1510 H 0.89935 0.56817 0.01399 0.0
H1511 H 0.8042 0.59597 0.08579 0.0
H1512 H 0.83655 0.59196 0.0151 0.0
H1513 H 0.85735 0.55612 0.07902 0.0
C1514 C 0.88652 0.54949 0.06351 0.0
C1515 C 0.89894 0.55298 0.04535 0.0
C1516 C 0.8294 0.59272 0.03059 0.0
C1517 C 0.85883 0.5713 0.04759 0.0
C1518 C 0.81121 0.60457 0.03251 0.0
C1519 C 0.80192 0.60633 0.0525 0.0
C1520 C 0.83838 0.58244 0.04874 0.0
C1521 C 0.81091 0.59519 0.0701 0.0
C1522 C 0.86653 0.55869 0.06473 0.0
C1523 C 0.89047 0.56536 0.02843 0.0
N1524 N 0.82871 0.58382 0.06784 0.0
N1525 N 0.87099 0.57408 0.02998 0.0
H1526 H 0.09775 0.94405 0.01807 0.0
H1527 H 0.2116 0.90285 0.98708 0.0
H1528 H 0.15067 0.98619 0.99639 0.0
H1529 H 0.15387 0.86134 0.99576 0.0
H1530 H 0.18941 0.93365 0.98893 0.0
H1531 H 0.11759 0.91364 0.00828 0.0
C1532 C 0.11337 0.94698 0.01092 0.0
C1533 C 0.12256 0.96783 0.00824 0.0
C1534 C 0.18158 0.91778 0.99019 0.0
C1535 C 0.14571 0.93285 0.99746 0.0
C1536 C 0.19424 0.90019 0.98914 0.0
C1537 C 0.18463 0.87948 0.99148 0.0
C1538 C 0.1592 0.91463 0.9938 0.0
C1539 C 0.16204 0.877 0.99404 0.0
C1540 C 0.12479 0.92954 0.00546 0.0
C1541 C 0.1431 0.97045 0.99921 0.0
N1542 N 0.15016 0.89435 0.99536 0.0
N1543 N 0.15407 0.95319 0.99436 0.0
loop_
_geom_bond_atom_site_label_1
_geom_bond_atom_site_label_2
_geom_bond_distance
_geom_bond_site_symmetry_2
_ccdc_geom_bond_type
P0 O11 1.490 . S
P0 C14 1.812 . S
P0 C20 1.803 . S
P0 C26 1.819 . S
H1 C15 0.941 . S
H2 C16 0.939 . S
H3 C18 0.940 . S
H4 C19 0.940 . S
H5 C21 0.939 . S
H6 C22 0.942 . S
H7 C24 0.940 . S
H8 C25 0.939 . S
H9 C27 0.941 . S
H10 C31 0.939 . S
O11 P0 1.490 . S
H12 C28 0.939 . S
H13 C30 0.940 . S
C14 P0 1.812 . S
C14 C15 1.389 . S
C14 C19 1.391 . S
C15 H1 0.941 . S
C15 C14 1.389 . S
C15 C16 1.397 . S
C16 H2 0.939 . S
C16 C15 1.397 . S
C16 C17 1.378 1_455 S
C17 C16 1.378 1_655 S
C17 C18 1.378 . S
C18 H3 0.940 . S
C18 C17 1.378 . S
C18 C19 1.396 1_655 S
C19 H4 0.940 . S
C19 C14 1.391 . S
C19 C18 1.396 1_455 S
C20 P0 1.803 . S
C20 C21 1.378 . S
C20 C25 1.400 . S
C21 H5 0.939 . S
C21 C20 1.378 . S
C21 C22 1.361 . S
C22 H6 0.942 . S
C22 C21 1.361 . S
C22 C23 1.369 1_545 S
C23 C22 1.369 1_565 S
C23 C24 1.404 . S
C24 H7 0.940 . S
C24 C23 1.404 . S
C24 C25 1.389 1_565 S
C25 H8 0.939 . S
C25 C20 1.400 . S
C25 C24 1.389 1_545 S
C26 P0 1.819 . S
C26 C27 1.391 . S
C26 C31 1.391 . S
C27 H9 0.941 . S
C27 C26 1.391 . S
C27 C28 1.396 . S
C28 H12 0.939 . S
C28 C27 1.396 . S
C28 C29 1.397 1_554 S
C29 C28 1.397 1_556 S
C29 C30 1.385 . S
C30 H13 0.940 . S
C30 C29 1.385 . S
C30 C31 1.388 1_556 S
C31 H10 0.939 . S
C31 C26 1.391 . S
C31 C30 1.388 1_554 S
P32 O43 1.490 . S
P32 C46 1.812 . S
P32 C52 1.803 . S
P32 C58 1.819 . S
H33 C47 0.941 . S
H34 C48 0.939 . S
H35 C50 0.940 . S
H36 C51 0.940 . S
H37 C53 0.939 . S
H38 C54 0.942 . S
H39 C56 0.940 . S
H40 C57 0.939 . S
H41 C59 0.941 . S
H42 C63 0.939 . S
O43 P32 1.490 . S
H44 C60 0.939 . S
H45 C62 0.940 . S
C46 P32 1.812 . S
C46 C47 1.389 . S
C46 C51 1.391 . S
C47 H33 0.941 . S
C47 C46 1.389 . S
C47 C48 1.397 . S
C48 H34 0.939 . S
C48 C47 1.397 . S
C48 C49 1.378 . S
C49 C48 1.378 . S
C49 C50 1.378 . S
C50 H35 0.940 . S
C50 C49 1.378 . S
C50 C51 1.396 . S
C51 H36 0.940 . S
C51 C46 1.391 . S
C51 C50 1.396 . S
C52 P32 1.803 . S
C52 C53 1.378 . S
C52 C57 1.400 . S
C53 H37 0.939 . S
C53 C52 1.378 . S
C53 C54 1.361 . S
C54 H38 0.942 . S
C54 C53 1.361 . S
C54 C55 1.369 . S
C55 C54 1.369 . S
C55 C56 1.404 . S
C56 H39 0.940 . S
C56 C55 1.404 . S
C56 C57 1.389 . S
C57 H40 0.939 . S
C57 C52 1.400 . S
C57 C56 1.389 . S
C58 P32 1.819 . S
C58 C59 1.391 . S
C58 C63 1.391 . S
C59 H41 0.941 . S
C59 C58 1.391 . S
C59 C60 1.396 . S
C60 H44 0.939 . S
C60 C59 1.396 . S
C60 C61 1.397 . S
C61 C60 1.397 . S
C61 C62 1.385 . S
C62 H45 0.940 . S
C62 C61 1.385 . S
C62 C63 1.388 . S
C63 H42 0.939 . S
C63 C58 1.391 . S
C63 C62 1.388 . S
P64 O75 1.490 1_655 S
P64 C78 1.812 . S
P64 C84 1.803 . S
P64 C90 1.819 1_655 S
H65 C79 0.935 1_455 S
H66 C80 0.935 1_455 S
H67 C82 0.940 . S
H68 C83 0.940 . S
H69 C85 0.939 . S
H70 C86 0.942 . S
H71 C88 0.940 . S
H72 C89 0.939 . S
H73 C91 0.941 . S
H74 C95 0.939 . S
O75 P64 1.490 1_455 S
H76 C92 0.939 . S
H77 C94 0.940 1_655 S
C78 P64 1.812 . S
C78 C79 1.397 1_554 S
C78 C83 1.391 . S
C79 H65 0.935 1_655 S
C79 C78 1.397 1_556 S
C79 C80 1.396 . S
C80 H66 0.935 1_655 S
C80 C79 1.396 . S
C80 C81 1.378 1_556 S
C81 C80 1.378 1_554 S
C81 C82 1.378 . S
C82 H67 0.940 . S
C82 C81 1.378 . S
C82 C83 1.396 . S
C83 H68 0.940 . S
C83 C78 1.391 . S
C83 C82 1.396 . S
C84 P64 1.803 . S
C84 C85 1.378 . S
C84 C89 1.400 . S
C85 H69 0.939 . S
C85 C84 1.378 . S
C85 C86 1.361 . S
C86 H70 0.942 . S
C86 C85 1.361 . S
C86 C87 1.369 . S
C87 C86 1.369 . S
C87 C88 1.404 . S
C88 H71 0.940 . S
C88 C87 1.404 . S
C88 C89 1.389 . S
C89 H72 0.939 . S
C89 C84 1.400 . S
C89 C88 1.389 . S
C90 P64 1.819 1_455 S
C90 C91 1.391 . S
C90 C95 1.391 1_455 S
C91 H73 0.941 . S
C91 C90 1.391 . S
C91 C92 1.396 . S
C92 H76 0.939 . S
C92 C91 1.396 . S
C92 C93 1.397 . S
C93 C92 1.397 . S
C93 C94 1.385 . S
C94 H77 0.940 1_455 S
C94 C93 1.385 . S
C94 C95 1.388 1_455 S
C95 H74 0.939 . S
C95 C90 1.391 1_655 S
C95 C94 1.388 1_655 S
P96 O107 1.490 . S
P96 C110 1.812 . S
P96 C116 1.803 . S
P96 C122 1.819 . S
H97 C111 0.941 . S
H98 C112 0.939 . S
H99 C114 0.940 . S
H100 C115 0.940 . S
H101 C117 0.939 . S
H102 C118 0.942 . S
H103 C120 0.940 . S
H104 C121 0.939 . S
H105 C123 0.941 . S
H106 C127 0.939 . S
O107 P96 1.490 . S
H108 C124 0.939 . S
H109 C126 0.940 . S
C110 P96 1.812 . S
C110 C111 1.389 . S
C110 C115 1.391 . S
C111 H97 0.941 . S
C111 C110 1.389 . S
C111 C112 1.397 . S
C112 H98 0.939 . S
C112 C111 1.397 . S
C112 C113 1.378 . S
C113 C112 1.378 . S
C113 C114 1.378 . S
C114 H99 0.940 . S
C114 C113 1.378 . S
C114 C115 1.396 . S
C115 H100 0.940 . S
C115 C110 1.391 . S
C115 C114 1.396 . S
C116 P96 1.803 . S
C116 C117 1.378 . S
C116 C121 1.400 . S
C117 H101 0.939 . S
C117 C116 1.378 . S
C117 C118 1.361 . S
C118 H102 0.942 . S
C118 C117 1.361 . S
C118 C119 1.369 . S
C119 C118 1.369 . S
C119 C120 1.404 . S
C120 H103 0.940 . S
C120 C119 1.404 . S
C120 C121 1.389 . S
C121 H104 0.939 . S
C121 C116 1.400 . S
C121 C120 1.389 . S
C122 P96 1.819 . S
C122 C123 1.391 . S
C122 C127 1.391 . S
C123 H105 0.941 . S
C123 C122 1.391 . S
C123 C124 1.396 . S
C124 H108 0.939 . S
C124 C123 1.396 . S
C124 C125 1.397 . S
C125 C124 1.397 . S
C125 C126 1.385 . S
C126 H109 0.940 . S
C126 C125 1.385 . S
C126 C127 1.388 . S
C127 H106 0.939 . S
C127 C122 1.391 . S
C127 C126 1.388 . S
P128 O139 1.490 . S
P128 C142 1.812 . S
P128 C148 1.803 . S
P128 C154 1.819 . S
H129 C143 0.941 . S
H130 C144 0.939 . S
H131 C146 0.940 . S
H132 C147 0.940 . S
H133 C149 0.939 . S
H134 C150 0.942 . S
H135 C152 0.940 . S
H136 C153 0.939 . S
H137 C155 0.941 . S
H138 C159 0.939 . S
O139 P128 1.490 . S
H140 C156 0.939 . S
H141 C158 0.940 1_655 S
C142 P128 1.812 . S
C142 C143 1.389 . S
C142 C147 1.391 . S
C143 H129 0.941 . S
C143 C142 1.389 . S
C143 C144 1.397 . S
C144 H130 0.939 . S
C144 C143 1.397 . S
C144 C145 1.378 1_565 S
C145 C144 1.378 1_545 S
C145 C146 1.378 . S
C146 H131 0.940 . S
C146 C145 1.378 . S
C146 C147 1.396 1_545 S
C147 H132 0.940 . S
C147 C142 1.391 . S
C147 C146 1.396 1_565 S
C148 P128 1.803 . S
C148 C149 1.378 . S
C148 C153 1.400 . S
C149 H133 0.939 . S
C149 C148 1.378 . S
C149 C150 1.361 . S
C150 H134 0.942 . S
C150 C149 1.361 . S
C150 C151 1.369 . S
C151 C150 1.369 . S
C151 C152 1.404 . S
C152 H135 0.940 . S
C152 C151 1.404 . S
C152 C153 1.389 . S
C153 H136 0.939 . S
C153 C148 1.400 . S
C153 C152 1.389 . S
C154 P128 1.819 . S
C154 C155 1.391 . S
C154 C159 1.391 . S
C155 H137 0.941 . S
C155 C154 1.391 . S
C155 C156 1.396 . S
C156 H140 0.939 . S
C156 C155 1.396 . S
C156 C157 1.397 . S
C157 C156 1.397 . S
C157 C158 1.385 . S
C158 H141 0.940 1_455 S
C158 C157 1.385 . S
C158 C159 1.388 . S
C159 H138 0.939 . S
C159 C154 1.391 . S
C159 C158 1.388 . S
P160 O171 1.490 . S
P160 C174 1.812 . S
P160 C180 1.803 . S
P160 C186 1.819 . S
H161 C175 0.941 . S
H162 C176 0.939 . S
H163 C178 0.940 . S
H164 C179 0.940 . S
H165 C181 0.939 . S
H166 C182 0.942 . S
H167 C184 0.940 . S
H168 C185 0.939 . S
H169 C187 0.941 . S
H170 C191 0.939 . S
O171 P160 1.490 . S
H172 C188 0.939 . S
H173 C190 0.940 . S
C174 P160 1.812 . S
C174 C175 1.389 . S
C174 C179 1.391 . S
C175 H161 0.941 . S
C175 C174 1.389 . S
C175 C176 1.397 . S
C176 H162 0.939 . S
C176 C175 1.397 . S
C176 C177 1.378 . S
C177 C176 1.378 . S
C177 C178 1.378 . S
C178 H163 0.940 . S
C178 C177 1.378 . S
C178 C179 1.396 . S
C179 H164 0.940 . S
C179 C174 1.391 . S
C179 C178 1.396 . S
C180 P160 1.803 . S
C180 C181 1.378 . S
C180 C185 1.400 . S
C181 H165 0.939 . S
C181 C180 1.378 . S
C181 C182 1.361 . S
C182 H166 0.942 . S
C182 C181 1.361 . S
C182 C183 1.369 . S
C183 C182 1.369 . S
C183 C184 1.404 . S
C184 H167 0.940 . S
C184 C183 1.404 . S
C184 C185 1.389 . S
C185 H168 0.939 . S
C185 C180 1.400 . S
C185 C184 1.389 . S
C186 P160 1.819 . S
C186 C187 1.391 . S
C186 C191 1.391 . S
C187 H169 0.941 . S
C187 C186 1.391 . S
C187 C188 1.396 . S
C188 H172 0.939 . S
C188 C187 1.396 . S
C188 C189 1.397 . S
C189 C188 1.397 . S
C189 C190 1.385 . S
C190 H173 0.940 . S
C190 C189 1.385 . S
C190 C191 1.388 . S
C191 H170 0.939 . S
C191 C186 1.391 . S
C191 C190 1.388 . S
P192 O203 1.494 . S
P192 C206 1.812 . S
P192 C212 1.803 . S
P192 C218 1.819 . S
H193 C207 0.941 . S
H194 C208 0.939 . S
H195 C210 0.940 . S
H196 C211 0.940 . S
H197 C213 0.939 . S
H198 C214 0.942 . S
H199 C216 0.940 . S
H200 C217 0.939 . S
H201 C219 0.941 . S
H202 C223 0.939 . S
O203 P192 1.494 . S
H204 C220 0.939 . S
H205 C222 0.940 . S
C206 P192 1.812 . S
C206 C207 1.389 1_655 S
C206 C211 1.391 . S
C207 H193 0.941 . S
C207 C206 1.389 1_455 S
C207 C208 1.397 . S
C208 H194 0.939 . S
C208 C207 1.397 . S
C208 C209 1.378 . S
C209 C208 1.378 . S
C209 C210 1.378 1_455 S
C210 H195 0.940 . S
C210 C209 1.378 1_655 S
C210 C211 1.396 . S
C211 H196 0.940 . S
C211 C206 1.391 . S
C211 C210 1.396 . S
C212 P192 1.803 . S
C212 C213 1.378 . S
C212 C217 1.400 . S
C213 H197 0.939 . S
C213 C212 1.378 . S
C213 C214 1.361 . S
C214 H198 0.942 . S
C214 C213 1.361 . S
C214 C215 1.369 . S
C215 C214 1.369 . S
C215 C216 1.404 . S
C216 H199 0.940 . S
C216 C215 1.404 . S
C216 C217 1.389 . S
C217 H200 0.939 . S
C217 C212 1.400 . S
C217 C216 1.389 . S
C218 P192 1.819 . S
C218 C219 1.391 . S
C218 C223 1.391 . S
C219 H201 0.941 . S
C219 C218 1.391 . S
C219 C220 1.396 . S
C220 H204 0.939 . S
C220 C219 1.396 . S
C220 C221 1.397 . S
C221 C220 1.397 . S
C221 C222 1.385 . S
C222 H205 0.940 . S
C222 C221 1.385 . S
C222 C223 1.388 . S
C223 H202 0.939 . S
C223 C218 1.391 . S
C223 C222 1.388 . S
P224 O235 1.490 . S
P224 C238 1.812 . S
P224 C244 1.803 . S
P224 C250 1.819 . S
H225 C239 0.941 . S
H226 C240 0.939 . S
H227 C242 0.940 . S
H228 C243 0.940 . S
H229 C245 0.939 . S
H230 C246 0.942 . S
H231 C248 0.940 . S
H232 C249 0.939 . S
H233 C251 0.941 . S
H234 C255 0.939 . S
O235 P224 1.490 . S
H236 C252 0.939 . S
H237 C254 0.940 . S
C238 P224 1.812 . S
C238 C239 1.389 . S
C238 C243 1.391 . S
C239 H225 0.941 . S
C239 C238 1.389 . S
C239 C240 1.397 . S
C240 H226 0.939 . S
C240 C239 1.397 . S
C240 C241 1.378 . S
C241 C240 1.378 . S
C241 C242 1.378 . S
C242 H227 0.940 . S
C242 C241 1.378 . S
C242 C243 1.396 . S
C243 H228 0.940 . S
C243 C238 1.391 . S
C243 C242 1.396 . S
C244 P224 1.803 . S
C244 C245 1.378 . S
C244 C249 1.400 . S
C245 H229 0.939 . S
C245 C244 1.378 . S
C245 C246 1.361 . S
C246 H230 0.942 . S
C246 C245 1.361 . S
C246 C247 1.369 . S
C247 C246 1.369 . S
C247 C248 1.404 . S
C248 H231 0.940 . S
C248 C247 1.404 . S
C248 C249 1.389 . S
C249 H232 0.939 . S
C249 C244 1.400 . S
C249 C248 1.389 . S
C250 P224 1.819 . S
C250 C251 1.391 . S
C250 C255 1.391 . S
C251 H233 0.941 . S
C251 C250 1.391 . S
C251 C252 1.396 . S
C252 H236 0.939 . S
C252 C251 1.396 . S
C252 C253 1.397 . S
C253 C252 1.397 . S
C253 C254 1.385 . S
C254 H237 0.940 . S
C254 C253 1.385 . S
C254 C255 1.388 . S
C255 H234 0.939 . S
C255 C250 1.391 . S
C255 C254 1.388 . S
P256 O267 1.490 . S
P256 C270 1.812 . S
P256 C276 1.803 . S
P256 C282 1.819 . S
H257 C271 0.941 . S
H258 C272 0.939 . S
H259 C274 0.940 . S
H260 C275 0.940 . S
H261 C277 0.939 . S
H262 C278 0.942 . S
H263 C280 0.940 . S
H264 C281 0.939 . S
H265 C283 0.941 . S
H266 C287 0.939 . S
O267 P256 1.490 . S
H268 C284 0.939 . S
H269 C286 0.940 . S
C270 P256 1.812 . S
C270 C271 1.389 . S
C270 C275 1.391 . S
C271 H257 0.941 . S
C271 C270 1.389 . S
C271 C272 1.397 . S
C272 H258 0.939 . S
C272 C271 1.397 . S
C272 C273 1.378 . S
C273 C272 1.378 . S
C273 C274 1.378 . S
C274 H259 0.940 . S
C274 C273 1.378 . S
C274 C275 1.396 . S
C275 H260 0.940 . S
C275 C270 1.391 . S
C275 C274 1.396 . S
C276 P256 1.803 . S
C276 C277 1.378 . S
C276 C281 1.400 . S
C277 H261 0.939 . S
C277 C276 1.378 . S
C277 C278 1.361 . S
C278 H262 0.942 . S
C278 C277 1.361 . S
C278 C279 1.369 . S
C279 C278 1.369 . S
C279 C280 1.404 . S
C280 H263 0.940 . S
C280 C279 1.404 . S
C280 C281 1.389 . S
C281 H264 0.939 . S
C281 C276 1.400 . S
C281 C280 1.389 . S
C282 P256 1.819 . S
C282 C283 1.391 . S
C282 C287 1.391 . S
C283 H265 0.941 . S
C283 C282 1.391 . S
C283 C284 1.396 . S
C284 H268 0.939 . S
C284 C283 1.396 . S
C284 C285 1.397 . S
C285 C284 1.397 . S
C285 C286 1.385 . S
C286 H269 0.940 . S
C286 C285 1.385 . S
C286 C287 1.388 . S
C287 H266 0.939 . S
C287 C282 1.391 . S
C287 C286 1.388 . S
P288 O299 1.490 1_565 S
P288 C302 1.812 . S
P288 C308 1.803 . S
P288 C314 1.819 . S
H289 C303 0.941 . S
H290 C304 0.939 . S
H291 C306 0.940 . S
H292 C307 0.940 . S
H293 C309 0.939 . S
H294 C310 0.942 . S
H295 C312 0.940 . S
H296 C313 0.939 . S
H297 C315 0.941 . S
H298 C319 0.939 . S
O299 P288 1.490 1_545 S
H300 C316 0.939 . S
H301 C318 0.940 . S
C302 P288 1.812 . S
C302 C303 1.389 . S
C302 C307 1.391 . S
C303 H289 0.941 . S
C303 C302 1.389 . S
C303 C304 1.397 . S
C304 H290 0.939 . S
C304 C303 1.397 . S
C304 C305 1.378 . S
C305 C304 1.378 . S
C305 C306 1.378 . S
C306 H291 0.940 . S
C306 C305 1.378 . S
C306 C307 1.396 . S
C307 H292 0.940 . S
C307 C302 1.391 . S
C307 C306 1.396 . S
C308 P288 1.803 . S
C308 C309 1.378 1_565 S
C308 C313 1.400 . S
C309 H293 0.939 . S
C309 C308 1.378 1_545 S
C309 C310 1.361 . S
C310 H294 0.942 . S
C310 C309 1.361 . S
C310 C311 1.369 . S
C311 C310 1.369 . S
C311 C312 1.404 1_545 S
C312 H295 0.940 . S
C312 C311 1.404 1_565 S
C312 C313 1.389 . S
C313 H296 0.939 . S
C313 C308 1.400 . S
C313 C312 1.389 . S
C314 P288 1.819 . S
C314 C315 1.391 . S
C314 C319 1.391 . S
C315 H297 0.941 . S
C315 C314 1.391 . S
C315 C316 1.396 . S
C316 H300 0.939 . S
C316 C315 1.396 . S
C316 C317 1.397 . S
C317 C316 1.397 . S
C317 C318 1.385 . S
C318 H301 0.940 . S
C318 C317 1.385 . S
C318 C319 1.388 . S
C319 H298 0.939 . S
C319 C314 1.391 . S
C319 C318 1.388 . S
P320 O331 1.490 . S
P320 C334 1.812 . S
P320 C340 1.803 . S
P320 C346 1.819 . S
H321 C335 0.941 . S
H322 C336 0.939 . S
H323 C338 0.940 . S
H324 C339 0.940 . S
H325 C341 0.939 . S
H326 C342 0.942 . S
H327 C344 0.940 . S
H328 C345 0.939 . S
H329 C347 0.941 . S
H330 C351 0.939 . S
O331 P320 1.490 . S
H332 C348 0.939 . S
H333 C350 0.940 . S
C334 P320 1.812 . S
C334 C335 1.389 . S
C334 C339 1.391 . S
C335 H321 0.941 . S
C335 C334 1.389 . S
C335 C336 1.397 . S
C336 H322 0.939 . S
C336 C335 1.397 . S
C336 C337 1.378 . S
C337 C336 1.378 . S
C337 C338 1.378 . S
C338 H323 0.940 . S
C338 C337 1.378 . S
C338 C339 1.396 . S
C339 H324 0.940 . S
C339 C334 1.391 . S
C339 C338 1.396 . S
C340 P320 1.803 . S
C340 C341 1.378 . S
C340 C345 1.400 . S
C341 H325 0.939 . S
C341 C340 1.378 . S
C341 C342 1.361 . S
C342 H326 0.942 . S
C342 C341 1.361 . S
C342 C343 1.369 . S
C343 C342 1.369 . S
C343 C344 1.404 . S
C344 H327 0.940 . S
C344 C343 1.404 . S
C344 C345 1.389 . S
C345 H328 0.939 . S
C345 C340 1.400 . S
C345 C344 1.389 . S
C346 P320 1.819 . S
C346 C347 1.391 . S
C346 C351 1.391 . S
C347 H329 0.941 . S
C347 C346 1.391 . S
C347 C348 1.396 . S
C348 H332 0.939 . S
C348 C347 1.396 . S
C348 C349 1.397 . S
C349 C348 1.397 . S
C349 C350 1.385 . S
C350 H333 0.940 . S
C350 C349 1.385 . S
C350 C351 1.388 . S
C351 H330 0.939 . S
C351 C346 1.391 . S
C351 C350 1.388 . S
P352 O363 1.490 . S
P352 C366 1.812 . S
P352 C372 1.803 . S
P352 C378 1.819 . S
H353 C367 0.941 . S
H354 C368 0.939 . S
H355 C370 0.940 . S
H356 C371 0.940 . S
H357 C373 0.939 . S
H358 C374 0.942 . S
H359 C376 0.940 . S
H360 C377 0.939 . S
H361 C379 0.941 . S
H362 C383 0.939 . S
O363 P352 1.490 . S
H364 C380 0.939 . S
H365 C382 0.940 . S
C366 P352 1.812 . S
C366 C367 1.389 . S
C366 C371 1.391 . S
C367 H353 0.941 . S
C367 C366 1.389 . S
C367 C368 1.397 . S
C368 H354 0.939 . S
C368 C367 1.397 . S
C368 C369 1.378 . S
C369 C368 1.378 . S
C369 C370 1.378 . S
C370 H355 0.940 . S
C370 C369 1.378 . S
C370 C371 1.396 . S
C371 H356 0.940 . S
C371 C366 1.391 . S
C371 C370 1.396 . S
C372 P352 1.803 . S
C372 C373 1.378 . S
C372 C377 1.400 . S
C373 H357 0.939 . S
C373 C372 1.378 . S
C373 C374 1.361 . S
C374 H358 0.942 . S
C374 C373 1.361 . S
C374 C375 1.369 . S
C375 C374 1.369 . S
C375 C376 1.404 . S
C376 H359 0.940 . S
C376 C375 1.404 . S
C376 C377 1.389 . S
C377 H360 0.939 . S
C377 C372 1.400 . S
C377 C376 1.389 . S
C378 P352 1.819 . S
C378 C379 1.391 . S
C378 C383 1.391 . S
C379 H361 0.941 . S
C379 C378 1.391 . S
C379 C380 1.396 . S
C380 H364 0.939 . S
C380 C379 1.396 . S
C380 C381 1.397 . S
C381 C380 1.397 . S
C381 C382 1.385 . S
C382 H365 0.940 . S
C382 C381 1.385 . S
C382 C383 1.388 . S
C383 H362 0.939 . S
C383 C378 1.391 . S
C383 C382 1.388 . S
P384 O395 1.490 . S
P384 C398 1.812 . S
P384 C404 1.803 . S
P384 C410 1.819 . S
H385 C399 0.941 . S
H386 C400 0.939 . S
H387 C402 0.940 . S
H388 C403 0.940 . S
H389 C405 0.939 . S
H390 C406 0.942 . S
H391 C408 0.940 . S
H392 C409 0.939 . S
H393 C411 0.941 . S
H394 C415 0.939 . S
O395 P384 1.490 . S
H396 C412 0.939 . S
H397 C414 0.940 . S
C398 P384 1.812 . S
C398 C399 1.389 . S
C398 C403 1.391 . S
C399 H385 0.941 . S
C399 C398 1.389 . S
C399 C400 1.397 . S
C400 H386 0.939 . S
C400 C399 1.397 . S
C400 C401 1.378 . S
C401 C400 1.378 . S
C401 C402 1.378 . S
C402 H387 0.940 . S
C402 C401 1.378 . S
C402 C403 1.396 . S
C403 H388 0.940 . S
C403 C398 1.391 . S
C403 C402 1.396 . S
C404 P384 1.803 . S
C404 C405 1.378 . S
C404 C409 1.400 . S
C405 H389 0.939 . S
C405 C404 1.378 . S
C405 C406 1.361 . S
C406 H390 0.942 . S
C406 C405 1.361 . S
C406 C407 1.369 . S
C407 C406 1.369 . S
C407 C408 1.404 . S
C408 H391 0.940 . S
C408 C407 1.404 . S
C408 C409 1.389 . S
C409 H392 0.939 . S
C409 C404 1.400 . S
C409 C408 1.389 . S
C410 P384 1.819 . S
C410 C411 1.391 . S
C410 C415 1.391 . S
C411 H393 0.941 . S
C411 C410 1.391 . S
C411 C412 1.396 . S
C412 H396 0.939 . S
C412 C411 1.396 . S
C412 C413 1.397 . S
C413 C412 1.397 . S
C413 C414 1.385 . S
C414 H397 0.940 . S
C414 C413 1.385 . S
C414 C415 1.388 . S
C415 H394 0.939 . S
C415 C410 1.391 . S
C415 C414 1.388 . S
P416 O427 1.490 . S
P416 C430 1.812 . S
P416 C436 1.803 . S
P416 C442 1.819 . S
H417 C431 0.941 . S
H418 C432 0.939 . S
H419 C434 0.940 . S
H420 C435 0.940 . S
H421 C437 0.939 . S
H422 C438 0.942 . S
H423 C440 0.940 . S
H424 C441 0.939 . S
H425 C443 0.941 . S
H426 C447 0.939 . S
O427 P416 1.490 . S
H428 C444 0.939 . S
H429 C446 0.940 . S
C430 P416 1.812 . S
C430 C431 1.389 . S
C430 C435 1.391 . S
C431 H417 0.941 . S
C431 C430 1.389 . S
C431 C432 1.397 . S
C432 H418 0.939 . S
C432 C431 1.397 . S
C432 C433 1.378 . S
C433 C432 1.378 . S
C433 C434 1.378 . S
C434 H419 0.940 . S
C434 C433 1.378 . S
C434 C435 1.396 . S
C435 H420 0.940 . S
C435 C430 1.391 . S
C435 C434 1.396 . S
C436 P416 1.803 . S
C436 C437 1.378 . S
C436 C441 1.400 . S
C437 H421 0.939 . S
C437 C436 1.378 . S
C437 C438 1.361 . S
C438 H422 0.942 . S
C438 C437 1.361 . S
C438 C439 1.369 1_556 S
C439 C438 1.369 1_554 S
C439 C440 1.404 . S
C440 H423 0.940 . S
C440 C439 1.404 . S
C440 C441 1.389 1_554 S
C441 H424 0.939 . S
C441 C436 1.400 . S
C441 C440 1.389 1_556 S
C442 P416 1.819 . S
C442 C443 1.391 . S
C442 C447 1.391 . S
C443 H425 0.941 . S
C443 C442 1.391 . S
C443 C444 1.396 . S
C444 H428 0.939 . S
C444 C443 1.396 . S
C444 C445 1.397 . S
C445 C444 1.397 . S
C445 C446 1.385 . S
C446 H429 0.940 . S
C446 C445 1.385 . S
C446 C447 1.388 . S
C447 H426 0.939 . S
C447 C442 1.391 . S
C447 C446 1.388 . S
P448 O459 1.490 . S
P448 C462 1.812 . S
P448 C468 1.803 . S
P448 C474 1.819 . S
H449 C463 0.941 . S
H450 C464 0.939 . S
H451 C466 0.940 . S
H452 C467 0.940 . S
H453 C469 0.939 . S
H454 C470 0.942 . S
H455 C472 0.940 . S
H456 C473 0.939 . S
H457 C475 0.941 . S
H458 C479 0.939 . S
O459 P448 1.490 . S
H460 C476 0.939 . S
H461 C478 0.940 . S
C462 P448 1.812 . S
C462 C463 1.389 . S
C462 C467 1.391 . S
C463 H449 0.941 . S
C463 C462 1.389 . S
C463 C464 1.397 . S
C464 H450 0.939 . S
C464 C463 1.397 . S
C464 C465 1.378 . S
C465 C464 1.378 . S
C465 C466 1.378 . S
C466 H451 0.940 . S
C466 C465 1.378 . S
C466 C467 1.396 . S
C467 H452 0.940 . S
C467 C462 1.391 . S
C467 C466 1.396 . S
C468 P448 1.803 . S
C468 C469 1.378 . S
C468 C473 1.400 . S
C469 H453 0.939 . S
C469 C468 1.378 . S
C469 C470 1.361 . S
C470 H454 0.942 . S
C470 C469 1.361 . S
C470 C471 1.369 . S
C471 C470 1.369 . S
C471 C472 1.404 . S
C472 H455 0.940 . S
C472 C471 1.404 . S
C472 C473 1.389 . S
C473 H456 0.939 . S
C473 C468 1.400 . S
C473 C472 1.389 . S
C474 P448 1.819 . S
C474 C475 1.391 . S
C474 C479 1.391 . S
C475 H457 0.941 . S
C475 C474 1.391 . S
C475 C476 1.396 . S
C476 H460 0.939 . S
C476 C475 1.396 . S
C476 C477 1.397 . S
C477 C476 1.397 . S
C477 C478 1.385 . S
C478 H461 0.940 . S
C478 C477 1.385 . S
C478 C479 1.388 . S
C479 H458 0.939 . S
C479 C474 1.391 . S
C479 C478 1.388 . S
P480 O491 1.490 1_556 S
P480 C494 1.812 . S
P480 C500 1.803 1_556 S
P480 C506 1.819 . S
H481 C495 0.941 . S
H482 C496 0.939 . S
H483 C498 0.940 . S
H484 C499 0.940 . S
H485 C501 0.939 . S
H486 C502 0.942 . S
H487 C504 0.940 . S
H488 C505 0.939 . S
H489 C507 0.941 . S
H490 C511 0.939 . S
O491 P480 1.490 1_554 S
H492 C508 0.939 . S
H493 C510 0.940 . S
C494 P480 1.812 . S
C494 C495 1.389 . S
C494 C499 1.391 . S
C495 H481 0.941 . S
C495 C494 1.389 . S
C495 C496 1.397 . S
C496 H482 0.939 . S
C496 C495 1.397 . S
C496 C497 1.378 . S
C497 C496 1.378 . S
C497 C498 1.378 . S
C498 H483 0.940 . S
C498 C497 1.378 . S
C498 C499 1.396 . S
C499 H484 0.940 . S
C499 C494 1.391 . S
C499 C498 1.396 . S
C500 P480 1.803 1_554 S
C500 C501 1.378 . S
C500 C505 1.400 1_554 S
C501 H485 0.939 . S
C501 C500 1.378 . S
C501 C502 1.361 . S
C502 H486 0.942 . S
C502 C501 1.361 . S
C502 C503 1.369 . S
C503 C502 1.369 . S
C503 C504 1.404 1_554 S
C504 H487 0.940 . S
C504 C503 1.404 1_556 S
C504 C505 1.389 . S
C505 H488 0.939 . S
C505 C500 1.400 1_556 S
C505 C504 1.389 . S
C506 P480 1.819 . S
C506 C507 1.391 1_545 S
C506 C511 1.391 . S
C507 H489 0.941 . S
C507 C506 1.391 1_565 S
C507 C508 1.396 . S
C508 H492 0.939 . S
C508 C507 1.396 . S
C508 C509 1.397 . S
C509 C508 1.397 . S
C509 C510 1.385 1_565 S
C510 H493 0.940 . S
C510 C509 1.385 1_545 S
C510 C511 1.388 . S
C511 H490 0.939 . S
C511 C506 1.391 . S
C511 C510 1.388 . S
Mg512 O513 2.028 . S
Mg512 O519 1.986 1_554 S
Mg512 O521 2.114 . S
Mg512 O522 2.251 . S
Mg512 O525 2.010 . S
O513 Mg512 2.028 . S
O513 C516 1.243 1_554 S
O514 Mg515 2.028 . S
O514 C516 1.253 . S
Mg515 O514 2.028 . S
Mg515 O520 2.032 . S
Mg515 O522 2.079 1_556 S
C516 O513 1.243 1_556 S
C516 O514 1.253 . S
C517 O518 1.264 . S
C517 O525 1.249 . S
O518 C517 1.264 . S
O519 Mg512 1.986 1_556 S
O519 C523 1.246 . S
O520 Mg515 2.032 . S
O520 C523 1.259 . S
O521 Mg512 2.114 . S
O521 C524 1.252 . S
O522 Mg512 2.251 . S
O522 Mg515 2.079 1_554 S
O522 C524 1.273 . S
C523 O519 1.246 . S
C523 O520 1.259 . S
C524 O521 1.252 . S
C524 O522 1.273 . S
O525 Mg512 2.010 . S
O525 C517 1.249 . S
Mg526 O527 2.028 . S
Mg526 O533 1.986 . S
Mg526 O535 2.114 . S
Mg526 O536 2.251 . S
Mg526 O539 2.010 . S
O527 Mg526 2.028 . S
O527 C530 1.250 . S
O528 Mg529 2.028 . S
O528 C530 1.248 . S
Mg529 O528 2.028 . S
Mg529 O534 2.032 . S
Mg529 O536 2.079 . S
C530 O527 1.250 . S
C530 O528 1.248 . S
C531 O532 1.264 . S
C531 O539 1.249 . S
O532 C531 1.264 . S
O533 Mg526 1.986 . S
O533 C537 1.246 . S
O534 Mg529 2.032 . S
O534 C537 1.259 . S
O535 Mg526 2.114 . S
O535 C538 1.252 . S
O536 Mg526 2.251 . S
O536 Mg529 2.079 . S
O536 C538 1.273 . S
C537 O533 1.246 . S
C537 O534 1.259 . S
C538 O535 1.252 . S
C538 O536 1.273 . S
O539 Mg526 2.010 . S
O539 C531 1.249 . S
Mg540 O541 2.028 . S
Mg540 O547 1.986 1_554 S
Mg540 O549 2.114 . S
Mg540 O550 2.251 . S
Mg540 O553 2.010 . S
O541 Mg540 2.028 . S
O541 C544 1.250 . S
O542 Mg543 2.028 1_554 S
O542 C544 1.248 . S
Mg543 O542 2.028 1_556 S
Mg543 O548 2.032 . S
Mg543 O550 2.079 1_556 S
C544 O541 1.250 . S
C544 O542 1.248 . S
C545 O546 1.264 . S
C545 O553 1.249 . S
O546 C545 1.264 . S
O547 Mg540 1.986 1_556 S
O547 C551 1.246 . S
O548 Mg543 2.032 . S
O548 C551 1.259 . S
O549 Mg540 2.114 . S
O549 C552 1.252 . S
O550 Mg540 2.251 . S
O550 Mg543 2.079 1_554 S
O550 C552 1.273 . S
C551 O547 1.246 . S
C551 O548 1.259 . S
C552 O549 1.252 . S
C552 O550 1.273 . S
O553 Mg540 2.010 . S
O553 C545 1.249 . S
Mg554 O555 2.028 . S
Mg554 O561 1.986 . S
Mg554 O563 2.114 . S
Mg554 O564 2.251 . S
Mg554 O567 2.010 . S
O555 Mg554 2.028 . S
O555 C558 1.250 1_545 S
O556 Mg557 2.028 . S
O556 C558 1.248 . S
Mg557 O556 2.028 . S
Mg557 O562 2.032 . S
Mg557 O564 2.079 1_565 S
C558 O555 1.250 1_565 S
C558 O556 1.248 . S
C559 O560 1.264 . S
C559 O567 1.249 . S
O560 C559 1.264 . S
O561 Mg554 1.986 . S
O561 C565 1.246 . S
O562 Mg557 2.032 . S
O562 C565 1.259 1_565 S
O563 Mg554 2.114 . S
O563 C566 1.252 . S
O564 Mg554 2.251 . S
O564 Mg557 2.079 1_545 S
O564 C566 1.273 . S
C565 O561 1.246 . S
C565 O562 1.259 1_545 S
C566 O563 1.252 . S
C566 O564 1.273 . S
O567 Mg554 2.010 . S
O567 C559 1.249 . S
Mg568 O569 2.028 . S
Mg568 O575 1.986 . S
Mg568 O577 2.114 . S
Mg568 O578 2.251 . S
Mg568 O581 2.010 . S
O569 Mg568 2.028 . S
O569 C572 1.250 . S
O570 Mg571 2.028 . S
O570 C572 1.248 . S
Mg571 O570 2.028 . S
Mg571 O576 2.032 . S
Mg571 O578 2.079 . S
C572 O569 1.250 . S
C572 O570 1.248 . S
C573 O574 1.264 . S
C573 O581 1.249 . S
O574 C573 1.264 . S
O575 Mg568 1.986 . S
O575 C579 1.246 . S
O576 Mg571 2.032 . S
O576 C579 1.259 . S
O577 Mg568 2.114 . S
O577 C580 1.252 . S
O578 Mg568 2.251 . S
O578 Mg571 2.079 . S
O578 C580 1.273 . S
C579 O575 1.246 . S
C579 O576 1.259 . S
C580 O577 1.252 . S
C580 O578 1.273 . S
O581 Mg568 2.010 . S
O581 C573 1.249 . S
Mg582 O583 2.028 . S
Mg582 O589 1.986 . S
Mg582 O591 2.114 . S
Mg582 O592 2.251 . S
Mg582 O595 2.010 . S
O583 Mg582 2.028 . S
O583 C586 1.250 . S
O584 Mg585 2.028 . S
O584 C586 1.248 . S
Mg585 O584 2.028 . S
Mg585 O590 2.032 . S
Mg585 O592 2.079 . S
C586 O583 1.250 . S
C586 O584 1.248 . S
C587 O588 1.264 . S
C587 O595 1.249 . S
O588 C587 1.264 . S
O589 Mg582 1.986 . S
O589 C593 1.246 . S
O590 Mg585 2.032 . S
O590 C593 1.259 . S
O591 Mg582 2.114 . S
O591 C594 1.252 . S
O592 Mg582 2.251 . S
O592 Mg585 2.079 . S
O592 C594 1.273 . S
C593 O589 1.246 . S
C593 O590 1.259 . S
C594 O591 1.252 . S
C594 O592 1.273 . S
O595 Mg582 2.010 . S
O595 C587 1.249 . S
Mg596 O597 2.028 . S
Mg596 O603 1.986 . S
Mg596 O605 2.114 . S
Mg596 O606 2.251 . S
Mg596 O609 2.010 . S
O597 Mg596 2.028 . S
O597 C600 1.250 . S
O598 Mg599 2.028 . S
O598 C600 1.248 . S
Mg599 O598 2.028 . S
Mg599 O604 2.032 . S
Mg599 O606 2.079 . S
C600 O597 1.250 . S
C600 O598 1.248 . S
C601 O602 1.264 . S
C601 O609 1.249 . S
O602 C601 1.264 . S
O603 Mg596 1.986 . S
O603 C607 1.246 . S
O604 Mg599 2.032 . S
O604 C607 1.259 . S
O605 Mg596 2.114 . S
O605 C608 1.252 . S
O606 Mg596 2.251 . S
O606 Mg599 2.079 . S
O606 C608 1.273 . S
C607 O603 1.246 . S
C607 O604 1.259 . S
C608 O605 1.252 . S
C608 O606 1.273 . S
O609 Mg596 2.010 . S
O609 C601 1.249 . S
Mg610 O611 2.028 1_545 S
Mg610 O617 1.986 1_545 S
Mg610 O619 2.114 . S
Mg610 O620 2.251 . S
Mg610 O623 2.010 . S
O611 Mg610 2.028 1_565 S
O611 C614 1.250 . S
O612 Mg613 2.028 . S
O612 C614 1.248 . S
Mg613 O612 2.028 . S
Mg613 O618 2.032 . S
Mg613 O620 2.079 1_565 S
C614 O611 1.250 . S
C614 O612 1.248 . S
C615 O616 1.264 . S
C615 O623 1.249 . S
O616 C615 1.264 . S
O617 Mg610 1.986 1_565 S
O617 C621 1.246 . S
O618 Mg613 2.032 . S
O618 C621 1.259 . S
O619 Mg610 2.114 . S
O619 C622 1.252 . S
O620 Mg610 2.251 . S
O620 Mg613 2.079 1_545 S
O620 C622 1.273 . S
C621 O617 1.246 . S
C621 O618 1.259 . S
C622 O619 1.252 . S
C622 O620 1.273 . S
O623 Mg610 2.010 . S
O623 C615 1.249 . S
Mg624 O625 2.028 . S
Mg624 O631 1.986 . S
Mg624 O633 2.114 . S
Mg624 O634 2.251 . S
Mg624 O637 2.010 . S
O625 Mg624 2.028 . S
O625 C628 1.250 1_455 S
O626 Mg627 2.028 . S
O626 C628 1.248 . S
Mg627 O626 2.028 . S
Mg627 O632 2.032 . S
Mg627 O634 2.079 1_655 S
C628 O625 1.250 1_655 S
C628 O626 1.248 . S
C629 O630 1.264 . S
C629 O637 1.249 . S
O630 C629 1.264 . S
O631 Mg624 1.986 . S
O631 C635 1.246 . S
O632 Mg627 2.032 . S
O632 C635 1.259 1_655 S
O633 Mg624 2.114 . S
O633 C636 1.252 . S
O634 Mg624 2.251 . S
O634 Mg627 2.079 1_455 S
O634 C636 1.273 . S
C635 O631 1.246 . S
C635 O632 1.259 1_455 S
C636 O633 1.252 . S
C636 O634 1.273 . S
O637 Mg624 2.010 . S
O637 C629 1.249 . S
Mg638 O639 2.028 . S
Mg638 O645 1.986 . S
Mg638 O647 2.114 . S
Mg638 O648 2.251 . S
Mg638 O651 2.010 . S
O639 Mg638 2.028 . S
O639 C642 1.250 . S
O640 Mg641 2.028 . S
O640 C642 1.248 . S
Mg641 O640 2.028 . S
Mg641 O646 2.032 . S
Mg641 O648 2.079 . S
C642 O639 1.250 . S
C642 O640 1.248 . S
C643 O644 1.264 . S
C643 O651 1.249 . S
O644 C643 1.264 . S
O645 Mg638 1.986 . S
O645 C649 1.246 . S
O646 Mg641 2.032 . S
O646 C649 1.259 . S
O647 Mg638 2.114 . S
O647 C650 1.252 . S
O648 Mg638 2.251 . S
O648 Mg641 2.079 . S
O648 C650 1.273 . S
C649 O645 1.246 . S
C649 O646 1.259 . S
C650 O647 1.252 . S
C650 O648 1.273 . S
O651 Mg638 2.010 . S
O651 C643 1.249 . S
Mg652 O653 2.028 1_655 S
Mg652 O659 1.995 . S
Mg652 O661 2.114 . S
Mg652 O662 2.251 1_655 S
Mg652 O665 2.010 . S
O653 Mg652 2.028 1_455 S
O653 C656 1.250 . S
O654 Mg655 2.028 . S
O654 C656 1.248 . S
Mg655 O654 2.028 . S
Mg655 O660 2.032 . S
Mg655 O662 2.079 . S
C656 O653 1.250 . S
C656 O654 1.248 . S
C657 O658 1.264 . S
C657 O665 1.249 . S
O658 C657 1.264 . S
O659 Mg652 1.995 . S
O659 C663 1.220 1_655 S
O660 Mg655 2.032 . S
O660 C663 1.259 . S
O661 Mg652 2.114 . S
O661 C664 1.252 . S
O662 Mg652 2.251 1_455 S
O662 Mg655 2.079 . S
O662 C664 1.273 1_455 S
C663 O659 1.220 1_455 S
C663 O660 1.259 . S
C664 O661 1.252 . S
C664 O662 1.273 1_655 S
O665 Mg652 2.010 . S
O665 C657 1.249 . S
Mg666 O667 2.028 . S
Mg666 O673 1.986 . S
Mg666 O675 2.114 . S
Mg666 O676 2.251 . S
Mg666 O679 2.010 . S
O667 Mg666 2.028 . S
O667 C670 1.250 . S
O668 Mg669 2.028 . S
O668 C670 1.248 . S
Mg669 O668 2.028 . S
Mg669 O674 2.032 . S
Mg669 O676 2.079 . S
C670 O667 1.250 . S
C670 O668 1.248 . S
C671 O672 1.264 . S
C671 O679 1.249 . S
O672 C671 1.264 . S
O673 Mg666 1.986 . S
O673 C677 1.246 . S
O674 Mg669 2.032 . S
O674 C677 1.259 . S
O675 Mg666 2.114 . S
O675 C678 1.252 . S
O676 Mg666 2.251 . S
O676 Mg669 2.079 . S
O676 C678 1.273 . S
C677 O673 1.246 . S
C677 O674 1.259 . S
C678 O675 1.252 . S
C678 O676 1.273 . S
O679 Mg666 2.010 . S
O679 C671 1.249 . S
H680 C686 0.930 . S
H681 C690 0.930 . S
H682 C695 0.929 . S
H683 C693 0.929 . S
H684 C688 0.929 . S
H685 C694 0.929 . S
C686 H680 0.930 . S
C686 C687 1.367 . S
C686 C694 1.378 . S
C687 C686 1.367 . S
C687 C695 1.433 . S
C688 H684 0.929 . S
C688 C690 1.378 . S
C688 C692 1.350 . S
C689 C692 1.463 . S
C689 C694 1.350 . S
C689 N697 1.427 . S
C690 H681 0.930 . S
C690 C688 1.378 . S
C690 C691 1.367 . S
C691 C690 1.367 . S
C691 C693 1.433 . S
C692 C688 1.350 . S
C692 C689 1.463 . S
C692 N696 1.427 . S
C693 H683 0.929 . S
C693 C691 1.433 . S
C693 N696 1.384 . S
C694 H685 0.929 . S
C694 C686 1.378 . S
C694 C689 1.350 . S
C695 H682 0.929 . S
C695 C687 1.433 . S
C695 N697 1.384 . S
N696 C692 1.427 . S
N696 C693 1.384 . S
N697 C689 1.427 . S
N697 C695 1.384 . S
H698 C704 0.930 . S
H699 C708 0.930 . S
H700 C713 0.929 . S
H701 C711 0.929 . S
H702 C706 0.929 . S
H703 C712 0.929 . S
C704 H698 0.930 . S
C704 C705 1.367 . S
C704 C712 1.378 . S
C705 C704 1.367 . S
C705 C713 1.433 . S
C706 H702 0.929 . S
C706 C708 1.378 . S
C706 C710 1.350 . S
C707 C710 1.463 . S
C707 C712 1.350 . S
C707 N715 1.427 . S
C708 H699 0.930 . S
C708 C706 1.378 . S
C708 C709 1.367 . S
C709 C708 1.367 . S
C709 C711 1.433 . S
C710 C706 1.350 . S
C710 C707 1.463 . S
C710 N714 1.427 . S
C711 H701 0.929 . S
C711 C709 1.433 . S
C711 N714 1.384 . S
C712 H703 0.929 . S
C712 C704 1.378 . S
C712 C707 1.350 . S
C713 H700 0.929 . S
C713 C705 1.433 . S
C713 N715 1.384 . S
N714 C710 1.427 . S
N714 C711 1.384 . S
N715 C707 1.427 . S
N715 C713 1.384 . S
H716 C722 0.930 . S
H717 C726 0.930 . S
H718 C731 0.929 . S
H719 C729 0.929 . S
H720 C724 0.929 . S
H721 C730 0.929 . S
C722 H716 0.930 . S
C722 C723 1.367 . S
C722 C730 1.378 . S
C723 C722 1.367 . S
C723 C731 1.433 . S
C724 H720 0.929 . S
C724 C726 1.378 . S
C724 C728 1.350 . S
C725 C728 1.463 . S
C725 C730 1.350 . S
C725 N733 1.427 . S
C726 H717 0.930 . S
C726 C724 1.378 . S
C726 C727 1.367 . S
C727 C726 1.367 . S
C727 C729 1.433 . S
C728 C724 1.350 . S
C728 C725 1.463 . S
C728 N732 1.427 . S
C729 H719 0.929 . S
C729 C727 1.433 . S
C729 N732 1.384 . S
C730 H721 0.929 . S
C730 C722 1.378 . S
C730 C725 1.350 . S
C731 H718 0.929 . S
C731 C723 1.433 . S
C731 N733 1.384 . S
N732 C728 1.427 . S
N732 C729 1.384 . S
N733 C725 1.427 . S
N733 C731 1.384 . S
H734 C740 0.930 . S
H735 C744 0.930 . S
H736 C749 0.929 . S
H737 C747 0.929 . S
H738 C742 0.929 . S
H739 C748 0.929 . S
C740 H734 0.930 . S
C740 C741 1.367 1_455 S
C740 C748 1.378 1_455 S
C741 C740 1.367 1_655 S
C741 C749 1.433 . S
C742 H738 0.929 . S
C742 C744 1.378 . S
C742 C746 1.350 1_545 S
C743 C746 1.463 . S
C743 C748 1.350 . S
C743 N751 1.427 . S
C744 H735 0.930 . S
C744 C742 1.378 . S
C744 C745 1.367 . S
C745 C744 1.367 . S
C745 C747 1.433 . S
C746 C742 1.350 1_565 S
C746 C743 1.463 . S
C746 N750 1.427 . S
C747 H737 0.929 . S
C747 C745 1.433 . S
C747 N750 1.384 1_545 S
C748 H739 0.929 . S
C748 C740 1.378 1_655 S
C748 C743 1.350 . S
C749 H736 0.929 . S
C749 C741 1.433 . S
C749 N751 1.384 . S
N750 C746 1.427 . S
N750 C747 1.384 1_565 S
N751 C743 1.427 . S
N751 C749 1.384 . S
H752 C758 0.930 . S
H753 C762 0.930 . S
H754 C767 0.929 . S
H755 C765 0.929 . S
H756 C760 0.929 . S
H757 C766 0.929 . S
C758 H752 0.930 . S
C758 C759 1.367 . S
C758 C766 1.378 . S
C759 C758 1.367 . S
C759 C767 1.433 . S
C760 H756 0.929 . S
C760 C762 1.378 . S
C760 C764 1.350 . S
C761 C764 1.463 . S
C761 C766 1.350 . S
C761 N769 1.427 . S
C762 H753 0.930 . S
C762 C760 1.378 . S
C762 C763 1.367 . S
C763 C762 1.367 . S
C763 C765 1.433 . S
C764 C760 1.350 . S
C764 C761 1.463 . S
C764 N768 1.427 . S
C765 H755 0.929 . S
C765 C763 1.433 . S
C765 N768 1.384 . S
C766 H757 0.929 . S
C766 C758 1.378 . S
C766 C761 1.350 . S
C767 H754 0.929 . S
C767 C759 1.433 . S
C767 N769 1.384 . S
N768 C764 1.427 . S
N768 C765 1.384 . S
N769 C761 1.427 . S
N769 C767 1.384 . S
H770 C776 0.930 . S
H771 C780 0.930 . S
H772 C785 0.929 . S
H773 C783 0.929 . S
H774 C778 0.929 . S
H775 C784 0.929 . S
C776 H770 0.930 . S
C776 C777 1.367 . S
C776 C784 1.378 . S
C777 C776 1.367 . S
C777 C785 1.433 . S
C778 H774 0.929 . S
C778 C780 1.378 . S
C778 C782 1.350 . S
C779 C782 1.463 . S
C779 C784 1.350 . S
C779 N787 1.427 . S
C780 H771 0.930 . S
C780 C778 1.378 . S
C780 C781 1.367 . S
C781 C780 1.367 . S
C781 C783 1.433 . S
C782 C778 1.350 . S
C782 C779 1.463 . S
C782 N786 1.427 . S
C783 H773 0.929 . S
C783 C781 1.433 . S
C783 N786 1.384 . S
C784 H775 0.929 . S
C784 C776 1.378 . S
C784 C779 1.350 . S
C785 H772 0.929 . S
C785 C777 1.433 . S
C785 N787 1.384 . S
N786 C782 1.427 . S
N786 C783 1.384 . S
N787 C779 1.427 . S
N787 C785 1.384 . S
H788 C794 0.930 . S
H789 C798 0.930 . S
H790 C803 0.929 . S
H791 C801 0.929 . S
H792 C796 0.929 . S
H793 C802 0.929 . S
C794 H788 0.930 . S
C794 C795 1.367 . S
C794 C802 1.378 . S
C795 C794 1.367 . S
C795 C803 1.433 . S
C796 H792 0.929 . S
C796 C798 1.378 . S
C796 C800 1.350 . S
C797 C800 1.463 . S
C797 C802 1.350 . S
C797 N805 1.427 . S
C798 H789 0.930 . S
C798 C796 1.378 . S
C798 C799 1.367 . S
C799 C798 1.367 . S
C799 C801 1.433 . S
C800 C796 1.350 . S
C800 C797 1.463 . S
C800 N804 1.427 . S
C801 H791 0.929 . S
C801 C799 1.433 . S
C801 N804 1.384 . S
C802 H793 0.929 . S
C802 C794 1.378 . S
C802 C797 1.350 . S
C803 H790 0.929 . S
C803 C795 1.433 . S
C803 N805 1.384 . S
N804 C800 1.427 . S
N804 C801 1.384 . S
N805 C797 1.427 . S
N805 C803 1.384 . S
H806 C812 0.921 1_545 S
H807 C816 0.930 . S
H808 C821 0.929 . S
H809 C819 0.929 . S
H810 C814 0.929 . S
H811 C820 0.929 . S
C812 H806 0.921 1_565 S
C812 C813 1.377 . S
C812 C820 1.377 1_565 S
C813 C812 1.377 . S
C813 C821 1.433 . S
C814 H810 0.929 . S
C814 C816 1.378 . S
C814 C818 1.350 . S
C815 C818 1.463 . S
C815 C820 1.350 1_565 S
C815 N823 1.427 . S
C816 H807 0.930 . S
C816 C814 1.378 . S
C816 C817 1.367 . S
C817 C816 1.367 . S
C817 C819 1.433 1_565 S
C818 C814 1.350 . S
C818 C815 1.463 . S
C818 N822 1.427 1_565 S
C819 H809 0.929 . S
C819 C817 1.433 1_545 S
C819 N822 1.384 . S
C820 H811 0.929 . S
C820 C812 1.377 1_545 S
C820 C815 1.350 1_545 S
C821 H808 0.929 . S
C821 C813 1.433 . S
C821 N823 1.384 . S
N822 C818 1.427 1_545 S
N822 C819 1.384 . S
N823 C815 1.427 . S
N823 C821 1.384 . S
H824 C830 0.930 . S
H825 C834 0.930 . S
H826 C839 0.929 . S
H827 C837 0.929 . S
H828 C832 0.929 . S
H829 C838 0.929 . S
C830 H824 0.930 . S
C830 C831 1.367 . S
C830 C838 1.378 . S
C831 C830 1.367 . S
C831 C839 1.433 . S
C832 H828 0.929 . S
C832 C834 1.378 . S
C832 C836 1.350 . S
C833 C836 1.463 . S
C833 C838 1.350 . S
C833 N841 1.427 . S
C834 H825 0.930 . S
C834 C832 1.378 . S
C834 C835 1.367 . S
C835 C834 1.367 . S
C835 C837 1.433 . S
C836 C832 1.350 . S
C836 C833 1.463 . S
C836 N840 1.427 . S
C837 H827 0.929 . S
C837 C835 1.433 . S
C837 N840 1.384 . S
C838 H829 0.929 . S
C838 C830 1.378 . S
C838 C833 1.350 . S
C839 H826 0.929 . S
C839 C831 1.433 . S
C839 N841 1.384 . S
N840 C836 1.427 . S
N840 C837 1.384 . S
N841 C833 1.427 . S
N841 C839 1.384 . S
H842 C848 0.930 . S
H843 C852 0.930 . S
H844 C857 0.929 . S
H845 C855 0.929 . S
H846 C850 0.929 . S
H847 C856 0.929 . S
C848 H842 0.930 . S
C848 C849 1.367 . S
C848 C856 1.378 . S
C849 C848 1.367 . S
C849 C857 1.433 . S
C850 H846 0.929 . S
C850 C852 1.378 . S
C850 C854 1.350 . S
C851 C854 1.463 . S
C851 C856 1.350 . S
C851 N859 1.427 . S
C852 H843 0.930 . S
C852 C850 1.378 . S
C852 C853 1.367 . S
C853 C852 1.367 . S
C853 C855 1.433 . S
C854 C850 1.350 . S
C854 C851 1.463 . S
C854 N858 1.427 . S
C855 H845 0.929 . S
C855 C853 1.433 . S
C855 N858 1.384 . S
C856 H847 0.929 . S
C856 C848 1.378 . S
C856 C851 1.350 . S
C857 H844 0.929 . S
C857 C849 1.433 . S
C857 N859 1.384 . S
N858 C854 1.427 . S
N858 C855 1.384 . S
N859 C851 1.427 . S
N859 C857 1.384 . S
H860 C866 0.930 . S
H861 C870 0.930 . S
H862 C875 0.929 . S
H863 C873 0.929 . S
H864 C868 0.929 . S
H865 C874 0.929 . S
C866 H860 0.930 . S
C866 C867 1.367 . S
C866 C874 1.378 . S
C867 C866 1.367 . S
C867 C875 1.433 . S
C868 H864 0.929 . S
C868 C870 1.378 . S
C868 C872 1.350 . S
C869 C872 1.463 . S
C869 C874 1.350 . S
C869 N877 1.427 . S
C870 H861 0.930 . S
C870 C868 1.378 . S
C870 C871 1.367 . S
C871 C870 1.367 . S
C871 C873 1.433 . S
C872 C868 1.350 . S
C872 C869 1.463 . S
C872 N876 1.427 . S
C873 H863 0.929 . S
C873 C871 1.433 . S
C873 N876 1.384 . S
C874 H865 0.929 . S
C874 C866 1.378 . S
C874 C869 1.350 . S
C875 H862 0.929 . S
C875 C867 1.433 . S
C875 N877 1.384 . S
N876 C872 1.427 . S
N876 C873 1.384 . S
N877 C869 1.427 . S
N877 C875 1.384 . S
H878 C884 0.930 . S
H879 C888 0.930 . S
H880 C893 0.929 . S
H881 C891 0.929 . S
H882 C886 0.929 . S
H883 C892 0.929 . S
C884 H878 0.930 . S
C884 C885 1.367 . S
C884 C892 1.378 . S
C885 C884 1.367 . S
C885 C893 1.433 . S
C886 H882 0.929 . S
C886 C888 1.378 . S
C886 C890 1.350 . S
C887 C890 1.463 . S
C887 C892 1.350 . S
C887 N895 1.427 . S
C888 H879 0.930 . S
C888 C886 1.378 . S
C888 C889 1.367 . S
C889 C888 1.367 . S
C889 C891 1.433 . S
C890 C886 1.350 . S
C890 C887 1.463 . S
C890 N894 1.427 . S
C891 H881 0.929 . S
C891 C889 1.433 . S
C891 N894 1.384 . S
C892 H883 0.929 . S
C892 C884 1.378 . S
C892 C887 1.350 . S
C893 H880 0.929 . S
C893 C885 1.433 . S
C893 N895 1.384 . S
N894 C890 1.427 . S
N894 C891 1.384 . S
N895 C887 1.427 . S
N895 C893 1.384 . S
H896 C902 0.930 . S
H897 C906 0.930 . S
H898 C911 0.929 . S
H899 C909 0.929 . S
H900 C904 0.929 . S
H901 C910 0.929 . S
C902 H896 0.930 . S
C902 C903 1.367 . S
C902 C910 1.378 . S
C903 C902 1.367 . S
C903 C911 1.433 . S
C904 H900 0.929 . S
C904 C906 1.378 . S
C904 C908 1.350 . S
C905 C908 1.463 . S
C905 C910 1.350 . S
C905 N913 1.427 . S
C906 H897 0.930 . S
C906 C904 1.378 . S
C906 C907 1.367 . S
C907 C906 1.367 . S
C907 C909 1.433 . S
C908 C904 1.350 . S
C908 C905 1.463 . S
C908 N912 1.427 . S
C909 H899 0.929 . S
C909 C907 1.433 . S
C909 N912 1.384 . S
C910 H901 0.929 . S
C910 C902 1.378 . S
C910 C905 1.350 . S
C911 H898 0.929 . S
C911 C903 1.433 . S
C911 N913 1.384 . S
N912 C908 1.427 . S
N912 C909 1.384 . S
N913 C905 1.427 . S
N913 C911 1.384 . S
H914 C920 0.930 . S
H915 C924 0.930 . S
H916 C929 0.929 . S
H917 C927 0.929 1_655 S
H918 C922 0.929 . S
H919 C928 0.929 . S
C920 H914 0.930 . S
C920 C921 1.367 . S
C920 C928 1.378 . S
C921 C920 1.367 . S
C921 C929 1.433 . S
C922 H918 0.929 . S
C922 C924 1.378 . S
C922 C926 1.350 . S
C923 C926 1.463 . S
C923 C928 1.350 . S
C923 N931 1.427 . S
C924 H915 0.930 . S
C924 C922 1.378 . S
C924 C925 1.367 . S
C925 C924 1.367 . S
C925 C927 1.433 . S
C926 C922 1.350 . S
C926 C923 1.463 . S
C926 N930 1.427 . S
C927 H917 0.929 1_455 S
C927 C925 1.433 . S
C927 N930 1.384 . S
C928 H919 0.929 . S
C928 C920 1.378 . S
C928 C923 1.350 . S
C929 H916 0.929 . S
C929 C921 1.433 . S
C929 N931 1.384 . S
N930 C926 1.427 . S
N930 C927 1.384 . S
N931 C923 1.427 . S
N931 C929 1.384 . S
H932 C938 0.930 . S
H933 C942 0.930 . S
H934 C947 0.929 . S
H935 C945 0.929 . S
H936 C940 0.929 . S
H937 C946 0.929 . S
C938 H932 0.930 . S
C938 C939 1.367 . S
C938 C946 1.378 . S
C939 C938 1.367 . S
C939 C947 1.433 . S
C940 H936 0.929 . S
C940 C942 1.378 . S
C940 C944 1.350 . S
C941 C944 1.463 . S
C941 C946 1.350 . S
C941 N949 1.427 . S
C942 H933 0.930 . S
C942 C940 1.378 . S
C942 C943 1.367 . S
C943 C942 1.367 . S
C943 C945 1.433 . S
C944 C940 1.350 . S
C944 C941 1.463 . S
C944 N948 1.427 . S
C945 H935 0.929 . S
C945 C943 1.433 . S
C945 N948 1.384 . S
C946 H937 0.929 . S
C946 C938 1.378 . S
C946 C941 1.350 . S
C947 H934 0.929 . S
C947 C939 1.433 . S
C947 N949 1.384 . S
N948 C944 1.427 . S
N948 C945 1.384 . S
N949 C941 1.427 . S
N949 C947 1.384 . S
H950 C956 0.930 . S
H951 C960 0.930 . S
H952 C965 0.929 1_455 S
H953 C963 0.929 . S
H954 C958 0.929 . S
H955 C964 0.929 . S
C956 H950 0.930 . S
C956 C957 1.367 . S
C956 C964 1.378 . S
C957 C956 1.367 . S
C957 C965 1.433 . S
C958 H954 0.929 . S
C958 C960 1.378 . S
C958 C962 1.350 1_455 S
C959 C962 1.463 . S
C959 C964 1.350 . S
C959 N967 1.427 . S
C960 H951 0.930 . S
C960 C958 1.378 . S
C960 C961 1.367 1_455 S
C961 C960 1.367 1_655 S
C961 C963 1.433 . S
C962 C958 1.350 1_655 S
C962 C959 1.463 . S
C962 N966 1.427 . S
C963 H953 0.929 . S
C963 C961 1.433 . S
C963 N966 1.384 . S
C964 H955 0.929 . S
C964 C956 1.378 . S
C964 C959 1.350 . S
C965 H952 0.929 1_655 S
C965 C957 1.433 . S
C965 N967 1.384 . S
N966 C962 1.427 . S
N966 C963 1.384 . S
N967 C959 1.427 . S
N967 C965 1.384 . S
H968 C974 0.930 . S
H969 C978 0.930 . S
H970 C983 0.929 . S
H971 C981 0.929 . S
H972 C976 0.929 . S
H973 C982 0.929 . S
C974 H968 0.930 . S
C974 C975 1.367 . S
C974 C982 1.378 . S
C975 C974 1.367 . S
C975 C983 1.433 . S
C976 H972 0.929 . S
C976 C978 1.378 . S
C976 C980 1.350 . S
C977 C980 1.463 . S
C977 C982 1.350 . S
C977 N985 1.427 . S
C978 H969 0.930 . S
C978 C976 1.378 . S
C978 C979 1.367 . S
C979 C978 1.367 . S
C979 C981 1.433 . S
C980 C976 1.350 . S
C980 C977 1.463 . S
C980 N984 1.427 . S
C981 H971 0.929 . S
C981 C979 1.433 . S
C981 N984 1.384 . S
C982 H973 0.929 . S
C982 C974 1.378 . S
C982 C977 1.350 . S
C983 H970 0.929 . S
C983 C975 1.433 . S
C983 N985 1.384 . S
N984 C980 1.427 . S
N984 C981 1.384 . S
N985 C977 1.427 . S
N985 C983 1.384 . S
H986 C992 0.930 . S
H987 C996 0.930 . S
H988 C1001 0.929 . S
H989 C999 0.929 . S
H990 C994 0.929 . S
H991 C1000 0.929 . S
C992 H986 0.930 . S
C992 C993 1.367 . S
C992 C1000 1.378 . S
C993 C992 1.367 . S
C993 C1001 1.433 . S
C994 H990 0.929 . S
C994 C996 1.378 . S
C994 C998 1.350 . S
C995 C998 1.463 . S
C995 C1000 1.350 . S
C995 N1003 1.427 . S
C996 H987 0.930 . S
C996 C994 1.378 . S
C996 C997 1.367 . S
C997 C996 1.367 . S
C997 C999 1.433 . S
C998 C994 1.350 . S
C998 C995 1.463 . S
C998 N1002 1.427 . S
C999 H989 0.929 . S
C999 C997 1.433 . S
C999 N1002 1.384 . S
C1000 H991 0.929 . S
C1000 C992 1.378 . S
C1000 C995 1.350 . S
C1001 H988 0.929 . S
C1001 C993 1.433 . S
C1001 N1003 1.384 . S
N1002 C998 1.427 . S
N1002 C999 1.384 . S
N1003 C995 1.427 . S
N1003 C1001 1.384 . S
H1004 C1010 0.930 . S
H1005 C1014 0.930 . S
H1006 C1019 0.929 . S
H1007 C1017 0.929 . S
H1008 C1012 0.929 . S
H1009 C1018 0.929 . S
C1010 H1004 0.930 . S
C1010 C1011 1.367 . S
C1010 C1018 1.378 . S
C1011 C1010 1.367 . S
C1011 C1019 1.433 1_556 S
C1012 H1008 0.929 . S
C1012 C1014 1.378 . S
C1012 C1016 1.350 1_554 S
C1013 C1016 1.463 . S
C1013 C1018 1.350 . S
C1013 N1021 1.427 1_556 S
C1014 H1005 0.930 . S
C1014 C1012 1.378 . S
C1014 C1015 1.367 1_554 S
C1015 C1014 1.367 1_556 S
C1015 C1017 1.433 . S
C1016 C1012 1.350 1_556 S
C1016 C1013 1.463 . S
C1016 N1020 1.427 . S
C1017 H1007 0.929 . S
C1017 C1015 1.433 . S
C1017 N1020 1.384 . S
C1018 H1009 0.929 . S
C1018 C1010 1.378 . S
C1018 C1013 1.350 . S
C1019 H1006 0.929 . S
C1019 C1011 1.433 1_554 S
C1019 N1021 1.384 . S
N1020 C1016 1.427 . S
N1020 C1017 1.384 . S
N1021 C1013 1.427 1_554 S
N1021 C1019 1.384 . S
H1022 C1028 0.930 . S
H1023 C1032 0.930 . S
H1024 C1037 0.929 . S
H1025 C1035 0.929 . S
H1026 C1030 0.929 . S
H1027 C1036 0.929 . S
C1028 H1022 0.930 . S
C1028 C1029 1.367 . S
C1028 C1036 1.378 . S
C1029 C1028 1.367 . S
C1029 C1037 1.433 . S
C1030 H1026 0.929 . S
C1030 C1032 1.378 . S
C1030 C1034 1.350 . S
C1031 C1034 1.463 . S
C1031 C1036 1.350 . S
C1031 N1039 1.427 . S
C1032 H1023 0.930 . S
C1032 C1030 1.378 . S
C1032 C1033 1.367 . S
C1033 C1032 1.367 . S
C1033 C1035 1.433 . S
C1034 C1030 1.350 . S
C1034 C1031 1.463 . S
C1034 N1038 1.427 . S
C1035 H1025 0.929 . S
C1035 C1033 1.433 . S
C1035 N1038 1.384 . S
C1036 H1027 0.929 . S
C1036 C1028 1.378 . S
C1036 C1031 1.350 . S
C1037 H1024 0.929 . S
C1037 C1029 1.433 . S
C1037 N1039 1.384 . S
N1038 C1034 1.427 . S
N1038 C1035 1.384 . S
N1039 C1031 1.427 . S
N1039 C1037 1.384 . S
H1040 C1046 0.930 . S
H1041 C1050 0.930 . S
H1042 C1055 0.929 . S
H1043 C1053 0.929 . S
H1044 C1048 0.929 . S
H1045 C1054 0.929 . S
C1046 H1040 0.930 . S
C1046 C1047 1.367 . S
C1046 C1054 1.378 . S
C1047 C1046 1.367 . S
C1047 C1055 1.433 . S
C1048 H1044 0.929 . S
C1048 C1050 1.378 . S
C1048 C1052 1.350 . S
C1049 C1052 1.463 . S
C1049 C1054 1.350 . S
C1049 N1057 1.427 . S
C1050 H1041 0.930 . S
C1050 C1048 1.378 . S
C1050 C1051 1.367 . S
C1051 C1050 1.367 . S
C1051 C1053 1.433 . S
C1052 C1048 1.350 . S
C1052 C1049 1.463 . S
C1052 N1056 1.427 . S
C1053 H1043 0.929 . S
C1053 C1051 1.433 . S
C1053 N1056 1.384 . S
C1054 H1045 0.929 . S
C1054 C1046 1.378 . S
C1054 C1049 1.350 . S
C1055 H1042 0.929 . S
C1055 C1047 1.433 . S
C1055 N1057 1.384 . S
N1056 C1052 1.427 . S
N1056 C1053 1.384 . S
N1057 C1049 1.427 . S
N1057 C1055 1.384 . S
H1058 C1064 0.930 . S
H1059 C1068 0.930 . S
H1060 C1073 0.929 . S
H1061 C1071 0.929 . S
H1062 C1066 0.929 . S
H1063 C1072 0.929 . S
C1064 H1058 0.930 . S
C1064 C1065 1.367 . S
C1064 C1072 1.378 . S
C1065 C1064 1.367 . S
C1065 C1073 1.433 . S
C1066 H1062 0.929 . S
C1066 C1068 1.378 . S
C1066 C1070 1.350 . S
C1067 C1070 1.463 . S
C1067 C1072 1.350 . S
C1067 N1075 1.427 . S
C1068 H1059 0.930 . S
C1068 C1066 1.378 . S
C1068 C1069 1.367 . S
C1069 C1068 1.367 . S
C1069 C1071 1.433 . S
C1070 C1066 1.350 . S
C1070 C1067 1.463 . S
C1070 N1074 1.427 . S
C1071 H1061 0.929 . S
C1071 C1069 1.433 . S
C1071 N1074 1.384 . S
C1072 H1063 0.929 . S
C1072 C1064 1.378 . S
C1072 C1067 1.350 . S
C1073 H1060 0.929 . S
C1073 C1065 1.433 . S
C1073 N1075 1.384 . S
N1074 C1070 1.427 . S
N1074 C1071 1.384 . S
N1075 C1067 1.427 . S
N1075 C1073 1.384 . S
H1076 C1082 0.930 . S
H1077 C1086 0.930 . S
H1078 C1091 0.929 . S
H1079 C1089 0.929 . S
H1080 C1084 0.929 . S
H1081 C1090 0.929 . S
C1082 H1076 0.930 . S
C1082 C1083 1.367 . S
C1082 C1090 1.378 . S
C1083 C1082 1.367 . S
C1083 C1091 1.433 . S
C1084 H1080 0.929 . S
C1084 C1086 1.378 . S
C1084 C1088 1.350 . S
C1085 C1088 1.463 . S
C1085 C1090 1.350 . S
C1085 N1093 1.427 . S
C1086 H1077 0.930 . S
C1086 C1084 1.378 . S
C1086 C1087 1.367 . S
C1087 C1086 1.367 . S
C1087 C1089 1.433 . S
C1088 C1084 1.350 . S
C1088 C1085 1.463 . S
C1088 N1092 1.427 . S
C1089 H1079 0.929 . S
C1089 C1087 1.433 . S
C1089 N1092 1.384 . S
C1090 H1081 0.929 . S
C1090 C1082 1.378 . S
C1090 C1085 1.350 . S
C1091 H1078 0.929 . S
C1091 C1083 1.433 . S
C1091 N1093 1.384 . S
N1092 C1088 1.427 . S
N1092 C1089 1.384 . S
N1093 C1085 1.427 . S
N1093 C1091 1.384 . S
H1094 C1100 0.930 . S
H1095 C1104 0.930 . S
H1096 C1109 0.929 . S
H1097 C1107 0.929 . S
H1098 C1102 0.929 . S
H1099 C1108 0.929 . S
C1100 H1094 0.930 . S
C1100 C1101 1.367 . S
C1100 C1108 1.378 . S
C1101 C1100 1.367 . S
C1101 C1109 1.433 . S
C1102 H1098 0.929 . S
C1102 C1104 1.378 . S
C1102 C1106 1.350 . S
C1103 C1106 1.463 . S
C1103 C1108 1.350 . S
C1103 N1111 1.427 . S
C1104 H1095 0.930 . S
C1104 C1102 1.378 . S
C1104 C1105 1.367 . S
C1105 C1104 1.367 . S
C1105 C1107 1.433 . S
C1106 C1102 1.350 . S
C1106 C1103 1.463 . S
C1106 N1110 1.427 . S
C1107 H1097 0.929 . S
C1107 C1105 1.433 . S
C1107 N1110 1.384 . S
C1108 H1099 0.929 . S
C1108 C1100 1.378 . S
C1108 C1103 1.350 . S
C1109 H1096 0.929 . S
C1109 C1101 1.433 . S
C1109 N1111 1.384 . S
N1110 C1106 1.427 . S
N1110 C1107 1.384 . S
N1111 C1103 1.427 . S
N1111 C1109 1.384 . S
H1112 C1118 0.930 . S
H1113 C1122 0.930 . S
H1114 C1127 0.929 . S
H1115 C1125 0.929 . S
H1116 C1120 0.929 . S
H1117 C1126 0.929 . S
C1118 H1112 0.930 . S
C1118 C1119 1.367 . S
C1118 C1126 1.378 . S
C1119 C1118 1.367 . S
C1119 C1127 1.433 . S
C1120 H1116 0.929 . S
C1120 C1122 1.378 . S
C1120 C1124 1.350 . S
C1121 C1124 1.463 . S
C1121 C1126 1.350 . S
C1121 N1129 1.427 . S
C1122 H1113 0.930 . S
C1122 C1120 1.378 . S
C1122 C1123 1.367 . S
C1123 C1122 1.367 . S
C1123 C1125 1.433 . S
C1124 C1120 1.350 . S
C1124 C1121 1.463 . S
C1124 N1128 1.427 . S
C1125 H1115 0.929 . S
C1125 C1123 1.433 . S
C1125 N1128 1.384 . S
C1126 H1117 0.929 . S
C1126 C1118 1.378 . S
C1126 C1121 1.350 . S
C1127 H1114 0.929 . S
C1127 C1119 1.433 . S
C1127 N1129 1.384 . S
N1128 C1124 1.427 . S
N1128 C1125 1.384 . S
N1129 C1121 1.427 . S
N1129 C1127 1.384 . S
H1130 C1136 0.928 1_565 S
H1131 C1140 0.930 . S
H1132 C1145 0.929 . S
H1133 C1143 0.929 . S
H1134 C1138 0.929 . S
H1135 C1144 0.929 . S
C1136 H1130 0.928 1_545 S
C1136 C1137 1.370 . S
C1136 C1144 1.377 1_545 S
C1137 C1136 1.370 . S
C1137 C1145 1.433 . S
C1138 H1134 0.929 . S
C1138 C1140 1.378 . S
C1138 C1142 1.350 . S
C1139 C1142 1.463 . S
C1139 C1144 1.350 1_545 S
C1139 N1147 1.427 . S
C1140 H1131 0.930 . S
C1140 C1138 1.378 . S
C1140 C1141 1.367 . S
C1141 C1140 1.367 . S
C1141 C1143 1.433 1_545 S
C1142 C1138 1.350 . S
C1142 C1139 1.463 . S
C1142 N1146 1.427 1_545 S
C1143 H1133 0.929 . S
C1143 C1141 1.433 1_565 S
C1143 N1146 1.384 . S
C1144 H1135 0.929 . S
C1144 C1136 1.377 1_565 S
C1144 C1139 1.350 1_565 S
C1145 H1132 0.929 . S
C1145 C1137 1.433 . S
C1145 N1147 1.384 . S
N1146 C1142 1.427 1_565 S
N1146 C1143 1.384 . S
N1147 C1139 1.427 . S
N1147 C1145 1.384 . S
H1148 C1154 0.930 . S
H1149 C1158 0.930 . S
H1150 C1163 0.929 . S
H1151 C1161 0.929 . S
H1152 C1156 0.929 . S
H1153 C1162 0.929 . S
C1154 H1148 0.930 . S
C1154 C1155 1.367 . S
C1154 C1162 1.378 . S
C1155 C1154 1.367 . S
C1155 C1163 1.433 . S
C1156 H1152 0.929 . S
C1156 C1158 1.378 . S
C1156 C1160 1.350 . S
C1157 C1160 1.463 . S
C1157 C1162 1.350 . S
C1157 N1165 1.427 . S
C1158 H1149 0.930 . S
C1158 C1156 1.378 . S
C1158 C1159 1.367 . S
C1159 C1158 1.367 . S
C1159 C1161 1.433 . S
C1160 C1156 1.350 . S
C1160 C1157 1.463 . S
C1160 N1164 1.427 . S
C1161 H1151 0.929 . S
C1161 C1159 1.433 . S
C1161 N1164 1.384 . S
C1162 H1153 0.929 . S
C1162 C1154 1.378 . S
C1162 C1157 1.350 . S
C1163 H1150 0.929 . S
C1163 C1155 1.433 . S
C1163 N1165 1.384 . S
N1164 C1160 1.427 . S
N1164 C1161 1.384 . S
N1165 C1157 1.427 . S
N1165 C1163 1.384 . S
H1166 C1172 0.930 . S
H1167 C1176 0.930 . S
H1168 C1181 0.929 . S
H1169 C1179 0.929 . S
H1170 C1174 0.929 . S
H1171 C1180 0.929 . S
C1172 H1166 0.930 . S
C1172 C1173 1.367 . S
C1172 C1180 1.378 . S
C1173 C1172 1.367 . S
C1173 C1181 1.433 . S
C1174 H1170 0.929 . S
C1174 C1176 1.378 . S
C1174 C1178 1.350 . S
C1175 C1178 1.463 . S
C1175 C1180 1.350 . S
C1175 N1183 1.427 . S
C1176 H1167 0.930 . S
C1176 C1174 1.378 . S
C1176 C1177 1.367 . S
C1177 C1176 1.367 . S
C1177 C1179 1.433 . S
C1178 C1174 1.350 . S
C1178 C1175 1.463 . S
C1178 N1182 1.427 . S
C1179 H1169 0.929 . S
C1179 C1177 1.433 . S
C1179 N1182 1.384 . S
C1180 H1171 0.929 . S
C1180 C1172 1.378 . S
C1180 C1175 1.350 . S
C1181 H1168 0.929 . S
C1181 C1173 1.433 . S
C1181 N1183 1.384 . S
N1182 C1178 1.427 . S
N1182 C1179 1.384 . S
N1183 C1175 1.427 . S
N1183 C1181 1.384 . S
H1184 C1190 0.930 . S
H1185 C1194 0.930 . S
H1186 C1199 0.929 . S
H1187 C1197 0.929 . S
H1188 C1192 0.929 . S
H1189 C1198 0.929 . S
C1190 H1184 0.930 . S
C1190 C1191 1.367 . S
C1190 C1198 1.378 . S
C1191 C1190 1.367 . S
C1191 C1199 1.433 . S
C1192 H1188 0.929 . S
C1192 C1194 1.378 . S
C1192 C1196 1.350 . S
C1193 C1196 1.463 . S
C1193 C1198 1.350 . S
C1193 N1201 1.427 . S
C1194 H1185 0.930 . S
C1194 C1192 1.378 . S
C1194 C1195 1.367 . S
C1195 C1194 1.367 . S
C1195 C1197 1.433 . S
C1196 C1192 1.350 . S
C1196 C1193 1.463 . S
C1196 N1200 1.427 . S
C1197 H1187 0.929 . S
C1197 C1195 1.433 . S
C1197 N1200 1.384 . S
C1198 H1189 0.929 . S
C1198 C1190 1.378 . S
C1198 C1193 1.350 . S
C1199 H1186 0.929 . S
C1199 C1191 1.433 . S
C1199 N1201 1.384 . S
N1200 C1196 1.427 . S
N1200 C1197 1.384 . S
N1201 C1193 1.427 . S
N1201 C1199 1.384 . S
H1202 C1208 0.930 . S
H1203 C1212 0.930 1_565 S
H1204 C1217 0.929 1_565 S
H1205 C1215 0.929 . S
H1206 C1210 0.929 1_565 S
H1207 C1216 0.929 . S
C1208 H1202 0.930 . S
C1208 C1209 1.367 . S
C1208 C1216 1.378 . S
C1209 C1208 1.367 . S
C1209 C1217 1.433 . S
C1210 H1206 0.929 1_545 S
C1210 C1212 1.378 . S
C1210 C1214 1.350 . S
C1211 C1214 1.463 . S
C1211 C1216 1.350 . S
C1211 N1219 1.427 . S
C1212 H1203 0.930 1_545 S
C1212 C1210 1.378 . S
C1212 C1213 1.367 . S
C1213 C1212 1.367 . S
C1213 C1215 1.433 . S
C1214 C1210 1.350 . S
C1214 C1211 1.463 . S
C1214 N1218 1.427 . S
C1215 H1205 0.929 . S
C1215 C1213 1.433 . S
C1215 N1218 1.384 . S
C1216 H1207 0.929 . S
C1216 C1208 1.378 . S
C1216 C1211 1.350 . S
C1217 H1204 0.929 1_545 S
C1217 C1209 1.433 . S
C1217 N1219 1.384 . S
N1218 C1214 1.427 . S
N1218 C1215 1.384 . S
N1219 C1211 1.427 . S
N1219 C1217 1.384 . S
H1220 C1226 0.930 . S
H1221 C1230 0.930 . S
H1222 C1235 0.929 . S
H1223 C1233 0.929 . S
H1224 C1228 0.929 . S
H1225 C1234 0.929 . S
C1226 H1220 0.930 . S
C1226 C1227 1.367 . S
C1226 C1234 1.378 . S
C1227 C1226 1.367 . S
C1227 C1235 1.433 . S
C1228 H1224 0.929 . S
C1228 C1230 1.378 . S
C1228 C1232 1.350 . S
C1229 C1232 1.463 . S
C1229 C1234 1.350 . S
C1229 N1237 1.427 . S
C1230 H1221 0.930 . S
C1230 C1228 1.378 . S
C1230 C1231 1.367 . S
C1231 C1230 1.367 . S
C1231 C1233 1.433 . S
C1232 C1228 1.350 . S
C1232 C1229 1.463 . S
C1232 N1236 1.427 . S
C1233 H1223 0.929 . S
C1233 C1231 1.433 . S
C1233 N1236 1.384 . S
C1234 H1225 0.929 . S
C1234 C1226 1.378 . S
C1234 C1229 1.350 . S
C1235 H1222 0.929 . S
C1235 C1227 1.433 . S
C1235 N1237 1.384 . S
N1236 C1232 1.427 . S
N1236 C1233 1.384 . S
N1237 C1229 1.427 . S
N1237 C1235 1.384 . S
H1238 C1244 0.930 . S
H1239 C1248 0.930 . S
H1240 C1253 0.929 . S
H1241 C1251 0.929 . S
H1242 C1246 0.929 . S
H1243 C1252 0.929 . S
C1244 H1238 0.930 . S
C1244 C1245 1.367 . S
C1244 C1252 1.378 . S
C1245 C1244 1.367 . S
C1245 C1253 1.433 . S
C1246 H1242 0.929 . S
C1246 C1248 1.378 . S
C1246 C1250 1.350 . S
C1247 C1250 1.463 . S
C1247 C1252 1.350 . S
C1247 N1255 1.427 . S
C1248 H1239 0.930 . S
C1248 C1246 1.378 . S
C1248 C1249 1.367 . S
C1249 C1248 1.367 . S
C1249 C1251 1.433 . S
C1250 C1246 1.350 . S
C1250 C1247 1.463 . S
C1250 N1254 1.427 . S
C1251 H1241 0.929 . S
C1251 C1249 1.433 . S
C1251 N1254 1.384 . S
C1252 H1243 0.929 . S
C1252 C1244 1.378 . S
C1252 C1247 1.350 . S
C1253 H1240 0.929 . S
C1253 C1245 1.433 . S
C1253 N1255 1.384 . S
N1254 C1250 1.427 . S
N1254 C1251 1.384 . S
N1255 C1247 1.427 . S
N1255 C1253 1.384 . S
H1256 C1262 0.930 . S
H1257 C1266 0.930 . S
H1258 C1271 0.929 . S
H1259 C1269 0.929 . S
H1260 C1264 0.929 . S
H1261 C1270 0.929 . S
C1262 H1256 0.930 . S
C1262 C1263 1.367 . S
C1262 C1270 1.378 . S
C1263 C1262 1.367 . S
C1263 C1271 1.433 . S
C1264 H1260 0.929 . S
C1264 C1266 1.378 . S
C1264 C1268 1.350 . S
C1265 C1268 1.463 . S
C1265 C1270 1.350 . S
C1265 N1273 1.427 . S
C1266 H1257 0.930 . S
C1266 C1264 1.378 . S
C1266 C1267 1.367 . S
C1267 C1266 1.367 . S
C1267 C1269 1.433 . S
C1268 C1264 1.350 . S
C1268 C1265 1.463 . S
C1268 N1272 1.427 . S
C1269 H1259 0.929 . S
C1269 C1267 1.433 . S
C1269 N1272 1.384 . S
C1270 H1261 0.929 . S
C1270 C1262 1.378 . S
C1270 C1265 1.350 . S
C1271 H1258 0.929 . S
C1271 C1263 1.433 . S
C1271 N1273 1.384 . S
N1272 C1268 1.427 . S
N1272 C1269 1.384 . S
N1273 C1265 1.427 . S
N1273 C1271 1.384 . S
H1274 C1280 0.933 1_554 S
H1275 C1284 0.930 . S
H1276 C1289 0.929 . S
H1277 C1287 0.929 . S
H1278 C1282 0.929 . S
H1279 C1288 0.929 . S
C1280 H1274 0.933 1_556 S
C1280 C1281 1.362 1_455 S
C1280 C1288 1.380 . S
C1281 C1280 1.362 1_655 S
C1281 C1289 1.433 . S
C1282 H1278 0.929 . S
C1282 C1284 1.378 . S
C1282 C1286 1.350 . S
C1283 C1286 1.463 . S
C1283 C1288 1.350 . S
C1283 N1291 1.427 1_455 S
C1284 H1275 0.930 . S
C1284 C1282 1.378 . S
C1284 C1285 1.367 . S
C1285 C1284 1.367 . S
C1285 C1287 1.433 . S
C1286 C1282 1.350 . S
C1286 C1283 1.463 . S
C1286 N1290 1.427 . S
C1287 H1277 0.929 . S
C1287 C1285 1.433 . S
C1287 N1290 1.384 . S
C1288 H1279 0.929 . S
C1288 C1280 1.380 . S
C1288 C1283 1.350 . S
C1289 H1276 0.929 . S
C1289 C1281 1.433 . S
C1289 N1291 1.384 . S
N1290 C1286 1.427 . S
N1290 C1287 1.384 . S
N1291 C1283 1.427 1_655 S
N1291 C1289 1.384 . S
H1292 C1298 0.930 . S
H1293 C1302 0.930 . S
H1294 C1307 0.929 . S
H1295 C1305 0.929 . S
H1296 C1300 0.929 . S
H1297 C1306 0.929 . S
C1298 H1292 0.930 . S
C1298 C1299 1.367 . S
C1298 C1306 1.378 . S
C1299 C1298 1.367 . S
C1299 C1307 1.433 . S
C1300 H1296 0.929 . S
C1300 C1302 1.378 . S
C1300 C1304 1.350 . S
C1301 C1304 1.463 . S
C1301 C1306 1.350 . S
C1301 N1309 1.427 . S
C1302 H1293 0.930 . S
C1302 C1300 1.378 . S
C1302 C1303 1.367 . S
C1303 C1302 1.367 . S
C1303 C1305 1.433 . S
C1304 C1300 1.350 . S
C1304 C1301 1.463 . S
C1304 N1308 1.427 . S
C1305 H1295 0.929 . S
C1305 C1303 1.433 . S
C1305 N1308 1.384 . S
C1306 H1297 0.929 . S
C1306 C1298 1.378 . S
C1306 C1301 1.350 . S
C1307 H1294 0.929 . S
C1307 C1299 1.433 . S
C1307 N1309 1.384 . S
N1308 C1304 1.427 . S
N1308 C1305 1.384 . S
N1309 C1301 1.427 . S
N1309 C1307 1.384 . S
H1310 C1316 0.930 . S
H1311 C1320 0.930 . S
H1312 C1325 0.929 1_554 S
H1313 C1323 0.929 . S
H1314 C1318 0.929 . S
H1315 C1324 0.929 . S
C1316 H1310 0.930 . S
C1316 C1317 1.367 . S
C1316 C1324 1.378 . S
C1317 C1316 1.367 . S
C1317 C1325 1.433 . S
C1318 H1314 0.929 . S
C1318 C1320 1.378 . S
C1318 C1322 1.350 . S
C1319 C1322 1.463 . S
C1319 C1324 1.350 . S
C1319 N1327 1.427 . S
C1320 H1311 0.930 . S
C1320 C1318 1.378 . S
C1320 C1321 1.367 . S
C1321 C1320 1.367 . S
C1321 C1323 1.433 . S
C1322 C1318 1.350 . S
C1322 C1319 1.463 . S
C1322 N1326 1.427 . S
C1323 H1313 0.929 . S
C1323 C1321 1.433 . S
C1323 N1326 1.384 . S
C1324 H1315 0.929 . S
C1324 C1316 1.378 . S
C1324 C1319 1.350 . S
C1325 H1312 0.929 1_556 S
C1325 C1317 1.433 . S
C1325 N1327 1.384 . S
N1326 C1322 1.427 . S
N1326 C1323 1.384 . S
N1327 C1319 1.427 . S
N1327 C1325 1.384 . S
H1328 C1334 0.930 . S
H1329 C1338 0.930 . S
H1330 C1343 0.929 . S
H1331 C1341 0.929 . S
H1332 C1336 0.929 . S
H1333 C1342 0.929 . S
C1334 H1328 0.930 . S
C1334 C1335 1.367 . S
C1334 C1342 1.378 . S
C1335 C1334 1.367 . S
C1335 C1343 1.433 . S
C1336 H1332 0.929 . S
C1336 C1338 1.378 . S
C1336 C1340 1.350 . S
C1337 C1340 1.463 . S
C1337 C1342 1.350 . S
C1337 N1345 1.427 . S
C1338 H1329 0.930 . S
C1338 C1336 1.378 . S
C1338 C1339 1.367 . S
C1339 C1338 1.367 . S
C1339 C1341 1.433 . S
C1340 C1336 1.350 . S
C1340 C1337 1.463 . S
C1340 N1344 1.427 . S
C1341 H1331 0.929 . S
C1341 C1339 1.433 . S
C1341 N1344 1.384 . S
C1342 H1333 0.929 . S
C1342 C1334 1.378 . S
C1342 C1337 1.350 . S
C1343 H1330 0.929 . S
C1343 C1335 1.433 . S
C1343 N1345 1.384 . S
N1344 C1340 1.427 . S
N1344 C1341 1.384 . S
N1345 C1337 1.427 . S
N1345 C1343 1.384 . S
H1346 C1352 0.930 . S
H1347 C1356 0.930 . S
H1348 C1361 0.929 . S
H1349 C1359 0.929 . S
H1350 C1354 0.929 . S
H1351 C1360 0.929 . S
C1352 H1346 0.930 . S
C1352 C1353 1.367 . S
C1352 C1360 1.378 . S
C1353 C1352 1.367 . S
C1353 C1361 1.433 . S
C1354 H1350 0.929 . S
C1354 C1356 1.378 . S
C1354 C1358 1.350 . S
C1355 C1358 1.463 . S
C1355 C1360 1.350 . S
C1355 N1363 1.427 . S
C1356 H1347 0.930 . S
C1356 C1354 1.378 . S
C1356 C1357 1.367 . S
C1357 C1356 1.367 . S
C1357 C1359 1.433 . S
C1358 C1354 1.350 . S
C1358 C1355 1.463 . S
C1358 N1362 1.427 . S
C1359 H1349 0.929 . S
C1359 C1357 1.433 . S
C1359 N1362 1.384 . S
C1360 H1351 0.929 . S
C1360 C1352 1.378 . S
C1360 C1355 1.350 . S
C1361 H1348 0.929 . S
C1361 C1353 1.433 . S
C1361 N1363 1.384 . S
N1362 C1358 1.427 . S
N1362 C1359 1.384 . S
N1363 C1355 1.427 . S
N1363 C1361 1.384 . S
H1364 C1370 0.930 . S
H1365 C1374 0.930 . S
H1366 C1379 0.929 . S
H1367 C1377 0.929 . S
H1368 C1372 0.929 . S
H1369 C1378 0.929 . S
C1370 H1364 0.930 . S
C1370 C1371 1.367 . S
C1370 C1378 1.378 . S
C1371 C1370 1.367 . S
C1371 C1379 1.433 . S
C1372 H1368 0.929 . S
C1372 C1374 1.378 . S
C1372 C1376 1.350 . S
C1373 C1376 1.463 . S
C1373 C1378 1.350 . S
C1373 N1381 1.427 . S
C1374 H1365 0.930 . S
C1374 C1372 1.378 . S
C1374 C1375 1.367 . S
C1375 C1374 1.367 . S
C1375 C1377 1.433 . S
C1376 C1372 1.350 . S
C1376 C1373 1.463 . S
C1376 N1380 1.427 . S
C1377 H1367 0.929 . S
C1377 C1375 1.433 . S
C1377 N1380 1.384 . S
C1378 H1369 0.929 . S
C1378 C1370 1.378 . S
C1378 C1373 1.350 . S
C1379 H1366 0.929 . S
C1379 C1371 1.433 . S
C1379 N1381 1.384 . S
N1380 C1376 1.427 . S
N1380 C1377 1.384 . S
N1381 C1373 1.427 . S
N1381 C1379 1.384 . S
H1382 C1388 0.930 . S
H1383 C1392 0.930 . S
H1384 C1397 0.929 . S
H1385 C1395 0.929 . S
H1386 C1390 0.929 . S
H1387 C1396 0.929 . S
C1388 H1382 0.930 . S
C1388 C1389 1.367 . S
C1388 C1396 1.378 . S
C1389 C1388 1.367 . S
C1389 C1397 1.433 . S
C1390 H1386 0.929 . S
C1390 C1392 1.378 . S
C1390 C1394 1.350 . S
C1391 C1394 1.463 . S
C1391 C1396 1.350 . S
C1391 N1399 1.427 . S
C1392 H1383 0.930 . S
C1392 C1390 1.378 . S
C1392 C1393 1.367 . S
C1393 C1392 1.367 . S
C1393 C1395 1.433 . S
C1394 C1390 1.350 . S
C1394 C1391 1.463 . S
C1394 N1398 1.427 . S
C1395 H1385 0.929 . S
C1395 C1393 1.433 . S
C1395 N1398 1.384 . S
C1396 H1387 0.929 . S
C1396 C1388 1.378 . S
C1396 C1391 1.350 . S
C1397 H1384 0.929 . S
C1397 C1389 1.433 . S
C1397 N1399 1.384 . S
N1398 C1394 1.427 . S
N1398 C1395 1.384 . S
N1399 C1391 1.427 . S
N1399 C1397 1.384 . S
H1400 C1406 0.930 . S
H1401 C1410 0.930 . S
H1402 C1415 0.929 . S
H1403 C1413 0.929 . S
H1404 C1408 0.929 . S
H1405 C1414 0.929 . S
C1406 H1400 0.930 . S
C1406 C1407 1.367 . S
C1406 C1414 1.378 . S
C1407 C1406 1.367 . S
C1407 C1415 1.433 . S
C1408 H1404 0.929 . S
C1408 C1410 1.378 . S
C1408 C1412 1.350 . S
C1409 C1412 1.463 . S
C1409 C1414 1.350 . S
C1409 N1417 1.427 . S
C1410 H1401 0.930 . S
C1410 C1408 1.378 . S
C1410 C1411 1.367 . S
C1411 C1410 1.367 . S
C1411 C1413 1.433 . S
C1412 C1408 1.350 . S
C1412 C1409 1.463 . S
C1412 N1416 1.427 . S
C1413 H1403 0.929 . S
C1413 C1411 1.433 . S
C1413 N1416 1.384 . S
C1414 H1405 0.929 . S
C1414 C1406 1.378 . S
C1414 C1409 1.350 . S
C1415 H1402 0.929 . S
C1415 C1407 1.433 . S
C1415 N1417 1.384 . S
N1416 C1412 1.427 . S
N1416 C1413 1.384 . S
N1417 C1409 1.427 . S
N1417 C1415 1.384 . S
H1418 C1424 0.930 . S
H1419 C1428 0.930 . S
H1420 C1433 0.929 . S
H1421 C1431 0.929 . S
H1422 C1426 0.929 . S
H1423 C1432 0.929 . S
C1424 H1418 0.930 . S
C1424 C1425 1.367 . S
C1424 C1432 1.378 . S
C1425 C1424 1.367 . S
C1425 C1433 1.433 . S
C1426 H1422 0.929 . S
C1426 C1428 1.378 . S
C1426 C1430 1.350 . S
C1427 C1430 1.463 . S
C1427 C1432 1.350 . S
C1427 N1435 1.427 . S
C1428 H1419 0.930 . S
C1428 C1426 1.378 . S
C1428 C1429 1.367 . S
C1429 C1428 1.367 . S
C1429 C1431 1.433 . S
C1430 C1426 1.350 . S
C1430 C1427 1.463 . S
C1430 N1434 1.427 . S
C1431 H1421 0.929 . S
C1431 C1429 1.433 . S
C1431 N1434 1.384 . S
C1432 H1423 0.929 . S
C1432 C1424 1.378 . S
C1432 C1427 1.350 . S
C1433 H1420 0.929 . S
C1433 C1425 1.433 . S
C1433 N1435 1.384 . S
N1434 C1430 1.427 . S
N1434 C1431 1.384 . S
N1435 C1427 1.427 . S
N1435 C1433 1.384 . S
H1436 C1442 0.930 . S
H1437 C1446 0.930 . S
H1438 C1451 0.929 . S
H1439 C1449 0.929 . S
H1440 C1444 0.929 . S
H1441 C1450 0.929 . S
C1442 H1436 0.930 . S
C1442 C1443 1.367 . S
C1442 C1450 1.378 . S
C1443 C1442 1.367 . S
C1443 C1451 1.433 . S
C1444 H1440 0.929 . S
C1444 C1446 1.378 . S
C1444 C1448 1.350 . S
C1445 C1448 1.463 . S
C1445 C1450 1.350 . S
C1445 N1453 1.427 . S
C1446 H1437 0.930 . S
C1446 C1444 1.378 . S
C1446 C1447 1.367 . S
C1447 C1446 1.367 . S
C1447 C1449 1.433 . S
C1448 C1444 1.350 . S
C1448 C1445 1.463 . S
C1448 N1452 1.427 . S
C1449 H1439 0.929 . S
C1449 C1447 1.433 . S
C1449 N1452 1.384 . S
C1450 H1441 0.929 . S
C1450 C1442 1.378 . S
C1450 C1445 1.350 . S
C1451 H1438 0.929 . S
C1451 C1443 1.433 . S
C1451 N1453 1.384 . S
N1452 C1448 1.427 . S
N1452 C1449 1.384 . S
N1453 C1445 1.427 . S
N1453 C1451 1.384 . S
H1454 C1460 0.930 . S
H1455 C1464 0.930 . S
H1456 C1469 0.929 . S
H1457 C1467 0.929 . S
H1458 C1462 0.929 . S
H1459 C1468 0.929 . S
C1460 H1454 0.930 . S
C1460 C1461 1.367 . S
C1460 C1468 1.378 . S
C1461 C1460 1.367 . S
C1461 C1469 1.433 . S
C1462 H1458 0.929 . S
C1462 C1464 1.378 . S
C1462 C1466 1.350 . S
C1463 C1466 1.463 . S
C1463 C1468 1.350 . S
C1463 N1471 1.427 . S
C1464 H1455 0.930 . S
C1464 C1462 1.378 . S
C1464 C1465 1.367 . S
C1465 C1464 1.367 . S
C1465 C1467 1.433 . S
C1466 C1462 1.350 . S
C1466 C1463 1.463 . S
C1466 N1470 1.427 . S
C1467 H1457 0.929 . S
C1467 C1465 1.433 . S
C1467 N1470 1.384 . S
C1468 H1459 0.929 . S
C1468 C1460 1.378 . S
C1468 C1463 1.350 . S
C1469 H1456 0.929 . S
C1469 C1461 1.433 . S
C1469 N1471 1.384 . S
N1470 C1466 1.427 . S
N1470 C1467 1.384 . S
N1471 C1463 1.427 . S
N1471 C1469 1.384 . S
H1472 C1478 0.930 . S
H1473 C1482 0.930 . S
H1474 C1487 0.929 . S
H1475 C1485 0.929 . S
H1476 C1480 0.929 . S
H1477 C1486 0.929 1_554 S
C1478 H1472 0.930 . S
C1478 C1479 1.367 . S
C1478 C1486 1.378 . S
C1479 C1478 1.367 . S
C1479 C1487 1.433 . S
C1480 H1476 0.929 . S
C1480 C1482 1.378 . S
C1480 C1484 1.350 . S
C1481 C1484 1.463 . S
C1481 C1486 1.350 . S
C1481 N1489 1.427 . S
C1482 H1473 0.930 . S
C1482 C1480 1.378 . S
C1482 C1483 1.368 . S
C1483 C1482 1.368 . S
C1483 C1485 1.433 1_556 S
C1484 C1480 1.350 . S
C1484 C1481 1.463 . S
C1484 N1488 1.427 1_556 S
C1485 H1475 0.929 . S
C1485 C1483 1.433 1_554 S
C1485 N1488 1.384 . S
C1486 H1477 0.929 1_556 S
C1486 C1478 1.378 . S
C1486 C1481 1.350 . S
C1487 H1474 0.929 . S
C1487 C1479 1.433 . S
C1487 N1489 1.384 . S
N1488 C1484 1.427 1_554 S
N1488 C1485 1.384 . S
N1489 C1481 1.427 . S
N1489 C1487 1.384 . S
H1490 C1496 0.930 . S
H1491 C1500 0.930 . S
H1492 C1505 0.929 . S
H1493 C1503 0.929 . S
H1494 C1498 0.929 . S
H1495 C1504 0.929 . S
C1496 H1490 0.930 . S
C1496 C1497 1.367 . S
C1496 C1504 1.378 . S
C1497 C1496 1.367 . S
C1497 C1505 1.433 . S
C1498 H1494 0.929 . S
C1498 C1500 1.378 . S
C1498 C1502 1.350 . S
C1499 C1502 1.463 . S
C1499 C1504 1.350 . S
C1499 N1507 1.427 . S
C1500 H1491 0.930 . S
C1500 C1498 1.378 . S
C1500 C1501 1.367 . S
C1501 C1500 1.367 . S
C1501 C1503 1.433 . S
C1502 C1498 1.350 . S
C1502 C1499 1.463 . S
C1502 N1506 1.427 . S
C1503 H1493 0.929 . S
C1503 C1501 1.433 . S
C1503 N1506 1.384 . S
C1504 H1495 0.929 . S
C1504 C1496 1.378 . S
C1504 C1499 1.350 . S
C1505 H1492 0.929 . S
C1505 C1497 1.433 . S
C1505 N1507 1.384 . S
N1506 C1502 1.427 . S
N1506 C1503 1.384 . S
N1507 C1499 1.427 . S
N1507 C1505 1.384 . S
H1508 C1514 0.930 . S
H1509 C1518 0.884 1_556 S
H1510 C1523 0.927 . S
H1511 C1521 0.929 . S
H1512 C1516 0.929 1_556 S
H1513 C1522 0.929 . S
C1514 H1508 0.930 . S
C1514 C1515 1.367 . S
C1514 C1522 1.378 . S
C1515 C1514 1.367 . S
C1515 C1523 1.433 . S
C1516 H1512 0.929 1_554 S
C1516 C1518 1.383 . S
C1516 C1520 1.350 . S
C1517 C1520 1.463 . S
C1517 C1522 1.350 . S
C1517 N1525 1.427 . S
C1518 H1509 0.884 1_554 S
C1518 C1516 1.383 . S
C1518 C1519 1.410 . S
C1519 C1518 1.410 . S
C1519 C1521 1.433 . S
C1520 C1516 1.350 . S
C1520 C1517 1.463 . S
C1520 N1524 1.427 . S
C1521 H1511 0.929 . S
C1521 C1519 1.433 . S
C1521 N1524 1.384 . S
C1522 H1513 0.929 . S
C1522 C1514 1.378 . S
C1522 C1517 1.350 . S
C1523 H1510 0.927 . S
C1523 C1515 1.433 . S
C1523 N1525 1.384 . S
N1524 C1520 1.427 . S
N1524 C1521 1.384 . S
N1525 C1517 1.427 . S
N1525 C1523 1.384 . S
H1526 C1532 0.930 . S
H1527 C1536 0.930 . S
H1528 C1541 0.929 1_556 S
H1529 C1539 0.929 . S
H1530 C1534 0.930 . S
H1531 C1540 0.929 . S
C1532 H1526 0.930 . S
C1532 C1533 1.367 . S
C1532 C1540 1.378 . S
C1533 C1532 1.367 . S
C1533 C1541 1.433 . S
C1534 H1530 0.930 . S
C1534 C1536 1.378 . S
C1534 C1538 1.348 1_556 S
C1535 C1538 1.463 . S
C1535 C1540 1.350 . S
C1535 N1543 1.427 . S
C1536 H1527 0.930 . S
C1536 C1534 1.378 . S
C1536 C1537 1.367 1_556 S
C1537 C1536 1.367 1_554 S
C1537 C1539 1.433 . S
C1538 C1534 1.348 1_554 S
C1538 C1535 1.463 . S
C1538 N1542 1.427 . S
C1539 H1529 0.929 . S
C1539 C1537 1.433 . S
C1539 N1542 1.384 . S
C1540 H1531 0.929 . S
C1540 C1532 1.378 . S
C1540 C1535 1.350 . S
C1541 H1528 0.929 1_554 S
C1541 C1533 1.433 . S
C1541 N1543 1.384 . S
N1542 C1538 1.427 . S
N1542 C1539 1.384 . S
N1543 C1535 1.427 . S
N1543 C1541 1.384 . S
C691 C523 1.415 . S
C687 C177 1.424 . S
C709 C531 1.294 . S
C705 C209 1.545 . S
C723 C253 1.356 . S
C727 C551 1.386 . S
C745 C565 1.517 . S
C741 C157 1.492 1_655 S
C763 C580 1.541 . S
C759 C343 1.513 . S
C781 C594 1.501 . S
C777 C401 1.453 . S
C795 C369 1.553 . S
C799 C608 1.579 . S
C817 C614 1.434 . S
C813 C317 1.448 . S
C831 C375 1.497 . S
C835 C628 1.492 . S
C853 C649 1.565 . S
C849 C305 1.568 . S
C867 C349 1.467 . S
C871 C629 1.267 . S
C889 C650 1.537 . S
C885 C413 1.489 . S
C903 C241 1.418 . S
C907 C657 1.190 . S
C921 C151 1.458 . S
C925 C663 1.464 . S
C939 C189 1.488 . S
C943 C656 1.462 . S
C957 C215 1.465 . S
C961 C664 1.477 . S
C975 C113 1.465 . S
C979 C558 1.446 . S
C993 C471 1.466 . S
C997 C559 1.230 . S
C1015 C516 1.525 . S
C1011 C509 1.546 . S
C1033 C537 1.435 . S
C1029 C279 1.427 . S
C1047 C145 1.422 . S
C1051 C572 1.409 . S
C1069 C622 1.573 . S
C1065 C381 1.539 . S
C1087 C573 1.218 . S
C1083 C311 1.450 . S
C1105 C601 1.282 . S
C1101 C407 1.486 . S
C1123 C607 1.421 . S
C1119 C465 1.418 . S
C1137 C497 1.545 . S
C1141 C615 1.285 . S
C1155 C285 1.352 . S
C1159 C579 1.376 . S
C1177 C593 1.510 . S
C1173 C445 1.501 . S
C1191 C119 1.512 . S
C1195 C552 1.543 . S
C1213 C566 1.502 . S
C1209 C17 1.458 . S
C1231 C524 1.578 . S
C1227 C49 1.553 . S
C1249 C530 1.430 . S
C1245 C93 1.451 . S
C1263 C55 1.503 . S
C1267 C642 1.492 . S
C1281 C81 1.569 1_556 S
C1285 C635 1.563 . S
C1299 C125 1.462 . S
C1303 C643 1.255 . S
C1317 C29 1.486 . S
C1321 C636 1.537 . S
C1339 C671 1.200 . S
C1335 C273 1.418 . S
C1357 C677 1.472 . S
C1353 C439 1.449 . S
C1375 C670 1.469 . S
C1371 C477 1.484 . S
C1389 C503 1.465 . S
C1393 C678 1.477 . S
C1407 C337 1.462 . S
C1411 C586 1.443 . S
C1429 C587 1.238 . S
C1425 C183 1.465 . S
C1447 C600 1.522 . S
C1443 C221 1.537 . S
C1465 C621 1.443 . S
C1461 C247 1.426 . S
C1479 C433 1.420 . S
C1483 C544 1.407 1_556 S
C1501 C538 1.572 . S
C1497 C61 1.528 . S
C1515 C87 1.453 . S
C1519 C545 1.228 . S
C1537 C517 1.285 . S
C1533 C23 1.488 . S
