# Generated by pormake.
# Topology ftw, (4,12)-cn, num edge types: 1
# Building blocks:
#     Node 0, Type 0, BuildingBlock: MIFKUJ_clean_linker_1, # of connection points: 4
#     Node 1, Type 0, BuildingBlock: MIFKUJ_clean_linker_1, # of connection points: 4
#     Node 2, Type 0, BuildingBlock: MIFKUJ_clean_linker_1, # of connection points: 4
#     Node 3, Type 1, BuildingBlock: EZIPEK_clean_sbu_0, # of connection points: 12
#     Edge 4, Type (0, 1), BuildingBlock: TEMPAE_clean_linker_10, # of connection points: 2
#     Edge 5, Type (0, 1), BuildingBlock: TEMPAE_clean_linker_10, # of connection points: 2
#     Edge 6, Type (0, 1), BuildingBlock: TEMPAE_clean_linker_10, # of connection points: 2
#     Edge 7, Type (0, 1), BuildingBlock: TEMPAE_clean_linker_10, # of connection points: 2
#     Edge 8, Type (0, 1), BuildingBlock: TEMPAE_clean_linker_10, # of connection points: 2
#     Edge 9, Type (0, 1), BuildingBlock: TEMPAE_clean_linker_10, # of connection points: 2
#     Edge 10, Type (0, 1), BuildingBlock: TEMPAE_clean_linker_10, # of connection points: 2
#     Edge 11, Type (0, 1), BuildingBlock: TEMPAE_clean_linker_10, # of connection points: 2
#     Edge 12, Type (0, 1), BuildingBlock: TEMPAE_clean_linker_10, # of connection points: 2
#     Edge 13, Type (0, 1), BuildingBlock: TEMPAE_clean_linker_10, # of connection points: 2
#     Edge 14, Type (0, 1), BuildingBlock: TEMPAE_clean_linker_10, # of connection points: 2
#     Edge 15, Type (0, 1), BuildingBlock: TEMPAE_clean_linker_10, # of connection points: 2
# Relax obj value: 0.048
# Max RMSD: 0.168
# Mean RMSD: 0.128
data_MOF--net-ftw--node1-EZIPEK_clean_sbu_0--node2-MIFKUJ_clean_linker_1--edge1-TEMPAE_clean_linker_10
_symmetry_space_group_name_H-M    P1
_symmetry_Int_Tables_number       1
_symmetry_cell_setting            triclinic
loop_
_symmetry_equiv_pos_as_xyz
'x, y, z'
_cell_length_a     27.701518
_cell_length_b     29.583312
_cell_length_c     28.209603
_cell_angle_alpha  90.044182
_cell_angle_beta   90.173705
_cell_angle_gamma 90.047086
loop_
_atom_site_label
_atom_site_type_symbol
_atom_site_fract_x
_atom_site_fract_y
_atom_site_fract_z
_atom_type_partial_charge
H0 H 0.06552 0.60351 0.60087 0.0
H1 H 0.06492 0.66591 0.65729 0.0
H2 H 0.92868 0.71145 0.59975 0.0
H3 H 0.92876 0.64771 0.54419 0.0
H4 H 0.00403 0.53729 0.60183 0.0
H5 H 0.05144 0.64741 0.48437 0.0
H6 H 0.05156 0.71041 0.42809 0.0
H7 H 0.91635 0.66295 0.36967 0.0
H8 H 0.9157 0.60116 0.42684 0.0
H9 H 0.90939 0.447 0.45904 0.0
H10 H 0.90861 0.38401 0.40295 0.0
H11 H 0.06463 0.38843 0.39728 0.0
H12 H 0.06471 0.44934 0.45574 0.0
H13 H 0.97733 0.5349 0.42828 0.0
H14 H 0.93053 0.42518 0.54742 0.0
H15 H 0.93196 0.36229 0.60354 0.0
H16 H 0.06823 0.41037 0.65905 0.0
H17 H 0.06763 0.4717 0.60137 0.0
C18 C -0.00273 0.62075 0.56801 0.0
C19 C 0.03575 0.62724 0.5999 0.0
C20 C 0.03548 0.66321 0.63211 0.0
C21 C -0.00337 0.6938 0.63343 0.0
C22 C 0.95889 0.68826 0.60026 0.0
C23 C 0.9592 0.65213 0.56793 0.0
C24 C -0.00542 0.57832 0.5394 0.0
C25 C -0.00103 0.53689 0.56368 0.0
C26 C 0.98607 0.57771 0.48977 0.0
C27 C 0.98339 0.61951 0.46025 0.0
C28 C 0.02121 0.65121 0.46027 0.0
C29 C 0.02156 0.68692 0.42753 0.0
C30 C 0.98413 0.69172 0.39394 0.0
C31 C 0.94554 0.66077 0.39517 0.0
C32 C 0.94524 0.62516 0.42781 0.0
C33 C 0.98711 0.45224 0.46226 0.0
C34 C 0.9434 0.43345 0.4466 0.0
C35 C 0.9431 0.39782 0.41381 0.0
C36 C 0.98656 0.38098 0.39474 0.0
C37 C 0.03037 0.39957 0.41142 0.0
C38 C 0.03059 0.43462 0.44491 0.0
C39 C 0.98735 0.49445 0.49078 0.0
C40 C 0.98249 0.53565 0.46643 0.0
C41 C -0.00447 0.49494 0.54029 0.0
C42 C -0.00068 0.45301 0.56944 0.0
C43 C 0.96152 0.42133 0.5705 0.0
C44 C 0.96196 0.38577 0.60338 0.0
C45 C 3e-05 0.38124 0.63632 0.0
C46 C 0.03856 0.41223 0.63405 0.0
C47 C 0.03817 0.44758 0.60109 0.0
H48 H 0.47053 0.98611 0.41365 0.0
H49 H 0.41454 1.00575 0.34994 0.0
H50 H 0.3423 0.87738 0.36749 0.0
H51 H 0.39939 0.85738 0.43047 0.0
H52 H 0.40137 0.91306 0.51175 0.0
H53 H 0.57243 0.98683 0.45882 0.0
H54 H 0.62683 1.00259 0.39325 0.0
H55 H 0.58522 0.87685 0.32656 0.0
H56 H 0.53022 0.86109 0.39308 0.0
H57 H 0.57188 0.85578 0.60803 0.0
H58 H 0.62985 0.87537 0.67055 0.0
H59 H 0.5774 1.01297 0.66931 0.0
H60 H 0.52202 0.99373 0.60533 0.0
H61 H 0.58014 0.91312 0.51836 0.0
H62 H 0.42179 0.85701 0.62027 0.0
H63 H 0.36481 0.87738 0.68315 0.0
H64 H 0.38478 0.01883 0.64919 0.0
H65 H 0.43813 0.99776 0.58456 0.0
C66 C 0.43958 0.91996 0.42626 0.0
C67 C 0.44384 0.96146 0.40259 0.0
C68 C 0.41135 0.97295 0.36669 0.0
C69 C 0.37377 0.94328 0.35412 0.0
C70 C 0.37112 0.90075 0.37616 0.0
C71 C 0.40365 0.8893 0.41213 0.0
C72 C 0.46681 0.9122 0.47065 0.0
C73 C 0.4405 0.91133 0.51304 0.0
C74 C 0.51773 0.91317 0.4727 0.0
C75 C 0.54762 0.92274 0.43073 0.0
C76 C 0.57475 0.96276 0.42994 0.0
C77 C 0.60552 0.97187 0.39234 0.0
C78 C 0.61006 0.94097 0.35488 0.0
C79 C 0.58238 0.90107 0.35523 0.0
C80 C 0.55096 0.89214 0.3929 0.0
C81 C 0.54176 0.92301 0.60304 0.0
C82 C 0.57215 0.88982 0.62223 0.0
C83 C 0.60516 0.90108 0.65792 0.0
C84 C 0.60838 0.94581 0.67462 0.0
C85 C 0.57618 0.97835 0.6568 0.0
C86 C 0.54367 0.96718 0.62092 0.0
C87 C 0.51467 0.91396 0.55899 0.0
C88 C 0.54099 0.91167 0.51685 0.0
C89 C 0.46389 0.91443 0.55699 0.0
C90 C 0.4345 0.926 0.59856 0.0
C91 C 0.41402 0.89232 0.62695 0.0
C92 C 0.38174 0.90411 0.66295 0.0
C93 C 0.36991 0.94979 0.6711 0.0
C94 C 0.39213 0.98331 0.64337 0.0
C95 C 0.42332 0.97144 0.60691 0.0
H96 H 0.54046 0.63032 0.94186 0.0
H97 H 0.59494 0.69532 0.94094 0.0
H98 H 0.6144 0.68286 0.09254 0.0
H99 H 0.55805 0.61903 0.09321 0.0
H100 H 0.58038 0.53774 0.02222 0.0
H101 H 0.45326 0.63949 0.94252 0.0
H102 H 0.39986 0.70531 0.94237 0.0
H103 H 0.35696 0.67415 0.08597 0.0
H104 H 0.41218 0.60982 0.0864 0.0
H105 H 0.463 0.42762 0.07854 0.0
H106 H 0.40812 0.36262 0.07923 0.0
H107 H 0.34681 0.40682 0.94603 0.0
H108 H 0.40251 0.47069 0.94492 0.0
H109 H 0.40187 0.53735 1.00945 0.0
H110 H 0.58064 0.47136 0.08596 0.0
H111 H 0.63575 0.40712 0.08519 0.0
H112 H 0.57295 0.36165 0.95303 0.0
H113 H 0.51876 0.42704 0.95329 0.0
C114 C 0.54469 0.62065 0.01771 0.0
C115 C 0.55538 0.64254 0.97502 0.0
C116 C 0.58704 0.67922 0.9745 0.0
C117 C 0.60926 0.69408 0.01664 0.0
C118 C 0.59744 0.67265 0.05959 0.0
C119 C 0.56545 0.63613 0.06006 0.0
C120 C 0.51641 0.5785 0.01717 0.0
C121 C 0.54128 0.53741 0.01971 0.0
C122 C 0.46573 0.57843 0.01378 0.0
C123 C 0.43723 0.62047 0.01477 0.0
C124 C 0.43341 0.64773 0.97435 0.0
C125 C 0.40233 0.6849 0.97413 0.0
C126 C 0.37403 0.69494 0.01414 0.0
C127 C 0.37877 0.66788 0.05486 0.0
C128 C 0.41009 0.63097 0.05512 0.0
C129 C 0.43694 0.45381 1.01156 0.0
C130 C 0.43848 0.42265 0.04901 0.0
C131 C 0.40678 0.38586 0.0496 0.0
C132 C 0.37299 0.37975 0.01279 0.0
C133 C 0.37274 0.41025 0.97463 0.0
C134 C 0.40434 0.44693 0.97408 0.0
C135 C 0.46579 0.49588 0.01331 0.0
C136 C 0.44099 0.53721 1.01171 0.0
C137 C 0.51663 0.49596 0.01798 0.0
C138 C 0.54552 0.45391 0.01978 0.0
C139 C 0.5784 0.44729 0.05706 0.0
C140 C 0.60966 0.41037 0.05673 0.0
C141 C 0.60877 0.37932 0.019 0.0
C142 C 0.5748 0.38526 0.98234 0.0
C143 C 0.54347 0.4223 0.9827 0.0
C144 C -0.0073 0.14636 0.89941 0.0
C145 C 0.98774 0.14577 0.1313 0.0
C146 C -0.00877 0.92693 0.89849 0.0
C147 C -0.00828 0.92625 0.1307 0.0
C148 C 0.1092 0.92838 0.01433 0.0
C149 C 0.1077 0.14625 0.01834 0.0
C150 C 0.87445 0.92716 1.01225 0.0
C151 C 0.87321 0.14502 0.01374 0.0
C152 C 0.87221 0.02458 0.12561 0.0
C153 C 0.10625 0.032 0.13092 0.0
C154 C 0.87591 0.03178 0.89881 0.0
C155 C 0.10917 0.03124 0.90308 0.0
Eu156 Eu -0.00938 0.12278 0.01533 0.0
O157 O 0.0326 0.07707 0.05838 0.0
O158 O 0.94889 0.07718 0.97171 0.0
Eu159 Eu 0.08111 0.03713 0.01643 0.0
Eu160 Eu 0.90109 0.03616 0.01303 0.0
O161 O 0.03402 0.0775 0.97325 0.0
O162 O 0.94736 0.07689 0.05702 0.0
Eu163 Eu -0.00779 0.03649 0.92515 0.0
Eu164 Eu 0.98947 0.03602 0.10501 0.0
O165 O 0.03398 0.99633 0.97366 0.0
O166 O 0.03286 0.99611 0.0576 0.0
O167 O 0.94868 0.99583 0.05569 0.0
O168 O 0.94974 0.99566 0.97211 0.0
Eu169 Eu -0.00835 0.94971 0.01472 0.0
O170 O -0.00801 0.16045 0.94459 0.0
O171 O 0.99027 0.16003 0.0863 0.0
O172 O -0.00843 0.91249 0.94354 0.0
O173 O -0.00835 0.91212 0.08554 0.0
O174 O 0.12266 0.97164 0.01492 0.0
O175 O 0.12172 0.10316 0.0185 0.0
O176 O 0.86045 0.97018 1.00984 0.0
O177 O 0.85962 0.10177 0.01364 0.0
O178 O 0.91732 0.02759 0.14226 0.0
O179 O 0.06041 0.03309 0.14544 0.0
O180 O 0.92175 0.03218 0.88449 0.0
O181 O 0.06373 0.03087 0.88741 0.0
O182 O 0.91998 0.9126 0.01527 0.0
O183 O 0.06372 0.9133 0.0147 0.0
O184 O 0.91882 0.1598 0.01437 0.0
O185 O 0.06198 0.16058 0.01686 0.0
O186 O 0.98618 0.10256 0.14515 0.0
O187 O -0.00876 0.96943 0.14463 0.0
O188 O -0.00707 0.10315 0.88545 0.0
O189 O -0.00857 0.97019 0.88498 0.0
O190 O 0.12315 0.03554 0.94808 0.0
O191 O 0.1209 0.03395 0.08604 0.0
O192 O 0.86105 0.03461 0.94354 0.0
O193 O 0.85909 0.02898 0.08045 0.0
C194 C 0.94901 0.34468 0.32221 0.0
C195 C 0.98614 0.34569 0.35636 0.0
C196 C 0.94841 0.31231 0.28562 0.0
C197 C 0.98644 0.28055 0.28203 0.0
C198 C 0.02424 0.28147 0.31597 0.0
C199 C 0.02337 0.31355 0.35287 0.0
C200 C 0.907 0.31217 0.25067 0.0
C201 C 0.06581 0.2486 0.3132 0.0
C202 C 0.96619 0.17079 0.21364 0.0
C203 C 0.98674 0.18067 0.16939 0.0
C204 C 0.96536 0.20307 0.25028 0.0
C205 C 0.98645 0.24615 0.24303 0.0
C206 C 0.00748 0.25627 0.1985 0.0
C207 C 0.00691 0.22364 0.16211 0.0
C208 C 0.94165 0.19109 0.29674 0.0
C209 C 0.03113 0.30143 0.18948 0.0
H210 H 0.92052 0.36969 0.32349 0.0
H211 H 0.0519 0.31316 0.3792 0.0
H212 H 0.9207 0.31861 0.21439 0.0
H213 H 0.8894 0.27846 0.25025 0.0
H214 H 0.87936 0.33809 0.25919 0.0
H215 H 0.09327 0.25467 0.34128 0.0
H216 H 0.05225 0.21347 0.31666 0.0
H217 H 0.08359 0.25125 0.27811 0.0
H218 H 0.95012 0.13785 0.21954 0.0
H219 H 0.02323 0.23149 0.12822 0.0
H220 H 0.91262 0.21573 0.30479 0.0
H221 H 0.96843 0.19312 0.32598 0.0
H222 H 0.92583 0.15657 0.29637 0.0
H223 H 0.00446 0.32901 0.19408 0.0
H224 H 0.04659 0.30381 0.15327 0.0
H225 H 0.06044 0.30718 0.21571 0.0
C226 C 0.67937 0.91741 0.30411 0.0
C227 C 0.64536 0.95021 0.31694 0.0
C228 C 0.71671 0.92779 0.27242 0.0
C229 C 0.71968 0.97189 0.25318 0.0
C230 C 0.68443 1.00461 0.26481 0.0
C231 C 0.64767 0.99334 0.2966 0.0
C232 C 0.75365 0.89204 0.26054 0.0
C233 C 0.68611 0.0518 0.24444 0.0
C234 C 0.83947 1.01647 0.20796 0.0
C235 C 0.83339 1.01195 0.15887 0.0
C236 C 0.8029 1.00297 0.23925 0.0
C237 C 0.75965 0.98416 0.22088 0.0
C238 C 0.7537 0.97876 0.17146 0.0
C239 C 0.79051 0.9929 0.14108 0.0
C240 C 0.8103 1.00918 0.2919 0.0
C241 C 0.70838 0.95824 0.15059 0.0
H242 H 0.67783 0.88418 0.32023 0.0
H243 H 0.62103 0.01855 0.30621 0.0
H244 H 0.75576 0.88734 0.22158 0.0
H245 H 0.78987 0.90307 0.27283 0.0
H246 H 0.74516 0.85895 0.27716 0.0
H247 H 0.65539 0.07296 0.2565 0.0
H248 H 0.72029 0.06864 0.25504 0.0
H249 H 0.6855 0.05027 0.20515 0.0
H250 H 0.8726 0.03086 0.22191 0.0
H251 H 0.78581 0.9883 0.10322 0.0
H252 H 0.80608 0.97632 0.31038 0.0
H253 H 0.7824 0.03235 0.30615 0.0
H254 H 0.84649 0.02321 0.30051 0.0
H255 H 0.70199 0.92425 0.16594 0.0
H256 H 0.71025 0.95492 0.1114 0.0
H257 H 0.67673 0.97948 0.15966 0.0
C258 C 0.94416 0.75039 0.34212 0.0
C259 C 0.98615 0.72743 0.35639 0.0
C260 C 0.94516 0.78248 0.30531 0.0
C261 C 0.98924 0.7921 0.28203 0.0
C262 C 0.03184 0.76943 0.29651 0.0
C263 C 0.02978 0.73745 0.33338 0.0
C264 C 0.89895 0.80606 0.29127 0.0
C265 C 0.0796 0.77868 0.27273 0.0
C266 C 0.98391 0.84559 0.15884 0.0
C267 C -0.00786 0.89144 0.16901 0.0
C268 C 0.98308 0.81291 0.19515 0.0
C269 C -0.00916 0.82622 0.24288 0.0
C270 C -0.00028 0.87231 0.25329 0.0
C271 C 0.00019 0.90423 0.21641 0.0
C272 C 0.97348 0.76414 0.18247 0.0
C273 C 0.00847 0.88804 0.30354 0.0
H274 H 0.91037 0.74343 0.35995 0.0
H275 H 0.06231 0.71951 0.34348 0.0
H276 H 0.90308 0.84313 0.29571 0.0
H277 H 0.89099 0.79969 0.25327 0.0
H278 H 0.8676 0.79465 0.31263 0.0
H279 H 0.10953 0.75863 0.28842 0.0
H280 H 0.07699 0.7706 0.23439 0.0
H281 H 0.08874 0.8151 0.27569 0.0
H282 H 0.97753 0.83517 0.12252 0.0
H283 H 0.00699 0.9394 0.22494 0.0
H284 H 0.94045 0.75217 0.20074 0.0
H285 H 0.00383 0.74266 0.1948 0.0
H286 H 0.96872 0.75914 0.1437 0.0
H287 H 0.97654 0.8802 0.32573 0.0
H288 H 0.01572 0.92493 0.30566 0.0
H289 H 0.03968 0.86974 0.31905 0.0
C290 C 0.31459 1.00122 0.32643 0.0
C291 C 0.33513 0.95818 0.32122 0.0
C292 C 0.27658 1.01541 0.29716 0.0
C293 C 0.25874 0.98585 0.26179 0.0
C294 C 0.27941 0.9424 0.25616 0.0
C295 C 0.31733 0.92901 0.28609 0.0
C296 C 0.25537 0.06195 0.30421 0.0
C297 C 0.26152 0.91012 0.21846 0.0
C298 C 0.13349 1.00451 0.21045 0.0
C299 C 0.14438 0.02483 0.16688 0.0
C300 C 0.17036 0.99218 0.24212 0.0
C301 C 0.21909 1.00074 0.22997 0.0
C302 C 0.23014 0.02273 0.18685 0.0
C303 C 0.19266 0.03446 0.15581 0.0
C304 C 0.15727 0.96873 0.28785 0.0
C305 C 0.28165 0.03271 0.17282 0.0
H306 H 0.32764 0.02356 0.35414 0.0
H307 H 0.3333 0.89582 0.28185 0.0
H308 H 0.25871 0.08192 0.27111 0.0
H309 H 0.21632 0.05919 0.31232 0.0
H310 H 0.27337 0.08079 0.33341 0.0
H311 H 0.28121 0.87741 0.219 0.0
H312 H 0.22248 0.90332 0.22351 0.0
H313 H 0.26577 0.92556 0.18289 0.0
H314 H 0.09632 0.99659 0.21906 0.0
H315 H 0.20135 0.05048 0.12235 0.0
H316 H 0.17288 0.98729 0.31846 0.0
H317 H 0.17285 0.93419 0.28823 0.0
H318 H 0.11759 0.96602 0.29278 0.0
H319 H 0.29995 0.05257 0.201 0.0
H320 H 0.28393 0.05181 0.139 0.0
H321 H 0.30186 1.00058 0.16877 0.0
C322 C 0.95118 0.73973 0.69405 0.0
C323 C -0.00532 0.72978 0.67079 0.0
C324 C 0.94934 0.77166 0.73105 0.0
C325 C -0.00794 0.79426 0.74547 0.0
C326 C 0.03597 0.78483 0.72182 0.0
C327 C 0.03673 0.75287 0.68483 0.0
C328 C 0.90173 0.78083 0.75512 0.0
C329 C 0.08229 0.80836 0.73578 0.0
C330 C 0.98231 0.90577 0.81256 0.0
C331 C -0.00944 0.89248 0.85976 0.0
C332 C 0.98225 0.87422 0.77528 0.0
C333 C -0.00916 0.82799 0.78506 0.0
C334 C -0.00116 0.81418 0.83257 0.0
C335 C -0.00152 0.84649 0.86931 0.0
C336 C 0.97319 0.89048 0.7253 0.0
C337 C 0.00819 0.76524 0.84456 0.0
H338 H 0.9186 0.72173 0.68412 0.0
H339 H 0.07042 0.74603 0.66678 0.0
H340 H 0.9044 0.77219 0.7933 0.0
H341 H 0.89285 0.81733 0.75281 0.0
H342 H 0.8716 0.76115 0.73919 0.0
H343 H 0.11344 0.79726 0.71398 0.0
H344 H 0.07813 0.84548 0.73193 0.0
H345 H 0.09059 0.80155 0.77361 0.0
H346 H 0.97573 0.94105 0.80449 0.0
H347 H 0.00496 0.83569 0.90547 0.0
H348 H 0.94175 0.87244 0.70982 0.0
H349 H 0.00488 0.88275 0.70276 0.0
H350 H 0.96613 0.92741 0.7237 0.0
H351 H 0.97768 0.74399 0.83207 0.0
H352 H 0.01309 0.75981 0.88324 0.0
H353 H 0.04108 0.75337 0.82599 0.0
C354 C 0.3287 0.93949 0.74965 0.0
C355 C 0.33268 0.96262 0.70642 0.0
C356 C 0.29273 0.95094 0.78245 0.0
C357 C 0.26071 0.98687 0.77204 0.0
C358 C 0.26497 1.01078 0.72892 0.0
C359 C 0.30042 0.99797 0.69639 0.0
C360 C 0.2886 0.92428 0.82793 0.0
C361 C 0.23178 0.04967 0.71692 0.0
C362 C 0.13849 0.99164 0.83128 0.0
C363 C 0.14719 0.02231 0.86817 0.0
C364 C 0.17546 0.97916 0.80022 0.0
C365 C 0.22175 0.99882 0.80557 0.0
C366 C 0.23044 0.03056 0.84221 0.0
C367 C 0.19311 0.04146 0.87361 0.0
C368 C 0.16517 0.94441 0.76221 0.0
C369 C 0.27906 0.05302 0.84815 0.0
H370 H 0.35377 0.91253 0.75796 0.0
H371 H 0.30229 1.01536 0.66266 0.0
H372 H 0.29258 0.9471 0.85891 0.0
H373 H 0.25227 0.9086 0.83026 0.0
H374 H 0.31623 0.8972 0.83058 0.0
H375 H 0.24181 0.0665 0.68315 0.0
H376 H 0.19408 0.03734 0.71381 0.0
H377 H 0.23256 0.07521 0.74575 0.0
H378 H 0.10316 0.97617 0.8277 0.0
H379 H 0.19971 0.06514 0.90228 0.0
H380 H 0.19047 0.91554 0.76583 0.0
H381 H 0.17105 0.95939 0.72666 0.0
H382 H 0.12761 0.9313 0.7639 0.0
H383 H 0.3072 0.02715 0.85487 0.0
H384 H 0.27949 0.07772 0.87783 0.0
H385 H 0.28904 0.07088 0.815 0.0
C386 C 0.04105 0.32379 0.68894 0.0
C387 C -0.00135 0.34586 0.67428 0.0
C388 C 0.04054 0.29192 0.72596 0.0
C389 C -0.00348 0.28138 0.74889 0.0
C390 C 0.95353 0.30317 0.73407 0.0
C391 C 0.95513 0.33515 0.69718 0.0
C392 C 0.08721 0.26948 0.74056 0.0
C393 C 0.90577 0.29283 0.75735 0.0
C394 C 0.98704 0.16862 0.81351 0.0
C395 C -0.00667 0.18129 0.8612 0.0
C396 C 0.98781 0.20077 0.77685 0.0
C397 C -0.00471 0.24697 0.78776 0.0
C398 C 0.00164 0.26012 0.83572 0.0
C399 C 0.00045 0.22723 0.87181 0.0
C400 C 0.98059 0.18522 0.72631 0.0
C401 C 0.00996 0.30898 0.84891 0.0
H402 H 0.07479 0.33121 0.67123 0.0
H403 H 0.92226 0.35243 0.68691 0.0
H404 H 0.09427 0.27564 0.77877 0.0
H405 H 0.08433 0.23237 0.7356 0.0
H406 H 0.11856 0.28199 0.71989 0.0
H407 H 0.87553 0.31235 0.7415 0.0
H408 H 0.89753 0.25625 0.75405 0.0
H409 H 0.9078 0.30073 0.79575 0.0
H410 H 0.98124 0.13339 0.8046 0.0
H411 H 0.00553 0.23758 0.90835 0.0
H412 H 0.01252 0.19438 0.7047 0.0
H413 H 0.94893 0.20259 0.7105 0.0
H414 H 0.97486 0.14813 0.7237 0.0
H415 H 0.04275 0.32185 0.8309 0.0
H416 H 0.0144 0.31375 0.88775 0.0
H417 H 0.97913 0.32988 0.83665 0.0
C418 C 0.67296 0.9999 0.69937 0.0
C419 C 0.64767 0.95951 0.70743 0.0
C420 C 0.71078 1.01332 0.72922 0.0
C421 C 0.72398 0.98546 0.76779 0.0
C422 C 0.6989 0.94449 0.77608 0.0
C423 C 0.66091 0.93201 0.74577 0.0
C424 C 0.73661 0.05734 0.71948 0.0
C425 C 0.71216 0.91396 0.817 0.0
C426 C 0.84866 0.99964 0.82154 0.0
C427 C 0.83815 0.02408 0.86281 0.0
C428 C 0.81181 0.98692 0.79008 0.0
C429 C 0.76359 0.9996 0.79994 0.0
C430 C 0.75306 0.02559 0.84072 0.0
C431 C 0.79048 0.0373 0.87185 0.0
C432 C 0.82426 0.95881 0.74711 0.0
C433 C 0.70214 0.04024 0.852 0.0
H434 H 0.66364 0.02082 0.66917 0.0
H435 H 0.6413 0.90093 0.75229 0.0
H436 H 0.73395 0.07992 0.75078 0.0
H437 H 0.77552 0.0509 0.71326 0.0
H438 H 0.72157 0.07529 0.68818 0.0
H439 H 0.68968 0.88286 0.81802 0.0
H440 H 0.75067 0.90398 0.81444 0.0
H441 H 0.70772 0.93231 0.85102 0.0
H442 H 0.88539 0.98882 0.81477 0.0
H443 H 0.78228 0.05637 0.90366 0.0
H444 H 0.81189 0.97608 0.71437 0.0
H445 H 0.8052 0.92585 0.74885 0.0
H446 H 0.86365 0.95232 0.74424 0.0
H447 H 0.68653 0.05909 0.82163 0.0
H448 H 0.70043 0.062 0.88407 0.0
H449 H 0.6791 1.01008 0.85787 0.0
C450 C 0.32369 0.31875 0.9745 0.0
C451 C 0.33617 0.34339 0.01523 0.0
C452 C 0.28652 0.28658 0.97551 0.0
C453 C 0.26138 0.27878 0.01833 0.0
C454 C 0.27434 0.30293 0.05979 0.0
C455 C 0.31158 0.33501 0.05772 0.0
C456 C 0.27384 0.26125 0.93065 0.0
C457 C 0.24839 0.29535 0.10612 0.0
C458 C 0.13654 0.22623 1.00995 0.0
C459 C 0.14652 0.18069 0.01965 0.0
C460 C 0.17357 0.25865 1.00974 0.0
C461 C 0.22158 0.2452 0.01971 0.0
C462 C 0.23178 0.19948 0.03024 0.0
C463 C 0.19419 0.16779 0.03001 0.0
C464 C 0.16143 0.30718 0.99824 0.0
C465 C 0.28251 0.18392 0.04135 0.0
H466 H 0.34296 0.32475 0.94171 0.0
H467 H 0.32058 0.35442 0.08914 0.0
H468 H 0.27768 0.22434 0.93646 0.0
H469 H 0.2356 0.26767 0.921 0.0
H470 H 0.29702 0.2712 0.90033 0.0
H471 H 0.2636 0.31617 0.13537 0.0
H472 H 0.20958 0.30374 0.10198 0.0
H473 H 0.25058 0.25921 0.11636 0.0
H474 H 0.09991 0.23654 1.0018 0.0
H475 H 0.20236 0.13279 0.03801 0.0
H476 H 0.18126 0.31796 0.96605 0.0
H477 H 0.17313 0.32958 0.02767 0.0
H478 H 0.12218 0.31226 0.99205 0.0
H479 H 0.30631 0.19039 1.01053 0.0
H480 H 0.28414 0.14733 0.05008 0.0
H481 H 0.29731 0.20338 0.07173 0.0
C482 C 0.30885 0.73787 0.97208 0.0
C483 C 0.33759 0.73173 0.01262 0.0
C484 C 0.27229 0.77058 0.97103 0.0
C485 C 0.26398 0.79751 1.01165 0.0
C486 C 0.29327 0.79205 0.05243 0.0
C487 C 0.32987 0.75932 0.05236 0.0
C488 C 0.24194 0.77573 0.92678 0.0
C489 C 0.28548 0.82034 0.09637 0.0
C490 C 0.19478 0.9072 0.99808 0.0
C491 C 0.1484 0.89453 0.01298 0.0
C492 C 0.23266 0.87588 0.99709 0.0
C493 C 0.22405 0.8309 1.01176 0.0
C494 C 0.17731 0.81778 0.02663 0.0
C495 C 0.13993 0.84974 0.02684 0.0
C496 C 0.28187 0.89093 0.98034 0.0
C497 C 0.1669 0.77007 0.04266 0.0
H498 H 0.31405 0.71624 0.94149 0.0
H499 H 0.35237 0.75521 0.08355 0.0
H500 H 0.20372 0.76763 0.93479 0.0
H501 H 0.24305 0.81125 0.91423 0.0
H502 H 0.25428 0.75335 0.8976 0.0
H503 H 0.3118 0.81229 0.12493 0.0
H504 H 0.28862 0.85677 0.08759 0.0
H505 H 0.24848 0.81473 0.11015 0.0
H506 H 0.20153 0.94163 0.98675 0.0
H507 H 0.10425 0.83976 0.03858 0.0
H508 H 0.29332 0.87013 0.94963 0.0
H509 H 0.30893 0.88581 1.0089 0.0
H510 H 0.2824 0.92707 0.96968 0.0
H511 H 0.17549 0.74588 0.01383 0.0
H512 H 0.12857 0.76531 0.05304 0.0
H513 H 0.19022 0.76139 0.07337 0.0
C514 C 0.66901 0.33293 0.97429 0.0
C515 C 0.64505 0.34247 0.01688 0.0
C516 C 0.70579 0.30042 0.97246 0.0
C517 C 0.71898 0.27701 0.01426 0.0
C518 C 0.69439 0.28589 0.05718 0.0
C519 C 0.65765 0.31846 0.05794 0.0
C520 C 0.73113 0.29171 0.92602 0.0
C521 C 0.70732 0.26139 0.10242 0.0
C522 C 0.78625 0.16591 1.00382 0.0
C523 C 0.83407 0.17917 0.01312 0.0
C524 C 0.74855 0.19746 1.00368 0.0
C525 C 0.75877 0.2434 0.01324 0.0
C526 C 0.80689 0.25717 0.02234 0.0
C527 C 0.84401 0.2249 0.02205 0.0
C528 C 0.69771 0.18155 0.99352 0.0
C529 C 0.81908 0.30594 0.0328 0.0
H530 H 0.65993 0.35182 0.94258 0.0
H531 H 0.63885 0.3253 0.09081 0.0
H532 H 0.76998 0.30029 0.92945 0.0
H533 H 0.72885 0.25531 0.91674 0.0
H534 H 0.71552 0.31175 0.89643 0.0
H535 H 0.68433 0.27187 0.13268 0.0
H536 H 0.70346 0.22438 0.09732 0.0
H537 H 0.74562 0.26804 0.11172 0.0
H538 H 0.77809 0.13076 0.99644 0.0
H539 H 0.88074 0.23552 0.02939 0.0
H540 H 0.68264 0.20018 0.96275 0.0
H541 H 0.67421 0.18884 0.02436 0.0
H542 H 0.69599 0.14475 0.98582 0.0
H543 H 0.80717 0.32773 1.003 0.0
H544 H 0.85837 0.31121 0.03861 0.0
H545 H 0.79946 0.31732 0.06489 0.0
C546 C 0.64939 0.76295 0.05083 0.0
C547 C 0.64689 0.72981 0.0153 0.0
C548 C 0.68612 0.79564 0.05074 0.0
C549 C 0.72093 0.79523 0.0141 0.0
C550 C 0.7183 0.76225 0.97787 0.0
C551 C 0.68146 0.72982 0.97904 0.0
C552 C 0.6879 0.83045 0.08994 0.0
C553 C 0.75471 0.76092 0.93813 0.0
C554 C 0.79149 0.90245 0.98991 0.0
C555 C 0.83574 0.89296 1.012 0.0
C556 C 0.75381 0.87086 0.99017 0.0
C557 C 0.7604 0.82911 0.01373 0.0
C558 C 0.80495 0.81939 0.03628 0.0
C559 C 0.84232 0.85136 0.03479 0.0
C560 C 0.70714 0.88204 0.96496 0.0
C561 C 0.81302 0.77538 0.06218 0.0
H562 H 0.62251 0.7634 0.07866 0.0
H563 H 0.68034 0.70383 0.95196 0.0
H564 H 0.72289 0.82824 0.10904 0.0
H565 H 0.68546 0.86495 0.07473 0.0
H566 H 0.65822 0.82602 0.11593 0.0
H567 H 0.74678 0.73379 0.91198 0.0
H568 H 0.75529 0.79383 0.91931 0.0
H569 H 0.79141 0.7553 0.95282 0.0
H570 H 0.78645 0.93447 0.97188 0.0
H571 H 0.87634 0.84415 0.05231 0.0
H572 H 0.67652 0.88016 0.99012 0.0
H573 H 0.70018 0.85689 0.93655 0.0
H574 H 0.70771 0.91628 0.94881 0.0
H575 H 0.78555 0.77128 0.0904 0.0
H576 H 0.84947 0.77343 0.0786 0.0
H577 H 0.80869 0.74657 0.03732 0.0
loop_
_geom_bond_atom_site_label_1
_geom_bond_atom_site_label_2
_geom_bond_distance
_geom_bond_site_symmetry_2
_ccdc_geom_bond_type
H0 C19 0.949 . S
H1 C20 0.950 . S
H2 C22 0.950 . S
H3 C23 0.950 . S
H4 C25 0.950 . S
H5 C28 0.950 . S
H6 C29 0.950 . S
H7 C31 0.951 . S
H8 C32 0.949 . S
H9 C34 0.949 . S
H10 C35 0.950 . S
H11 C37 0.950 . S
H12 C38 0.950 . S
H13 C40 0.950 . S
H14 C43 0.950 . S
H15 C44 0.950 . S
H16 C46 0.951 . S
H17 C47 0.949 . S
C18 C19 1.376 . S
C18 C23 1.386 1_455 S
C18 C24 1.483 . S
C19 H0 0.949 . S
C19 C18 1.376 . S
C19 C20 1.397 . S
C20 H1 0.950 . S
C20 C19 1.397 . S
C20 C21 1.391 . S
C21 C20 1.391 . S
C21 C22 1.405 1_455 S
C22 H2 0.950 . S
C22 C21 1.405 1_655 S
C22 C23 1.367 . S
C23 H3 0.950 . S
C23 C18 1.386 1_655 S
C23 C22 1.367 . S
C24 C18 1.483 . S
C24 C25 1.382 . S
C24 C26 1.403 1_455 S
C25 H4 0.950 . S
C25 C24 1.382 . S
C25 C41 1.411 . S
C26 C24 1.403 1_655 S
C26 C27 1.489 . S
C26 C40 1.411 . S
C27 C26 1.489 . S
C27 C28 1.383 1_655 S
C27 C32 1.382 . S
C28 H5 0.950 . S
C28 C27 1.383 1_455 S
C28 C29 1.395 . S
C29 H6 0.950 . S
C29 C28 1.395 . S
C29 C30 1.288 1_455 S
C30 C29 1.288 1_655 S
C30 C31 1.392 . S
C31 H7 0.951 . S
C31 C30 1.392 . S
C31 C32 1.392 . S
C32 H8 0.949 . S
C32 C27 1.382 . S
C32 C31 1.392 . S
C33 C34 1.376 . S
C33 C38 1.386 1_655 S
C33 C39 1.483 . S
C34 H9 0.949 . S
C34 C33 1.376 . S
C34 C35 1.397 . S
C35 H10 0.950 . S
C35 C34 1.397 . S
C35 C36 1.391 . S
C36 C35 1.391 . S
C36 C37 1.405 1_655 S
C37 H11 0.950 . S
C37 C36 1.405 1_455 S
C37 C38 1.367 . S
C38 H12 0.950 . S
C38 C33 1.386 1_455 S
C38 C37 1.367 . S
C39 C33 1.483 . S
C39 C40 1.382 . S
C39 C41 1.403 1_655 S
C40 H13 0.950 . S
C40 C26 1.411 . S
C40 C39 1.382 . S
C41 C25 1.411 . S
C41 C39 1.403 1_455 S
C41 C42 1.489 . S
C42 C41 1.489 . S
C42 C43 1.383 1_455 S
C42 C47 1.382 . S
C43 H14 0.950 . S
C43 C42 1.383 1_655 S
C43 C44 1.395 . S
C44 H15 0.950 . S
C44 C43 1.395 . S
C44 C45 1.288 1_655 S
C45 C44 1.288 1_455 S
C45 C46 1.392 . S
C46 H16 0.951 . S
C46 C45 1.392 . S
C46 C47 1.392 . S
C47 H17 0.949 . S
C47 C42 1.382 . S
C47 C46 1.392 . S
H48 C67 0.949 . S
H49 C68 0.950 . S
H50 C70 0.950 . S
H51 C71 0.950 . S
H52 C73 0.950 . S
H53 C76 0.950 . S
H54 C77 0.950 . S
H55 C79 0.951 . S
H56 C80 0.949 . S
H57 C82 0.949 . S
H58 C83 0.950 . S
H59 C85 0.950 . S
H60 C86 0.950 . S
H61 C88 0.950 . S
H62 C91 0.950 . S
H63 C92 0.950 . S
H64 C94 0.951 . S
H65 C95 0.949 . S
C66 C67 1.376 . S
C66 C71 1.386 1_545 S
C66 C72 1.483 . S
C67 H48 0.949 . S
C67 C66 1.376 . S
C67 C68 1.397 . S
C68 H49 0.950 . S
C68 C67 1.397 . S
C68 C69 1.391 . S
C69 C68 1.391 . S
C69 C70 1.405 1_545 S
C70 H50 0.950 . S
C70 C69 1.405 1_565 S
C70 C71 1.367 . S
C71 H51 0.950 . S
C71 C66 1.386 1_565 S
C71 C70 1.367 . S
C72 C66 1.483 . S
C72 C73 1.382 . S
C72 C74 1.403 1_545 S
C73 H52 0.950 . S
C73 C72 1.382 . S
C73 C89 1.411 . S
C74 C72 1.403 1_565 S
C74 C75 1.489 . S
C74 C88 1.411 . S
C75 C74 1.489 . S
C75 C76 1.383 1_565 S
C75 C80 1.382 . S
C76 H53 0.950 . S
C76 C75 1.383 1_545 S
C76 C77 1.395 . S
C77 H54 0.950 . S
C77 C76 1.395 . S
C77 C78 1.288 1_545 S
C78 C77 1.288 1_565 S
C78 C79 1.392 . S
C79 H55 0.951 . S
C79 C78 1.392 . S
C79 C80 1.392 . S
C80 H56 0.949 . S
C80 C75 1.382 . S
C80 C79 1.392 . S
C81 C82 1.376 . S
C81 C86 1.386 1_565 S
C81 C87 1.483 . S
C82 H57 0.949 . S
C82 C81 1.376 . S
C82 C83 1.397 . S
C83 H58 0.950 . S
C83 C82 1.397 . S
C83 C84 1.391 . S
C84 C83 1.391 . S
C84 C85 1.405 1_565 S
C85 H59 0.950 . S
C85 C84 1.405 1_545 S
C85 C86 1.367 . S
C86 H60 0.950 . S
C86 C81 1.386 1_545 S
C86 C85 1.367 . S
C87 C81 1.483 . S
C87 C88 1.382 . S
C87 C89 1.403 1_565 S
C88 H61 0.950 . S
C88 C74 1.411 . S
C88 C87 1.382 . S
C89 C73 1.411 . S
C89 C87 1.403 1_545 S
C89 C90 1.489 . S
C90 C89 1.489 . S
C90 C91 1.383 1_545 S
C90 C95 1.382 . S
C91 H62 0.950 . S
C91 C90 1.383 1_565 S
C91 C92 1.395 . S
C92 H63 0.950 . S
C92 C91 1.395 . S
C92 C93 1.288 1_565 S
C93 C92 1.288 1_545 S
C93 C94 1.392 . S
C94 H64 0.951 . S
C94 C93 1.392 . S
C94 C95 1.392 . S
C95 H65 0.949 . S
C95 C90 1.382 . S
C95 C94 1.392 . S
H96 C115 0.949 . S
H97 C116 0.950 . S
H98 C118 0.950 . S
H99 C119 0.950 . S
H100 C121 0.950 . S
H101 C124 0.950 . S
H102 C125 0.950 . S
H103 C127 0.951 . S
H104 C128 0.949 . S
H105 C130 0.949 . S
H106 C131 0.950 . S
H107 C133 0.950 . S
H108 C134 0.950 . S
H109 C136 0.950 . S
H110 C139 0.950 . S
H111 C140 0.950 . S
H112 C142 0.951 . S
H113 C143 0.949 . S
C114 C115 1.376 . S
C114 C119 1.386 1_556 S
C114 C120 1.483 . S
C115 H96 0.949 . S
C115 C114 1.376 . S
C115 C116 1.397 . S
C116 H97 0.950 . S
C116 C115 1.397 . S
C116 C117 1.391 . S
C117 C116 1.391 . S
C117 C118 1.405 1_556 S
C118 H98 0.950 . S
C118 C117 1.405 1_554 S
C118 C119 1.367 . S
C119 H99 0.950 . S
C119 C114 1.386 1_554 S
C119 C118 1.367 . S
C120 C114 1.483 . S
C120 C121 1.382 . S
C120 C122 1.403 1_556 S
C121 H100 0.950 . S
C121 C120 1.382 . S
C121 C137 1.411 . S
C122 C120 1.403 1_554 S
C122 C123 1.489 . S
C122 C136 1.411 . S
C123 C122 1.489 . S
C123 C124 1.383 1_554 S
C123 C128 1.382 . S
C124 H101 0.950 . S
C124 C123 1.383 1_556 S
C124 C125 1.395 . S
C125 H102 0.950 . S
C125 C124 1.395 . S
C125 C126 1.288 1_556 S
C126 C125 1.288 1_554 S
C126 C127 1.392 . S
C127 H103 0.951 . S
C127 C126 1.392 . S
C127 C128 1.392 . S
C128 H104 0.949 . S
C128 C123 1.382 . S
C128 C127 1.392 . S
C129 C130 1.376 . S
C129 C134 1.386 1_554 S
C129 C135 1.483 . S
C130 H105 0.949 . S
C130 C129 1.376 . S
C130 C131 1.397 . S
C131 H106 0.950 . S
C131 C130 1.397 . S
C131 C132 1.391 . S
C132 C131 1.391 . S
C132 C133 1.405 1_554 S
C133 H107 0.950 . S
C133 C132 1.405 1_556 S
C133 C134 1.367 . S
C134 H108 0.950 . S
C134 C129 1.386 1_556 S
C134 C133 1.367 . S
C135 C129 1.483 . S
C135 C136 1.382 . S
C135 C137 1.403 1_554 S
C136 H109 0.950 . S
C136 C122 1.411 . S
C136 C135 1.382 . S
C137 C121 1.411 . S
C137 C135 1.403 1_556 S
C137 C138 1.489 . S
C138 C137 1.489 . S
C138 C139 1.383 1_556 S
C138 C143 1.382 . S
C139 H110 0.950 . S
C139 C138 1.383 1_554 S
C139 C140 1.395 . S
C140 H111 0.950 . S
C140 C139 1.395 . S
C140 C141 1.288 1_554 S
C141 C140 1.288 1_556 S
C141 C142 1.392 . S
C142 H112 0.951 . S
C142 C141 1.392 . S
C142 C143 1.392 . S
C143 H113 0.949 . S
C143 C138 1.382 . S
C143 C142 1.392 . S
C144 O170 1.283 . S
C144 O188 1.283 . S
C145 O171 1.283 . S
C145 O186 1.283 . S
C146 O172 1.283 . S
C146 O189 1.283 . S
C147 O173 1.283 . S
C147 O187 1.283 . S
C148 O174 1.283 . S
C148 O183 1.283 . S
C149 O175 1.283 . S
C149 O185 1.283 . S
C150 O176 1.283 . S
C150 O182 1.283 . S
C151 O177 1.283 . S
C151 O184 1.283 . S
C152 O178 1.283 . S
C152 O193 1.283 . S
C153 O179 1.283 . S
C153 O191 1.283 . S
C154 O180 1.283 . S
C154 O192 1.283 . S
C155 O181 1.283 . S
C155 O190 1.283 . S
Eu156 O157 2.371 . S
Eu156 O158 2.370 1_454 S
Eu156 O161 2.370 1_554 S
Eu156 O162 2.370 1_455 S
Eu156 O170 2.363 1_554 S
Eu156 O171 2.363 . S
Eu156 O184 2.362 1_455 S
Eu156 O185 2.363 . S
O157 Eu156 2.371 . S
O157 Eu159 2.371 . S
O157 Eu164 2.371 . S
O158 Eu156 2.370 1_656 S
O158 Eu160 2.370 1_556 S
O158 Eu163 2.370 1_655 S
Eu159 O157 2.371 . S
Eu159 O161 2.370 1_554 S
Eu159 O165 2.369 1_544 S
Eu159 O166 2.370 1_545 S
Eu159 O174 2.362 1_545 S
Eu159 O175 2.363 . S
Eu159 O190 2.362 1_554 S
Eu159 O191 2.363 . S
Eu160 O158 2.370 1_554 S
Eu160 O162 2.369 . S
Eu160 O167 2.370 1_545 S
Eu160 O168 2.371 1_544 S
Eu160 O176 2.363 1_545 S
Eu160 O177 2.362 . S
Eu160 O192 2.363 1_554 S
Eu160 O193 2.362 . S
O161 Eu156 2.370 1_556 S
O161 Eu159 2.370 1_556 S
O161 Eu163 2.370 . S
O162 Eu156 2.370 1_655 S
O162 Eu160 2.369 . S
O162 Eu164 2.370 1_655 S
Eu163 O158 2.370 1_455 S
Eu163 O161 2.370 . S
Eu163 O165 2.370 1_545 S
Eu163 O168 2.371 1_445 S
Eu163 O180 2.363 1_455 S
Eu163 O181 2.362 . S
Eu163 O188 2.362 . S
Eu163 O189 2.363 1_545 S
Eu164 O157 2.371 . S
Eu164 O162 2.370 1_455 S
Eu164 O166 2.370 1_545 S
Eu164 O167 2.370 1_445 S
Eu164 O178 2.362 1_455 S
Eu164 O179 2.363 . S
Eu164 O186 2.363 . S
Eu164 O187 2.362 1_545 S
O165 Eu159 2.369 1_566 S
O165 Eu163 2.370 1_565 S
O165 Eu169 2.370 1_556 S
O166 Eu159 2.370 1_565 S
O166 Eu164 2.370 1_565 S
O166 Eu169 2.370 . S
O167 Eu160 2.370 1_565 S
O167 Eu164 2.370 1_665 S
O167 Eu169 2.370 1_655 S
O168 Eu160 2.371 1_566 S
O168 Eu163 2.371 1_665 S
O168 Eu169 2.371 1_656 S
Eu169 O165 2.370 1_554 S
Eu169 O166 2.370 . S
Eu169 O167 2.370 1_455 S
Eu169 O168 2.371 1_454 S
Eu169 O172 2.363 1_554 S
Eu169 O173 2.363 . S
Eu169 O182 2.363 1_455 S
Eu169 O183 2.362 . S
O170 C144 1.283 . S
O170 Eu156 2.363 1_556 S
O171 C145 1.283 . S
O171 Eu156 2.363 . S
O172 C146 1.283 . S
O172 Eu169 2.363 1_556 S
O173 C147 1.283 . S
O173 Eu169 2.363 . S
O174 C148 1.283 . S
O174 Eu159 2.362 1_565 S
O175 C149 1.283 . S
O175 Eu159 2.363 . S
O176 C150 1.283 . S
O176 Eu160 2.363 1_565 S
O177 C151 1.283 . S
O177 Eu160 2.362 . S
O178 C152 1.283 . S
O178 Eu164 2.362 1_655 S
O179 C153 1.283 . S
O179 Eu164 2.363 . S
O180 C154 1.283 . S
O180 Eu163 2.363 1_655 S
O181 C155 1.283 . S
O181 Eu163 2.362 . S
O182 C150 1.283 . S
O182 Eu169 2.363 1_655 S
O183 C148 1.283 . S
O183 Eu169 2.362 . S
O184 C151 1.283 . S
O184 Eu156 2.362 1_655 S
O185 C149 1.283 . S
O185 Eu156 2.363 . S
O186 C145 1.283 . S
O186 Eu164 2.363 . S
O187 C147 1.283 . S
O187 Eu164 2.362 1_565 S
O188 C144 1.283 . S
O188 Eu163 2.362 . S
O189 C146 1.283 . S
O189 Eu163 2.363 1_565 S
O190 C155 1.283 . S
O190 Eu159 2.362 1_556 S
O191 C153 1.283 . S
O191 Eu159 2.363 . S
O192 C154 1.283 . S
O192 Eu160 2.363 1_556 S
O193 C152 1.283 . S
O193 Eu160 2.362 . S
C194 C195 1.391 . S
C194 C196 1.394 . S
C194 H210 0.931 . S
C195 C194 1.391 . S
C195 C199 1.376 . S
C196 C194 1.394 . S
C196 C197 1.369 . S
C196 C200 1.531 . S
C197 C196 1.369 . S
C197 C198 1.410 . S
C197 C205 1.503 . S
C198 C197 1.410 . S
C198 C199 1.392 . S
C198 C201 1.511 . S
C199 C195 1.376 . S
C199 C198 1.392 . S
C199 H211 0.929 . S
C200 C196 1.531 . S
C200 H212 0.960 . S
C200 H213 0.962 1_455 S
C200 H214 0.960 . S
C201 C198 1.511 . S
C201 H215 0.961 . S
C201 H216 0.961 . S
C201 H217 0.961 . S
C202 C203 1.370 1_655 S
C202 C204 1.363 . S
C202 H218 0.931 . S
C203 C202 1.370 1_455 S
C203 C207 1.408 . S
C204 C202 1.363 . S
C204 C205 1.370 1_655 S
C204 C208 1.524 . S
C205 C197 1.503 . S
C205 C204 1.370 1_455 S
C205 C206 1.403 . S
C206 C205 1.403 . S
C206 C207 1.404 . S
C206 C209 1.539 . S
C207 C203 1.408 . S
C207 C206 1.404 . S
C207 H219 0.930 . S
C208 C204 1.524 . S
C208 H220 0.956 . S
C208 H221 0.961 . S
C208 H222 0.961 . S
C209 C206 1.539 . S
C209 H223 0.958 . S
C209 H224 0.961 . S
C209 H225 0.960 . S
H210 C194 0.931 . S
H211 C199 0.929 . S
H212 C200 0.960 . S
H213 C200 0.962 1_655 S
H214 C200 0.960 . S
H215 C201 0.961 . S
H216 C201 0.961 . S
H217 C201 0.961 . S
H218 C202 0.931 . S
H219 C207 0.930 . S
H220 C208 0.956 . S
H221 C208 0.961 . S
H222 C208 0.961 . S
H223 C209 0.958 . S
H224 C209 0.961 . S
H225 C209 0.960 . S
C226 C227 1.391 . S
C226 C228 1.394 . S
C226 H242 0.931 . S
C227 C226 1.391 . S
C227 C231 1.376 . S
C228 C226 1.394 . S
C228 C229 1.369 . S
C228 C232 1.531 . S
C229 C228 1.369 . S
C229 C230 1.410 . S
C229 C237 1.503 . S
C230 C229 1.410 . S
C230 C231 1.392 . S
C230 C233 1.511 . S
C231 C227 1.376 . S
C231 C230 1.392 . S
C231 H243 0.927 1_565 S
C232 C228 1.531 . S
C232 H244 0.960 . S
C232 H245 0.962 1_565 S
C232 H246 0.960 . S
C233 C230 1.511 . S
C233 H247 0.961 1_565 S
C233 H248 0.961 1_565 S
C233 H249 0.961 . S
C234 C235 1.370 1_545 S
C234 C236 1.363 . S
C234 H250 0.931 . S
C235 C234 1.370 1_565 S
C235 C239 1.408 . S
C236 C234 1.363 . S
C236 C237 1.370 1_545 S
C236 C240 1.524 . S
C237 C229 1.503 . S
C237 C236 1.370 1_565 S
C237 C238 1.403 . S
C238 C237 1.403 . S
C238 C239 1.404 . S
C238 C241 1.539 . S
C239 C235 1.408 . S
C239 C238 1.404 . S
C239 H251 0.930 . S
C240 C236 1.524 . S
C240 H252 0.956 . S
C240 H253 0.961 . S
C240 H254 0.961 . S
C241 C238 1.539 . S
C241 H255 0.958 . S
C241 H256 0.961 . S
C241 H257 0.960 . S
H242 C226 0.931 . S
H243 C231 0.927 1_545 S
H244 C232 0.960 . S
H245 C232 0.962 1_545 S
H246 C232 0.960 . S
H247 C233 0.961 1_545 S
H248 C233 0.961 1_545 S
H249 C233 0.961 . S
H250 C234 0.931 . S
H251 C239 0.930 . S
H252 C240 0.956 . S
H253 C240 0.961 . S
H254 C240 0.961 . S
H255 C241 0.958 . S
H256 C241 0.961 . S
H257 C241 0.960 . S
C258 C259 1.391 1_655 S
C258 C260 1.394 . S
C258 H274 0.931 . S
C259 C258 1.391 1_455 S
C259 C263 1.376 . S
C260 C258 1.394 . S
C260 C261 1.369 1_655 S
C260 C264 1.531 . S
C261 C260 1.369 1_455 S
C261 C262 1.410 . S
C261 C269 1.503 . S
C262 C261 1.410 . S
C262 C263 1.392 . S
C262 C265 1.511 . S
C263 C259 1.376 . S
C263 C262 1.392 . S
C263 H275 0.929 . S
C264 C260 1.531 . S
C264 H276 0.960 . S
C264 H277 0.962 . S
C264 H278 0.960 . S
C265 C262 1.511 . S
C265 H279 0.961 . S
C265 H280 0.961 . S
C265 H281 0.961 . S
C266 C267 1.364 1_655 S
C266 C268 1.363 . S
C266 H282 0.931 . S
C267 C266 1.364 1_455 S
C267 C271 1.415 . S
C268 C266 1.363 . S
C268 C269 1.370 1_655 S
C268 C272 1.524 . S
C269 C261 1.503 . S
C269 C268 1.370 1_455 S
C269 C270 1.403 . S
C270 C269 1.403 . S
C270 C271 1.404 . S
C270 C273 1.539 . S
C271 C267 1.415 . S
C271 C270 1.404 . S
C271 H283 0.930 . S
C272 C268 1.524 . S
C272 H284 0.956 . S
C272 H285 0.955 1_655 S
C272 H286 0.961 . S
C273 C270 1.539 . S
C273 H287 0.958 . S
C273 H288 0.961 . S
C273 H289 0.960 . S
H274 C258 0.931 . S
H275 C263 0.929 . S
H276 C264 0.960 . S
H277 C264 0.962 . S
H278 C264 0.960 . S
H279 C265 0.961 . S
H280 C265 0.961 . S
H281 C265 0.961 . S
H282 C266 0.931 . S
H283 C271 0.930 . S
H284 C272 0.956 . S
H285 C272 0.955 1_455 S
H286 C272 0.961 . S
H287 C273 0.958 . S
H288 C273 0.961 . S
H289 C273 0.960 . S
C290 C291 1.391 . S
C290 C292 1.394 . S
C290 H306 0.931 . S
C291 C290 1.391 . S
C291 C295 1.376 1_545 S
C292 C290 1.394 . S
C292 C293 1.369 . S
C292 C296 1.531 . S
C293 C292 1.369 . S
C293 C294 1.410 1_545 S
C293 C301 1.503 . S
C294 C293 1.410 1_565 S
C294 C295 1.392 . S
C294 C297 1.511 . S
C295 C291 1.376 1_565 S
C295 C294 1.392 . S
C295 H307 0.929 . S
C296 C292 1.531 . S
C296 H308 0.960 . S
C296 H309 0.962 . S
C296 H310 0.960 . S
C297 C294 1.511 . S
C297 H311 0.961 . S
C297 H312 0.961 . S
C297 H313 0.961 1_565 S
C298 C299 1.370 1_565 S
C298 C300 1.363 . S
C298 H314 0.931 . S
C299 C298 1.370 1_545 S
C299 C303 1.408 . S
C300 C298 1.363 . S
C300 C301 1.370 1_565 S
C300 C304 1.524 . S
C301 C293 1.503 . S
C301 C300 1.370 1_545 S
C301 C302 1.403 . S
C302 C301 1.403 . S
C302 C303 1.404 . S
C302 C305 1.539 . S
C303 C299 1.408 . S
C303 C302 1.404 . S
C303 H315 0.930 . S
C304 C300 1.524 . S
C304 H316 0.956 . S
C304 H317 0.961 . S
C304 H318 0.961 . S
C305 C302 1.539 . S
C305 H319 0.958 . S
C305 H320 0.961 . S
C305 H321 0.960 . S
H306 C290 0.931 . S
H307 C295 0.929 . S
H308 C296 0.960 . S
H309 C296 0.962 . S
H310 C296 0.960 . S
H311 C297 0.961 . S
H312 C297 0.961 . S
H313 C297 0.961 1_545 S
H314 C298 0.931 . S
H315 C303 0.930 . S
H316 C304 0.956 . S
H317 C304 0.961 . S
H318 C304 0.961 . S
H319 C305 0.958 . S
H320 C305 0.961 . S
H321 C305 0.960 . S
C322 C323 1.391 1_655 S
C322 C324 1.394 . S
C322 H338 0.931 . S
C323 C322 1.391 1_455 S
C323 C327 1.376 . S
C324 C322 1.394 . S
C324 C325 1.369 1_655 S
C324 C328 1.531 . S
C325 C324 1.369 1_455 S
C325 C326 1.410 . S
C325 C333 1.503 . S
C326 C325 1.410 . S
C326 C327 1.392 . S
C326 C329 1.511 . S
C327 C323 1.376 . S
C327 C326 1.392 . S
C327 H339 0.929 . S
C328 C324 1.531 . S
C328 H340 0.960 . S
C328 H341 0.962 . S
C328 H342 0.960 . S
C329 C326 1.511 . S
C329 H343 0.961 . S
C329 H344 0.961 . S
C329 H345 0.961 . S
C330 C331 1.370 1_655 S
C330 C332 1.363 . S
C330 H346 0.931 . S
C331 C330 1.370 1_455 S
C331 C335 1.408 . S
C332 C330 1.363 . S
C332 C333 1.370 1_655 S
C332 C336 1.524 . S
C333 C325 1.503 . S
C333 C332 1.370 1_455 S
C333 C334 1.403 . S
C334 C333 1.403 . S
C334 C335 1.404 . S
C334 C337 1.539 . S
C335 C331 1.408 . S
C335 C334 1.404 . S
C335 H347 0.930 . S
C336 C332 1.524 . S
C336 H348 0.956 . S
C336 H349 0.961 . S
C336 H350 0.961 . S
C337 C334 1.539 . S
C337 H351 0.958 . S
C337 H352 0.961 . S
C337 H353 0.960 . S
H338 C322 0.931 . S
H339 C327 0.929 . S
H340 C328 0.960 . S
H341 C328 0.962 . S
H342 C328 0.960 . S
H343 C329 0.961 . S
H344 C329 0.961 . S
H345 C329 0.961 . S
H346 C330 0.931 . S
H347 C335 0.930 . S
H348 C336 0.956 . S
H349 C336 0.961 . S
H350 C336 0.961 . S
H351 C337 0.958 . S
H352 C337 0.961 . S
H353 C337 0.960 . S
C354 C355 1.391 . S
C354 C356 1.394 . S
C354 H370 0.931 . S
C355 C354 1.391 . S
C355 C359 1.376 . S
C356 C354 1.394 . S
C356 C357 1.369 . S
C356 C360 1.531 . S
C357 C356 1.369 . S
C357 C358 1.410 . S
C357 C365 1.503 . S
C358 C357 1.410 . S
C358 C359 1.392 . S
C358 C361 1.509 1_545 S
C359 C355 1.376 . S
C359 C358 1.392 . S
C359 H371 0.929 1_545 S
C360 C356 1.531 . S
C360 H372 0.960 . S
C360 H373 0.962 1_545 S
C360 H374 0.960 . S
C361 C358 1.509 1_565 S
C361 H375 0.975 . S
C361 H376 0.972 . S
C361 H377 0.939 1_565 S
C362 C363 1.370 1_565 S
C362 C364 1.363 . S
C362 H378 0.931 . S
C363 C362 1.370 1_545 S
C363 C367 1.408 . S
C364 C362 1.363 . S
C364 C365 1.370 1_565 S
C364 C368 1.524 . S
C365 C357 1.503 . S
C365 C364 1.370 1_545 S
C365 C366 1.403 . S
C366 C365 1.403 . S
C366 C367 1.404 . S
C366 C369 1.539 . S
C367 C363 1.408 . S
C367 C366 1.404 . S
C367 H379 0.930 . S
C368 C364 1.524 . S
C368 H380 0.956 . S
C368 H381 0.961 . S
C368 H382 0.961 . S
C369 C366 1.539 . S
C369 H383 0.958 . S
C369 H384 0.961 . S
C369 H385 0.960 . S
H370 C354 0.931 . S
H371 C359 0.929 1_565 S
H372 C360 0.960 . S
H373 C360 0.962 1_565 S
H374 C360 0.960 . S
H375 C361 0.975 . S
H376 C361 0.972 . S
H377 C361 0.939 1_545 S
H378 C362 0.931 . S
H379 C367 0.930 . S
H380 C368 0.956 . S
H381 C368 0.961 . S
H382 C368 0.961 . S
H383 C369 0.958 . S
H384 C369 0.961 . S
H385 C369 0.960 . S
C386 C387 1.391 1_455 S
C386 C388 1.394 . S
C386 H402 0.931 . S
C387 C386 1.391 1_655 S
C387 C391 1.376 . S
C388 C386 1.394 . S
C388 C389 1.369 1_455 S
C388 C392 1.531 . S
C389 C388 1.369 1_655 S
C389 C390 1.410 . S
C389 C397 1.503 . S
C390 C389 1.410 . S
C390 C391 1.392 . S
C390 C393 1.511 . S
C391 C387 1.376 . S
C391 C390 1.392 . S
C391 H403 0.929 . S
C392 C388 1.531 . S
C392 H404 0.960 . S
C392 H405 0.962 . S
C392 H406 0.960 . S
C393 C390 1.511 . S
C393 H407 0.961 . S
C393 H408 0.961 . S
C393 H409 0.961 . S
C394 C395 1.363 1_455 S
C394 C396 1.363 . S
C394 H410 0.931 . S
C395 C394 1.363 1_655 S
C395 C399 1.416 . S
C396 C394 1.363 . S
C396 C397 1.370 1_455 S
C396 C400 1.524 . S
C397 C389 1.503 . S
C397 C396 1.370 1_655 S
C397 C398 1.403 . S
C398 C397 1.403 . S
C398 C399 1.404 . S
C398 C401 1.539 . S
C399 C395 1.416 . S
C399 C398 1.404 . S
C399 H411 0.930 . S
C400 C396 1.524 . S
C400 H412 0.956 . S
C400 H413 0.961 . S
C400 H414 0.961 . S
C401 C398 1.539 . S
C401 H415 0.958 . S
C401 H416 0.961 . S
C401 H417 0.960 . S
H402 C386 0.931 . S
H403 C391 0.929 . S
H404 C392 0.960 . S
H405 C392 0.962 . S
H406 C392 0.960 . S
H407 C393 0.961 . S
H408 C393 0.961 . S
H409 C393 0.961 . S
H410 C394 0.931 . S
H411 C399 0.930 . S
H412 C400 0.956 . S
H413 C400 0.961 . S
H414 C400 0.961 . S
H415 C401 0.958 . S
H416 C401 0.961 . S
H417 C401 0.960 . S
C418 C419 1.391 . S
C418 C420 1.394 . S
C418 H434 0.931 . S
C419 C418 1.391 . S
C419 C423 1.374 1_545 S
C420 C418 1.394 . S
C420 C421 1.369 . S
C420 C424 1.531 . S
C421 C420 1.369 . S
C421 C422 1.410 . S
C421 C429 1.503 . S
C422 C421 1.410 . S
C422 C423 1.391 1_545 S
C422 C425 1.511 1_545 S
C423 C419 1.374 1_565 S
C423 C422 1.391 1_565 S
C423 H435 0.933 . S
C424 C420 1.531 . S
C424 H436 0.960 . S
C424 H437 0.942 1_545 S
C424 H438 0.960 . S
C425 C422 1.511 1_565 S
C425 H439 0.961 . S
C425 H440 0.961 . S
C425 H441 0.961 1_565 S
C426 C427 1.370 1_565 S
C426 C428 1.363 . S
C426 H442 0.931 . S
C427 C426 1.370 1_545 S
C427 C431 1.408 . S
C428 C426 1.363 . S
C428 C429 1.370 1_565 S
C428 C432 1.524 . S
C429 C421 1.503 . S
C429 C428 1.370 1_545 S
C429 C430 1.403 . S
C430 C429 1.403 . S
C430 C431 1.404 . S
C430 C433 1.539 . S
C431 C427 1.408 . S
C431 C430 1.404 . S
C431 H443 0.930 . S
C432 C428 1.524 . S
C432 H444 0.956 . S
C432 H445 0.961 . S
C432 H446 0.961 . S
C433 C430 1.539 . S
C433 H447 0.958 . S
C433 H448 0.961 . S
C433 H449 0.960 . S
H434 C418 0.931 . S
H435 C423 0.933 . S
H436 C424 0.960 . S
H437 C424 0.942 1_565 S
H438 C424 0.960 . S
H439 C425 0.961 . S
H440 C425 0.961 . S
H441 C425 0.961 1_545 S
H442 C426 0.931 . S
H443 C431 0.930 . S
H444 C432 0.956 . S
H445 C432 0.961 . S
H446 C432 0.961 . S
H447 C433 0.958 . S
H448 C433 0.961 . S
H449 C433 0.960 . S
C450 C451 1.391 1_556 S
C450 C452 1.394 . S
C450 H466 0.931 . S
C451 C450 1.391 1_554 S
C451 C455 1.376 . S
C452 C450 1.394 . S
C452 C453 1.369 1_556 S
C452 C456 1.531 . S
C453 C452 1.369 1_554 S
C453 C454 1.410 . S
C453 C461 1.503 . S
C454 C453 1.410 . S
C454 C455 1.392 . S
C454 C457 1.511 . S
C455 C451 1.376 . S
C455 C454 1.392 . S
C455 H467 0.929 . S
C456 C452 1.531 . S
C456 H468 0.960 1_556 S
C456 H469 0.962 . S
C456 H470 0.960 . S
C457 C454 1.511 . S
C457 H471 0.961 . S
C457 H472 0.961 . S
C457 H473 0.961 . S
C458 C459 1.370 1_556 S
C458 C460 1.363 . S
C458 H474 0.931 . S
C459 C458 1.370 1_554 S
C459 C463 1.408 . S
C460 C458 1.363 . S
C460 C461 1.370 1_556 S
C460 C464 1.524 . S
C461 C453 1.503 . S
C461 C460 1.370 1_554 S
C461 C462 1.403 . S
C462 C461 1.403 . S
C462 C463 1.404 . S
C462 C465 1.539 . S
C463 C459 1.408 . S
C463 C462 1.404 . S
C463 H475 0.930 . S
C464 C460 1.524 . S
C464 H476 0.956 . S
C464 H477 0.961 . S
C464 H478 0.961 . S
C465 C462 1.539 . S
C465 H479 0.958 . S
C465 H480 0.961 . S
C465 H481 0.960 . S
H466 C450 0.931 . S
H467 C455 0.929 . S
H468 C456 0.960 1_554 S
H469 C456 0.962 . S
H470 C456 0.960 . S
H471 C457 0.961 . S
H472 C457 0.961 . S
H473 C457 0.961 . S
H474 C458 0.931 . S
H475 C463 0.930 . S
H476 C464 0.956 . S
H477 C464 0.961 . S
H478 C464 0.961 . S
H479 C465 0.958 . S
H480 C465 0.961 . S
H481 C465 0.960 . S
C482 C483 1.391 . S
C482 C484 1.394 . S
C482 H498 0.931 . S
C483 C482 1.391 . S
C483 C487 1.376 1_556 S
C484 C482 1.394 . S
C484 C485 1.369 . S
C484 C488 1.531 . S
C485 C484 1.369 . S
C485 C486 1.410 1_556 S
C485 C493 1.503 . S
C486 C485 1.410 1_554 S
C486 C487 1.392 . S
C486 C489 1.511 . S
C487 C483 1.376 1_554 S
C487 C486 1.392 . S
C487 H499 0.929 . S
C488 C484 1.531 . S
C488 H500 0.960 . S
C488 H501 0.962 . S
C488 H502 0.960 . S
C489 C486 1.511 . S
C489 H503 0.961 . S
C489 H504 0.961 . S
C489 H505 0.961 . S
C490 C491 1.367 1_554 S
C490 C492 1.363 . S
C490 H506 0.931 . S
C491 C490 1.367 1_556 S
C491 C495 1.412 . S
C492 C490 1.363 . S
C492 C493 1.370 1_554 S
C492 C496 1.524 . S
C493 C485 1.503 . S
C493 C492 1.370 1_556 S
C493 C494 1.403 . S
C494 C493 1.403 . S
C494 C495 1.404 . S
C494 C497 1.539 . S
C495 C491 1.412 . S
C495 C494 1.404 . S
C495 H507 0.930 . S
C496 C492 1.524 . S
C496 H508 0.956 . S
C496 H509 0.961 . S
C496 H510 0.961 . S
C497 C494 1.539 . S
C497 H511 0.958 . S
C497 H512 0.961 . S
C497 H513 0.960 . S
H498 C482 0.931 . S
H499 C487 0.929 . S
H500 C488 0.960 . S
H501 C488 0.962 . S
H502 C488 0.960 . S
H503 C489 0.961 . S
H504 C489 0.961 . S
H505 C489 0.961 . S
H506 C490 0.931 . S
H507 C495 0.930 . S
H508 C496 0.956 . S
H509 C496 0.961 . S
H510 C496 0.961 . S
H511 C497 0.958 . S
H512 C497 0.961 . S
H513 C497 0.960 . S
C514 C515 1.391 1_556 S
C514 C516 1.394 . S
C514 H530 0.931 . S
C515 C514 1.391 1_554 S
C515 C519 1.376 . S
C516 C514 1.394 . S
C516 C517 1.369 1_556 S
C516 C520 1.531 . S
C517 C516 1.369 1_554 S
C517 C518 1.410 . S
C517 C525 1.503 . S
C518 C517 1.410 . S
C518 C519 1.392 . S
C518 C521 1.511 . S
C519 C515 1.376 . S
C519 C518 1.392 . S
C519 H531 0.929 . S
C520 C516 1.531 . S
C520 H532 0.960 1_556 S
C520 H533 0.962 . S
C520 H534 0.960 . S
C521 C518 1.511 . S
C521 H535 0.961 . S
C521 H536 0.961 . S
C521 H537 0.961 . S
C522 C523 1.370 1_556 S
C522 C524 1.363 . S
C522 H538 0.931 . S
C523 C522 1.370 1_554 S
C523 C527 1.408 . S
C524 C522 1.363 . S
C524 C525 1.370 1_556 S
C524 C528 1.524 . S
C525 C517 1.503 . S
C525 C524 1.370 1_554 S
C525 C526 1.403 . S
C526 C525 1.403 . S
C526 C527 1.404 . S
C526 C529 1.539 . S
C527 C523 1.408 . S
C527 C526 1.404 . S
C527 H539 0.930 . S
C528 C524 1.524 . S
C528 H540 0.956 . S
C528 H541 0.961 . S
C528 H542 0.961 . S
C529 C526 1.539 . S
C529 H543 0.958 . S
C529 H544 0.961 . S
C529 H545 0.960 . S
H530 C514 0.931 . S
H531 C519 0.929 . S
H532 C520 0.960 1_554 S
H533 C520 0.962 . S
H534 C520 0.960 . S
H535 C521 0.961 . S
H536 C521 0.961 . S
H537 C521 0.961 . S
H538 C522 0.931 . S
H539 C527 0.930 . S
H540 C528 0.956 . S
H541 C528 0.961 . S
H542 C528 0.961 . S
H543 C529 0.958 . S
H544 C529 0.961 . S
H545 C529 0.960 . S
C546 C547 1.391 . S
C546 C548 1.394 . S
C546 H562 0.931 . S
C547 C546 1.391 . S
C547 C551 1.375 1_554 S
C548 C546 1.394 . S
C548 C549 1.369 . S
C548 C552 1.531 . S
C549 C548 1.369 . S
C549 C550 1.410 . S
C549 C557 1.503 . S
C550 C549 1.410 . S
C550 C551 1.392 1_554 S
C550 C553 1.511 1_554 S
C551 C547 1.375 1_556 S
C551 C550 1.392 1_556 S
C551 H563 0.930 . S
C552 C548 1.531 . S
C552 H564 0.960 . S
C552 H565 0.962 1_554 S
C552 H566 0.960 . S
C553 C550 1.511 1_556 S
C553 H567 0.961 . S
C553 H568 0.961 . S
C553 H569 0.961 1_556 S
C554 C555 1.370 1_556 S
C554 C556 1.363 . S
C554 H570 0.931 . S
C555 C554 1.370 1_554 S
C555 C559 1.408 . S
C556 C554 1.363 . S
C556 C557 1.370 1_556 S
C556 C560 1.524 . S
C557 C549 1.503 . S
C557 C556 1.370 1_554 S
C557 C558 1.403 . S
C558 C557 1.403 . S
C558 C559 1.404 . S
C558 C561 1.539 . S
C559 C555 1.408 . S
C559 C558 1.404 . S
C559 H571 0.930 . S
C560 C556 1.524 . S
C560 H572 0.956 . S
C560 H573 0.961 . S
C560 H574 0.961 . S
C561 C558 1.539 . S
C561 H575 0.958 . S
C561 H576 0.961 . S
C561 H577 0.960 . S
H562 C546 0.931 . S
H563 C551 0.930 . S
H564 C552 0.960 . S
H565 C552 0.962 1_556 S
H566 C552 0.960 . S
H567 C553 0.961 . S
H568 C553 0.961 . S
H569 C553 0.961 1_554 S
H570 C554 0.931 . S
H571 C559 0.930 . S
H572 C560 0.956 . S
H573 C560 0.961 . S
H574 C560 0.961 . S
H575 C561 0.958 . S
H576 C561 0.961 . S
H577 C561 0.960 . S
C203 C145 1.864 . S
C195 C36 1.851 1_455 S
C235 C152 1.261 1_565 S
C227 C78 1.232 . S
C267 C147 1.860 . S
C259 C30 1.849 1_455 S
C299 C153 1.262 . S
C291 C69 1.252 . S
C323 C21 1.842 . S
C331 C146 1.868 . S
C363 C155 1.263 . S
C355 C93 1.228 . S
C387 C45 1.824 1_655 S
C395 C144 1.864 1_655 S
C419 C84 1.262 1_545 S
C427 C154 1.266 . S
C451 C132 1.535 . S
C459 C149 1.540 . S
C483 C126 1.516 1_556 S
C491 C148 1.541 1_556 S
C523 C151 1.542 . S
C515 C141 1.529 1_554 S
C555 C150 1.544 . S
C547 C117 1.541 1_554 S
