# Generated by pormake.
# Topology pts, (4,4)-cn, num edge types: 1
# Building blocks:
#     Node 0, Type 0, BuildingBlock: GIZVER_clean_linker_0, # of connection points: 4
#     Node 1, Type 0, BuildingBlock: GIZVER_clean_linker_0, # of connection points: 4
#     Node 2, Type 1, BuildingBlock: UXUYUI_clean_sbu_0, # of connection points: 4
#     Node 3, Type 1, BuildingBlock: UXUYUI_clean_sbu_0, # of connection points: 4
#     Edge 4, Type (0, 1), BuildingBlock: EZIPEK_clean_linker_0, # of connection points: 2
#     Edge 5, Type (0, 1), BuildingBlock: EZIPEK_clean_linker_0, # of connection points: 2
#     Edge 6, Type (0, 1), BuildingBlock: EZIPEK_clean_linker_0, # of connection points: 2
#     Edge 7, Type (0, 1), BuildingBlock: EZIPEK_clean_linker_0, # of connection points: 2
#     Edge 8, Type (0, 1), BuildingBlock: EZIPEK_clean_linker_0, # of connection points: 2
#     Edge 9, Type (0, 1), BuildingBlock: EZIPEK_clean_linker_0, # of connection points: 2
#     Edge 10, Type (0, 1), BuildingBlock: EZIPEK_clean_linker_0, # of connection points: 2
#     Edge 11, Type (0, 1), BuildingBlock: EZIPEK_clean_linker_0, # of connection points: 2
# Relax obj value: 0.010
# Max RMSD: 0.058
# Mean RMSD: 0.057
data_MOF--net-pts--node1-UXUYUI_clean_sbu_0--node2-GIZVER_clean_linker_0--edge1-EZIPEK_clean_linker_0
_symmetry_space_group_name_H-M    P1
_symmetry_Int_Tables_number       1
_symmetry_cell_setting            triclinic
loop_
_symmetry_equiv_pos_as_xyz
'x, y, z'
_cell_length_a     25.164627
_cell_length_b     25.144236
_cell_length_c     33.521686
_cell_angle_alpha  90.617419
_cell_angle_beta   89.62
_cell_angle_gamma 90.056637
loop_
_atom_site_label
_atom_site_type_symbol
_atom_site_fract_x
_atom_site_fract_y
_atom_site_fract_z
_atom_type_partial_charge
H0 H 0.58871 0.09371 0.0512 0.0
H1 H 0.58843 0.08707 0.92253 0.0
H2 H 0.72412 0.03249 -0.01274 0.0
H3 H 0.53068 0.15162 0.01305 0.0
H4 H 0.53255 0.15116 0.96006 0.0
H5 H 0.47807 0.08296 0.05008 0.0
H6 H 0.33756 0.03497 -0.01285 0.0
H7 H 0.46992 0.0989 0.92215 0.0
C8 C 0.60692 0.0812 0.02325 0.0
C9 C 0.65854 0.06012 0.0233 0.0
C10 C 0.58107 0.09093 -0.01311 0.0
C11 C 0.60678 0.07745 0.95071 0.0
C12 C 0.65832 0.05614 0.95093 0.0
C13 C 0.68342 0.04676 -0.0128 0.0
C14 C 0.53156 0.12471 -0.01353 0.0
C15 C 0.48112 0.0922 -0.01406 0.0
C16 C 0.45767 0.07598 0.02212 0.0
C17 C 0.40562 0.05573 0.02255 0.0
C18 C 0.37838 0.04898 -0.01332 0.0
C19 C 0.40143 0.06401 0.95054 0.0
C20 C 0.45315 0.08492 0.95 0.0
H21 H 0.06792 0.58072 0.41945 0.0
H22 H 0.09546 0.59461 0.54611 0.0
H23 H 0.03157 0.72634 0.4819 0.0
H24 H 0.13478 0.52546 0.45255 0.0
H25 H 0.14459 0.52947 0.50497 0.0
H26 H 0.08219 0.45509 0.42561 0.0
H27 H 1.01271 0.34324 0.50633 0.0
H28 H 0.07563 0.4901 0.55198 0.0
C29 C 0.0643 0.60283 0.44728 0.0
C30 C 0.04687 0.65587 0.44673 0.0
C31 C 0.08241 0.58037 0.48303 0.0
C32 C 0.07977 0.61059 0.5187 0.0
C33 C 0.06056 0.66299 0.51832 0.0
C34 C 0.04395 0.68501 0.48242 0.0
C35 C 0.11335 0.52893 0.48162 0.0
C36 C 0.07883 0.4805 0.48769 0.0
C37 C 0.06842 0.44553 0.45539 0.0
C38 C 0.04408 0.39616 0.46216 0.0
C39 C 0.02917 0.38249 0.50094 0.0
C40 C 0.04182 0.41517 0.53338 0.0
C41 C 0.06455 0.46532 0.52671 0.0
Li42 Li 0.03422 0.06836 0.26651 0.0
Li43 Li 0.02934 0.97406 0.25697 0.0
Li44 Li 0.08131 0.02252 0.21106 0.0
Li45 Li 0.98032 0.02438 0.21049 0.0
C46 C 0.13899 0.04403 0.27939 0.0
N47 N 0.23012 0.09992 0.29873 0.0
C48 C 0.17428 0.024 0.30754 0.0
C49 C 0.15022 0.09245 0.26104 0.0
C50 C 0.22008 0.05286 0.31694 0.0
C51 C 0.19643 0.1201 0.2712 0.0
C52 C 0.9438 0.99595 0.29794 0.0
C53 C 0.87581 0.93418 0.31835 0.0
N54 N 0.89429 0.93685 0.35637 0.0
C55 C 0.96187 0.99848 0.33724 0.0
C56 C 0.90025 0.96387 0.28837 0.0
C57 C 0.9364 0.96813 0.36635 0.0
C58 C 1.00781 0.17262 0.29338 0.0
N59 N 0.03449 0.12751 0.30242 0.0
C60 C 0.06289 0.16604 0.364 0.0
C61 C 0.06248 0.12395 0.33665 0.0
C62 C 0.03043 0.21134 0.35838 0.0
C63 C 1.00642 0.2154 0.32042 0.0
H64 H 0.98758 0.17542 0.26511 0.0
H65 H 0.08494 0.0884 0.34275 0.0
C66 C 0.05812 0.90353 0.31733 0.0
N67 N 0.02554 0.90848 0.28545 0.0
C68 C 0.05765 0.85707 0.33962 0.0
C69 C 0.99036 0.82117 0.29572 0.0
C70 C 0.9914 0.86885 0.27469 0.0
C71 C 0.02362 0.81524 0.32875 0.0
H72 H 0.08416 0.93592 0.32561 0.0
H73 H 0.96482 0.87431 0.24991 0.0
C74 C 0.03633 0.12241 0.1795 0.0
N75 N 0.04322 0.19771 0.1202 0.0
C76 C 0.01761 0.11087 0.14122 0.0
C77 C 0.05804 0.17253 0.18773 0.0
C78 C 0.02159 0.14938 0.11161 0.0
C79 C 0.06135 0.20996 0.15732 0.0
C80 C 0.03952 0.91318 0.19037 0.0
C81 C 0.08763 0.89067 0.20208 0.0
C82 C 1.00134 0.88147 0.17152 0.0
C83 C 0.0966 0.83655 0.19504 0.0
C84 C 1.01186 0.82752 0.16493 0.0
N85 N 0.05885 0.80636 0.17676 0.0
C86 C 0.18984 1.0002 0.1948 0.0
C87 C 0.1465 0.04589 0.14285 0.0
C88 C 0.2382 1.00225 0.17419 0.0
N89 N 0.14541 0.02286 0.17935 0.0
C90 C 0.19388 0.04845 0.12107 0.0
C91 C 0.24039 0.02682 0.13697 0.0
H92 H 0.18805 0.98096 0.22342 0.0
H93 H 0.11081 0.06247 0.13059 0.0
C94 C 0.87608 0.05853 0.1974 0.0
N95 N 0.91689 0.03043 0.18077 0.0
C96 C 0.82838 0.06431 0.17683 0.0
C97 C 0.86556 1.01163 0.12265 0.0
C98 C 0.91244 1.00668 0.14432 0.0
C99 C 0.82319 0.04104 0.13889 0.0
H100 H 0.88079 0.07666 0.22658 0.0
H101 H 0.94561 0.98466 0.13186 0.0
O102 O 0.09403 1.01593 0.2699 0.0
O103 O 0.96926 0.02402 0.26884 0.0
O104 O 0.03182 0.08554 0.20911 0.0
O105 O 0.02974 0.96594 0.19745 0.0
H106 H 0.16647 0.98648 0.32196 0.0
H107 H 0.12385 0.10836 0.239 0.0
H108 H 0.24767 0.03781 0.33869 0.0
H109 H 0.20557 0.15756 0.25713 0.0
H110 H 0.8423 0.90884 0.31137 0.0
H111 H 0.99571 0.02299 0.34502 0.0
H112 H 0.88595 0.96144 0.25801 0.0
H113 H 0.95022 0.9693 0.39683 0.0
H114 H 0.08993 0.16198 0.38844 0.0
H115 H 0.98703 0.25136 0.31091 0.0
H116 H 0.08375 0.85362 0.36503 0.0
H117 H 0.96366 0.78955 0.28665 0.0
H118 H 1.00111 0.07225 0.13421 0.0
H119 H 0.07208 0.18257 0.21731 0.0
H120 H 1.0076 0.14078 0.08179 0.0
H121 H 0.07821 0.24882 0.16325 0.0
H122 H 0.11727 0.91451 0.21714 0.0
H123 H 0.96374 0.89815 0.16249 0.0
H124 H 0.13348 0.81851 0.20425 0.0
H125 H 0.9826 0.80244 0.15054 0.0
H126 H 0.2735 0.98513 0.18716 0.0
H127 H 0.19443 0.06754 0.09224 0.0
H128 H 0.79626 0.08734 0.18997 0.0
H129 H 0.8626 0.99346 0.0933 0.0
Li130 Li 0.97816 0.03497 0.75709 0.0
Li131 Li 0.07873 0.03776 0.76104 0.0
Li132 Li 0.02564 0.0873 0.7098 0.0
Li133 Li 0.03282 0.99274 0.70692 0.0
C134 C 1.00506 0.11767 0.8033 0.0
N135 N 0.96193 0.15792 0.87345 0.0
C136 C 0.03115 0.11034 0.83952 0.0
C137 C 0.9572 0.14592 0.80278 0.0
C138 C 1.00867 0.1309 0.87465 0.0
C139 C 0.93599 0.16581 0.83855 0.0
C140 C 0.01799 0.9242 0.76778 0.0
C141 C 0.04319 0.8338 0.78161 0.0
N142 N 0.99424 0.817 0.76996 0.0
C143 C 0.96786 0.9061 0.75609 0.0
C144 C 0.05597 0.88786 0.78075 0.0
C145 C 0.95666 0.85172 0.75735 0.0
C146 C 0.86673 0.03052 0.76911 0.0
N147 N 0.91441 0.029 0.78799 0.0
C148 C 0.87114 0.02617 0.85156 0.0
C149 C 0.91737 0.0249 0.82834 0.0
C150 C 0.82171 0.03049 0.83286 0.0
C151 C 0.81945 0.03139 0.79115 0.0
H152 H 0.86537 0.03202 0.73695 0.0
H153 H 0.95573 0.02241 0.84252 0.0
C154 C 0.17848 0.07674 0.78141 0.0
N155 N 0.14096 0.04072 0.79245 0.0
C156 C 0.2256 0.08156 0.80285 0.0
C157 C 0.19439 1.01233 0.84683 0.0
C158 C 0.14799 1.00849 0.82427 0.0
C159 C 0.23351 0.04946 0.83618 0.0
H160 H 0.17164 0.10172 0.75588 0.0
H161 H 0.11728 0.98046 0.83244 0.0
C162 C 0.94267 0.0656 0.67084 0.0
N163 N 0.8958 0.13023 0.61487 0.0
C164 C 0.95123 0.05619 0.63011 0.0
C165 C 0.91008 0.10785 0.68302 0.0
C166 C 0.92714 0.08925 0.6023 0.0
C167 C 0.88687 0.14013 0.6543 0.0
C168 C 0.1246 0.02028 0.67574 0.0
C169 C 0.10969 1.01626 0.63572 0.0
C170 C 0.1726 0.99789 0.68793 0.0
C171 C 0.14276 0.9894 0.60863 0.0
C172 C 0.20466 0.97149 0.65989 0.0
N173 N 0.18917 0.96776 0.62117 0.0
C174 C 0.03822 0.15777 0.64363 0.0
C175 C 1.01388 0.19893 0.70501 0.0
C176 C 0.0389 0.20703 0.6248 0.0
N177 N 0.02554 0.15454 0.68302 0.0
C178 C 1.01423 0.24904 0.6874 0.0
C179 C 0.02681 0.25321 0.64684 0.0
H180 H 0.04797 0.12222 0.62684 0.0
H181 H 1.00495 0.19564 0.73638 0.0
C182 C 1.00116 0.91411 0.64935 0.0
N183 N 0.03942 0.92827 0.67589 0.0
C184 C 1.00607 0.86711 0.627 0.0
C185 C 0.08794 0.84845 0.66147 0.0
C186 C 0.0818 0.89608 0.68273 0.0
C187 C 0.05021 0.83412 0.63274 0.0
H188 H 0.96671 0.9391 0.64566 0.0
H189 H 0.11083 0.90736 0.70488 0.0
O190 O 0.0263 0.09737 0.76862 0.0
O191 O 0.03023 0.97708 0.76558 0.0
O192 O 0.96702 0.03455 0.69864 0.0
O193 O 0.09222 0.04553 0.7029 0.0
H194 H 0.06824 0.08885 0.84062 0.0
H195 H 0.93626 0.1519 0.77516 0.0
H196 H 0.02837 0.1253 0.90288 0.0
H197 H 0.89885 0.18743 0.83858 0.0
H198 H 0.07227 0.80517 0.79138 0.0
H199 H 0.93823 0.93366 0.74554 0.0
H200 H 0.09513 0.9012 0.78954 0.0
H201 H 0.91815 0.83709 0.74814 0.0
H202 H 0.8739 0.02515 0.88378 0.0
H203 H 0.78171 0.03439 0.776 0.0
H204 H 0.25509 0.11066 0.79408 0.0
H205 H 0.19942 0.98726 0.8726 0.0
H206 H 0.97679 0.02426 0.61994 0.0
H207 H 0.90341 0.1162 0.71433 0.0
H208 H 0.93367 0.08254 0.57072 0.0
H209 H 0.86195 0.17319 0.66338 0.0
H210 H 0.0725 0.03271 0.62582 0.0
H211 H 0.18468 1.00014 0.71878 0.0
H212 H 0.13141 0.98554 0.57766 0.0
H213 H 0.24174 0.95372 0.66897 0.0
H214 H 0.04929 0.20921 0.59344 0.0
H215 H 1.00542 0.28415 0.70524 0.0
H216 H 0.97598 0.85671 0.60531 0.0
H217 H 0.12217 0.8235 0.6668 0.0
C218 C 0.3535 0.09164 0.08109 0.0
C219 C 0.37538 0.0473 0.06015 0.0
C220 C 0.31356 0.98744 0.09426 0.0
C221 C 0.29138 0.0319 0.1148 0.0
N222 N 0.30024 0.1228 0.13714 0.0
N223 N 0.38684 0.95266 0.05433 0.0
C224 C 0.31492 0.08286 0.11139 0.0
C225 C 0.35904 0.99495 0.06956 0.0
N226 N 0.36659 0.14227 0.07022 0.0
N227 N 0.28941 0.93884 0.09647 0.0
H228 H 0.42036 0.95753 0.0362 0.0
H229 H 0.3799 0.91345 0.06259 0.0
H230 H 0.25611 0.93174 0.11431 0.0
H231 H 0.30012 0.90639 0.07863 0.0
H232 H 0.34677 0.17587 0.081 0.0
H233 H 0.39478 0.15087 0.04833 0.0
H234 H 0.3196 0.15939 0.13862 0.0
H235 H 0.27206 0.11744 0.15974 0.0
C236 C 0.98901 0.37705 0.58912 0.0
C237 C 0.03958 0.39032 0.57336 0.0
C238 C 0.08114 0.32696 0.61858 0.0
C239 C 0.0303 0.30585 0.62737 0.0
N240 N 0.93491 0.31072 0.62239 0.0
N241 N 0.13482 0.37746 0.57246 0.0
C242 C 0.98377 0.33158 0.61377 0.0
C243 C 0.08617 0.36622 0.58869 0.0
N244 N 0.94611 0.40735 0.57937 0.0
N245 N 0.1246 0.30891 0.63856 0.0
H246 H 0.14085 0.40669 0.55114 0.0
H247 H 0.16897 0.3557 0.57849 0.0
H248 H 0.12197 0.27986 0.6605 0.0
H249 H 0.16209 0.32623 0.63623 0.0
H250 H 0.9085 0.40256 0.59195 0.0
H251 H 0.94977 0.44069 0.56123 0.0
H252 H 0.89978 0.32403 0.6097 0.0
H253 H 0.92971 0.27788 0.64077 0.0
C254 C 0.69683 1.01141 0.08138 0.0
C255 C 0.69115 0.05934 0.05997 0.0
C256 C 0.76836 0.09771 0.09391 0.0
C257 C 0.77459 0.04949 0.11497 0.0
N258 N 0.73922 0.9652 0.13593 0.0
N259 N 0.71266 0.15205 0.05193 0.0
C260 C 0.73684 1.00783 0.11105 0.0
C261 C 0.72389 0.10393 0.06852 0.0
N262 N 0.66532 0.9688 0.0721 0.0
N263 N 0.80661 0.1363 0.09636 0.0
H264 H 0.68112 0.1577 0.03241 0.0
H265 H 0.73154 0.18735 0.06004 0.0
H266 H 0.83955 0.13362 0.11494 0.0
H267 H 0.80787 0.16945 0.07805 0.0
H268 H 0.67138 0.93069 0.08299 0.0
H269 H 0.63411 0.97117 0.05185 0.0
H270 H 0.71027 0.93567 0.13717 0.0
H271 H 0.76826 0.96154 0.15781 0.0
C272 C 0.02338 0.70011 0.58277 0.0
C273 C 0.06445 0.69893 0.55364 0.0
C274 C 0.09836 0.78454 0.57797 0.0
C275 C 0.05771 0.78564 0.60755 0.0
N276 N 0.98969 0.73937 0.64443 0.0
N277 N 0.14886 0.73165 0.53022 0.0
C278 C 0.02278 0.74166 0.61199 0.0
C279 C 0.1047 0.73838 0.55369 0.0
N280 N 0.98381 0.6629 0.58141 0.0
N281 N 0.1288 0.82872 0.57136 0.0
H282 H 0.15451 0.69815 0.51204 0.0
H283 H 0.18198 0.75645 0.5317 0.0
H284 H 0.12494 0.86388 0.58787 0.0
H285 H 0.15483 0.83223 0.54725 0.0
H286 H 0.94937 0.66519 0.59872 0.0
H287 H 0.98418 0.63101 0.56124 0.0
H288 H 0.96679 0.70618 0.65135 0.0
H289 H 0.98866 0.76901 0.66645 0.0
C290 C 0.33081 0.10808 0.91122 0.0
C291 C 0.36685 0.06516 0.91492 0.0
C292 C 0.32206 0.01748 0.86055 0.0
C293 C 0.28142 0.05662 0.86129 0.0
N294 N 0.24389 0.1369 0.88985 0.0
N295 N 0.39714 0.97822 0.89461 0.0
C296 C 0.28523 0.10174 0.88693 0.0
C297 C 0.36297 0.0198 0.88966 0.0
N298 N 0.34012 0.15476 0.93129 0.0
N299 N 0.32179 0.97866 0.8317 0.0
H300 H 0.42884 0.97983 0.91451 0.0
H301 H 0.39264 0.94137 0.88058 0.0
H302 H 0.29232 0.97597 0.81001 0.0
H303 H 0.35281 0.95186 0.82716 0.0
H304 H 0.31835 0.18935 0.9268 0.0
H305 H 0.37287 0.16042 0.94979 0.0
H306 H 0.24166 0.16699 0.91137 0.0
H307 H 0.20945 0.1336 0.87287 0.0
C308 C 1.00004 0.34887 0.40458 0.0
C309 C 0.04296 0.35287 0.43161 0.0
C310 C 0.05984 0.25817 0.42297 0.0
C311 C 0.02597 0.25613 0.38942 0.0
N312 N 0.94018 0.289 0.36998 0.0
N313 N 0.11947 0.31206 0.46181 0.0
C314 C 0.98921 0.2989 0.38558 0.0
C315 C 0.07535 0.30797 0.43851 0.0
N316 N 0.96961 0.39255 0.39726 0.0
N317 N 0.06684 0.21421 0.44575 0.0
H318 H 0.13247 0.34827 0.47378 0.0
H319 H 0.14521 0.28005 0.46585 0.0
H320 H 0.04396 0.17999 0.44131 0.0
H321 H 0.08784 0.21509 0.4725 0.0
H322 H 0.94109 0.39361 0.37491 0.0
H323 H 0.97616 0.42914 0.41137 0.0
H324 H 0.9097 0.31694 0.36934 0.0
H325 H 0.92773 0.2504 0.36301 0.0
C326 C 0.6999 1.00034 0.89696 0.0
C327 C 0.69072 0.05139 0.91393 0.0
C328 C 0.75833 0.08979 0.8698 0.0
C329 C 0.7729 0.03773 0.85732 0.0
N330 N 0.75899 0.94298 0.85833 0.0
N331 N 0.71233 0.14479 0.91868 0.0
C332 C 0.74362 0.99281 0.87032 0.0
C333 C 0.71964 0.09636 0.90047 0.0
N334 N 0.66662 0.95934 0.90649 0.0
N335 N 0.78162 0.1329 0.85228 0.0
H336 H 0.68339 0.15178 0.9405 0.0
H337 H 0.73698 0.17744 0.914 0.0
H338 H 0.81102 0.12955 0.83033 0.0
H339 H 0.76888 0.17185 0.85699 0.0
H340 H 0.66805 0.92199 0.89286 0.0
H341 H 0.6344 0.96416 0.92596 0.0
H342 H 0.74332 0.90811 0.87003 0.0
H343 H 0.7897 0.93635 0.83781 0.0
C344 C 0.08051 0.69885 0.3838 0.0
C345 C 0.03717 0.68465 0.40894 0.0
C346 C 0.98118 0.75145 0.37717 0.0
C347 C 0.02446 0.76525 0.35194 0.0
N348 N 0.10854 0.74076 0.3224 0.0
N349 N 0.94301 0.68606 0.42176 0.0
C350 C 0.07179 0.73483 0.35222 0.0
C351 C 0.98623 0.707 0.4027 0.0
N352 N 0.13078 0.68155 0.39175 0.0
N353 N 0.93677 0.78267 0.3788 0.0
H354 H 0.94595 0.6533 0.4405 0.0
H355 H 0.90412 0.69765 0.41594 0.0
H356 H 0.93169 0.81602 0.36104 0.0
H357 H 0.90667 0.77788 0.39993 0.0
H358 H 0.16441 0.69604 0.37717 0.0
H359 H 0.13979 0.65606 0.41501 0.0
H360 H 0.14163 0.71618 0.31909 0.0
H361 H 0.10292 0.76665 0.29866 0.0
loop_
_geom_bond_atom_site_label_1
_geom_bond_atom_site_label_2
_geom_bond_distance
_geom_bond_site_symmetry_2
_ccdc_geom_bond_type
H0 C8 0.930 . S
H1 C11 0.930 . S
H2 C13 0.930 1_565 S
H3 C14 0.970 . S
H4 C14 0.970 1_556 S
H5 C16 0.930 . S
H6 C18 0.930 1_565 S
H7 C20 0.930 . S
C8 H0 0.930 . S
C8 C9 1.382 . S
C8 C10 1.426 . S
C9 C8 1.382 . S
C9 C13 1.389 . S
C10 C8 1.426 . S
C10 C11 1.375 1_554 S
C10 C14 1.532 . S
C11 H1 0.930 . S
C11 C10 1.375 1_556 S
C11 C12 1.416 . S
C12 C11 1.416 . S
C12 C13 1.371 1_556 S
C13 H2 0.930 1_545 S
C13 C9 1.389 . S
C13 C12 1.371 1_554 S
C14 H3 0.970 . S
C14 H4 0.970 1_554 S
C14 C10 1.532 . S
C14 C15 1.499 . S
C15 C14 1.499 . S
C15 C16 1.370 . S
C15 C20 1.415 1_554 S
C16 H5 0.930 . S
C16 C15 1.370 . S
C16 C17 1.407 . S
C17 C16 1.407 . S
C17 C18 1.365 . S
C18 H6 0.930 1_545 S
C18 C17 1.365 . S
C18 C19 1.393 1_554 S
C19 C18 1.393 1_556 S
C19 C20 1.387 . S
C20 H7 0.930 . S
C20 C15 1.415 1_556 S
C20 C19 1.387 . S
H21 C29 0.930 . S
H22 C32 0.930 . S
H23 C34 0.930 1_655 S
H24 C35 0.970 . S
H25 C35 0.970 . S
H26 C37 0.930 . S
H27 C39 0.930 1_655 S
H28 C41 0.930 . S
C29 H21 0.930 . S
C29 C30 1.382 . S
C29 C31 1.426 . S
C30 C29 1.382 . S
C30 C34 1.389 . S
C31 C29 1.426 . S
C31 C32 1.375 . S
C31 C35 1.532 . S
C32 H22 0.930 . S
C32 C31 1.375 . S
C32 C33 1.416 . S
C33 C32 1.416 . S
C33 C34 1.371 . S
C34 H23 0.930 1_455 S
C34 C30 1.389 . S
C34 C33 1.371 . S
C35 H24 0.970 . S
C35 H25 0.970 . S
C35 C31 1.532 . S
C35 C36 1.499 . S
C36 C35 1.499 . S
C36 C37 1.370 . S
C36 C41 1.415 . S
C37 H26 0.930 . S
C37 C36 1.370 . S
C37 C38 1.407 . S
C38 C37 1.407 . S
C38 C39 1.365 . S
C39 H27 0.930 1_455 S
C39 C38 1.365 . S
C39 C40 1.393 . S
C40 C39 1.393 . S
C40 C41 1.387 . S
C41 H28 0.930 . S
C41 C36 1.415 . S
C41 C40 1.387 . S
Li42 N59 1.990 . S
Li42 O102 1.956 . S
Li42 O103 1.970 1_455 S
Li42 O104 1.961 . S
Li43 N67 1.990 . S
Li43 O102 1.970 1_565 S
Li43 O103 1.956 1_465 S
Li43 O105 1.961 . S
Li44 N89 1.990 . S
Li44 O102 1.961 . S
Li44 O104 1.956 . S
Li44 O105 1.970 1_545 S
Li45 N95 1.990 . S
Li45 O103 1.961 . S
Li45 O104 1.970 1_655 S
Li45 O105 1.956 1_645 S
C46 C48 1.348 1_545 S
C46 C49 1.356 . S
C46 O102 1.325 . S
N47 C50 1.314 1_545 S
N47 C51 1.279 . S
C48 C46 1.348 1_565 S
C48 C50 1.353 . S
C48 H106 0.929 . S
C49 C46 1.356 . S
C49 C51 1.358 . S
C49 H107 0.930 . S
C50 N47 1.314 1_565 S
C50 C48 1.353 . S
C50 H108 0.930 . S
C51 N47 1.279 . S
C51 C49 1.358 . S
C51 H109 0.930 . S
C52 C55 1.348 . S
C52 C56 1.356 1_545 S
C52 O103 1.325 . S
C53 N54 1.279 1_565 S
C53 C56 1.358 . S
C53 H110 0.930 . S
N54 C53 1.279 1_545 S
N54 C57 1.314 . S
C55 C52 1.348 . S
C55 C57 1.353 . S
C55 H111 0.929 . S
C56 C52 1.356 1_565 S
C56 C53 1.358 . S
C56 H112 0.930 . S
C57 N54 1.314 . S
C57 C55 1.353 . S
C57 H113 0.930 . S
C58 N59 1.314 1_655 S
C58 C63 1.353 . S
C58 H64 0.930 . S
N59 Li42 1.990 . S
N59 C58 1.314 1_455 S
N59 C61 1.279 . S
C60 C61 1.358 . S
C60 C62 1.356 . S
C60 H114 0.930 . S
C61 N59 1.279 . S
C61 C60 1.358 . S
C61 H65 0.930 . S
C62 C60 1.356 . S
C62 C63 1.348 1_455 S
C63 C58 1.353 . S
C63 C62 1.348 1_655 S
C63 H115 0.929 . S
H64 C58 0.930 . S
H65 C61 0.930 . S
C66 N67 1.314 . S
C66 C68 1.353 . S
C66 H72 0.930 . S
N67 Li43 1.990 . S
N67 C66 1.314 . S
N67 C70 1.279 1_455 S
C68 C66 1.353 . S
C68 C71 1.348 . S
C68 H116 0.929 . S
C69 C70 1.358 . S
C69 C71 1.356 1_655 S
C69 H117 0.930 . S
C70 N67 1.279 1_655 S
C70 C69 1.358 . S
C70 H73 0.930 . S
C71 C68 1.348 . S
C71 C69 1.356 1_455 S
H72 C66 0.930 . S
H73 C70 0.930 . S
C74 C76 1.348 1_455 S
C74 C77 1.356 . S
C74 O104 1.325 . S
N75 C78 1.314 1_455 S
N75 C79 1.279 . S
C76 C74 1.348 1_655 S
C76 C78 1.353 . S
C76 H118 0.929 . S
C77 C74 1.356 . S
C77 C79 1.358 . S
C77 H119 0.930 . S
C78 N75 1.314 1_655 S
C78 C76 1.353 . S
C78 H120 0.930 . S
C79 N75 1.279 . S
C79 C77 1.358 . S
C79 H121 0.930 . S
C80 C81 1.348 . S
C80 C82 1.356 1_455 S
C80 O105 1.325 . S
C81 C80 1.348 . S
C81 C83 1.353 . S
C81 H122 0.929 . S
C82 C80 1.356 1_655 S
C82 C84 1.358 . S
C82 H123 0.930 . S
C83 C81 1.353 . S
C83 N85 1.314 . S
C83 H124 0.930 . S
C84 C82 1.358 . S
C84 N85 1.279 1_655 S
C84 H125 0.930 . S
N85 C83 1.314 . S
N85 C84 1.279 1_455 S
C86 C88 1.353 . S
C86 N89 1.314 1_565 S
C86 H92 0.930 . S
C87 N89 1.279 . S
C87 C90 1.358 . S
C87 H93 0.930 . S
C88 C86 1.353 . S
C88 C91 1.348 1_565 S
C88 H126 0.929 . S
N89 Li44 1.990 . S
N89 C86 1.314 1_545 S
N89 C87 1.279 . S
C90 C87 1.358 . S
C90 C91 1.356 . S
C90 H127 0.930 . S
C91 C88 1.348 1_545 S
C91 C90 1.356 . S
H92 C86 0.930 . S
H93 C87 0.930 . S
C94 N95 1.314 . S
C94 C96 1.353 . S
C94 H100 0.930 . S
N95 Li45 1.990 . S
N95 C94 1.314 . S
N95 C98 1.279 1_545 S
C96 C94 1.353 . S
C96 C99 1.348 . S
C96 H128 0.929 . S
C97 C98 1.358 . S
C97 C99 1.356 1_565 S
C97 H129 0.930 . S
C98 N95 1.279 1_565 S
C98 C97 1.358 . S
C98 H101 0.930 . S
C99 C96 1.348 . S
C99 C97 1.356 1_545 S
H100 C94 0.930 . S
H101 C98 0.930 . S
O102 Li42 1.956 . S
O102 Li43 1.970 1_545 S
O102 Li44 1.961 . S
O102 C46 1.325 . S
O103 Li42 1.970 1_655 S
O103 Li43 1.956 1_645 S
O103 Li45 1.961 . S
O103 C52 1.325 . S
O104 Li42 1.961 . S
O104 Li44 1.956 . S
O104 Li45 1.970 1_455 S
O104 C74 1.325 . S
O105 Li43 1.961 . S
O105 Li44 1.970 1_565 S
O105 Li45 1.956 1_465 S
O105 C80 1.325 . S
H106 C48 0.929 . S
H107 C49 0.930 . S
H108 C50 0.930 . S
H109 C51 0.930 . S
H110 C53 0.930 . S
H111 C55 0.929 . S
H112 C56 0.930 . S
H113 C57 0.930 . S
H114 C60 0.930 . S
H115 C63 0.929 . S
H116 C68 0.929 . S
H117 C69 0.930 . S
H118 C76 0.929 . S
H119 C77 0.930 . S
H120 C78 0.930 . S
H121 C79 0.930 . S
H122 C81 0.929 . S
H123 C82 0.930 . S
H124 C83 0.930 . S
H125 C84 0.930 . S
H126 C88 0.929 . S
H127 C90 0.930 . S
H128 C96 0.929 . S
H129 C97 0.930 . S
Li130 N147 1.990 . S
Li130 O190 1.956 1_655 S
Li130 O191 1.970 1_645 S
Li130 O192 1.961 . S
Li131 N155 1.990 . S
Li131 O190 1.970 . S
Li131 O191 1.956 1_545 S
Li131 O193 1.961 . S
Li132 N177 1.990 . S
Li132 O190 1.961 . S
Li132 O192 1.956 1_455 S
Li132 O193 1.970 . S
Li133 N183 1.990 . S
Li133 O191 1.961 . S
Li133 O192 1.970 1_465 S
Li133 O193 1.956 1_565 S
C134 C136 1.348 . S
C134 C137 1.356 1_455 S
C134 O190 1.325 . S
N135 C138 1.314 . S
N135 C139 1.279 1_455 S
C136 C134 1.348 . S
C136 C138 1.353 . S
C136 H194 0.929 . S
C137 C134 1.356 1_655 S
C137 C139 1.358 . S
C137 H195 0.930 . S
C138 N135 1.314 . S
C138 C136 1.353 . S
C138 H196 0.930 . S
C139 N135 1.279 1_655 S
C139 C137 1.358 . S
C139 H197 0.930 . S
C140 C143 1.348 1_455 S
C140 C144 1.356 . S
C140 O191 1.325 . S
C141 N142 1.279 . S
C141 C144 1.358 . S
C141 H198 0.930 . S
N142 C141 1.279 . S
N142 C145 1.314 1_455 S
C143 C140 1.348 1_655 S
C143 C145 1.353 . S
C143 H199 0.929 . S
C144 C140 1.356 . S
C144 C141 1.358 . S
C144 H200 0.930 . S
C145 N142 1.314 1_655 S
C145 C143 1.353 . S
C145 H201 0.930 . S
C146 N147 1.314 1_565 S
C146 C151 1.353 . S
C146 H152 0.930 . S
N147 Li130 1.990 . S
N147 C146 1.314 1_545 S
N147 C149 1.279 . S
C148 C149 1.358 . S
C148 C150 1.356 . S
C148 H202 0.930 . S
C149 N147 1.279 . S
C149 C148 1.358 . S
C149 H153 0.930 . S
C150 C148 1.356 . S
C150 C151 1.348 1_545 S
C151 C146 1.353 . S
C151 C150 1.348 1_565 S
C151 H203 0.929 . S
H152 C146 0.930 . S
H153 C149 0.930 . S
C154 N155 1.314 . S
C154 C156 1.353 . S
C154 H160 0.930 . S
N155 Li131 1.990 . S
N155 C154 1.314 . S
N155 C158 1.279 1_545 S
C156 C154 1.353 . S
C156 C159 1.348 . S
C156 H204 0.929 . S
C157 C158 1.358 . S
C157 C159 1.356 1_565 S
C157 H205 0.930 . S
C158 N155 1.279 1_565 S
C158 C157 1.358 . S
C158 H161 0.930 . S
C159 C156 1.348 . S
C159 C157 1.356 1_545 S
H160 C154 0.930 . S
H161 C158 0.930 . S
C162 C164 1.348 1_545 S
C162 C165 1.356 . S
C162 O192 1.325 . S
N163 C166 1.314 1_545 S
N163 C167 1.279 . S
C164 C162 1.348 1_565 S
C164 C166 1.353 . S
C164 H206 0.929 . S
C165 C162 1.356 . S
C165 C167 1.358 . S
C165 H207 0.930 . S
C166 N163 1.314 1_565 S
C166 C164 1.353 . S
C166 H208 0.930 . S
C167 N163 1.279 . S
C167 C165 1.358 . S
C167 H209 0.930 . S
C168 C169 1.348 . S
C168 C170 1.356 1_545 S
C168 O193 1.325 . S
C169 C168 1.348 . S
C169 C171 1.353 . S
C169 H210 0.929 . S
C170 C168 1.356 1_565 S
C170 C172 1.358 . S
C170 H211 0.930 . S
C171 C169 1.353 . S
C171 N173 1.314 . S
C171 H212 0.930 . S
C172 C170 1.358 . S
C172 N173 1.279 1_565 S
C172 H213 0.930 . S
N173 C171 1.314 . S
N173 C172 1.279 1_545 S
C174 C176 1.353 . S
C174 N177 1.314 . S
C174 H180 0.930 . S
C175 N177 1.279 1_655 S
C175 C178 1.358 . S
C175 H181 0.930 . S
C176 C174 1.353 . S
C176 C179 1.348 . S
C176 H214 0.929 . S
N177 Li132 1.990 . S
N177 C174 1.314 . S
N177 C175 1.279 1_455 S
C178 C175 1.358 . S
C178 C179 1.356 1_655 S
C178 H215 0.930 . S
C179 C176 1.348 . S
C179 C178 1.356 1_455 S
H180 C174 0.930 . S
H181 C175 0.930 . S
C182 N183 1.314 1_655 S
C182 C184 1.353 . S
C182 H188 0.930 . S
N183 Li133 1.990 . S
N183 C182 1.314 1_455 S
N183 C186 1.279 . S
C184 C182 1.353 . S
C184 C187 1.348 1_655 S
C184 H216 0.929 . S
C185 C186 1.358 . S
C185 C187 1.356 . S
C185 H217 0.930 . S
C186 N183 1.279 . S
C186 C185 1.358 . S
C186 H189 0.930 . S
C187 C184 1.348 1_455 S
C187 C185 1.356 . S
H188 C182 0.930 . S
H189 C186 0.930 . S
O190 Li130 1.956 1_455 S
O190 Li131 1.970 . S
O190 Li132 1.961 . S
O190 C134 1.325 . S
O191 Li130 1.970 1_465 S
O191 Li131 1.956 1_565 S
O191 Li133 1.961 . S
O191 C140 1.325 . S
O192 Li130 1.961 . S
O192 Li132 1.956 1_655 S
O192 Li133 1.970 1_645 S
O192 C162 1.325 . S
O193 Li131 1.961 . S
O193 Li132 1.970 . S
O193 Li133 1.956 1_545 S
O193 C168 1.325 . S
H194 C136 0.929 . S
H195 C137 0.930 . S
H196 C138 0.930 . S
H197 C139 0.930 . S
H198 C141 0.930 . S
H199 C143 0.929 . S
H200 C144 0.930 . S
H201 C145 0.930 . S
H202 C148 0.930 . S
H203 C151 0.929 . S
H204 C156 0.929 . S
H205 C157 0.930 . S
H206 C164 0.929 . S
H207 C165 0.930 . S
H208 C166 0.930 . S
H209 C167 0.930 . S
H210 C169 0.929 . S
H211 C170 0.930 . S
H212 C171 0.930 . S
H213 C172 0.930 . S
H214 C176 0.929 . S
H215 C178 0.930 . S
H216 C184 0.929 . S
H217 C185 0.930 . S
C218 C219 1.363 . S
C218 C224 1.379 . S
C218 N226 1.356 . S
C219 C218 1.363 . S
C219 C225 1.363 1_545 S
C220 C221 1.363 1_565 S
C220 C225 1.379 . S
C220 N227 1.356 . S
C221 C220 1.363 1_545 S
C221 C224 1.363 . S
N222 C224 1.356 . S
N222 H234 0.984 . S
N222 H235 0.985 . S
N223 C225 1.356 . S
N223 H228 0.984 . S
N223 H229 0.985 . S
C224 C218 1.379 . S
C224 C221 1.363 . S
C224 N222 1.356 . S
C225 C219 1.363 1_565 S
C225 C220 1.379 . S
C225 N223 1.356 . S
N226 C218 1.356 . S
N226 H232 0.984 . S
N226 H233 0.984 . S
N227 C220 1.356 . S
N227 H230 0.984 . S
N227 H231 0.985 . S
H228 N223 0.984 . S
H229 N223 0.985 . S
H230 N227 0.984 . S
H231 N227 0.985 . S
H232 N226 0.984 . S
H233 N226 0.984 . S
H234 N222 0.984 . S
H235 N222 0.985 . S
C236 C237 1.363 . S
C236 C242 1.379 . S
C236 N244 1.356 1_455 S
C237 C236 1.363 . S
C237 C243 1.363 . S
C238 C239 1.363 . S
C238 C243 1.379 . S
C238 N245 1.356 . S
C239 C238 1.363 . S
C239 C242 1.363 . S
N240 C242 1.356 1_655 S
N240 H252 0.984 . S
N240 H253 0.985 . S
N241 C243 1.356 . S
N241 H246 0.984 . S
N241 H247 0.985 . S
C242 C236 1.379 . S
C242 C239 1.363 . S
C242 N240 1.356 1_455 S
C243 C237 1.363 . S
C243 C238 1.379 . S
C243 N241 1.356 . S
N244 C236 1.356 1_655 S
N244 H250 0.984 . S
N244 H251 0.984 . S
N245 C238 1.356 . S
N245 H248 0.984 . S
N245 H249 0.985 . S
H246 N241 0.984 . S
H247 N241 0.985 . S
H248 N245 0.984 . S
H249 N245 0.985 . S
H250 N244 0.984 . S
H251 N244 0.984 . S
H252 N240 0.984 . S
H253 N240 0.985 . S
C254 C255 1.363 1_565 S
C254 C260 1.379 . S
C254 N262 1.356 . S
C255 C254 1.363 1_545 S
C255 C261 1.363 . S
C256 C257 1.363 . S
C256 C261 1.379 . S
C256 N263 1.356 . S
C257 C256 1.363 . S
C257 C260 1.363 1_545 S
N258 C260 1.356 . S
N258 H270 0.984 . S
N258 H271 0.985 . S
N259 C261 1.356 . S
N259 H264 0.984 . S
N259 H265 0.985 . S
C260 C254 1.379 . S
C260 C257 1.363 1_565 S
C260 N258 1.356 . S
C261 C255 1.363 . S
C261 C256 1.379 . S
C261 N259 1.356 . S
N262 C254 1.356 . S
N262 H268 0.984 . S
N262 H269 0.984 . S
N263 C256 1.356 . S
N263 H266 0.984 . S
N263 H267 0.985 . S
H264 N259 0.984 . S
H265 N259 0.985 . S
H266 N263 0.984 . S
H267 N263 0.985 . S
H268 N262 0.984 . S
H269 N262 0.984 . S
H270 N258 0.984 . S
H271 N258 0.985 . S
C272 C273 1.363 1_655 S
C272 C278 1.379 . S
C272 N280 1.356 . S
C273 C272 1.363 1_455 S
C273 C279 1.363 . S
C274 C275 1.363 . S
C274 C279 1.379 . S
C274 N281 1.356 . S
C275 C274 1.363 . S
C275 C278 1.363 1_455 S
N276 C278 1.356 . S
N276 H288 0.984 . S
N276 H289 0.985 . S
N277 C279 1.356 . S
N277 H282 0.984 . S
N277 H283 0.985 . S
C278 C272 1.379 . S
C278 C275 1.363 1_655 S
C278 N276 1.356 . S
C279 C273 1.363 . S
C279 C274 1.379 . S
C279 N277 1.356 . S
N280 C272 1.356 . S
N280 H286 0.984 . S
N280 H287 0.984 . S
N281 C274 1.356 . S
N281 H284 0.984 . S
N281 H285 0.985 . S
H282 N277 0.984 . S
H283 N277 0.985 . S
H284 N281 0.984 . S
H285 N281 0.985 . S
H286 N280 0.984 . S
H287 N280 0.984 . S
H288 N276 0.984 . S
H289 N276 0.985 . S
C290 C291 1.363 . S
C290 C296 1.379 . S
C290 N298 1.356 . S
C291 C290 1.363 . S
C291 C297 1.363 1_545 S
C292 C293 1.363 1_565 S
C292 C297 1.379 . S
C292 N299 1.356 . S
C293 C292 1.363 1_545 S
C293 C296 1.363 . S
N294 C296 1.356 . S
N294 H306 0.984 . S
N294 H307 0.985 . S
N295 C297 1.356 . S
N295 H300 0.984 . S
N295 H301 0.985 . S
C296 C290 1.379 . S
C296 C293 1.363 . S
C296 N294 1.356 . S
C297 C291 1.363 1_565 S
C297 C292 1.379 . S
C297 N295 1.356 . S
N298 C290 1.356 . S
N298 H304 0.984 . S
N298 H305 0.984 . S
N299 C292 1.356 . S
N299 H302 0.984 . S
N299 H303 0.985 . S
H300 N295 0.984 . S
H301 N295 0.985 . S
H302 N299 0.984 . S
H303 N299 0.985 . S
H304 N298 0.984 . S
H305 N298 0.984 . S
H306 N294 0.984 . S
H307 N294 0.985 . S
C308 C309 1.363 1_655 S
C308 C314 1.379 . S
C308 N316 1.356 . S
C309 C308 1.363 1_455 S
C309 C315 1.363 . S
C310 C311 1.363 . S
C310 C315 1.379 . S
C310 N317 1.356 . S
C311 C310 1.363 . S
C311 C314 1.363 1_455 S
N312 C314 1.356 . S
N312 H324 0.984 . S
N312 H325 0.985 . S
N313 C315 1.356 . S
N313 H318 0.984 . S
N313 H319 0.985 . S
C314 C308 1.379 . S
C314 C311 1.363 1_655 S
C314 N312 1.356 . S
C315 C309 1.363 . S
C315 C310 1.379 . S
C315 N313 1.356 . S
N316 C308 1.356 . S
N316 H322 0.984 . S
N316 H323 0.984 . S
N317 C310 1.356 . S
N317 H320 0.984 . S
N317 H321 0.985 . S
H318 N313 0.984 . S
H319 N313 0.985 . S
H320 N317 0.984 . S
H321 N317 0.985 . S
H322 N316 0.984 . S
H323 N316 0.984 . S
H324 N312 0.984 . S
H325 N312 0.985 . S
C326 C327 1.363 1_565 S
C326 C332 1.379 . S
C326 N334 1.356 . S
C327 C326 1.363 1_545 S
C327 C333 1.363 . S
C328 C329 1.363 . S
C328 C333 1.379 . S
C328 N335 1.356 . S
C329 C328 1.363 . S
C329 C332 1.363 1_545 S
N330 C332 1.356 . S
N330 H342 0.984 . S
N330 H343 0.985 . S
N331 C333 1.356 . S
N331 H336 0.984 . S
N331 H337 0.985 . S
C332 C326 1.379 . S
C332 C329 1.363 1_565 S
C332 N330 1.356 . S
C333 C327 1.363 . S
C333 C328 1.379 . S
C333 N331 1.356 . S
N334 C326 1.356 . S
N334 H340 0.984 . S
N334 H341 0.984 . S
N335 C328 1.356 . S
N335 H338 0.984 . S
N335 H339 0.985 . S
H336 N331 0.984 . S
H337 N331 0.985 . S
H338 N335 0.984 . S
H339 N335 0.985 . S
H340 N334 0.984 . S
H341 N334 0.984 . S
H342 N330 0.984 . S
H343 N330 0.985 . S
C344 C345 1.363 . S
C344 C350 1.379 . S
C344 N352 1.356 . S
C345 C344 1.363 . S
C345 C351 1.363 . S
C346 C347 1.363 . S
C346 C351 1.379 . S
C346 N353 1.356 1_455 S
C347 C346 1.363 . S
C347 C350 1.363 . S
N348 C350 1.356 . S
N348 H360 0.984 . S
N348 H361 0.985 . S
N349 C351 1.356 1_655 S
N349 H354 0.984 1_655 S
N349 H355 0.985 . S
C350 C344 1.379 . S
C350 C347 1.363 . S
C350 N348 1.356 . S
C351 C345 1.363 . S
C351 C346 1.379 . S
C351 N349 1.356 1_455 S
N352 C344 1.356 . S
N352 H358 0.984 . S
N352 H359 0.984 . S
N353 C346 1.356 1_655 S
N353 H356 0.984 . S
N353 H357 0.985 . S
H354 N349 0.984 1_455 S
H355 N349 0.985 . S
H356 N353 0.984 . S
H357 N353 0.985 . S
H358 N352 0.984 . S
H359 N352 0.984 . S
H360 N348 0.984 . S
H361 N348 0.985 . S
C221 C91 1.551 . S
C219 C17 1.447 . S
C239 C179 1.540 . S
C237 C40 1.468 . S
C257 C99 1.552 . S
C255 C9 1.466 . S
C275 C187 1.544 . S
C273 C33 1.434 . S
C293 C159 1.540 . S
C291 C19 1.468 . S
C311 C62 1.551 . S
C309 C38 1.447 . S
C329 C150 1.544 . S
C327 C12 1.434 . S
C345 C30 1.466 . S
C347 C71 1.552 . S
