# Generated by pormake.
# Topology zzz, (3,6)-cn, num edge types: 1
# Building blocks:
#     Node 0, Type 0, BuildingBlock: BELTOD_clean_linker_0, # of connection points: 3
#     Node 1, Type 0, BuildingBlock: BELTOD_clean_linker_0, # of connection points: 3
#     Node 2, Type 0, BuildingBlock: BELTOD_clean_linker_0, # of connection points: 3
#     Node 3, Type 0, BuildingBlock: BELTOD_clean_linker_0, # of connection points: 3
#     Node 4, Type 0, BuildingBlock: BELTOD_clean_linker_0, # of connection points: 3
#     Node 5, Type 0, BuildingBlock: BELTOD_clean_linker_0, # of connection points: 3
#     Node 6, Type 0, BuildingBlock: BELTOD_clean_linker_0, # of connection points: 3
#     Node 7, Type 0, BuildingBlock: BELTOD_clean_linker_0, # of connection points: 3
#     Node 8, Type 1, BuildingBlock: BETFEN_clean_sbu_0, # of connection points: 6
#     Node 9, Type 1, BuildingBlock: BETFEN_clean_sbu_0, # of connection points: 6
#     Node 10, Type 1, BuildingBlock: BETFEN_clean_sbu_0, # of connection points: 6
#     Node 11, Type 1, BuildingBlock: BETFEN_clean_sbu_0, # of connection points: 6
#     Edge 12, Type (0, 1), BuildingBlock: EZIPEK_clean_linker_0, # of connection points: 2
#     Edge 13, Type (0, 1), BuildingBlock: EZIPEK_clean_linker_0, # of connection points: 2
#     Edge 14, Type (0, 1), BuildingBlock: EZIPEK_clean_linker_0, # of connection points: 2
#     Edge 15, Type (0, 1), BuildingBlock: EZIPEK_clean_linker_0, # of connection points: 2
#     Edge 16, Type (0, 1), BuildingBlock: EZIPEK_clean_linker_0, # of connection points: 2
#     Edge 17, Type (0, 1), BuildingBlock: EZIPEK_clean_linker_0, # of connection points: 2
#     Edge 18, Type (0, 1), BuildingBlock: EZIPEK_clean_linker_0, # of connection points: 2
#     Edge 19, Type (0, 1), BuildingBlock: EZIPEK_clean_linker_0, # of connection points: 2
#     Edge 20, Type (0, 1), BuildingBlock: EZIPEK_clean_linker_0, # of connection points: 2
#     Edge 21, Type (0, 1), BuildingBlock: EZIPEK_clean_linker_0, # of connection points: 2
#     Edge 22, Type (0, 1), BuildingBlock: EZIPEK_clean_linker_0, # of connection points: 2
#     Edge 23, Type (0, 1), BuildingBlock: EZIPEK_clean_linker_0, # of connection points: 2
#     Edge 24, Type (0, 1), BuildingBlock: EZIPEK_clean_linker_0, # of connection points: 2
#     Edge 25, Type (0, 1), BuildingBlock: EZIPEK_clean_linker_0, # of connection points: 2
#     Edge 26, Type (0, 1), BuildingBlock: EZIPEK_clean_linker_0, # of connection points: 2
#     Edge 27, Type (0, 1), BuildingBlock: EZIPEK_clean_linker_0, # of connection points: 2
#     Edge 28, Type (0, 1), BuildingBlock: EZIPEK_clean_linker_0, # of connection points: 2
#     Edge 29, Type (0, 1), BuildingBlock: EZIPEK_clean_linker_0, # of connection points: 2
#     Edge 30, Type (0, 1), BuildingBlock: EZIPEK_clean_linker_0, # of connection points: 2
#     Edge 31, Type (0, 1), BuildingBlock: EZIPEK_clean_linker_0, # of connection points: 2
#     Edge 32, Type (0, 1), BuildingBlock: EZIPEK_clean_linker_0, # of connection points: 2
#     Edge 33, Type (0, 1), BuildingBlock: EZIPEK_clean_linker_0, # of connection points: 2
#     Edge 34, Type (0, 1), BuildingBlock: EZIPEK_clean_linker_0, # of connection points: 2
#     Edge 35, Type (0, 1), BuildingBlock: EZIPEK_clean_linker_0, # of connection points: 2
# Relax obj value: 0.508
# Max RMSD: 0.249
# Mean RMSD: 0.245
data_MOF--net-zzz--node1-BETFEN_clean_sbu_0--node2-BELTOD_clean_linker_0--edge1-EZIPEK_clean_linker_0
_symmetry_space_group_name_H-M    P1
_symmetry_Int_Tables_number       1
_symmetry_cell_setting            triclinic
loop_
_symmetry_equiv_pos_as_xyz
'x, y, z'
_cell_length_a     42.566881
_cell_length_b     42.667427
_cell_length_c     13.338244
_cell_angle_alpha  89.579664
_cell_angle_beta   89.888556
_cell_angle_gamma 89.988522
loop_
_atom_site_label
_atom_site_type_symbol
_atom_site_fract_x
_atom_site_fract_y
_atom_site_fract_z
_atom_type_partial_charge
P0 P 0.70535 0.47873 0.50748 0.0
H1 H 0.74528 0.4522 0.66409 0.0
H2 H 0.79812 0.46091 0.71052 0.0
H3 H 0.79831 0.54736 0.54118 0.0
H4 H 0.74458 0.53763 0.49258 0.0
H5 H 0.65503 0.44005 0.43297 0.0
H6 H 0.61685 0.4471 0.30033 0.0
H7 H 0.63683 0.54599 0.29256 0.0
H8 H 0.67469 0.53911 0.43129 0.0
H9 H 0.74485 0.42663 0.44671 0.0
H10 H 0.71734 0.5176 0.33161 0.0
O11 O 0.69746 0.44443 0.56331 0.0
H12 H 0.78651 0.42469 0.32033 0.0
H13 H 0.75751 0.51469 0.2039 0.0
C14 C 0.73882 0.49518 0.57934 0.0
C15 C 0.75546 0.47452 0.64286 0.0
C16 C 0.78676 0.48007 0.67206 0.0
C17 C 0.80335 0.50777 0.64521 0.0
C18 C 0.78673 0.52791 0.57763 0.0
C19 C 0.75521 0.52213 0.54741 0.0
C20 C 0.66807 0.48906 0.44493 0.0
C21 C 0.65037 0.46374 0.40747 0.0
C22 C 0.62865 0.46761 0.32943 0.0
C23 C 0.62411 0.49695 0.28346 0.0
C24 C 0.63984 0.52294 0.32557 0.0
C25 C 0.66134 0.51909 0.40599 0.0
C26 C 0.72736 0.47174 0.39684 0.0
C27 C 0.74655 0.44527 0.39147 0.0
C28 C 0.77025 0.44425 0.3201 0.0
C29 C 0.77455 0.46961 0.25428 0.0
C30 C 0.7539 0.4949 0.25401 0.0
C31 C 0.73065 0.49619 0.32631 0.0
P32 P 0.03127 0.70555 0.51339 0.0
H33 H 0.0558 0.74052 0.6871 0.0
H34 H 0.0468 0.79426 0.74123 0.0
H35 H 0.96273 0.79828 0.56345 0.0
H36 H 0.97147 0.74398 0.50913 0.0
H37 H 0.07064 0.67151 0.37735 0.0
H38 H 0.06192 0.63315 0.24675 0.0
H39 H 0.96655 0.62107 0.34812 0.0
H40 H 0.97499 0.6614 0.47868 0.0
H41 H 0.07928 0.75012 0.45056 0.0
H42 H 0.98947 0.71642 0.34561 0.0
O43 O 0.067 0.69885 0.56046 0.0
H44 H 0.07959 0.78928 0.31554 0.0
H45 H 0.99022 0.75517 0.21 0.0
C46 C 0.01434 0.73699 0.59323 0.0
C47 C 0.03447 0.752 0.6625 0.0
C48 C 0.02957 0.78328 0.69323 0.0
C49 C 1.00417 0.80102 0.65644 0.0
C50 C 0.98256 0.78546 0.59369 0.0
C51 C 0.9874 0.75399 0.56327 0.0
C52 C 0.02363 0.66964 0.44008 0.0
C53 C 0.04784 0.66028 0.37404 0.0
C54 C 0.0429 0.63825 0.2982 0.0
C55 C 0.01348 0.62408 0.28531 0.0
C56 C 0.98954 0.63165 0.35543 0.0
C57 C 0.99436 0.65459 0.43091 0.0
C58 C 0.03483 0.73007 0.40595 0.0
C59 C 0.06029 0.75045 0.39669 0.0
C60 C 0.06043 0.77261 0.3202 0.0
C61 C 0.03512 0.7744 0.25335 0.0
C62 C 1.01008 0.75342 0.26042 0.0
C63 C 1.00982 0.73144 0.33733 0.0
P64 P 0.809 0.02824 0.4899 0.0
H65 H 0.78039 0.05239 0.67317 0.0
H66 H 0.72861 0.04809 0.72972 0.0
H67 H 0.71678 0.96285 0.56113 0.0
H68 H 0.76931 0.96999 0.49444 0.0
H69 H 0.86393 0.06706 0.44187 0.0
H70 H 0.90353 0.06162 0.31248 0.0
H71 H 0.88104 0.96368 0.28633 0.0
H72 H 0.84124 0.96887 0.41987 0.0
H73 H 0.74695 0.0531 0.46213 0.0
H74 H 0.81601 1.00701 0.27492 0.0
O75 O 0.8126 0.06547 0.52611 0.0
H76 H 0.71002 0.05148 0.3246 0.0
H77 H 0.7797 1.00784 0.1364 0.0
C78 C 0.78049 0.01108 0.58051 0.0
C79 C 0.7678 0.03137 0.6527 0.0
C80 C 0.73682 0.02819 0.6887 0.0
C81 C 0.71711 1.00249 0.66373 0.0
C82 C 0.73069 0.98141 0.59315 0.0
C83 C 0.76158 0.98532 0.55392 0.0
C84 C 0.84853 0.01847 0.44142 0.0
C85 C 0.86799 0.04385 0.41248 0.0
C86 C 0.8907 0.04095 0.33649 0.0
C87 C 0.89466 0.0126 0.28518 0.0
C88 C 0.87815 0.98613 0.32245 0.0
C89 C 0.85569 0.98892 0.40076 0.0
C90 C 0.78439 0.02981 0.38113 0.0
C91 C 0.75432 0.04249 0.39246 0.0
C92 C 0.73314 0.04131 0.31435 0.0
C93 C 0.74227 0.02914 0.22146 0.0
C94 C 0.77226 0.01666 0.20861 0.0
C95 C 0.79316 0.01665 0.28858 0.0
P96 P 0.48 0.81272 0.51711 0.0
H97 H 0.45943 0.77929 0.70033 0.0
H98 H 0.46866 0.72525 0.75347 0.0
H99 H 0.54872 0.72026 0.55712 0.0
H100 H 0.53954 0.77478 0.50299 0.0
H101 H 0.44026 0.85063 0.3913 0.0
H102 H 0.45006 0.88756 0.25503 0.0
H103 H 0.54727 0.89328 0.34202 0.0
H104 H 0.53774 0.85398 0.4766 0.0
H105 H 0.43618 0.76223 0.4773 0.0
H106 H 0.51601 0.80605 0.33209 0.0
O107 O 0.44468 0.81911 0.56779 0.0
H108 H 0.43591 0.72208 0.34709 0.0
H109 H 0.51415 0.76732 0.19949 0.0
C110 C 0.49875 0.7822 0.59684 0.0
C111 C 0.48003 0.76753 0.67145 0.0
C112 C 0.48503 0.7361 0.7015 0.0
C113 C 0.50915 0.71801 0.65867 0.0
C114 C 0.52982 0.73336 0.59153 0.0
C115 C 0.52483 0.76496 0.56155 0.0
C116 C 0.48817 0.84918 0.44603 0.0
C117 C 0.4637 0.86029 0.38377 0.0
C118 C 0.46931 0.88137 0.30439 0.0
C119 C 0.49958 0.8931 0.28539 0.0
C120 C 0.52372 0.88435 0.35332 0.0
C121 C 0.51825 0.86216 0.43151 0.0
C122 C 0.47511 0.78786 0.41186 0.0
C123 C 0.45269 0.76399 0.41564 0.0
C124 C 0.45272 0.74111 0.34232 0.0
C125 C 0.47492 0.7423 0.2647 0.0
C126 C 0.4968 0.76654 0.259 0.0
C127 C 0.49738 0.78885 0.33383 0.0
P128 P 0.30798 0.47934 0.05768 0.0
H129 H 0.27322 0.44704 0.89876 0.0
H130 H 0.22163 0.45611 0.83362 0.0
H131 H 0.22498 0.55019 0.95231 0.0
H132 H 0.27561 0.53993 0.01912 0.0
H133 H 0.36792 0.44592 0.07931 0.0
H134 H 0.41005 0.45558 0.19731 0.0
H135 H 0.37952 0.55118 0.22736 0.0
H136 H 0.33813 0.5421 0.10176 0.0
H137 H 0.24514 0.45893 0.11311 0.0
H138 H 0.31904 0.51105 0.25751 0.0
O139 O 0.3106 0.44061 0.04288 0.0
H140 H 0.2068 0.48445 0.22202 0.0
H141 H 0.2808 0.53935 0.35397 0.0
C142 C 0.27977 0.4931 0.96184 0.0
C143 C 0.26375 0.47046 0.90519 0.0
C144 C 0.23344 0.47597 0.86634 0.0
C145 C 0.21778 0.50516 0.87602 0.0
C146 C 0.23479 0.5281 0.93151 0.0
C147 C 0.26508 0.52236 0.97152 0.0
C148 C 0.34836 0.4928 0.08415 0.0
C149 C 0.37093 0.46959 0.10612 0.0
C150 C 0.39522 0.47502 0.17491 0.0
C151 C 0.39748 0.50375 0.22513 0.0
C152 C 0.37822 0.52858 0.19121 0.0
C153 C 0.35463 0.52343 0.118 0.0
C154 C 0.28489 0.48507 0.1696 0.0
C155 C 0.25339 0.47544 0.16841 0.0
C156 C 0.23146 0.49017 0.2298 0.0
C157 C 0.24103 0.51453 0.29288 0.0
C158 C 0.27295 0.52118 0.3035 0.0
C159 C 0.29484 0.50554 0.24513 0.0
P160 P 0.04692 0.30723 0.04579 0.0
H161 H 0.07037 0.27765 0.86028 0.0
H162 H 0.06297 0.2239 0.80282 0.0
H163 H 0.9803 0.21549 0.98704 0.0
H164 H 0.98745 0.2698 0.04408 0.0
H165 H 0.08354 0.35625 0.13412 0.0
H166 H 0.0704 0.39486 0.25863 0.0
H167 H 0.97227 0.38422 0.19054 0.0
H168 H 0.98549 0.34341 0.0661 0.0
H169 H 0.07282 0.24652 0.09666 0.0
H170 H 0.01662 0.31655 0.24688 0.0
O171 O 0.08469 0.31025 0.0131 0.0
H172 H 0.05036 0.20647 0.2072 0.0
H173 H 0.99542 0.27692 0.35732 0.0
C174 C 0.02973 0.27848 0.95837 0.0
C175 C 0.04973 0.26508 0.88564 0.0
C176 C 0.04588 0.23384 0.85374 0.0
C177 C 0.02173 0.21484 0.89294 0.0
C178 C 0.99957 0.22918 0.95676 0.0
C179 C 1.00329 0.26065 0.98792 0.0
C180 C 0.03571 0.34655 0.08857 0.0
C181 C 0.05911 0.36293 0.14123 0.0
C182 C 0.05154 0.38504 0.21438 0.0
C183 C 0.02018 0.39254 0.2363 0.0
C184 C 0.99667 0.37899 0.17547 0.0
C185 C 1.00426 0.35593 0.10302 0.0
C186 C 0.04542 0.28437 0.15926 0.0
C187 C 0.05689 0.25364 0.15567 0.0
C188 C 0.04384 0.23077 0.21774 0.0
C189 C 0.02036 0.23893 0.28656 0.0
C190 C 0.01284 0.27035 0.30197 0.0
C191 C 0.02517 0.29302 0.23798 0.0
P192 P 0.2134 0.05032 0.05518 0.0
H193 H 0.25442 0.0887 0.93201 0.0
H194 H 0.30718 0.07849 0.87788 0.0
H195 H 0.28846 0.97918 0.88159 0.0
H196 H 0.23713 0.98962 0.96235 0.0
H197 H 0.15163 0.08031 0.07525 0.0
H198 H 0.11105 0.0689 0.19815 0.0
H199 H 0.14638 0.97487 0.23124 0.0
H200 H 0.18728 0.98614 0.10491 0.0
H201 H 0.27924 0.0658 0.103 0.0
H202 H 0.20138 0.02473 0.2639 0.0
O203 O 0.2087 0.0891 0.0468 0.0
H204 H 0.31559 0.03723 0.20981 0.0
H205 H 0.23779 0.99595 0.3699 0.0
C206 C 0.24105 0.04012 0.95372 0.0
C207 C 0.26085 0.06448 0.92008 0.0
C208 C 0.29172 0.05861 0.88892 0.0
C209 C 0.30306 0.02794 0.87588 0.0
C210 C 0.28129 1.00323 0.89332 0.0
C211 C 0.25132 1.00916 0.9367 0.0
C212 C 0.17395 0.03465 0.08311 0.0
C213 C 0.1502 0.05665 0.10458 0.0
C214 C 0.12683 0.05024 0.17617 0.0
C215 C 0.1264 0.02155 0.22831 0.0
C216 C 0.14655 0.99754 0.19421 0.0
C217 C 0.16973 1.00385 0.12019 0.0
C218 C 0.23741 0.04369 0.16476 0.0
C219 C 0.26968 0.05024 0.15922 0.0
C220 C 0.29054 0.03423 0.22087 0.0
C221 C 0.27902 0.01296 0.29203 0.0
C222 C 0.2468 0.01095 0.31063 0.0
C223 C 0.22602 0.02693 0.24826 0.0
P224 P 0.48659 0.21063 0.0436 0.0
H225 H 0.46173 0.23853 0.85605 0.0
H226 H 0.46672 0.29263 0.79655 0.0
H227 H 0.54989 0.30399 0.97517 0.0
H228 H 0.54534 0.24933 0.0337 0.0
H229 H 0.4485 0.16504 0.14463 0.0
H230 H 0.46059 0.12609 0.27008 0.0
H231 H 0.55811 0.12842 0.18305 0.0
H232 H 0.54601 0.16995 0.0579 0.0
H233 H 0.45792 0.26902 0.10367 0.0
H234 H 0.52643 0.20427 0.22566 0.0
O235 O 0.44828 0.209 0.01738 0.0
H236 H 0.4785 0.30975 0.21368 0.0
H237 H 0.54568 0.2443 0.33585 0.0
C238 C 0.5027 0.23926 0.95222 0.0
C239 C 0.48198 0.25187 0.87977 0.0
C240 C 0.48445 0.28328 0.84665 0.0
C241 C 0.50788 0.3032 0.88442 0.0
C242 C 0.53101 0.2896 0.94662 0.0
C243 C 0.52874 0.25795 0.97869 0.0
C244 C 0.49614 0.17103 0.09019 0.0
C245 C 0.47247 0.15667 0.14832 0.0
C246 C 0.47946 0.13433 0.22204 0.0
C247 C 0.51042 0.12458 0.23965 0.0
C248 C 0.53399 0.13588 0.17323 0.0
C249 C 0.527 0.15922 0.09984 0.0
C250 C 0.49057 0.23351 0.15499 0.0
C251 C 0.47608 0.26297 0.1572 0.0
C252 C 0.48799 0.28623 0.21898 0.0
C253 C 0.51389 0.27979 0.2804 0.0
C254 C 0.52586 0.24945 0.28759 0.0
C255 C 0.51448 0.22646 0.22438 0.0
Pr256 Pr 0.03796 1.00338 0.81157 0.0
Pr257 Pr 0.98062 0.01354 0.70271 0.0
C258 C 0.07505 0.98099 0.95788 0.0
C259 C 0.07202 0.94881 0.99532 0.0
C260 C 0.0971 0.9319 0.03721 0.0
C261 C 0.09267 0.90038 0.0648 0.0
C262 C 0.06354 0.88589 0.04725 0.0
C263 C 0.03937 0.9025 1.00129 0.0
C264 C 0.04347 0.93372 0.97768 0.0
C265 C 0.06035 0.01253 0.6162 0.0
C266 C 0.99996 0.9392 0.71581 0.0
C267 C 0.94258 0.03767 0.56079 0.0
C268 C 0.94555 0.06706 0.50171 0.0
C269 C 0.92892 0.09393 0.53124 0.0
C270 C 0.93703 0.12333 0.49251 0.0
C271 C 0.96149 0.12615 0.4226 0.0
C272 C 0.97576 0.09912 0.38462 0.0
C273 C 0.96801 0.06975 0.42427 0.0
C274 C 0.96571 1.00032 0.90446 0.0
C275 C 0.01717 0.07762 0.80191 0.0
O276 O 0.05092 0.99912 0.9762 0.0
O277 O 0.08416 0.98275 0.86477 0.0
O278 O 0.03125 0.01301 0.63945 0.0
O279 O 0.07803 0.01014 0.6947 0.0
O280 O 0.97946 0.95873 0.67584 0.0
O281 O 0.02304 0.95051 0.77085 0.0
O282 O 0.96339 0.01595 0.54245 0.0
O283 O 0.93713 0.04081 0.65666 0.0
O284 O 0.98841 0.01752 0.87395 0.0
O285 O 0.95043 0.989 0.82818 0.0
O286 O 0.0409 0.05875 0.8241 0.0
O287 O 0.99177 0.06525 0.76078 0.0
H288 H 0.11957 0.94307 0.04985 0.0
H289 H 0.11132 0.88771 0.10253 0.0
H290 H 0.01658 0.89182 0.99106 0.0
H291 H 0.02408 0.94646 0.94637 0.0
H292 H 0.91121 0.09252 0.58947 0.0
H293 H 0.92553 0.14405 0.52139 0.0
H294 H 0.99441 0.10099 0.32947 0.0
H295 H 0.98093 0.0495 0.39822 0.0
Pr296 Pr 0.51363 0.03979 0.83449 0.0
Pr297 Pr 0.50308 0.98032 0.69496 0.0
C298 C 0.5326 0.07344 0.99059 0.0
C299 C 0.56513 0.07432 0.02744 0.0
C300 C 0.58818 0.09046 0.97173 0.0
C301 C 0.6198 0.08391 0.98623 0.0
C302 C 0.629 0.06196 0.0589 0.0
C303 C 0.60627 0.04754 0.11991 0.0
C304 C 0.57451 0.05367 0.10435 0.0
C305 C 0.51181 0.06149 0.63296 0.0
C306 C 0.57746 1.0025 0.73104 0.0
C307 C 0.48003 0.94367 0.55112 0.0
C308 C 0.44815 0.94517 0.50766 0.0
C309 C 0.42582 0.92166 0.52855 0.0
C310 C 0.39445 0.92566 0.49947 0.0
C311 C 0.38539 0.95303 0.44835 0.0
C312 C 0.40776 0.97591 0.42492 0.0
C313 C 0.43867 0.97211 0.45513 0.0
C314 C 0.50944 0.95916 0.89659 0.0
C315 C 0.43981 0.01861 0.79382 0.0
O316 O 0.51825 0.04653 1.00183 0.0
O317 O 0.52795 0.086 0.90212 0.0
O318 O 0.50866 0.03321 0.66306 0.0
O319 O 0.51398 0.07958 0.71041 0.0
O320 O 0.55824 0.9864 0.67192 0.0
O321 O 0.56579 0.02051 0.80364 0.0
O322 O 0.49904 0.96715 0.53128 0.0
O323 O 0.48092 0.93492 0.64494 0.0
O324 O 0.51045 0.98717 0.86405 0.0
O325 O 0.50714 0.94077 0.82009 0.0
O326 O 0.45851 0.03622 0.84904 0.0
O327 O 0.45108 0.99887 0.72631 0.0
H328 H 0.58185 0.10669 0.91232 0.0
H329 H 0.63707 0.09573 0.93981 0.0
H330 H 0.61308 0.03068 0.17703 0.0
H331 H 0.55728 0.04083 0.14823 0.0
H332 H 0.43241 0.90081 0.57027 0.0
H333 H 0.3772 0.90796 0.51883 0.0
H334 H 0.40109 0.99718 0.38537 0.0
H335 H 0.45534 0.99016 0.43641 0.0
Pr336 Pr 0.47815 0.51386 0.81732 0.0
Pr337 Pr 0.53998 0.50751 0.69563 0.0
C338 C 0.44163 0.53571 0.96369 0.0
C339 C 0.44461 0.56803 0.9984 0.0
C340 C 0.41984 0.58407 0.04434 0.0
C341 C 0.42426 0.61497 0.07565 0.0
C342 C 0.45277 0.63032 0.05494 0.0
C343 C 0.47629 0.61512 1.00103 0.0
C344 C 0.47261 0.58394 0.97675 0.0
C345 C 0.46016 0.50662 0.61685 0.0
C346 C 0.51339 0.57994 0.71958 0.0
C347 C 0.57377 0.48766 0.53873 0.0
C348 C 0.57245 0.457 0.48803 0.0
C349 C 0.59111 0.43192 0.52252 0.0
C350 C 0.58578 0.40158 0.48833 0.0
C351 C 0.56166 0.39595 0.41976 0.0
C352 C 0.54458 0.42106 0.3793 0.0
C353 C 0.54992 0.45143 0.4131 0.0
C354 C 0.55932 0.51155 0.89513 0.0
C355 C 0.50505 0.44138 0.79979 0.0
O356 O 0.46595 0.51774 0.98225 0.0
O357 O 0.43176 0.53349 0.87154 0.0
O358 O 0.48817 0.50709 0.64991 0.0
O359 O 0.44045 0.50759 0.69121 0.0
O360 O 0.53693 0.56293 0.68426 0.0
O361 O 0.4896 0.56657 0.76747 0.0
O362 O 0.54907 0.50564 0.52858 0.0
O363 O 0.58465 0.48737 0.63029 0.0
O364 O 0.53062 0.51241 0.86613 0.0
O365 O 0.57839 0.51217 0.81881 0.0
O366 O 0.48088 0.45862 0.82941 0.0
O367 O 0.52872 0.45514 0.75142 0.0
H368 H 0.39753 0.57273 0.05711 0.0
H369 H 0.40582 0.62671 0.11699 0.0
H370 H 0.4984 0.62672 0.98453 0.0
H371 H 0.49194 0.57205 0.94202 0.0
H372 H 0.60885 0.43546 0.57941 0.0
H373 H 0.59942 0.38232 0.51883 0.0
H374 H 0.52611 0.4169 0.3252 0.0
H375 H 0.53538 0.47024 0.38405 0.0
Pr376 Pr 1.00726 0.47781 0.82097 0.0
Pr377 Pr 0.01665 0.53831 0.69837 0.0
C378 C 0.98589 0.43971 0.9646 0.0
C379 C 0.95513 0.44353 0.01062 0.0
C380 C 0.93761 0.41745 0.04161 0.0
C381 C 0.90691 0.42142 0.07562 0.0
C382 C 0.89287 0.45113 0.07079 0.0
C383 C 0.9098 0.47686 0.03399 0.0
C384 C 0.94099 0.47325 1.00674 0.0
C385 C 0.01408 0.45745 0.62247 0.0
C386 C 0.94315 0.5134 0.71278 0.0
C387 C 0.0395 0.57857 0.56159 0.0
C388 C 0.07131 0.57715 0.51924 0.0
C389 C 0.08913 0.60427 0.50142 0.0
C390 C 0.12037 0.60177 0.46901 0.0
C391 C 0.13388 0.57203 0.45614 0.0
C392 C 0.11646 0.54512 0.47845 0.0
C393 C 0.0856 0.5478 0.5102 0.0
C394 C 1.00661 0.55741 0.90001 0.0
C395 C 0.08081 0.50163 0.79579 0.0
O396 O 1.00631 0.46187 0.98335 0.0
O397 O 0.98429 0.43259 0.8699 0.0
O398 O 0.01499 0.48615 0.6495 0.0
O399 O 0.01297 0.43906 0.69989 0.0
O400 O 0.96275 0.53149 0.66168 0.0
O401 O 0.95466 0.49531 0.78565 0.0
O402 O 0.02054 0.55561 0.53755 0.0
O403 O 0.03889 0.5848 0.65697 0.0
O404 O 1.00698 0.52936 0.86824 0.0
O405 O 1.00893 0.57625 0.82384 0.0
O406 O 0.06229 0.4819 0.84507 0.0
O407 O 0.06911 0.52246 0.73227 0.0
H408 H 0.94744 0.39412 0.03805 0.0
H409 H 0.89395 0.40142 0.10432 0.0
H410 H 0.8992 0.49995 0.03041 0.0
H411 H 0.95389 0.49361 0.98058 0.0
H412 H 0.07919 0.62715 0.51497 0.0
H413 H 0.1339 0.62277 0.45378 0.0
H414 H 0.12679 0.52201 0.47129 0.0
H415 H 0.07294 0.52699 0.53041 0.0
C416 C 0.08157 0.99933 0.33627 0.0
C417 C 0.10841 0.01896 0.32635 0.0
C418 C 0.09856 0.03887 0.49734 0.0
C419 C 0.07407 0.01672 0.512 0.0
N420 N 0.04411 0.97365 0.44726 0.0
N421 N 0.14569 0.05334 0.40637 0.0
C422 C 0.06592 0.99651 0.43149 0.0
C423 C 0.11773 0.03761 0.40943 0.0
N424 N 0.07057 0.98391 0.25409 0.0
N425 N 0.10277 0.06216 0.56588 0.0
H426 H 0.16071 0.053 0.34466 0.0
H427 H 0.15545 0.06425 0.46857 0.0
H428 H 0.0884 0.06475 0.62873 0.0
H429 H 0.11804 0.08094 0.55464 0.0
H430 H 0.04936 0.97178 0.2527 0.0
H431 H 0.08163 0.98526 0.18442 0.0
H432 H 0.03948 0.95581 0.39657 0.0
H433 H 0.03214 0.9715 0.51487 0.0
C434 C 0.49885 0.07685 0.34886 0.0
C435 C 0.51683 0.10452 0.33239 0.0
C436 C 0.53798 0.09769 0.50388 0.0
C437 C 0.51544 0.07374 0.52596 0.0
N438 N 0.46908 0.0468 0.4701 0.0
N439 N 0.55039 0.14403 0.40532 0.0
C440 C 0.4947 0.06468 0.44825 0.0
C441 C 0.53586 0.11554 0.41256 0.0
N442 N 0.48557 0.062 0.26924 0.0
N443 N 0.56185 0.10332 0.56948 0.0
H444 H 0.54894 0.1585 0.34241 0.0
H445 H 0.56147 0.15469 0.46573 0.0
H446 H 0.56474 0.09057 0.63552 0.0
H447 H 0.58062 0.11819 0.55301 0.0
H448 H 0.47426 0.0404 0.27626 0.0
H449 H 0.48889 0.06972 0.19552 0.0
H450 H 0.45081 0.04387 0.419 0.0
H451 H 0.46456 0.03779 0.54151 0.0
C452 C 0.44327 0.52307 0.33527 0.0
C453 C 0.41525 0.50513 0.32366 0.0
C454 C 0.42367 0.4825 0.4921 0.0
C455 C 0.44913 0.50318 0.50969 0.0
N456 N 0.4832 0.54405 0.44715 0.0
N457 N 0.37538 0.47303 0.40239 0.0
C458 C 0.45914 0.52361 0.43064 0.0
C459 C 0.40459 0.48631 0.40533 0.0
N460 N 0.45505 0.539 0.2545 0.0
N461 N 0.41831 0.45818 0.55717 0.0
H462 H 0.35997 0.47602 0.34242 0.0
H463 H 0.36511 0.46189 0.46402 0.0
H464 H 0.43281 0.45355 0.61855 0.0
H465 H 0.40203 0.4405 0.54345 0.0
H466 H 0.47669 0.55034 0.2537 0.0
H467 H 0.44386 0.53899 0.18525 0.0
H468 H 0.48925 0.56218 0.3982 0.0
H469 H 0.49642 0.54377 0.51271 0.0
C470 C 0.02976 0.44119 0.34165 0.0
C471 C 0.01312 0.41259 0.32769 0.0
C472 C 0.98997 0.42018 0.49596 0.0
C473 C 0.01173 0.44469 0.51684 0.0
N474 N 0.05806 0.47207 0.4627 0.0
N475 N 0.98094 0.37217 0.40514 0.0
C476 C 0.03289 0.45386 0.43997 0.0
C477 C 0.99384 0.40146 0.4081 0.0
N478 N 0.04291 0.45618 0.26126 0.0
N479 N 0.96536 0.41477 0.55955 0.0
H480 H 0.98453 0.35659 0.34665 0.0
H481 H 0.96941 0.362 0.46623 0.0
H482 H 0.96109 0.42854 0.62234 0.0
H483 H 0.94732 0.39907 0.54347 0.0
H484 H 0.05336 0.47821 0.26683 0.0
H485 H 0.04021 0.4481 0.1881 0.0
H486 H 0.07557 0.4777 0.41085 0.0
H487 H 0.06343 0.47756 0.53666 0.0
C488 C 0.93971 0.98968 0.18149 0.0
C489 C 0.91441 0.01122 0.18963 0.0
C490 C 0.92729 0.03008 0.01754 0.0
C491 C 0.94913 1.00511 1.00456 0.0
N492 N 0.9697 0.95667 0.07032 0.0
N493 N 0.88076 0.04858 0.10455 0.0
C494 C 0.95363 0.98377 0.08574 0.0
C495 C 0.90745 0.03075 0.10488 0.0
N496 N 0.95113 0.97528 0.26557 0.0
N497 N 0.92525 0.05317 0.94636 0.0
H498 H 0.86457 0.04846 0.16322 0.0
H499 H 0.87293 0.0609 0.0417 0.0
H500 H 0.93848 0.05301 0.88052 0.0
H501 H 0.91244 0.07371 0.95673 0.0
H502 H 0.97151 0.96172 0.26524 0.0
H503 H 0.94226 0.97972 0.33704 0.0
H504 H 0.97187 0.93905 0.12438 0.0
H505 H 0.97702 0.95026 0.99919 0.0
C506 C 0.49073 0.94248 0.17706 0.0
C507 C 0.50569 0.91279 0.1909 0.0
C508 C 0.52962 0.9191 0.02233 0.0
C509 C 0.51167 0.94682 1.00386 0.0
N510 N 0.47501 0.98521 0.06568 0.0
N511 N 0.53733 0.87148 0.12119 0.0
C512 C 0.49248 0.95881 0.08239 0.0
C513 C 0.52481 0.90091 0.11217 0.0
N514 N 0.47532 0.95538 0.25622 0.0
N515 N 0.552 0.91055 0.95405 0.0
H516 H 0.53358 0.85697 0.18319 0.0
H517 H 0.54946 0.86008 0.06442 0.0
H518 H 0.55777 0.9244 0.89194 0.0
H519 H 0.56722 0.8917 0.96321 0.0
H520 H 0.4655 0.97768 0.25635 0.0
H521 H 0.47485 0.94433 0.32573 0.0
H522 H 0.45774 0.99349 0.11391 0.0
H523 H 0.47668 0.9985 1.00036 0.0
C524 C 0.57862 0.51963 0.17882 0.0
C525 C 0.60522 0.49949 0.18679 0.0
C526 C 0.594 0.48118 0.01505 0.0
C527 C 0.57149 0.50544 1.0005 0.0
N528 N 0.54581 0.55085 0.06787 0.0
N529 N 0.64138 0.46501 0.10081 0.0
C530 C 0.56445 0.52532 0.0827 0.0
C531 C 0.61365 0.48117 0.1018 0.0
N532 N 0.56635 0.53284 0.26314 0.0
N533 N 0.59625 0.45753 0.94685 0.0
H534 H 0.65764 0.46587 0.15903 0.0
H535 H 0.64987 0.45368 0.03733 0.0
H536 H 0.58149 0.45599 0.8847 0.0
H537 H 0.61008 0.43767 0.95845 0.0
H538 H 0.54523 0.54519 0.26336 0.0
H539 H 0.57563 0.5287 0.33434 0.0
H540 H 0.5418 0.56776 0.12239 0.0
H541 H 0.53723 0.55664 0.99727 0.0
C542 C 0.02391 0.57454 0.18145 0.0
C543 C 1.00783 0.60372 0.19311 0.0
C544 C 0.98471 0.59678 0.02384 0.0
C545 C 1.00331 0.56941 0.00752 0.0
N546 N 0.03894 0.53072 0.07457 0.0
N547 N 0.97372 0.6433 0.12355 0.0
C548 C 0.02213 0.55764 0.08809 0.0
C549 C 0.98823 0.61482 0.11389 0.0
N550 N 0.04071 0.56295 0.26082 0.0
N551 N 0.96318 0.60524 0.95249 0.0
H552 H 0.97687 0.65789 0.18492 0.0
H553 H 0.95964 0.6538 0.06948 0.0
H554 H 0.95768 0.59095 0.89189 0.0
H555 H 0.94876 0.62484 0.95554 0.0
H556 H 0.05235 0.54155 0.26215 0.0
H557 H 0.04182 0.57434 0.32951 0.0
H558 H 0.0554 0.52183 0.12464 0.0
H559 H 0.037 0.51702 0.01083 0.0
C560 C 0.01719 0.19586 0.41119 0.0
C561 C 1.00221 0.21401 0.33637 0.0
C562 C 0.95778 0.17765 0.33174 0.0
C563 C 0.97459 0.15735 0.39699 0.0
N564 N 0.01835 0.14769 0.50833 0.0
N565 N 0.95918 0.22303 0.22176 0.0
C566 C 1.00374 0.16672 0.43995 0.0
C567 C 0.97242 0.20554 0.2971 0.0
N568 N 0.04499 0.20616 0.45075 0.0
N569 N 0.92791 0.17018 0.30276 0.0
H570 H 0.96863 0.24409 0.19579 0.0
H571 H 0.93971 0.21601 0.18062 0.0
H572 H 0.91715 0.14893 0.32076 0.0
H573 H 0.91291 0.18575 0.26622 0.0
H574 H 0.05905 0.1935 0.50002 0.0
H575 H 0.05431 0.22824 0.4343 0.0
H576 H 0.03798 0.15381 0.54994 0.0
H577 H 0.01066 0.12515 0.52515 0.0
C578 C 0.3137 1.00191 0.43679 0.0
C579 C 0.30101 0.99227 0.34464 0.0
C580 C 0.33895 0.94943 0.3341 0.0
C581 C 0.35231 0.96002 0.42486 0.0
N582 N 0.34602 0.98823 0.57873 0.0
N583 N 0.29576 0.95335 0.21563 0.0
C584 C 0.33742 0.98354 0.48168 0.0
C585 C 0.31159 0.96458 0.29693 0.0
N586 N 0.3048 0.02977 0.47783 0.0
N587 N 0.35339 0.92612 0.28157 0.0
H588 H 0.27597 0.96445 0.18594 0.0
H589 H 0.3007 0.93196 0.18212 0.0
H590 H 0.37282 0.91398 0.30936 0.0
H591 H 0.34693 0.91952 0.20954 0.0
H592 H 0.31722 0.04013 0.53573 0.0
H593 H 0.28679 0.04371 0.4488 0.0
H594 H 0.33261 1.00187 0.62686 0.0
H595 H 0.36389 0.97538 0.6134 0.0
C596 C 0.55704 0.31927 0.28134 0.0
C597 C 0.53035 0.30575 0.32873 0.0
C598 C 0.52608 0.34973 0.4423 0.0
C599 C 0.55268 0.36358 0.39482 0.0
N600 N 0.59786 0.35878 0.28643 0.0
N601 N 0.49525 0.30262 0.46968 0.0
C602 C 0.56977 0.34729 0.32037 0.0
C603 C 0.51689 0.31915 0.41488 0.0
N604 N 0.56911 0.30628 0.19608 0.0
N605 N 0.50865 0.36637 0.50955 0.0
H606 H 0.488 0.2801 0.45013 0.0
H607 H 0.48682 0.30982 0.53913 0.0
H608 H 0.51397 0.3893 0.52929 0.0
H609 H 0.48744 0.35853 0.53949 0.0
H610 H 0.58592 0.31719 0.15107 0.0
H611 H 0.56102 0.28525 0.1666 0.0
H612 H 0.61301 0.3462 0.24039 0.0
H613 H 0.60727 0.38 0.31033 0.0
C614 C 0.21394 0.53701 0.44358 0.0
C615 C 0.21738 0.53541 0.33798 0.0
C616 C 0.17096 0.56806 0.31254 0.0
C617 C 0.16605 0.56769 0.41756 0.0
N618 N 0.18555 0.55954 0.58461 0.0
N619 N 0.20684 0.55829 0.17539 0.0
C620 C 0.18895 0.55515 0.48371 0.0
C621 C 0.19834 0.5539 0.27345 0.0
N622 N 0.2337 0.52027 0.50446 0.0
N623 N 0.14851 0.5801 0.24996 0.0
H624 H 0.22741 0.54899 0.14527 0.0
H625 H 0.19537 0.57366 0.12673 0.0
H626 H 0.12858 0.59172 0.27584 0.0
H627 H 0.14879 0.57718 0.17251 0.0
H628 H 0.23351 0.52122 0.58212 0.0
H629 H 0.25044 0.50462 0.47747 0.0
H630 H 0.20138 0.55182 0.63866 0.0
H631 H 0.16733 0.57302 0.61419 0.0
C632 C 0.04992 0.79916 0.09231 0.0
C633 C 0.03384 0.80104 0.18462 0.0
C634 C 0.03611 0.85773 0.18336 0.0
C635 C 0.05489 0.85614 0.09542 0.0
N636 N 0.07653 0.8271 0.95713 0.0
N637 N 1.00224 0.83006 0.30083 0.0
C638 C 0.06062 0.82729 0.04626 0.0
C639 C 0.0236 0.82982 0.22404 0.0
N640 N 0.05472 0.77039 0.0504 0.0
N641 N 0.03127 0.8859 0.22936 0.0
H642 H 0.99298 0.80955 0.33199 0.0
H643 H 0.99154 0.85018 0.32821 0.0
H644 H 0.04151 0.90686 0.20544 0.0
H645 H 0.01837 0.8886 0.29453 0.0
H646 H 0.06635 0.76657 0.98304 0.0
H647 H 0.04573 0.74988 0.08257 0.0
H648 H 0.08171 0.80704 0.91659 0.0
H649 H 0.08482 0.84754 0.92284 0.0
C650 C 0.71565 0.06733 0.11637 0.0
C651 C 0.72171 0.03539 0.13596 0.0
C652 C 0.67169 0.02163 0.06123 0.0
C653 C 0.66236 0.0535 0.07087 0.0
N654 N 0.67648 0.10728 0.10986 0.0
N655 N 0.70719 0.98116 0.12074 0.0
C656 C 0.68476 0.07667 0.09654 0.0
C657 C 0.70061 0.01206 0.10387 0.0
N658 N 0.73825 0.0895 0.12949 0.0
N659 N 0.65312 1.00093 0.01106 0.0
H660 H 0.72868 0.97372 0.14993 0.0
H661 H 0.69093 0.96327 0.10957 0.0
H662 H 0.6322 1.00775 0.97648 0.0
H663 H 0.66013 0.97812 0.9948 0.0
H664 H 0.7616 0.08407 0.14619 0.0
H665 H 0.7616 0.08407 0.14619 0.0
H666 H 0.69279 0.12435 0.13035 0.0
H667 H 0.65338 0.11528 0.10747 0.0
C668 C 0.45133 0.71685 0.11755 0.0
C669 C 0.47509 0.71717 0.19137 0.0
C670 C 0.48453 0.66156 0.17346 0.0
C671 C 0.46024 0.66062 0.1005 0.0
N672 N 0.42299 0.68693 0.99259 0.0
N673 N 0.52074 0.69358 0.26717 0.0
C674 C 0.44442 0.68826 0.06873 0.0
C675 C 0.49403 0.69076 0.21112 0.0
N676 N 0.43539 0.74394 0.09619 0.0
N677 N 0.49683 0.63441 0.21229 0.0
H678 H 0.52797 0.71475 0.2981 0.0
H679 H 0.53731 0.67574 0.27451 0.0
H680 H 0.48918 0.61215 0.19195 0.0
H681 H 0.51237 0.63379 0.27247 0.0
H682 H 0.41612 0.7455 0.04872 0.0
H683 H 0.44162 0.76544 0.12731 0.0
H684 H 0.41108 0.70622 0.9636 0.0
H685 H 0.41783 0.6663 0.95464 0.0
C686 C 0.83039 0.48393 0.24053 0.0
C687 C 0.80333 0.47098 0.19574 0.0
C688 C 0.83435 0.44484 0.06871 0.0
C689 C 0.86185 0.4567 0.11525 0.0
N690 N 0.88694 0.48252 0.25479 0.0
N691 N 0.77761 0.44762 0.05514 0.0
C692 C 0.86015 0.47533 0.20304 0.0
C693 C 0.80472 0.45402 0.10588 0.0
N694 N 0.82744 0.50449 0.31834 0.0
N695 N 0.83651 0.42355 0.99296 0.0
H696 H 0.75557 0.45466 0.08115 0.0
H697 H 0.77712 0.43829 0.98326 0.0
H698 H 0.85777 0.41681 0.96086 0.0
H699 H 0.81732 0.41129 0.96502 0.0
H700 H 0.84599 0.51744 0.34734 0.0
H701 H 0.80581 0.51076 0.34902 0.0
H702 H 0.88714 0.49334 0.32441 0.0
H703 H 0.90925 0.47504 0.23314 0.0
C704 C 0.0394 0.15813 0.92419 0.0
C705 C 0.0204 0.17985 0.87008 0.0
C706 C 0.9999 0.13556 0.76987 0.0
C707 C 0.0184 0.11316 0.82538 0.0
N708 N 0.04773 0.10454 0.97893 0.0
N709 N 0.98602 0.18976 0.73135 0.0
C710 C 0.03631 0.1249 0.90821 0.0
C711 C 1.00125 0.16854 0.79146 0.0
N712 N 0.06091 0.16928 0.991 0.0
N713 N 0.97981 0.12563 0.69747 0.0
H714 H 0.98591 0.21378 0.74525 0.0
H715 H 0.97538 0.18409 0.66364 0.0
H716 H 0.98302 0.10524 0.6568 0.0
H717 H 0.95992 0.13831 0.67711 0.0
H718 H 0.07861 0.15548 0.02225 0.0
H719 H 0.06279 0.19294 0.00908 0.0
H720 H 0.05856 0.11167 0.04485 0.0
H721 H 0.04252 0.08074 0.98043 0.0
C722 C 0.35761 1.00271 0.90698 0.0
C723 C 0.33781 0.02283 0.84823 0.0
C724 C 0.38542 0.04027 0.75288 0.0
C725 C 0.40463 0.01991 0.81099 0.0
N726 N 0.40817 0.97658 0.92653 0.0
N727 N 0.33321 0.05939 0.71007 0.0
C728 C 0.39036 0.99954 0.88257 0.0
C729 C 0.352 0.04119 0.76969 0.0
N730 N 0.34597 0.98844 0.9914 0.0
N731 N 0.39916 0.05763 0.67807 0.0
H732 H 0.30893 0.05638 0.70667 0.0
H733 H 0.3412 0.0769 0.66191 0.0
H734 H 0.42336 0.05783 0.66555 0.0
H735 H 0.3871 0.07121 0.62592 0.0
H736 H 0.35965 0.97574 0.04189 0.0
H737 H 0.32334 0.99195 0.01852 0.0
H738 H 0.39891 0.95851 0.97025 0.0
H739 H 0.43206 0.97378 0.91172 0.0
C740 C 0.52712 0.35162 0.78813 0.0
C741 C 0.50734 0.33837 0.86278 0.0
C742 C 0.48803 0.39188 0.90237 0.0
C743 C 0.506 0.40555 0.82182 0.0
N744 N 0.54639 0.39649 0.69669 0.0
N745 N 0.46441 0.34545 0.97799 0.0
C746 C 0.52644 0.38478 0.76737 0.0
C747 C 0.48631 0.35839 0.91509 0.0
N748 N 0.54485 0.33198 0.73028 0.0
N749 N 0.47538 0.4106 0.97482 0.0
H750 H 0.46362 0.32158 0.99522 0.0
H751 H 0.44547 0.35801 1.00666 0.0
H752 H 0.48047 0.43432 0.98136 0.0
H753 H 0.46406 0.40195 0.03851 0.0
H754 H 0.55665 0.33898 0.66543 0.0
H755 H 0.54618 0.30788 0.74311 0.0
H756 H 0.5678 0.38591 0.68024 0.0
H757 H 0.54099 0.41568 0.65172 0.0
C758 C 0.16174 0.53094 0.88025 0.0
C759 C 0.18318 0.5089 0.83831 0.0
C760 C 0.13691 0.48456 0.75377 0.0
C761 C 0.11596 0.50225 0.81427 0.0
N762 N 0.10942 0.5412 0.9425 0.0
N763 N 0.18996 0.47791 0.68947 0.0
C764 C 0.12878 0.52469 0.88074 0.0
C765 C 0.17039 0.48906 0.76214 0.0
N766 N 0.17137 0.56082 0.89741 0.0
N767 N 0.12481 0.46299 0.68919 0.0
H768 H 0.21366 0.48391 0.68661 0.0
H769 H 0.18235 0.46623 0.62577 0.0
H770 H 0.1007 0.4597 0.67999 0.0
H771 H 0.13845 0.44685 0.65039 0.0
H772 H 0.15653 0.57822 0.92484 0.0
H773 H 0.19121 0.56971 0.86111 0.0
H774 H 0.11801 0.55552 0.9993 0.0
H775 H 0.08508 0.53874 0.94137 0.0
C776 C 0.01221 0.85749 0.59623 0.0
C777 C 1.00227 0.83646 0.6733 0.0
C778 C 0.98779 0.88286 0.77631 0.0
C779 C 0.9978 0.90371 0.69869 0.0
N780 N 1.00836 0.90951 0.52329 0.0
N781 N 0.98465 0.8295 0.84349 0.0
C782 C 1.00701 0.89058 0.60566 0.0
C783 C 0.99111 0.84932 0.76528 0.0
N784 N 0.02801 0.84601 0.51513 0.0
N785 N 0.97254 0.89514 0.85706 0.0
H786 H 0.9859 0.80518 0.83705 0.0
H787 H 0.98018 0.837 0.91621 0.0
H788 H 0.96841 0.91911 0.86355 0.0
H789 H 0.96162 0.88176 0.91254 0.0
H790 H 0.03951 0.8603 0.46311 0.0
H791 H 0.03225 0.82217 0.50476 0.0
H792 H 0.01305 0.9014 0.45178 0.0
H793 H 0.99991 0.93235 0.52439 0.0
C794 C 0.66387 0.97165 0.68848 0.0
C795 C 0.682 0.99962 0.69962 0.0
C796 C 0.6325 0.02767 0.7376 0.0
C797 C 0.61351 1.00085 0.71731 0.0
N798 N 0.61324 0.94589 0.67187 0.0
N799 N 0.68045 0.04189 0.81815 0.0
C800 C 0.62982 0.9725 0.69176 0.0
C801 C 0.66574 0.02468 0.74681 0.0
N802 N 0.67909 0.94352 0.69374 0.0
N803 N 0.61938 0.05666 0.74661 0.0
H804 H 0.70103 0.03382 0.85214 0.0
H805 H 0.66938 0.05997 0.85646 0.0
H806 H 0.59569 0.06108 0.73439 0.0
H807 H 0.63304 0.0768 0.75445 0.0
H808 H 0.66775 0.92192 0.69617 0.0
H809 H 0.70288 0.942 0.71183 0.0
H810 H 0.62305 0.92672 0.6353 0.0
H811 H 0.58962 0.94297 0.68935 0.0
C812 C 0.52967 0.66904 0.7513 0.0
C813 C 0.51037 0.68252 0.67514 0.0
C814 C 0.4914 0.629 0.63299 0.0
C815 C 0.51257 0.61539 0.70389 0.0
N816 N 0.55266 0.62232 0.82856 0.0
N817 N 0.47084 0.67579 0.54843 0.0
C818 C 0.5319 0.63546 0.7624 0.0
C819 C 0.49074 0.66248 0.61718 0.0
N820 N 0.54476 0.68851 0.81631 0.0
N821 N 0.4721 0.60962 0.57989 0.0
H822 H 0.47016 0.69981 0.53373 0.0
H823 H 0.45455 0.66367 0.50581 0.0
H824 H 0.47063 0.58563 0.59384 0.0
H825 H 0.45732 0.61665 0.52213 0.0
H826 H 0.55624 0.68089 0.88081 0.0
H827 H 0.54387 0.71288 0.80971 0.0
H828 H 0.56983 0.63488 0.86642 0.0
H829 H 0.55387 0.59824 0.84204 0.0
C830 C 0.85632 0.54001 0.64918 0.0
C831 C 0.83849 0.513 0.67652 0.0
C832 C 0.88835 0.48804 0.72927 0.0
C833 C 0.90719 0.51339 0.69224 0.0
N834 N 0.9056 0.56247 0.59571 0.0
N835 N 0.84061 0.47802 0.81832 0.0
C836 C 0.89027 0.53903 0.64594 0.0
C837 C 0.8551 0.49126 0.73765 0.0
N838 N 0.84151 0.56835 0.64574 0.0
N839 N 0.90141 0.4597 0.75264 0.0
H840 H 0.81811 0.4847 0.84103 0.0
H841 H 0.85337 0.46539 0.87133 0.0
H842 H 0.9244 0.45375 0.73403 0.0
H843 H 0.88779 0.44069 0.77651 0.0
H844 H 0.85336 0.58955 0.63645 0.0
H845 H 0.81845 0.57103 0.67091 0.0
H846 H 0.8937 0.57872 0.551 0.0
H847 H 0.92971 0.56458 0.58868 0.0
loop_
_geom_bond_atom_site_label_1
_geom_bond_atom_site_label_2
_geom_bond_distance
_geom_bond_site_symmetry_2
_ccdc_geom_bond_type
P0 O11 1.490 . S
P0 C14 1.812 . S
P0 C20 1.803 . S
P0 C26 1.819 . S
H1 C15 0.941 . S
H2 C16 0.939 . S
H3 C18 0.940 . S
H4 C19 0.940 . S
H5 C21 0.939 . S
H6 C22 0.942 . S
H7 C24 0.940 . S
H8 C25 0.939 . S
H9 C27 0.941 . S
H10 C31 0.939 . S
O11 P0 1.490 . S
H12 C28 0.939 . S
H13 C30 0.940 . S
C14 P0 1.812 . S
C14 C15 1.389 . S
C14 C19 1.391 . S
C15 H1 0.941 . S
C15 C14 1.389 . S
C15 C16 1.397 . S
C16 H2 0.939 . S
C16 C15 1.397 . S
C16 C17 1.378 . S
C17 C16 1.378 . S
C17 C18 1.378 . S
C18 H3 0.940 . S
C18 C17 1.378 . S
C18 C19 1.396 . S
C19 H4 0.940 . S
C19 C14 1.391 . S
C19 C18 1.396 . S
C20 P0 1.803 . S
C20 C21 1.378 . S
C20 C25 1.400 . S
C21 H5 0.939 . S
C21 C20 1.378 . S
C21 C22 1.361 . S
C22 H6 0.942 . S
C22 C21 1.361 . S
C22 C23 1.369 . S
C23 C22 1.369 . S
C23 C24 1.404 . S
C24 H7 0.940 . S
C24 C23 1.404 . S
C24 C25 1.389 . S
C25 H8 0.939 . S
C25 C20 1.400 . S
C25 C24 1.389 . S
C26 P0 1.819 . S
C26 C27 1.391 . S
C26 C31 1.391 . S
C27 H9 0.941 . S
C27 C26 1.391 . S
C27 C28 1.396 . S
C28 H12 0.939 . S
C28 C27 1.396 . S
C28 C29 1.397 . S
C29 C28 1.397 . S
C29 C30 1.385 . S
C30 H13 0.940 . S
C30 C29 1.385 . S
C30 C31 1.388 . S
C31 H10 0.939 . S
C31 C26 1.391 . S
C31 C30 1.388 . S
P32 O43 1.490 . S
P32 C46 1.812 . S
P32 C52 1.803 . S
P32 C58 1.819 . S
H33 C47 0.941 . S
H34 C48 0.939 . S
H35 C50 0.940 . S
H36 C51 0.950 . S
H37 C53 0.939 . S
H38 C54 0.942 . S
H39 C56 0.940 . S
H40 C57 0.959 . S
H41 C59 0.941 . S
H42 C63 0.929 1_655 S
O43 P32 1.490 . S
H44 C60 0.939 . S
H45 C62 0.940 . S
C46 P32 1.812 . S
C46 C47 1.389 . S
C46 C51 1.375 1_455 S
C47 H33 0.941 . S
C47 C46 1.389 . S
C47 C48 1.397 . S
C48 H34 0.939 . S
C48 C47 1.397 . S
C48 C49 1.378 . S
C49 C48 1.378 . S
C49 C50 1.378 1_455 S
C50 H35 0.940 . S
C50 C49 1.378 1_655 S
C50 C51 1.403 . S
C51 H36 0.950 . S
C51 C46 1.375 1_655 S
C51 C50 1.403 . S
C52 P32 1.803 . S
C52 C53 1.378 . S
C52 C57 1.368 1_455 S
C53 H37 0.939 . S
C53 C52 1.378 . S
C53 C54 1.361 . S
C54 H38 0.942 . S
C54 C53 1.361 . S
C54 C55 1.369 . S
C55 C54 1.369 . S
C55 C56 1.404 1_455 S
C56 H39 0.940 . S
C56 C55 1.404 1_655 S
C56 C57 1.402 . S
C57 H40 0.959 . S
C57 C52 1.368 1_655 S
C57 C56 1.402 . S
C58 P32 1.819 . S
C58 C59 1.391 . S
C58 C63 1.391 . S
C59 H41 0.941 . S
C59 C58 1.391 . S
C59 C60 1.396 . S
C60 H44 0.939 . S
C60 C59 1.396 . S
C60 C61 1.397 . S
C61 C60 1.397 . S
C61 C62 1.385 1_455 S
C62 H45 0.940 . S
C62 C61 1.385 1_655 S
C62 C63 1.388 1_655 S
C63 H42 0.929 1_455 S
C63 C58 1.391 . S
C63 C62 1.388 1_455 S
P64 O75 1.490 . S
P64 C78 1.812 . S
P64 C84 1.803 . S
P64 C90 1.819 . S
H65 C79 0.941 . S
H66 C80 0.939 . S
H67 C82 0.940 . S
H68 C83 0.950 . S
H69 C85 0.939 . S
H70 C86 0.942 . S
H71 C88 0.940 . S
H72 C89 0.959 . S
H73 C91 0.941 . S
H74 C95 0.929 1_565 S
O75 P64 1.490 . S
H76 C92 0.939 . S
H77 C94 0.940 . S
C78 P64 1.812 . S
C78 C79 1.389 . S
C78 C83 1.375 1_545 S
C79 H65 0.941 . S
C79 C78 1.389 . S
C79 C80 1.397 . S
C80 H66 0.939 . S
C80 C79 1.397 . S
C80 C81 1.378 . S
C81 C80 1.378 . S
C81 C82 1.378 1_545 S
C82 H67 0.940 . S
C82 C81 1.378 1_565 S
C82 C83 1.402 . S
C83 H68 0.950 . S
C83 C78 1.375 1_565 S
C83 C82 1.402 . S
C84 P64 1.803 . S
C84 C85 1.378 . S
C84 C89 1.368 1_545 S
C85 H69 0.939 . S
C85 C84 1.378 . S
C85 C86 1.361 . S
C86 H70 0.942 . S
C86 C85 1.361 . S
C86 C87 1.369 . S
C87 C86 1.369 . S
C87 C88 1.404 1_545 S
C88 H71 0.940 . S
C88 C87 1.404 1_565 S
C88 C89 1.402 . S
C89 H72 0.959 . S
C89 C84 1.368 1_565 S
C89 C88 1.402 . S
C90 P64 1.819 . S
C90 C91 1.391 . S
C90 C95 1.391 . S
C91 H73 0.941 . S
C91 C90 1.391 . S
C91 C92 1.396 . S
C92 H76 0.939 . S
C92 C91 1.396 . S
C92 C93 1.397 . S
C93 C92 1.397 . S
C93 C94 1.385 1_545 S
C94 H77 0.940 . S
C94 C93 1.385 1_565 S
C94 C95 1.388 1_565 S
C95 H74 0.929 1_545 S
C95 C90 1.391 . S
C95 C94 1.388 1_545 S
P96 O107 1.490 . S
P96 C110 1.812 . S
P96 C116 1.803 . S
P96 C122 1.819 . S
H97 C111 0.941 . S
H98 C112 0.939 . S
H99 C114 0.940 . S
H100 C115 0.940 . S
H101 C117 0.939 . S
H102 C118 0.942 . S
H103 C120 0.940 . S
H104 C121 0.939 . S
H105 C123 0.941 . S
H106 C127 0.939 . S
O107 P96 1.490 . S
H108 C124 0.939 . S
H109 C126 0.940 . S
C110 P96 1.812 . S
C110 C111 1.389 . S
C110 C115 1.391 . S
C111 H97 0.941 . S
C111 C110 1.389 . S
C111 C112 1.397 . S
C112 H98 0.939 . S
C112 C111 1.397 . S
C112 C113 1.378 . S
C113 C112 1.378 . S
C113 C114 1.378 . S
C114 H99 0.940 . S
C114 C113 1.378 . S
C114 C115 1.396 . S
C115 H100 0.940 . S
C115 C110 1.391 . S
C115 C114 1.396 . S
C116 P96 1.803 . S
C116 C117 1.378 . S
C116 C121 1.400 . S
C117 H101 0.939 . S
C117 C116 1.378 . S
C117 C118 1.361 . S
C118 H102 0.942 . S
C118 C117 1.361 . S
C118 C119 1.369 . S
C119 C118 1.369 . S
C119 C120 1.404 . S
C120 H103 0.940 . S
C120 C119 1.404 . S
C120 C121 1.389 . S
C121 H104 0.939 . S
C121 C116 1.400 . S
C121 C120 1.389 . S
C122 P96 1.819 . S
C122 C123 1.391 . S
C122 C127 1.391 . S
C123 H105 0.941 . S
C123 C122 1.391 . S
C123 C124 1.396 . S
C124 H108 0.939 . S
C124 C123 1.396 . S
C124 C125 1.397 . S
C125 C124 1.397 . S
C125 C126 1.385 . S
C126 H109 0.940 . S
C126 C125 1.385 . S
C126 C127 1.388 . S
C127 H106 0.939 . S
C127 C122 1.391 . S
C127 C126 1.388 . S
P128 O139 1.490 . S
P128 C142 1.812 1_554 S
P128 C148 1.803 . S
P128 C154 1.819 . S
H129 C143 0.941 . S
H130 C144 0.939 . S
H131 C146 0.940 . S
H132 C147 0.940 . S
H133 C149 0.939 . S
H134 C150 0.942 . S
H135 C152 0.940 . S
H136 C153 0.939 . S
H137 C155 0.941 . S
H138 C159 0.939 . S
O139 P128 1.490 . S
H140 C156 0.939 . S
H141 C158 0.940 . S
C142 P128 1.812 1_556 S
C142 C143 1.389 . S
C142 C147 1.391 . S
C143 H129 0.941 . S
C143 C142 1.389 . S
C143 C144 1.397 . S
C144 H130 0.939 . S
C144 C143 1.397 . S
C144 C145 1.378 . S
C145 C144 1.378 . S
C145 C146 1.378 . S
C146 H131 0.940 . S
C146 C145 1.378 . S
C146 C147 1.396 . S
C147 H132 0.940 . S
C147 C142 1.391 . S
C147 C146 1.396 . S
C148 P128 1.803 . S
C148 C149 1.378 . S
C148 C153 1.400 . S
C149 H133 0.939 . S
C149 C148 1.378 . S
C149 C150 1.361 . S
C150 H134 0.942 . S
C150 C149 1.361 . S
C150 C151 1.369 . S
C151 C150 1.369 . S
C151 C152 1.404 . S
C152 H135 0.940 . S
C152 C151 1.404 . S
C152 C153 1.389 . S
C153 H136 0.939 . S
C153 C148 1.400 . S
C153 C152 1.389 . S
C154 P128 1.819 . S
C154 C155 1.391 . S
C154 C159 1.391 . S
C155 H137 0.941 . S
C155 C154 1.391 . S
C155 C156 1.396 . S
C156 H140 0.939 . S
C156 C155 1.396 . S
C156 C157 1.397 . S
C157 C156 1.397 . S
C157 C158 1.385 . S
C158 H141 0.940 . S
C158 C157 1.385 . S
C158 C159 1.388 . S
C159 H138 0.939 . S
C159 C154 1.391 . S
C159 C158 1.388 . S
P160 O171 1.490 . S
P160 C174 1.812 1_554 S
P160 C180 1.803 . S
P160 C186 1.819 . S
H161 C175 0.941 . S
H162 C176 0.939 . S
H163 C178 0.940 . S
H164 C179 0.945 . S
H165 C181 0.939 . S
H166 C182 0.942 . S
H167 C184 0.940 . S
H168 C185 0.954 . S
H169 C187 0.941 . S
H170 C191 0.932 1_655 S
O171 P160 1.490 . S
H172 C188 0.939 . S
H173 C190 0.940 . S
C174 P160 1.812 1_556 S
C174 C175 1.389 . S
C174 C179 1.383 1_455 S
C175 H161 0.941 . S
C175 C174 1.389 . S
C175 C176 1.397 . S
C176 H162 0.939 . S
C176 C175 1.397 . S
C176 C177 1.378 . S
C177 C176 1.378 . S
C177 C178 1.378 1_455 S
C178 H163 0.940 . S
C178 C177 1.378 1_655 S
C178 C179 1.400 . S
C179 H164 0.945 . S
C179 C174 1.383 1_655 S
C179 C178 1.400 . S
C180 P160 1.803 . S
C180 C181 1.378 . S
C180 C185 1.376 1_455 S
C181 H165 0.939 . S
C181 C180 1.378 . S
C181 C182 1.361 . S
C182 H166 0.942 . S
C182 C181 1.361 . S
C182 C183 1.369 . S
C183 C182 1.369 . S
C183 C184 1.404 1_455 S
C184 H167 0.940 . S
C184 C183 1.404 1_655 S
C184 C185 1.399 . S
C185 H168 0.954 . S
C185 C180 1.376 1_655 S
C185 C184 1.399 . S
C186 P160 1.819 . S
C186 C187 1.391 . S
C186 C191 1.391 . S
C187 H169 0.941 . S
C187 C186 1.391 . S
C187 C188 1.396 . S
C188 H172 0.939 . S
C188 C187 1.396 . S
C188 C189 1.397 . S
C189 C188 1.397 . S
C189 C190 1.385 1_455 S
C190 H173 0.940 . S
C190 C189 1.385 1_655 S
C190 C191 1.388 1_655 S
C191 H170 0.932 1_455 S
C191 C186 1.391 . S
C191 C190 1.388 1_455 S
P192 O203 1.490 . S
P192 C206 1.812 1_554 S
P192 C212 1.803 . S
P192 C218 1.819 . S
H193 C207 0.941 . S
H194 C208 0.939 . S
H195 C210 0.940 . S
H196 C211 0.945 . S
H197 C213 0.939 . S
H198 C214 0.942 . S
H199 C216 0.940 . S
H200 C217 0.954 . S
H201 C219 0.941 . S
H202 C223 0.932 1_565 S
O203 P192 1.490 . S
H204 C220 0.939 . S
H205 C222 0.940 . S
C206 P192 1.812 1_556 S
C206 C207 1.389 . S
C206 C211 1.383 1_545 S
C207 H193 0.941 . S
C207 C206 1.389 . S
C207 C208 1.397 . S
C208 H194 0.939 . S
C208 C207 1.397 . S
C208 C209 1.378 . S
C209 C208 1.378 . S
C209 C210 1.378 1_545 S
C210 H195 0.940 . S
C210 C209 1.378 1_565 S
C210 C211 1.400 . S
C211 H196 0.945 . S
C211 C206 1.383 1_565 S
C211 C210 1.400 . S
C212 P192 1.803 . S
C212 C213 1.378 . S
C212 C217 1.376 1_545 S
C213 H197 0.939 . S
C213 C212 1.378 . S
C213 C214 1.361 . S
C214 H198 0.942 . S
C214 C213 1.361 . S
C214 C215 1.369 . S
C215 C214 1.369 . S
C215 C216 1.404 1_545 S
C216 H199 0.940 . S
C216 C215 1.404 1_565 S
C216 C217 1.398 . S
C217 H200 0.954 . S
C217 C212 1.376 1_565 S
C217 C216 1.398 . S
C218 P192 1.819 . S
C218 C219 1.391 . S
C218 C223 1.391 . S
C219 H201 0.941 . S
C219 C218 1.391 . S
C219 C220 1.396 . S
C220 H204 0.939 . S
C220 C219 1.396 . S
C220 C221 1.397 . S
C221 C220 1.397 . S
C221 C222 1.385 1_545 S
C222 H205 0.940 . S
C222 C221 1.385 1_565 S
C222 C223 1.388 1_565 S
C223 H202 0.932 1_545 S
C223 C218 1.391 . S
C223 C222 1.388 1_545 S
P224 O235 1.490 . S
P224 C238 1.812 1_554 S
P224 C244 1.803 . S
P224 C250 1.819 . S
H225 C239 0.941 . S
H226 C240 0.939 . S
H227 C242 0.940 . S
H228 C243 0.940 . S
H229 C245 0.939 . S
H230 C246 0.942 . S
H231 C248 0.940 . S
H232 C249 0.939 . S
H233 C251 0.941 . S
H234 C255 0.939 . S
O235 P224 1.490 . S
H236 C252 0.939 . S
H237 C254 0.940 . S
C238 P224 1.812 1_556 S
C238 C239 1.389 . S
C238 C243 1.391 . S
C239 H225 0.941 . S
C239 C238 1.389 . S
C239 C240 1.397 . S
C240 H226 0.939 . S
C240 C239 1.397 . S
C240 C241 1.378 . S
C241 C240 1.378 . S
C241 C242 1.378 . S
C242 H227 0.940 . S
C242 C241 1.378 . S
C242 C243 1.396 . S
C243 H228 0.940 . S
C243 C238 1.391 . S
C243 C242 1.396 . S
C244 P224 1.803 . S
C244 C245 1.378 . S
C244 C249 1.400 . S
C245 H229 0.939 . S
C245 C244 1.378 . S
C245 C246 1.361 . S
C246 H230 0.942 . S
C246 C245 1.361 . S
C246 C247 1.369 . S
C247 C246 1.369 . S
C247 C248 1.404 . S
C248 H231 0.940 . S
C248 C247 1.404 . S
C248 C249 1.389 . S
C249 H232 0.939 . S
C249 C244 1.400 . S
C249 C248 1.389 . S
C250 P224 1.819 . S
C250 C251 1.391 . S
C250 C255 1.391 . S
C251 H233 0.941 . S
C251 C250 1.391 . S
C251 C252 1.396 . S
C252 H236 0.939 . S
C252 C251 1.396 . S
C252 C253 1.397 . S
C253 C252 1.397 . S
C253 C254 1.385 . S
C254 H237 0.940 . S
C254 C253 1.385 . S
C254 C255 1.388 . S
C255 H234 0.939 . S
C255 C250 1.391 . S
C255 C254 1.388 . S
Pr256 C258 2.880 . S
Pr256 O276 2.562 . S
Pr256 O277 2.490 . S
Pr256 O278 2.695 1_565 S
Pr256 O279 2.512 . S
Pr256 O281 2.437 . S
Pr256 O284 2.436 1_455 S
Pr256 O286 2.438 1_565 S
Pr257 C267 2.880 . S
Pr257 O278 2.436 1_655 S
Pr257 O280 2.438 1_545 S
Pr257 O282 2.562 . S
Pr257 O283 2.490 . S
Pr257 O284 2.695 1_545 S
Pr257 O285 2.512 . S
Pr257 O287 2.437 . S
C258 Pr256 2.880 . S
C258 C259 1.491 1_556 S
C258 O276 1.254 . S
C258 O277 1.225 . S
C259 C258 1.491 1_554 S
C259 C260 1.392 . S
C259 C264 1.356 . S
C260 C259 1.392 . S
C260 C261 1.368 . S
C260 H288 0.929 1_554 S
C261 C260 1.368 . S
C261 C262 1.386 . S
C261 H289 0.929 . S
C262 C261 1.386 . S
C262 C263 1.373 . S
C263 C262 1.373 . S
C263 C264 1.409 . S
C263 H290 0.931 . S
C264 C259 1.356 . S
C264 C263 1.409 . S
C264 H291 0.930 1_455 S
C265 O278 1.270 1_565 S
C265 O279 1.248 . S
C266 O280 1.267 . S
C266 O281 1.278 1_655 S
C267 Pr257 2.880 . S
C267 C268 1.491 . S
C267 O282 1.254 . S
C267 O283 1.225 . S
C268 C267 1.491 . S
C268 C269 1.392 . S
C268 C273 1.356 . S
C269 C268 1.392 . S
C269 C270 1.368 . S
C269 H292 0.929 . S
C270 C269 1.368 . S
C270 C271 1.386 . S
C270 H293 0.929 . S
C271 C270 1.386 . S
C271 C272 1.373 . S
C272 C271 1.373 . S
C272 C273 1.409 . S
C272 H294 0.931 . S
C273 C268 1.356 . S
C273 C272 1.409 . S
C273 H295 0.930 1_655 S
C274 O284 1.270 1_545 S
C274 O285 1.248 . S
C275 O286 1.267 . S
C275 O287 1.278 1_455 S
O276 Pr256 2.562 . S
O276 C258 1.254 . S
O277 Pr256 2.490 . S
O277 C258 1.225 . S
O278 Pr256 2.695 1_545 S
O278 Pr257 2.436 1_455 S
O278 C265 1.270 1_545 S
O279 Pr256 2.512 . S
O279 C265 1.248 . S
O280 Pr257 2.438 1_565 S
O280 C266 1.267 . S
O281 Pr256 2.437 . S
O281 C266 1.278 1_455 S
O282 Pr257 2.562 . S
O282 C267 1.254 . S
O283 Pr257 2.490 . S
O283 C267 1.225 . S
O284 Pr256 2.436 1_655 S
O284 Pr257 2.695 1_565 S
O284 C274 1.270 1_565 S
O285 Pr257 2.512 . S
O285 C274 1.248 . S
O286 Pr256 2.438 1_545 S
O286 C275 1.267 . S
O287 Pr257 2.437 . S
O287 C275 1.278 1_655 S
H288 C260 0.929 1_556 S
H289 C261 0.929 . S
H290 C263 0.931 . S
H291 C264 0.930 1_655 S
H292 C269 0.929 . S
H293 C270 0.929 . S
H294 C272 0.931 . S
H295 C273 0.930 1_455 S
Pr296 C298 2.880 . S
Pr296 O316 2.562 . S
Pr296 O317 2.490 . S
Pr296 O318 2.695 . S
Pr296 O319 2.512 . S
Pr296 O321 2.437 . S
Pr296 O324 2.436 1_545 S
Pr296 O326 2.438 . S
Pr297 C307 2.880 . S
Pr297 O318 2.436 1_565 S
Pr297 O320 2.438 . S
Pr297 O322 2.562 . S
Pr297 O323 2.490 . S
Pr297 O324 2.695 . S
Pr297 O325 2.512 . S
Pr297 O327 2.437 . S
C298 Pr296 2.880 . S
C298 C299 1.491 1_556 S
C298 O316 1.254 . S
C298 O317 1.225 . S
C299 C298 1.491 1_554 S
C299 C300 1.392 . S
C299 C304 1.356 . S
C300 C299 1.392 . S
C300 C301 1.368 . S
C300 H328 0.929 1_554 S
C301 C300 1.368 . S
C301 C302 1.386 . S
C301 H329 0.929 . S
C302 C301 1.386 . S
C302 C303 1.373 . S
C303 C302 1.373 . S
C303 C304 1.409 . S
C303 H330 0.931 . S
C304 C299 1.356 . S
C304 C303 1.409 . S
C304 H331 0.930 1_545 S
C305 O318 1.270 . S
C305 O319 1.248 . S
C306 O320 1.267 . S
C306 O321 1.278 1_565 S
C307 Pr297 2.880 . S
C307 C308 1.491 . S
C307 O322 1.254 . S
C307 O323 1.225 . S
C308 C307 1.491 . S
C308 C309 1.392 . S
C308 C313 1.356 . S
C309 C308 1.392 . S
C309 C310 1.368 . S
C309 H332 0.929 . S
C310 C309 1.368 . S
C310 C311 1.386 . S
C310 H333 0.929 . S
C311 C310 1.386 . S
C311 C312 1.373 . S
C312 C311 1.373 . S
C312 C313 1.409 . S
C312 H334 0.931 . S
C313 C308 1.356 . S
C313 C312 1.409 . S
C313 H335 0.930 1_565 S
C314 O324 1.270 . S
C314 O325 1.248 . S
C315 O326 1.267 . S
C315 O327 1.278 1_545 S
O316 Pr296 2.562 . S
O316 C298 1.254 . S
O317 Pr296 2.490 . S
O317 C298 1.225 . S
O318 Pr296 2.695 . S
O318 Pr297 2.436 1_545 S
O318 C305 1.270 . S
O319 Pr296 2.512 . S
O319 C305 1.248 . S
O320 Pr297 2.438 . S
O320 C306 1.267 . S
O321 Pr296 2.437 . S
O321 C306 1.278 1_545 S
O322 Pr297 2.562 . S
O322 C307 1.254 . S
O323 Pr297 2.490 . S
O323 C307 1.225 . S
O324 Pr296 2.436 1_565 S
O324 Pr297 2.695 . S
O324 C314 1.270 . S
O325 Pr297 2.512 . S
O325 C314 1.248 . S
O326 Pr296 2.438 . S
O326 C315 1.267 . S
O327 Pr297 2.437 . S
O327 C315 1.278 1_565 S
H328 C300 0.929 1_556 S
H329 C301 0.929 . S
H330 C303 0.931 . S
H331 C304 0.930 1_565 S
H332 C309 0.929 . S
H333 C310 0.929 . S
H334 C312 0.931 . S
H335 C313 0.930 1_545 S
Pr336 C338 2.880 . S
Pr336 O356 2.562 . S
Pr336 O357 2.490 . S
Pr336 O358 2.695 . S
Pr336 O359 2.512 . S
Pr336 O361 2.437 . S
Pr336 O364 2.436 . S
Pr336 O366 2.438 . S
Pr337 C347 2.880 . S
Pr337 O358 2.436 . S
Pr337 O360 2.438 . S
Pr337 O362 2.562 . S
Pr337 O363 2.490 . S
Pr337 O364 2.695 . S
Pr337 O365 2.512 . S
Pr337 O367 2.437 . S
C338 Pr336 2.880 . S
C338 C339 1.491 1_556 S
C338 O356 1.254 . S
C338 O357 1.225 . S
C339 C338 1.491 1_554 S
C339 C340 1.392 . S
C339 C344 1.356 . S
C340 C339 1.392 . S
C340 C341 1.368 . S
C340 H368 0.929 1_554 S
C341 C340 1.368 . S
C341 C342 1.386 . S
C341 H369 0.929 . S
C342 C341 1.386 . S
C342 C343 1.373 . S
C343 C342 1.373 . S
C343 C344 1.409 . S
C343 H370 0.931 . S
C344 C339 1.356 . S
C344 C343 1.409 . S
C344 H371 0.930 . S
C345 O358 1.270 . S
C345 O359 1.248 . S
C346 O360 1.267 . S
C346 O361 1.278 . S
C347 Pr337 2.880 . S
C347 C348 1.491 . S
C347 O362 1.254 . S
C347 O363 1.225 . S
C348 C347 1.491 . S
C348 C349 1.392 . S
C348 C353 1.356 . S
C349 C348 1.392 . S
C349 C350 1.368 . S
C349 H372 0.929 . S
C350 C349 1.368 . S
C350 C351 1.386 . S
C350 H373 0.929 . S
C351 C350 1.386 . S
C351 C352 1.373 . S
C352 C351 1.373 . S
C352 C353 1.409 . S
C352 H374 0.931 . S
C353 C348 1.356 . S
C353 C352 1.409 . S
C353 H375 0.930 . S
C354 O364 1.270 . S
C354 O365 1.248 . S
C355 O366 1.267 . S
C355 O367 1.278 . S
O356 Pr336 2.562 . S
O356 C338 1.254 . S
O357 Pr336 2.490 . S
O357 C338 1.225 . S
O358 Pr336 2.695 . S
O358 Pr337 2.436 . S
O358 C345 1.270 . S
O359 Pr336 2.512 . S
O359 C345 1.248 . S
O360 Pr337 2.438 . S
O360 C346 1.267 . S
O361 Pr336 2.437 . S
O361 C346 1.278 . S
O362 Pr337 2.562 . S
O362 C347 1.254 . S
O363 Pr337 2.490 . S
O363 C347 1.225 . S
O364 Pr336 2.436 . S
O364 Pr337 2.695 . S
O364 C354 1.270 . S
O365 Pr337 2.512 . S
O365 C354 1.248 . S
O366 Pr336 2.438 . S
O366 C355 1.267 . S
O367 Pr337 2.437 . S
O367 C355 1.278 . S
H368 C340 0.929 1_556 S
H369 C341 0.929 . S
H370 C343 0.931 . S
H371 C344 0.930 . S
H372 C349 0.929 . S
H373 C350 0.929 . S
H374 C352 0.931 . S
H375 C353 0.930 . S
Pr376 C378 2.880 . S
Pr376 O396 2.562 . S
Pr376 O397 2.490 . S
Pr376 O398 2.695 1_655 S
Pr376 O399 2.512 . S
Pr376 O401 2.437 . S
Pr376 O404 2.436 . S
Pr376 O406 2.438 1_655 S
Pr377 C387 2.880 . S
Pr377 O398 2.436 . S
Pr377 O400 2.438 1_455 S
Pr377 O402 2.562 . S
Pr377 O403 2.490 . S
Pr377 O404 2.695 1_455 S
Pr377 O405 2.512 . S
Pr377 O407 2.437 . S
C378 Pr376 2.880 . S
C378 C379 1.491 1_556 S
C378 O396 1.254 . S
C378 O397 1.225 . S
C379 C378 1.491 1_554 S
C379 C380 1.392 . S
C379 C384 1.356 . S
C380 C379 1.392 . S
C380 C381 1.368 . S
C380 H408 0.929 1_554 S
C381 C380 1.368 . S
C381 C382 1.386 . S
C381 H409 0.929 . S
C382 C381 1.386 . S
C382 C383 1.373 . S
C383 C382 1.373 . S
C383 C384 1.409 . S
C383 H410 0.931 . S
C384 C379 1.356 . S
C384 C383 1.409 . S
C384 H411 0.930 . S
C385 O398 1.267 1_655 S
C385 O399 1.254 . S
C386 O400 1.267 . S
C386 O401 1.278 . S
C387 Pr377 2.880 . S
C387 C388 1.491 . S
C387 O402 1.254 . S
C387 O403 1.225 . S
C388 C387 1.491 . S
C388 C389 1.392 . S
C388 C393 1.356 . S
C389 C388 1.392 . S
C389 C390 1.368 . S
C389 H412 0.929 . S
C390 C389 1.368 . S
C390 C391 1.386 . S
C390 H413 0.929 . S
C391 C390 1.386 . S
C391 C392 1.373 . S
C392 C391 1.373 . S
C392 C393 1.409 . S
C392 H414 0.931 . S
C393 C388 1.356 . S
C393 C392 1.409 . S
C393 H415 0.930 . S
C394 O404 1.264 1_455 S
C394 O405 1.258 . S
C395 O406 1.267 . S
C395 O407 1.278 . S
O396 Pr376 2.562 . S
O396 C378 1.254 . S
O397 Pr376 2.490 . S
O397 C378 1.225 . S
O398 Pr376 2.695 1_455 S
O398 Pr377 2.436 . S
O398 C385 1.267 1_455 S
O399 Pr376 2.512 . S
O399 C385 1.254 . S
O400 Pr377 2.438 1_655 S
O400 C386 1.267 . S
O401 Pr376 2.437 . S
O401 C386 1.278 . S
O402 Pr377 2.562 . S
O402 C387 1.254 . S
O403 Pr377 2.490 . S
O403 C387 1.225 . S
O404 Pr376 2.436 . S
O404 Pr377 2.695 1_655 S
O404 C394 1.264 1_655 S
O405 Pr377 2.512 . S
O405 C394 1.258 . S
O406 Pr376 2.438 1_455 S
O406 C395 1.267 . S
O407 Pr377 2.437 . S
O407 C395 1.278 . S
H408 C380 0.929 1_556 S
H409 C381 0.929 . S
H410 C383 0.931 . S
H411 C384 0.930 . S
H412 C389 0.929 . S
H413 C390 0.929 . S
H414 C392 0.931 . S
H415 C393 0.930 . S
C416 C417 1.356 1_565 S
C416 C422 1.379 . S
C416 N424 1.356 . S
C417 C416 1.356 1_545 S
C417 C423 1.370 . S
C418 C419 1.380 . S
C418 C423 1.379 . S
C418 N425 1.356 . S
C419 C418 1.380 . S
C419 C422 1.345 1_545 S
N420 C422 1.356 . S
N420 H432 0.984 . S
N420 H433 0.985 . S
N421 C423 1.356 . S
N421 H426 0.984 . S
N421 H427 0.985 . S
C422 C416 1.379 . S
C422 C419 1.345 1_565 S
C422 N420 1.356 . S
C423 C417 1.370 . S
C423 C418 1.379 . S
C423 N421 1.356 . S
N424 C416 1.356 . S
N424 H430 0.984 . S
N424 H431 0.984 . S
N425 C418 1.356 . S
N425 H428 0.984 . S
N425 H429 0.985 . S
H426 N421 0.984 . S
H427 N421 0.985 . S
H428 N425 0.984 . S
H429 N425 0.985 . S
H430 N424 0.984 . S
H431 N424 0.984 . S
H432 N420 0.984 . S
H433 N420 0.985 . S
C434 C435 1.363 . S
C434 C440 1.379 . S
C434 N442 1.356 . S
C435 C434 1.363 . S
C435 C441 1.363 . S
C436 C437 1.363 . S
C436 C441 1.379 . S
C436 N443 1.356 . S
C437 C436 1.363 . S
C437 C440 1.363 . S
N438 C440 1.356 . S
N438 H450 0.984 . S
N438 H451 0.985 . S
N439 C441 1.356 . S
N439 H444 0.984 . S
N439 H445 0.985 . S
C440 C434 1.379 . S
C440 C437 1.363 . S
C440 N438 1.356 . S
C441 C435 1.363 . S
C441 C436 1.379 . S
C441 N439 1.356 . S
N442 C434 1.356 . S
N442 H448 0.984 . S
N442 H449 0.984 . S
N443 C436 1.356 . S
N443 H446 0.984 . S
N443 H447 0.985 . S
H444 N439 0.984 . S
H445 N439 0.985 . S
H446 N443 0.984 . S
H447 N443 0.985 . S
H448 N442 0.984 . S
H449 N442 0.984 . S
H450 N438 0.984 . S
H451 N438 0.985 . S
C452 C453 1.363 . S
C452 C458 1.379 . S
C452 N460 1.356 . S
C453 C452 1.363 . S
C453 C459 1.363 . S
C454 C455 1.363 . S
C454 C459 1.379 . S
C454 N461 1.356 . S
C455 C454 1.363 . S
C455 C458 1.363 . S
N456 C458 1.356 . S
N456 H468 0.984 . S
N456 H469 0.985 . S
N457 C459 1.356 . S
N457 H462 0.984 . S
N457 H463 0.985 . S
C458 C452 1.379 . S
C458 C455 1.363 . S
C458 N456 1.356 . S
C459 C453 1.363 . S
C459 C454 1.379 . S
C459 N457 1.356 . S
N460 C452 1.356 . S
N460 H466 0.984 . S
N460 H467 0.984 . S
N461 C454 1.356 . S
N461 H464 0.984 . S
N461 H465 0.985 . S
H462 N457 0.984 . S
H463 N457 0.985 . S
H464 N461 0.984 . S
H465 N461 0.985 . S
H466 N460 0.984 . S
H467 N460 0.984 . S
H468 N456 0.984 . S
H469 N456 0.985 . S
C470 C471 1.381 . S
C470 C476 1.379 . S
C470 N478 1.356 . S
C471 C470 1.381 . S
C471 C477 1.347 1_455 S
C472 C473 1.363 1_655 S
C472 C477 1.379 . S
C472 N479 1.356 . S
C473 C472 1.363 1_455 S
C473 C476 1.363 . S
N474 C476 1.356 . S
N474 H486 0.984 . S
N474 H487 0.985 . S
N475 C477 1.356 . S
N475 H480 0.984 . S
N475 H481 0.985 . S
C476 C470 1.379 . S
C476 C473 1.363 . S
C476 N474 1.356 . S
C477 C471 1.347 1_655 S
C477 C472 1.379 . S
C477 N475 1.356 . S
N478 C470 1.356 . S
N478 H484 0.984 . S
N478 H485 0.984 . S
N479 C472 1.356 . S
N479 H482 0.984 . S
N479 H483 0.985 . S
H480 N475 0.984 . S
H481 N475 0.985 . S
H482 N479 0.984 . S
H483 N479 0.985 . S
H484 N478 0.984 . S
H485 N478 0.984 . S
H486 N474 0.984 . S
H487 N474 0.985 . S
C488 C489 1.364 . S
C488 C494 1.379 . S
C488 N496 1.356 . S
C489 C488 1.364 . S
C489 C495 1.362 1_565 S
C490 C491 1.351 1_545 S
C490 C495 1.379 . S
C490 N497 1.356 1_554 S
C491 C490 1.351 1_565 S
C491 C494 1.374 . S
N492 C494 1.356 . S
N492 H504 0.984 . S
N492 H505 0.985 1_554 S
N493 C495 1.356 . S
N493 H498 0.984 . S
N493 H499 0.985 . S
C494 C488 1.379 . S
C494 C491 1.374 . S
C494 N492 1.356 . S
C495 C489 1.362 1_545 S
C495 C490 1.379 . S
C495 N493 1.356 . S
N496 C488 1.356 . S
N496 H502 0.984 . S
N496 H503 0.984 . S
N497 C490 1.356 1_556 S
N497 H500 0.984 . S
N497 H501 0.985 . S
H498 N493 0.984 . S
H499 N493 0.985 . S
H500 N497 0.984 . S
H501 N497 0.985 . S
H502 N496 0.984 . S
H503 N496 0.984 . S
H504 N492 0.984 . S
H505 N492 0.985 1_556 S
C506 C507 1.363 . S
C506 C512 1.379 . S
C506 N514 1.356 . S
C507 C506 1.363 . S
C507 C513 1.363 . S
C508 C509 1.363 . S
C508 C513 1.379 . S
C508 N515 1.356 1_554 S
C509 C508 1.363 . S
C509 C512 1.363 . S
N510 C512 1.356 . S
N510 H522 0.984 . S
N510 H523 0.985 1_554 S
N511 C513 1.356 . S
N511 H516 0.984 . S
N511 H517 0.985 . S
C512 C506 1.379 . S
C512 C509 1.363 . S
C512 N510 1.356 . S
C513 C507 1.363 . S
C513 C508 1.379 . S
C513 N511 1.356 . S
N514 C506 1.356 . S
N514 H520 0.984 . S
N514 H521 0.984 . S
N515 C508 1.356 1_556 S
N515 H518 0.984 . S
N515 H519 0.985 1_556 S
H516 N511 0.984 . S
H517 N511 0.985 . S
H518 N515 0.984 . S
H519 N515 0.985 1_554 S
H520 N514 0.984 . S
H521 N514 0.984 . S
H522 N510 0.984 . S
H523 N510 0.985 1_556 S
C524 C525 1.363 . S
C524 C530 1.379 . S
C524 N532 1.356 . S
C525 C524 1.363 . S
C525 C531 1.363 . S
C526 C527 1.363 . S
C526 C531 1.379 . S
C526 N533 1.356 1_554 S
C527 C526 1.363 . S
C527 C530 1.363 . S
N528 C530 1.356 . S
N528 H540 0.984 . S
N528 H541 0.985 1_554 S
N529 C531 1.356 . S
N529 H534 0.984 . S
N529 H535 0.985 . S
C530 C524 1.379 . S
C530 C527 1.363 . S
C530 N528 1.356 . S
C531 C525 1.363 . S
C531 C526 1.379 . S
C531 N529 1.356 . S
N532 C524 1.356 . S
N532 H538 0.984 . S
N532 H539 0.984 . S
N533 C526 1.356 1_556 S
N533 H536 0.984 . S
N533 H537 0.985 . S
H534 N529 0.984 . S
H535 N529 0.985 . S
H536 N533 0.984 . S
H537 N533 0.985 . S
H538 N532 0.984 . S
H539 N532 0.984 . S
H540 N528 0.984 . S
H541 N528 0.985 1_556 S
C542 C543 1.345 1_455 S
C542 C548 1.379 . S
C542 N550 1.356 . S
C543 C542 1.345 1_655 S
C543 C549 1.382 . S
C544 C545 1.363 . S
C544 C549 1.379 . S
C544 N551 1.356 1_554 S
C545 C544 1.363 . S
C545 C548 1.363 1_655 S
N546 C548 1.356 . S
N546 H558 0.984 . S
N546 H559 0.985 1_554 S
N547 C549 1.356 . S
N547 H552 0.984 . S
N547 H553 0.985 . S
C548 C542 1.379 . S
C548 C545 1.363 1_455 S
C548 N546 1.356 . S
C549 C543 1.382 . S
C549 C544 1.379 . S
C549 N547 1.356 . S
N550 C542 1.356 . S
N550 H556 0.984 . S
N550 H557 0.984 . S
N551 C544 1.356 1_556 S
N551 H554 0.984 . S
N551 H555 0.985 . S
H552 N547 0.984 . S
H553 N547 0.985 . S
H554 N551 0.984 . S
H555 N551 0.985 . S
H556 N550 0.984 . S
H557 N550 0.984 . S
H558 N546 0.984 . S
H559 N546 0.985 1_556 S
C560 C561 1.363 1_455 S
C560 C566 1.379 1_455 S
C560 N568 1.356 . S
C561 C560 1.363 1_655 S
C561 C567 1.363 . S
C562 C563 1.363 . S
C562 C567 1.379 . S
C562 N569 1.356 . S
C563 C562 1.363 . S
C563 C566 1.363 . S
N564 C566 1.356 . S
N564 H576 0.984 . S
N564 H577 0.985 . S
N565 C567 1.356 . S
N565 H570 0.984 . S
N565 H571 0.985 . S
C566 C560 1.379 1_655 S
C566 C563 1.363 . S
C566 N564 1.356 . S
C567 C561 1.363 . S
C567 C562 1.379 . S
C567 N565 1.356 . S
N568 C560 1.356 . S
N568 H574 0.984 . S
N568 H575 0.984 . S
N569 C562 1.356 . S
N569 H572 0.984 . S
N569 H573 0.985 . S
H570 N565 0.984 . S
H571 N565 0.985 . S
H572 N569 0.984 . S
H573 N569 0.985 . S
H574 N568 0.984 . S
H575 N568 0.984 . S
H576 N564 0.984 . S
H577 N564 0.985 . S
C578 C579 1.363 1_545 S
C578 C584 1.379 1_545 S
C578 N586 1.356 . S
C579 C578 1.363 1_565 S
C579 C585 1.363 . S
C580 C581 1.363 . S
C580 C585 1.379 . S
C580 N587 1.356 . S
C581 C580 1.363 . S
C581 C584 1.363 . S
N582 C584 1.356 . S
N582 H594 0.984 . S
N582 H595 0.985 . S
N583 C585 1.356 . S
N583 H588 0.984 . S
N583 H589 0.985 . S
C584 C578 1.379 1_565 S
C584 C581 1.363 . S
C584 N582 1.356 . S
C585 C579 1.363 . S
C585 C580 1.379 . S
C585 N583 1.356 . S
N586 C578 1.356 . S
N586 H592 0.984 . S
N586 H593 0.984 . S
N587 C580 1.356 . S
N587 H590 0.984 . S
N587 H591 0.985 . S
H588 N583 0.984 . S
H589 N583 0.985 . S
H590 N587 0.984 . S
H591 N587 0.985 . S
H592 N586 0.984 . S
H593 N586 0.984 . S
H594 N582 0.984 . S
H595 N582 0.985 . S
C596 C597 1.363 . S
C596 C602 1.379 . S
C596 N604 1.356 . S
C597 C596 1.363 . S
C597 C603 1.363 . S
C598 C599 1.363 . S
C598 C603 1.379 . S
C598 N605 1.356 . S
C599 C598 1.363 . S
C599 C602 1.363 . S
N600 C602 1.356 . S
N600 H612 0.984 . S
N600 H613 0.985 . S
N601 C603 1.356 . S
N601 H606 0.984 . S
N601 H607 0.985 . S
C602 C596 1.379 . S
C602 C599 1.363 . S
C602 N600 1.356 . S
C603 C597 1.363 . S
C603 C598 1.379 . S
C603 N601 1.356 . S
N604 C596 1.356 . S
N604 H610 0.984 . S
N604 H611 0.984 . S
N605 C598 1.356 . S
N605 H608 0.984 . S
N605 H609 0.985 . S
H606 N601 0.984 . S
H607 N601 0.985 . S
H608 N605 0.984 . S
H609 N605 0.985 . S
H610 N604 0.984 . S
H611 N604 0.984 . S
H612 N600 0.984 . S
H613 N600 0.985 . S
C614 C615 1.363 . S
C614 C620 1.379 . S
C614 N622 1.356 . S
C615 C614 1.363 . S
C615 C621 1.363 . S
C616 C617 1.363 . S
C616 C621 1.379 . S
C616 N623 1.356 . S
C617 C616 1.363 . S
C617 C620 1.363 . S
N618 C620 1.356 . S
N618 H630 0.984 . S
N618 H631 0.985 . S
N619 C621 1.356 . S
N619 H624 0.984 . S
N619 H625 0.985 . S
C620 C614 1.379 . S
C620 C617 1.363 . S
C620 N618 1.356 . S
C621 C615 1.363 . S
C621 C616 1.379 . S
C621 N619 1.356 . S
N622 C614 1.356 . S
N622 H628 0.984 . S
N622 H629 0.984 . S
N623 C616 1.356 . S
N623 H626 0.984 . S
N623 H627 0.985 . S
H624 N619 0.984 . S
H625 N619 0.985 . S
H626 N623 0.984 . S
H627 N623 0.985 . S
H628 N622 0.984 . S
H629 N622 0.984 . S
H630 N618 0.984 . S
H631 N618 0.985 . S
C632 C633 1.363 . S
C632 C638 1.379 . S
C632 N640 1.356 . S
C633 C632 1.363 . S
C633 C639 1.363 . S
C634 C635 1.363 . S
C634 C639 1.379 . S
C634 N641 1.356 . S
C635 C634 1.363 . S
C635 C638 1.363 . S
N636 C638 1.356 . S
N636 H648 0.984 . S
N636 H649 0.985 . S
N637 C639 1.356 1_655 S
N637 H642 0.984 . S
N637 H643 0.985 . S
C638 C632 1.379 . S
C638 C635 1.363 . S
C638 N636 1.356 . S
C639 C633 1.363 . S
C639 C634 1.379 . S
C639 N637 1.356 1_455 S
N640 C632 1.356 . S
N640 H646 0.984 . S
N640 H647 0.984 1_455 S
N641 C634 1.356 . S
N641 H644 0.984 . S
N641 H645 0.985 . S
H642 N637 0.984 . S
H643 N637 0.985 . S
H644 N641 0.984 . S
H645 N641 0.985 . S
H646 N640 0.984 . S
H647 N640 0.984 1_655 S
H648 N636 0.984 . S
H649 N636 0.985 . S
C650 C651 1.363 . S
C650 C656 1.379 . S
C650 N658 1.356 . S
C651 C650 1.363 . S
C651 C657 1.363 1_545 S
C652 C653 1.363 . S
C652 C657 1.379 1_545 S
C652 N659 1.356 . S
C653 C652 1.363 . S
C653 C656 1.363 . S
N654 C656 1.356 . S
N654 H666 0.984 . S
N654 H667 0.985 . S
N655 C657 1.356 . S
N655 H660 0.984 . S
N655 H661 0.985 . S
C656 C650 1.379 . S
C656 C653 1.363 . S
C656 N654 1.356 . S
C657 C651 1.363 1_565 S
C657 C652 1.379 1_565 S
C657 N655 1.356 . S
N658 C650 1.356 . S
N658 H664 0.984 . S
N658 H665 0.984 . S
N659 C652 1.356 . S
N659 H662 0.984 . S
N659 H663 0.985 . S
H660 N655 0.984 . S
H661 N655 0.985 . S
H662 N659 0.984 . S
H663 N659 0.985 . S
H664 N658 0.984 . S
H665 N658 0.984 . S
H666 N654 0.984 . S
H667 N654 0.985 . S
C668 C669 1.363 . S
C668 C674 1.379 . S
C668 N676 1.356 . S
C669 C668 1.363 . S
C669 C675 1.363 . S
C670 C671 1.363 . S
C670 C675 1.379 . S
C670 N677 1.356 . S
C671 C670 1.363 . S
C671 C674 1.363 . S
N672 C674 1.356 . S
N672 H684 0.984 . S
N672 H685 0.985 . S
N673 C675 1.356 . S
N673 H678 0.984 . S
N673 H679 0.985 . S
C674 C668 1.379 . S
C674 C671 1.363 . S
C674 N672 1.356 . S
C675 C669 1.363 . S
C675 C670 1.379 . S
C675 N673 1.356 . S
N676 C668 1.356 . S
N676 H682 0.984 . S
N676 H683 0.984 . S
N677 C670 1.356 . S
N677 H680 0.984 . S
N677 H681 0.985 . S
H678 N673 0.984 . S
H679 N673 0.985 . S
H680 N677 0.984 . S
H681 N677 0.985 . S
H682 N676 0.984 . S
H683 N676 0.984 . S
H684 N672 0.984 . S
H685 N672 0.985 . S
C686 C687 1.363 . S
C686 C692 1.379 . S
C686 N694 1.356 . S
C687 C686 1.363 . S
C687 C693 1.363 . S
C688 C689 1.363 . S
C688 C693 1.379 . S
C688 N695 1.356 . S
C689 C688 1.363 . S
C689 C692 1.363 . S
N690 C692 1.356 . S
N690 H702 0.984 . S
N690 H703 0.985 . S
N691 C693 1.356 . S
N691 H696 0.984 . S
N691 H697 0.985 . S
C692 C686 1.379 . S
C692 C689 1.363 . S
C692 N690 1.356 . S
C693 C687 1.363 . S
C693 C688 1.379 . S
C693 N691 1.356 . S
N694 C686 1.356 . S
N694 H700 0.984 . S
N694 H701 0.984 . S
N695 C688 1.356 . S
N695 H698 0.984 . S
N695 H699 0.985 . S
H696 N691 0.984 . S
H697 N691 0.985 . S
H698 N695 0.984 . S
H699 N695 0.985 . S
H700 N694 0.984 . S
H701 N694 0.984 . S
H702 N690 0.984 . S
H703 N690 0.985 . S
C704 C705 1.363 . S
C704 C710 1.379 . S
C704 N712 1.356 . S
C705 C704 1.363 . S
C705 C711 1.363 1_455 S
C706 C707 1.363 1_655 S
C706 C711 1.379 . S
C706 N713 1.356 . S
C707 C706 1.363 1_455 S
C707 C710 1.363 . S
N708 C710 1.356 . S
N708 H720 0.984 . S
N708 H721 0.985 . S
N709 C711 1.356 . S
N709 H714 0.984 . S
N709 H715 0.985 . S
C710 C704 1.379 . S
C710 C707 1.363 . S
C710 N708 1.356 . S
C711 C705 1.363 1_655 S
C711 C706 1.379 . S
C711 N709 1.356 . S
N712 C704 1.356 . S
N712 H718 0.984 . S
N712 H719 0.984 . S
N713 C706 1.356 . S
N713 H716 0.984 . S
N713 H717 0.985 . S
H714 N709 0.984 . S
H715 N709 0.985 . S
H716 N713 0.984 . S
H717 N713 0.985 . S
H718 N712 0.984 . S
H719 N712 0.984 . S
H720 N708 0.984 . S
H721 N708 0.985 . S
C722 C723 1.363 1_565 S
C722 C728 1.379 . S
C722 N730 1.356 . S
C723 C722 1.363 1_545 S
C723 C729 1.363 . S
C724 C725 1.363 . S
C724 C729 1.379 . S
C724 N731 1.356 . S
C725 C724 1.363 . S
C725 C728 1.363 1_545 S
N726 C728 1.356 . S
N726 H738 0.984 . S
N726 H739 0.985 . S
N727 C729 1.356 . S
N727 H732 0.984 . S
N727 H733 0.985 . S
C728 C722 1.379 . S
C728 C725 1.363 1_565 S
C728 N726 1.356 . S
C729 C723 1.363 . S
C729 C724 1.379 . S
C729 N727 1.356 . S
N730 C722 1.356 . S
N730 H736 0.984 . S
N730 H737 0.984 . S
N731 C724 1.356 . S
N731 H734 0.984 . S
N731 H735 0.985 . S
H732 N727 0.984 . S
H733 N727 0.985 . S
H734 N731 0.984 . S
H735 N731 0.985 . S
H736 N730 0.984 . S
H737 N730 0.984 . S
H738 N726 0.984 . S
H739 N726 0.985 . S
C740 C741 1.363 . S
C740 C746 1.379 . S
C740 N748 1.356 . S
C741 C740 1.363 . S
C741 C747 1.363 . S
C742 C743 1.363 . S
C742 C747 1.379 . S
C742 N749 1.356 . S
C743 C742 1.363 . S
C743 C746 1.363 . S
N744 C746 1.356 . S
N744 H756 0.984 . S
N744 H757 0.985 . S
N745 C747 1.356 . S
N745 H750 0.984 . S
N745 H751 0.985 . S
C746 C740 1.379 . S
C746 C743 1.363 . S
C746 N744 1.356 . S
C747 C741 1.363 . S
C747 C742 1.379 . S
C747 N745 1.356 . S
N748 C740 1.356 . S
N748 H754 0.984 . S
N748 H755 0.984 . S
N749 C742 1.356 . S
N749 H752 0.984 . S
N749 H753 0.985 . S
H750 N745 0.984 . S
H751 N745 0.985 . S
H752 N749 0.984 . S
H753 N749 0.985 . S
H754 N748 0.984 . S
H755 N748 0.984 . S
H756 N744 0.984 . S
H757 N744 0.985 . S
C758 C759 1.363 . S
C758 C764 1.379 . S
C758 N766 1.356 . S
C759 C758 1.363 . S
C759 C765 1.363 . S
C760 C761 1.363 . S
C760 C765 1.379 . S
C760 N767 1.356 . S
C761 C760 1.363 . S
C761 C764 1.363 . S
N762 C764 1.356 . S
N762 H774 0.984 . S
N762 H775 0.985 . S
N763 C765 1.356 . S
N763 H768 0.984 . S
N763 H769 0.985 . S
C764 C758 1.379 . S
C764 C761 1.363 . S
C764 N762 1.356 . S
C765 C759 1.363 . S
C765 C760 1.379 . S
C765 N763 1.356 . S
N766 C758 1.356 . S
N766 H772 0.984 . S
N766 H773 0.984 . S
N767 C760 1.356 . S
N767 H770 0.984 . S
N767 H771 0.985 . S
H768 N763 0.984 . S
H769 N763 0.985 . S
H770 N767 0.984 . S
H771 N767 0.985 . S
H772 N766 0.984 . S
H773 N766 0.984 . S
H774 N762 0.984 . S
H775 N762 0.985 . S
C776 C777 1.363 1_455 S
C776 C782 1.380 . S
C776 N784 1.356 . S
C777 C776 1.363 1_655 S
C777 C783 1.363 . S
C778 C779 1.363 . S
C778 C783 1.379 . S
C778 N785 1.356 . S
C779 C778 1.363 . S
C779 C782 1.358 1_655 S
N780 C782 1.359 . S
N780 H792 0.984 . S
N780 H793 0.985 . S
N781 C783 1.356 . S
N781 H786 0.984 . S
N781 H787 0.985 . S
C782 C776 1.380 . S
C782 C779 1.358 1_455 S
C782 N780 1.359 . S
C783 C777 1.363 . S
C783 C778 1.379 . S
C783 N781 1.356 . S
N784 C776 1.356 . S
N784 H790 0.984 . S
N784 H791 0.984 . S
N785 C778 1.356 . S
N785 H788 0.984 . S
N785 H789 0.985 . S
H786 N781 0.984 . S
H787 N781 0.985 . S
H788 N785 0.984 . S
H789 N785 0.985 . S
H790 N784 0.984 . S
H791 N784 0.984 . S
H792 N780 0.984 . S
H793 N780 0.985 . S
C794 C795 1.363 . S
C794 C800 1.379 . S
C794 N802 1.356 . S
C795 C794 1.363 . S
C795 C801 1.363 1_565 S
C796 C797 1.363 1_545 S
C796 C801 1.379 . S
C796 N803 1.356 . S
C797 C796 1.363 1_565 S
C797 C800 1.363 . S
N798 C800 1.356 . S
N798 H810 0.984 . S
N798 H811 0.985 . S
N799 C801 1.356 . S
N799 H804 0.984 . S
N799 H805 0.985 . S
C800 C794 1.379 . S
C800 C797 1.363 . S
C800 N798 1.356 . S
C801 C795 1.363 1_545 S
C801 C796 1.379 . S
C801 N799 1.356 . S
N802 C794 1.356 . S
N802 H808 0.984 . S
N802 H809 0.984 . S
N803 C796 1.356 . S
N803 H806 0.984 . S
N803 H807 0.985 . S
H804 N799 0.984 . S
H805 N799 0.985 . S
H806 N803 0.984 . S
H807 N803 0.985 . S
H808 N802 0.984 . S
H809 N802 0.984 . S
H810 N798 0.984 . S
H811 N798 0.985 . S
C812 C813 1.363 . S
C812 C818 1.379 . S
C812 N820 1.356 . S
C813 C812 1.363 . S
C813 C819 1.363 . S
C814 C815 1.363 . S
C814 C819 1.379 . S
C814 N821 1.356 . S
C815 C814 1.363 . S
C815 C818 1.363 . S
N816 C818 1.356 . S
N816 H828 0.984 . S
N816 H829 0.985 . S
N817 C819 1.356 . S
N817 H822 0.984 . S
N817 H823 0.985 . S
C818 C812 1.379 . S
C818 C815 1.363 . S
C818 N816 1.356 . S
C819 C813 1.363 . S
C819 C814 1.379 . S
C819 N817 1.356 . S
N820 C812 1.356 . S
N820 H826 0.984 . S
N820 H827 0.984 . S
N821 C814 1.356 . S
N821 H824 0.984 . S
N821 H825 0.985 . S
H822 N817 0.984 . S
H823 N817 0.985 . S
H824 N821 0.984 . S
H825 N821 0.985 . S
H826 N820 0.984 . S
H827 N820 0.984 . S
H828 N816 0.984 . S
H829 N816 0.985 . S
C830 C831 1.363 . S
C830 C836 1.379 . S
C830 N838 1.356 . S
C831 C830 1.363 . S
C831 C837 1.363 . S
C832 C833 1.363 . S
C832 C837 1.379 . S
C832 N839 1.356 . S
C833 C832 1.363 . S
C833 C836 1.363 . S
N834 C836 1.356 . S
N834 H846 0.984 . S
N834 H847 0.985 . S
N835 C837 1.356 . S
N835 H840 0.984 . S
N835 H841 0.985 . S
C836 C830 1.379 . S
C836 C833 1.363 . S
C836 N834 1.356 . S
C837 C831 1.363 . S
C837 C832 1.379 . S
C837 N835 1.356 . S
N838 C830 1.356 . S
N838 H844 0.984 . S
N838 H845 0.984 . S
N839 C832 1.356 . S
N839 H842 0.984 . S
N839 H843 0.985 . S
H840 N835 0.984 . S
H841 N835 0.985 . S
H842 N839 0.984 . S
H843 N839 0.985 . S
H844 N838 0.984 . S
H845 N838 0.984 . S
H846 N834 0.984 . S
H847 N834 0.985 . S
C417 C215 2.310 . S
C419 C265 2.602 1_545 S
C437 C305 2.623 . S
C435 C247 2.312 . S
C455 C345 2.631 . S
C453 C151 2.322 . S
C473 C385 2.610 1_455 S
C471 C183 2.320 . S
C491 C274 2.603 1_564 S
C489 C87 2.312 1_565 S
C507 C119 2.354 . S
C509 C314 2.625 1_554 S
C525 C23 2.366 . S
C527 C354 2.631 1_554 S
C543 C55 2.319 1_655 S
C545 C394 2.610 1_654 S
C563 C271 0.828 . S
C561 C189 0.877 1_655 S
C581 C311 0.822 . S
C579 C221 0.865 1_565 S
C599 C351 0.793 . S
C597 C253 0.817 . S
C615 C157 0.827 . S
C617 C391 0.794 . S
C633 C61 0.800 . S
C635 C262 0.831 . S
C653 C302 0.822 . S
C651 C93 0.794 . S
C671 C342 0.793 . S
C669 C125 0.780 . S
C687 C29 0.784 . S
C689 C382 0.801 . S
C705 C177 2.846 . S
C707 C275 3.277 . S
C723 C209 2.805 . S
C725 C315 3.242 . S
C743 C355 3.231 . S
C741 C241 2.780 . S
C761 C395 3.271 . S
C759 C145 2.816 . S
C777 C49 2.892 1_655 S
C779 C266 3.286 . S
C797 C306 3.242 . S
C795 C81 2.852 1_565 S
C815 C346 3.231 . S
C813 C113 2.858 . S
C831 C17 2.896 . S
C833 C386 3.275 . S
