# Generated by pormake.
# Topology nom, (4,4)-cn, num edge types: 1
# Building blocks:
#     Node 0, Type 0, BuildingBlock: KUFVIS_clean_linker_0, # of connection points: 4
#     Node 1, Type 0, BuildingBlock: KUFVIS_clean_linker_0, # of connection points: 4
#     Node 2, Type 0, BuildingBlock: KUFVIS_clean_linker_0, # of connection points: 4
#     Node 3, Type 0, BuildingBlock: KUFVIS_clean_linker_0, # of connection points: 4
#     Node 4, Type 0, BuildingBlock: KUFVIS_clean_linker_0, # of connection points: 4
#     Node 5, Type 0, BuildingBlock: KUFVIS_clean_linker_0, # of connection points: 4
#     Node 6, Type 1, BuildingBlock: UXUYUI_clean_sbu_0, # of connection points: 4
#     Node 7, Type 1, BuildingBlock: UXUYUI_clean_sbu_0, # of connection points: 4
#     Node 8, Type 1, BuildingBlock: UXUYUI_clean_sbu_0, # of connection points: 4
#     Node 9, Type 1, BuildingBlock: UXUYUI_clean_sbu_0, # of connection points: 4
#     Node 10, Type 1, BuildingBlock: UXUYUI_clean_sbu_0, # of connection points: 4
#     Node 11, Type 1, BuildingBlock: UXUYUI_clean_sbu_0, # of connection points: 4
#     Edge 12, Type (0, 1), BuildingBlock: KIFKEQ_clean_linker_1, # of connection points: 2
#     Edge 13, Type (0, 1), BuildingBlock: KIFKEQ_clean_linker_1, # of connection points: 2
#     Edge 14, Type (0, 1), BuildingBlock: KIFKEQ_clean_linker_1, # of connection points: 2
#     Edge 15, Type (0, 1), BuildingBlock: KIFKEQ_clean_linker_1, # of connection points: 2
#     Edge 16, Type (0, 1), BuildingBlock: KIFKEQ_clean_linker_1, # of connection points: 2
#     Edge 17, Type (0, 1), BuildingBlock: KIFKEQ_clean_linker_1, # of connection points: 2
#     Edge 18, Type (0, 1), BuildingBlock: KIFKEQ_clean_linker_1, # of connection points: 2
#     Edge 19, Type (0, 1), BuildingBlock: KIFKEQ_clean_linker_1, # of connection points: 2
#     Edge 20, Type (0, 1), BuildingBlock: KIFKEQ_clean_linker_1, # of connection points: 2
#     Edge 21, Type (0, 1), BuildingBlock: KIFKEQ_clean_linker_1, # of connection points: 2
#     Edge 22, Type (0, 1), BuildingBlock: KIFKEQ_clean_linker_1, # of connection points: 2
#     Edge 23, Type (0, 1), BuildingBlock: KIFKEQ_clean_linker_1, # of connection points: 2
#     Edge 24, Type (0, 1), BuildingBlock: KIFKEQ_clean_linker_1, # of connection points: 2
#     Edge 25, Type (0, 1), BuildingBlock: KIFKEQ_clean_linker_1, # of connection points: 2
#     Edge 26, Type (0, 1), BuildingBlock: KIFKEQ_clean_linker_1, # of connection points: 2
#     Edge 27, Type (0, 1), BuildingBlock: KIFKEQ_clean_linker_1, # of connection points: 2
#     Edge 28, Type (0, 1), BuildingBlock: KIFKEQ_clean_linker_1, # of connection points: 2
#     Edge 29, Type (0, 1), BuildingBlock: KIFKEQ_clean_linker_1, # of connection points: 2
#     Edge 30, Type (0, 1), BuildingBlock: KIFKEQ_clean_linker_1, # of connection points: 2
#     Edge 31, Type (0, 1), BuildingBlock: KIFKEQ_clean_linker_1, # of connection points: 2
#     Edge 32, Type (0, 1), BuildingBlock: KIFKEQ_clean_linker_1, # of connection points: 2
#     Edge 33, Type (0, 1), BuildingBlock: KIFKEQ_clean_linker_1, # of connection points: 2
#     Edge 34, Type (0, 1), BuildingBlock: KIFKEQ_clean_linker_1, # of connection points: 2
#     Edge 35, Type (0, 1), BuildingBlock: KIFKEQ_clean_linker_1, # of connection points: 2
# Relax obj value: 0.035
# Max RMSD: 0.147
# Mean RMSD: 0.094
data_MOF--net-nom--node1-UXUYUI_clean_sbu_0--node2-KUFVIS_clean_linker_0--edge1-KIFKEQ_clean_linker_1
_symmetry_space_group_name_H-M    P1
_symmetry_Int_Tables_number       1
_symmetry_cell_setting            triclinic
loop_
_symmetry_equiv_pos_as_xyz
'x, y, z'
_cell_length_a     56.468436
_cell_length_b     56.457096
_cell_length_c     57.83836
_cell_angle_alpha  90.026802
_cell_angle_beta   90.01017
_cell_angle_gamma 119.98993
loop_
_atom_site_label
_atom_site_type_symbol
_atom_site_fract_x
_atom_site_fract_y
_atom_site_fract_z
_atom_type_partial_charge
H0 H 0.12679 0.58917 0.3412 0.0
H1 H 0.05939 0.57003 0.29604 0.0
H2 H 0.04525 0.53291 0.36391 0.0
H3 H 1.0054 0.53638 0.35906 0.0
H4 H 0.94065 0.4858 0.31232 0.0
H5 H 0.02357 0.52527 0.28843 0.0
C6 C 0.10493 0.57797 0.33792 0.0
C7 C 0.08713 0.56074 0.35497 0.0
C8 C 0.09505 0.58134 0.31679 0.0
C9 C 0.06683 0.56712 0.31244 0.0
C10 C 0.04837 0.54941 0.32937 0.0
C11 C 0.05885 0.54666 0.35079 0.0
C12 C 1.01842 0.53292 0.32443 0.0
C13 C 0.99893 0.52745 0.34203 0.0
C14 C 0.97093 0.51021 0.33767 0.0
C15 C 0.96234 0.49877 0.31572 0.0
C16 C 0.98113 0.50447 0.29789 0.0
C17 C 1.00913 0.52159 0.30221 0.0
H18 H 0.57626 0.1205 0.50682 0.0
H19 H 0.52618 0.05638 0.45938 0.0
H20 H 0.53567 0.03725 0.53003 0.0
H21 H 0.49061 1.00231 0.52192 0.0
H22 H 0.46905 0.93513 0.47571 0.0
H23 H 0.52901 0.0161 0.45464 0.0
C24 C 0.56343 0.09886 0.50315 0.0
C25 C 0.55718 0.07985 0.52093 0.0
C26 C 0.55244 0.09059 0.48099 0.0
C27 C 0.53492 0.06267 0.47649 0.0
C28 C 0.52887 0.04296 0.494 0.0
C29 C 0.53989 0.05192 0.51634 0.0
C30 C 0.51178 1.01314 0.48884 0.0
C31 C 0.49329 0.99482 0.50544 0.0
C32 C 0.47771 0.96675 0.50056 0.0
C33 C 0.48094 0.95689 0.47934 0.0
C34 C 0.49936 0.97451 0.46281 0.0
C35 C 0.51449 1.00264 0.46742 0.0
H36 H 0.5563 0.45891 0.63669 0.0
H37 H 0.51525 0.48204 0.68642 0.0
H38 H 0.53481 0.51929 0.61844 0.0
H39 H 0.49467 0.51997 0.62574 0.0
H40 H 0.48476 0.57003 0.67614 0.0
H41 H 0.52469 0.52553 0.69566 0.0
C42 C 0.54694 0.47102 0.64128 0.0
C43 C 0.54651 0.48917 0.62512 0.0
C44 C 0.53579 0.46843 0.66332 0.0
C45 C 0.52403 0.4844 0.66935 0.0
C46 C 0.52318 0.50283 0.65322 0.0
C47 C 0.53445 0.50487 0.63098 0.0
C48 C 0.51153 0.52061 0.65974 0.0
C49 C 0.49802 0.52812 0.64314 0.0
C50 C 0.4889 0.5464 0.64894 0.0
C51 C 0.49256 0.55658 0.67148 0.0
C52 C 0.50489 0.54868 0.68839 0.0
C53 C 0.51445 0.53082 0.68253 0.0
H54 H 0.12334 0.54662 0.80229 0.0
H55 H 0.06135 0.50707 0.85418 0.0
H56 H 0.04121 0.52634 0.78703 0.0
H57 H 1.00144 0.4853 0.79461 0.0
H58 H 0.94187 0.47535 0.84527 0.0
H59 H 0.02667 0.51645 0.86414 0.0
C60 C 0.10216 0.5376 0.80769 0.0
C61 C 0.083 0.53724 0.79229 0.0
C62 C 0.09458 0.52695 0.83001 0.0
C63 C 0.06715 0.51563 0.83698 0.0
C64 C 0.04728 0.51472 0.82145 0.0
C65 C 0.05568 0.52593 0.79909 0.0
C66 C 1.01797 0.50266 0.82843 0.0
C67 C 0.99678 0.48871 0.81204 0.0
C68 C 0.96943 0.47941 0.81798 0.0
C69 C 0.96311 0.48323 0.84053 0.0
C70 C 0.98351 0.49611 0.85727 0.0
C71 C 1.01093 0.5058 0.85124 0.0
H72 H 0.50399 0.93588 0.01188 0.0
H73 H 0.55289 0.99785 0.96252 0.0
H74 H 0.53676 0.02027 0.02992 0.0
H75 H 0.58122 0.05714 0.02244 0.0
H76 H 0.60285 0.11931 0.97087 0.0
H77 H 0.54761 0.03566 0.95326 0.0
C78 C 0.51574 0.95735 0.0072 0.0
C79 C 0.5191 0.97727 0.02327 0.0
C80 C 0.52784 0.96466 0.9854 0.0
C81 C 0.54327 0.99241 0.97937 0.0
C82 C 0.54669 1.01297 0.99529 0.0
C83 C 0.53465 1.00504 0.01742 0.0
C84 C 0.56241 0.04251 0.98871 0.0
C85 C 0.57911 0.06281 0.005 0.0
C86 C 0.59393 0.0905 0.9985 0.0
C87 C 0.59162 0.09793 0.97592 0.0
C88 C 0.57508 0.07828 0.95971 0.0
C89 C 0.56061 0.05063 0.96599 0.0
H90 H 0.49526 0.57949 0.14095 0.0
H91 H 0.55025 0.57516 0.18946 0.0
H92 H 0.53923 0.53885 0.12149 0.0
H93 H 0.58424 0.55056 0.12859 0.0
H94 H 0.61666 0.5204 0.18064 0.0
H95 H 0.55231 0.53616 0.19844 0.0
C96 C 0.50923 0.57226 0.14541 0.0
C97 C 0.5159 0.55856 0.12876 0.0
C98 C 0.52136 0.57814 0.16728 0.0
C99 C 0.5405 0.57001 0.17265 0.0
C100 C 0.54694 0.55528 0.15642 0.0
C101 C 0.53469 0.55002 0.1343 0.0
C102 C 0.56612 0.54524 0.16277 0.0
C103 C 0.58406 0.5441 0.14625 0.0
C104 C 0.60244 0.53527 0.15267 0.0
C105 C 0.60291 0.52772 0.17564 0.0
C106 C 0.58506 0.52817 0.19208 0.0
C107 C 0.56646 0.53653 0.18561 0.0
Li108 Li 0.65355 0.4087 0.42954 0.0
Li109 Li 0.64637 0.36748 0.41045 0.0
Li110 Li 0.69004 0.41141 0.4073 0.0
Li111 Li 0.64988 0.40706 0.38744 0.0
C112 C 0.67386 0.38722 0.45854 0.0
N113 N 0.67432 0.38511 0.50625 0.0
C114 C 0.65818 0.36233 0.47 0.0
C115 C 0.6899 0.411 0.47134 0.0
C116 C 0.65867 0.3617 0.49413 0.0
C117 C 0.6898 0.40952 0.49545 0.0
C118 C 0.59909 0.37528 0.42356 0.0
C119 C 0.56119 0.38098 0.43512 0.0
N120 N 0.55392 0.36089 0.45114 0.0
C121 C 0.5912 0.35465 0.44011 0.0
C122 C 0.58391 0.38851 0.42098 0.0
C123 C 0.56832 0.34767 0.45389 0.0
C124 C 0.64765 0.44903 0.45293 0.0
N125 N 0.64293 0.42304 0.45521 0.0
C126 C 0.61898 0.41765 0.49067 0.0
C127 C 0.6291 0.40742 0.47375 0.0
C128 C 0.62321 0.44427 0.48857 0.0
C129 C 0.63811 0.46018 0.46956 0.0
H130 H 0.65823 0.46091 0.43784 0.0
H131 H 0.62533 0.38677 0.47523 0.0
C132 C 0.64768 0.31895 0.41674 0.0
N133 N 0.63075 0.32868 0.41115 0.0
C134 C 0.63757 0.29083 0.4183 0.0
C135 C 0.59285 0.28316 0.40777 0.0
C136 C 0.60388 0.31147 0.40629 0.0
C137 C 0.60973 0.27249 0.41404 0.0
H138 H 0.66899 0.33314 0.42039 0.0
H139 H 0.59093 0.31974 0.40153 0.0
C140 C 0.69963 0.46078 0.40233 0.0
N141 N 0.74869 0.5073 0.39252 0.0
C142 C 0.70737 0.46851 0.37939 0.0
C143 C 0.71671 0.47675 0.42029 0.0
C144 C 0.73229 0.4921 0.37478 0.0
C145 C 0.74147 0.50019 0.41497 0.0
C146 C 0.65775 0.36788 0.36356 0.0
C147 C 0.67459 0.36274 0.34922 0.0
C148 C 0.62957 0.35435 0.35952 0.0
C149 C 0.66296 0.34427 0.33093 0.0
C150 C 0.61872 0.33602 0.34106 0.0
N151 N 0.63551 0.3314 0.32726 0.0
C152 C 0.74602 0.43528 0.42215 0.0
C153 C 0.73813 0.42877 0.38181 0.0
C154 C 0.7741 0.4459 0.41885 0.0
N155 N 0.72871 0.42687 0.40373 0.0
C156 C 0.76594 0.43902 0.37773 0.0
C157 C 0.78432 0.44753 0.3964 0.0
H158 H 0.73805 0.43355 0.43942 0.0
H159 H 0.72396 0.4222 0.36746 0.0
C160 C 0.62678 0.43579 0.36916 0.0
N161 N 0.63706 0.41963 0.36248 0.0
C162 C 0.61748 0.44735 0.35276 0.0
C163 C 0.62981 0.42573 0.32272 0.0
C164 C 0.63905 0.41469 0.33975 0.0
C165 C 0.61894 0.44238 0.32917 0.0
H166 H 0.62626 0.44006 0.38732 0.0
H167 H 0.64826 0.4027 0.33472 0.0
O168 O 0.67373 0.3882 0.43492 0.0
O169 O 0.62153 0.38249 0.40998 0.0
O170 O 0.67576 0.43728 0.40718 0.0
O171 O 0.66884 0.38552 0.3818 0.0
H172 H 0.64565 0.34373 0.46038 0.0
H173 H 0.70192 0.43046 0.46277 0.0
H174 H 0.64657 0.34261 0.50323 0.0
H175 H 0.70195 0.4278 0.50558 0.0
H176 H 0.54931 0.3911 0.43334 0.0
H177 H 0.60294 0.34452 0.44267 0.0
H178 H 0.58959 0.40441 0.40822 0.0
H179 H 0.56212 0.33187 0.46686 0.0
H180 H 0.60786 0.40481 0.50522 0.0
H181 H 0.6416 0.48072 0.46719 0.0
H182 H 0.65126 0.28355 0.42346 0.0
H183 H 0.57135 0.26976 0.4041 0.0
H184 H 0.69447 0.45622 0.36529 0.0
H185 H 0.71101 0.47097 0.43814 0.0
H186 H 0.73865 0.49826 0.35711 0.0
H187 H 0.75498 0.51269 0.42868 0.0
H188 H 0.69642 0.37285 0.35224 0.0
H189 H 0.61619 0.35804 0.37041 0.0
H190 H 0.67576 0.34011 0.31967 0.0
H191 H 0.59697 0.32546 0.33771 0.0
H192 H 0.78755 0.45209 0.43372 0.0
H193 H 0.77299 0.4403 0.36012 0.0
H194 H 0.60927 0.46007 0.35849 0.0
H195 H 0.63188 0.42191 0.30468 0.0
Li196 Li 0.26928 0.64949 0.5969 0.0
Li197 Li 0.30547 0.64472 0.57798 0.0
Li198 Li 0.30418 0.68807 0.57337 0.0
Li199 Li 0.27108 0.64531 0.55362 0.0
C200 C 0.31529 0.68635 0.62253 0.0
N201 N 0.32673 0.71593 0.66314 0.0
C202 C 0.32939 0.68201 0.64038 0.0
C203 C 0.30728 0.70593 0.62527 0.0
C204 C 0.33489 0.69711 0.66081 0.0
C205 C 0.31319 0.72063 0.64593 0.0
C206 C 0.26514 0.59454 0.58271 0.0
C207 C 0.26872 0.55575 0.57008 0.0
N208 N 0.26631 0.54724 0.59239 0.0
C209 C 0.26251 0.58534 0.60549 0.0
C210 C 0.26809 0.57958 0.56482 0.0
C211 C 0.26321 0.56139 0.61004 0.0
C212 C 0.21781 0.63086 0.61603 0.0
N213 N 0.24406 0.63877 0.62183 0.0
C214 C 0.23162 0.62849 0.66157 0.0
C215 C 0.25128 0.63769 0.64405 0.0
C216 C 0.20427 0.62017 0.65611 0.0
C217 C 0.19752 0.62158 0.63297 0.0
H218 H 0.21262 0.63163 0.59815 0.0
H219 H 0.27212 0.64338 0.64814 0.0
C220 C 0.34262 0.62648 0.56429 0.0
N221 N 0.32892 0.62962 0.58228 0.0
C222 C 0.36012 0.61598 0.56803 0.0
C223 C 0.34899 0.61213 0.60869 0.0
C224 C 0.3316 0.62247 0.60414 0.0
C225 C 0.36374 0.60901 0.59054 0.0
H226 H 0.3403 0.63246 0.54709 0.0
H227 H 0.32022 0.62487 0.61808 0.0
C228 C 0.25153 0.68614 0.57138 0.0
N229 N 0.226 0.71706 0.5698 0.0
C230 C 0.24425 0.6925 0.55015 0.0
C231 C 0.24534 0.69513 0.59184 0.0
C232 C 0.23152 0.70828 0.5497 0.0
C233 C 0.23256 0.71083 0.59067 0.0
C234 C 0.31537 0.66768 0.5263 0.0
C235 C 0.32547 0.69233 0.51428 0.0
C236 C 0.30893 0.64373 0.51425 0.0
C237 C 0.3287 0.69255 0.49031 0.0
C238 C 0.3124 0.64478 0.49029 0.0
N239 N 0.32212 0.66896 0.47892 0.0
C240 C 0.34963 0.74089 0.58232 0.0
C241 C 0.31702 0.74054 0.55637 0.0
C242 C 0.3658 0.76931 0.58034 0.0
N243 N 0.32562 0.72714 0.57054 0.0
C244 C 0.33253 0.7689 0.55385 0.0
C245 C 0.35734 0.78373 0.56591 0.0
H246 H 0.3563 0.72977 0.59319 0.0
H247 H 0.29843 0.72916 0.54654 0.0
C248 C 0.22627 0.60403 0.52954 0.0
N249 N 0.24753 0.63003 0.52748 0.0
C250 C 0.20713 0.59218 0.51174 0.0
C251 C 0.23225 0.63401 0.48991 0.0
C252 C 0.25079 0.64509 0.50818 0.0
C253 C 0.20994 0.60726 0.49161 0.0
H254 H 0.22392 0.59261 0.5452 0.0
H255 H 0.26746 0.66593 0.50711 0.0
O256 O 0.30951 0.67153 0.6025 0.0
O257 O 0.26521 0.6183 0.57798 0.0
O258 O 0.26373 0.67038 0.57213 0.0
O259 O 0.31201 0.66708 0.54975 0.0
H260 H 0.33597 0.66712 0.63854 0.0
H261 H 0.29697 0.71001 0.61147 0.0
H262 H 0.34568 0.69387 0.6748 0.0
H263 H 0.30709 0.73585 0.64824 0.0
H264 H 0.27114 0.54403 0.55642 0.0
H265 H 0.26028 0.59674 0.61954 0.0
H266 H 0.27 0.58636 0.54708 0.0
H267 H 0.26138 0.55412 0.62761 0.0
H268 H 0.23766 0.62722 0.67909 0.0
H269 H 0.1768 0.61562 0.62798 0.0
H270 H 0.37129 0.61411 0.55359 0.0
H271 H 0.3509 0.60666 0.62626 0.0
H272 H 0.24868 0.68564 0.53416 0.0
H273 H 0.25007 0.68986 0.6085 0.0
H274 H 0.22602 0.71353 0.53335 0.0
H275 H 0.22774 0.71796 0.60638 0.0
H276 H 0.33077 0.7111 0.52334 0.0
H277 H 0.30101 0.62447 0.52327 0.0
H278 H 0.33642 0.71147 0.48078 0.0
H279 H 0.30732 0.62636 0.48073 0.0
H280 H 0.38472 0.77985 0.59002 0.0
H281 H 0.32551 0.77897 0.54205 0.0
H282 H 0.19034 0.57144 0.5137 0.0
H283 H 0.23496 0.64653 0.47486 0.0
Li284 Li 0.6885 0.29854 0.7436 0.0
Li285 Li 0.64773 0.26277 0.76295 0.0
Li286 Li 0.65307 0.2638 0.71968 0.0
Li287 Li 0.64367 0.29719 0.73907 0.0
C288 C 0.69814 0.25772 0.74771 0.0
N289 N 0.74639 0.25762 0.7554 0.0
C290 C 0.70539 0.2545 0.77011 0.0
C291 C 0.71525 0.26054 0.72919 0.0
C292 C 0.72991 0.25458 0.77365 0.0
C293 C 0.73961 0.26054 0.73344 0.0
C294 C 0.65793 0.30887 0.78862 0.0
C295 C 0.62316 0.30851 0.81311 0.0
N296 N 0.64188 0.32032 0.83034 0.0
C297 C 0.67689 0.32128 0.8065 0.0
C298 C 0.63092 0.30266 0.7919 0.0
C299 C 0.66835 0.32679 0.82748 0.0
C300 C 0.74391 0.33649 0.73013 0.0
N301 N 0.72706 0.32177 0.74781 0.0
C302 C 0.76458 0.34035 0.77429 0.0
C303 C 0.7369 0.32318 0.76951 0.0
C304 C 0.78245 0.35619 0.75653 0.0
C305 C 0.7719 0.35382 0.7341 0.0
H306 H 0.7356 0.33511 0.71304 0.0
H307 H 0.72314 0.31097 0.78316 0.0
C308 C 0.61357 0.21228 0.78366 0.0
N309 N 0.63407 0.2381 0.78829 0.0
C310 C 0.60385 0.19231 0.80088 0.0
C311 C 0.6369 0.22572 0.82726 0.0
C312 C 0.64575 0.24516 0.80959 0.0
C313 C 0.6158 0.19886 0.82292 0.0
H314 H 0.60514 0.20706 0.76639 0.0
H315 H 0.66249 0.2656 0.81267 0.0
C316 C 0.67455 0.30726 0.69175 0.0
N317 N 0.67886 0.31233 0.6442 0.0
C318 C 0.6591 0.31617 0.67952 0.0
C319 C 0.69242 0.30124 0.67983 0.0
C320 C 0.66152 0.31854 0.65547 0.0
C321 C 0.69423 0.30383 0.65578 0.0
C322 C 0.59295 0.24542 0.73863 0.0
C323 C 0.57809 0.23685 0.718 0.0
C324 C 0.57902 0.24147 0.75954 0.0
C325 C 0.54969 0.22517 0.71856 0.0
C326 C 0.5506 0.22968 0.75939 0.0
N327 N 0.53664 0.22188 0.73907 0.0
C328 C 0.64947 0.21877 0.69594 0.0
C329 C 0.63079 0.24178 0.67518 0.0
C330 C 0.64096 0.19872 0.67881 0.0
N331 N 0.64416 0.23967 0.69391 0.0
C332 C 0.62184 0.22214 0.65767 0.0
C333 C 0.6266 0.20004 0.65949 0.0
H334 H 0.65964 0.21723 0.71122 0.0
H335 H 0.62637 0.25829 0.67411 0.0
C336 C 0.63607 0.3427 0.74743 0.0
N337 N 0.62597 0.31856 0.73588 0.0
C338 C 0.62374 0.35878 0.74505 0.0
C339 C 0.59115 0.3251 0.71865 0.0
C340 C 0.60406 0.3097 0.72157 0.0
C341 C 0.60095 0.35005 0.73045 0.0
H342 H 0.6538 0.34957 0.75844 0.0
H343 H 0.59702 0.29103 0.7119 0.0
O344 O 0.67453 0.25832 0.74397 0.0
O345 O 0.66592 0.30312 0.768 0.0
O346 O 0.67233 0.30468 0.71528 0.0
O347 O 0.62081 0.25666 0.73838 0.0
H348 H 0.69241 0.25228 0.78463 0.0
H349 H 0.70982 0.26276 0.71174 0.0
H350 H 0.73588 0.25231 0.79092 0.0
H351 H 0.75312 0.26286 0.71928 0.0
H352 H 0.60229 0.30377 0.81583 0.0
H353 H 0.69797 0.32657 0.80427 0.0
H354 H 0.61616 0.29376 0.77811 0.0
H355 H 0.68278 0.33625 0.84149 0.0
H356 H 0.77195 0.34128 0.79175 0.0
H357 H 0.78498 0.36584 0.71998 0.0
H358 H 0.58781 0.17174 0.79677 0.0
H359 H 0.64659 0.23156 0.84407 0.0
H360 H 0.64539 0.3212 0.68846 0.0
H361 H 0.70462 0.29446 0.68902 0.0
H362 H 0.6496 0.3253 0.64578 0.0
H363 H 0.70785 0.29906 0.64632 0.0
H364 H 0.58838 0.23946 0.70168 0.0
H365 H 0.58992 0.24708 0.77579 0.0
H366 H 0.53802 0.21871 0.70268 0.0
H367 H 0.53962 0.2266 0.77546 0.0
H368 H 0.64479 0.18188 0.68105 0.0
H369 H 0.61112 0.22414 0.64294 0.0
H370 H 0.63199 0.37781 0.75454 0.0
H371 H 0.57414 0.31787 0.70672 0.0
Li372 Li 0.41227 0.63763 0.93104 0.0
Li373 Li 0.42101 0.68106 0.91326 0.0
Li374 Li 0.37665 0.63639 0.90635 0.0
Li375 Li 0.41957 0.64453 0.88822 0.0
C376 C 0.38737 0.65642 0.95905 0.0
N377 N 0.37959 0.6542 0.00634 0.0
C378 C 0.40456 0.67881 0.97289 0.0
C379 C 0.36597 0.63307 0.96921 0.0
C380 C 0.40036 0.67725 0.99678 0.0
C381 C 0.36244 0.63229 0.99316 0.0
C382 C 0.47242 0.6829 0.91186 0.0
C383 C 0.51097 0.71551 0.88937 0.0
N384 N 0.52774 0.71956 0.90765 0.0
C385 C 0.49008 0.68715 0.93034 0.0
C386 C 0.48298 0.69699 0.89114 0.0
C387 C 0.51796 0.70587 0.92791 0.0
C388 C 0.41504 0.59574 0.95535 0.0
N389 N 0.42119 0.62227 0.95664 0.0
C390 C 0.44584 0.62845 0.99182 0.0
C391 C 0.43621 0.63863 0.97443 0.0
C392 C 0.44023 0.60124 0.99075 0.0
C393 C 0.42427 0.58471 0.97236 0.0
H394 H 0.40384 0.58338 0.94068 0.0
H395 H 0.44156 0.65987 0.9747 0.0
C396 C 0.42668 0.73409 0.90848 0.0
N397 N 0.43768 0.7198 0.91816 0.0
C398 C 0.43842 0.76222 0.91254 0.0
C399 C 0.47261 0.76038 0.93632 0.0
C400 C 0.46012 0.73237 0.93197 0.0
C401 C 0.46168 0.77577 0.92676 0.0
H402 H 0.4086 0.72358 0.8978 0.0
H403 H 0.4681 0.72056 0.94001 0.0
C404 C 0.37151 0.58579 0.90267 0.0
N405 N 0.3284 0.53321 0.8966 0.0
C406 C 0.36844 0.57209 0.88177 0.0
C407 C 0.35288 0.57261 0.92058 0.0
C408 C 0.34645 0.54555 0.87901 0.0
C409 C 0.33116 0.54607 0.91715 0.0
C410 C 0.40352 0.67628 0.86203 0.0
C411 C 0.38314 0.66284 0.84538 0.0
C412 C 0.42691 0.70099 0.85644 0.0
C413 C 0.38684 0.67396 0.82321 0.0
C414 C 0.42985 0.71147 0.83409 0.0
N415 N 0.40995 0.69783 0.81806 0.0
C416 C 0.3216 0.62412 0.91543 0.0
C417 C 0.32772 0.60342 0.88209 0.0
C418 C 0.29352 0.61199 0.91089 0.0
N419 N 0.33804 0.61969 0.90102 0.0
C420 C 0.29987 0.59065 0.87709 0.0
C421 C 0.28227 0.59507 0.89137 0.0
H422 H 0.33032 0.63734 0.93028 0.0
H423 H 0.34119 0.60044 0.87075 0.0
C424 C 0.4583 0.63445 0.86679 0.0
N425 N 0.43515 0.63557 0.86274 0.0
C426 C 0.46939 0.6256 0.84955 0.0
C427 C 0.43226 0.61856 0.82437 0.0
C428 C 0.42206 0.62784 0.84204 0.0
C429 C 0.45615 0.6172 0.82809 0.0
H430 H 0.46778 0.63968 0.88366 0.0
H431 H 0.40315 0.6279 0.83949 0.0
O432 O 0.39128 0.65752 0.93565 0.0
O433 O 0.44504 0.66472 0.91402 0.0
O434 O 0.3927 0.61193 0.90557 0.0
O435 O 0.40011 0.66576 0.88389 0.0
H436 H 0.42109 0.69712 0.96531 0.0
H437 H 0.35215 0.61578 0.95872 0.0
H438 H 0.41363 0.69435 0.00772 0.0
H439 H 0.34603 0.61429 0.00126 0.0
H440 H 0.51939 0.72656 0.87342 0.0
H441 H 0.48233 0.67625 0.94644 0.0
H442 H 0.46978 0.69334 0.87646 0.0
H443 H 0.53182 0.70949 0.94213 0.0
H444 H 0.45783 0.64188 0.00579 0.0
H445 H 0.4198 0.56378 0.97062 0.0
H446 H 0.42895 0.77304 0.90507 0.0
H447 H 0.49066 0.76982 0.94716 0.0
H448 H 0.38276 0.58189 0.86778 0.0
H449 H 0.35519 0.58276 0.93695 0.0
H450 H 0.34373 0.53477 0.86288 0.0
H451 H 0.31651 0.53568 0.93083 0.0
H452 H 0.36473 0.64393 0.84946 0.0
H453 H 0.44252 0.71214 0.86924 0.0
H454 H 0.37133 0.66363 0.81011 0.0
H455 H 0.44791 0.73052 0.82952 0.0
H456 H 0.28094 0.61635 0.92226 0.0
H457 H 0.29227 0.57741 0.86211 0.0
H458 H 0.48758 0.62442 0.85324 0.0
H459 H 0.42145 0.61227 0.80805 0.0
Li460 Li 0.76492 0.41759 0.07781 0.0
Li461 Li 0.79829 0.40866 0.09794 0.0
Li462 Li 0.79952 0.41445 0.0548 0.0
Li463 Li 0.76354 0.37208 0.07293 0.0
C464 C 0.81157 0.46748 0.08293 0.0
N465 N 0.82343 0.52071 0.09005 0.0
C466 C 0.82079 0.47984 0.10453 0.0
C467 C 0.80875 0.48232 0.06487 0.0
C468 C 0.82659 0.50674 0.1078 0.0
C469 C 0.81473 0.50916 0.06884 0.0
C470 C 0.74959 0.37985 0.12346 0.0
C471 C 0.74136 0.34781 0.15423 0.0
N472 N 0.73333 0.36189 0.1682 0.0
C473 C 0.74093 0.3938 0.13802 0.0
C474 C 0.74952 0.35649 0.13154 0.0
C475 C 0.73291 0.38448 0.16062 0.0
C476 C 0.72351 0.43042 0.06538 0.0
N477 N 0.7437 0.43545 0.08082 0.0
C478 C 0.735 0.46719 0.10122 0.0
C479 C 0.74935 0.45316 0.09869 0.0
C480 C 0.71414 0.46254 0.08554 0.0
C481 C 0.70825 0.44368 0.06752 0.0
H482 H 0.7192 0.41605 0.05144 0.0
H483 H 0.76494 0.45631 0.1111 0.0
C484 C 0.84694 0.41991 0.11953 0.0
N485 N 0.82202 0.41714 0.12391 0.0
C486 C 0.8664 0.42766 0.13709 0.0
C487 C 0.83435 0.42994 0.16338 0.0
C488 C 0.81549 0.4221 0.1453 0.0
C489 C 0.86027 0.43291 0.15938 0.0
H490 H 0.85184 0.41639 0.10225 0.0
H491 H 0.796 0.42076 0.14822 0.0
C492 C 0.75714 0.39711 0.02574 0.0
N493 N 0.75395 0.40076 0.97833 0.0
C494 C 0.75046 0.3744 0.01178 0.0
C495 C 0.76179 0.42154 0.01563 0.0
C496 C 0.74905 0.37669 0.98783 0.0
C497 C 0.7602 0.42302 0.99161 0.0
C498 C 0.81136 0.36801 0.07567 0.0
C499 C 0.8225 0.36133 0.0569 0.0
C500 C 0.80852 0.35514 0.09695 0.0
C501 C 0.83007 0.34142 0.05961 0.0
C502 C 0.81637 0.33537 0.09898 0.0
N503 N 0.82685 0.32894 0.08041 0.0
C504 C 0.84591 0.45504 0.03166 0.0
C505 C 0.82304 0.41283 0.01161 0.0
C506 C 0.86649 0.46589 0.01495 0.0
N507 N 0.82475 0.42896 0.02972 0.0
C508 C 0.84315 0.42286 0.99446 0.0
C509 C 0.86544 0.44967 0.99611 0.0
H510 H 0.84729 0.4672 0.04655 0.0
H511 H 0.80645 0.39193 0.01078 0.0
C512 C 0.71719 0.31909 0.08107 0.0
N513 N 0.74101 0.33323 0.06912 0.0
C514 C 0.70094 0.29072 0.07843 0.0
C515 C 0.73386 0.29204 0.05103 0.0
C516 C 0.74934 0.32032 0.05412 0.0
C517 C 0.7093 0.27678 0.06331 0.0
H518 H 0.71077 0.32985 0.09267 0.0
H519 H 0.76786 0.33203 0.04427 0.0
O520 O 0.80554 0.44106 0.07948 0.0
O521 O 0.75748 0.3887 0.10128 0.0
O522 O 0.75885 0.39534 0.0492 0.0
O523 O 0.80377 0.38742 0.07328 0.0
H524 H 0.82325 0.46872 0.11866 0.0
H525 H 0.80203 0.47322 0.04798 0.0
H526 H 0.83358 0.51649 0.12447 0.0
H527 H 0.8125 0.52083 0.05504 0.0
H528 H 0.74129 0.32981 0.16072 0.0
H529 H 0.74052 0.41171 0.132 0.0
H530 H 0.75542 0.34499 0.12035 0.0
H531 H 0.72634 0.3952 0.17212 0.0
H532 H 0.7398 0.48114 0.11563 0.0
H533 H 0.69223 0.43947 0.05513 0.0
H534 H 0.88601 0.42949 0.13323 0.0
H535 H 0.82893 0.43434 0.18015 0.0
H536 H 0.74657 0.35528 0.01933 0.0
H537 H 0.76651 0.43914 0.02621 0.0
H538 H 0.74408 0.35933 0.9768 0.0
H539 H 0.76389 0.44184 0.98355 0.0
H540 H 0.82508 0.37126 0.04037 0.0
H541 H 0.80067 0.36059 0.11181 0.0
H542 H 0.83853 0.33591 0.04518 0.0
H543 H 0.81422 0.32521 0.11534 0.0
H544 H 0.88348 0.48647 0.01716 0.0
H545 H 0.84131 0.40969 0.98014 0.0
H546 H 0.68218 0.2798 0.08824 0.0
H547 H 0.74078 0.28232 0.03875 0.0
Li548 Li 0.41892 0.79236 0.26342 0.0
Li549 Li 0.37556 0.75858 0.24476 0.0
Li550 Li 0.41947 0.75763 0.23942 0.0
Li551 Li 0.41341 0.79299 0.22039 0.0
C552 C 0.39732 0.74917 0.29158 0.0
N553 N 0.3968 0.74469 0.33916 0.0
C554 C 0.37311 0.74081 0.30388 0.0
C555 C 0.42119 0.75496 0.30344 0.0
C556 C 0.37328 0.73873 0.32794 0.0
C557 C 0.42053 0.75267 0.32751 0.0
C558 C 0.37716 0.81092 0.24371 0.0
C559 C 0.34914 0.82346 0.22118 0.0
N560 N 0.34541 0.8354 0.24019 0.0
C561 C 0.37332 0.82363 0.26295 0.0
C562 C 0.3652 0.81107 0.2226 0.0
C563 C 0.35708 0.83576 0.26085 0.0
C564 C 0.46083 0.83598 0.28861 0.0
N565 N 0.43409 0.81605 0.28937 0.0
C566 C 0.42842 0.83226 0.32594 0.0
C567 C 0.41783 0.81397 0.30748 0.0
C568 C 0.45594 0.85316 0.3256 0.0
C569 C 0.47224 0.85489 0.30663 0.0
H570 H 0.4732 0.83747 0.27382 0.0
H571 H 0.39646 0.79843 0.30737 0.0
C572 C 0.32257 0.71166 0.24001 0.0
N573 N 0.33668 0.73742 0.24881 0.0
C574 C 0.29433 0.69566 0.24348 0.0
C575 C 0.29566 0.73307 0.26485 0.0
C576 C 0.32382 0.74821 0.26111 0.0
C577 C 0.28046 0.70626 0.25621 0.0
H578 H 0.33334 0.70342 0.23052 0.0
H579 H 0.33546 0.7684 0.26845 0.0
C580 C 0.46972 0.79941 0.23401 0.0
N581 N 0.51854 0.80126 0.22441 0.0
C582 C 0.48026 0.80487 0.21156 0.0
C583 C 0.48417 0.79522 0.25164 0.0
C584 C 0.50495 0.80565 0.20704 0.0
C585 C 0.50876 0.79613 0.24642 0.0
C586 C 0.37841 0.74534 0.19483 0.0
C587 C 0.38766 0.73467 0.17749 0.0
C588 C 0.35548 0.74804 0.19077 0.0
C589 C 0.37418 0.7275 0.15619 0.0
C590 C 0.34254 0.74061 0.16926 0.0
N591 N 0.35211 0.73062 0.15254 0.0
C592 C 0.43487 0.71866 0.25334 0.0
C593 C 0.44694 0.73501 0.215 0.0
C594 C 0.44673 0.70219 0.25069 0.0
N595 N 0.43522 0.73465 0.23562 0.0
C596 C 0.45906 0.71895 0.21161 0.0
C597 C 0.45907 0.70218 0.22958 0.0
H598 H 0.42534 0.71863 0.26955 0.0
H599 H 0.44694 0.74786 0.20117 0.0
C600 C 0.42893 0.84354 0.20039 0.0
N601 N 0.42309 0.81771 0.19508 0.0
C602 C 0.43738 0.86349 0.18322 0.0
C603 C 0.43423 0.83007 0.15542 0.0
C604 C 0.42567 0.8107 0.17314 0.0
C605 C 0.44027 0.85694 0.16035 0.0
H606 H 0.42722 0.84871 0.21808 0.0
H607 H 0.42179 0.79033 0.16945 0.0
O608 O 0.39759 0.75154 0.26803 0.0
O609 O 0.39307 0.79898 0.24551 0.0
O610 O 0.44533 0.79804 0.23868 0.0
O611 O 0.39138 0.75241 0.21581 0.0
H612 H 0.35442 0.73606 0.29497 0.0
H613 H 0.44006 0.76135 0.29419 0.0
H614 H 0.35473 0.7324 0.3377 0.0
H615 H 0.4389 0.75727 0.33693 0.0
H616 H 0.33976 0.82369 0.20494 0.0
H617 H 0.3826 0.82397 0.27937 0.0
H618 H 0.36861 0.80216 0.20734 0.0
H619 H 0.35379 0.84549 0.27565 0.0
H620 H 0.41503 0.83049 0.34005 0.0
H621 H 0.49357 0.87063 0.30576 0.0
H622 H 0.28365 0.67498 0.23681 0.0
H623 H 0.28596 0.74232 0.27453 0.0
H624 H 0.46937 0.80819 0.19772 0.0
H625 H 0.47639 0.79117 0.26913 0.0
H626 H 0.51326 0.80967 0.18971 0.0
H627 H 0.52006 0.79275 0.25986 0.0
H628 H 0.40514 0.73208 0.18039 0.0
H629 H 0.34754 0.7555 0.20413 0.0
H630 H 0.38126 0.71941 0.14258 0.0
H631 H 0.32482 0.74268 0.16589 0.0
H632 H 0.4464 0.68977 0.26508 0.0
H633 H 0.46788 0.71929 0.1949 0.0
H634 H 0.44156 0.88381 0.18784 0.0
H635 H 0.43676 0.8242 0.13817 0.0
H636 H 0.11693 0.63618 0.31451 0.0
H637 H 0.12025 0.56872 0.28306 0.0
H638 H 0.16008 0.66837 0.2958 0.0
H639 H 0.16364 0.60071 0.26452 0.0
H640 H 0.23931 0.66867 0.2281 0.0
H641 H 0.19089 0.6396 0.23764 0.0
H642 H 0.20588 0.67632 0.30547 0.0
H643 H 0.25397 0.70475 0.29627 0.0
C644 C 0.12641 0.62839 0.3028 0.0
C645 C 0.11524 0.60013 0.29988 0.0
C646 C 0.15127 0.64671 0.29235 0.0
C647 C 0.16551 0.63707 0.27897 0.0
C648 C 0.15313 0.60883 0.27458 0.0
C649 C 0.12824 0.5905 0.28507 0.0
C650 C 0.23228 0.67049 0.24507 0.0
C651 C 0.25066 0.6892 0.26137 0.0
C652 C 0.2045 0.65393 0.25047 0.0
C653 C 0.19445 0.65586 0.27221 0.0
C654 C 0.21276 0.67478 0.28834 0.0
C655 C 0.24045 0.69113 0.28304 0.0
H656 H 0.51716 0.10008 0.45554 0.0
H657 H 0.60289 0.12991 0.46746 0.0
H658 H 0.52874 0.14151 0.43334 0.0
H659 H 0.61455 0.17129 0.44591 0.0
H660 H 0.63182 0.24118 0.40045 0.0
H661 H 0.61587 0.19347 0.41014 0.0
H662 H 0.54606 0.18871 0.4452 0.0
H663 H 0.56186 0.23623 0.43529 0.0
C664 C 0.53847 0.11514 0.45282 0.0
C665 C 0.55915 0.11195 0.46325 0.0
C666 C 0.54513 0.13899 0.44037 0.0
C667 C 0.57258 0.15991 0.43805 0.0
C668 C 0.59323 0.1556 0.44711 0.0
C669 C 0.58658 0.13193 0.45957 0.0
C670 C 0.61293 0.22983 0.41004 0.0
C671 C 0.59829 0.24259 0.41733 0.0
C672 C 0.60376 0.20248 0.41557 0.0
C673 C 0.57979 0.18727 0.42863 0.0
C674 C 0.5644 0.19964 0.43486 0.0
C675 C 0.57352 0.22696 0.42924 0.0
H676 H 0.44089 0.51398 0.62611 0.0
H677 H 0.50408 0.59796 0.63554 0.0
H678 H 0.41157 0.52934 0.60795 0.0
H679 H 0.47518 0.61335 0.61725 0.0
H680 H 0.40139 0.62619 0.6251 0.0
H681 H 0.4336 0.61077 0.63397 0.0
H682 H 0.40392 0.55558 0.57568 0.0
H683 H 0.37116 0.57094 0.56689 0.0
C684 C 0.44885 0.53566 0.62346 0.0
C685 C 0.4746 0.55483 0.63228 0.0
C686 C 0.43209 0.54447 0.61317 0.0
C687 C 0.44089 0.57257 0.61163 0.0
C688 C 0.46762 0.59159 0.61864 0.0
C689 C 0.48425 0.58281 0.6289 0.0
C690 C 0.40164 0.61071 0.61419 0.0
C691 C 0.38364 0.59969 0.59537 0.0
C692 C 0.42034 0.6021 0.6191 0.0
C693 C 0.4215 0.58213 0.60539 0.0
C694 C 0.4035 0.57101 0.58653 0.0
C695 C 0.38489 0.57989 0.58145 0.0
H696 H 0.95397 0.43189 0.79422 0.0
H697 H 0.9329 0.49466 0.80529 0.0
H698 H 0.90959 0.40319 0.77531 0.0
H699 H 0.88895 0.46639 0.78632 0.0
H700 H 0.80229 0.39218 0.79225 0.0
H701 H 0.84974 0.42394 0.80206 0.0
H702 H 0.87629 0.39716 0.74254 0.0
H703 H 0.8283 0.36489 0.73274 0.0
C704 C 0.94025 0.4399 0.79183 0.0
C705 C 0.94665 0.46532 0.80131 0.0
C706 C 0.91486 0.4235 0.7811 0.0
C707 C 0.89559 0.43235 0.77977 0.0
C708 C 0.90313 0.45879 0.78751 0.0
C709 C 0.92834 0.47505 0.7982 0.0
C710 C 0.81821 0.393 0.78125 0.0
C711 C 0.81157 0.37595 0.7618 0.0
C712 C 0.84541 0.41142 0.78672 0.0
C713 C 0.86678 0.41324 0.77295 0.0
C714 C 0.86025 0.3962 0.75345 0.0
C715 C 0.83285 0.37789 0.74779 0.0
H716 H 0.48959 0.93957 0.95176 0.0
H717 H 0.55698 0.93861 0.98578 0.0
H718 H 0.47584 0.89489 0.93437 0.0
H719 H 0.54365 0.89421 0.96831 0.0
H720 H 0.48349 0.80128 0.96797 0.0
H721 H 0.50354 0.84937 0.97748 0.0
H722 H 0.48709 0.86611 0.90833 0.0
H723 H 0.46743 0.8177 0.89846 0.0
C724 C 0.50207 0.93024 0.95469 0.0
C725 C 0.52449 0.9425 0.96979 0.0
C726 C 0.49418 0.90465 0.94485 0.0
C727 C 0.50844 0.89083 0.95023 0.0
C728 C 0.53201 0.90414 0.96411 0.0
C729 C 0.53988 0.92967 0.97386 0.0
C730 C 0.48458 0.81516 0.95456 0.0
C731 C 0.47398 0.80546 0.93235 0.0
C732 C 0.49611 0.84284 0.96005 0.0
C733 C 0.49723 0.86166 0.94358 0.0
C734 C 0.48649 0.85209 0.9214 0.0
C735 C 0.4751 0.82432 0.91581 0.0
H736 H 0.5886 0.50755 0.11149 0.0
H737 H 0.65709 0.55531 0.15658 0.0
H738 H 0.61643 0.49337 0.08934 0.0
H739 H 0.68447 0.54056 0.13536 0.0
H740 H 0.73376 0.51699 0.09256 0.0
H741 H 0.7079 0.53961 0.10233 0.0
H742 H 0.63259 0.46229 0.09643 0.0
H743 H 0.65859 0.44006 0.08577 0.0
C744 C 0.60982 0.51561 0.11623 0.0
C745 C 0.62066 0.53236 0.13582 0.0
C746 C 0.62567 0.50719 0.10379 0.0
C747 C 0.65265 0.51541 0.11071 0.0
C748 C 0.66396 0.53391 0.12926 0.0
C749 C 0.64821 0.54231 0.14157 0.0
C750 C 0.71165 0.50497 0.09305 0.0
C751 C 0.69819 0.47673 0.08866 0.0
C752 C 0.69678 0.51789 0.09872 0.0
C753 C 0.66808 0.50279 0.10054 0.0
C754 C 0.65459 0.47473 0.09496 0.0
C755 C 0.66948 0.46189 0.08896 0.0
H756 H 0.42294 0.93525 0.49576 0.0
H757 H 0.48942 0.95178 0.54189 0.0
H758 H 0.39309 0.89342 0.51688 0.0
H759 H 0.45947 0.90982 0.56342 0.0
H760 H 0.4131 0.81364 0.56178 0.0
H761 H 0.44111 0.86182 0.55204 0.0
H762 H 0.36921 0.87029 0.5522 0.0
H763 H 0.3411 0.82198 0.56208 0.0
C764 C 0.43078 0.93038 0.51105 0.0
C765 C 0.45834 0.94668 0.51733 0.0
C766 C 0.41372 0.90641 0.52316 0.0
C767 C 0.42396 0.89808 0.54171 0.0
C768 C 0.45107 0.91551 0.54903 0.0
C769 C 0.46812 0.93968 0.53695 0.0
C770 C 0.4033 0.82588 0.5603 0.0
C771 C 0.37477 0.81381 0.56248 0.0
C772 C 0.41941 0.85359 0.55477 0.0
C773 C 0.40741 0.86994 0.55125 0.0
C774 C 0.37905 0.85819 0.55449 0.0
C775 C 0.36294 0.83047 0.56005 0.0
H776 H 0.51456 0.41385 0.65814 0.0
H777 H 0.56295 0.4807 0.70452 0.0
H778 H 0.52738 0.38471 0.67941 0.0
H779 H 0.57583 0.45144 0.72616 0.0
H780 H 0.62656 0.4058 0.72589 0.0
H781 H 0.60621 0.43346 0.71534 0.0
H782 H 0.52612 0.36122 0.71529 0.0
H783 H 0.54646 0.33348 0.72603 0.0
C784 C 0.52722 0.42196 0.67343 0.0
C785 C 0.53775 0.44942 0.67977 0.0
C786 C 0.53458 0.40529 0.68565 0.0
C787 C 0.55285 0.41581 0.70438 0.0
C788 C 0.56195 0.44284 0.71165 0.0
C789 C 0.55436 0.45948 0.69948 0.0
C790 C 0.60454 0.39586 0.72419 0.0
C791 C 0.58821 0.36733 0.72657 0.0
C792 C 0.59285 0.41177 0.71818 0.0
C793 C 0.56453 0.39955 0.71436 0.0
C794 C 0.54804 0.37121 0.7178 0.0
C795 C 0.55973 0.35531 0.72386 0.0
H796 H 0.11293 0.55513 0.87069 0.0
H797 H 0.12621 0.50417 0.82302 0.0
H798 H 0.15737 0.56915 0.8889 0.0
H799 H 0.17028 0.51795 0.84109 0.0
H800 H 0.25956 0.58732 0.84828 0.0
H801 H 0.21163 0.56574 0.8379 0.0
H802 H 0.18924 0.55431 0.91004 0.0
H803 H 0.23765 0.57517 0.92069 0.0
C804 C 0.12485 0.54609 0.86478 0.0
C805 C 0.11629 0.52866 0.84546 0.0
C806 C 0.1503 0.5542 0.87508 0.0
C807 C 0.16748 0.54504 0.86608 0.0
C808 C 0.15768 0.52569 0.84812 0.0
C809 C 0.13238 0.5176 0.83792 0.0
C810 C 0.24457 0.57978 0.86204 0.0
C811 C 0.25267 0.58266 0.88536 0.0
C812 C 0.21701 0.56746 0.85605 0.0
C813 C 0.19665 0.55794 0.87315 0.0
C814 C 0.20453 0.5614 0.89651 0.0
C815 C 0.23227 0.57348 0.90256 0.0
H816 H 0.64832 0.1246 0.99393 0.0
H817 H 0.58013 0.10679 0.03835 0.0
H818 H 0.6764 0.1675 0.01428 0.0
H819 H 0.60838 0.14987 0.05921 0.0
H820 H 0.65356 0.24609 0.05881 0.0
H821 H 0.62633 0.19784 0.04857 0.0
H822 H 0.6992 0.19104 0.04929 0.0
H823 H 0.72644 0.23935 0.05938 0.0
C824 C 0.63968 0.12956 0.00861 0.0
C825 C 0.61216 0.11245 0.01465 0.0
C826 C 0.65575 0.15413 0.02033 0.0
C827 C 0.64462 0.16231 0.0383 0.0
C828 C 0.61748 0.14433 0.04527 0.0
C829 C 0.6014 0.11954 0.03357 0.0
C830 C 0.6637 0.23418 0.05725 0.0
C831 C 0.69225 0.2467 0.05962 0.0
C832 C 0.64805 0.20644 0.05144 0.0
C833 C 0.66057 0.19054 0.04793 0.0
C834 C 0.68894 0.20277 0.05146 0.0
C835 C 0.70458 0.23049 0.05719 0.0
H836 H 0.55584 0.62592 0.18977 0.0
H837 H 0.47058 0.56602 0.18093 0.0
H838 H 0.543 0.65604 0.20999 0.0
H839 H 0.45765 0.59599 0.20056 0.0
H840 H 0.43918 0.64943 0.24439 0.0
H841 H 0.45663 0.61875 0.23549 0.0
H842 H 0.52291 0.68313 0.19671 0.0
H843 H 0.50613 0.71413 0.20642 0.0
C844 C 0.5344 0.61893 0.19271 0.0
C845 C 0.51418 0.59375 0.18373 0.0
C846 C 0.52701 0.63626 0.20403 0.0
C847 C 0.49928 0.62858 0.2067 0.0
C848 C 0.47918 0.60254 0.19904 0.0
C849 C 0.48655 0.58537 0.18768 0.0
C850 C 0.45783 0.65725 0.23441 0.0
C851 C 0.47107 0.6842 0.22592 0.0
C852 C 0.46771 0.63956 0.22913 0.0
C853 C 0.49107 0.64837 0.21522 0.0
C854 C 0.50501 0.67568 0.20762 0.0
C855 C 0.49514 0.69337 0.21291 0.0
H856 H 0.93947 0.46148 0.3585 0.0
H857 H 0.95329 0.54367 0.35474 0.0
H858 H 0.89573 0.44649 0.37772 0.0
H859 H 0.90915 0.52871 0.3736 0.0
H860 H 0.82909 0.49207 0.4154 0.0
H861 H 0.8775 0.50832 0.40736 0.0
H862 H 0.85396 0.44098 0.36001 0.0
H863 H 0.80606 0.42464 0.3683 0.0
C864 C 0.9335 0.4765 0.3626 0.0
C865 C 0.94968 0.5037 0.35534 0.0
C866 C 0.90834 0.4679 0.37331 0.0
C867 C 0.89871 0.48629 0.37676 0.0
C868 C 0.91602 0.51406 0.37127 0.0
C869 C 0.94133 0.52269 0.36059 0.0
C870 C 0.83437 0.48062 0.4035 0.0
C871 C 0.81376 0.45716 0.39237 0.0
C872 C 0.86204 0.49 0.39881 0.0
C873 C 0.86961 0.47586 0.38317 0.0
C874 C 0.84893 0.45213 0.37244 0.0
C875 C 0.82141 0.44295 0.37695 0.0
H876 H 0.1253 0.54559 0.36086 0.0
H877 H 0.07639 0.57168 0.39849 0.0
H878 H 0.15266 0.5519 0.39539 0.0
H879 H 0.10416 0.57863 0.43313 0.0
H880 H 0.15406 0.57731 0.49508 0.0
H881 H 0.12065 0.55966 0.46358 0.0
H882 H 0.18658 0.59388 0.4139 0.0
H883 H 0.21977 0.61072 0.44522 0.0
C884 C 0.12009 0.55212 0.37674 0.0
C885 C 0.09894 0.55835 0.37707 0.0
C886 C 0.13587 0.55596 0.39644 0.0
C887 C 0.13097 0.56633 0.41685 0.0
C888 C 0.10842 0.57056 0.41768 0.0
C889 C 0.09248 0.56654 0.39792 0.0
C890 C 0.16136 0.58066 0.47741 0.0
C891 C 0.18956 0.59546 0.47262 0.0
C892 C 0.14223 0.57075 0.45939 0.0
C893 C 0.15093 0.57525 0.43623 0.0
C894 C 0.17915 0.58965 0.43153 0.0
C895 C 0.1982 0.59963 0.44948 0.0
H896 H 0.52876 0.06895 0.56142 0.0
H897 H 0.61003 0.11471 0.53287 0.0
H898 H 0.54538 0.09393 0.59794 0.0
H899 H 0.62657 0.13996 0.56898 0.0
H900 H 0.65246 0.17453 0.64052 0.0
H901 H 0.63546 0.13965 0.61026 0.0
H902 H 0.56006 0.14171 0.60762 0.0
H903 H 0.57667 0.17586 0.63829 0.0
C904 C 0.55031 0.0838 0.56321 0.0
C905 C 0.5681 0.09009 0.54435 0.0
C906 C 0.55977 0.09832 0.58398 0.0
C907 C 0.58722 0.1192 0.58625 0.0
C908 C 0.60537 0.12394 0.5679 0.0
C909 C 0.59589 0.10957 0.54717 0.0
C910 C 0.6321 0.16722 0.63371 0.0
C911 C 0.61603 0.17816 0.64164 0.0
C912 C 0.62242 0.14735 0.6163 0.0
C913 C 0.59641 0.13789 0.60653 0.0
C914 C 0.58004 0.14827 0.61496 0.0
C915 C 0.58974 0.16818 0.63229 0.0
H916 H 0.48236 0.51774 0.72686 0.0
H917 H 0.52824 0.60125 0.70327 0.0
H918 H 0.47373 0.53348 0.76376 0.0
H919 H 0.51972 0.61706 0.73997 0.0
H920 H 0.50903 0.63803 0.81363 0.0
H921 H 0.52597 0.6204 0.78299 0.0
H922 H 0.44384 0.55396 0.77121 0.0
H923 H 0.42701 0.57136 0.80191 0.0
C924 C 0.49137 0.5395 0.72993 0.0
C925 C 0.50592 0.55833 0.71234 0.0
C926 C 0.4862 0.54849 0.75088 0.0
C927 C 0.49578 0.57647 0.75462 0.0
C928 C 0.5122 0.5954 0.73767 0.0
C929 C 0.51708 0.58639 0.71667 0.0
C930 C 0.49469 0.61949 0.80464 0.0
C931 C 0.46667 0.6062 0.81 0.0
C932 C 0.50437 0.60946 0.7871 0.0
C933 C 0.48626 0.58574 0.77479 0.0
C934 C 0.45836 0.57207 0.7806 0.0
C935 C 0.44866 0.58224 0.79794 0.0
H936 H 0.95251 0.51805 0.8705 0.0
H937 H 0.99424 0.47745 0.89722 0.0
H938 H 0.9282 0.51041 0.90691 0.0
H939 H 0.97033 0.47023 0.93417 0.0
H940 H 0.88863 0.42271 0.97508 0.0
H941 H 0.92294 0.43943 0.94464 0.0
H942 H 0.9281 0.51834 0.94771 0.0
H943 H 0.8928 0.50121 0.97746 0.0
C944 C 0.95711 0.50827 0.88453 0.0
C945 C 0.97506 0.49815 0.88107 0.0
C946 C 0.94325 0.50394 0.90545 0.0
C947 C 0.947 0.48935 0.92339 0.0
C948 C 0.96664 0.48113 0.92054 0.0
C949 C 0.98061 0.48556 0.89954 0.0
C950 C 0.89697 0.4436 0.9692 0.0
C951 C 0.88764 0.46048 0.97852 0.0
C952 C 0.91704 0.45335 0.95201 0.0
C953 C 0.92835 0.48027 0.94372 0.0
C954 C 0.91967 0.49744 0.95356 0.0
C955 C 0.89955 0.48766 0.97074 0.0
H956 H 0.54525 0.98194 0.06381 0.0
H957 H 0.46519 0.95027 0.03379 0.0
H958 H 0.52471 0.95552 0.09895 0.0
H959 H 0.4443 0.92467 0.06916 0.0
H960 H 0.42324 0.85075 0.11532 0.0
H961 H 0.44143 0.88435 0.08448 0.0
H962 H 0.49696 0.94528 0.13281 0.0
H963 H 0.47978 0.91112 0.16347 0.0
C964 C 0.52318 0.97019 0.06521 0.0
C965 C 0.50671 0.96809 0.0463 0.0
C966 C 0.51135 0.95499 0.08528 0.0
C967 C 0.48282 0.93754 0.08676 0.0
C968 C 0.46634 0.93734 0.06841 0.0
C969 C 0.4782 0.95227 0.0483 0.0
C970 C 0.43943 0.87126 0.11938 0.0
C971 C 0.45015 0.8781 0.14187 0.0
C972 C 0.44958 0.89073 0.10174 0.0
C973 C 0.47062 0.91766 0.10613 0.0
C974 C 0.48091 0.92471 0.12875 0.0
C975 C 0.47083 0.90516 0.1464 0.0
H976 H 0.62807 0.54997 0.22151 0.0
H977 H 0.54446 0.48478 0.2152 0.0
H978 H 0.63304 0.52968 0.25713 0.0
H979 H 0.54932 0.4642 0.251 0.0
H980 H 0.62935 0.49511 0.32807 0.0
H981 H 0.61713 0.51727 0.29785 0.0
H982 H 0.57711 0.44142 0.25962 0.0
H983 H 0.58889 0.41909 0.29007 0.0
C984 C 0.61056 0.53165 0.22817 0.0
C985 C 0.58589 0.51891 0.21579 0.0
C986 C 0.61335 0.52004 0.24854 0.0
C987 C 0.59161 0.49526 0.25676 0.0
C988 C 0.56647 0.4832 0.24493 0.0
C989 C 0.56358 0.49506 0.22465 0.0
C990 C 0.61753 0.48305 0.31341 0.0
C991 C 0.61018 0.45538 0.31139 0.0
C992 C 0.61069 0.49578 0.29606 0.0
C993 C 0.59616 0.48108 0.27639 0.0
C994 C 0.58804 0.4532 0.27471 0.0
C995 C 0.59508 0.4405 0.29198 0.0
H996 H 0.49152 0.98668 0.41875 0.0
H997 H 0.51257 0.93483 0.45793 0.0
H998 H 0.48547 0.9592 0.38406 0.0
H999 H 0.50708 0.90771 0.42341 0.0
H1000 H 0.44867 0.8427 0.3718 0.0
H1001 H 0.46491 0.87546 0.40347 0.0
H1002 H 0.50559 0.94182 0.35474 0.0
H1003 H 0.48871 0.90885 0.32283 0.0
C1004 C 0.49573 0.96997 0.41969 0.0
C1005 C 0.50222 0.96262 0.44093 0.0
C1006 C 0.49225 0.95421 0.3999 0.0
C1007 C 0.49528 0.93096 0.40114 0.0
C1008 C 0.50398 0.92511 0.42204 0.0
C1009 C 0.50733 0.94072 0.44173 0.0
C1010 C 0.46108 0.86427 0.36783 0.0
C1011 C 0.46732 0.8732 0.34484 0.0
C1012 C 0.47068 0.88304 0.38599 0.0
C1013 C 0.48671 0.91125 0.38162 0.0
C1014 C 0.49323 0.92023 0.35863 0.0
C1015 C 0.48375 0.90136 0.34041 0.0
H1016 H 0.52138 0.47643 0.58305 0.0
H1017 H 0.59941 0.50497 0.61624 0.0
H1018 H 0.54004 0.46965 0.54691 0.0
H1019 H 0.61811 0.49828 0.5804 0.0
H1020 H 0.64845 0.49475 0.50904 0.0
H1021 H 0.63013 0.51156 0.53918 0.0
H1022 H 0.55384 0.43493 0.53746 0.0
H1023 H 0.57196 0.41834 0.50717 0.0
C1024 C 0.54274 0.48204 0.58234 0.0
C1025 C 0.55904 0.49121 0.60226 0.0
C1026 C 0.55334 0.47793 0.5618 0.0
C1027 C 0.58047 0.48322 0.56089 0.0
C1028 C 0.59723 0.49424 0.58046 0.0
C1029 C 0.58655 0.49804 0.60098 0.0
C1030 C 0.62764 0.48169 0.51489 0.0
C1031 C 0.61172 0.45513 0.50594 0.0
C1032 C 0.6172 0.49126 0.53218 0.0
C1033 C 0.59054 0.47458 0.54067 0.0
C1034 C 0.57433 0.4484 0.5311 0.0
C1035 C 0.58483 0.43875 0.51399 0.0
H1036 H 0.10432 0.59025 0.77979 0.0
H1037 H 0.08496 0.51103 0.75382 0.0
H1038 H 0.13034 0.61174 0.74459 0.0
H1039 H 0.11141 0.53226 0.71884 0.0
H1040 H 0.15199 0.57678 0.65314 0.0
H1041 H 0.11755 0.55778 0.68355 0.0
H1042 H 0.17403 0.61927 0.73099 0.0
H1043 H 0.20798 0.63895 0.70036 0.0
C1044 C 0.10501 0.57745 0.76615 0.0
C1045 C 0.09248 0.54908 0.76917 0.0
C1046 C 0.12016 0.5897 0.74618 0.0
C1047 C 0.12324 0.57376 0.72901 0.0
C1048 C 0.10924 0.54513 0.73156 0.0
C1049 C 0.09406 0.53292 0.75152 0.0
C1050 C 0.15687 0.58658 0.66993 0.0
C1051 C 0.18282 0.60934 0.67433 0.0
C1052 C 0.1372 0.57552 0.68743 0.0
C1053 C 0.14299 0.58696 0.70973 0.0
C1054 C 0.1687 0.61014 0.71394 0.0
C1055 C 0.18835 0.6212 0.69647 0.0
H1056 H 0.54694 0.10286 0.94567 0.0
H1057 H 0.60224 0.07633 0.92182 0.0
H1058 H 0.55406 0.12864 0.90984 0.0
H1059 H 0.60959 0.10219 0.8859 0.0
H1060 H 0.64829 0.18809 0.8506 0.0
H1061 H 0.63421 0.15349 0.88082 0.0
H1062 H 0.54948 0.12648 0.86609 0.0
H1063 H 0.56363 0.16134 0.83582 0.0
C1064 C 0.55985 0.10183 0.93231 0.0
C1065 C 0.57384 0.08751 0.93619 0.0
C1066 C 0.56399 0.11658 0.91188 0.0
C1067 C 0.58257 0.11759 0.89519 0.0
C1068 C 0.59534 0.10193 0.89857 0.0
C1069 C 0.59095 0.08693 0.91892 0.0
C1070 C 0.62666 0.17478 0.85384 0.0
C1071 C 0.60705 0.17752 0.84101 0.0
C1072 C 0.61859 0.15474 0.87091 0.0
C1073 C 0.59074 0.13717 0.87569 0.0
C1074 C 0.57108 0.13976 0.86276 0.0
C1075 C 0.57916 0.15962 0.84544 0.0
H1076 H 0.46231 0.537 0.11742 0.0
H1077 H 0.54302 0.57383 0.08755 0.0
H1078 H 0.44419 0.54321 0.08119 0.0
H1079 H 0.5248 0.57947 0.05084 0.0
H1080 H 0.49129 0.62749 0.01002 0.0
H1081 H 0.50931 0.61107 0.04033 0.0
H1082 H 0.4338 0.53358 0.04072 0.0
H1083 H 0.41529 0.5505 0.01101 0.0
C1084 C 0.47598 0.54562 0.10278 0.0
C1085 C 0.50409 0.55521 0.10531 0.0
C1086 C 0.4656 0.5491 0.08197 0.0
C1087 C 0.48312 0.56227 0.0632 0.0
C1088 C 0.51087 0.56972 0.06513 0.0
C1089 C 0.52126 0.56617 0.08601 0.0
C1090 C 0.47846 0.60699 0.01663 0.0
C1091 C 0.45169 0.59047 0.00831 0.0
C1092 C 0.48899 0.59737 0.03374 0.0
C1093 C 0.47304 0.57095 0.04296 0.0
C1094 C 0.44656 0.5541 0.03412 0.0
C1095 C 0.43601 0.56374 0.01699 0.0
H1096 H 0.9497 0.45087 0.2868 0.0
H1097 H 0.98766 0.53185 0.25747 0.0
H1098 H 0.9234 0.43198 0.25139 0.0
H1099 H 0.96074 0.51323 0.22214 0.0
H1100 H 0.91546 0.46894 0.15671 0.0
H1101 H 0.94898 0.48452 0.188 0.0
H1102 H 0.88492 0.43379 0.23608 0.0
H1103 H 0.85181 0.41738 0.20476 0.0
C1104 C 0.95278 0.4645 0.2725 0.0
C1105 C 0.97055 0.49276 0.27478 0.0
C1106 C 0.93754 0.45378 0.25233 0.0
C1107 C 0.93949 0.47115 0.23411 0.0
C1108 C 0.95879 0.49924 0.23578 0.0
C1109 C 0.97427 0.50995 0.25596 0.0
C1110 C 0.90864 0.46076 0.1739 0.0
C1111 C 0.88091 0.44192 0.17823 0.0
C1112 C 0.92782 0.46991 0.19187 0.0
C1113 C 0.91971 0.46037 0.21455 0.0
C1114 C 0.89204 0.44125 0.21877 0.0
C1115 C 0.87291 0.43212 0.20085 0.0
loop_
_geom_bond_atom_site_label_1
_geom_bond_atom_site_label_2
_geom_bond_distance
_geom_bond_site_symmetry_2
_ccdc_geom_bond_type
H0 C6 0.930 . S
H1 C9 0.931 . S
H2 C11 0.931 . S
H3 C13 0.930 . S
H4 C15 0.930 . S
H5 C17 0.931 1_455 S
C6 H0 0.930 . S
C6 C7 1.380 . S
C6 C8 1.394 . S
C7 C6 1.380 . S
C7 C11 1.382 . S
C8 C6 1.394 . S
C8 C9 1.400 . S
C9 H1 0.931 . S
C9 C8 1.400 . S
C9 C10 1.375 . S
C10 C9 1.375 . S
C10 C11 1.415 . S
C10 C12 1.522 . S
C11 H2 0.931 . S
C11 C7 1.382 . S
C11 C10 1.415 . S
C12 C10 1.522 . S
C12 C13 1.367 1_455 S
C12 C17 1.404 1_455 S
C13 H3 0.930 . S
C13 C12 1.367 1_655 S
C13 C14 1.389 . S
C14 C13 1.389 . S
C14 C15 1.405 . S
C15 H4 0.930 . S
C15 C14 1.405 . S
C15 C16 1.364 . S
C16 C15 1.364 . S
C16 C17 1.400 . S
C17 H5 0.931 1_655 S
C17 C12 1.404 1_655 S
C17 C16 1.400 . S
H18 C24 0.930 . S
H19 C27 0.931 . S
H20 C29 0.931 . S
H21 C31 0.930 . S
H22 C33 0.930 . S
H23 C35 0.931 1_545 S
C24 H18 0.930 . S
C24 C25 1.380 . S
C24 C26 1.394 . S
C25 C24 1.380 . S
C25 C29 1.382 . S
C26 C24 1.394 . S
C26 C27 1.400 . S
C27 H19 0.931 . S
C27 C26 1.400 . S
C27 C28 1.375 . S
C28 C27 1.375 . S
C28 C29 1.415 . S
C28 C30 1.515 . S
C29 H20 0.931 . S
C29 C25 1.382 . S
C29 C28 1.415 . S
C30 C28 1.515 . S
C30 C31 1.373 1_545 S
C30 C35 1.403 1_545 S
C31 H21 0.930 . S
C31 C30 1.373 1_565 S
C31 C32 1.389 . S
C32 C31 1.389 . S
C32 C33 1.405 . S
C33 H22 0.930 . S
C33 C32 1.405 . S
C33 C34 1.364 . S
C34 C33 1.364 . S
C34 C35 1.400 . S
C35 H23 0.931 1_565 S
C35 C30 1.403 1_565 S
C35 C34 1.400 . S
H36 C42 0.930 . S
H37 C45 0.931 . S
H38 C47 0.931 . S
H39 C49 0.930 . S
H40 C51 0.930 . S
H41 C53 0.931 . S
C42 H36 0.930 . S
C42 C43 1.380 . S
C42 C44 1.394 . S
C43 C42 1.380 . S
C43 C47 1.382 . S
C44 C42 1.394 . S
C44 C45 1.400 . S
C45 H37 0.931 . S
C45 C44 1.400 . S
C45 C46 1.375 . S
C46 C45 1.375 . S
C46 C47 1.415 . S
C46 C48 1.501 . S
C47 H38 0.931 . S
C47 C43 1.382 . S
C47 C46 1.415 . S
C48 C46 1.501 . S
C48 C49 1.384 . S
C48 C53 1.408 . S
C49 H39 0.930 . S
C49 C48 1.384 . S
C49 C50 1.389 . S
C50 C49 1.389 . S
C50 C51 1.405 . S
C51 H40 0.930 . S
C51 C50 1.405 . S
C51 C52 1.364 . S
C52 C51 1.364 . S
C52 C53 1.400 . S
C53 H41 0.931 . S
C53 C48 1.408 . S
C53 C52 1.400 . S
H54 C60 0.930 . S
H55 C63 0.931 . S
H56 C65 0.931 . S
H57 C67 0.930 . S
H58 C69 0.930 . S
H59 C71 0.931 1_455 S
C60 H54 0.930 . S
C60 C61 1.380 . S
C60 C62 1.394 . S
C61 C60 1.380 . S
C61 C65 1.382 . S
C62 C60 1.394 . S
C62 C63 1.400 . S
C63 H55 0.931 . S
C63 C62 1.400 . S
C63 C64 1.375 . S
C64 C63 1.375 . S
C64 C65 1.415 . S
C64 C66 1.522 . S
C65 H56 0.931 . S
C65 C61 1.382 . S
C65 C64 1.415 . S
C66 C64 1.522 . S
C66 C67 1.369 1_455 S
C66 C71 1.401 1_455 S
C67 H57 0.930 . S
C67 C66 1.369 1_655 S
C67 C68 1.389 . S
C68 C67 1.389 . S
C68 C69 1.405 . S
C69 H58 0.930 . S
C69 C68 1.405 . S
C69 C70 1.364 . S
C70 C69 1.364 . S
C70 C71 1.400 . S
C71 H59 0.931 1_655 S
C71 C66 1.401 1_655 S
C71 C70 1.400 . S
H72 C78 0.930 . S
H73 C81 0.931 . S
H74 C83 0.931 1_545 S
H75 C85 0.930 . S
H76 C87 0.930 . S
H77 C89 0.931 . S
C78 H72 0.930 . S
C78 C79 1.380 . S
C78 C80 1.394 1_554 S
C79 C78 1.380 . S
C79 C83 1.382 . S
C80 C78 1.394 1_556 S
C80 C81 1.400 . S
C81 H73 0.931 . S
C81 C80 1.400 . S
C81 C82 1.372 . S
C82 C81 1.372 . S
C82 C83 1.414 1_556 S
C82 C84 1.503 1_565 S
C83 H74 0.931 1_565 S
C83 C79 1.382 . S
C83 C82 1.414 1_554 S
C84 C82 1.503 1_545 S
C84 C85 1.384 1_556 S
C84 C89 1.408 . S
C85 H75 0.930 . S
C85 C84 1.384 1_554 S
C85 C86 1.381 1_554 S
C86 C85 1.381 1_556 S
C86 C87 1.435 . S
C87 H76 0.930 . S
C87 C86 1.435 . S
C87 C88 1.364 . S
C88 C87 1.364 . S
C88 C89 1.400 . S
C89 H77 0.931 . S
C89 C84 1.408 . S
C89 C88 1.400 . S
H90 C96 0.930 . S
H91 C99 0.931 . S
H92 C101 0.931 . S
H93 C103 0.930 . S
H94 C105 0.930 . S
H95 C107 0.931 . S
C96 H90 0.930 . S
C96 C97 1.380 . S
C96 C98 1.394 . S
C97 C96 1.380 . S
C97 C101 1.382 . S
C98 C96 1.394 . S
C98 C99 1.400 . S
C99 H91 0.931 . S
C99 C98 1.400 . S
C99 C100 1.375 . S
C100 C99 1.375 . S
C100 C101 1.415 . S
C100 C102 1.501 . S
C101 H92 0.931 . S
C101 C97 1.382 . S
C101 C100 1.415 . S
C102 C100 1.501 . S
C102 C103 1.384 . S
C102 C107 1.408 . S
C103 H93 0.930 . S
C103 C102 1.384 . S
C103 C104 1.389 . S
C104 C103 1.389 . S
C104 C105 1.405 . S
C105 H94 0.930 . S
C105 C104 1.405 . S
C105 C106 1.364 . S
C106 C105 1.364 . S
C106 C107 1.400 . S
C107 H95 0.931 . S
C107 C102 1.408 . S
C107 C106 1.400 . S
Li108 N125 1.990 . S
Li108 O168 1.956 . S
Li108 O169 1.970 . S
Li108 O170 1.961 . S
Li109 N133 1.990 . S
Li109 O168 1.970 . S
Li109 O169 1.956 . S
Li109 O171 1.961 . S
Li110 N155 1.990 . S
Li110 O168 1.961 . S
Li110 O170 1.956 . S
Li110 O171 1.970 . S
Li111 N161 1.990 . S
Li111 O169 1.961 . S
Li111 O170 1.970 . S
Li111 O171 1.956 . S
C112 C114 1.348 . S
C112 C115 1.356 . S
C112 O168 1.325 . S
N113 C116 1.314 . S
N113 C117 1.279 . S
C114 C112 1.348 . S
C114 C116 1.353 . S
C114 H172 0.929 . S
C115 C112 1.356 . S
C115 C117 1.358 . S
C115 H173 0.930 . S
C116 N113 1.314 . S
C116 C114 1.353 . S
C116 H174 0.930 . S
C117 N113 1.279 . S
C117 C115 1.358 . S
C117 H175 0.930 . S
C118 C121 1.348 . S
C118 C122 1.356 . S
C118 O169 1.325 . S
C119 N120 1.279 . S
C119 C122 1.358 . S
C119 H176 0.930 . S
N120 C119 1.279 . S
N120 C123 1.314 . S
C121 C118 1.348 . S
C121 C123 1.353 . S
C121 H177 0.929 . S
C122 C118 1.356 . S
C122 C119 1.358 . S
C122 H178 0.930 . S
C123 N120 1.314 . S
C123 C121 1.353 . S
C123 H179 0.930 . S
C124 N125 1.314 . S
C124 C129 1.353 . S
C124 H130 0.930 . S
N125 Li108 1.990 . S
N125 C124 1.314 . S
N125 C127 1.279 . S
C126 C127 1.358 . S
C126 C128 1.356 . S
C126 H180 0.930 . S
C127 N125 1.279 . S
C127 C126 1.358 . S
C127 H131 0.930 . S
C128 C126 1.356 . S
C128 C129 1.348 . S
C129 C124 1.353 . S
C129 C128 1.348 . S
C129 H181 0.929 . S
H130 C124 0.930 . S
H131 C127 0.930 . S
C132 N133 1.314 . S
C132 C134 1.353 . S
C132 H138 0.930 . S
N133 Li109 1.990 . S
N133 C132 1.314 . S
N133 C136 1.279 . S
C134 C132 1.353 . S
C134 C137 1.348 . S
C134 H182 0.929 . S
C135 C136 1.358 . S
C135 C137 1.356 . S
C135 H183 0.930 . S
C136 N133 1.279 . S
C136 C135 1.358 . S
C136 H139 0.930 . S
C137 C134 1.348 . S
C137 C135 1.356 . S
H138 C132 0.930 . S
H139 C136 0.930 . S
C140 C142 1.348 . S
C140 C143 1.356 . S
C140 O170 1.325 . S
N141 C144 1.314 . S
N141 C145 1.279 . S
C142 C140 1.348 . S
C142 C144 1.353 . S
C142 H184 0.929 . S
C143 C140 1.356 . S
C143 C145 1.358 . S
C143 H185 0.930 . S
C144 N141 1.314 . S
C144 C142 1.353 . S
C144 H186 0.930 . S
C145 N141 1.279 . S
C145 C143 1.358 . S
C145 H187 0.930 . S
C146 C147 1.348 . S
C146 C148 1.356 . S
C146 O171 1.325 . S
C147 C146 1.348 . S
C147 C149 1.353 . S
C147 H188 0.929 . S
C148 C146 1.356 . S
C148 C150 1.358 . S
C148 H189 0.930 . S
C149 C147 1.353 . S
C149 N151 1.314 . S
C149 H190 0.930 . S
C150 C148 1.358 . S
C150 N151 1.279 . S
C150 H191 0.930 . S
N151 C149 1.314 . S
N151 C150 1.279 . S
C152 C154 1.353 . S
C152 N155 1.314 . S
C152 H158 0.930 . S
C153 N155 1.279 . S
C153 C156 1.358 . S
C153 H159 0.930 . S
C154 C152 1.353 . S
C154 C157 1.348 . S
C154 H192 0.929 . S
N155 Li110 1.990 . S
N155 C152 1.314 . S
N155 C153 1.279 . S
C156 C153 1.358 . S
C156 C157 1.356 . S
C156 H193 0.930 . S
C157 C154 1.348 . S
C157 C156 1.356 . S
H158 C152 0.930 . S
H159 C153 0.930 . S
C160 N161 1.314 . S
C160 C162 1.353 . S
C160 H166 0.930 . S
N161 Li111 1.990 . S
N161 C160 1.314 . S
N161 C164 1.279 . S
C162 C160 1.353 . S
C162 C165 1.348 . S
C162 H194 0.929 . S
C163 C164 1.358 . S
C163 C165 1.356 . S
C163 H195 0.930 . S
C164 N161 1.279 . S
C164 C163 1.358 . S
C164 H167 0.930 . S
C165 C162 1.348 . S
C165 C163 1.356 . S
H166 C160 0.930 . S
H167 C164 0.930 . S
O168 Li108 1.956 . S
O168 Li109 1.970 . S
O168 Li110 1.961 . S
O168 C112 1.325 . S
O169 Li108 1.970 . S
O169 Li109 1.956 . S
O169 Li111 1.961 . S
O169 C118 1.325 . S
O170 Li108 1.961 . S
O170 Li110 1.956 . S
O170 Li111 1.970 . S
O170 C140 1.325 . S
O171 Li109 1.961 . S
O171 Li110 1.970 . S
O171 Li111 1.956 . S
O171 C146 1.325 . S
H172 C114 0.929 . S
H173 C115 0.930 . S
H174 C116 0.930 . S
H175 C117 0.930 . S
H176 C119 0.930 . S
H177 C121 0.929 . S
H178 C122 0.930 . S
H179 C123 0.930 . S
H180 C126 0.930 . S
H181 C129 0.929 . S
H182 C134 0.929 . S
H183 C135 0.930 . S
H184 C142 0.929 . S
H185 C143 0.930 . S
H186 C144 0.930 . S
H187 C145 0.930 . S
H188 C147 0.929 . S
H189 C148 0.930 . S
H190 C149 0.930 . S
H191 C150 0.930 . S
H192 C154 0.929 . S
H193 C156 0.930 . S
H194 C162 0.929 . S
H195 C163 0.930 . S
Li196 N213 1.990 . S
Li196 O256 1.956 . S
Li196 O257 1.970 . S
Li196 O258 1.961 . S
Li197 N221 1.990 . S
Li197 O256 1.970 . S
Li197 O257 1.956 . S
Li197 O259 1.961 . S
Li198 N243 1.990 . S
Li198 O256 1.961 . S
Li198 O258 1.956 . S
Li198 O259 1.970 . S
Li199 N249 1.990 . S
Li199 O257 1.961 . S
Li199 O258 1.970 . S
Li199 O259 1.956 . S
C200 C202 1.348 . S
C200 C203 1.356 . S
C200 O256 1.325 . S
N201 C204 1.314 . S
N201 C205 1.279 . S
C202 C200 1.348 . S
C202 C204 1.353 . S
C202 H260 0.929 . S
C203 C200 1.356 . S
C203 C205 1.358 . S
C203 H261 0.930 . S
C204 N201 1.314 . S
C204 C202 1.353 . S
C204 H262 0.930 . S
C205 N201 1.279 . S
C205 C203 1.358 . S
C205 H263 0.930 . S
C206 C209 1.348 . S
C206 C210 1.356 . S
C206 O257 1.325 . S
C207 N208 1.279 . S
C207 C210 1.358 . S
C207 H264 0.930 . S
N208 C207 1.279 . S
N208 C211 1.314 . S
C209 C206 1.348 . S
C209 C211 1.353 . S
C209 H265 0.929 . S
C210 C206 1.356 . S
C210 C207 1.358 . S
C210 H266 0.930 . S
C211 N208 1.314 . S
C211 C209 1.353 . S
C211 H267 0.930 . S
C212 N213 1.314 . S
C212 C217 1.353 . S
C212 H218 0.930 . S
N213 Li196 1.990 . S
N213 C212 1.314 . S
N213 C215 1.279 . S
C214 C215 1.358 . S
C214 C216 1.356 . S
C214 H268 0.930 . S
C215 N213 1.279 . S
C215 C214 1.358 . S
C215 H219 0.930 . S
C216 C214 1.356 . S
C216 C217 1.348 . S
C217 C212 1.353 . S
C217 C216 1.348 . S
C217 H269 0.929 . S
H218 C212 0.930 . S
H219 C215 0.930 . S
C220 N221 1.314 . S
C220 C222 1.353 . S
C220 H226 0.930 . S
N221 Li197 1.990 . S
N221 C220 1.314 . S
N221 C224 1.279 . S
C222 C220 1.353 . S
C222 C225 1.348 . S
C222 H270 0.929 . S
C223 C224 1.358 . S
C223 C225 1.356 . S
C223 H271 0.930 . S
C224 N221 1.279 . S
C224 C223 1.358 . S
C224 H227 0.930 . S
C225 C222 1.348 . S
C225 C223 1.356 . S
H226 C220 0.930 . S
H227 C224 0.930 . S
C228 C230 1.348 . S
C228 C231 1.356 . S
C228 O258 1.325 . S
N229 C232 1.314 . S
N229 C233 1.279 . S
C230 C228 1.348 . S
C230 C232 1.353 . S
C230 H272 0.929 . S
C231 C228 1.356 . S
C231 C233 1.358 . S
C231 H273 0.930 . S
C232 N229 1.314 . S
C232 C230 1.353 . S
C232 H274 0.930 . S
C233 N229 1.279 . S
C233 C231 1.358 . S
C233 H275 0.930 . S
C234 C235 1.348 . S
C234 C236 1.356 . S
C234 O259 1.325 . S
C235 C234 1.348 . S
C235 C237 1.353 . S
C235 H276 0.929 . S
C236 C234 1.356 . S
C236 C238 1.358 . S
C236 H277 0.930 . S
C237 C235 1.353 . S
C237 N239 1.314 . S
C237 H278 0.930 . S
C238 C236 1.358 . S
C238 N239 1.279 . S
C238 H279 0.930 . S
N239 C237 1.314 . S
N239 C238 1.279 . S
C240 C242 1.353 . S
C240 N243 1.314 . S
C240 H246 0.930 . S
C241 N243 1.279 . S
C241 C244 1.358 . S
C241 H247 0.930 . S
C242 C240 1.353 . S
C242 C245 1.348 . S
C242 H280 0.929 . S
N243 Li198 1.990 . S
N243 C240 1.314 . S
N243 C241 1.279 . S
C244 C241 1.358 . S
C244 C245 1.356 . S
C244 H281 0.930 . S
C245 C242 1.348 . S
C245 C244 1.356 . S
H246 C240 0.930 . S
H247 C241 0.930 . S
C248 N249 1.314 . S
C248 C250 1.353 . S
C248 H254 0.930 . S
N249 Li199 1.990 . S
N249 C248 1.314 . S
N249 C252 1.279 . S
C250 C248 1.353 . S
C250 C253 1.348 . S
C250 H282 0.929 . S
C251 C252 1.358 . S
C251 C253 1.356 . S
C251 H283 0.930 . S
C252 N249 1.279 . S
C252 C251 1.358 . S
C252 H255 0.930 . S
C253 C250 1.348 . S
C253 C251 1.356 . S
H254 C248 0.930 . S
H255 C252 0.930 . S
O256 Li196 1.956 . S
O256 Li197 1.970 . S
O256 Li198 1.961 . S
O256 C200 1.325 . S
O257 Li196 1.970 . S
O257 Li197 1.956 . S
O257 Li199 1.961 . S
O257 C206 1.325 . S
O258 Li196 1.961 . S
O258 Li198 1.956 . S
O258 Li199 1.970 . S
O258 C228 1.325 . S
O259 Li197 1.961 . S
O259 Li198 1.970 . S
O259 Li199 1.956 . S
O259 C234 1.325 . S
H260 C202 0.929 . S
H261 C203 0.930 . S
H262 C204 0.930 . S
H263 C205 0.930 . S
H264 C207 0.930 . S
H265 C209 0.929 . S
H266 C210 0.930 . S
H267 C211 0.930 . S
H268 C214 0.930 . S
H269 C217 0.929 . S
H270 C222 0.929 . S
H271 C223 0.930 . S
H272 C230 0.929 . S
H273 C231 0.930 . S
H274 C232 0.930 . S
H275 C233 0.930 . S
H276 C235 0.929 . S
H277 C236 0.930 . S
H278 C237 0.930 . S
H279 C238 0.930 . S
H280 C242 0.929 . S
H281 C244 0.930 . S
H282 C250 0.929 . S
H283 C251 0.930 . S
Li284 N301 1.990 . S
Li284 O344 1.956 . S
Li284 O345 1.970 . S
Li284 O346 1.961 . S
Li285 N309 1.990 . S
Li285 O344 1.970 . S
Li285 O345 1.956 . S
Li285 O347 1.961 . S
Li286 N331 1.990 . S
Li286 O344 1.961 . S
Li286 O346 1.956 . S
Li286 O347 1.970 . S
Li287 N337 1.990 . S
Li287 O345 1.961 . S
Li287 O346 1.970 . S
Li287 O347 1.956 . S
C288 C290 1.348 . S
C288 C291 1.356 . S
C288 O344 1.325 . S
N289 C292 1.314 . S
N289 C293 1.279 . S
C290 C288 1.348 . S
C290 C292 1.353 . S
C290 H348 0.929 . S
C291 C288 1.356 . S
C291 C293 1.358 . S
C291 H349 0.930 . S
C292 N289 1.314 . S
C292 C290 1.353 . S
C292 H350 0.930 . S
C293 N289 1.279 . S
C293 C291 1.358 . S
C293 H351 0.930 . S
C294 C297 1.348 . S
C294 C298 1.356 . S
C294 O345 1.325 . S
C295 N296 1.279 . S
C295 C298 1.358 . S
C295 H352 0.930 . S
N296 C295 1.279 . S
N296 C299 1.314 . S
C297 C294 1.348 . S
C297 C299 1.353 . S
C297 H353 0.929 . S
C298 C294 1.356 . S
C298 C295 1.358 . S
C298 H354 0.930 . S
C299 N296 1.314 . S
C299 C297 1.353 . S
C299 H355 0.930 . S
C300 N301 1.314 . S
C300 C305 1.353 . S
C300 H306 0.930 . S
N301 Li284 1.990 . S
N301 C300 1.314 . S
N301 C303 1.279 . S
C302 C303 1.358 . S
C302 C304 1.356 . S
C302 H356 0.930 . S
C303 N301 1.279 . S
C303 C302 1.358 . S
C303 H307 0.930 . S
C304 C302 1.356 . S
C304 C305 1.348 . S
C305 C300 1.353 . S
C305 C304 1.348 . S
C305 H357 0.929 . S
H306 C300 0.930 . S
H307 C303 0.930 . S
C308 N309 1.314 . S
C308 C310 1.353 . S
C308 H314 0.930 . S
N309 Li285 1.990 . S
N309 C308 1.314 . S
N309 C312 1.279 . S
C310 C308 1.353 . S
C310 C313 1.348 . S
C310 H358 0.929 . S
C311 C312 1.358 . S
C311 C313 1.356 . S
C311 H359 0.930 . S
C312 N309 1.279 . S
C312 C311 1.358 . S
C312 H315 0.930 . S
C313 C310 1.348 . S
C313 C311 1.356 . S
H314 C308 0.930 . S
H315 C312 0.930 . S
C316 C318 1.348 . S
C316 C319 1.356 . S
C316 O346 1.325 . S
N317 C320 1.314 . S
N317 C321 1.279 . S
C318 C316 1.348 . S
C318 C320 1.353 . S
C318 H360 0.929 . S
C319 C316 1.356 . S
C319 C321 1.358 . S
C319 H361 0.930 . S
C320 N317 1.314 . S
C320 C318 1.353 . S
C320 H362 0.930 . S
C321 N317 1.279 . S
C321 C319 1.358 . S
C321 H363 0.930 . S
C322 C323 1.348 . S
C322 C324 1.356 . S
C322 O347 1.325 . S
C323 C322 1.348 . S
C323 C325 1.353 . S
C323 H364 0.929 . S
C324 C322 1.356 . S
C324 C326 1.358 . S
C324 H365 0.930 . S
C325 C323 1.353 . S
C325 N327 1.314 . S
C325 H366 0.930 . S
C326 C324 1.358 . S
C326 N327 1.279 . S
C326 H367 0.930 . S
N327 C325 1.314 . S
N327 C326 1.279 . S
C328 C330 1.353 . S
C328 N331 1.314 . S
C328 H334 0.930 . S
C329 N331 1.279 . S
C329 C332 1.358 . S
C329 H335 0.930 . S
C330 C328 1.353 . S
C330 C333 1.348 . S
C330 H368 0.929 . S
N331 Li286 1.990 . S
N331 C328 1.314 . S
N331 C329 1.279 . S
C332 C329 1.358 . S
C332 C333 1.356 . S
C332 H369 0.930 . S
C333 C330 1.348 . S
C333 C332 1.356 . S
H334 C328 0.930 . S
H335 C329 0.930 . S
C336 N337 1.314 . S
C336 C338 1.353 . S
C336 H342 0.930 . S
N337 Li287 1.990 . S
N337 C336 1.314 . S
N337 C340 1.279 . S
C338 C336 1.353 . S
C338 C341 1.348 . S
C338 H370 0.929 . S
C339 C340 1.358 . S
C339 C341 1.356 . S
C339 H371 0.930 . S
C340 N337 1.279 . S
C340 C339 1.358 . S
C340 H343 0.930 . S
C341 C338 1.348 . S
C341 C339 1.356 . S
H342 C336 0.930 . S
H343 C340 0.930 . S
O344 Li284 1.956 . S
O344 Li285 1.970 . S
O344 Li286 1.961 . S
O344 C288 1.325 . S
O345 Li284 1.970 . S
O345 Li285 1.956 . S
O345 Li287 1.961 . S
O345 C294 1.325 . S
O346 Li284 1.961 . S
O346 Li286 1.956 . S
O346 Li287 1.970 . S
O346 C316 1.325 . S
O347 Li285 1.961 . S
O347 Li286 1.970 . S
O347 Li287 1.956 . S
O347 C322 1.325 . S
H348 C290 0.929 . S
H349 C291 0.930 . S
H350 C292 0.930 . S
H351 C293 0.930 . S
H352 C295 0.930 . S
H353 C297 0.929 . S
H354 C298 0.930 . S
H355 C299 0.930 . S
H356 C302 0.930 . S
H357 C305 0.929 . S
H358 C310 0.929 . S
H359 C311 0.930 . S
H360 C318 0.929 . S
H361 C319 0.930 . S
H362 C320 0.930 . S
H363 C321 0.930 . S
H364 C323 0.929 . S
H365 C324 0.930 . S
H366 C325 0.930 . S
H367 C326 0.930 . S
H368 C330 0.929 . S
H369 C332 0.930 . S
H370 C338 0.929 . S
H371 C339 0.930 . S
Li372 N389 1.990 . S
Li372 O432 1.956 . S
Li372 O433 1.970 . S
Li372 O434 1.961 . S
Li373 N397 1.990 . S
Li373 O432 1.970 . S
Li373 O433 1.956 . S
Li373 O435 1.961 . S
Li374 N419 1.990 . S
Li374 O432 1.961 . S
Li374 O434 1.956 . S
Li374 O435 1.970 . S
Li375 N425 1.990 . S
Li375 O433 1.961 . S
Li375 O434 1.970 . S
Li375 O435 1.956 . S
C376 C378 1.348 . S
C376 C379 1.356 . S
C376 O432 1.325 . S
N377 C380 1.314 . S
N377 C381 1.279 . S
C378 C376 1.348 . S
C378 C380 1.353 . S
C378 H436 0.929 . S
C379 C376 1.356 . S
C379 C381 1.358 . S
C379 H437 0.930 . S
C380 N377 1.314 . S
C380 C378 1.353 . S
C380 H438 0.930 . S
C381 N377 1.279 . S
C381 C379 1.358 . S
C381 H439 0.930 . S
C382 C385 1.348 . S
C382 C386 1.356 . S
C382 O433 1.325 . S
C383 N384 1.279 . S
C383 C386 1.358 . S
C383 H440 0.930 . S
N384 C383 1.279 . S
N384 C387 1.314 . S
C385 C382 1.348 . S
C385 C387 1.353 . S
C385 H441 0.929 . S
C386 C382 1.356 . S
C386 C383 1.358 . S
C386 H442 0.930 . S
C387 N384 1.314 . S
C387 C385 1.353 . S
C387 H443 0.930 . S
C388 N389 1.314 . S
C388 C393 1.353 . S
C388 H394 0.930 . S
N389 Li372 1.990 . S
N389 C388 1.314 . S
N389 C391 1.279 . S
C390 C391 1.358 1_554 S
C390 C392 1.357 . S
C390 H444 0.930 . S
C391 N389 1.279 . S
C391 C390 1.358 1_556 S
C391 H395 0.930 . S
C392 C390 1.357 . S
C392 C393 1.338 1_554 S
C393 C388 1.353 . S
C393 C392 1.338 1_556 S
C393 H445 0.929 . S
H394 C388 0.930 . S
H395 C391 0.930 . S
C396 N397 1.314 . S
C396 C398 1.353 . S
C396 H402 0.930 . S
N397 Li373 1.990 . S
N397 C396 1.314 . S
N397 C400 1.279 . S
C398 C396 1.353 . S
C398 C401 1.348 . S
C398 H446 0.929 . S
C399 C400 1.358 . S
C399 C401 1.356 . S
C399 H447 0.930 . S
C400 N397 1.279 . S
C400 C399 1.358 . S
C400 H403 0.930 . S
C401 C398 1.348 . S
C401 C399 1.356 . S
H402 C396 0.930 . S
H403 C400 0.930 . S
C404 C406 1.348 . S
C404 C407 1.356 . S
C404 O434 1.325 . S
N405 C408 1.314 . S
N405 C409 1.279 . S
C406 C404 1.348 . S
C406 C408 1.353 . S
C406 H448 0.929 . S
C407 C404 1.356 . S
C407 C409 1.358 . S
C407 H449 0.930 . S
C408 N405 1.314 . S
C408 C406 1.353 . S
C408 H450 0.930 . S
C409 N405 1.279 . S
C409 C407 1.358 . S
C409 H451 0.930 . S
C410 C411 1.348 . S
C410 C412 1.356 . S
C410 O435 1.325 . S
C411 C410 1.348 . S
C411 C413 1.353 . S
C411 H452 0.929 . S
C412 C410 1.356 . S
C412 C414 1.358 . S
C412 H453 0.930 . S
C413 C411 1.353 . S
C413 N415 1.314 . S
C413 H454 0.930 . S
C414 C412 1.358 . S
C414 N415 1.279 . S
C414 H455 0.930 . S
N415 C413 1.314 . S
N415 C414 1.279 . S
C416 C418 1.353 . S
C416 N419 1.314 . S
C416 H422 0.930 . S
C417 N419 1.279 . S
C417 C420 1.358 . S
C417 H423 0.930 . S
C418 C416 1.353 . S
C418 C421 1.348 . S
C418 H456 0.929 . S
N419 Li374 1.990 . S
N419 C416 1.314 . S
N419 C417 1.279 . S
C420 C417 1.358 . S
C420 C421 1.356 . S
C420 H457 0.930 . S
C421 C418 1.348 . S
C421 C420 1.356 . S
H422 C416 0.930 . S
H423 C417 0.930 . S
C424 N425 1.314 . S
C424 C426 1.353 . S
C424 H430 0.930 . S
N425 Li375 1.990 . S
N425 C424 1.314 . S
N425 C428 1.279 . S
C426 C424 1.353 . S
C426 C429 1.348 . S
C426 H458 0.929 . S
C427 C428 1.358 . S
C427 C429 1.356 . S
C427 H459 0.930 . S
C428 N425 1.279 . S
C428 C427 1.358 . S
C428 H431 0.930 . S
C429 C426 1.348 . S
C429 C427 1.356 . S
H430 C424 0.930 . S
H431 C428 0.930 . S
O432 Li372 1.956 . S
O432 Li373 1.970 . S
O432 Li374 1.961 . S
O432 C376 1.325 . S
O433 Li372 1.970 . S
O433 Li373 1.956 . S
O433 Li375 1.961 . S
O433 C382 1.325 . S
O434 Li372 1.961 . S
O434 Li374 1.956 . S
O434 Li375 1.970 . S
O434 C404 1.325 . S
O435 Li373 1.961 . S
O435 Li374 1.970 . S
O435 Li375 1.956 . S
O435 C410 1.325 . S
H436 C378 0.929 . S
H437 C379 0.930 . S
H438 C380 0.930 . S
H439 C381 0.930 . S
H440 C383 0.930 . S
H441 C385 0.929 . S
H442 C386 0.930 . S
H443 C387 0.930 . S
H444 C390 0.930 . S
H445 C393 0.929 . S
H446 C398 0.929 . S
H447 C399 0.930 . S
H448 C406 0.929 . S
H449 C407 0.930 . S
H450 C408 0.930 . S
H451 C409 0.930 . S
H452 C411 0.929 . S
H453 C412 0.930 . S
H454 C413 0.930 . S
H455 C414 0.930 . S
H456 C418 0.929 . S
H457 C420 0.930 . S
H458 C426 0.929 . S
H459 C427 0.930 . S
Li460 N477 1.990 . S
Li460 O520 1.956 . S
Li460 O521 1.970 . S
Li460 O522 1.961 . S
Li461 N485 1.990 . S
Li461 O520 1.970 . S
Li461 O521 1.956 . S
Li461 O523 1.961 . S
Li462 N507 1.990 . S
Li462 O520 1.961 . S
Li462 O522 1.956 . S
Li462 O523 1.970 . S
Li463 N513 1.990 . S
Li463 O521 1.961 . S
Li463 O522 1.970 . S
Li463 O523 1.956 . S
C464 C466 1.348 . S
C464 C467 1.356 . S
C464 O520 1.325 . S
N465 C468 1.314 . S
N465 C469 1.279 . S
C466 C464 1.348 . S
C466 C468 1.353 . S
C466 H524 0.929 . S
C467 C464 1.356 . S
C467 C469 1.358 . S
C467 H525 0.930 . S
C468 N465 1.314 . S
C468 C466 1.353 . S
C468 H526 0.930 . S
C469 N465 1.279 . S
C469 C467 1.358 . S
C469 H527 0.930 . S
C470 C473 1.348 . S
C470 C474 1.356 . S
C470 O521 1.325 . S
C471 N472 1.279 . S
C471 C474 1.358 . S
C471 H528 0.930 . S
N472 C471 1.279 . S
N472 C475 1.314 . S
C473 C470 1.348 . S
C473 C475 1.353 . S
C473 H529 0.929 . S
C474 C470 1.356 . S
C474 C471 1.358 . S
C474 H530 0.930 . S
C475 N472 1.314 . S
C475 C473 1.353 . S
C475 H531 0.930 . S
C476 N477 1.314 . S
C476 C481 1.353 . S
C476 H482 0.930 . S
N477 Li460 1.990 . S
N477 C476 1.314 . S
N477 C479 1.279 . S
C478 C479 1.358 . S
C478 C480 1.356 . S
C478 H532 0.930 . S
C479 N477 1.279 . S
C479 C478 1.358 . S
C479 H483 0.930 . S
C480 C478 1.356 . S
C480 C481 1.348 . S
C481 C476 1.353 . S
C481 C480 1.348 . S
C481 H533 0.929 . S
H482 C476 0.930 . S
H483 C479 0.930 . S
C484 N485 1.314 . S
C484 C486 1.353 . S
C484 H490 0.930 . S
N485 Li461 1.990 . S
N485 C484 1.314 . S
N485 C488 1.279 . S
C486 C484 1.353 . S
C486 C489 1.348 . S
C486 H534 0.929 . S
C487 C488 1.358 . S
C487 C489 1.356 . S
C487 H535 0.930 . S
C488 N485 1.279 . S
C488 C487 1.358 . S
C488 H491 0.930 . S
C489 C486 1.348 . S
C489 C487 1.356 . S
H490 C484 0.930 . S
H491 C488 0.930 . S
C492 C494 1.348 . S
C492 C495 1.356 . S
C492 O522 1.325 . S
N493 C496 1.314 1_556 S
N493 C497 1.279 1_556 S
C494 C492 1.348 . S
C494 C496 1.353 . S
C494 H536 0.929 . S
C495 C492 1.356 . S
C495 C497 1.358 . S
C495 H537 0.930 . S
C496 N493 1.314 1_554 S
C496 C494 1.353 . S
C496 H538 0.930 1_554 S
C497 N493 1.279 1_554 S
C497 C495 1.358 . S
C497 H539 0.918 1_554 S
C498 C499 1.348 . S
C498 C500 1.356 . S
C498 O523 1.325 . S
C499 C498 1.348 . S
C499 C501 1.353 . S
C499 H540 0.929 . S
C500 C498 1.356 . S
C500 C502 1.358 . S
C500 H541 0.930 . S
C501 C499 1.353 . S
C501 N503 1.314 . S
C501 H542 0.930 . S
C502 C500 1.358 . S
C502 N503 1.279 . S
C502 H543 0.930 . S
N503 C501 1.314 . S
N503 C502 1.279 . S
C504 C506 1.353 . S
C504 N507 1.314 . S
C504 H510 0.930 . S
C505 N507 1.279 . S
C505 C508 1.358 1_554 S
C505 H511 0.930 . S
C506 C504 1.353 . S
C506 C509 1.348 1_554 S
C506 H544 0.929 . S
N507 Li462 1.990 . S
N507 C504 1.314 . S
N507 C505 1.279 . S
C508 C505 1.358 1_556 S
C508 C509 1.356 . S
C508 H545 0.930 . S
C509 C506 1.348 1_556 S
C509 C508 1.356 . S
H510 C504 0.930 . S
H511 C505 0.930 . S
C512 N513 1.314 . S
C512 C514 1.353 . S
C512 H518 0.930 . S
N513 Li463 1.990 . S
N513 C512 1.314 . S
N513 C516 1.279 . S
C514 C512 1.353 . S
C514 C517 1.348 . S
C514 H546 0.929 . S
C515 C516 1.358 . S
C515 C517 1.356 . S
C515 H547 0.930 . S
C516 N513 1.279 . S
C516 C515 1.358 . S
C516 H519 0.930 . S
C517 C514 1.348 . S
C517 C515 1.356 . S
H518 C512 0.930 . S
H519 C516 0.930 . S
O520 Li460 1.956 . S
O520 Li461 1.970 . S
O520 Li462 1.961 . S
O520 C464 1.325 . S
O521 Li460 1.970 . S
O521 Li461 1.956 . S
O521 Li463 1.961 . S
O521 C470 1.325 . S
O522 Li460 1.961 . S
O522 Li462 1.956 . S
O522 Li463 1.970 . S
O522 C492 1.325 . S
O523 Li461 1.961 . S
O523 Li462 1.970 . S
O523 Li463 1.956 . S
O523 C498 1.325 . S
H524 C466 0.929 . S
H525 C467 0.930 . S
H526 C468 0.930 . S
H527 C469 0.930 . S
H528 C471 0.930 . S
H529 C473 0.929 . S
H530 C474 0.930 . S
H531 C475 0.930 . S
H532 C478 0.930 . S
H533 C481 0.929 . S
H534 C486 0.929 . S
H535 C487 0.930 . S
H536 C494 0.929 . S
H537 C495 0.930 . S
H538 C496 0.930 1_556 S
H539 C497 0.918 1_556 S
H540 C499 0.929 . S
H541 C500 0.930 . S
H542 C501 0.930 . S
H543 C502 0.930 . S
H544 C506 0.929 . S
H545 C508 0.930 . S
H546 C514 0.929 . S
H547 C515 0.930 . S
Li548 N565 1.990 . S
Li548 O608 1.956 . S
Li548 O609 1.970 . S
Li548 O610 1.961 . S
Li549 N573 1.990 . S
Li549 O608 1.970 . S
Li549 O609 1.956 . S
Li549 O611 1.961 . S
Li550 N595 1.990 . S
Li550 O608 1.961 . S
Li550 O610 1.956 . S
Li550 O611 1.970 . S
Li551 N601 1.990 . S
Li551 O609 1.961 . S
Li551 O610 1.970 . S
Li551 O611 1.956 . S
C552 C554 1.348 . S
C552 C555 1.356 . S
C552 O608 1.325 . S
N553 C556 1.314 . S
N553 C557 1.279 . S
C554 C552 1.348 . S
C554 C556 1.353 . S
C554 H612 0.929 . S
C555 C552 1.356 . S
C555 C557 1.358 . S
C555 H613 0.930 . S
C556 N553 1.314 . S
C556 C554 1.353 . S
C556 H614 0.930 . S
C557 N553 1.279 . S
C557 C555 1.358 . S
C557 H615 0.930 . S
C558 C561 1.348 . S
C558 C562 1.356 . S
C558 O609 1.325 . S
C559 N560 1.279 . S
C559 C562 1.358 . S
C559 H616 0.930 . S
N560 C559 1.279 . S
N560 C563 1.314 . S
C561 C558 1.348 . S
C561 C563 1.353 . S
C561 H617 0.929 . S
C562 C558 1.356 . S
C562 C559 1.358 . S
C562 H618 0.930 . S
C563 N560 1.314 . S
C563 C561 1.353 . S
C563 H619 0.930 . S
C564 N565 1.314 . S
C564 C569 1.353 . S
C564 H570 0.930 . S
N565 Li548 1.990 . S
N565 C564 1.314 . S
N565 C567 1.279 . S
C566 C567 1.358 . S
C566 C568 1.356 . S
C566 H620 0.930 . S
C567 N565 1.279 . S
C567 C566 1.358 . S
C567 H571 0.930 . S
C568 C566 1.356 . S
C568 C569 1.348 . S
C569 C564 1.353 . S
C569 C568 1.348 . S
C569 H621 0.929 . S
H570 C564 0.930 . S
H571 C567 0.930 . S
C572 N573 1.314 . S
C572 C574 1.353 . S
C572 H578 0.930 . S
N573 Li549 1.990 . S
N573 C572 1.314 . S
N573 C576 1.279 . S
C574 C572 1.353 . S
C574 C577 1.348 . S
C574 H622 0.929 . S
C575 C576 1.358 . S
C575 C577 1.356 . S
C575 H623 0.930 . S
C576 N573 1.279 . S
C576 C575 1.358 . S
C576 H579 0.930 . S
C577 C574 1.348 . S
C577 C575 1.356 . S
H578 C572 0.930 . S
H579 C576 0.930 . S
C580 C582 1.348 . S
C580 C583 1.356 . S
C580 O610 1.325 . S
N581 C584 1.314 . S
N581 C585 1.279 . S
C582 C580 1.348 . S
C582 C584 1.353 . S
C582 H624 0.929 . S
C583 C580 1.356 . S
C583 C585 1.358 . S
C583 H625 0.930 . S
C584 N581 1.314 . S
C584 C582 1.353 . S
C584 H626 0.930 . S
C585 N581 1.279 . S
C585 C583 1.358 . S
C585 H627 0.930 . S
C586 C587 1.348 . S
C586 C588 1.356 . S
C586 O611 1.325 . S
C587 C586 1.348 . S
C587 C589 1.353 . S
C587 H628 0.929 . S
C588 C586 1.356 . S
C588 C590 1.358 . S
C588 H629 0.930 . S
C589 C587 1.353 . S
C589 N591 1.314 . S
C589 H630 0.930 . S
C590 C588 1.358 . S
C590 N591 1.279 . S
C590 H631 0.930 . S
N591 C589 1.314 . S
N591 C590 1.279 . S
C592 C594 1.353 . S
C592 N595 1.314 . S
C592 H598 0.930 . S
C593 N595 1.279 . S
C593 C596 1.358 . S
C593 H599 0.930 . S
C594 C592 1.353 . S
C594 C597 1.348 . S
C594 H632 0.929 . S
N595 Li550 1.990 . S
N595 C592 1.314 . S
N595 C593 1.279 . S
C596 C593 1.358 . S
C596 C597 1.356 . S
C596 H633 0.930 . S
C597 C594 1.348 . S
C597 C596 1.356 . S
H598 C592 0.930 . S
H599 C593 0.930 . S
C600 N601 1.314 . S
C600 C602 1.353 . S
C600 H606 0.930 . S
N601 Li551 1.990 . S
N601 C600 1.314 . S
N601 C604 1.279 . S
C602 C600 1.353 . S
C602 C605 1.348 . S
C602 H634 0.929 . S
C603 C604 1.358 . S
C603 C605 1.356 . S
C603 H635 0.930 . S
C604 N601 1.279 . S
C604 C603 1.358 . S
C604 H607 0.930 . S
C605 C602 1.348 . S
C605 C603 1.356 . S
H606 C600 0.930 . S
H607 C604 0.930 . S
O608 Li548 1.956 . S
O608 Li549 1.970 . S
O608 Li550 1.961 . S
O608 C552 1.325 . S
O609 Li548 1.970 . S
O609 Li549 1.956 . S
O609 Li551 1.961 . S
O609 C558 1.325 . S
O610 Li548 1.961 . S
O610 Li550 1.956 . S
O610 Li551 1.970 . S
O610 C580 1.325 . S
O611 Li549 1.961 . S
O611 Li550 1.970 . S
O611 Li551 1.956 . S
O611 C586 1.325 . S
H612 C554 0.929 . S
H613 C555 0.930 . S
H614 C556 0.930 . S
H615 C557 0.930 . S
H616 C559 0.930 . S
H617 C561 0.929 . S
H618 C562 0.930 . S
H619 C563 0.930 . S
H620 C566 0.930 . S
H621 C569 0.929 . S
H622 C574 0.929 . S
H623 C575 0.930 . S
H624 C582 0.929 . S
H625 C583 0.930 . S
H626 C584 0.930 . S
H627 C585 0.930 . S
H628 C587 0.929 . S
H629 C588 0.930 . S
H630 C589 0.930 . S
H631 C590 0.930 . S
H632 C594 0.929 . S
H633 C596 0.930 . S
H634 C602 0.929 . S
H635 C603 0.930 . S
H636 C644 0.950 . S
H637 C649 0.950 . S
H638 C646 0.950 . S
H639 C648 0.950 . S
H640 C650 0.950 . S
H641 C652 0.950 . S
H642 C654 0.950 . S
H643 C655 0.950 . S
C644 H636 0.950 . S
C644 C645 1.386 . S
C644 C646 1.391 . S
C645 C644 1.386 . S
C645 C649 1.393 . S
C646 H638 0.950 . S
C646 C644 1.391 . S
C646 C647 1.400 . S
C647 C646 1.400 . S
C647 C648 1.398 . S
C647 C653 1.491 . S
C648 H639 0.950 . S
C648 C647 1.398 . S
C648 C649 1.391 . S
C649 H637 0.950 . S
C649 C645 1.393 . S
C649 C648 1.391 . S
C650 H640 0.950 . S
C650 C651 1.386 . S
C650 C652 1.391 . S
C651 C650 1.386 . S
C651 C655 1.393 . S
C652 H641 0.950 . S
C652 C650 1.391 . S
C652 C653 1.400 . S
C653 C647 1.491 . S
C653 C652 1.400 . S
C653 C654 1.398 . S
C654 H642 0.950 . S
C654 C653 1.398 . S
C654 C655 1.391 . S
C655 H643 0.950 . S
C655 C651 1.393 . S
C655 C654 1.391 . S
H656 C664 0.950 . S
H657 C669 0.950 . S
H658 C666 0.950 . S
H659 C668 0.950 . S
H660 C670 0.950 . S
H661 C672 0.950 . S
H662 C674 0.950 . S
H663 C675 0.950 . S
C664 H656 0.950 . S
C664 C665 1.386 . S
C664 C666 1.391 . S
C665 C664 1.386 . S
C665 C669 1.393 . S
C666 H658 0.950 . S
C666 C664 1.391 . S
C666 C667 1.400 . S
C667 C666 1.400 . S
C667 C668 1.398 . S
C667 C673 1.491 . S
C668 H659 0.950 . S
C668 C667 1.398 . S
C668 C669 1.391 . S
C669 H657 0.950 . S
C669 C665 1.393 . S
C669 C668 1.391 . S
C670 H660 0.950 . S
C670 C671 1.386 . S
C670 C672 1.391 . S
C671 C670 1.386 . S
C671 C675 1.393 . S
C672 H661 0.950 . S
C672 C670 1.391 . S
C672 C673 1.400 . S
C673 C667 1.491 . S
C673 C672 1.400 . S
C673 C674 1.398 . S
C674 H662 0.950 . S
C674 C673 1.398 . S
C674 C675 1.391 . S
C675 H663 0.950 . S
C675 C671 1.393 . S
C675 C674 1.391 . S
H676 C684 0.950 . S
H677 C689 0.950 . S
H678 C686 0.950 . S
H679 C688 0.950 . S
H680 C690 0.950 . S
H681 C692 0.950 . S
H682 C694 0.950 . S
H683 C695 0.950 . S
C684 H676 0.950 . S
C684 C685 1.386 . S
C684 C686 1.391 . S
C685 C684 1.386 . S
C685 C689 1.393 . S
C686 H678 0.950 . S
C686 C684 1.391 . S
C686 C687 1.400 . S
C687 C686 1.400 . S
C687 C688 1.398 . S
C687 C693 1.491 . S
C688 H679 0.950 . S
C688 C687 1.398 . S
C688 C689 1.391 . S
C689 H677 0.950 . S
C689 C685 1.393 . S
C689 C688 1.391 . S
C690 H680 0.950 . S
C690 C691 1.386 . S
C690 C692 1.391 . S
C691 C690 1.386 . S
C691 C695 1.393 . S
C692 H681 0.950 . S
C692 C690 1.391 . S
C692 C693 1.400 . S
C693 C687 1.491 . S
C693 C692 1.400 . S
C693 C694 1.398 . S
C694 H682 0.950 . S
C694 C693 1.398 . S
C694 C695 1.391 . S
C695 H683 0.950 . S
C695 C691 1.393 . S
C695 C694 1.391 . S
H696 C704 0.950 . S
H697 C709 0.950 . S
H698 C706 0.950 . S
H699 C708 0.950 . S
H700 C710 0.950 . S
H701 C712 0.950 . S
H702 C714 0.950 . S
H703 C715 0.950 . S
C704 H696 0.950 . S
C704 C705 1.386 . S
C704 C706 1.391 . S
C705 C704 1.386 . S
C705 C709 1.393 . S
C706 H698 0.950 . S
C706 C704 1.391 . S
C706 C707 1.400 . S
C707 C706 1.400 . S
C707 C708 1.398 . S
C707 C713 1.491 . S
C708 H699 0.950 . S
C708 C707 1.398 . S
C708 C709 1.391 . S
C709 H697 0.950 . S
C709 C705 1.393 . S
C709 C708 1.391 . S
C710 H700 0.950 . S
C710 C711 1.386 . S
C710 C712 1.391 . S
C711 C710 1.386 . S
C711 C715 1.393 . S
C712 H701 0.950 . S
C712 C710 1.391 . S
C712 C713 1.400 . S
C713 C707 1.491 . S
C713 C712 1.400 . S
C713 C714 1.398 . S
C714 H702 0.950 . S
C714 C713 1.398 . S
C714 C715 1.391 . S
C715 H703 0.950 . S
C715 C711 1.393 . S
C715 C714 1.391 . S
H716 C724 0.950 . S
H717 C729 0.950 . S
H718 C726 0.950 . S
H719 C728 0.950 . S
H720 C730 0.950 . S
H721 C732 0.950 . S
H722 C734 0.950 . S
H723 C735 0.950 . S
C724 H716 0.950 . S
C724 C725 1.386 . S
C724 C726 1.391 . S
C725 C724 1.386 . S
C725 C729 1.393 . S
C726 H718 0.950 . S
C726 C724 1.391 . S
C726 C727 1.400 . S
C727 C726 1.400 . S
C727 C728 1.398 . S
C727 C733 1.491 . S
C728 H719 0.950 . S
C728 C727 1.398 . S
C728 C729 1.391 . S
C729 H717 0.950 . S
C729 C725 1.393 . S
C729 C728 1.391 . S
C730 H720 0.950 . S
C730 C731 1.386 . S
C730 C732 1.391 . S
C731 C730 1.386 . S
C731 C735 1.393 . S
C732 H721 0.950 . S
C732 C730 1.391 . S
C732 C733 1.400 . S
C733 C727 1.491 . S
C733 C732 1.400 . S
C733 C734 1.398 . S
C734 H722 0.950 . S
C734 C733 1.398 . S
C734 C735 1.391 . S
C735 H723 0.950 . S
C735 C731 1.393 . S
C735 C734 1.391 . S
H736 C744 0.950 . S
H737 C749 0.950 . S
H738 C746 0.950 . S
H739 C748 0.950 . S
H740 C750 0.950 . S
H741 C752 0.950 . S
H742 C754 0.950 . S
H743 C755 0.950 . S
C744 H736 0.950 . S
C744 C745 1.386 . S
C744 C746 1.391 . S
C745 C744 1.386 . S
C745 C749 1.393 . S
C746 H738 0.950 . S
C746 C744 1.391 . S
C746 C747 1.400 . S
C747 C746 1.400 . S
C747 C748 1.398 . S
C747 C753 1.491 . S
C748 H739 0.950 . S
C748 C747 1.398 . S
C748 C749 1.391 . S
C749 H737 0.950 . S
C749 C745 1.393 . S
C749 C748 1.391 . S
C750 H740 0.950 . S
C750 C751 1.386 . S
C750 C752 1.391 . S
C751 C750 1.386 . S
C751 C755 1.393 . S
C752 H741 0.950 . S
C752 C750 1.391 . S
C752 C753 1.400 . S
C753 C747 1.491 . S
C753 C752 1.400 . S
C753 C754 1.398 . S
C754 H742 0.950 . S
C754 C753 1.398 . S
C754 C755 1.391 . S
C755 H743 0.950 . S
C755 C751 1.393 . S
C755 C754 1.391 . S
H756 C764 0.950 . S
H757 C769 0.950 . S
H758 C766 0.950 . S
H759 C768 0.950 . S
H760 C770 0.950 . S
H761 C772 0.950 . S
H762 C774 0.950 . S
H763 C775 0.950 . S
C764 H756 0.950 . S
C764 C765 1.386 . S
C764 C766 1.391 . S
C765 C764 1.386 . S
C765 C769 1.393 . S
C766 H758 0.950 . S
C766 C764 1.391 . S
C766 C767 1.400 . S
C767 C766 1.400 . S
C767 C768 1.398 . S
C767 C773 1.491 . S
C768 H759 0.950 . S
C768 C767 1.398 . S
C768 C769 1.391 . S
C769 H757 0.950 . S
C769 C765 1.393 . S
C769 C768 1.391 . S
C770 H760 0.950 . S
C770 C771 1.386 . S
C770 C772 1.391 . S
C771 C770 1.386 . S
C771 C775 1.393 . S
C772 H761 0.950 . S
C772 C770 1.391 . S
C772 C773 1.400 . S
C773 C767 1.491 . S
C773 C772 1.400 . S
C773 C774 1.398 . S
C774 H762 0.950 . S
C774 C773 1.398 . S
C774 C775 1.391 . S
C775 H763 0.950 . S
C775 C771 1.393 . S
C775 C774 1.391 . S
H776 C784 0.950 . S
H777 C789 0.950 . S
H778 C786 0.950 . S
H779 C788 0.950 . S
H780 C790 0.950 . S
H781 C792 0.950 . S
H782 C794 0.950 . S
H783 C795 0.950 . S
C784 H776 0.950 . S
C784 C785 1.386 . S
C784 C786 1.391 . S
C785 C784 1.386 . S
C785 C789 1.393 . S
C786 H778 0.950 . S
C786 C784 1.391 . S
C786 C787 1.400 . S
C787 C786 1.400 . S
C787 C788 1.398 . S
C787 C793 1.491 . S
C788 H779 0.950 . S
C788 C787 1.398 . S
C788 C789 1.391 . S
C789 H777 0.950 . S
C789 C785 1.393 . S
C789 C788 1.391 . S
C790 H780 0.950 . S
C790 C791 1.386 . S
C790 C792 1.391 . S
C791 C790 1.386 . S
C791 C795 1.393 . S
C792 H781 0.950 . S
C792 C790 1.391 . S
C792 C793 1.400 . S
C793 C787 1.491 . S
C793 C792 1.400 . S
C793 C794 1.398 . S
C794 H782 0.950 . S
C794 C793 1.398 . S
C794 C795 1.391 . S
C795 H783 0.950 . S
C795 C791 1.393 . S
C795 C794 1.391 . S
H796 C804 0.950 . S
H797 C809 0.950 . S
H798 C806 0.950 . S
H799 C808 0.950 . S
H800 C810 0.950 . S
H801 C812 0.950 . S
H802 C814 0.950 . S
H803 C815 0.950 . S
C804 H796 0.950 . S
C804 C805 1.386 . S
C804 C806 1.391 . S
C805 C804 1.386 . S
C805 C809 1.393 . S
C806 H798 0.950 . S
C806 C804 1.391 . S
C806 C807 1.400 . S
C807 C806 1.400 . S
C807 C808 1.398 . S
C807 C813 1.491 . S
C808 H799 0.950 . S
C808 C807 1.398 . S
C808 C809 1.391 . S
C809 H797 0.950 . S
C809 C805 1.393 . S
C809 C808 1.391 . S
C810 H800 0.950 . S
C810 C811 1.386 . S
C810 C812 1.391 . S
C811 C810 1.386 . S
C811 C815 1.393 . S
C812 H801 0.950 . S
C812 C810 1.391 . S
C812 C813 1.400 . S
C813 C807 1.491 . S
C813 C812 1.400 . S
C813 C814 1.398 . S
C814 H802 0.950 . S
C814 C813 1.398 . S
C814 C815 1.391 . S
C815 H803 0.950 . S
C815 C811 1.393 . S
C815 C814 1.391 . S
H816 C824 0.950 . S
H817 C829 0.950 1_556 S
H818 C826 0.950 . S
H819 C828 0.950 . S
H820 C830 0.950 . S
H821 C832 0.950 . S
H822 C834 0.950 . S
H823 C835 0.950 . S
C824 H816 0.950 . S
C824 C825 1.386 . S
C824 C826 1.391 . S
C825 C824 1.386 . S
C825 C829 1.393 . S
C826 H818 0.950 . S
C826 C824 1.391 . S
C826 C827 1.400 . S
C827 C826 1.400 . S
C827 C828 1.398 . S
C827 C833 1.491 . S
C828 H819 0.950 . S
C828 C827 1.398 . S
C828 C829 1.391 . S
C829 H817 0.950 1_554 S
C829 C825 1.393 . S
C829 C828 1.391 . S
C830 H820 0.950 . S
C830 C831 1.386 . S
C830 C832 1.391 . S
C831 C830 1.386 . S
C831 C835 1.393 . S
C832 H821 0.950 . S
C832 C830 1.391 . S
C832 C833 1.400 . S
C833 C827 1.491 . S
C833 C832 1.400 . S
C833 C834 1.398 . S
C834 H822 0.950 . S
C834 C833 1.398 . S
C834 C835 1.391 . S
C835 H823 0.950 . S
C835 C831 1.393 . S
C835 C834 1.391 . S
H836 C844 0.950 . S
H837 C849 0.950 . S
H838 C846 0.950 . S
H839 C848 0.950 . S
H840 C850 0.950 . S
H841 C852 0.950 . S
H842 C854 0.950 . S
H843 C855 0.950 . S
C844 H836 0.950 . S
C844 C845 1.386 . S
C844 C846 1.391 . S
C845 C844 1.386 . S
C845 C849 1.393 . S
C846 H838 0.950 . S
C846 C844 1.391 . S
C846 C847 1.400 . S
C847 C846 1.400 . S
C847 C848 1.398 . S
C847 C853 1.491 . S
C848 H839 0.950 . S
C848 C847 1.398 . S
C848 C849 1.391 . S
C849 H837 0.950 . S
C849 C845 1.393 . S
C849 C848 1.391 . S
C850 H840 0.950 . S
C850 C851 1.386 . S
C850 C852 1.391 . S
C851 C850 1.386 . S
C851 C855 1.393 . S
C852 H841 0.950 . S
C852 C850 1.391 . S
C852 C853 1.400 . S
C853 C847 1.491 . S
C853 C852 1.400 . S
C853 C854 1.398 . S
C854 H842 0.950 . S
C854 C853 1.398 . S
C854 C855 1.391 . S
C855 H843 0.950 . S
C855 C851 1.393 . S
C855 C854 1.391 . S
H856 C864 0.950 . S
H857 C869 0.950 . S
H858 C866 0.950 . S
H859 C868 0.950 . S
H860 C870 0.950 . S
H861 C872 0.950 . S
H862 C874 0.950 . S
H863 C875 0.950 . S
C864 H856 0.950 . S
C864 C865 1.386 . S
C864 C866 1.391 . S
C865 C864 1.386 . S
C865 C869 1.393 . S
C866 H858 0.950 . S
C866 C864 1.391 . S
C866 C867 1.400 . S
C867 C866 1.400 . S
C867 C868 1.398 . S
C867 C873 1.491 . S
C868 H859 0.950 . S
C868 C867 1.398 . S
C868 C869 1.391 . S
C869 H857 0.950 . S
C869 C865 1.393 . S
C869 C868 1.391 . S
C870 H860 0.950 . S
C870 C871 1.386 . S
C870 C872 1.391 . S
C871 C870 1.386 . S
C871 C875 1.393 . S
C872 H861 0.950 . S
C872 C870 1.391 . S
C872 C873 1.400 . S
C873 C867 1.491 . S
C873 C872 1.400 . S
C873 C874 1.398 . S
C874 H862 0.950 . S
C874 C873 1.398 . S
C874 C875 1.391 . S
C875 H863 0.950 . S
C875 C871 1.393 . S
C875 C874 1.391 . S
H876 C884 0.950 . S
H877 C889 0.950 . S
H878 C886 0.950 . S
H879 C888 0.950 . S
H880 C890 0.950 . S
H881 C892 0.950 . S
H882 C894 0.950 . S
H883 C895 0.950 . S
C884 H876 0.950 . S
C884 C885 1.386 . S
C884 C886 1.391 . S
C885 C884 1.386 . S
C885 C889 1.393 . S
C886 H878 0.950 . S
C886 C884 1.391 . S
C886 C887 1.400 . S
C887 C886 1.400 . S
C887 C888 1.398 . S
C887 C893 1.491 . S
C888 H879 0.950 . S
C888 C887 1.398 . S
C888 C889 1.391 . S
C889 H877 0.950 . S
C889 C885 1.393 . S
C889 C888 1.391 . S
C890 H880 0.950 . S
C890 C891 1.386 . S
C890 C892 1.391 . S
C891 C890 1.386 . S
C891 C895 1.393 . S
C892 H881 0.950 . S
C892 C890 1.391 . S
C892 C893 1.400 . S
C893 C887 1.491 . S
C893 C892 1.400 . S
C893 C894 1.398 . S
C894 H882 0.950 . S
C894 C893 1.398 . S
C894 C895 1.391 . S
C895 H883 0.950 . S
C895 C891 1.393 . S
C895 C894 1.391 . S
H896 C904 0.950 . S
H897 C909 0.950 . S
H898 C906 0.950 . S
H899 C908 0.950 . S
H900 C910 0.950 . S
H901 C912 0.950 . S
H902 C914 0.950 . S
H903 C915 0.950 . S
C904 H896 0.950 . S
C904 C905 1.386 . S
C904 C906 1.391 . S
C905 C904 1.386 . S
C905 C909 1.393 . S
C906 H898 0.950 . S
C906 C904 1.391 . S
C906 C907 1.400 . S
C907 C906 1.400 . S
C907 C908 1.398 . S
C907 C913 1.491 . S
C908 H899 0.950 . S
C908 C907 1.398 . S
C908 C909 1.391 . S
C909 H897 0.950 . S
C909 C905 1.393 . S
C909 C908 1.391 . S
C910 H900 0.950 . S
C910 C911 1.386 . S
C910 C912 1.391 . S
C911 C910 1.386 . S
C911 C915 1.393 . S
C912 H901 0.950 . S
C912 C910 1.391 . S
C912 C913 1.400 . S
C913 C907 1.491 . S
C913 C912 1.400 . S
C913 C914 1.398 . S
C914 H902 0.950 . S
C914 C913 1.398 . S
C914 C915 1.391 . S
C915 H903 0.950 . S
C915 C911 1.393 . S
C915 C914 1.391 . S
H916 C924 0.950 . S
H917 C929 0.950 . S
H918 C926 0.950 . S
H919 C928 0.950 . S
H920 C930 0.950 . S
H921 C932 0.950 . S
H922 C934 0.950 . S
H923 C935 0.950 . S
C924 H916 0.950 . S
C924 C925 1.386 . S
C924 C926 1.391 . S
C925 C924 1.386 . S
C925 C929 1.393 . S
C926 H918 0.950 . S
C926 C924 1.391 . S
C926 C927 1.400 . S
C927 C926 1.400 . S
C927 C928 1.398 . S
C927 C933 1.491 . S
C928 H919 0.950 . S
C928 C927 1.398 . S
C928 C929 1.391 . S
C929 H917 0.950 . S
C929 C925 1.393 . S
C929 C928 1.391 . S
C930 H920 0.950 . S
C930 C931 1.386 . S
C930 C932 1.391 . S
C931 C930 1.386 . S
C931 C935 1.393 . S
C932 H921 0.950 . S
C932 C930 1.391 . S
C932 C933 1.400 . S
C933 C927 1.491 . S
C933 C932 1.400 . S
C933 C934 1.398 . S
C934 H922 0.950 . S
C934 C933 1.398 . S
C934 C935 1.391 . S
C935 H923 0.950 . S
C935 C931 1.393 . S
C935 C934 1.391 . S
H936 C944 0.950 . S
H937 C949 0.950 . S
H938 C946 0.950 . S
H939 C948 0.950 . S
H940 C950 0.950 . S
H941 C952 0.950 . S
H942 C954 0.950 . S
H943 C955 0.950 . S
C944 H936 0.950 . S
C944 C945 1.386 . S
C944 C946 1.391 . S
C945 C944 1.386 . S
C945 C949 1.393 . S
C946 H938 0.950 . S
C946 C944 1.391 . S
C946 C947 1.400 . S
C947 C946 1.400 . S
C947 C948 1.398 . S
C947 C953 1.491 . S
C948 H939 0.950 . S
C948 C947 1.398 . S
C948 C949 1.391 . S
C949 H937 0.950 . S
C949 C945 1.393 . S
C949 C948 1.391 . S
C950 H940 0.950 . S
C950 C951 1.386 . S
C950 C952 1.391 . S
C951 C950 1.386 . S
C951 C955 1.393 . S
C952 H941 0.950 . S
C952 C950 1.391 . S
C952 C953 1.400 . S
C953 C947 1.491 . S
C953 C952 1.400 . S
C953 C954 1.398 . S
C954 H942 0.950 . S
C954 C953 1.398 . S
C954 C955 1.391 . S
C955 H943 0.950 . S
C955 C951 1.393 . S
C955 C954 1.391 . S
H956 C964 0.950 . S
H957 C969 0.950 . S
H958 C966 0.950 . S
H959 C968 0.950 . S
H960 C970 0.950 . S
H961 C972 0.950 . S
H962 C974 0.950 . S
H963 C975 0.950 . S
C964 H956 0.950 . S
C964 C965 1.386 . S
C964 C966 1.391 . S
C965 C964 1.386 . S
C965 C969 1.393 . S
C966 H958 0.950 . S
C966 C964 1.391 . S
C966 C967 1.400 . S
C967 C966 1.400 . S
C967 C968 1.398 . S
C967 C973 1.491 . S
C968 H959 0.950 . S
C968 C967 1.398 . S
C968 C969 1.391 . S
C969 H957 0.950 . S
C969 C965 1.393 . S
C969 C968 1.391 . S
C970 H960 0.950 . S
C970 C971 1.386 . S
C970 C972 1.391 . S
C971 C970 1.386 . S
C971 C975 1.393 . S
C972 H961 0.950 . S
C972 C970 1.391 . S
C972 C973 1.400 . S
C973 C967 1.491 . S
C973 C972 1.400 . S
C973 C974 1.398 . S
C974 H962 0.950 . S
C974 C973 1.398 . S
C974 C975 1.391 . S
C975 H963 0.950 . S
C975 C971 1.393 . S
C975 C974 1.391 . S
H976 C984 0.950 . S
H977 C989 0.950 . S
H978 C986 0.950 . S
H979 C988 0.950 . S
H980 C990 0.950 . S
H981 C992 0.950 . S
H982 C994 0.950 . S
H983 C995 0.950 . S
C984 H976 0.950 . S
C984 C985 1.386 . S
C984 C986 1.391 . S
C985 C984 1.386 . S
C985 C989 1.393 . S
C986 H978 0.950 . S
C986 C984 1.391 . S
C986 C987 1.400 . S
C987 C986 1.400 . S
C987 C988 1.398 . S
C987 C993 1.491 . S
C988 H979 0.950 . S
C988 C987 1.398 . S
C988 C989 1.391 . S
C989 H977 0.950 . S
C989 C985 1.393 . S
C989 C988 1.391 . S
C990 H980 0.950 . S
C990 C991 1.386 . S
C990 C992 1.391 . S
C991 C990 1.386 . S
C991 C995 1.393 . S
C992 H981 0.950 . S
C992 C990 1.391 . S
C992 C993 1.400 . S
C993 C987 1.491 . S
C993 C992 1.400 . S
C993 C994 1.398 . S
C994 H982 0.950 . S
C994 C993 1.398 . S
C994 C995 1.391 . S
C995 H983 0.950 . S
C995 C991 1.393 . S
C995 C994 1.391 . S
H996 C1004 0.950 . S
H997 C1009 0.950 . S
H998 C1006 0.950 . S
H999 C1008 0.950 . S
H1000 C1010 0.950 . S
H1001 C1012 0.950 . S
H1002 C1014 0.950 . S
H1003 C1015 0.950 . S
C1004 H996 0.950 . S
C1004 C1005 1.386 . S
C1004 C1006 1.391 . S
C1005 C1004 1.386 . S
C1005 C1009 1.393 . S
C1006 H998 0.950 . S
C1006 C1004 1.391 . S
C1006 C1007 1.400 . S
C1007 C1006 1.400 . S
C1007 C1008 1.398 . S
C1007 C1013 1.491 . S
C1008 H999 0.950 . S
C1008 C1007 1.398 . S
C1008 C1009 1.391 . S
C1009 H997 0.950 . S
C1009 C1005 1.393 . S
C1009 C1008 1.391 . S
C1010 H1000 0.950 . S
C1010 C1011 1.386 . S
C1010 C1012 1.391 . S
C1011 C1010 1.386 . S
C1011 C1015 1.393 . S
C1012 H1001 0.950 . S
C1012 C1010 1.391 . S
C1012 C1013 1.400 . S
C1013 C1007 1.491 . S
C1013 C1012 1.400 . S
C1013 C1014 1.398 . S
C1014 H1002 0.950 . S
C1014 C1013 1.398 . S
C1014 C1015 1.391 . S
C1015 H1003 0.950 . S
C1015 C1011 1.393 . S
C1015 C1014 1.391 . S
H1016 C1024 0.950 . S
H1017 C1029 0.950 . S
H1018 C1026 0.950 . S
H1019 C1028 0.950 . S
H1020 C1030 0.950 . S
H1021 C1032 0.950 . S
H1022 C1034 0.950 . S
H1023 C1035 0.950 . S
C1024 H1016 0.950 . S
C1024 C1025 1.386 . S
C1024 C1026 1.391 . S
C1025 C1024 1.386 . S
C1025 C1029 1.393 . S
C1026 H1018 0.950 . S
C1026 C1024 1.391 . S
C1026 C1027 1.400 . S
C1027 C1026 1.400 . S
C1027 C1028 1.398 . S
C1027 C1033 1.491 . S
C1028 H1019 0.950 . S
C1028 C1027 1.398 . S
C1028 C1029 1.391 . S
C1029 H1017 0.950 . S
C1029 C1025 1.393 . S
C1029 C1028 1.391 . S
C1030 H1020 0.950 . S
C1030 C1031 1.386 . S
C1030 C1032 1.391 . S
C1031 C1030 1.386 . S
C1031 C1035 1.393 . S
C1032 H1021 0.950 . S
C1032 C1030 1.391 . S
C1032 C1033 1.400 . S
C1033 C1027 1.491 . S
C1033 C1032 1.400 . S
C1033 C1034 1.398 . S
C1034 H1022 0.950 . S
C1034 C1033 1.398 . S
C1034 C1035 1.391 . S
C1035 H1023 0.950 . S
C1035 C1031 1.393 . S
C1035 C1034 1.391 . S
H1036 C1044 0.950 . S
H1037 C1049 0.950 . S
H1038 C1046 0.950 . S
H1039 C1048 0.950 . S
H1040 C1050 0.950 . S
H1041 C1052 0.950 . S
H1042 C1054 0.950 . S
H1043 C1055 0.950 . S
C1044 H1036 0.950 . S
C1044 C1045 1.386 . S
C1044 C1046 1.391 . S
C1045 C1044 1.386 . S
C1045 C1049 1.393 . S
C1046 H1038 0.950 . S
C1046 C1044 1.391 . S
C1046 C1047 1.400 . S
C1047 C1046 1.400 . S
C1047 C1048 1.398 . S
C1047 C1053 1.491 . S
C1048 H1039 0.950 . S
C1048 C1047 1.398 . S
C1048 C1049 1.391 . S
C1049 H1037 0.950 . S
C1049 C1045 1.393 . S
C1049 C1048 1.391 . S
C1050 H1040 0.950 . S
C1050 C1051 1.386 . S
C1050 C1052 1.391 . S
C1051 C1050 1.386 . S
C1051 C1055 1.393 . S
C1052 H1041 0.950 . S
C1052 C1050 1.391 . S
C1052 C1053 1.400 . S
C1053 C1047 1.491 . S
C1053 C1052 1.400 . S
C1053 C1054 1.398 . S
C1054 H1042 0.950 . S
C1054 C1053 1.398 . S
C1054 C1055 1.391 . S
C1055 H1043 0.950 . S
C1055 C1051 1.393 . S
C1055 C1054 1.391 . S
H1056 C1064 0.950 . S
H1057 C1069 0.950 . S
H1058 C1066 0.950 . S
H1059 C1068 0.950 . S
H1060 C1070 0.950 . S
H1061 C1072 0.950 . S
H1062 C1074 0.950 . S
H1063 C1075 0.950 . S
C1064 H1056 0.950 . S
C1064 C1065 1.386 . S
C1064 C1066 1.391 . S
C1065 C1064 1.386 . S
C1065 C1069 1.393 . S
C1066 H1058 0.950 . S
C1066 C1064 1.391 . S
C1066 C1067 1.400 . S
C1067 C1066 1.400 . S
C1067 C1068 1.398 . S
C1067 C1073 1.491 . S
C1068 H1059 0.950 . S
C1068 C1067 1.398 . S
C1068 C1069 1.391 . S
C1069 H1057 0.950 . S
C1069 C1065 1.393 . S
C1069 C1068 1.391 . S
C1070 H1060 0.950 . S
C1070 C1071 1.386 . S
C1070 C1072 1.391 . S
C1071 C1070 1.386 . S
C1071 C1075 1.393 . S
C1072 H1061 0.950 . S
C1072 C1070 1.391 . S
C1072 C1073 1.400 . S
C1073 C1067 1.491 . S
C1073 C1072 1.400 . S
C1073 C1074 1.398 . S
C1074 H1062 0.950 . S
C1074 C1073 1.398 . S
C1074 C1075 1.391 . S
C1075 H1063 0.950 . S
C1075 C1071 1.393 . S
C1075 C1074 1.391 . S
H1076 C1084 0.950 . S
H1077 C1089 0.950 . S
H1078 C1086 0.950 . S
H1079 C1088 0.950 . S
H1080 C1090 0.950 . S
H1081 C1092 0.950 . S
H1082 C1094 0.950 . S
H1083 C1095 0.950 . S
C1084 H1076 0.950 . S
C1084 C1085 1.386 . S
C1084 C1086 1.391 . S
C1085 C1084 1.386 . S
C1085 C1089 1.393 . S
C1086 H1078 0.950 . S
C1086 C1084 1.391 . S
C1086 C1087 1.400 . S
C1087 C1086 1.400 . S
C1087 C1088 1.398 . S
C1087 C1093 1.491 . S
C1088 H1079 0.950 . S
C1088 C1087 1.398 . S
C1088 C1089 1.391 . S
C1089 H1077 0.950 . S
C1089 C1085 1.393 . S
C1089 C1088 1.391 . S
C1090 H1080 0.950 . S
C1090 C1091 1.386 . S
C1090 C1092 1.391 . S
C1091 C1090 1.386 . S
C1091 C1095 1.393 . S
C1092 H1081 0.950 . S
C1092 C1090 1.391 . S
C1092 C1093 1.400 . S
C1093 C1087 1.491 . S
C1093 C1092 1.400 . S
C1093 C1094 1.398 . S
C1094 H1082 0.950 . S
C1094 C1093 1.398 . S
C1094 C1095 1.391 . S
C1095 H1083 0.950 . S
C1095 C1091 1.393 . S
C1095 C1094 1.391 . S
H1096 C1104 0.950 . S
H1097 C1109 0.950 . S
H1098 C1106 0.950 . S
H1099 C1108 0.950 . S
H1100 C1110 0.950 . S
H1101 C1112 0.950 . S
H1102 C1114 0.950 . S
H1103 C1115 0.950 . S
C1104 H1096 0.950 . S
C1104 C1105 1.386 . S
C1104 C1106 1.391 . S
C1105 C1104 1.386 . S
C1105 C1109 1.393 . S
C1106 H1098 0.950 . S
C1106 C1104 1.391 . S
C1106 C1107 1.400 . S
C1107 C1106 1.400 . S
C1107 C1108 1.398 . S
C1107 C1113 1.491 . S
C1108 H1099 0.950 . S
C1108 C1107 1.398 . S
C1108 C1109 1.391 . S
C1109 H1097 0.950 . S
C1109 C1105 1.393 . S
C1109 C1108 1.391 . S
C1110 H1100 0.950 . S
C1110 C1111 1.386 . S
C1110 C1112 1.391 . S
C1111 C1110 1.386 . S
C1111 C1115 1.393 . S
C1112 H1101 0.950 . S
C1112 C1110 1.391 . S
C1112 C1113 1.400 . S
C1113 C1107 1.491 . S
C1113 C1112 1.400 . S
C1113 C1114 1.398 . S
C1114 H1102 0.950 . S
C1114 C1113 1.398 . S
C1114 C1115 1.391 . S
C1115 H1103 0.950 . S
C1115 C1111 1.393 . S
C1115 C1114 1.391 . S
C651 C577 1.574 . S
C645 C8 1.545 . S
C665 C26 1.535 . S
C671 C137 1.578 . S
C685 C50 1.533 . S
C691 C225 1.580 . S
C705 C68 1.526 . S
C711 C304 1.573 . S
C731 C401 1.566 . S
C725 C80 1.544 . S
C745 C104 1.548 . S
C751 C480 1.576 . S
C765 C32 1.535 . S
C771 C245 1.587 . S
C785 C44 1.529 . S
C791 C341 1.574 . S
C805 C62 1.542 . S
C811 C421 1.565 . S
C831 C517 1.577 . S
C825 C86 1.511 1_554 S
C851 C597 1.577 . S
C845 C98 1.533 . S
C871 C157 1.578 . S
C865 C14 1.546 . S
C885 C7 1.461 . S
C891 C253 1.531 . S
C905 C25 1.483 . S
C911 C333 1.531 . S
C931 C429 1.530 . S
C925 C52 1.479 . S
C945 C70 1.459 . S
C951 C509 1.527 . S
C971 C605 1.526 . S
C965 C79 1.477 . S
C991 C165 1.531 . S
C985 C106 1.470 . S
C1011 C568 1.526 . S
C1005 C34 1.481 . S
C1025 C43 1.482 . S
C1031 C128 1.533 . S
C1051 C216 1.532 . S
C1045 C61 1.463 . S
C1065 C88 1.455 . S
C1071 C313 1.521 . S
C1085 C97 1.454 . S
C1091 C392 1.530 . S
C1105 C16 1.460 . S
C1111 C489 1.529 . S
