# Generated by pormake.
# Topology pth, (4,4)-cn, num edge types: 1
# Building blocks:
#     Node 0, Type 0, BuildingBlock: QUQFOY_clean_sbu_3, # of connection points: 4
#     Node 1, Type 0, BuildingBlock: QUQFOY_clean_sbu_3, # of connection points: 4
#     Node 2, Type 0, BuildingBlock: QUQFOY_clean_sbu_3, # of connection points: 4
#     Node 3, Type 1, BuildingBlock: MIFKUJ_clean_linker_1, # of connection points: 4
#     Node 4, Type 1, BuildingBlock: MIFKUJ_clean_linker_1, # of connection points: 4
#     Node 5, Type 1, BuildingBlock: MIFKUJ_clean_linker_1, # of connection points: 4
#     Edge 6, Type (0, 1), BuildingBlock: CIFDUS_clean_linker_0, # of connection points: 2
#     Edge 7, Type (0, 1), BuildingBlock: CIFDUS_clean_linker_0, # of connection points: 2
#     Edge 8, Type (0, 1), BuildingBlock: CIFDUS_clean_linker_0, # of connection points: 2
#     Edge 9, Type (0, 1), BuildingBlock: CIFDUS_clean_linker_0, # of connection points: 2
#     Edge 10, Type (0, 1), BuildingBlock: CIFDUS_clean_linker_0, # of connection points: 2
#     Edge 11, Type (0, 1), BuildingBlock: CIFDUS_clean_linker_0, # of connection points: 2
#     Edge 12, Type (0, 1), BuildingBlock: CIFDUS_clean_linker_0, # of connection points: 2
#     Edge 13, Type (0, 1), BuildingBlock: CIFDUS_clean_linker_0, # of connection points: 2
#     Edge 14, Type (0, 1), BuildingBlock: CIFDUS_clean_linker_0, # of connection points: 2
#     Edge 15, Type (0, 1), BuildingBlock: CIFDUS_clean_linker_0, # of connection points: 2
#     Edge 16, Type (0, 1), BuildingBlock: CIFDUS_clean_linker_0, # of connection points: 2
#     Edge 17, Type (0, 1), BuildingBlock: CIFDUS_clean_linker_0, # of connection points: 2
# Relax obj value: 0.016
# Max RMSD: 0.073
# Mean RMSD: 0.058
data_MOF--net-pth--node1-QUQFOY_clean_sbu_3--node2-MIFKUJ_clean_linker_1--edge1-CIFDUS_clean_linker_0
_symmetry_space_group_name_H-M    P1
_symmetry_Int_Tables_number       1
_symmetry_cell_setting            triclinic
loop_
_symmetry_equiv_pos_as_xyz
'x, y, z'
_cell_length_a     26.923832
_cell_length_b     26.712024
_cell_length_c     59.278594
_cell_angle_alpha  90.050214
_cell_angle_beta   90.679855
_cell_angle_gamma 120.77006
loop_
_atom_site_label
_atom_site_type_symbol
_atom_site_fract_x
_atom_site_fract_y
_atom_site_fract_z
_atom_type_partial_charge
C0 C 0.97183 0.15259 0.06057 0.0
O1 O 0.94269 0.14513 0.04259 0.0
Cd2 Cd 0.93912 0.0833 0.01251 0.0
O3 O -0.00228 0.12438 0.0637 0.0
Cd4 Cd 0.00673 0.04757 0.04363 0.0
C5 C 0.08367 0.14189 0.00296 0.0
O6 O 0.90857 0.9891 0.02796 0.0
O7 O 0.9731 0.97549 0.01274 0.0
O8 O -0.00701 0.00217 0.08048 0.0
C9 C 0.92012 0.95896 0.0149 0.0
O10 O 0.03485 0.13098 0.99511 0.0
C11 C 0.03273 0.99029 0.07852 0.0
O12 O 0.08728 0.12087 0.02175 0.0
O13 O 0.06179 0.00652 0.06051 0.0
C14 C 0.13104 0.09855 0.39799 0.0
O15 O 0.15885 0.1317 0.38175 0.0
Cd16 Cd 0.11155 0.1368 0.34801 0.0
O17 O 0.07598 0.07043 0.39773 0.0
Cd18 Cd -0.00701 0.05857 0.37482 0.0
C19 C 0.02754 0.98863 0.33641 0.0
O20 O 0.03638 0.1549 0.35779 0.0
O21 O 0.9544 0.08809 0.34367 0.0
O22 O 0.96281 0.08328 0.40901 0.0
C23 C -0.00485 0.14087 0.34378 0.0
O24 O 0.07049 0.03911 0.33243 0.0
C25 C 0.91227 0.0389 0.40942 0.0
O26 O -0.00879 0.98099 0.35162 0.0
O27 O 0.89856 0.00154 0.39363 0.0
C28 C 0.90722 0.0738 0.68005 0.0
O29 O 0.9074 0.10179 0.69739 0.0
Cd30 Cd 0.96955 0.11843 0.72946 0.0
O31 O 0.94195 0.0549 0.67869 0.0
Cd32 Cd 0.01996 0.05433 0.70098 0.0
C33 C 0.92402 0.97523 0.74131 0.0
O34 O 0.06687 0.15273 0.71772 0.0
O35 O 0.09191 0.09339 0.731 0.0
O36 O 0.07047 0.07591 0.66538 0.0
C37 C 0.0994 0.14424 0.73089 0.0
O38 O 0.92609 0.02261 0.74636 0.0
C39 C 0.08202 0.03549 0.66647 0.0
O40 O 0.9523 0.97256 0.72471 0.0
O41 O 0.06411 0.00286 0.68369 0.0
H42 H 0.14254 0.53501 0.16948 0.0
H43 H 0.13398 0.45502 0.14607 0.0
H44 H 0.95931 0.34377 0.16892 0.0
H45 H 0.96827 0.42354 0.19248 0.0
H46 H 0.07122 0.58378 0.16536 0.0
H47 H 0.13094 0.49748 0.22191 0.0
H48 H 0.12891 0.42315 0.24666 0.0
H49 H 0.96487 0.38737 0.27282 0.0
H50 H 0.96671 0.46108 0.24778 0.0
H51 H 0.97697 0.6142 0.24948 0.0
H52 H 0.97971 0.6899 0.27325 0.0
H53 H 0.13163 0.81952 0.23831 0.0
H54 H 0.13207 0.74302 0.2164 0.0
H55 H 0.04495 0.57608 0.24819 0.0
H56 H 0.98283 0.6596 0.18907 0.0
H57 H 0.98748 0.73528 0.16455 0.0
H58 H 0.15901 0.77983 0.14416 0.0
H59 H 0.15284 0.70248 0.16808 0.0
C60 C 0.05612 0.48502 0.18274 0.0
C61 C 0.1027 0.49315 0.16962 0.0
C62 C 0.09787 0.44749 0.15637 0.0
C63 C 0.04595 0.39341 0.1557 0.0
C64 C -0.00033 0.38516 0.16909 0.0
C65 C 0.00485 0.4305 0.1826 0.0
C66 C 0.05951 0.53433 0.19552 0.0
C67 C 0.06622 0.58258 0.18352 0.0
C68 C 0.05182 0.53208 0.21908 0.0
C69 C 0.04876 0.48446 0.23291 0.0
C70 C 0.09414 0.47298 0.23273 0.0
C71 C 0.09321 0.43096 0.24702 0.0
C72 C 0.0468 0.3996 0.2617 0.0
C73 C 0.00092 0.41045 0.26153 0.0
C74 C 0.00205 0.45272 0.24734 0.0
C75 C 0.05397 0.67264 0.2309 0.0
C76 C 0.01104 0.65895 0.24701 0.0
C77 C 0.01225 0.70258 0.26045 0.0
C78 C 0.05597 0.76123 0.25787 0.0
C79 C 0.09789 0.77491 0.24122 0.0
C80 C 0.09751 0.7311 0.22822 0.0
C81 C 0.05505 0.62534 0.21802 0.0
C82 C 0.04952 0.57742 0.23 0.0
C83 C 0.06368 0.62789 0.19441 0.0
C84 C 0.06752 0.67558 0.1804 0.0
C85 C 0.0215 0.68597 0.1794 0.0
C86 C 0.02446 0.72956 0.16546 0.0
C87 C 0.0737 0.76389 0.15234 0.0
C88 C 0.12005 0.75373 0.1537 0.0
C89 C 0.11676 0.70972 0.16745 0.0
H90 H 0.60235 0.07806 0.49969 0.0
H91 H 0.6753 0.0733 0.47715 0.0
H92 H 0.61532 0.89925 0.50126 0.0
H93 H 0.54217 0.90424 0.52393 0.0
H94 H 0.48934 0.01545 0.49642 0.0
H95 H 0.62926 0.06237 0.54981 0.0
H96 H 0.70213 0.07188 0.57705 0.0
H97 H 0.57307 0.91861 0.61142 0.0
H98 H 0.50023 0.90715 0.5834 0.0
H99 H 0.33706 0.8955 0.56755 0.0
H100 H 0.26171 0.89258 0.59109 0.0
H101 H 0.33368 0.07716 0.58063 0.0
H102 H 0.40769 0.07908 0.55655 0.0
H103 H 0.45874 0.97071 0.57793 0.0
H104 H 0.32182 0.94042 0.51361 0.0
H105 H 0.26776 0.96841 0.4882 0.0
H106 H 0.41947 0.13993 0.48192 0.0
H107 H 0.47333 0.11089 0.50662 0.0
C108 C 0.56697 0.99159 0.51352 0.0
C109 C 0.60504 0.03897 0.50022 0.0
C110 C 0.64686 0.03632 0.48746 0.0
C111 C 0.65092 0.98591 0.48751 0.0
C112 C 0.61288 0.93848 0.50087 0.0
C113 C 0.57145 0.94146 0.5139 0.0
C114 C 0.52085 0.99361 0.52618 0.0
C115 C 0.48292 0.00577 0.51429 0.0
C116 C 0.51347 0.98286 0.54962 0.0
C117 C 0.55909 0.98344 0.56423 0.0
C118 C 0.6168 0.02922 0.56257 0.0
C119 C 0.65848 0.03504 0.57828 0.0
C120 C 0.64305 -0.00392 0.59631 0.0
C121 C 0.58586 0.94935 0.59769 0.0
C122 C 0.54433 0.94283 0.58169 0.0
C123 C 0.37761 0.98738 0.56023 0.0
C124 C 0.33595 0.93509 0.5701 0.0
C125 C 0.29322 0.93364 0.58369 0.0
C126 C 0.29178 0.98472 0.58793 0.0
C127 C 0.33288 0.03681 0.5775 0.0
C128 C 0.37535 0.03809 0.56376 0.0
C129 C 0.42615 0.98963 0.54791 0.0
C130 C 0.46484 0.97884 0.55997 0.0
C131 C 0.43666 0.0055 0.52501 0.0
C132 C 0.40154 0.02352 0.51184 0.0
C133 C 0.34301 0.9842 0.50693 0.0
C134 C 0.3122 0.0004 0.49248 0.0
C135 C 0.33948 0.05628 0.48282 0.0
C136 C 0.39748 0.09618 0.48864 0.0
C137 C 0.42824 0.07981 0.50286 0.0
H138 H 0.49252 0.41516 0.83037 0.0
H139 H 0.41696 0.34031 0.80604 0.0
H140 H 0.29372 0.38227 0.83255 0.0
H141 H 0.36988 0.45766 0.85683 0.0
H142 H 0.53195 0.53414 0.83111 0.0
H143 H 0.42957 0.36706 0.87928 0.0
H144 H 0.34496 0.29129 0.89907 0.0
H145 H 0.33621 0.42346 0.93763 0.0
H146 H 0.41832 0.49941 0.91692 0.0
H147 H 0.56511 0.65144 0.91464 0.0
H148 H 0.64193 0.72905 0.93737 0.0
H149 H 0.76229 0.68045 0.91265 0.0
H150 H 0.6856 0.60546 0.8888 0.0
H151 H 0.524 0.5304 0.91465 0.0
H152 H 0.61222 0.69403 0.86834 0.0
H153 H 0.6821 0.7766 0.84671 0.0
H154 H 0.70538 0.66034 0.80315 0.0
H155 H 0.63962 0.57825 0.82649 0.0
C156 C 0.43661 0.44149 0.84551 0.0
C157 C 0.44923 0.40823 0.83093 0.0
C158 C 0.406 0.36533 0.81715 0.0
C159 C 0.34945 0.35534 0.8175 0.0
C160 C 0.33702 0.38929 0.83188 0.0
C161 C 0.38028 0.43199 0.84583 0.0
C162 C 0.48304 0.48681 0.86001 0.0
C163 C 0.53091 0.53286 0.8494 0.0
C164 C 0.47986 0.48602 0.88385 0.0
C165 C 0.42983 0.43923 0.89622 0.0
C166 C 0.40887 0.37996 0.89163 0.0
C167 C 0.36093 0.33666 0.90305 0.0
C168 C 0.33447 0.35191 0.91977 0.0
C169 C 0.35624 0.41088 0.92483 0.0
C170 C 0.40317 0.45415 0.91304 0.0
C171 C 0.61984 0.623 0.90002 0.0
C172 C 0.60815 0.65767 0.91417 0.0
C173 C 0.6522 0.70181 0.92731 0.0
C174 C 0.70869 0.71122 0.92706 0.0
C175 C 0.71983 0.67551 0.91304 0.0
C176 C 0.67594 0.6322 0.89951 0.0
C177 C 0.57317 0.57733 0.88573 0.0
C178 C 0.52538 0.53127 0.89636 0.0
C179 C 0.57565 0.57882 0.86189 0.0
C180 C 0.62132 0.6297 0.84946 0.0
C181 C 0.63396 0.68632 0.85472 0.0
C182 C 0.67312 0.73363 0.84189 0.0
C183 C 0.69907 0.72542 0.82287 0.0
C184 C 0.68698 0.66874 0.81779 0.0
C185 C 0.6488 0.6215 0.83102 0.0
H186 H 0.05414 0.20573 0.09348 0.0
H187 H 0.89961 0.19486 0.0661 0.0
H188 H 0.90763 0.26638 0.09381 0.0
H189 H 0.9599 0.33405 0.12515 0.0
H190 H 0.11723 0.34943 0.15127 0.0
H191 H 0.10695 0.27417 0.12473 0.0
C192 C 0.02204 0.21876 0.09369 0.0
C193 C 0.97627 0.19489 0.07779 0.0
C194 C 0.02755 0.26082 0.10939 0.0
C195 C 0.93537 0.21271 0.0781 0.0
C196 C 0.93986 0.25354 0.09396 0.0
C197 C -0.00844 0.32041 0.12513 0.0
C198 C 0.03901 0.34675 0.14017 0.0
C199 C 0.98592 0.27811 0.10958 0.0
C200 C 0.08041 0.32967 0.13978 0.0
C201 C 0.07448 0.28667 0.12465 0.0
H202 H 0.80126 0.94936 0.41564 0.0
H203 H 0.93106 0.11689 0.44265 0.0
H204 H 0.86258 0.11372 0.46983 0.0
H205 H 0.76462 0.06641 0.48469 0.0
H206 H 0.63397 0.89893 0.4584 0.0
H207 H 0.70399 0.89862 0.43244 0.0
C208 C 0.8146 0.9849 0.42759 0.0
C209 C 0.87109 0.03347 0.42694 0.0
C210 C 0.77483 0.98291 0.4433 0.0
C211 C 0.88782 0.07904 0.44266 0.0
C212 C 0.84866 0.07739 0.45823 0.0
C213 C 0.75161 0.0298 0.4733 0.0
C214 C 0.69427 0.98306 0.47327 0.0
C215 C 0.79189 0.03005 0.45847 0.0
C216 C 0.67805 0.93536 0.45875 0.0
C217 C 0.71795 0.93533 0.44383 0.0
H218 H 0.8298 0.9535 0.76453 0.0
H219 H 0.9349 0.87967 0.74828 0.0
H220 H 0.87515 0.79589 0.77243 0.0
H221 H 0.79468 0.74566 0.79906 0.0
H222 H 0.68584 0.8176 0.81222 0.0
H223 H 0.74648 0.90077 0.78878 0.0
C224 C 0.83974 0.91911 0.76628 0.0
C225 C 0.88697 0.92296 0.75484 0.0
C226 C 0.80494 0.87107 0.77983 0.0
C227 C 0.8987 0.87761 0.75694 0.0
C228 C 0.86469 0.82988 0.77079 0.0
C229 C 0.78367 0.77905 0.79662 0.0
C230 C 0.73606 0.77542 0.80789 0.0
C231 C 0.81782 0.82633 0.78243 0.0
C232 C 0.72309 0.81971 0.8045 0.0
C233 C 0.75742 0.8672 0.79084 0.0
H234 H 0.0896 0.93139 0.07381 0.0
H235 H -0.00472 0.97105 0.12189 0.0
H236 H 0.00279 0.90727 0.1495 0.0
H237 H 0.03211 0.83683 0.15931 0.0
H238 H 0.11987 0.79154 0.11006 0.0
H239 H 0.11999 0.86175 0.08383 0.0
C240 C 0.07129 0.92658 0.09042 0.0
C241 C 0.04194 0.95587 0.0958 0.0
C242 C 0.07451 0.88874 0.10602 0.0
C243 C 0.01796 0.94882 0.11732 0.0
C244 C 0.02217 0.91231 0.13311 0.0
C245 C 0.05092 0.84193 0.14279 0.0
C246 C 0.07583 0.80866 0.13675 0.0
C247 C 0.04949 0.8813 0.1275 0.0
C248 C 0.1011 0.81699 0.11539 0.0
C249 C 0.1008 0.85687 0.10025 0.0
H250 H 0.2454 0.13471 0.40037 0.0
H251 H 0.08731 0.04251 0.43789 0.0
H252 H 0.13811 0.02302 0.46783 0.0
H253 H 0.22691 0.02957 0.48283 0.0
H254 H 0.38337 0.11785 0.44411 0.0
H255 H 0.33385 0.14212 0.41543 0.0
C256 C 0.22207 0.11077 0.41517 0.0
C257 C 0.16261 0.09009 0.41683 0.0
C258 C 0.25128 0.09897 0.43217 0.0
C259 C 0.13308 0.05884 0.43611 0.0
C260 C 0.16207 0.0476 0.45325 0.0
C261 C 0.25009 0.05387 0.46807 0.0
C262 C 0.3089 0.07202 0.46575 0.0
C263 C 0.22105 0.06687 0.45134 0.0
C264 C 0.33841 0.10416 0.44661 0.0
C265 C 0.31001 0.11773 0.43006 0.0
H266 H 0.17539 0.13681 0.75888 0.0
H267 H 0.12031 0.25514 0.73705 0.0
H268 H 0.19178 0.33062 0.76247 0.0
H269 H 0.27107 0.36323 0.79057 0.0
H270 H 0.32585 0.24424 0.81175 0.0
H271 H 0.25329 0.1687 0.78687 0.0
C272 C 0.1789 0.17908 0.75967 0.0
C273 C 0.14259 0.19034 0.74609 0.0
C274 C 0.22007 0.22213 0.7742 0.0
C275 C 0.14783 0.2454 0.7473 0.0
C276 C 0.18862 0.28853 0.76185 0.0
C277 C 0.26665 0.32056 0.78985 0.0
C278 C 0.30379 0.3093 0.80292 0.0
C279 C 0.22503 0.27738 0.77536 0.0
C280 C 0.29816 0.25409 0.80166 0.0
C281 C 0.25659 0.21086 0.7875 0.0
H282 H 0.7993 0.05593 0.68381 0.0
H283 H 0.91961 0.06059 0.63527 0.0
H284 H 0.84834 0.03664 0.6049 0.0
H285 H 0.75151 0.01448 0.59219 0.0
H286 H 0.62949 0.00371 0.64122 0.0
H287 H 0.70134 0.02923 0.67143 0.0
C288 C 0.80995 0.05206 0.66655 0.0
C289 C 0.8647 0.06065 0.66169 0.0
C290 C 0.76827 0.03665 0.64933 0.0
C291 C 0.87769 0.05434 0.63936 0.0
C292 C 0.837 0.04061 0.62202 0.0
C293 C 0.74082 0.01756 0.60953 0.0
C294 C 0.68551 0.00727 0.61456 0.0
C295 C 0.78212 0.03158 0.62681 0.0
C296 C 0.67172 0.0109 0.63704 0.0
C297 C 0.71285 0.02587 0.65427 0.0
H298 H 0.9321 0.91676 0.97496 0.0
H299 H 0.8059 0.89281 0.02452 0.0
H300 H 0.72988 0.81241 0.00225 0.0
H301 H 0.69959 0.74922 0.96885 0.0
H302 H 0.82412 0.77985 0.91731 0.0
H303 H 0.90063 0.85626 0.94051 0.0
C304 C 0.88796 0.89374 0.98089 0.0
C305 C 0.87455 0.9104 0.00137 0.0
C306 C 0.84427 0.84855 0.96773 0.0
C307 C 0.81715 0.88078 0.00876 0.0
C308 C 0.77375 0.83479 -0.00394 0.0
C309 C 0.74318 0.77304 0.96241 0.0
C310 C 0.75561 0.75818 0.94126 0.0
C311 C 0.78679 0.81849 0.97547 0.0
C312 C 0.813 0.78909 0.93366 0.0
C313 C 0.85691 0.83335 0.94684 0.0
H314 H 0.11389 0.979 0.31884 0.0
H315 H 0.92835 0.88685 0.32457 0.0
H316 H 0.92038 0.80835 0.30037 0.0
H317 H 0.96664 0.76857 0.27643 0.0
H318 H 0.15329 0.85848 0.27403 0.0
H319 H 0.16002 0.93601 0.29762 0.0
C320 C 0.07164 0.94168 0.31482 0.0
C321 C 0.02173 0.93888 0.32325 0.0
C322 C 0.06756 0.89676 0.30126 0.0
C323 C 0.96737 0.88987 0.31826 0.0
C324 C 0.96285 0.84521 0.30436 0.0
C325 C 0.00889 0.80457 0.28129 0.0
C326 C 0.05931 0.80768 0.27296 0.0
C327 C 0.01274 0.84846 0.29562 0.0
C328 C 0.11353 0.85537 0.27941 0.0
C329 C 0.11759 0.89962 0.29319 0.0
H330 H 0.12967 0.96694 0.66769 0.0
H331 H 0.11178 0.0887 0.62559 0.0
H332 H 0.17264 0.08159 0.59712 0.0
H333 H 0.23344 0.04326 0.58466 0.0
H334 H 0.2556 0.9256 0.62771 0.0
H335 H 0.18977 0.92779 0.65501 0.0
C336 C 0.13876 0.99158 0.65221 0.0
C337 C 0.11632 0.02836 0.64881 0.0
C338 C 0.17451 0.98796 0.63602 0.0
C339 C 0.1287 0.06021 0.62869 0.0
C340 C 0.16352 0.05619 0.61238 0.0
C341 C 0.22418 0.01833 0.60006 0.0
C342 C 0.24956 0.98431 0.60403 0.0
C343 C 0.1872 0.02073 0.61598 0.0
C344 C 0.2361 0.95149 0.62396 0.0
C345 C 0.19877 0.95306 0.63972 0.0
H346 H 0.09404 0.15968 0.95777 0.0
H347 H 0.19233 0.21171 0.02016 0.0
H348 H 0.27907 0.28112 -0.00013 0.0
H349 H 0.32614 0.32968 0.96445 0.0
H350 H 0.22964 0.27349 0.90183 0.0
H351 H 0.1429 0.20278 0.92204 0.0
C352 C 0.13452 0.18613 0.96688 0.0
C353 C 0.13673 0.18103 0.99043 0.0
C354 C 0.1844 0.22514 0.95506 0.0
C355 C 0.1896 0.21486 0.00202 0.0
C356 C 0.23914 0.25467 0.99045 0.0
C357 C 0.28606 0.30157 0.95532 0.0
C358 C 0.28368 0.30662 0.93182 0.0
C359 C 0.2369 0.26055 0.96701 0.0
C360 C 0.23206 0.26995 0.91997 0.0
C361 C 0.18261 0.22981 0.93151 0.0
H362 H 0.08467 0.24925 0.33447 0.0
H363 H 0.90664 0.12685 0.31656 0.0
H364 H 0.90701 0.19587 0.2895 0.0
H365 H 0.95788 0.29092 0.27085 0.0
H366 H 0.13618 0.4129 0.28833 0.0
H367 H 0.13597 0.34386 0.31541 0.0
C368 C 0.04593 0.23778 0.32469 0.0
C369 C -0.00433 0.18313 0.32758 0.0
C370 C 0.04658 0.27743 0.30898 0.0
C371 C 0.94593 0.16867 0.31465 0.0
C372 C 0.94607 0.20809 0.29917 0.0
C373 C -0.00343 0.30242 0.28068 0.0
C374 C 0.04691 0.35689 0.27762 0.0
C375 C -0.00387 0.26257 0.2962 0.0
C376 C 0.09704 0.37095 0.29022 0.0
C377 C 0.09685 0.33167 0.3058 0.0
loop_
_geom_bond_atom_site_label_1
_geom_bond_atom_site_label_2
_geom_bond_distance
_geom_bond_site_symmetry_2
_ccdc_geom_bond_type
C0 O1 1.306 1_455 S
C0 O3 1.160 . S
O1 C0 1.306 1_655 S
O1 Cd2 2.228 . S
Cd2 O1 2.228 . S
Cd2 O6 2.273 . S
Cd2 O10 2.277 1_655 S
O3 C0 1.160 . S
O3 Cd4 2.203 . S
Cd4 O3 2.203 . S
Cd4 O6 2.411 1_455 S
Cd4 O7 2.333 1_445 S
Cd4 O8 2.352 1_445 S
Cd4 O12 2.277 . S
Cd4 O13 2.356 1_545 S
C5 O10 1.209 . S
C5 O12 1.226 . S
O6 Cd2 2.273 . S
O6 Cd4 2.411 1_655 S
O6 C9 1.320 1_545 S
O7 Cd4 2.333 1_665 S
O7 C9 1.214 . S
O8 Cd4 2.352 1_665 S
O8 C11 1.258 1_655 S
C9 O6 1.320 1_565 S
C9 O7 1.214 . S
O10 Cd2 2.277 1_455 S
O10 C5 1.209 . S
C11 O8 1.258 1_455 S
C11 O13 1.282 . S
O12 Cd4 2.277 . S
O12 C5 1.226 . S
O13 Cd4 2.356 1_565 S
O13 C11 1.282 . S
C14 O15 1.306 . S
C14 O17 1.160 . S
O15 C14 1.306 . S
O15 Cd16 2.228 . S
Cd16 O15 2.228 . S
Cd16 O20 2.273 . S
Cd16 O24 2.277 . S
O17 C14 1.160 . S
O17 Cd18 2.203 . S
Cd18 O17 2.203 . S
Cd18 O20 2.411 . S
Cd18 O21 2.333 1_455 S
Cd18 O22 2.352 1_455 S
Cd18 O26 2.277 1_445 S
Cd18 O27 2.356 1_445 S
C19 O24 1.209 1_565 S
C19 O26 1.226 1_455 S
O20 Cd16 2.273 . S
O20 Cd18 2.411 . S
O20 C23 1.320 . S
O21 Cd18 2.333 1_655 S
O21 C23 1.214 1_655 S
O22 Cd18 2.352 1_655 S
O22 C25 1.258 . S
C23 O20 1.320 . S
C23 O21 1.214 1_455 S
O24 Cd16 2.277 . S
O24 C19 1.209 1_545 S
C25 O22 1.258 . S
C25 O27 1.282 1_545 S
O26 Cd18 2.277 1_665 S
O26 C19 1.226 1_655 S
O27 Cd18 2.356 1_665 S
O27 C25 1.282 1_565 S
C28 O29 1.306 . S
C28 O31 1.160 . S
O29 C28 1.306 . S
O29 Cd30 2.228 . S
Cd30 O29 2.228 . S
Cd30 O34 2.273 1_655 S
Cd30 O38 2.277 . S
O31 C28 1.160 . S
O31 Cd32 2.203 1_655 S
Cd32 O31 2.203 1_455 S
Cd32 O34 2.411 . S
Cd32 O35 2.333 . S
Cd32 O36 2.352 . S
Cd32 O40 2.277 1_445 S
Cd32 O41 2.369 . S
C33 O38 1.209 1_565 S
C33 O40 1.226 . S
O34 Cd30 2.273 1_455 S
O34 Cd32 2.411 . S
O34 C37 1.320 . S
O35 Cd32 2.333 . S
O35 C37 1.214 . S
O36 Cd32 2.352 . S
O36 C39 1.258 . S
C37 O34 1.320 . S
C37 O35 1.214 . S
O38 Cd30 2.277 . S
O38 C33 1.209 1_545 S
C39 O36 1.258 . S
C39 O41 1.293 . S
O40 Cd32 2.277 1_665 S
O40 C33 1.226 . S
O41 Cd32 2.369 . S
O41 C39 1.293 . S
H42 C61 0.949 . S
H43 C62 0.950 . S
H44 C64 0.950 . S
H45 C65 0.956 . S
H46 C67 0.950 . S
H47 C70 0.950 . S
H48 C71 0.950 . S
H49 C73 0.951 . S
H50 C74 0.949 . S
H51 C76 0.949 . S
H52 C77 0.950 . S
H53 C79 0.950 . S
H54 C80 0.950 . S
H55 C82 0.950 . S
H56 C85 0.950 1_655 S
H57 C86 0.950 1_655 S
H58 C88 0.951 . S
H59 C89 0.949 . S
C60 C61 1.376 . S
C60 C65 1.383 1_455 S
C60 C66 1.483 . S
C61 H42 0.949 . S
C61 C60 1.376 . S
C61 C62 1.397 . S
C62 H43 0.950 . S
C62 C61 1.397 . S
C62 C63 1.391 . S
C63 C62 1.391 . S
C63 C64 1.405 1_455 S
C64 H44 0.950 . S
C64 C63 1.405 1_655 S
C64 C65 1.364 . S
C65 H45 0.956 . S
C65 C60 1.383 1_655 S
C65 C64 1.364 . S
C66 C60 1.483 . S
C66 C67 1.382 . S
C66 C68 1.403 . S
C67 H46 0.950 . S
C67 C66 1.382 . S
C67 C83 1.411 . S
C68 C66 1.403 . S
C68 C69 1.489 . S
C68 C82 1.411 . S
C69 C68 1.489 . S
C69 C70 1.383 . S
C69 C74 1.382 1_455 S
C70 H47 0.950 . S
C70 C69 1.383 . S
C70 C71 1.395 . S
C71 H48 0.950 . S
C71 C70 1.395 . S
C71 C72 1.288 . S
C72 C71 1.288 . S
C72 C73 1.392 1_455 S
C73 H49 0.951 . S
C73 C72 1.392 1_655 S
C73 C74 1.392 . S
C74 H50 0.949 . S
C74 C69 1.382 1_655 S
C74 C73 1.392 . S
C75 C76 1.376 1_455 S
C75 C80 1.386 . S
C75 C81 1.483 . S
C76 H51 0.949 . S
C76 C75 1.376 1_655 S
C76 C77 1.397 . S
C77 H52 0.950 . S
C77 C76 1.397 . S
C77 C78 1.391 1_655 S
C78 C77 1.391 1_455 S
C78 C79 1.405 . S
C79 H53 0.950 . S
C79 C78 1.405 . S
C79 C80 1.367 . S
C80 H54 0.950 . S
C80 C75 1.386 . S
C80 C79 1.367 . S
C81 C75 1.483 . S
C81 C82 1.382 . S
C81 C83 1.403 . S
C82 H55 0.950 . S
C82 C68 1.411 . S
C82 C81 1.382 . S
C83 C67 1.411 . S
C83 C81 1.403 . S
C83 C84 1.489 . S
C84 C83 1.489 . S
C84 C85 1.383 . S
C84 C89 1.382 . S
C85 H56 0.950 1_455 S
C85 C84 1.383 . S
C85 C86 1.395 . S
C86 H57 0.950 1_455 S
C86 C85 1.395 . S
C86 C87 1.288 . S
C87 C86 1.288 . S
C87 C88 1.392 . S
C88 H58 0.951 . S
C88 C87 1.392 . S
C88 C89 1.392 . S
C89 H59 0.949 . S
C89 C84 1.382 . S
C89 C88 1.392 . S
H90 C109 0.949 . S
H91 C110 0.950 . S
H92 C112 0.942 1_565 S
H93 C113 0.950 1_565 S
H94 C115 0.950 . S
H95 C118 0.950 . S
H96 C119 0.950 . S
H97 C121 0.958 . S
H98 C122 0.949 . S
H99 C124 0.949 . S
H100 C125 0.950 . S
H101 C127 0.950 . S
H102 C128 0.950 . S
H103 C130 0.950 . S
H104 C133 0.950 1_565 S
H105 C134 0.950 1_565 S
H106 C136 0.951 . S
H107 C137 0.949 . S
C108 C109 1.376 . S
C108 C113 1.386 . S
C108 C114 1.483 . S
C109 H90 0.949 . S
C109 C108 1.376 . S
C109 C110 1.397 . S
C110 H91 0.950 . S
C110 C109 1.397 . S
C110 C111 1.391 . S
C111 C110 1.391 . S
C111 C112 1.410 . S
C112 H92 0.942 1_545 S
C112 C111 1.410 . S
C112 C113 1.371 . S
C113 H93 0.950 1_545 S
C113 C108 1.386 . S
C113 C112 1.371 . S
C114 C108 1.483 . S
C114 C115 1.382 . S
C114 C116 1.403 . S
C115 H94 0.950 . S
C115 C114 1.382 . S
C115 C131 1.411 . S
C116 C114 1.403 . S
C116 C117 1.489 . S
C116 C130 1.411 . S
C117 C116 1.489 . S
C117 C118 1.383 . S
C117 C122 1.382 1_545 S
C118 H95 0.950 . S
C118 C117 1.383 . S
C118 C119 1.395 . S
C119 H96 0.950 . S
C119 C118 1.395 . S
C119 C120 1.288 . S
C120 C119 1.288 . S
C120 C121 1.389 1_545 S
C121 H97 0.958 . S
C121 C120 1.389 1_565 S
C121 C122 1.387 . S
C122 H98 0.949 . S
C122 C117 1.382 1_565 S
C122 C121 1.387 . S
C123 C124 1.376 1_545 S
C123 C128 1.386 . S
C123 C129 1.483 . S
C124 H99 0.949 . S
C124 C123 1.376 1_565 S
C124 C125 1.397 . S
C125 H100 0.950 . S
C125 C124 1.397 . S
C125 C126 1.391 1_565 S
C126 C125 1.391 1_545 S
C126 C127 1.405 . S
C127 H101 0.950 . S
C127 C126 1.405 . S
C127 C128 1.367 . S
C128 H102 0.950 . S
C128 C123 1.386 . S
C128 C127 1.367 . S
C129 C123 1.483 . S
C129 C130 1.382 . S
C129 C131 1.403 . S
C130 H103 0.950 . S
C130 C116 1.411 . S
C130 C129 1.382 . S
C131 C115 1.411 . S
C131 C129 1.403 . S
C131 C132 1.489 . S
C132 C131 1.489 . S
C132 C133 1.383 . S
C132 C137 1.382 . S
C133 H104 0.950 1_545 S
C133 C132 1.383 . S
C133 C134 1.395 . S
C134 H105 0.950 1_545 S
C134 C133 1.395 . S
C134 C135 1.288 . S
C135 C134 1.288 . S
C135 C136 1.392 . S
C136 H106 0.951 . S
C136 C135 1.392 . S
C136 C137 1.392 . S
C137 H107 0.949 . S
C137 C132 1.382 . S
C137 C136 1.392 . S
H138 C157 0.949 . S
H139 C158 0.950 . S
H140 C160 0.950 . S
H141 C161 0.950 . S
H142 C163 0.950 . S
H143 C166 0.950 . S
H144 C167 0.950 . S
H145 C169 0.951 . S
H146 C170 0.949 . S
H147 C172 0.949 . S
H148 C173 0.950 . S
H149 C175 0.950 . S
H150 C176 0.950 . S
H151 C178 0.950 . S
H152 C181 0.950 . S
H153 C182 0.950 . S
H154 C184 0.951 . S
H155 C185 0.949 . S
C156 C157 1.376 . S
C156 C161 1.386 . S
C156 C162 1.483 . S
C157 H138 0.949 . S
C157 C156 1.376 . S
C157 C158 1.397 . S
C158 H139 0.950 . S
C158 C157 1.397 . S
C158 C159 1.391 . S
C159 C158 1.391 . S
C159 C160 1.405 . S
C160 H140 0.950 . S
C160 C159 1.405 . S
C160 C161 1.367 . S
C161 H141 0.950 . S
C161 C156 1.386 . S
C161 C160 1.367 . S
C162 C156 1.483 . S
C162 C163 1.382 . S
C162 C164 1.403 . S
C163 H142 0.950 . S
C163 C162 1.382 . S
C163 C179 1.411 . S
C164 C162 1.403 . S
C164 C165 1.489 . S
C164 C178 1.411 . S
C165 C164 1.489 . S
C165 C166 1.383 . S
C165 C170 1.382 . S
C166 H143 0.950 . S
C166 C165 1.383 . S
C166 C167 1.395 . S
C167 H144 0.950 . S
C167 C166 1.395 . S
C167 C168 1.288 . S
C168 C167 1.288 . S
C168 C169 1.392 . S
C169 H145 0.951 . S
C169 C168 1.392 . S
C169 C170 1.392 . S
C170 H146 0.949 . S
C170 C165 1.382 . S
C170 C169 1.392 . S
C171 C172 1.376 . S
C171 C176 1.386 . S
C171 C177 1.483 . S
C172 H147 0.949 . S
C172 C171 1.376 . S
C172 C173 1.397 . S
C173 H148 0.950 . S
C173 C172 1.397 . S
C173 C174 1.391 . S
C174 C173 1.391 . S
C174 C175 1.405 . S
C175 H149 0.950 . S
C175 C174 1.405 . S
C175 C176 1.367 . S
C176 H150 0.950 . S
C176 C171 1.386 . S
C176 C175 1.367 . S
C177 C171 1.483 . S
C177 C178 1.382 . S
C177 C179 1.403 . S
C178 H151 0.950 . S
C178 C164 1.411 . S
C178 C177 1.382 . S
C179 C163 1.411 . S
C179 C177 1.403 . S
C179 C180 1.489 . S
C180 C179 1.489 . S
C180 C181 1.383 . S
C180 C185 1.382 . S
C181 H152 0.950 . S
C181 C180 1.383 . S
C181 C182 1.395 . S
C182 H153 0.950 . S
C182 C181 1.395 . S
C182 C183 1.288 . S
C183 C182 1.288 . S
C183 C184 1.392 . S
C184 H154 0.951 . S
C184 C183 1.392 . S
C184 C185 1.392 . S
C185 H155 0.949 . S
C185 C180 1.382 . S
C185 C184 1.392 . S
H186 C192 0.930 . S
H187 C195 0.930 . S
H188 C196 0.930 . S
H189 C197 0.930 1_655 S
H190 C200 0.930 . S
H191 C201 0.930 . S
C192 H186 0.930 . S
C192 C193 1.355 . S
C192 C194 1.415 . S
C193 C192 1.355 . S
C193 C195 1.419 1_455 S
C194 C192 1.415 . S
C194 C199 1.425 . S
C194 C201 1.409 . S
C195 H187 0.930 . S
C195 C193 1.419 1_655 S
C195 C196 1.362 . S
C196 H188 0.930 . S
C196 C195 1.362 . S
C196 C199 1.409 1_655 S
C197 H189 0.930 1_455 S
C197 C198 1.355 . S
C197 C199 1.415 . S
C198 C197 1.355 . S
C198 C200 1.419 . S
C199 C194 1.425 . S
C199 C196 1.409 1_455 S
C199 C197 1.415 . S
C200 H190 0.930 . S
C200 C198 1.419 . S
C200 C201 1.362 . S
C201 H191 0.930 . S
C201 C194 1.409 . S
C201 C200 1.362 . S
H202 C208 0.930 . S
H203 C211 0.930 . S
H204 C212 0.930 . S
H205 C213 0.930 . S
H206 C216 0.930 . S
H207 C217 0.930 . S
C208 H202 0.930 . S
C208 C209 1.355 . S
C208 C210 1.415 . S
C209 C208 1.355 . S
C209 C211 1.419 . S
C210 C208 1.415 . S
C210 C215 1.425 . S
C210 C217 1.409 . S
C211 H203 0.930 . S
C211 C209 1.419 . S
C211 C212 1.362 . S
C212 H204 0.930 . S
C212 C211 1.362 . S
C212 C215 1.409 . S
C213 H205 0.930 . S
C213 C214 1.355 . S
C213 C215 1.415 . S
C214 C213 1.355 . S
C214 C216 1.419 . S
C215 C210 1.425 . S
C215 C212 1.409 . S
C215 C213 1.415 . S
C216 H206 0.930 . S
C216 C214 1.419 . S
C216 C217 1.362 . S
C217 H207 0.930 . S
C217 C210 1.409 . S
C217 C216 1.362 . S
H218 C224 0.930 . S
H219 C227 0.930 . S
H220 C228 0.930 . S
H221 C229 0.930 . S
H222 C232 0.930 . S
H223 C233 0.930 . S
C224 H218 0.930 . S
C224 C225 1.355 . S
C224 C226 1.415 . S
C225 C224 1.355 . S
C225 C227 1.419 . S
C226 C224 1.415 . S
C226 C231 1.425 . S
C226 C233 1.409 . S
C227 H219 0.930 . S
C227 C225 1.419 . S
C227 C228 1.362 . S
C228 H220 0.930 . S
C228 C227 1.362 . S
C228 C231 1.409 . S
C229 H221 0.930 . S
C229 C230 1.355 . S
C229 C231 1.415 . S
C230 C229 1.355 . S
C230 C232 1.419 . S
C231 C226 1.425 . S
C231 C228 1.409 . S
C231 C229 1.415 . S
C232 H222 0.930 . S
C232 C230 1.419 . S
C232 C233 1.362 . S
C233 H223 0.930 . S
C233 C226 1.409 . S
C233 C232 1.362 . S
H234 C240 0.930 . S
H235 C243 0.930 . S
H236 C244 0.930 . S
H237 C245 0.930 1_655 S
H238 C248 0.930 . S
H239 C249 0.930 . S
C240 H234 0.930 . S
C240 C241 1.355 . S
C240 C242 1.415 . S
C241 C240 1.355 . S
C241 C243 1.419 1_455 S
C242 C240 1.415 . S
C242 C247 1.425 . S
C242 C249 1.409 . S
C243 H235 0.930 . S
C243 C241 1.419 1_655 S
C243 C244 1.362 . S
C244 H236 0.930 . S
C244 C243 1.362 . S
C244 C247 1.409 1_655 S
C245 H237 0.930 1_455 S
C245 C246 1.355 . S
C245 C247 1.415 . S
C246 C245 1.355 . S
C246 C248 1.419 . S
C247 C242 1.425 . S
C247 C244 1.409 1_455 S
C247 C245 1.415 . S
C248 H238 0.930 . S
C248 C246 1.419 . S
C248 C249 1.362 . S
C249 H239 0.930 . S
C249 C242 1.409 . S
C249 C248 1.362 . S
H250 C256 0.930 . S
H251 C259 0.930 . S
H252 C260 0.930 . S
H253 C261 0.930 . S
H254 C264 0.930 . S
H255 C265 0.930 . S
C256 H250 0.930 . S
C256 C257 1.355 . S
C256 C258 1.415 . S
C257 C256 1.355 . S
C257 C259 1.419 . S
C258 C256 1.415 . S
C258 C263 1.425 . S
C258 C265 1.409 . S
C259 H251 0.930 . S
C259 C257 1.419 . S
C259 C260 1.362 . S
C260 H252 0.930 . S
C260 C259 1.362 . S
C260 C263 1.409 . S
C261 H253 0.930 . S
C261 C262 1.355 . S
C261 C263 1.415 . S
C262 C261 1.355 . S
C262 C264 1.419 . S
C263 C258 1.425 . S
C263 C260 1.409 . S
C263 C261 1.415 . S
C264 H254 0.930 . S
C264 C262 1.419 . S
C264 C265 1.362 . S
C265 H255 0.930 . S
C265 C258 1.409 . S
C265 C264 1.362 . S
H266 C272 0.930 . S
H267 C275 0.930 . S
H268 C276 0.930 . S
H269 C277 0.930 . S
H270 C280 0.930 . S
H271 C281 0.930 . S
C272 H266 0.930 . S
C272 C273 1.355 . S
C272 C274 1.415 . S
C273 C272 1.355 . S
C273 C275 1.419 . S
C274 C272 1.415 . S
C274 C279 1.425 . S
C274 C281 1.409 . S
C275 H267 0.930 . S
C275 C273 1.419 . S
C275 C276 1.362 . S
C276 H268 0.930 . S
C276 C275 1.362 . S
C276 C279 1.409 . S
C277 H269 0.930 . S
C277 C278 1.355 . S
C277 C279 1.415 . S
C278 C277 1.355 . S
C278 C280 1.419 . S
C279 C274 1.425 . S
C279 C276 1.409 . S
C279 C277 1.415 . S
C280 H270 0.930 . S
C280 C278 1.419 . S
C280 C281 1.362 . S
C281 H271 0.930 . S
C281 C274 1.409 . S
C281 C280 1.362 . S
H282 C288 0.930 . S
H283 C291 0.930 . S
H284 C292 0.930 . S
H285 C293 0.930 . S
H286 C296 0.930 . S
H287 C297 0.930 . S
C288 H282 0.930 . S
C288 C289 1.355 . S
C288 C290 1.415 . S
C289 C288 1.355 . S
C289 C291 1.419 . S
C290 C288 1.415 . S
C290 C295 1.425 . S
C290 C297 1.409 . S
C291 H283 0.930 . S
C291 C289 1.419 . S
C291 C292 1.362 . S
C292 H284 0.930 . S
C292 C291 1.362 . S
C292 C295 1.409 . S
C293 H285 0.930 . S
C293 C294 1.355 . S
C293 C295 1.415 . S
C294 C293 1.355 . S
C294 C296 1.419 . S
C295 C290 1.425 . S
C295 C292 1.409 . S
C295 C293 1.415 . S
C296 H286 0.930 . S
C296 C294 1.419 . S
C296 C297 1.362 . S
C297 H287 0.930 . S
C297 C290 1.409 . S
C297 C296 1.362 . S
H298 C304 0.930 . S
H299 C307 0.930 . S
H300 C308 0.930 . S
H301 C309 0.930 . S
H302 C312 0.930 . S
H303 C313 0.930 . S
C304 H298 0.930 . S
C304 C305 1.321 1_556 S
C304 C306 1.415 . S
C305 C304 1.321 1_554 S
C305 C307 1.438 . S
C306 C304 1.415 . S
C306 C311 1.425 . S
C306 C313 1.409 . S
C307 H299 0.930 . S
C307 C305 1.438 . S
C307 C308 1.362 . S
C308 H300 0.930 . S
C308 C307 1.362 . S
C308 C311 1.409 1_554 S
C309 H301 0.930 . S
C309 C310 1.355 . S
C309 C311 1.415 . S
C310 C309 1.355 . S
C310 C312 1.419 . S
C311 C306 1.425 . S
C311 C308 1.409 1_556 S
C311 C309 1.415 . S
C312 H302 0.930 . S
C312 C310 1.419 . S
C312 C313 1.362 . S
C313 H303 0.930 . S
C313 C306 1.409 . S
C313 C312 1.362 . S
H314 C320 0.930 . S
H315 C323 0.930 . S
H316 C324 0.930 . S
H317 C325 0.930 1_655 S
H318 C328 0.930 . S
H319 C329 0.930 . S
C320 H314 0.930 . S
C320 C321 1.355 . S
C320 C322 1.415 . S
C321 C320 1.355 . S
C321 C323 1.419 1_455 S
C322 C320 1.415 . S
C322 C327 1.425 . S
C322 C329 1.409 . S
C323 H315 0.930 . S
C323 C321 1.419 1_655 S
C323 C324 1.362 . S
C324 H316 0.930 . S
C324 C323 1.362 . S
C324 C327 1.409 1_655 S
C325 H317 0.930 1_455 S
C325 C326 1.355 . S
C325 C327 1.415 . S
C326 C325 1.355 . S
C326 C328 1.419 . S
C327 C322 1.425 . S
C327 C324 1.409 1_455 S
C327 C325 1.415 . S
C328 H318 0.930 . S
C328 C326 1.419 . S
C328 C329 1.362 . S
C329 H319 0.930 . S
C329 C322 1.409 . S
C329 C328 1.362 . S
H330 C336 0.930 . S
H331 C339 0.930 . S
H332 C340 0.930 . S
H333 C341 0.930 . S
H334 C344 0.930 . S
H335 C345 0.930 . S
C336 H330 0.930 . S
C336 C337 1.355 . S
C336 C338 1.415 . S
C337 C336 1.355 . S
C337 C339 1.419 . S
C338 C336 1.415 . S
C338 C343 1.425 . S
C338 C345 1.409 . S
C339 H331 0.930 . S
C339 C337 1.419 . S
C339 C340 1.362 . S
C340 H332 0.930 . S
C340 C339 1.362 . S
C340 C343 1.409 . S
C341 H333 0.930 . S
C341 C342 1.355 . S
C341 C343 1.415 . S
C342 C341 1.355 . S
C342 C344 1.419 . S
C343 C338 1.425 . S
C343 C340 1.409 . S
C343 C341 1.415 . S
C344 H334 0.930 . S
C344 C342 1.419 . S
C344 C345 1.362 . S
C345 H335 0.930 . S
C345 C338 1.409 . S
C345 C344 1.362 . S
H346 C352 0.930 . S
H347 C355 0.930 . S
H348 C356 0.930 . S
H349 C357 0.930 . S
H350 C360 0.930 . S
H351 C361 0.930 . S
C352 H346 0.930 . S
C352 C353 1.355 . S
C352 C354 1.415 . S
C353 C352 1.355 . S
C353 C355 1.419 1_556 S
C354 C352 1.415 . S
C354 C359 1.425 . S
C354 C361 1.409 . S
C355 H347 0.930 . S
C355 C353 1.419 1_554 S
C355 C356 1.362 1_554 S
C356 H348 0.930 . S
C356 C355 1.362 1_556 S
C356 C359 1.409 . S
C357 H349 0.930 . S
C357 C358 1.355 . S
C357 C359 1.415 . S
C358 C357 1.355 . S
C358 C360 1.419 . S
C359 C354 1.425 . S
C359 C356 1.409 . S
C359 C357 1.415 . S
C360 H350 0.930 . S
C360 C358 1.419 . S
C360 C361 1.362 . S
C361 H351 0.930 . S
C361 C354 1.409 . S
C361 C360 1.362 . S
H362 C368 0.930 . S
H363 C371 0.930 . S
H364 C372 0.930 . S
H365 C373 0.930 1_655 S
H366 C376 0.930 . S
H367 C377 0.930 . S
C368 H362 0.930 . S
C368 C369 1.355 . S
C368 C370 1.415 . S
C369 C368 1.355 . S
C369 C371 1.419 1_455 S
C370 C368 1.415 . S
C370 C375 1.425 . S
C370 C377 1.409 . S
C371 H363 0.930 . S
C371 C369 1.419 1_655 S
C371 C372 1.362 . S
C372 H364 0.930 . S
C372 C371 1.362 . S
C372 C375 1.409 1_655 S
C373 H365 0.930 1_455 S
C373 C374 1.355 . S
C373 C375 1.415 . S
C374 C373 1.355 . S
C374 C376 1.419 . S
C375 C370 1.425 . S
C375 C372 1.409 1_455 S
C375 C373 1.415 . S
C376 H366 0.930 . S
C376 C374 1.419 . S
C376 C377 1.362 . S
C377 H367 0.930 . S
C377 C370 1.409 . S
C377 C376 1.362 . S
C198 C63 1.466 . S
C193 C0 1.463 . S
C209 C25 1.507 . S
C214 C111 1.504 . S
C225 C33 1.529 . S
C230 C183 1.512 . S
C241 C11 1.464 . S
C246 C87 1.444 . S
C262 C135 1.476 . S
C257 C14 1.499 . S
C273 C37 1.530 . S
C278 C159 1.518 . S
C294 C120 1.488 . S
C289 C28 1.497 . S
C305 C9 1.541 . S
C310 C174 1.527 . S
C326 C78 1.554 . S
C321 C19 1.555 . S
C342 C126 1.497 . S
C337 C39 1.505 . S
C358 C168 1.531 . S
C353 C5 1.515 1_556 S
C369 C23 1.543 . S
C374 C72 1.566 . S
