# Generated by pormake.
# Topology pth, (4,4)-cn, num edge types: 1
# Building blocks:
#     Node 0, Type 0, BuildingBlock: AZAVOO_clean_sbu_0, # of connection points: 4
#     Node 1, Type 0, BuildingBlock: AZAVOO_clean_sbu_0, # of connection points: 4
#     Node 2, Type 0, BuildingBlock: AZAVOO_clean_sbu_0, # of connection points: 4
#     Node 3, Type 1, BuildingBlock: MIFKUJ_clean_linker_1, # of connection points: 4
#     Node 4, Type 1, BuildingBlock: MIFKUJ_clean_linker_1, # of connection points: 4
#     Node 5, Type 1, BuildingBlock: MIFKUJ_clean_linker_1, # of connection points: 4
#     Edge 6, Type (0, 1), BuildingBlock: AJUNOK_clean_linker_0, # of connection points: 2
#     Edge 7, Type (0, 1), BuildingBlock: AJUNOK_clean_linker_0, # of connection points: 2
#     Edge 8, Type (0, 1), BuildingBlock: AJUNOK_clean_linker_0, # of connection points: 2
#     Edge 9, Type (0, 1), BuildingBlock: AJUNOK_clean_linker_0, # of connection points: 2
#     Edge 10, Type (0, 1), BuildingBlock: AJUNOK_clean_linker_0, # of connection points: 2
#     Edge 11, Type (0, 1), BuildingBlock: AJUNOK_clean_linker_0, # of connection points: 2
#     Edge 12, Type (0, 1), BuildingBlock: AJUNOK_clean_linker_0, # of connection points: 2
#     Edge 13, Type (0, 1), BuildingBlock: AJUNOK_clean_linker_0, # of connection points: 2
#     Edge 14, Type (0, 1), BuildingBlock: AJUNOK_clean_linker_0, # of connection points: 2
#     Edge 15, Type (0, 1), BuildingBlock: AJUNOK_clean_linker_0, # of connection points: 2
#     Edge 16, Type (0, 1), BuildingBlock: AJUNOK_clean_linker_0, # of connection points: 2
#     Edge 17, Type (0, 1), BuildingBlock: AJUNOK_clean_linker_0, # of connection points: 2
# Relax obj value: 0.066
# Max RMSD: 0.214
# Mean RMSD: 0.113
data_MOF--net-pth--node1-AZAVOO_clean_sbu_0--node2-MIFKUJ_clean_linker_1--edge1-AJUNOK_clean_linker_0
_symmetry_space_group_name_H-M    P1
_symmetry_Int_Tables_number       1
_symmetry_cell_setting            triclinic
loop_
_symmetry_equiv_pos_as_xyz
'x, y, z'
_cell_length_a     23.040001
_cell_length_b     23.51932
_cell_length_c     49.232253
_cell_angle_alpha  91.205375
_cell_angle_beta   92.80582
_cell_angle_gamma 122.31836
loop_
_atom_site_label
_atom_site_type_symbol
_atom_site_fract_x
_atom_site_fract_y
_atom_site_fract_z
_atom_type_partial_charge
Mg0 Mg 0.09498 0.06365 0.02931 0.0
O1 O -0.0006 0.99073 0.00163 0.0
O2 O 0.97936 0.04922 0.97162 0.0
Mg3 Mg 0.06192 0.16102 0.98094 0.0
C4 C 0.96434 0.99349 0.98143 0.0
C5 C 0.10819 0.98368 0.0768 0.0
O6 O 0.16816 0.0406 0.08102 0.0
O7 O 0.03625 0.09899 0.05307 0.0
O8 O 0.02383 0.16219 0.02302 0.0
O9 O 0.16292 0.05805 -0.0003 0.0
O10 O 0.13168 0.13203 -0.00132 0.0
C11 C 0.01653 0.13868 0.04662 0.0
C12 C 0.16321 0.10673 0.98778 0.0
O13 O 0.06684 0.97847 0.05746 0.0
Mg14 Mg 0.9426 0.00063 0.35217 0.0
O15 O 0.03663 0.02693 0.38057 0.0
O16 O 0.06133 0.11465 0.40819 0.0
Mg17 Mg 0.98041 0.14122 0.39917 0.0
C18 C 0.07388 0.0708 0.39981 0.0
C19 C 0.97261 0.89212 0.33207 0.0
O20 O 0.96637 0.8795 0.358 0.0
O21 O 0.00608 0.09412 0.32814 0.0
O22 O 0.01827 0.17487 0.35695 0.0
O23 O 0.86955 0.92933 0.38174 0.0
O24 O 0.90901 0.03797 0.38195 0.0
C25 C 0.02605 0.15545 0.33375 0.0
C26 C 0.87271 0.98133 0.39291 0.0
O27 O 0.96528 0.93863 0.32352 0.0
Mg28 Mg 0.97752 0.9872 0.68319 0.0
O29 O 0.05836 0.07789 0.71082 0.0
O30 O 0.00221 0.105 0.73878 0.0
Mg31 Mg 0.8866 0.02678 0.73147 0.0
C32 C 0.05797 0.11538 0.72983 0.0
C33 C 0.11568 0.01658 0.66054 0.0
O34 O 0.13026 0.01378 0.68642 0.0
O35 O 0.9473 0.05091 0.65977 0.0
O36 O 0.88401 0.0643 0.68907 0.0
O37 O 0.97731 0.91606 0.71297 0.0
O38 O 0.90884 0.95475 0.71336 0.0
C39 C 0.90808 0.07164 0.66567 0.0
C40 C 0.92898 0.91849 0.72426 0.0
O41 O 0.05763 0.00759 0.65324 0.0
H42 H 0.10611 0.48091 0.13644 0.0
H43 H 0.09107 0.38735 0.1073 0.0
H44 H 0.9095 0.24778 0.14744 0.0
H45 H 0.92362 0.34138 0.17641 0.0
H46 H 0.03098 0.53232 0.14137 0.0
H47 H 0.11691 0.43505 0.20005 0.0
H48 H 0.12955 0.3567 0.2282 0.0
H49 H 0.95669 0.32039 0.27231 0.0
H50 H 0.94233 0.39647 0.24376 0.0
H51 H 0.92283 0.55172 0.23936 0.0
H52 H 0.91404 0.63106 0.26902 0.0
H53 H 0.10735 0.79447 0.24346 0.0
H54 H 0.11633 0.71461 0.21382 0.0
H55 H 0.02198 0.52255 0.24165 0.0
H56 H 0.94197 0.62657 0.17573 0.0
H57 H 0.95779 0.72503 0.15275 0.0
H58 H 0.15054 0.76457 0.12523 0.0
H59 H 0.13545 0.66738 0.14873 0.0
C60 C 0.01634 0.41818 0.15875 0.0
C61 C 0.06303 0.43029 0.139 0.0
C62 C 0.05466 0.37703 0.1225 0.0
C63 C -0.00056 0.31098 0.12545 0.0
C64 C 0.95266 0.29849 0.1451 0.0
C65 C 0.96093 0.35182 0.16161 0.0
C66 C 0.02452 0.47494 0.17597 0.0
C67 C 0.0296 0.53032 0.16334 0.0
C68 C 0.0242 0.47333 0.20465 0.0
C69 C 0.02844 0.42152 0.21973 0.0
C70 C 0.08061 0.40894 0.21532 0.0
C71 C 0.08813 0.3646 0.2314 0.0
C72 C 0.04423 0.33326 0.25231 0.0
C73 C 0.9912 0.34449 0.25628 0.0
C74 C 0.98315 0.38797 0.24007 0.0
C75 C 0.01986 0.62729 0.22417 0.0
C76 C 0.96334 0.60464 0.24009 0.0
C77 C 0.95838 0.64991 0.25704 0.0
C78 C 0.00979 0.71883 0.25839 0.0
C79 C 0.06647 0.7417 0.24244 0.0
C80 C 0.07163 0.69619 0.22554 0.0
C81 C 0.0247 0.57763 0.20696 0.0
C82 C 0.02286 0.52396 0.21965 0.0
C83 C 0.03038 0.58205 0.1785 0.0
C84 C 0.03778 0.63997 0.16405 0.0
C85 C 0.9877 0.65662 0.16481 0.0
C86 C -0.00349 0.71247 0.15154 0.0
C87 C 0.05528 0.75216 0.13715 0.0
C88 C 0.10502 0.73507 0.13633 0.0
C89 C 0.0962 0.67935 0.14955 0.0
H90 H 0.64402 0.11463 0.4649 0.0
H91 H 0.72365 0.09266 0.44245 0.0
H92 H 0.64515 0.90866 0.48428 0.0
H93 H 0.56662 0.93141 0.50723 0.0
H94 H 0.49728 0.03556 0.46556 0.0
H95 H 0.69729 0.13577 0.52449 0.0
H96 H 0.79566 0.15608 0.55455 0.0
H97 H 0.65622 0.0022 0.60602 0.0
H98 H 0.55824 0.97967 0.57557 0.0
H99 H 0.37575 0.94898 0.56407 0.0
H100 H 0.29343 0.94581 0.59438 0.0
H101 H 0.32611 0.12987 0.56272 0.0
H102 H 0.40889 0.13282 0.53217 0.0
H103 H 0.51256 0.05372 0.56652 0.0
H104 H 0.31112 0.95211 0.49879 0.0
H105 H 0.22122 0.95962 0.4734 0.0
H106 H 0.37742 0.14546 0.44101 0.0
H107 H 0.46701 0.13824 0.4666 0.0
C108 C 0.59987 0.02481 0.48775 0.0
C109 C 0.64386 0.06954 0.46916 0.0
C110 C 0.68936 0.0572 0.45654 0.0
C111 C 0.69039 -0.00069 0.46194 0.0
C112 C 0.64517 0.95366 0.47999 0.0
C113 C 0.60057 0.96665 0.493 0.0
C114 C 0.55418 0.03919 0.50237 0.0
C115 C 0.50089 0.04004 0.48764 0.0
C116 C 0.56017 0.0471 0.53106 0.0
C117 C 0.62022 0.05579 0.54766 0.0
C118 C 0.68789 0.10513 0.54184 0.0
C119 C 0.74397 0.11723 0.55905 0.0
C120 C 0.73279 0.08108 0.58253 0.0
C121 C 0.66554 0.03097 0.58806 0.0
C122 C 0.60975 0.01818 0.57071 0.0
C123 C 0.39817 0.04097 0.54583 0.0
C124 C 0.36469 0.98832 0.56343 0.0
C125 C 0.31796 0.98668 0.58079 0.0
C126 C 0.30369 0.03767 0.58092 0.0
C127 C 0.33575 0.08957 0.56278 0.0
C128 C 0.38288 0.09129 0.54535 0.0
C129 C 0.45295 0.04495 0.52992 0.0
C130 C 0.50882 0.04875 0.54444 0.0
C131 C 0.45027 0.04333 0.50114 0.0
C132 C 0.39562 0.04506 0.4848 0.0
C133 C 0.32592 0.99444 0.48622 0.0
C134 C 0.27475 -0.00143 0.47165 0.0
C135 C 0.29256 0.05353 0.45556 0.0
C136 C 0.3624 0.10318 0.45363 0.0
C137 C 0.41349 0.09884 0.46806 0.0
H138 H 0.48646 0.38953 0.79487 0.0
H139 H 0.38343 0.31181 0.76533 0.0
H140 H 0.25758 0.33325 0.82175 0.0
H141 H 0.36037 0.4149 0.84969 0.0
H142 H 0.54602 0.51472 0.80798 0.0
H143 H 0.46396 0.32503 0.8645 0.0
H144 H 0.37822 0.22749 0.88861 0.0
H145 H 0.32873 0.35549 0.9322 0.0
H146 H 0.41519 0.4529 0.90872 0.0
H147 H 0.58312 0.63198 0.91475 0.0
H148 H 0.66902 0.73331 0.94238 0.0
H149 H 0.83146 0.73481 0.9018 0.0
H150 H 0.74584 0.63141 0.87501 0.0
H151 H 0.55402 0.50798 0.90866 0.0
H152 H 0.64502 0.69951 0.84981 0.0
H153 H 0.73525 0.79216 0.82561 0.0
H154 H 0.77134 0.6519 0.78357 0.0
H155 H 0.68379 0.56033 0.8088 0.0
C156 C 0.43142 0.40743 0.82484 0.0
C157 C 0.43669 0.37789 0.80074 0.0
C158 C 0.37772 0.33318 0.78394 0.0
C159 C 0.31226 0.317 0.79094 0.0
C160 C 0.30719 0.34595 0.81527 0.0
C161 C 0.36606 0.39153 0.8317 0.0
C162 C 0.49403 0.45764 0.84217 0.0
C163 C 0.54837 0.51241 0.82996 0.0
C164 C 0.4978 0.45506 0.87084 0.0
C165 C 0.4457 0.39599 0.88488 0.0
C166 C 0.4345 0.3319 0.87923 0.0
C167 C 0.38584 0.27648 0.89291 0.0
C168 C 0.34708 0.28451 0.91194 0.0
C169 C 0.35793 0.34842 0.91739 0.0
C170 C 0.40735 0.40389 0.90416 0.0
C171 C 0.65784 0.62451 0.89246 0.0
C172 C 0.63724 0.65327 0.91209 0.0
C173 C 0.68612 0.71117 0.92779 0.0
C174 C 0.75637 0.74163 0.92395 0.0
C175 C 0.77733 0.71219 0.90486 0.0
C176 C 0.7285 0.65343 0.88954 0.0
C177 C 0.60474 0.56608 0.87452 0.0
C178 C 0.55228 0.50962 0.88664 0.0
C179 C 0.60376 0.56649 0.84572 0.0
C180 C 0.65834 0.62319 0.83134 0.0
C181 C 0.67335 0.68904 0.83577 0.0
C182 C 0.7247 0.74182 0.82189 0.0
C183 C 0.76123 0.72951 0.80304 0.0
C184 C 0.74573 0.66343 0.79857 0.0
C185 C 0.69493 0.61087 0.81265 0.0
C186 C 0.02554 0.17815 0.09508 0.0
C187 C -0.00335 0.16867 0.06819 0.0
C188 C 0.02284 0.2216 0.11423 0.0
C189 C 0.99037 0.256 0.10718 0.0
H190 H 0.05479 0.1559 0.10085 0.0
H191 H 0.04936 0.23107 0.13418 0.0
S192 S 0.89738 0.24058 0.04128 0.0
N193 N 0.92742 0.19137 0.03675 0.0
N194 N 0.92244 0.27269 0.07294 0.0
C195 C 0.95673 0.24304 0.08123 0.0
C196 C 0.95967 0.19924 0.06169 0.0
C197 C 0.75841 0.92787 0.41218 0.0
C198 C 0.82968 0.97567 0.41513 0.0
C199 C 0.71332 0.93337 0.4286 0.0
C200 C 0.73846 0.98684 0.44833 0.0
H201 H 0.73692 0.88911 0.3958 0.0
H202 H 0.65836 0.89814 0.42475 0.0
S203 S 0.92137 0.11566 0.46796 0.0
N204 N 0.92383 0.07071 0.44232 0.0
N205 N 0.83898 0.08211 0.47266 0.0
C206 C 0.8098 0.0313 0.45299 0.0
C207 C 0.85556 0.02538 0.43649 0.0
C208 C 0.83138 0.87017 0.7543 0.0
C209 C 0.89339 0.87718 0.74735 0.0
C210 C 0.79064 0.82439 0.7732 0.0
C211 C 0.81031 0.7839 0.78607 0.0
H212 H 0.81219 0.89797 0.74417 0.0
H213 H 0.74172 0.8185 0.77675 0.0
S214 S 0.9728 0.7898 0.77828 0.0
N215 N 0.97589 0.84445 0.75693 0.0
N216 N 0.89958 0.75902 0.79296 0.0
C217 C 0.87414 0.79315 0.78061 0.0
C218 C 0.91564 0.83968 0.76117 0.0
C219 C 0.14087 0.92937 0.11243 0.0
C220 C 0.09116 0.92497 0.09318 0.0
C221 C 0.12829 0.87362 0.12688 0.0
C222 C 0.06533 0.81136 0.12285 0.0
H223 H 0.19059 0.9759 0.11607 0.0
H224 H 0.16842 0.87918 0.14124 0.0
S225 S 0.91714 0.77286 0.07547 0.0
N226 N 0.97536 0.85293 0.07144 0.0
N227 N 0.95233 0.74832 0.0986 0.0
C228 C 0.0145 0.80641 0.1042 0.0
C229 C 0.02727 0.8631 0.08936 0.0
C230 C 0.13505 0.01102 0.41004 0.0
C231 C 0.13166 0.06881 0.41358 0.0
C232 C 0.18708 0.00636 0.42371 0.0
C233 C 0.23828 0.05961 0.44115 0.0
H234 H 0.09661 0.96842 0.39692 0.0
H235 H 0.18749 0.96086 0.4205 0.0
S236 S 0.25377 0.22195 0.45758 0.0
N237 N 0.1851 0.18074 0.43598 0.0
N238 N 0.28263 0.17156 0.46152 0.0
C239 C 0.23612 0.11783 0.44475 0.0
C240 C 0.1829 0.12252 0.43104 0.0
C241 C 0.17911 0.16017 0.74761 0.0
C242 C 0.12431 0.16993 0.74323 0.0
C243 C 0.24021 0.20852 0.76256 0.0
C244 C 0.24917 0.26887 0.77335 0.0
H245 H 0.17378 0.11369 0.74033 0.0
H246 H 0.2798 0.19749 0.7664 0.0
S247 S 0.12491 0.32277 0.76378 0.0
N248 N 0.0849 0.24653 0.7487 0.0
N249 N 0.20069 0.33875 0.77575 0.0
C250 C 0.19599 0.28064 0.7678 0.0
C251 C 0.13337 0.23088 0.75301 0.0
C252 C 0.8781 0.07251 0.6162 0.0
C253 C 0.87873 0.09258 0.64348 0.0
C254 C 0.83427 0.07383 0.59577 0.0
C255 C 0.79022 0.0956 0.60201 0.0
H256 H 0.90746 0.05065 0.61089 0.0
H257 H 0.83132 0.05334 0.57546 0.0
S258 S 0.78259 0.1669 0.66848 0.0
N259 N 0.83947 0.14553 0.67436 0.0
N260 N 0.7567 0.14693 0.63589 0.0
C261 C 0.79517 0.12193 0.62841 0.0
C262 C 0.83979 0.12093 0.64917 0.0
C263 C 0.89541 0.92554 0.93912 0.0
C264 C 0.9081 0.92963 0.96759 0.0
C265 C 0.8465 0.86429 0.92514 0.0
C266 C 0.80764 0.80543 0.93919 0.0
H267 H 0.92486 0.96954 0.92745 0.0
H268 H 0.83885 0.86293 0.90318 0.0
S269 S 0.81844 0.78947 0.01366 0.0
N270 N 0.87649 0.86949 0.00933 0.0
N271 N 0.7832 0.75482 0.98296 0.0
C272 C 0.81843 0.80897 0.96763 0.0
C273 C 0.86909 0.87097 0.98185 0.0
C274 C 0.98221 0.79287 0.322 0.0
C275 C 0.98544 0.85085 0.31299 0.0
C276 C 0.99107 0.75113 0.30428 0.0
C277 C 0.00418 0.76597 0.27691 0.0
H278 H 0.97168 0.77879 0.34283 0.0
H279 H 0.98747 0.70669 0.31208 0.0
S280 S 0.0193 0.91215 0.24302 0.0
N281 N 0.00415 0.92152 0.27472 0.0
N282 N 0.02064 0.84266 0.24153 0.0
C283 C 0.00888 0.82428 0.26766 0.0
C284 C -0.00055 0.86674 0.28565 0.0
C285 C 0.22327 0.02446 0.64769 0.0
C286 C 0.16481 0.02645 0.63995 0.0
C287 C 0.26844 0.02945 0.62851 0.0
C288 C 0.25734 0.03717 0.60086 0.0
H289 H 0.23373 0.01765 0.66866 0.0
H290 H 0.31229 0.02675 0.63536 0.0
S291 S 0.11401 0.04818 0.56994 0.0
N292 N 0.09977 0.03912 0.60259 0.0
N293 N 0.18499 0.04821 0.56664 0.0
C294 C 0.20035 0.0411 0.59286 0.0
C295 C 0.15397 0.0357 0.61236 0.0
C296 C 0.27382 0.15668 0.96571 0.0
C297 C 0.20459 0.13787 0.96436 0.0
C298 C 0.31932 0.20098 0.94731 0.0
C299 C 0.29662 0.2274 0.92709 0.0
H300 H 0.29408 0.14102 0.98223 0.0
H301 H 0.3733 0.21799 0.94999 0.0
S302 S 0.11761 0.18192 0.91129 0.0
N303 N 0.11331 0.13953 0.93825 0.0
N304 N 0.19928 0.22442 0.90422 0.0
C305 C 0.22653 0.20447 0.92411 0.0
C306 C 0.18027 0.15914 0.94264 0.0
C307 C 0.07015 0.27137 0.31874 0.0
C308 C 0.04791 0.20387 0.31182 0.0
C309 C 0.0731 0.31434 0.29895 0.0
C310 C 0.0552 0.29199 0.27144 0.0
H311 H 0.08111 0.29015 0.33984 0.0
H312 H 0.08605 0.36441 0.30536 0.0
S313 S 0.00545 0.1249 0.24159 0.0
N314 N 0.01624 0.11987 0.27469 0.0
N315 N 0.02287 0.20192 0.23749 0.0
C316 C 0.03934 0.22725 0.26373 0.0
C317 C 0.03571 0.1829 0.28393 0.0
loop_
_geom_bond_atom_site_label_1
_geom_bond_atom_site_label_2
_geom_bond_distance
_geom_bond_site_symmetry_2
_ccdc_geom_bond_type
Mg0 O1 2.028 1_445 S
Mg0 O7 1.986 . S
Mg0 O9 2.114 . S
Mg0 O10 2.251 . S
Mg0 O13 2.010 1_545 S
O1 Mg0 2.028 1_665 S
O1 C4 1.250 1_554 S
O2 Mg3 2.028 1_655 S
O2 C4 1.248 1_545 S
Mg3 O2 2.028 1_455 S
Mg3 O8 2.032 1_556 S
Mg3 O10 2.079 1_556 S
C4 O1 1.250 1_556 S
C4 O2 1.248 1_565 S
C5 O6 1.264 . S
C5 O13 1.249 . S
O6 C5 1.264 . S
O7 Mg0 1.986 . S
O7 C11 1.246 . S
O8 Mg3 2.032 1_554 S
O8 C11 1.259 . S
O9 Mg0 2.114 . S
O9 C12 1.252 1_554 S
O10 Mg0 2.251 . S
O10 Mg3 2.079 1_554 S
O10 C12 1.273 1_554 S
C11 O7 1.246 . S
C11 O8 1.259 . S
C12 O9 1.252 1_556 S
C12 O10 1.273 1_556 S
O13 Mg0 2.010 1_565 S
O13 C5 1.249 . S
Mg14 O15 2.028 1_655 S
Mg14 O21 1.986 1_655 S
Mg14 O23 2.114 1_545 S
Mg14 O24 2.251 . S
Mg14 O27 2.010 1_545 S
O15 Mg14 2.028 1_455 S
O15 C18 1.250 . S
O16 Mg17 2.028 . S
O16 C18 1.248 . S
Mg17 O16 2.028 . S
Mg17 O22 2.032 . S
Mg17 O24 2.079 1_455 S
C18 O15 1.250 . S
C18 O16 1.248 . S
C19 O20 1.264 . S
C19 O27 1.249 . S
O20 C19 1.264 . S
O21 Mg14 1.986 1_455 S
O21 C25 1.246 . S
O22 Mg17 2.032 . S
O22 C25 1.259 . S
O23 Mg14 2.114 1_565 S
O23 C26 1.252 . S
O24 Mg14 2.251 . S
O24 Mg17 2.079 1_655 S
O24 C26 1.273 1_545 S
C25 O21 1.246 . S
C25 O22 1.259 . S
C26 O23 1.252 . S
C26 O24 1.273 1_565 S
O27 Mg14 2.010 1_565 S
O27 C19 1.249 . S
Mg28 O29 2.028 1_565 S
Mg28 O35 1.986 1_465 S
Mg28 O37 2.114 1_455 S
Mg28 O38 2.251 1_455 S
Mg28 O41 2.010 . S
O29 Mg28 2.028 1_545 S
O29 C32 1.250 . S
O30 Mg31 2.028 1_455 S
O30 C32 1.248 . S
Mg31 O30 2.028 1_655 S
Mg31 O36 2.032 . S
Mg31 O38 2.079 1_545 S
C32 O29 1.250 . S
C32 O30 1.248 . S
C33 O34 1.264 . S
C33 O41 1.249 . S
O34 C33 1.264 . S
O35 Mg28 1.986 1_645 S
O35 C39 1.246 . S
O36 Mg31 2.032 . S
O36 C39 1.259 . S
O37 Mg28 2.114 1_655 S
O37 C40 1.252 . S
O38 Mg28 2.251 1_655 S
O38 Mg31 2.079 1_565 S
O38 C40 1.273 . S
C39 O35 1.246 . S
C39 O36 1.259 . S
C40 O37 1.252 . S
C40 O38 1.273 . S
O41 Mg28 2.010 . S
O41 C33 1.249 . S
H42 C61 0.949 . S
H43 C62 0.950 . S
H44 C64 0.950 . S
H45 C65 0.950 . S
H46 C67 0.950 . S
H47 C70 0.950 . S
H48 C71 0.950 . S
H49 C73 0.951 . S
H50 C74 0.949 . S
H51 C76 0.949 . S
H52 C77 0.950 . S
H53 C79 0.950 . S
H54 C80 0.950 . S
H55 C82 0.950 . S
H56 C85 0.950 . S
H57 C86 0.950 . S
H58 C88 0.951 . S
H59 C89 0.949 . S
C60 C61 1.376 . S
C60 C65 1.386 1_455 S
C60 C66 1.483 . S
C61 H42 0.949 . S
C61 C60 1.376 . S
C61 C62 1.397 . S
C62 H43 0.950 . S
C62 C61 1.397 . S
C62 C63 1.391 . S
C63 C62 1.391 . S
C63 C64 1.405 1_455 S
C64 H44 0.950 . S
C64 C63 1.405 1_655 S
C64 C65 1.367 . S
C65 H45 0.950 . S
C65 C60 1.386 1_655 S
C65 C64 1.367 . S
C66 C60 1.483 . S
C66 C67 1.382 . S
C66 C68 1.403 . S
C67 H46 0.950 . S
C67 C66 1.382 . S
C67 C83 1.411 . S
C68 C66 1.403 . S
C68 C69 1.489 . S
C68 C82 1.411 . S
C69 C68 1.489 . S
C69 C70 1.383 . S
C69 C74 1.382 1_455 S
C70 H47 0.950 . S
C70 C69 1.383 . S
C70 C71 1.395 . S
C71 H48 0.950 . S
C71 C70 1.395 . S
C71 C72 1.288 . S
C72 C71 1.288 . S
C72 C73 1.392 1_455 S
C73 H49 0.951 . S
C73 C72 1.392 1_655 S
C73 C74 1.392 . S
C74 H50 0.949 . S
C74 C69 1.382 1_655 S
C74 C73 1.392 . S
C75 C76 1.376 1_455 S
C75 C80 1.386 . S
C75 C81 1.483 . S
C76 H51 0.949 . S
C76 C75 1.376 1_655 S
C76 C77 1.397 . S
C77 H52 0.950 . S
C77 C76 1.397 . S
C77 C78 1.391 1_655 S
C78 C77 1.391 1_455 S
C78 C79 1.405 . S
C79 H53 0.950 . S
C79 C78 1.405 . S
C79 C80 1.367 . S
C80 H54 0.950 . S
C80 C75 1.386 . S
C80 C79 1.367 . S
C81 C75 1.483 . S
C81 C82 1.382 . S
C81 C83 1.403 . S
C82 H55 0.950 . S
C82 C68 1.411 . S
C82 C81 1.382 . S
C83 C67 1.411 . S
C83 C81 1.403 . S
C83 C84 1.489 . S
C84 C83 1.489 . S
C84 C85 1.383 1_455 S
C84 C89 1.382 . S
C85 H56 0.950 . S
C85 C84 1.383 1_655 S
C85 C86 1.395 . S
C86 H57 0.950 . S
C86 C85 1.395 . S
C86 C87 1.288 1_655 S
C87 C86 1.288 1_455 S
C87 C88 1.392 . S
C88 H58 0.951 . S
C88 C87 1.392 . S
C88 C89 1.392 . S
C89 H59 0.949 . S
C89 C84 1.382 . S
C89 C88 1.392 . S
H90 C109 0.949 . S
H91 C110 0.950 . S
H92 C112 0.947 1_565 S
H93 C113 0.950 1_565 S
H94 C115 0.950 . S
H95 C118 0.950 . S
H96 C119 0.950 . S
H97 C121 0.951 . S
H98 C122 0.949 . S
H99 C124 0.949 . S
H100 C125 0.950 . S
H101 C127 0.950 . S
H102 C128 0.950 . S
H103 C130 0.950 . S
H104 C133 0.950 1_565 S
H105 C134 0.950 1_565 S
H106 C136 0.951 . S
H107 C137 0.949 . S
C108 C109 1.376 . S
C108 C113 1.386 . S
C108 C114 1.483 . S
C109 H90 0.949 . S
C109 C108 1.376 . S
C109 C110 1.397 . S
C110 H91 0.950 . S
C110 C109 1.397 . S
C110 C111 1.391 . S
C111 C110 1.391 . S
C111 C112 1.407 . S
C112 H92 0.947 1_545 S
C112 C111 1.407 . S
C112 C113 1.368 . S
C113 H93 0.950 1_545 S
C113 C108 1.386 . S
C113 C112 1.368 . S
C114 C108 1.483 . S
C114 C115 1.382 . S
C114 C116 1.403 . S
C115 H94 0.950 . S
C115 C114 1.382 . S
C115 C131 1.411 . S
C116 C114 1.403 . S
C116 C117 1.489 . S
C116 C130 1.411 . S
C117 C116 1.489 . S
C117 C118 1.383 . S
C117 C122 1.382 1_545 S
C118 H95 0.950 . S
C118 C117 1.383 . S
C118 C119 1.395 . S
C119 H96 0.950 . S
C119 C118 1.395 . S
C119 C120 1.288 . S
C120 C119 1.288 . S
C120 C121 1.392 1_545 S
C121 H97 0.951 . S
C121 C120 1.392 1_565 S
C121 C122 1.392 . S
C122 H98 0.949 . S
C122 C117 1.382 1_565 S
C122 C121 1.392 . S
C123 C124 1.376 1_545 S
C123 C128 1.386 . S
C123 C129 1.483 . S
C124 H99 0.949 . S
C124 C123 1.376 1_565 S
C124 C125 1.397 . S
C125 H100 0.950 . S
C125 C124 1.397 . S
C125 C126 1.391 1_565 S
C126 C125 1.391 1_545 S
C126 C127 1.405 . S
C127 H101 0.950 . S
C127 C126 1.405 . S
C127 C128 1.367 . S
C128 H102 0.950 . S
C128 C123 1.386 . S
C128 C127 1.367 . S
C129 C123 1.483 . S
C129 C130 1.382 . S
C129 C131 1.403 . S
C130 H103 0.950 . S
C130 C116 1.411 . S
C130 C129 1.382 . S
C131 C115 1.411 . S
C131 C129 1.403 . S
C131 C132 1.489 . S
C132 C131 1.489 . S
C132 C133 1.383 . S
C132 C137 1.382 . S
C133 H104 0.950 1_545 S
C133 C132 1.383 . S
C133 C134 1.395 . S
C134 H105 0.950 1_545 S
C134 C133 1.395 . S
C134 C135 1.288 . S
C135 C134 1.288 . S
C135 C136 1.392 . S
C136 H106 0.951 . S
C136 C135 1.392 . S
C136 C137 1.392 . S
C137 H107 0.949 . S
C137 C132 1.382 . S
C137 C136 1.392 . S
H138 C157 0.949 . S
H139 C158 0.950 . S
H140 C160 0.950 . S
H141 C161 0.950 . S
H142 C163 0.950 . S
H143 C166 0.950 . S
H144 C167 0.950 . S
H145 C169 0.951 . S
H146 C170 0.949 . S
H147 C172 0.949 . S
H148 C173 0.950 . S
H149 C175 0.950 . S
H150 C176 0.950 . S
H151 C178 0.950 . S
H152 C181 0.950 . S
H153 C182 0.950 . S
H154 C184 0.951 . S
H155 C185 0.949 . S
C156 C157 1.376 . S
C156 C161 1.386 . S
C156 C162 1.483 . S
C157 H138 0.949 . S
C157 C156 1.376 . S
C157 C158 1.397 . S
C158 H139 0.950 . S
C158 C157 1.397 . S
C158 C159 1.391 . S
C159 C158 1.391 . S
C159 C160 1.405 . S
C160 H140 0.950 . S
C160 C159 1.405 . S
C160 C161 1.367 . S
C161 H141 0.950 . S
C161 C156 1.386 . S
C161 C160 1.367 . S
C162 C156 1.483 . S
C162 C163 1.382 . S
C162 C164 1.403 . S
C163 H142 0.950 . S
C163 C162 1.382 . S
C163 C179 1.411 . S
C164 C162 1.403 . S
C164 C165 1.489 . S
C164 C178 1.411 . S
C165 C164 1.489 . S
C165 C166 1.383 . S
C165 C170 1.382 . S
C166 H143 0.950 . S
C166 C165 1.383 . S
C166 C167 1.395 . S
C167 H144 0.950 . S
C167 C166 1.395 . S
C167 C168 1.288 . S
C168 C167 1.288 . S
C168 C169 1.392 . S
C169 H145 0.951 . S
C169 C168 1.392 . S
C169 C170 1.392 . S
C170 H146 0.949 . S
C170 C165 1.382 . S
C170 C169 1.392 . S
C171 C172 1.376 . S
C171 C176 1.386 . S
C171 C177 1.483 . S
C172 H147 0.949 . S
C172 C171 1.376 . S
C172 C173 1.397 . S
C173 H148 0.950 . S
C173 C172 1.397 . S
C173 C174 1.391 . S
C174 C173 1.391 . S
C174 C175 1.405 . S
C175 H149 0.950 . S
C175 C174 1.405 . S
C175 C176 1.367 . S
C176 H150 0.950 . S
C176 C171 1.386 . S
C176 C175 1.367 . S
C177 C171 1.483 . S
C177 C178 1.382 . S
C177 C179 1.403 . S
C178 H151 0.950 . S
C178 C164 1.411 . S
C178 C177 1.382 . S
C179 C163 1.411 . S
C179 C177 1.403 . S
C179 C180 1.489 . S
C180 C179 1.489 . S
C180 C181 1.383 . S
C180 C185 1.382 . S
C181 H152 0.950 . S
C181 C180 1.383 . S
C181 C182 1.395 . S
C182 H153 0.950 . S
C182 C181 1.395 . S
C182 C183 1.288 . S
C183 C182 1.288 . S
C183 C184 1.392 . S
C184 H154 0.951 . S
C184 C183 1.392 . S
C184 C185 1.392 . S
C185 H155 0.949 . S
C185 C180 1.382 . S
C185 C184 1.392 . S
C186 C187 1.369 . S
C186 C188 1.419 . S
C186 H190 0.930 . S
C187 C186 1.369 . S
C187 C196 1.429 1_455 S
C188 C186 1.419 . S
C188 C189 1.363 . S
C188 H191 0.929 . S
C189 C188 1.363 . S
C189 C195 1.428 1_455 S
H190 C186 0.930 . S
H191 C188 0.929 . S
S192 N193 1.613 . S
S192 N194 1.610 . S
N193 S192 1.613 . S
N193 C196 1.350 . S
N194 S192 1.610 . S
N194 C195 1.351 . S
C195 C189 1.428 1_655 S
C195 N194 1.351 . S
C195 C196 1.434 . S
C196 C187 1.429 1_655 S
C196 N193 1.350 . S
C196 C195 1.434 . S
C197 C198 1.369 1_565 S
C197 C199 1.419 . S
C197 H201 0.930 . S
C198 C197 1.369 1_545 S
C198 C207 1.429 . S
C199 C197 1.419 . S
C199 C200 1.363 1_565 S
C199 H202 0.929 . S
C200 C199 1.363 1_545 S
C200 C206 1.428 . S
H201 C197 0.930 . S
H202 C199 0.929 . S
S203 N204 1.613 . S
S203 N205 1.610 . S
N204 S203 1.613 . S
N204 C207 1.350 . S
N205 S203 1.610 . S
N205 C206 1.351 . S
C206 C200 1.428 . S
C206 N205 1.351 . S
C206 C207 1.434 . S
C207 C198 1.429 . S
C207 N204 1.350 . S
C207 C206 1.434 . S
C208 C209 1.369 . S
C208 C210 1.419 . S
C208 H212 0.930 . S
C209 C208 1.369 . S
C209 C218 1.429 . S
C210 C208 1.419 . S
C210 C211 1.363 . S
C210 H213 0.929 . S
C211 C210 1.363 . S
C211 C217 1.428 . S
H212 C208 0.930 . S
H213 C210 0.929 . S
S214 N215 1.613 . S
S214 N216 1.610 . S
N215 S214 1.613 . S
N215 C218 1.350 . S
N216 S214 1.610 . S
N216 C217 1.351 . S
C217 C211 1.428 . S
C217 N216 1.351 . S
C217 C218 1.434 . S
C218 C209 1.429 . S
C218 N215 1.350 . S
C218 C217 1.434 . S
C219 C220 1.369 . S
C219 C221 1.419 . S
C219 H223 0.930 . S
C220 C219 1.369 . S
C220 C229 1.429 . S
C221 C219 1.419 . S
C221 C222 1.363 . S
C221 H224 0.929 . S
C222 C221 1.363 . S
C222 C228 1.428 . S
H223 C219 0.930 . S
H224 C221 0.929 . S
S225 N226 1.613 1_655 S
S225 N227 1.610 . S
N226 S225 1.613 1_455 S
N226 C229 1.350 . S
N227 S225 1.610 . S
N227 C228 1.351 1_655 S
C228 C222 1.428 . S
C228 N227 1.351 1_455 S
C228 C229 1.434 . S
C229 C220 1.429 . S
C229 N226 1.350 . S
C229 C228 1.434 . S
C230 C231 1.363 1_565 S
C230 C232 1.422 . S
C230 H234 0.933 . S
C231 C230 1.363 1_545 S
C231 C240 1.429 . S
C232 C230 1.422 . S
C232 C233 1.363 1_565 S
C232 H235 0.929 . S
C233 C232 1.363 1_545 S
C233 C239 1.428 . S
H234 C230 0.933 . S
H235 C232 0.929 . S
S236 N237 1.613 . S
S236 N238 1.610 . S
N237 S236 1.613 . S
N237 C240 1.350 . S
N238 S236 1.610 . S
N238 C239 1.351 . S
C239 C233 1.428 . S
C239 N238 1.351 . S
C239 C240 1.434 . S
C240 C231 1.429 . S
C240 N237 1.350 . S
C240 C239 1.434 . S
C241 C242 1.369 . S
C241 C243 1.419 . S
C241 H245 0.930 . S
C242 C241 1.369 . S
C242 C251 1.429 . S
C243 C241 1.419 . S
C243 C244 1.363 . S
C243 H246 0.929 . S
C244 C243 1.363 . S
C244 C250 1.428 . S
H245 C241 0.930 . S
H246 C243 0.929 . S
S247 N248 1.613 . S
S247 N249 1.610 . S
N248 S247 1.613 . S
N248 C251 1.350 . S
N249 S247 1.610 . S
N249 C250 1.351 . S
C250 C244 1.428 . S
C250 N249 1.351 . S
C250 C251 1.434 . S
C251 C242 1.429 . S
C251 N248 1.350 . S
C251 C250 1.434 . S
C252 C253 1.369 . S
C252 C254 1.419 . S
C252 H256 0.930 . S
C253 C252 1.369 . S
C253 C262 1.429 . S
C254 C252 1.419 . S
C254 C255 1.363 . S
C254 H257 0.929 1_545 S
C255 C254 1.363 . S
C255 C261 1.428 . S
H256 C252 0.930 . S
H257 C254 0.929 1_565 S
S258 N259 1.613 . S
S258 N260 1.610 . S
N259 S258 1.613 . S
N259 C262 1.350 . S
N260 S258 1.610 . S
N260 C261 1.351 . S
C261 C255 1.428 . S
C261 N260 1.351 . S
C261 C262 1.434 . S
C262 C253 1.429 . S
C262 N259 1.350 . S
C262 C261 1.434 . S
C263 C264 1.369 . S
C263 C265 1.419 . S
C263 H267 0.930 . S
C264 C263 1.369 . S
C264 C273 1.429 . S
C265 C263 1.419 . S
C265 C266 1.363 . S
C265 H268 0.929 . S
C266 C265 1.363 . S
C266 C272 1.428 . S
H267 C263 0.930 . S
H268 C265 0.929 . S
S269 N270 1.613 . S
S269 N271 1.610 1_554 S
N270 S269 1.613 . S
N270 C273 1.350 1_554 S
N271 S269 1.610 1_556 S
N271 C272 1.351 . S
C272 C266 1.428 . S
C272 N271 1.351 . S
C272 C273 1.434 . S
C273 C264 1.429 . S
C273 N270 1.350 1_556 S
C273 C272 1.434 . S
C274 C275 1.369 . S
C274 C276 1.419 . S
C274 H278 0.930 . S
C275 C274 1.369 . S
C275 C284 1.429 . S
C276 C274 1.419 . S
C276 C277 1.363 1_655 S
C276 H279 0.929 . S
C277 C276 1.363 1_455 S
C277 C283 1.428 . S
H278 C274 0.930 . S
H279 C276 0.929 . S
S280 N281 1.613 1_455 S
S280 N282 1.610 . S
N281 S280 1.613 1_655 S
N281 C284 1.350 . S
N282 S280 1.610 . S
N282 C283 1.351 . S
C283 C277 1.428 . S
C283 N282 1.351 . S
C283 C284 1.434 1_455 S
C284 C275 1.429 . S
C284 N281 1.350 . S
C284 C283 1.434 1_655 S
C285 C286 1.369 1_565 S
C285 C287 1.419 . S
C285 H289 0.930 . S
C286 C285 1.369 1_545 S
C286 C295 1.429 . S
C287 C285 1.419 . S
C287 C288 1.363 1_565 S
C287 H290 0.929 . S
C288 C287 1.363 1_545 S
C288 C294 1.428 . S
H289 C285 0.930 . S
H290 C287 0.929 . S
S291 N292 1.613 . S
S291 N293 1.610 . S
N292 S291 1.613 . S
N292 C295 1.350 . S
N293 S291 1.610 . S
N293 C294 1.351 . S
C294 C288 1.428 . S
C294 N293 1.351 . S
C294 C295 1.434 . S
C295 C286 1.429 . S
C295 N292 1.350 . S
C295 C294 1.434 . S
C296 C297 1.369 . S
C296 C298 1.419 . S
C296 H300 0.903 1_556 S
C297 C296 1.369 . S
C297 C306 1.429 . S
C298 C296 1.419 . S
C298 C299 1.363 . S
C298 H301 0.929 . S
C299 C298 1.363 . S
C299 C305 1.428 . S
H300 C296 0.903 1_554 S
H301 C298 0.929 . S
S302 N303 1.613 . S
S302 N304 1.610 . S
N303 S302 1.613 . S
N303 C306 1.350 . S
N304 S302 1.610 . S
N304 C305 1.351 . S
C305 C299 1.428 . S
C305 N304 1.351 . S
C305 C306 1.434 . S
C306 C297 1.429 . S
C306 N303 1.350 . S
C306 C305 1.434 . S
C307 C308 1.369 . S
C307 C309 1.419 . S
C307 H311 0.930 1_455 S
C308 C307 1.369 . S
C308 C317 1.429 . S
C309 C307 1.419 . S
C309 C310 1.363 . S
C309 H312 0.929 1_455 S
C310 C309 1.363 . S
C310 C316 1.428 . S
H311 C307 0.930 1_655 S
H312 C309 0.929 1_655 S
S313 N314 1.613 . S
S313 N315 1.610 . S
N314 S313 1.613 . S
N314 C317 1.350 . S
N315 S313 1.610 . S
N315 C316 1.351 . S
C316 C310 1.428 . S
C316 N315 1.351 . S
C316 C317 1.434 . S
C317 C308 1.429 . S
C317 N314 1.350 . S
C317 C316 1.434 . S
C189 C63 1.441 . S
C187 C11 1.414 . S
C198 C26 1.568 1_545 S
C200 C111 1.596 . S
C209 C40 1.461 . S
C211 C183 1.453 . S
C220 C5 1.306 . S
C222 C87 1.425 . S
C233 C135 1.551 . S
C231 C18 1.547 . S
C242 C32 1.437 . S
C244 C159 1.453 . S
C255 C120 1.326 . S
C253 C39 1.314 . S
C264 C4 1.451 . S
C266 C174 1.459 . S
C277 C78 1.448 . S
C275 C19 1.309 . S
C288 C126 1.380 . S
C286 C33 1.248 1_545 S
C299 C168 1.491 . S
C297 C12 1.469 . S
C308 C25 1.427 . S
C310 C72 1.454 . S
