# Generated by pormake.
# Topology zzz, (3,6)-cn, num edge types: 1
# Building blocks:
#     Node 0, Type 0, BuildingBlock: INOVEN_clean_linker_0, # of connection points: 3
#     Node 1, Type 0, BuildingBlock: INOVEN_clean_linker_0, # of connection points: 3
#     Node 2, Type 0, BuildingBlock: INOVEN_clean_linker_0, # of connection points: 3
#     Node 3, Type 0, BuildingBlock: INOVEN_clean_linker_0, # of connection points: 3
#     Node 4, Type 0, BuildingBlock: INOVEN_clean_linker_0, # of connection points: 3
#     Node 5, Type 0, BuildingBlock: INOVEN_clean_linker_0, # of connection points: 3
#     Node 6, Type 0, BuildingBlock: INOVEN_clean_linker_0, # of connection points: 3
#     Node 7, Type 0, BuildingBlock: INOVEN_clean_linker_0, # of connection points: 3
#     Node 8, Type 1, BuildingBlock: VOLQOD_clean_sbu_1, # of connection points: 6
#     Node 9, Type 1, BuildingBlock: VOLQOD_clean_sbu_1, # of connection points: 6
#     Node 10, Type 1, BuildingBlock: VOLQOD_clean_sbu_1, # of connection points: 6
#     Node 11, Type 1, BuildingBlock: VOLQOD_clean_sbu_1, # of connection points: 6
#     Edge 12, Type (0, 1), BuildingBlock: AJUNOK_clean_linker_0, # of connection points: 2
#     Edge 13, Type (0, 1), BuildingBlock: AJUNOK_clean_linker_0, # of connection points: 2
#     Edge 14, Type (0, 1), BuildingBlock: AJUNOK_clean_linker_0, # of connection points: 2
#     Edge 15, Type (0, 1), BuildingBlock: AJUNOK_clean_linker_0, # of connection points: 2
#     Edge 16, Type (0, 1), BuildingBlock: AJUNOK_clean_linker_0, # of connection points: 2
#     Edge 17, Type (0, 1), BuildingBlock: AJUNOK_clean_linker_0, # of connection points: 2
#     Edge 18, Type (0, 1), BuildingBlock: AJUNOK_clean_linker_0, # of connection points: 2
#     Edge 19, Type (0, 1), BuildingBlock: AJUNOK_clean_linker_0, # of connection points: 2
#     Edge 20, Type (0, 1), BuildingBlock: AJUNOK_clean_linker_0, # of connection points: 2
#     Edge 21, Type (0, 1), BuildingBlock: AJUNOK_clean_linker_0, # of connection points: 2
#     Edge 22, Type (0, 1), BuildingBlock: AJUNOK_clean_linker_0, # of connection points: 2
#     Edge 23, Type (0, 1), BuildingBlock: AJUNOK_clean_linker_0, # of connection points: 2
#     Edge 24, Type (0, 1), BuildingBlock: AJUNOK_clean_linker_0, # of connection points: 2
#     Edge 25, Type (0, 1), BuildingBlock: AJUNOK_clean_linker_0, # of connection points: 2
#     Edge 26, Type (0, 1), BuildingBlock: AJUNOK_clean_linker_0, # of connection points: 2
#     Edge 27, Type (0, 1), BuildingBlock: AJUNOK_clean_linker_0, # of connection points: 2
#     Edge 28, Type (0, 1), BuildingBlock: AJUNOK_clean_linker_0, # of connection points: 2
#     Edge 29, Type (0, 1), BuildingBlock: AJUNOK_clean_linker_0, # of connection points: 2
#     Edge 30, Type (0, 1), BuildingBlock: AJUNOK_clean_linker_0, # of connection points: 2
#     Edge 31, Type (0, 1), BuildingBlock: AJUNOK_clean_linker_0, # of connection points: 2
#     Edge 32, Type (0, 1), BuildingBlock: AJUNOK_clean_linker_0, # of connection points: 2
#     Edge 33, Type (0, 1), BuildingBlock: AJUNOK_clean_linker_0, # of connection points: 2
#     Edge 34, Type (0, 1), BuildingBlock: AJUNOK_clean_linker_0, # of connection points: 2
#     Edge 35, Type (0, 1), BuildingBlock: AJUNOK_clean_linker_0, # of connection points: 2
# Relax obj value: 0.187
# Max RMSD: 0.232
# Mean RMSD: 0.110
data_MOF--net-zzz--node1-VOLQOD_clean_sbu_1--node2-INOVEN_clean_linker_0--edge1-AJUNOK_clean_linker_0
_symmetry_space_group_name_H-M    P1
_symmetry_Int_Tables_number       1
_symmetry_cell_setting            triclinic
loop_
_symmetry_equiv_pos_as_xyz
'x, y, z'
_cell_length_a     37.200042
_cell_length_b     37.234791
_cell_length_c     13.241935
_cell_angle_alpha  90.117363
_cell_angle_beta   89.992131
_cell_angle_gamma 90.557276
loop_
_atom_site_label
_atom_site_type_symbol
_atom_site_fract_x
_atom_site_fract_y
_atom_site_fract_z
_atom_type_partial_charge
H0 H 0.77346 0.54319 0.29468 0.0
H1 H 0.8821 0.50859 0.2521 0.0
H2 H 0.80827 0.50378 0.00361 0.0
N3 N 0.75023 0.52518 0.10902 0.0
N4 N 0.74428 0.53303 0.01893 0.0
C5 C 0.79407 0.53194 0.24662 0.0
C6 C 0.82928 0.528 0.28317 0.0
C7 C 0.78603 0.52225 0.14583 0.0
C8 C 0.81377 0.50959 0.0823 0.0
C9 C 0.84865 0.50498 0.12052 0.0
C10 C 0.85531 0.51259 0.22173 0.0
H11 H 0.02186 0.75901 0.29477 0.0
H12 H 0.06741 0.86536 0.29215 0.0
H13 H 0.06445 0.80341 0.01903 0.0
N14 N 0.04146 0.74129 0.10748 0.0
N15 N 0.0458 0.73676 0.01478 0.0
C16 C 0.03634 0.7802 0.25572 0.0
C17 C 0.04323 0.81306 0.30463 0.0
C18 C 0.0468 0.77544 0.15428 0.0
C19 C 0.06039 0.8053 0.09985 0.0
C20 C 0.06624 0.83836 0.1491 0.0
C21 C 0.06208 0.84008 0.25363 0.0
H22 H 0.76818 1.00567 0.28493 0.0
H23 H 0.6664 0.05851 0.2841 0.0
H24 H 0.7302 0.05528 0.01303 0.0
N25 N 0.78881 0.02671 0.1017 0.0
N26 N 0.7927 0.02484 0.00815 0.0
C27 C 0.74852 0.02204 0.2466 0.0
C28 C 0.71595 0.03018 0.29423 0.0
C29 C 0.75479 0.03341 0.14686 0.0
C30 C 0.72685 0.05029 0.09292 0.0
C31 C 0.69423 0.05886 0.14144 0.0
C32 C 0.69104 0.05177 0.24485 0.0
H33 H 0.52462 0.75839 0.26011 0.0
H34 H 0.48316 0.65098 0.23387 0.0
H35 H 0.44082 0.73417 0.0455 0.0
N36 N 0.48449 0.78451 0.10196 0.0
N37 N 0.51231 0.80351 0.10237 0.0
C38 C 0.50536 0.73964 0.22778 0.0
C39 C 0.50439 0.7037 0.26053 0.0
C40 C 0.48186 0.75055 0.15003 0.0
C41 C 0.45765 0.72568 0.1077 0.0
C42 C 0.45885 0.68918 0.13368 0.0
C43 C 0.48111 0.67905 0.21354 0.0
H44 H 0.27463 0.50617 0.06458 0.0
H45 H 0.17574 0.56392 0.04413 0.0
H46 H 0.23092 0.55707 0.32837 0.0
N47 N 0.29134 0.52682 0.25128 0.0
N48 N 0.29506 0.5323 0.34382 0.0
C49 C 0.25474 0.52347 0.09867 0.0
C50 C 0.22405 0.5331 0.04397 0.0
C51 C 0.25884 0.53482 0.19941 0.0
C52 C 0.22987 0.5522 0.24779 0.0
C53 C 0.19867 0.56103 0.19293 0.0
C54 C 0.19875 0.55569 0.08842 0.0
H55 H 0.06078 0.25798 0.07241 0.0
H56 H 1.00534 0.15635 0.06627 0.0
H57 H 1.00337 0.22063 0.33531 0.0
N58 N 0.03626 0.27876 0.25387 0.0
N59 N 0.02164 0.28615 0.33617 0.0
C60 C 0.04364 0.23825 0.10898 0.0
C61 C 0.03521 0.20577 0.05988 0.0
C62 C 0.02989 0.24487 0.20645 0.0
C63 C 1.01053 0.21727 0.25669 0.0
C64 C 1.00236 0.18473 0.20728 0.0
C65 C 1.01235 0.1809 0.10643 0.0
H66 H 0.27157 0.03278 0.07551 0.0
H67 H 0.37528 0.98341 0.07664 0.0
H68 H 0.30931 0.97879 0.34218 0.0
N69 N 0.25064 1.00845 0.25645 0.0
N70 N 0.24525 1.00063 0.3469 0.0
C71 C 0.29159 0.01671 0.11332 0.0
C72 C 0.32475 1.01017 0.06656 0.0
C73 C 0.28491 1.00321 0.21096 0.0
C74 C 0.31289 0.98578 0.26354 0.0
C75 C 0.34606 0.97928 0.21616 0.0
C76 C 0.35012 0.98888 0.11499 0.0
H77 H 0.49297 0.26378 0.06694 0.0
H78 H 0.54527 0.36682 0.08445 0.0
H79 H 0.5436 0.29822 0.344 0.0
N80 N 0.51492 0.2404 0.24837 0.0
N81 N 0.52167 0.23407 0.33904 0.0
C82 C 0.50894 0.28323 0.1087 0.0
C83 C 0.51708 0.31687 0.06606 0.0
C84 C 0.52092 0.2753 0.20723 0.0
C85 C 0.53798 0.30262 0.26484 0.0
C86 C 0.54594 0.33618 0.22159 0.0
C87 C 0.53844 0.34131 0.11949 0.0
O88 O 0.10597 0.01449 0.64082 0.0
Zn89 Zn 0.06536 0.01969 0.74059 0.0
O90 O 0.01847 1.00994 0.67453 0.0
Zn91 Zn 0.98768 0.05146 0.68943 0.0
Zn92 Zn 0.02608 0.99885 0.53195 0.0
Zn93 Zn 0.99279 0.96981 0.73639 0.0
O94 O 0.94337 0.04168 0.7736 0.0
O95 O 0.94297 0.98228 0.78875 0.0
O96 O 0.0684 0.0714 0.79485 0.0
O97 O 1.01472 0.09185 0.75263 0.0
O98 O 0.97375 0.07097 0.55549 0.0
O99 O 1.00093 0.03528 0.44568 0.0
O100 O 1.01109 0.94754 0.49976 0.0
O101 O 0.07399 0.98315 0.85219 0.0
O102 O 0.99113 0.92624 0.64629 0.0
O103 O 0.02154 0.9536 0.85219 0.0
C104 C 0.10754 1.0081 0.54642 0.0
C105 C 0.92848 0.0127 0.80363 0.0
C106 C 0.98183 0.06272 0.46523 0.0
C107 C 0.04589 0.09701 0.78929 0.0
C108 C 0.99902 0.9218 0.55378 0.0
C109 C 0.05282 0.95919 0.88772 0.0
O110 O 0.07905 1.00241 0.49514 0.0
O111 O 0.51118 0.09692 0.63625 0.0
Zn112 Zn 0.5096 0.05809 0.74316 0.0
O113 O 0.5216 1.01082 0.68258 0.0
Zn114 Zn 0.48175 0.97719 0.69992 0.0
Zn115 Zn 0.53153 0.01643 0.53912 0.0
Zn116 Zn 0.56342 0.98948 0.74691 0.0
O117 O 0.49389 0.93599 0.7919 0.0
O118 O 0.5518 0.94379 0.82474 0.0
O119 O 0.45842 0.05754 0.80202 0.0
O120 O 0.44057 1.00231 0.76216 0.0
O121 O 0.46166 0.95961 0.56877 0.0
O122 O 0.49493 0.98931 0.4575 0.0
O123 O 0.58208 1.00124 0.50525 0.0
O124 O 0.54682 0.07218 0.85057 0.0
O125 O 0.60506 0.98307 0.65126 0.0
O126 O 0.58206 0.02415 0.846 0.0
C127 C 0.51827 0.09711 0.54204 0.0
C128 C 0.52248 0.92631 0.83676 0.0
C129 C 0.46869 0.96833 0.47815 0.0
C130 C 0.43409 0.03311 0.7989 0.0
C131 C 0.60818 0.9893 0.55727 0.0
C132 C 0.57448 0.05506 0.87965 0.0
O133 O 0.52679 0.06835 0.49603 0.0
O134 O 0.43162 0.50729 0.64607 0.0
Zn135 Zn 0.47249 0.50502 0.7481 0.0
O136 O 0.51915 0.5174 0.68236 0.0
Zn137 Zn 0.55377 0.4791 0.7046 0.0
Zn138 Zn 0.5116 0.52406 0.53862 0.0
Zn139 Zn 0.54021 0.56164 0.73457 0.0
O140 O 0.59682 0.49526 0.78815 0.0
O141 O 0.58784 0.55387 0.80599 0.0
O142 O 0.47328 0.45386 0.80771 0.0
O143 O 0.52961 0.43848 0.77486 0.0
O144 O 0.56924 0.45596 0.57459 0.0
O145 O 0.5344 0.48391 0.46476 0.0
O146 O 0.53127 0.57142 0.48822 0.0
O147 O 0.45957 0.54323 0.85288 0.0
O148 O 0.54709 0.60005 0.62852 0.0
O149 O 0.50473 0.58206 0.82845 0.0
C150 C 0.43018 0.51534 0.55262 0.0
C151 C 0.6066 0.52596 0.82162 0.0
C152 C 0.55673 0.45934 0.48578 0.0
C153 C 0.49856 0.43082 0.80913 0.0
C154 C 0.54323 0.59933 0.53317 0.0
C155 C 0.47492 0.57349 0.86926 0.0
O156 O 0.45869 0.52259 0.50305 0.0
O157 O 0.96563 0.562 0.55267 0.0
Zn158 Zn 0.01797 0.56196 0.60405 0.0
O159 O 0.02989 0.51436 0.66181 0.0
Zn160 Zn 0.04131 0.51967 0.80449 0.0
Zn161 Zn 0.98942 0.48136 0.64749 0.0
Zn162 Zn 0.07056 0.49219 0.59428 0.0
O163 O 0.09046 0.50033 0.83785 0.0
O164 O 0.11367 0.48938 0.68625 0.0
O165 O 0.02352 0.60151 0.71006 0.0
O166 O 0.04243 0.57196 0.84476 0.0
O167 O 1.00176 0.49867 0.88937 0.0
O168 O 0.96608 0.47126 0.77904 0.0
O169 O 1.00216 0.43493 0.57867 0.0
O170 O 0.05319 0.57413 0.48977 0.0
O171 O 0.05924 0.44273 0.53485 0.0
O172 O 0.08601 0.52429 0.48427 0.0
C173 C 0.94232 0.53664 0.54582 0.0
C174 C 0.11692 0.49191 0.78162 0.0
C175 C 0.97311 0.48115 0.86862 0.0
C176 C 0.03399 0.60124 0.80185 0.0
C177 C 0.03068 0.42353 0.53676 0.0
C178 C 0.0785 0.55545 0.45219 0.0
O179 O 0.94968 0.50488 0.57356 0.0
C180 C 0.17935 1.01011 0.34033 0.0
C181 C 0.21121 1.00398 0.39479 0.0
C182 C 0.14592 0.01136 0.3899 0.0
C183 C 0.14323 1.00695 0.49551 0.0
H184 H 0.18014 0.01342 0.25915 0.0
H185 H 0.12205 0.01595 0.3451 0.0
S186 S 0.21937 0.98986 0.67011 0.0
N187 N 0.23826 0.99308 0.5576 0.0
N188 N 0.17594 0.99591 0.65169 0.0
C189 C 0.17515 1.00107 0.55012 0.0
C190 C 0.20894 0.99943 0.49938 0.0
C191 C 0.52045 0.19746 0.48968 0.0
C192 C 0.51827 0.19955 0.3842 0.0
C193 C 0.51974 0.16436 0.53978 0.0
C194 C 0.51744 0.13175 0.48602 0.0
H195 H 0.5231 0.22187 0.53385 0.0
H196 H 0.52183 0.1644 0.62138 0.0
S197 S 0.51053 0.12242 0.20706 0.0
N198 N 0.51305 0.16622 0.2264 0.0
N199 N 0.51215 0.1038 0.32006 0.0
C200 C 0.51493 0.13343 0.37973 0.0
C201 C 0.51523 0.16734 0.32877 0.0
C202 C 0.36017 0.51873 0.34255 0.0
C203 C 0.32807 0.52589 0.39503 0.0
C204 C 0.39287 0.51484 0.39439 0.0
C205 C 0.39473 0.51754 0.50055 0.0
H206 H 0.36022 0.51682 0.26096 0.0
H207 H 0.41693 0.50983 0.3507 0.0
S208 S 0.31772 0.53542 0.67163 0.0
N209 N 0.29987 0.53522 0.55739 0.0
N210 N 0.36096 0.52739 0.65566 0.0
C211 C 0.36255 0.52395 0.55357 0.0
C212 C 0.3294 0.52831 0.50048 0.0
C213 C 0.04916 0.34707 0.35179 0.0
C214 C 0.02588 0.3197 0.38662 0.0
C215 C 0.05141 0.38036 0.40242 0.0
C216 C 0.03009 0.38749 0.48818 0.0
H217 H 0.06542 0.34291 0.28505 0.0
H218 H 0.06921 0.40094 0.37262 0.0
S219 S 0.96681 0.32337 0.61095 0.0
N220 N 0.98286 0.30102 0.51327 0.0
N221 N 0.98638 0.36336 0.60752 0.0
C222 C 1.00734 0.3599 0.52403 0.0
C223 C 1.00549 0.3261 0.47342 0.0
C224 C 0.83004 1.00071 0.87304 0.0
C225 C 0.82711 0.02063 0.96284 0.0
C226 C 0.86322 0.99721 0.82324 0.0
C227 C 0.89424 0.01474 0.85977 0.0
H228 H 0.80644 0.98767 0.84145 0.0
H229 H 0.86442 0.98155 0.75429 0.0
S230 S 0.90076 0.07114 0.09018 0.0
N231 N 0.85817 0.05818 0.08629 0.0
N232 N 0.92007 0.0529 -0.00966 0.0
C233 C 0.89162 0.03504 0.94896 0.0
C234 C 0.85815 0.03771 0.00122 0.0
C235 C 0.48491 0.84674 0.98441 0.0
C236 C 0.51434 0.83535 0.0428 0.0
C237 C 0.48805 0.87595 0.91836 0.0
C238 C 0.5207 0.89509 0.90727 0.0
H239 H 0.45931 0.83273 -0.01162 0.0
H240 H 0.46454 0.88333 0.87514 0.0
S241 S 0.60534 0.87625 0.04597 0.0
N242 N 0.57665 0.84549 0.08738 0.0
N243 N 0.58293 0.90065 0.96357 0.0
C244 C 0.55018 0.88422 0.96663 0.0
C245 C 0.54684 0.85438 0.03422 0.0
C246 C 0.68298 0.50738 0.00516 0.0
C247 C 0.70902 0.53323 0.97738 0.0
C248 C 0.64973 0.50519 0.95457 0.0
C249 C 0.6411 0.52942 0.87688 0.0
H250 H 0.68888 0.48796 0.06347 0.0
H251 H 0.63068 0.4844 0.97622 0.0
S252 S 0.70005 0.60215 0.7784 0.0
N253 N 0.72424 0.58298 0.86764 0.0
N254 N 0.6612 0.58026 0.77621 0.0
C255 C 0.66661 0.55588 0.85076 0.0
C256 C 0.70074 0.55734 0.90001 0.0
C257 C 0.03887 0.70148 0.86116 0.0
C258 C 0.04191 0.70261 0.96671 0.0
C259 C 0.03588 0.66876 0.80874 0.0
C260 C 0.03648 0.63562 0.85988 0.0
H261 H 0.03875 0.72632 0.81873 0.0
H262 H 0.03359 0.66952 0.72724 0.0
S263 S 0.04504 0.62372 0.13778 0.0
N264 N 0.04582 0.66768 0.12153 0.0
N265 N 0.0407 0.6062 0.02375 0.0
C266 C 0.03978 0.63637 0.96618 0.0
C267 C 0.04238 0.66981 0.01955 0.0
C268 C 1.00615 0.11898 0.24154 0.0
C269 C 0.98984 0.1522 0.26305 0.0
C270 C 0.99963 0.08869 0.30046 0.0
C271 C 0.9775 0.09041 0.38613 0.0
H272 H 0.02617 0.1166 0.18258 0.0
H273 H 1.01477 0.06471 0.28345 0.0
S274 S 0.92254 0.16853 0.46413 0.0
N275 N 0.94558 0.18315 0.36557 0.0
N276 N 0.93464 0.12639 0.48072 0.0
C277 C 0.95847 0.12243 0.40379 0.0
C278 C 0.96458 0.15331 0.34189 0.0
C279 C 0.41122 0.98821 0.25369 0.0
C280 C 0.37884 0.9696 0.27443 0.0
C281 C 0.44161 0.98408 0.31358 0.0
C282 C 0.44083 0.96221 0.39983 0.0
H283 H 0.4128 1.00808 0.19418 0.0
H284 H 0.46486 1.00072 0.2964 0.0
S285 S 0.3652 0.90258 0.47797 0.0
N286 N 0.34976 0.92398 0.37806 0.0
N287 N 0.40665 0.91767 0.4954 0.0
C288 C 0.40967 0.94127 0.41765 0.0
C289 C 0.37869 0.94487 0.35451 0.0
C290 C 0.53647 0.40057 0.26265 0.0
C291 C 0.55461 0.36841 0.28399 0.0
C292 C 0.54048 0.43083 0.32312 0.0
C293 C 0.56165 0.4302 0.41088 0.0
H294 H 0.51735 0.40218 0.20118 0.0
H295 H 0.52466 0.45412 0.30392 0.0
S296 S 0.61846 0.35438 0.49495 0.0
N297 N 0.5981 0.33909 0.39246 0.0
N298 N 0.60405 0.39581 0.51128 0.0
C299 C 0.58156 0.39896 0.43102 0.0
C300 C 0.57814 0.36806 0.36707 0.0
C301 C 0.16297 0.5891 0.33435 0.0
C302 C 0.16386 0.56825 0.24548 0.0
C303 C 0.13232 0.58936 0.39648 0.0
C304 C 0.1015 0.56918 0.37098 0.0
H305 H 0.18682 0.60343 0.35944 0.0
H306 H 0.13398 0.60264 0.46926 0.0
S307 S 0.08765 0.51326 0.14325 0.0
N308 N 0.1292 0.52866 0.13316 0.0
N309 N 0.07186 0.53107 0.24818 0.0
C310 C 0.10065 0.55118 0.27842 0.0
C311 C 0.13179 0.55017 0.21604 0.0
C312 C 0.09121 0.8772 0.00903 0.0
C313 C 0.06793 0.87267 0.0919 0.0
C314 C 0.08934 0.90804 0.94806 0.0
C315 C 0.06412 0.93502 0.96844 0.0
H316 H 0.10989 0.85622 -0.01103 0.0
H317 H 0.10573 0.90947 0.88052 0.0
S318 S 0.9979 0.93696 0.17658 0.0
N319 N 0.01918 0.89867 0.19092 0.0
N320 N 0.01688 0.95644 0.07807 0.0
C321 C 0.04219 0.93175 0.05362 0.0
C322 C 0.04371 0.90056 0.11484 0.0
C323 C 0.62824 0.05026 0.11188 0.0
C324 C 0.66084 0.06735 0.08349 0.0
C325 C 0.59775 0.05146 0.05091 0.0
C326 C 0.59856 0.06908 0.95788 0.0
H327 H 0.62671 0.03308 0.17758 0.0
H328 H 0.57457 0.0352 0.07177 0.0
S329 S 0.67426 0.12249 0.85311 0.0
N330 N 0.68978 0.10705 0.96144 0.0
N331 N 0.63262 0.10701 0.84317 0.0
C332 C 0.62959 0.08861 0.93127 0.0
C333 C 0.66074 0.08813 -0.00533 0.0
C334 C 0.45541 0.66626 0.95816 0.0
C335 C 0.44686 0.66099 0.06063 0.0
C336 C 0.46061 0.63717 0.8938 0.0
C337 C 0.45741 0.60172 0.92895 0.0
H338 H 0.46251 0.69259 0.92951 0.0
H339 H 0.47041 0.6425 0.81812 0.0
S340 S 0.42357 0.57356 0.1795 0.0
N341 N 0.42572 0.61786 0.18616 0.0
N342 N 0.43703 0.56276 0.0645 0.0
C343 C 0.44339 0.59595 0.02578 0.0
C344 C 0.43763 0.6258 0.09174 0.0
C345 C 0.91171 0.51694 0.06826 0.0
C346 C 0.88001 0.4964 0.05604 0.0
C347 C 0.94273 0.50936 0.01394 0.0
C348 C 0.94323 0.4816 0.94204 0.0
H349 H 0.91248 0.53969 0.11947 0.0
H350 H 0.96581 0.52696 0.02448 0.0
S351 S 0.868 0.41854 0.88436 0.0
N352 N 0.85155 0.44564 0.97145 0.0
N353 N 0.90974 0.43231 0.8641 0.0
C354 C 0.91196 0.46031 0.92984 0.0
C355 C 0.88032 0.46766 -0.01265 0.0
C356 C 0.07847 0.16617 0.97792 0.0
C357 C 0.05249 0.19318 0.96623 0.0
C358 C 0.07897 0.13616 0.9135 0.0
C359 C 0.05395 0.13279 0.8344 0.0
H360 H 0.09456 0.16537 0.0461 0.0
H361 H 0.09631 0.11398 0.93258 0.0
S362 S 0.98998 0.20281 0.75124 0.0
N363 N 1.00794 0.21918 0.85593 0.0
N364 N 1.0097 0.16387 0.73152 0.0
C365 C 0.03263 0.16285 0.8114 0.0
C366 C 0.03197 0.19306 0.87771 0.0
C367 C 0.34053 1.00927 0.88652 0.0
C368 C 0.33781 0.02924 0.97599 0.0
C369 C 0.37022 0.01373 0.82252 0.0
C370 C 0.39826 0.03818 0.84626 0.0
H371 H 0.32236 0.98683 0.87312 0.0
H372 H 0.37287 0.99537 0.75942 0.0
S373 S 0.39853 0.10306 0.0588 0.0
N374 N 0.36121 0.0793 0.07427 0.0
N375 N 0.41733 0.0876 0.9546 0.0
C376 C 0.39288 0.06208 0.92692 0.0
C377 C 0.36234 0.05775 -0.00862 0.0
C378 C 0.52129 0.33639 0.88943 0.0
C379 C 0.49963 0.33157 0.97511 0.0
C380 C 0.51827 0.36731 0.82998 0.0
C381 C 0.49348 0.39452 0.85413 0.0
H382 H 0.5438 0.31872 0.87629 0.0
H383 H 0.53768 0.37127 0.76991 0.0
S384 S 0.42484 0.38994 0.05653 0.0
N385 N 0.44807 0.35265 0.0696 0.0
N386 N 0.44231 0.41093 0.95802 0.0
C387 C 0.4682 0.38737 0.93043 0.0
C388 C 0.47115 0.35563 -0.00956 0.0
C389 C 0.18826 0.48262 0.97955 0.0
C390 C 0.21091 0.51205 0.95679 0.0
C391 C 0.15925 0.4735 0.91677 0.0
C392 C 0.15308 0.49243 0.82706 0.0
H393 H 0.18979 0.46997 0.05308 0.0
H394 H 0.13985 0.45368 0.94276 0.0
S395 S 0.20952 0.5661 0.72284 0.0
N396 N 0.22845 0.55646 0.83225 0.0
N397 N 0.17537 0.53772 0.71013 0.0
C398 C 0.17861 0.51832 0.79642 0.0
C399 C 0.2074 0.52843 0.8622 0.0
C400 C 0.99088 0.84393 0.3736 0.0
C401 C 0.02294 0.82534 0.39388 0.0
C402 C 0.98108 0.87398 0.43115 0.0
C403 C 1.00199 0.88503 0.51381 0.0
H404 H 0.97631 0.83863 0.30417 0.0
H405 H 0.95881 0.89024 0.40609 0.0
S406 S 0.08356 0.84065 0.61148 0.0
N407 N 0.0724 0.81702 0.51028 0.0
N408 N 0.05256 0.87187 0.62315 0.0
C409 C 0.03101 0.86358 0.54342 0.0
C410 C 0.04165 0.83379 0.48281 0.0
C411 C 0.67904 0.98027 0.35774 0.0
C412 C 0.70186 1.00957 0.38091 0.0
C413 C 0.65013 0.97109 0.42079 0.0
C414 C 0.64414 0.98993 0.51092 0.0
H415 H 0.68058 0.96757 0.28414 0.0
H416 H 0.63073 0.95122 0.39492 0.0
S417 S 0.70016 0.0641 0.61461 0.0
N418 N 0.71917 0.05433 0.50526 0.0
N419 N 0.66617 0.03556 0.62749 0.0
C420 C 0.66952 0.01604 0.54125 0.0
C421 C 0.69826 0.02615 0.4754 0.0
C422 C 0.51847 0.69094 0.43959 0.0
C423 C 0.52883 0.68889 0.33771 0.0
C424 C 0.52736 0.66348 0.50763 0.0
C425 C 0.54622 0.63298 0.4748 0.0
H426 H 0.49985 0.71143 0.4638 0.0
H427 H 0.51585 0.66418 0.58277 0.0
S428 S 0.58595 0.61909 0.2216 0.0
N429 N 0.56471 0.65772 0.21269 0.0
N430 N 0.58016 0.60547 0.33919 0.0
C431 C 0.56047 0.63298 0.3768 0.0
C432 C 0.55229 0.66132 0.30868 0.0
C433 C 0.84771 0.51575 0.45689 0.0
C434 C 0.84259 0.5415 0.38126 0.0
C435 C 0.87889 0.51628 0.51633 0.0
C436 C 0.90592 0.54275 0.50264 0.0
H437 H 0.83027 0.49229 0.46026 0.0
H438 H 0.88311 0.494 0.56731 0.0
S439 S 0.89981 0.6217 0.33379 0.0
N440 N 0.8627 0.59834 0.31104 0.0
N441 N 0.9214 0.59958 0.42278 0.0
C442 C 0.89823 0.57174 0.4387 0.0
C443 C 0.86624 0.57125 0.37879 0.0
loop_
_geom_bond_atom_site_label_1
_geom_bond_atom_site_label_2
_geom_bond_distance
_geom_bond_site_symmetry_2
_ccdc_geom_bond_type
H0 C5 0.929 . S
H1 C10 0.931 . S
H2 C8 0.930 . S
N3 N4 1.234 1_554 S
N3 C7 1.453 . S
N4 N3 1.234 1_556 S
C5 H0 0.929 . S
C5 C6 1.373 . S
C5 C7 1.368 . S
C6 C5 1.373 . S
C6 C10 1.397 . S
C7 N3 1.453 . S
C7 C5 1.368 . S
C7 C8 1.373 1_554 S
C8 H2 0.930 . S
C8 C7 1.373 1_556 S
C8 C9 1.371 . S
C9 C8 1.371 . S
C9 C10 1.383 1_556 S
C10 H1 0.931 . S
C10 C6 1.397 . S
C10 C9 1.383 1_554 S
H11 C16 0.929 . S
H12 C21 0.931 . S
H13 C19 0.930 1_556 S
N14 N15 1.234 1_455 S
N14 C18 1.453 . S
N15 N14 1.234 1_655 S
C16 H11 0.929 . S
C16 C17 1.373 . S
C16 C18 1.368 . S
C17 C16 1.373 . S
C17 C21 1.397 1_455 S
C18 N14 1.453 . S
C18 C16 1.368 . S
C18 C19 1.373 . S
C19 H13 0.930 1_554 S
C19 C18 1.373 . S
C19 C20 1.371 . S
C20 C19 1.371 . S
C20 C21 1.383 1_455 S
C21 H12 0.931 . S
C21 C17 1.397 1_655 S
C21 C20 1.383 1_655 S
H22 C27 0.929 . S
H23 C32 0.931 . S
H24 C30 0.938 . S
N25 N26 1.241 1_545 S
N25 C29 1.453 . S
N26 N25 1.241 1_565 S
C27 H22 0.929 . S
C27 C28 1.373 . S
C27 C29 1.368 . S
C28 C27 1.373 . S
C28 C32 1.397 1_545 S
C29 N25 1.453 . S
C29 C27 1.368 . S
C29 C30 1.366 1_554 S
C30 H24 0.938 . S
C30 C29 1.366 1_556 S
C30 C31 1.370 1_556 S
C31 C30 1.370 1_554 S
C31 C32 1.383 1_545 S
C32 H23 0.931 . S
C32 C28 1.397 1_565 S
C32 C31 1.383 1_565 S
H33 C38 0.929 . S
H34 C43 0.931 . S
H35 C41 0.930 . S
N36 N37 1.234 1_554 S
N36 C40 1.453 . S
N37 N36 1.234 1_556 S
C38 H33 0.929 . S
C38 C39 1.373 . S
C38 C40 1.368 . S
C39 C38 1.373 . S
C39 C43 1.397 . S
C40 N36 1.453 . S
C40 C38 1.368 . S
C40 C41 1.373 1_554 S
C41 H35 0.930 . S
C41 C40 1.373 1_556 S
C41 C42 1.371 . S
C42 C41 1.371 . S
C42 C43 1.383 1_556 S
C43 H34 0.931 . S
C43 C39 1.397 . S
C43 C42 1.383 1_554 S
H44 C49 0.929 . S
H45 C54 0.931 . S
H46 C52 0.930 . S
N47 N48 1.234 . S
N47 C51 1.453 . S
N48 N47 1.234 . S
C49 H44 0.929 . S
C49 C50 1.373 . S
C49 C51 1.368 . S
C50 C49 1.373 . S
C50 C54 1.397 . S
C51 N47 1.453 . S
C51 C49 1.368 . S
C51 C52 1.373 . S
C52 H46 0.930 . S
C52 C51 1.373 . S
C52 C53 1.371 . S
C53 C52 1.371 . S
C53 C54 1.383 . S
C54 H45 0.931 . S
C54 C50 1.397 . S
C54 C53 1.383 . S
H55 C60 0.929 . S
H56 C65 0.931 . S
H57 C63 0.930 . S
N58 N59 1.234 . S
N58 C62 1.453 . S
N59 N58 1.234 . S
C60 H55 0.929 . S
C60 C61 1.373 . S
C60 C62 1.368 . S
C61 C60 1.373 . S
C61 C65 1.397 . S
C62 N58 1.453 . S
C62 C60 1.368 . S
C62 C63 1.373 . S
C63 H57 0.930 . S
C63 C62 1.373 . S
C63 C64 1.371 . S
C64 C63 1.371 . S
C64 C65 1.383 . S
C65 H56 0.931 . S
C65 C61 1.397 . S
C65 C64 1.383 . S
H66 C71 0.929 . S
H67 C76 0.931 . S
H68 C74 0.930 . S
N69 N70 1.234 . S
N69 C73 1.453 . S
N70 N69 1.234 . S
C71 H66 0.929 . S
C71 C72 1.373 . S
C71 C73 1.368 . S
C72 C71 1.373 . S
C72 C76 1.397 . S
C73 N69 1.453 . S
C73 C71 1.368 . S
C73 C74 1.373 . S
C74 H68 0.930 . S
C74 C73 1.373 . S
C74 C75 1.371 . S
C75 C74 1.371 . S
C75 C76 1.383 . S
C76 H67 0.931 . S
C76 C72 1.397 . S
C76 C75 1.383 . S
H77 C82 0.929 . S
H78 C87 0.931 . S
H79 C85 0.930 . S
N80 N81 1.234 . S
N80 C84 1.453 . S
N81 N80 1.234 . S
C82 H77 0.929 . S
C82 C83 1.373 . S
C82 C84 1.368 . S
C83 C82 1.373 . S
C83 C87 1.397 . S
C84 N80 1.453 . S
C84 C82 1.368 . S
C84 C85 1.373 . S
C85 H79 0.930 . S
C85 C84 1.373 . S
C85 C86 1.371 . S
C86 C85 1.371 . S
C86 C87 1.383 . S
C87 H78 0.931 . S
C87 C83 1.397 . S
C87 C86 1.383 . S
O88 Zn89 1.955 . S
O88 C104 1.225 1_545 S
Zn89 O88 1.955 . S
Zn89 O90 1.948 1_545 S
Zn89 O96 1.939 . S
Zn89 O101 1.899 1_545 S
O90 Zn89 1.948 1_565 S
O90 Zn91 1.899 1_465 S
O90 Zn92 1.952 . S
O90 Zn93 1.967 1_455 S
Zn91 O90 1.899 1_645 S
Zn91 O94 1.933 . S
Zn91 O97 1.941 1_655 S
Zn91 O98 1.965 . S
Zn92 O90 1.952 . S
Zn92 O99 1.938 1_565 S
Zn92 O100 1.906 . S
Zn92 O110 1.953 . S
Zn93 O90 1.967 1_655 S
Zn93 O95 1.932 . S
Zn93 O102 1.977 . S
Zn93 O103 1.910 1_655 S
O94 Zn91 1.933 . S
O94 C105 1.226 . S
O95 Zn93 1.932 . S
O95 C105 1.307 1_565 S
O96 Zn89 1.939 . S
O96 C107 1.253 . S
O97 Zn91 1.941 1_455 S
O97 C107 1.283 . S
O98 Zn91 1.965 . S
O98 C106 1.303 1_655 S
O99 Zn92 1.938 1_545 S
O99 C106 1.247 . S
O100 Zn92 1.906 . S
O100 C108 1.304 1_455 S
O101 Zn89 1.899 1_565 S
O101 C109 1.311 . S
O102 Zn93 1.977 . S
O102 C108 1.272 . S
O103 Zn93 1.910 1_455 S
O103 C109 1.231 . S
C104 O88 1.225 1_565 S
C104 O110 1.298 . S
C105 O94 1.226 . S
C105 O95 1.307 1_545 S
C106 O98 1.303 1_455 S
C106 O99 1.247 . S
C107 O96 1.253 . S
C107 O97 1.283 . S
C108 O100 1.304 1_655 S
C108 O102 1.272 . S
C109 O101 1.311 . S
C109 O103 1.231 . S
O110 Zn92 1.953 . S
O110 C104 1.298 . S
O111 Zn112 1.953 . S
O111 C127 1.225 . S
Zn112 O111 1.953 . S
Zn112 O113 1.949 . S
Zn112 O119 1.919 . S
Zn112 O124 1.924 . S
O113 Zn112 1.949 . S
O113 Zn114 1.923 1_545 S
O113 Zn115 1.950 . S
O113 Zn116 1.945 1_545 S
Zn114 O113 1.923 1_565 S
Zn114 O117 1.933 . S
Zn114 O120 1.941 . S
Zn114 O121 1.965 . S
Zn115 O113 1.950 . S
Zn115 O122 1.938 . S
Zn115 O123 1.906 . S
Zn115 O133 1.953 . S
Zn116 O113 1.945 1_565 S
Zn116 O118 1.932 . S
Zn116 O125 1.977 . S
Zn116 O126 1.910 1_565 S
O117 Zn114 1.933 . S
O117 C128 1.226 . S
O118 Zn116 1.932 . S
O118 C128 1.307 . S
O119 Zn112 1.919 . S
O119 C130 1.253 . S
O120 Zn114 1.941 . S
O120 C130 1.283 1_565 S
O121 Zn114 1.965 . S
O121 C129 1.303 1_565 S
O122 Zn115 1.938 . S
O122 C129 1.247 . S
O123 Zn115 1.906 . S
O123 C131 1.304 1_545 S
O124 Zn112 1.924 . S
O124 C132 1.311 . S
O125 Zn116 1.977 . S
O125 C131 1.272 . S
O126 Zn116 1.910 1_545 S
O126 C132 1.231 . S
C127 O111 1.225 . S
C127 O133 1.298 . S
C128 O117 1.226 . S
C128 O118 1.307 . S
C129 O121 1.303 1_545 S
C129 O122 1.247 . S
C130 O119 1.253 . S
C130 O120 1.283 1_545 S
C131 O123 1.304 1_565 S
C131 O125 1.272 . S
C132 O124 1.311 . S
C132 O126 1.231 . S
O133 Zn115 1.953 . S
O133 C127 1.298 . S
O134 Zn135 1.953 . S
O134 C150 1.225 . S
Zn135 O134 1.953 . S
Zn135 O136 1.949 . S
Zn135 O142 1.919 . S
Zn135 O147 1.924 . S
O136 Zn135 1.949 . S
O136 Zn137 1.923 . S
O136 Zn138 1.950 . S
O136 Zn139 1.945 . S
Zn137 O136 1.923 . S
Zn137 O140 1.933 . S
Zn137 O143 1.941 . S
Zn137 O144 1.965 . S
Zn138 O136 1.950 . S
Zn138 O145 1.938 . S
Zn138 O146 1.906 . S
Zn138 O156 1.953 . S
Zn139 O136 1.945 . S
Zn139 O141 1.932 . S
Zn139 O148 1.977 . S
Zn139 O149 1.910 . S
O140 Zn137 1.933 . S
O140 C151 1.226 . S
O141 Zn139 1.932 . S
O141 C151 1.307 . S
O142 Zn135 1.919 . S
O142 C153 1.253 . S
O143 Zn137 1.941 . S
O143 C153 1.283 . S
O144 Zn137 1.965 . S
O144 C152 1.303 . S
O145 Zn138 1.938 . S
O145 C152 1.247 . S
O146 Zn138 1.906 . S
O146 C154 1.304 . S
O147 Zn135 1.924 . S
O147 C155 1.311 . S
O148 Zn139 1.977 . S
O148 C154 1.272 . S
O149 Zn139 1.910 . S
O149 C155 1.231 . S
C150 O134 1.225 . S
C150 O156 1.298 . S
C151 O140 1.226 . S
C151 O141 1.307 . S
C152 O144 1.303 . S
C152 O145 1.247 . S
C153 O142 1.253 . S
C153 O143 1.283 . S
C154 O146 1.304 . S
C154 O148 1.272 . S
C155 O147 1.311 . S
C155 O149 1.231 . S
O156 Zn138 1.953 . S
O156 C150 1.298 . S
O157 Zn158 1.953 1_655 S
O157 C173 1.225 . S
Zn158 O157 1.953 1_455 S
Zn158 O159 1.949 . S
Zn158 O165 1.919 . S
Zn158 O170 1.924 . S
O159 Zn158 1.949 . S
O159 Zn160 1.917 1_455 S
O159 Zn161 1.929 1_455 S
O159 Zn162 1.973 . S
Zn160 O159 1.917 1_655 S
Zn160 O163 1.933 1_655 S
Zn160 O166 1.941 . S
Zn160 O167 1.965 . S
Zn161 O159 1.929 1_655 S
Zn161 O168 1.938 . S
Zn161 O169 1.906 . S
Zn161 O179 1.953 . S
Zn162 O159 1.973 . S
Zn162 O164 1.932 . S
Zn162 O171 1.977 . S
Zn162 O172 1.910 . S
O163 Zn160 1.933 1_455 S
O163 C174 1.226 . S
O164 Zn162 1.932 . S
O164 C174 1.307 . S
O165 Zn158 1.919 . S
O165 C176 1.253 . S
O166 Zn160 1.941 . S
O166 C176 1.284 1_655 S
O167 Zn160 1.965 . S
O167 C175 1.303 . S
O168 Zn161 1.938 . S
O168 C175 1.247 . S
O169 Zn161 1.906 . S
O169 C177 1.304 1_655 S
O170 Zn158 1.924 . S
O170 C178 1.311 . S
O171 Zn162 1.977 . S
O171 C177 1.272 . S
O172 Zn162 1.910 . S
O172 C178 1.231 . S
C173 O157 1.225 . S
C173 O179 1.298 . S
C174 O163 1.226 . S
C174 O164 1.307 . S
C175 O167 1.303 . S
C175 O168 1.247 . S
C176 O165 1.253 . S
C176 O166 1.284 1_455 S
C177 O169 1.304 1_455 S
C177 O171 1.272 . S
C178 O170 1.311 . S
C178 O172 1.231 . S
O179 Zn161 1.953 . S
O179 C173 1.298 . S
C180 C181 1.369 1_565 S
C180 C182 1.419 . S
C180 H184 0.930 . S
C181 C180 1.369 1_545 S
C181 C190 1.429 . S
C182 C180 1.419 . S
C182 C183 1.363 . S
C182 H185 0.929 . S
C183 C182 1.363 . S
C183 C189 1.428 1_565 S
H184 C180 0.930 . S
H185 C182 0.929 . S
S186 N187 1.613 . S
S186 N188 1.610 . S
N187 S186 1.613 . S
N187 C190 1.350 . S
N188 S186 1.610 . S
N188 C189 1.351 . S
C189 C183 1.428 1_545 S
C189 N188 1.351 . S
C189 C190 1.434 . S
C190 C181 1.429 . S
C190 N187 1.350 . S
C190 C189 1.434 . S
C191 C192 1.369 . S
C191 C193 1.419 . S
C191 H195 0.930 . S
C192 C191 1.369 . S
C192 C201 1.429 . S
C193 C191 1.419 . S
C193 C194 1.363 . S
C193 H196 0.929 . S
C194 C193 1.363 . S
C194 C200 1.428 . S
H195 C191 0.930 . S
H196 C193 0.929 . S
S197 N198 1.613 . S
S197 N199 1.610 . S
N198 S197 1.613 . S
N198 C201 1.350 . S
N199 S197 1.610 . S
N199 C200 1.351 . S
C200 C194 1.428 . S
C200 N199 1.351 . S
C200 C201 1.434 . S
C201 C192 1.429 . S
C201 N198 1.350 . S
C201 C200 1.434 . S
C202 C203 1.369 . S
C202 C204 1.419 . S
C202 H206 0.930 . S
C203 C202 1.369 . S
C203 C212 1.429 . S
C204 C202 1.419 . S
C204 C205 1.363 . S
C204 H207 0.929 . S
C205 C204 1.363 . S
C205 C211 1.428 . S
H206 C202 0.930 . S
H207 C204 0.929 . S
S208 N209 1.613 . S
S208 N210 1.610 . S
N209 S208 1.613 . S
N209 C212 1.350 . S
N210 S208 1.610 . S
N210 C211 1.351 . S
C211 C205 1.428 . S
C211 N210 1.351 . S
C211 C212 1.434 . S
C212 C203 1.429 . S
C212 N209 1.350 . S
C212 C211 1.434 . S
C213 C214 1.369 . S
C213 C215 1.419 . S
C213 H217 0.930 . S
C214 C213 1.369 . S
C214 C223 1.456 . S
C215 C213 1.419 . S
C215 C216 1.363 . S
C215 H218 0.929 . S
C216 C215 1.363 . S
C216 C222 1.428 1_455 S
H217 C213 0.930 . S
H218 C215 0.929 . S
S219 N220 1.613 . S
S219 N221 1.610 . S
N220 S219 1.613 . S
N220 C223 1.327 1_655 S
N221 S219 1.610 . S
N221 C222 1.351 . S
C222 C216 1.428 1_655 S
C222 N221 1.351 . S
C222 C223 1.427 1_655 S
C223 C214 1.456 . S
C223 N220 1.327 1_455 S
C223 C222 1.427 1_455 S
C224 C225 1.367 1_565 S
C224 C226 1.419 . S
C224 H228 0.930 . S
C225 C224 1.367 1_545 S
C225 C234 1.431 . S
C226 C224 1.419 . S
C226 C227 1.363 1_565 S
C226 H229 0.929 . S
C227 C226 1.363 1_545 S
C227 C233 1.428 . S
H228 C224 0.930 . S
H229 C226 0.929 . S
S230 N231 1.613 . S
S230 N232 1.610 1_554 S
N231 S230 1.613 . S
N231 C234 1.350 1_554 S
N232 S230 1.610 1_556 S
N232 C233 1.351 . S
C233 C227 1.428 . S
C233 N232 1.351 . S
C233 C234 1.434 . S
C234 C225 1.431 . S
C234 N231 1.350 1_556 S
C234 C233 1.434 . S
C235 C236 1.369 . S
C235 C237 1.419 . S
C235 H239 0.930 . S
C236 C235 1.369 . S
C236 C245 1.429 . S
C237 C235 1.419 . S
C237 C238 1.363 . S
C237 H240 0.929 . S
C238 C237 1.363 . S
C238 C244 1.428 . S
H239 C235 0.930 . S
H240 C237 0.929 . S
S241 N242 1.613 . S
S241 N243 1.610 . S
N242 S241 1.613 . S
N242 C245 1.350 . S
N243 S241 1.610 . S
N243 C244 1.351 . S
C244 C238 1.428 . S
C244 N243 1.351 . S
C244 C245 1.434 . S
C245 C236 1.429 . S
C245 N242 1.350 . S
C245 C244 1.434 . S
C246 C247 1.369 . S
C246 C248 1.419 . S
C246 H250 0.930 . S
C247 C246 1.369 . S
C247 C256 1.429 . S
C248 C246 1.419 . S
C248 C249 1.363 . S
C248 H251 0.929 . S
C249 C248 1.363 . S
C249 C255 1.428 . S
H250 C246 0.930 . S
H251 C248 0.929 . S
S252 N253 1.613 . S
S252 N254 1.610 . S
N253 S252 1.613 . S
N253 C256 1.350 . S
N254 S252 1.610 . S
N254 C255 1.351 . S
C255 C249 1.428 . S
C255 N254 1.351 . S
C255 C256 1.434 . S
C256 C247 1.429 . S
C256 N253 1.350 . S
C256 C255 1.434 . S
C257 C258 1.371 . S
C257 C259 1.416 1_655 S
C257 H261 0.930 . S
C258 C257 1.371 . S
C258 C267 1.424 1_656 S
C259 C257 1.416 1_455 S
C259 C260 1.368 . S
C259 H262 0.928 . S
C260 C259 1.368 . S
C260 C266 1.428 . S
H261 C257 0.930 . S
H262 C259 0.928 . S
S263 N264 1.613 . S
S263 N265 1.610 1_554 S
N264 S263 1.613 . S
N264 C267 1.350 . S
N265 S263 1.610 1_556 S
N265 C266 1.351 . S
C266 C260 1.428 . S
C266 N265 1.351 . S
C266 C267 1.434 1_556 S
C267 C258 1.424 1_454 S
C267 N264 1.350 . S
C267 C266 1.434 1_554 S
C268 C269 1.369 . S
C268 C270 1.419 . S
C268 H272 0.930 . S
C269 C268 1.369 . S
C269 C278 1.429 . S
C270 C268 1.419 . S
C270 C271 1.363 . S
C270 H273 0.929 . S
C271 C270 1.363 . S
C271 C277 1.428 . S
H272 C268 0.930 . S
H273 C270 0.929 . S
S274 N275 1.613 . S
S274 N276 1.610 . S
N275 S274 1.613 . S
N275 C278 1.350 . S
N276 S274 1.610 . S
N276 C277 1.351 . S
C277 C271 1.428 . S
C277 N276 1.351 . S
C277 C278 1.434 . S
C278 C269 1.429 . S
C278 N275 1.350 . S
C278 C277 1.434 . S
C279 C280 1.369 . S
C279 C281 1.419 . S
C279 H283 0.930 . S
C280 C279 1.369 . S
C280 C289 1.429 1_545 S
C281 C279 1.419 . S
C281 C282 1.363 . S
C281 H284 0.929 . S
C282 C281 1.363 . S
C282 C288 1.428 1_545 S
H283 C279 0.930 . S
H284 C281 0.929 . S
S285 N286 1.613 . S
S285 N287 1.610 . S
N286 S285 1.613 . S
N286 C289 1.350 . S
N287 S285 1.610 . S
N287 C288 1.351 . S
C288 C282 1.428 1_565 S
C288 N287 1.351 . S
C288 C289 1.434 . S
C289 C280 1.429 1_565 S
C289 N286 1.350 . S
C289 C288 1.434 . S
C290 C291 1.369 . S
C290 C292 1.419 . S
C290 H294 0.930 . S
C291 C290 1.369 . S
C291 C300 1.429 . S
C292 C290 1.419 . S
C292 C293 1.363 . S
C292 H295 0.929 . S
C293 C292 1.363 . S
C293 C299 1.428 . S
H294 C290 0.930 . S
H295 C292 0.929 . S
S296 N297 1.613 . S
S296 N298 1.610 . S
N297 S296 1.613 . S
N297 C300 1.350 . S
N298 S296 1.610 . S
N298 C299 1.351 . S
C299 C293 1.428 . S
C299 N298 1.351 . S
C299 C300 1.434 . S
C300 C291 1.429 . S
C300 N297 1.350 . S
C300 C299 1.434 . S
C301 C302 1.369 . S
C301 C303 1.419 . S
C301 H305 0.930 . S
C302 C301 1.369 . S
C302 C311 1.429 . S
C303 C301 1.419 . S
C303 C304 1.363 . S
C303 H306 0.929 . S
C304 C303 1.363 . S
C304 C310 1.428 . S
H305 C301 0.930 . S
H306 C303 0.929 . S
S307 N308 1.613 . S
S307 N309 1.610 . S
N308 S307 1.613 . S
N308 C311 1.350 . S
N309 S307 1.610 . S
N309 C310 1.351 . S
C310 C304 1.428 . S
C310 N309 1.351 . S
C310 C311 1.434 . S
C311 C302 1.429 . S
C311 N308 1.350 . S
C311 C310 1.434 . S
C312 C313 1.369 1_556 S
C312 C314 1.419 . S
C312 H316 0.930 . S
C313 C312 1.369 1_554 S
C313 C322 1.429 1_455 S
C314 C312 1.419 . S
C314 C315 1.363 . S
C314 H317 0.929 . S
C315 C314 1.363 . S
C315 C321 1.428 . S
H316 C312 0.930 . S
H317 C314 0.929 . S
S318 N319 1.613 . S
S318 N320 1.610 1_554 S
N319 S318 1.613 . S
N319 C322 1.350 . S
N320 S318 1.610 1_556 S
N320 C321 1.351 1_655 S
C321 C315 1.428 . S
C321 N320 1.351 1_455 S
C321 C322 1.434 1_456 S
C322 C313 1.429 1_655 S
C322 N319 1.350 . S
C322 C321 1.434 1_654 S
C323 C324 1.369 1_565 S
C323 C325 1.419 1_565 S
C323 H327 0.930 . S
C324 C323 1.369 1_545 S
C324 C333 1.429 . S
C325 C323 1.419 1_545 S
C325 C326 1.363 . S
C325 H328 0.929 1_545 S
C326 C325 1.363 . S
C326 C332 1.428 . S
H327 C323 0.930 . S
H328 C325 0.929 1_565 S
S329 N330 1.613 . S
S329 N331 1.610 . S
N330 S329 1.613 . S
N330 C333 1.350 . S
N331 S329 1.610 . S
N331 C332 1.351 . S
C332 C326 1.428 . S
C332 N331 1.351 . S
C332 C333 1.434 . S
C333 C324 1.429 . S
C333 N330 1.350 . S
C333 C332 1.434 . S
C334 C335 1.369 . S
C334 C336 1.419 . S
C334 H338 0.930 . S
C335 C334 1.369 . S
C335 C344 1.429 . S
C336 C334 1.419 . S
C336 C337 1.363 . S
C336 H339 0.929 . S
C337 C336 1.363 . S
C337 C343 1.428 . S
H338 C334 0.930 . S
H339 C336 0.929 . S
S340 N341 1.613 . S
S340 N342 1.610 1_554 S
N341 S340 1.613 . S
N341 C344 1.350 1_554 S
N342 S340 1.610 1_556 S
N342 C343 1.351 . S
C343 C337 1.428 . S
C343 N342 1.351 . S
C343 C344 1.434 . S
C344 C335 1.429 . S
C344 N341 1.350 1_556 S
C344 C343 1.434 . S
C345 C346 1.369 . S
C345 C347 1.419 . S
C345 H349 0.930 . S
C346 C345 1.369 . S
C346 C355 1.429 . S
C347 C345 1.419 . S
C347 C348 1.363 . S
C347 H350 0.929 . S
C348 C347 1.363 . S
C348 C354 1.428 . S
H349 C345 0.930 . S
H350 C347 0.929 . S
S351 N352 1.613 . S
S351 N353 1.610 . S
N352 S351 1.613 . S
N352 C355 1.350 . S
N353 S351 1.610 . S
N353 C354 1.351 . S
C354 C348 1.428 . S
C354 N353 1.351 . S
C354 C355 1.434 . S
C355 C346 1.429 . S
C355 N352 1.350 . S
C355 C354 1.434 . S
C356 C357 1.369 . S
C356 C358 1.419 . S
C356 H360 0.930 . S
C357 C356 1.369 . S
C357 C366 1.429 . S
C358 C356 1.419 . S
C358 C359 1.363 . S
C358 H361 0.930 . S
C359 C358 1.363 . S
C359 C365 1.428 1_455 S
H360 C356 0.930 . S
H361 C358 0.930 . S
S362 N363 1.613 . S
S362 N364 1.610 . S
N363 S362 1.613 . S
N363 C366 1.350 1_655 S
N364 S362 1.610 . S
N364 C365 1.351 . S
C365 C359 1.428 1_655 S
C365 N364 1.351 . S
C365 C366 1.434 1_655 S
C366 C357 1.429 . S
C366 N363 1.350 1_455 S
C366 C365 1.434 1_455 S
C367 C368 1.369 1_565 S
C367 C369 1.419 . S
C367 H371 0.930 . S
C368 C367 1.369 1_545 S
C368 C377 1.429 . S
C369 C367 1.419 . S
C369 C370 1.363 1_564 S
C369 H372 0.929 . S
C370 C369 1.363 1_546 S
C370 C376 1.428 . S
H371 C367 0.930 . S
H372 C369 0.929 . S
S373 N374 1.613 1_556 S
S373 N375 1.610 . S
N374 S373 1.613 1_554 S
N374 C377 1.350 . S
N375 S373 1.610 . S
N375 C376 1.351 . S
C376 C370 1.428 . S
C376 N375 1.351 . S
C376 C377 1.434 1_556 S
C377 C368 1.429 . S
C377 N374 1.350 . S
C377 C376 1.434 1_554 S
C378 C379 1.369 1_556 S
C378 C380 1.419 . S
C378 H382 0.930 . S
C379 C378 1.369 1_554 S
C379 C388 1.429 . S
C380 C378 1.419 . S
C380 C381 1.363 . S
C380 H383 0.929 . S
C381 C380 1.363 . S
C381 C387 1.428 1_556 S
H382 C378 0.930 . S
H383 C380 0.929 . S
S384 N385 1.613 . S
S384 N386 1.610 . S
N385 S384 1.613 . S
N385 C388 1.350 . S
N386 S384 1.610 . S
N386 C387 1.351 . S
C387 C381 1.428 1_554 S
C387 N386 1.351 . S
C387 C388 1.434 . S
C388 C379 1.429 . S
C388 N385 1.350 . S
C388 C387 1.434 . S
C389 C390 1.369 . S
C389 C391 1.419 1_554 S
C389 H393 0.930 . S
C390 C389 1.369 . S
C390 C399 1.429 . S
C391 C389 1.419 1_556 S
C391 C392 1.363 . S
C391 H394 0.929 . S
C392 C391 1.363 . S
C392 C398 1.428 . S
H393 C389 0.930 . S
H394 C391 0.929 . S
S395 N396 1.613 . S
S395 N397 1.610 1_554 S
N396 S395 1.613 . S
N396 C399 1.350 . S
N397 S395 1.610 1_556 S
N397 C398 1.351 . S
C398 C392 1.428 . S
C398 N397 1.351 . S
C398 C399 1.434 1_556 S
C399 C390 1.429 . S
C399 N396 1.350 . S
C399 C398 1.434 1_554 S
C400 C401 1.369 . S
C400 C402 1.419 . S
C400 H404 0.930 . S
C401 C400 1.369 . S
C401 C410 1.429 1_655 S
C402 C400 1.419 . S
C402 C403 1.363 . S
C402 H405 0.929 . S
C403 C402 1.363 . S
C403 C409 1.428 1_655 S
H404 C400 0.930 . S
H405 C402 0.929 . S
S406 N407 1.613 . S
S406 N408 1.610 . S
N407 S406 1.613 . S
N407 C410 1.350 . S
N408 S406 1.610 . S
N408 C409 1.351 . S
C409 C403 1.428 1_455 S
C409 N408 1.351 . S
C409 C410 1.434 . S
C410 C401 1.429 1_455 S
C410 N407 1.350 . S
C410 C409 1.434 . S
C411 C412 1.369 . S
C411 C413 1.419 . S
C411 H415 0.930 . S
C412 C411 1.369 . S
C412 C421 1.429 . S
C413 C411 1.419 . S
C413 C414 1.363 . S
C413 H416 0.929 . S
C414 C413 1.363 . S
C414 C420 1.428 . S
H415 C411 0.930 . S
H416 C413 0.929 . S
S417 N418 1.613 . S
S417 N419 1.610 . S
N418 S417 1.613 . S
N418 C421 1.350 . S
N419 S417 1.610 . S
N419 C420 1.351 . S
C420 C414 1.428 . S
C420 N419 1.351 . S
C420 C421 1.434 . S
C421 C412 1.429 . S
C421 N418 1.350 . S
C421 C420 1.434 . S
C422 C423 1.369 . S
C422 C424 1.419 . S
C422 H426 0.930 . S
C423 C422 1.369 . S
C423 C432 1.429 . S
C424 C422 1.419 . S
C424 C425 1.363 . S
C424 H427 0.929 . S
C425 C424 1.363 . S
C425 C431 1.428 . S
H426 C422 0.930 . S
H427 C424 0.929 . S
S428 N429 1.613 . S
S428 N430 1.610 . S
N429 S428 1.613 . S
N429 C432 1.350 . S
N430 S428 1.610 . S
N430 C431 1.351 . S
C431 C425 1.428 . S
C431 N430 1.351 . S
C431 C432 1.434 . S
C432 C423 1.429 . S
C432 N429 1.350 . S
C432 C431 1.434 . S
C433 C434 1.369 . S
C433 C435 1.419 . S
C433 H437 0.930 . S
C434 C433 1.369 . S
C434 C443 1.429 . S
C435 C433 1.419 . S
C435 C436 1.363 . S
C435 H438 0.929 . S
C436 C435 1.363 . S
C436 C442 1.428 . S
H437 C433 0.930 . S
H438 C435 0.929 . S
S439 N440 1.613 . S
S439 N441 1.610 . S
N440 S439 1.613 . S
N440 C443 1.350 . S
N441 S439 1.610 . S
N441 C442 1.351 . S
C442 C436 1.428 . S
C442 N441 1.351 . S
C442 C443 1.434 . S
C443 C434 1.429 . S
C443 N440 1.350 . S
C443 C442 1.434 . S
C181 N70 1.564 . S
C183 C104 1.613 . S
C194 C127 1.636 . S
C192 N81 1.593 . S
C205 C150 1.636 . S
C203 N48 1.591 . S
C216 C177 1.519 . S
C214 N59 1.569 . S
C227 C105 1.561 . S
C225 N26 1.524 1_546 S
C236 N37 1.489 . S
C238 C128 1.525 . S
C247 N4 1.484 . S
C249 C151 1.517 . S
C258 N15 1.559 1_556 S
C260 C176 1.582 . S
C271 C106 0.748 . S
C269 C64 0.760 . S
C282 C129 0.715 . S
C280 C75 0.732 . S
C293 C152 0.742 . S
C291 C86 0.753 . S
C302 C53 0.891 . S
C304 C178 0.863 . S
C313 C20 0.998 . S
C315 C109 0.942 . S
C326 C132 0.949 . S
C324 C31 0.984 1_556 S
C337 C155 0.924 . S
C335 C42 0.953 . S
C346 C9 0.720 . S
C348 C175 0.725 . S
C357 C61 1.571 . S
C359 C107 1.547 1_554 S
C368 C72 1.533 . S
C370 C130 1.524 . S
C381 C153 1.542 . S
C379 C83 1.544 . S
C392 C174 1.454 . S
C390 C50 1.401 . S
C401 C17 1.656 1_655 S
C403 C108 1.557 . S
C414 C131 1.516 . S
C412 C28 1.609 1_565 S
C425 C154 1.501 . S
C423 C39 1.593 . S
C434 C6 1.648 . S
C436 C173 1.695 . S
