# Generated by pormake.
# Topology pyr, (3,6)-cn, num edge types: 1
# Building blocks:
#     Node 0, Type 0, BuildingBlock: MIDCAF_clean_linker_0, # of connection points: 3
#     Node 1, Type 0, BuildingBlock: MIDCAF_clean_linker_0, # of connection points: 3
#     Node 2, Type 0, BuildingBlock: MIDCAF_clean_linker_0, # of connection points: 3
#     Node 3, Type 0, BuildingBlock: MIDCAF_clean_linker_0, # of connection points: 3
#     Node 4, Type 0, BuildingBlock: MIDCAF_clean_linker_0, # of connection points: 3
#     Node 5, Type 0, BuildingBlock: MIDCAF_clean_linker_0, # of connection points: 3
#     Node 6, Type 0, BuildingBlock: MIDCAF_clean_linker_0, # of connection points: 3
#     Node 7, Type 0, BuildingBlock: MIDCAF_clean_linker_0, # of connection points: 3
#     Node 8, Type 1, BuildingBlock: GEDQOX_clean_sbu_0, # of connection points: 6
#     Node 9, Type 1, BuildingBlock: GEDQOX_clean_sbu_0, # of connection points: 6
#     Node 10, Type 1, BuildingBlock: GEDQOX_clean_sbu_0, # of connection points: 6
#     Node 11, Type 1, BuildingBlock: GEDQOX_clean_sbu_0, # of connection points: 6
#     Edge 12, Type (0, 1), BuildingBlock: TEMPAE_clean_linker_10, # of connection points: 2
#     Edge 13, Type (0, 1), BuildingBlock: TEMPAE_clean_linker_10, # of connection points: 2
#     Edge 14, Type (0, 1), BuildingBlock: TEMPAE_clean_linker_10, # of connection points: 2
#     Edge 15, Type (0, 1), BuildingBlock: TEMPAE_clean_linker_10, # of connection points: 2
#     Edge 16, Type (0, 1), BuildingBlock: TEMPAE_clean_linker_10, # of connection points: 2
#     Edge 17, Type (0, 1), BuildingBlock: TEMPAE_clean_linker_10, # of connection points: 2
#     Edge 18, Type (0, 1), BuildingBlock: TEMPAE_clean_linker_10, # of connection points: 2
#     Edge 19, Type (0, 1), BuildingBlock: TEMPAE_clean_linker_10, # of connection points: 2
#     Edge 20, Type (0, 1), BuildingBlock: TEMPAE_clean_linker_10, # of connection points: 2
#     Edge 21, Type (0, 1), BuildingBlock: TEMPAE_clean_linker_10, # of connection points: 2
#     Edge 22, Type (0, 1), BuildingBlock: TEMPAE_clean_linker_10, # of connection points: 2
#     Edge 23, Type (0, 1), BuildingBlock: TEMPAE_clean_linker_10, # of connection points: 2
#     Edge 24, Type (0, 1), BuildingBlock: TEMPAE_clean_linker_10, # of connection points: 2
#     Edge 25, Type (0, 1), BuildingBlock: TEMPAE_clean_linker_10, # of connection points: 2
#     Edge 26, Type (0, 1), BuildingBlock: TEMPAE_clean_linker_10, # of connection points: 2
#     Edge 27, Type (0, 1), BuildingBlock: TEMPAE_clean_linker_10, # of connection points: 2
#     Edge 28, Type (0, 1), BuildingBlock: TEMPAE_clean_linker_10, # of connection points: 2
#     Edge 29, Type (0, 1), BuildingBlock: TEMPAE_clean_linker_10, # of connection points: 2
#     Edge 30, Type (0, 1), BuildingBlock: TEMPAE_clean_linker_10, # of connection points: 2
#     Edge 31, Type (0, 1), BuildingBlock: TEMPAE_clean_linker_10, # of connection points: 2
#     Edge 32, Type (0, 1), BuildingBlock: TEMPAE_clean_linker_10, # of connection points: 2
#     Edge 33, Type (0, 1), BuildingBlock: TEMPAE_clean_linker_10, # of connection points: 2
#     Edge 34, Type (0, 1), BuildingBlock: TEMPAE_clean_linker_10, # of connection points: 2
#     Edge 35, Type (0, 1), BuildingBlock: TEMPAE_clean_linker_10, # of connection points: 2
# Relax obj value: 0.102
# Max RMSD: 0.154
# Mean RMSD: 0.061
data_MOF--net-pyr--node1-GEDQOX_clean_sbu_0--node2-MIDCAF_clean_linker_0--edge1-TEMPAE_clean_linker_10
_symmetry_space_group_name_H-M    P1
_symmetry_Int_Tables_number       1
_symmetry_cell_setting            triclinic
loop_
_symmetry_equiv_pos_as_xyz
'x, y, z'
_cell_length_a     48.476115
_cell_length_b     48.530677
_cell_length_c     42.801033
_cell_angle_alpha  87.301737
_cell_angle_beta   90.545348
_cell_angle_gamma 86.229112
loop_
_atom_site_label
_atom_site_type_symbol
_atom_site_fract_x
_atom_site_fract_y
_atom_site_fract_z
_atom_type_partial_charge
C0 C 0.14338 0.15725 0.26403 0.0
C1 C 0.15541 0.13271 0.27867 0.0
C2 C 0.18075 0.12177 0.26708 0.0
C3 C 0.19352 0.13485 0.24152 0.0
H4 H 0.26186 0.12885 0.18293 0.0
H5 H 0.30415 0.10831 0.16131 0.0
H6 H 0.29977 0.17103 0.08613 0.0
H7 H 0.25772 0.19213 0.10835 0.0
H8 H 0.2035 0.23977 0.10581 0.0
H9 H 0.1805 0.2836 0.08557 0.0
H10 H 0.1319 0.28799 0.16932 0.0
H11 H 0.15466 0.24454 0.18949 0.0
H12 H 0.14607 0.18921 0.22823 0.0
H13 H 0.12413 0.16661 0.27245 0.0
H14 H 0.19058 0.1028 0.27748 0.0
H15 H 0.2129 0.12565 0.23326 0.0
N16 N 0.21818 0.16229 0.18651 0.0
N17 N 0.2179 0.19959 0.14921 0.0
N18 N 0.18321 0.19801 0.18708 0.0
C19 C 0.23001 0.17508 0.16136 0.0
C20 C 0.19449 0.21128 0.16205 0.0
C21 C 0.1947 0.17354 0.19949 0.0
C22 C 0.25604 0.16232 0.14755 0.0
C23 C 0.26978 0.13837 0.16175 0.0
C24 C 0.29414 0.12637 0.14913 0.0
C25 C 0.30569 0.13774 0.12169 0.0
C26 C 0.29194 0.16171 0.10745 0.0
C27 C 0.26758 0.1738 0.12017 0.0
C28 C 0.18107 0.23836 0.14937 0.0
C29 C 0.18798 0.2501 0.11997 0.0
C30 C 0.17464 0.27521 0.10825 0.0
C31 C 0.1543 0.28951 0.12579 0.0
C32 C 0.14763 0.27786 0.15525 0.0
C33 C 0.16065 0.25269 0.16675 0.0
C34 C 0.18141 0.15938 0.22686 0.0
C35 C 0.15616 0.17037 0.23864 0.0
C36 C 0.25334 0.82931 0.74531 0.0
C37 C 0.23764 0.80856 0.7336 0.0
C38 C 0.24721 0.78075 0.73908 0.0
C39 C 0.27293 0.77398 0.75332 0.0
H40 H 0.33976 0.73378 0.71468 0.0
H41 H 0.36399 0.70024 0.68288 0.0
H42 H 0.43906 0.70782 0.73586 0.0
H43 H 0.41478 0.74188 0.76816 0.0
H44 H 0.41426 0.81085 0.79518 0.0
H45 H 0.43719 0.84305 0.82707 0.0
H46 H 0.3616 0.85827 0.8782 0.0
H47 H 0.33845 0.82732 0.84516 0.0
H48 H 0.2912 0.83897 0.76725 0.0
H49 H 0.24683 0.85097 0.7413 0.0
H50 H 0.23535 0.76419 0.73122 0.0
H51 H 0.28042 0.75244 0.75565 0.0
N52 N 0.33278 0.76733 0.75748 0.0
N53 N 0.37395 0.77815 0.78176 0.0
N54 N 0.33223 0.80382 0.79132 0.0
C55 C 0.36038 0.76222 0.76214 0.0
C56 C 0.35987 0.79882 0.79669 0.0
C57 C 0.31858 0.78798 0.77185 0.0
C58 C 0.37533 0.74071 0.74403 0.0
C59 C 0.3614 0.72836 0.71987 0.0
C60 C 0.37529 0.70919 0.70143 0.0
C61 C 0.4034 0.70163 0.70676 0.0
C62 C 0.41732 0.7133 0.73135 0.0
C63 C 0.40344 0.73284 0.74973 0.0
C64 C 0.3745 0.8167 0.8175 0.0
C65 C 0.40263 0.82101 0.81334 0.0
C66 C 0.4158 0.83942 0.83178 0.0
C67 C 0.40128 0.85355 0.8552 0.0
C68 C 0.37334 0.84843 0.85991 0.0
C69 C 0.36007 0.83048 0.84111 0.0
C70 C 0.28937 0.79482 0.76305 0.0
C71 C 0.27886 0.82247 0.76014 0.0
C72 C 0.70037 0.338 0.94563 0.0
C73 C 0.67185 0.33497 0.94221 0.0
C74 C 0.65556 0.35556 0.92514 0.0
C75 C 0.66765 0.37787 0.91041 0.0
H76 H 0.65493 0.4201 0.82979 0.0
H77 H 0.62996 0.43487 0.78216 0.0
H78 H 0.6994 0.47942 0.75014 0.0
H79 H 0.72507 0.46408 0.79811 0.0
H80 H 0.78289 0.45369 0.8412 0.0
H81 H 0.82866 0.46848 0.8544 0.0
H82 H 0.81838 0.43998 0.95035 0.0
H83 H 0.77279 0.42498 0.93733 0.0
H84 H 0.73466 0.36187 0.93308 0.0
H85 H 0.71339 0.3225 0.95882 0.0
H86 H 0.6336 0.35371 0.92173 0.0
H87 H 0.65456 0.39279 0.8965 0.0
N88 N 0.69582 0.4121 0.86654 0.0
N89 N 0.73288 0.4389 0.85381 0.0
N90 N 0.73463 0.41003 0.89966 0.0
C91 C 0.70737 0.43062 0.84685 0.0
C92 C 0.74654 0.42882 0.88035 0.0
C93 C 0.70917 0.40166 0.89284 0.0
C94 C 0.69214 0.44086 0.81792 0.0
C95 C 0.66506 0.4331 0.81279 0.0
C96 C 0.65055 0.44175 0.78548 0.0
C97 C 0.6626 0.45848 0.76246 0.0
C98 C 0.68964 0.4664 0.76743 0.0
C99 C 0.70426 0.45774 0.79497 0.0
C100 C 0.77418 0.43809 0.8882 0.0
C101 C 0.79034 0.45062 0.86513 0.0
C102 C 0.81658 0.45898 0.87261 0.0
C103 C 0.82697 0.4554 0.90338 0.0
C104 C 0.81074 0.44318 0.9265 0.0
C105 C 0.78472 0.43443 0.91895 0.0
C106 C 0.69633 0.38025 0.91248 0.0
C107 C 0.7125 0.36058 0.93106 0.0
C108 C 0.83614 0.70795 0.40448 0.0
C109 C 0.83402 0.68187 0.39202 0.0
C110 C 0.84645 0.67649 0.36327 0.0
C111 C 0.85924 0.69726 0.34639 0.0
H112 H 0.91276 0.72153 0.26558 0.0
H113 H 0.91226 0.706 0.21255 0.0
H114 H 0.86014 0.77837 0.18287 0.0
H115 H 0.86095 0.79411 0.23673 0.0
H116 H 0.90585 0.83745 0.30357 0.0
H117 H 0.91834 0.87905 0.32866 0.0
H118 H 0.87786 0.85204 0.41309 0.0
H119 H 0.8658 0.8103 0.38842 0.0
H120 H 0.84921 0.74898 0.39727 0.0
H121 H 0.82652 0.7128 0.42647 0.0
H122 H 0.8455 0.65644 0.35334 0.0
H123 H 0.86781 0.69262 0.32382 0.0
N124 N 0.87501 0.74305 0.30739 0.0
N125 N 0.8851 0.7895 0.29964 0.0
N126 N 0.87271 0.77208 0.3494 0.0
C127 C 0.88244 0.76418 0.28814 0.0
C128 C 0.88048 0.79347 0.33052 0.0
C129 C 0.86993 0.7468 0.33798 0.0
C130 C 0.88694 0.75894 0.25503 0.0
C131 C 0.90193 0.73455 0.24752 0.0
C132 C 0.90172 0.72577 0.21708 0.0
C133 C 0.88617 0.74101 0.1935 0.0
C134 C 0.87229 0.76627 0.20063 0.0
C135 C 0.87292 0.77535 0.23125 0.0
C136 C 0.88516 0.82031 0.3441 0.0
C137 C 0.89929 0.84053 0.32734 0.0
C138 C 0.90636 0.86445 0.34167 0.0
C139 C 0.89935 0.86865 0.37297 0.0
C140 C 0.88402 0.84911 0.38915 0.0
C141 C 0.87705 0.82521 0.37492 0.0
C142 C 0.85988 0.7239 0.35792 0.0
C143 C 0.84899 0.72876 0.38762 0.0
C144 C 0.76551 0.92292 0.88883 0.0
C145 C 0.75367 0.91221 0.91643 0.0
C146 C 0.76721 0.88849 0.93147 0.0
C147 C 0.79165 0.87602 0.91937 0.0
H148 H 0.85101 0.80691 0.93308 0.0
H149 H 0.87324 0.76319 0.95463 0.0
H150 H 0.93231 0.76394 0.87985 0.0
H151 H 0.91018 0.80703 0.85823 0.0
H152 H 0.91414 0.85721 0.81334 0.0
H153 H 0.93655 0.87828 0.76854 0.0
H154 H 0.87088 0.94285 0.76101 0.0
H155 H 0.84805 0.92148 0.80582 0.0
H156 H 0.79813 0.91954 0.85549 0.0
H157 H 0.75567 0.94076 0.87607 0.0
H158 H 0.75915 0.87969 0.95294 0.0
H159 H 0.80134 0.85791 0.9318 0.0
N160 N 0.84161 0.84948 0.8919 0.0
N161 N 0.87689 0.85012 0.8547 0.0
N162 N 0.84182 0.88582 0.85341 0.0
C163 C 0.86528 0.83749 0.87993 0.0
C164 C 0.8655 0.87422 0.84122 0.0
C165 C 0.82965 0.87368 0.87876 0.0
C166 C 0.87859 0.81075 0.89375 0.0
C167 C 0.86871 0.79775 0.92119 0.0
C168 C 0.88159 0.77268 0.93368 0.0
C169 C 0.9046 0.75976 0.91897 0.0
C170 C 0.91444 0.77286 0.89164 0.0
C171 C 0.90173 0.79786 0.8793 0.0
C172 C 0.87912 0.88753 0.81353 0.0
C173 C 0.90432 0.87591 0.80227 0.0
C174 C 0.91738 0.88815 0.77653 0.0
C175 C 0.90572 0.91243 0.761 0.0
C176 C 0.88043 0.92403 0.77208 0.0
C177 C 0.86737 0.91181 0.79799 0.0
C178 C 0.80349 0.88684 0.89183 0.0
C179 C 0.78996 0.91052 0.87681 0.0
C180 C 0.6781 0.1932 0.19804 0.0
C181 C 0.65025 0.19742 0.1886 0.0
C182 C 0.63418 0.2197 0.20037 0.0
C183 C 0.64548 0.23687 0.2218 0.0
H184 H 0.65681 0.33243 0.2697 0.0
H185 H 0.63756 0.37109 0.29937 0.0
H186 H 0.64299 0.31846 0.38394 0.0
H187 H 0.66352 0.2808 0.35451 0.0
H188 H 0.74085 0.27111 0.34864 0.0
H189 H 0.78509 0.25697 0.37338 0.0
H190 H 0.80661 0.20653 0.29574 0.0
H191 H 0.76195 0.22064 0.27053 0.0
H192 H 0.71077 0.20596 0.2267 0.0
H193 H 0.69099 0.17609 0.18964 0.0
H194 H 0.61275 0.22376 0.19319 0.0
H195 H 0.63231 0.25349 0.2308 0.0
N196 N 0.66861 0.26929 0.26974 0.0
N197 N 0.70399 0.2752 0.30607 0.0
N198 N 0.71031 0.2416 0.26896 0.0
C199 C 0.67845 0.28262 0.29429 0.0
C200 C 0.7202 0.25497 0.29344 0.0
C201 C 0.68449 0.24855 0.25699 0.0
C202 C 0.66152 0.30386 0.30998 0.0
C203 C 0.65328 0.3292 0.29452 0.0
C204 C 0.64235 0.35127 0.31156 0.0
C205 C 0.63926 0.34811 0.34423 0.0
C206 C 0.64591 0.32199 0.35906 0.0
C207 C 0.65727 0.30027 0.34219 0.0
C208 C 0.74773 0.24691 0.30758 0.0
C209 C 0.75494 0.25712 0.33658 0.0
C210 C 0.78026 0.24897 0.3509 0.0
C211 C 0.79912 0.23061 0.33651 0.0
C212 C 0.79239 0.22085 0.30719 0.0
C213 C 0.76681 0.2288 0.29291 0.0
C214 C 0.67312 0.2321 0.23204 0.0
C215 C 0.6894 0.21031 0.21948 0.0
C216 C 0.24325 0.59179 0.17358 0.0
C217 C 0.23315 0.59495 0.14266 0.0
C218 C 0.24957 0.6069 0.11955 0.0
C219 C 0.27548 0.61584 0.12725 0.0
H220 H 0.3239 0.69104 0.11609 0.0
H221 H 0.34481 0.73105 0.09122 0.0
H222 H 0.42547 0.69769 0.12332 0.0
H223 H 0.4048 0.65804 0.14796 0.0
H224 H 0.40514 0.63066 0.21577 0.0
H225 H 0.42989 0.61737 0.26395 0.0
H226 H 0.35958 0.57541 0.29832 0.0
H227 H 0.33412 0.58933 0.24976 0.0
H228 H 0.27662 0.59763 0.20526 0.0
H229 H 0.23101 0.58251 0.19179 0.0
H230 H 0.24216 0.60976 0.09558 0.0
H231 H 0.28754 0.6251 0.10887 0.0
N232 N 0.32488 0.64122 0.14685 0.0
N233 N 0.36364 0.63962 0.18001 0.0
N234 N 0.32688 0.61238 0.19274 0.0
C235 C 0.35019 0.64989 0.1537 0.0
C236 C 0.35227 0.62098 0.19972 0.0
C237 C 0.31318 0.62226 0.16614 0.0
C238 C 0.3627 0.67158 0.13422 0.0
C239 C 0.34615 0.69201 0.11717 0.0
C240 C 0.35807 0.71494 0.10312 0.0
C241 C 0.38674 0.7175 0.10546 0.0
C242 C 0.40336 0.69618 0.12086 0.0
C243 C 0.39147 0.67356 0.13519 0.0
C244 C 0.3675 0.61115 0.22879 0.0
C245 C 0.39478 0.61852 0.2334 0.0
C246 C 0.40916 0.61071 0.26104 0.0
C247 C 0.39678 0.59521 0.28492 0.0
C248 C 0.36959 0.58752 0.28038 0.0
C249 C 0.3551 0.59534 0.25251 0.0
C250 C 0.28571 0.61264 0.15816 0.0
C251 C 0.26939 0.60033 0.18122 0.0
C252 C 0.19529 0.16933 0.66647 0.0
C253 C 0.17449 0.15371 0.6794 0.0
C254 C 0.16343 0.16058 0.70846 0.0
C255 C 0.17167 0.18383 0.72324 0.0
H256 H 0.19421 0.23742 0.81738 0.0
H257 H 0.18426 0.26035 0.86648 0.0
H258 H 0.14623 0.33104 0.81334 0.0
H259 H 0.15612 0.30829 0.76513 0.0
H260 H 0.21173 0.32807 0.71877 0.0
H261 H 0.23731 0.36138 0.68869 0.0
H262 H 0.27202 0.29619 0.63285 0.0
H263 H 0.24651 0.26251 0.66313 0.0
H264 H 0.21891 0.20463 0.6699 0.0
H265 H 0.20452 0.16416 0.64436 0.0
H266 H 0.14729 0.14892 0.7189 0.0
H267 H 0.16175 0.18939 0.74483 0.0
N268 N 0.18538 0.23557 0.74925 0.0
N269 N 0.20127 0.27984 0.74021 0.0
N270 N 0.21003 0.24624 0.70365 0.0
C271 C 0.18788 0.26168 0.75852 0.0
C272 C 0.2126 0.27229 0.7129 0.0
C273 C 0.19635 0.22778 0.72156 0.0
C274 C 0.17596 0.27127 0.78774 0.0
C275 C 0.18283 0.25741 0.81655 0.0
C276 C 0.17735 0.2706 0.8445 0.0
C277 C 0.16458 0.29753 0.84377 0.0
C278 C 0.15574 0.31018 0.81486 0.0
C279 C 0.16152 0.29725 0.78717 0.0
C280 C 0.22721 0.29255 0.69349 0.0
C281 C 0.22472 0.32074 0.70004 0.0
C282 C 0.23919 0.33991 0.68266 0.0
C283 C 0.2566 0.33134 0.65849 0.0
C284 C 0.25884 0.30327 0.65155 0.0
C285 C 0.24416 0.28405 0.66879 0.0
C286 C 0.19111 0.20061 0.70917 0.0
C287 C 0.20355 0.19249 0.6812 0.0
Nd288 Nd 0.04503 0.99229 0.51199 0.0
Nd289 Nd 1.01759 0.04784 0.52564 0.0
C290 C 0.05835 0.93965 0.50338 0.0
C291 C 0.06945 0.91706 0.52496 0.0
C292 C 0.06014 0.91482 0.55593 0.0
C293 C 0.07478 0.89745 0.57815 0.0
C294 C 0.09913 0.88242 0.56983 0.0
C295 C 0.1074 0.88338 0.53844 0.0
C296 C 0.09261 0.90052 0.51615 0.0
C297 C 0.07554 0.02259 0.55051 0.0
C298 C 1.00383 0.99782 0.57332 0.0
C299 C 1.00391 0.10061 0.53304 0.0
C300 C 0.99359 0.12229 0.51003 0.0
C301 C 0.97503 0.14369 0.51915 0.0
C302 C 0.96018 0.1605 0.49654 0.0
C303 C 0.96359 0.15589 0.46456 0.0
C304 C 0.98368 0.13573 0.45555 0.0
C305 C 0.9985 0.11901 0.4781 0.0
C306 C 0.98745 1.01699 0.48713 0.0
C307 C 0.05913 0.04269 0.46481 0.0
O308 O 0.03288 0.9493 0.50779 0.0
O309 O 0.07524 0.95918 0.49791 0.0
O310 O 0.08647 1.00649 0.53008 0.0
O311 O 0.04988 1.02069 0.55176 0.0
O312 O 1.0135 0.98186 0.55103 0.0
O313 O 1.00733 0.02463 0.57166 0.0
O314 O 0.02951 0.0909 0.52976 0.0
O315 O 0.98694 0.08113 0.53832 0.0
O316 O 0.9763 0.03251 0.50798 0.0
O317 O 1.01297 1.01956 0.48588 0.0
O318 O 0.04946 0.05843 0.48723 0.0
O319 O 0.05557 1.01589 0.46619 0.0
H320 H 0.04253 0.92763 0.56343 0.0
H321 H 0.06811 0.89723 0.60224 0.0
H322 H 0.12601 0.8718 0.53144 0.0
H323 H 0.10021 0.90211 0.49245 0.0
H324 H 0.97077 0.14627 0.54369 0.0
H325 H 0.94463 0.17573 0.50412 0.0
H326 H 0.98686 0.13193 0.43106 0.0
H327 H 1.01255 0.10242 0.47054 0.0
Nd328 Nd 0.53254 1.00669 0.04295 0.0
Nd329 Nd 0.52696 0.04593 0.99126 0.0
C330 C 0.53836 0.9609 0.07902 0.0
C331 C 0.52421 0.9349 0.07995 0.0
C332 C 0.5201 0.92069 0.05259 0.0
C333 C 0.50505 0.89711 0.05342 0.0
C334 C 0.49356 0.88735 0.08156 0.0
C335 C 0.4979 0.90154 0.10895 0.0
C336 C 0.51314 0.92503 0.10813 0.0
C337 C 0.48876 0.04519 0.05089 0.0
C338 C 0.49639 0.99177 0.98087 0.0
C339 C 0.52203 0.09136 0.95447 0.0
C340 C 0.53484 0.11809 0.95474 0.0
C341 C 0.53346 0.13418 0.98123 0.0
C342 C 0.54802 0.15802 0.98224 0.0
C343 C 0.56439 0.16613 0.95696 0.0
C344 C 0.56516 0.15041 0.93018 0.0
C345 C 0.55047 0.12665 0.92908 0.0
C346 C 0.57066 1.00715 0.9839 0.0
C347 C 0.56223 0.06135 0.05336 0.0
O348 O 0.55384 0.9657 0.05478 0.0
O349 O 0.52343 0.98284 0.08678 0.0
O350 O 0.50691 0.037 0.07236 0.0
O351 O 0.49416 0.03339 0.02557 0.0
O352 O 0.51063 0.98235 1.00595 0.0
O353 O 0.49633 1.01785 0.97125 0.0
O354 O 0.5047 0.08595 0.9768 0.0
O355 O 0.53874 0.07007 0.94873 0.0
O356 O 0.55243 1.01494 0.96239 0.0
O357 O 0.56527 1.0194 1.00889 0.0
O358 O 0.54643 0.07079 0.02949 0.0
O359 O 0.56405 0.03484 0.06148 0.0
H360 H 0.52822 0.92792 0.03041 0.0
H361 H 0.50246 0.88653 0.03197 0.0
H362 H 0.48898 0.8949 0.13092 0.0
H363 H 0.51581 0.93583 0.12943 0.0
H364 H 0.52158 0.12813 1.00142 0.0
H365 H 0.54652 0.1701 1.00284 0.0
H366 H 0.57774 0.15602 0.9104 0.0
H367 H 0.55193 0.11451 0.90848 0.0
Nd368 Nd 0.50444 0.51184 0.52337 0.0
Nd369 Nd 0.5547 0.54846 0.5252 0.0
C370 C 0.45601 0.49192 0.51315 0.0
C371 C 0.43122 0.4841 0.52975 0.0
C372 C 0.40599 0.48494 0.51343 0.0
C373 C 0.38293 0.47413 0.52751 0.0
C374 C 0.38487 0.46212 0.55808 0.0
C375 C 0.4099 0.46268 0.5749 0.0
C376 C 0.43288 0.47368 0.56087 0.0
C377 C 0.54126 0.49869 0.57163 0.0
C378 C 0.50021 0.56845 0.56334 0.0
C379 C 0.60265 0.56898 0.53647 0.0
C380 C 0.62913 0.57519 0.52262 0.0
C381 C 0.64031 0.56052 0.4977 0.0
C382 C 0.66515 0.56796 0.4843 0.0
C383 C 0.67879 0.59027 0.49553 0.0
C384 C 0.66771 0.60441 0.52091 0.0
C385 C 0.6431 0.59689 0.53434 0.0
C386 C 0.51741 0.56139 0.4772 0.0
C387 C 0.55897 0.492 0.48506 0.0
O388 O 0.45998 0.51833 0.51007 0.0
O389 O 0.47869 0.47643 0.51953 0.0
O390 O 0.52672 0.48044 0.55911 0.0
O391 O 0.5337 0.52255 0.56104 0.0
O392 O 0.48648 0.55023 0.54842 0.0
O393 O 0.52735 0.56887 0.56174 0.0
O394 O 0.59808 0.5429 0.54202 0.0
O395 O 0.58089 0.58405 0.5258 0.0
O396 O 0.53155 0.57987 0.48989 0.0
O397 O 0.52544 0.53765 0.48768 0.0
O398 O 0.57278 0.51055 0.49934 0.0
O399 O 0.53186 0.49131 0.48702 0.0
H400 H 0.40438 0.49309 0.48942 0.0
H401 H 0.36381 0.47444 0.51416 0.0
H402 H 0.4122 0.45337 0.59835 0.0
H403 H 0.45222 0.47299 0.57387 0.0
H404 H 0.62967 0.54371 0.48835 0.0
H405 H 0.67323 0.55689 0.46462 0.0
H406 H 0.67799 0.62147 0.5302 0.0
H407 H 0.63474 0.60831 0.55366 0.0
Nd408 Nd 1.00492 0.51846 0.04111 0.0
Nd409 Nd 0.05547 0.5322 1.00335 0.0
C410 C 0.95341 0.51656 0.05991 0.0
C411 C 0.93327 0.54025 0.06272 0.0
C412 C 0.90513 0.53691 0.06799 0.0
C413 C 0.88683 0.56022 0.07139 0.0
C414 C 0.89647 0.58694 0.06849 0.0
C415 C 0.92444 0.59002 0.06223 0.0
C416 C 0.94268 0.56695 0.05996 0.0
C417 C 0.04532 0.54273 0.07333 0.0
C418 C 1.00583 0.57857 0.99964 0.0
C419 C 0.10648 0.53656 0.98393 0.0
C420 C 0.12775 0.51498 0.97555 0.0
C421 C 0.14163 0.49761 0.99873 0.0
C422 C 0.15642 0.47332 0.99064 0.0
C423 C 0.15744 0.46585 0.95931 0.0
C424 C 0.14571 0.48461 0.936 0.0
C425 C 0.13127 0.50899 0.94403 0.0
C426 C 1.01512 0.50781 0.97108 0.0
C427 C 0.05433 0.4713 0.04435 0.0
O428 O 0.96087 0.51178 0.03127 0.0
O429 O 0.97451 0.51585 0.0793 0.0
O430 O 0.03144 0.52294 0.08536 0.0
O431 O 0.03681 0.54968 0.04608 0.0
O432 O 0.99128 0.55808 1.01037 0.0
O433 O 0.0331 0.57546 0.99902 0.0
O434 O 0.09977 0.53709 1.01349 0.0
O435 O 0.08487 0.53984 0.96519 0.0
O436 O 0.02907 0.52751 0.95896 0.0
O437 O 1.02366 0.50097 0.99834 0.0
O438 O 0.06908 0.49079 0.03125 0.0
O439 O 1.0272 0.47533 0.04715 0.0
H440 H 0.89753 0.51643 0.07023 0.0
H441 H 0.8654 0.55744 0.07688 0.0
H442 H 0.93257 0.61033 0.0609 0.0
H443 H 0.96439 0.57004 0.057 0.0
H444 H 0.1398 0.50188 0.02327 0.0
H445 H 0.16593 0.45976 1.00904 0.0
H446 H 0.14584 0.47962 0.91161 0.0
H447 H 0.12113 0.52215 0.92561 0.0
C448 C 0.15687 0.1073 0.33186 0.0
C449 C 0.14148 0.11876 0.30584 0.0
C450 C 0.14392 0.09473 0.35775 0.0
C451 C 0.11478 0.09333 0.35781 0.0
C452 C 0.09915 0.10464 0.33153 0.0
C453 C 0.11262 0.11718 0.30603 0.0
C454 C 0.16145 0.08318 0.38525 0.0
C455 C 0.06812 0.1035 0.33032 0.0
C456 C 0.08288 0.03962 0.41263 0.0
C457 C 0.07341 0.05557 0.43743 0.0
C458 C 0.09632 0.05157 0.38672 0.0
C459 C 0.1006 0.08024 0.38538 0.0
C460 C 0.09113 0.09644 0.41035 0.0
C461 C 0.07767 0.08398 0.43592 0.0
C462 C 0.10588 0.03348 0.36067 0.0
C463 C 0.09519 0.12702 0.41009 0.0
H464 H 0.1791 0.10863 0.33229 0.0
H465 H 0.10046 0.12553 0.28598 0.0
H466 H 0.15505 0.09379 0.40667 0.0
H467 H 0.15828 0.06089 0.38952 0.0
H468 H 0.18383 0.08561 0.38158 0.0
H469 H 0.05892 0.113 0.30817 0.0
H470 H 0.06252 0.08171 0.33275 0.0
H471 H 0.05871 0.11445 0.35018 0.0
H472 H 0.07974 1.0177 0.41337 0.0
H473 H 0.07051 0.09662 0.45481 0.0
H474 H 0.12854 0.03422 0.35773 0.0
H475 H 0.09591 0.04132 0.33826 0.0
H476 H 0.10101 1.0116 0.3651 0.0
H477 H 0.11754 0.13052 0.40849 0.0
H478 H 0.08686 0.13673 0.43133 0.0
H479 H 0.08482 0.13761 0.3892 0.0
C480 C 0.44293 0.86962 0.88308 0.0
C481 C 0.41494 0.87394 0.87421 0.0
C482 C 0.45605 0.88897 0.90044 0.0
C483 C 0.44075 0.91298 0.90974 0.0
C484 C 0.41243 0.91728 0.90141 0.0
C485 C 0.4 0.89795 0.88342 0.0
C486 C 0.48633 0.88371 0.90883 0.0
C487 C 0.3952 0.94219 0.91177 0.0
C488 C 0.46998 0.94953 0.97812 0.0
C489 C 0.48116 0.97234 0.96287 0.0
C490 C 0.45602 0.93049 0.96123 0.0
C491 C 0.45434 0.93368 0.92818 0.0
C492 C 0.46584 0.9566 0.91267 0.0
C493 C 0.4787 0.97594 0.93028 0.0
C494 C 0.44349 0.90685 0.97892 0.0
C495 C 0.46511 0.96035 0.87745 0.0
H496 H 0.45461 0.85097 0.8767 0.0
H497 H 0.37854 0.90188 0.87633 0.0
H498 H 0.49791 0.90164 0.90074 0.0
H499 H 0.48891 0.88133 0.93461 0.0
H500 H 0.49568 0.86482 0.89836 0.0
H501 H 0.37322 0.94206 0.90422 0.0
H502 H 0.39606 0.94281 0.93766 0.0
H503 H 0.40369 0.96143 0.9021 0.0
H504 H 0.47185 0.94674 1.00336 0.0
H505 H 0.48765 0.99341 0.91845 0.0
H506 H 0.458 0.8882 0.97871 0.0
H507 H 0.42369 0.90176 0.96808 0.0
H508 H 0.4396 0.91171 1.00366 0.0
H509 H 0.47557 0.94199 0.86704 0.0
H510 H 0.47535 0.97906 0.86898 0.0
H511 H 0.4434 0.96204 0.86878 0.0
C512 C 0.6186 0.47537 0.73482 0.0
C513 C 0.6468 0.46704 0.73332 0.0
C514 C 0.60259 0.48104 0.70758 0.0
C515 C 0.61511 0.47853 0.67803 0.0
C516 C 0.64376 0.47105 0.67627 0.0
C517 C 0.6593 0.46535 0.70398 0.0
C518 C 0.57212 0.48912 0.71045 0.0
C519 C 0.65783 0.46841 0.64514 0.0
C520 C 0.56636 0.46625 0.61085 0.0
C521 C 0.56127 0.49306 0.59766 0.0
C522 C 0.58448 0.46107 0.63657 0.0
C523 C 0.59789 0.48325 0.64911 0.0
C524 C 0.59341 0.51022 0.63522 0.0
C525 C 0.57502 0.51483 0.60976 0.0
C526 C 0.58866 0.43204 0.65086 0.0
C527 C 0.60746 0.53436 0.64774 0.0
H528 H 0.60894 0.47719 0.75744 0.0
H529 H 0.68103 0.45871 0.70267 0.0
H530 H 0.56695 0.50934 0.69788 0.0
H531 H 0.5598 0.47364 0.69941 0.0
H532 H 0.56569 0.49064 0.73519 0.0
H533 H 0.68053 0.46391 0.64778 0.0
H534 H 0.64912 0.45153 0.63238 0.0
H535 H 0.65392 0.48775 0.63046 0.0
H536 H 0.5558 0.4494 0.60145 0.0
H537 H 0.57115 0.53561 0.59956 0.0
H538 H 0.58083 0.43146 0.67514 0.0
H539 H 0.61102 0.42548 0.65214 0.0
H540 H 0.57783 0.41689 0.63738 0.0
H541 H 0.59988 0.5384 0.67158 0.0
H542 H 0.60355 0.55353 0.63269 0.0
H543 H 0.63011 0.52947 0.64969 0.0
C544 C 0.90437 0.71388 0.14936 0.0
C545 C 0.88201 0.7282 0.16319 0.0
C546 C 0.90007 0.6943 0.12716 0.0
C547 C 0.87267 0.68944 0.11806 0.0
C548 C 0.85029 0.70657 0.1287 0.0
C549 C 0.85519 0.72565 0.1515 0.0
C550 C 0.92472 0.67683 0.11608 0.0
C551 C 0.82093 0.70316 0.11838 0.0
C552 C 0.87828 0.6357 0.05776 0.0
C553 C 0.8795 0.61164 0.07733 0.0
C554 C 0.8721 0.66171 0.06996 0.0
C555 C 0.86789 0.66342 0.10247 0.0
C556 C 0.86555 0.6389 0.12136 0.0
C557 C 0.87115 0.61319 0.10839 0.0
C558 C 0.87272 0.6874 0.04878 0.0
C559 C 0.8608 0.63974 0.15614 0.0
H560 H 0.92517 0.71638 0.15785 0.0
H561 H 0.83778 0.73683 0.16191 0.0
H562 H 0.92354 0.65514 0.12516 0.0
H563 H 0.92473 0.67672 0.09018 0.0
H564 H 0.94465 0.68434 0.12404 0.0
H565 H 0.80836 0.72313 0.11867 0.0
H566 H 0.81995 0.69516 0.09456 0.0
H567 H 0.81143 0.68832 0.13486 0.0
H568 H 0.88439 0.63434 0.03359 0.0
H569 H 0.87214 0.59454 0.12347 0.0
H570 H 0.89067 0.69919 0.05494 0.0
H571 H 0.85383 0.70108 0.05214 0.0
H572 H 0.87413 0.68251 0.02372 0.0
H573 H 0.87936 0.64707 0.16774 0.0
H574 H 0.85675 0.6191 0.16679 0.0
H575 H 0.84305 0.65441 0.16101 0.0
C576 C 0.33751 0.09582 0.10994 0.0
C577 C 0.33196 0.12471 0.1083 0.0
C578 C 0.36241 0.08337 0.09873 0.0
C579 C 0.38259 0.09997 0.08518 0.0
C580 C 0.37692 0.12906 0.08275 0.0
C581 C 0.35188 0.14101 0.09433 0.0
C582 C 0.36736 0.05232 0.10195 0.0
C583 C 0.39764 0.1477 0.06852 0.0
C584 C 0.45784 0.07022 0.08851 0.0
C585 C 0.46191 0.06044 0.05839 0.0
C586 C 0.43244 0.08332 0.09725 0.0
C587 C 0.41019 0.08701 0.07539 0.0
C588 C 0.4143 0.07767 0.04468 0.0
C589 C 0.44003 0.06452 0.03656 0.0
C590 C 0.42931 0.09282 0.1302 0.0
C591 C 0.39135 0.08123 0.0205 0.0
H592 H 0.32228 0.08277 0.11999 0.0
H593 H 0.34828 0.1633 0.0931 0.0
H594 H 0.37204 0.04388 0.07881 0.0
H595 H 0.3856 0.04678 0.11739 0.0
H596 H 0.34931 0.04215 0.11187 0.0
H597 H 0.38949 0.16965 0.0663 0.0
H598 H 0.41668 0.14636 0.08325 0.0
H599 H 0.40363 0.14087 0.04502 0.0
H600 H 0.47455 0.06732 0.1056 0.0
H601 H 0.44289 0.05711 1.01324 0.0
H602 H 0.41275 0.08181 0.14218 0.0
H603 H 0.42302 0.11523 0.12972 0.0
H604 H 0.44871 0.08906 0.14422 0.0
H605 H 0.37357 0.06958 0.02847 0.0
H606 H 0.39801 0.07389 0.99739 0.0
H607 H 0.38391 0.10333 1.01763 0.0
C608 C 0.19545 0.83935 0.71805 0.0
C609 C 0.21316 0.816 0.71287 0.0
C610 C 0.17474 0.84864 0.69616 0.0
C611 C 0.17141 0.83398 0.66869 0.0
C612 C 0.18808 0.80951 0.66422 0.0
C613 C 0.2089 0.80097 0.68617 0.0
C614 C 0.15745 0.87496 0.70163 0.0
C615 C 0.18499 0.79317 0.63535 0.0
C616 C 0.10724 0.85111 0.61781 0.0
C617 C 0.11757 0.86862 0.59438 0.0
C618 C 0.12457 0.83936 0.64209 0.0
C619 C 0.15263 0.84577 0.64313 0.0
C620 C 0.16308 0.86348 0.61949 0.0
C621 C 0.14546 0.87453 0.59531 0.0
C622 C 0.11289 0.82015 0.6666 0.0
C623 C 0.1928 0.87111 0.61996 0.0
H624 H 0.19823 0.85083 0.73883 0.0
H625 H 0.22267 0.78318 0.68152 0.0
H626 H 0.16263 0.89127 0.684 0.0
H627 H 0.13516 0.87172 0.69868 0.0
H628 H 0.16094 0.88259 0.72532 0.0
H629 H 0.19704 0.77287 0.63728 0.0
H630 H 0.16294 0.78958 0.63105 0.0
H631 H 0.19233 0.8051 0.61465 0.0
H632 H 0.08565 0.84656 0.61705 0.0
H633 H 0.15333 0.8885 0.57753 0.0
H634 H 0.11493 0.82867 0.69004 0.0
H635 H 0.12481 0.79981 0.66728 0.0
H636 H 0.09076 0.81689 0.66212 0.0
H637 H 0.19735 0.88106 0.64208 0.0
H638 H 0.19753 0.88545 0.60002 0.0
H639 H 0.20691 0.85222 0.61909 0.0
C640 C 0.87772 0.45567 0.89354 0.0
C641 C 0.85484 0.46401 0.91139 0.0
C642 C 0.90443 0.46261 0.90169 0.0
C643 C 0.9082 0.47865 0.92801 0.0
C644 C 0.88506 0.48763 0.94572 0.0
C645 C 0.85866 0.48 0.93733 0.0
C646 C 0.92866 0.45228 0.88259 0.0
C647 C 0.88821 0.50513 0.97366 0.0
C648 C 0.97766 0.47524 0.97013 0.0
C649 C 0.98889 0.49936 0.95818 0.0
C650 C 0.9517 0.46789 0.95989 0.0
C651 C 0.93644 0.4854 0.93762 0.0
C652 C 0.94785 0.50966 0.92524 0.0
C653 C 0.97413 0.51622 0.93547 0.0
C654 C 0.94041 0.44166 0.97333 0.0
C655 C 0.93197 0.5291 0.90193 0.0
H656 H 0.8748 0.44308 0.87366 0.0
H657 H 0.84092 0.48667 0.95096 0.0
H658 H 0.94014 0.46993 0.87347 0.0
H659 H 0.94323 0.43881 0.89762 0.0
H660 H 0.92217 0.44038 0.86254 0.0
H661 H 0.86801 0.51138 0.98413 0.0
H662 H 0.90133 0.49353 0.99186 0.0
H663 H 0.89877 0.52405 0.96672 0.0
H664 H 0.98912 0.46223 0.98773 0.0
H665 H 0.9827 0.53505 0.92649 0.0
H666 H 0.93449 0.42848 0.95419 0.0
H667 H 0.92147 0.44676 0.98681 0.0
H668 H 0.95556 0.42953 0.98904 0.0
H669 H 0.9261 0.51784 0.88117 0.0
H670 H 0.94403 0.54677 0.89403 0.0
H671 H 0.91254 0.53734 0.91259 0.0
C672 C 0.81645 0.65715 0.43981 0.0
C673 C 0.8162 0.66163 0.40721 0.0
C674 C 0.79655 0.64156 0.45461 0.0
C675 C 0.77586 0.63044 0.43633 0.0
C676 C 0.77666 0.63332 0.40332 0.0
C677 C 0.79684 0.64889 0.38915 0.0
C678 C 0.79653 0.63861 0.48988 0.0
C679 C 0.7549 0.6219 0.383 0.0
C680 C 0.72612 0.58151 0.47351 0.0
C681 C 0.70369 0.59999 0.47999 0.0
C682 C 0.75004 0.59106 0.45952 0.0
C683 C 0.7512 0.61961 0.45162 0.0
C684 C 0.72841 0.63823 0.45781 0.0
C685 C 0.70499 0.62818 0.472 0.0
C686 C 0.77406 0.57073 0.45341 0.0
C687 C 0.72868 0.6688 0.44933 0.0
H688 H 0.83164 0.66664 0.4538 0.0
H689 H 0.79634 0.6525 0.36396 0.0
H690 H 0.77917 0.65187 0.49893 0.0
H691 H 0.79336 0.61697 0.4978 0.0
H692 H 0.81611 0.6448 0.50035 0.0
H693 H 0.7606 0.62254 0.35791 0.0
H694 H 0.75144 0.60024 0.39058 0.0
H695 H 0.735 0.63426 0.38539 0.0
H696 H 0.72512 0.55972 0.47988 0.0
H697 H 0.68746 0.6424 0.47661 0.0
H698 H 0.79279 0.57655 0.46596 0.0
H699 H 0.77883 0.57134 0.4281 0.0
H700 H 0.76987 0.54921 0.46099 0.0
H701 H 0.74613 0.67763 0.4615 0.0
H702 H 0.70917 0.68041 0.45566 0.0
H703 H 0.73183 0.67209 0.42382 0.0
C704 C 0.1304 0.31977 0.08242 0.0
C705 C 0.13991 0.31635 0.11357 0.0
C706 C 0.11612 0.34457 0.07101 0.0
C707 C 0.11128 0.36684 0.09105 0.0
C708 C 0.12087 0.36352 0.1225 0.0
C709 C 0.13494 0.33844 0.13333 0.0
C710 C 0.10545 0.34647 0.03771 0.0
C711 C 0.11613 0.38646 0.14485 0.0
C712 C 0.09772 0.44028 0.05468 0.0
C713 C 0.06877 0.44443 0.05606 0.0
C714 C 0.11169 0.41532 0.06604 0.0
C715 C 0.09653 0.39366 0.07909 0.0
C716 C 0.06732 0.39768 0.08052 0.0
C717 C 0.05386 0.42289 0.06907 0.0
C718 C 0.14279 0.41212 0.06412 0.0
C719 C 0.05024 0.37531 0.09427 0.0
H720 H 0.13357 0.30275 0.06705 0.0
H721 H 0.14231 0.33622 0.15736 0.0
H722 H 0.08307 0.34298 0.03761 0.0
H723 H 0.10785 0.36727 0.02657 0.0
H724 H 0.11614 0.33066 0.02332 0.0
H725 H 0.1246 0.38063 0.16863 0.0
H726 H 0.12595 0.40522 0.13585 0.0
H727 H 0.09366 0.39205 0.14668 0.0
H728 H 0.10963 0.45663 0.04481 0.0
H729 H 0.03154 0.4257 0.07036 0.0
H730 H 0.14902 0.39397 0.05039 0.0
H731 H 0.15195 0.40821 0.08788 0.0
H732 H 0.15165 0.4307 0.05319 0.0
H733 H 0.05303 0.35659 0.08043 0.0
H734 H 1.02786 0.38187 0.09466 0.0
H735 H 0.05737 0.36938 0.11851 0.0
C736 C 0.67197 0.28343 0.9467 0.0
C737 C 0.65925 0.30927 0.95324 0.0
C738 C 0.65792 0.25921 0.95119 0.0
C739 C 0.63053 0.26094 0.96246 0.0
C740 C 0.61836 0.2867 0.97125 0.0
C741 C 0.63289 0.31057 0.96654 0.0
C742 C 0.67167 0.2321 0.94171 0.0
C743 C 0.58929 0.28936 0.98362 0.0
C744 C 0.58211 0.20941 0.93296 0.0
C745 C 0.58104 0.19062 0.95872 0.0
C746 C 0.59816 0.23234 0.93399 0.0
C747 C 0.6135 0.23662 0.96147 0.0
C748 C 0.61248 0.21778 0.98762 0.0
C749 C 0.59622 0.19498 0.98593 0.0
C750 C 0.59868 0.25201 0.9056 0.0
C751 C 0.62862 0.22163 1.01726 0.0
H752 H 0.69225 0.28229 0.93618 0.0
H753 H 0.62315 0.33047 0.97205 0.0
H754 H 0.66908 0.21557 0.96004 0.0
H755 H 0.6617 0.22575 0.91997 0.0
H756 H 0.69409 0.23357 0.93736 0.0
H757 H 0.58413 0.31005 0.99289 0.0
H758 H 0.57439 0.28606 0.96453 0.0
H759 H 0.58645 0.27334 1.00246 0.0
H760 H 0.57017 0.2063 0.91202 0.0
H761 H 0.59577 0.18027 1.00574 0.0
H762 H 0.62019 0.25314 0.89725 0.0
H763 H 0.59124 0.27313 0.91187 0.0
H764 H 0.58563 0.24568 0.88605 0.0
H765 H 0.65093 0.22239 1.01203 0.0
H766 H 0.62605 0.20478 0.03527 0.0
H767 H 0.62178 0.24163 0.02716 0.0
C768 C 0.90913 0.91873 0.37467 0.0
C769 C 0.9096 0.89227 0.38941 0.0
C770 C 0.92018 0.94075 0.38962 0.0
C771 C 0.93203 0.9361 0.41992 0.0
C772 C 0.9321 0.90957 0.43512 0.0
C773 C 0.92092 0.88799 0.41967 0.0
C774 C 0.91969 0.96882 0.37279 0.0
C775 C 0.94468 0.90377 0.46739 0.0
C776 C 0.98743 0.98106 0.44765 0.0
C777 C 0.97273 0.99778 0.46843 0.0
C778 C 0.97421 0.96141 0.43102 0.0
C779 C 0.94561 0.9585 0.4353 0.0
C780 C 0.93051 0.97585 0.45567 0.0
C781 C 0.94431 0.99532 0.47208 0.0
C782 C 0.99104 0.94322 0.40959 0.0
C783 C 0.9 0.97329 0.4608 0.0
H784 H 0.90017 0.92219 0.3514 0.0
H785 H 0.92177 0.86749 0.43099 0.0
H786 H 0.90965 0.98473 0.38749 0.0
H787 H 0.94116 0.9746 0.36859 0.0
H788 H 0.90853 0.96935 0.34995 0.0
H789 H 0.94197 0.88231 0.4765 0.0
H790 H 0.96712 0.907 0.46681 0.0
H791 H 0.93517 0.91835 0.48402 0.0
H792 H 1.00943 0.98295 0.44481 0.0
H793 H 0.93294 1.00828 0.48816 0.0
H794 H 0.98149 0.94435 0.38587 0.0
H795 H 0.9913 0.92137 0.41853 0.0
H796 H 1.01274 0.94913 0.40762 0.0
H797 H 0.88872 0.97463 0.43804 0.0
H798 H 0.89091 0.98956 0.47574 0.0
H799 H 0.89664 0.95278 0.47214 0.0
C800 C 0.43413 0.65908 0.69863 0.0
C801 C 0.41801 0.68202 0.68606 0.0
C802 C 0.44704 0.63984 0.67903 0.0
C803 C 0.44403 0.64397 0.64615 0.0
C804 C 0.42801 0.6673 0.63338 0.0
C805 C 0.41508 0.68597 0.6535 0.0
C806 C 0.46378 0.61506 0.69346 0.0
C807 C 0.4247 0.67268 0.59845 0.0
C808 C 0.49874 0.61037 0.59497 0.0
C809 C 0.48536 0.58785 0.58403 0.0
C810 C 0.48551 0.62874 0.61518 0.0
C811 C 0.4583 0.62437 0.62498 0.0
C812 C 0.44463 0.60168 0.61409 0.0
C813 C 0.45828 0.58375 0.59354 0.0
C814 C 0.50063 0.65292 0.62591 0.0
C815 C 0.41567 0.59628 0.62427 0.0
H816 H 0.43618 0.6559 0.72381 0.0
H817 H 0.40283 0.70388 0.64376 0.0
H818 H 0.45558 0.59575 0.68543 0.0
H819 H 0.48554 0.61528 0.68572 0.0
H820 H 0.46353 0.6145 0.71944 0.0
H821 H 0.41145 0.69176 0.59232 0.0
H822 H 0.44526 0.67472 0.58772 0.0
H823 H 0.41544 0.65496 0.58787 0.0
H824 H 0.51962 0.6138 0.58759 0.0
H825 H 0.44788 0.56632 0.58532 0.0
H826 H 0.50242 0.65194 0.6518 0.0
H827 H 0.48875 0.6726 0.61888 0.0
H828 H 0.52171 0.65343 0.61603 0.0
H829 H 0.41498 0.59387 0.65015 0.0
H830 H 0.40815 0.57742 0.6142 0.0
H831 H 0.40125 0.61418 0.61701 0.0
C832 C 0.9489 0.92647 0.73326 0.0
C833 C 0.91997 0.92545 0.73346 0.0
C834 C 0.96266 0.93815 0.70746 0.0
C835 C 0.94728 0.94917 0.68088 0.0
C836 C 0.91808 0.94831 0.68091 0.0
C837 C 0.90483 0.93657 0.7071 0.0
C838 C 0.99375 0.93874 0.7087 0.0
C839 C 0.90079 0.95963 0.65312 0.0
C840 C 0.98012 1.00167 0.62539 0.0
C841 C 0.98942 0.98532 0.60085 0.0
C842 C 0.96644 0.99024 0.65141 0.0
C843 C 0.96174 0.96167 0.65315 0.0
C844 C 0.97107 0.94505 0.62846 0.0
C845 C 0.98475 0.95701 0.60274 0.0
C846 C 0.95704 1.00879 0.67712 0.0
C847 C 0.96657 0.91455 0.62918 0.0
H848 H 0.96089 0.91839 0.75355 0.0
H849 H 0.88256 0.93566 0.70665 0.0
H850 H 1.003 0.92744 0.68901 0.0
H851 H 0.99973 0.9604 0.70601 0.0
H852 H 1.00276 0.92933 0.73099 0.0
H853 H 0.87835 0.95751 0.65671 0.0
H854 H 0.90423 0.98182 0.64845 0.0
H855 H 0.90718 0.94864 0.63195 0.0
H856 H 0.98355 0.02353 0.62436 0.0
H857 H 0.99174 0.94409 0.58402 0.0
H858 H 0.96683 1.00108 0.69968 0.0
H859 H 0.93434 1.00842 0.67996 0.0
H860 H 0.96225 0.03053 0.67239 0.0
H861 H 0.97666 0.90409 0.65031 0.0
H862 H 0.97492 0.90444 0.60818 0.0
H863 H 0.94415 0.91139 0.63065 0.0
C864 C 0.65231 0.16816 0.14167 0.0
C865 C 0.63778 0.17796 0.16756 0.0
C866 C 0.64109 0.14903 0.12232 0.0
C867 C 0.61473 0.13945 0.12904 0.0
C868 C 0.59989 0.1494 0.15499 0.0
C869 C 0.61159 0.1685 0.17393 0.0
C870 C 0.65743 0.13908 0.0947 0.0
C871 C 0.57165 0.1398 0.16282 0.0
C872 C 0.57312 0.10964 0.0646 0.0
C873 C 0.57688 0.08111 0.07187 0.0
C874 C 0.58556 0.12881 0.08281 0.0
C875 C 0.60242 0.11925 0.10876 0.0
C876 C 0.60679 0.09049 0.11587 0.0
C877 C 0.59392 0.07175 0.09738 0.0
C878 C 0.58037 0.15932 0.07454 0.0
C879 C 0.62472 0.07953 0.14332 0.0
H880 H 0.67241 0.17562 0.1364 0.0
H881 H 0.60041 0.17566 0.19413 0.0
H882 H 0.66062 0.1162 0.09637 0.0
H883 H 0.6457 0.14476 0.07271 0.0
H884 H 0.67793 0.14799 0.09315 0.0
H885 H 0.56275 0.14964 0.18371 0.0
H886 H 0.55725 0.14463 0.1427 0.0
H887 H 0.57294 0.11704 0.16725 0.0
H888 H 0.56006 0.11713 0.04492 0.0
H889 H 0.59701 0.04978 0.10315 0.0
H890 H 0.60008 0.16828 0.06799 0.0
H891 H 0.57227 0.17027 0.09506 0.0
H892 H 0.56539 0.16343 0.05486 0.0
H893 H 0.64563 0.08742 0.14128 0.0
H894 H 0.62684 0.05658 0.14507 0.0
H895 H 0.61575 0.08702 0.16536 0.0
C896 C 0.39968 0.59107 0.34359 0.0
C897 C 0.41234 0.58784 0.31454 0.0
C898 C 0.41502 0.58656 0.37161 0.0
C899 C 0.44364 0.57872 0.37045 0.0
C900 C 0.45631 0.57469 0.34123 0.0
C901 C 0.4405 0.57917 0.31368 0.0
C902 C 0.40076 0.59076 0.40239 0.0
C903 C 0.48674 0.56615 0.339 0.0
C904 C 0.49238 0.59297 0.43697 0.0
C905 C 0.49717 0.56655 0.45131 0.0
C906 C 0.4743 0.59743 0.4111 0.0
C907 C 0.46061 0.57496 0.39964 0.0
C908 C 0.46467 0.54846 0.41482 0.0
C909 C 0.48305 0.54455 0.44035 0.0
C910 C 0.47056 0.62597 0.39541 0.0
C911 C 0.45028 0.52403 0.40355 0.0
H912 H 0.37799 0.59798 0.3444 0.0
H913 H 0.45028 0.57616 0.29132 0.0
H914 H 0.40429 0.57198 0.41809 0.0
H915 H 0.40966 0.60804 0.41427 0.0
H916 H 0.37814 0.59551 0.39938 0.0
H917 H 0.49335 0.56361 0.31446 0.0
H918 H 0.49916 0.5819 0.34938 0.0
H919 H 0.49158 0.54634 0.35254 0.0
H920 H 0.50324 0.61 0.44549 0.0
H921 H 0.48665 0.52408 0.45148 0.0
H922 H 0.44827 0.63272 0.39357 0.0
H923 H 0.47866 0.62551 0.37127 0.0
H924 H 0.48142 0.64151 0.40824 0.0
H925 H 0.42772 0.52924 0.40104 0.0
H926 H 0.45368 0.50547 0.41968 0.0
H927 H 0.45808 0.51876 0.38013 0.0
C928 C 0.14116 0.33295 0.8766 0.0
C929 C 0.16396 0.31443 0.87175 0.0
C930 C 0.14314 0.3547 0.89667 0.0
C931 C 0.16837 0.35761 0.91276 0.0
C932 C 0.19034 0.33712 0.91079 0.0
C933 C 0.18798 0.31582 0.89004 0.0
C934 C 0.11899 0.37586 0.89854 0.0
C935 C 0.21705 0.33883 0.92876 0.0
C936 C 0.17957 0.43293 0.92214 0.0
C937 C 0.16705 0.43739 0.95103 0.0
C938 C 0.18203 0.40648 0.91027 0.0
C939 C 0.1725 0.38382 0.92818 0.0
C940 C 0.16304 0.38761 0.95889 0.0
C941 C 0.15998 0.41443 0.96982 0.0
C942 C 0.19247 0.40329 0.87741 0.0
C943 C 0.15381 0.36381 0.97921 0.0
H944 H 0.12236 0.33153 0.86301 0.0
H945 H 0.2057 0.30155 0.88647 0.0
H946 H 0.11361 0.379 0.9233 0.0
H947 H 0.12476 0.39602 0.88809 0.0
H948 H 0.10035 0.3697 0.88603 0.0
H949 H 0.2296 0.3188 0.92974 0.0
H950 H 0.22942 0.35473 0.9172 0.0
H951 H 0.21297 0.34508 0.95298 0.0
H952 H 0.18592 0.45041 0.90789 0.0
H953 H 0.15022 0.41746 0.99217 0.0
H954 H 0.17512 0.39849 0.8619 0.0
H955 H 0.2084 0.38585 0.87684 0.0
H956 H 0.20146 0.42232 0.86776 0.0
H957 H 0.13164 0.36122 0.97436 0.0
H958 H 0.15624 0.36779 1.00437 0.0
H959 H 0.16562 0.34412 0.97448 0.0
C960 C 0.72196 0.95454 0.92679 0.0
C961 C 0.72735 0.92565 0.92919 0.0
C962 C 0.69703 0.96737 0.93749 0.0
C963 C 0.67667 0.95113 0.95128 0.0
C964 C 0.68217 0.92205 0.95446 0.0
C965 C 0.70723 0.90973 0.94338 0.0
C966 C 0.69228 0.99839 0.93351 0.0
C967 C 0.66124 0.90379 0.96896 0.0
C968 C 0.61923 0.98781 0.99877 0.0
C969 C 0.59746 0.99165 0.97678 0.0
C970 C 0.64492 0.97436 0.99107 0.0
C971 C 0.6491 0.96446 0.96062 0.0
C972 C 0.62695 0.96791 0.93861 0.0
C973 C 0.60158 0.98133 0.94693 0.0
C974 C 0.66776 0.97108 1.0154 0.0
C975 C 0.63017 0.95779 0.90593 0.0
H976 H 0.73734 0.96732 0.91655 0.0
H977 H 0.71072 0.88743 0.94519 0.0
H978 H 0.67413 1.00376 0.91789 0.0
H979 H 0.68757 1.0073 0.9564 0.0
H980 H 0.71044 1.00826 0.92342 0.0
H981 H 0.66923 0.88182 0.97169 0.0
H982 H 0.6552 0.91107 0.99227 0.0
H983 H 0.64226 0.90503 0.95415 0.0
H984 H 0.61631 0.99564 0.0219 0.0
H985 H 0.58495 0.98404 0.92973 0.0
H986 H 0.68567 0.98246 1.00724 0.0
H987 H 0.67503 0.94898 1.01882 0.0
H988 H 0.66105 0.97891 0.03828 0.0
H989 H 0.64686 0.96848 0.89379 0.0
H990 H 0.61085 0.96142 0.89176 0.0
H991 H 0.63632 0.93534 0.90694 0.0
C992 C 0.82443 0.21095 0.38415 0.0
C993 C 0.82518 0.22092 0.35295 0.0
C994 C 0.84873 0.20176 0.40043 0.0
C995 C 0.87446 0.20287 0.38521 0.0
C996 C 0.8754 0.21318 0.35376 0.0
C997 C 0.85064 0.22189 0.33785 0.0
C998 C 0.8468 0.19045 0.43379 0.0
C999 C 0.90252 0.21496 0.33698 0.0
C1000 C 0.93574 0.19741 0.44139 0.0
C1001 C 0.9436 0.16911 0.44117 0.0
C1002 C 0.91426 0.20914 0.4218 0.0
C1003 C 0.90008 0.192 0.40207 0.0
C1004 C 0.90869 0.16365 0.40091 0.0
C1005 C 0.93043 0.15259 0.42037 0.0
C1006 C 0.90589 0.23955 0.42329 0.0
C1007 C 0.89383 0.1446 0.38058 0.0
H1008 H 0.80468 0.20994 0.3957 0.0
H1009 H 0.85119 0.22984 0.31378 0.0
H1010 H 0.85539 0.16866 0.43567 0.0
H1011 H 0.8593 0.20238 0.44952 0.0
H1012 H 0.82518 0.19124 0.44225 0.0
H1013 H 0.89979 0.22454 0.31297 0.0
H1014 H 0.91661 0.22725 0.35041 0.0
H1015 H 0.9128 0.19397 0.3354 0.0
H1016 H 0.94603 0.21021 0.45734 0.0
H1017 H 0.93614 0.13061 0.4205 0.0
H1018 H 0.88545 0.24222 0.4346 0.0
H1019 H 0.90375 0.24937 0.39937 0.0
H1020 H 0.92105 0.2506 0.43678 0.0
H1021 H 0.87257 0.14249 0.38936 0.0
H1022 H 0.90457 0.12366 0.38036 0.0
H1023 H 0.89194 0.15335 0.35619 0.0
C1024 C 0.20177 0.56987 0.10883 0.0
C1025 C 0.20534 0.58627 0.13448 0.0
C1026 C 0.17542 0.56227 0.10017 0.0
C1027 C 0.15208 0.57173 0.11728 0.0
C1028 C 0.15561 0.58817 0.14331 0.0
C1029 C 0.18226 0.59506 0.15176 0.0
C1030 C 0.17253 0.54431 0.07259 0.0
C1031 C 0.13117 0.59901 0.16178 0.0
C1032 C 0.08311 0.57498 0.07408 0.0
C1033 C 0.07155 0.55115 0.08634 0.0
C1034 C 0.10904 0.58228 0.08452 0.0
C1035 C 0.12391 0.56503 0.10735 0.0
C1036 C 0.11217 0.54105 0.12001 0.0
C1037 C 0.08595 0.53452 0.10954 0.0
C1038 C 0.1207 0.6082 0.07073 0.0
C1039 C 0.12762 0.52188 0.14395 0.0
H1040 H 0.21966 0.56287 0.09563 0.0
H1041 H 0.18499 0.60797 0.17141 0.0
H1042 H 0.16183 0.52555 0.07977 0.0
H1043 H 0.15965 0.55566 0.05399 0.0
H1044 H 0.19283 0.5378 0.06253 0.0
H1045 H 0.13747 0.61118 0.18169 0.0
H1046 H 0.1169 0.61235 0.14625 0.0
H1047 H 0.11943 0.5816 0.17102 0.0
H1048 H 0.07195 0.58782 0.0561 0.0
H1049 H 0.07713 0.51592 0.11879 0.0
H1050 H 0.1398 0.60272 0.05771 0.0
H1051 H 0.12644 0.62167 0.08967 0.0
H1052 H 0.10584 0.62016 0.05453 0.0
H1053 H 0.14716 0.51334 0.1338 0.0
H1054 H 0.11534 0.5044 0.15196 0.0
H1055 H 0.13325 0.53344 0.16456 0.0
C1056 C 0.26118 0.37734 0.63085 0.0
C1057 C 0.27326 0.35155 0.64159 0.0
C1058 C 0.27714 0.39719 0.61628 0.0
C1059 C 0.30583 0.39108 0.61267 0.0
C1060 C 0.31808 0.36497 0.62324 0.0
C1061 C 0.3016 0.34546 0.63749 0.0
C1062 C 0.26338 0.42471 0.60493 0.0
C1063 C 0.34869 0.35781 0.61998 0.0
C1064 C 0.34778 0.42918 0.55263 0.0
C1065 C 0.3619 0.44676 0.57136 0.0
C1066 C 0.32842 0.41187 0.56553 0.0
C1067 C 0.3233 0.41193 0.598 0.0
C1068 C 0.33654 0.43045 0.61682 0.0
C1069 C 0.35563 0.44774 0.60323 0.0
C1070 C 0.31452 0.39252 0.5447 0.0
C1071 C 0.33153 0.43109 0.65155 0.0
H1072 H 0.2392 0.38195 0.63382 0.0
H1073 H 0.31102 0.32567 0.64618 0.0
H1074 H 0.27261 0.44166 0.61705 0.0
H1075 H 0.26695 0.42826 0.57953 0.0
H1076 H 0.24074 0.42599 0.60902 0.0
H1077 H 0.35492 0.33654 0.62931 0.0
H1078 H 0.35453 0.35959 0.595 0.0
H1079 H 0.36062 0.37263 0.63264 0.0
H1080 H 0.35275 0.42799 0.52807 0.0
H1081 H 0.36615 0.4616 0.61771 0.0
H1082 H 0.29185 0.39392 0.54834 0.0
H1083 H 0.32221 0.37089 0.55084 0.0
H1084 H 0.31854 0.39706 0.51953 0.0
H1085 H 0.30905 0.43358 0.65617 0.0
H1086 H 0.34186 0.44809 0.66242 0.0
H1087 H 0.33944 0.41116 0.66316 0.0
C1088 C 0.92299 0.72759 0.96404 0.0
C1089 C 0.9184 0.73279 0.93173 0.0
C1090 C 0.93699 0.70278 0.97594 0.0
C1091 C 0.9466 0.6824 0.95519 0.0
C1092 C 0.94158 0.6873 0.92266 0.0
C1093 C 0.92768 0.71229 0.9114 0.0
C1094 C 0.94179 0.69848 1.01078 0.0
C1095 C 0.95096 0.66611 0.89962 0.0
C1096 C 1.00526 0.62875 0.98038 0.0
C1097 C 0.99088 0.6053 0.98849 0.0
C1098 C 0.99116 0.65396 0.96997 0.0
C1099 C 0.96187 0.65595 0.96737 0.0
C1100 C 0.94725 0.63238 0.97568 0.0
C1101 C 0.96185 0.60749 0.98607 0.0
C1102 C 1.00765 0.67851 0.9616 0.0
C1103 C 0.91614 0.63321 0.97298 0.0
H1104 H 0.91619 0.74322 0.98005 0.0
H1105 H 0.92388 0.7157 0.88648 0.0
H1106 H 0.93261 0.67926 1.01947 0.0
H1107 H 0.96431 0.69587 1.01595 0.0
H1108 H 0.93279 0.71605 0.02391 0.0
H1109 H 0.94528 0.67285 0.87511 0.0
H1110 H 0.97373 0.66206 0.90127 0.0
H1111 H 0.94162 0.64626 0.90538 0.0
H1112 H 1.02763 0.62746 0.98222 0.0
H1113 H 0.95037 0.58959 0.99203 0.0
H1114 H 1.00064 0.69625 0.97564 0.0
H1115 H 1.0041 0.68503 0.93662 0.0
H1116 H 0.03019 0.67394 0.96567 0.0
H1117 H 0.90663 0.65159 0.98422 0.0
H1118 H 0.90763 0.61436 0.98381 0.0
H1119 H 0.90989 0.635 0.94793 0.0
C1120 C 0.42454 0.74233 0.07933 0.0
C1121 C 0.39924 0.74337 0.09497 0.0
C1122 C 0.43892 0.76623 0.07404 0.0
C1123 C 0.42779 0.79169 0.08487 0.0
C1124 C 0.40154 0.79314 0.09914 0.0
C1125 C 0.38753 0.76894 0.10395 0.0
C1126 C 0.46667 0.76394 0.05831 0.0
C1127 C 0.38903 0.8199 0.11107 0.0
C1128 C 0.47885 0.84342 0.10778 0.0
C1129 C 0.47682 0.86269 0.08226 0.0
C1130 C 0.46289 0.82033 0.10892 0.0
C1131 C 0.44466 0.81619 0.08377 0.0
C1132 C 0.44264 0.83539 0.05782 0.0
C1133 C 0.45864 0.85846 0.05747 0.0
C1134 C 0.46556 0.80032 0.13708 0.0
C1135 C 0.42353 0.83162 0.0305 0.0
H1136 H 0.43349 0.72261 0.0721 0.0
H1137 H 0.36812 0.76978 0.11636 0.0
H1138 H 0.46762 0.78011 0.03922 0.0
H1139 H 0.48322 0.76734 0.07553 0.0
H1140 H 0.47109 0.74337 0.04846 0.0
H1141 H 0.36737 0.81813 0.11879 0.0
H1142 H 0.40149 0.82598 0.1312 0.0
H1143 H 0.38936 0.83676 0.09269 0.0
H1144 H 0.49315 0.84622 0.1268 0.0
H1145 H 0.45663 0.87339 0.0379 0.0
H1146 H 0.47263 0.77944 0.12971 0.0
H1147 H 0.4451 0.7986 0.14816 0.0
H1148 H 0.48036 0.80675 0.15489 0.0
H1149 H 0.42869 0.81135 1.02031 0.0
H1150 H 0.42478 0.84818 1.01183 0.0
H1151 H 0.40186 0.83156 0.03859 0.0
C1152 C 0.15686 0.10656 0.67526 0.0
C1153 C 0.16249 0.13218 0.66112 0.0
C1154 C 0.14389 0.08687 0.65829 0.0
C1155 C 0.13615 0.0932 0.62665 0.0
C1156 C 0.14214 0.1189 0.61219 0.0
C1157 C 0.1553 0.13803 0.62958 0.0
C1158 C 0.13805 0.05953 0.67431 0.0
C1159 C 0.13392 0.12652 0.57858 0.0
C1160 C 0.12009 0.03752 0.57126 0.0
C1161 C 0.09114 0.03952 0.57112 0.0
C1162 C 0.13511 0.05424 0.5901 0.0
C1163 C 0.12073 0.07357 0.60883 0.0
C1164 C 0.09146 0.07534 0.60907 0.0
C1165 C 0.077 0.05817 0.59028 0.0
C1166 C 0.1663 0.05168 0.58944 0.0
C1167 C 0.07541 0.09593 0.62848 0.0
H1168 H 0.16254 0.10198 0.6996 0.0
H1169 H 0.15919 0.15802 0.61874 0.0
H1170 H 0.1154 0.05759 0.67537 0.0
H1171 H 0.14687 0.04224 0.66067 0.0
H1172 H 0.14672 0.05723 0.69848 0.0
H1173 H 0.14086 0.14702 0.57059 0.0
H1174 H 0.14285 0.11073 0.56299 0.0
H1175 H 0.1111 0.12697 0.57591 0.0
H1176 H 0.131 0.023 0.55649 0.0
H1177 H 0.05459 0.05975 0.59012 0.0
H1178 H 0.17485 0.04847 0.61357 0.0
H1179 H 0.1741 0.07113 0.5794 0.0
H1180 H 0.17431 0.03432 0.57534 0.0
H1181 H 0.08205 0.09317 0.65336 0.0
H1182 H 0.05274 0.0939 0.62698 0.0
H1183 H 0.07974 0.11726 0.62041 0.0
C1184 C 0.6097 0.39182 0.35222 0.0
C1185 C 0.63024 0.37193 0.36326 0.0
C1186 C 0.60017 0.41341 0.37093 0.0
C1187 C 0.61111 0.41484 0.40158 0.0
C1188 C 0.63249 0.39543 0.41244 0.0
C1189 C 0.642 0.37447 0.39304 0.0
C1190 C 0.57766 0.43406 0.35836 0.0
C1191 C 0.64446 0.39602 0.4451 0.0
C1192 C 0.59682 0.47927 0.44788 0.0
C1193 C 0.57352 0.47219 0.46483 0.0
C1194 C 0.60919 0.46096 0.4268 0.0
C1195 C 0.59837 0.43482 0.42338 0.0
C1196 C 0.57531 0.42739 0.44117 0.0
C1197 C 0.56299 0.4463 0.46136 0.0
C1198 C 0.6334 0.46977 0.40774 0.0
C1199 C 0.5636 0.39945 0.43888 0.0
H1200 H 0.60042 0.39008 0.32932 0.0
H1201 H 0.65851 0.35977 0.40146 0.0
H1202 H 0.55818 0.43084 0.37102 0.0
H1203 H 0.58323 0.45545 0.36229 0.0
H1204 H 0.57373 0.43213 0.33296 0.0
H1205 H 0.66215 0.38049 0.44929 0.0
H1206 H 0.65152 0.41679 0.44941 0.0
H1207 H 0.62823 0.39175 0.46247 0.0
H1208 H 0.6048 0.49941 0.45036 0.0
H1209 H 0.54509 0.44072 0.47468 0.0
H1210 H 0.62809 0.46986 0.38245 0.0
H1211 H 0.65149 0.45479 0.41191 0.0
H1212 H 0.63947 0.49068 0.41333 0.0
H1213 H 0.55618 0.39689 0.41466 0.0
H1214 H 0.54614 0.39661 0.45509 0.0
H1215 H 0.57997 0.38279 0.44431 0.0
loop_
_geom_bond_atom_site_label_1
_geom_bond_atom_site_label_2
_geom_bond_distance
_geom_bond_site_symmetry_2
_ccdc_geom_bond_type
C0 C1 1.384 . S
C0 H13 0.947 . S
C0 C35 1.382 . S
C1 C0 1.384 . S
C1 C2 1.378 . S
C2 C1 1.378 . S
C2 C3 1.378 . S
C2 H14 0.952 . S
C3 C2 1.378 . S
C3 H15 0.950 . S
C3 C34 1.383 . S
H4 C23 0.947 . S
H5 C24 0.946 . S
H6 C26 0.953 . S
H7 C27 0.945 . S
H8 C29 0.952 . S
H9 C30 0.949 . S
H10 C32 0.950 . S
H11 C33 0.948 . S
H12 C35 0.951 . S
H13 C0 0.947 . S
H14 C2 0.952 . S
H15 C3 0.950 . S
N16 C19 1.382 . S
N16 C21 1.363 . S
N17 C19 1.371 . S
N17 C20 1.372 . S
N18 C20 1.361 . S
N18 C21 1.377 . S
C19 N16 1.382 . S
C19 N17 1.371 . S
C19 C22 1.480 . S
C20 N17 1.372 . S
C20 N18 1.361 . S
C20 C28 1.457 . S
C21 N16 1.363 . S
C21 N18 1.377 . S
C21 C34 1.479 . S
C22 C19 1.480 . S
C22 C23 1.383 . S
C22 C27 1.385 . S
C23 H4 0.947 . S
C23 C22 1.383 . S
C23 C24 1.388 . S
C24 H5 0.946 . S
C24 C23 1.388 . S
C24 C25 1.384 . S
C25 C24 1.384 . S
C25 C26 1.377 . S
C26 H6 0.953 . S
C26 C25 1.377 . S
C26 C27 1.369 . S
C27 H7 0.945 . S
C27 C22 1.385 . S
C27 C26 1.369 . S
C28 C20 1.457 . S
C28 C29 1.372 . S
C28 C33 1.364 . S
C29 H8 0.952 . S
C29 C28 1.372 . S
C29 C30 1.389 . S
C30 H9 0.949 . S
C30 C29 1.389 . S
C30 C31 1.387 . S
C31 C30 1.387 . S
C31 C32 1.372 . S
C32 H10 0.950 . S
C32 C31 1.372 . S
C32 C33 1.379 . S
C33 H11 0.948 . S
C33 C28 1.364 . S
C33 C32 1.379 . S
C34 C3 1.383 . S
C34 C21 1.479 . S
C34 C35 1.398 . S
C35 C0 1.382 . S
C35 H12 0.951 . S
C35 C34 1.398 . S
C36 C37 1.384 . S
C36 H49 0.947 . S
C36 C71 1.382 . S
C37 C36 1.384 . S
C37 C38 1.378 . S
C38 C37 1.378 . S
C38 C39 1.378 . S
C38 H50 0.952 . S
C39 C38 1.378 . S
C39 H51 0.950 . S
C39 C70 1.383 . S
H40 C59 0.947 . S
H41 C60 0.946 . S
H42 C62 0.953 . S
H43 C63 0.945 . S
H44 C65 0.952 . S
H45 C66 0.949 . S
H46 C68 0.950 . S
H47 C69 0.948 . S
H48 C71 0.951 . S
H49 C36 0.947 . S
H50 C38 0.952 . S
H51 C39 0.950 . S
N52 C55 1.382 . S
N52 C57 1.363 . S
N53 C55 1.371 . S
N53 C56 1.372 . S
N54 C56 1.361 . S
N54 C57 1.377 . S
C55 N52 1.382 . S
C55 N53 1.371 . S
C55 C58 1.480 . S
C56 N53 1.372 . S
C56 N54 1.361 . S
C56 C64 1.457 . S
C57 N52 1.363 . S
C57 N54 1.377 . S
C57 C70 1.479 . S
C58 C55 1.480 . S
C58 C59 1.383 . S
C58 C63 1.385 . S
C59 H40 0.947 . S
C59 C58 1.383 . S
C59 C60 1.388 . S
C60 H41 0.946 . S
C60 C59 1.388 . S
C60 C61 1.384 . S
C61 C60 1.384 . S
C61 C62 1.377 . S
C62 H42 0.953 . S
C62 C61 1.377 . S
C62 C63 1.369 . S
C63 H43 0.945 . S
C63 C58 1.385 . S
C63 C62 1.369 . S
C64 C56 1.457 . S
C64 C65 1.372 . S
C64 C69 1.364 . S
C65 H44 0.952 . S
C65 C64 1.372 . S
C65 C66 1.389 . S
C66 H45 0.949 . S
C66 C65 1.389 . S
C66 C67 1.387 . S
C67 C66 1.387 . S
C67 C68 1.372 . S
C68 H46 0.950 . S
C68 C67 1.372 . S
C68 C69 1.379 . S
C69 H47 0.948 . S
C69 C64 1.364 . S
C69 C68 1.379 . S
C70 C39 1.383 . S
C70 C57 1.479 . S
C70 C71 1.398 . S
C71 C36 1.382 . S
C71 H48 0.951 . S
C71 C70 1.398 . S
C72 C73 1.384 . S
C72 H85 0.947 . S
C72 C107 1.382 . S
C73 C72 1.384 . S
C73 C74 1.378 . S
C74 C73 1.378 . S
C74 C75 1.378 . S
C74 H86 0.952 . S
C75 C74 1.378 . S
C75 H87 0.950 . S
C75 C106 1.383 . S
H76 C95 0.947 . S
H77 C96 0.946 . S
H78 C98 0.953 . S
H79 C99 0.945 . S
H80 C101 0.952 . S
H81 C102 0.949 . S
H82 C104 0.950 . S
H83 C105 0.948 . S
H84 C107 0.951 . S
H85 C72 0.947 . S
H86 C74 0.952 . S
H87 C75 0.950 . S
N88 C91 1.382 . S
N88 C93 1.363 . S
N89 C91 1.371 . S
N89 C92 1.372 . S
N90 C92 1.361 . S
N90 C93 1.377 . S
C91 N88 1.382 . S
C91 N89 1.371 . S
C91 C94 1.480 . S
C92 N89 1.372 . S
C92 N90 1.361 . S
C92 C100 1.457 . S
C93 N88 1.363 . S
C93 N90 1.377 . S
C93 C106 1.479 . S
C94 C91 1.480 . S
C94 C95 1.383 . S
C94 C99 1.385 . S
C95 H76 0.947 . S
C95 C94 1.383 . S
C95 C96 1.388 . S
C96 H77 0.946 . S
C96 C95 1.388 . S
C96 C97 1.384 . S
C97 C96 1.384 . S
C97 C98 1.377 . S
C98 H78 0.953 . S
C98 C97 1.377 . S
C98 C99 1.369 . S
C99 H79 0.945 . S
C99 C94 1.385 . S
C99 C98 1.369 . S
C100 C92 1.457 . S
C100 C101 1.372 . S
C100 C105 1.364 . S
C101 H80 0.952 . S
C101 C100 1.372 . S
C101 C102 1.389 . S
C102 H81 0.949 . S
C102 C101 1.389 . S
C102 C103 1.387 . S
C103 C102 1.387 . S
C103 C104 1.372 . S
C104 H82 0.950 . S
C104 C103 1.372 . S
C104 C105 1.379 . S
C105 H83 0.948 . S
C105 C100 1.364 . S
C105 C104 1.379 . S
C106 C75 1.383 . S
C106 C93 1.479 . S
C106 C107 1.398 . S
C107 C72 1.382 . S
C107 H84 0.951 . S
C107 C106 1.398 . S
C108 C109 1.384 . S
C108 H121 0.947 . S
C108 C143 1.382 . S
C109 C108 1.384 . S
C109 C110 1.378 . S
C110 C109 1.378 . S
C110 C111 1.378 . S
C110 H122 0.952 . S
C111 C110 1.378 . S
C111 H123 0.950 . S
C111 C142 1.383 . S
H112 C131 0.947 . S
H113 C132 0.946 . S
H114 C134 0.953 . S
H115 C135 0.945 . S
H116 C137 0.952 . S
H117 C138 0.949 . S
H118 C140 0.950 . S
H119 C141 0.948 . S
H120 C143 0.951 . S
H121 C108 0.947 . S
H122 C110 0.952 . S
H123 C111 0.950 . S
N124 C127 1.382 . S
N124 C129 1.363 . S
N125 C127 1.371 . S
N125 C128 1.372 . S
N126 C128 1.361 . S
N126 C129 1.377 . S
C127 N124 1.382 . S
C127 N125 1.371 . S
C127 C130 1.480 . S
C128 N125 1.372 . S
C128 N126 1.361 . S
C128 C136 1.457 . S
C129 N124 1.363 . S
C129 N126 1.377 . S
C129 C142 1.479 . S
C130 C127 1.480 . S
C130 C131 1.383 . S
C130 C135 1.385 . S
C131 H112 0.947 . S
C131 C130 1.383 . S
C131 C132 1.388 . S
C132 H113 0.946 . S
C132 C131 1.388 . S
C132 C133 1.384 . S
C133 C132 1.384 . S
C133 C134 1.377 . S
C134 H114 0.953 . S
C134 C133 1.377 . S
C134 C135 1.369 . S
C135 H115 0.945 . S
C135 C130 1.385 . S
C135 C134 1.369 . S
C136 C128 1.457 . S
C136 C137 1.372 . S
C136 C141 1.364 . S
C137 H116 0.952 . S
C137 C136 1.372 . S
C137 C138 1.389 . S
C138 H117 0.949 . S
C138 C137 1.389 . S
C138 C139 1.387 . S
C139 C138 1.387 . S
C139 C140 1.372 . S
C140 H118 0.950 . S
C140 C139 1.372 . S
C140 C141 1.379 . S
C141 H119 0.948 . S
C141 C136 1.364 . S
C141 C140 1.379 . S
C142 C111 1.383 . S
C142 C129 1.479 . S
C142 C143 1.398 . S
C143 C108 1.382 . S
C143 H120 0.951 . S
C143 C142 1.398 . S
C144 C145 1.384 . S
C144 H157 0.947 . S
C144 C179 1.382 . S
C145 C144 1.384 . S
C145 C146 1.378 . S
C146 C145 1.378 . S
C146 C147 1.378 . S
C146 H158 0.952 . S
C147 C146 1.378 . S
C147 H159 0.950 . S
C147 C178 1.383 . S
H148 C167 0.947 . S
H149 C168 0.946 . S
H150 C170 0.953 . S
H151 C171 0.945 . S
H152 C173 0.952 . S
H153 C174 0.949 . S
H154 C176 0.950 . S
H155 C177 0.948 . S
H156 C179 0.951 . S
H157 C144 0.947 . S
H158 C146 0.952 . S
H159 C147 0.950 . S
N160 C163 1.382 . S
N160 C165 1.363 . S
N161 C163 1.371 . S
N161 C164 1.372 . S
N162 C164 1.361 . S
N162 C165 1.377 . S
C163 N160 1.382 . S
C163 N161 1.371 . S
C163 C166 1.480 . S
C164 N161 1.372 . S
C164 N162 1.361 . S
C164 C172 1.457 . S
C165 N160 1.363 . S
C165 N162 1.377 . S
C165 C178 1.479 . S
C166 C163 1.480 . S
C166 C167 1.383 . S
C166 C171 1.385 . S
C167 H148 0.947 . S
C167 C166 1.383 . S
C167 C168 1.388 . S
C168 H149 0.946 . S
C168 C167 1.388 . S
C168 C169 1.384 . S
C169 C168 1.384 . S
C169 C170 1.377 . S
C170 H150 0.953 . S
C170 C169 1.377 . S
C170 C171 1.369 . S
C171 H151 0.945 . S
C171 C166 1.385 . S
C171 C170 1.369 . S
C172 C164 1.457 . S
C172 C173 1.372 . S
C172 C177 1.364 . S
C173 H152 0.952 . S
C173 C172 1.372 . S
C173 C174 1.389 . S
C174 H153 0.949 . S
C174 C173 1.389 . S
C174 C175 1.387 . S
C175 C174 1.387 . S
C175 C176 1.372 . S
C176 H154 0.950 . S
C176 C175 1.372 . S
C176 C177 1.379 . S
C177 H155 0.948 . S
C177 C172 1.364 . S
C177 C176 1.379 . S
C178 C147 1.383 . S
C178 C165 1.479 . S
C178 C179 1.398 . S
C179 C144 1.382 . S
C179 H156 0.951 . S
C179 C178 1.398 . S
C180 C181 1.384 . S
C180 H193 0.947 . S
C180 C215 1.382 . S
C181 C180 1.384 . S
C181 C182 1.378 . S
C182 C181 1.378 . S
C182 C183 1.378 . S
C182 H194 0.952 . S
C183 C182 1.378 . S
C183 H195 0.950 . S
C183 C214 1.383 . S
H184 C203 0.947 . S
H185 C204 0.946 . S
H186 C206 0.953 . S
H187 C207 0.945 . S
H188 C209 0.952 . S
H189 C210 0.949 . S
H190 C212 0.950 . S
H191 C213 0.948 . S
H192 C215 0.951 . S
H193 C180 0.947 . S
H194 C182 0.952 . S
H195 C183 0.950 . S
N196 C199 1.382 . S
N196 C201 1.363 . S
N197 C199 1.371 . S
N197 C200 1.372 . S
N198 C200 1.361 . S
N198 C201 1.377 . S
C199 N196 1.382 . S
C199 N197 1.371 . S
C199 C202 1.480 . S
C200 N197 1.372 . S
C200 N198 1.361 . S
C200 C208 1.457 . S
C201 N196 1.363 . S
C201 N198 1.377 . S
C201 C214 1.479 . S
C202 C199 1.480 . S
C202 C203 1.383 . S
C202 C207 1.385 . S
C203 H184 0.947 . S
C203 C202 1.383 . S
C203 C204 1.388 . S
C204 H185 0.946 . S
C204 C203 1.388 . S
C204 C205 1.384 . S
C205 C204 1.384 . S
C205 C206 1.377 . S
C206 H186 0.953 . S
C206 C205 1.377 . S
C206 C207 1.369 . S
C207 H187 0.945 . S
C207 C202 1.385 . S
C207 C206 1.369 . S
C208 C200 1.457 . S
C208 C209 1.372 . S
C208 C213 1.364 . S
C209 H188 0.952 . S
C209 C208 1.372 . S
C209 C210 1.389 . S
C210 H189 0.949 . S
C210 C209 1.389 . S
C210 C211 1.387 . S
C211 C210 1.387 . S
C211 C212 1.372 . S
C212 H190 0.950 . S
C212 C211 1.372 . S
C212 C213 1.379 . S
C213 H191 0.948 . S
C213 C208 1.364 . S
C213 C212 1.379 . S
C214 C183 1.383 . S
C214 C201 1.479 . S
C214 C215 1.398 . S
C215 C180 1.382 . S
C215 H192 0.951 . S
C215 C214 1.398 . S
C216 C217 1.384 . S
C216 H229 0.947 . S
C216 C251 1.382 . S
C217 C216 1.384 . S
C217 C218 1.378 . S
C218 C217 1.378 . S
C218 C219 1.378 . S
C218 H230 0.952 . S
C219 C218 1.378 . S
C219 H231 0.950 . S
C219 C250 1.383 . S
H220 C239 0.947 . S
H221 C240 0.946 . S
H222 C242 0.953 . S
H223 C243 0.945 . S
H224 C245 0.952 . S
H225 C246 0.949 . S
H226 C248 0.950 . S
H227 C249 0.948 . S
H228 C251 0.951 . S
H229 C216 0.947 . S
H230 C218 0.952 . S
H231 C219 0.950 . S
N232 C235 1.382 . S
N232 C237 1.363 . S
N233 C235 1.371 . S
N233 C236 1.372 . S
N234 C236 1.361 . S
N234 C237 1.377 . S
C235 N232 1.382 . S
C235 N233 1.371 . S
C235 C238 1.480 . S
C236 N233 1.372 . S
C236 N234 1.361 . S
C236 C244 1.457 . S
C237 N232 1.363 . S
C237 N234 1.377 . S
C237 C250 1.479 . S
C238 C235 1.480 . S
C238 C239 1.383 . S
C238 C243 1.385 . S
C239 H220 0.947 . S
C239 C238 1.383 . S
C239 C240 1.388 . S
C240 H221 0.946 . S
C240 C239 1.388 . S
C240 C241 1.384 . S
C241 C240 1.384 . S
C241 C242 1.377 . S
C242 H222 0.953 . S
C242 C241 1.377 . S
C242 C243 1.369 . S
C243 H223 0.945 . S
C243 C238 1.385 . S
C243 C242 1.369 . S
C244 C236 1.457 . S
C244 C245 1.372 . S
C244 C249 1.364 . S
C245 H224 0.952 . S
C245 C244 1.372 . S
C245 C246 1.389 . S
C246 H225 0.949 . S
C246 C245 1.389 . S
C246 C247 1.387 . S
C247 C246 1.387 . S
C247 C248 1.372 . S
C248 H226 0.950 . S
C248 C247 1.372 . S
C248 C249 1.379 . S
C249 H227 0.948 . S
C249 C244 1.364 . S
C249 C248 1.379 . S
C250 C219 1.383 . S
C250 C237 1.479 . S
C250 C251 1.398 . S
C251 C216 1.382 . S
C251 H228 0.951 . S
C251 C250 1.398 . S
C252 C253 1.384 . S
C252 H265 0.947 . S
C252 C287 1.382 . S
C253 C252 1.384 . S
C253 C254 1.378 . S
C254 C253 1.378 . S
C254 C255 1.378 . S
C254 H266 0.952 . S
C255 C254 1.378 . S
C255 H267 0.950 . S
C255 C286 1.383 . S
H256 C275 0.947 . S
H257 C276 0.946 . S
H258 C278 0.953 . S
H259 C279 0.945 . S
H260 C281 0.952 . S
H261 C282 0.949 . S
H262 C284 0.950 . S
H263 C285 0.948 . S
H264 C287 0.951 . S
H265 C252 0.947 . S
H266 C254 0.952 . S
H267 C255 0.950 . S
N268 C271 1.382 . S
N268 C273 1.363 . S
N269 C271 1.371 . S
N269 C272 1.372 . S
N270 C272 1.361 . S
N270 C273 1.377 . S
C271 N268 1.382 . S
C271 N269 1.371 . S
C271 C274 1.480 . S
C272 N269 1.372 . S
C272 N270 1.361 . S
C272 C280 1.457 . S
C273 N268 1.363 . S
C273 N270 1.377 . S
C273 C286 1.479 . S
C274 C271 1.480 . S
C274 C275 1.383 . S
C274 C279 1.385 . S
C275 H256 0.947 . S
C275 C274 1.383 . S
C275 C276 1.388 . S
C276 H257 0.946 . S
C276 C275 1.388 . S
C276 C277 1.384 . S
C277 C276 1.384 . S
C277 C278 1.377 . S
C278 H258 0.953 . S
C278 C277 1.377 . S
C278 C279 1.369 . S
C279 H259 0.945 . S
C279 C274 1.385 . S
C279 C278 1.369 . S
C280 C272 1.457 . S
C280 C281 1.372 . S
C280 C285 1.364 . S
C281 H260 0.952 . S
C281 C280 1.372 . S
C281 C282 1.389 . S
C282 H261 0.949 . S
C282 C281 1.389 . S
C282 C283 1.387 . S
C283 C282 1.387 . S
C283 C284 1.372 . S
C284 H262 0.950 . S
C284 C283 1.372 . S
C284 C285 1.379 . S
C285 H263 0.948 . S
C285 C280 1.364 . S
C285 C284 1.379 . S
C286 C255 1.383 . S
C286 C273 1.479 . S
C286 C287 1.398 . S
C287 C252 1.382 . S
C287 H264 0.951 . S
C287 C286 1.398 . S
Nd288 C290 2.836 . S
Nd288 O308 2.500 . S
Nd288 O309 2.492 . S
Nd288 O310 2.487 1_565 S
Nd288 O311 2.682 1_565 S
Nd288 O312 2.410 . S
Nd288 O317 2.414 1_455 S
Nd288 O319 2.424 1_565 S
Nd289 C299 2.836 . S
Nd289 O311 2.414 1_655 S
Nd289 O313 2.424 1_545 S
Nd289 O314 2.500 . S
Nd289 O315 2.492 . S
Nd289 O316 2.487 1_545 S
Nd289 O317 2.682 1_545 S
Nd289 O318 2.410 . S
C290 Nd288 2.836 . S
C290 C291 1.498 . S
C290 O308 1.258 . S
C290 O309 1.239 . S
C291 C290 1.498 . S
C291 C292 1.366 . S
C291 C296 1.407 . S
C292 C291 1.366 . S
C292 C293 1.392 . S
C292 H320 0.930 . S
C293 C292 1.392 . S
C293 C294 1.398 . S
C293 H321 0.929 . S
C294 C293 1.398 . S
C294 C295 1.352 . S
C295 C294 1.352 . S
C295 C296 1.384 . S
C295 H322 0.930 . S
C296 C291 1.407 . S
C296 C295 1.384 . S
C296 H323 0.929 . S
C297 O310 1.241 . S
C297 O311 1.273 . S
C298 O312 1.251 1_655 S
C298 O313 1.268 . S
C299 Nd289 2.836 . S
C299 C300 1.498 . S
C299 O314 1.258 . S
C299 O315 1.239 . S
C300 C299 1.498 . S
C300 C301 1.366 . S
C300 C305 1.407 . S
C301 C300 1.366 . S
C301 C302 1.392 . S
C301 H324 0.930 . S
C302 C301 1.392 . S
C302 C303 1.398 . S
C302 H325 0.929 . S
C303 C302 1.398 . S
C303 C304 1.352 . S
C304 C303 1.352 . S
C304 C305 1.384 . S
C304 H326 0.930 . S
C305 C300 1.407 . S
C305 C304 1.384 . S
C305 H327 0.929 . S
C306 O316 1.241 . S
C306 O317 1.273 . S
C307 O318 1.251 1_455 S
C307 O319 1.268 . S
O308 Nd288 2.500 . S
O308 C290 1.258 . S
O309 Nd288 2.492 . S
O309 C290 1.239 . S
O310 Nd288 2.487 1_545 S
O310 C297 1.241 . S
O311 Nd288 2.682 1_545 S
O311 Nd289 2.414 1_455 S
O311 C297 1.273 . S
O312 Nd288 2.410 . S
O312 C298 1.251 1_455 S
O313 Nd289 2.424 1_565 S
O313 C298 1.268 . S
O314 Nd289 2.500 . S
O314 C299 1.258 . S
O315 Nd289 2.492 . S
O315 C299 1.239 . S
O316 Nd289 2.487 1_565 S
O316 C306 1.241 . S
O317 Nd288 2.414 1_655 S
O317 Nd289 2.682 1_565 S
O317 C306 1.273 . S
O318 Nd289 2.410 . S
O318 C307 1.251 1_655 S
O319 Nd288 2.424 1_545 S
O319 C307 1.268 . S
H320 C292 0.930 . S
H321 C293 0.929 . S
H322 C295 0.930 . S
H323 C296 0.929 . S
H324 C301 0.930 . S
H325 C302 0.929 . S
H326 C304 0.930 . S
H327 C305 0.929 . S
Nd328 C330 2.836 . S
Nd328 O348 2.500 . S
Nd328 O349 2.492 . S
Nd328 O350 2.487 1_565 S
Nd328 O351 2.682 1_565 S
Nd328 O352 2.410 1_554 S
Nd328 O357 2.414 1_554 S
Nd328 O359 2.424 1_565 S
Nd329 C339 2.836 . S
Nd329 O351 2.414 1_556 S
Nd329 O353 2.424 1_545 S
Nd329 O354 2.500 . S
Nd329 O355 2.492 . S
Nd329 O356 2.487 1_545 S
Nd329 O357 2.682 1_545 S
Nd329 O358 2.410 1_556 S
C330 Nd328 2.836 . S
C330 C331 1.498 . S
C330 O348 1.258 . S
C330 O349 1.239 . S
C331 C330 1.498 . S
C331 C332 1.366 . S
C331 C336 1.407 . S
C332 C331 1.366 . S
C332 C333 1.392 . S
C332 H360 0.930 . S
C333 C332 1.392 . S
C333 C334 1.398 . S
C333 H361 0.929 . S
C334 C333 1.398 . S
C334 C335 1.352 . S
C335 C334 1.352 . S
C335 C336 1.384 . S
C335 H362 0.930 . S
C336 C331 1.407 . S
C336 C335 1.384 . S
C336 H363 0.929 . S
C337 O350 1.241 . S
C337 O351 1.273 . S
C338 O352 1.251 . S
C338 O353 1.268 . S
C339 Nd329 2.836 . S
C339 C340 1.498 . S
C339 O354 1.258 . S
C339 O355 1.239 . S
C340 C339 1.498 . S
C340 C341 1.366 . S
C340 C345 1.407 . S
C341 C340 1.366 . S
C341 C342 1.392 . S
C341 H364 0.930 . S
C342 C341 1.392 . S
C342 C343 1.398 . S
C342 H365 0.929 . S
C343 C342 1.398 . S
C343 C344 1.352 . S
C344 C343 1.352 . S
C344 C345 1.384 . S
C344 H366 0.930 . S
C345 C340 1.407 . S
C345 C344 1.384 . S
C345 H367 0.929 . S
C346 O356 1.241 . S
C346 O357 1.273 . S
C347 O358 1.251 . S
C347 O359 1.268 . S
O348 Nd328 2.500 . S
O348 C330 1.258 . S
O349 Nd328 2.492 . S
O349 C330 1.239 . S
O350 Nd328 2.487 1_545 S
O350 C337 1.241 . S
O351 Nd328 2.682 1_545 S
O351 Nd329 2.414 1_554 S
O351 C337 1.273 . S
O352 Nd328 2.410 1_556 S
O352 C338 1.251 . S
O353 Nd329 2.424 1_565 S
O353 C338 1.268 . S
O354 Nd329 2.500 . S
O354 C339 1.258 . S
O355 Nd329 2.492 . S
O355 C339 1.239 . S
O356 Nd329 2.487 1_565 S
O356 C346 1.241 . S
O357 Nd328 2.414 1_556 S
O357 Nd329 2.682 1_565 S
O357 C346 1.273 . S
O358 Nd329 2.410 1_554 S
O358 C347 1.251 . S
O359 Nd328 2.424 1_545 S
O359 C347 1.268 . S
H360 C332 0.930 . S
H361 C333 0.929 . S
H362 C335 0.930 . S
H363 C336 0.929 . S
H364 C341 0.930 . S
H365 C342 0.929 . S
H366 C344 0.930 . S
H367 C345 0.929 . S
Nd368 C370 2.836 . S
Nd368 O388 2.500 . S
Nd368 O389 2.492 . S
Nd368 O390 2.487 . S
Nd368 O391 2.682 . S
Nd368 O392 2.410 . S
Nd368 O397 2.414 . S
Nd368 O399 2.424 . S
Nd369 C379 2.836 . S
Nd369 O391 2.414 . S
Nd369 O393 2.424 . S
Nd369 O394 2.500 . S
Nd369 O395 2.492 . S
Nd369 O396 2.487 . S
Nd369 O397 2.682 . S
Nd369 O398 2.410 . S
C370 Nd368 2.836 . S
C370 C371 1.498 . S
C370 O388 1.258 . S
C370 O389 1.239 . S
C371 C370 1.498 . S
C371 C372 1.366 . S
C371 C376 1.407 . S
C372 C371 1.366 . S
C372 C373 1.392 . S
C372 H400 0.930 . S
C373 C372 1.392 . S
C373 C374 1.398 . S
C373 H401 0.929 . S
C374 C373 1.398 . S
C374 C375 1.352 . S
C375 C374 1.352 . S
C375 C376 1.384 . S
C375 H402 0.930 . S
C376 C371 1.407 . S
C376 C375 1.384 . S
C376 H403 0.929 . S
C377 O390 1.241 . S
C377 O391 1.273 . S
C378 O392 1.251 . S
C378 O393 1.268 . S
C379 Nd369 2.836 . S
C379 C380 1.498 . S
C379 O394 1.258 . S
C379 O395 1.239 . S
C380 C379 1.498 . S
C380 C381 1.366 . S
C380 C385 1.407 . S
C381 C380 1.366 . S
C381 C382 1.392 . S
C381 H404 0.930 . S
C382 C381 1.392 . S
C382 C383 1.398 . S
C382 H405 0.929 . S
C383 C382 1.398 . S
C383 C384 1.352 . S
C384 C383 1.352 . S
C384 C385 1.384 . S
C384 H406 0.930 . S
C385 C380 1.407 . S
C385 C384 1.384 . S
C385 H407 0.929 . S
C386 O396 1.241 . S
C386 O397 1.273 . S
C387 O398 1.251 . S
C387 O399 1.268 . S
O388 Nd368 2.500 . S
O388 C370 1.258 . S
O389 Nd368 2.492 . S
O389 C370 1.239 . S
O390 Nd368 2.487 . S
O390 C377 1.241 . S
O391 Nd368 2.682 . S
O391 Nd369 2.414 . S
O391 C377 1.273 . S
O392 Nd368 2.410 . S
O392 C378 1.251 . S
O393 Nd369 2.424 . S
O393 C378 1.268 . S
O394 Nd369 2.500 . S
O394 C379 1.258 . S
O395 Nd369 2.492 . S
O395 C379 1.239 . S
O396 Nd369 2.487 . S
O396 C386 1.241 . S
O397 Nd368 2.414 . S
O397 Nd369 2.682 . S
O397 C386 1.273 . S
O398 Nd369 2.410 . S
O398 C387 1.251 . S
O399 Nd368 2.424 . S
O399 C387 1.268 . S
H400 C372 0.930 . S
H401 C373 0.929 . S
H402 C375 0.930 . S
H403 C376 0.929 . S
H404 C381 0.930 . S
H405 C382 0.929 . S
H406 C384 0.930 . S
H407 C385 0.929 . S
Nd408 C410 2.836 . S
Nd408 O428 2.500 . S
Nd408 O429 2.492 . S
Nd408 O430 2.487 1_655 S
Nd408 O431 2.682 1_655 S
Nd408 O432 2.410 . S
Nd408 O437 2.414 1_554 S
Nd408 O439 2.424 1_655 S
Nd409 C419 2.836 . S
Nd409 O431 2.414 1_556 S
Nd409 O433 2.424 1_455 S
Nd409 O434 2.500 . S
Nd409 O435 2.492 . S
Nd409 O436 2.487 1_455 S
Nd409 O437 2.682 1_455 S
Nd409 O438 2.410 . S
C410 Nd408 2.836 . S
C410 C411 1.498 . S
C410 O428 1.258 . S
C410 O429 1.239 . S
C411 C410 1.498 . S
C411 C412 1.366 . S
C411 C416 1.407 . S
C412 C411 1.366 . S
C412 C413 1.392 . S
C412 H440 0.930 . S
C413 C412 1.392 . S
C413 C414 1.398 . S
C413 H441 0.929 . S
C414 C413 1.398 . S
C414 C415 1.352 . S
C415 C414 1.352 . S
C415 C416 1.384 . S
C415 H442 0.930 . S
C416 C411 1.407 . S
C416 C415 1.384 . S
C416 H443 0.929 . S
C417 O430 1.241 . S
C417 O431 1.273 . S
C418 O432 1.251 1_556 S
C418 O433 1.268 . S
C419 Nd409 2.836 . S
C419 C420 1.498 . S
C419 O434 1.258 . S
C419 O435 1.239 . S
C420 C419 1.498 . S
C420 C421 1.366 . S
C420 C425 1.407 . S
C421 C420 1.366 . S
C421 C422 1.392 . S
C421 H444 0.930 . S
C422 C421 1.392 . S
C422 C423 1.398 . S
C422 H445 0.929 . S
C423 C422 1.398 . S
C423 C424 1.352 . S
C424 C423 1.352 . S
C424 C425 1.384 . S
C424 H446 0.930 . S
C425 C420 1.407 . S
C425 C424 1.384 . S
C425 H447 0.929 . S
C426 O436 1.241 . S
C426 O437 1.273 . S
C427 O438 1.251 1_554 S
C427 O439 1.268 . S
O428 Nd408 2.500 . S
O428 C410 1.258 . S
O429 Nd408 2.492 . S
O429 C410 1.239 . S
O430 Nd408 2.487 1_455 S
O430 C417 1.241 . S
O431 Nd408 2.682 1_455 S
O431 Nd409 2.414 1_554 S
O431 C417 1.273 . S
O432 Nd408 2.410 . S
O432 C418 1.251 1_554 S
O433 Nd409 2.424 1_655 S
O433 C418 1.268 . S
O434 Nd409 2.500 . S
O434 C419 1.258 . S
O435 Nd409 2.492 . S
O435 C419 1.239 . S
O436 Nd409 2.487 1_655 S
O436 C426 1.241 . S
O437 Nd408 2.414 1_556 S
O437 Nd409 2.682 1_655 S
O437 C426 1.273 . S
O438 Nd409 2.410 . S
O438 C427 1.251 1_556 S
O439 Nd408 2.424 1_455 S
O439 C427 1.268 . S
H440 C412 0.930 . S
H441 C413 0.929 . S
H442 C415 0.930 . S
H443 C416 0.929 . S
H444 C421 0.930 . S
H445 C422 0.929 . S
H446 C424 0.930 . S
H447 C425 0.929 . S
C448 C449 1.391 . S
C448 C450 1.394 . S
C448 H464 0.931 . S
C449 C448 1.391 . S
C449 C453 1.376 . S
C450 C448 1.394 . S
C450 C451 1.369 . S
C450 C454 1.531 . S
C451 C450 1.369 . S
C451 C452 1.410 . S
C451 C459 1.503 . S
C452 C451 1.410 . S
C452 C453 1.392 . S
C452 C455 1.511 . S
C453 C449 1.376 . S
C453 C452 1.392 . S
C453 H465 0.929 . S
C454 C450 1.531 . S
C454 H466 0.960 . S
C454 H467 0.962 . S
C454 H468 0.960 . S
C455 C452 1.511 . S
C455 H469 0.961 . S
C455 H470 0.961 . S
C455 H471 0.961 . S
C456 C457 1.370 . S
C456 C458 1.363 . S
C456 H472 0.931 . S
C457 C456 1.370 . S
C457 C461 1.408 . S
C458 C456 1.363 . S
C458 C459 1.370 . S
C458 C462 1.524 . S
C459 C451 1.503 . S
C459 C458 1.370 . S
C459 C460 1.403 . S
C460 C459 1.403 . S
C460 C461 1.404 . S
C460 C463 1.539 . S
C461 C457 1.408 . S
C461 C460 1.404 . S
C461 H473 0.930 . S
C462 C458 1.524 . S
C462 H474 0.956 . S
C462 H475 0.961 . S
C462 H476 0.961 . S
C463 C460 1.539 . S
C463 H477 0.958 . S
C463 H478 0.961 . S
C463 H479 0.960 . S
H464 C448 0.931 . S
H465 C453 0.929 . S
H466 C454 0.960 . S
H467 C454 0.962 . S
H468 C454 0.960 . S
H469 C455 0.961 . S
H470 C455 0.961 . S
H471 C455 0.961 . S
H472 C456 0.931 . S
H473 C461 0.930 . S
H474 C462 0.956 . S
H475 C462 0.961 . S
H476 C462 0.961 . S
H477 C463 0.958 . S
H478 C463 0.961 . S
H479 C463 0.960 . S
C480 C481 1.391 . S
C480 C482 1.394 . S
C480 H496 0.931 . S
C481 C480 1.391 . S
C481 C485 1.376 . S
C482 C480 1.394 . S
C482 C483 1.369 . S
C482 C486 1.531 . S
C483 C482 1.369 . S
C483 C484 1.410 . S
C483 C491 1.503 . S
C484 C483 1.410 . S
C484 C485 1.392 . S
C484 C487 1.511 . S
C485 C481 1.376 . S
C485 C484 1.392 . S
C485 H497 0.929 . S
C486 C482 1.531 . S
C486 H498 0.960 . S
C486 H499 0.962 . S
C486 H500 0.960 . S
C487 C484 1.511 . S
C487 H501 0.961 . S
C487 H502 0.961 . S
C487 H503 0.961 . S
C488 C489 1.370 . S
C488 C490 1.363 . S
C488 H504 0.931 . S
C489 C488 1.370 . S
C489 C493 1.408 . S
C490 C488 1.363 . S
C490 C491 1.370 . S
C490 C494 1.524 . S
C491 C483 1.503 . S
C491 C490 1.370 . S
C491 C492 1.403 . S
C492 C491 1.403 . S
C492 C493 1.404 . S
C492 C495 1.539 . S
C493 C489 1.408 . S
C493 C492 1.404 . S
C493 H505 0.930 . S
C494 C490 1.524 . S
C494 H506 0.956 . S
C494 H507 0.961 . S
C494 H508 0.961 . S
C495 C492 1.539 . S
C495 H509 0.958 . S
C495 H510 0.961 . S
C495 H511 0.960 . S
H496 C480 0.931 . S
H497 C485 0.929 . S
H498 C486 0.960 . S
H499 C486 0.962 . S
H500 C486 0.960 . S
H501 C487 0.961 . S
H502 C487 0.961 . S
H503 C487 0.961 . S
H504 C488 0.931 . S
H505 C493 0.930 . S
H506 C494 0.956 . S
H507 C494 0.961 . S
H508 C494 0.961 . S
H509 C495 0.958 . S
H510 C495 0.961 . S
H511 C495 0.960 . S
C512 C513 1.391 . S
C512 C514 1.394 . S
C512 H528 0.931 . S
C513 C512 1.391 . S
C513 C517 1.376 . S
C514 C512 1.394 . S
C514 C515 1.369 . S
C514 C518 1.531 . S
C515 C514 1.369 . S
C515 C516 1.410 . S
C515 C523 1.503 . S
C516 C515 1.410 . S
C516 C517 1.392 . S
C516 C519 1.511 . S
C517 C513 1.376 . S
C517 C516 1.392 . S
C517 H529 0.929 . S
C518 C514 1.531 . S
C518 H530 0.960 . S
C518 H531 0.962 . S
C518 H532 0.960 . S
C519 C516 1.511 . S
C519 H533 0.961 . S
C519 H534 0.961 . S
C519 H535 0.961 . S
C520 C521 1.370 . S
C520 C522 1.363 . S
C520 H536 0.931 . S
C521 C520 1.370 . S
C521 C525 1.408 . S
C522 C520 1.363 . S
C522 C523 1.370 . S
C522 C526 1.524 . S
C523 C515 1.503 . S
C523 C522 1.370 . S
C523 C524 1.403 . S
C524 C523 1.403 . S
C524 C525 1.404 . S
C524 C527 1.539 . S
C525 C521 1.408 . S
C525 C524 1.404 . S
C525 H537 0.930 . S
C526 C522 1.524 . S
C526 H538 0.956 . S
C526 H539 0.961 . S
C526 H540 0.961 . S
C527 C524 1.539 . S
C527 H541 0.958 . S
C527 H542 0.961 . S
C527 H543 0.960 . S
H528 C512 0.931 . S
H529 C517 0.929 . S
H530 C518 0.960 . S
H531 C518 0.962 . S
H532 C518 0.960 . S
H533 C519 0.961 . S
H534 C519 0.961 . S
H535 C519 0.961 . S
H536 C520 0.931 . S
H537 C525 0.930 . S
H538 C526 0.956 . S
H539 C526 0.961 . S
H540 C526 0.961 . S
H541 C527 0.958 . S
H542 C527 0.961 . S
H543 C527 0.960 . S
C544 C545 1.391 . S
C544 C546 1.394 . S
C544 H560 0.931 . S
C545 C544 1.391 . S
C545 C549 1.376 . S
C546 C544 1.394 . S
C546 C547 1.369 . S
C546 C550 1.531 . S
C547 C546 1.369 . S
C547 C548 1.410 . S
C547 C555 1.503 . S
C548 C547 1.410 . S
C548 C549 1.392 . S
C548 C551 1.511 . S
C549 C545 1.376 . S
C549 C548 1.392 . S
C549 H561 0.929 . S
C550 C546 1.531 . S
C550 H562 0.960 . S
C550 H563 0.962 . S
C550 H564 0.960 . S
C551 C548 1.511 . S
C551 H565 0.961 . S
C551 H566 0.961 . S
C551 H567 0.961 . S
C552 C553 1.370 . S
C552 C554 1.363 . S
C552 H568 0.931 . S
C553 C552 1.370 . S
C553 C557 1.408 . S
C554 C552 1.363 . S
C554 C555 1.370 . S
C554 C558 1.524 . S
C555 C547 1.503 . S
C555 C554 1.370 . S
C555 C556 1.403 . S
C556 C555 1.403 . S
C556 C557 1.404 . S
C556 C559 1.539 . S
C557 C553 1.408 . S
C557 C556 1.404 . S
C557 H569 0.930 . S
C558 C554 1.524 . S
C558 H570 0.956 . S
C558 H571 0.961 . S
C558 H572 0.961 . S
C559 C556 1.539 . S
C559 H573 0.958 . S
C559 H574 0.961 . S
C559 H575 0.960 . S
H560 C544 0.931 . S
H561 C549 0.929 . S
H562 C550 0.960 . S
H563 C550 0.962 . S
H564 C550 0.960 . S
H565 C551 0.961 . S
H566 C551 0.961 . S
H567 C551 0.961 . S
H568 C552 0.931 . S
H569 C557 0.930 . S
H570 C558 0.956 . S
H571 C558 0.961 . S
H572 C558 0.961 . S
H573 C559 0.958 . S
H574 C559 0.961 . S
H575 C559 0.960 . S
C576 C577 1.391 . S
C576 C578 1.394 . S
C576 H592 0.931 . S
C577 C576 1.391 . S
C577 C581 1.376 . S
C578 C576 1.394 . S
C578 C579 1.369 . S
C578 C582 1.531 . S
C579 C578 1.369 . S
C579 C580 1.410 . S
C579 C587 1.503 . S
C580 C579 1.410 . S
C580 C581 1.392 . S
C580 C583 1.511 . S
C581 C577 1.376 . S
C581 C580 1.392 . S
C581 H593 0.929 . S
C582 C578 1.531 . S
C582 H594 0.960 . S
C582 H595 0.962 . S
C582 H596 0.960 . S
C583 C580 1.511 . S
C583 H597 0.961 . S
C583 H598 0.961 . S
C583 H599 0.961 1_554 S
C584 C585 1.370 . S
C584 C586 1.363 . S
C584 H600 0.931 . S
C585 C584 1.370 . S
C585 C589 1.408 . S
C586 C584 1.363 . S
C586 C587 1.370 . S
C586 C590 1.524 . S
C587 C579 1.503 . S
C587 C586 1.370 . S
C587 C588 1.403 . S
C588 C587 1.403 . S
C588 C589 1.404 . S
C588 C591 1.539 1_554 S
C589 C585 1.408 . S
C589 C588 1.404 . S
C589 H601 0.930 1_554 S
C590 C586 1.524 . S
C590 H602 0.956 . S
C590 H603 0.961 . S
C590 H604 0.961 . S
C591 C588 1.539 1_556 S
C591 H605 0.958 . S
C591 H606 0.961 . S
C591 H607 0.960 . S
H592 C576 0.931 . S
H593 C581 0.929 . S
H594 C582 0.960 . S
H595 C582 0.962 . S
H596 C582 0.960 . S
H597 C583 0.961 . S
H598 C583 0.961 . S
H599 C583 0.961 1_556 S
H600 C584 0.931 . S
H601 C589 0.930 1_556 S
H602 C590 0.956 . S
H603 C590 0.961 . S
H604 C590 0.961 . S
H605 C591 0.958 . S
H606 C591 0.961 . S
H607 C591 0.960 . S
C608 C609 1.391 . S
C608 C610 1.394 . S
C608 H624 0.931 . S
C609 C608 1.391 . S
C609 C613 1.376 . S
C610 C608 1.394 . S
C610 C611 1.369 . S
C610 C614 1.531 . S
C611 C610 1.369 . S
C611 C612 1.410 . S
C611 C619 1.503 . S
C612 C611 1.410 . S
C612 C613 1.392 . S
C612 C615 1.511 . S
C613 C609 1.376 . S
C613 C612 1.392 . S
C613 H625 0.929 . S
C614 C610 1.531 . S
C614 H626 0.960 . S
C614 H627 0.962 . S
C614 H628 0.960 . S
C615 C612 1.511 . S
C615 H629 0.961 . S
C615 H630 0.961 . S
C615 H631 0.961 . S
C616 C617 1.370 . S
C616 C618 1.363 . S
C616 H632 0.931 . S
C617 C616 1.370 . S
C617 C621 1.408 . S
C618 C616 1.363 . S
C618 C619 1.370 . S
C618 C622 1.524 . S
C619 C611 1.503 . S
C619 C618 1.370 . S
C619 C620 1.403 . S
C620 C619 1.403 . S
C620 C621 1.404 . S
C620 C623 1.539 . S
C621 C617 1.408 . S
C621 C620 1.404 . S
C621 H633 0.930 . S
C622 C618 1.524 . S
C622 H634 0.956 . S
C622 H635 0.961 . S
C622 H636 0.961 . S
C623 C620 1.539 . S
C623 H637 0.958 . S
C623 H638 0.961 . S
C623 H639 0.960 . S
H624 C608 0.931 . S
H625 C613 0.929 . S
H626 C614 0.960 . S
H627 C614 0.962 . S
H628 C614 0.960 . S
H629 C615 0.961 . S
H630 C615 0.961 . S
H631 C615 0.961 . S
H632 C616 0.931 . S
H633 C621 0.930 . S
H634 C622 0.956 . S
H635 C622 0.961 . S
H636 C622 0.961 . S
H637 C623 0.958 . S
H638 C623 0.961 . S
H639 C623 0.960 . S
C640 C641 1.391 . S
C640 C642 1.394 . S
C640 H656 0.931 . S
C641 C640 1.391 . S
C641 C645 1.376 . S
C642 C640 1.394 . S
C642 C643 1.369 . S
C642 C646 1.531 . S
C643 C642 1.369 . S
C643 C644 1.410 . S
C643 C651 1.503 . S
C644 C643 1.410 . S
C644 C645 1.392 . S
C644 C647 1.511 . S
C645 C641 1.376 . S
C645 C644 1.392 . S
C645 H657 0.929 . S
C646 C642 1.531 . S
C646 H658 0.960 . S
C646 H659 0.962 . S
C646 H660 0.960 . S
C647 C644 1.511 . S
C647 H661 0.961 . S
C647 H662 0.961 . S
C647 H663 0.961 . S
C648 C649 1.370 . S
C648 C650 1.363 . S
C648 H664 0.931 . S
C649 C648 1.370 . S
C649 C653 1.408 . S
C650 C648 1.363 . S
C650 C651 1.370 . S
C650 C654 1.524 . S
C651 C643 1.503 . S
C651 C650 1.370 . S
C651 C652 1.403 . S
C652 C651 1.403 . S
C652 C653 1.404 . S
C652 C655 1.539 . S
C653 C649 1.408 . S
C653 C652 1.404 . S
C653 H665 0.930 . S
C654 C650 1.524 . S
C654 H666 0.956 . S
C654 H667 0.961 . S
C654 H668 0.961 . S
C655 C652 1.539 . S
C655 H669 0.958 . S
C655 H670 0.961 . S
C655 H671 0.960 . S
H656 C640 0.931 . S
H657 C645 0.929 . S
H658 C646 0.960 . S
H659 C646 0.962 . S
H660 C646 0.960 . S
H661 C647 0.961 . S
H662 C647 0.961 . S
H663 C647 0.961 . S
H664 C648 0.931 . S
H665 C653 0.930 . S
H666 C654 0.956 . S
H667 C654 0.961 . S
H668 C654 0.961 . S
H669 C655 0.958 . S
H670 C655 0.961 . S
H671 C655 0.960 . S
C672 C673 1.391 . S
C672 C674 1.394 . S
C672 H688 0.931 . S
C673 C672 1.391 . S
C673 C677 1.376 . S
C674 C672 1.394 . S
C674 C675 1.369 . S
C674 C678 1.531 . S
C675 C674 1.369 . S
C675 C676 1.410 . S
C675 C683 1.503 . S
C676 C675 1.410 . S
C676 C677 1.392 . S
C676 C679 1.511 . S
C677 C673 1.376 . S
C677 C676 1.392 . S
C677 H689 0.929 . S
C678 C674 1.531 . S
C678 H690 0.960 . S
C678 H691 0.962 . S
C678 H692 0.960 . S
C679 C676 1.511 . S
C679 H693 0.961 . S
C679 H694 0.961 . S
C679 H695 0.961 . S
C680 C681 1.370 . S
C680 C682 1.363 . S
C680 H696 0.931 . S
C681 C680 1.370 . S
C681 C685 1.408 . S
C682 C680 1.363 . S
C682 C683 1.370 . S
C682 C686 1.524 . S
C683 C675 1.503 . S
C683 C682 1.370 . S
C683 C684 1.403 . S
C684 C683 1.403 . S
C684 C685 1.404 . S
C684 C687 1.539 . S
C685 C681 1.408 . S
C685 C684 1.404 . S
C685 H697 0.930 . S
C686 C682 1.524 . S
C686 H698 0.956 . S
C686 H699 0.961 . S
C686 H700 0.961 . S
C687 C684 1.539 . S
C687 H701 0.958 . S
C687 H702 0.961 . S
C687 H703 0.960 . S
H688 C672 0.931 . S
H689 C677 0.929 . S
H690 C678 0.960 . S
H691 C678 0.962 . S
H692 C678 0.960 . S
H693 C679 0.961 . S
H694 C679 0.961 . S
H695 C679 0.961 . S
H696 C680 0.931 . S
H697 C685 0.930 . S
H698 C686 0.956 . S
H699 C686 0.961 . S
H700 C686 0.961 . S
H701 C687 0.958 . S
H702 C687 0.961 . S
H703 C687 0.960 . S
C704 C705 1.391 . S
C704 C706 1.394 . S
C704 H720 0.931 . S
C705 C704 1.391 . S
C705 C709 1.376 . S
C706 C704 1.394 . S
C706 C707 1.369 . S
C706 C710 1.531 . S
C707 C706 1.369 . S
C707 C708 1.410 . S
C707 C715 1.503 . S
C708 C707 1.410 . S
C708 C709 1.392 . S
C708 C711 1.511 . S
C709 C705 1.376 . S
C709 C708 1.392 . S
C709 H721 0.929 . S
C710 C706 1.531 . S
C710 H722 0.960 . S
C710 H723 0.962 . S
C710 H724 0.960 . S
C711 C708 1.511 . S
C711 H725 0.961 . S
C711 H726 0.961 . S
C711 H727 0.961 . S
C712 C713 1.370 . S
C712 C714 1.363 . S
C712 H728 0.931 1_554 S
C713 C712 1.370 . S
C713 C717 1.408 . S
C714 C712 1.363 . S
C714 C715 1.370 . S
C714 C718 1.524 1_554 S
C715 C707 1.503 . S
C715 C714 1.370 . S
C715 C716 1.403 . S
C716 C715 1.403 . S
C716 C717 1.404 . S
C716 C719 1.539 . S
C717 C713 1.408 . S
C717 C716 1.404 . S
C717 H729 0.930 . S
C718 C714 1.524 1_556 S
C718 H730 0.956 . S
C718 H731 0.961 1_556 S
C718 H732 0.961 . S
C719 C716 1.539 . S
C719 H733 0.958 . S
C719 H734 0.961 . S
C719 H735 0.960 . S
H720 C704 0.931 . S
H721 C709 0.929 . S
H722 C710 0.960 . S
H723 C710 0.962 . S
H724 C710 0.960 . S
H725 C711 0.961 . S
H726 C711 0.961 . S
H727 C711 0.961 . S
H728 C712 0.931 1_556 S
H729 C717 0.930 . S
H730 C718 0.956 . S
H731 C718 0.961 1_554 S
H732 C718 0.961 . S
H733 C719 0.958 . S
H734 C719 0.961 . S
H735 C719 0.960 . S
C736 C737 1.391 . S
C736 C738 1.394 . S
C736 H752 0.931 . S
C737 C736 1.391 . S
C737 C741 1.376 . S
C738 C736 1.394 . S
C738 C739 1.369 . S
C738 C742 1.531 . S
C739 C738 1.369 . S
C739 C740 1.410 . S
C739 C747 1.503 . S
C740 C739 1.410 . S
C740 C741 1.392 . S
C740 C743 1.511 . S
C741 C737 1.376 . S
C741 C740 1.392 . S
C741 H753 0.929 . S
C742 C738 1.531 . S
C742 H754 0.960 . S
C742 H755 0.962 . S
C742 H756 0.960 . S
C743 C740 1.511 . S
C743 H757 0.961 . S
C743 H758 0.961 . S
C743 H759 0.961 . S
C744 C745 1.370 . S
C744 C746 1.363 . S
C744 H760 0.931 . S
C745 C744 1.370 . S
C745 C749 1.408 . S
C746 C744 1.363 . S
C746 C747 1.370 . S
C746 C750 1.524 . S
C747 C739 1.503 . S
C747 C746 1.370 . S
C747 C748 1.403 . S
C748 C747 1.403 . S
C748 C749 1.404 . S
C748 C751 1.539 . S
C749 C745 1.408 . S
C749 C748 1.404 . S
C749 H761 0.930 . S
C750 C746 1.524 . S
C750 H762 0.956 . S
C750 H763 0.961 . S
C750 H764 0.961 . S
C751 C748 1.539 . S
C751 H765 0.958 . S
C751 H766 0.961 . S
C751 H767 0.960 . S
H752 C736 0.931 . S
H753 C741 0.929 . S
H754 C742 0.960 . S
H755 C742 0.962 . S
H756 C742 0.960 . S
H757 C743 0.961 . S
H758 C743 0.961 . S
H759 C743 0.961 . S
H760 C744 0.931 . S
H761 C749 0.930 . S
H762 C750 0.956 . S
H763 C750 0.961 . S
H764 C750 0.961 . S
H765 C751 0.958 . S
H766 C751 0.961 . S
H767 C751 0.960 . S
C768 C769 1.391 . S
C768 C770 1.394 . S
C768 H784 0.931 . S
C769 C768 1.391 . S
C769 C773 1.376 . S
C770 C768 1.394 . S
C770 C771 1.369 . S
C770 C774 1.531 . S
C771 C770 1.369 . S
C771 C772 1.410 . S
C771 C779 1.503 . S
C772 C771 1.410 . S
C772 C773 1.392 . S
C772 C775 1.511 . S
C773 C769 1.376 . S
C773 C772 1.392 . S
C773 H785 0.929 . S
C774 C770 1.531 . S
C774 H786 0.960 . S
C774 H787 0.962 . S
C774 H788 0.960 . S
C775 C772 1.511 . S
C775 H789 0.961 . S
C775 H790 0.961 . S
C775 H791 0.961 . S
C776 C777 1.370 . S
C776 C778 1.363 . S
C776 H792 0.931 . S
C777 C776 1.370 . S
C777 C781 1.408 . S
C778 C776 1.363 . S
C778 C779 1.370 . S
C778 C782 1.524 . S
C779 C771 1.503 . S
C779 C778 1.370 . S
C779 C780 1.403 . S
C780 C779 1.403 . S
C780 C781 1.404 . S
C780 C783 1.539 . S
C781 C777 1.408 . S
C781 C780 1.404 . S
C781 H793 0.930 . S
C782 C778 1.524 . S
C782 H794 0.956 . S
C782 H795 0.961 . S
C782 H796 0.961 . S
C783 C780 1.539 . S
C783 H797 0.958 . S
C783 H798 0.961 . S
C783 H799 0.960 . S
H784 C768 0.931 . S
H785 C773 0.929 . S
H786 C774 0.960 . S
H787 C774 0.962 . S
H788 C774 0.960 . S
H789 C775 0.961 . S
H790 C775 0.961 . S
H791 C775 0.961 . S
H792 C776 0.931 . S
H793 C781 0.930 . S
H794 C782 0.956 . S
H795 C782 0.961 . S
H796 C782 0.961 . S
H797 C783 0.958 . S
H798 C783 0.961 . S
H799 C783 0.960 . S
C800 C801 1.391 . S
C800 C802 1.394 . S
C800 H816 0.931 . S
C801 C800 1.391 . S
C801 C805 1.376 . S
C802 C800 1.394 . S
C802 C803 1.369 . S
C802 C806 1.531 . S
C803 C802 1.369 . S
C803 C804 1.410 . S
C803 C811 1.503 . S
C804 C803 1.410 . S
C804 C805 1.392 . S
C804 C807 1.511 . S
C805 C801 1.376 . S
C805 C804 1.392 . S
C805 H817 0.929 . S
C806 C802 1.531 . S
C806 H818 0.960 . S
C806 H819 0.962 . S
C806 H820 0.960 . S
C807 C804 1.511 . S
C807 H821 0.961 . S
C807 H822 0.961 . S
C807 H823 0.961 . S
C808 C809 1.370 . S
C808 C810 1.363 . S
C808 H824 0.931 . S
C809 C808 1.370 . S
C809 C813 1.408 . S
C810 C808 1.363 . S
C810 C811 1.370 . S
C810 C814 1.524 . S
C811 C803 1.503 . S
C811 C810 1.370 . S
C811 C812 1.403 . S
C812 C811 1.403 . S
C812 C813 1.404 . S
C812 C815 1.539 . S
C813 C809 1.408 . S
C813 C812 1.404 . S
C813 H825 0.930 . S
C814 C810 1.524 . S
C814 H826 0.956 . S
C814 H827 0.961 . S
C814 H828 0.961 . S
C815 C812 1.539 . S
C815 H829 0.958 . S
C815 H830 0.961 . S
C815 H831 0.960 . S
H816 C800 0.931 . S
H817 C805 0.929 . S
H818 C806 0.960 . S
H819 C806 0.962 . S
H820 C806 0.960 . S
H821 C807 0.961 . S
H822 C807 0.961 . S
H823 C807 0.961 . S
H824 C808 0.931 . S
H825 C813 0.930 . S
H826 C814 0.956 . S
H827 C814 0.961 . S
H828 C814 0.961 . S
H829 C815 0.958 . S
H830 C815 0.961 . S
H831 C815 0.960 . S
C832 C833 1.391 . S
C832 C834 1.394 . S
C832 H848 0.931 . S
C833 C832 1.391 . S
C833 C837 1.376 . S
C834 C832 1.394 . S
C834 C835 1.369 . S
C834 C838 1.531 . S
C835 C834 1.369 . S
C835 C836 1.410 . S
C835 C843 1.503 . S
C836 C835 1.410 . S
C836 C837 1.392 . S
C836 C839 1.511 . S
C837 C833 1.376 . S
C837 C836 1.392 . S
C837 H849 0.929 . S
C838 C834 1.531 . S
C838 H850 0.960 . S
C838 H851 0.962 . S
C838 H852 0.960 . S
C839 C836 1.511 . S
C839 H853 0.961 . S
C839 H854 0.961 . S
C839 H855 0.961 . S
C840 C841 1.370 . S
C840 C842 1.363 . S
C840 H856 0.931 . S
C841 C840 1.370 . S
C841 C845 1.408 . S
C842 C840 1.363 . S
C842 C843 1.370 . S
C842 C846 1.524 . S
C843 C835 1.503 . S
C843 C842 1.370 . S
C843 C844 1.403 . S
C844 C843 1.403 . S
C844 C845 1.404 . S
C844 C847 1.539 . S
C845 C841 1.408 . S
C845 C844 1.404 . S
C845 H857 0.930 . S
C846 C842 1.524 . S
C846 H858 0.956 . S
C846 H859 0.961 . S
C846 H860 0.961 . S
C847 C844 1.539 . S
C847 H861 0.958 . S
C847 H862 0.961 . S
C847 H863 0.960 . S
H848 C832 0.931 . S
H849 C837 0.929 . S
H850 C838 0.960 . S
H851 C838 0.962 . S
H852 C838 0.960 . S
H853 C839 0.961 . S
H854 C839 0.961 . S
H855 C839 0.961 . S
H856 C840 0.931 . S
H857 C845 0.930 . S
H858 C846 0.956 . S
H859 C846 0.961 . S
H860 C846 0.961 . S
H861 C847 0.958 . S
H862 C847 0.961 . S
H863 C847 0.960 . S
C864 C865 1.391 . S
C864 C866 1.394 . S
C864 H880 0.931 . S
C865 C864 1.391 . S
C865 C869 1.376 . S
C866 C864 1.394 . S
C866 C867 1.369 . S
C866 C870 1.531 . S
C867 C866 1.369 . S
C867 C868 1.410 . S
C867 C875 1.503 . S
C868 C867 1.410 . S
C868 C869 1.392 . S
C868 C871 1.511 . S
C869 C865 1.376 . S
C869 C868 1.392 . S
C869 H881 0.929 . S
C870 C866 1.531 . S
C870 H882 0.960 . S
C870 H883 0.962 . S
C870 H884 0.960 . S
C871 C868 1.511 . S
C871 H885 0.961 . S
C871 H886 0.961 . S
C871 H887 0.961 . S
C872 C873 1.370 . S
C872 C874 1.363 . S
C872 H888 0.931 . S
C873 C872 1.370 . S
C873 C877 1.408 . S
C874 C872 1.363 . S
C874 C875 1.370 . S
C874 C878 1.524 . S
C875 C867 1.503 . S
C875 C874 1.370 . S
C875 C876 1.403 . S
C876 C875 1.403 . S
C876 C877 1.404 . S
C876 C879 1.539 . S
C877 C873 1.408 . S
C877 C876 1.404 . S
C877 H889 0.930 . S
C878 C874 1.524 . S
C878 H890 0.956 . S
C878 H891 0.961 . S
C878 H892 0.961 . S
C879 C876 1.539 . S
C879 H893 0.958 . S
C879 H894 0.961 . S
C879 H895 0.960 . S
H880 C864 0.931 . S
H881 C869 0.929 . S
H882 C870 0.960 . S
H883 C870 0.962 . S
H884 C870 0.960 . S
H885 C871 0.961 . S
H886 C871 0.961 . S
H887 C871 0.961 . S
H888 C872 0.931 . S
H889 C877 0.930 . S
H890 C878 0.956 . S
H891 C878 0.961 . S
H892 C878 0.961 . S
H893 C879 0.958 . S
H894 C879 0.961 . S
H895 C879 0.960 . S
C896 C897 1.391 . S
C896 C898 1.394 . S
C896 H912 0.931 . S
C897 C896 1.391 . S
C897 C901 1.376 . S
C898 C896 1.394 . S
C898 C899 1.369 . S
C898 C902 1.531 . S
C899 C898 1.369 . S
C899 C900 1.410 . S
C899 C907 1.503 . S
C900 C899 1.410 . S
C900 C901 1.392 . S
C900 C903 1.511 . S
C901 C897 1.376 . S
C901 C900 1.392 . S
C901 H913 0.929 . S
C902 C898 1.531 . S
C902 H914 0.960 . S
C902 H915 0.962 . S
C902 H916 0.960 . S
C903 C900 1.511 . S
C903 H917 0.961 . S
C903 H918 0.961 . S
C903 H919 0.961 . S
C904 C905 1.370 . S
C904 C906 1.363 . S
C904 H920 0.931 . S
C905 C904 1.370 . S
C905 C909 1.408 . S
C906 C904 1.363 . S
C906 C907 1.370 . S
C906 C910 1.524 . S
C907 C899 1.503 . S
C907 C906 1.370 . S
C907 C908 1.403 . S
C908 C907 1.403 . S
C908 C909 1.404 . S
C908 C911 1.539 . S
C909 C905 1.408 . S
C909 C908 1.404 . S
C909 H921 0.930 . S
C910 C906 1.524 . S
C910 H922 0.956 . S
C910 H923 0.961 . S
C910 H924 0.961 . S
C911 C908 1.539 . S
C911 H925 0.958 . S
C911 H926 0.961 . S
C911 H927 0.960 . S
H912 C896 0.931 . S
H913 C901 0.929 . S
H914 C902 0.960 . S
H915 C902 0.962 . S
H916 C902 0.960 . S
H917 C903 0.961 . S
H918 C903 0.961 . S
H919 C903 0.961 . S
H920 C904 0.931 . S
H921 C909 0.930 . S
H922 C910 0.956 . S
H923 C910 0.961 . S
H924 C910 0.961 . S
H925 C911 0.958 . S
H926 C911 0.961 . S
H927 C911 0.960 . S
C928 C929 1.391 . S
C928 C930 1.394 . S
C928 H944 0.931 . S
C929 C928 1.391 . S
C929 C933 1.376 . S
C930 C928 1.394 . S
C930 C931 1.369 . S
C930 C934 1.531 . S
C931 C930 1.369 . S
C931 C932 1.410 . S
C931 C939 1.503 . S
C932 C931 1.410 . S
C932 C933 1.392 . S
C932 C935 1.511 . S
C933 C929 1.376 . S
C933 C932 1.392 . S
C933 H945 0.929 . S
C934 C930 1.531 . S
C934 H946 0.960 . S
C934 H947 0.962 . S
C934 H948 0.960 . S
C935 C932 1.511 . S
C935 H949 0.961 . S
C935 H950 0.961 . S
C935 H951 0.961 . S
C936 C937 1.370 . S
C936 C938 1.363 . S
C936 H952 0.931 . S
C937 C936 1.370 . S
C937 C941 1.408 . S
C938 C936 1.363 . S
C938 C939 1.370 . S
C938 C942 1.524 . S
C939 C931 1.503 . S
C939 C938 1.370 . S
C939 C940 1.403 . S
C940 C939 1.403 . S
C940 C941 1.404 . S
C940 C943 1.539 . S
C941 C937 1.408 . S
C941 C940 1.404 . S
C941 H953 0.930 . S
C942 C938 1.524 . S
C942 H954 0.956 . S
C942 H955 0.961 . S
C942 H956 0.961 . S
C943 C940 1.539 . S
C943 H957 0.958 . S
C943 H958 0.961 . S
C943 H959 0.960 . S
H944 C928 0.931 . S
H945 C933 0.929 . S
H946 C934 0.960 . S
H947 C934 0.962 . S
H948 C934 0.960 . S
H949 C935 0.961 . S
H950 C935 0.961 . S
H951 C935 0.961 . S
H952 C936 0.931 . S
H953 C941 0.930 . S
H954 C942 0.956 . S
H955 C942 0.961 . S
H956 C942 0.961 . S
H957 C943 0.958 . S
H958 C943 0.961 . S
H959 C943 0.960 . S
C960 C961 1.391 . S
C960 C962 1.394 . S
C960 H976 0.931 . S
C961 C960 1.391 . S
C961 C965 1.376 . S
C962 C960 1.394 . S
C962 C963 1.369 . S
C962 C966 1.531 . S
C963 C962 1.369 . S
C963 C964 1.410 . S
C963 C971 1.503 . S
C964 C963 1.410 . S
C964 C965 1.392 . S
C964 C967 1.511 . S
C965 C961 1.376 . S
C965 C964 1.392 . S
C965 H977 0.929 . S
C966 C962 1.531 . S
C966 H978 0.960 . S
C966 H979 0.962 . S
C966 H980 0.960 . S
C967 C964 1.511 . S
C967 H981 0.961 . S
C967 H982 0.961 . S
C967 H983 0.961 . S
C968 C969 1.370 . S
C968 C970 1.363 . S
C968 H984 0.931 1_556 S
C969 C968 1.370 . S
C969 C973 1.408 . S
C970 C968 1.363 . S
C970 C971 1.370 . S
C970 C974 1.524 1_556 S
C971 C963 1.503 . S
C971 C970 1.370 . S
C971 C972 1.403 . S
C972 C971 1.403 . S
C972 C973 1.404 . S
C972 C975 1.539 . S
C973 C969 1.408 . S
C973 C972 1.404 . S
C973 H985 0.930 . S
C974 C970 1.524 1_554 S
C974 H986 0.956 . S
C974 H987 0.961 1_554 S
C974 H988 0.961 . S
C975 C972 1.539 . S
C975 H989 0.958 . S
C975 H990 0.961 . S
C975 H991 0.960 . S
H976 C960 0.931 . S
H977 C965 0.929 . S
H978 C966 0.960 . S
H979 C966 0.962 . S
H980 C966 0.960 . S
H981 C967 0.961 . S
H982 C967 0.961 . S
H983 C967 0.961 . S
H984 C968 0.931 1_554 S
H985 C973 0.930 . S
H986 C974 0.956 . S
H987 C974 0.961 1_556 S
H988 C974 0.961 . S
H989 C975 0.958 . S
H990 C975 0.961 . S
H991 C975 0.960 . S
C992 C993 1.391 . S
C992 C994 1.394 . S
C992 H1008 0.931 . S
C993 C992 1.391 . S
C993 C997 1.376 . S
C994 C992 1.394 . S
C994 C995 1.369 . S
C994 C998 1.531 . S
C995 C994 1.369 . S
C995 C996 1.410 . S
C995 C1003 1.503 . S
C996 C995 1.410 . S
C996 C997 1.392 . S
C996 C999 1.511 . S
C997 C993 1.376 . S
C997 C996 1.392 . S
C997 H1009 0.929 . S
C998 C994 1.531 . S
C998 H1010 0.960 . S
C998 H1011 0.962 . S
C998 H1012 0.960 . S
C999 C996 1.511 . S
C999 H1013 0.961 . S
C999 H1014 0.961 . S
C999 H1015 0.961 . S
C1000 C1001 1.370 . S
C1000 C1002 1.363 . S
C1000 H1016 0.931 . S
C1001 C1000 1.370 . S
C1001 C1005 1.408 . S
C1002 C1000 1.363 . S
C1002 C1003 1.370 . S
C1002 C1006 1.524 . S
C1003 C995 1.503 . S
C1003 C1002 1.370 . S
C1003 C1004 1.403 . S
C1004 C1003 1.403 . S
C1004 C1005 1.404 . S
C1004 C1007 1.539 . S
C1005 C1001 1.408 . S
C1005 C1004 1.404 . S
C1005 H1017 0.930 . S
C1006 C1002 1.524 . S
C1006 H1018 0.956 . S
C1006 H1019 0.961 . S
C1006 H1020 0.961 . S
C1007 C1004 1.539 . S
C1007 H1021 0.958 . S
C1007 H1022 0.961 . S
C1007 H1023 0.960 . S
H1008 C992 0.931 . S
H1009 C997 0.929 . S
H1010 C998 0.960 . S
H1011 C998 0.962 . S
H1012 C998 0.960 . S
H1013 C999 0.961 . S
H1014 C999 0.961 . S
H1015 C999 0.961 . S
H1016 C1000 0.931 . S
H1017 C1005 0.930 . S
H1018 C1006 0.956 . S
H1019 C1006 0.961 . S
H1020 C1006 0.961 . S
H1021 C1007 0.958 . S
H1022 C1007 0.961 . S
H1023 C1007 0.960 . S
C1024 C1025 1.391 . S
C1024 C1026 1.394 . S
C1024 H1040 0.931 . S
C1025 C1024 1.391 . S
C1025 C1029 1.376 . S
C1026 C1024 1.394 . S
C1026 C1027 1.369 . S
C1026 C1030 1.531 . S
C1027 C1026 1.369 . S
C1027 C1028 1.410 . S
C1027 C1035 1.503 . S
C1028 C1027 1.410 . S
C1028 C1029 1.392 . S
C1028 C1031 1.511 . S
C1029 C1025 1.376 . S
C1029 C1028 1.392 . S
C1029 H1041 0.929 . S
C1030 C1026 1.531 . S
C1030 H1042 0.960 . S
C1030 H1043 0.962 . S
C1030 H1044 0.960 . S
C1031 C1028 1.511 . S
C1031 H1045 0.961 . S
C1031 H1046 0.961 . S
C1031 H1047 0.961 . S
C1032 C1033 1.370 . S
C1032 C1034 1.363 . S
C1032 H1048 0.931 . S
C1033 C1032 1.370 . S
C1033 C1037 1.408 . S
C1034 C1032 1.363 . S
C1034 C1035 1.370 . S
C1034 C1038 1.524 . S
C1035 C1027 1.503 . S
C1035 C1034 1.370 . S
C1035 C1036 1.403 . S
C1036 C1035 1.403 . S
C1036 C1037 1.404 . S
C1036 C1039 1.539 . S
C1037 C1033 1.408 . S
C1037 C1036 1.404 . S
C1037 H1049 0.930 . S
C1038 C1034 1.524 . S
C1038 H1050 0.956 . S
C1038 H1051 0.961 . S
C1038 H1052 0.961 . S
C1039 C1036 1.539 . S
C1039 H1053 0.958 . S
C1039 H1054 0.961 . S
C1039 H1055 0.960 . S
H1040 C1024 0.931 . S
H1041 C1029 0.929 . S
H1042 C1030 0.960 . S
H1043 C1030 0.962 . S
H1044 C1030 0.960 . S
H1045 C1031 0.961 . S
H1046 C1031 0.961 . S
H1047 C1031 0.961 . S
H1048 C1032 0.931 . S
H1049 C1037 0.930 . S
H1050 C1038 0.956 . S
H1051 C1038 0.961 . S
H1052 C1038 0.961 . S
H1053 C1039 0.958 . S
H1054 C1039 0.961 . S
H1055 C1039 0.960 . S
C1056 C1057 1.391 . S
C1056 C1058 1.394 . S
C1056 H1072 0.931 . S
C1057 C1056 1.391 . S
C1057 C1061 1.376 . S
C1058 C1056 1.394 . S
C1058 C1059 1.369 . S
C1058 C1062 1.531 . S
C1059 C1058 1.369 . S
C1059 C1060 1.410 . S
C1059 C1067 1.503 . S
C1060 C1059 1.410 . S
C1060 C1061 1.392 . S
C1060 C1063 1.511 . S
C1061 C1057 1.376 . S
C1061 C1060 1.392 . S
C1061 H1073 0.929 . S
C1062 C1058 1.531 . S
C1062 H1074 0.960 . S
C1062 H1075 0.962 . S
C1062 H1076 0.960 . S
C1063 C1060 1.511 . S
C1063 H1077 0.961 . S
C1063 H1078 0.961 . S
C1063 H1079 0.961 . S
C1064 C1065 1.370 . S
C1064 C1066 1.363 . S
C1064 H1080 0.931 . S
C1065 C1064 1.370 . S
C1065 C1069 1.408 . S
C1066 C1064 1.363 . S
C1066 C1067 1.370 . S
C1066 C1070 1.524 . S
C1067 C1059 1.503 . S
C1067 C1066 1.370 . S
C1067 C1068 1.403 . S
C1068 C1067 1.403 . S
C1068 C1069 1.404 . S
C1068 C1071 1.539 . S
C1069 C1065 1.408 . S
C1069 C1068 1.404 . S
C1069 H1081 0.930 . S
C1070 C1066 1.524 . S
C1070 H1082 0.956 . S
C1070 H1083 0.961 . S
C1070 H1084 0.961 . S
C1071 C1068 1.539 . S
C1071 H1085 0.958 . S
C1071 H1086 0.961 . S
C1071 H1087 0.960 . S
H1072 C1056 0.931 . S
H1073 C1061 0.929 . S
H1074 C1062 0.960 . S
H1075 C1062 0.962 . S
H1076 C1062 0.960 . S
H1077 C1063 0.961 . S
H1078 C1063 0.961 . S
H1079 C1063 0.961 . S
H1080 C1064 0.931 . S
H1081 C1069 0.930 . S
H1082 C1070 0.956 . S
H1083 C1070 0.961 . S
H1084 C1070 0.961 . S
H1085 C1071 0.958 . S
H1086 C1071 0.961 . S
H1087 C1071 0.960 . S
C1088 C1089 1.391 . S
C1088 C1090 1.394 . S
C1088 H1104 0.931 . S
C1089 C1088 1.391 . S
C1089 C1093 1.376 . S
C1090 C1088 1.394 . S
C1090 C1091 1.369 . S
C1090 C1094 1.531 1_556 S
C1091 C1090 1.369 . S
C1091 C1092 1.410 . S
C1091 C1099 1.503 . S
C1092 C1091 1.410 . S
C1092 C1093 1.392 . S
C1092 C1095 1.511 . S
C1093 C1089 1.376 . S
C1093 C1092 1.392 . S
C1093 H1105 0.929 . S
C1094 C1090 1.531 1_554 S
C1094 H1106 0.960 . S
C1094 H1107 0.962 . S
C1094 H1108 0.960 . S
C1095 C1092 1.511 . S
C1095 H1109 0.961 . S
C1095 H1110 0.961 . S
C1095 H1111 0.961 . S
C1096 C1097 1.370 . S
C1096 C1098 1.363 . S
C1096 H1112 0.931 . S
C1097 C1096 1.370 . S
C1097 C1101 1.408 . S
C1098 C1096 1.363 . S
C1098 C1099 1.370 . S
C1098 C1102 1.524 . S
C1099 C1091 1.503 . S
C1099 C1098 1.370 . S
C1099 C1100 1.403 . S
C1100 C1099 1.403 . S
C1100 C1101 1.404 . S
C1100 C1103 1.539 . S
C1101 C1097 1.408 . S
C1101 C1100 1.404 . S
C1101 H1113 0.930 . S
C1102 C1098 1.524 . S
C1102 H1114 0.956 . S
C1102 H1115 0.961 . S
C1102 H1116 0.961 . S
C1103 C1100 1.539 . S
C1103 H1117 0.958 1_556 S
C1103 H1118 0.961 . S
C1103 H1119 0.960 . S
H1104 C1088 0.931 . S
H1105 C1093 0.929 . S
H1106 C1094 0.960 . S
H1107 C1094 0.962 . S
H1108 C1094 0.960 . S
H1109 C1095 0.961 . S
H1110 C1095 0.961 . S
H1111 C1095 0.961 . S
H1112 C1096 0.931 . S
H1113 C1101 0.930 . S
H1114 C1102 0.956 . S
H1115 C1102 0.961 . S
H1116 C1102 0.961 . S
H1117 C1103 0.958 1_554 S
H1118 C1103 0.961 . S
H1119 C1103 0.960 . S
C1120 C1121 1.391 . S
C1120 C1122 1.394 . S
C1120 H1136 0.931 . S
C1121 C1120 1.391 . S
C1121 C1125 1.376 . S
C1122 C1120 1.394 . S
C1122 C1123 1.369 . S
C1122 C1126 1.531 . S
C1123 C1122 1.369 . S
C1123 C1124 1.410 . S
C1123 C1131 1.503 . S
C1124 C1123 1.410 . S
C1124 C1125 1.392 . S
C1124 C1127 1.511 . S
C1125 C1121 1.376 . S
C1125 C1124 1.392 . S
C1125 H1137 0.929 . S
C1126 C1122 1.531 . S
C1126 H1138 0.960 . S
C1126 H1139 0.962 . S
C1126 H1140 0.960 . S
C1127 C1124 1.511 . S
C1127 H1141 0.961 . S
C1127 H1142 0.961 . S
C1127 H1143 0.961 . S
C1128 C1129 1.370 . S
C1128 C1130 1.363 . S
C1128 H1144 0.931 . S
C1129 C1128 1.370 . S
C1129 C1133 1.408 . S
C1130 C1128 1.363 . S
C1130 C1131 1.370 . S
C1130 C1134 1.524 . S
C1131 C1123 1.503 . S
C1131 C1130 1.370 . S
C1131 C1132 1.403 . S
C1132 C1131 1.403 . S
C1132 C1133 1.404 . S
C1132 C1135 1.539 . S
C1133 C1129 1.408 . S
C1133 C1132 1.404 . S
C1133 H1145 0.930 . S
C1134 C1130 1.524 . S
C1134 H1146 0.956 . S
C1134 H1147 0.961 . S
C1134 H1148 0.961 . S
C1135 C1132 1.539 . S
C1135 H1149 0.958 . S
C1135 H1150 0.961 . S
C1135 H1151 0.960 . S
H1136 C1120 0.931 . S
H1137 C1125 0.929 . S
H1138 C1126 0.960 . S
H1139 C1126 0.962 . S
H1140 C1126 0.960 . S
H1141 C1127 0.961 . S
H1142 C1127 0.961 . S
H1143 C1127 0.961 . S
H1144 C1128 0.931 . S
H1145 C1133 0.930 . S
H1146 C1134 0.956 . S
H1147 C1134 0.961 . S
H1148 C1134 0.961 . S
H1149 C1135 0.958 . S
H1150 C1135 0.961 . S
H1151 C1135 0.960 . S
C1152 C1153 1.391 . S
C1152 C1154 1.394 . S
C1152 H1168 0.931 . S
C1153 C1152 1.391 . S
C1153 C1157 1.376 . S
C1154 C1152 1.394 . S
C1154 C1155 1.369 . S
C1154 C1158 1.531 . S
C1155 C1154 1.369 . S
C1155 C1156 1.410 . S
C1155 C1163 1.503 . S
C1156 C1155 1.410 . S
C1156 C1157 1.392 . S
C1156 C1159 1.511 . S
C1157 C1153 1.376 . S
C1157 C1156 1.392 . S
C1157 H1169 0.929 . S
C1158 C1154 1.531 . S
C1158 H1170 0.960 . S
C1158 H1171 0.962 . S
C1158 H1172 0.960 . S
C1159 C1156 1.511 . S
C1159 H1173 0.961 . S
C1159 H1174 0.961 . S
C1159 H1175 0.961 . S
C1160 C1161 1.370 . S
C1160 C1162 1.363 . S
C1160 H1176 0.931 . S
C1161 C1160 1.370 . S
C1161 C1165 1.408 . S
C1162 C1160 1.363 . S
C1162 C1163 1.370 . S
C1162 C1166 1.524 . S
C1163 C1155 1.503 . S
C1163 C1162 1.370 . S
C1163 C1164 1.403 . S
C1164 C1163 1.403 . S
C1164 C1165 1.404 . S
C1164 C1167 1.539 . S
C1165 C1161 1.408 . S
C1165 C1164 1.404 . S
C1165 H1177 0.930 . S
C1166 C1162 1.524 . S
C1166 H1178 0.956 . S
C1166 H1179 0.961 . S
C1166 H1180 0.961 . S
C1167 C1164 1.539 . S
C1167 H1181 0.958 . S
C1167 H1182 0.961 . S
C1167 H1183 0.960 . S
H1168 C1152 0.931 . S
H1169 C1157 0.929 . S
H1170 C1158 0.960 . S
H1171 C1158 0.962 . S
H1172 C1158 0.960 . S
H1173 C1159 0.961 . S
H1174 C1159 0.961 . S
H1175 C1159 0.961 . S
H1176 C1160 0.931 . S
H1177 C1165 0.930 . S
H1178 C1166 0.956 . S
H1179 C1166 0.961 . S
H1180 C1166 0.961 . S
H1181 C1167 0.958 . S
H1182 C1167 0.961 . S
H1183 C1167 0.960 . S
C1184 C1185 1.391 . S
C1184 C1186 1.394 . S
C1184 H1200 0.931 . S
C1185 C1184 1.391 . S
C1185 C1189 1.376 . S
C1186 C1184 1.394 . S
C1186 C1187 1.369 . S
C1186 C1190 1.531 . S
C1187 C1186 1.369 . S
C1187 C1188 1.410 . S
C1187 C1195 1.503 . S
C1188 C1187 1.410 . S
C1188 C1189 1.392 . S
C1188 C1191 1.511 . S
C1189 C1185 1.376 . S
C1189 C1188 1.392 . S
C1189 H1201 0.929 . S
C1190 C1186 1.531 . S
C1190 H1202 0.960 . S
C1190 H1203 0.962 . S
C1190 H1204 0.960 . S
C1191 C1188 1.511 . S
C1191 H1205 0.961 . S
C1191 H1206 0.961 . S
C1191 H1207 0.961 . S
C1192 C1193 1.370 . S
C1192 C1194 1.363 . S
C1192 H1208 0.931 . S
C1193 C1192 1.370 . S
C1193 C1197 1.408 . S
C1194 C1192 1.363 . S
C1194 C1195 1.370 . S
C1194 C1198 1.524 . S
C1195 C1187 1.503 . S
C1195 C1194 1.370 . S
C1195 C1196 1.403 . S
C1196 C1195 1.403 . S
C1196 C1197 1.404 . S
C1196 C1199 1.539 . S
C1197 C1193 1.408 . S
C1197 C1196 1.404 . S
C1197 H1209 0.930 . S
C1198 C1194 1.524 . S
C1198 H1210 0.956 . S
C1198 H1211 0.961 . S
C1198 H1212 0.961 . S
C1199 C1196 1.539 . S
C1199 H1213 0.958 . S
C1199 H1214 0.961 . S
C1199 H1215 0.960 . S
H1200 C1184 0.931 . S
H1201 C1189 0.929 . S
H1202 C1190 0.960 . S
H1203 C1190 0.962 . S
H1204 C1190 0.960 . S
H1205 C1191 0.961 . S
H1206 C1191 0.961 . S
H1207 C1191 0.961 . S
H1208 C1192 0.931 . S
H1209 C1197 0.930 . S
H1210 C1198 0.956 . S
H1211 C1198 0.961 . S
H1212 C1198 0.961 . S
H1213 C1199 0.958 . S
H1214 C1199 0.961 . S
H1215 C1199 0.960 . S
C449 C1 2.881 . S
C457 C307 2.877 . S
C481 C67 2.424 . S
C489 C338 2.508 . S
C521 C377 1.368 . S
C513 C97 1.383 . S
C545 C133 0.444 . S
C553 C414 0.506 . S
C585 C337 2.819 . S
C577 C25 2.888 . S
C617 C294 1.522 . S
C609 C37 1.499 . S
C649 C426 1.424 . S
C641 C103 1.472 . S
C681 C383 1.039 . S
C673 C109 1.067 . S
C705 C31 2.269 . S
C713 C427 2.301 . S
C745 C343 1.291 . S
C737 C73 1.294 . S
C769 C139 0.537 . S
C777 C306 0.627 . S
C801 C61 2.556 . S
C809 C378 2.548 . S
C841 C298 2.883 . S
C833 C175 2.906 . S
C865 C181 2.415 . S
C873 C347 2.495 . S
C897 C247 1.420 . S
C905 C386 1.367 . S
C929 C277 0.534 . S
C937 C423 0.509 . S
C961 C145 2.893 . S
C969 C346 2.804 . S
C1001 C303 1.529 . S
C993 C211 1.499 . S
C1033 C417 1.400 . S
C1025 C217 1.462 . S
C1065 C374 1.062 . S
C1057 C283 1.073 . S
C1089 C169 2.293 . S
C1097 C418 2.299 . S
C1129 C334 1.284 . S
C1121 C241 1.290 . S
C1161 C297 0.612 . S
C1153 C253 0.556 . S
C1185 C205 2.533 . S
C1193 C387 2.559 . S
