# Generated by pormake.
# Topology rtl, (3,6)-cn, num edge types: 1
# Building blocks:
#     Node 0, Type 0, BuildingBlock: BETDIP_clean_linker_0, # of connection points: 3
#     Node 1, Type 0, BuildingBlock: BETDIP_clean_linker_0, # of connection points: 3
#     Node 2, Type 0, BuildingBlock: BETDIP_clean_linker_0, # of connection points: 3
#     Node 3, Type 0, BuildingBlock: BETDIP_clean_linker_0, # of connection points: 3
#     Node 4, Type 1, BuildingBlock: FUNLAD_clean_sbu_0, # of connection points: 6
#     Node 5, Type 1, BuildingBlock: FUNLAD_clean_sbu_0, # of connection points: 6
#     Edge 6, Type (0, 1), BuildingBlock: XIVTED_clean_linker_0, # of connection points: 2
#     Edge 7, Type (0, 1), BuildingBlock: XIVTED_clean_linker_0, # of connection points: 2
#     Edge 8, Type (0, 1), BuildingBlock: XIVTED_clean_linker_0, # of connection points: 2
#     Edge 9, Type (0, 1), BuildingBlock: XIVTED_clean_linker_0, # of connection points: 2
#     Edge 10, Type (0, 1), BuildingBlock: XIVTED_clean_linker_0, # of connection points: 2
#     Edge 11, Type (0, 1), BuildingBlock: XIVTED_clean_linker_0, # of connection points: 2
#     Edge 12, Type (0, 1), BuildingBlock: XIVTED_clean_linker_0, # of connection points: 2
#     Edge 13, Type (0, 1), BuildingBlock: XIVTED_clean_linker_0, # of connection points: 2
#     Edge 14, Type (0, 1), BuildingBlock: XIVTED_clean_linker_0, # of connection points: 2
#     Edge 15, Type (0, 1), BuildingBlock: XIVTED_clean_linker_0, # of connection points: 2
#     Edge 16, Type (0, 1), BuildingBlock: XIVTED_clean_linker_0, # of connection points: 2
#     Edge 17, Type (0, 1), BuildingBlock: XIVTED_clean_linker_0, # of connection points: 2
# Relax obj value: 0.002
# Max RMSD: 0.040
# Mean RMSD: 0.027
data_MOF--net-rtl--node1-FUNLAD_clean_sbu_0--node2-BETDIP_clean_linker_0--edge1-XIVTED_clean_linker_0
_symmetry_space_group_name_H-M    P1
_symmetry_Int_Tables_number       1
_symmetry_cell_setting            triclinic
loop_
_symmetry_equiv_pos_as_xyz
'x, y, z'
_cell_length_a     40.8747
_cell_length_b     40.712443
_cell_length_c     21.255594
_cell_angle_alpha  90.996115
_cell_angle_beta   92.033292
_cell_angle_gamma 90.072655
loop_
_atom_site_label
_atom_site_type_symbol
_atom_site_fract_x
_atom_site_fract_y
_atom_site_fract_z
_atom_type_partial_charge
H0 H 0.1756 0.81687 0.89948 0.0
H1 H 0.17363 0.81162 0.10197 0.0
H2 H 0.10987 0.87805 0.00255 0.0
H3 H 0.22611 0.79497 0.09077 0.0
C4 C 0.22528 0.77982 0.04818 0.0
C5 C 0.1657 0.82487 0.94383 0.0
C6 C 0.14152 0.84925 0.94463 0.0
C7 C 0.17818 0.8117 0.00036 0.0
C8 C 0.16521 0.82222 0.05797 0.0
C9 C 0.14019 0.84577 0.0586 0.0
C10 C 0.12878 0.85937 0.00198 0.0
N11 N 0.20328 0.78764 -0.00263 0.0
H12 H 0.67555 0.69119 0.62606 0.0
H13 H 0.66878 0.68651 0.42314 0.0
H14 H 0.61907 0.61498 0.53085 0.0
H15 H 0.72018 0.70645 0.43443 0.0
C16 C 0.71917 0.72407 0.47325 0.0
C17 C 0.6663 0.67954 0.58275 0.0
C18 C 0.64627 0.65161 0.58505 0.0
C19 C 0.67568 0.69159 0.52458 0.0
C20 C 0.66298 0.67674 0.46845 0.0
C21 C 0.64278 0.64893 0.47054 0.0
C22 C 0.63493 0.63631 0.52894 0.0
N23 N 0.69823 0.71821 0.52391 0.0
H24 H 0.81445 0.18355 0.8863 0.0
H25 H 0.81609 0.17811 0.08883 0.0
H26 H 0.88848 0.12703 0.98375 0.0
H27 H 0.79533 0.22903 0.08045 0.0
C28 C 0.77887 0.22798 0.03923 0.0
C29 C 0.82542 0.17457 0.92986 0.0
C30 C 0.85313 0.1543 0.92842 0.0
C31 C 0.8126 0.18441 0.98759 0.0
C32 C 0.82648 0.172 0.04401 0.0
C33 C 0.85405 0.15155 0.0428 0.0
C34 C 0.86744 0.14321 0.98497 0.0
N35 N 0.78605 0.20696 0.98741 0.0
H36 H 0.31218 0.31849 0.38594 0.0
H37 H 0.31639 0.32367 0.58893 0.0
H38 H 0.38772 0.37471 0.48399 0.0
H39 H 0.29517 0.27263 0.57772 0.0
C40 C 0.27842 0.27363 0.53698 0.0
C41 C 0.32371 0.32743 0.42967 0.0
C42 C 0.35148 0.34764 0.4284 0.0
C43 C 0.3116 0.31752 0.48732 0.0
C44 C 0.32622 0.32984 0.54403 0.0
C45 C 0.35385 0.35027 0.54293 0.0
C46 C 0.36656 0.35863 0.48505 0.0
N47 N 0.28503 0.29493 0.48664 0.0
C48 C 0.03087 0.96382 0.4072 0.0
N49 N 0.05391 0.05334 0.49929 0.0
C50 C 0.08573 0.04388 0.50623 0.0
C51 C 0.11072 0.06735 0.50978 0.0
C52 C 0.10291 0.10085 0.50571 0.0
C53 C 0.0699 0.10988 0.49795 0.0
C54 C 0.04568 0.08563 0.49507 0.0
Zn55 Zn 0.01757 0.01872 0.49615 0.0
C56 C 0.9656 0.03425 0.39928 0.0
N57 N 0.94068 0.9474 0.48975 0.0
C58 C 0.94893 0.91504 0.48777 0.0
C59 C 0.90879 0.95698 0.48996 0.0
C60 C 0.88372 0.93357 0.48817 0.0
C61 C 0.89156 0.90002 0.48556 0.0
C62 C 0.92467 0.89086 0.4854 0.0
Zn63 Zn 0.97714 0.98193 0.49268 0.0
O64 O 0.04351 0.99011 0.43029 0.0
C65 C 0.02943 0.96649 0.58938 0.0
O66 O 0.00273 0.95495 0.4241 0.0
H67 H 0.90275 0.98283 0.49133 0.0
H68 H 0.09176 0.01809 0.50922 0.0
H69 H 0.97441 0.90793 0.48809 0.0
O70 O 0.04113 0.99331 0.57029 0.0
O71 O 0.00258 0.95569 0.56499 0.0
H72 H 0.02023 0.09265 0.4899 0.0
O73 O 0.9521 0.00965 0.56092 0.0
O74 O 0.99115 0.04671 0.56218 0.0
O75 O 0.95245 0.00861 0.4206 0.0
O76 O 0.99336 0.04361 0.42168 0.0
C77 C 0.96379 0.03689 0.58141 0.0
H78 H 0.13591 0.05933 0.5151 0.0
H79 H 0.06279 0.13545 0.49535 0.0
H80 H 0.85848 0.94166 0.48777 0.0
H81 H 0.93177 0.86525 0.48421 0.0
C82 C 0.46587 0.46857 0.90633 0.0
N83 N 0.55271 0.44535 0.00651 0.0
C84 C 0.54387 0.41325 -0.00106 0.0
C85 C 0.56761 0.3886 0.00013 0.0
C86 C 0.60075 0.39705 0.00972 0.0
C87 C 0.60918 0.43039 0.01698 0.0
C88 C 0.58469 0.45424 0.01501 0.0
Zn89 Zn 0.5174 0.48092 0.0065 0.0
C90 C 0.53381 0.53667 0.92478 0.0
N91 N 0.44344 0.55512 0.00677 0.0
C92 C 0.41124 0.5467 0.00056 0.0
C93 C 0.45282 0.58703 0.01519 0.0
C94 C 0.42941 0.61186 0.01873 0.0
C95 C 0.39599 0.60387 0.01313 0.0
C96 C 0.387 0.57081 0.00335 0.0
Zn97 Zn 0.47866 0.51941 0.00603 0.0
O98 O 0.49271 0.45753 0.92927 0.0
C99 C 0.46254 0.46345 0.08779 0.0
O100 O 0.45396 0.49484 0.92923 0.0
H101 H 0.47853 0.59324 0.0197 0.0
H102 H 0.5183 0.40669 -0.0075 0.0
H103 H 0.4043 0.52118 -0.00581 0.0
O104 O 0.48991 0.45322 0.06885 0.0
O105 O 0.45171 0.49106 0.06937 0.0
H106 H 0.59122 0.4799 0.0206 0.0
O107 O 0.50398 0.54325 0.08291 0.0
O108 O 0.54156 0.50482 0.08388 0.0
O109 O 0.50628 0.54711 0.94267 0.0
O110 O 0.54441 0.50918 0.94414 0.0
C111 C 0.53037 0.53145 0.1064 0.0
H112 H 0.56004 0.36316 -0.00503 0.0
H113 H 0.63449 0.43798 0.02371 0.0
H114 H 0.4374 0.63709 0.02549 0.0
H115 H 0.3615 0.56357 -0.00062 0.0
H116 H 0.22978 0.26745 0.44439 0.0
H117 H 0.15607 0.10371 0.58768 0.0
H118 H 0.26637 0.22431 0.61689 0.0
H119 H 0.10903 0.15592 0.43452 0.0
H120 H 0.19855 0.14603 0.5952 0.0
H121 H 0.18683 0.22545 0.43655 0.0
C122 C 0.22875 0.24915 0.48063 0.0
C123 C 0.25166 0.24922 0.53136 0.0
C124 C 0.17892 0.14827 0.55998 0.0
C125 C 0.20276 0.20111 0.52256 0.0
C126 C 0.15479 0.124 0.55538 0.0
C127 C 0.12898 0.12628 0.51036 0.0
C128 C 0.17742 0.17496 0.51897 0.0
C129 C 0.12831 0.15337 0.47032 0.0
C130 C 0.20421 0.22522 0.47619 0.0
C131 C 0.24914 0.22503 0.57705 0.0
N132 N 0.15222 0.1766 0.47543 0.0
N133 N 0.22521 0.20187 0.57148 0.0
H134 H 0.23035 0.73401 0.95214 0.0
H135 H 0.39474 0.65503 0.09823 0.0
H136 H 0.27566 0.76545 0.12948 0.0
H137 H 0.33968 0.61179 0.94075 0.0
H138 H 0.35311 0.69774 0.10651 0.0
H139 H 0.27174 0.69093 0.9435 0.0
C140 C 0.24903 0.73186 0.98924 0.0
C141 C 0.24971 0.75334 0.04162 0.0
C142 C 0.35008 0.6789 0.07018 0.0
C143 C 0.29711 0.7042 0.03194 0.0
C144 C 0.37396 0.65463 0.06516 0.0
C145 C 0.37073 0.62984 0.01862 0.0
C146 C 0.32281 0.67859 0.02806 0.0
C147 C 0.34301 0.63027 0.97766 0.0
C148 C 0.27261 0.70722 0.98435 0.0
C149 C 0.27436 0.74936 0.08836 0.0
N150 N 0.32018 0.65433 0.98318 0.0
N151 N 0.29716 0.72535 0.08235 0.0
H152 H 0.72543 0.77515 0.55996 0.0
H153 H 0.88773 0.84502 0.41002 0.0
H154 H 0.76735 0.73476 0.39211 0.0
H155 H 0.83599 0.89724 0.5541 0.0
H156 H 0.84515 0.80285 0.40678 0.0
H157 H 0.76682 0.81885 0.56235 0.0
C158 C 0.74332 0.77551 0.52361 0.0
C159 C 0.74314 0.7513 0.47582 0.0
C160 C 0.84302 0.82356 0.43902 0.0
C161 C 0.79047 0.80099 0.47838 0.0
C162 C 0.86744 0.84754 0.44115 0.0
C163 C 0.86545 0.87463 0.48252 0.0
C164 C 0.81646 0.82648 0.47891 0.0
C165 C 0.83833 0.87688 0.52115 0.0
C166 C 0.76688 0.80047 0.52492 0.0
C167 C 0.76675 0.75298 0.42979 0.0
N168 N 0.81497 0.85302 0.51865 0.0
N169 N 0.78955 0.77729 0.43235 0.0
H170 H 0.76537 0.27593 0.12399 0.0
H171 H 0.60683 0.3422 0.93413 0.0
H172 H 0.73083 0.23433 0.94577 0.0
H173 H 0.65286 0.39313 0.09359 0.0
H174 H 0.64941 0.30001 0.94143 0.0
H175 H 0.72155 0.31669 0.11755 0.0
C176 C 0.74847 0.2754 0.08355 0.0
C177 C 0.75176 0.25191 0.03528 0.0
C178 C 0.65019 0.32045 0.97474 0.0
C179 C 0.70154 0.29835 0.02748 0.0
C180 C 0.62582 0.34443 0.97082 0.0
C181 C 0.62636 0.37127 0.01322 0.0
C182 C 0.67512 0.32318 0.02176 0.0
C183 C 0.65172 0.3731 0.05942 0.0
C184 C 0.72352 0.29868 0.07979 0.0
C185 C 0.72923 0.25215 0.98391 0.0
N186 N 0.67501 0.34936 0.06254 0.0
N187 N 0.70502 0.27504 0.98136 0.0
H188 H 0.07639 0.84195 0.08844 0.0
H189 H 0.09477 0.96971 0.37374 0.0
H190 H 0.17053 0.87566 0.16108 0.0
H191 H 0.0075 0.91174 0.33616 0.0
H192 H 0.12307 0.93657 0.29537 0.0
H193 H 0.05062 0.86764 0.17895 0.0
C194 C 0.09161 0.8544 0.12421 0.0
C195 C 0.12551 0.85678 0.11774 0.0
C196 C 0.0978 0.93098 0.30468 0.0
C197 C 0.09631 0.88682 0.22043 0.0
C198 C 0.08157 0.95 0.34909 0.0
C199 C 0.04864 0.94365 0.36114 0.0
C200 C 0.08084 0.90573 0.27158 0.0
C201 C 0.03284 0.91763 0.32821 0.0
C202 C 0.07697 0.86907 0.17573 0.0
C203 C 0.1443 0.8732 0.16491 0.0
N204 N 0.049 0.89982 0.28457 0.0
N205 N 0.12937 0.88805 0.21403 0.0
H206 H 0.65916 0.59054 0.62812 0.0
H207 H 0.52252 0.59941 0.88419 0.0
H208 H 0.61034 0.68076 0.67642 0.0
H209 H 0.58991 0.51839 0.86746 0.0
H210 H 0.55454 0.63019 0.80979 0.0
H211 H 0.63511 0.56427 0.71816 0.0
C212 C 0.6438 0.60491 0.65865 0.0
C213 C 0.63666 0.63775 0.64531 0.0
C214 C 0.56244 0.60578 0.82286 0.0
C215 C 0.60836 0.60781 0.74722 0.0
C216 C 0.54408 0.58813 0.86503 0.0
C217 C 0.55337 0.55615 0.88161 0.0
C218 C 0.59006 0.59121 0.79663 0.0
C219 C 0.58169 0.54288 0.85576 0.0
C220 C 0.63 0.58996 0.70986 0.0
C221 C 0.61651 0.65541 0.68572 0.0
N222 N 0.59884 0.56035 0.81418 0.0
N223 N 0.60261 0.64006 0.73451 0.0
H224 H 0.82364 0.1193 0.13639 0.0
H225 H 0.99043 0.08453 0.33212 0.0
H226 H 0.91833 0.1529 0.08114 0.0
H227 H 0.90225 0.0279 0.35366 0.0
H228 H 0.9623 0.11602 0.24994 0.0
H229 H 0.85004 0.09228 0.22725 0.0
C230 C 0.84992 0.12134 0.14401 0.0
C231 C 0.86893 0.13815 0.10132 0.0
C232 C 0.9491 0.09671 0.27267 0.0
C233 C 0.89916 0.10737 0.2043 0.0
C234 C 0.96513 0.07873 0.31961 0.0
C235 C 0.94872 0.05339 0.34949 0.0
C236 C 0.91632 0.08956 0.2558 0.0
C237 C 0.9159 0.04705 0.33148 0.0
C238 C 0.86497 0.10575 0.1954 0.0
C239 C 0.90289 0.1399 0.11278 0.0
N240 N 0.90074 0.06506 0.28577 0.0
N241 N 0.91694 0.12465 0.16313 0.0
H242 H 0.41826 0.34741 0.57929 0.0
H243 H 0.40306 0.47773 0.86034 0.0
H244 H 0.32519 0.38421 0.63848 0.0
H245 H 0.48879 0.41771 0.83511 0.0
H246 H 0.37457 0.4463 0.77565 0.0
H247 H 0.4451 0.37497 0.67033 0.0
C248 C 0.4035 0.3611 0.61196 0.0
C249 C 0.36955 0.36366 0.60161 0.0
C250 C 0.39957 0.43998 0.7889 0.0
C251 C 0.40001 0.3956 0.70516 0.0
C252 C 0.41591 0.45803 0.83688 0.0
C253 C 0.44839 0.4504 0.8546 0.0
C254 C 0.41598 0.41443 0.758 0.0
C255 C 0.46378 0.42447 0.82295 0.0
C256 C 0.41877 0.37679 0.66385 0.0
C257 C 0.35142 0.38155 0.64523 0.0
N258 N 0.44749 0.40755 0.77598 0.0
N259 N 0.36694 0.39719 0.69489 0.0
H260 H 0.61016 0.67751 0.37117 0.0
H261 H 0.58085 0.50832 0.1808 0.0
H262 H 0.64463 0.58392 0.43824 0.0
H263 H 0.5211 0.59433 0.14994 0.0
H264 H 0.61065 0.53771 0.26618 0.0
H265 H 0.58393 0.64941 0.27945 0.0
C266 C 0.61251 0.65111 0.36605 0.0
C267 C 0.62939 0.63291 0.4122 0.0
C268 C 0.591 0.55012 0.24071 0.0
C269 C 0.59956 0.60075 0.30818 0.0
C270 C 0.574 0.53339 0.19197 0.0
C271 C 0.54832 0.54885 0.15848 0.0
C272 C 0.58255 0.58268 0.2556 0.0
C273 C 0.54057 0.5814 0.17488 0.0
C274 C 0.59738 0.63509 0.31415 0.0
C275 C 0.63156 0.59874 0.40385 0.0
N276 N 0.55769 0.59729 0.22223 0.0
N277 N 0.6168 0.58374 0.35284 0.0
H278 H 0.91575 0.16269 0.89317 0.0
H279 H 0.90081 0.02858 0.61826 0.0
H280 H 0.82318 0.12096 0.82962 0.0
H281 H 0.98535 0.09143 0.64755 0.0
H282 H 0.8718 0.06177 0.6954 0.0
H283 H 0.94158 0.13732 0.80242 0.0
C284 C 0.90083 0.14857 0.8593 0.0
C285 C 0.8674 0.14379 0.86855 0.0
C286 C 0.8966 0.06842 0.68456 0.0
C287 C 0.89675 0.11411 0.76562 0.0
C288 C 0.91326 0.04937 0.64086 0.0
C289 C 0.94566 0.05708 0.62687 0.0
C290 C 0.9126 0.09512 0.71503 0.0
C291 C 0.96046 0.08448 0.65712 0.0
C292 C 0.91552 0.13407 0.80765 0.0
C293 C 0.84902 0.12529 0.82369 0.0
N294 N 0.94391 0.10232 0.70017 0.0
N295 N 0.86405 0.11067 0.77448 0.0
H296 H 0.413 0.33716 0.3888 0.0
H297 H 0.40002 0.47351 0.12688 0.0
H298 H 0.32142 0.38267 0.33439 0.0
H299 H 0.48218 0.4075 0.14723 0.0
H300 H 0.3704 0.44073 0.20192 0.0
H301 H 0.43844 0.36207 0.2988 0.0
C302 C 0.39818 0.35201 0.35702 0.0
C303 C 0.36519 0.35797 0.36861 0.0
C304 C 0.3948 0.4333 0.18949 0.0
C305 C 0.39413 0.38718 0.26665 0.0
C306 C 0.41179 0.45209 0.14697 0.0
C307 C 0.44374 0.4434 0.13122 0.0
C308 C 0.41003 0.40588 0.21692 0.0
C309 C 0.45768 0.41525 0.15825 0.0
C310 C 0.41266 0.36627 0.30581 0.0
C311 C 0.34693 0.37743 0.32652 0.0
N312 N 0.44086 0.39769 0.20017 0.0
N313 N 0.36179 0.39179 0.27773 0.0
H314 H 0.14559 0.91379 0.91747 0.0
H315 H 0.01874 0.9032 0.62593 0.0
H316 H 0.10982 0.82117 0.84163 0.0
H317 H 0.08115 0.98732 0.66462 0.0
H318 H 0.04922 0.87307 0.70778 0.0
H319 H 0.12017 0.9417 0.82729 0.0
C320 C 0.13266 0.89937 0.88116 0.0
C321 C 0.12974 0.86527 0.88646 0.0
C322 C 0.05629 0.89806 0.69802 0.0
C323 C 0.10006 0.8969 0.78412 0.0
C324 C 0.03879 0.91534 0.65168 0.0
C325 C 0.04731 0.94789 0.63871 0.0
C326 C 0.08215 0.91362 0.7321 0.0
C327 C 0.07367 0.96231 0.67313 0.0
C328 C 0.11816 0.91523 0.82984 0.0
C329 C 0.1127 0.84753 0.83865 0.0
N330 N 0.08999 0.94517 0.71853 0.0
N331 N 0.09809 0.86363 0.78962 0.0
loop_
_geom_bond_atom_site_label_1
_geom_bond_atom_site_label_2
_geom_bond_distance
_geom_bond_site_symmetry_2
_ccdc_geom_bond_type
H0 C5 0.930 . S
H1 C8 0.930 . S
H2 C10 0.930 . S
H3 C4 1.016 . S
C4 H3 1.016 . S
C4 N11 1.286 1_554 S
C5 H0 0.930 . S
C5 C6 1.397 . S
C5 C7 1.361 1_556 S
C6 C5 1.397 . S
C6 C10 1.390 1_556 S
C7 C5 1.361 1_554 S
C7 C8 1.393 . S
C7 N11 1.413 1_554 S
C8 H1 0.930 . S
C8 C7 1.393 . S
C8 C9 1.399 . S
C9 C8 1.399 . S
C9 C10 1.381 . S
C10 H2 0.930 . S
C10 C6 1.390 1_554 S
C10 C9 1.381 . S
N11 C4 1.286 1_556 S
N11 C7 1.413 1_556 S
H12 C17 0.930 . S
H13 C20 0.930 . S
H14 C22 0.930 . S
H15 C16 1.016 . S
C16 H15 1.016 . S
C16 N23 1.286 . S
C17 H12 0.930 . S
C17 C18 1.397 . S
C17 C19 1.361 . S
C18 C17 1.397 . S
C18 C22 1.390 . S
C19 C17 1.361 . S
C19 C20 1.393 . S
C19 N23 1.413 . S
C20 H13 0.930 . S
C20 C19 1.393 . S
C20 C21 1.399 . S
C21 C20 1.399 . S
C21 C22 1.381 . S
C22 H14 0.930 . S
C22 C18 1.390 . S
C22 C21 1.381 . S
N23 C16 1.286 . S
N23 C19 1.413 . S
H24 C29 0.930 . S
H25 C32 0.930 . S
H26 C34 0.932 . S
H27 C28 1.016 . S
C28 H27 1.016 . S
C28 N35 1.286 1_554 S
C29 H24 0.930 . S
C29 C30 1.397 . S
C29 C31 1.361 . S
C30 C29 1.397 . S
C30 C34 1.374 1_556 S
C31 C29 1.361 . S
C31 C32 1.393 1_556 S
C31 N35 1.413 . S
C32 H25 0.930 . S
C32 C31 1.393 1_554 S
C32 C33 1.399 . S
C33 C32 1.399 . S
C33 C34 1.396 . S
C34 H26 0.932 . S
C34 C30 1.374 1_554 S
C34 C33 1.396 . S
N35 C28 1.286 1_556 S
N35 C31 1.413 . S
H36 C41 0.930 . S
H37 C44 0.930 . S
H38 C46 0.930 . S
H39 C40 1.016 . S
C40 H39 1.016 . S
C40 N47 1.286 . S
C41 H36 0.930 . S
C41 C42 1.397 . S
C41 C43 1.361 . S
C42 C41 1.397 . S
C42 C46 1.390 . S
C43 C41 1.361 . S
C43 C44 1.393 . S
C43 N47 1.413 . S
C44 H37 0.930 . S
C44 C43 1.393 . S
C44 C45 1.399 . S
C45 C44 1.399 . S
C45 C46 1.381 . S
C46 H38 0.930 . S
C46 C42 1.390 . S
C46 C45 1.381 . S
N47 C40 1.286 . S
N47 C43 1.413 . S
C48 O64 1.251 . S
C48 O66 1.254 . S
N49 C50 1.333 . S
N49 C54 1.307 . S
N49 Zn55 2.020 . S
C50 N49 1.333 . S
C50 C51 1.379 . S
C50 H68 0.952 . S
C51 C50 1.379 . S
C51 C52 1.390 . S
C51 H78 0.949 . S
C52 C51 1.390 . S
C52 C53 1.357 . S
C53 C52 1.357 . S
C53 C54 1.370 . S
C53 H79 0.950 . S
C54 N49 1.307 . S
C54 C53 1.370 . S
C54 H72 0.948 . S
Zn55 N49 2.020 . S
Zn55 O64 2.039 1_545 S
Zn55 O70 2.034 1_545 S
Zn55 O74 2.025 1_455 S
Zn55 O76 2.024 1_455 S
C56 O75 1.246 . S
C56 O76 1.249 . S
N57 C58 1.307 . S
N57 C59 1.333 . S
N57 Zn63 2.020 . S
C58 N57 1.307 . S
C58 C62 1.370 . S
C58 H69 0.948 . S
C59 N57 1.333 . S
C59 C60 1.379 . S
C59 H67 0.952 . S
C60 C59 1.379 . S
C60 C61 1.390 . S
C60 H80 0.949 . S
C61 C60 1.390 . S
C61 C62 1.357 . S
C62 C58 1.370 . S
C62 C61 1.357 . S
C62 H81 0.950 . S
Zn63 N57 2.020 . S
Zn63 O66 2.025 1_655 S
Zn63 O71 2.024 1_655 S
Zn63 O73 2.039 1_565 S
Zn63 O75 2.034 1_565 S
O64 C48 1.251 . S
O64 Zn55 2.039 1_565 S
C65 O70 1.246 . S
C65 O71 1.249 . S
O66 C48 1.254 . S
O66 Zn63 2.025 1_455 S
H67 C59 0.952 . S
H68 C50 0.952 . S
H69 C58 0.948 . S
O70 Zn55 2.034 1_565 S
O70 C65 1.246 . S
O71 Zn63 2.024 1_455 S
O71 C65 1.249 . S
H72 C54 0.948 . S
O73 Zn63 2.039 1_545 S
O73 C77 1.251 . S
O74 Zn55 2.025 1_655 S
O74 C77 1.254 . S
O75 C56 1.246 . S
O75 Zn63 2.034 1_545 S
O76 Zn55 2.024 1_655 S
O76 C56 1.249 . S
C77 O73 1.251 . S
C77 O74 1.254 . S
H78 C51 0.949 . S
H79 C53 0.950 . S
H80 C60 0.949 . S
H81 C62 0.950 . S
C82 O98 1.251 . S
C82 O100 1.254 . S
N83 C84 1.333 . S
N83 C88 1.307 . S
N83 Zn89 2.020 . S
C84 N83 1.333 . S
C84 C85 1.379 1_554 S
C84 H102 0.952 1_554 S
C85 C84 1.379 1_556 S
C85 C86 1.388 1_556 S
C85 H112 0.951 . S
C86 C85 1.388 1_554 S
C86 C87 1.357 . S
C87 C86 1.357 . S
C87 C88 1.370 . S
C87 H113 0.950 . S
C88 N83 1.307 . S
C88 C87 1.370 . S
C88 H106 0.948 . S
Zn89 N83 2.020 . S
Zn89 O98 2.039 1_554 S
Zn89 O104 2.034 . S
Zn89 O108 2.025 . S
Zn89 O110 2.024 1_554 S
C90 O109 1.246 . S
C90 O110 1.249 . S
N91 C92 1.307 . S
N91 C93 1.333 . S
N91 Zn97 2.020 . S
C92 N91 1.307 . S
C92 C96 1.370 . S
C92 H103 0.948 1_554 S
C93 N91 1.333 . S
C93 C94 1.379 . S
C93 H101 0.952 . S
C94 C93 1.379 . S
C94 C95 1.390 . S
C94 H114 0.949 . S
C95 C94 1.390 . S
C95 C96 1.357 . S
C96 C92 1.370 . S
C96 C95 1.357 . S
C96 H115 0.950 1_554 S
Zn97 N91 2.020 . S
Zn97 O100 2.025 1_554 S
Zn97 O105 2.024 . S
Zn97 O107 2.039 . S
Zn97 O109 2.034 1_554 S
O98 C82 1.251 . S
O98 Zn89 2.039 1_556 S
C99 O104 1.246 . S
C99 O105 1.249 . S
O100 C82 1.254 . S
O100 Zn97 2.025 1_556 S
H101 C93 0.952 . S
H102 C84 0.952 1_556 S
H103 C92 0.948 1_556 S
O104 Zn89 2.034 . S
O104 C99 1.246 . S
O105 Zn97 2.024 . S
O105 C99 1.249 . S
H106 C88 0.948 . S
O107 Zn97 2.039 . S
O107 C111 1.251 . S
O108 Zn89 2.025 . S
O108 C111 1.254 . S
O109 C90 1.246 . S
O109 Zn97 2.034 1_556 S
O110 Zn89 2.024 1_556 S
O110 C90 1.249 . S
C111 O107 1.251 . S
C111 O108 1.254 . S
H112 C85 0.951 . S
H113 C87 0.950 . S
H114 C94 0.949 . S
H115 C96 0.950 1_556 S
H116 C122 0.930 . S
H117 C126 0.930 . S
H118 C131 0.929 . S
H119 C129 0.929 . S
H120 C124 0.929 . S
H121 C130 0.929 . S
C122 H116 0.930 . S
C122 C123 1.367 . S
C122 C130 1.378 . S
C123 C122 1.367 . S
C123 C131 1.433 . S
C124 H120 0.929 . S
C124 C126 1.378 . S
C124 C128 1.350 . S
C125 C128 1.463 . S
C125 C130 1.350 . S
C125 N133 1.427 . S
C126 H117 0.930 . S
C126 C124 1.378 . S
C126 C127 1.367 . S
C127 C126 1.367 . S
C127 C129 1.433 . S
C128 C124 1.350 . S
C128 C125 1.463 . S
C128 N132 1.427 . S
C129 H119 0.929 . S
C129 C127 1.433 . S
C129 N132 1.384 . S
C130 H121 0.929 . S
C130 C122 1.378 . S
C130 C125 1.350 . S
C131 H118 0.929 . S
C131 C123 1.433 . S
C131 N133 1.384 . S
N132 C128 1.427 . S
N132 C129 1.384 . S
N133 C125 1.427 . S
N133 C131 1.384 . S
H134 C140 0.930 . S
H135 C144 0.930 . S
H136 C149 0.929 . S
H137 C147 0.929 . S
H138 C142 0.929 . S
H139 C148 0.929 . S
C140 H134 0.930 . S
C140 C141 1.367 1_556 S
C140 C148 1.378 . S
C141 C140 1.367 1_554 S
C141 C149 1.433 . S
C142 H138 0.929 . S
C142 C144 1.378 . S
C142 C146 1.350 . S
C143 C146 1.463 . S
C143 C148 1.350 1_554 S
C143 N151 1.427 . S
C144 H135 0.930 . S
C144 C142 1.378 . S
C144 C145 1.367 . S
C145 C144 1.367 . S
C145 C147 1.433 1_554 S
C146 C142 1.350 . S
C146 C143 1.463 . S
C146 N150 1.427 1_554 S
C147 H137 0.929 . S
C147 C145 1.433 1_556 S
C147 N150 1.384 . S
C148 H139 0.929 . S
C148 C140 1.378 . S
C148 C143 1.350 1_556 S
C149 H136 0.929 . S
C149 C141 1.433 . S
C149 N151 1.384 . S
N150 C146 1.427 1_556 S
N150 C147 1.384 . S
N151 C143 1.427 . S
N151 C149 1.384 . S
H152 C158 0.930 . S
H153 C162 0.930 . S
H154 C167 0.929 . S
H155 C165 0.929 . S
H156 C160 0.929 . S
H157 C166 0.929 . S
C158 H152 0.930 . S
C158 C159 1.367 . S
C158 C166 1.378 . S
C159 C158 1.367 . S
C159 C167 1.433 . S
C160 H156 0.929 . S
C160 C162 1.378 . S
C160 C164 1.350 . S
C161 C164 1.463 . S
C161 C166 1.350 . S
C161 N169 1.427 . S
C162 H153 0.930 . S
C162 C160 1.378 . S
C162 C163 1.367 . S
C163 C162 1.367 . S
C163 C165 1.433 . S
C164 C160 1.350 . S
C164 C161 1.463 . S
C164 N168 1.427 . S
C165 H155 0.929 . S
C165 C163 1.433 . S
C165 N168 1.384 . S
C166 H157 0.929 . S
C166 C158 1.378 . S
C166 C161 1.350 . S
C167 H154 0.929 . S
C167 C159 1.433 . S
C167 N169 1.384 . S
N168 C164 1.427 . S
N168 C165 1.384 . S
N169 C161 1.427 . S
N169 C167 1.384 . S
H170 C176 0.930 . S
H171 C180 0.930 . S
H172 C185 0.929 . S
H173 C183 0.929 . S
H174 C178 0.929 . S
H175 C184 0.929 . S
C176 H170 0.930 . S
C176 C177 1.367 . S
C176 C184 1.378 . S
C177 C176 1.367 . S
C177 C185 1.433 1_554 S
C178 H174 0.929 . S
C178 C180 1.378 . S
C178 C182 1.350 1_556 S
C179 C182 1.463 . S
C179 C184 1.350 . S
C179 N187 1.427 1_554 S
C180 H171 0.930 . S
C180 C178 1.378 . S
C180 C181 1.367 1_556 S
C181 C180 1.367 1_554 S
C181 C183 1.433 . S
C182 C178 1.350 1_554 S
C182 C179 1.463 . S
C182 N186 1.427 . S
C183 H173 0.929 . S
C183 C181 1.433 . S
C183 N186 1.384 . S
C184 H175 0.929 . S
C184 C176 1.378 . S
C184 C179 1.350 . S
C185 H172 0.929 . S
C185 C177 1.433 1_556 S
C185 N187 1.384 . S
N186 C182 1.427 . S
N186 C183 1.384 . S
N187 C179 1.427 1_556 S
N187 C185 1.384 . S
H188 C194 0.930 . S
H189 C198 0.930 . S
H190 C203 0.929 . S
H191 C201 0.929 . S
H192 C196 0.929 . S
H193 C202 0.929 . S
C194 H188 0.930 . S
C194 C195 1.367 . S
C194 C202 1.378 . S
C195 C194 1.367 . S
C195 C203 1.433 . S
C196 H192 0.929 . S
C196 C198 1.378 . S
C196 C200 1.350 . S
C197 C200 1.463 . S
C197 C202 1.350 . S
C197 N205 1.427 . S
C198 H189 0.930 . S
C198 C196 1.378 . S
C198 C199 1.367 . S
C199 C198 1.367 . S
C199 C201 1.433 . S
C200 C196 1.350 . S
C200 C197 1.463 . S
C200 N204 1.427 . S
C201 H191 0.929 . S
C201 C199 1.433 . S
C201 N204 1.384 . S
C202 H193 0.929 . S
C202 C194 1.378 . S
C202 C197 1.350 . S
C203 H190 0.929 . S
C203 C195 1.433 . S
C203 N205 1.384 . S
N204 C200 1.427 . S
N204 C201 1.384 . S
N205 C197 1.427 . S
N205 C203 1.384 . S
H206 C212 0.930 . S
H207 C216 0.930 . S
H208 C221 0.929 . S
H209 C219 0.929 . S
H210 C214 0.929 . S
H211 C220 0.929 . S
C212 H206 0.930 . S
C212 C213 1.367 . S
C212 C220 1.378 . S
C213 C212 1.367 . S
C213 C221 1.433 . S
C214 H210 0.929 . S
C214 C216 1.378 . S
C214 C218 1.350 . S
C215 C218 1.463 . S
C215 C220 1.350 . S
C215 N223 1.427 . S
C216 H207 0.930 . S
C216 C214 1.378 . S
C216 C217 1.367 . S
C217 C216 1.367 . S
C217 C219 1.433 . S
C218 C214 1.350 . S
C218 C215 1.463 . S
C218 N222 1.427 . S
C219 H209 0.929 . S
C219 C217 1.433 . S
C219 N222 1.384 . S
C220 H211 0.929 . S
C220 C212 1.378 . S
C220 C215 1.350 . S
C221 H208 0.929 . S
C221 C213 1.433 . S
C221 N223 1.384 . S
N222 C218 1.427 . S
N222 C219 1.384 . S
N223 C215 1.427 . S
N223 C221 1.384 . S
H224 C230 0.930 . S
H225 C234 0.930 . S
H226 C239 0.929 . S
H227 C237 0.929 . S
H228 C232 0.929 . S
H229 C238 0.929 . S
C230 H224 0.930 . S
C230 C231 1.367 . S
C230 C238 1.378 . S
C231 C230 1.367 . S
C231 C239 1.433 . S
C232 H228 0.929 . S
C232 C234 1.378 . S
C232 C236 1.350 . S
C233 C236 1.463 . S
C233 C238 1.350 . S
C233 N241 1.427 . S
C234 H225 0.930 . S
C234 C232 1.378 . S
C234 C235 1.367 . S
C235 C234 1.367 . S
C235 C237 1.433 . S
C236 C232 1.350 . S
C236 C233 1.463 . S
C236 N240 1.427 . S
C237 H227 0.929 . S
C237 C235 1.433 . S
C237 N240 1.384 . S
C238 H229 0.929 . S
C238 C230 1.378 . S
C238 C233 1.350 . S
C239 H226 0.929 . S
C239 C231 1.433 . S
C239 N241 1.384 . S
N240 C236 1.427 . S
N240 C237 1.384 . S
N241 C233 1.427 . S
N241 C239 1.384 . S
H242 C248 0.930 . S
H243 C252 0.930 . S
H244 C257 0.929 . S
H245 C255 0.929 . S
H246 C250 0.929 . S
H247 C256 0.929 . S
C248 H242 0.930 . S
C248 C249 1.367 . S
C248 C256 1.378 . S
C249 C248 1.367 . S
C249 C257 1.433 . S
C250 H246 0.929 . S
C250 C252 1.378 . S
C250 C254 1.350 . S
C251 C254 1.463 . S
C251 C256 1.350 . S
C251 N259 1.427 . S
C252 H243 0.930 . S
C252 C250 1.378 . S
C252 C253 1.367 . S
C253 C252 1.367 . S
C253 C255 1.433 . S
C254 C250 1.350 . S
C254 C251 1.463 . S
C254 N258 1.427 . S
C255 H245 0.929 . S
C255 C253 1.433 . S
C255 N258 1.384 . S
C256 H247 0.929 . S
C256 C248 1.378 . S
C256 C251 1.350 . S
C257 H244 0.929 . S
C257 C249 1.433 . S
C257 N259 1.384 . S
N258 C254 1.427 . S
N258 C255 1.384 . S
N259 C251 1.427 . S
N259 C257 1.384 . S
H260 C266 0.930 . S
H261 C270 0.930 . S
H262 C275 0.929 . S
H263 C273 0.929 . S
H264 C268 0.929 . S
H265 C274 0.929 . S
C266 H260 0.930 . S
C266 C267 1.367 . S
C266 C274 1.378 . S
C267 C266 1.367 . S
C267 C275 1.433 . S
C268 H264 0.929 . S
C268 C270 1.378 . S
C268 C272 1.350 . S
C269 C272 1.463 . S
C269 C274 1.350 . S
C269 N277 1.427 . S
C270 H261 0.930 . S
C270 C268 1.378 . S
C270 C271 1.367 . S
C271 C270 1.367 . S
C271 C273 1.433 . S
C272 C268 1.350 . S
C272 C269 1.463 . S
C272 N276 1.427 . S
C273 H263 0.929 . S
C273 C271 1.433 . S
C273 N276 1.384 . S
C274 H265 0.929 . S
C274 C266 1.378 . S
C274 C269 1.350 . S
C275 H262 0.929 . S
C275 C267 1.433 . S
C275 N277 1.384 . S
N276 C272 1.427 . S
N276 C273 1.384 . S
N277 C269 1.427 . S
N277 C275 1.384 . S
H278 C284 0.930 . S
H279 C288 0.930 . S
H280 C293 0.929 . S
H281 C291 0.929 . S
H282 C286 0.929 . S
H283 C292 0.929 . S
C284 H278 0.930 . S
C284 C285 1.367 . S
C284 C292 1.378 . S
C285 C284 1.367 . S
C285 C293 1.433 . S
C286 H282 0.929 . S
C286 C288 1.378 . S
C286 C290 1.350 . S
C287 C290 1.463 . S
C287 C292 1.350 . S
C287 N295 1.427 . S
C288 H279 0.930 . S
C288 C286 1.378 . S
C288 C289 1.367 . S
C289 C288 1.367 . S
C289 C291 1.433 . S
C290 C286 1.350 . S
C290 C287 1.463 . S
C290 N294 1.427 . S
C291 H281 0.929 . S
C291 C289 1.433 . S
C291 N294 1.384 . S
C292 H283 0.929 . S
C292 C284 1.378 . S
C292 C287 1.350 . S
C293 H280 0.929 . S
C293 C285 1.433 . S
C293 N295 1.384 . S
N294 C290 1.427 . S
N294 C291 1.384 . S
N295 C287 1.427 . S
N295 C293 1.384 . S
H296 C302 0.930 . S
H297 C306 0.930 . S
H298 C311 0.929 . S
H299 C309 0.929 . S
H300 C304 0.929 . S
H301 C310 0.929 . S
C302 H296 0.930 . S
C302 C303 1.367 . S
C302 C310 1.378 . S
C303 C302 1.367 . S
C303 C311 1.433 . S
C304 H300 0.929 . S
C304 C306 1.378 . S
C304 C308 1.350 . S
C305 C308 1.463 . S
C305 C310 1.350 . S
C305 N313 1.427 . S
C306 H297 0.930 . S
C306 C304 1.378 . S
C306 C307 1.367 . S
C307 C306 1.367 . S
C307 C309 1.433 . S
C308 C304 1.350 . S
C308 C305 1.463 . S
C308 N312 1.427 . S
C309 H299 0.929 . S
C309 C307 1.433 . S
C309 N312 1.384 . S
C310 H301 0.929 . S
C310 C302 1.378 . S
C310 C305 1.350 . S
C311 H298 0.929 . S
C311 C303 1.433 . S
C311 N313 1.384 . S
N312 C308 1.427 . S
N312 C309 1.384 . S
N313 C305 1.427 . S
N313 C311 1.384 . S
H314 C320 0.930 . S
H315 C324 0.930 . S
H316 C329 0.929 . S
H317 C327 0.929 . S
H318 C322 0.929 . S
H319 C328 0.929 . S
C320 H314 0.930 . S
C320 C321 1.367 . S
C320 C328 1.378 . S
C321 C320 1.367 . S
C321 C329 1.433 . S
C322 H318 0.929 . S
C322 C324 1.378 . S
C322 C326 1.350 . S
C323 C326 1.463 . S
C323 C328 1.350 . S
C323 N331 1.427 . S
C324 H315 0.930 . S
C324 C322 1.378 . S
C324 C325 1.367 . S
C325 C324 1.367 . S
C325 C327 1.433 . S
C326 C322 1.350 . S
C326 C323 1.463 . S
C326 N330 1.427 . S
C327 H317 0.929 . S
C327 C325 1.433 . S
C327 N330 1.384 . S
C328 H319 0.929 . S
C328 C320 1.378 . S
C328 C323 1.350 . S
C329 H316 0.929 . S
C329 C321 1.433 . S
C329 N331 1.384 . S
N330 C326 1.427 . S
N330 C327 1.384 . S
N331 C323 1.427 . S
N331 C329 1.384 . S
C127 C52 1.507 . S
C123 C40 1.508 . S
C141 C4 1.510 . S
C145 C95 1.512 . S
C159 C16 1.505 . S
C163 C61 1.510 . S
C177 C28 1.503 . S
C181 C86 1.510 . S
C199 C48 1.555 . S
C195 C9 1.530 . S
C217 C90 1.539 . S
C213 C18 1.537 . S
C231 C33 1.540 . S
C235 C56 1.553 . S
C249 C45 1.522 . S
C253 C82 1.540 . S
C271 C111 1.483 . S
C267 C21 1.470 . S
C289 C77 1.470 . S
C285 C30 1.462 . S
C307 C99 1.480 . S
C303 C42 1.478 . S
C321 C6 1.466 . S
C325 C65 1.467 . S
