# Generated by pormake.
# Topology pts, (4,4)-cn, num edge types: 1
# Building blocks:
#     Node 0, Type 0, BuildingBlock: AZAVOO_clean_linker_0, # of connection points: 4
#     Node 1, Type 0, BuildingBlock: AZAVOO_clean_linker_0, # of connection points: 4
#     Node 2, Type 1, BuildingBlock: AZAVOO_clean_sbu_0, # of connection points: 4
#     Node 3, Type 1, BuildingBlock: AZAVOO_clean_sbu_0, # of connection points: 4
#     Edge 4, Type (0, 1), BuildingBlock: CIFDUS_clean_linker_0, # of connection points: 2
#     Edge 5, Type (0, 1), BuildingBlock: CIFDUS_clean_linker_0, # of connection points: 2
#     Edge 6, Type (0, 1), BuildingBlock: CIFDUS_clean_linker_0, # of connection points: 2
#     Edge 7, Type (0, 1), BuildingBlock: CIFDUS_clean_linker_0, # of connection points: 2
#     Edge 8, Type (0, 1), BuildingBlock: CIFDUS_clean_linker_0, # of connection points: 2
#     Edge 9, Type (0, 1), BuildingBlock: CIFDUS_clean_linker_0, # of connection points: 2
#     Edge 10, Type (0, 1), BuildingBlock: CIFDUS_clean_linker_0, # of connection points: 2
#     Edge 11, Type (0, 1), BuildingBlock: CIFDUS_clean_linker_0, # of connection points: 2
# Relax obj value: 0.126
# Max RMSD: 0.230
# Mean RMSD: 0.159
data_MOF--net-pts--node1-AZAVOO_clean_sbu_0--node2-AZAVOO_clean_linker_0--edge1-CIFDUS_clean_linker_0
_symmetry_space_group_name_H-M    P1
_symmetry_Int_Tables_number       1
_symmetry_cell_setting            triclinic
loop_
_symmetry_equiv_pos_as_xyz
'x, y, z'
_cell_length_a     23.523454
_cell_length_b     24.192459
_cell_length_c     41.607654
_cell_angle_alpha  92.311126
_cell_angle_beta   98.642827
_cell_angle_gamma 89.532776
loop_
_atom_site_label
_atom_site_type_symbol
_atom_site_fract_x
_atom_site_fract_y
_atom_site_fract_z
_atom_type_partial_charge
H0 H 0.45286 0.06678 0.78018 0.0
H1 H 0.94292 0.98245 0.0833 0.0
H2 H 0.45369 0.11846 0.9543 0.0
H3 H 0.36671 0.10844 0.91418 0.0
H4 H 0.36744 0.93262 0.92852 0.0
H5 H 0.45437 0.94315 0.96887 0.0
H6 H 0.55223 0.11657 0.91569 0.0
H7 H 0.51376 0.11212 0.85758 0.0
H8 H 0.49168 0.93535 0.86174 0.0
H9 H 0.5308 0.94043 0.91973 0.0
H10 H 0.67047 0.1282 0.95538 0.0
H11 H 0.74747 0.13907 0.92282 0.0
H12 H 0.74751 0.96278 0.90169 0.0
H13 H 0.67002 0.95213 0.93496 0.0
H14 H 0.71178 0.12326 0.01818 0.0
H15 H 0.81257 0.12234 0.04367 0.0
H16 H 0.80739 0.94378 0.04487 0.0
H17 H 0.70669 0.94539 0.01913 0.0
H18 H 0.63249 0.12902 0.06285 0.0
H19 H 0.70145 0.13014 0.11339 0.0
H20 H 0.6868 0.95283 0.11647 0.0
H21 H 0.61995 0.9517 0.06538 0.0
H22 H 0.46689 0.12524 0.01858 0.0
H23 H 0.39696 0.13812 0.05652 0.0
H24 H 0.44599 0.9801 0.09684 0.0
H25 H 0.51373 0.96617 0.05785 0.0
O26 O 0.46923 0.06744 0.80297 0.0
O27 O 0.45782 0.97685 0.80658 0.0
O28 O 0.90584 0.07516 0.06821 0.0
O29 O 0.90366 0.98386 0.07233 0.0
C30 C 0.52162 0.03441 0.97894 0.0
C31 C 0.56306 0.03228 0.95746 0.0
C32 C 0.62201 0.03401 0.96985 0.0
C33 C 0.63988 0.03524 0.00367 0.0
C34 C 0.59879 0.03739 0.02532 0.0
C35 C 0.53926 0.03805 0.01303 0.0
C36 C 0.46006 0.03159 0.96463 0.0
C37 C 0.4334 0.07826 0.94999 0.0
C38 C 0.38398 0.07237 0.9269 0.0
C39 C 0.36089 0.01961 0.91794 0.0
C40 C 0.38478 0.97365 0.93477 0.0
C41 C 0.43387 0.97968 0.95813 0.0
C42 C 0.54429 0.02882 0.92177 0.0
C43 C 0.53971 0.07689 0.90386 0.0
C44 C 0.51746 0.07422 0.87074 0.0
C45 C 0.49941 0.0234 0.85504 0.0
C46 C 0.50511 0.97516 0.87307 0.0
C47 C 0.52757 0.97788 0.90614 0.0
C48 C 0.66523 0.03942 0.9477 0.0
C49 C 0.68695 0.09193 0.94367 0.0
C50 C 0.73103 0.09797 0.92523 0.0
C51 C 0.75401 0.0516 0.91021 0.0
C52 C 0.73064 -0.00094 0.91316 0.0
C53 C 0.68661 0.99296 0.93204 0.0
C54 C 0.70222 0.03438 0.01671 0.0
C55 C 0.7328 0.08399 0.02357 0.0
C56 C 0.79023 0.08333 0.03826 0.0
C57 C 0.81801 0.03295 0.04639 0.0
C58 C 0.78731 0.98327 0.03898 0.0
C59 C 0.72992 0.98401 0.02416 0.0
C60 C 0.62051 0.04037 0.06069 0.0
C61 C 0.64215 0.09077 0.07524 0.0
C62 C 0.68209 0.09128 0.10377 0.0
C63 C 0.69961 0.04151 0.11852 0.0
C64 C 0.67364 0.99175 0.10563 0.0
C65 C 0.63482 0.99112 0.07671 0.0
C66 C 0.49591 0.04491 0.03554 0.0
C67 C 0.46199 0.09303 0.03528 0.0
C68 C 0.42219 0.10042 0.05696 0.0
C69 C 0.41646 0.06028 0.07972 0.0
C70 C 0.45011 0.01197 0.07979 0.0
C71 C 0.48899 0.0041 0.05765 0.0
C72 C 0.47428 0.02092 0.82009 0.0
C73 C 0.87848 0.03215 0.0629 0.0
H74 H 0.09693 0.42854 0.30487 0.0
H75 H 0.05166 0.93699 0.55423 0.0
H76 H 0.00664 0.44263 0.48725 0.0
H77 H 0.01003 0.35386 0.45757 0.0
H78 H 0.18979 0.37958 0.4521 0.0
H79 H 0.18628 0.46826 0.48253 0.0
H80 H 0.01401 0.50557 0.42459 0.0
H81 H 0.03202 0.46834 0.37147 0.0
H82 H 0.20464 0.5344 0.39063 0.0
H83 H 0.18625 0.57066 0.44391 0.0
H84 H 0.98181 0.6337 0.43404 0.0
H85 H 0.97403 0.68833 0.38523 0.0
H86 H 0.15224 0.73616 0.4112 0.0
H87 H 0.15965 0.68062 0.45964 0.0
H88 H 0.96034 0.68061 0.51006 0.0
H89 H 0.93895 0.77684 0.52454 0.0
H90 H 0.12024 0.81538 0.53557 0.0
H91 H 0.14098 0.71883 0.52146 0.0
H92 H 0.96147 0.59037 0.55424 0.0
H93 H 0.93004 0.64593 0.59855 0.0
H94 H 0.10278 0.70911 0.62525 0.0
H95 H 0.13432 0.65069 0.58202 0.0
H96 H 0.98294 0.49438 0.54658 0.0
H97 H 0.98043 0.42073 0.58482 0.0
H98 H 0.16611 0.41416 0.6001 0.0
H99 H 0.16815 0.48876 0.56196 0.0
O100 O 0.09034 0.44456 0.32569 0.0
O101 O 0.17767 0.48172 0.33598 0.0
O102 O 0.96611 0.87682 0.54219 0.0
O103 O 0.05878 0.8989 0.54794 0.0
C104 C 0.08915 0.52121 0.49583 0.0
C105 C 0.08911 0.55972 0.47119 0.0
C106 C 0.07693 0.61575 0.47748 0.0
C107 C 0.0654 0.63382 0.50843 0.0
C108 C 0.06507 0.59543 0.53323 0.0
C109 C 0.07679 0.53892 0.52686 0.0
C110 C 0.09624 0.46173 0.4872 0.0
C111 C 0.04737 0.42803 0.48096 0.0
C112 C 0.04927 0.37762 0.46366 0.0
C113 C 0.1 0.36034 0.45211 0.0
C114 C 0.14996 0.39239 0.46031 0.0
C115 C 0.14823 0.44251 0.47806 0.0
C116 C 0.09888 0.54066 0.43804 0.0
C117 C 0.05558 0.51212 0.41717 0.0
C118 C 0.06602 0.49086 0.38688 0.0
C119 C 0.11985 0.49821 0.37685 0.0
C120 C 0.16275 0.52792 0.39763 0.0
C121 C 0.15231 0.5489 0.42799 0.0
C122 C 0.07106 0.65397 0.45038 0.0
C123 C 0.01884 0.65662 0.42929 0.0
C124 C 0.0146 0.68752 0.40143 0.0
C125 C 0.06267 0.71605 0.39424 0.0
C126 C 0.11478 0.71376 0.41578 0.0
C127 C 0.11892 0.68288 0.44366 0.0
C128 C 0.05215 0.69295 0.51474 0.0
C129 C 0.99527 0.71004 0.51544 0.0
C130 C 0.98322 0.76496 0.52376 0.0
C131 C 0.02794 0.80381 0.53129 0.0
C132 C 0.08483 0.78657 0.52995 0.0
C133 C 0.0968 0.73156 0.52175 0.0
C134 C 0.05042 0.61567 0.56518 0.0
C135 C 0.9932 0.61373 0.5708 0.0
C136 C 0.97507 0.64651 0.59578 0.0
C137 C 0.01359 0.68285 0.6152 0.0
C138 C 0.07195 0.68133 0.6111 0.0
C139 C 0.09018 0.64789 0.58636 0.0
C140 C 0.07571 0.49785 0.55216 0.0
C141 C 0.02307 0.47827 0.55893 0.0
C142 C 0.02175 0.43597 0.58063 0.0
C143 C 0.07312 0.41193 0.59559 0.0
C144 C 0.1259 0.43184 0.58886 0.0
C145 C 0.12715 0.47457 0.56732 0.0
C146 C 0.13122 0.47451 0.34496 0.0
C147 C 0.01551 0.86197 0.54075 0.0
Mg148 Mg 0.14167 0.03334 0.2606 0.0
O149 O 0.0499 0.04138 0.23128 0.0
O150 O 0.98974 0.01742 0.26528 0.0
Mg151 Mg 0.03869 0.99366 0.31422 0.0
C152 C 0.99897 0.03345 0.23765 0.0
C153 C 0.2408 0.06752 0.22984 0.0
O154 O 0.26026 0.04781 0.2584 0.0
O155 O 0.12954 0.11475 0.29032 0.0
O156 O 0.07252 0.08116 0.32323 0.0
O157 O 0.14718 0.94211 0.24646 0.0
O158 O 0.11119 0.97578 0.28907 0.0
C159 C 0.10215 0.12041 0.31468 0.0
C160 C 0.1221 0.93362 0.27139 0.0
O161 O 0.18668 0.07333 0.22222 0.0
Mg162 Mg 0.98366 0.06199 0.72515 0.0
O163 O 0.06481 0.05242 0.76223 0.0
O164 O 0.13043 0.0049 0.73882 0.0
Mg165 Mg 0.09062 0.98489 0.68577 0.0
C166 C 0.11445 0.03028 0.76348 0.0
C167 C 0.93556 0.1488 0.78152 0.0
O168 O 0.93427 0.20173 0.78984 0.0
O169 O 0.02793 0.1251 0.699 0.0
O170 O 0.09104 0.07755 0.6737 0.0
O171 O 0.95094 0.97944 0.73879 0.0
O172 O 0.00386 0.99089 0.69999 0.0
C173 C 0.06647 0.12298 0.6805 0.0
C174 C 0.97869 0.95804 0.71667 0.0
O175 O 0.95714 0.13466 0.75623 0.0
H176 H 0.44134 0.05409 0.14502 0.0
H177 H 0.30207 0.08664 0.06834 0.0
H178 H 0.23515 0.09599 0.10817 0.0
H179 H 0.21557 0.08919 0.16481 0.0
H180 H 0.35712 0.05876 0.24102 0.0
H181 H 0.42356 0.05501 0.20155 0.0
C182 C 0.39631 0.06331 0.1371 0.0
C183 C 0.37641 0.06899 0.10386 0.0
C184 C 0.35845 0.06914 0.1601 0.0
C185 C 0.31826 0.08198 0.09387 0.0
C186 C 0.28004 0.08722 0.11662 0.0
C187 C 0.26105 0.08256 0.17282 0.0
C188 C 0.28101 0.07373 0.20588 0.0
C189 C 0.2995 0.08021 0.14982 0.0
C190 C 0.34023 0.06529 0.21577 0.0
C191 C 0.37846 0.06295 0.19318 0.0
H192 H 0.13312 0.31538 0.59496 0.0
H193 H 0.00773 0.40229 0.64385 0.0
H194 H 0.99748 0.32153 0.67587 0.0
H195 H 0.01985 0.22507 0.68765 0.0
H196 H 0.14366 0.13665 0.63808 0.0
H197 H 0.15949 0.21962 0.60905 0.0
C198 C 0.10429 0.31688 0.61302 0.0
C199 C 0.07104 0.36462 0.61696 0.0
C200 C 0.09816 0.27006 0.63111 0.0
C201 C 0.03328 0.36577 0.64013 0.0
C202 C 0.02751 0.3197 0.65849 0.0
C203 C 0.0507 0.22384 0.67071 0.0
C204 C 0.08018 0.17438 0.66495 0.0
C205 C 0.05902 0.27136 0.65379 0.0
C206 C 0.12013 0.17397 0.64295 0.0
C207 C 0.12916 0.2214 0.62626 0.0
H208 H 0.8067 0.08142 0.11807 0.0
H209 H 0.70316 0.99689 0.17773 0.0
H210 H 0.78667 0.98837 0.22013 0.0
H211 H 0.88897 0.00224 0.23926 0.0
H212 H 0.99473 0.0828 0.17888 0.0
H213 H 0.91037 0.09546 0.13756 0.0
C214 C 0.80248 0.06185 0.1406 0.0
C215 C 0.74894 0.04033 0.1451 0.0
C216 C 0.85099 0.05596 0.16446 0.0
C217 C 0.74398 0.01395 0.17395 0.0
C218 C 0.79166 0.00899 0.19808 0.0
C219 C 0.8938 0.02287 0.21717 0.0
C220 C 0.9483 0.04171 0.21231 0.0
C221 C 0.84542 0.0294 0.19345 0.0
C222 C 0.95345 0.0678 0.1833 0.0
C223 C 0.90518 0.07513 0.15967 0.0
H224 H 0.06364 0.72499 0.67502 0.0
H225 H 0.91504 0.74298 0.60137 0.0
H226 H 0.88522 0.82462 0.63043 0.0
H227 H 0.90846 0.89878 0.67213 0.0
H228 H 0.06048 0.88666 0.74325 0.0
H229 H 0.0818 0.79516 0.72017 0.0
C230 C 0.02441 0.74644 0.66553 0.0
C231 C 0.99179 0.72751 0.63596 0.0
C232 C 0.00818 0.79472 0.68194 0.0
C233 C 0.94067 0.75565 0.62428 0.0
C234 C 0.92375 0.80289 0.64074 0.0
C235 C 0.945 0.87497 0.68323 0.0
C236 C 0.98219 0.89831 0.70968 0.0
C237 C 0.95797 0.82369 0.66902 0.0
C238 C 0.03058 0.86845 0.72336 0.0
C239 C 0.04309 0.81659 0.70988 0.0
H240 H 0.26175 0.07784 0.90186 0.0
H241 H 0.36349 0.9452 0.86753 0.0
H242 H 0.29652 0.93664 0.81672 0.0
H243 H 0.21055 0.96859 0.78135 0.0
H244 H 0.10768 0.1004 0.8159 0.0
H245 H 0.17356 0.10765 0.86712 0.0
C246 C 0.26891 0.0469 0.88328 0.0
C247 C 0.31713 0.01193 0.88852 0.0
C248 C 0.23027 0.04229 0.85406 0.0
C249 C 0.32603 0.97191 0.86431 0.0
C250 C 0.28806 0.96732 0.83513 0.0
C251 C 0.20258 -0.00101 0.80004 0.0
C252 C 0.15443 0.03412 0.79463 0.0
C253 C 0.24028 0.00257 0.82963 0.0
C254 C 0.14441 0.07281 0.81934 0.0
C255 C 0.18209 0.07705 0.84868 0.0
H256 H 0.14277 0.34935 0.39467 0.0
H257 H 0.05471 0.26004 0.46022 0.0
H258 H 0.04651 0.17947 0.42274 0.0
H259 H 0.06307 0.13511 0.37205 0.0
H260 H 0.15272 0.22063 0.3056 0.0
H261 H 0.16158 0.30252 0.34296 0.0
C262 C 0.12257 0.31188 0.40087 0.0
C263 C 0.09939 0.31049 0.4302 0.0
C264 C 0.11788 0.26553 0.37907 0.0
C265 C 0.07246 0.26216 0.43773 0.0
C266 C 0.06781 0.21614 0.41634 0.0
C267 C 0.08446 0.17154 0.36537 0.0
C268 C 0.1069 0.17165 0.33582 0.0
C269 C 0.08996 0.21759 0.38694 0.0
C270 C 0.13485 0.21939 0.32808 0.0
C271 C 0.14005 0.2661 0.34948 0.0
H272 H 0.76458 0.01439 0.84838 0.0
H273 H 0.85275 0.10666 0.93177 0.0
H274 H 0.92446 0.13691 0.8997 0.0
H275 H 0.95189 0.15003 0.84635 0.0
H276 H 0.86428 0.06089 0.76189 0.0
H277 H 0.80347 0.01509 0.79595 0.0
C278 C 0.8004 0.0399 0.85961 0.0
C279 C 0.8028 0.0594 0.89213 0.0
C280 C 0.84121 0.05793 0.84078 0.0
C281 C 0.84944 0.09224 0.90656 0.0
C282 C 0.89046 0.10947 0.88828 0.0
C283 C 0.92055 0.11931 0.8356 0.0
C284 C 0.91187 0.10907 0.80182 0.0
C285 C 0.88526 0.09456 0.85511 0.0
C286 C 0.87167 0.06908 0.78797 0.0
C287 C 0.83653 0.04349 0.80739 0.0
H288 H 0.13902 0.72251 0.35138 0.0
H289 H 0.97571 0.78604 0.37194 0.0
H290 H 0.97372 0.85178 0.32892 0.0
H291 H 0.02532 0.90053 0.29191 0.0
H292 H 0.1922 0.84339 0.27444 0.0
H293 H 0.18506 0.76431 0.30868 0.0
C294 C 0.10283 0.75049 0.34621 0.0
C295 C 0.05808 0.75013 0.36518 0.0
C296 C 0.10257 0.78908 0.32189 0.0
C297 C 0.01069 0.78552 0.35772 0.0
C298 C 0.00962 0.8233 0.33321 0.0
C299 C 0.05967 0.87024 0.29527 0.0
C300 C 0.10973 0.87812 0.28152 0.0
C301 C 0.05631 0.82679 0.31607 0.0
C302 C 0.15321 0.83785 0.28488 0.0
C303 C 0.14947 0.79322 0.30483 0.0
loop_
_geom_bond_atom_site_label_1
_geom_bond_atom_site_label_2
_geom_bond_distance
_geom_bond_site_symmetry_2
_ccdc_geom_bond_type
H0 O26 0.856 . S
H1 O29 0.854 . S
H2 C37 0.930 . S
H3 C38 0.930 . S
H4 C40 0.930 1_565 S
H5 C41 0.930 1_565 S
H6 C43 0.931 . S
H7 C44 0.930 . S
H8 C46 0.930 . S
H9 C47 0.929 . S
H10 C49 0.930 . S
H11 C50 0.931 . S
H12 C52 0.930 . S
H13 C53 0.929 . S
H14 C55 0.931 . S
H15 C56 0.930 . S
H16 C58 0.930 . S
H17 C59 0.932 1_556 S
H18 C61 0.930 . S
H19 C62 0.929 . S
H20 C64 0.931 1_565 S
H21 C65 0.930 1_565 S
H22 C67 0.929 . S
H23 C68 0.931 . S
H24 C70 0.930 . S
H25 C71 0.929 . S
O26 H0 0.856 . S
O26 C72 1.300 . S
O27 C72 1.209 1_565 S
O28 C73 1.199 . S
O29 H1 0.854 . S
O29 C73 1.297 1_565 S
C30 C31 1.404 . S
C30 C35 1.397 1_556 S
C30 C36 1.492 . S
C31 C30 1.404 . S
C31 C32 1.396 . S
C31 C42 1.492 . S
C32 C31 1.396 . S
C32 C33 1.397 . S
C32 C48 1.509 . S
C33 C32 1.397 . S
C33 C34 1.412 1_556 S
C33 C54 1.485 1_556 S
C34 C33 1.412 1_554 S
C34 C35 1.388 . S
C34 C60 1.490 . S
C35 C30 1.397 1_554 S
C35 C34 1.388 . S
C35 C66 1.519 . S
C36 C30 1.492 . S
C36 C37 1.363 . S
C36 C41 1.390 . S
C37 H2 0.930 . S
C37 C36 1.363 . S
C37 C38 1.372 . S
C38 H3 0.930 . S
C38 C37 1.372 . S
C38 C39 1.383 . S
C39 C38 1.383 . S
C39 C40 1.395 . S
C40 H4 0.930 1_545 S
C40 C39 1.395 . S
C40 C41 1.362 . S
C41 H5 0.930 1_545 S
C41 C36 1.390 . S
C41 C40 1.362 . S
C42 C31 1.492 . S
C42 C43 1.377 . S
C42 C47 1.397 1_545 S
C43 H6 0.931 . S
C43 C42 1.377 . S
C43 C44 1.376 . S
C44 H7 0.930 . S
C44 C43 1.376 . S
C44 C45 1.376 . S
C45 C44 1.376 . S
C45 C46 1.378 1_545 S
C45 C72 1.486 . S
C46 H8 0.930 . S
C46 C45 1.378 1_565 S
C46 C47 1.376 . S
C47 H9 0.929 . S
C47 C42 1.397 1_565 S
C47 C46 1.376 . S
C48 C32 1.509 . S
C48 C49 1.391 . S
C48 C53 1.386 1_545 S
C49 H10 0.930 . S
C49 C48 1.391 . S
C49 C50 1.375 . S
C50 H11 0.931 . S
C50 C49 1.375 . S
C50 C51 1.375 . S
C51 C50 1.375 . S
C51 C52 1.361 1_545 S
C52 H12 0.930 . S
C52 C51 1.361 1_565 S
C52 C53 1.399 . S
C53 H13 0.929 . S
C53 C48 1.386 1_565 S
C53 C52 1.399 . S
C54 C33 1.485 1_554 S
C54 C55 1.394 . S
C54 C59 1.360 1_545 S
C55 H14 0.931 . S
C55 C54 1.394 . S
C55 C56 1.372 . S
C56 H15 0.930 . S
C56 C55 1.372 . S
C56 C57 1.397 . S
C57 C56 1.397 . S
C57 C58 1.390 1_545 S
C57 C73 1.476 . S
C58 H16 0.930 . S
C58 C57 1.390 1_565 S
C58 C59 1.366 . S
C59 H17 0.932 1_554 S
C59 C54 1.360 1_565 S
C59 C58 1.366 . S
C60 C34 1.490 . S
C60 C61 1.380 . S
C60 C65 1.386 . S
C61 H18 0.930 . S
C61 C60 1.380 . S
C61 C62 1.381 . S
C62 H19 0.929 . S
C62 C61 1.381 . S
C62 C63 1.371 . S
C63 C62 1.371 . S
C63 C64 1.380 . S
C64 H20 0.931 1_545 S
C64 C63 1.380 . S
C64 C65 1.387 . S
C65 H21 0.930 1_545 S
C65 C60 1.386 . S
C65 C64 1.387 . S
C66 C35 1.519 . S
C66 C67 1.377 . S
C66 C71 1.361 1_545 S
C67 H22 0.929 . S
C67 C66 1.377 . S
C67 C68 1.386 . S
C68 H23 0.931 . S
C68 C67 1.386 . S
C68 C69 1.363 . S
C69 C68 1.363 . S
C69 C70 1.385 1_545 S
C70 H24 0.930 . S
C70 C69 1.385 1_565 S
C70 C71 1.396 . S
C71 H25 0.929 . S
C71 C66 1.361 1_565 S
C71 C70 1.396 . S
C72 O26 1.300 . S
C72 O27 1.209 1_545 S
C72 C45 1.486 . S
C73 O28 1.199 . S
C73 O29 1.297 1_545 S
C73 C57 1.476 . S
H74 O100 0.856 . S
H75 O103 0.854 . S
H76 C111 0.930 1_655 S
H77 C112 0.930 1_655 S
H78 C114 0.930 . S
H79 C115 0.930 . S
H80 C117 0.931 . S
H81 C118 0.930 . S
H82 C120 0.930 . S
H83 C121 0.929 . S
H84 C123 0.930 . S
H85 C124 0.931 . S
H86 C126 0.930 . S
H87 C127 0.929 . S
H88 C129 0.931 1_655 S
H89 C130 0.930 . S
H90 C132 0.930 . S
H91 C133 0.932 . S
H92 C135 0.930 1_655 S
H93 C136 0.929 1_655 S
H94 C138 0.931 . S
H95 C139 0.930 . S
H96 C141 0.929 1_655 S
H97 C142 0.927 1_655 S
H98 C144 0.930 . S
H99 C145 0.929 . S
O100 H74 0.856 . S
O100 C146 1.300 . S
O101 C146 1.209 . S
O102 C147 1.199 . S
O103 H75 0.854 . S
O103 C147 1.297 . S
C104 C105 1.404 . S
C104 C109 1.397 . S
C104 C110 1.492 . S
C105 C104 1.404 . S
C105 C106 1.396 . S
C105 C116 1.492 . S
C106 C105 1.396 . S
C106 C107 1.397 . S
C106 C122 1.509 . S
C107 C106 1.397 . S
C107 C108 1.412 . S
C107 C128 1.485 . S
C108 C107 1.412 . S
C108 C109 1.388 . S
C108 C134 1.490 . S
C109 C104 1.397 . S
C109 C108 1.388 . S
C109 C140 1.519 . S
C110 C104 1.492 . S
C110 C111 1.363 . S
C110 C115 1.390 . S
C111 H76 0.930 1_455 S
C111 C110 1.363 . S
C111 C112 1.372 . S
C112 H77 0.930 1_455 S
C112 C111 1.372 . S
C112 C113 1.383 . S
C113 C112 1.383 . S
C113 C114 1.395 . S
C114 H78 0.930 . S
C114 C113 1.395 . S
C114 C115 1.362 . S
C115 H79 0.930 . S
C115 C110 1.390 . S
C115 C114 1.362 . S
C116 C105 1.492 . S
C116 C117 1.377 . S
C116 C121 1.397 . S
C117 H80 0.931 . S
C117 C116 1.377 . S
C117 C118 1.376 . S
C118 H81 0.930 . S
C118 C117 1.376 . S
C118 C119 1.376 . S
C119 C118 1.376 . S
C119 C120 1.378 . S
C119 C146 1.486 . S
C120 H82 0.930 . S
C120 C119 1.378 . S
C120 C121 1.376 . S
C121 H83 0.929 . S
C121 C116 1.397 . S
C121 C120 1.376 . S
C122 C106 1.509 . S
C122 C123 1.391 . S
C122 C127 1.386 . S
C123 H84 0.930 . S
C123 C122 1.391 . S
C123 C124 1.375 . S
C124 H85 0.931 . S
C124 C123 1.375 . S
C124 C125 1.375 . S
C125 C124 1.375 . S
C125 C126 1.361 . S
C126 H86 0.930 . S
C126 C125 1.361 . S
C126 C127 1.399 . S
C127 H87 0.929 . S
C127 C122 1.386 . S
C127 C126 1.399 . S
C128 C107 1.485 . S
C128 C129 1.394 . S
C128 C133 1.360 . S
C129 H88 0.931 1_455 S
C129 C128 1.394 . S
C129 C130 1.372 . S
C130 H89 0.930 . S
C130 C129 1.372 . S
C130 C131 1.397 . S
C131 C130 1.397 . S
C131 C132 1.390 . S
C131 C147 1.476 . S
C132 H90 0.930 . S
C132 C131 1.390 . S
C132 C133 1.366 . S
C133 H91 0.932 . S
C133 C128 1.360 . S
C133 C132 1.366 . S
C134 C108 1.490 . S
C134 C135 1.380 . S
C134 C139 1.386 . S
C135 H92 0.930 1_455 S
C135 C134 1.380 . S
C135 C136 1.381 . S
C136 H93 0.929 1_455 S
C136 C135 1.381 . S
C136 C137 1.371 . S
C137 C136 1.371 . S
C137 C138 1.380 . S
C138 H94 0.931 . S
C138 C137 1.380 . S
C138 C139 1.387 . S
C139 H95 0.930 . S
C139 C134 1.386 . S
C139 C138 1.387 . S
C140 C109 1.519 . S
C140 C141 1.377 . S
C140 C145 1.361 . S
C141 H96 0.929 1_455 S
C141 C140 1.377 . S
C141 C142 1.386 . S
C142 H97 0.927 1_455 S
C142 C141 1.386 . S
C142 C143 1.363 . S
C143 C142 1.363 . S
C143 C144 1.385 . S
C144 H98 0.930 . S
C144 C143 1.385 . S
C144 C145 1.396 . S
C145 H99 0.929 . S
C145 C140 1.361 . S
C145 C144 1.396 . S
C146 O100 1.300 . S
C146 O101 1.209 . S
C146 C119 1.486 . S
C147 O102 1.199 . S
C147 O103 1.297 . S
C147 C131 1.476 . S
Mg148 O149 2.028 . S
Mg148 O155 1.986 . S
Mg148 O157 2.114 1_545 S
Mg148 O158 2.251 . S
Mg148 O161 2.010 . S
O149 Mg148 2.028 . S
O149 C152 1.250 1_455 S
O150 Mg151 2.028 . S
O150 C152 1.248 . S
Mg151 O150 2.028 . S
Mg151 O156 2.032 1_655 S
Mg151 O158 2.079 1_655 S
C152 O149 1.250 1_655 S
C152 O150 1.248 . S
C153 O154 1.264 . S
C153 O161 1.249 . S
O154 C153 1.264 . S
O155 Mg148 1.986 . S
O155 C159 1.246 . S
O156 Mg151 2.032 1_455 S
O156 C159 1.259 . S
O157 Mg148 2.114 1_565 S
O157 C160 1.252 . S
O158 Mg148 2.251 . S
O158 Mg151 2.079 1_455 S
O158 C160 1.273 1_545 S
C159 O155 1.246 . S
C159 O156 1.259 . S
C160 O157 1.252 . S
C160 O158 1.273 1_565 S
O161 Mg148 2.010 . S
O161 C153 1.249 . S
Mg162 O163 2.028 . S
Mg162 O169 1.986 . S
Mg162 O171 2.114 1_545 S
Mg162 O172 2.251 1_545 S
Mg162 O175 2.010 1_455 S
O163 Mg162 2.028 . S
O163 C166 1.250 . S
O164 Mg165 2.028 . S
O164 C166 1.248 . S
Mg165 O164 2.028 . S
Mg165 O170 2.032 . S
Mg165 O172 2.079 1_545 S
C166 O163 1.250 . S
C166 O164 1.248 . S
C167 O168 1.264 . S
C167 O175 1.249 . S
O168 C167 1.264 . S
O169 Mg162 1.986 . S
O169 C173 1.246 . S
O170 Mg165 2.032 . S
O170 C173 1.259 . S
O171 Mg162 2.114 1_565 S
O171 C174 1.252 . S
O172 Mg162 2.251 1_565 S
O172 Mg165 2.079 1_565 S
O172 C174 1.273 . S
C173 O169 1.246 . S
C173 O170 1.259 . S
C174 O171 1.252 . S
C174 O172 1.273 . S
O175 Mg162 2.010 1_655 S
O175 C167 1.249 . S
H176 C182 0.930 . S
H177 C185 0.930 . S
H178 C186 0.930 . S
H179 C187 0.930 . S
H180 C190 0.930 . S
H181 C191 0.930 . S
C182 H176 0.930 . S
C182 C183 1.355 . S
C182 C184 1.415 . S
C183 C182 1.355 . S
C183 C185 1.419 . S
C184 C182 1.415 . S
C184 C189 1.425 . S
C184 C191 1.409 . S
C185 H177 0.930 . S
C185 C183 1.419 . S
C185 C186 1.362 . S
C186 H178 0.930 . S
C186 C185 1.362 . S
C186 C189 1.409 . S
C187 H179 0.930 . S
C187 C188 1.355 . S
C187 C189 1.415 . S
C188 C187 1.355 . S
C188 C190 1.419 . S
C189 C184 1.425 . S
C189 C186 1.409 . S
C189 C187 1.415 . S
C190 H180 0.930 . S
C190 C188 1.419 . S
C190 C191 1.362 . S
C191 H181 0.930 . S
C191 C184 1.409 . S
C191 C190 1.362 . S
H192 C198 0.930 . S
H193 C201 0.930 1_655 S
H194 C202 0.930 . S
H195 C203 0.930 1_655 S
H196 C206 0.930 . S
H197 C207 0.930 . S
C198 H192 0.930 . S
C198 C199 1.355 . S
C198 C200 1.415 . S
C199 C198 1.355 . S
C199 C201 1.419 . S
C200 C198 1.415 . S
C200 C205 1.425 . S
C200 C207 1.409 . S
C201 H193 0.930 1_455 S
C201 C199 1.419 . S
C201 C202 1.362 1_455 S
C202 H194 0.930 . S
C202 C201 1.362 1_655 S
C202 C205 1.409 1_655 S
C203 H195 0.930 1_455 S
C203 C204 1.355 . S
C203 C205 1.415 . S
C204 C203 1.355 . S
C204 C206 1.419 . S
C205 C200 1.425 . S
C205 C202 1.409 1_455 S
C205 C203 1.415 . S
C206 H196 0.930 . S
C206 C204 1.419 . S
C206 C207 1.362 . S
C207 H197 0.930 . S
C207 C200 1.409 . S
C207 C206 1.362 . S
H208 C214 0.930 . S
H209 C217 0.930 . S
H210 C218 0.930 . S
H211 C219 0.930 . S
H212 C222 0.930 . S
H213 C223 0.930 . S
C214 H208 0.930 . S
C214 C215 1.355 . S
C214 C216 1.415 . S
C215 C214 1.355 . S
C215 C217 1.419 . S
C216 C214 1.415 . S
C216 C221 1.425 . S
C216 C223 1.409 . S
C217 H209 0.930 . S
C217 C215 1.419 . S
C217 C218 1.362 . S
C218 H210 0.930 . S
C218 C217 1.362 . S
C218 C221 1.409 . S
C219 H211 0.930 . S
C219 C220 1.355 . S
C219 C221 1.415 . S
C220 C219 1.355 . S
C220 C222 1.419 . S
C221 C216 1.425 . S
C221 C218 1.409 . S
C221 C219 1.415 . S
C222 H212 0.930 . S
C222 C220 1.419 . S
C222 C223 1.362 . S
C223 H213 0.930 . S
C223 C216 1.409 . S
C223 C222 1.362 . S
H224 C230 0.930 . S
H225 C233 0.930 . S
H226 C234 0.930 . S
H227 C235 0.930 1_655 S
H228 C238 0.930 . S
H229 C239 0.930 . S
C230 H224 0.930 . S
C230 C231 1.355 . S
C230 C232 1.415 . S
C231 C230 1.355 . S
C231 C233 1.419 1_455 S
C232 C230 1.415 . S
C232 C237 1.425 . S
C232 C239 1.409 . S
C233 H225 0.930 . S
C233 C231 1.419 1_655 S
C233 C234 1.362 . S
C234 H226 0.930 . S
C234 C233 1.362 . S
C234 C237 1.409 1_655 S
C235 H227 0.930 1_455 S
C235 C236 1.355 . S
C235 C237 1.415 . S
C236 C235 1.355 . S
C236 C238 1.419 . S
C237 C232 1.425 . S
C237 C234 1.409 1_455 S
C237 C235 1.415 . S
C238 H228 0.930 . S
C238 C236 1.419 . S
C238 C239 1.362 . S
C239 H229 0.930 . S
C239 C232 1.409 . S
C239 C238 1.362 . S
H240 C246 0.930 . S
H241 C249 0.930 1_565 S
H242 C250 0.930 . S
H243 C251 0.930 1_565 S
H244 C254 0.930 . S
H245 C255 0.930 . S
C246 H240 0.930 . S
C246 C247 1.355 . S
C246 C248 1.415 . S
C247 C246 1.355 . S
C247 C249 1.419 . S
C248 C246 1.415 . S
C248 C253 1.425 . S
C248 C255 1.409 . S
C249 H241 0.930 1_545 S
C249 C247 1.419 . S
C249 C250 1.362 1_545 S
C250 H242 0.930 . S
C250 C249 1.362 1_565 S
C250 C253 1.409 1_565 S
C251 H243 0.930 1_545 S
C251 C252 1.355 . S
C251 C253 1.415 . S
C252 C251 1.355 . S
C252 C254 1.419 . S
C253 C248 1.425 . S
C253 C250 1.409 1_545 S
C253 C251 1.415 . S
C254 H244 0.930 . S
C254 C252 1.419 . S
C254 C255 1.362 . S
C255 H245 0.930 . S
C255 C248 1.409 . S
C255 C254 1.362 . S
H256 C262 0.930 . S
H257 C265 0.930 . S
H258 C266 0.930 . S
H259 C267 0.930 1_655 S
H260 C270 0.930 . S
H261 C271 0.930 . S
C262 H256 0.930 . S
C262 C263 1.355 . S
C262 C264 1.415 . S
C263 C262 1.355 . S
C263 C265 1.419 1_455 S
C264 C262 1.415 . S
C264 C269 1.425 . S
C264 C271 1.409 . S
C265 H257 0.930 . S
C265 C263 1.419 1_655 S
C265 C266 1.362 . S
C266 H258 0.930 . S
C266 C265 1.362 . S
C266 C269 1.409 1_655 S
C267 H259 0.930 1_455 S
C267 C268 1.355 . S
C267 C269 1.415 . S
C268 C267 1.355 . S
C268 C270 1.419 . S
C269 C264 1.425 . S
C269 C266 1.409 1_455 S
C269 C267 1.415 . S
C270 H260 0.930 . S
C270 C268 1.419 . S
C270 C271 1.362 . S
C271 H261 0.930 . S
C271 C264 1.409 . S
C271 C270 1.362 . S
H272 C278 0.930 1_565 S
H273 C281 0.930 . S
H274 C282 0.930 . S
H275 C283 0.930 . S
H276 C286 0.930 . S
H277 C287 0.930 . S
C278 H272 0.930 1_545 S
C278 C279 1.355 . S
C278 C280 1.415 . S
C279 C278 1.355 . S
C279 C281 1.419 . S
C280 C278 1.415 . S
C280 C285 1.425 . S
C280 C287 1.409 . S
C281 H273 0.930 . S
C281 C279 1.419 . S
C281 C282 1.362 . S
C282 H274 0.930 . S
C282 C281 1.362 . S
C282 C285 1.409 . S
C283 H275 0.930 . S
C283 C284 1.355 . S
C283 C285 1.415 . S
C284 C283 1.355 . S
C284 C286 1.419 . S
C285 C280 1.425 . S
C285 C282 1.409 . S
C285 C283 1.415 . S
C286 H276 0.930 . S
C286 C284 1.419 . S
C286 C287 1.362 . S
C287 H277 0.930 . S
C287 C280 1.409 . S
C287 C286 1.362 . S
H288 C294 0.930 . S
H289 C297 0.930 . S
H290 C298 0.930 1_655 S
H291 C299 0.930 . S
H292 C302 0.930 . S
H293 C303 0.930 . S
C294 H288 0.930 . S
C294 C295 1.355 . S
C294 C296 1.415 . S
C295 C294 1.355 . S
C295 C297 1.419 . S
C296 C294 1.415 . S
C296 C301 1.425 . S
C296 C303 1.409 . S
C297 H289 0.930 . S
C297 C295 1.419 . S
C297 C298 1.362 . S
C298 H290 0.930 1_455 S
C298 C297 1.362 . S
C298 C301 1.409 . S
C299 H291 0.930 . S
C299 C300 1.355 . S
C299 C301 1.415 . S
C300 C299 1.355 . S
C300 C302 1.419 . S
C301 C296 1.425 . S
C301 C298 1.409 . S
C301 C299 1.415 . S
C302 H292 0.930 . S
C302 C300 1.419 . S
C302 C303 1.362 . S
C303 H293 0.930 . S
C303 C296 1.409 . S
C303 C302 1.362 . S
C188 C153 1.756 . S
C183 C69 2.071 . S
C204 C173 2.049 . S
C199 C143 2.096 . S
C220 C152 1.613 . S
C215 C63 1.549 . S
C236 C174 1.646 . S
C231 C137 1.495 . S
C252 C166 1.524 . S
C247 C39 1.391 . S
C268 C159 1.415 . S
C263 C113 1.384 . S
C284 C167 0.711 . S
C279 C51 0.868 . S
C295 C125 0.873 . S
C300 C160 0.899 . S
