# Generated by pormake.
# Topology ctn, (3,4)-cn, num edge types: 1
# Building blocks:
#     Node 0, Type 0, BuildingBlock: KAKCAD_clean_linker_0, # of connection points: 3
#     Node 1, Type 0, BuildingBlock: KAKCAD_clean_linker_0, # of connection points: 3
#     Node 2, Type 0, BuildingBlock: KAKCAD_clean_linker_0, # of connection points: 3
#     Node 3, Type 0, BuildingBlock: KAKCAD_clean_linker_0, # of connection points: 3
#     Node 4, Type 0, BuildingBlock: KAKCAD_clean_linker_0, # of connection points: 3
#     Node 5, Type 0, BuildingBlock: KAKCAD_clean_linker_0, # of connection points: 3
#     Node 6, Type 0, BuildingBlock: KAKCAD_clean_linker_0, # of connection points: 3
#     Node 7, Type 0, BuildingBlock: KAKCAD_clean_linker_0, # of connection points: 3
#     Node 8, Type 0, BuildingBlock: KAKCAD_clean_linker_0, # of connection points: 3
#     Node 9, Type 0, BuildingBlock: KAKCAD_clean_linker_0, # of connection points: 3
#     Node 10, Type 0, BuildingBlock: KAKCAD_clean_linker_0, # of connection points: 3
#     Node 11, Type 0, BuildingBlock: KAKCAD_clean_linker_0, # of connection points: 3
#     Node 12, Type 0, BuildingBlock: KAKCAD_clean_linker_0, # of connection points: 3
#     Node 13, Type 0, BuildingBlock: KAKCAD_clean_linker_0, # of connection points: 3
#     Node 14, Type 0, BuildingBlock: KAKCAD_clean_linker_0, # of connection points: 3
#     Node 15, Type 0, BuildingBlock: KAKCAD_clean_linker_0, # of connection points: 3
#     Node 16, Type 1, BuildingBlock: NAHDIM_clean_sbu_0, # of connection points: 4
#     Node 17, Type 1, BuildingBlock: NAHDIM_clean_sbu_0, # of connection points: 4
#     Node 18, Type 1, BuildingBlock: NAHDIM_clean_sbu_0, # of connection points: 4
#     Node 19, Type 1, BuildingBlock: NAHDIM_clean_sbu_0, # of connection points: 4
#     Node 20, Type 1, BuildingBlock: NAHDIM_clean_sbu_0, # of connection points: 4
#     Node 21, Type 1, BuildingBlock: NAHDIM_clean_sbu_0, # of connection points: 4
#     Node 22, Type 1, BuildingBlock: NAHDIM_clean_sbu_0, # of connection points: 4
#     Node 23, Type 1, BuildingBlock: NAHDIM_clean_sbu_0, # of connection points: 4
#     Node 24, Type 1, BuildingBlock: NAHDIM_clean_sbu_0, # of connection points: 4
#     Node 25, Type 1, BuildingBlock: NAHDIM_clean_sbu_0, # of connection points: 4
#     Node 26, Type 1, BuildingBlock: NAHDIM_clean_sbu_0, # of connection points: 4
#     Node 27, Type 1, BuildingBlock: NAHDIM_clean_sbu_0, # of connection points: 4
#     Edge 28, Type (0, 1), BuildingBlock: MIFKUJ_clean_linker_0, # of connection points: 2
#     Edge 29, Type (0, 1), BuildingBlock: MIFKUJ_clean_linker_0, # of connection points: 2
#     Edge 30, Type (0, 1), BuildingBlock: MIFKUJ_clean_linker_0, # of connection points: 2
#     Edge 31, Type (0, 1), BuildingBlock: MIFKUJ_clean_linker_0, # of connection points: 2
#     Edge 32, Type (0, 1), BuildingBlock: MIFKUJ_clean_linker_0, # of connection points: 2
#     Edge 33, Type (0, 1), BuildingBlock: MIFKUJ_clean_linker_0, # of connection points: 2
#     Edge 34, Type (0, 1), BuildingBlock: MIFKUJ_clean_linker_0, # of connection points: 2
#     Edge 35, Type (0, 1), BuildingBlock: MIFKUJ_clean_linker_0, # of connection points: 2
#     Edge 36, Type (0, 1), BuildingBlock: MIFKUJ_clean_linker_0, # of connection points: 2
#     Edge 37, Type (0, 1), BuildingBlock: MIFKUJ_clean_linker_0, # of connection points: 2
#     Edge 38, Type (0, 1), BuildingBlock: MIFKUJ_clean_linker_0, # of connection points: 2
#     Edge 39, Type (0, 1), BuildingBlock: MIFKUJ_clean_linker_0, # of connection points: 2
#     Edge 40, Type (0, 1), BuildingBlock: MIFKUJ_clean_linker_0, # of connection points: 2
#     Edge 41, Type (0, 1), BuildingBlock: MIFKUJ_clean_linker_0, # of connection points: 2
#     Edge 42, Type (0, 1), BuildingBlock: MIFKUJ_clean_linker_0, # of connection points: 2
#     Edge 43, Type (0, 1), BuildingBlock: MIFKUJ_clean_linker_0, # of connection points: 2
#     Edge 44, Type (0, 1), BuildingBlock: MIFKUJ_clean_linker_0, # of connection points: 2
#     Edge 45, Type (0, 1), BuildingBlock: MIFKUJ_clean_linker_0, # of connection points: 2
#     Edge 46, Type (0, 1), BuildingBlock: MIFKUJ_clean_linker_0, # of connection points: 2
#     Edge 47, Type (0, 1), BuildingBlock: MIFKUJ_clean_linker_0, # of connection points: 2
#     Edge 48, Type (0, 1), BuildingBlock: MIFKUJ_clean_linker_0, # of connection points: 2
#     Edge 49, Type (0, 1), BuildingBlock: MIFKUJ_clean_linker_0, # of connection points: 2
#     Edge 50, Type (0, 1), BuildingBlock: MIFKUJ_clean_linker_0, # of connection points: 2
#     Edge 51, Type (0, 1), BuildingBlock: MIFKUJ_clean_linker_0, # of connection points: 2
#     Edge 52, Type (0, 1), BuildingBlock: MIFKUJ_clean_linker_0, # of connection points: 2
#     Edge 53, Type (0, 1), BuildingBlock: MIFKUJ_clean_linker_0, # of connection points: 2
#     Edge 54, Type (0, 1), BuildingBlock: MIFKUJ_clean_linker_0, # of connection points: 2
#     Edge 55, Type (0, 1), BuildingBlock: MIFKUJ_clean_linker_0, # of connection points: 2
#     Edge 56, Type (0, 1), BuildingBlock: MIFKUJ_clean_linker_0, # of connection points: 2
#     Edge 57, Type (0, 1), BuildingBlock: MIFKUJ_clean_linker_0, # of connection points: 2
#     Edge 58, Type (0, 1), BuildingBlock: MIFKUJ_clean_linker_0, # of connection points: 2
#     Edge 59, Type (0, 1), BuildingBlock: MIFKUJ_clean_linker_0, # of connection points: 2
#     Edge 60, Type (0, 1), BuildingBlock: MIFKUJ_clean_linker_0, # of connection points: 2
#     Edge 61, Type (0, 1), BuildingBlock: MIFKUJ_clean_linker_0, # of connection points: 2
#     Edge 62, Type (0, 1), BuildingBlock: MIFKUJ_clean_linker_0, # of connection points: 2
#     Edge 63, Type (0, 1), BuildingBlock: MIFKUJ_clean_linker_0, # of connection points: 2
#     Edge 64, Type (0, 1), BuildingBlock: MIFKUJ_clean_linker_0, # of connection points: 2
#     Edge 65, Type (0, 1), BuildingBlock: MIFKUJ_clean_linker_0, # of connection points: 2
#     Edge 66, Type (0, 1), BuildingBlock: MIFKUJ_clean_linker_0, # of connection points: 2
#     Edge 67, Type (0, 1), BuildingBlock: MIFKUJ_clean_linker_0, # of connection points: 2
#     Edge 68, Type (0, 1), BuildingBlock: MIFKUJ_clean_linker_0, # of connection points: 2
#     Edge 69, Type (0, 1), BuildingBlock: MIFKUJ_clean_linker_0, # of connection points: 2
#     Edge 70, Type (0, 1), BuildingBlock: MIFKUJ_clean_linker_0, # of connection points: 2
#     Edge 71, Type (0, 1), BuildingBlock: MIFKUJ_clean_linker_0, # of connection points: 2
#     Edge 72, Type (0, 1), BuildingBlock: MIFKUJ_clean_linker_0, # of connection points: 2
#     Edge 73, Type (0, 1), BuildingBlock: MIFKUJ_clean_linker_0, # of connection points: 2
#     Edge 74, Type (0, 1), BuildingBlock: MIFKUJ_clean_linker_0, # of connection points: 2
#     Edge 75, Type (0, 1), BuildingBlock: MIFKUJ_clean_linker_0, # of connection points: 2
# Relax obj value: 0.001
# Max RMSD: 0.033
# Mean RMSD: 0.016
data_MOF--net-ctn--node1-NAHDIM_clean_sbu_0--node2-KAKCAD_clean_linker_0--edge1-MIFKUJ_clean_linker_0
_symmetry_space_group_name_H-M    P1
_symmetry_Int_Tables_number       1
_symmetry_cell_setting            triclinic
loop_
_symmetry_equiv_pos_as_xyz
'x, y, z'
_cell_length_a     84.372009
_cell_length_b     84.68576
_cell_length_c     83.829823
_cell_angle_alpha  91.153873
_cell_angle_beta   90.318802
_cell_angle_gamma 92.164936
loop_
_atom_site_label
_atom_site_type_symbol
_atom_site_fract_x
_atom_site_fract_y
_atom_site_fract_z
_atom_type_partial_charge
C0 C 0.02897 0.08094 0.99198 0.0
C1 C 0.02464 0.09577 0.99801 0.0
C2 C 0.03166 0.06856 0.00232 0.0
C3 C 0.03009 0.07075 0.0189 0.0
C4 C 0.02587 0.08562 0.0249 0.0
C5 C 0.02316 0.09797 0.01458 0.0
C6 C 0.03287 0.05765 0.02997 0.0
C7 C 0.04571 0.04779 0.02773 0.0
C8 C 0.04868 0.03571 0.03849 0.0
C9 C 0.03863 0.03363 0.05167 0.0
C10 C 0.02571 0.04338 0.05412 0.0
C11 C 0.02285 0.05523 0.04309 0.0
C12 C 0.0154 0.04148 0.06836 0.0
C13 C 0.0112 0.0264 0.07406 0.0
C14 C 0.00975 0.05483 0.07645 0.0
C15 C 0.00011 0.05315 0.08983 0.0
C16 C 0.996 0.03808 0.09561 0.0
C17 C 0.06245 0.02547 0.03611 0.0
C18 C 0.06638 0.01994 0.02076 0.0
C19 C 0.07181 0.02122 0.04916 0.0
C20 C 0.08477 0.01164 0.04691 0.0
C21 C 0.08872 0.00617 0.03155 0.0
C22 C 0.07939 0.01043 0.0185 0.0
C23 C 0.00167 0.02472 0.08756 0.0
H24 H 0.03004 0.07884 0.97925 0.0
H25 H 0.03473 0.05719 0.99732 0.0
H26 H 0.02486 0.08779 0.03763 0.0
H27 H 0.02013 0.10934 0.01962 0.0
H28 H 0.05373 0.04985 0.01786 0.0
H29 H 0.01265 0.0625 0.04459 0.0
H30 H 0.04096 0.02447 0.06011 0.0
H31 H 0.01518 0.01585 0.06803 0.0
H32 H 0.01291 0.06665 0.07256 0.0
H33 H 0.99579 0.06371 0.09556 0.0
H34 H 0.05928 0.0228 0.01048 0.0
H35 H 0.0693 0.0255 0.0611 0.0
H36 H 0.99891 0.01294 0.09177 0.0
H37 H 0.08202 0.00622 0.00655 0.0
H38 H 0.09188 0.00875 0.05717 0.0
C39 C 0.33734 0.73733 0.24854 0.0
C40 C 0.3456 0.72473 0.25483 0.0
C41 C 0.32476 0.73445 0.23784 0.0
C42 C 0.32018 0.71891 0.23313 0.0
C43 C 0.32852 0.70632 0.23932 0.0
C44 C 0.34106 0.70919 0.25007 0.0
C45 C 0.30664 0.71584 0.22193 0.0
C46 C 0.30447 0.72562 0.20882 0.0
C47 C 0.29155 0.72295 0.19834 0.0
C48 C 0.28082 0.71019 0.20099 0.0
C49 C 0.28282 0.70024 0.214 0.0
C50 C 0.29573 0.7032 0.22443 0.0
C51 C 0.27136 0.68686 0.21684 0.0
C52 C 0.25497 0.68871 0.21493 0.0
C53 C 0.27672 0.67215 0.22159 0.0
C54 C 0.26596 0.65961 0.22443 0.0
C55 C 0.24957 0.66146 0.22257 0.0
C56 C 0.28915 0.73361 0.18474 0.0
C57 C 0.29135 0.75006 0.18681 0.0
C58 C 0.28448 0.72745 0.16967 0.0
C59 C 0.28197 0.73753 0.15698 0.0
C60 C 0.28407 0.75399 0.15908 0.0
C61 C 0.28884 0.76013 0.17413 0.0
C62 C 0.2442 0.67615 0.21775 0.0
H63 H 0.34065 0.74945 0.2518 0.0
H64 H 0.31848 0.74442 0.23344 0.0
H65 H 0.32542 0.69422 0.2358 0.0
H66 H 0.34706 0.6992 0.2548 0.0
H67 H 0.31302 0.73517 0.20658 0.0
H68 H 0.29703 0.6959 0.23479 0.0
H69 H 0.27084 0.70804 0.19294 0.0
H70 H 0.25043 0.69994 0.21145 0.0
H71 H 0.28928 0.67029 0.22301 0.0
H72 H 0.27048 0.6485 0.22829 0.0
H73 H 0.2948 0.75518 0.19831 0.0
H74 H 0.28284 0.71482 0.16764 0.0
H75 H 0.23167 0.67793 0.21603 0.0
H76 H 0.29074 0.77274 0.17609 0.0
H77 H 0.27816 0.73243 0.14558 0.0
C78 C 0.98787 0.47481 0.09495 0.0
C79 C 0.00436 0.47329 0.09388 0.0
C80 C 0.97836 0.47383 0.08123 0.0
C81 C 0.98514 0.4712 0.06618 0.0
C82 C 0.00164 0.46972 0.06512 0.0
C83 C 0.01115 0.47079 0.07881 0.0
C84 C 0.97503 0.46982 0.05164 0.0
C85 C 0.96288 0.48041 0.04919 0.0
C86 C 0.95328 0.47916 0.03544 0.0
C87 C 0.95586 0.46705 0.02415 0.0
C88 C 0.96792 0.45633 0.02645 0.0
C89 C 0.97749 0.45785 0.04019 0.0
C90 C 0.97041 0.44339 0.01465 0.0
C91 C 0.95745 0.43428 0.00845 0.0
C92 C 0.9858 0.43987 0.00974 0.0
C93 C 0.9882 0.42743 0.99892 0.0
C94 C 0.97526 0.41819 0.99288 0.0
C95 C 0.94062 0.49055 0.03283 0.0
C96 C 0.93055 0.49482 0.04537 0.0
C97 C 0.93854 0.49724 0.01779 0.0
C98 C 0.92664 0.50798 0.01534 0.0
C99 C 0.91651 0.51219 0.02785 0.0
C100 C 0.91859 0.50549 0.04289 0.0
C101 C 0.95986 0.42177 0.99772 0.0
H102 H 0.98232 0.47688 0.10639 0.0
H103 H 0.96567 0.47489 0.08244 0.0
H104 H 0.00721 0.46783 0.05366 0.0
H105 H 0.0238 0.46943 0.07762 0.0
H106 H 0.96116 0.4899 0.0578 0.0
H107 H 0.98658 0.44939 0.04221 0.0
H108 H 0.94844 0.46595 0.01355 0.0
H109 H 0.94547 0.43664 0.01212 0.0
H110 H 0.996 0.44677 0.01422 0.0
H111 H 0.00021 0.42487 0.99552 0.0
H112 H 0.9318 0.48977 0.05705 0.0
H113 H 0.94622 0.49429 0.00795 0.0
H114 H 0.94965 0.41493 0.99315 0.0
H115 H 0.91106 0.50862 0.0528 0.0
H116 H 0.92523 0.51283 0.00358 0.0
C117 C 0.70452 0.76308 0.1529 0.0
C118 C 0.72032 0.75974 0.14939 0.0
C119 C 0.70104 0.7737 0.16528 0.0
C120 C 0.71331 0.78111 0.17445 0.0
C121 C 0.72909 0.77751 0.17108 0.0
C122 C 0.73256 0.76699 0.15867 0.0
C123 C 0.70973 0.79274 0.18733 0.0
C124 C 0.69677 0.79015 0.19753 0.0
C125 C 0.6935 0.80106 0.20983 0.0
C126 C 0.70339 0.8147 0.21186 0.0
C127 C 0.71645 0.81742 0.20185 0.0
C128 C 0.71944 0.80646 0.18956 0.0
C129 C 0.7272 0.83153 0.20437 0.0
C130 C 0.72109 0.84649 0.20744 0.0
C131 C 0.74372 0.83007 0.20375 0.0
C132 C 0.75392 0.84328 0.2061 0.0
C133 C 0.74785 0.85827 0.20908 0.0
C134 C 0.67996 0.79808 0.22076 0.0
C135 C 0.66527 0.7921 0.21481 0.0
C136 C 0.68164 0.80114 0.23724 0.0
C137 C 0.66894 0.79832 0.24753 0.0
C138 C 0.65425 0.79234 0.2416 0.0
C139 C 0.65255 0.78927 0.22512 0.0
C140 C 0.73131 0.85973 0.20975 0.0
H141 H 0.69486 0.75776 0.14585 0.0
H142 H 0.68877 0.77635 0.16743 0.0
H143 H 0.73881 0.78274 0.17812 0.0
H144 H 0.74484 0.76443 0.15641 0.0
H145 H 0.68949 0.77938 0.19621 0.0
H146 H 0.72924 0.80877 0.18152 0.0
H147 H 0.70101 0.82316 0.22134 0.0
H148 H 0.70841 0.848 0.20781 0.0
H149 H 0.74878 0.81865 0.20167 0.0
H150 H 0.76659 0.84168 0.20581 0.0
H151 H 0.66354 0.78975 0.20216 0.0
H152 H 0.69286 0.80557 0.24223 0.0
H153 H 0.72625 0.87115 0.21183 0.0
H154 H 0.64145 0.7845 0.22018 0.0
H155 H 0.67059 0.80097 0.26014 0.0
C156 C 0.99111 0.97852 0.42328 0.0
C157 C 0.99684 0.98014 0.40768 0.0
C158 C 0.00157 0.97626 0.43593 0.0
C159 C 0.01797 0.97584 0.43325 0.0
C160 C 0.02372 0.97762 0.41767 0.0
C161 C 0.01323 0.97961 0.40497 0.0
C162 C 0.02901 0.97355 0.44671 0.0
C163 C 0.02611 0.96123 0.45738 0.0
C164 C 0.03636 0.95907 0.47036 0.0
C165 C 0.04951 0.96957 0.47265 0.0
C166 C 0.05257 0.98197 0.46208 0.0
C167 C 0.04233 0.98378 0.44903 0.0
C168 C 0.06631 0.99317 0.46484 0.0
C169 C 0.06973 0.99926 0.48025 0.0
C170 C 0.07607 0.99788 0.45213 0.0
C171 C 0.08903 0.00839 0.45479 0.0
C172 C 0.09244 0.01448 0.4702 0.0
C173 C 0.03337 0.94583 0.48146 0.0
C174 C 0.01785 0.94169 0.4863 0.0
C175 C 0.046 0.93717 0.48726 0.0
C176 C 0.04319 0.9247 0.49765 0.0
C177 C 0.02767 0.92053 0.50246 0.0
C178 C 0.01504 0.92918 0.49664 0.0
C179 C 0.08263 0.00982 0.48289 0.0
H180 H 0.97851 0.97878 0.42565 0.0
H181 H 0.99686 0.97502 0.44785 0.0
H182 H 0.03632 0.97726 0.4153 0.0
H183 H 0.01794 0.98093 0.39305 0.0
H184 H 0.01605 0.9531 0.45532 0.0
H185 H 0.04441 0.99349 0.44097 0.0
H186 H 0.05739 0.96812 0.48273 0.0
H187 H 0.06232 0.99599 0.49026 0.0
H188 H 0.07379 0.9933 0.44014 0.0
H189 H 0.0963 0.01187 0.44475 0.0
H190 H 0.00787 0.94822 0.4822 0.0
H191 H 0.05807 0.9399 0.48362 0.0
H192 H 0.08505 0.01418 0.49493 0.0
H193 H 0.00292 0.92618 0.49994 0.0
H194 H 0.05322 0.91842 0.50205 0.0
C195 C 0.15413 0.71223 0.75998 0.0
C196 C 0.15086 0.72719 0.75407 0.0
C197 C 0.16664 0.71049 0.77072 0.0
C198 C 0.17612 0.72366 0.7758 0.0
C199 C 0.17284 0.73861 0.76989 0.0
C200 C 0.16036 0.74035 0.75913 0.0
C201 C 0.18941 0.72183 0.78722 0.0
C202 C 0.19957 0.70915 0.78551 0.0
C203 C 0.21228 0.70744 0.79615 0.0
C204 C 0.21475 0.71858 0.80865 0.0
C205 C 0.20469 0.73132 0.81058 0.0
C206 C 0.19204 0.73283 0.79981 0.0
C207 C 0.20738 0.74305 0.82382 0.0
C208 C 0.21136 0.73812 0.83919 0.0
C209 C 0.20602 0.75928 0.82116 0.0
C210 C 0.20862 0.77033 0.83358 0.0
C211 C 0.21263 0.7654 0.84895 0.0
C212 C 0.22308 0.69413 0.79409 0.0
C213 C 0.21697 0.67879 0.79049 0.0
C214 C 0.23959 0.69668 0.79561 0.0
C215 C 0.24976 0.68417 0.79352 0.0
C216 C 0.24365 0.66884 0.7899 0.0
C217 C 0.22714 0.66628 0.78844 0.0
C218 C 0.21395 0.74917 0.85162 0.0
H219 H 0.14712 0.70184 0.7562 0.0
H220 H 0.16879 0.69883 0.77517 0.0
H221 H 0.18003 0.74896 0.77346 0.0
H222 H 0.15803 0.75205 0.75492 0.0
H223 H 0.19785 0.70084 0.7756 0.0
H224 H 0.18401 0.74241 0.80145 0.0
H225 H 0.22456 0.71735 0.81687 0.0
H226 H 0.21233 0.72569 0.84167 0.0
H227 H 0.20312 0.76347 0.80941 0.0
H228 H 0.20735 0.78274 0.83117 0.0
H229 H 0.2043 0.67644 0.78937 0.0
H230 H 0.24466 0.70839 0.79823 0.0
H231 H 0.21718 0.745 0.86328 0.0
H232 H 0.22209 0.65463 0.78551 0.0
H233 H 0.26241 0.6865 0.79486 0.0
C234 C 0.98178 0.59635 0.48795 0.0
C235 C 0.97933 0.59568 0.50448 0.0
C236 C 0.97887 0.58296 0.47821 0.0
C237 C 0.97364 0.56854 0.48482 0.0
C238 C 0.97128 0.56791 0.5014 0.0
C239 C 0.97401 0.58136 0.51111 0.0
C240 C 0.97066 0.55425 0.47444 0.0
C241 C 0.98053 0.55122 0.46136 0.0
C242 C 0.97768 0.5379 0.45137 0.0
C243 C 0.96492 0.52738 0.45468 0.0
C244 C 0.95495 0.53014 0.46772 0.0
C245 C 0.95787 0.54363 0.47749 0.0
C246 C 0.94142 0.51903 0.47109 0.0
C247 C 0.9316 0.51295 0.45864 0.0
C248 C 0.9382 0.51443 0.48679 0.0
C249 C 0.92545 0.50399 0.48999 0.0
C250 C 0.91561 0.49795 0.47755 0.0
C251 C 0.98794 0.53509 0.43736 0.0
C252 C 0.99228 0.54758 0.42729 0.0
C253 C 0.99335 0.51992 0.43385 0.0
C254 C 0.00288 0.5173 0.42055 0.0
C255 C 0.00711 0.52977 0.41042 0.0
C256 C 0.00173 0.54494 0.41395 0.0
C257 C 0.91882 0.50255 0.46184 0.0
H258 H 0.98569 0.60731 0.48251 0.0
H259 H 0.98052 0.584 0.46547 0.0
H260 H 0.96753 0.55696 0.50695 0.0
H261 H 0.9722 0.58049 0.52385 0.0
H262 H 0.99067 0.55907 0.45909 0.0
H263 H 0.94988 0.54607 0.48723 0.0
H264 H 0.96269 0.51705 0.44704 0.0
H265 H 0.93369 0.51639 0.44643 0.0
H266 H 0.94563 0.51881 0.49662 0.0
H267 H 0.92319 0.50079 0.50223 0.0
H268 H 0.98818 0.55937 0.42961 0.0
H269 H 0.9903 0.51009 0.44147 0.0
H270 H 0.91153 0.49799 0.45198 0.0
H271 H 0.00492 0.55482 0.40645 0.0
H272 H 0.00674 0.50545 0.41806 0.0
C273 C 0.79828 0.75863 0.8406 0.0
C274 C 0.78269 0.75335 0.84404 0.0
C275 C 0.80126 0.769 0.82813 0.0
C276 C 0.78872 0.77437 0.81885 0.0
C277 C 0.77314 0.76903 0.8222 0.0
C278 C 0.77017 0.75861 0.83463 0.0
C279 C 0.79186 0.78569 0.80585 0.0
C280 C 0.8045 0.78353 0.7953 0.0
C281 C 0.80777 0.79434 0.78312 0.0
C282 C 0.79812 0.80742 0.78161 0.0
C283 C 0.78528 0.80963 0.79192 0.0
C284 C 0.78228 0.79873 0.80403 0.0
C285 C 0.77491 0.82325 0.78998 0.0
C286 C 0.78144 0.8384 0.78694 0.0
C287 C 0.75835 0.82114 0.79109 0.0
C288 C 0.74853 0.83389 0.78917 0.0
C289 C 0.75505 0.84904 0.78611 0.0
C290 C 0.82109 0.79182 0.77187 0.0
C291 C 0.83536 0.78559 0.77725 0.0
C292 C 0.81958 0.79542 0.75563 0.0
C293 C 0.83201 0.79287 0.74505 0.0
C294 C 0.84612 0.78645 0.75043 0.0
C295 C 0.84769 0.78283 0.76662 0.0
C296 C 0.77161 0.85116 0.78505 0.0
H297 H 0.80818 0.75501 0.84777 0.0
H298 H 0.81337 0.77307 0.82596 0.0
H299 H 0.76326 0.7728 0.8151 0.0
H300 H 0.75805 0.75457 0.83678 0.0
H301 H 0.81154 0.77316 0.79636 0.0
H302 H 0.77269 0.80061 0.81232 0.0
H303 H 0.80052 0.81588 0.77232 0.0
H304 H 0.79416 0.84043 0.78616 0.0
H305 H 0.75295 0.80959 0.79327 0.0
H306 H 0.73583 0.8319 0.79023 0.0
H307 H 0.83708 0.78296 0.78971 0.0
H308 H 0.80869 0.79994 0.75097 0.0
H309 H 0.77699 0.86266 0.78257 0.0
H310 H 0.85853 0.77802 0.77108 0.0
H311 H 0.83046 0.79559 0.73258 0.0
C312 C 0.30123 0.25478 0.33634 0.0
C313 C 0.28592 0.24906 0.3403 0.0
C314 C 0.30338 0.26589 0.32437 0.0
C315 C 0.29027 0.27156 0.31612 0.0
C316 C 0.27497 0.26583 0.32007 0.0
C317 C 0.27282 0.25471 0.33202 0.0
C318 C 0.29252 0.28339 0.30341 0.0
C319 C 0.30478 0.28199 0.29226 0.0
C320 C 0.30688 0.29302 0.28008 0.0
C321 C 0.29651 0.30559 0.27915 0.0
C322 C 0.28415 0.30716 0.29017 0.0
C323 C 0.28231 0.29604 0.30229 0.0
C324 C 0.27305 0.32029 0.28891 0.0
C325 C 0.27868 0.33565 0.28538 0.0
C326 C 0.25669 0.31749 0.29113 0.0
C327 C 0.24619 0.32976 0.28981 0.0
C328 C 0.2518 0.34511 0.28621 0.0
C329 C 0.31973 0.29126 0.26821 0.0
C330 C 0.33487 0.28678 0.27303 0.0
C331 C 0.31693 0.29389 0.25194 0.0
C332 C 0.32896 0.29202 0.24076 0.0
C333 C 0.34407 0.28745 0.24557 0.0
C334 C 0.3469 0.28488 0.26184 0.0
C335 C 0.26817 0.34792 0.28402 0.0
H336 H 0.31157 0.25056 0.34239 0.0
H337 H 0.31531 0.27018 0.32169 0.0
H338 H 0.26464 0.26983 0.31382 0.0
H339 H 0.26086 0.25069 0.33491 0.0
H340 H 0.31241 0.27199 0.29277 0.0
H341 H 0.27306 0.29742 0.31108 0.0
H342 H 0.29801 0.31411 0.26976 0.0
H343 H 0.29124 0.33824 0.28383 0.0
H344 H 0.25194 0.30574 0.29362 0.0
H345 H 0.23362 0.32716 0.29131 0.0
H346 H 0.33747 0.28482 0.28548 0.0
H347 H 0.30535 0.29719 0.24781 0.0
H348 H 0.27288 0.35967 0.28145 0.0
H349 H 0.35835 0.28118 0.26593 0.0
H350 H 0.32644 0.29426 0.22834 0.0
C351 C 0.48843 0.98062 0.59082 0.0
C352 C 0.50498 0.97959 0.58964 0.0
C353 C 0.47875 0.97832 0.57734 0.0
C354 C 0.48538 0.97489 0.56239 0.0
C355 C 0.50192 0.97394 0.56117 0.0
C356 C 0.51162 0.97628 0.57465 0.0
C357 C 0.47502 0.97205 0.54817 0.0
C358 C 0.46221 0.98176 0.54534 0.0
C359 C 0.45209 0.97892 0.53214 0.0
C360 C 0.45495 0.96617 0.52168 0.0
C361 C 0.46779 0.95641 0.52426 0.0
C362 C 0.47776 0.95945 0.53752 0.0
C363 C 0.47071 0.94293 0.51322 0.0
C364 C 0.45811 0.93278 0.50791 0.0
C365 C 0.48616 0.94004 0.50802 0.0
C366 C 0.48896 0.92727 0.49775 0.0
C367 C 0.47639 0.91706 0.49252 0.0
C368 C 0.43856 0.98929 0.52928 0.0
C369 C 0.42939 0.9947 0.54209 0.0
C370 C 0.43474 0.99389 0.51374 0.0
C371 C 0.42204 0.00365 0.51107 0.0
C372 C 0.41293 0.00909 0.52389 0.0
C373 C 0.41675 0.00452 0.53943 0.0
C374 C 0.46093 0.91995 0.49771 0.0
H375 H 0.48291 0.98289 0.60223 0.0
H376 H 0.46602 0.9789 0.5787 0.0
H377 H 0.50739 0.97152 0.54977 0.0
H378 H 0.52434 0.97565 0.57328 0.0
H379 H 0.46033 0.99176 0.55328 0.0
H380 H 0.48741 0.95169 0.53982 0.0
H381 H 0.44718 0.9638 0.51152 0.0
H382 H 0.4461 0.93463 0.51183 0.0
H383 H 0.49608 0.94773 0.51181 0.0
H384 H 0.50102 0.92526 0.49408 0.0
H385 H 0.43184 0.99117 0.55417 0.0
H386 H 0.44172 0.99015 0.50363 0.0
H387 H 0.45099 0.91237 0.49377 0.0
H388 H 0.40979 0.00834 0.54952 0.0
H389 H 0.41951 0.00714 0.49899 0.0
C390 C 0.20158 0.26992 0.6537 0.0
C391 C 0.21699 0.26497 0.65053 0.0
C392 C 0.19878 0.28008 0.66664 0.0
C393 C 0.21133 0.28557 0.67662 0.0
C394 C 0.22674 0.28068 0.67339 0.0
C395 C 0.22953 0.27049 0.6605 0.0
C396 C 0.20839 0.29625 0.69046 0.0
C397 C 0.19536 0.29334 0.70047 0.0
C398 C 0.19277 0.30311 0.71387 0.0
C399 C 0.20339 0.31596 0.71718 0.0
C400 C 0.21647 0.31909 0.70727 0.0
C401 C 0.21881 0.3092 0.6939 0.0
C402 C 0.22782 0.33254 0.71097 0.0
C403 C 0.22239 0.34718 0.71637 0.0
C404 C 0.24422 0.3308 0.70912 0.0
C405 C 0.25492 0.34341 0.71251 0.0
C406 C 0.2495 0.35806 0.71792 0.0
C407 C 0.17918 0.29964 0.7246 0.0
C408 C 0.1642 0.29509 0.71826 0.0
C409 C 0.18116 0.30059 0.74125 0.0
C410 C 0.16848 0.29698 0.75134 0.0
C411 C 0.15352 0.29231 0.74501 0.0
C412 C 0.15151 0.29147 0.72836 0.0
C413 C 0.2331 0.35979 0.71983 0.0
H414 H 0.19165 0.26576 0.64631 0.0
H415 H 0.18679 0.28374 0.66875 0.0
H416 H 0.23663 0.28458 0.68096 0.0
H417 H 0.24156 0.26703 0.65827 0.0
H418 H 0.18752 0.28311 0.69812 0.0
H419 H 0.22865 0.31173 0.68598 0.0
H420 H 0.20152 0.32347 0.72756 0.0
H421 H 0.20982 0.34897 0.71778 0.0
H422 H 0.24883 0.31962 0.70517 0.0
H423 H 0.26745 0.34171 0.71072 0.0
H424 H 0.16224 0.29447 0.70548 0.0
H425 H 0.19262 0.30381 0.74651 0.0
H426 H 0.22853 0.37086 0.72414 0.0
H427 H 0.14008 0.28814 0.72311 0.0
H428 H 0.17047 0.29752 0.76412 0.0
C429 C 0.83634 0.23492 0.74705 0.0
C430 C 0.84546 0.2223 0.75188 0.0
C431 C 0.82287 0.23215 0.7375 0.0
C432 C 0.81824 0.21671 0.7325 0.0
C433 C 0.82733 0.20407 0.73738 0.0
C434 C 0.84078 0.20684 0.74699 0.0
C435 C 0.80399 0.21384 0.72219 0.0
C436 C 0.80083 0.2241 0.70969 0.0
C437 C 0.78728 0.2217 0.70003 0.0
C438 C 0.77686 0.20875 0.7029 0.0
C439 C 0.77984 0.19831 0.71528 0.0
C440 C 0.79343 0.20095 0.72487 0.0
C441 C 0.76869 0.18471 0.71823 0.0
C442 C 0.75221 0.18657 0.71762 0.0
C443 C 0.77442 0.16973 0.7215 0.0
C444 C 0.76391 0.15687 0.72393 0.0
C445 C 0.74743 0.1587 0.72315 0.0
C446 C 0.78394 0.23277 0.68701 0.0
C447 C 0.78626 0.24917 0.68948 0.0
C448 C 0.77831 0.22706 0.67209 0.0
C449 C 0.775 0.23752 0.65994 0.0
C450 C 0.77728 0.25391 0.66242 0.0
C451 C 0.78299 0.25962 0.67731 0.0
C452 C 0.74171 0.17371 0.72004 0.0
H453 H 0.83949 0.24694 0.75084 0.0
H454 H 0.81597 0.24212 0.7342 0.0
H455 H 0.82421 0.19206 0.73356 0.0
H456 H 0.84768 0.19689 0.75037 0.0
H457 H 0.80913 0.23382 0.70726 0.0
H458 H 0.79555 0.1932 0.73473 0.0
H459 H 0.76638 0.20681 0.69549 0.0
H460 H 0.74742 0.19801 0.7154 0.0
H461 H 0.78705 0.16788 0.72186 0.0
H462 H 0.76869 0.14541 0.7261 0.0
H463 H 0.79036 0.25396 0.70091 0.0
H464 H 0.77663 0.21449 0.66973 0.0
H465 H 0.72908 0.17557 0.71964 0.0
H466 H 0.78465 0.2722 0.67967 0.0
H467 H 0.77084 0.23275 0.64851 0.0
C468 C 0.53259 0.57984 0.49083 0.0
C469 C 0.52729 0.5944 0.4966 0.0
C470 C 0.53508 0.56751 0.5013 0.0
C471 C 0.53244 0.56952 0.51776 0.0
C472 C 0.52727 0.58417 0.52349 0.0
C473 C 0.52467 0.59643 0.51302 0.0
C474 C 0.53507 0.55646 0.52896 0.0
C475 C 0.54806 0.54669 0.52706 0.0
C476 C 0.55079 0.53462 0.53787 0.0
C477 C 0.54041 0.53239 0.55074 0.0
C478 C 0.52731 0.54196 0.5528 0.0
C479 C 0.52469 0.55388 0.54178 0.0
C480 C 0.51644 0.53962 0.56652 0.0
C481 C 0.51192 0.52432 0.57143 0.0
C482 C 0.51056 0.5527 0.57487 0.0
C483 C 0.50042 0.55054 0.58782 0.0
C484 C 0.49599 0.53526 0.59277 0.0
C485 C 0.56449 0.52432 0.53577 0.0
C486 C 0.56793 0.51782 0.52068 0.0
C487 C 0.57406 0.52071 0.54887 0.0
C488 C 0.58674 0.51071 0.54696 0.0
C489 C 0.59004 0.50403 0.53192 0.0
C490 C 0.58054 0.50773 0.51879 0.0
C491 C 0.50185 0.52217 0.58445 0.0
H492 H 0.53455 0.57789 0.4782 0.0
H493 H 0.53886 0.55632 0.49645 0.0
H494 H 0.52543 0.58626 0.53612 0.0
H495 H 0.52083 0.60762 0.51783 0.0
H496 H 0.55634 0.54875 0.51742 0.0
H497 H 0.51435 0.561 0.54304 0.0
H498 H 0.54257 0.52318 0.55919 0.0
H499 H 0.51603 0.51399 0.56511 0.0
H500 H 0.51401 0.56464 0.57158 0.0
H501 H 0.49628 0.56086 0.59416 0.0
H502 H 0.56068 0.52031 0.51039 0.0
H503 H 0.57179 0.52567 0.56061 0.0
H504 H 0.49847 0.51025 0.58787 0.0
H505 H 0.5829 0.50287 0.50702 0.0
H506 H 0.59378 0.50798 0.55732 0.0
C507 C 0.48625 0.4773 0.92513 0.0
C508 C 0.49139 0.48035 0.90951 0.0
C509 C 0.49717 0.47441 0.9372 0.0
C510 C 0.51349 0.47464 0.93398 0.0
C511 C 0.51868 0.47773 0.91842 0.0
C512 C 0.50775 0.48047 0.9063 0.0
C513 C 0.52507 0.47175 0.94685 0.0
C514 C 0.52254 0.45908 0.95718 0.0
C515 C 0.53339 0.4563 0.96949 0.0
C516 C 0.5468 0.46651 0.97148 0.0
C517 C 0.54948 0.47929 0.96129 0.0
C518 C 0.53861 0.48175 0.94892 0.0
C519 C 0.56347 0.49023 0.96375 0.0
C520 C 0.5677 0.49578 0.97916 0.0
C521 C 0.57261 0.49529 0.95072 0.0
C522 C 0.58573 0.50567 0.95306 0.0
C523 C 0.5899 0.51128 0.96846 0.0
C524 C 0.53076 0.4427 0.98018 0.0
C525 C 0.51556 0.43899 0.98614 0.0
C526 C 0.54341 0.43327 0.98442 0.0
C527 C 0.54092 0.42039 0.99437 0.0
C528 C 0.52572 0.41664 0.0003 0.0
C529 C 0.51307 0.4261 0.99609 0.0
C530 C 0.58075 0.50621 0.98148 0.0
H531 H 0.47378 0.4774 0.92812 0.0
H532 H 0.49287 0.47226 0.94915 0.0
H533 H 0.53119 0.47779 0.91558 0.0
H534 H 0.51213 0.48249 0.89437 0.0
H535 H 0.51228 0.45113 0.95537 0.0
H536 H 0.54042 0.49177 0.9412 0.0
H537 H 0.55517 0.46453 0.98103 0.0
H538 H 0.56078 0.49221 0.98941 0.0
H539 H 0.5697 0.49112 0.93872 0.0
H540 H 0.59248 0.50946 0.94278 0.0
H541 H 0.50562 0.44616 0.98328 0.0
H542 H 0.55521 0.43569 0.97983 0.0
H543 H 0.58378 0.51021 0.99351 0.0
H544 H 0.50127 0.42368 0.00066 0.0
H545 H 0.55086 0.41319 0.99719 0.0
C546 C 0.65573 0.20895 0.26324 0.0
C547 C 0.65249 0.22381 0.25709 0.0
C548 C 0.66822 0.20737 0.27406 0.0
C549 C 0.67761 0.22064 0.27904 0.0
C550 C 0.67436 0.23549 0.27287 0.0
C551 C 0.66196 0.23705 0.26198 0.0
C552 C 0.69073 0.21907 0.29068 0.0
C553 C 0.70133 0.20675 0.28902 0.0
C554 C 0.71399 0.20541 0.29981 0.0
C555 C 0.7159 0.21653 0.31241 0.0
C556 C 0.70539 0.22891 0.31428 0.0
C557 C 0.69282 0.23005 0.30336 0.0
C558 C 0.70766 0.24074 0.32751 0.0
C559 C 0.71213 0.23604 0.34283 0.0
C560 C 0.70555 0.25687 0.32486 0.0
C561 C 0.70794 0.26804 0.33721 0.0
C562 C 0.71256 0.26336 0.35249 0.0
C563 C 0.72541 0.1926 0.29776 0.0
C564 C 0.72009 0.17716 0.29347 0.0
C565 C 0.74176 0.19573 0.3001 0.0
C566 C 0.75251 0.1837 0.29826 0.0
C567 C 0.74718 0.16827 0.29398 0.0
C568 C 0.73086 0.16513 0.29157 0.0
C569 C 0.71459 0.24722 0.35516 0.0
H570 H 0.6487 0.19852 0.25959 0.0
H571 H 0.67039 0.1958 0.2787 0.0
H572 H 0.6815 0.2459 0.27637 0.0
H573 H 0.65965 0.24868 0.25757 0.0
H574 H 0.69999 0.19849 0.27902 0.0
H575 H 0.68445 0.23935 0.30489 0.0
H576 H 0.72566 0.2156 0.32075 0.0
H577 H 0.71368 0.2237 0.34532 0.0
H578 H 0.70226 0.26092 0.31317 0.0
H579 H 0.70608 0.28035 0.33479 0.0
H580 H 0.70756 0.17431 0.29179 0.0
H581 H 0.74629 0.20756 0.30312 0.0
H582 H 0.7183 0.24321 0.36674 0.0
H583 H 0.72638 0.15331 0.28845 0.0
H584 H 0.76504 0.18654 0.29994 0.0
C585 C 0.47482 0.09811 0.98943 0.0
C586 C 0.47521 0.09617 0.00603 0.0
C587 C 0.47207 0.08508 0.97916 0.0
C588 C 0.46947 0.0699 0.98532 0.0
C589 C 0.46975 0.06797 0.00192 0.0
C590 C 0.47269 0.08097 0.01218 0.0
C591 C 0.46646 0.0561 0.97443 0.0
C592 C 0.4762 0.05373 0.96115 0.0
C593 C 0.47348 0.04066 0.95075 0.0
C594 C 0.46071 0.03 0.95376 0.0
C595 C 0.45088 0.03217 0.96704 0.0
C596 C 0.45388 0.04525 0.97733 0.0
C597 C 0.43747 0.02083 0.9702 0.0
C598 C 0.42752 0.01511 0.95772 0.0
C599 C 0.43445 0.01576 0.98579 0.0
C600 C 0.42171 0.00527 0.98885 0.0
C601 C 0.41168 -0.00037 0.97638 0.0
C602 C 0.48418 0.03803 0.93699 0.0
C603 C 0.49005 0.05085 0.92806 0.0
C604 C 0.48887 0.02273 0.93286 0.0
C605 C 0.49926 0.02031 0.9202 0.0
C606 C 0.50529 0.03316 0.91146 0.0
C607 C 0.50054 0.04844 0.91549 0.0
C608 C 0.41474 0.00464 0.96078 0.0
H609 H 0.47684 0.10968 0.98438 0.0
H610 H 0.4718 0.0869 0.96641 0.0
H611 H 0.46788 0.05638 0.00696 0.0
H612 H 0.47283 0.07917 0.02494 0.0
H613 H 0.48621 0.06185 0.95921 0.0
H614 H 0.44617 0.04723 0.98742 0.0
H615 H 0.45845 0.01992 0.94579 0.0
H616 H 0.42945 0.0189 0.9456 0.0
H617 H 0.442 0.01984 0.99565 0.0
H618 H 0.41957 0.00177 0.00103 0.0
H619 H 0.48647 0.06276 0.93073 0.0
H620 H 0.4848 0.01262 0.93963 0.0
H621 H 0.40732 0.00038 0.95089 0.0
H622 H 0.50483 0.05854 0.90881 0.0
H623 H 0.50287 0.00842 0.91747 0.0
C624 C 0.22428 0.91026 0.00841 0.0
O625 O 0.23392 0.91306 0.99646 0.0
O626 O 0.23995 0.87148 0.99327 0.0
Zn627 Zn 0.24524 0.88498 0.01275 0.0
O628 O 0.26472 0.89886 0.0086 0.0
C629 C 0.25547 0.85764 0.0289 0.0
O630 O 0.25998 0.85382 0.0144 0.0
O631 O 0.22681 0.89869 0.01738 0.0
C632 C 0.27815 0.89711 0.01514 0.0
O633 O 0.27977 0.8858 0.02545 0.0
C634 C 0.24468 0.87508 0.9794 0.0
O635 O 0.25322 0.88819 0.97751 0.0
O636 O 0.24883 0.87071 0.03127 0.0
C637 C 0.14131 0.46868 0.26636 0.0
O638 O 0.12899 0.46998 0.27574 0.0
O639 O 0.11631 0.50064 0.27202 0.0
Zn640 Zn 0.1302 0.49761 0.25276 0.0
O641 O 0.14458 0.51683 0.2496 0.0
C642 C 0.10541 0.48359 0.23271 0.0
O643 O 0.10263 0.47503 0.24537 0.0
O644 O 0.14394 0.47896 0.25575 0.0
C645 C 0.14101 0.53075 0.25379 0.0
O646 O 0.12731 0.53302 0.26066 0.0
C647 C 0.1029 0.50694 0.27104 0.0
O648 O 0.09801 0.51185 0.25716 0.0
O649 O 0.11672 0.49394 0.23311 0.0
C650 C 0.79045 0.61819 -0.00014 0.0
O651 O 0.793 0.63179 0.99287 0.0
O652 O 0.76203 0.64095 0.98028 0.0
Zn653 Zn 0.75774 0.62737 0.9993 0.0
O654 O 0.73857 0.61314 0.99455 0.0
C655 C 0.76143 0.65414 0.02098 0.0
O656 O 0.77273 0.65833 0.01104 0.0
O657 O 0.77639 0.61396 0.00368 0.0
C658 C 0.72489 0.61633 -0.00032 0.0
O659 O 0.72318 0.62922 0.00839 0.0
C660 C 0.75244 0.65159 0.97679 0.0
O661 O 0.73985 0.65343 0.98569 0.0
O662 O 0.75361 0.64121 0.01849 0.0
C663 C 0.85914 0.04603 0.27045 0.0
O664 O 0.8709 0.04418 0.28049 0.0
O665 O 0.8838 0.01355 0.27439 0.0
Zn666 Zn 0.87089 0.01781 0.2547 0.0
O667 O 0.85626 0.999 0.24952 0.0
C668 C 0.8984 0.01577 0.23422 0.0
O669 O 0.90257 0.00522 0.24455 0.0
O670 O 0.85716 0.03638 0.25873 0.0
C671 C 0.8584 0.98925 0.23807 0.0
O672 O 0.87089 0.99118 0.22894 0.0
C673 C 0.88809 -0.00025 0.27764 0.0
O674 O 0.88387 0.98784 0.26806 0.0
O675 O 0.88541 0.02269 0.23615 0.0
C676 C 0.28033 0.10755 0.49734 0.0
O677 O 0.27069 0.10444 0.48522 0.0
O678 O 0.26374 0.14516 0.48234 0.0
Zn679 Zn 0.25904 0.13251 0.50196 0.0
O680 O 0.23969 0.11807 0.49823 0.0
C681 C 0.24831 0.16019 0.51819 0.0
O682 O 0.24299 0.16309 0.50383 0.0
O683 O 0.27773 0.11927 0.50652 0.0
C684 C 0.22631 0.12007 0.5047 0.0
O685 O 0.22465 0.13205 0.51466 0.0
C686 C 0.25676 0.14241 0.46904 0.0
O687 O 0.24612 0.13071 0.46779 0.0
O688 O 0.25565 0.14758 0.52043 0.0
C689 C 0.34544 0.53836 0.76425 0.0
O690 O 0.34124 0.52445 0.76986 0.0
O691 O 0.38523 0.51756 0.77142 0.0
Zn692 Zn 0.37132 0.52083 0.75224 0.0
O693 O 0.3568 0.50177 0.74795 0.0
C694 C 0.3977 0.51682 0.73133 0.0
O695 O 0.40175 0.50699 0.74244 0.0
O696 O 0.35811 0.5398 0.75619 0.0
C697 C 0.36123 0.48768 0.74929 0.0
O698 O 0.37588 0.48523 0.75369 0.0
C699 C 0.38041 0.51021 0.78365 0.0
O700 O 0.36571 0.50457 0.78406 0.0
O701 O 0.38504 0.52434 0.73298 0.0
C702 C 0.71609 0.39557 0.5131 0.0
O703 O 0.71345 0.38199 0.50553 0.0
O704 O 0.74355 0.37043 0.49558 0.0
Zn705 Zn 0.74834 0.38514 0.51425 0.0
O706 O 0.76782 0.39861 0.50946 0.0
C707 C 0.74243 0.36067 0.5367 0.0
O708 O 0.73008 0.35783 0.52731 0.0
O709 O 0.73004 0.39931 0.51801 0.0
C710 C 0.78162 0.39504 0.51396 0.0
O711 O 0.78336 0.38217 0.52218 0.0
C712 C 0.74562 0.37478 0.48131 0.0
O713 O 0.7511 0.38921 0.47867 0.0
O714 O 0.752 0.37214 0.53363 0.0
C715 C 0.652 0.97889 0.76626 0.0
O716 O 0.65522 0.99267 0.77326 0.0
O717 O 0.61216 0.99885 0.77273 0.0
Zn718 Zn 0.62622 0.99582 0.75366 0.0
O719 O 0.64049 0.01523 0.75069 0.0
C720 C 0.59947 0.99833 0.73264 0.0
O721 O 0.59496 0.00803 0.74402 0.0
O722 O 0.63988 0.97728 0.75721 0.0
C723 C 0.63828 0.02553 0.74017 0.0
O724 O 0.62607 0.02376 0.73044 0.0
C725 C 0.6156 0.0089 0.7838 0.0
O726 O 0.62885 0.01749 0.78297 0.0
O727 O 0.61258 0.99157 0.73412 0.0
C728 C 0.99903 0.23072 0.90094 0.0
O729 O 0.98649 0.23914 0.90346 0.0
O730 O 0.98515 0.24891 0.86327 0.0
Zn731 Zn 0.00443 0.25374 0.87692 0.0
O732 O 0.00038 0.27245 0.89134 0.0
C733 C 0.02592 0.24973 0.85081 0.0
O734 O 0.01652 0.2373 0.84776 0.0
O735 O 0.00869 0.2348 0.89008 0.0
C736 C 0.00548 0.2863 0.888 0.0
O737 O 0.01367 0.28845 0.87489 0.0
C738 C 0.98198 0.25759 0.85158 0.0
O739 O 0.99141 0.26986 0.84859 0.0
O740 O 0.02318 0.25848 0.86288 0.0
C741 C 0.50119 0.72877 0.39905 0.0
O742 O 0.48783 0.73617 0.40032 0.0
O743 O 0.48769 0.74825 0.36319 0.0
Zn744 Zn 0.50741 0.75293 0.37642 0.0
O745 O 0.50428 0.77162 0.39126 0.0
C746 C 0.52368 0.76305 0.34809 0.0
O747 O 0.50925 0.76653 0.34377 0.0
O748 O 0.51168 0.73389 0.38943 0.0
C749 C 0.50957 0.7855 0.38829 0.0
O750 O 0.51768 0.78792 0.37519 0.0
C751 C 0.47528 0.75623 0.36439 0.0
O752 O 0.47498 0.76798 0.37484 0.0
O753 O 0.52586 0.75715 0.36172 0.0
C754 C 0.99727 0.7923 0.60962 0.0
O755 O 0.98639 0.79362 0.62067 0.0
O756 O 0.98146 0.76517 0.63671 0.0
Zn757 Zn 0.00055 0.76126 0.62302 0.0
O758 O 0.99668 0.74152 0.60969 0.0
C759 C 0.01919 0.74796 0.64768 0.0
O760 O 0.00629 0.73893 0.64909 0.0
O761 O 0.00481 0.77961 0.60847 0.0
C762 C 0.00776 0.73608 0.60125 0.0
O763 O 0.02168 0.74359 0.60132 0.0
C764 C 0.97195 0.75408 0.64101 0.0
O765 O 0.97441 0.7395 0.6363 0.0
O766 O 0.0196 0.75856 0.63715 0.0
C767 C 0.49887 0.28222 0.10024 0.0
O768 O 0.48638 0.27271 0.09782 0.0
O769 O 0.48486 0.26514 0.13923 0.0
Zn770 Zn 0.50381 0.26084 0.12555 0.0
O771 O 0.49941 0.24143 0.11161 0.0
C772 C 0.52078 0.24914 0.15217 0.0
O773 O 0.50676 0.24255 0.15505 0.0
O774 O 0.50832 0.27948 0.11161 0.0
C775 C 0.50871 0.22998 0.11078 0.0
O776 O 0.52183 0.2306 0.11931 0.0
C777 C 0.47084 0.26051 0.13537 0.0
O778 O 0.46839 0.25264 0.12186 0.0
O779 O 0.52251 0.2577 0.13998 0.0
H780 H 0.22886 0.79395 0.84775 0.0
H781 H 0.23369 0.81321 0.8695 0.0
H782 H 0.20819 0.78256 0.90178 0.0
H783 H 0.20285 0.76347 0.87996 0.0
H784 H 0.20009 0.81285 0.90591 0.0
H785 H 0.24844 0.78487 0.902 0.0
H786 H 0.27166 0.7742 0.88836 0.0
H787 H 0.28763 0.82117 0.87624 0.0
H788 H 0.26437 0.8321 0.88962 0.0
H789 H 0.2275 0.84706 0.97935 0.0
H790 H 0.2216 0.82924 0.95666 0.0
H791 H 0.24711 0.86108 0.92556 0.0
H792 H 0.25324 0.87893 0.94825 0.0
H793 H 0.25506 0.83081 0.92038 0.0
H794 H 0.20696 0.85884 0.92505 0.0
H795 H 0.18382 0.86937 0.93894 0.0
H796 H 0.16742 0.82222 0.94986 0.0
H797 H 0.1906 0.81141 0.93623 0.0
C798 C 0.22413 0.79138 0.85944 0.0
C799 C 0.21551 0.77715 0.86214 0.0
C800 C 0.22703 0.80233 0.87189 0.0
C801 C 0.22146 0.79922 0.8873 0.0
C802 C 0.21264 0.78516 0.88999 0.0
C803 C 0.20973 0.7742 0.87754 0.0
C804 C 0.22487 0.81062 0.90065 0.0
C805 C 0.21212 0.81664 0.9092 0.0
C806 C 0.24055 0.81583 0.90469 0.0
C807 C 0.25457 0.80928 0.89667 0.0
C808 C 0.25683 0.79291 0.89631 0.0
C809 C 0.27002 0.78682 0.88865 0.0
C810 C 0.28109 0.797 0.8814 0.0
C811 C 0.27903 0.81329 0.88184 0.0
C812 C 0.26585 0.81945 0.88947 0.0
C813 C 0.23182 0.85032 0.96768 0.0
C814 C 0.24082 0.86444 0.9656 0.0
C815 C 0.22837 0.84014 0.95471 0.0
C816 C 0.23377 0.84392 0.9394 0.0
C817 C 0.24281 0.85796 0.93728 0.0
C818 C 0.24626 0.86816 0.95025 0.0
C819 C 0.23028 0.83301 0.92567 0.0
C820 C 0.24303 0.82707 0.91705 0.0
C821 C 0.2146 0.82786 0.92159 0.0
C822 C 0.2006 0.83432 0.92974 0.0
C823 C 0.19849 0.85072 0.93052 0.0
C824 C 0.18535 0.85674 0.93833 0.0
C825 C 0.17417 0.84647 0.94531 0.0
C826 C 0.17609 0.83016 0.94446 0.0
C827 C 0.18922 0.82408 0.93668 0.0
H828 H 0.16401 0.85115 0.95135 0.0
H829 H 0.2913 0.79226 0.87548 0.0
H830 H 0.00285 0.54081 0.38036 0.0
H831 H 0.01929 0.53636 0.35688 0.0
H832 H 0.05001 0.5078 0.38462 0.0
H833 H 0.03377 0.51246 0.40827 0.0
H834 H 0.06663 0.52898 0.36609 0.0
H835 H 0.02397 0.49028 0.35925 0.0
H836 H 0.99601 0.4808 0.35753 0.0
H837 H 0.98859 0.51051 0.31746 0.0
H838 H 0.01646 0.52034 0.31908 0.0
H839 H 0.10848 0.49618 0.30102 0.0
H840 H 0.09221 0.49959 0.32476 0.0
H841 H 0.05895 0.52574 0.29747 0.0
H842 H 0.07498 0.5221 0.27358 0.0
H843 H 0.04371 0.50527 0.31608 0.0
H844 H 0.08585 0.54449 0.32305 0.0
H845 H 0.11366 0.55447 0.3247 0.0
H846 H 0.1219 0.5245 0.36439 0.0
H847 H 0.09418 0.51417 0.36283 0.0
C848 C 0.01317 0.53367 0.38148 0.0
C849 C 0.01702 0.52697 0.39615 0.0
C850 C 0.02247 0.53103 0.36804 0.0
C851 C 0.03577 0.52163 0.36899 0.0
C852 C 0.03975 0.51505 0.38364 0.0
C853 C 0.03041 0.51763 0.39709 0.0
C854 C 0.0456 0.51879 0.35471 0.0
C855 C 0.06169 0.52359 0.35522 0.0
C856 C 0.03902 0.5121 0.34043 0.0
C857 C 0.02227 0.50616 0.33939 0.0
C858 C 0.01635 0.49489 0.35015 0.0
C859 C 0.00052 0.48943 0.34918 0.0
C860 C 0.99052 0.49508 0.33742 0.0
C861 C 0.99634 0.50616 0.32658 0.0
C862 C 0.01216 0.51167 0.32751 0.0
C863 C 0.09771 0.50267 0.30006 0.0
C864 C 0.09306 0.50893 0.28543 0.0
C865 C 0.08845 0.50466 0.31366 0.0
C866 C 0.07447 0.5131 0.31294 0.0
C867 C 0.0697 0.5192 0.2983 0.0
C868 C 0.07891 0.51715 0.28467 0.0
C869 C 0.06476 0.51552 0.32742 0.0
C870 C 0.04867 0.51064 0.32695 0.0
C871 C 0.07132 0.5222 0.34171 0.0
C872 C 0.08798 0.52844 0.34272 0.0
C873 C 0.09363 0.53994 0.33205 0.0
C874 C 0.10937 0.54567 0.33298 0.0
C875 C 0.11955 0.54009 0.34462 0.0
C876 C 0.114 0.5288 0.35537 0.0
C877 C 0.09827 0.52301 0.35448 0.0
H878 H 0.13173 0.54455 0.34532 0.0
H879 H 0.97827 0.49084 0.33668 0.0
H880 H 0.75838 0.7542 0.8655 0.0
H881 H 0.75322 0.73658 0.88773 0.0
H882 H 0.79487 0.71089 0.87576 0.0
H883 H 0.79974 0.72806 0.85307 0.0
H884 H 0.77072 0.69105 0.88268 0.0
H885 H 0.79514 0.73764 0.90699 0.0
H886 H 0.79858 0.76617 0.91308 0.0
H887 H 0.75226 0.76624 0.93403 0.0
H888 H 0.74845 0.73773 0.92786 0.0
H889 H 0.77717 0.65072 0.95586 0.0
H890 H 0.7822 0.66782 0.93316 0.0
H891 H 0.73971 0.69272 0.94374 0.0
H892 H 0.73467 0.67578 0.96657 0.0
H893 H 0.76449 0.71288 0.93756 0.0
H894 H 0.74023 0.66609 0.91311 0.0
H895 H 0.73711 0.63751 0.90712 0.0
H896 H 0.78364 0.6378 0.88661 0.0
H897 H 0.78713 0.66635 0.89268 0.0
C898 C 0.76634 0.74469 0.86747 0.0
C899 C 0.7795 0.74257 0.85752 0.0
C900 C 0.76348 0.73473 0.88029 0.0
C901 C 0.77379 0.72256 0.88354 0.0
C902 C 0.7868 0.72026 0.87351 0.0
C903 C 0.78964 0.73018 0.86064 0.0
C904 C 0.77099 0.71221 0.89739 0.0
C905 C 0.76958 0.6958 0.89471 0.0
C906 C 0.76917 0.71845 0.91304 0.0
C907 C 0.77145 0.73558 0.91682 0.0
C908 C 0.78564 0.74376 0.91278 0.0
C909 C 0.78767 0.75993 0.91627 0.0
C910 C 0.77563 0.76802 0.9239 0.0
C911 C 0.76156 0.75996 0.9281 0.0
C912 C 0.75947 0.74379 0.92462 0.0
C913 C 0.76887 0.65981 0.95335 0.0
C914 C 0.75549 0.66186 0.96299 0.0
C915 C 0.77174 0.66954 0.94034 0.0
C916 C 0.76124 0.68143 0.93667 0.0
C917 C 0.74795 0.68359 0.94635 0.0
C918 C 0.74507 0.67387 0.95936 0.0
C919 C 0.76419 0.69174 0.92284 0.0
C920 C 0.76564 0.70813 0.92552 0.0
C921 C 0.7661 0.68549 0.90721 0.0
C922 C 0.764 0.66833 0.90349 0.0
C923 C 0.74985 0.66003 0.90744 0.0
C924 C 0.74801 0.64384 0.90401 0.0
C925 C 0.76019 0.63583 0.89652 0.0
C926 C 0.77422 0.64401 0.89242 0.0
C927 C 0.77614 0.6602 0.89584 0.0
H928 H 0.75874 0.6233 0.89388 0.0
H929 H 0.77722 0.78054 0.9266 0.0
H930 H 0.99523 0.96382 0.37933 0.0
H931 H 0.97648 0.96704 0.35738 0.0
H932 H 0.95493 0.00487 0.38372 0.0
H933 H 0.97332 0.00124 0.40593 0.0
H934 H 0.93283 0.9872 0.37084 0.0
H935 H 0.98076 0.01137 0.35132 0.0
H936 H 0.00912 0.01337 0.34438 0.0
H937 H 0.00255 0.97458 0.31093 0.0
H938 H 0.97418 0.9722 0.31782 0.0
H939 H 0.89368 0.01959 0.30332 0.0
H940 H 0.91182 0.01585 0.32574 0.0
H941 H 0.92467 0.97099 0.30538 0.0
H942 H 0.90637 0.97448 0.28305 0.0
H943 H 0.95093 0.99246 0.31492 0.0
H944 H 0.90209 0.96933 0.33524 0.0
H945 H 0.8737 0.9692 0.34207 0.0
H946 H 0.88232 0.0089 0.37403 0.0
H947 H 0.91075 0.0094 0.3672 0.0
C948 C 0.98653 0.97287 0.38036 0.0
C949 C 0.98572 0.98232 0.39426 0.0
C950 C 0.97586 0.97475 0.3678 0.0
C951 C 0.96443 0.98639 0.36876 0.0
C952 C 0.96362 0.99581 0.38269 0.0
C953 C 0.97412 0.99375 0.39536 0.0
C954 C 0.95316 0.98855 0.35537 0.0
C955 C 0.93685 0.98857 0.35866 0.0
C956 C 0.95832 0.99011 0.3394 0.0
C957 C 0.97538 0.99151 0.33521 0.0
C958 C 0.98539 0.00319 0.34257 0.0
C959 C 0.00146 0.0044 0.33863 0.0
C960 C 0.00764 0.99408 0.32725 0.0
C961 C 0.99775 0.98255 0.31976 0.0
C962 C 0.98167 0.98127 0.32367 0.0
C963 C 0.90031 0.00889 0.30366 0.0
C964 C 0.8986 0.99731 0.29145 0.0
C965 C 0.91063 0.00677 0.31647 0.0
C966 C 0.91952 0.99314 0.31717 0.0
C967 C 0.91788 0.98158 0.305 0.0
C968 C 0.90738 0.98357 0.29232 0.0
C969 C 0.93076 0.99107 0.33049 0.0
C970 C 0.94702 0.99109 0.32714 0.0
C971 C 0.92559 0.98983 0.34642 0.0
C972 C 0.90851 0.9895 0.35058 0.0
C973 C 0.89791 0.97812 0.34361 0.0
C974 C 0.88181 0.97796 0.34751 0.0
C975 C 0.8762 0.98906 0.35844 0.0
C976 C 0.88668 0.00032 0.36554 0.0
C977 C 0.90279 0.00054 0.36167 0.0
H978 H 0.86374 0.98891 0.36145 0.0
H979 H 0.02009 0.99504 0.32422 0.0
H980 H 0.20493 0.26589 0.62021 0.0
H981 H 0.21011 0.24801 0.59772 0.0
H982 H 0.24102 0.22162 0.6275 0.0
H983 H 0.2359 0.23946 0.65002 0.0
H984 H 0.25425 0.22703 0.59917 0.0
H985 H 0.20377 0.20736 0.61776 0.0
H986 H 0.17579 0.20899 0.62575 0.0
H987 H 0.16353 0.22425 0.57888 0.0
H988 H 0.1915 0.22293 0.57067 0.0
H989 H 0.25927 0.15878 0.54889 0.0
H990 H 0.25394 0.17684 0.57118 0.0
H991 H 0.22519 0.20442 0.54039 0.0
H992 H 0.23039 0.1864 0.51803 0.0
H993 H 0.21084 0.19847 0.56905 0.0
H994 H 0.26153 0.21791 0.55057 0.0
H995 H 0.28953 0.21602 0.54276 0.0
H996 H 0.30136 0.20074 0.58974 0.0
H997 H 0.27337 0.20233 0.59777 0.0
C998 C 0.21271 0.25619 0.622 0.0
C999 C 0.21999 0.25407 0.63689 0.0
C1000 C 0.21567 0.24599 0.60914 0.0
C1001 C 0.22583 0.23339 0.61098 0.0
C1002 C 0.23317 0.23129 0.62581 0.0
C1003 C 0.23026 0.24151 0.63865 0.0
C1004 C 0.22899 0.22251 0.59739 0.0
C1005 C 0.24477 0.22062 0.59272 0.0
C1006 C 0.21659 0.21442 0.58876 0.0
C1007 C 0.19976 0.2152 0.59365 0.0
C1008 C 0.19514 0.21119 0.60919 0.0
C1009 C 0.17927 0.21204 0.61375 0.0
C1010 C 0.1679 0.21676 0.60284 0.0
C1011 C 0.17236 0.22061 0.58733 0.0
C1012 C 0.18821 0.2198 0.58271 0.0
C1013 C 0.25183 0.1687 0.54684 0.0
C1014 C 0.24528 0.17118 0.53168 0.0
C1015 C 0.24885 0.17903 0.55958 0.0
C1016 C 0.23928 0.19202 0.55739 0.0
C1017 C 0.23262 0.19446 0.54231 0.0
C1018 C 0.23566 0.18418 0.52954 0.0
C1019 C 0.23608 0.20299 0.57088 0.0
C1020 C 0.2203 0.20489 0.57551 0.0
C1021 C 0.24847 0.21104 0.57951 0.0
C1022 C 0.26532 0.21009 0.57472 0.0
C1023 C 0.27007 0.21402 0.5592 0.0
C1024 C 0.28595 0.21302 0.55474 0.0
C1025 C 0.29721 0.20822 0.56573 0.0
C1026 C 0.29262 0.20444 0.58123 0.0
C1027 C 0.27675 0.2054 0.58574 0.0
H1028 H 0.3095 0.20746 0.56226 0.0
H1029 H 0.15562 0.21741 0.60639 0.0
H1030 H 0.46886 0.5506 0.59961 0.0
H1031 H 0.45179 0.54735 0.62288 0.0
H1032 H 0.48219 0.51172 0.64064 0.0
H1033 H 0.49922 0.51483 0.61729 0.0
H1034 H 0.45185 0.5028 0.64402 0.0
H1035 H 0.48382 0.5497 0.65607 0.0
H1036 H 0.49544 0.57631 0.65117 0.0
H1037 H 0.44885 0.59493 0.6492 0.0
H1038 H 0.43694 0.56838 0.65387 0.0
H1039 H 0.425 0.50201 0.72396 0.0
H1040 H 0.44119 0.50511 0.70009 0.0
H1041 H 0.40908 0.53917 0.68227 0.0
H1042 H 0.39287 0.53627 0.70621 0.0
H1043 H 0.43984 0.54893 0.67873 0.0
H1044 H 0.40799 0.50187 0.66721 0.0
H1045 H 0.3966 0.47522 0.67236 0.0
H1046 H 0.44333 0.45687 0.67365 0.0
H1047 H 0.45502 0.48346 0.66872 0.0
C1048 C 0.47193 0.54213 0.60852 0.0
C1049 C 0.48542 0.53302 0.60668 0.0
C1050 C 0.46218 0.54028 0.62181 0.0
C1051 C 0.46584 0.52945 0.63362 0.0
C1052 C 0.47914 0.52015 0.63167 0.0
C1053 C 0.48884 0.52191 0.61832 0.0
C1054 C 0.45584 0.52785 0.64803 0.0
C1055 C 0.44939 0.51285 0.65172 0.0
C1056 C 0.45234 0.54103 0.65789 0.0
C1057 C 0.45949 0.55702 0.65517 0.0
C1058 C 0.47605 0.55945 0.65448 0.0
C1059 C 0.48269 0.57452 0.65175 0.0
C1060 C 0.47289 0.58729 0.64983 0.0
C1061 C 0.45643 0.58502 0.65067 0.0
C1062 C 0.44972 0.56997 0.65337 0.0
C1063 C 0.42136 0.51017 0.71498 0.0
C1064 C 0.40761 0.51886 0.71697 0.0
C1065 C 0.4306 0.51188 0.70131 0.0
C1066 C 0.42623 0.52223 0.68933 0.0
C1067 C 0.41264 0.53109 0.69137 0.0
C1068 C 0.40338 0.52939 0.70504 0.0
C1069 C 0.43591 0.52389 0.67472 0.0
C1070 C 0.44229 0.53889 0.671 0.0
C1071 C 0.43939 0.51071 0.66487 0.0
C1072 C 0.43238 0.49469 0.66775 0.0
C1073 C 0.41584 0.49217 0.66872 0.0
C1074 C 0.40933 0.47708 0.67157 0.0
C1075 C 0.41924 0.46437 0.67337 0.0
C1076 C 0.43567 0.46673 0.67227 0.0
C1077 C 0.44225 0.48181 0.66943 0.0
H1078 H 0.41418 0.45269 0.67558 0.0
H1079 H 0.47805 0.59895 0.64772 0.0
H1080 H 0.75158 0.25288 0.64236 0.0
H1081 H 0.7456 0.27122 0.6212 0.0
H1082 H 0.78865 0.29844 0.63228 0.0
H1083 H 0.79471 0.28013 0.65349 0.0
H1084 H 0.76421 0.31734 0.62815 0.0
H1085 H 0.78632 0.27374 0.5997 0.0
H1086 H 0.78883 0.24579 0.59162 0.0
H1087 H 0.74123 0.24429 0.57309 0.0
H1088 H 0.73836 0.27218 0.58126 0.0
H1089 H 0.76755 0.36244 0.55753 0.0
H1090 H 0.77307 0.34458 0.57923 0.0
H1091 H 0.72989 0.31752 0.56826 0.0
H1092 H 0.72438 0.3352 0.54639 0.0
H1093 H 0.75434 0.29859 0.5724 0.0
H1094 H 0.73237 0.34237 0.60077 0.0
H1095 H 0.73003 0.37034 0.60883 0.0
H1096 H 0.77759 0.37157 0.62741 0.0
H1097 H 0.7803 0.34364 0.61927 0.0
C1098 C 0.75985 0.26269 0.64019 0.0
C1099 C 0.77365 0.26503 0.64955 0.0
C1100 C 0.7564 0.27317 0.62811 0.0
C1101 C 0.76677 0.2861 0.62505 0.0
C1102 C 0.78048 0.28855 0.63446 0.0
C1103 C 0.78391 0.2781 0.64659 0.0
C1104 C 0.76325 0.29713 0.6121 0.0
C1105 C 0.76226 0.31328 0.61591 0.0
C1106 C 0.76036 0.29177 0.59621 0.0
C1107 C 0.76207 0.27501 0.59123 0.0
C1108 C 0.77634 0.26742 0.59401 0.0
C1109 C 0.77784 0.25159 0.5894 0.0
C1110 C 0.76518 0.24326 0.58189 0.0
C1111 C 0.75102 0.25075 0.57893 0.0
C1112 C 0.74945 0.26657 0.58354 0.0
C1113 C 0.75917 0.35275 0.55978 0.0
C1114 C 0.7455 0.35025 0.55024 0.0
C1115 C 0.76232 0.34258 0.57223 0.0
C1116 C 0.75182 0.3298 0.57545 0.0
C1117 C 0.73815 0.32731 0.56598 0.0
C1118 C 0.735 0.33746 0.55351 0.0
C1119 C 0.75527 0.3188 0.58845 0.0
C1120 C 0.75627 0.30266 0.58463 0.0
C1121 C 0.7582 0.32417 0.60432 0.0
C1122 C 0.75659 0.34096 0.60927 0.0
C1123 C 0.74238 0.34864 0.60646 0.0
C1124 C 0.74097 0.36448 0.61106 0.0
C1125 C 0.75367 0.37274 0.61859 0.0
C1126 C 0.76778 0.36516 0.62156 0.0
C1127 C 0.76925 0.34932 0.61697 0.0
H1128 H 0.75256 0.385 0.62214 0.0
H1129 H 0.76636 0.23101 0.57832 0.0
H1130 H 0.53076 0.96271 0.59785 0.0
H1131 H 0.54731 0.96599 0.62177 0.0
H1132 H 0.51867 0.00411 0.63824 0.0
H1133 H 0.50244 0.00132 0.61404 0.0
H1134 H 0.54947 0.01131 0.6429 0.0
H1135 H 0.5141 0.96708 0.65351 0.0
H1136 H 0.50086 0.94104 0.64817 0.0
H1137 H 0.54596 0.91917 0.64849 0.0
H1138 H 0.55949 0.94514 0.65361 0.0
H1139 H 0.57282 0.0136 0.72428 0.0
H1140 H 0.55732 0.01023 0.69965 0.0
H1141 H 0.58872 0.97446 0.68309 0.0
H1142 H 0.6043 0.97771 0.70773 0.0
H1143 H 0.55712 0.96589 0.67827 0.0
H1144 H 0.59234 0.01034 0.66831 0.0
H1145 H 0.60529 0.03644 0.67403 0.0
H1146 H 0.56005 0.05798 0.67286 0.0
H1147 H 0.54679 0.03196 0.66737 0.0
C1148 C 0.52809 0.97193 0.60646 0.0
C1149 C 0.51523 0.98172 0.60405 0.0
C1150 C 0.53747 0.97367 0.62021 0.0
C1151 C 0.53409 0.98514 0.6319 0.0
C1152 C 0.52145 0.99513 0.62941 0.0
C1153 C 0.51209 0.99343 0.61564 0.0
C1154 C 0.54368 0.9867 0.64677 0.0
C1155 C 0.55098 0.00143 0.65073 0.0
C1156 C 0.54593 0.97371 0.65681 0.0
C1157 C 0.53782 0.95808 0.65378 0.0
C1158 C 0.52121 0.95674 0.65231 0.0
C1159 C 0.51365 0.94199 0.64935 0.0
C1160 C 0.52257 0.92847 0.64795 0.0
C1161 C 0.53906 0.92966 0.64955 0.0
C1162 C 0.54668 0.94439 0.6525 0.0
C1163 C 0.57642 0.00498 0.71543 0.0
C1164 C 0.58983 0.99596 0.71794 0.0
C1165 C 0.56758 0.00312 0.70134 0.0
C1166 C 0.57198 0.99221 0.6895 0.0
C1167 C 0.58516 0.98296 0.69208 0.0
C1168 C 0.59407 0.98487 0.70614 0.0
C1169 C 0.56282 0.99051 0.6744 0.0
C1170 C 0.55562 0.97575 0.6704 0.0
C1171 C 0.56061 0.00349 0.66437 0.0
C1172 C 0.56855 0.01917 0.66758 0.0
C1173 C 0.58513 0.02062 0.6694 0.0
C1174 C 0.59253 0.03541 0.67258 0.0
C1175 C 0.58349 0.04886 0.67385 0.0
C1176 C 0.56703 0.04755 0.6719 0.0
C1177 C 0.55957 0.03279 0.66874 0.0
H1178 H 0.58924 0.06029 0.67631 0.0
H1179 H 0.51669 0.91706 0.64566 0.0
H1180 H 0.86853 0.24552 0.74868 0.0
H1181 H 0.89186 0.25083 0.76564 0.0
H1182 H 0.87833 0.21109 0.79464 0.0
H1183 H 0.85474 0.20591 0.77791 0.0
H1184 H 0.88684 0.23719 0.81268 0.0
H1185 H 0.90824 0.20811 0.76877 0.0
H1186 H 0.91347 0.20183 0.74048 0.0
H1187 H 0.93763 0.24697 0.73541 0.0
H1188 H 0.93234 0.25362 0.76363 0.0
H1189 H 0.95972 0.2336 0.85502 0.0
H1190 H 0.93666 0.22726 0.83802 0.0
H1191 H 0.94934 0.26654 0.80808 0.0
H1192 H 0.97255 0.27289 0.82494 0.0
H1193 H 0.9413 0.24008 0.79059 0.0
H1194 H 0.91944 0.26935 0.83433 0.0
H1195 H 0.91419 0.27566 0.86261 0.0
H1196 H 0.89087 0.23014 0.86796 0.0
H1197 H 0.89618 0.22347 0.83975 0.0
C1198 C 0.87047 0.23796 0.75872 0.0
C1199 C 0.8598 0.2253 0.76197 0.0
C1200 C 0.88388 0.24092 0.76831 0.0
C1201 C 0.88689 0.23126 0.7813 0.0
C1202 C 0.87623 0.21865 0.78464 0.0
C1203 C 0.86284 0.21564 0.77501 0.0
C1204 C 0.90103 0.23452 0.79158 0.0
C1205 C 0.89878 0.23759 0.8079 0.0
C1206 C 0.91654 0.23539 0.78525 0.0
C1207 C 0.91976 0.23143 0.76828 0.0
C1208 C 0.91455 0.21676 0.76159 0.0
C1209 C 0.91755 0.21312 0.74557 0.0
C1210 C 0.92584 0.22401 0.73615 0.0
C1211 C 0.93119 0.23856 0.74273 0.0
C1212 C 0.92821 0.24226 0.75873 0.0
C1213 C 0.95761 0.24091 0.84483 0.0
C1214 C 0.96795 0.25379 0.84136 0.0
C1215 C 0.94439 0.2373 0.83516 0.0
C1216 C 0.94121 0.24653 0.82188 0.0
C1217 C 0.95158 0.25929 0.81828 0.0
C1218 C 0.9648 0.26293 0.82797 0.0
C1219 C 0.92711 0.24281 0.81167 0.0
C1220 C 0.92937 0.23965 0.79537 0.0
C1221 C 0.9116 0.24186 0.81801 0.0
C1222 C 0.90836 0.24585 0.83497 0.0
C1223 C 0.91331 0.26063 0.84157 0.0
C1224 C 0.9103 0.26429 0.85758 0.0
C1225 C 0.90224 0.25329 0.86709 0.0
C1226 C 0.89713 0.23864 0.86059 0.0
C1227 C 0.90013 0.23492 0.84459 0.0
H1228 H 0.89991 0.25615 0.87948 0.0
H1229 H 0.92815 0.22117 0.72375 0.0
H1230 H 0.49545 0.91648 0.46627 0.0
H1231 H 0.50072 0.89386 0.44875 0.0
H1232 H 0.46932 0.86424 0.47673 0.0
H1233 H 0.46424 0.88676 0.49451 0.0
H1234 H 0.49719 0.85008 0.46996 0.0
H1235 H 0.45714 0.87675 0.44134 0.0
H1236 H 0.4449 0.89948 0.42889 0.0
H1237 H 0.48445 0.90459 0.39715 0.0
H1238 H 0.49704 0.88201 0.40957 0.0
H1239 H 0.49128 0.785 0.41514 0.0
H1240 H 0.48548 0.80721 0.43294 0.0
H1241 H 0.51467 0.83833 0.40428 0.0
H1242 H 0.52031 0.81624 0.38624 0.0
H1243 H 0.48744 0.85158 0.41159 0.0
H1244 H 0.52774 0.82525 0.44039 0.0
H1245 H 0.54015 0.80264 0.45288 0.0
H1246 H 0.50042 0.797 0.48431 0.0
H1247 H 0.48766 0.81946 0.47185 0.0
C1248 C 0.48974 0.90513 0.46874 0.0
C1249 C 0.47941 0.9034 0.48175 0.0
C1250 C 0.49266 0.89225 0.45866 0.0
C1251 C 0.48529 0.87742 0.46136 0.0
C1252 C 0.47508 0.87561 0.47441 0.0
C1253 C 0.4721 0.8885 0.48447 0.0
C1254 C 0.48838 0.86375 0.45066 0.0
C1255 C 0.49485 0.8503 0.45722 0.0
C1256 C 0.48566 0.86422 0.43401 0.0
C1257 C 0.4781 0.87778 0.42649 0.0
C1258 C 0.46329 0.8828 0.43179 0.0
C1259 C 0.45628 0.89564 0.42473 0.0
C1260 C 0.46392 0.9035 0.41226 0.0
C1261 C 0.47856 0.8985 0.40682 0.0
C1262 C 0.48563 0.88568 0.41386 0.0
C1263 C 0.49652 0.79656 0.41265 0.0
C1264 C 0.5063 0.79884 0.3993 0.0
C1265 C 0.49323 0.80923 0.42287 0.0
C1266 C 0.49978 0.8244 0.42004 0.0
C1267 C 0.5095 0.82672 0.40669 0.0
C1268 C 0.51274 0.81407 0.39642 0.0
C1269 C 0.49633 0.8379 0.43086 0.0
C1270 C 0.48978 0.85133 0.42432 0.0
C1271 C 0.49901 0.83742 0.44753 0.0
C1272 C 0.50667 0.82394 0.45508 0.0
C1273 C 0.52159 0.81911 0.44988 0.0
C1274 C 0.5287 0.80634 0.45697 0.0
C1275 C 0.52106 0.79836 0.46935 0.0
C1276 C 0.50631 0.80318 0.4747 0.0
C1277 C 0.49914 0.81594 0.46764 0.0
H1278 H 0.52658 0.78848 0.47483 0.0
H1279 H 0.45847 0.91344 0.4068 0.0
H1280 H 0.13191 0.26755 0.74179 0.0
H1281 H 0.1101 0.26047 0.75967 0.0
H1282 H 0.12316 0.30035 0.79044 0.0
H1283 H 0.14498 0.30754 0.77258 0.0
H1284 H 0.11753 0.27416 0.80736 0.0
H1285 H 0.09099 0.30124 0.76587 0.0
H1286 H 0.08336 0.30682 0.73817 0.0
H1287 H 0.06224 0.26007 0.73278 0.0
H1288 H 0.06995 0.25413 0.76039 0.0
H1289 H 0.04745 0.27458 0.85376 0.0
H1290 H 0.06914 0.28153 0.83574 0.0
H1291 H 0.05637 0.2411 0.80561 0.0
H1292 H 0.0345 0.23412 0.82349 0.0
H1293 H 0.06183 0.26744 0.78835 0.0
H1294 H 0.08837 0.24048 0.82999 0.0
H1295 H 0.09594 0.23507 0.85775 0.0
H1296 H 0.11698 0.28188 0.86291 0.0
H1297 H 0.10933 0.28764 0.83523 0.0
C1298 C 0.13003 0.27492 0.75227 0.0
C1299 C 0.14014 0.28813 0.75575 0.0
C1300 C 0.11758 0.27084 0.76248 0.0
C1301 C 0.11491 0.27997 0.7763 0.0
C1302 C 0.12502 0.29313 0.77985 0.0
C1303 C 0.1375 0.2972 0.76966 0.0
C1304 C 0.10174 0.27565 0.7872 0.0
C1305 C 0.10532 0.27291 0.80325 0.0
C1306 C 0.08587 0.27364 0.78175 0.0
C1307 C 0.08119 0.27719 0.76515 0.0
C1308 C 0.08484 0.29211 0.75873 0.0
C1309 C 0.08047 0.29534 0.74306 0.0
C1310 C 0.07236 0.2838 0.73371 0.0
C1311 C 0.06855 0.269 0.74003 0.0
C1312 C 0.0729 0.2657 0.7557 0.0
C1313 C 0.04927 0.26712 0.84333 0.0
C1314 C 0.03927 0.25376 0.84008 0.0
C1315 C 0.06171 0.27109 0.83307 0.0
C1316 C 0.06446 0.26174 0.81943 0.0
C1317 C 0.05446 0.24845 0.8161 0.0
C1318 C 0.04201 0.24446 0.82636 0.0
C1319 C 0.07763 0.26597 0.8085 0.0
C1320 C 0.07405 0.26869 0.79245 0.0
C1321 C 0.09349 0.26799 0.81395 0.0
C1322 C 0.09814 0.26454 0.83059 0.0
C1323 C 0.0945 0.24966 0.83708 0.0
C1324 C 0.09882 0.24653 0.85279 0.0
C1325 C 0.1069 0.25814 0.8621 0.0
C1326 C 0.1107 0.2729 0.85569 0.0
C1327 C 0.10639 0.2761 0.83999 0.0
H1328 H 0.11024 0.25569 0.87426 0.0
H1329 H 0.06898 0.28633 0.72158 0.0
H1330 H 0.50196 0.61349 0.49587 0.0
H1331 H 0.49776 0.63564 0.47824 0.0
H1332 H 0.54205 0.62701 0.45475 0.0
H1333 H 0.54642 0.60491 0.4725 0.0
H1334 H 0.53864 0.65853 0.46283 0.0
H1335 H 0.50847 0.61675 0.43611 0.0
H1336 H 0.48862 0.59469 0.43385 0.0
H1337 H 0.45184 0.62585 0.4475 0.0
H1338 H 0.47152 0.64807 0.45007 0.0
H1339 H 0.52712 0.71032 0.39862 0.0
H1340 H 0.53162 0.68697 0.41444 0.0
H1341 H 0.48622 0.69194 0.43704 0.0
H1342 H 0.4815 0.71516 0.42108 0.0
H1343 H 0.49066 0.66173 0.42871 0.0
H1344 H 0.52053 0.70317 0.45645 0.0
H1345 H 0.54016 0.72539 0.45931 0.0
H1346 H 0.57721 0.69509 0.44442 0.0
H1347 H 0.55776 0.67273 0.44126 0.0
C1348 C 0.51081 0.61634 0.48697 0.0
C1349 C 0.52452 0.60749 0.48556 0.0
C1350 C 0.50835 0.62891 0.47684 0.0
C1351 C 0.51955 0.63288 0.46513 0.0
C1352 C 0.53326 0.62409 0.46369 0.0
C1353 C 0.53568 0.61143 0.47375 0.0
C1354 C 0.51709 0.64646 0.45466 0.0
C1355 C 0.52829 0.65914 0.45516 0.0
C1356 C 0.50337 0.64738 0.445 0.0
C1357 C 0.4915 0.63405 0.44343 0.0
C1358 C 0.49617 0.61888 0.43876 0.0
C1359 C 0.48494 0.60635 0.4374 0.0
C1360 C 0.46898 0.60886 0.44056 0.0
C1361 C 0.46421 0.62392 0.44507 0.0
C1362 C 0.47539 0.63649 0.44647 0.0
C1363 C 0.51809 0.70646 0.40696 0.0
C1364 C 0.50397 0.71464 0.40864 0.0
C1365 C 0.52071 0.69314 0.41603 0.0
C1366 C 0.50933 0.68782 0.42705 0.0
C1367 C 0.49516 0.69586 0.42862 0.0
C1368 C 0.49251 0.70916 0.41953 0.0
C1369 C 0.51219 0.67386 0.43692 0.0
C1370 C 0.50106 0.66111 0.43632 0.0
C1371 C 0.52594 0.6729 0.44656 0.0
C1372 C 0.53766 0.68632 0.44846 0.0
C1373 C 0.53284 0.70128 0.45366 0.0
C1374 C 0.54394 0.71389 0.45536 0.0
C1375 C 0.55991 0.71166 0.452 0.0
C1376 C 0.56483 0.6968 0.44698 0.0
C1377 C 0.55378 0.68415 0.44525 0.0
H1378 H 0.56849 0.72144 0.45333 0.0
H1379 H 0.46031 0.59914 0.4395 0.0
H1380 H 0.8594 0.80661 0.72889 0.0
H1381 H 0.88079 0.80137 0.71014 0.0
H1382 H 0.88305 0.75383 0.72745 0.0
H1383 H 0.86206 0.75927 0.74661 0.0
H1384 H 0.91149 0.76512 0.72373 0.0
H1385 H 0.86479 0.76296 0.69093 0.0
H1386 H 0.83997 0.7725 0.67955 0.0
H1387 H 0.86557 0.81226 0.65987 0.0
H1388 H 0.89051 0.80307 0.67131 0.0
H1389 H 0.95387 0.73311 0.65809 0.0
H1390 H 0.93238 0.73898 0.67653 0.0
H1391 H 0.93825 0.78859 0.66644 0.0
H1392 H 0.95988 0.78286 0.6481 0.0
H1393 H 0.90595 0.77637 0.66614 0.0
H1394 H 0.95291 0.77733 0.69931 0.0
H1395 H 0.97733 0.7664 0.71012 0.0
H1396 H 0.9503 0.72687 0.72844 0.0
H1397 H 0.92573 0.73745 0.71753 0.0
C1398 C 0.86447 0.79505 0.72864 0.0
C1399 C 0.85909 0.78332 0.73913 0.0
C1400 C 0.87664 0.79203 0.71789 0.0
C1401 C 0.88337 0.7771 0.71717 0.0
C1402 C 0.87806 0.76543 0.72777 0.0
C1403 C 0.86608 0.76853 0.7387 0.0
C1404 C 0.89604 0.77368 0.70551 0.0
C1405 C 0.91015 0.76739 0.71112 0.0
C1406 C 0.89447 0.77688 0.68905 0.0
C1407 C 0.87949 0.78241 0.68211 0.0
C1408 C 0.86511 0.7738 0.68427 0.0
C1409 C 0.85102 0.77914 0.6778 0.0
C1410 C 0.85119 0.793 0.66903 0.0
C1411 C 0.86545 0.80154 0.66668 0.0
C1412 C 0.87957 0.79627 0.67315 0.0
C1413 C 0.95055 0.74526 0.65974 0.0
C1414 C 0.95859 0.75753 0.65169 0.0
C1415 C 0.93831 0.74859 0.6703 0.0
C1416 C 0.93384 0.76422 0.67288 0.0
C1417 C 0.94158 0.77645 0.66459 0.0
C1418 C 0.95395 0.77316 0.65418 0.0
C1419 C 0.92122 0.7678 0.68442 0.0
C1420 C 0.90719 0.77412 0.67878 0.0
C1421 C 0.92276 0.76442 0.70079 0.0
C1422 C 0.93751 0.7581 0.70746 0.0
C1423 C 0.95219 0.76624 0.70552 0.0
C1424 C 0.96606 0.76012 0.71169 0.0
C1425 C 0.96538 0.74593 0.71992 0.0
C1426 C 0.95081 0.73785 0.72204 0.0
C1427 C 0.93691 0.74391 0.71588 0.0
H1428 H 0.97612 0.74121 0.72469 0.0
H1429 H 0.84027 0.79711 0.66403 0.0
H1430 H 0.04201 0.89202 0.50276 0.0
H1431 H 0.03724 0.87032 0.52107 0.0
H1432 H 0.00139 0.89686 0.54498 0.0
H1433 H 0.00662 0.91893 0.5272 0.0
H1434 H 0.01968 0.88337 0.56608 0.0
H1435 H 0.9917 0.86623 0.51838 0.0
H1436 H 0.98864 0.86004 0.48963 0.0
H1437 H 0.02392 0.82499 0.49291 0.0
H1438 H 0.02735 0.83112 0.52165 0.0
H1439 H 0.98274 0.82055 0.60835 0.0
H1440 H 0.98827 0.84216 0.59012 0.0
H1441 H 0.02501 0.81553 0.56784 0.0
H1442 H 0.0194 0.79371 0.58588 0.0
H1443 H 0.00665 0.82891 0.54592 0.0
H1444 H 0.03432 0.84597 0.5938 0.0
H1445 H 0.03715 0.85216 0.62257 0.0
H1446 H 0.0021 0.88741 0.61893 0.0
H1447 H 0.99891 0.88128 0.59017 0.0
C1448 C 0.03323 0.89333 0.51202 0.0
C1449 C 0.02467 0.90723 0.51348 0.0
C1450 C 0.03039 0.88083 0.52237 0.0
C1451 C 0.0188 0.88188 0.53426 0.0
C1452 C 0.01034 0.89577 0.53584 0.0
C1453 C 0.01324 0.90831 0.52556 0.0
C1454 C 0.01559 0.86856 0.54516 0.0
C1455 C 0.01662 0.87151 0.56167 0.0
C1456 C 0.01198 0.853 0.5394 0.0
C1457 C 0.00989 0.84924 0.52213 0.0
C1458 C 0.99889 0.85728 0.51294 0.0
C1459 C 0.99708 0.85377 0.49666 0.0
C1460 C 0.00611 0.84216 0.48944 0.0
C1461 C 0.01695 0.834 0.49851 0.0
C1462 C 0.01882 0.83748 0.5148 0.0
C1463 C 0.99202 0.81927 0.5996 0.0
C1464 C 0.00067 0.80542 0.59861 0.0
C1465 C 0.9952 0.83168 0.58922 0.0
C1466 C 0.00719 0.83053 0.57775 0.0
C1467 C 0.01574 0.81666 0.57662 0.0
C1468 C 0.01254 0.80423 0.58698 0.0
C1469 C 0.01069 0.84375 0.56682 0.0
C1470 C 0.00972 0.84078 0.55031 0.0
C1471 C 0.01432 0.8593 0.57258 0.0
C1472 C 0.01628 0.86306 0.58986 0.0
C1473 C 0.02713 0.85496 0.59916 0.0
C1474 C 0.02881 0.85847 0.61546 0.0
C1475 C 0.01978 0.87015 0.62258 0.0
C1476 C 0.00908 0.87836 0.61341 0.0
C1477 C 0.00734 0.87488 0.5971 0.0
H1478 H 0.0211 0.87285 0.63521 0.0
H1479 H 0.00469 0.83945 0.47683 0.0
H1480 H 0.1506 0.74516 0.72732 0.0
H1481 H 0.12849 0.74863 0.7089 0.0
H1482 H 0.09897 0.71692 0.73659 0.0
H1483 H 0.12102 0.71344 0.7551 0.0
H1484 H 0.0957 0.71065 0.705 0.0
H1485 H 0.09507 0.75663 0.73959 0.0
H1486 H 0.10655 0.78051 0.75322 0.0
H1487 H 0.11685 0.80125 0.70794 0.0
H1488 H 0.10563 0.77739 0.69404 0.0
H1489 H 0.02085 0.72875 0.67335 0.0
H1490 H 0.04356 0.72521 0.69089 0.0
H1491 H 0.07155 0.75845 0.66342 0.0
H1492 H 0.04872 0.76234 0.64601 0.0
H1493 H 0.07604 0.76395 0.69442 0.0
H1494 H 0.07632 0.71826 0.65973 0.0
H1495 H 0.06499 0.69437 0.646 0.0
H1496 H 0.05554 0.67306 0.69119 0.0
H1497 H 0.06663 0.69692 0.7052 0.0
C1498 C 0.13936 0.73902 0.72956 0.0
C1499 C 0.13753 0.72908 0.74271 0.0
C1500 C 0.12675 0.74099 0.71901 0.0
C1501 C 0.11203 0.73317 0.72149 0.0
C1502 C 0.11023 0.72306 0.73446 0.0
C1503 C 0.12285 0.72105 0.74499 0.0
C1504 C 0.09849 0.73554 0.71056 0.0
C1505 C 0.09126 0.72228 0.70283 0.0
C1506 C 0.09299 0.75076 0.70744 0.0
C1507 C 0.09965 0.76516 0.71578 0.0
C1508 C 0.09989 0.76623 0.73254 0.0
C1509 C 0.10633 0.77978 0.74032 0.0
C1510 C 0.11246 0.79238 0.73146 0.0
C1511 C 0.11212 0.79148 0.71479 0.0
C1512 C 0.10571 0.77795 0.70696 0.0
C1513 C 0.03184 0.73529 0.671 0.0
C1514 C 0.033 0.74579 0.65824 0.0
C1515 C 0.04484 0.7332 0.68101 0.0
C1516 C 0.05933 0.74139 0.67833 0.0
C1517 C 0.06049 0.75198 0.66569 0.0
C1518 C 0.04745 0.75417 0.65573 0.0
C1519 C 0.0732 0.73905 0.68887 0.0
C1520 C 0.08049 0.75232 0.69654 0.0
C1521 C 0.07878 0.72383 0.69191 0.0
C1522 C 0.07218 0.70943 0.68351 0.0
C1523 C 0.07173 0.70852 0.66674 0.0
C1524 C 0.06536 0.69498 0.65891 0.0
C1525 C 0.05951 0.68222 0.66772 0.0
C1526 C 0.06006 0.68296 0.68438 0.0
C1527 C 0.0664 0.69648 0.69227 0.0
H1528 H 0.05459 0.67174 0.66163 0.0
H1529 H 0.11745 0.80285 0.7375 0.0
H1530 H 0.00533 0.61584 0.50465 0.0
H1531 H 0.01018 0.6395 0.52155 0.0
H1532 H 0.96496 0.63132 0.54427 0.0
H1533 H 0.96005 0.60761 0.52741 0.0
H1534 H 0.97081 0.66286 0.53458 0.0
H1535 H 0.99629 0.62277 0.56408 0.0
H1536 H 0.01443 0.60098 0.56781 0.0
H1537 H 0.0541 0.63153 0.5556 0.0
H1538 H 0.03616 0.65347 0.55155 0.0
H1539 H 0.98077 0.71722 0.59937 0.0
H1540 H 0.97614 0.69327 0.58305 0.0
H1541 H 0.02363 0.69807 0.56449 0.0
H1542 H 0.02847 0.72192 0.58099 0.0
H1543 H 0.01662 0.6681 0.57195 0.0
H1544 H 0.99183 0.70804 0.54216 0.0
H1545 H 0.97412 0.73005 0.53769 0.0
H1546 H 0.93375 0.70022 0.54942 0.0
H1547 H 0.95125 0.67808 0.55418 0.0
C1548 C 0.99642 0.61913 0.51323 0.0
C1549 C 0.98233 0.60991 0.51476 0.0
C1550 C 0.99924 0.63257 0.52291 0.0
C1551 C 0.98796 0.63707 0.53419 0.0
C1552 C 0.9738 0.62799 0.53564 0.0
C1553 C 0.97106 0.61444 0.5261 0.0
C1554 C 0.99089 0.65136 0.54438 0.0
C1555 C 0.98069 0.66395 0.54293 0.0
C1556 C 0.00404 0.65288 0.5549 0.0
C1557 C 0.01486 0.63972 0.55735 0.0
C1558 C 0.00887 0.62481 0.56204 0.0
C1559 C 0.01911 0.61243 0.56425 0.0
C1560 C 0.0354 0.61485 0.5619 0.0
C1561 C 0.04148 0.62967 0.55739 0.0
C1562 C 0.03128 0.64208 0.55515 0.0
C1563 C 0.99024 0.7132 0.59181 0.0
C1564 C 0.00497 0.72152 0.59142 0.0
C1565 C 0.98755 0.69953 0.58244 0.0
C1566 C 0.99947 0.694 0.57239 0.0
C1567 C 0.01426 0.70215 0.57213 0.0
C1568 C 0.01698 0.71581 0.58154 0.0
C1569 C 0.99652 0.67966 0.5622 0.0
C1570 C 0.00673 0.66704 0.56362 0.0
C1571 C 0.98344 0.67816 0.55155 0.0
C1572 C 0.97287 0.69145 0.54869 0.0
C1573 C 0.97919 0.70621 0.54392 0.0
C1574 C 0.96919 0.7187 0.5413 0.0
C1575 C 0.95282 0.71655 0.54331 0.0
C1576 C 0.94643 0.70188 0.54789 0.0
C1577 C 0.95638 0.68935 0.55054 0.0
H1578 H 0.9451 0.72623 0.54128 0.0
H1579 H 0.04331 0.60526 0.56362 0.0
H1580 H 0.74543 0.88246 0.23104 0.0
H1581 H 0.76384 0.90513 0.23549 0.0
H1582 H 0.79349 0.88832 0.19749 0.0
H1583 H 0.77505 0.86573 0.19281 0.0
H1584 H 0.81064 0.89664 0.22402 0.0
H1585 H 0.77059 0.91936 0.1918 0.0
H1586 H 0.74339 0.9261 0.18434 0.0
H1587 H 0.73903 0.95253 0.22824 0.0
H1588 H 0.76613 0.94576 0.23607 0.0
H1589 H 0.8601 0.96554 0.2156 0.0
H1590 H 0.84102 0.94352 0.21067 0.0
H1591 H 0.81169 0.96065 0.24879 0.0
H1592 H 0.83063 0.98278 0.25373 0.0
H1593 H 0.79428 0.95225 0.22232 0.0
H1594 H 0.83418 0.92952 0.25463 0.0
H1595 H 0.86133 0.92277 0.26224 0.0
H1596 H 0.86591 0.8963 0.21838 0.0
H1597 H 0.83884 0.90308 0.2104 0.0
C1598 C 0.75575 0.88369 0.22348 0.0
C1599 C 0.75877 0.87228 0.21157 0.0
C1600 C 0.76628 0.89663 0.22607 0.0
C1601 C 0.77998 0.89844 0.21675 0.0
C1602 C 0.78301 0.8871 0.20484 0.0
C1603 C 0.77249 0.87418 0.20223 0.0
C1604 C 0.79135 0.91196 0.21965 0.0
C1605 C 0.80712 0.9088 0.22343 0.0
C1606 C 0.78663 0.92781 0.21928 0.0
C1607 C 0.77033 0.93191 0.21459 0.0
C1608 C 0.76378 0.9265 0.19993 0.0
C1609 C 0.74839 0.93034 0.19562 0.0
C1610 C 0.73947 0.9397 0.20583 0.0
C1611 C 0.74594 0.94527 0.22036 0.0
C1612 C 0.76132 0.94144 0.22473 0.0
C1613 C 0.8496 0.96463 0.22295 0.0
C1614 C 0.84691 0.97589 0.23509 0.0
C1615 C 0.83873 0.95201 0.22015 0.0
C1616 C 0.82502 0.95039 0.22946 0.0
C1617 C 0.82221 0.96169 0.24147 0.0
C1618 C 0.83308 0.97429 0.24431 0.0
C1619 C 0.81357 0.93691 0.22664 0.0
C1620 C 0.79779 0.94008 0.2229 0.0
C1621 C 0.81827 0.92106 0.22708 0.0
C1622 C 0.83454 0.91695 0.23185 0.0
C1623 C 0.84102 0.92237 0.24654 0.0
C1624 C 0.85639 0.91852 0.25094 0.0
C1625 C 0.86536 0.90915 0.24078 0.0
C1626 C 0.85896 0.90358 0.22623 0.0
C1627 C 0.8436 0.90741 0.22177 0.0
H1628 H 0.87725 0.90617 0.2442 0.0
H1629 H 0.72756 0.94267 0.20247 0.0
H1630 H 0.74791 0.14574 0.2702 0.0
H1631 H 0.767 0.12495 0.26677 0.0
H1632 H 0.79144 0.14122 0.30973 0.0
H1633 H 0.77241 0.1621 0.31318 0.0
H1634 H 0.81203 0.13551 0.28655 0.0
H1635 H 0.76736 0.10767 0.30924 0.0
H1636 H 0.7393 0.09878 0.31141 0.0
H1637 H 0.74135 0.07624 0.26516 0.0
H1638 H 0.76937 0.08519 0.26262 0.0
H1639 H 0.85907 0.06799 0.29487 0.0
H1640 H 0.8402 0.08884 0.2992 0.0
H1641 H 0.81526 0.0742 0.25601 0.0
H1642 H 0.83391 0.05319 0.2517 0.0
H1643 H 0.795 0.07902 0.28 0.0
H1644 H 0.83964 0.10732 0.25724 0.0
H1645 H 0.8677 0.11625 0.25521 0.0
H1646 H 0.86572 0.13784 0.30191 0.0
H1647 H 0.83768 0.12886 0.30431 0.0
C1648 C 0.75726 0.14479 0.27899 0.0
C1649 C 0.75864 0.15552 0.29198 0.0
C1650 C 0.76817 0.13291 0.27702 0.0
C1651 C 0.78055 0.13142 0.28809 0.0
C1652 C 0.78199 0.14217 0.30103 0.0
C1653 C 0.77114 0.1541 0.30297 0.0
C1654 C 0.79213 0.1188 0.28605 0.0
C1655 C 0.80833 0.12313 0.28536 0.0
C1656 C 0.78726 0.10269 0.28416 0.0
C1657 C 0.77043 0.09723 0.28568 0.0
C1658 C 0.76179 0.10092 0.29948 0.0
C1659 C 0.7459 0.09585 0.30079 0.0
C1660 C 0.73853 0.08698 0.28841 0.0
C1661 C 0.74706 0.08313 0.27473 0.0
C1662 C 0.76295 0.08818 0.27335 0.0
C1663 C 0.84961 0.06923 0.28626 0.0
C1664 C 0.84802 0.05894 0.27293 0.0
C1665 C 0.83886 0.08119 0.28873 0.0
C1666 C 0.82641 0.08315 0.27785 0.0
C1667 C 0.82478 0.07288 0.26455 0.0
C1668 C 0.83549 0.06092 0.26209 0.0
C1669 C 0.81489 0.09574 0.28043 0.0
C1670 C 0.7987 0.0914 0.28123 0.0
C1671 C 0.81977 0.11183 0.28245 0.0
C1672 C 0.83661 0.11728 0.28102 0.0
C1673 C 0.84522 0.11386 0.26713 0.0
C1674 C 0.86112 0.11895 0.26591 0.0
C1675 C 0.8685 0.12757 0.27844 0.0
C1676 C 0.85999 0.13115 0.29222 0.0
C1677 C 0.84409 0.12607 0.29351 0.0
H1678 H 0.88081 0.1315 0.27747 0.0
H1679 H 0.72623 0.08307 0.28945 0.0
H1680 H 0.41079 0.97432 0.9962 0.0
H1681 H 0.38801 0.95683 0.00226 0.0
H1682 H 0.35893 0.98242 0.96996 0.0
H1683 H 0.38156 0.00029 0.96421 0.0
H1684 H 0.34394 0.9771 0.99771 0.0
H1685 H 0.3721 0.94637 0.95939 0.0
H1686 H 0.39528 0.93352 0.9479 0.0
H1687 H 0.39899 0.90509 0.9895 0.0
H1688 H 0.37595 0.91793 0.00135 0.0
H1689 H 0.27885 0.9215 0.99423 0.0
H1690 H 0.30156 0.93872 0.98734 0.0
H1691 H 0.33113 0.91385 0.01978 0.0
H1692 H 0.30852 0.89643 0.02662 0.0
H1693 H 0.34575 0.91879 0.99157 0.0
H1694 H 0.31778 0.94985 0.03 0.0
H1695 H 0.29455 0.9627 0.04141 0.0
H1696 H 0.29047 0.99051 0.99943 0.0
H1697 H 0.31355 0.97767 0.98766 0.0
C1698 C 0.39952 0.97629 0.99045 0.0
C1699 C 0.39798 0.98869 0.97971 0.0
C1700 C 0.38656 0.96618 0.99381 0.0
C1701 C 0.37182 0.96823 0.98643 0.0
C1702 C 0.37022 0.98061 0.97574 0.0
C1703 C 0.38319 0.99072 0.97237 0.0
C1704 C 0.35799 0.95763 0.99013 0.0
C1705 C 0.34425 0.96436 0.99615 0.0
C1706 C 0.35854 0.941 0.98843 0.0
C1707 C 0.37239 0.93323 0.98132 0.0
C1708 C 0.37793 0.93747 0.96615 0.0
C1709 C 0.39104 0.93017 0.95956 0.0
C1710 C 0.39863 0.91852 0.96798 0.0
C1711 C 0.39311 0.91413 0.983 0.0
C1712 C 0.38002 0.9214 0.98965 0.0
C1713 C 0.29017 0.91969 -7e-05 0.0
C1714 C 0.29186 0.90762 0.01103 0.0
C1715 C 0.30313 0.92959 0.99601 0.0
C1716 C 0.31799 0.92767 0.00317 0.0
C1717 C 0.31975 0.91554 0.01413 0.0
C1718 C 0.3068 0.90563 0.01806 0.0
C1719 C 0.33172 0.93826 0.99917 0.0
C1720 C 0.34544 0.93153 0.9931 0.0
C1721 C 0.33115 0.9549 0.00081 0.0
C1722 C 0.3173 0.96268 0.00788 0.0
C1723 C 0.31185 0.95861 0.02314 0.0
C1724 C 0.29873 0.96591 0.02969 0.0
C1725 C 0.29101 0.97738 0.02113 0.0
C1726 C 0.29644 0.98161 0.00603 0.0
C1727 C 0.30955 0.97434 0.99942 0.0
H1728 H 0.28085 0.98302 0.02622 0.0
H1729 H 0.40877 0.91288 0.96285 0.0
H1730 H 0.22652 0.35166 0.3052 0.0
H1731 H 0.20767 0.37262 0.30207 0.0
H1732 H 0.23286 0.38884 0.26048 0.0
H1733 H 0.25175 0.36788 0.26353 0.0
H1734 H 0.22524 0.4132 0.27968 0.0
H1735 H 0.19821 0.36708 0.25681 0.0
H1736 H 0.18749 0.33958 0.25647 0.0
H1737 H 0.1574 0.35037 0.29605 0.0
H1738 H 0.16811 0.3779 0.29677 0.0
H1739 H 0.16704 0.46192 0.24813 0.0
H1740 H 0.18563 0.44089 0.25192 0.0
H1741 H 0.1594 0.42517 0.29306 0.0
H1742 H 0.14054 0.44603 0.28919 0.0
H1743 H 0.16749 0.40059 0.27462 0.0
H1744 H 0.19424 0.44678 0.29733 0.0
H1745 H 0.20499 0.47427 0.29776 0.0
H1746 H 0.23561 0.4634 0.25863 0.0
H1747 H 0.22488 0.43588 0.25782 0.0
C1748 C 0.22798 0.35963 0.29533 0.0
C1749 C 0.24058 0.35807 0.28457 0.0
C1750 C 0.21722 0.37161 0.29357 0.0
C1751 C 0.21875 0.38217 0.28092 0.0
C1752 C 0.23146 0.38082 0.27032 0.0
C1753 C 0.24227 0.36887 0.27211 0.0
C1754 C 0.20709 0.39462 0.27873 0.0
C1755 C 0.21263 0.41044 0.27837 0.0
C1756 C 0.19061 0.39103 0.27741 0.0
C1757 C 0.18408 0.37451 0.27694 0.0
C1758 C 0.1894 0.36356 0.26552 0.0
C1759 C 0.1833 0.34797 0.26524 0.0
C1760 C 0.1718 0.34322 0.27626 0.0
C1761 C 0.16633 0.35406 0.28754 0.0
C1762 C 0.1724 0.36966 0.28788 0.0
C1763 C 0.16519 0.45398 0.25798 0.0
C1764 C 0.15235 0.4557 0.26841 0.0
C1765 C 0.17588 0.44201 0.26017 0.0
C1766 C 0.17404 0.43162 0.27291 0.0
C1767 C 0.16106 0.4331 0.28317 0.0
C1768 C 0.15032 0.44505 0.28096 0.0
C1769 C 0.18564 0.41918 0.27551 0.0
C1770 C 0.18009 0.40337 0.27595 0.0
C1771 C 0.20212 0.42278 0.27691 0.0
C1772 C 0.20865 0.43931 0.27742 0.0
C1773 C 0.20318 0.45028 0.28874 0.0
C1774 C 0.20929 0.46586 0.28907 0.0
C1775 C 0.22095 0.47059 0.27821 0.0
C1776 C 0.22656 0.45972 0.26702 0.0
C1777 C 0.22049 0.44413 0.26664 0.0
H1778 H 0.22566 0.48266 0.27848 0.0
H1779 H 0.1671 0.33115 0.27603 0.0
H1780 H 0.12242 0.01265 0.45821 0.0
H1781 H 0.14523 0.03076 0.46343 0.0
H1782 H 0.11653 0.05931 0.49417 0.0
H1783 H 0.09358 0.04146 0.4887 0.0
H1784 H 0.13486 0.07732 0.47442 0.0
H1785 H 0.14196 0.03435 0.51 0.0
H1786 H 0.14429 0.00645 0.51725 0.0
H1787 H 0.18499 0.00278 0.48706 0.0
H1788 H 0.18277 0.03061 0.47945 0.0
H1789 H 0.19586 0.1217 0.5154 0.0
H1790 H 0.1733 0.10379 0.50879 0.0
H1791 H 0.2032 0.07594 0.47861 0.0
H1792 H 0.22589 0.09371 0.48526 0.0
H1793 H 0.18448 0.0575 0.49743 0.0
H1794 H 0.17773 0.10063 0.46224 0.0
H1795 H 0.17545 0.12854 0.45503 0.0
H1796 H 0.13414 0.13195 0.48441 0.0
H1797 H 0.13632 0.10411 0.49199 0.0
C1798 C 0.12093 0.02288 0.46595 0.0
C1799 C 0.10622 0.0256 0.4731 0.0
C1800 C 0.134 0.03313 0.46902 0.0
C1801 C 0.1326 0.04628 0.47933 0.0
C1802 C 0.11786 0.0492 0.48623 0.0
C1803 C 0.10481 0.03893 0.4832 0.0
C1804 C 0.14653 0.05693 0.48301 0.0
C1805 C 0.14565 0.07304 0.47963 0.0
C1806 C 0.16071 0.05124 0.48945 0.0
C1807 C 0.16209 0.03452 0.49403 0.0
C1808 C 0.15133 0.02756 0.5048 0.0
C1809 C 0.15264 0.01176 0.509 0.0
C1810 C 0.16475 0.00284 0.50258 0.0
C1811 C 0.1756 0.0097 0.492 0.0
C1812 C 0.17432 0.02549 0.48775 0.0
C1813 C 0.19766 0.11177 0.50736 0.0
C1814 C 0.21267 0.10915 0.50083 0.0
C1815 C 0.18473 0.10158 0.50354 0.0
C1816 C 0.18654 0.08864 0.49307 0.0
C1817 C 0.20155 0.08588 0.48669 0.0
C1818 C 0.21449 0.09607 0.49048 0.0
C1819 C 0.1728 0.07791 0.4889 0.0
C1820 C 0.17371 0.06179 0.49218 0.0
C1821 C 0.15865 0.08359 0.48236 0.0
C1822 C 0.15728 0.10032 0.4778 0.0
C1823 C 0.16824 0.10737 0.46727 0.0
C1824 C 0.16695 0.12317 0.4631 0.0
C1825 C 0.15468 0.13203 0.46929 0.0
C1826 C 0.14365 0.12508 0.47964 0.0
C1827 C 0.1449 0.10929 0.48387 0.0
H1828 H 0.1537 0.14426 0.46604 0.0
H1829 H 0.16575 0.99061 0.50585 0.0
H1830 H 0.7205 0.15093 0.70602 0.0
H1831 H 0.702 0.12843 0.70973 0.0
H1832 H 0.73056 0.11283 0.7488 0.0
H1833 H 0.74912 0.13538 0.74521 0.0
H1834 H 0.72171 0.08855 0.72902 0.0
H1835 H 0.69606 0.13089 0.75591 0.0
H1836 H 0.68515 0.15739 0.75877 0.0
H1837 H 0.65222 0.1465 0.72053 0.0
H1838 H 0.66308 0.11999 0.71728 0.0
H1839 H 0.66467 0.03272 0.75839 0.0
H1840 H 0.68321 0.0554 0.75598 0.0
H1841 H 0.65589 0.07211 0.71652 0.0
H1842 H 0.63716 0.04957 0.71896 0.0
H1843 H 0.66424 0.09586 0.73727 0.0
H1844 H 0.69033 0.05371 0.71006 0.0
H1845 H 0.70125 0.0272 0.70726 0.0
H1846 H 0.73335 0.03777 0.74628 0.0
H1847 H 0.72247 0.06428 0.74945 0.0
C1848 C 0.72276 0.1428 0.71552 0.0
C1849 C 0.73623 0.14499 0.72538 0.0
C1850 C 0.71219 0.12994 0.7176 0.0
C1851 C 0.7148 0.11907 0.72967 0.0
C1852 C 0.72833 0.12109 0.73942 0.0
C1853 C 0.73893 0.13395 0.73732 0.0
C1854 C 0.70349 0.1055 0.73197 0.0
C1855 C 0.70918 0.09015 0.73106 0.0
C1856 C 0.68709 0.10759 0.7343 0.0
C1857 C 0.68049 0.1235 0.73626 0.0
C1858 C 0.68657 0.13419 0.74803 0.0
C1859 C 0.68038 0.1492 0.74973 0.0
C1860 C 0.66802 0.15364 0.73982 0.0
C1861 C 0.6618 0.14305 0.72819 0.0
C1862 C 0.66796 0.12802 0.72642 0.0
C1863 C 0.66259 0.04122 0.7492 0.0
C1864 C 0.64947 0.03931 0.73882 0.0
C1865 C 0.67324 0.05414 0.7478 0.0
C1866 C 0.67102 0.06534 0.73596 0.0
C1867 C 0.65783 0.06359 0.72573 0.0
C1868 C 0.64716 0.05067 0.72711 0.0
C1869 C 0.68245 0.07892 0.73424 0.0
C1870 C 0.67677 0.09427 0.73526 0.0
C1871 C 0.69886 0.07683 0.73203 0.0
C1872 C 0.70547 0.06092 0.7301 0.0
C1873 C 0.69963 0.05033 0.71813 0.0
C1874 C 0.70583 0.03532 0.71646 0.0
C1875 C 0.71796 0.03078 0.72661 0.0
C1876 C 0.72394 0.04128 0.73843 0.0
C1877 C 0.71778 0.05631 0.74016 0.0
H1878 H 0.72274 0.01915 0.7253 0.0
H1879 H 0.66325 0.16527 0.74116 0.0
H1880 H 0.40542 0.03573 0.54071 0.0
H1881 H 0.38306 0.05269 0.53622 0.0
H1882 H 0.36766 0.02285 0.49632 0.0
H1883 H 0.39009 0.00593 0.50068 0.0
H1884 H 0.36607 0.05317 0.48906 0.0
H1885 H 0.3491 0.02096 0.53282 0.0
H1886 H 0.3513 0.00921 0.55938 0.0
H1887 H 0.35307 0.05551 0.58131 0.0
H1888 H 0.35109 0.06755 0.55484 0.0
H1889 H 0.28836 0.08094 0.48078 0.0
H1890 H 0.31108 0.06455 0.48539 0.0
H1891 H 0.32622 0.09527 0.5247 0.0
H1892 H 0.30335 0.11158 0.52035 0.0
H1893 H 0.32812 0.06484 0.53235 0.0
H1894 H 0.34478 0.09704 0.4886 0.0
H1895 H 0.34248 0.10876 0.46203 0.0
H1896 H 0.34123 0.06246 0.4401 0.0
H1897 H 0.34331 0.05045 0.46657 0.0
C1898 C 0.3972 0.03273 0.53105 0.0
C1899 C 0.39946 0.01947 0.52109 0.0
C1900 C 0.38443 0.04243 0.52849 0.0
C1901 C 0.37356 0.03892 0.51606 0.0
C1902 C 0.3759 0.02578 0.50598 0.0
C1903 C 0.38873 0.01615 0.50846 0.0
C1904 C 0.35977 0.04896 0.51352 0.0
C1905 C 0.35765 0.05556 0.49847 0.0
C1906 C 0.349 0.05238 0.52591 0.0
C1907 C 0.3501 0.04515 0.54184 0.0
C1908 C 0.35007 0.02864 0.54329 0.0
C1909 C 0.35126 0.02193 0.55833 0.0
C1910 C 0.35237 0.03161 0.57202 0.0
C1911 C 0.35224 0.04803 0.5707 0.0
C1912 C 0.35107 0.0548 0.55568 0.0
C1913 C 0.29652 0.08423 0.4904 0.0
C1914 C 0.29407 0.0976 0.50016 0.0
C1915 C 0.30954 0.07488 0.49298 0.0
C1916 C 0.32046 0.07881 0.50526 0.0
C1917 C 0.31795 0.09204 0.51514 0.0
C1918 C 0.3049 0.10137 0.51261 0.0
C1919 C 0.33441 0.06902 0.50789 0.0
C1920 C 0.33655 0.06247 0.52296 0.0
C1921 C 0.3452 0.06564 0.49552 0.0
C1922 C 0.34405 0.07284 0.47958 0.0
C1923 C 0.3439 0.08935 0.47812 0.0
C1924 C 0.34265 0.09605 0.46308 0.0
C1925 C 0.34167 0.08636 0.44939 0.0
C1926 C 0.34198 0.06995 0.45072 0.0
C1927 C 0.3432 0.0632 0.46573 0.0
H1928 H 0.3407 0.09157 0.43776 0.0
H1929 H 0.35329 0.02639 0.58365 0.0
H1930 H 0.5897 0.47593 0.51531 0.0
H1931 H 0.6113 0.45762 0.51247 0.0
H1932 H 0.64161 0.48881 0.54152 0.0
H1933 H 0.62011 0.50732 0.54419 0.0
H1934 H 0.65667 0.47775 0.51469 0.0
H1935 H 0.62551 0.45647 0.55747 0.0
H1936 H 0.60103 0.44668 0.5705 0.0
H1937 H 0.59534 0.4097 0.5349 0.0
H1938 H 0.61967 0.41942 0.52151 0.0
H1939 H 0.71733 0.4241 0.52905 0.0
H1940 H 0.69594 0.44249 0.53252 0.0
H1941 H 0.66414 0.41055 0.50596 0.0
H1942 H 0.68539 0.39196 0.50266 0.0
H1943 H 0.64989 0.42217 0.53184 0.0
H1944 H 0.68062 0.44345 0.48878 0.0
H1945 H 0.70492 0.45321 0.47539 0.0
H1946 H 0.71122 0.49011 0.51099 0.0
H1947 H 0.68706 0.48044 0.52472 0.0
C1948 C 0.60101 0.47895 0.52097 0.0
C1949 C 0.60321 0.49305 0.53 0.0
C1950 C 0.61328 0.46843 0.51945 0.0
C1951 C 0.62799 0.4718 0.52692 0.0
C1952 C 0.63032 0.48598 0.53572 0.0
C1953 C 0.61802 0.49647 0.53732 0.0
C1954 C 0.64093 0.46053 0.52553 0.0
C1955 C 0.65528 0.46566 0.51864 0.0
C1956 C 0.63895 0.44466 0.53035 0.0
C1957 C 0.62433 0.43877 0.5384 0.0
C1958 C 0.61897 0.44633 0.55234 0.0
C1959 C 0.60513 0.44078 0.55981 0.0
C1960 C 0.59661 0.4276 0.55351 0.0
C1961 C 0.60194 0.41992 0.53975 0.0
C1962 C 0.61576 0.42544 0.53223 0.0
C1963 C 0.70578 0.42096 0.52396 0.0
C1964 C 0.70308 0.40659 0.51551 0.0
C1965 C 0.69358 0.43152 0.5259 0.0
C1966 C 0.6785 0.42799 0.51931 0.0
C1967 C 0.6757 0.41353 0.51111 0.0
C1968 C 0.68787 0.40293 0.50921 0.0
C1969 C 0.66564 0.43937 0.52095 0.0
C1970 C 0.6513 0.43426 0.52789 0.0
C1971 C 0.66761 0.45524 0.51612 0.0
C1972 C 0.68212 0.46112 0.50787 0.0
C1973 C 0.68725 0.45357 0.49382 0.0
C1974 C 0.70099 0.4591 0.48616 0.0
C1975 C 0.70963 0.47224 0.49236 0.0
C1976 C 0.70453 0.47992 0.50622 0.0
C1977 C 0.69081 0.47442 0.51394 0.0
H1978 H 0.72026 0.47651 0.48641 0.0
H1979 H 0.5859 0.42332 0.55931 0.0
H1980 H 0.70458 0.26098 0.38403 0.0
H1981 H 0.70996 0.28034 0.40554 0.0
H1982 H 0.73186 0.31227 0.37201 0.0
H1983 H 0.72718 0.29268 0.35055 0.0
H1984 H 0.74929 0.31129 0.39821 0.0
H1985 H 0.69432 0.31797 0.38667 0.0
H1986 H 0.66629 0.30956 0.38246 0.0
H1987 H 0.66379 0.29284 0.43043 0.0
H1988 H 0.69189 0.30096 0.43486 0.0
H1989 H 0.75086 0.37932 0.44952 0.0
H1990 H 0.74485 0.36076 0.42738 0.0
H1991 H 0.72596 0.32663 0.46046 0.0
H1992 H 0.73184 0.34512 0.48266 0.0
H1993 H 0.70681 0.32931 0.43419 0.0
H1994 H 0.7621 0.32234 0.44532 0.0
H1995 H 0.79007 0.33108 0.44937 0.0
H1996 H 0.79174 0.34887 0.40178 0.0
H1997 H 0.76369 0.34042 0.39752 0.0
C1998 C 0.71066 0.27207 0.38124 0.0
C1999 C 0.71543 0.27528 0.36555 0.0
C2000 C 0.71357 0.2832 0.39353 0.0
C2001 C 0.72112 0.29785 0.39035 0.0
C2002 C 0.72594 0.30108 0.37472 0.0
C2003 C 0.72312 0.28992 0.36244 0.0
C2004 C 0.7243 0.30967 0.40338 0.0
C2005 C 0.73996 0.31541 0.40592 0.0
C2006 C 0.71217 0.3148 0.41366 0.0
C2007 C 0.69526 0.30994 0.41104 0.0
C2008 C 0.68783 0.31239 0.39628 0.0
C2009 C 0.67193 0.30769 0.39386 0.0
C2010 C 0.66328 0.30063 0.40615 0.0
C2011 C 0.67051 0.29829 0.42091 0.0
C2012 C 0.68643 0.30295 0.42339 0.0
C2013 C 0.74542 0.36787 0.45209 0.0
C2014 C 0.74189 0.36367 0.46786 0.0
C2015 C 0.74204 0.35727 0.43943 0.0
C2016 C 0.73509 0.34228 0.44232 0.0
C2017 C 0.73134 0.33814 0.458 0.0
C2018 C 0.73476 0.3487 0.47067 0.0
C2019 C 0.73178 0.33087 0.42899 0.0
C2020 C 0.71611 0.32521 0.42642 0.0
C2021 C 0.74388 0.32586 0.41864 0.0
C2022 C 0.76075 0.3309 0.42116 0.0
C2023 C 0.76839 0.32823 0.43576 0.0
C2024 C 0.78427 0.33311 0.43809 0.0
C2025 C 0.79266 0.34057 0.42586 0.0
C2026 C 0.78521 0.34312 0.41125 0.0
C2027 C 0.76933 0.33827 0.40887 0.0
H2028 H 0.80495 0.34434 0.42768 0.0
H2029 H 0.65096 0.297 0.40426 0.0
H2030 H 0.53285 0.04995 0.90573 0.0
H2031 H 0.55175 0.0457 0.88421 0.0
H2032 H 0.5223 0.00657 0.86597 0.0
H2033 H 0.50349 0.01062 0.88766 0.0
H2034 H 0.5523 0.99903 0.86581 0.0
H2035 H 0.52344 0.04321 0.84808 0.0
H2036 H 0.51228 0.06967 0.85017 0.0
H2037 H 0.55913 0.09071 0.85588 0.0
H2038 H 0.57055 0.06435 0.85403 0.0
H2039 H 0.58747 0.99285 0.78922 0.0
H2040 H 0.5691 0.99687 0.81123 0.0
H2041 H 0.60037 0.03386 0.83089 0.0
H2042 H 0.61878 0.03002 0.80883 0.0
H2043 H 0.56967 0.0425 0.83035 0.0
H2044 H 0.59838 0.99794 0.84768 0.0
H2045 H 0.6092 0.97136 0.84519 0.0
H2046 H 0.5621 0.95091 0.83966 0.0
H2047 H 0.551 0.9774 0.8419 0.0
C2048 C 0.53036 0.04052 0.89705 0.0
C2049 C 0.51667 0.03066 0.89832 0.0
C2050 C 0.54115 0.03811 0.88475 0.0
C2051 C 0.53833 0.02595 0.87333 0.0
C2052 C 0.52472 0.01602 0.87464 0.0
C2053 C 0.51399 0.01833 0.88704 0.0
C2054 C 0.54966 0.02349 0.86011 0.0
C2055 C 0.55592 0.00848 0.85792 0.0
C2056 C 0.55467 0.03591 0.85003 0.0
C2057 C 0.54784 0.05179 0.85107 0.0
C2058 C 0.53135 0.05347 0.84989 0.0
C2059 C 0.52498 0.06845 0.85102 0.0
C2060 C 0.53499 0.08186 0.85319 0.0
C2061 C 0.55139 0.08031 0.85421 0.0
C2062 C 0.55782 0.06536 0.85311 0.0
C2063 C 0.59049 0.00181 0.79825 0.0
C2064 C 0.60461 0.0111 0.79729 0.0
C2065 C 0.57999 0.00405 0.81085 0.0
C2066 C 0.58345 0.01556 0.82277 0.0
C2067 C 0.5975 0.0249 0.82182 0.0
C2068 C 0.60802 0.02265 0.80923 0.0
C2069 C 0.57226 0.01805 0.83607 0.0
C2070 C 0.56604 0.03306 0.83826 0.0
C2071 C 0.56722 0.00561 0.8461 0.0
C2072 C 0.57387 0.98967 0.84481 0.0
C2073 C 0.59033 0.98779 0.84581 0.0
C2074 C 0.59652 0.97274 0.84446 0.0
C2075 C 0.58635 0.95946 0.84223 0.0
C2076 C 0.56996 0.9612 0.84137 0.0
C2077 C 0.56372 0.97623 0.8427 0.0
H2078 H 0.59116 0.94782 0.84119 0.0
H2079 H 0.53003 0.09344 0.85406 0.0
H2080 H 0.26562 0.22309 0.3402 0.0
H2081 H 0.26114 0.20431 0.36162 0.0
H2082 H 0.29646 0.22958 0.39064 0.0
H2083 H 0.30094 0.2485 0.3693 0.0
H2084 H 0.29949 0.19783 0.392 0.0
H2085 H 0.25765 0.23438 0.39743 0.0
H2086 H 0.23506 0.24958 0.38833 0.0
H2087 H 0.20872 0.20641 0.37692 0.0
H2088 H 0.23126 0.19095 0.38575 0.0
H2089 H 0.27859 0.16701 0.46748 0.0
H2090 H 0.28401 0.18414 0.44491 0.0
H2091 H 0.24857 0.15795 0.41684 0.0
H2092 H 0.24295 0.14082 0.43943 0.0
H2093 H 0.24562 0.18961 0.41456 0.0
H2094 H 0.2874 0.15303 0.40994 0.0
H2095 H 0.30999 0.13801 0.41934 0.0
H2096 H 0.3365 0.18136 0.42951 0.0
H2097 H 0.31396 0.19665 0.42039 0.0
C2098 C 0.27237 0.22471 0.35118 0.0
C2099 C 0.28357 0.23734 0.35309 0.0
C2100 C 0.26982 0.21395 0.36339 0.0
C2101 C 0.27835 0.21566 0.37778 0.0
C2102 C 0.28978 0.22804 0.37961 0.0
C2103 C 0.29234 0.23881 0.3674 0.0
C2104 C 0.27518 0.20466 0.39101 0.0
C2105 C 0.28776 0.19616 0.39707 0.0
C2106 C 0.25979 0.20225 0.39737 0.0
C2107 C 0.2462 0.21151 0.3921 0.0
C2108 C 0.24709 0.22813 0.39286 0.0
C2109 C 0.23429 0.23679 0.38777 0.0
C2110 C 0.22048 0.22896 0.38201 0.0
C2111 C 0.21943 0.21246 0.38136 0.0
C2112 C 0.23221 0.20374 0.38642 0.0
C2113 C 0.27198 0.16484 0.4565 0.0
C2114 C 0.26035 0.15253 0.45525 0.0
C2115 C 0.27515 0.1746 0.44358 0.0
C2116 C 0.2668 0.17222 0.42916 0.0
C2117 C 0.25516 0.15997 0.42787 0.0
C2118 C 0.252 0.15017 0.44078 0.0
C2119 C 0.26994 0.18277 0.41556 0.0
C2120 C 0.25735 0.19122 0.40945 0.0
C2121 C 0.28532 0.18515 0.40919 0.0
C2122 C 0.29893 0.17599 0.41462 0.0
C2123 C 0.29799 0.15936 0.4143 0.0
C2124 C 0.3108 0.1508 0.41956 0.0
C2125 C 0.32466 0.15873 0.42506 0.0
C2126 C 0.32575 0.17524 0.42527 0.0
C2127 C 0.31297 0.18386 0.42004 0.0
H2128 H 0.33456 0.15208 0.42912 0.0
H2129 H 0.21058 0.23569 0.37807 0.0
H2130 H 0.49442 0.50156 0.88531 0.0
H2131 H 0.47537 0.50648 0.86417 0.0
H2132 H 0.44262 0.4718 0.88385 0.0
H2133 H 0.46198 0.46613 0.90451 0.0
H2134 H 0.44303 0.4685 0.85281 0.0
H2135 H 0.43806 0.51231 0.88922 0.0
H2136 H 0.44739 0.53515 0.90592 0.0
H2137 H 0.46484 0.55873 0.86431 0.0
H2138 H 0.45581 0.53594 0.84738 0.0
H2139 H 0.37515 0.49206 0.80986 0.0
H2140 H 0.39375 0.48716 0.83153 0.0
H2141 H 0.42917 0.51737 0.80938 0.0
H2142 H 0.41067 0.52237 0.78767 0.0
H2143 H 0.42685 0.52299 0.84193 0.0
H2144 H 0.4317 0.47854 0.80574 0.0
H2145 H 0.42171 0.45571 0.78941 0.0
H2146 H 0.40351 0.43335 0.83139 0.0
H2147 H 0.4132 0.45617 0.84795 0.0
C2148 C 0.48325 0.49481 0.88505 0.0
C2149 C 0.47974 0.48346 0.89667 0.0
C2150 C 0.47228 0.4978 0.87306 0.0
C2151 C 0.45744 0.48971 0.87258 0.0
C2152 C 0.45395 0.47826 0.88404 0.0
C2153 C 0.46498 0.47515 0.89595 0.0
C2154 C 0.44563 0.49304 0.86001 0.0
C2155 C 0.43932 0.48039 0.8506 0.0
C2156 C 0.441 0.5086 0.85691 0.0
C2157 C 0.44639 0.52235 0.86705 0.0
C2158 C 0.44399 0.52232 0.88364 0.0
C2159 C 0.44921 0.53526 0.89315 0.0
C2160 C 0.45674 0.54837 0.88618 0.0
C2161 C 0.45902 0.54857 0.86969 0.0
C2162 C 0.45385 0.53565 0.86013 0.0
C2163 C 0.38687 0.49771 0.80961 0.0
C2164 C 0.39145 0.50757 0.79701 0.0
C2165 C 0.3975 0.49485 0.82198 0.0
C2166 C 0.41286 0.5018 0.82196 0.0
C2167 C 0.41736 0.51189 0.80958 0.0
C2168 C 0.40679 0.51468 0.79717 0.0
C2169 C 0.42432 0.49846 0.83479 0.0
C2170 C 0.43055 0.51111 0.84421 0.0
C2171 C 0.42878 0.4829 0.83799 0.0
C2172 C 0.42303 0.46913 0.82806 0.0
C2173 C 0.42546 0.46881 0.81147 0.0
C2174 C 0.41987 0.45586 0.80218 0.0
C2175 C 0.41194 0.44311 0.80935 0.0
C2176 C 0.40963 0.44325 0.82585 0.0
C2177 C 0.41518 0.45618 0.83519 0.0
H2178 H 0.40763 0.43309 0.80213 0.0
H2179 H 0.46077 0.55837 0.89356 0.0
H2180 H 0.7061 0.73097 0.14184 0.0
H2181 H 0.71278 0.71286 0.11995 0.0
H2182 H 0.74981 0.74572 0.10498 0.0
H2183 H 0.74306 0.76396 0.1267 0.0
H2184 H 0.73174 0.73364 0.07978 0.0
H2185 H 0.75941 0.71425 0.12523 0.0
H2186 H 0.7619 0.70472 0.1527 0.0
H2187 H 0.72934 0.6658 0.14159 0.0
H2188 H 0.72649 0.67524 0.1141 0.0
H2189 H 0.77455 0.68333 0.02872 0.0
H2190 H 0.76713 0.70103 0.05059 0.0
H2191 H 0.73157 0.66662 0.06562 0.0
H2192 H 0.739 0.64878 0.04387 0.0
H2193 H 0.74829 0.67929 0.09078 0.0
H2194 H 0.72081 0.69825 0.04531 0.0
H2195 H 0.71807 0.7077 0.01784 0.0
H2196 H 0.74977 0.74732 0.0289 0.0
H2197 H 0.75289 0.73798 0.05639 0.0
C2198 C 0.71558 0.73437 0.13381 0.0
C2199 C 0.72412 0.74883 0.13601 0.0
C2200 C 0.71945 0.72398 0.12138 0.0
C2201 C 0.73188 0.72791 0.11095 0.0
C2202 C 0.74021 0.74246 0.11294 0.0
C2203 C 0.73642 0.7528 0.12541 0.0
C2204 C 0.73629 0.7168 0.098 0.0
C2205 C 0.73554 0.72182 0.08218 0.0
C2206 C 0.74088 0.70126 0.10115 0.0
C2207 C 0.74261 0.69555 0.11766 0.0
C2208 C 0.75268 0.70374 0.12868 0.0
C2209 C 0.75417 0.69834 0.14425 0.0
C2210 C 0.74575 0.68469 0.1489 0.0
C2211 C 0.73584 0.67639 0.13798 0.0
C2212 C 0.73429 0.68175 0.1224 0.0
C2213 C 0.76519 0.67949 0.0367 0.0
C2214 C 0.75733 0.66466 0.03452 0.0
C2215 C 0.76091 0.68965 0.04915 0.0
C2216 C 0.74867 0.6852 0.05961 0.0
C2217 C 0.74102 0.67029 0.05766 0.0
C2218 C 0.74527 0.66013 0.0452 0.0
C2219 C 0.74381 0.69615 0.07254 0.0
C2220 C 0.74446 0.6911 0.08836 0.0
C2221 C 0.73908 0.71164 0.06938 0.0
C2222 C 0.73721 0.71732 0.05287 0.0
C2223 C 0.72731 0.70891 0.04185 0.0
C2224 C 0.72567 0.71425 0.02628 0.0
C2225 C 0.73378 0.72808 0.02162 0.0
C2226 C 0.74351 0.7366 0.03253 0.0
C2227 C 0.74521 0.73129 0.04811 0.0
H2228 H 0.73249 0.7322 0.00956 0.0
H2229 H 0.74693 0.68053 0.16096 0.0
H2230 H 0.97269 0.01541 0.1013 0.0
H2231 H 0.95629 0.01264 0.12504 0.0
H2232 H 0.97934 0.05453 0.14591 0.0
H2233 H 0.99646 0.05681 0.12269 0.0
H2234 H 0.97612 0.03359 0.16756 0.0
H2235 H 0.94134 0.05469 0.12893 0.0
H2236 H 0.92744 0.05611 0.10308 0.0
H2237 H 0.90428 0.01093 0.11094 0.0
H2238 H 0.91821 0.00915 0.13676 0.0
H2239 H 0.89488 0.03865 0.21199 0.0
H2240 H 0.91154 0.04389 0.18875 0.0
H2241 H 0.94084 0.00525 0.20117 0.0
H2242 H 0.92453 0.00021 0.22458 0.0
H2243 H 0.91757 0.02706 0.16311 0.0
H2244 H 0.97868 0.01284 0.19056 0.0
H2245 H 0.99231 0.01456 0.21668 0.0
H2246 H 0.96233 0.05186 0.23166 0.0
H2247 H 0.94866 0.05052 0.20557 0.0
C2248 C 0.97444 0.02393 0.11102 0.0
C2249 C 0.98589 0.03638 0.11002 0.0
C2250 C 0.96489 0.02245 0.12451 0.0
C2251 C 0.96638 0.03354 0.13717 0.0
C2252 C 0.9779 0.04588 0.13627 0.0
C2253 C 0.98757 0.04726 0.12288 0.0
C2254 C 0.95611 0.03218 0.15144 0.0
C2255 C 0.96332 0.03218 0.16657 0.0
C2256 C 0.93937 0.03067 0.15021 0.0
C2257 C 0.93093 0.03173 0.13472 0.0
C2258 C 0.93337 0.04501 0.1251 0.0
C2259 C 0.92547 0.04588 0.11046 0.0
C2260 C 0.91501 0.0336 0.10535 0.0
C2261 C 0.9124 0.02043 0.1149 0.0
C2262 C 0.92028 0.01949 0.12955 0.0
C2263 C 0.90492 0.03132 0.2098 0.0
C2264 C 0.90844 0.01907 0.22018 0.0
C2265 C 0.9144 0.03429 0.19649 0.0
C2266 C 0.92755 0.02508 0.19331 0.0
C2267 C 0.93095 0.01272 0.20355 0.0
C2268 C 0.92156 0.00982 0.21691 0.0
C2269 C 0.93761 0.02823 0.17918 0.0
C2270 C 0.93037 0.02852 0.16408 0.0
C2271 C 0.95429 0.03045 0.18047 0.0
C2272 C 0.96255 0.03146 0.19615 0.0
C2273 C 0.97504 0.02145 0.1994 0.0
C2274 C 0.98276 0.02235 0.21421 0.0
C2275 C 0.97816 0.03327 0.22584 0.0
C2276 C 0.96585 0.04336 0.22267 0.0
C2277 C 0.95809 0.04252 0.20788 0.0
H2278 H 0.98415 0.03394 0.2373 0.0
H2279 H 0.90891 0.0343 0.09401 0.0
H2280 H 0.29247 0.75017 0.12777 0.0
H2281 H 0.28747 0.7678 0.10571 0.0
H2282 H 0.26457 0.79989 0.13802 0.0
H2283 H 0.26903 0.78206 0.16004 0.0
H2284 H 0.24782 0.79558 0.1109 0.0
H2285 H 0.30214 0.8079 0.12503 0.0
H2286 H 0.33003 0.80212 0.13057 0.0
H2287 H 0.33488 0.78348 0.0829 0.0
H2288 H 0.30693 0.78895 0.07715 0.0
H2289 H 0.24752 0.86185 0.06028 0.0
H2290 H 0.25237 0.84418 0.08234 0.0
H2291 H 0.27462 0.81168 0.04997 0.0
H2292 H 0.26999 0.82935 0.02787 0.0
H2293 H 0.29171 0.81626 0.07713 0.0
H2294 H 0.23735 0.80391 0.06306 0.0
H2295 H 0.20945 0.80972 0.05756 0.0
H2296 H 0.20473 0.82851 0.10518 0.0
H2297 H 0.23268 0.823 0.1109 0.0
C2298 C 0.28625 0.76092 0.13015 0.0
C2299 C 0.28119 0.76474 0.14567 0.0
C2300 C 0.28354 0.77105 0.11757 0.0
C2301 C 0.27582 0.78525 0.12026 0.0
C2302 C 0.27061 0.78902 0.13569 0.0
C2303 C 0.2733 0.77889 0.14828 0.0
C2304 C 0.27304 0.79612 0.10697 0.0
C2305 C 0.25744 0.80028 0.10365 0.0
C2306 C 0.28556 0.80196 0.0973 0.0
C2307 C 0.30239 0.7987 0.10071 0.0
C2308 C 0.30911 0.80246 0.11577 0.0
C2309 C 0.32494 0.79926 0.11894 0.0
C2310 C 0.33421 0.7924 0.10711 0.0
C2311 C 0.32768 0.78877 0.09206 0.0
C2312 C 0.31185 0.79193 0.08884 0.0
C2313 C 0.25343 0.85094 0.05784 0.0
C2314 C 0.25833 0.84698 0.0423 0.0
C2315 C 0.25614 0.84083 0.07045 0.0
C2316 C 0.26371 0.82654 0.06775 0.0
C2317 C 0.26874 0.82264 0.0523 0.0
C2318 C 0.26604 0.83274 0.03968 0.0
C2319 C 0.26649 0.81571 0.08107 0.0
C2320 C 0.2821 0.81156 0.08439 0.0
C2321 C 0.25398 0.80989 0.09075 0.0
C2322 C 0.23716 0.81319 0.08735 0.0
C2323 C 0.2304 0.8094 0.07232 0.0
C2324 C 0.21457 0.81262 0.06917 0.0
C2325 C 0.20534 0.81952 0.081 0.0
C2326 C 0.21191 0.82318 0.09602 0.0
C2327 C 0.22774 0.82 0.09923 0.0
H2328 H 0.19308 0.822 0.07854 0.0
H2329 H 0.34647 0.78993 0.10958 0.0
H2330 H 0.03288 0.48925 0.09807 0.0
H2331 H 0.04982 0.49023 0.12184 0.0
H2332 H 0.0157 0.46035 0.1463 0.0
H2333 H 0.99864 0.45941 0.12256 0.0
H2334 H 0.02632 0.48401 0.1654 0.0
H2335 H 0.04988 0.44552 0.13135 0.0
H2336 H 0.06121 0.43507 0.10641 0.0
H2337 H 0.09827 0.47123 0.10861 0.0
H2338 H 0.08703 0.48204 0.13345 0.0
H2339 H 0.07817 0.46527 0.22911 0.0
H2340 H 0.06082 0.46289 0.20563 0.0
H2341 H 0.09197 0.4953 0.18056 0.0
H2342 H 0.1094 0.49772 0.20392 0.0
H2343 H 0.08263 0.46937 0.16207 0.0
H2344 H 0.05842 0.50808 0.19597 0.0
H2345 H 0.04704 0.51816 0.22104 0.0
H2346 H 0.0111 0.48087 0.21925 0.0
H2347 H 0.02242 0.47042 0.19428 0.0
C2348 C 0.02904 0.48281 0.10848 0.0
C2349 C 0.01447 0.47418 0.10843 0.0
C2350 C 0.03872 0.48338 0.12206 0.0
C2351 C 0.03413 0.47517 0.13577 0.0
C2352 C 0.01948 0.46676 0.13585 0.0
C2353 C 0.00974 0.46626 0.1223 0.0
C2354 C 0.04463 0.47541 0.15004 0.0
C2355 C 0.03856 0.48058 0.16472 0.0
C2356 C 0.06068 0.47119 0.14909 0.0
C2357 C 0.06752 0.46468 0.13419 0.0
C2358 C 0.06037 0.45132 0.12645 0.0
C2359 C 0.06679 0.44531 0.11234 0.0
C2360 C 0.08043 0.4525 0.10591 0.0
C2361 C 0.0877 0.46568 0.1136 0.0
C2362 C 0.08132 0.47175 0.1277 0.0
C2363 C 0.08136 0.47185 0.21859 0.0
C2364 C 0.09514 0.48172 0.2184 0.0
C2365 C 0.07141 0.47052 0.20521 0.0
C2366 C 0.07505 0.47904 0.19142 0.0
C2367 C 0.08895 0.48865 0.19109 0.0
C2368 C 0.09886 0.49005 0.20448 0.0
C2369 C 0.06433 0.47805 0.17736 0.0
C2370 C 0.07036 0.47274 0.16273 0.0
C2371 C 0.04824 0.48206 0.17838 0.0
C2372 C 0.04137 0.48837 0.19335 0.0
C2373 C 0.04817 0.50195 0.201 0.0
C2374 C 0.04172 0.50774 0.21518 0.0
C2375 C 0.02838 0.50013 0.22176 0.0
C2376 C 0.02145 0.48674 0.21415 0.0
C2377 C 0.02787 0.48088 0.19998 0.0
H2378 H 0.0234 0.50464 0.23274 0.0
H2379 H 0.08538 0.44784 0.09498 0.0
H2380 H 0.34729 0.74645 0.27949 0.0
H2381 H 0.36919 0.75165 0.29829 0.0
H2382 H 0.39558 0.71496 0.27549 0.0
H2383 H 0.37386 0.70986 0.25642 0.0
H2384 H 0.39627 0.71334 0.30826 0.0
H2385 H 0.40524 0.7525 0.26835 0.0
H2386 H 0.39808 0.77434 0.25102 0.0
H2387 H 0.38878 0.80336 0.29225 0.0
H2388 H 0.39566 0.7816 0.30984 0.0
H2389 H 0.4722 0.73295 0.34139 0.0
H2390 H 0.44972 0.7274 0.32342 0.0
H2391 H 0.42469 0.76558 0.34535 0.0
H2392 H 0.44723 0.77135 0.36328 0.0
H2393 H 0.42299 0.76644 0.3133 0.0
H2394 H 0.41435 0.7275 0.35328 0.0
H2395 H 0.42139 0.70569 0.37069 0.0
H2396 H 0.42993 0.67626 0.32955 0.0
H2397 H 0.42315 0.69799 0.31188 0.0
C2398 C 0.35782 0.7396 0.27834 0.0
C2399 C 0.35884 0.72779 0.26639 0.0
C2400 C 0.37029 0.74255 0.28914 0.0
C2401 C 0.38404 0.73377 0.28819 0.0
C2402 C 0.38504 0.72183 0.27643 0.0
C2403 C 0.37259 0.71891 0.26558 0.0
C2404 C 0.39739 0.73707 0.29945 0.0
C2405 C 0.40226 0.72489 0.30923 0.0
C2406 C 0.40491 0.75224 0.30096 0.0
C2407 C 0.40081 0.76536 0.29041 0.0
C2408 C 0.40153 0.76349 0.27372 0.0
C2409 C 0.39755 0.77586 0.26385 0.0
C2410 C 0.39294 0.79021 0.27052 0.0
C2411 C 0.39233 0.79223 0.28709 0.0
C2412 C 0.39629 0.77989 0.29702 0.0
C2413 C 0.4619 0.74014 0.34245 0.0
C2414 C 0.46149 0.75258 0.35379 0.0
C2415 C 0.44903 0.73691 0.3322 0.0
C2416 C 0.43547 0.74598 0.33316 0.0
C2417 C 0.43504 0.75842 0.34444 0.0
C2418 C 0.44791 0.76167 0.3547 0.0
C2419 C 0.4219 0.74271 0.32213 0.0
C2420 C 0.41699 0.75489 0.31237 0.0
C2421 C 0.41433 0.72754 0.32066 0.0
C2422 C 0.41839 0.71443 0.33126 0.0
C2423 C 0.41785 0.71642 0.34794 0.0
C2424 C 0.42178 0.70407 0.35786 0.0
C2425 C 0.42615 0.68961 0.35123 0.0
C2426 C 0.42656 0.68747 0.33467 0.0
C2427 C 0.42267 0.6998 0.3247 0.0
H2428 H 0.42918 0.68005 0.35893 0.0
H2429 H 0.38986 0.79978 0.26286 0.0
H2430 H 0.99497 0.41739 0.96712 0.0
H2431 H -0.00035 0.39491 0.94917 0.0
H2432 H 0.96606 0.36612 0.97549 0.0
H2433 H 0.96151 0.38848 0.99364 0.0
H2434 H 0.99374 0.35102 0.96941 0.0
H2435 H 0.95561 0.37984 0.94015 0.0
H2436 H 0.94486 0.40334 0.92773 0.0
H2437 H 0.98545 0.40704 0.89716 0.0
H2438 H 0.99655 0.38367 0.90957 0.0
H2439 H 0.98659 0.28649 0.91441 0.0
H2440 H 0.98117 0.30894 0.93203 0.0
H2441 H 0.01169 0.33913 0.90372 0.0
H2442 H 0.01689 0.31681 0.88582 0.0
H2443 H 0.98534 0.35357 0.91091 0.0
H2444 H 0.02383 0.32532 0.94008 0.0
H2445 H 0.03515 0.30212 0.95257 0.0
H2446 H 0.99478 0.29771 0.98334 0.0
H2447 H 0.9831 0.32077 0.97088 0.0
C2448 C 0.98863 0.40625 0.96911 0.0
C2449 C 0.97785 0.4047 0.98176 0.0
C2450 C 0.99122 0.39346 0.95879 0.0
C2451 C 0.9831 0.3789 0.96094 0.0
C2452 C 0.9724 0.37728 0.97361 0.0
C2453 C 0.96973 0.39009 0.98388 0.0
C2454 C 0.98594 0.36528 0.95011 0.0
C2455 C 0.9917 0.35147 0.95664 0.0
C2456 C 0.98366 0.36607 0.93342 0.0
C2457 C 0.97698 0.38009 0.9259 0.0
C2458 C 0.9623 0.38574 0.93087 0.0
C2459 C 0.95614 0.39902 0.92382 0.0
C2460 C 0.96448 0.4067 0.91169 0.0
C2461 C 0.979 0.40109 0.90657 0.0
C2462 C 0.98523 0.38781 0.9136 0.0
C2463 C 0.99217 0.2979 0.91194 0.0
C2464 C 0.00222 0.29985 0.89874 0.0
C2465 C 0.98911 0.31071 0.92206 0.0
C2466 C 0.99619 0.32568 0.91932 0.0
C2467 C 0.00611 0.32769 0.90608 0.0
C2468 C 0.0091 0.3149 0.89588 0.0
C2469 C 0.99317 0.33927 0.93019 0.0
C2470 C 0.98738 0.35308 0.92367 0.0
C2471 C 0.99551 0.33852 0.94689 0.0
C2472 C 0.00252 0.32467 0.95444 0.0
C2473 C 0.01731 0.31933 0.94942 0.0
C2474 C 0.0238 0.30622 0.95651 0.0
C2475 C 0.01567 0.29842 0.96871 0.0
C2476 C 0.00105 0.30375 0.97387 0.0
C2477 C 0.9945 0.31685 0.96681 0.0
H2478 H 0.02071 0.28827 0.97418 0.0
H2479 H 0.95969 0.41698 0.90624 0.0
H2480 H 0.65503 0.77931 0.27121 0.0
H2481 H 0.63289 0.77458 0.28936 0.0
H2482 H 0.60077 0.79321 0.25488 0.0
H2483 H 0.62296 0.79853 0.23688 0.0
H2484 H 0.59489 0.80445 0.28429 0.0
H2485 H 0.60267 0.75346 0.26019 0.0
H2486 H 0.61793 0.73042 0.25202 0.0
H2487 H 0.62911 0.72181 0.30105 0.0
H2488 H 0.61409 0.74495 0.30949 0.0
H2489 H 0.52296 0.77561 0.31834 0.0
H2490 H 0.54527 0.78066 0.30049 0.0
H2491 H 0.57728 0.76272 0.33548 0.0
H2492 H 0.55499 0.75743 0.35337 0.0
H2493 H 0.58327 0.75117 0.30594 0.0
H2494 H 0.5753 0.80212 0.33002 0.0
H2495 H 0.55993 0.82511 0.33811 0.0
H2496 H 0.54898 0.83372 0.28904 0.0
H2497 H 0.56411 0.81064 0.28066 0.0
C2498 C 0.64328 0.78254 0.26753 0.0
C2499 C 0.64076 0.78928 0.25257 0.0
C2500 C 0.63061 0.77968 0.27786 0.0
C2501 C 0.61515 0.78336 0.27339 0.0
C2502 C 0.6126 0.79022 0.25854 0.0
C2503 C 0.62527 0.79312 0.24821 0.0
C2504 C 0.60165 0.78017 0.28426 0.0
C2505 C 0.59221 0.79275 0.28885 0.0
C2506 C 0.5984 0.76499 0.2905 0.0
C2507 C 0.60738 0.75103 0.28546 0.0
C2508 C 0.60849 0.74673 0.26922 0.0
C2509 C 0.61707 0.73364 0.26454 0.0
C2510 C 0.62452 0.72468 0.27601 0.0
C2511 C 0.62335 0.72877 0.29218 0.0
C2512 C 0.6148 0.74187 0.29692 0.0
C2513 C 0.53474 0.77274 0.32227 0.0
C2514 C 0.5372 0.76615 0.3373 0.0
C2515 C 0.54749 0.7757 0.31207 0.0
C2516 C 0.56296 0.77223 0.31674 0.0
C2517 C 0.56544 0.76551 0.33167 0.0
C2518 C 0.55269 0.76254 0.34188 0.0
C2519 C 0.57651 0.77545 0.30596 0.0
C2520 C 0.58596 0.76287 0.30138 0.0
C2521 C 0.57976 0.79063 0.29972 0.0
C2522 C 0.57071 0.80456 0.30472 0.0
C2523 C 0.56951 0.80884 0.32096 0.0
C2524 C 0.56086 0.8219 0.3256 0.0
C2525 C 0.55345 0.83085 0.3141 0.0
C2526 C 0.55471 0.82677 0.29794 0.0
C2527 C 0.56333 0.81371 0.29323 0.0
H2528 H 0.54675 0.84095 0.31772 0.0
H2529 H 0.63116 0.71455 0.27236 0.0
H2530 H 0.04184 0.10465 0.97184 0.0
H2531 H 0.03737 0.12692 0.95442 0.0
H2532 H 0.99667 0.13919 0.98234 0.0
H2533 H 0.00079 0.11671 -0.00048 0.0
H2534 H 0.99071 0.14099 0.95068 0.0
H2535 H 0.03175 0.15935 0.98742 0.0
H2536 H 0.05748 0.15835 0.00139 0.0
H2537 H 0.0818 0.1604 0.95657 0.0
H2538 H 0.05618 0.16119 0.94231 0.0
H2539 H 0.98139 0.21949 0.92581 0.0
H2540 H 0.98582 0.196 0.94142 0.0
H2541 H 0.02705 0.18625 0.91319 0.0
H2542 H 0.02287 0.20989 0.89769 0.0
H2543 H 0.03304 0.1826 0.94415 0.0
H2544 H 0.9921 0.16506 0.90738 0.0
H2545 H 0.96639 0.16603 0.89337 0.0
H2546 H 0.94192 0.16233 0.93799 0.0
H2547 H 0.9675 0.16155 0.9523 0.0
C2548 C 0.03183 0.11198 0.97416 0.0
C2549 C 0.02172 0.10897 0.98711 0.0
C2550 C 0.02937 0.12477 0.96428 0.0
C2551 C 0.0168 0.13482 0.96722 0.0
C2552 C 0.00648 0.13162 0.97991 0.0
C2553 C 0.00893 0.11886 0.98979 0.0
C2554 C 0.01449 0.14879 0.95722 0.0
C2555 C -0.00011 0.15018 0.94938 0.0
C2556 C 0.02663 0.16057 0.95524 0.0
C2557 C 0.04204 0.16016 0.96379 0.0
C2558 C 0.04258 0.15946 0.98053 0.0
C2559 C 0.05714 0.15896 0.9885 0.0
C2560 C 0.07126 0.15927 0.97987 0.0
C2561 C 0.07085 0.16014 0.96324 0.0
C2562 C 0.05631 0.16062 0.95521 0.0
C2563 C 0.9914 0.21235 0.9229 0.0
C2564 C 0.00175 0.21654 0.91047 0.0
C2565 C 0.99387 0.19888 0.93179 0.0
C2566 C 0.00665 0.18925 0.92832 0.0
C2567 C 0.0171 0.19349 0.91604 0.0
C2568 C 0.01467 0.207 0.90717 0.0
C2569 C 0.00921 0.17486 0.93765 0.0
C2570 C 0.02387 0.17338 0.94538 0.0
C2571 C 0.99713 0.16299 0.93951 0.0
C2572 C 0.98172 0.16339 0.93093 0.0
C2573 C 0.98124 0.16457 0.91422 0.0
C2574 C 0.96669 0.16507 0.90622 0.0
C2575 C 0.95253 0.16428 0.91478 0.0
C2576 C 0.95289 0.16295 0.93137 0.0
C2577 C 0.96741 0.16247 0.93943 0.0
H2578 H 0.94128 0.16466 0.90857 0.0
H2579 H 0.08253 0.15888 0.98606 0.0
H2580 H 0.3756 0.29609 0.2484 0.0
H2581 H 0.39659 0.29183 0.22901 0.0
H2582 H 0.36237 0.27002 0.19621 0.0
H2583 H 0.3414 0.27366 0.2158 0.0
H2584 H 0.38839 0.25322 0.19764 0.0
H2585 H 0.37728 0.30776 0.19078 0.0
H2586 H 0.3735 0.33538 0.19935 0.0
H2587 H 0.42148 0.33911 0.21677 0.0
H2588 H 0.42548 0.31143 0.20849 0.0
H2589 H 0.43929 0.25328 0.13039 0.0
H2590 H 0.41732 0.25837 0.14844 0.0
H2591 H 0.45013 0.27996 0.18279 0.0
H2592 H 0.47212 0.27515 0.16473 0.0
H2593 H 0.42424 0.2971 0.17982 0.0
H2594 H 0.43503 0.24236 0.18746 0.0
H2595 H 0.43882 0.21472 0.17898 0.0
H2596 H 0.39137 0.21142 0.16011 0.0
H2597 H 0.38736 0.23913 0.1683 0.0
C2598 C 0.37255 0.29028 0.23711 0.0
C2599 C 0.35681 0.28523 0.23364 0.0
C2600 C 0.38454 0.28801 0.22597 0.0
C2601 C 0.38102 0.28079 0.21108 0.0
C2602 C 0.36534 0.27568 0.2076 0.0
C2603 C 0.35335 0.2779 0.21875 0.0
C2604 C 0.39375 0.27828 0.19927 0.0
C2605 C 0.39607 0.26285 0.19355 0.0
C2606 C 0.40399 0.2908 0.19421 0.0
C2607 C 0.40163 0.30747 0.19914 0.0
C2608 C 0.38699 0.31443 0.19655 0.0
C2609 C 0.38481 0.3301 0.20133 0.0
C2610 C 0.39723 0.33898 0.20864 0.0
C2611 C 0.41187 0.33221 0.21113 0.0
C2612 C 0.4141 0.31654 0.20638 0.0
C2613 C 0.44183 0.25912 0.14178 0.0
C2614 C 0.45747 0.26375 0.14615 0.0
C2615 C 0.42927 0.26198 0.1521 0.0
C2616 C 0.43211 0.26938 0.16704 0.0
C2617 C 0.44767 0.27422 0.17132 0.0
C2618 C 0.46023 0.27142 0.161 0.0
C2619 C 0.41891 0.27204 0.17825 0.0
C2620 C 0.4165 0.28749 0.18387 0.0
C2621 C 0.40859 0.25955 0.18322 0.0
C2622 C 0.41096 0.24287 0.17835 0.0
C2623 C 0.42545 0.23578 0.18139 0.0
C2624 C 0.42763 0.22009 0.17666 0.0
C2625 C 0.41536 0.21133 0.16897 0.0
C2626 C 0.40087 0.21823 0.16604 0.0
C2627 C 0.39863 0.23392 0.17074 0.0
H2628 H 0.41707 0.19918 0.16532 0.0
H2629 H 0.39553 0.35111 0.21233 0.0
H2630 H 0.50094 0.39485 0.99937 0.0
H2631 H 0.49652 0.37221 0.01663 0.0
H2632 H 0.54005 0.38446 0.04197 0.0
H2633 H 0.5445 0.40721 0.02481 0.0
H2634 H 0.53747 0.35317 0.03504 0.0
H2635 H 0.50463 0.39228 0.05845 0.0
H2636 H 0.48408 0.41223 0.05869 0.0
H2637 H 0.44915 0.3769 0.04329 0.0
H2638 H 0.46954 0.35678 0.04273 0.0
H2639 H 0.52388 0.30375 0.10151 0.0
H2640 H 0.52854 0.32654 0.0845 0.0
H2641 H 0.48529 0.31458 0.05857 0.0
H2642 H 0.48044 0.29185 0.07562 0.0
H2643 H 0.48787 0.34585 0.066 0.0
H2644 H 0.52077 0.30679 0.04244 0.0
H2645 H 0.54134 0.28687 0.04216 0.0
H2646 H 0.57618 0.32213 0.05792 0.0
H2647 H 0.55575 0.34224 0.05851 0.0
C2648 C 0.50949 0.39283 0.00872 0.0
C2649 C 0.52304 0.40287 0.01076 0.0
C2650 C 0.50697 0.37987 0.01855 0.0
C2651 C 0.51788 0.37676 0.03069 0.0
C2652 C 0.53149 0.38665 0.03266 0.0
C2653 C 0.53404 0.39961 0.02282 0.0
C2654 C 0.51513 0.3631 0.04124 0.0
C2655 C 0.52673 0.35168 0.04199 0.0
C2656 C 0.50096 0.36099 0.05002 0.0
C2657 C 0.48865 0.37306 0.0504 0.0
C2658 C 0.49259 0.38879 0.05499 0.0
C2659 C 0.48096 0.40012 0.05521 0.0
C2660 C 0.46532 0.39584 0.05097 0.0
C2661 C 0.46127 0.38021 0.04654 0.0
C2662 C 0.47286 0.36883 0.04629 0.0
C2663 C 0.51536 0.30594 0.09218 0.0
C2664 C 0.50181 0.29596 0.0899 0.0
C2665 C 0.51808 0.31894 0.08243 0.0
C2666 C 0.50733 0.32216 0.07018 0.0
C2667 C 0.49373 0.3123 0.06795 0.0
C2668 C 0.49102 0.29928 0.07768 0.0
C2669 C 0.51019 0.33591 0.05978 0.0
C2670 C 0.49862 0.34735 0.05906 0.0
C2671 C 0.52439 0.33804 0.05105 0.0
C2672 C 0.5367 0.32598 0.05067 0.0
C2673 C 0.53279 0.31027 0.04598 0.0
C2674 C 0.54443 0.29895 0.04574 0.0
C2675 C 0.56005 0.30322 0.05006 0.0
C2676 C 0.56407 0.31884 0.0546 0.0
C2677 C 0.55247 0.3302 0.05487 0.0
H2678 H 0.56904 0.29444 0.04987 0.0
H2679 H 0.45634 0.40464 0.05115 0.0
H2680 H 0.65251 0.24077 0.22971 0.0
H2681 H 0.63025 0.24456 0.21157 0.0
H2682 H 0.6001 0.2148 0.2407 0.0
H2683 H 0.62238 0.21086 0.25884 0.0
H2684 H 0.59505 0.20821 0.20975 0.0
H2685 H 0.59847 0.25516 0.24285 0.0
H2686 H 0.61172 0.27868 0.25554 0.0
H2687 H 0.62206 0.29755 0.20943 0.0
H2688 H 0.60905 0.27403 0.19646 0.0
H2689 H 0.52104 0.23145 0.17908 0.0
H2690 H 0.54362 0.22672 0.19648 0.0
H2691 H 0.57395 0.25552 0.16663 0.0
H2692 H 0.55139 0.26049 0.14925 0.0
H2693 H 0.57891 0.26249 0.19782 0.0
H2694 H 0.5751 0.21549 0.16478 0.0
H2695 H 0.56162 0.192 0.15228 0.0
H2696 H 0.55172 0.17326 0.19854 0.0
H2697 H 0.56495 0.19676 0.21133 0.0
C2698 C 0.64112 0.23508 0.23227 0.0
C2699 C 0.63915 0.2256 0.24575 0.0
C2700 C 0.62842 0.23725 0.2219 0.0
C2701 C 0.61345 0.23016 0.22492 0.0
C2702 C 0.61154 0.22039 0.23816 0.0
C2703 C 0.62428 0.21813 0.24849 0.0
C2704 C 0.59974 0.23307 0.21437 0.0
C2705 C 0.59139 0.22007 0.2073 0.0
C2706 C 0.59518 0.24856 0.21092 0.0
C2707 C 0.60292 0.26276 0.21869 0.0
C2708 C 0.60367 0.26427 0.23542 0.0
C2709 C 0.61112 0.27761 0.24266 0.0
C2710 C 0.61776 0.28958 0.23329 0.0
C2711 C 0.61693 0.28826 0.21666 0.0
C2712 C 0.6095 0.27493 0.20936 0.0
C2713 C 0.53251 0.23678 0.17619 0.0
C2714 C 0.53442 0.24632 0.16276 0.0
C2715 C 0.54542 0.234 0.18612 0.0
C2716 C 0.5605 0.24062 0.18274 0.0
C2717 C 0.56242 0.25028 0.16943 0.0
C2718 C 0.54951 0.25308 0.1595 0.0
C2719 C 0.57424 0.23764 0.19319 0.0
C2720 C 0.58259 0.25063 0.20026 0.0
C2721 C 0.57877 0.22215 0.19667 0.0
C2722 C 0.57089 0.20796 0.18901 0.0
C2723 C 0.56994 0.20642 0.17229 0.0
C2724 C 0.56236 0.19309 0.16515 0.0
C2725 C 0.55578 0.18117 0.17461 0.0
C2726 C 0.5568 0.18252 0.19123 0.0
C2727 C 0.56435 0.19584 0.19843 0.0
H2728 H 0.54991 0.17086 0.16907 0.0
H2729 H 0.62353 0.2999 0.23892 0.0
H2730 H 0.49591 0.09857 0.03114 0.0
H2731 H 0.50111 0.12137 0.04903 0.0
H2732 H 0.46647 0.14753 0.02351 0.0
H2733 H 0.46154 0.12485 0.00535 0.0
H2734 H 0.49145 0.16573 0.02938 0.0
H2735 H 0.45874 0.13122 0.06078 0.0
H2736 H 0.45048 0.10622 0.07344 0.0
H2737 H 0.49385 0.10725 0.10055 0.0
H2738 H 0.50247 0.13215 0.08788 0.0
H2739 H 0.48479 0.22661 0.08867 0.0
H2740 H 0.47876 0.20384 0.07095 0.0
H2741 H 0.51776 0.17939 0.09124 0.0
H2742 H 0.52391 0.20209 0.109 0.0
H2743 H 0.48996 0.16061 0.08822 0.0
H2744 H 0.52231 0.19551 0.05603 0.0
H2745 H 0.52959 0.22085 0.04352 0.0
H2746 H 0.48521 0.21941 0.01811 0.0
H2747 H 0.47757 0.19415 0.03065 0.0
C2748 C 0.48935 0.10917 0.02943 0.0
C2749 C 0.47828 0.10995 0.01692 0.0
C2750 C 0.49229 0.12217 0.03967 0.0
C2751 C 0.48399 0.13609 0.03779 0.0
C2752 C 0.47301 0.13692 0.02521 0.0
C2753 C 0.47021 0.12398 0.01484 0.0
C2754 C 0.48695 0.14987 0.04878 0.0
C2755 C 0.49088 0.16463 0.04224 0.0
C2756 C 0.48648 0.14843 0.06558 0.0
C2757 C 0.48131 0.13347 0.07327 0.0
C2758 C 0.46657 0.12605 0.06935 0.0
C2759 C 0.46181 0.11191 0.07654 0.0
C2760 C 0.47165 0.10513 0.08776 0.0
C2761 C 0.48625 0.1125 0.09184 0.0
C2762 C 0.49107 0.12664 0.08467 0.0
C2763 C 0.49208 0.21638 0.08938 0.0
C2764 C 0.50487 0.21617 0.1002 0.0
C2765 C 0.48864 0.20341 0.07922 0.0
C2766 C 0.49789 0.19001 0.07973 0.0
C2767 C 0.5105 0.18965 0.09067 0.0
C2768 C 0.51402 0.20265 0.10076 0.0
C2769 C 0.49447 0.17635 0.06879 0.0
C2770 C 0.49046 0.16165 0.07535 0.0
C2771 C 0.49469 0.17788 0.05202 0.0
C2772 C 0.49931 0.19302 0.0444 0.0
C2773 C 0.51405 0.20066 0.04788 0.0
C2774 C 0.51825 0.215 0.04076 0.0
C2775 C 0.50785 0.22176 0.03007 0.0
C2776 C 0.49324 0.21417 0.02642 0.0
C2777 C 0.48898 0.19984 0.03352 0.0
H2778 H 0.51112 0.23286 0.02457 0.0
H2779 H 0.46795 0.09418 0.09332 0.0
H2780 H 0.27853 0.35715 0.73262 0.0
H2781 H 0.29755 0.37909 0.73786 0.0
H2782 H 0.26521 0.41135 0.71719 0.0
H2783 H 0.24641 0.38934 0.71122 0.0
H2784 H 0.29437 0.41734 0.70693 0.0
H2785 H 0.27037 0.40917 0.75791 0.0
H2786 H 0.26155 0.3939 0.7812 0.0
H2787 H 0.30969 0.38238 0.79114 0.0
H2788 H 0.31878 0.39741 0.76777 0.0
H2789 H 0.3311 0.48863 0.73732 0.0
H2790 H 0.3124 0.46639 0.73204 0.0
H2791 H 0.34688 0.4341 0.74871 0.0
H2792 H 0.36571 0.4563 0.75407 0.0
H2793 H 0.31689 0.42812 0.76104 0.0
H2794 H 0.34066 0.43678 0.70987 0.0
H2795 H 0.34911 0.45255 0.6868 0.0
H2796 H 0.30075 0.46375 0.67754 0.0
H2797 H 0.29203 0.44822 0.7007 0.0
C2798 C 0.2755 0.36888 0.72905 0.0
C2799 C 0.26092 0.37148 0.7215 0.0
C2800 C 0.28633 0.38145 0.73222 0.0
C2801 C 0.28272 0.3969 0.72811 0.0
C2802 C 0.26821 0.39953 0.72053 0.0
C2803 C 0.25741 0.38695 0.71727 0.0
C2804 C 0.29418 0.41028 0.73149 0.0
C2805 C 0.29912 0.41983 0.71881 0.0
C2806 C 0.30066 0.41331 0.74692 0.0
C2807 C 0.29523 0.40429 0.761 0.0
C2808 C 0.27906 0.40328 0.76499 0.0
C2809 C 0.27401 0.39468 0.77822 0.0
C2810 C 0.28504 0.38714 0.78762 0.0
C2811 C 0.30115 0.38821 0.78383 0.0
C2812 C 0.30626 0.39678 0.77061 0.0
C2813 C 0.33473 0.4768 0.73986 0.0
C2814 C 0.34992 0.47422 0.74607 0.0
C2815 C 0.32404 0.46411 0.73678 0.0
C2816 C 0.32832 0.44861 0.73986 0.0
C2817 C 0.34338 0.44599 0.74623 0.0
C2818 C 0.35413 0.45868 0.74923 0.0
C2819 C 0.31701 0.43515 0.73651 0.0
C2820 C 0.31212 0.4256 0.74918 0.0
C2821 C 0.31051 0.43217 0.7211 0.0
C2822 C 0.31571 0.44146 0.70712 0.0
C2823 C 0.33184 0.44271 0.70299 0.0
C2824 C 0.33668 0.45159 0.68988 0.0
C2825 C 0.32548 0.45918 0.68073 0.0
C2826 C 0.30942 0.45788 0.68465 0.0
C2827 C 0.30452 0.44903 0.69776 0.0
H2828 H 0.32925 0.46605 0.67059 0.0
H2829 H 0.28111 0.3805 0.79785 0.0
H2830 H 0.27158 0.66896 0.77348 0.0
H2831 H 0.28931 0.64707 0.76951 0.0
H2832 H 0.25778 0.61679 0.79664 0.0
H2833 H 0.24019 0.63876 0.80103 0.0
H2834 H 0.28859 0.61339 0.805 0.0
H2835 H 0.25804 0.61385 0.75654 0.0
H2836 H 0.24676 0.62568 0.73257 0.0
H2837 H 0.29365 0.63664 0.71534 0.0
H2838 H 0.30522 0.62506 0.73933 0.0
H2839 H 0.31806 0.53925 0.78142 0.0
H2840 H 0.30141 0.56183 0.78605 0.0
H2841 H 0.33348 0.59113 0.75849 0.0
H2842 H 0.35016 0.56853 0.75364 0.0
H2843 H 0.30286 0.59538 0.75043 0.0
H2844 H 0.33343 0.59445 0.79872 0.0
H2845 H 0.34465 0.58253 0.82267 0.0
H2846 H 0.29772 0.57239 0.84023 0.0
H2847 H 0.28621 0.58406 0.81626 0.0
C2848 C 0.2685 0.65768 0.77873 0.0
C2849 C 0.25446 0.65558 0.78754 0.0
C2850 C 0.27857 0.64515 0.77633 0.0
C2851 C 0.27477 0.63026 0.78264 0.0
C2852 C 0.2609 0.62817 0.79163 0.0
C2853 C 0.2508 0.6407 0.79401 0.0
C2854 C 0.28526 0.61685 0.77984 0.0
C2855 C 0.29156 0.60931 0.79307 0.0
C2856 C 0.28941 0.6118 0.76427 0.0
C2857 C 0.28249 0.61873 0.74981 0.0
C2858 C 0.26595 0.6189 0.7477 0.0
C2859 C 0.2595 0.62554 0.7341 0.0
C2860 C 0.26948 0.63194 0.72246 0.0
C2861 C 0.28594 0.63169 0.72438 0.0
C2862 C 0.29244 0.62508 0.73797 0.0
C2863 C 0.32161 0.55049 0.77636 0.0
C2864 C 0.33546 0.5521 0.76719 0.0
C2865 C 0.31211 0.56341 0.77908 0.0
C2866 C 0.3163 0.5782 0.77276 0.0
C2867 C 0.33005 0.57982 0.7635 0.0
C2868 C 0.33958 0.56691 0.76078 0.0
C2869 C 0.30618 0.59189 0.77559 0.0
C2870 C 0.29993 0.59948 0.76236 0.0
C2871 C 0.30207 0.59698 0.79116 0.0
C2872 C 0.30896 0.58999 0.80561 0.0
C2873 C 0.3255 0.58956 0.80762 0.0
C2874 C 0.33191 0.58287 0.82122 0.0
C2875 C 0.3219 0.57667 0.83295 0.0
C2876 C 0.30546 0.57718 0.83113 0.0
C2877 C 0.29898 0.58385 0.81754 0.0
H2878 H 0.32689 0.5715 0.84346 0.0
H2879 H 0.26447 0.63708 0.71193 0.0
H2880 H 0.88559 0.49815 0.46509 0.0
H2881 H 0.86306 0.48024 0.47098 0.0
H2882 H 0.89211 0.45529 0.50383 0.0
H2883 H 0.91482 0.47292 0.4977 0.0
H2884 H 0.87406 0.43511 0.48469 0.0
H2885 H 0.86613 0.48121 0.51774 0.0
H2886 H 0.86339 0.50969 0.52324 0.0
H2887 H 0.82292 0.50985 0.49197 0.0
H2888 H 0.82555 0.4814 0.4861 0.0
H2889 H 0.8122 0.39288 0.52446 0.0
H2890 H 0.83508 0.41007 0.51797 0.0
H2891 H 0.80551 0.43736 0.48766 0.0
H2892 H 0.78252 0.42047 0.49439 0.0
H2893 H 0.82401 0.45632 0.50546 0.0
H2894 H 0.83162 0.41058 0.47218 0.0
H2895 H 0.83426 0.3822 0.46607 0.0
H2896 H 0.87505 0.38137 0.49686 0.0
H2897 H 0.87253 0.40972 0.50333 0.0
C2898 C 0.88722 0.48876 0.47345 0.0
C2899 C 0.90197 0.48698 0.48097 0.0
C2900 C 0.87431 0.47862 0.4769 0.0
C2901 C 0.87588 0.46655 0.48797 0.0
C2902 C 0.89064 0.46457 0.49529 0.0
C2903 C 0.90356 0.47473 0.49188 0.0
C2904 C 0.86209 0.45605 0.49198 0.0
C2905 C 0.86317 0.43971 0.48943 0.0
C2906 C 0.84778 0.46212 0.49779 0.0
C2907 C 0.84613 0.47921 0.50137 0.0
C2908 C 0.85672 0.48734 0.51194 0.0
C2909 C 0.85517 0.50348 0.51514 0.0
C2910 C 0.84301 0.51158 0.50793 0.0
C2911 C 0.83235 0.50356 0.49753 0.0
C2912 C 0.83385 0.48743 0.49428 0.0
C2913 C 0.81057 0.40252 0.51639 0.0
C2914 C 0.79554 0.4053 0.50993 0.0
C2915 C 0.82368 0.4123 0.51263 0.0
C2916 C 0.82206 0.42489 0.50217 0.0
C2917 C 0.80705 0.42771 0.49576 0.0
C2918 C 0.79392 0.41802 0.49959 0.0
C2919 C 0.83592 0.43533 0.49814 0.0
C2920 C 0.83487 0.45169 0.50071 0.0
C2921 C 0.85022 0.42927 0.49225 0.0
C2922 C 0.85179 0.41224 0.48836 0.0
C2923 C 0.84108 0.40432 0.47774 0.0
C2924 C 0.84257 0.38824 0.4742 0.0
C2925 C 0.85479 0.37998 0.4811 0.0
C2926 C 0.86558 0.38778 0.49154 0.0
C2927 C 0.86413 0.40386 0.49514 0.0
H2928 H 0.85593 0.36753 0.47834 0.0
H2929 H 0.84184 0.52407 0.51042 0.0
H2930 H 0.75929 0.87923 0.79808 0.0
H2931 H 0.74192 0.90141 0.79466 0.0
H2932 H 0.70963 0.87152 0.76639 0.0
H2933 H 0.72717 0.84941 0.76935 0.0
H2934 H 0.71467 0.90001 0.75301 0.0
H2935 H 0.70132 0.88059 0.80491 0.0
H2936 H 0.70677 0.87252 0.83244 0.0
H2937 H 0.72554 0.91919 0.84408 0.0
H2938 H 0.7204 0.92749 0.81654 0.0
H2939 H 0.64827 0.94868 0.75428 0.0
H2940 H 0.66595 0.92682 0.75782 0.0
H2941 H 0.69731 0.95701 0.7868 0.0
H2942 H 0.67956 0.97888 0.78356 0.0
H2943 H 0.69303 0.92856 0.79985 0.0
H2944 H 0.70633 0.9481 0.74813 0.0
H2945 H 0.70105 0.95628 0.7206 0.0
H2946 H 0.68265 0.90956 0.7086 0.0
H2947 H 0.68761 0.90116 0.73613 0.0
C2948 C 0.74856 0.87742 0.79101 0.0
C2949 C 0.74457 0.86255 0.78403 0.0
C2950 C 0.73858 0.89006 0.7892 0.0
C2951 C 0.7244 0.88806 0.78043 0.0
C2952 C 0.72049 0.8733 0.77326 0.0
C2953 C 0.73046 0.86065 0.77508 0.0
C2954 C 0.71364 0.90135 0.77867 0.0
C2955 C 0.70976 0.90613 0.76325 0.0
C2956 C 0.70757 0.90957 0.79204 0.0
C2957 C 0.71062 0.90462 0.80862 0.0
C2958 C 0.70672 0.8891 0.8133 0.0
C2959 C 0.70974 0.88449 0.82891 0.0
C2960 C 0.71653 0.89532 0.83999 0.0
C2961 C 0.72029 0.91081 0.83548 0.0
C2962 C 0.71732 0.91548 0.81988 0.0
C2963 C 0.65892 0.95068 0.76142 0.0
C2964 C 0.66254 0.96555 0.76858 0.0
C2965 C 0.66904 0.93818 0.76338 0.0
C2966 C 0.68306 0.94035 0.7724 0.0
C2967 C 0.68658 0.9551 0.77977 0.0
C2968 C 0.67643 0.96759 0.77786 0.0
C2969 C 0.69402 0.92721 0.77419 0.0
C2970 C 0.69794 0.92246 0.78961 0.0
C2971 C 0.70016 0.91904 0.76082 0.0
C2972 C 0.6972 0.92405 0.74424 0.0
C2973 C 0.70104 0.93961 0.73965 0.0
C2974 C 0.69813 0.94428 0.72404 0.0
C2975 C 0.69148 0.93346 0.71287 0.0
C2976 C 0.68777 0.91793 0.71727 0.0
C2977 C 0.69065 0.9132 0.73287 0.0
H2978 H 0.68923 0.93709 0.70078 0.0
H2979 H 0.71886 0.89173 0.85207 0.0
H2980 H 0.61928 0.50981 0.955 0.0
H2981 H 0.64223 0.52792 0.95953 0.0
H2982 H 0.6149 0.55569 0.99229 0.0
H2983 H 0.59181 0.53781 0.98757 0.0
H2984 H 0.63225 0.57414 0.97174 0.0
H2985 H 0.641 0.53064 0.00639 0.0
H2986 H 0.64374 0.50262 0.01295 0.0
H2987 H 0.6831 0.49967 0.98091 0.0
H2988 H 0.68044 0.52763 0.97399 0.0
H2989 H 0.69451 0.61865 0.01038 0.0
H2990 H 0.6717 0.60093 0.00422 0.0
H2991 H 0.70097 0.57235 0.97408 0.0
H2992 H 0.72394 0.58984 0.98043 0.0
H2993 H 0.68276 0.55422 0.99253 0.0
H2994 H 0.6746 0.59767 0.95815 0.0
H2995 H 0.67194 0.62562 0.95127 0.0
H2996 H 0.63167 0.62865 0.98214 0.0
H2997 H 0.63423 0.60076 0.98938 0.0
C2998 C 0.61813 0.51985 0.96306 0.0
C2999 C 0.60377 0.52236 0.97099 0.0
C3000 C 0.63127 0.53012 0.96572 0.0
C3001 C 0.63029 0.54304 0.97636 0.0
C3002 C 0.6159 0.54574 0.98407 0.0
C3003 C 0.60277 0.53546 0.98146 0.0
C3004 C 0.64432 0.5537 0.97959 0.0
C3005 C 0.64324 0.56984 0.97646 0.0
C3006 C 0.65876 0.54798 0.98536 0.0
C3007 C 0.66041 0.53118 0.98955 0.0
C3008 C 0.65015 0.52398 0.00064 0.0
C3009 C 0.65171 0.50812 0.00444 0.0
C3010 C 0.66356 0.49936 0.99732 0.0
C3011 C 0.67391 0.50646 0.9864 0.0
C3012 C 0.67239 0.52232 0.98255 0.0
C3013 C 0.69611 0.60861 0.00241 0.0
C3014 C 0.71104 0.60567 0.99587 0.0
C3015 C 0.68303 0.59853 0.99885 0.0
C3016 C 0.68458 0.58543 0.98852 0.0
C3017 C 0.6995 0.58241 0.98205 0.0
C3018 C 0.7126 0.59244 0.98567 0.0
C3019 C 0.67071 0.57471 0.98472 0.0
C3020 C 0.6718 0.55855 0.98775 0.0
C3021 C 0.6563 0.5804 0.97879 0.0
C3022 C 0.6547 0.59717 0.97442 0.0
C3023 C 0.66525 0.60433 0.96357 0.0
C3024 C 0.66375 0.62016 0.95959 0.0
C3025 C 0.65167 0.62892 0.96629 0.0
C3026 C 0.64103 0.62186 0.97697 0.0
C3027 C 0.6425 0.60603 0.981 0.0
H3028 H 0.65052 0.64117 0.9632 0.0
H3029 H 0.66475 0.48707 0.00028 0.0
H3030 H 0.25227 0.63021 0.21443 0.0
H3031 H 0.23362 0.60826 0.21995 0.0
H3032 H 0.20213 0.6406 0.24277 0.0
H3033 H 0.22102 0.66254 0.23785 0.0
H3034 H 0.20487 0.61461 0.25997 0.0
H3035 H 0.19441 0.6258 0.20518 0.0
H3036 H 0.20107 0.63022 0.17698 0.0
H3037 H 0.21849 0.58334 0.17283 0.0
H3038 H 0.21214 0.57871 0.20109 0.0
H3039 H 0.1372 0.56194 0.2614 0.0
H3040 H 0.15551 0.58426 0.25617 0.0
H3041 H 0.18826 0.55257 0.23432 0.0
H3042 H 0.16995 0.53019 0.23933 0.0
H3043 H 0.18448 0.5785 0.2166 0.0
H3044 H 0.19511 0.56752 0.27159 0.0
H3045 H 0.18825 0.56318 0.29976 0.0
H3046 H 0.1702 0.60984 0.30343 0.0
H3047 H 0.17675 0.61438 0.2752 0.0
C3048 C 0.24145 0.63264 0.22075 0.0
C3049 C 0.23812 0.64814 0.22568 0.0
C3050 C 0.23072 0.62011 0.22375 0.0
C3051 C 0.21639 0.62283 0.23159 0.0
C3052 C 0.21309 0.63825 0.23664 0.0
C3053 C 0.22383 0.65079 0.23369 0.0
C3054 C 0.20493 0.60955 0.23468 0.0
C3055 C 0.20023 0.60685 0.25046 0.0
C3056 C 0.19915 0.59923 0.22231 0.0
C3057 C 0.20294 0.60196 0.2053 0.0
C3058 C 0.19978 0.61648 0.19829 0.0
C3059 C 0.20347 0.61901 0.18229 0.0
C3060 C 0.21024 0.60709 0.17313 0.0
C3061 C 0.21328 0.59258 0.17995 0.0
C3062 C 0.20961 0.58998 0.19595 0.0
C3063 C 0.1483 0.5597 0.2555 0.0
C3064 C 0.15213 0.54428 0.25081 0.0
C3065 C 0.15878 0.57247 0.25258 0.0
C3066 C 0.1733 0.57005 0.24499 0.0
C3067 C 0.17711 0.55469 0.2402 0.0
C3068 C 0.16665 0.54191 0.24312 0.0
C3069 C 0.18447 0.58354 0.24188 0.0
C3070 C 0.18911 0.58628 0.2261 0.0
C3071 C 0.19017 0.59392 0.25424 0.0
C3072 C 0.18628 0.59123 0.27124 0.0
C3073 C 0.18956 0.57681 0.27837 0.0
C3074 C 0.18575 0.57432 0.29435 0.0
C3075 C 0.17876 0.58621 0.30337 0.0
C3076 C 0.1756 0.60063 0.29643 0.0
C3077 C 0.17937 0.60318 0.28044 0.0
H3078 H 0.17581 0.58426 0.31574 0.0
H3079 H 0.21309 0.60907 0.16074 0.0
H3080 H 0.91841 0.53995 0.01172 0.0
H3081 H 0.89722 0.5583 0.00706 0.0
H3082 H 0.86472 0.52837 0.03345 0.0
H3083 H 0.88577 0.50981 0.03789 0.0
H3084 H 0.85184 0.53788 0.00542 0.0
H3085 H 0.87993 0.56191 0.05028 0.0
H3086 H 0.90344 0.57278 0.06493 0.0
H3087 H 0.9109 0.60778 0.02912 0.0
H3088 H 0.88756 0.59698 0.01412 0.0
H3089 H 0.78941 0.59021 0.01558 0.0
H3090 H 0.81119 0.5727 0.02031 0.0
H3091 H 0.84324 0.60472 0.99582 0.0
H3092 H 0.82155 0.6225 0.99129 0.0
H3093 H 0.8567 0.59434 0.0224 0.0
H3094 H 0.82884 0.5707 0.97754 0.0
H3095 H 0.80556 0.55991 0.96246 0.0
H3096 H 0.79799 0.52422 0.99757 0.0
H3097 H 0.82111 0.53494 0.01298 0.0
C3098 C 0.90672 0.53724 0.01645 0.0
C3099 C 0.90375 0.52345 0.02519 0.0
C3100 C 0.89467 0.54779 0.01389 0.0
C3101 C 0.87944 0.54475 0.02003 0.0
C3102 C 0.87641 0.53095 0.02866 0.0
C3103 C 0.88847 0.52043 0.03128 0.0
C3104 C 0.86659 0.55585 0.01728 0.0
C3105 C 0.8528 0.55018 0.00932 0.0
C3106 C 0.86807 0.57199 0.02197 0.0
C3107 C 0.88209 0.57853 0.03099 0.0
C3108 C 0.88666 0.57184 0.04546 0.0
C3109 C 0.89994 0.57801 0.05384 0.0
C3110 C 0.90868 0.59094 0.04794 0.0
C3111 C 0.90414 0.59775 0.03366 0.0
C3112 C 0.89087 0.59162 0.02522 0.0
C3113 C 0.80109 0.59356 0.0112 0.0
C3114 C 0.80372 0.60772 0.00298 0.0
C3115 C 0.81352 0.58349 0.01387 0.0
C3116 C 0.82879 0.58729 0.00821 0.0
C3117 C 0.83153 0.60154 0.00025 0.0
C3118 C 0.81911 0.61167 0.99764 0.0
C3119 C 0.84188 0.57635 0.01061 0.0
C3120 C 0.85573 0.58205 0.01848 0.0
C3121 C 0.84049 0.56024 0.00576 0.0
C3122 C 0.82662 0.55372 0.99649 0.0
C3123 C 0.82214 0.56063 0.98211 0.0
C3124 C 0.80899 0.55451 0.97349 0.0
C3125 C 0.80028 0.54141 0.97908 0.0
C3126 C 0.80474 0.53438 0.99327 0.0
C3127 C 0.81787 0.54046 0.00195 0.0
H3128 H 0.7901 0.53669 0.97239 0.0
H3129 H 0.91896 0.59569 0.05445 0.0
H3130 H 0.09737 0.98109 0.04925 0.0
H3131 H 0.1204 0.96477 0.04546 0.0
H3132 H 0.13444 0.99226 0.00476 0.0
H3133 H 0.11135 0.00855 0.00842 0.0
H3134 H 0.13714 0.9616 0.99847 0.0
H3135 H 0.15319 0.99744 0.04119 0.0
H3136 H 0.15075 0.01102 0.06732 0.0
H3137 H 0.15088 0.96642 0.09078 0.0
H3138 H 0.1531 0.95255 0.06477 0.0
H3139 H 0.21576 0.93591 0.99155 0.0
H3140 H 0.19271 0.95206 0.99573 0.0
H3141 H 0.17843 0.9233 0.03543 0.0
H3142 H 0.2016 0.9072 0.03148 0.0
H3143 H 0.17577 0.95437 0.04233 0.0
H3144 H 0.15992 0.91859 -0.00049 0.0
H3145 H 0.16252 0.90511 0.97336 0.0
H3146 H 0.16219 0.94978 0.95003 0.0
H3147 H 0.15981 0.96355 0.97608 0.0
C3148 C 0.10543 0.98372 0.03956 0.0
C3149 C 0.10259 0.99614 0.02917 0.0
C3150 C 0.11858 0.97439 0.03741 0.0
C3151 C 0.12926 0.97743 0.02495 0.0
C3152 C 0.12635 0.9897 0.01445 0.0
C3153 C 0.11314 0.99898 0.01653 0.0
C3154 C 0.14343 0.96776 0.02281 0.0
C3155 C 0.1457 0.96019 0.008 0.0
C3156 C 0.15441 0.96563 0.03536 0.0
C3157 C 0.15316 0.97395 0.05102 0.0
C3158 C 0.15258 0.99052 0.05192 0.0
C3159 C 0.15126 0.99827 0.0667 0.0
C3160 C 0.15062 0.98959 0.0807 0.0
C3161 C 0.15135 0.97313 0.07993 0.0
C3162 C 0.15266 0.96532 0.06517 0.0
C3163 C 0.20774 0.93302 0.00119 0.0
C3164 C 0.21048 0.92022 0.01114 0.0
C3165 C 0.19453 0.94223 0.00352 0.0
C3166 C 0.18374 0.93875 0.01576 0.0
C3167 C 0.18659 0.92616 0.02589 0.0
C3168 C 0.19981 0.91695 0.02359 0.0
C3169 C 0.16949 0.94826 0.01799 0.0
C3170 C 0.1672 0.95578 0.03282 0.0
C3171 C 0.15851 0.95038 0.00545 0.0
C3172 C 0.15984 0.94211 0.98976 0.0
C3173 C 0.16052 0.92555 0.98882 0.0
C3174 C 0.16193 0.91785 0.97401 0.0
C3175 C 0.16256 0.92659 0.96005 0.0
C3176 C 0.16172 0.94303 0.96086 0.0
C3177 C 0.16033 0.95079 0.97564 0.0
H3178 H 0.16366 0.92061 0.94859 0.0
H3179 H 0.1496 0.99561 0.09213 0.0
loop_
_geom_bond_atom_site_label_1
_geom_bond_atom_site_label_2
_geom_bond_distance
_geom_bond_site_symmetry_2
_ccdc_geom_bond_type
C0 C1 1.385 . S
C0 C2 1.397 1_556 S
C0 H24 0.931 . S
C1 C0 1.385 . S
C1 C5 1.400 1_556 S
C2 C0 1.397 1_554 S
C2 C3 1.384 . S
C2 H25 0.929 . S
C3 C2 1.384 . S
C3 C4 1.377 . S
C3 C6 1.481 . S
C4 C3 1.377 . S
C4 C5 1.389 . S
C4 H26 0.929 . S
C5 C1 1.400 1_554 S
C5 C4 1.389 . S
C5 H27 0.931 . S
C6 C3 1.481 . S
C6 C7 1.387 . S
C6 C11 1.390 . S
C7 C6 1.387 . S
C7 C8 1.401 . S
C7 H28 0.930 . S
C8 C7 1.401 . S
C8 C9 1.376 . S
C8 C17 1.511 . S
C9 C8 1.376 . S
C9 C10 1.392 . S
C9 H30 0.931 . S
C10 C9 1.392 . S
C10 C11 1.361 . S
C10 C12 1.500 . S
C11 C6 1.390 . S
C11 C10 1.361 . S
C11 H29 0.931 . S
C12 C10 1.500 . S
C12 C13 1.371 . S
C12 C14 1.365 . S
C13 C12 1.371 . S
C13 C23 1.386 . S
C13 H31 0.931 . S
C14 C12 1.365 . S
C14 C15 1.409 1_455 S
C14 H32 0.929 . S
C15 C14 1.409 1_655 S
C15 C16 1.380 . S
C15 H33 0.930 . S
C16 C15 1.380 . S
C16 C23 1.357 1_655 S
C17 C8 1.511 . S
C17 C18 1.341 . S
C17 C19 1.371 . S
C18 C17 1.341 . S
C18 C22 1.394 . S
C18 H34 0.930 . S
C19 C17 1.371 . S
C19 C20 1.392 . S
C19 H35 0.931 . S
C20 C19 1.392 . S
C20 C21 1.331 . S
C20 H38 0.928 . S
C21 C20 1.331 . S
C21 C22 1.336 . S
C22 C18 1.394 . S
C22 C21 1.336 . S
C22 H37 0.929 . S
C23 C13 1.386 . S
C23 C16 1.357 1_455 S
C23 H36 0.927 1_455 S
H24 C0 0.931 . S
H25 C2 0.929 . S
H26 C4 0.929 . S
H27 C5 0.931 . S
H28 C7 0.930 . S
H29 C11 0.931 . S
H30 C9 0.931 . S
H31 C13 0.931 . S
H32 C14 0.929 . S
H33 C15 0.930 . S
H34 C18 0.930 . S
H35 C19 0.931 . S
H36 C23 0.927 1_655 S
H37 C22 0.929 . S
H38 C20 0.928 . S
C39 C40 1.386 . S
C39 C41 1.397 . S
C39 H63 0.931 . S
C40 C39 1.386 . S
C40 C44 1.397 . S
C41 C39 1.397 . S
C41 C42 1.384 . S
C41 H64 0.930 . S
C42 C41 1.384 . S
C42 C43 1.377 . S
C42 C45 1.481 . S
C43 C42 1.377 . S
C43 C44 1.389 . S
C43 H65 0.929 . S
C44 C40 1.397 . S
C44 C43 1.389 . S
C44 H66 0.931 . S
C45 C42 1.481 . S
C45 C46 1.387 . S
C45 C50 1.390 . S
C46 C45 1.387 . S
C46 C47 1.401 . S
C46 H67 0.930 . S
C47 C46 1.401 . S
C47 C48 1.376 . S
C47 C56 1.511 . S
C48 C47 1.376 . S
C48 C49 1.392 . S
C48 H69 0.931 . S
C49 C48 1.392 . S
C49 C50 1.361 . S
C49 C51 1.500 . S
C50 C45 1.390 . S
C50 C49 1.361 . S
C50 H68 0.931 . S
C51 C49 1.500 . S
C51 C52 1.371 . S
C51 C53 1.365 . S
C52 C51 1.371 . S
C52 C62 1.386 . S
C52 H70 0.931 . S
C53 C51 1.365 . S
C53 C54 1.409 . S
C53 H71 0.929 . S
C54 C53 1.409 . S
C54 C55 1.380 . S
C54 H72 0.930 . S
C55 C54 1.380 . S
C55 C62 1.357 . S
C56 C47 1.511 . S
C56 C57 1.341 . S
C56 C58 1.371 . S
C57 C56 1.341 . S
C57 C61 1.394 . S
C57 H73 0.930 . S
C58 C56 1.371 . S
C58 C59 1.392 . S
C58 H74 0.931 . S
C59 C58 1.392 . S
C59 C60 1.331 . S
C59 H77 0.932 . S
C60 C59 1.331 . S
C60 C61 1.336 . S
C61 C57 1.394 . S
C61 C60 1.336 . S
C61 H76 0.929 . S
C62 C52 1.386 . S
C62 C55 1.357 . S
C62 H75 0.928 . S
H63 C39 0.931 . S
H64 C41 0.930 . S
H65 C43 0.929 . S
H66 C44 0.931 . S
H67 C46 0.930 . S
H68 C50 0.931 . S
H69 C48 0.931 . S
H70 C52 0.931 . S
H71 C53 0.929 . S
H72 C54 0.930 . S
H73 C57 0.930 . S
H74 C58 0.931 . S
H75 C62 0.928 . S
H76 C61 0.929 . S
H77 C59 0.932 . S
C78 C79 1.386 1_655 S
C78 C80 1.397 . S
C78 H102 0.931 . S
C79 C78 1.386 1_455 S
C79 C83 1.397 . S
C80 C78 1.397 . S
C80 C81 1.384 . S
C80 H103 0.930 . S
C81 C80 1.384 . S
C81 C82 1.377 1_655 S
C81 C84 1.481 . S
C82 C81 1.377 1_455 S
C82 C83 1.389 . S
C82 H104 0.929 . S
C83 C79 1.397 . S
C83 C82 1.389 . S
C83 H105 0.931 . S
C84 C81 1.481 . S
C84 C85 1.387 . S
C84 C89 1.390 . S
C85 C84 1.387 . S
C85 C86 1.401 . S
C85 H106 0.930 . S
C86 C85 1.401 . S
C86 C87 1.376 . S
C86 C95 1.511 . S
C87 C86 1.376 . S
C87 C88 1.392 . S
C87 H108 0.931 . S
C88 C87 1.392 . S
C88 C89 1.361 . S
C88 C90 1.500 . S
C89 C84 1.390 . S
C89 C88 1.361 . S
C89 H107 0.931 . S
C90 C88 1.500 . S
C90 C91 1.371 . S
C90 C92 1.365 . S
C91 C90 1.371 . S
C91 C101 1.386 1_554 S
C91 H109 0.931 . S
C92 C90 1.365 . S
C92 C93 1.409 . S
C92 H110 0.929 . S
C93 C92 1.409 . S
C93 C94 1.380 1_554 S
C93 H111 0.933 . S
C94 C93 1.380 1_556 S
C94 C101 1.357 . S
C95 C86 1.511 . S
C95 C96 1.341 . S
C95 C97 1.371 . S
C96 C95 1.341 . S
C96 C100 1.394 . S
C96 H112 0.930 . S
C97 C95 1.371 . S
C97 C98 1.392 . S
C97 H113 0.931 . S
C98 C97 1.392 . S
C98 C99 1.331 . S
C98 H116 0.932 . S
C99 C98 1.331 . S
C99 C100 1.336 . S
C100 C96 1.394 . S
C100 C99 1.336 . S
C100 H115 0.929 . S
C101 C91 1.386 1_556 S
C101 C94 1.357 . S
C101 H114 0.928 . S
H102 C78 0.931 . S
H103 C80 0.930 . S
H104 C82 0.929 . S
H105 C83 0.931 . S
H106 C85 0.930 . S
H107 C89 0.931 . S
H108 C87 0.931 . S
H109 C91 0.931 . S
H110 C92 0.929 . S
H111 C93 0.933 . S
H112 C96 0.930 . S
H113 C97 0.931 . S
H114 C101 0.928 . S
H115 C100 0.929 . S
H116 C98 0.932 . S
C117 C118 1.386 . S
C117 C119 1.397 . S
C117 H141 0.931 . S
C118 C117 1.386 . S
C118 C122 1.397 . S
C119 C117 1.397 . S
C119 C120 1.384 . S
C119 H142 0.930 . S
C120 C119 1.384 . S
C120 C121 1.377 . S
C120 C123 1.481 . S
C121 C120 1.377 . S
C121 C122 1.389 . S
C121 H143 0.929 . S
C122 C118 1.397 . S
C122 C121 1.389 . S
C122 H144 0.931 . S
C123 C120 1.481 . S
C123 C124 1.387 . S
C123 C128 1.390 . S
C124 C123 1.387 . S
C124 C125 1.401 . S
C124 H145 0.930 . S
C125 C124 1.401 . S
C125 C126 1.376 . S
C125 C134 1.511 . S
C126 C125 1.376 . S
C126 C127 1.392 . S
C126 H147 0.931 . S
C127 C126 1.392 . S
C127 C128 1.361 . S
C127 C129 1.500 . S
C128 C123 1.390 . S
C128 C127 1.361 . S
C128 H146 0.931 . S
C129 C127 1.500 . S
C129 C130 1.371 . S
C129 C131 1.365 . S
C130 C129 1.371 . S
C130 C140 1.386 . S
C130 H148 0.931 . S
C131 C129 1.365 . S
C131 C132 1.409 . S
C131 H149 0.929 . S
C132 C131 1.409 . S
C132 C133 1.380 . S
C132 H150 0.930 . S
C133 C132 1.380 . S
C133 C140 1.357 . S
C134 C125 1.511 . S
C134 C135 1.341 . S
C134 C136 1.371 . S
C135 C134 1.341 . S
C135 C139 1.394 . S
C135 H151 0.930 . S
C136 C134 1.371 . S
C136 C137 1.392 . S
C136 H152 0.931 . S
C137 C136 1.392 . S
C137 C138 1.331 . S
C137 H155 0.932 . S
C138 C137 1.331 . S
C138 C139 1.336 . S
C139 C135 1.394 . S
C139 C138 1.336 . S
C139 H154 0.929 . S
C140 C130 1.386 . S
C140 C133 1.357 . S
C140 H153 0.928 . S
H141 C117 0.931 . S
H142 C119 0.930 . S
H143 C121 0.929 . S
H144 C122 0.931 . S
H145 C124 0.930 . S
H146 C128 0.931 . S
H147 C126 0.931 . S
H148 C130 0.931 . S
H149 C131 0.929 . S
H150 C132 0.930 . S
H151 C135 0.930 . S
H152 C136 0.931 . S
H153 C140 0.928 . S
H154 C139 0.929 . S
H155 C137 0.932 . S
C156 C157 1.386 . S
C156 C158 1.397 1_655 S
C156 H180 0.931 . S
C157 C156 1.386 . S
C157 C161 1.397 1_655 S
C158 C156 1.397 1_455 S
C158 C159 1.384 . S
C158 H181 0.930 1_455 S
C159 C158 1.384 . S
C159 C160 1.377 . S
C159 C162 1.481 . S
C160 C159 1.377 . S
C160 C161 1.389 . S
C160 H182 0.929 . S
C161 C157 1.397 1_455 S
C161 C160 1.389 . S
C161 H183 0.931 . S
C162 C159 1.481 . S
C162 C163 1.387 . S
C162 C167 1.390 . S
C163 C162 1.387 . S
C163 C164 1.401 . S
C163 H184 0.930 . S
C164 C163 1.401 . S
C164 C165 1.376 . S
C164 C173 1.511 . S
C165 C164 1.376 . S
C165 C166 1.392 . S
C165 H186 0.931 . S
C166 C165 1.392 . S
C166 C167 1.361 . S
C166 C168 1.500 . S
C167 C162 1.390 . S
C167 C166 1.361 . S
C167 H185 0.931 . S
C168 C166 1.500 . S
C168 C169 1.371 . S
C168 C170 1.337 1_565 S
C169 C168 1.371 . S
C169 C179 1.386 1_565 S
C169 H187 0.931 . S
C170 C168 1.337 1_545 S
C170 C171 1.452 . S
C170 H188 0.918 1_545 S
C171 C170 1.452 . S
C171 C172 1.380 . S
C171 H189 0.930 . S
C172 C171 1.380 . S
C172 C179 1.357 . S
C173 C164 1.511 . S
C173 C174 1.341 . S
C173 C175 1.371 . S
C174 C173 1.341 . S
C174 C178 1.394 . S
C174 H190 0.930 . S
C175 C173 1.371 . S
C175 C176 1.392 . S
C175 H191 0.931 . S
C176 C175 1.392 . S
C176 C177 1.331 . S
C176 H194 0.932 . S
C177 C176 1.331 . S
C177 C178 1.336 . S
C178 C174 1.394 . S
C178 C177 1.336 . S
C178 H193 0.929 . S
C179 C169 1.386 1_545 S
C179 C172 1.357 . S
C179 H192 0.928 . S
H180 C156 0.931 . S
H181 C158 0.930 1_655 S
H182 C160 0.929 . S
H183 C161 0.931 . S
H184 C163 0.930 . S
H185 C167 0.931 . S
H186 C165 0.931 . S
H187 C169 0.931 . S
H188 C170 0.918 1_565 S
H189 C171 0.930 . S
H190 C174 0.930 . S
H191 C175 0.931 . S
H192 C179 0.928 . S
H193 C178 0.929 . S
H194 C176 0.932 . S
C195 C196 1.386 . S
C195 C197 1.397 . S
C195 H219 0.931 . S
C196 C195 1.386 . S
C196 C200 1.397 . S
C197 C195 1.397 . S
C197 C198 1.384 . S
C197 H220 0.930 . S
C198 C197 1.384 . S
C198 C199 1.377 . S
C198 C201 1.481 . S
C199 C198 1.377 . S
C199 C200 1.389 . S
C199 H221 0.929 . S
C200 C196 1.397 . S
C200 C199 1.389 . S
C200 H222 0.931 . S
C201 C198 1.481 . S
C201 C202 1.387 . S
C201 C206 1.390 . S
C202 C201 1.387 . S
C202 C203 1.401 . S
C202 H223 0.930 . S
C203 C202 1.401 . S
C203 C204 1.376 . S
C203 C212 1.511 . S
C204 C203 1.376 . S
C204 C205 1.392 . S
C204 H225 0.931 . S
C205 C204 1.392 . S
C205 C206 1.361 . S
C205 C207 1.500 . S
C206 C201 1.390 . S
C206 C205 1.361 . S
C206 H224 0.931 . S
C207 C205 1.500 . S
C207 C208 1.371 . S
C207 C209 1.365 . S
C208 C207 1.371 . S
C208 C218 1.386 . S
C208 H226 0.931 . S
C209 C207 1.365 . S
C209 C210 1.409 . S
C209 H227 0.929 . S
C210 C209 1.409 . S
C210 C211 1.380 . S
C210 H228 0.930 . S
C211 C210 1.380 . S
C211 C218 1.357 . S
C212 C203 1.511 . S
C212 C213 1.341 . S
C212 C214 1.371 . S
C213 C212 1.341 . S
C213 C217 1.394 . S
C213 H229 0.930 . S
C214 C212 1.371 . S
C214 C215 1.392 . S
C214 H230 0.931 . S
C215 C214 1.392 . S
C215 C216 1.331 . S
C215 H233 0.932 . S
C216 C215 1.331 . S
C216 C217 1.336 . S
C217 C213 1.394 . S
C217 C216 1.336 . S
C217 H232 0.929 . S
C218 C208 1.386 . S
C218 C211 1.357 . S
C218 H231 0.928 . S
H219 C195 0.931 . S
H220 C197 0.930 . S
H221 C199 0.929 . S
H222 C200 0.931 . S
H223 C202 0.930 . S
H224 C206 0.931 . S
H225 C204 0.931 . S
H226 C208 0.931 . S
H227 C209 0.929 . S
H228 C210 0.930 . S
H229 C213 0.930 . S
H230 C214 0.931 . S
H231 C218 0.928 . S
H232 C217 0.929 . S
H233 C215 0.932 . S
C234 C235 1.386 . S
C234 C236 1.397 . S
C234 H258 0.931 . S
C235 C234 1.386 . S
C235 C239 1.397 . S
C236 C234 1.397 . S
C236 C237 1.384 . S
C236 H259 0.930 . S
C237 C236 1.384 . S
C237 C238 1.377 . S
C237 C240 1.481 . S
C238 C237 1.377 . S
C238 C239 1.389 . S
C238 H260 0.929 . S
C239 C235 1.397 . S
C239 C238 1.389 . S
C239 H261 0.931 . S
C240 C237 1.481 . S
C240 C241 1.387 . S
C240 C245 1.390 . S
C241 C240 1.387 . S
C241 C242 1.401 . S
C241 H262 0.930 . S
C242 C241 1.401 . S
C242 C243 1.376 . S
C242 C251 1.511 . S
C243 C242 1.376 . S
C243 C244 1.392 . S
C243 H264 0.931 . S
C244 C243 1.392 . S
C244 C245 1.361 . S
C244 C246 1.500 . S
C245 C240 1.390 . S
C245 C244 1.361 . S
C245 H263 0.931 . S
C246 C244 1.500 . S
C246 C247 1.371 . S
C246 C248 1.365 . S
C247 C246 1.371 . S
C247 C257 1.386 . S
C247 H265 0.931 . S
C248 C246 1.365 . S
C248 C249 1.409 . S
C248 H266 0.929 . S
C249 C248 1.409 . S
C249 C250 1.380 . S
C249 H267 0.930 . S
C250 C249 1.380 . S
C250 C257 1.357 . S
C251 C242 1.511 . S
C251 C252 1.341 . S
C251 C253 1.371 . S
C252 C251 1.341 . S
C252 C256 1.394 1_655 S
C252 H268 0.930 . S
C253 C251 1.371 . S
C253 C254 1.392 . S
C253 H269 0.931 . S
C254 C253 1.392 . S
C254 C255 1.331 1_655 S
C254 H272 0.932 . S
C255 C254 1.331 1_455 S
C255 C256 1.336 . S
C256 C252 1.394 1_455 S
C256 C255 1.336 . S
C256 H271 0.929 . S
C257 C247 1.386 . S
C257 C250 1.357 . S
C257 H270 0.928 . S
H258 C234 0.931 . S
H259 C236 0.930 . S
H260 C238 0.929 . S
H261 C239 0.931 . S
H262 C241 0.930 . S
H263 C245 0.931 . S
H264 C243 0.931 . S
H265 C247 0.931 . S
H266 C248 0.929 . S
H267 C249 0.930 . S
H268 C252 0.930 . S
H269 C253 0.931 . S
H270 C257 0.928 . S
H271 C256 0.929 . S
H272 C254 0.932 . S
C273 C274 1.386 . S
C273 C275 1.397 . S
C273 H297 0.931 . S
C274 C273 1.386 . S
C274 C278 1.397 . S
C275 C273 1.397 . S
C275 C276 1.384 . S
C275 H298 0.930 . S
C276 C275 1.384 . S
C276 C277 1.377 . S
C276 C279 1.481 . S
C277 C276 1.377 . S
C277 C278 1.389 . S
C277 H299 0.929 . S
C278 C274 1.397 . S
C278 C277 1.389 . S
C278 H300 0.931 . S
C279 C276 1.481 . S
C279 C280 1.387 . S
C279 C284 1.390 . S
C280 C279 1.387 . S
C280 C281 1.401 . S
C280 H301 0.930 . S
C281 C280 1.401 . S
C281 C282 1.376 . S
C281 C290 1.511 . S
C282 C281 1.376 . S
C282 C283 1.392 . S
C282 H303 0.931 . S
C283 C282 1.392 . S
C283 C284 1.361 . S
C283 C285 1.500 . S
C284 C279 1.390 . S
C284 C283 1.361 . S
C284 H302 0.931 . S
C285 C283 1.500 . S
C285 C286 1.371 . S
C285 C287 1.365 . S
C286 C285 1.371 . S
C286 C296 1.386 . S
C286 H304 0.931 . S
C287 C285 1.365 . S
C287 C288 1.409 . S
C287 H305 0.929 . S
C288 C287 1.409 . S
C288 C289 1.380 . S
C288 H306 0.930 . S
C289 C288 1.380 . S
C289 C296 1.357 . S
C290 C281 1.511 . S
C290 C291 1.341 . S
C290 C292 1.371 . S
C291 C290 1.341 . S
C291 C295 1.394 . S
C291 H307 0.930 . S
C292 C290 1.371 . S
C292 C293 1.392 . S
C292 H308 0.931 . S
C293 C292 1.392 . S
C293 C294 1.331 . S
C293 H311 0.932 . S
C294 C293 1.331 . S
C294 C295 1.336 . S
C295 C291 1.394 . S
C295 C294 1.336 . S
C295 H310 0.929 . S
C296 C286 1.386 . S
C296 C289 1.357 . S
C296 H309 0.928 . S
H297 C273 0.931 . S
H298 C275 0.930 . S
H299 C277 0.929 . S
H300 C278 0.931 . S
H301 C280 0.930 . S
H302 C284 0.931 . S
H303 C282 0.931 . S
H304 C286 0.931 . S
H305 C287 0.929 . S
H306 C288 0.930 . S
H307 C291 0.930 . S
H308 C292 0.931 . S
H309 C296 0.928 . S
H310 C295 0.929 . S
H311 C293 0.932 . S
C312 C313 1.386 . S
C312 C314 1.397 . S
C312 H336 0.931 . S
C313 C312 1.386 . S
C313 C317 1.397 . S
C314 C312 1.397 . S
C314 C315 1.384 . S
C314 H337 0.930 . S
C315 C314 1.384 . S
C315 C316 1.377 . S
C315 C318 1.481 . S
C316 C315 1.377 . S
C316 C317 1.389 . S
C316 H338 0.929 . S
C317 C313 1.397 . S
C317 C316 1.389 . S
C317 H339 0.931 . S
C318 C315 1.481 . S
C318 C319 1.387 . S
C318 C323 1.390 . S
C319 C318 1.387 . S
C319 C320 1.401 . S
C319 H340 0.930 . S
C320 C319 1.401 . S
C320 C321 1.376 . S
C320 C329 1.511 . S
C321 C320 1.376 . S
C321 C322 1.392 . S
C321 H342 0.931 . S
C322 C321 1.392 . S
C322 C323 1.361 . S
C322 C324 1.500 . S
C323 C318 1.390 . S
C323 C322 1.361 . S
C323 H341 0.931 . S
C324 C322 1.500 . S
C324 C325 1.371 . S
C324 C326 1.365 . S
C325 C324 1.371 . S
C325 C335 1.386 . S
C325 H343 0.931 . S
C326 C324 1.365 . S
C326 C327 1.409 . S
C326 H344 0.929 . S
C327 C326 1.409 . S
C327 C328 1.380 . S
C327 H345 0.930 . S
C328 C327 1.380 . S
C328 C335 1.357 . S
C329 C320 1.511 . S
C329 C330 1.341 . S
C329 C331 1.371 . S
C330 C329 1.341 . S
C330 C334 1.394 . S
C330 H346 0.930 . S
C331 C329 1.371 . S
C331 C332 1.392 . S
C331 H347 0.931 . S
C332 C331 1.392 . S
C332 C333 1.331 . S
C332 H350 0.932 . S
C333 C332 1.331 . S
C333 C334 1.336 . S
C334 C330 1.394 . S
C334 C333 1.336 . S
C334 H349 0.929 . S
C335 C325 1.386 . S
C335 C328 1.357 . S
C335 H348 0.928 . S
H336 C312 0.931 . S
H337 C314 0.930 . S
H338 C316 0.929 . S
H339 C317 0.931 . S
H340 C319 0.930 . S
H341 C323 0.931 . S
H342 C321 0.931 . S
H343 C325 0.931 . S
H344 C326 0.929 . S
H345 C327 0.930 . S
H346 C330 0.930 . S
H347 C331 0.931 . S
H348 C335 0.928 . S
H349 C334 0.929 . S
H350 C332 0.932 . S
C351 C352 1.386 . S
C351 C353 1.397 . S
C351 H375 0.931 . S
C352 C351 1.386 . S
C352 C356 1.397 . S
C353 C351 1.397 . S
C353 C354 1.384 . S
C353 H376 0.930 . S
C354 C353 1.384 . S
C354 C355 1.377 . S
C354 C357 1.481 . S
C355 C354 1.377 . S
C355 C356 1.389 . S
C355 H377 0.929 . S
C356 C352 1.397 . S
C356 C355 1.389 . S
C356 H378 0.931 . S
C357 C354 1.481 . S
C357 C358 1.387 . S
C357 C362 1.390 . S
C358 C357 1.387 . S
C358 C359 1.401 . S
C358 H379 0.930 . S
C359 C358 1.401 . S
C359 C360 1.376 . S
C359 C368 1.511 . S
C360 C359 1.376 . S
C360 C361 1.392 . S
C360 H381 0.931 . S
C361 C360 1.392 . S
C361 C362 1.361 . S
C361 C363 1.500 . S
C362 C357 1.390 . S
C362 C361 1.361 . S
C362 H380 0.931 . S
C363 C361 1.500 . S
C363 C364 1.371 . S
C363 C365 1.365 . S
C364 C363 1.371 . S
C364 C374 1.386 . S
C364 H382 0.931 . S
C365 C363 1.365 . S
C365 C366 1.409 . S
C365 H383 0.929 . S
C366 C365 1.409 . S
C366 C367 1.380 . S
C366 H384 0.930 . S
C367 C366 1.380 . S
C367 C374 1.357 . S
C368 C359 1.511 . S
C368 C369 1.341 . S
C368 C370 1.371 . S
C369 C368 1.341 . S
C369 C373 1.394 1_565 S
C369 H385 0.930 . S
C370 C368 1.371 . S
C370 C371 1.392 1_565 S
C370 H386 0.931 . S
C371 C370 1.392 1_545 S
C371 C372 1.331 . S
C371 H389 0.932 . S
C372 C371 1.331 . S
C372 C373 1.336 . S
C373 C369 1.394 1_545 S
C373 C372 1.336 . S
C373 H388 0.929 . S
C374 C364 1.386 . S
C374 C367 1.357 . S
C374 H387 0.928 . S
H375 C351 0.931 . S
H376 C353 0.930 . S
H377 C355 0.929 . S
H378 C356 0.931 . S
H379 C358 0.930 . S
H380 C362 0.931 . S
H381 C360 0.931 . S
H382 C364 0.931 . S
H383 C365 0.929 . S
H384 C366 0.930 . S
H385 C369 0.930 . S
H386 C370 0.931 . S
H387 C374 0.928 . S
H388 C373 0.929 . S
H389 C371 0.932 . S
C390 C391 1.386 . S
C390 C392 1.397 . S
C390 H414 0.931 . S
C391 C390 1.386 . S
C391 C395 1.397 . S
C392 C390 1.397 . S
C392 C393 1.384 . S
C392 H415 0.930 . S
C393 C392 1.384 . S
C393 C394 1.377 . S
C393 C396 1.481 . S
C394 C393 1.377 . S
C394 C395 1.389 . S
C394 H416 0.929 . S
C395 C391 1.397 . S
C395 C394 1.389 . S
C395 H417 0.931 . S
C396 C393 1.481 . S
C396 C397 1.387 . S
C396 C401 1.390 . S
C397 C396 1.387 . S
C397 C398 1.401 . S
C397 H418 0.930 . S
C398 C397 1.401 . S
C398 C399 1.376 . S
C398 C407 1.511 . S
C399 C398 1.376 . S
C399 C400 1.392 . S
C399 H420 0.931 . S
C400 C399 1.392 . S
C400 C401 1.361 . S
C400 C402 1.500 . S
C401 C396 1.390 . S
C401 C400 1.361 . S
C401 H419 0.931 . S
C402 C400 1.500 . S
C402 C403 1.371 . S
C402 C404 1.365 . S
C403 C402 1.371 . S
C403 C413 1.386 . S
C403 H421 0.931 . S
C404 C402 1.365 . S
C404 C405 1.409 . S
C404 H422 0.929 . S
C405 C404 1.409 . S
C405 C406 1.380 . S
C405 H423 0.930 . S
C406 C405 1.380 . S
C406 C413 1.357 . S
C407 C398 1.511 . S
C407 C408 1.341 . S
C407 C409 1.371 . S
C408 C407 1.341 . S
C408 C412 1.394 . S
C408 H424 0.930 . S
C409 C407 1.371 . S
C409 C410 1.392 . S
C409 H425 0.931 . S
C410 C409 1.392 . S
C410 C411 1.331 . S
C410 H428 0.932 . S
C411 C410 1.331 . S
C411 C412 1.336 . S
C412 C408 1.394 . S
C412 C411 1.336 . S
C412 H427 0.929 . S
C413 C403 1.386 . S
C413 C406 1.357 . S
C413 H426 0.928 . S
H414 C390 0.931 . S
H415 C392 0.930 . S
H416 C394 0.929 . S
H417 C395 0.931 . S
H418 C397 0.930 . S
H419 C401 0.931 . S
H420 C399 0.931 . S
H421 C403 0.931 . S
H422 C404 0.929 . S
H423 C405 0.930 . S
H424 C408 0.930 . S
H425 C409 0.931 . S
H426 C413 0.928 . S
H427 C412 0.929 . S
H428 C410 0.932 . S
C429 C430 1.386 . S
C429 C431 1.397 . S
C429 H453 0.931 . S
C430 C429 1.386 . S
C430 C434 1.397 . S
C431 C429 1.397 . S
C431 C432 1.384 . S
C431 H454 0.930 . S
C432 C431 1.384 . S
C432 C433 1.377 . S
C432 C435 1.481 . S
C433 C432 1.377 . S
C433 C434 1.389 . S
C433 H455 0.929 . S
C434 C430 1.397 . S
C434 C433 1.389 . S
C434 H456 0.931 . S
C435 C432 1.481 . S
C435 C436 1.387 . S
C435 C440 1.390 . S
C436 C435 1.387 . S
C436 C437 1.401 . S
C436 H457 0.930 . S
C437 C436 1.401 . S
C437 C438 1.376 . S
C437 C446 1.511 . S
C438 C437 1.376 . S
C438 C439 1.392 . S
C438 H459 0.931 . S
C439 C438 1.392 . S
C439 C440 1.361 . S
C439 C441 1.500 . S
C440 C435 1.390 . S
C440 C439 1.361 . S
C440 H458 0.931 . S
C441 C439 1.500 . S
C441 C442 1.371 . S
C441 C443 1.365 . S
C442 C441 1.371 . S
C442 C452 1.386 . S
C442 H460 0.931 . S
C443 C441 1.365 . S
C443 C444 1.409 . S
C443 H461 0.929 . S
C444 C443 1.409 . S
C444 C445 1.380 . S
C444 H462 0.930 . S
C445 C444 1.380 . S
C445 C452 1.357 . S
C446 C437 1.511 . S
C446 C447 1.341 . S
C446 C448 1.371 . S
C447 C446 1.341 . S
C447 C451 1.394 . S
C447 H463 0.930 . S
C448 C446 1.371 . S
C448 C449 1.392 . S
C448 H464 0.931 . S
C449 C448 1.392 . S
C449 C450 1.331 . S
C449 H467 0.932 . S
C450 C449 1.331 . S
C450 C451 1.336 . S
C451 C447 1.394 . S
C451 C450 1.336 . S
C451 H466 0.929 . S
C452 C442 1.386 . S
C452 C445 1.357 . S
C452 H465 0.928 . S
H453 C429 0.931 . S
H454 C431 0.930 . S
H455 C433 0.929 . S
H456 C434 0.931 . S
H457 C436 0.930 . S
H458 C440 0.931 . S
H459 C438 0.931 . S
H460 C442 0.931 . S
H461 C443 0.929 . S
H462 C444 0.930 . S
H463 C447 0.930 . S
H464 C448 0.931 . S
H465 C452 0.928 . S
H466 C451 0.929 . S
H467 C449 0.932 . S
C468 C469 1.386 . S
C468 C470 1.397 . S
C468 H492 0.931 . S
C469 C468 1.386 . S
C469 C473 1.397 . S
C470 C468 1.397 . S
C470 C471 1.384 . S
C470 H493 0.930 . S
C471 C470 1.384 . S
C471 C472 1.377 . S
C471 C474 1.481 . S
C472 C471 1.377 . S
C472 C473 1.389 . S
C472 H494 0.929 . S
C473 C469 1.397 . S
C473 C472 1.389 . S
C473 H495 0.931 . S
C474 C471 1.481 . S
C474 C475 1.387 . S
C474 C479 1.390 . S
C475 C474 1.387 . S
C475 C476 1.401 . S
C475 H496 0.930 . S
C476 C475 1.401 . S
C476 C477 1.376 . S
C476 C485 1.511 . S
C477 C476 1.376 . S
C477 C478 1.392 . S
C477 H498 0.931 . S
C478 C477 1.392 . S
C478 C479 1.361 . S
C478 C480 1.500 . S
C479 C474 1.390 . S
C479 C478 1.361 . S
C479 H497 0.931 . S
C480 C478 1.500 . S
C480 C481 1.371 . S
C480 C482 1.365 . S
C481 C480 1.371 . S
C481 C491 1.386 . S
C481 H499 0.931 . S
C482 C480 1.365 . S
C482 C483 1.409 . S
C482 H500 0.929 . S
C483 C482 1.409 . S
C483 C484 1.380 . S
C483 H501 0.930 . S
C484 C483 1.380 . S
C484 C491 1.357 . S
C485 C476 1.511 . S
C485 C486 1.341 . S
C485 C487 1.371 . S
C486 C485 1.341 . S
C486 C490 1.394 . S
C486 H502 0.930 . S
C487 C485 1.371 . S
C487 C488 1.392 . S
C487 H503 0.931 . S
C488 C487 1.392 . S
C488 C489 1.331 . S
C488 H506 0.932 . S
C489 C488 1.331 . S
C489 C490 1.336 . S
C490 C486 1.394 . S
C490 C489 1.336 . S
C490 H505 0.929 . S
C491 C481 1.386 . S
C491 C484 1.357 . S
C491 H504 0.928 . S
H492 C468 0.931 . S
H493 C470 0.930 . S
H494 C472 0.929 . S
H495 C473 0.931 . S
H496 C475 0.930 . S
H497 C479 0.931 . S
H498 C477 0.931 . S
H499 C481 0.931 . S
H500 C482 0.929 . S
H501 C483 0.930 . S
H502 C486 0.930 . S
H503 C487 0.931 . S
H504 C491 0.928 . S
H505 C490 0.929 . S
H506 C488 0.932 . S
C507 C508 1.386 . S
C507 C509 1.397 . S
C507 H531 0.931 . S
C508 C507 1.386 . S
C508 C512 1.397 . S
C509 C507 1.397 . S
C509 C510 1.384 . S
C509 H532 0.930 . S
C510 C509 1.384 . S
C510 C511 1.377 . S
C510 C513 1.481 . S
C511 C510 1.377 . S
C511 C512 1.389 . S
C511 H533 0.929 . S
C512 C508 1.397 . S
C512 C511 1.389 . S
C512 H534 0.931 . S
C513 C510 1.481 . S
C513 C514 1.387 . S
C513 C518 1.390 . S
C514 C513 1.387 . S
C514 C515 1.401 . S
C514 H535 0.930 . S
C515 C514 1.401 . S
C515 C516 1.376 . S
C515 C524 1.511 . S
C516 C515 1.376 . S
C516 C517 1.392 . S
C516 H537 0.931 . S
C517 C516 1.392 . S
C517 C518 1.361 . S
C517 C519 1.500 . S
C518 C513 1.390 . S
C518 C517 1.361 . S
C518 H536 0.931 . S
C519 C517 1.500 . S
C519 C520 1.371 . S
C519 C521 1.365 . S
C520 C519 1.371 . S
C520 C530 1.386 . S
C520 H538 0.931 . S
C521 C519 1.365 . S
C521 C522 1.409 . S
C521 H539 0.929 . S
C522 C521 1.409 . S
C522 C523 1.380 . S
C522 H540 0.930 . S
C523 C522 1.380 . S
C523 C530 1.357 . S
C524 C515 1.511 . S
C524 C525 1.341 . S
C524 C526 1.371 . S
C525 C524 1.341 . S
C525 C529 1.394 . S
C525 H541 0.930 . S
C526 C524 1.371 . S
C526 C527 1.383 1_556 S
C526 H542 0.931 . S
C527 C526 1.383 1_554 S
C527 C528 1.332 . S
C527 H545 0.940 . S
C528 C527 1.332 . S
C528 C529 1.336 1_554 S
C529 C525 1.394 . S
C529 C528 1.336 1_556 S
C529 H544 0.929 . S
C530 C520 1.386 . S
C530 C523 1.357 . S
C530 H543 0.928 . S
H531 C507 0.931 . S
H532 C509 0.930 . S
H533 C511 0.929 . S
H534 C512 0.931 . S
H535 C514 0.930 . S
H536 C518 0.931 . S
H537 C516 0.931 . S
H538 C520 0.931 . S
H539 C521 0.929 . S
H540 C522 0.930 . S
H541 C525 0.930 . S
H542 C526 0.931 . S
H543 C530 0.928 . S
H544 C529 0.929 . S
H545 C527 0.940 . S
C546 C547 1.386 . S
C546 C548 1.397 . S
C546 H570 0.931 . S
C547 C546 1.386 . S
C547 C551 1.397 . S
C548 C546 1.397 . S
C548 C549 1.384 . S
C548 H571 0.930 . S
C549 C548 1.384 . S
C549 C550 1.377 . S
C549 C552 1.481 . S
C550 C549 1.377 . S
C550 C551 1.389 . S
C550 H572 0.929 . S
C551 C547 1.397 . S
C551 C550 1.389 . S
C551 H573 0.931 . S
C552 C549 1.481 . S
C552 C553 1.387 . S
C552 C557 1.390 . S
C553 C552 1.387 . S
C553 C554 1.401 . S
C553 H574 0.930 . S
C554 C553 1.401 . S
C554 C555 1.376 . S
C554 C563 1.511 . S
C555 C554 1.376 . S
C555 C556 1.392 . S
C555 H576 0.931 . S
C556 C555 1.392 . S
C556 C557 1.361 . S
C556 C558 1.500 . S
C557 C552 1.390 . S
C557 C556 1.361 . S
C557 H575 0.931 . S
C558 C556 1.500 . S
C558 C559 1.371 . S
C558 C560 1.365 . S
C559 C558 1.371 . S
C559 C569 1.386 . S
C559 H577 0.931 . S
C560 C558 1.365 . S
C560 C561 1.409 . S
C560 H578 0.929 . S
C561 C560 1.409 . S
C561 C562 1.380 . S
C561 H579 0.930 . S
C562 C561 1.380 . S
C562 C569 1.357 . S
C563 C554 1.511 . S
C563 C564 1.341 . S
C563 C565 1.371 . S
C564 C563 1.341 . S
C564 C568 1.394 . S
C564 H580 0.930 . S
C565 C563 1.371 . S
C565 C566 1.392 . S
C565 H581 0.931 . S
C566 C565 1.392 . S
C566 C567 1.331 . S
C566 H584 0.932 . S
C567 C566 1.331 . S
C567 C568 1.336 . S
C568 C564 1.394 . S
C568 C567 1.336 . S
C568 H583 0.929 . S
C569 C559 1.386 . S
C569 C562 1.357 . S
C569 H582 0.928 . S
H570 C546 0.931 . S
H571 C548 0.930 . S
H572 C550 0.929 . S
H573 C551 0.931 . S
H574 C553 0.930 . S
H575 C557 0.931 . S
H576 C555 0.931 . S
H577 C559 0.931 . S
H578 C560 0.929 . S
H579 C561 0.930 . S
H580 C564 0.930 . S
H581 C565 0.931 . S
H582 C569 0.928 . S
H583 C568 0.929 . S
H584 C566 0.932 . S
C585 C586 1.386 1_556 S
C585 C587 1.397 . S
C585 H609 0.931 . S
C586 C585 1.386 1_554 S
C586 C590 1.397 . S
C587 C585 1.397 . S
C587 C588 1.384 . S
C587 H610 0.930 . S
C588 C587 1.384 . S
C588 C589 1.377 1_556 S
C588 C591 1.481 . S
C589 C588 1.377 1_554 S
C589 C590 1.389 . S
C589 H611 0.929 . S
C590 C586 1.397 . S
C590 C589 1.389 . S
C590 H612 0.931 . S
C591 C588 1.481 . S
C591 C592 1.387 . S
C591 C596 1.390 . S
C592 C591 1.387 . S
C592 C593 1.401 . S
C592 H613 0.930 . S
C593 C592 1.401 . S
C593 C594 1.376 . S
C593 C602 1.511 . S
C594 C593 1.376 . S
C594 C595 1.392 . S
C594 H615 0.931 . S
C595 C594 1.392 . S
C595 C596 1.361 . S
C595 C597 1.500 . S
C596 C591 1.390 . S
C596 C595 1.361 . S
C596 H614 0.931 . S
C597 C595 1.500 . S
C597 C598 1.371 . S
C597 C599 1.365 . S
C598 C597 1.371 . S
C598 C608 1.386 . S
C598 H616 0.931 . S
C599 C597 1.365 . S
C599 C600 1.409 . S
C599 H617 0.929 . S
C600 C599 1.409 . S
C600 C601 1.409 . S
C600 H618 0.869 1_556 S
C601 C600 1.409 . S
C601 C608 1.366 . S
C602 C593 1.511 . S
C602 C603 1.341 . S
C602 C604 1.371 . S
C603 C602 1.341 . S
C603 C607 1.394 . S
C603 H619 0.930 . S
C604 C602 1.371 . S
C604 C605 1.392 . S
C604 H620 0.931 . S
C605 C604 1.392 . S
C605 C606 1.331 . S
C605 H623 0.932 . S
C606 C605 1.331 . S
C606 C607 1.336 . S
C607 C603 1.394 . S
C607 C606 1.336 . S
C607 H622 0.929 . S
C608 C598 1.386 . S
C608 C601 1.366 . S
C608 H621 0.928 1_545 S
H609 C585 0.931 . S
H610 C587 0.930 . S
H611 C589 0.929 . S
H612 C590 0.931 . S
H613 C592 0.930 . S
H614 C596 0.931 . S
H615 C594 0.931 . S
H616 C598 0.931 . S
H617 C599 0.929 . S
H618 C600 0.869 1_554 S
H619 C603 0.930 . S
H620 C604 0.931 . S
H621 C608 0.928 1_565 S
H622 C607 0.929 . S
H623 C605 0.932 . S
C624 O625 1.160 1_554 S
C624 O631 1.185 . S
O625 C624 1.160 1_556 S
O626 Zn627 1.899 1_556 S
O626 C634 1.284 . S
Zn627 O626 1.899 1_554 S
Zn627 O628 2.032 . S
Zn627 O631 2.086 . S
Zn627 O636 1.977 . S
O628 Zn627 2.032 . S
O628 C632 1.278 . S
C629 O630 1.203 . S
C629 O636 1.267 . S
O630 C629 1.203 . S
O631 C624 1.185 . S
O631 Zn627 2.086 . S
C632 O628 1.278 . S
C632 O633 1.211 . S
O633 C632 1.211 . S
C634 O626 1.284 . S
C634 O635 1.273 . S
O635 C634 1.273 . S
O636 Zn627 1.977 . S
O636 C629 1.267 . S
C637 O638 1.160 . S
C637 O644 1.185 . S
O638 C637 1.160 . S
O639 Zn640 1.899 . S
O639 C647 1.284 . S
Zn640 O639 1.899 . S
Zn640 O641 2.032 . S
Zn640 O644 2.086 . S
Zn640 O649 1.977 . S
O641 Zn640 2.032 . S
O641 C645 1.278 . S
C642 O643 1.203 . S
C642 O649 1.267 . S
O643 C642 1.203 . S
O644 C637 1.185 . S
O644 Zn640 2.086 . S
C645 O641 1.278 . S
C645 O646 1.211 . S
O646 C645 1.211 . S
C647 O639 1.284 . S
C647 O648 1.273 . S
O648 C647 1.273 . S
O649 Zn640 1.977 . S
O649 C642 1.267 . S
C650 O651 1.160 1_554 S
C650 O657 1.185 . S
O651 C650 1.160 1_556 S
O652 Zn653 1.899 1_556 S
O652 C660 1.284 . S
Zn653 O652 1.899 1_554 S
Zn653 O654 2.032 1_554 S
Zn653 O657 2.086 . S
Zn653 O662 1.977 . S
O654 Zn653 2.032 1_556 S
O654 C658 1.278 . S
C655 O656 1.203 . S
C655 O662 1.267 . S
O656 C655 1.203 . S
O657 C650 1.185 . S
O657 Zn653 2.086 . S
C658 O654 1.278 . S
C658 O659 1.211 1_556 S
O659 C658 1.211 1_554 S
C660 O652 1.284 . S
C660 O661 1.273 . S
O661 C660 1.273 . S
O662 Zn653 1.977 . S
O662 C655 1.267 . S
C663 O664 1.160 . S
C663 O670 1.185 . S
O664 C663 1.160 . S
O665 Zn666 1.899 . S
O665 C673 1.284 . S
Zn666 O665 1.899 . S
Zn666 O667 2.032 . S
Zn666 O670 2.086 . S
Zn666 O675 1.977 . S
O667 Zn666 2.032 . S
O667 C671 1.278 1_545 S
C668 O669 1.203 . S
C668 O675 1.267 . S
O669 C668 1.203 . S
O670 C663 1.185 . S
O670 Zn666 2.086 . S
C671 O667 1.278 1_565 S
C671 O672 1.211 . S
O672 C671 1.211 . S
C673 O665 1.284 . S
C673 O674 1.273 1_545 S
O674 C673 1.273 1_565 S
O675 Zn666 1.977 . S
O675 C668 1.267 . S
C676 O677 1.160 . S
C676 O683 1.185 . S
O677 C676 1.160 . S
O678 Zn679 1.899 . S
O678 C686 1.284 . S
Zn679 O678 1.899 . S
Zn679 O680 2.032 . S
Zn679 O683 2.086 . S
Zn679 O688 1.977 . S
O680 Zn679 2.032 . S
O680 C684 1.278 . S
C681 O682 1.203 . S
C681 O688 1.267 . S
O682 C681 1.203 . S
O683 C676 1.185 . S
O683 Zn679 2.086 . S
C684 O680 1.278 . S
C684 O685 1.211 . S
O685 C684 1.211 . S
C686 O678 1.284 . S
C686 O687 1.273 . S
O687 C686 1.273 . S
O688 Zn679 1.977 . S
O688 C681 1.267 . S
C689 O690 1.160 . S
C689 O696 1.185 . S
O690 C689 1.160 . S
O691 Zn692 1.899 . S
O691 C699 1.284 . S
Zn692 O691 1.899 . S
Zn692 O693 2.032 . S
Zn692 O696 2.086 . S
Zn692 O701 1.977 . S
O693 Zn692 2.032 . S
O693 C697 1.278 . S
C694 O695 1.203 . S
C694 O701 1.267 . S
O695 C694 1.203 . S
O696 C689 1.185 . S
O696 Zn692 2.086 . S
C697 O693 1.278 . S
C697 O698 1.211 . S
O698 C697 1.211 . S
C699 O691 1.284 . S
C699 O700 1.273 . S
O700 C699 1.273 . S
O701 Zn692 1.977 . S
O701 C694 1.267 . S
C702 O703 1.160 . S
C702 O709 1.185 . S
O703 C702 1.160 . S
O704 Zn705 1.899 . S
O704 C712 1.284 . S
Zn705 O704 1.899 . S
Zn705 O706 2.032 . S
Zn705 O709 2.086 . S
Zn705 O714 1.977 . S
O706 Zn705 2.032 . S
O706 C710 1.278 . S
C707 O708 1.203 . S
C707 O714 1.267 . S
O708 C707 1.203 . S
O709 C702 1.185 . S
O709 Zn705 2.086 . S
C710 O706 1.278 . S
C710 O711 1.211 . S
O711 C710 1.211 . S
C712 O704 1.284 . S
C712 O713 1.273 . S
O713 C712 1.273 . S
O714 Zn705 1.977 . S
O714 C707 1.267 . S
C715 O716 1.160 . S
C715 O722 1.185 . S
O716 C715 1.160 . S
O717 Zn718 1.899 . S
O717 C725 1.284 1_565 S
Zn718 O717 1.899 . S
Zn718 O719 2.032 1_565 S
Zn718 O722 2.086 . S
Zn718 O727 1.977 . S
O719 Zn718 2.032 1_545 S
O719 C723 1.278 . S
C720 O721 1.203 1_565 S
C720 O727 1.267 . S
O721 C720 1.203 1_545 S
O722 C715 1.185 . S
O722 Zn718 2.086 . S
C723 O719 1.278 . S
C723 O724 1.211 . S
O724 C723 1.211 . S
C725 O717 1.284 1_545 S
C725 O726 1.273 . S
O726 C725 1.273 . S
O727 Zn718 1.977 . S
O727 C720 1.267 . S
C728 O729 1.160 1_455 S
C728 O735 1.185 . S
O729 C728 1.160 1_655 S
O730 Zn731 1.899 1_655 S
O730 C738 1.284 . S
Zn731 O730 1.899 1_455 S
Zn731 O732 2.032 1_455 S
Zn731 O735 2.086 . S
Zn731 O740 1.977 . S
O732 Zn731 2.032 1_655 S
O732 C736 1.276 1_655 S
C733 O734 1.203 . S
C733 O740 1.267 . S
O734 C733 1.203 . S
O735 C728 1.185 . S
O735 Zn731 2.086 . S
C736 O732 1.276 1_455 S
C736 O737 1.218 . S
O737 C736 1.218 . S
C738 O730 1.284 . S
C738 O739 1.273 . S
O739 C738 1.273 . S
O740 Zn731 1.977 . S
O740 C733 1.267 . S
C741 O742 1.160 . S
C741 O748 1.185 . S
O742 C741 1.160 . S
O743 Zn744 1.899 . S
O743 C751 1.284 . S
Zn744 O743 1.899 . S
Zn744 O745 2.032 . S
Zn744 O748 2.086 . S
Zn744 O753 1.977 . S
O745 Zn744 2.032 . S
O745 C749 1.278 . S
C746 O747 1.203 . S
C746 O753 1.267 . S
O747 C746 1.203 . S
O748 C741 1.185 . S
O748 Zn744 2.086 . S
C749 O745 1.278 . S
C749 O750 1.211 . S
O750 C749 1.211 . S
C751 O743 1.284 . S
C751 O752 1.273 . S
O752 C751 1.273 . S
O753 Zn744 1.977 . S
O753 C746 1.267 . S
C754 O755 1.160 1_455 S
C754 O761 1.185 . S
O755 C754 1.160 1_655 S
O756 Zn757 1.899 1_655 S
O756 C764 1.284 . S
Zn757 O756 1.899 1_455 S
Zn757 O758 2.032 1_455 S
Zn757 O761 2.086 . S
Zn757 O766 1.977 . S
O758 Zn757 2.032 1_655 S
O758 C762 1.275 1_655 S
C759 O760 1.203 . S
C759 O766 1.267 . S
O760 C759 1.203 . S
O761 C754 1.185 . S
O761 Zn757 2.086 . S
C762 O758 1.275 1_455 S
C762 O763 1.218 . S
O763 C762 1.218 . S
C764 O756 1.284 . S
C764 O765 1.273 . S
O765 C764 1.273 . S
O766 Zn757 1.977 . S
O766 C759 1.267 . S
C767 O768 1.160 . S
C767 O774 1.185 . S
O768 C767 1.160 . S
O769 Zn770 1.899 . S
O769 C777 1.284 . S
Zn770 O769 1.899 . S
Zn770 O771 2.032 . S
Zn770 O774 2.086 . S
Zn770 O779 1.977 . S
O771 Zn770 2.032 . S
O771 C775 1.278 . S
C772 O773 1.203 . S
C772 O779 1.267 . S
O773 C772 1.203 . S
O774 C767 1.185 . S
O774 Zn770 2.086 . S
C775 O771 1.278 . S
C775 O776 1.211 . S
O776 C775 1.211 . S
C777 O769 1.284 . S
C777 O778 1.273 . S
O778 C777 1.273 . S
O779 Zn770 1.977 . S
O779 C772 1.267 . S
H780 C798 0.951 . S
H781 C800 0.951 . S
H782 C802 0.950 . S
H783 C803 0.950 . S
H784 C805 0.950 . S
H785 C808 0.950 . S
H786 C809 0.950 . S
H787 C811 0.950 . S
H788 C812 0.950 . S
H789 C813 0.951 . S
H790 C815 0.951 . S
H791 C817 0.950 . S
H792 C818 0.950 . S
H793 C820 0.950 . S
H794 C823 0.950 . S
H795 C824 0.950 . S
H796 C826 0.950 . S
H797 C827 0.950 . S
C798 H780 0.951 . S
C798 C799 1.366 . S
C798 C800 1.388 . S
C799 C798 1.366 . S
C799 C803 1.385 . S
C800 H781 0.951 . S
C800 C798 1.388 . S
C800 C801 1.366 . S
C801 C800 1.366 . S
C801 C802 1.414 . S
C801 C804 1.499 . S
C802 H782 0.950 . S
C802 C801 1.414 . S
C802 C803 1.374 . S
C803 H783 0.950 . S
C803 C799 1.385 . S
C803 C802 1.374 . S
C804 C801 1.499 . S
C804 C805 1.373 . S
C804 C806 1.389 . S
C805 H784 0.950 . S
C805 C804 1.373 . S
C805 C821 1.377 . S
C806 C804 1.389 . S
C806 C807 1.524 . S
C806 C820 1.377 . S
C807 C806 1.524 . S
C807 C808 1.397 . S
C807 C812 1.363 . S
C808 H785 0.950 . S
C808 C807 1.397 . S
C808 C809 1.334 . S
C809 H786 0.950 . S
C809 C808 1.334 . S
C809 C810 1.287 . S
C810 C809 1.287 . S
C810 C811 1.524 . S
C810 H829 0.913 . S
C811 H787 0.950 . S
C811 C810 1.524 . S
C811 C812 1.415 . S
C812 H788 0.950 . S
C812 C807 1.363 . S
C812 C811 1.415 . S
C813 H789 0.951 . S
C813 C814 1.366 . S
C813 C815 1.388 . S
C814 C813 1.366 . S
C814 C818 1.385 . S
C815 H790 0.951 . S
C815 C813 1.388 . S
C815 C816 1.366 . S
C816 C815 1.366 . S
C816 C817 1.414 . S
C816 C819 1.499 . S
C817 H791 0.950 . S
C817 C816 1.414 . S
C817 C818 1.374 . S
C818 H792 0.950 . S
C818 C814 1.385 . S
C818 C817 1.374 . S
C819 C816 1.499 . S
C819 C820 1.373 . S
C819 C821 1.389 . S
C820 H793 0.950 . S
C820 C806 1.377 . S
C820 C819 1.373 . S
C821 C805 1.377 . S
C821 C819 1.389 . S
C821 C822 1.524 . S
C822 C821 1.524 . S
C822 C823 1.397 . S
C822 C827 1.363 . S
C823 H794 0.950 . S
C823 C822 1.397 . S
C823 C824 1.334 . S
C824 H795 0.950 . S
C824 C823 1.334 . S
C824 C825 1.287 . S
C825 C824 1.287 . S
C825 C826 1.524 . S
C825 H828 0.999 . S
C826 H796 0.950 . S
C826 C825 1.524 . S
C826 C827 1.415 . S
C827 H797 0.950 . S
C827 C822 1.363 . S
C827 C826 1.415 . S
H828 C825 0.999 . S
H829 C810 0.913 . S
H830 C848 0.951 . S
H831 C850 0.951 . S
H832 C852 0.950 . S
H833 C853 0.950 . S
H834 C855 0.950 . S
H835 C858 0.950 . S
H836 C859 0.959 . S
H837 C861 0.908 1_655 S
H838 C862 0.950 . S
H839 C863 0.951 . S
H840 C865 0.951 . S
H841 C867 0.950 . S
H842 C868 0.950 . S
H843 C870 0.950 . S
H844 C873 0.950 . S
H845 C874 0.950 . S
H846 C876 0.950 . S
H847 C877 0.950 . S
C848 H830 0.951 . S
C848 C849 1.366 . S
C848 C850 1.388 . S
C849 C848 1.366 . S
C849 C853 1.385 . S
C850 H831 0.951 . S
C850 C848 1.388 . S
C850 C851 1.366 . S
C851 C850 1.366 . S
C851 C852 1.414 . S
C851 C854 1.499 . S
C852 H832 0.950 . S
C852 C851 1.414 . S
C852 C853 1.374 . S
C853 H833 0.950 . S
C853 C849 1.385 . S
C853 C852 1.374 . S
C854 C851 1.499 . S
C854 C855 1.373 . S
C854 C856 1.389 . S
C855 H834 0.950 . S
C855 C854 1.373 . S
C855 C871 1.377 . S
C856 C854 1.389 . S
C856 C857 1.524 . S
C856 C870 1.377 . S
C857 C856 1.524 . S
C857 C858 1.397 . S
C857 C862 1.363 . S
C858 H835 0.950 . S
C858 C857 1.397 . S
C858 C859 1.334 . S
C859 H836 0.959 . S
C859 C858 1.334 . S
C859 C860 1.287 1_455 S
C860 C859 1.287 1_655 S
C860 C861 1.509 1_655 S
C860 H879 0.913 . S
C861 H837 0.908 1_455 S
C861 C860 1.509 1_455 S
C861 C862 1.482 . S
C862 H838 0.950 . S
C862 C857 1.363 . S
C862 C861 1.482 . S
C863 H839 0.951 . S
C863 C864 1.366 . S
C863 C865 1.388 . S
C864 C863 1.366 . S
C864 C868 1.385 . S
C865 H840 0.951 . S
C865 C863 1.388 . S
C865 C866 1.366 . S
C866 C865 1.366 . S
C866 C867 1.414 . S
C866 C869 1.499 . S
C867 H841 0.950 . S
C867 C866 1.414 . S
C867 C868 1.374 . S
C868 H842 0.950 . S
C868 C864 1.385 . S
C868 C867 1.374 . S
C869 C866 1.499 . S
C869 C870 1.373 . S
C869 C871 1.389 . S
C870 H843 0.950 . S
C870 C856 1.377 . S
C870 C869 1.373 . S
C871 C855 1.377 . S
C871 C869 1.389 . S
C871 C872 1.524 . S
C872 C871 1.524 . S
C872 C873 1.397 . S
C872 C877 1.363 . S
C873 H844 0.950 . S
C873 C872 1.397 . S
C873 C874 1.334 . S
C874 H845 0.950 . S
C874 C873 1.334 . S
C874 C875 1.287 . S
C875 C874 1.287 . S
C875 C876 1.524 . S
C875 H878 0.999 . S
C876 H846 0.950 . S
C876 C875 1.524 . S
C876 C877 1.415 . S
C877 H847 0.950 . S
C877 C872 1.363 . S
C877 C876 1.415 . S
H878 C875 0.999 . S
H879 C860 0.913 . S
H880 C898 0.951 . S
H881 C900 0.951 . S
H882 C902 0.950 . S
H883 C903 0.950 . S
H884 C905 0.950 . S
H885 C908 0.950 . S
H886 C909 0.950 . S
H887 C911 0.950 . S
H888 C912 0.950 . S
H889 C913 0.951 . S
H890 C915 0.951 . S
H891 C917 0.950 . S
H892 C918 0.950 . S
H893 C920 0.950 . S
H894 C923 0.950 . S
H895 C924 0.950 . S
H896 C926 0.950 . S
H897 C927 0.950 . S
C898 H880 0.951 . S
C898 C899 1.366 . S
C898 C900 1.388 . S
C899 C898 1.366 . S
C899 C903 1.385 . S
C900 H881 0.951 . S
C900 C898 1.388 . S
C900 C901 1.366 . S
C901 C900 1.366 . S
C901 C902 1.414 . S
C901 C904 1.499 . S
C902 H882 0.950 . S
C902 C901 1.414 . S
C902 C903 1.374 . S
C903 H883 0.950 . S
C903 C899 1.385 . S
C903 C902 1.374 . S
C904 C901 1.499 . S
C904 C905 1.373 . S
C904 C906 1.389 . S
C905 H884 0.950 . S
C905 C904 1.373 . S
C905 C921 1.377 . S
C906 C904 1.389 . S
C906 C907 1.524 . S
C906 C920 1.377 . S
C907 C906 1.524 . S
C907 C908 1.397 . S
C907 C912 1.363 . S
C908 H885 0.950 . S
C908 C907 1.397 . S
C908 C909 1.334 . S
C909 H886 0.950 . S
C909 C908 1.334 . S
C909 C910 1.287 . S
C910 C909 1.287 . S
C910 C911 1.524 . S
C910 H929 0.913 . S
C911 H887 0.950 . S
C911 C910 1.524 . S
C911 C912 1.415 . S
C912 H888 0.950 . S
C912 C907 1.363 . S
C912 C911 1.415 . S
C913 H889 0.951 . S
C913 C914 1.366 . S
C913 C915 1.388 . S
C914 C913 1.366 . S
C914 C918 1.385 . S
C915 H890 0.951 . S
C915 C913 1.388 . S
C915 C916 1.366 . S
C916 C915 1.366 . S
C916 C917 1.414 . S
C916 C919 1.499 . S
C917 H891 0.950 . S
C917 C916 1.414 . S
C917 C918 1.374 . S
C918 H892 0.950 . S
C918 C914 1.385 . S
C918 C917 1.374 . S
C919 C916 1.499 . S
C919 C920 1.373 . S
C919 C921 1.389 . S
C920 H893 0.950 . S
C920 C906 1.377 . S
C920 C919 1.373 . S
C921 C905 1.377 . S
C921 C919 1.389 . S
C921 C922 1.524 . S
C922 C921 1.524 . S
C922 C923 1.397 . S
C922 C927 1.363 . S
C923 H894 0.950 . S
C923 C922 1.397 . S
C923 C924 1.334 . S
C924 H895 0.950 . S
C924 C923 1.334 . S
C924 C925 1.287 . S
C925 C924 1.287 . S
C925 C926 1.524 . S
C925 H928 0.999 . S
C926 H896 0.950 . S
C926 C925 1.524 . S
C926 C927 1.415 . S
C927 H897 0.950 . S
C927 C922 1.363 . S
C927 C926 1.415 . S
H928 C925 0.999 . S
H929 C910 0.913 . S
H930 C948 0.951 . S
H931 C950 0.951 . S
H932 C952 0.950 . S
H933 C953 0.950 1_545 S
H934 C955 0.950 . S
H935 C958 0.950 . S
H936 C959 0.950 . S
H937 C961 0.940 1_455 S
H938 C962 0.950 . S
H939 C963 0.951 . S
H940 C965 0.951 . S
H941 C967 0.950 . S
H942 C968 0.950 . S
H943 C970 0.951 . S
H944 C973 0.950 . S
H945 C974 0.950 . S
H946 C976 0.950 . S
H947 C977 0.950 . S
C948 H930 0.951 . S
C948 C949 1.366 . S
C948 C950 1.388 . S
C949 C948 1.366 . S
C949 C953 1.385 . S
C950 H931 0.951 . S
C950 C948 1.388 . S
C950 C951 1.366 . S
C951 C950 1.366 . S
C951 C952 1.414 1_565 S
C951 C954 1.499 . S
C952 H932 0.950 . S
C952 C951 1.414 1_545 S
C952 C953 1.374 1_545 S
C953 H933 0.950 1_565 S
C953 C949 1.385 . S
C953 C952 1.374 1_565 S
C954 C951 1.499 . S
C954 C955 1.373 . S
C954 C956 1.389 . S
C955 H934 0.950 . S
C955 C954 1.373 . S
C955 C971 1.377 . S
C956 C954 1.389 . S
C956 C957 1.524 . S
C956 C970 1.377 . S
C957 C956 1.524 . S
C957 C958 1.397 1_565 S
C957 C962 1.363 . S
C958 H935 0.950 . S
C958 C957 1.397 1_545 S
C958 C959 1.334 1_655 S
C959 H936 0.950 . S
C959 C958 1.334 1_455 S
C959 C960 1.287 . S
C960 C959 1.287 . S
C960 C961 1.516 1_445 S
C960 H979 0.913 . S
C961 H937 0.940 1_655 S
C961 C960 1.516 1_665 S
C961 C962 1.434 . S
C962 H938 0.950 . S
C962 C957 1.363 . S
C962 C961 1.434 . S
C963 H939 0.951 . S
C963 C964 1.366 . S
C963 C965 1.388 . S
C964 C963 1.366 . S
C964 C968 1.385 1_545 S
C965 H940 0.951 . S
C965 C963 1.388 . S
C965 C966 1.366 . S
C966 C965 1.366 . S
C966 C967 1.414 1_545 S
C966 C969 1.499 1_545 S
C967 H941 0.950 . S
C967 C966 1.414 1_565 S
C967 C968 1.374 . S
C968 H942 0.950 . S
C968 C964 1.385 1_565 S
C968 C967 1.374 . S
C969 C966 1.499 1_565 S
C969 C970 1.373 . S
C969 C971 1.389 . S
C970 H943 0.951 . S
C970 C956 1.377 . S
C970 C969 1.373 . S
C971 C955 1.377 . S
C971 C969 1.389 . S
C971 C972 1.524 . S
C972 C971 1.524 . S
C972 C973 1.397 . S
C972 C977 1.363 1_565 S
C973 H944 0.950 . S
C973 C972 1.397 . S
C973 C974 1.334 . S
C974 H945 0.950 . S
C974 C973 1.334 . S
C974 C975 1.287 . S
C975 C974 1.287 . S
C975 C976 1.524 1_565 S
C975 H978 0.999 . S
C976 H946 0.950 . S
C976 C975 1.524 1_545 S
C976 C977 1.415 . S
C977 H947 0.950 . S
C977 C972 1.363 1_545 S
C977 C976 1.415 . S
H978 C975 0.999 . S
H979 C960 0.913 . S
H980 C998 0.951 . S
H981 C1000 0.951 . S
H982 C1002 0.950 . S
H983 C1003 0.950 . S
H984 C1005 0.950 . S
H985 C1008 0.950 . S
H986 C1009 0.950 . S
H987 C1011 0.950 . S
H988 C1012 0.950 . S
H989 C1013 0.951 . S
H990 C1015 0.951 . S
H991 C1017 0.950 . S
H992 C1018 0.950 . S
H993 C1020 0.950 . S
H994 C1023 0.950 . S
H995 C1024 0.950 . S
H996 C1026 0.950 . S
H997 C1027 0.950 . S
C998 H980 0.951 . S
C998 C999 1.366 . S
C998 C1000 1.388 . S
C999 C998 1.366 . S
C999 C1003 1.385 . S
C1000 H981 0.951 . S
C1000 C998 1.388 . S
C1000 C1001 1.366 . S
C1001 C1000 1.366 . S
C1001 C1002 1.414 . S
C1001 C1004 1.499 . S
C1002 H982 0.950 . S
C1002 C1001 1.414 . S
C1002 C1003 1.374 . S
C1003 H983 0.950 . S
C1003 C999 1.385 . S
C1003 C1002 1.374 . S
C1004 C1001 1.499 . S
C1004 C1005 1.373 . S
C1004 C1006 1.389 . S
C1005 H984 0.950 . S
C1005 C1004 1.373 . S
C1005 C1021 1.377 . S
C1006 C1004 1.389 . S
C1006 C1007 1.524 . S
C1006 C1020 1.377 . S
C1007 C1006 1.524 . S
C1007 C1008 1.397 . S
C1007 C1012 1.363 . S
C1008 H985 0.950 . S
C1008 C1007 1.397 . S
C1008 C1009 1.334 . S
C1009 H986 0.950 . S
C1009 C1008 1.334 . S
C1009 C1010 1.287 . S
C1010 C1009 1.287 . S
C1010 C1011 1.524 . S
C1010 H1029 0.913 . S
C1011 H987 0.950 . S
C1011 C1010 1.524 . S
C1011 C1012 1.415 . S
C1012 H988 0.950 . S
C1012 C1007 1.363 . S
C1012 C1011 1.415 . S
C1013 H989 0.951 . S
C1013 C1014 1.366 . S
C1013 C1015 1.388 . S
C1014 C1013 1.366 . S
C1014 C1018 1.385 . S
C1015 H990 0.951 . S
C1015 C1013 1.388 . S
C1015 C1016 1.366 . S
C1016 C1015 1.366 . S
C1016 C1017 1.414 . S
C1016 C1019 1.499 . S
C1017 H991 0.950 . S
C1017 C1016 1.414 . S
C1017 C1018 1.374 . S
C1018 H992 0.950 . S
C1018 C1014 1.385 . S
C1018 C1017 1.374 . S
C1019 C1016 1.499 . S
C1019 C1020 1.373 . S
C1019 C1021 1.389 . S
C1020 H993 0.950 . S
C1020 C1006 1.377 . S
C1020 C1019 1.373 . S
C1021 C1005 1.377 . S
C1021 C1019 1.389 . S
C1021 C1022 1.524 . S
C1022 C1021 1.524 . S
C1022 C1023 1.397 . S
C1022 C1027 1.363 . S
C1023 H994 0.950 . S
C1023 C1022 1.397 . S
C1023 C1024 1.334 . S
C1024 H995 0.950 . S
C1024 C1023 1.334 . S
C1024 C1025 1.287 . S
C1025 C1024 1.287 . S
C1025 C1026 1.524 . S
C1025 H1028 0.999 . S
C1026 H996 0.950 . S
C1026 C1025 1.524 . S
C1026 C1027 1.415 . S
C1027 H997 0.950 . S
C1027 C1022 1.363 . S
C1027 C1026 1.415 . S
H1028 C1025 0.999 . S
H1029 C1010 0.913 . S
H1030 C1048 0.951 . S
H1031 C1050 0.951 . S
H1032 C1052 0.950 . S
H1033 C1053 0.950 . S
H1034 C1055 0.950 . S
H1035 C1058 0.950 . S
H1036 C1059 0.950 . S
H1037 C1061 0.950 . S
H1038 C1062 0.950 . S
H1039 C1063 0.951 . S
H1040 C1065 0.951 . S
H1041 C1067 0.950 . S
H1042 C1068 0.950 . S
H1043 C1070 0.950 . S
H1044 C1073 0.950 . S
H1045 C1074 0.950 . S
H1046 C1076 0.950 . S
H1047 C1077 0.950 . S
C1048 H1030 0.951 . S
C1048 C1049 1.366 . S
C1048 C1050 1.388 . S
C1049 C1048 1.366 . S
C1049 C1053 1.385 . S
C1050 H1031 0.951 . S
C1050 C1048 1.388 . S
C1050 C1051 1.366 . S
C1051 C1050 1.366 . S
C1051 C1052 1.414 . S
C1051 C1054 1.499 . S
C1052 H1032 0.950 . S
C1052 C1051 1.414 . S
C1052 C1053 1.374 . S
C1053 H1033 0.950 . S
C1053 C1049 1.385 . S
C1053 C1052 1.374 . S
C1054 C1051 1.499 . S
C1054 C1055 1.373 . S
C1054 C1056 1.389 . S
C1055 H1034 0.950 . S
C1055 C1054 1.373 . S
C1055 C1071 1.377 . S
C1056 C1054 1.389 . S
C1056 C1057 1.524 . S
C1056 C1070 1.377 . S
C1057 C1056 1.524 . S
C1057 C1058 1.397 . S
C1057 C1062 1.363 . S
C1058 H1035 0.950 . S
C1058 C1057 1.397 . S
C1058 C1059 1.334 . S
C1059 H1036 0.950 . S
C1059 C1058 1.334 . S
C1059 C1060 1.287 . S
C1060 C1059 1.287 . S
C1060 C1061 1.524 . S
C1060 H1079 0.913 . S
C1061 H1037 0.950 . S
C1061 C1060 1.524 . S
C1061 C1062 1.415 . S
C1062 H1038 0.950 . S
C1062 C1057 1.363 . S
C1062 C1061 1.415 . S
C1063 H1039 0.951 . S
C1063 C1064 1.366 . S
C1063 C1065 1.388 . S
C1064 C1063 1.366 . S
C1064 C1068 1.385 . S
C1065 H1040 0.951 . S
C1065 C1063 1.388 . S
C1065 C1066 1.366 . S
C1066 C1065 1.366 . S
C1066 C1067 1.414 . S
C1066 C1069 1.499 . S
C1067 H1041 0.950 . S
C1067 C1066 1.414 . S
C1067 C1068 1.374 . S
C1068 H1042 0.950 . S
C1068 C1064 1.385 . S
C1068 C1067 1.374 . S
C1069 C1066 1.499 . S
C1069 C1070 1.373 . S
C1069 C1071 1.389 . S
C1070 H1043 0.950 . S
C1070 C1056 1.377 . S
C1070 C1069 1.373 . S
C1071 C1055 1.377 . S
C1071 C1069 1.389 . S
C1071 C1072 1.524 . S
C1072 C1071 1.524 . S
C1072 C1073 1.397 . S
C1072 C1077 1.363 . S
C1073 H1044 0.950 . S
C1073 C1072 1.397 . S
C1073 C1074 1.334 . S
C1074 H1045 0.950 . S
C1074 C1073 1.334 . S
C1074 C1075 1.287 . S
C1075 C1074 1.287 . S
C1075 C1076 1.524 . S
C1075 H1078 0.999 . S
C1076 H1046 0.950 . S
C1076 C1075 1.524 . S
C1076 C1077 1.415 . S
C1077 H1047 0.950 . S
C1077 C1072 1.363 . S
C1077 C1076 1.415 . S
H1078 C1075 0.999 . S
H1079 C1060 0.913 . S
H1080 C1098 0.951 . S
H1081 C1100 0.951 . S
H1082 C1102 0.950 . S
H1083 C1103 0.950 . S
H1084 C1105 0.950 . S
H1085 C1108 0.950 . S
H1086 C1109 0.950 . S
H1087 C1111 0.950 . S
H1088 C1112 0.950 . S
H1089 C1113 0.951 . S
H1090 C1115 0.951 . S
H1091 C1117 0.950 . S
H1092 C1118 0.950 . S
H1093 C1120 0.950 . S
H1094 C1123 0.950 . S
H1095 C1124 0.950 . S
H1096 C1126 0.950 . S
H1097 C1127 0.950 . S
C1098 H1080 0.951 . S
C1098 C1099 1.366 . S
C1098 C1100 1.388 . S
C1099 C1098 1.366 . S
C1099 C1103 1.385 . S
C1100 H1081 0.951 . S
C1100 C1098 1.388 . S
C1100 C1101 1.366 . S
C1101 C1100 1.366 . S
C1101 C1102 1.414 . S
C1101 C1104 1.499 . S
C1102 H1082 0.950 . S
C1102 C1101 1.414 . S
C1102 C1103 1.374 . S
C1103 H1083 0.950 . S
C1103 C1099 1.385 . S
C1103 C1102 1.374 . S
C1104 C1101 1.499 . S
C1104 C1105 1.373 . S
C1104 C1106 1.389 . S
C1105 H1084 0.950 . S
C1105 C1104 1.373 . S
C1105 C1121 1.377 . S
C1106 C1104 1.389 . S
C1106 C1107 1.524 . S
C1106 C1120 1.377 . S
C1107 C1106 1.524 . S
C1107 C1108 1.397 . S
C1107 C1112 1.363 . S
C1108 H1085 0.950 . S
C1108 C1107 1.397 . S
C1108 C1109 1.334 . S
C1109 H1086 0.950 . S
C1109 C1108 1.334 . S
C1109 C1110 1.287 . S
C1110 C1109 1.287 . S
C1110 C1111 1.524 . S
C1110 H1129 0.913 . S
C1111 H1087 0.950 . S
C1111 C1110 1.524 . S
C1111 C1112 1.415 . S
C1112 H1088 0.950 . S
C1112 C1107 1.363 . S
C1112 C1111 1.415 . S
C1113 H1089 0.951 . S
C1113 C1114 1.366 . S
C1113 C1115 1.388 . S
C1114 C1113 1.366 . S
C1114 C1118 1.385 . S
C1115 H1090 0.951 . S
C1115 C1113 1.388 . S
C1115 C1116 1.366 . S
C1116 C1115 1.366 . S
C1116 C1117 1.414 . S
C1116 C1119 1.499 . S
C1117 H1091 0.950 . S
C1117 C1116 1.414 . S
C1117 C1118 1.374 . S
C1118 H1092 0.950 . S
C1118 C1114 1.385 . S
C1118 C1117 1.374 . S
C1119 C1116 1.499 . S
C1119 C1120 1.373 . S
C1119 C1121 1.389 . S
C1120 H1093 0.950 . S
C1120 C1106 1.377 . S
C1120 C1119 1.373 . S
C1121 C1105 1.377 . S
C1121 C1119 1.389 . S
C1121 C1122 1.524 . S
C1122 C1121 1.524 . S
C1122 C1123 1.397 . S
C1122 C1127 1.363 . S
C1123 H1094 0.950 . S
C1123 C1122 1.397 . S
C1123 C1124 1.334 . S
C1124 H1095 0.950 . S
C1124 C1123 1.334 . S
C1124 C1125 1.287 . S
C1125 C1124 1.287 . S
C1125 C1126 1.524 . S
C1125 H1128 0.999 . S
C1126 H1096 0.950 . S
C1126 C1125 1.524 . S
C1126 C1127 1.415 . S
C1127 H1097 0.950 . S
C1127 C1122 1.363 . S
C1127 C1126 1.415 . S
H1128 C1125 0.999 . S
H1129 C1110 0.913 . S
H1130 C1148 0.951 . S
H1131 C1150 0.951 . S
H1132 C1152 0.950 1_545 S
H1133 C1153 0.925 1_545 S
H1134 C1155 0.971 . S
H1135 C1158 0.950 . S
H1136 C1159 0.950 . S
H1137 C1161 0.950 . S
H1138 C1162 0.950 . S
H1139 C1163 0.951 . S
H1140 C1165 0.951 . S
H1141 C1167 0.950 . S
H1142 C1168 0.950 . S
H1143 C1170 0.950 . S
H1144 C1173 0.950 . S
H1145 C1174 0.950 . S
H1146 C1176 0.950 . S
H1147 C1177 0.950 . S
C1148 H1130 0.951 . S
C1148 C1149 1.366 . S
C1148 C1150 1.388 . S
C1149 C1148 1.366 . S
C1149 C1153 1.385 . S
C1150 H1131 0.951 . S
C1150 C1148 1.388 . S
C1150 C1151 1.366 . S
C1151 C1150 1.366 . S
C1151 C1152 1.414 . S
C1151 C1154 1.499 . S
C1152 H1132 0.950 1_565 S
C1152 C1151 1.414 . S
C1152 C1153 1.374 . S
C1153 H1133 0.925 1_565 S
C1153 C1149 1.385 . S
C1153 C1152 1.374 . S
C1154 C1151 1.499 . S
C1154 C1155 1.351 1_565 S
C1154 C1156 1.389 . S
C1155 H1134 0.971 . S
C1155 C1154 1.351 1_545 S
C1155 C1171 1.379 . S
C1156 C1154 1.389 . S
C1156 C1157 1.524 . S
C1156 C1170 1.377 . S
C1157 C1156 1.524 . S
C1157 C1158 1.397 . S
C1157 C1162 1.363 . S
C1158 H1135 0.950 . S
C1158 C1157 1.397 . S
C1158 C1159 1.334 . S
C1159 H1136 0.950 . S
C1159 C1158 1.334 . S
C1159 C1160 1.287 . S
C1160 C1159 1.287 . S
C1160 C1161 1.524 . S
C1160 H1179 0.913 . S
C1161 H1137 0.950 . S
C1161 C1160 1.524 . S
C1161 C1162 1.415 . S
C1162 H1138 0.950 . S
C1162 C1157 1.363 . S
C1162 C1161 1.415 . S
C1163 H1139 0.951 . S
C1163 C1164 1.366 1_545 S
C1163 C1165 1.388 . S
C1164 C1163 1.366 1_565 S
C1164 C1168 1.385 . S
C1165 H1140 0.951 . S
C1165 C1163 1.388 . S
C1165 C1166 1.366 1_545 S
C1166 C1165 1.366 1_565 S
C1166 C1167 1.414 . S
C1166 C1169 1.499 . S
C1167 H1141 0.950 . S
C1167 C1166 1.414 . S
C1167 C1168 1.374 . S
C1168 H1142 0.950 . S
C1168 C1164 1.385 . S
C1168 C1167 1.374 . S
C1169 C1166 1.499 . S
C1169 C1170 1.373 . S
C1169 C1171 1.389 1_565 S
C1170 H1143 0.950 . S
C1170 C1156 1.377 . S
C1170 C1169 1.373 . S
C1171 C1155 1.379 . S
C1171 C1169 1.389 1_545 S
C1171 C1172 1.524 . S
C1172 C1171 1.524 . S
C1172 C1173 1.397 . S
C1172 C1177 1.363 . S
C1173 H1144 0.950 . S
C1173 C1172 1.397 . S
C1173 C1174 1.334 . S
C1174 H1145 0.950 . S
C1174 C1173 1.334 . S
C1174 C1175 1.287 . S
C1175 C1174 1.287 . S
C1175 C1176 1.524 . S
C1175 H1178 0.999 . S
C1176 H1146 0.950 . S
C1176 C1175 1.524 . S
C1176 C1177 1.415 . S
C1177 H1147 0.950 . S
C1177 C1172 1.363 . S
C1177 C1176 1.415 . S
H1178 C1175 0.999 . S
H1179 C1160 0.913 . S
H1180 C1198 0.951 . S
H1181 C1200 0.951 . S
H1182 C1202 0.950 . S
H1183 C1203 0.950 . S
H1184 C1205 0.950 . S
H1185 C1208 0.950 . S
H1186 C1209 0.950 . S
H1187 C1211 0.950 . S
H1188 C1212 0.950 . S
H1189 C1213 0.951 . S
H1190 C1215 0.951 . S
H1191 C1217 0.950 . S
H1192 C1218 0.950 . S
H1193 C1220 0.950 . S
H1194 C1223 0.950 . S
H1195 C1224 0.950 . S
H1196 C1226 0.950 . S
H1197 C1227 0.950 . S
C1198 H1180 0.951 . S
C1198 C1199 1.366 . S
C1198 C1200 1.388 . S
C1199 C1198 1.366 . S
C1199 C1203 1.385 . S
C1200 H1181 0.951 . S
C1200 C1198 1.388 . S
C1200 C1201 1.366 . S
C1201 C1200 1.366 . S
C1201 C1202 1.414 . S
C1201 C1204 1.499 . S
C1202 H1182 0.950 . S
C1202 C1201 1.414 . S
C1202 C1203 1.374 . S
C1203 H1183 0.950 . S
C1203 C1199 1.385 . S
C1203 C1202 1.374 . S
C1204 C1201 1.499 . S
C1204 C1205 1.373 . S
C1204 C1206 1.389 . S
C1205 H1184 0.950 . S
C1205 C1204 1.373 . S
C1205 C1221 1.377 . S
C1206 C1204 1.389 . S
C1206 C1207 1.524 . S
C1206 C1220 1.377 . S
C1207 C1206 1.524 . S
C1207 C1208 1.397 . S
C1207 C1212 1.363 . S
C1208 H1185 0.950 . S
C1208 C1207 1.397 . S
C1208 C1209 1.334 . S
C1209 H1186 0.950 . S
C1209 C1208 1.334 . S
C1209 C1210 1.287 . S
C1210 C1209 1.287 . S
C1210 C1211 1.524 . S
C1210 H1229 0.913 . S
C1211 H1187 0.950 . S
C1211 C1210 1.524 . S
C1211 C1212 1.415 . S
C1212 H1188 0.950 . S
C1212 C1207 1.363 . S
C1212 C1211 1.415 . S
C1213 H1189 0.951 . S
C1213 C1214 1.366 . S
C1213 C1215 1.388 . S
C1214 C1213 1.366 . S
C1214 C1218 1.385 . S
C1215 H1190 0.951 . S
C1215 C1213 1.388 . S
C1215 C1216 1.366 . S
C1216 C1215 1.366 . S
C1216 C1217 1.414 . S
C1216 C1219 1.499 . S
C1217 H1191 0.950 . S
C1217 C1216 1.414 . S
C1217 C1218 1.374 . S
C1218 H1192 0.950 . S
C1218 C1214 1.385 . S
C1218 C1217 1.374 . S
C1219 C1216 1.499 . S
C1219 C1220 1.373 . S
C1219 C1221 1.389 . S
C1220 H1193 0.950 . S
C1220 C1206 1.377 . S
C1220 C1219 1.373 . S
C1221 C1205 1.377 . S
C1221 C1219 1.389 . S
C1221 C1222 1.524 . S
C1222 C1221 1.524 . S
C1222 C1223 1.397 . S
C1222 C1227 1.363 . S
C1223 H1194 0.950 . S
C1223 C1222 1.397 . S
C1223 C1224 1.334 . S
C1224 H1195 0.950 . S
C1224 C1223 1.334 . S
C1224 C1225 1.287 . S
C1225 C1224 1.287 . S
C1225 C1226 1.524 . S
C1225 H1228 0.999 . S
C1226 H1196 0.950 . S
C1226 C1225 1.524 . S
C1226 C1227 1.415 . S
C1227 H1197 0.950 . S
C1227 C1222 1.363 . S
C1227 C1226 1.415 . S
H1228 C1225 0.999 . S
H1229 C1210 0.913 . S
H1230 C1248 0.951 . S
H1231 C1250 0.951 . S
H1232 C1252 0.950 . S
H1233 C1253 0.950 . S
H1234 C1255 0.950 . S
H1235 C1258 0.950 . S
H1236 C1259 0.950 . S
H1237 C1261 0.950 . S
H1238 C1262 0.950 . S
H1239 C1263 0.951 . S
H1240 C1265 0.951 . S
H1241 C1267 0.950 . S
H1242 C1268 0.950 . S
H1243 C1270 0.950 . S
H1244 C1273 0.950 . S
H1245 C1274 0.950 . S
H1246 C1276 0.950 . S
H1247 C1277 0.950 . S
C1248 H1230 0.951 . S
C1248 C1249 1.366 . S
C1248 C1250 1.388 . S
C1249 C1248 1.366 . S
C1249 C1253 1.385 . S
C1250 H1231 0.951 . S
C1250 C1248 1.388 . S
C1250 C1251 1.366 . S
C1251 C1250 1.366 . S
C1251 C1252 1.414 . S
C1251 C1254 1.499 . S
C1252 H1232 0.950 . S
C1252 C1251 1.414 . S
C1252 C1253 1.374 . S
C1253 H1233 0.950 . S
C1253 C1249 1.385 . S
C1253 C1252 1.374 . S
C1254 C1251 1.499 . S
C1254 C1255 1.373 . S
C1254 C1256 1.389 . S
C1255 H1234 0.950 . S
C1255 C1254 1.373 . S
C1255 C1271 1.377 . S
C1256 C1254 1.389 . S
C1256 C1257 1.524 . S
C1256 C1270 1.377 . S
C1257 C1256 1.524 . S
C1257 C1258 1.397 . S
C1257 C1262 1.363 . S
C1258 H1235 0.950 . S
C1258 C1257 1.397 . S
C1258 C1259 1.334 . S
C1259 H1236 0.950 . S
C1259 C1258 1.334 . S
C1259 C1260 1.287 . S
C1260 C1259 1.287 . S
C1260 C1261 1.524 . S
C1260 H1279 0.913 . S
C1261 H1237 0.950 . S
C1261 C1260 1.524 . S
C1261 C1262 1.415 . S
C1262 H1238 0.950 . S
C1262 C1257 1.363 . S
C1262 C1261 1.415 . S
C1263 H1239 0.951 . S
C1263 C1264 1.366 . S
C1263 C1265 1.388 . S
C1264 C1263 1.366 . S
C1264 C1268 1.385 . S
C1265 H1240 0.951 . S
C1265 C1263 1.388 . S
C1265 C1266 1.366 . S
C1266 C1265 1.366 . S
C1266 C1267 1.414 . S
C1266 C1269 1.499 . S
C1267 H1241 0.950 . S
C1267 C1266 1.414 . S
C1267 C1268 1.374 . S
C1268 H1242 0.950 . S
C1268 C1264 1.385 . S
C1268 C1267 1.374 . S
C1269 C1266 1.499 . S
C1269 C1270 1.373 . S
C1269 C1271 1.389 . S
C1270 H1243 0.950 . S
C1270 C1256 1.377 . S
C1270 C1269 1.373 . S
C1271 C1255 1.377 . S
C1271 C1269 1.389 . S
C1271 C1272 1.524 . S
C1272 C1271 1.524 . S
C1272 C1273 1.397 . S
C1272 C1277 1.363 . S
C1273 H1244 0.950 . S
C1273 C1272 1.397 . S
C1273 C1274 1.334 . S
C1274 H1245 0.950 . S
C1274 C1273 1.334 . S
C1274 C1275 1.287 . S
C1275 C1274 1.287 . S
C1275 C1276 1.524 . S
C1275 H1278 0.999 . S
C1276 H1246 0.950 . S
C1276 C1275 1.524 . S
C1276 C1277 1.415 . S
C1277 H1247 0.950 . S
C1277 C1272 1.363 . S
C1277 C1276 1.415 . S
H1278 C1275 0.999 . S
H1279 C1260 0.913 . S
H1280 C1298 0.951 . S
H1281 C1300 0.951 . S
H1282 C1302 0.950 . S
H1283 C1303 0.950 . S
H1284 C1305 0.950 . S
H1285 C1308 0.950 . S
H1286 C1309 0.950 . S
H1287 C1311 0.950 . S
H1288 C1312 0.950 . S
H1289 C1313 0.951 . S
H1290 C1315 0.951 . S
H1291 C1317 0.950 . S
H1292 C1318 0.950 . S
H1293 C1320 0.950 . S
H1294 C1323 0.950 . S
H1295 C1324 0.950 . S
H1296 C1326 0.950 . S
H1297 C1327 0.950 . S
C1298 H1280 0.951 . S
C1298 C1299 1.366 . S
C1298 C1300 1.388 . S
C1299 C1298 1.366 . S
C1299 C1303 1.385 . S
C1300 H1281 0.951 . S
C1300 C1298 1.388 . S
C1300 C1301 1.366 . S
C1301 C1300 1.366 . S
C1301 C1302 1.414 . S
C1301 C1304 1.499 . S
C1302 H1282 0.950 . S
C1302 C1301 1.414 . S
C1302 C1303 1.374 . S
C1303 H1283 0.950 . S
C1303 C1299 1.385 . S
C1303 C1302 1.374 . S
C1304 C1301 1.499 . S
C1304 C1305 1.373 . S
C1304 C1306 1.389 . S
C1305 H1284 0.950 . S
C1305 C1304 1.373 . S
C1305 C1321 1.377 . S
C1306 C1304 1.389 . S
C1306 C1307 1.524 . S
C1306 C1320 1.377 . S
C1307 C1306 1.524 . S
C1307 C1308 1.397 . S
C1307 C1312 1.363 . S
C1308 H1285 0.950 . S
C1308 C1307 1.397 . S
C1308 C1309 1.334 . S
C1309 H1286 0.950 . S
C1309 C1308 1.334 . S
C1309 C1310 1.287 . S
C1310 C1309 1.287 . S
C1310 C1311 1.524 . S
C1310 H1329 0.913 . S
C1311 H1287 0.950 . S
C1311 C1310 1.524 . S
C1311 C1312 1.415 . S
C1312 H1288 0.950 . S
C1312 C1307 1.363 . S
C1312 C1311 1.415 . S
C1313 H1289 0.951 . S
C1313 C1314 1.366 . S
C1313 C1315 1.388 . S
C1314 C1313 1.366 . S
C1314 C1318 1.385 . S
C1315 H1290 0.951 . S
C1315 C1313 1.388 . S
C1315 C1316 1.366 . S
C1316 C1315 1.366 . S
C1316 C1317 1.414 . S
C1316 C1319 1.499 . S
C1317 H1291 0.950 . S
C1317 C1316 1.414 . S
C1317 C1318 1.374 . S
C1318 H1292 0.950 . S
C1318 C1314 1.385 . S
C1318 C1317 1.374 . S
C1319 C1316 1.499 . S
C1319 C1320 1.373 . S
C1319 C1321 1.389 . S
C1320 H1293 0.950 . S
C1320 C1306 1.377 . S
C1320 C1319 1.373 . S
C1321 C1305 1.377 . S
C1321 C1319 1.389 . S
C1321 C1322 1.524 . S
C1322 C1321 1.524 . S
C1322 C1323 1.397 . S
C1322 C1327 1.363 . S
C1323 H1294 0.950 . S
C1323 C1322 1.397 . S
C1323 C1324 1.334 . S
C1324 H1295 0.950 . S
C1324 C1323 1.334 . S
C1324 C1325 1.287 . S
C1325 C1324 1.287 . S
C1325 C1326 1.524 . S
C1325 H1328 0.999 . S
C1326 H1296 0.950 . S
C1326 C1325 1.524 . S
C1326 C1327 1.415 . S
C1327 H1297 0.950 . S
C1327 C1322 1.363 . S
C1327 C1326 1.415 . S
H1328 C1325 0.999 . S
H1329 C1310 0.913 . S
H1330 C1348 0.951 . S
H1331 C1350 0.951 . S
H1332 C1352 0.950 . S
H1333 C1353 0.950 . S
H1334 C1355 0.950 . S
H1335 C1358 0.950 . S
H1336 C1359 0.950 . S
H1337 C1361 0.950 . S
H1338 C1362 0.950 . S
H1339 C1363 0.951 . S
H1340 C1365 0.951 . S
H1341 C1367 0.950 . S
H1342 C1368 0.950 . S
H1343 C1370 0.950 . S
H1344 C1373 0.950 . S
H1345 C1374 0.950 . S
H1346 C1376 0.950 . S
H1347 C1377 0.950 . S
C1348 H1330 0.951 . S
C1348 C1349 1.366 . S
C1348 C1350 1.388 . S
C1349 C1348 1.366 . S
C1349 C1353 1.385 . S
C1350 H1331 0.951 . S
C1350 C1348 1.388 . S
C1350 C1351 1.366 . S
C1351 C1350 1.366 . S
C1351 C1352 1.414 . S
C1351 C1354 1.499 . S
C1352 H1332 0.950 . S
C1352 C1351 1.414 . S
C1352 C1353 1.374 . S
C1353 H1333 0.950 . S
C1353 C1349 1.385 . S
C1353 C1352 1.374 . S
C1354 C1351 1.499 . S
C1354 C1355 1.373 . S
C1354 C1356 1.389 . S
C1355 H1334 0.950 . S
C1355 C1354 1.373 . S
C1355 C1371 1.377 . S
C1356 C1354 1.389 . S
C1356 C1357 1.524 . S
C1356 C1370 1.377 . S
C1357 C1356 1.524 . S
C1357 C1358 1.397 . S
C1357 C1362 1.363 . S
C1358 H1335 0.950 . S
C1358 C1357 1.397 . S
C1358 C1359 1.334 . S
C1359 H1336 0.950 . S
C1359 C1358 1.334 . S
C1359 C1360 1.287 . S
C1360 C1359 1.287 . S
C1360 C1361 1.524 . S
C1360 H1379 0.913 . S
C1361 H1337 0.950 . S
C1361 C1360 1.524 . S
C1361 C1362 1.415 . S
C1362 H1338 0.950 . S
C1362 C1357 1.363 . S
C1362 C1361 1.415 . S
C1363 H1339 0.951 . S
C1363 C1364 1.366 . S
C1363 C1365 1.388 . S
C1364 C1363 1.366 . S
C1364 C1368 1.385 . S
C1365 H1340 0.951 . S
C1365 C1363 1.388 . S
C1365 C1366 1.366 . S
C1366 C1365 1.366 . S
C1366 C1367 1.414 . S
C1366 C1369 1.499 . S
C1367 H1341 0.950 . S
C1367 C1366 1.414 . S
C1367 C1368 1.374 . S
C1368 H1342 0.950 . S
C1368 C1364 1.385 . S
C1368 C1367 1.374 . S
C1369 C1366 1.499 . S
C1369 C1370 1.373 . S
C1369 C1371 1.389 . S
C1370 H1343 0.950 . S
C1370 C1356 1.377 . S
C1370 C1369 1.373 . S
C1371 C1355 1.377 . S
C1371 C1369 1.389 . S
C1371 C1372 1.524 . S
C1372 C1371 1.524 . S
C1372 C1373 1.397 . S
C1372 C1377 1.363 . S
C1373 H1344 0.950 . S
C1373 C1372 1.397 . S
C1373 C1374 1.334 . S
C1374 H1345 0.950 . S
C1374 C1373 1.334 . S
C1374 C1375 1.287 . S
C1375 C1374 1.287 . S
C1375 C1376 1.524 . S
C1375 H1378 0.999 . S
C1376 H1346 0.950 . S
C1376 C1375 1.524 . S
C1376 C1377 1.415 . S
C1377 H1347 0.950 . S
C1377 C1372 1.363 . S
C1377 C1376 1.415 . S
H1378 C1375 0.999 . S
H1379 C1360 0.913 . S
H1380 C1398 0.951 . S
H1381 C1400 0.951 . S
H1382 C1402 0.950 . S
H1383 C1403 0.950 . S
H1384 C1405 0.950 . S
H1385 C1408 0.950 . S
H1386 C1409 0.950 . S
H1387 C1411 0.950 . S
H1388 C1412 0.950 . S
H1389 C1413 0.951 . S
H1390 C1415 0.951 . S
H1391 C1417 0.950 . S
H1392 C1418 0.950 . S
H1393 C1420 0.950 . S
H1394 C1423 0.950 . S
H1395 C1424 0.950 . S
H1396 C1426 0.950 . S
H1397 C1427 0.950 . S
C1398 H1380 0.951 . S
C1398 C1399 1.366 . S
C1398 C1400 1.388 . S
C1399 C1398 1.366 . S
C1399 C1403 1.385 . S
C1400 H1381 0.951 . S
C1400 C1398 1.388 . S
C1400 C1401 1.366 . S
C1401 C1400 1.366 . S
C1401 C1402 1.414 . S
C1401 C1404 1.499 . S
C1402 H1382 0.950 . S
C1402 C1401 1.414 . S
C1402 C1403 1.374 . S
C1403 H1383 0.950 . S
C1403 C1399 1.385 . S
C1403 C1402 1.374 . S
C1404 C1401 1.499 . S
C1404 C1405 1.373 . S
C1404 C1406 1.389 . S
C1405 H1384 0.950 . S
C1405 C1404 1.373 . S
C1405 C1421 1.377 . S
C1406 C1404 1.389 . S
C1406 C1407 1.524 . S
C1406 C1420 1.377 . S
C1407 C1406 1.524 . S
C1407 C1408 1.397 . S
C1407 C1412 1.363 . S
C1408 H1385 0.950 . S
C1408 C1407 1.397 . S
C1408 C1409 1.334 . S
C1409 H1386 0.950 . S
C1409 C1408 1.334 . S
C1409 C1410 1.287 . S
C1410 C1409 1.287 . S
C1410 C1411 1.524 . S
C1410 H1429 0.913 . S
C1411 H1387 0.950 . S
C1411 C1410 1.524 . S
C1411 C1412 1.415 . S
C1412 H1388 0.950 . S
C1412 C1407 1.363 . S
C1412 C1411 1.415 . S
C1413 H1389 0.951 . S
C1413 C1414 1.366 . S
C1413 C1415 1.388 . S
C1414 C1413 1.366 . S
C1414 C1418 1.385 . S
C1415 H1390 0.951 . S
C1415 C1413 1.388 . S
C1415 C1416 1.366 . S
C1416 C1415 1.366 . S
C1416 C1417 1.414 . S
C1416 C1419 1.499 . S
C1417 H1391 0.950 . S
C1417 C1416 1.414 . S
C1417 C1418 1.374 . S
C1418 H1392 0.950 . S
C1418 C1414 1.385 . S
C1418 C1417 1.374 . S
C1419 C1416 1.499 . S
C1419 C1420 1.373 . S
C1419 C1421 1.389 . S
C1420 H1393 0.950 . S
C1420 C1406 1.377 . S
C1420 C1419 1.373 . S
C1421 C1405 1.377 . S
C1421 C1419 1.389 . S
C1421 C1422 1.524 . S
C1422 C1421 1.524 . S
C1422 C1423 1.397 . S
C1422 C1427 1.363 . S
C1423 H1394 0.950 . S
C1423 C1422 1.397 . S
C1423 C1424 1.334 . S
C1424 H1395 0.950 . S
C1424 C1423 1.334 . S
C1424 C1425 1.287 . S
C1425 C1424 1.287 . S
C1425 C1426 1.524 . S
C1425 H1428 0.999 . S
C1426 H1396 0.950 . S
C1426 C1425 1.524 . S
C1426 C1427 1.415 . S
C1427 H1397 0.950 . S
C1427 C1422 1.363 . S
C1427 C1426 1.415 . S
H1428 C1425 0.999 . S
H1429 C1410 0.913 . S
H1430 C1448 0.951 . S
H1431 C1450 0.951 . S
H1432 C1452 0.950 . S
H1433 C1453 0.950 . S
H1434 C1455 0.950 . S
H1435 C1458 0.950 . S
H1436 C1459 0.950 . S
H1437 C1461 0.950 . S
H1438 C1462 0.950 . S
H1439 C1463 0.951 . S
H1440 C1465 0.919 1_655 S
H1441 C1467 0.950 . S
H1442 C1468 0.950 . S
H1443 C1470 0.950 . S
H1444 C1473 0.950 . S
H1445 C1474 0.950 . S
H1446 C1476 0.931 1_655 S
H1447 C1477 0.950 1_655 S
C1448 H1430 0.951 . S
C1448 C1449 1.366 . S
C1448 C1450 1.388 . S
C1449 C1448 1.366 . S
C1449 C1453 1.385 . S
C1450 H1431 0.951 . S
C1450 C1448 1.388 . S
C1450 C1451 1.366 . S
C1451 C1450 1.366 . S
C1451 C1452 1.414 . S
C1451 C1454 1.499 . S
C1452 H1432 0.950 . S
C1452 C1451 1.414 . S
C1452 C1453 1.374 . S
C1453 H1433 0.950 . S
C1453 C1449 1.385 . S
C1453 C1452 1.374 . S
C1454 C1451 1.499 . S
C1454 C1455 1.373 . S
C1454 C1456 1.389 . S
C1455 H1434 0.950 . S
C1455 C1454 1.373 . S
C1455 C1471 1.377 . S
C1456 C1454 1.389 . S
C1456 C1457 1.524 . S
C1456 C1470 1.377 . S
C1457 C1456 1.524 . S
C1457 C1458 1.397 . S
C1457 C1462 1.363 . S
C1458 H1435 0.950 . S
C1458 C1457 1.397 . S
C1458 C1459 1.334 . S
C1459 H1436 0.950 . S
C1459 C1458 1.334 . S
C1459 C1460 1.287 . S
C1460 C1459 1.287 . S
C1460 C1461 1.524 . S
C1460 H1479 0.913 . S
C1461 H1437 0.950 . S
C1461 C1460 1.524 . S
C1461 C1462 1.415 . S
C1462 H1438 0.950 . S
C1462 C1457 1.363 . S
C1462 C1461 1.415 . S
C1463 H1439 0.951 . S
C1463 C1464 1.366 1_655 S
C1463 C1465 1.383 1_655 S
C1464 C1463 1.366 1_455 S
C1464 C1468 1.385 . S
C1465 H1440 0.919 1_455 S
C1465 C1463 1.383 1_455 S
C1465 C1466 1.403 . S
C1466 C1465 1.403 . S
C1466 C1467 1.414 . S
C1466 C1469 1.499 . S
C1467 H1441 0.950 . S
C1467 C1466 1.414 . S
C1467 C1468 1.374 . S
C1468 H1442 0.950 . S
C1468 C1464 1.385 . S
C1468 C1467 1.374 . S
C1469 C1466 1.499 . S
C1469 C1470 1.373 . S
C1469 C1471 1.389 . S
C1470 H1443 0.950 . S
C1470 C1456 1.377 . S
C1470 C1469 1.373 . S
C1471 C1455 1.377 . S
C1471 C1469 1.389 . S
C1471 C1472 1.524 . S
C1472 C1471 1.524 . S
C1472 C1473 1.397 . S
C1472 C1477 1.363 . S
C1473 H1444 0.950 . S
C1473 C1472 1.397 . S
C1473 C1474 1.334 . S
C1474 H1445 0.950 . S
C1474 C1473 1.334 . S
C1474 C1475 1.287 . S
C1475 C1474 1.287 . S
C1475 C1476 1.543 . S
C1475 H1478 0.999 . S
C1476 H1446 0.931 1_455 S
C1476 C1475 1.543 . S
C1476 C1477 1.417 . S
C1477 H1447 0.950 1_455 S
C1477 C1472 1.363 . S
C1477 C1476 1.417 . S
H1478 C1475 0.999 . S
H1479 C1460 0.913 . S
H1480 C1498 0.951 . S
H1481 C1500 0.951 . S
H1482 C1502 0.950 . S
H1483 C1503 0.950 . S
H1484 C1505 0.950 . S
H1485 C1508 0.950 . S
H1486 C1509 0.950 . S
H1487 C1511 0.950 . S
H1488 C1512 0.950 . S
H1489 C1513 0.951 . S
H1490 C1515 0.951 . S
H1491 C1517 0.950 . S
H1492 C1518 0.950 . S
H1493 C1520 0.950 . S
H1494 C1523 0.950 . S
H1495 C1524 0.950 . S
H1496 C1526 0.950 . S
H1497 C1527 0.950 . S
C1498 H1480 0.951 . S
C1498 C1499 1.366 . S
C1498 C1500 1.388 . S
C1499 C1498 1.366 . S
C1499 C1503 1.385 . S
C1500 H1481 0.951 . S
C1500 C1498 1.388 . S
C1500 C1501 1.366 . S
C1501 C1500 1.366 . S
C1501 C1502 1.414 . S
C1501 C1504 1.499 . S
C1502 H1482 0.950 . S
C1502 C1501 1.414 . S
C1502 C1503 1.374 . S
C1503 H1483 0.950 . S
C1503 C1499 1.385 . S
C1503 C1502 1.374 . S
C1504 C1501 1.499 . S
C1504 C1505 1.373 . S
C1504 C1506 1.389 . S
C1505 H1484 0.950 . S
C1505 C1504 1.373 . S
C1505 C1521 1.377 . S
C1506 C1504 1.389 . S
C1506 C1507 1.524 . S
C1506 C1520 1.377 . S
C1507 C1506 1.524 . S
C1507 C1508 1.397 . S
C1507 C1512 1.363 . S
C1508 H1485 0.950 . S
C1508 C1507 1.397 . S
C1508 C1509 1.334 . S
C1509 H1486 0.950 . S
C1509 C1508 1.334 . S
C1509 C1510 1.287 . S
C1510 C1509 1.287 . S
C1510 C1511 1.524 . S
C1510 H1529 0.913 . S
C1511 H1487 0.950 . S
C1511 C1510 1.524 . S
C1511 C1512 1.415 . S
C1512 H1488 0.950 . S
C1512 C1507 1.363 . S
C1512 C1511 1.415 . S
C1513 H1489 0.951 . S
C1513 C1514 1.366 . S
C1513 C1515 1.388 . S
C1514 C1513 1.366 . S
C1514 C1518 1.385 . S
C1515 H1490 0.951 . S
C1515 C1513 1.388 . S
C1515 C1516 1.366 . S
C1516 C1515 1.366 . S
C1516 C1517 1.414 . S
C1516 C1519 1.499 . S
C1517 H1491 0.950 . S
C1517 C1516 1.414 . S
C1517 C1518 1.374 . S
C1518 H1492 0.950 . S
C1518 C1514 1.385 . S
C1518 C1517 1.374 . S
C1519 C1516 1.499 . S
C1519 C1520 1.373 . S
C1519 C1521 1.389 . S
C1520 H1493 0.950 . S
C1520 C1506 1.377 . S
C1520 C1519 1.373 . S
C1521 C1505 1.377 . S
C1521 C1519 1.389 . S
C1521 C1522 1.524 . S
C1522 C1521 1.524 . S
C1522 C1523 1.397 . S
C1522 C1527 1.363 . S
C1523 H1494 0.950 . S
C1523 C1522 1.397 . S
C1523 C1524 1.334 . S
C1524 H1495 0.950 . S
C1524 C1523 1.334 . S
C1524 C1525 1.287 . S
C1525 C1524 1.287 . S
C1525 C1526 1.524 . S
C1525 H1528 0.999 . S
C1526 H1496 0.950 . S
C1526 C1525 1.524 . S
C1526 C1527 1.415 . S
C1527 H1497 0.950 . S
C1527 C1522 1.363 . S
C1527 C1526 1.415 . S
H1528 C1525 0.999 . S
H1529 C1510 0.913 . S
H1530 C1548 0.951 1_455 S
H1531 C1550 0.951 1_455 S
H1532 C1552 0.950 . S
H1533 C1553 0.950 . S
H1534 C1555 0.950 . S
H1535 C1558 0.950 . S
H1536 C1559 0.950 . S
H1537 C1561 0.950 . S
H1538 C1562 0.950 . S
H1539 C1563 0.951 . S
H1540 C1565 0.951 . S
H1541 C1567 0.950 . S
H1542 C1568 0.950 . S
H1543 C1570 0.950 1_455 S
H1544 C1573 0.950 . S
H1545 C1574 0.950 . S
H1546 C1576 0.950 . S
H1547 C1577 0.950 . S
C1548 H1530 0.951 1_655 S
C1548 C1549 1.366 . S
C1548 C1550 1.388 . S
C1549 C1548 1.366 . S
C1549 C1553 1.385 . S
C1550 H1531 0.951 1_655 S
C1550 C1548 1.388 . S
C1550 C1551 1.366 . S
C1551 C1550 1.366 . S
C1551 C1552 1.414 . S
C1551 C1554 1.499 . S
C1552 H1532 0.950 . S
C1552 C1551 1.414 . S
C1552 C1553 1.374 . S
C1553 H1533 0.950 . S
C1553 C1549 1.385 . S
C1553 C1552 1.374 . S
C1554 C1551 1.499 . S
C1554 C1555 1.373 . S
C1554 C1556 1.389 . S
C1555 H1534 0.950 . S
C1555 C1554 1.373 . S
C1555 C1571 1.377 . S
C1556 C1554 1.389 . S
C1556 C1557 1.524 . S
C1556 C1570 1.377 . S
C1557 C1556 1.524 . S
C1557 C1558 1.397 . S
C1557 C1562 1.363 1_655 S
C1558 H1535 0.950 . S
C1558 C1557 1.397 . S
C1558 C1559 1.334 . S
C1559 H1536 0.950 . S
C1559 C1558 1.334 . S
C1559 C1560 1.287 1_655 S
C1560 C1559 1.287 1_455 S
C1560 C1561 1.524 . S
C1560 H1579 0.913 . S
C1561 H1537 0.950 . S
C1561 C1560 1.524 . S
C1561 C1562 1.415 . S
C1562 H1538 0.950 . S
C1562 C1557 1.363 1_455 S
C1562 C1561 1.415 . S
C1563 H1539 0.951 . S
C1563 C1564 1.366 . S
C1563 C1565 1.388 . S
C1564 C1563 1.366 . S
C1564 C1568 1.385 1_655 S
C1565 H1540 0.951 . S
C1565 C1563 1.388 . S
C1565 C1566 1.366 . S
C1566 C1565 1.366 . S
C1566 C1567 1.414 1_655 S
C1566 C1569 1.499 . S
C1567 H1541 0.950 . S
C1567 C1566 1.414 1_455 S
C1567 C1568 1.374 . S
C1568 H1542 0.950 . S
C1568 C1564 1.385 1_455 S
C1568 C1567 1.374 . S
C1569 C1566 1.499 . S
C1569 C1570 1.373 . S
C1569 C1571 1.389 . S
C1570 H1543 0.950 1_655 S
C1570 C1556 1.377 . S
C1570 C1569 1.373 . S
C1571 C1555 1.377 . S
C1571 C1569 1.389 . S
C1571 C1572 1.524 . S
C1572 C1571 1.524 . S
C1572 C1573 1.397 . S
C1572 C1577 1.363 . S
C1573 H1544 0.950 . S
C1573 C1572 1.397 . S
C1573 C1574 1.334 . S
C1574 H1545 0.950 . S
C1574 C1573 1.334 . S
C1574 C1575 1.287 . S
C1575 C1574 1.287 . S
C1575 C1576 1.524 . S
C1575 H1578 0.999 . S
C1576 H1546 0.950 . S
C1576 C1575 1.524 . S
C1576 C1577 1.415 . S
C1577 H1547 0.950 . S
C1577 C1572 1.363 . S
C1577 C1576 1.415 . S
H1578 C1575 0.999 . S
H1579 C1560 0.913 . S
H1580 C1598 0.951 . S
H1581 C1600 0.951 . S
H1582 C1602 0.950 . S
H1583 C1603 0.950 . S
H1584 C1605 0.950 . S
H1585 C1608 0.950 . S
H1586 C1609 0.950 . S
H1587 C1611 0.950 . S
H1588 C1612 0.950 . S
H1589 C1613 0.951 . S
H1590 C1615 0.951 . S
H1591 C1617 0.950 . S
H1592 C1618 0.950 . S
H1593 C1620 0.950 . S
H1594 C1623 0.950 . S
H1595 C1624 0.950 . S
H1596 C1626 0.950 . S
H1597 C1627 0.950 . S
C1598 H1580 0.951 . S
C1598 C1599 1.366 . S
C1598 C1600 1.388 . S
C1599 C1598 1.366 . S
C1599 C1603 1.385 . S
C1600 H1581 0.951 . S
C1600 C1598 1.388 . S
C1600 C1601 1.366 . S
C1601 C1600 1.366 . S
C1601 C1602 1.414 . S
C1601 C1604 1.499 . S
C1602 H1582 0.950 . S
C1602 C1601 1.414 . S
C1602 C1603 1.374 . S
C1603 H1583 0.950 . S
C1603 C1599 1.385 . S
C1603 C1602 1.374 . S
C1604 C1601 1.499 . S
C1604 C1605 1.373 . S
C1604 C1606 1.389 . S
C1605 H1584 0.950 . S
C1605 C1604 1.373 . S
C1605 C1621 1.377 . S
C1606 C1604 1.389 . S
C1606 C1607 1.524 . S
C1606 C1620 1.377 . S
C1607 C1606 1.524 . S
C1607 C1608 1.397 . S
C1607 C1612 1.363 . S
C1608 H1585 0.950 . S
C1608 C1607 1.397 . S
C1608 C1609 1.334 . S
C1609 H1586 0.950 . S
C1609 C1608 1.334 . S
C1609 C1610 1.287 . S
C1610 C1609 1.287 . S
C1610 C1611 1.524 . S
C1610 H1629 0.913 . S
C1611 H1587 0.950 . S
C1611 C1610 1.524 . S
C1611 C1612 1.415 . S
C1612 H1588 0.950 . S
C1612 C1607 1.363 . S
C1612 C1611 1.415 . S
C1613 H1589 0.951 . S
C1613 C1614 1.366 . S
C1613 C1615 1.388 . S
C1614 C1613 1.366 . S
C1614 C1618 1.385 . S
C1615 H1590 0.951 . S
C1615 C1613 1.388 . S
C1615 C1616 1.366 . S
C1616 C1615 1.366 . S
C1616 C1617 1.414 . S
C1616 C1619 1.499 . S
C1617 H1591 0.950 . S
C1617 C1616 1.414 . S
C1617 C1618 1.374 . S
C1618 H1592 0.950 . S
C1618 C1614 1.385 . S
C1618 C1617 1.374 . S
C1619 C1616 1.499 . S
C1619 C1620 1.373 . S
C1619 C1621 1.389 . S
C1620 H1593 0.950 . S
C1620 C1606 1.377 . S
C1620 C1619 1.373 . S
C1621 C1605 1.377 . S
C1621 C1619 1.389 . S
C1621 C1622 1.524 . S
C1622 C1621 1.524 . S
C1622 C1623 1.397 . S
C1622 C1627 1.363 . S
C1623 H1594 0.950 . S
C1623 C1622 1.397 . S
C1623 C1624 1.334 . S
C1624 H1595 0.950 . S
C1624 C1623 1.334 . S
C1624 C1625 1.287 . S
C1625 C1624 1.287 . S
C1625 C1626 1.524 . S
C1625 H1628 0.999 . S
C1626 H1596 0.950 . S
C1626 C1625 1.524 . S
C1626 C1627 1.415 . S
C1627 H1597 0.950 . S
C1627 C1622 1.363 . S
C1627 C1626 1.415 . S
H1628 C1625 0.999 . S
H1629 C1610 0.913 . S
H1630 C1648 0.951 . S
H1631 C1650 0.951 . S
H1632 C1652 0.950 . S
H1633 C1653 0.950 . S
H1634 C1655 0.950 . S
H1635 C1658 0.950 . S
H1636 C1659 0.950 . S
H1637 C1661 0.950 . S
H1638 C1662 0.950 . S
H1639 C1663 0.951 . S
H1640 C1665 0.951 . S
H1641 C1667 0.950 . S
H1642 C1668 0.950 . S
H1643 C1670 0.950 . S
H1644 C1673 0.950 . S
H1645 C1674 0.950 . S
H1646 C1676 0.950 . S
H1647 C1677 0.950 . S
C1648 H1630 0.951 . S
C1648 C1649 1.366 . S
C1648 C1650 1.388 . S
C1649 C1648 1.366 . S
C1649 C1653 1.385 . S
C1650 H1631 0.951 . S
C1650 C1648 1.388 . S
C1650 C1651 1.366 . S
C1651 C1650 1.366 . S
C1651 C1652 1.414 . S
C1651 C1654 1.499 . S
C1652 H1632 0.950 . S
C1652 C1651 1.414 . S
C1652 C1653 1.374 . S
C1653 H1633 0.950 . S
C1653 C1649 1.385 . S
C1653 C1652 1.374 . S
C1654 C1651 1.499 . S
C1654 C1655 1.373 . S
C1654 C1656 1.389 . S
C1655 H1634 0.950 . S
C1655 C1654 1.373 . S
C1655 C1671 1.377 . S
C1656 C1654 1.389 . S
C1656 C1657 1.524 . S
C1656 C1670 1.377 . S
C1657 C1656 1.524 . S
C1657 C1658 1.397 . S
C1657 C1662 1.363 . S
C1658 H1635 0.950 . S
C1658 C1657 1.397 . S
C1658 C1659 1.334 . S
C1659 H1636 0.950 . S
C1659 C1658 1.334 . S
C1659 C1660 1.287 . S
C1660 C1659 1.287 . S
C1660 C1661 1.524 . S
C1660 H1679 0.913 . S
C1661 H1637 0.950 . S
C1661 C1660 1.524 . S
C1661 C1662 1.415 . S
C1662 H1638 0.950 . S
C1662 C1657 1.363 . S
C1662 C1661 1.415 . S
C1663 H1639 0.951 . S
C1663 C1664 1.366 . S
C1663 C1665 1.388 . S
C1664 C1663 1.366 . S
C1664 C1668 1.385 . S
C1665 H1640 0.951 . S
C1665 C1663 1.388 . S
C1665 C1666 1.366 . S
C1666 C1665 1.366 . S
C1666 C1667 1.414 . S
C1666 C1669 1.499 . S
C1667 H1641 0.950 . S
C1667 C1666 1.414 . S
C1667 C1668 1.374 . S
C1668 H1642 0.950 . S
C1668 C1664 1.385 . S
C1668 C1667 1.374 . S
C1669 C1666 1.499 . S
C1669 C1670 1.373 . S
C1669 C1671 1.389 . S
C1670 H1643 0.950 . S
C1670 C1656 1.377 . S
C1670 C1669 1.373 . S
C1671 C1655 1.377 . S
C1671 C1669 1.389 . S
C1671 C1672 1.524 . S
C1672 C1671 1.524 . S
C1672 C1673 1.397 . S
C1672 C1677 1.363 . S
C1673 H1644 0.950 . S
C1673 C1672 1.397 . S
C1673 C1674 1.334 . S
C1674 H1645 0.950 . S
C1674 C1673 1.334 . S
C1674 C1675 1.287 . S
C1675 C1674 1.287 . S
C1675 C1676 1.524 . S
C1675 H1678 0.999 . S
C1676 H1646 0.950 . S
C1676 C1675 1.524 . S
C1676 C1677 1.415 . S
C1677 H1647 0.950 . S
C1677 C1672 1.363 . S
C1677 C1676 1.415 . S
H1678 C1675 0.999 . S
H1679 C1660 0.913 . S
H1680 C1698 0.951 . S
H1681 C1700 0.951 . S
H1682 C1702 0.950 . S
H1683 C1703 0.950 1_545 S
H1684 C1705 0.950 . S
H1685 C1708 0.950 . S
H1686 C1709 0.950 . S
H1687 C1711 0.950 . S
H1688 C1712 0.950 . S
H1689 C1713 0.951 . S
H1690 C1715 0.951 . S
H1691 C1717 0.950 . S
H1692 C1718 0.950 . S
H1693 C1720 0.950 . S
H1694 C1723 0.950 . S
H1695 C1724 0.950 . S
H1696 C1726 0.950 . S
H1697 C1727 0.950 . S
C1698 H1680 0.951 . S
C1698 C1699 1.366 . S
C1698 C1700 1.388 . S
C1699 C1698 1.366 . S
C1699 C1703 1.385 . S
C1700 H1681 0.951 . S
C1700 C1698 1.388 . S
C1700 C1701 1.366 . S
C1701 C1700 1.366 . S
C1701 C1702 1.414 . S
C1701 C1704 1.499 . S
C1702 H1682 0.950 . S
C1702 C1701 1.414 . S
C1702 C1703 1.374 . S
C1703 H1683 0.950 1_565 S
C1703 C1699 1.385 . S
C1703 C1702 1.374 . S
C1704 C1701 1.499 . S
C1704 C1705 1.373 . S
C1704 C1706 1.389 . S
C1705 H1684 0.950 . S
C1705 C1704 1.373 . S
C1705 C1721 1.377 . S
C1706 C1704 1.389 . S
C1706 C1707 1.524 . S
C1706 C1720 1.377 . S
C1707 C1706 1.524 . S
C1707 C1708 1.397 . S
C1707 C1712 1.363 . S
C1708 H1685 0.950 . S
C1708 C1707 1.397 . S
C1708 C1709 1.334 . S
C1709 H1686 0.950 . S
C1709 C1708 1.334 . S
C1709 C1710 1.287 . S
C1710 C1709 1.287 . S
C1710 C1711 1.524 . S
C1710 H1729 0.913 . S
C1711 H1687 0.950 . S
C1711 C1710 1.524 . S
C1711 C1712 1.415 . S
C1712 H1688 0.950 . S
C1712 C1707 1.363 . S
C1712 C1711 1.415 . S
C1713 H1689 0.951 . S
C1713 C1714 1.366 1_556 S
C1713 C1715 1.388 . S
C1714 C1713 1.366 1_554 S
C1714 C1718 1.385 . S
C1715 H1690 0.951 . S
C1715 C1713 1.388 . S
C1715 C1716 1.366 . S
C1716 C1715 1.366 . S
C1716 C1717 1.414 1_556 S
C1716 C1719 1.499 . S
C1717 H1691 0.950 . S
C1717 C1716 1.414 1_554 S
C1717 C1718 1.374 . S
C1718 H1692 0.950 . S
C1718 C1714 1.385 . S
C1718 C1717 1.374 . S
C1719 C1716 1.499 . S
C1719 C1720 1.373 . S
C1719 C1721 1.389 . S
C1720 H1693 0.950 . S
C1720 C1706 1.377 . S
C1720 C1719 1.373 . S
C1721 C1705 1.377 . S
C1721 C1719 1.389 . S
C1721 C1722 1.524 1_556 S
C1722 C1721 1.524 1_554 S
C1722 C1723 1.397 . S
C1722 C1727 1.363 1_554 S
C1723 H1694 0.950 . S
C1723 C1722 1.397 . S
C1723 C1724 1.334 . S
C1724 H1695 0.950 . S
C1724 C1723 1.334 . S
C1724 C1725 1.287 . S
C1725 C1724 1.287 . S
C1725 C1726 1.524 . S
C1725 H1728 0.999 . S
C1726 H1696 0.950 . S
C1726 C1725 1.524 . S
C1726 C1727 1.415 1_554 S
C1727 H1697 0.950 . S
C1727 C1722 1.363 1_556 S
C1727 C1726 1.415 1_556 S
H1728 C1725 0.999 . S
H1729 C1710 0.913 . S
H1730 C1748 0.951 . S
H1731 C1750 0.951 . S
H1732 C1752 0.950 . S
H1733 C1753 0.950 . S
H1734 C1755 0.950 . S
H1735 C1758 0.950 . S
H1736 C1759 0.950 . S
H1737 C1761 0.950 . S
H1738 C1762 0.950 . S
H1739 C1763 0.951 . S
H1740 C1765 0.951 . S
H1741 C1767 0.950 . S
H1742 C1768 0.950 . S
H1743 C1770 0.950 . S
H1744 C1773 0.950 . S
H1745 C1774 0.950 . S
H1746 C1776 0.950 . S
H1747 C1777 0.950 . S
C1748 H1730 0.951 . S
C1748 C1749 1.366 . S
C1748 C1750 1.388 . S
C1749 C1748 1.366 . S
C1749 C1753 1.385 . S
C1750 H1731 0.951 . S
C1750 C1748 1.388 . S
C1750 C1751 1.366 . S
C1751 C1750 1.366 . S
C1751 C1752 1.414 . S
C1751 C1754 1.499 . S
C1752 H1732 0.950 . S
C1752 C1751 1.414 . S
C1752 C1753 1.374 . S
C1753 H1733 0.950 . S
C1753 C1749 1.385 . S
C1753 C1752 1.374 . S
C1754 C1751 1.499 . S
C1754 C1755 1.373 . S
C1754 C1756 1.389 . S
C1755 H1734 0.950 . S
C1755 C1754 1.373 . S
C1755 C1771 1.377 . S
C1756 C1754 1.389 . S
C1756 C1757 1.524 . S
C1756 C1770 1.377 . S
C1757 C1756 1.524 . S
C1757 C1758 1.397 . S
C1757 C1762 1.363 . S
C1758 H1735 0.950 . S
C1758 C1757 1.397 . S
C1758 C1759 1.334 . S
C1759 H1736 0.950 . S
C1759 C1758 1.334 . S
C1759 C1760 1.287 . S
C1760 C1759 1.287 . S
C1760 C1761 1.524 . S
C1760 H1779 0.913 . S
C1761 H1737 0.950 . S
C1761 C1760 1.524 . S
C1761 C1762 1.415 . S
C1762 H1738 0.950 . S
C1762 C1757 1.363 . S
C1762 C1761 1.415 . S
C1763 H1739 0.951 . S
C1763 C1764 1.366 . S
C1763 C1765 1.388 . S
C1764 C1763 1.366 . S
C1764 C1768 1.385 . S
C1765 H1740 0.951 . S
C1765 C1763 1.388 . S
C1765 C1766 1.366 . S
C1766 C1765 1.366 . S
C1766 C1767 1.414 . S
C1766 C1769 1.499 . S
C1767 H1741 0.950 . S
C1767 C1766 1.414 . S
C1767 C1768 1.374 . S
C1768 H1742 0.950 . S
C1768 C1764 1.385 . S
C1768 C1767 1.374 . S
C1769 C1766 1.499 . S
C1769 C1770 1.373 . S
C1769 C1771 1.389 . S
C1770 H1743 0.950 . S
C1770 C1756 1.377 . S
C1770 C1769 1.373 . S
C1771 C1755 1.377 . S
C1771 C1769 1.389 . S
C1771 C1772 1.524 . S
C1772 C1771 1.524 . S
C1772 C1773 1.397 . S
C1772 C1777 1.363 . S
C1773 H1744 0.950 . S
C1773 C1772 1.397 . S
C1773 C1774 1.334 . S
C1774 H1745 0.950 . S
C1774 C1773 1.334 . S
C1774 C1775 1.287 . S
C1775 C1774 1.287 . S
C1775 C1776 1.524 . S
C1775 H1778 0.999 . S
C1776 H1746 0.950 . S
C1776 C1775 1.524 . S
C1776 C1777 1.415 . S
C1777 H1747 0.950 . S
C1777 C1772 1.363 . S
C1777 C1776 1.415 . S
H1778 C1775 0.999 . S
H1779 C1760 0.913 . S
H1780 C1798 0.951 . S
H1781 C1800 0.951 . S
H1782 C1802 0.950 . S
H1783 C1803 0.950 . S
H1784 C1805 0.950 . S
H1785 C1808 0.950 . S
H1786 C1809 0.950 . S
H1787 C1811 0.950 . S
H1788 C1812 0.950 . S
H1789 C1813 0.951 . S
H1790 C1815 0.951 . S
H1791 C1817 0.950 . S
H1792 C1818 0.950 . S
H1793 C1820 0.950 . S
H1794 C1823 0.950 . S
H1795 C1824 0.950 . S
H1796 C1826 0.950 . S
H1797 C1827 0.950 . S
C1798 H1780 0.951 . S
C1798 C1799 1.366 . S
C1798 C1800 1.388 . S
C1799 C1798 1.366 . S
C1799 C1803 1.385 . S
C1800 H1781 0.951 . S
C1800 C1798 1.388 . S
C1800 C1801 1.366 . S
C1801 C1800 1.366 . S
C1801 C1802 1.414 . S
C1801 C1804 1.499 . S
C1802 H1782 0.950 . S
C1802 C1801 1.414 . S
C1802 C1803 1.374 . S
C1803 H1783 0.950 . S
C1803 C1799 1.385 . S
C1803 C1802 1.374 . S
C1804 C1801 1.499 . S
C1804 C1805 1.373 . S
C1804 C1806 1.389 . S
C1805 H1784 0.950 . S
C1805 C1804 1.373 . S
C1805 C1821 1.377 . S
C1806 C1804 1.389 . S
C1806 C1807 1.524 . S
C1806 C1820 1.377 . S
C1807 C1806 1.524 . S
C1807 C1808 1.397 . S
C1807 C1812 1.363 . S
C1808 H1785 0.950 . S
C1808 C1807 1.397 . S
C1808 C1809 1.334 . S
C1809 H1786 0.950 . S
C1809 C1808 1.334 . S
C1809 C1810 1.287 . S
C1810 C1809 1.287 . S
C1810 C1811 1.524 . S
C1810 H1829 0.914 1_545 S
C1811 H1787 0.950 . S
C1811 C1810 1.524 . S
C1811 C1812 1.415 . S
C1812 H1788 0.950 . S
C1812 C1807 1.363 . S
C1812 C1811 1.415 . S
C1813 H1789 0.951 . S
C1813 C1814 1.366 . S
C1813 C1815 1.388 . S
C1814 C1813 1.366 . S
C1814 C1818 1.385 . S
C1815 H1790 0.951 . S
C1815 C1813 1.388 . S
C1815 C1816 1.366 . S
C1816 C1815 1.366 . S
C1816 C1817 1.414 . S
C1816 C1819 1.499 . S
C1817 H1791 0.950 . S
C1817 C1816 1.414 . S
C1817 C1818 1.374 . S
C1818 H1792 0.950 . S
C1818 C1814 1.385 . S
C1818 C1817 1.374 . S
C1819 C1816 1.499 . S
C1819 C1820 1.373 . S
C1819 C1821 1.389 . S
C1820 H1793 0.950 . S
C1820 C1806 1.377 . S
C1820 C1819 1.373 . S
C1821 C1805 1.377 . S
C1821 C1819 1.389 . S
C1821 C1822 1.524 . S
C1822 C1821 1.524 . S
C1822 C1823 1.397 . S
C1822 C1827 1.363 . S
C1823 H1794 0.950 . S
C1823 C1822 1.397 . S
C1823 C1824 1.334 . S
C1824 H1795 0.950 . S
C1824 C1823 1.334 . S
C1824 C1825 1.287 . S
C1825 C1824 1.287 . S
C1825 C1826 1.524 . S
C1825 H1828 0.999 . S
C1826 H1796 0.950 . S
C1826 C1825 1.524 . S
C1826 C1827 1.415 . S
C1827 H1797 0.950 . S
C1827 C1822 1.363 . S
C1827 C1826 1.415 . S
H1828 C1825 0.999 . S
H1829 C1810 0.914 1_565 S
H1830 C1848 0.951 . S
H1831 C1850 0.951 . S
H1832 C1852 0.950 . S
H1833 C1853 0.950 . S
H1834 C1855 0.950 . S
H1835 C1858 0.950 . S
H1836 C1859 0.950 . S
H1837 C1861 0.950 . S
H1838 C1862 0.950 . S
H1839 C1863 0.951 . S
H1840 C1865 0.951 . S
H1841 C1867 0.950 . S
H1842 C1868 0.950 . S
H1843 C1870 0.950 . S
H1844 C1873 0.950 . S
H1845 C1874 0.950 . S
H1846 C1876 0.950 . S
H1847 C1877 0.950 . S
C1848 H1830 0.951 . S
C1848 C1849 1.366 . S
C1848 C1850 1.388 . S
C1849 C1848 1.366 . S
C1849 C1853 1.385 . S
C1850 H1831 0.951 . S
C1850 C1848 1.388 . S
C1850 C1851 1.366 . S
C1851 C1850 1.366 . S
C1851 C1852 1.414 . S
C1851 C1854 1.499 . S
C1852 H1832 0.950 . S
C1852 C1851 1.414 . S
C1852 C1853 1.374 . S
C1853 H1833 0.950 . S
C1853 C1849 1.385 . S
C1853 C1852 1.374 . S
C1854 C1851 1.499 . S
C1854 C1855 1.373 . S
C1854 C1856 1.389 . S
C1855 H1834 0.950 . S
C1855 C1854 1.373 . S
C1855 C1871 1.377 . S
C1856 C1854 1.389 . S
C1856 C1857 1.524 . S
C1856 C1870 1.377 . S
C1857 C1856 1.524 . S
C1857 C1858 1.397 . S
C1857 C1862 1.363 . S
C1858 H1835 0.950 . S
C1858 C1857 1.397 . S
C1858 C1859 1.334 . S
C1859 H1836 0.950 . S
C1859 C1858 1.334 . S
C1859 C1860 1.287 . S
C1860 C1859 1.287 . S
C1860 C1861 1.524 . S
C1860 H1879 0.913 . S
C1861 H1837 0.950 . S
C1861 C1860 1.524 . S
C1861 C1862 1.415 . S
C1862 H1838 0.950 . S
C1862 C1857 1.363 . S
C1862 C1861 1.415 . S
C1863 H1839 0.951 . S
C1863 C1864 1.366 . S
C1863 C1865 1.388 . S
C1864 C1863 1.366 . S
C1864 C1868 1.385 . S
C1865 H1840 0.951 . S
C1865 C1863 1.388 . S
C1865 C1866 1.366 . S
C1866 C1865 1.366 . S
C1866 C1867 1.414 . S
C1866 C1869 1.499 . S
C1867 H1841 0.950 . S
C1867 C1866 1.414 . S
C1867 C1868 1.374 . S
C1868 H1842 0.950 . S
C1868 C1864 1.385 . S
C1868 C1867 1.374 . S
C1869 C1866 1.499 . S
C1869 C1870 1.373 . S
C1869 C1871 1.389 . S
C1870 H1843 0.950 . S
C1870 C1856 1.377 . S
C1870 C1869 1.373 . S
C1871 C1855 1.377 . S
C1871 C1869 1.389 . S
C1871 C1872 1.524 . S
C1872 C1871 1.524 . S
C1872 C1873 1.397 . S
C1872 C1877 1.363 . S
C1873 H1844 0.950 . S
C1873 C1872 1.397 . S
C1873 C1874 1.334 . S
C1874 H1845 0.950 . S
C1874 C1873 1.334 . S
C1874 C1875 1.287 . S
C1875 C1874 1.287 . S
C1875 C1876 1.524 . S
C1875 H1878 0.999 . S
C1876 H1846 0.950 . S
C1876 C1875 1.524 . S
C1876 C1877 1.415 . S
C1877 H1847 0.950 . S
C1877 C1872 1.363 . S
C1877 C1876 1.415 . S
H1878 C1875 0.999 . S
H1879 C1860 0.913 . S
H1880 C1898 0.951 . S
H1881 C1900 0.951 . S
H1882 C1902 0.950 . S
H1883 C1903 0.950 . S
H1884 C1905 0.950 . S
H1885 C1908 0.950 . S
H1886 C1909 0.950 . S
H1887 C1911 0.950 . S
H1888 C1912 0.950 . S
H1889 C1913 0.951 . S
H1890 C1915 0.951 . S
H1891 C1917 0.950 . S
H1892 C1918 0.950 . S
H1893 C1920 0.950 . S
H1894 C1923 0.950 . S
H1895 C1924 0.950 . S
H1896 C1926 0.950 . S
H1897 C1927 0.950 . S
C1898 H1880 0.951 . S
C1898 C1899 1.366 . S
C1898 C1900 1.388 . S
C1899 C1898 1.366 . S
C1899 C1903 1.385 . S
C1900 H1881 0.951 . S
C1900 C1898 1.388 . S
C1900 C1901 1.366 . S
C1901 C1900 1.366 . S
C1901 C1902 1.414 . S
C1901 C1904 1.499 . S
C1902 H1882 0.950 . S
C1902 C1901 1.414 . S
C1902 C1903 1.374 . S
C1903 H1883 0.950 . S
C1903 C1899 1.385 . S
C1903 C1902 1.374 . S
C1904 C1901 1.499 . S
C1904 C1905 1.373 . S
C1904 C1906 1.389 . S
C1905 H1884 0.950 . S
C1905 C1904 1.373 . S
C1905 C1921 1.377 . S
C1906 C1904 1.389 . S
C1906 C1907 1.524 . S
C1906 C1920 1.377 . S
C1907 C1906 1.524 . S
C1907 C1908 1.397 . S
C1907 C1912 1.363 . S
C1908 H1885 0.950 . S
C1908 C1907 1.397 . S
C1908 C1909 1.334 . S
C1909 H1886 0.950 . S
C1909 C1908 1.334 . S
C1909 C1910 1.287 . S
C1910 C1909 1.287 . S
C1910 C1911 1.524 . S
C1910 H1929 0.913 . S
C1911 H1887 0.950 . S
C1911 C1910 1.524 . S
C1911 C1912 1.415 . S
C1912 H1888 0.950 . S
C1912 C1907 1.363 . S
C1912 C1911 1.415 . S
C1913 H1889 0.951 . S
C1913 C1914 1.366 . S
C1913 C1915 1.388 . S
C1914 C1913 1.366 . S
C1914 C1918 1.385 . S
C1915 H1890 0.951 . S
C1915 C1913 1.388 . S
C1915 C1916 1.366 . S
C1916 C1915 1.366 . S
C1916 C1917 1.414 . S
C1916 C1919 1.499 . S
C1917 H1891 0.950 . S
C1917 C1916 1.414 . S
C1917 C1918 1.374 . S
C1918 H1892 0.950 . S
C1918 C1914 1.385 . S
C1918 C1917 1.374 . S
C1919 C1916 1.499 . S
C1919 C1920 1.373 . S
C1919 C1921 1.389 . S
C1920 H1893 0.950 . S
C1920 C1906 1.377 . S
C1920 C1919 1.373 . S
C1921 C1905 1.377 . S
C1921 C1919 1.389 . S
C1921 C1922 1.524 . S
C1922 C1921 1.524 . S
C1922 C1923 1.397 . S
C1922 C1927 1.363 . S
C1923 H1894 0.950 . S
C1923 C1922 1.397 . S
C1923 C1924 1.334 . S
C1924 H1895 0.950 . S
C1924 C1923 1.334 . S
C1924 C1925 1.287 . S
C1925 C1924 1.287 . S
C1925 C1926 1.524 . S
C1925 H1928 0.999 . S
C1926 H1896 0.950 . S
C1926 C1925 1.524 . S
C1926 C1927 1.415 . S
C1927 H1897 0.950 . S
C1927 C1922 1.363 . S
C1927 C1926 1.415 . S
H1928 C1925 0.999 . S
H1929 C1910 0.913 . S
H1930 C1948 0.951 . S
H1931 C1950 0.951 . S
H1932 C1952 0.950 . S
H1933 C1953 0.950 . S
H1934 C1955 0.950 . S
H1935 C1958 0.950 . S
H1936 C1959 0.950 . S
H1937 C1961 0.950 . S
H1938 C1962 0.950 . S
H1939 C1963 0.951 . S
H1940 C1965 0.951 . S
H1941 C1967 0.950 . S
H1942 C1968 0.950 . S
H1943 C1970 0.950 . S
H1944 C1973 0.950 . S
H1945 C1974 0.950 . S
H1946 C1976 0.950 . S
H1947 C1977 0.950 . S
C1948 H1930 0.951 . S
C1948 C1949 1.366 . S
C1948 C1950 1.388 . S
C1949 C1948 1.366 . S
C1949 C1953 1.385 . S
C1950 H1931 0.951 . S
C1950 C1948 1.388 . S
C1950 C1951 1.366 . S
C1951 C1950 1.366 . S
C1951 C1952 1.414 . S
C1951 C1954 1.499 . S
C1952 H1932 0.950 . S
C1952 C1951 1.414 . S
C1952 C1953 1.374 . S
C1953 H1933 0.950 . S
C1953 C1949 1.385 . S
C1953 C1952 1.374 . S
C1954 C1951 1.499 . S
C1954 C1955 1.373 . S
C1954 C1956 1.389 . S
C1955 H1934 0.950 . S
C1955 C1954 1.373 . S
C1955 C1971 1.377 . S
C1956 C1954 1.389 . S
C1956 C1957 1.524 . S
C1956 C1970 1.377 . S
C1957 C1956 1.524 . S
C1957 C1958 1.397 . S
C1957 C1962 1.363 . S
C1958 H1935 0.950 . S
C1958 C1957 1.397 . S
C1958 C1959 1.334 . S
C1959 H1936 0.950 . S
C1959 C1958 1.334 . S
C1959 C1960 1.287 . S
C1960 C1959 1.287 . S
C1960 C1961 1.524 . S
C1960 H1979 0.913 . S
C1961 H1937 0.950 . S
C1961 C1960 1.524 . S
C1961 C1962 1.415 . S
C1962 H1938 0.950 . S
C1962 C1957 1.363 . S
C1962 C1961 1.415 . S
C1963 H1939 0.951 . S
C1963 C1964 1.366 . S
C1963 C1965 1.388 . S
C1964 C1963 1.366 . S
C1964 C1968 1.385 . S
C1965 H1940 0.951 . S
C1965 C1963 1.388 . S
C1965 C1966 1.366 . S
C1966 C1965 1.366 . S
C1966 C1967 1.414 . S
C1966 C1969 1.499 . S
C1967 H1941 0.950 . S
C1967 C1966 1.414 . S
C1967 C1968 1.374 . S
C1968 H1942 0.950 . S
C1968 C1964 1.385 . S
C1968 C1967 1.374 . S
C1969 C1966 1.499 . S
C1969 C1970 1.373 . S
C1969 C1971 1.389 . S
C1970 H1943 0.950 . S
C1970 C1956 1.377 . S
C1970 C1969 1.373 . S
C1971 C1955 1.377 . S
C1971 C1969 1.389 . S
C1971 C1972 1.524 . S
C1972 C1971 1.524 . S
C1972 C1973 1.397 . S
C1972 C1977 1.363 . S
C1973 H1944 0.950 . S
C1973 C1972 1.397 . S
C1973 C1974 1.334 . S
C1974 H1945 0.950 . S
C1974 C1973 1.334 . S
C1974 C1975 1.287 . S
C1975 C1974 1.287 . S
C1975 C1976 1.524 . S
C1975 H1978 0.999 . S
C1976 H1946 0.950 . S
C1976 C1975 1.524 . S
C1976 C1977 1.415 . S
C1977 H1947 0.950 . S
C1977 C1972 1.363 . S
C1977 C1976 1.415 . S
H1978 C1975 0.999 . S
H1979 C1960 0.913 . S
H1980 C1998 0.951 . S
H1981 C2000 0.951 . S
H1982 C2002 0.950 . S
H1983 C2003 0.950 . S
H1984 C2005 0.950 . S
H1985 C2008 0.950 . S
H1986 C2009 0.950 . S
H1987 C2011 0.950 . S
H1988 C2012 0.950 . S
H1989 C2013 0.951 . S
H1990 C2015 0.951 . S
H1991 C2017 0.950 . S
H1992 C2018 0.950 . S
H1993 C2020 0.950 . S
H1994 C2023 0.950 . S
H1995 C2024 0.950 . S
H1996 C2026 0.950 . S
H1997 C2027 0.950 . S
C1998 H1980 0.951 . S
C1998 C1999 1.366 . S
C1998 C2000 1.388 . S
C1999 C1998 1.366 . S
C1999 C2003 1.385 . S
C2000 H1981 0.951 . S
C2000 C1998 1.388 . S
C2000 C2001 1.366 . S
C2001 C2000 1.366 . S
C2001 C2002 1.414 . S
C2001 C2004 1.499 . S
C2002 H1982 0.950 . S
C2002 C2001 1.414 . S
C2002 C2003 1.374 . S
C2003 H1983 0.950 . S
C2003 C1999 1.385 . S
C2003 C2002 1.374 . S
C2004 C2001 1.499 . S
C2004 C2005 1.373 . S
C2004 C2006 1.389 . S
C2005 H1984 0.950 . S
C2005 C2004 1.373 . S
C2005 C2021 1.377 . S
C2006 C2004 1.389 . S
C2006 C2007 1.524 . S
C2006 C2020 1.377 . S
C2007 C2006 1.524 . S
C2007 C2008 1.397 . S
C2007 C2012 1.363 . S
C2008 H1985 0.950 . S
C2008 C2007 1.397 . S
C2008 C2009 1.334 . S
C2009 H1986 0.950 . S
C2009 C2008 1.334 . S
C2009 C2010 1.287 . S
C2010 C2009 1.287 . S
C2010 C2011 1.524 . S
C2010 H2029 0.913 . S
C2011 H1987 0.950 . S
C2011 C2010 1.524 . S
C2011 C2012 1.415 . S
C2012 H1988 0.950 . S
C2012 C2007 1.363 . S
C2012 C2011 1.415 . S
C2013 H1989 0.951 . S
C2013 C2014 1.366 . S
C2013 C2015 1.388 . S
C2014 C2013 1.366 . S
C2014 C2018 1.385 . S
C2015 H1990 0.951 . S
C2015 C2013 1.388 . S
C2015 C2016 1.366 . S
C2016 C2015 1.366 . S
C2016 C2017 1.414 . S
C2016 C2019 1.499 . S
C2017 H1991 0.950 . S
C2017 C2016 1.414 . S
C2017 C2018 1.374 . S
C2018 H1992 0.950 . S
C2018 C2014 1.385 . S
C2018 C2017 1.374 . S
C2019 C2016 1.499 . S
C2019 C2020 1.373 . S
C2019 C2021 1.389 . S
C2020 H1993 0.950 . S
C2020 C2006 1.377 . S
C2020 C2019 1.373 . S
C2021 C2005 1.377 . S
C2021 C2019 1.389 . S
C2021 C2022 1.524 . S
C2022 C2021 1.524 . S
C2022 C2023 1.397 . S
C2022 C2027 1.363 . S
C2023 H1994 0.950 . S
C2023 C2022 1.397 . S
C2023 C2024 1.334 . S
C2024 H1995 0.950 . S
C2024 C2023 1.334 . S
C2024 C2025 1.287 . S
C2025 C2024 1.287 . S
C2025 C2026 1.524 . S
C2025 H2028 0.999 . S
C2026 H1996 0.950 . S
C2026 C2025 1.524 . S
C2026 C2027 1.415 . S
C2027 H1997 0.950 . S
C2027 C2022 1.363 . S
C2027 C2026 1.415 . S
H2028 C2025 0.999 . S
H2029 C2010 0.913 . S
H2030 C2048 0.951 . S
H2031 C2050 0.951 . S
H2032 C2052 0.950 . S
H2033 C2053 0.950 . S
H2034 C2055 0.950 1_565 S
H2035 C2058 0.950 . S
H2036 C2059 0.950 . S
H2037 C2061 0.950 . S
H2038 C2062 0.950 . S
H2039 C2063 0.951 1_565 S
H2040 C2065 0.966 . S
H2041 C2067 0.950 . S
H2042 C2068 0.950 . S
H2043 C2070 0.950 . S
H2044 C2073 0.950 . S
H2045 C2074 0.950 . S
H2046 C2076 0.950 . S
H2047 C2077 0.950 . S
C2048 H2030 0.951 . S
C2048 C2049 1.366 . S
C2048 C2050 1.388 . S
C2049 C2048 1.366 . S
C2049 C2053 1.385 . S
C2050 H2031 0.951 . S
C2050 C2048 1.388 . S
C2050 C2051 1.366 . S
C2051 C2050 1.366 . S
C2051 C2052 1.414 . S
C2051 C2054 1.499 . S
C2052 H2032 0.950 . S
C2052 C2051 1.414 . S
C2052 C2053 1.374 . S
C2053 H2033 0.950 . S
C2053 C2049 1.385 . S
C2053 C2052 1.374 . S
C2054 C2051 1.499 . S
C2054 C2055 1.373 . S
C2054 C2056 1.389 . S
C2055 H2034 0.950 1_545 S
C2055 C2054 1.373 . S
C2055 C2071 1.377 . S
C2056 C2054 1.389 . S
C2056 C2057 1.524 . S
C2056 C2070 1.377 . S
C2057 C2056 1.524 . S
C2057 C2058 1.397 . S
C2057 C2062 1.363 . S
C2058 H2035 0.950 . S
C2058 C2057 1.397 . S
C2058 C2059 1.334 . S
C2059 H2036 0.950 . S
C2059 C2058 1.334 . S
C2059 C2060 1.287 . S
C2060 C2059 1.287 . S
C2060 C2061 1.524 . S
C2060 H2079 0.913 . S
C2061 H2037 0.950 . S
C2061 C2060 1.524 . S
C2061 C2062 1.415 . S
C2062 H2038 0.950 . S
C2062 C2057 1.363 . S
C2062 C2061 1.415 . S
C2063 H2039 0.951 1_545 S
C2063 C2064 1.366 . S
C2063 C2065 1.388 . S
C2064 C2063 1.366 . S
C2064 C2068 1.385 . S
C2065 H2040 0.966 . S
C2065 C2063 1.388 . S
C2065 C2066 1.366 . S
C2066 C2065 1.366 . S
C2066 C2067 1.414 . S
C2066 C2069 1.499 . S
C2067 H2041 0.950 . S
C2067 C2066 1.414 . S
C2067 C2068 1.374 . S
C2068 H2042 0.950 . S
C2068 C2064 1.385 . S
C2068 C2067 1.374 . S
C2069 C2066 1.499 . S
C2069 C2070 1.373 . S
C2069 C2071 1.389 . S
C2070 H2043 0.950 . S
C2070 C2056 1.377 . S
C2070 C2069 1.373 . S
C2071 C2055 1.377 . S
C2071 C2069 1.389 . S
C2071 C2072 1.524 1_545 S
C2072 C2071 1.524 1_565 S
C2072 C2073 1.397 . S
C2072 C2077 1.363 . S
C2073 H2044 0.950 . S
C2073 C2072 1.397 . S
C2073 C2074 1.334 . S
C2074 H2045 0.950 . S
C2074 C2073 1.334 . S
C2074 C2075 1.287 . S
C2075 C2074 1.287 . S
C2075 C2076 1.524 . S
C2075 H2078 0.999 . S
C2076 H2046 0.950 . S
C2076 C2075 1.524 . S
C2076 C2077 1.415 . S
C2077 H2047 0.950 . S
C2077 C2072 1.363 . S
C2077 C2076 1.415 . S
H2078 C2075 0.999 . S
H2079 C2060 0.913 . S
H2080 C2098 0.951 . S
H2081 C2100 0.951 . S
H2082 C2102 0.950 . S
H2083 C2103 0.950 . S
H2084 C2105 0.950 . S
H2085 C2108 0.950 . S
H2086 C2109 0.950 . S
H2087 C2111 0.950 . S
H2088 C2112 0.950 . S
H2089 C2113 0.951 . S
H2090 C2115 0.951 . S
H2091 C2117 0.950 . S
H2092 C2118 0.950 . S
H2093 C2120 0.950 . S
H2094 C2123 0.950 . S
H2095 C2124 0.950 . S
H2096 C2126 0.950 . S
H2097 C2127 0.950 . S
C2098 H2080 0.951 . S
C2098 C2099 1.366 . S
C2098 C2100 1.388 . S
C2099 C2098 1.366 . S
C2099 C2103 1.385 . S
C2100 H2081 0.951 . S
C2100 C2098 1.388 . S
C2100 C2101 1.366 . S
C2101 C2100 1.366 . S
C2101 C2102 1.414 . S
C2101 C2104 1.499 . S
C2102 H2082 0.950 . S
C2102 C2101 1.414 . S
C2102 C2103 1.374 . S
C2103 H2083 0.950 . S
C2103 C2099 1.385 . S
C2103 C2102 1.374 . S
C2104 C2101 1.499 . S
C2104 C2105 1.373 . S
C2104 C2106 1.389 . S
C2105 H2084 0.950 . S
C2105 C2104 1.373 . S
C2105 C2121 1.377 . S
C2106 C2104 1.389 . S
C2106 C2107 1.524 . S
C2106 C2120 1.377 . S
C2107 C2106 1.524 . S
C2107 C2108 1.397 . S
C2107 C2112 1.363 . S
C2108 H2085 0.950 . S
C2108 C2107 1.397 . S
C2108 C2109 1.334 . S
C2109 H2086 0.950 . S
C2109 C2108 1.334 . S
C2109 C2110 1.287 . S
C2110 C2109 1.287 . S
C2110 C2111 1.524 . S
C2110 H2129 0.913 . S
C2111 H2087 0.950 . S
C2111 C2110 1.524 . S
C2111 C2112 1.415 . S
C2112 H2088 0.950 . S
C2112 C2107 1.363 . S
C2112 C2111 1.415 . S
C2113 H2089 0.951 . S
C2113 C2114 1.366 . S
C2113 C2115 1.388 . S
C2114 C2113 1.366 . S
C2114 C2118 1.385 . S
C2115 H2090 0.951 . S
C2115 C2113 1.388 . S
C2115 C2116 1.366 . S
C2116 C2115 1.366 . S
C2116 C2117 1.414 . S
C2116 C2119 1.499 . S
C2117 H2091 0.950 . S
C2117 C2116 1.414 . S
C2117 C2118 1.374 . S
C2118 H2092 0.950 . S
C2118 C2114 1.385 . S
C2118 C2117 1.374 . S
C2119 C2116 1.499 . S
C2119 C2120 1.373 . S
C2119 C2121 1.389 . S
C2120 H2093 0.950 . S
C2120 C2106 1.377 . S
C2120 C2119 1.373 . S
C2121 C2105 1.377 . S
C2121 C2119 1.389 . S
C2121 C2122 1.524 . S
C2122 C2121 1.524 . S
C2122 C2123 1.397 . S
C2122 C2127 1.363 . S
C2123 H2094 0.950 . S
C2123 C2122 1.397 . S
C2123 C2124 1.334 . S
C2124 H2095 0.950 . S
C2124 C2123 1.334 . S
C2124 C2125 1.287 . S
C2125 C2124 1.287 . S
C2125 C2126 1.524 . S
C2125 H2128 0.999 . S
C2126 H2096 0.950 . S
C2126 C2125 1.524 . S
C2126 C2127 1.415 . S
C2127 H2097 0.950 . S
C2127 C2122 1.363 . S
C2127 C2126 1.415 . S
H2128 C2125 0.999 . S
H2129 C2110 0.913 . S
H2130 C2148 0.951 . S
H2131 C2150 0.951 . S
H2132 C2152 0.950 . S
H2133 C2153 0.950 . S
H2134 C2155 0.950 . S
H2135 C2158 0.950 . S
H2136 C2159 0.950 . S
H2137 C2161 0.950 . S
H2138 C2162 0.950 . S
H2139 C2163 0.951 . S
H2140 C2165 0.951 . S
H2141 C2167 0.950 . S
H2142 C2168 0.950 . S
H2143 C2170 0.950 . S
H2144 C2173 0.950 . S
H2145 C2174 0.950 . S
H2146 C2176 0.950 . S
H2147 C2177 0.950 . S
C2148 H2130 0.951 . S
C2148 C2149 1.366 . S
C2148 C2150 1.388 . S
C2149 C2148 1.366 . S
C2149 C2153 1.385 . S
C2150 H2131 0.951 . S
C2150 C2148 1.388 . S
C2150 C2151 1.366 . S
C2151 C2150 1.366 . S
C2151 C2152 1.414 . S
C2151 C2154 1.499 . S
C2152 H2132 0.950 . S
C2152 C2151 1.414 . S
C2152 C2153 1.374 . S
C2153 H2133 0.950 . S
C2153 C2149 1.385 . S
C2153 C2152 1.374 . S
C2154 C2151 1.499 . S
C2154 C2155 1.373 . S
C2154 C2156 1.389 . S
C2155 H2134 0.950 . S
C2155 C2154 1.373 . S
C2155 C2171 1.377 . S
C2156 C2154 1.389 . S
C2156 C2157 1.524 . S
C2156 C2170 1.377 . S
C2157 C2156 1.524 . S
C2157 C2158 1.397 . S
C2157 C2162 1.363 . S
C2158 H2135 0.950 . S
C2158 C2157 1.397 . S
C2158 C2159 1.334 . S
C2159 H2136 0.950 . S
C2159 C2158 1.334 . S
C2159 C2160 1.287 . S
C2160 C2159 1.287 . S
C2160 C2161 1.524 . S
C2160 H2179 0.913 . S
C2161 H2137 0.950 . S
C2161 C2160 1.524 . S
C2161 C2162 1.415 . S
C2162 H2138 0.950 . S
C2162 C2157 1.363 . S
C2162 C2161 1.415 . S
C2163 H2139 0.951 . S
C2163 C2164 1.366 . S
C2163 C2165 1.388 . S
C2164 C2163 1.366 . S
C2164 C2168 1.385 . S
C2165 H2140 0.951 . S
C2165 C2163 1.388 . S
C2165 C2166 1.366 . S
C2166 C2165 1.366 . S
C2166 C2167 1.414 . S
C2166 C2169 1.499 . S
C2167 H2141 0.950 . S
C2167 C2166 1.414 . S
C2167 C2168 1.374 . S
C2168 H2142 0.950 . S
C2168 C2164 1.385 . S
C2168 C2167 1.374 . S
C2169 C2166 1.499 . S
C2169 C2170 1.373 . S
C2169 C2171 1.389 . S
C2170 H2143 0.950 . S
C2170 C2156 1.377 . S
C2170 C2169 1.373 . S
C2171 C2155 1.377 . S
C2171 C2169 1.389 . S
C2171 C2172 1.524 . S
C2172 C2171 1.524 . S
C2172 C2173 1.397 . S
C2172 C2177 1.363 . S
C2173 H2144 0.950 . S
C2173 C2172 1.397 . S
C2173 C2174 1.334 . S
C2174 H2145 0.950 . S
C2174 C2173 1.334 . S
C2174 C2175 1.287 . S
C2175 C2174 1.287 . S
C2175 C2176 1.524 . S
C2175 H2178 0.999 . S
C2176 H2146 0.950 . S
C2176 C2175 1.524 . S
C2176 C2177 1.415 . S
C2177 H2147 0.950 . S
C2177 C2172 1.363 . S
C2177 C2176 1.415 . S
H2178 C2175 0.999 . S
H2179 C2160 0.913 . S
H2180 C2198 0.951 . S
H2181 C2200 0.951 . S
H2182 C2202 0.950 . S
H2183 C2203 0.950 . S
H2184 C2205 0.950 . S
H2185 C2208 0.950 . S
H2186 C2209 0.950 . S
H2187 C2211 0.950 . S
H2188 C2212 0.950 . S
H2189 C2213 0.951 . S
H2190 C2215 0.951 . S
H2191 C2217 0.950 . S
H2192 C2218 0.950 . S
H2193 C2220 0.950 . S
H2194 C2223 0.950 . S
H2195 C2224 0.950 . S
H2196 C2226 0.950 . S
H2197 C2227 0.950 . S
C2198 H2180 0.951 . S
C2198 C2199 1.366 . S
C2198 C2200 1.388 . S
C2199 C2198 1.366 . S
C2199 C2203 1.385 . S
C2200 H2181 0.951 . S
C2200 C2198 1.388 . S
C2200 C2201 1.366 . S
C2201 C2200 1.366 . S
C2201 C2202 1.414 . S
C2201 C2204 1.499 . S
C2202 H2182 0.950 . S
C2202 C2201 1.414 . S
C2202 C2203 1.374 . S
C2203 H2183 0.950 . S
C2203 C2199 1.385 . S
C2203 C2202 1.374 . S
C2204 C2201 1.499 . S
C2204 C2205 1.373 . S
C2204 C2206 1.389 . S
C2205 H2184 0.950 . S
C2205 C2204 1.373 . S
C2205 C2221 1.377 . S
C2206 C2204 1.389 . S
C2206 C2207 1.524 . S
C2206 C2220 1.377 . S
C2207 C2206 1.524 . S
C2207 C2208 1.397 . S
C2207 C2212 1.363 . S
C2208 H2185 0.950 . S
C2208 C2207 1.397 . S
C2208 C2209 1.334 . S
C2209 H2186 0.950 . S
C2209 C2208 1.334 . S
C2209 C2210 1.287 . S
C2210 C2209 1.287 . S
C2210 C2211 1.524 . S
C2210 H2229 0.913 . S
C2211 H2187 0.950 . S
C2211 C2210 1.524 . S
C2211 C2212 1.415 . S
C2212 H2188 0.950 . S
C2212 C2207 1.363 . S
C2212 C2211 1.415 . S
C2213 H2189 0.951 . S
C2213 C2214 1.366 . S
C2213 C2215 1.388 . S
C2214 C2213 1.366 . S
C2214 C2218 1.385 . S
C2215 H2190 0.951 . S
C2215 C2213 1.388 . S
C2215 C2216 1.366 . S
C2216 C2215 1.366 . S
C2216 C2217 1.414 . S
C2216 C2219 1.499 . S
C2217 H2191 0.950 . S
C2217 C2216 1.414 . S
C2217 C2218 1.374 . S
C2218 H2192 0.950 . S
C2218 C2214 1.385 . S
C2218 C2217 1.374 . S
C2219 C2216 1.499 . S
C2219 C2220 1.373 . S
C2219 C2221 1.389 . S
C2220 H2193 0.950 . S
C2220 C2206 1.377 . S
C2220 C2219 1.373 . S
C2221 C2205 1.377 . S
C2221 C2219 1.389 . S
C2221 C2222 1.524 . S
C2222 C2221 1.524 . S
C2222 C2223 1.397 . S
C2222 C2227 1.363 . S
C2223 H2194 0.950 . S
C2223 C2222 1.397 . S
C2223 C2224 1.334 . S
C2224 H2195 0.950 . S
C2224 C2223 1.334 . S
C2224 C2225 1.287 . S
C2225 C2224 1.287 . S
C2225 C2226 1.524 . S
C2225 H2228 0.999 . S
C2226 H2196 0.950 . S
C2226 C2225 1.524 . S
C2226 C2227 1.415 . S
C2227 H2197 0.950 . S
C2227 C2222 1.363 . S
C2227 C2226 1.415 . S
H2228 C2225 0.999 . S
H2229 C2210 0.913 . S
H2230 C2248 0.951 . S
H2231 C2250 0.951 . S
H2232 C2252 0.950 . S
H2233 C2253 0.950 . S
H2234 C2255 0.950 . S
H2235 C2258 0.950 . S
H2236 C2259 0.950 . S
H2237 C2261 0.950 . S
H2238 C2262 0.951 . S
H2239 C2263 0.951 . S
H2240 C2265 0.951 . S
H2241 C2267 0.947 1_565 S
H2242 C2268 0.950 1_565 S
H2243 C2270 0.950 . S
H2244 C2273 0.950 . S
H2245 C2274 0.950 . S
H2246 C2276 0.950 . S
H2247 C2277 0.950 . S
C2248 H2230 0.951 . S
C2248 C2249 1.366 . S
C2248 C2250 1.388 . S
C2249 C2248 1.366 . S
C2249 C2253 1.385 . S
C2250 H2231 0.951 . S
C2250 C2248 1.388 . S
C2250 C2251 1.366 . S
C2251 C2250 1.366 . S
C2251 C2252 1.414 . S
C2251 C2254 1.499 . S
C2252 H2232 0.950 . S
C2252 C2251 1.414 . S
C2252 C2253 1.374 . S
C2253 H2233 0.950 . S
C2253 C2249 1.385 . S
C2253 C2252 1.374 . S
C2254 C2251 1.499 . S
C2254 C2255 1.373 . S
C2254 C2256 1.389 . S
C2255 H2234 0.950 . S
C2255 C2254 1.373 . S
C2255 C2271 1.377 . S
C2256 C2254 1.389 . S
C2256 C2257 1.524 . S
C2256 C2270 1.377 . S
C2257 C2256 1.524 . S
C2257 C2258 1.397 . S
C2257 C2262 1.362 1_545 S
C2258 H2235 0.950 . S
C2258 C2257 1.397 . S
C2258 C2259 1.334 . S
C2259 H2236 0.950 . S
C2259 C2258 1.334 . S
C2259 C2260 1.287 . S
C2260 C2259 1.287 . S
C2260 C2261 1.524 1_545 S
C2260 H2279 0.913 . S
C2261 H2237 0.950 . S
C2261 C2260 1.524 1_565 S
C2261 C2262 1.415 . S
C2262 H2238 0.951 . S
C2262 C2257 1.362 1_565 S
C2262 C2261 1.415 . S
C2263 H2239 0.951 . S
C2263 C2264 1.366 . S
C2263 C2265 1.388 . S
C2264 C2263 1.366 . S
C2264 C2268 1.385 . S
C2265 H2240 0.951 . S
C2265 C2263 1.388 . S
C2265 C2266 1.366 . S
C2266 C2265 1.366 . S
C2266 C2267 1.414 . S
C2266 C2269 1.499 . S
C2267 H2241 0.947 1_545 S
C2267 C2266 1.414 . S
C2267 C2268 1.374 . S
C2268 H2242 0.950 1_545 S
C2268 C2264 1.385 . S
C2268 C2267 1.374 . S
C2269 C2266 1.499 . S
C2269 C2270 1.373 . S
C2269 C2271 1.389 . S
C2270 H2243 0.950 . S
C2270 C2256 1.377 . S
C2270 C2269 1.373 . S
C2271 C2255 1.377 . S
C2271 C2269 1.389 . S
C2271 C2272 1.524 . S
C2272 C2271 1.524 . S
C2272 C2273 1.397 . S
C2272 C2277 1.363 . S
C2273 H2244 0.950 . S
C2273 C2272 1.397 . S
C2273 C2274 1.334 . S
C2274 H2245 0.950 . S
C2274 C2273 1.334 . S
C2274 C2275 1.287 . S
C2275 C2274 1.287 . S
C2275 C2276 1.524 . S
C2275 H2278 0.999 . S
C2276 H2246 0.950 . S
C2276 C2275 1.524 . S
C2276 C2277 1.415 . S
C2277 H2247 0.950 . S
C2277 C2272 1.363 . S
C2277 C2276 1.415 . S
H2278 C2275 0.999 . S
H2279 C2260 0.913 . S
H2280 C2298 0.951 . S
H2281 C2300 0.951 . S
H2282 C2302 0.950 . S
H2283 C2303 0.950 . S
H2284 C2305 0.950 . S
H2285 C2308 0.950 . S
H2286 C2309 0.950 . S
H2287 C2311 0.950 . S
H2288 C2312 0.950 . S
H2289 C2313 0.951 . S
H2290 C2315 0.951 . S
H2291 C2317 0.950 . S
H2292 C2318 0.950 . S
H2293 C2320 0.950 . S
H2294 C2323 0.950 . S
H2295 C2324 0.950 . S
H2296 C2326 0.950 . S
H2297 C2327 0.950 . S
C2298 H2280 0.951 . S
C2298 C2299 1.366 . S
C2298 C2300 1.388 . S
C2299 C2298 1.366 . S
C2299 C2303 1.385 . S
C2300 H2281 0.951 . S
C2300 C2298 1.388 . S
C2300 C2301 1.366 . S
C2301 C2300 1.366 . S
C2301 C2302 1.414 . S
C2301 C2304 1.499 . S
C2302 H2282 0.950 . S
C2302 C2301 1.414 . S
C2302 C2303 1.374 . S
C2303 H2283 0.950 . S
C2303 C2299 1.385 . S
C2303 C2302 1.374 . S
C2304 C2301 1.499 . S
C2304 C2305 1.373 . S
C2304 C2306 1.389 . S
C2305 H2284 0.950 . S
C2305 C2304 1.373 . S
C2305 C2321 1.377 . S
C2306 C2304 1.389 . S
C2306 C2307 1.524 . S
C2306 C2320 1.377 . S
C2307 C2306 1.524 . S
C2307 C2308 1.397 . S
C2307 C2312 1.363 . S
C2308 H2285 0.950 . S
C2308 C2307 1.397 . S
C2308 C2309 1.334 . S
C2309 H2286 0.950 . S
C2309 C2308 1.334 . S
C2309 C2310 1.287 . S
C2310 C2309 1.287 . S
C2310 C2311 1.524 . S
C2310 H2329 0.913 . S
C2311 H2287 0.950 . S
C2311 C2310 1.524 . S
C2311 C2312 1.415 . S
C2312 H2288 0.950 . S
C2312 C2307 1.363 . S
C2312 C2311 1.415 . S
C2313 H2289 0.951 . S
C2313 C2314 1.366 . S
C2313 C2315 1.388 . S
C2314 C2313 1.366 . S
C2314 C2318 1.385 . S
C2315 H2290 0.951 . S
C2315 C2313 1.388 . S
C2315 C2316 1.366 . S
C2316 C2315 1.366 . S
C2316 C2317 1.414 . S
C2316 C2319 1.499 . S
C2317 H2291 0.950 . S
C2317 C2316 1.414 . S
C2317 C2318 1.374 . S
C2318 H2292 0.950 . S
C2318 C2314 1.385 . S
C2318 C2317 1.374 . S
C2319 C2316 1.499 . S
C2319 C2320 1.373 . S
C2319 C2321 1.389 . S
C2320 H2293 0.950 . S
C2320 C2306 1.377 . S
C2320 C2319 1.373 . S
C2321 C2305 1.377 . S
C2321 C2319 1.389 . S
C2321 C2322 1.524 . S
C2322 C2321 1.524 . S
C2322 C2323 1.397 . S
C2322 C2327 1.363 . S
C2323 H2294 0.950 . S
C2323 C2322 1.397 . S
C2323 C2324 1.334 . S
C2324 H2295 0.950 . S
C2324 C2323 1.334 . S
C2324 C2325 1.287 . S
C2325 C2324 1.287 . S
C2325 C2326 1.524 . S
C2325 H2328 0.999 . S
C2326 H2296 0.950 . S
C2326 C2325 1.524 . S
C2326 C2327 1.415 . S
C2327 H2297 0.950 . S
C2327 C2322 1.363 . S
C2327 C2326 1.415 . S
H2328 C2325 0.999 . S
H2329 C2310 0.913 . S
H2330 C2348 0.951 . S
H2331 C2350 0.951 . S
H2332 C2352 0.950 . S
H2333 C2353 0.950 . S
H2334 C2355 0.950 . S
H2335 C2358 0.950 . S
H2336 C2359 0.950 . S
H2337 C2361 0.950 . S
H2338 C2362 0.950 . S
H2339 C2363 0.951 . S
H2340 C2365 0.951 . S
H2341 C2367 0.950 . S
H2342 C2368 0.950 . S
H2343 C2370 0.950 . S
H2344 C2373 0.950 . S
H2345 C2374 0.950 . S
H2346 C2376 0.950 . S
H2347 C2377 0.950 . S
C2348 H2330 0.951 . S
C2348 C2349 1.366 . S
C2348 C2350 1.388 . S
C2349 C2348 1.366 . S
C2349 C2353 1.385 . S
C2350 H2331 0.951 . S
C2350 C2348 1.388 . S
C2350 C2351 1.366 . S
C2351 C2350 1.366 . S
C2351 C2352 1.414 . S
C2351 C2354 1.499 . S
C2352 H2332 0.950 . S
C2352 C2351 1.414 . S
C2352 C2353 1.374 . S
C2353 H2333 0.950 . S
C2353 C2349 1.385 . S
C2353 C2352 1.374 . S
C2354 C2351 1.499 . S
C2354 C2355 1.373 . S
C2354 C2356 1.389 . S
C2355 H2334 0.950 . S
C2355 C2354 1.373 . S
C2355 C2371 1.377 . S
C2356 C2354 1.389 . S
C2356 C2357 1.524 . S
C2356 C2370 1.377 . S
C2357 C2356 1.524 . S
C2357 C2358 1.397 . S
C2357 C2362 1.363 . S
C2358 H2335 0.950 . S
C2358 C2357 1.397 . S
C2358 C2359 1.334 . S
C2359 H2336 0.950 . S
C2359 C2358 1.334 . S
C2359 C2360 1.287 . S
C2360 C2359 1.287 . S
C2360 C2361 1.524 . S
C2360 H2379 0.913 . S
C2361 H2337 0.950 . S
C2361 C2360 1.524 . S
C2361 C2362 1.415 . S
C2362 H2338 0.950 . S
C2362 C2357 1.363 . S
C2362 C2361 1.415 . S
C2363 H2339 0.951 . S
C2363 C2364 1.366 . S
C2363 C2365 1.388 . S
C2364 C2363 1.366 . S
C2364 C2368 1.385 . S
C2365 H2340 0.951 . S
C2365 C2363 1.388 . S
C2365 C2366 1.366 . S
C2366 C2365 1.366 . S
C2366 C2367 1.414 . S
C2366 C2369 1.499 . S
C2367 H2341 0.950 . S
C2367 C2366 1.414 . S
C2367 C2368 1.374 . S
C2368 H2342 0.950 . S
C2368 C2364 1.385 . S
C2368 C2367 1.374 . S
C2369 C2366 1.499 . S
C2369 C2370 1.373 . S
C2369 C2371 1.389 . S
C2370 H2343 0.950 . S
C2370 C2356 1.377 . S
C2370 C2369 1.373 . S
C2371 C2355 1.377 . S
C2371 C2369 1.389 . S
C2371 C2372 1.524 . S
C2372 C2371 1.524 . S
C2372 C2373 1.397 . S
C2372 C2377 1.363 . S
C2373 H2344 0.950 . S
C2373 C2372 1.397 . S
C2373 C2374 1.334 . S
C2374 H2345 0.950 . S
C2374 C2373 1.334 . S
C2374 C2375 1.287 . S
C2375 C2374 1.287 . S
C2375 C2376 1.524 . S
C2375 H2378 0.999 . S
C2376 H2346 0.950 . S
C2376 C2375 1.524 . S
C2376 C2377 1.415 . S
C2377 H2347 0.950 . S
C2377 C2372 1.363 . S
C2377 C2376 1.415 . S
H2378 C2375 0.999 . S
H2379 C2360 0.913 . S
H2380 C2398 0.951 . S
H2381 C2400 0.951 . S
H2382 C2402 0.950 . S
H2383 C2403 0.950 . S
H2384 C2405 0.950 . S
H2385 C2408 0.950 . S
H2386 C2409 0.950 . S
H2387 C2411 0.950 . S
H2388 C2412 0.950 . S
H2389 C2413 0.951 . S
H2390 C2415 0.951 . S
H2391 C2417 0.950 . S
H2392 C2418 0.950 . S
H2393 C2420 0.950 . S
H2394 C2423 0.950 . S
H2395 C2424 0.950 . S
H2396 C2426 0.950 . S
H2397 C2427 0.950 . S
C2398 H2380 0.951 . S
C2398 C2399 1.366 . S
C2398 C2400 1.388 . S
C2399 C2398 1.366 . S
C2399 C2403 1.385 . S
C2400 H2381 0.951 . S
C2400 C2398 1.388 . S
C2400 C2401 1.366 . S
C2401 C2400 1.366 . S
C2401 C2402 1.414 . S
C2401 C2404 1.499 . S
C2402 H2382 0.950 . S
C2402 C2401 1.414 . S
C2402 C2403 1.374 . S
C2403 H2383 0.950 . S
C2403 C2399 1.385 . S
C2403 C2402 1.374 . S
C2404 C2401 1.499 . S
C2404 C2405 1.373 . S
C2404 C2406 1.389 . S
C2405 H2384 0.950 . S
C2405 C2404 1.373 . S
C2405 C2421 1.377 . S
C2406 C2404 1.389 . S
C2406 C2407 1.524 . S
C2406 C2420 1.377 . S
C2407 C2406 1.524 . S
C2407 C2408 1.397 . S
C2407 C2412 1.363 . S
C2408 H2385 0.950 . S
C2408 C2407 1.397 . S
C2408 C2409 1.334 . S
C2409 H2386 0.950 . S
C2409 C2408 1.334 . S
C2409 C2410 1.287 . S
C2410 C2409 1.287 . S
C2410 C2411 1.524 . S
C2410 H2429 0.913 . S
C2411 H2387 0.950 . S
C2411 C2410 1.524 . S
C2411 C2412 1.415 . S
C2412 H2388 0.950 . S
C2412 C2407 1.363 . S
C2412 C2411 1.415 . S
C2413 H2389 0.951 . S
C2413 C2414 1.366 . S
C2413 C2415 1.388 . S
C2414 C2413 1.366 . S
C2414 C2418 1.385 . S
C2415 H2390 0.951 . S
C2415 C2413 1.388 . S
C2415 C2416 1.366 . S
C2416 C2415 1.366 . S
C2416 C2417 1.414 . S
C2416 C2419 1.499 . S
C2417 H2391 0.950 . S
C2417 C2416 1.414 . S
C2417 C2418 1.374 . S
C2418 H2392 0.950 . S
C2418 C2414 1.385 . S
C2418 C2417 1.374 . S
C2419 C2416 1.499 . S
C2419 C2420 1.373 . S
C2419 C2421 1.389 . S
C2420 H2393 0.950 . S
C2420 C2406 1.377 . S
C2420 C2419 1.373 . S
C2421 C2405 1.377 . S
C2421 C2419 1.389 . S
C2421 C2422 1.524 . S
C2422 C2421 1.524 . S
C2422 C2423 1.397 . S
C2422 C2427 1.363 . S
C2423 H2394 0.950 . S
C2423 C2422 1.397 . S
C2423 C2424 1.334 . S
C2424 H2395 0.950 . S
C2424 C2423 1.334 . S
C2424 C2425 1.287 . S
C2425 C2424 1.287 . S
C2425 C2426 1.524 . S
C2425 H2428 0.999 . S
C2426 H2396 0.950 . S
C2426 C2425 1.524 . S
C2426 C2427 1.415 . S
C2427 H2397 0.950 . S
C2427 C2422 1.363 . S
C2427 C2426 1.415 . S
H2428 C2425 0.999 . S
H2429 C2410 0.913 . S
H2430 C2448 0.951 . S
H2431 C2450 0.951 . S
H2432 C2452 0.950 . S
H2433 C2453 0.950 . S
H2434 C2455 0.950 . S
H2435 C2458 0.950 . S
H2436 C2459 0.950 . S
H2437 C2461 0.950 . S
H2438 C2462 0.950 . S
H2439 C2463 0.951 . S
H2440 C2465 0.951 . S
H2441 C2467 0.950 . S
H2442 C2468 0.950 . S
H2443 C2470 0.950 . S
H2444 C2473 0.950 . S
H2445 C2474 0.950 . S
H2446 C2476 0.950 . S
H2447 C2477 0.950 . S
C2448 H2430 0.951 . S
C2448 C2449 1.366 . S
C2448 C2450 1.388 . S
C2449 C2448 1.366 . S
C2449 C2453 1.385 . S
C2450 H2431 0.951 . S
C2450 C2448 1.388 . S
C2450 C2451 1.366 . S
C2451 C2450 1.366 . S
C2451 C2452 1.414 . S
C2451 C2454 1.499 . S
C2452 H2432 0.950 . S
C2452 C2451 1.414 . S
C2452 C2453 1.374 . S
C2453 H2433 0.950 . S
C2453 C2449 1.385 . S
C2453 C2452 1.374 . S
C2454 C2451 1.499 . S
C2454 C2455 1.373 . S
C2454 C2456 1.389 . S
C2455 H2434 0.950 . S
C2455 C2454 1.373 . S
C2455 C2471 1.377 . S
C2456 C2454 1.389 . S
C2456 C2457 1.524 . S
C2456 C2470 1.377 . S
C2457 C2456 1.524 . S
C2457 C2458 1.397 . S
C2457 C2462 1.363 . S
C2458 H2435 0.950 . S
C2458 C2457 1.397 . S
C2458 C2459 1.334 . S
C2459 H2436 0.950 . S
C2459 C2458 1.334 . S
C2459 C2460 1.287 . S
C2460 C2459 1.287 . S
C2460 C2461 1.524 . S
C2460 H2479 0.913 . S
C2461 H2437 0.950 . S
C2461 C2460 1.524 . S
C2461 C2462 1.415 . S
C2462 H2438 0.950 . S
C2462 C2457 1.363 . S
C2462 C2461 1.415 . S
C2463 H2439 0.951 . S
C2463 C2464 1.366 . S
C2463 C2465 1.388 . S
C2464 C2463 1.366 . S
C2464 C2468 1.385 1_655 S
C2465 H2440 0.951 . S
C2465 C2463 1.388 . S
C2465 C2466 1.366 . S
C2466 C2465 1.366 . S
C2466 C2467 1.414 1_655 S
C2466 C2469 1.499 . S
C2467 H2441 0.950 . S
C2467 C2466 1.414 1_455 S
C2467 C2468 1.374 . S
C2468 H2442 0.950 . S
C2468 C2464 1.385 1_455 S
C2468 C2467 1.374 . S
C2469 C2466 1.499 . S
C2469 C2470 1.373 . S
C2469 C2471 1.389 . S
C2470 H2443 0.950 . S
C2470 C2456 1.377 . S
C2470 C2469 1.373 . S
C2471 C2455 1.377 . S
C2471 C2469 1.389 . S
C2471 C2472 1.524 . S
C2472 C2471 1.524 . S
C2472 C2473 1.397 1_655 S
C2472 C2477 1.363 . S
C2473 H2444 0.950 . S
C2473 C2472 1.397 1_455 S
C2473 C2474 1.334 . S
C2474 H2445 0.950 . S
C2474 C2473 1.334 . S
C2474 C2475 1.287 . S
C2475 C2474 1.287 . S
C2475 C2476 1.524 1_455 S
C2475 H2478 0.999 . S
C2476 H2446 0.950 . S
C2476 C2475 1.524 1_655 S
C2476 C2477 1.415 . S
C2477 H2447 0.950 . S
C2477 C2472 1.363 . S
C2477 C2476 1.415 . S
H2478 C2475 0.999 . S
H2479 C2460 0.913 . S
H2480 C2498 0.951 . S
H2481 C2500 0.951 . S
H2482 C2502 0.950 . S
H2483 C2503 0.950 . S
H2484 C2505 0.950 . S
H2485 C2508 0.950 . S
H2486 C2509 0.950 . S
H2487 C2511 0.950 . S
H2488 C2512 0.950 . S
H2489 C2513 0.951 . S
H2490 C2515 0.951 . S
H2491 C2517 0.950 . S
H2492 C2518 0.950 . S
H2493 C2520 0.950 . S
H2494 C2523 0.950 . S
H2495 C2524 0.950 . S
H2496 C2526 0.950 . S
H2497 C2527 0.950 . S
C2498 H2480 0.951 . S
C2498 C2499 1.366 . S
C2498 C2500 1.388 . S
C2499 C2498 1.366 . S
C2499 C2503 1.385 . S
C2500 H2481 0.951 . S
C2500 C2498 1.388 . S
C2500 C2501 1.366 . S
C2501 C2500 1.366 . S
C2501 C2502 1.414 . S
C2501 C2504 1.499 . S
C2502 H2482 0.950 . S
C2502 C2501 1.414 . S
C2502 C2503 1.374 . S
C2503 H2483 0.950 . S
C2503 C2499 1.385 . S
C2503 C2502 1.374 . S
C2504 C2501 1.499 . S
C2504 C2505 1.373 . S
C2504 C2506 1.389 . S
C2505 H2484 0.950 . S
C2505 C2504 1.373 . S
C2505 C2521 1.377 . S
C2506 C2504 1.389 . S
C2506 C2507 1.524 . S
C2506 C2520 1.377 . S
C2507 C2506 1.524 . S
C2507 C2508 1.397 . S
C2507 C2512 1.363 . S
C2508 H2485 0.950 . S
C2508 C2507 1.397 . S
C2508 C2509 1.334 . S
C2509 H2486 0.950 . S
C2509 C2508 1.334 . S
C2509 C2510 1.287 . S
C2510 C2509 1.287 . S
C2510 C2511 1.524 . S
C2510 H2529 0.913 . S
C2511 H2487 0.950 . S
C2511 C2510 1.524 . S
C2511 C2512 1.415 . S
C2512 H2488 0.950 . S
C2512 C2507 1.363 . S
C2512 C2511 1.415 . S
C2513 H2489 0.951 . S
C2513 C2514 1.366 . S
C2513 C2515 1.388 . S
C2514 C2513 1.366 . S
C2514 C2518 1.385 . S
C2515 H2490 0.951 . S
C2515 C2513 1.388 . S
C2515 C2516 1.366 . S
C2516 C2515 1.366 . S
C2516 C2517 1.414 . S
C2516 C2519 1.499 . S
C2517 H2491 0.950 . S
C2517 C2516 1.414 . S
C2517 C2518 1.374 . S
C2518 H2492 0.950 . S
C2518 C2514 1.385 . S
C2518 C2517 1.374 . S
C2519 C2516 1.499 . S
C2519 C2520 1.373 . S
C2519 C2521 1.389 . S
C2520 H2493 0.950 . S
C2520 C2506 1.377 . S
C2520 C2519 1.373 . S
C2521 C2505 1.377 . S
C2521 C2519 1.389 . S
C2521 C2522 1.524 . S
C2522 C2521 1.524 . S
C2522 C2523 1.397 . S
C2522 C2527 1.363 . S
C2523 H2494 0.950 . S
C2523 C2522 1.397 . S
C2523 C2524 1.334 . S
C2524 H2495 0.950 . S
C2524 C2523 1.334 . S
C2524 C2525 1.287 . S
C2525 C2524 1.287 . S
C2525 C2526 1.524 . S
C2525 H2528 0.999 . S
C2526 H2496 0.950 . S
C2526 C2525 1.524 . S
C2526 C2527 1.415 . S
C2527 H2497 0.950 . S
C2527 C2522 1.363 . S
C2527 C2526 1.415 . S
H2528 C2525 0.999 . S
H2529 C2510 0.913 . S
H2530 C2548 0.951 . S
H2531 C2550 0.951 . S
H2532 C2552 0.950 . S
H2533 C2553 0.950 1_554 S
H2534 C2555 0.950 1_655 S
H2535 C2558 0.950 . S
H2536 C2559 0.950 . S
H2537 C2561 0.950 . S
H2538 C2562 0.950 . S
H2539 C2563 0.967 . S
H2540 C2565 0.951 1_655 S
H2541 C2567 0.950 . S
H2542 C2568 0.950 . S
H2543 C2570 0.950 . S
H2544 C2573 0.950 . S
H2545 C2574 0.950 . S
H2546 C2576 0.950 . S
H2547 C2577 0.950 . S
C2548 H2530 0.951 . S
C2548 C2549 1.366 . S
C2548 C2550 1.388 . S
C2549 C2548 1.366 . S
C2549 C2553 1.385 . S
C2550 H2531 0.951 . S
C2550 C2548 1.388 . S
C2550 C2551 1.366 . S
C2551 C2550 1.366 . S
C2551 C2552 1.414 . S
C2551 C2554 1.499 . S
C2552 H2532 0.950 . S
C2552 C2551 1.414 . S
C2552 C2553 1.374 . S
C2553 H2533 0.950 1_556 S
C2553 C2549 1.385 . S
C2553 C2552 1.374 . S
C2554 C2551 1.499 . S
C2554 C2555 1.373 . S
C2554 C2556 1.389 . S
C2555 H2534 0.950 1_455 S
C2555 C2554 1.373 . S
C2555 C2571 1.377 . S
C2556 C2554 1.389 . S
C2556 C2557 1.524 . S
C2556 C2570 1.377 . S
C2557 C2556 1.524 . S
C2557 C2558 1.397 . S
C2557 C2562 1.363 . S
C2558 H2535 0.950 . S
C2558 C2557 1.397 . S
C2558 C2559 1.334 . S
C2559 H2536 0.950 . S
C2559 C2558 1.334 . S
C2559 C2560 1.287 . S
C2560 C2559 1.287 . S
C2560 C2561 1.524 . S
C2560 H2579 0.913 . S
C2561 H2537 0.950 . S
C2561 C2560 1.524 . S
C2561 C2562 1.415 . S
C2562 H2538 0.950 . S
C2562 C2557 1.363 . S
C2562 C2561 1.415 . S
C2563 H2539 0.967 . S
C2563 C2564 1.353 1_655 S
C2563 C2565 1.385 1_655 S
C2564 C2563 1.353 1_455 S
C2564 C2568 1.385 . S
C2565 H2540 0.951 1_455 S
C2565 C2563 1.385 1_455 S
C2565 C2566 1.366 . S
C2566 C2565 1.366 . S
C2566 C2567 1.414 . S
C2566 C2569 1.499 . S
C2567 H2541 0.950 . S
C2567 C2566 1.414 . S
C2567 C2568 1.374 . S
C2568 H2542 0.950 . S
C2568 C2564 1.385 . S
C2568 C2567 1.374 . S
C2569 C2566 1.499 . S
C2569 C2570 1.373 . S
C2569 C2571 1.389 . S
C2570 H2543 0.950 . S
C2570 C2556 1.377 . S
C2570 C2569 1.373 . S
C2571 C2555 1.377 . S
C2571 C2569 1.389 . S
C2571 C2572 1.524 1_455 S
C2572 C2571 1.524 1_655 S
C2572 C2573 1.397 . S
C2572 C2577 1.363 . S
C2573 H2544 0.950 . S
C2573 C2572 1.397 . S
C2573 C2574 1.334 . S
C2574 H2545 0.950 . S
C2574 C2573 1.334 . S
C2574 C2575 1.287 . S
C2575 C2574 1.287 . S
C2575 C2576 1.524 . S
C2575 H2578 0.999 . S
C2576 H2546 0.950 . S
C2576 C2575 1.524 . S
C2576 C2577 1.415 . S
C2577 H2547 0.950 . S
C2577 C2572 1.363 . S
C2577 C2576 1.415 . S
H2578 C2575 0.999 . S
H2579 C2560 0.913 . S
H2580 C2598 0.951 . S
H2581 C2600 0.951 . S
H2582 C2602 0.950 . S
H2583 C2603 0.950 . S
H2584 C2605 0.950 . S
H2585 C2608 0.950 . S
H2586 C2609 0.950 . S
H2587 C2611 0.950 . S
H2588 C2612 0.950 . S
H2589 C2613 0.951 . S
H2590 C2615 0.951 . S
H2591 C2617 0.950 . S
H2592 C2618 0.950 . S
H2593 C2620 0.950 . S
H2594 C2623 0.950 . S
H2595 C2624 0.950 . S
H2596 C2626 0.950 . S
H2597 C2627 0.950 . S
C2598 H2580 0.951 . S
C2598 C2599 1.366 . S
C2598 C2600 1.388 . S
C2599 C2598 1.366 . S
C2599 C2603 1.385 . S
C2600 H2581 0.951 . S
C2600 C2598 1.388 . S
C2600 C2601 1.366 . S
C2601 C2600 1.366 . S
C2601 C2602 1.414 . S
C2601 C2604 1.499 . S
C2602 H2582 0.950 . S
C2602 C2601 1.414 . S
C2602 C2603 1.374 . S
C2603 H2583 0.950 . S
C2603 C2599 1.385 . S
C2603 C2602 1.374 . S
C2604 C2601 1.499 . S
C2604 C2605 1.373 . S
C2604 C2606 1.389 . S
C2605 H2584 0.950 . S
C2605 C2604 1.373 . S
C2605 C2621 1.377 . S
C2606 C2604 1.389 . S
C2606 C2607 1.524 . S
C2606 C2620 1.377 . S
C2607 C2606 1.524 . S
C2607 C2608 1.397 . S
C2607 C2612 1.363 . S
C2608 H2585 0.950 . S
C2608 C2607 1.397 . S
C2608 C2609 1.334 . S
C2609 H2586 0.950 . S
C2609 C2608 1.334 . S
C2609 C2610 1.287 . S
C2610 C2609 1.287 . S
C2610 C2611 1.524 . S
C2610 H2629 0.913 . S
C2611 H2587 0.950 . S
C2611 C2610 1.524 . S
C2611 C2612 1.415 . S
C2612 H2588 0.950 . S
C2612 C2607 1.363 . S
C2612 C2611 1.415 . S
C2613 H2589 0.951 . S
C2613 C2614 1.366 . S
C2613 C2615 1.388 . S
C2614 C2613 1.366 . S
C2614 C2618 1.385 . S
C2615 H2590 0.951 . S
C2615 C2613 1.388 . S
C2615 C2616 1.366 . S
C2616 C2615 1.366 . S
C2616 C2617 1.414 . S
C2616 C2619 1.499 . S
C2617 H2591 0.950 . S
C2617 C2616 1.414 . S
C2617 C2618 1.374 . S
C2618 H2592 0.950 . S
C2618 C2614 1.385 . S
C2618 C2617 1.374 . S
C2619 C2616 1.499 . S
C2619 C2620 1.373 . S
C2619 C2621 1.389 . S
C2620 H2593 0.950 . S
C2620 C2606 1.377 . S
C2620 C2619 1.373 . S
C2621 C2605 1.377 . S
C2621 C2619 1.389 . S
C2621 C2622 1.524 . S
C2622 C2621 1.524 . S
C2622 C2623 1.397 . S
C2622 C2627 1.363 . S
C2623 H2594 0.950 . S
C2623 C2622 1.397 . S
C2623 C2624 1.334 . S
C2624 H2595 0.950 . S
C2624 C2623 1.334 . S
C2624 C2625 1.287 . S
C2625 C2624 1.287 . S
C2625 C2626 1.524 . S
C2625 H2628 0.999 . S
C2626 H2596 0.950 . S
C2626 C2625 1.524 . S
C2626 C2627 1.415 . S
C2627 H2597 0.950 . S
C2627 C2622 1.363 . S
C2627 C2626 1.415 . S
H2628 C2625 0.999 . S
H2629 C2610 0.913 . S
H2630 C2648 0.951 . S
H2631 C2650 0.951 . S
H2632 C2652 0.950 . S
H2633 C2653 0.950 . S
H2634 C2655 0.950 . S
H2635 C2658 0.950 . S
H2636 C2659 0.950 . S
H2637 C2661 0.950 . S
H2638 C2662 0.950 . S
H2639 C2663 0.951 . S
H2640 C2665 0.951 . S
H2641 C2667 0.950 . S
H2642 C2668 0.950 . S
H2643 C2670 0.950 . S
H2644 C2673 0.950 . S
H2645 C2674 0.950 . S
H2646 C2676 0.950 . S
H2647 C2677 0.950 . S
C2648 H2630 0.951 . S
C2648 C2649 1.366 . S
C2648 C2650 1.388 . S
C2649 C2648 1.366 . S
C2649 C2653 1.385 . S
C2650 H2631 0.951 . S
C2650 C2648 1.388 . S
C2650 C2651 1.366 . S
C2651 C2650 1.366 . S
C2651 C2652 1.414 . S
C2651 C2654 1.499 . S
C2652 H2632 0.950 . S
C2652 C2651 1.414 . S
C2652 C2653 1.374 . S
C2653 H2633 0.950 . S
C2653 C2649 1.385 . S
C2653 C2652 1.374 . S
C2654 C2651 1.499 . S
C2654 C2655 1.373 . S
C2654 C2656 1.389 . S
C2655 H2634 0.950 . S
C2655 C2654 1.373 . S
C2655 C2671 1.377 . S
C2656 C2654 1.389 . S
C2656 C2657 1.524 . S
C2656 C2670 1.377 . S
C2657 C2656 1.524 . S
C2657 C2658 1.397 . S
C2657 C2662 1.363 . S
C2658 H2635 0.950 . S
C2658 C2657 1.397 . S
C2658 C2659 1.334 . S
C2659 H2636 0.950 . S
C2659 C2658 1.334 . S
C2659 C2660 1.287 . S
C2660 C2659 1.287 . S
C2660 C2661 1.524 . S
C2660 H2679 0.913 . S
C2661 H2637 0.950 . S
C2661 C2660 1.524 . S
C2661 C2662 1.415 . S
C2662 H2638 0.950 . S
C2662 C2657 1.363 . S
C2662 C2661 1.415 . S
C2663 H2639 0.951 . S
C2663 C2664 1.366 . S
C2663 C2665 1.388 . S
C2664 C2663 1.366 . S
C2664 C2668 1.385 . S
C2665 H2640 0.951 . S
C2665 C2663 1.388 . S
C2665 C2666 1.366 . S
C2666 C2665 1.366 . S
C2666 C2667 1.414 . S
C2666 C2669 1.499 . S
C2667 H2641 0.950 . S
C2667 C2666 1.414 . S
C2667 C2668 1.374 . S
C2668 H2642 0.950 . S
C2668 C2664 1.385 . S
C2668 C2667 1.374 . S
C2669 C2666 1.499 . S
C2669 C2670 1.373 . S
C2669 C2671 1.389 . S
C2670 H2643 0.950 . S
C2670 C2656 1.377 . S
C2670 C2669 1.373 . S
C2671 C2655 1.377 . S
C2671 C2669 1.389 . S
C2671 C2672 1.524 . S
C2672 C2671 1.524 . S
C2672 C2673 1.397 . S
C2672 C2677 1.363 . S
C2673 H2644 0.950 . S
C2673 C2672 1.397 . S
C2673 C2674 1.334 . S
C2674 H2645 0.950 . S
C2674 C2673 1.334 . S
C2674 C2675 1.287 . S
C2675 C2674 1.287 . S
C2675 C2676 1.524 . S
C2675 H2678 0.999 . S
C2676 H2646 0.950 . S
C2676 C2675 1.524 . S
C2676 C2677 1.415 . S
C2677 H2647 0.950 . S
C2677 C2672 1.363 . S
C2677 C2676 1.415 . S
H2678 C2675 0.999 . S
H2679 C2660 0.913 . S
H2680 C2698 0.951 . S
H2681 C2700 0.951 . S
H2682 C2702 0.950 . S
H2683 C2703 0.950 . S
H2684 C2705 0.950 . S
H2685 C2708 0.950 . S
H2686 C2709 0.950 . S
H2687 C2711 0.950 . S
H2688 C2712 0.950 . S
H2689 C2713 0.951 . S
H2690 C2715 0.951 . S
H2691 C2717 0.950 . S
H2692 C2718 0.950 . S
H2693 C2720 0.950 . S
H2694 C2723 0.950 . S
H2695 C2724 0.950 . S
H2696 C2726 0.950 . S
H2697 C2727 0.950 . S
C2698 H2680 0.951 . S
C2698 C2699 1.366 . S
C2698 C2700 1.388 . S
C2699 C2698 1.366 . S
C2699 C2703 1.385 . S
C2700 H2681 0.951 . S
C2700 C2698 1.388 . S
C2700 C2701 1.366 . S
C2701 C2700 1.366 . S
C2701 C2702 1.414 . S
C2701 C2704 1.499 . S
C2702 H2682 0.950 . S
C2702 C2701 1.414 . S
C2702 C2703 1.374 . S
C2703 H2683 0.950 . S
C2703 C2699 1.385 . S
C2703 C2702 1.374 . S
C2704 C2701 1.499 . S
C2704 C2705 1.373 . S
C2704 C2706 1.389 . S
C2705 H2684 0.950 . S
C2705 C2704 1.373 . S
C2705 C2721 1.377 . S
C2706 C2704 1.389 . S
C2706 C2707 1.524 . S
C2706 C2720 1.377 . S
C2707 C2706 1.524 . S
C2707 C2708 1.397 . S
C2707 C2712 1.363 . S
C2708 H2685 0.950 . S
C2708 C2707 1.397 . S
C2708 C2709 1.334 . S
C2709 H2686 0.950 . S
C2709 C2708 1.334 . S
C2709 C2710 1.287 . S
C2710 C2709 1.287 . S
C2710 C2711 1.524 . S
C2710 H2729 0.913 . S
C2711 H2687 0.950 . S
C2711 C2710 1.524 . S
C2711 C2712 1.415 . S
C2712 H2688 0.950 . S
C2712 C2707 1.363 . S
C2712 C2711 1.415 . S
C2713 H2689 0.951 . S
C2713 C2714 1.366 . S
C2713 C2715 1.388 . S
C2714 C2713 1.366 . S
C2714 C2718 1.385 . S
C2715 H2690 0.951 . S
C2715 C2713 1.388 . S
C2715 C2716 1.366 . S
C2716 C2715 1.366 . S
C2716 C2717 1.414 . S
C2716 C2719 1.499 . S
C2717 H2691 0.950 . S
C2717 C2716 1.414 . S
C2717 C2718 1.374 . S
C2718 H2692 0.950 . S
C2718 C2714 1.385 . S
C2718 C2717 1.374 . S
C2719 C2716 1.499 . S
C2719 C2720 1.373 . S
C2719 C2721 1.389 . S
C2720 H2693 0.950 . S
C2720 C2706 1.377 . S
C2720 C2719 1.373 . S
C2721 C2705 1.377 . S
C2721 C2719 1.389 . S
C2721 C2722 1.524 . S
C2722 C2721 1.524 . S
C2722 C2723 1.397 . S
C2722 C2727 1.363 . S
C2723 H2694 0.950 . S
C2723 C2722 1.397 . S
C2723 C2724 1.334 . S
C2724 H2695 0.950 . S
C2724 C2723 1.334 . S
C2724 C2725 1.287 . S
C2725 C2724 1.287 . S
C2725 C2726 1.524 . S
C2725 H2728 0.999 . S
C2726 H2696 0.950 . S
C2726 C2725 1.524 . S
C2726 C2727 1.415 . S
C2727 H2697 0.950 . S
C2727 C2722 1.363 . S
C2727 C2726 1.415 . S
H2728 C2725 0.999 . S
H2729 C2710 0.913 . S
H2730 C2748 0.951 . S
H2731 C2750 0.951 . S
H2732 C2752 0.950 . S
H2733 C2753 0.950 . S
H2734 C2755 0.950 . S
H2735 C2758 0.950 . S
H2736 C2759 0.950 . S
H2737 C2761 0.950 . S
H2738 C2762 0.950 . S
H2739 C2763 0.951 . S
H2740 C2765 0.951 . S
H2741 C2767 0.950 . S
H2742 C2768 0.950 . S
H2743 C2770 0.950 . S
H2744 C2773 0.950 . S
H2745 C2774 0.950 . S
H2746 C2776 0.950 . S
H2747 C2777 0.950 . S
C2748 H2730 0.951 . S
C2748 C2749 1.366 . S
C2748 C2750 1.388 . S
C2749 C2748 1.366 . S
C2749 C2753 1.385 . S
C2750 H2731 0.951 . S
C2750 C2748 1.388 . S
C2750 C2751 1.366 . S
C2751 C2750 1.366 . S
C2751 C2752 1.414 . S
C2751 C2754 1.499 . S
C2752 H2732 0.950 . S
C2752 C2751 1.414 . S
C2752 C2753 1.374 . S
C2753 H2733 0.950 . S
C2753 C2749 1.385 . S
C2753 C2752 1.374 . S
C2754 C2751 1.499 . S
C2754 C2755 1.373 . S
C2754 C2756 1.389 . S
C2755 H2734 0.950 . S
C2755 C2754 1.373 . S
C2755 C2771 1.377 . S
C2756 C2754 1.389 . S
C2756 C2757 1.524 . S
C2756 C2770 1.377 . S
C2757 C2756 1.524 . S
C2757 C2758 1.397 . S
C2757 C2762 1.363 . S
C2758 H2735 0.950 . S
C2758 C2757 1.397 . S
C2758 C2759 1.334 . S
C2759 H2736 0.950 . S
C2759 C2758 1.334 . S
C2759 C2760 1.287 . S
C2760 C2759 1.287 . S
C2760 C2761 1.524 . S
C2760 H2779 0.913 . S
C2761 H2737 0.950 . S
C2761 C2760 1.524 . S
C2761 C2762 1.415 . S
C2762 H2738 0.950 . S
C2762 C2757 1.363 . S
C2762 C2761 1.415 . S
C2763 H2739 0.951 . S
C2763 C2764 1.366 . S
C2763 C2765 1.388 . S
C2764 C2763 1.366 . S
C2764 C2768 1.385 . S
C2765 H2740 0.951 . S
C2765 C2763 1.388 . S
C2765 C2766 1.366 . S
C2766 C2765 1.366 . S
C2766 C2767 1.414 . S
C2766 C2769 1.499 . S
C2767 H2741 0.950 . S
C2767 C2766 1.414 . S
C2767 C2768 1.374 . S
C2768 H2742 0.950 . S
C2768 C2764 1.385 . S
C2768 C2767 1.374 . S
C2769 C2766 1.499 . S
C2769 C2770 1.373 . S
C2769 C2771 1.389 . S
C2770 H2743 0.950 . S
C2770 C2756 1.377 . S
C2770 C2769 1.373 . S
C2771 C2755 1.377 . S
C2771 C2769 1.389 . S
C2771 C2772 1.524 . S
C2772 C2771 1.524 . S
C2772 C2773 1.397 . S
C2772 C2777 1.363 . S
C2773 H2744 0.950 . S
C2773 C2772 1.397 . S
C2773 C2774 1.334 . S
C2774 H2745 0.950 . S
C2774 C2773 1.334 . S
C2774 C2775 1.287 . S
C2775 C2774 1.287 . S
C2775 C2776 1.524 . S
C2775 H2778 0.999 . S
C2776 H2746 0.950 . S
C2776 C2775 1.524 . S
C2776 C2777 1.415 . S
C2777 H2747 0.950 . S
C2777 C2772 1.363 . S
C2777 C2776 1.415 . S
H2778 C2775 0.999 . S
H2779 C2760 0.913 . S
H2780 C2798 0.951 . S
H2781 C2800 0.951 . S
H2782 C2802 0.950 . S
H2783 C2803 0.950 . S
H2784 C2805 0.950 . S
H2785 C2808 0.950 . S
H2786 C2809 0.950 . S
H2787 C2811 0.950 . S
H2788 C2812 0.950 . S
H2789 C2813 0.951 . S
H2790 C2815 0.951 . S
H2791 C2817 0.950 . S
H2792 C2818 0.950 . S
H2793 C2820 0.950 . S
H2794 C2823 0.950 . S
H2795 C2824 0.950 . S
H2796 C2826 0.950 . S
H2797 C2827 0.950 . S
C2798 H2780 0.951 . S
C2798 C2799 1.366 . S
C2798 C2800 1.388 . S
C2799 C2798 1.366 . S
C2799 C2803 1.385 . S
C2800 H2781 0.951 . S
C2800 C2798 1.388 . S
C2800 C2801 1.366 . S
C2801 C2800 1.366 . S
C2801 C2802 1.414 . S
C2801 C2804 1.499 . S
C2802 H2782 0.950 . S
C2802 C2801 1.414 . S
C2802 C2803 1.374 . S
C2803 H2783 0.950 . S
C2803 C2799 1.385 . S
C2803 C2802 1.374 . S
C2804 C2801 1.499 . S
C2804 C2805 1.373 . S
C2804 C2806 1.389 . S
C2805 H2784 0.950 . S
C2805 C2804 1.373 . S
C2805 C2821 1.377 . S
C2806 C2804 1.389 . S
C2806 C2807 1.524 . S
C2806 C2820 1.377 . S
C2807 C2806 1.524 . S
C2807 C2808 1.397 . S
C2807 C2812 1.363 . S
C2808 H2785 0.950 . S
C2808 C2807 1.397 . S
C2808 C2809 1.334 . S
C2809 H2786 0.950 . S
C2809 C2808 1.334 . S
C2809 C2810 1.287 . S
C2810 C2809 1.287 . S
C2810 C2811 1.524 . S
C2810 H2829 0.913 . S
C2811 H2787 0.950 . S
C2811 C2810 1.524 . S
C2811 C2812 1.415 . S
C2812 H2788 0.950 . S
C2812 C2807 1.363 . S
C2812 C2811 1.415 . S
C2813 H2789 0.951 . S
C2813 C2814 1.366 . S
C2813 C2815 1.388 . S
C2814 C2813 1.366 . S
C2814 C2818 1.385 . S
C2815 H2790 0.951 . S
C2815 C2813 1.388 . S
C2815 C2816 1.366 . S
C2816 C2815 1.366 . S
C2816 C2817 1.414 . S
C2816 C2819 1.499 . S
C2817 H2791 0.950 . S
C2817 C2816 1.414 . S
C2817 C2818 1.374 . S
C2818 H2792 0.950 . S
C2818 C2814 1.385 . S
C2818 C2817 1.374 . S
C2819 C2816 1.499 . S
C2819 C2820 1.373 . S
C2819 C2821 1.389 . S
C2820 H2793 0.950 . S
C2820 C2806 1.377 . S
C2820 C2819 1.373 . S
C2821 C2805 1.377 . S
C2821 C2819 1.389 . S
C2821 C2822 1.524 . S
C2822 C2821 1.524 . S
C2822 C2823 1.397 . S
C2822 C2827 1.363 . S
C2823 H2794 0.950 . S
C2823 C2822 1.397 . S
C2823 C2824 1.334 . S
C2824 H2795 0.950 . S
C2824 C2823 1.334 . S
C2824 C2825 1.287 . S
C2825 C2824 1.287 . S
C2825 C2826 1.524 . S
C2825 H2828 0.999 . S
C2826 H2796 0.950 . S
C2826 C2825 1.524 . S
C2826 C2827 1.415 . S
C2827 H2797 0.950 . S
C2827 C2822 1.363 . S
C2827 C2826 1.415 . S
H2828 C2825 0.999 . S
H2829 C2810 0.913 . S
H2830 C2848 0.951 . S
H2831 C2850 0.951 . S
H2832 C2852 0.950 . S
H2833 C2853 0.950 . S
H2834 C2855 0.950 . S
H2835 C2858 0.950 . S
H2836 C2859 0.950 . S
H2837 C2861 0.950 . S
H2838 C2862 0.950 . S
H2839 C2863 0.951 . S
H2840 C2865 0.951 . S
H2841 C2867 0.950 . S
H2842 C2868 0.950 . S
H2843 C2870 0.950 . S
H2844 C2873 0.950 . S
H2845 C2874 0.950 . S
H2846 C2876 0.950 . S
H2847 C2877 0.950 . S
C2848 H2830 0.951 . S
C2848 C2849 1.366 . S
C2848 C2850 1.388 . S
C2849 C2848 1.366 . S
C2849 C2853 1.385 . S
C2850 H2831 0.951 . S
C2850 C2848 1.388 . S
C2850 C2851 1.366 . S
C2851 C2850 1.366 . S
C2851 C2852 1.414 . S
C2851 C2854 1.499 . S
C2852 H2832 0.950 . S
C2852 C2851 1.414 . S
C2852 C2853 1.374 . S
C2853 H2833 0.950 . S
C2853 C2849 1.385 . S
C2853 C2852 1.374 . S
C2854 C2851 1.499 . S
C2854 C2855 1.373 . S
C2854 C2856 1.389 . S
C2855 H2834 0.950 . S
C2855 C2854 1.373 . S
C2855 C2871 1.377 . S
C2856 C2854 1.389 . S
C2856 C2857 1.524 . S
C2856 C2870 1.377 . S
C2857 C2856 1.524 . S
C2857 C2858 1.397 . S
C2857 C2862 1.363 . S
C2858 H2835 0.950 . S
C2858 C2857 1.397 . S
C2858 C2859 1.334 . S
C2859 H2836 0.950 . S
C2859 C2858 1.334 . S
C2859 C2860 1.287 . S
C2860 C2859 1.287 . S
C2860 C2861 1.524 . S
C2860 H2879 0.913 . S
C2861 H2837 0.950 . S
C2861 C2860 1.524 . S
C2861 C2862 1.415 . S
C2862 H2838 0.950 . S
C2862 C2857 1.363 . S
C2862 C2861 1.415 . S
C2863 H2839 0.951 . S
C2863 C2864 1.366 . S
C2863 C2865 1.388 . S
C2864 C2863 1.366 . S
C2864 C2868 1.385 . S
C2865 H2840 0.951 . S
C2865 C2863 1.388 . S
C2865 C2866 1.366 . S
C2866 C2865 1.366 . S
C2866 C2867 1.414 . S
C2866 C2869 1.499 . S
C2867 H2841 0.950 . S
C2867 C2866 1.414 . S
C2867 C2868 1.374 . S
C2868 H2842 0.950 . S
C2868 C2864 1.385 . S
C2868 C2867 1.374 . S
C2869 C2866 1.499 . S
C2869 C2870 1.373 . S
C2869 C2871 1.389 . S
C2870 H2843 0.950 . S
C2870 C2856 1.377 . S
C2870 C2869 1.373 . S
C2871 C2855 1.377 . S
C2871 C2869 1.389 . S
C2871 C2872 1.524 . S
C2872 C2871 1.524 . S
C2872 C2873 1.397 . S
C2872 C2877 1.363 . S
C2873 H2844 0.950 . S
C2873 C2872 1.397 . S
C2873 C2874 1.334 . S
C2874 H2845 0.950 . S
C2874 C2873 1.334 . S
C2874 C2875 1.287 . S
C2875 C2874 1.287 . S
C2875 C2876 1.524 . S
C2875 H2878 0.999 . S
C2876 H2846 0.950 . S
C2876 C2875 1.524 . S
C2876 C2877 1.415 . S
C2877 H2847 0.950 . S
C2877 C2872 1.363 . S
C2877 C2876 1.415 . S
H2878 C2875 0.999 . S
H2879 C2860 0.913 . S
H2880 C2898 0.951 . S
H2881 C2900 0.951 . S
H2882 C2902 0.950 . S
H2883 C2903 0.950 . S
H2884 C2905 0.950 . S
H2885 C2908 0.950 . S
H2886 C2909 0.950 . S
H2887 C2911 0.950 . S
H2888 C2912 0.950 . S
H2889 C2913 0.951 . S
H2890 C2915 0.951 . S
H2891 C2917 0.950 . S
H2892 C2918 0.950 . S
H2893 C2920 0.950 . S
H2894 C2923 0.950 . S
H2895 C2924 0.950 . S
H2896 C2926 0.950 . S
H2897 C2927 0.950 . S
C2898 H2880 0.951 . S
C2898 C2899 1.366 . S
C2898 C2900 1.388 . S
C2899 C2898 1.366 . S
C2899 C2903 1.385 . S
C2900 H2881 0.951 . S
C2900 C2898 1.388 . S
C2900 C2901 1.366 . S
C2901 C2900 1.366 . S
C2901 C2902 1.414 . S
C2901 C2904 1.499 . S
C2902 H2882 0.950 . S
C2902 C2901 1.414 . S
C2902 C2903 1.374 . S
C2903 H2883 0.950 . S
C2903 C2899 1.385 . S
C2903 C2902 1.374 . S
C2904 C2901 1.499 . S
C2904 C2905 1.373 . S
C2904 C2906 1.389 . S
C2905 H2884 0.950 . S
C2905 C2904 1.373 . S
C2905 C2921 1.377 . S
C2906 C2904 1.389 . S
C2906 C2907 1.524 . S
C2906 C2920 1.377 . S
C2907 C2906 1.524 . S
C2907 C2908 1.397 . S
C2907 C2912 1.363 . S
C2908 H2885 0.950 . S
C2908 C2907 1.397 . S
C2908 C2909 1.334 . S
C2909 H2886 0.950 . S
C2909 C2908 1.334 . S
C2909 C2910 1.287 . S
C2910 C2909 1.287 . S
C2910 C2911 1.524 . S
C2910 H2929 0.913 . S
C2911 H2887 0.950 . S
C2911 C2910 1.524 . S
C2911 C2912 1.415 . S
C2912 H2888 0.950 . S
C2912 C2907 1.363 . S
C2912 C2911 1.415 . S
C2913 H2889 0.951 . S
C2913 C2914 1.366 . S
C2913 C2915 1.388 . S
C2914 C2913 1.366 . S
C2914 C2918 1.385 . S
C2915 H2890 0.951 . S
C2915 C2913 1.388 . S
C2915 C2916 1.366 . S
C2916 C2915 1.366 . S
C2916 C2917 1.414 . S
C2916 C2919 1.499 . S
C2917 H2891 0.950 . S
C2917 C2916 1.414 . S
C2917 C2918 1.374 . S
C2918 H2892 0.950 . S
C2918 C2914 1.385 . S
C2918 C2917 1.374 . S
C2919 C2916 1.499 . S
C2919 C2920 1.373 . S
C2919 C2921 1.389 . S
C2920 H2893 0.950 . S
C2920 C2906 1.377 . S
C2920 C2919 1.373 . S
C2921 C2905 1.377 . S
C2921 C2919 1.389 . S
C2921 C2922 1.524 . S
C2922 C2921 1.524 . S
C2922 C2923 1.397 . S
C2922 C2927 1.363 . S
C2923 H2894 0.950 . S
C2923 C2922 1.397 . S
C2923 C2924 1.334 . S
C2924 H2895 0.950 . S
C2924 C2923 1.334 . S
C2924 C2925 1.287 . S
C2925 C2924 1.287 . S
C2925 C2926 1.524 . S
C2925 H2928 0.999 . S
C2926 H2896 0.950 . S
C2926 C2925 1.524 . S
C2926 C2927 1.415 . S
C2927 H2897 0.950 . S
C2927 C2922 1.363 . S
C2927 C2926 1.415 . S
H2928 C2925 0.999 . S
H2929 C2910 0.913 . S
H2930 C2948 0.951 . S
H2931 C2950 0.951 . S
H2932 C2952 0.950 . S
H2933 C2953 0.950 . S
H2934 C2955 0.950 . S
H2935 C2958 0.950 . S
H2936 C2959 0.950 . S
H2937 C2961 0.950 . S
H2938 C2962 0.950 . S
H2939 C2963 0.951 . S
H2940 C2965 0.951 . S
H2941 C2967 0.950 . S
H2942 C2968 0.950 . S
H2943 C2970 0.950 . S
H2944 C2973 0.950 . S
H2945 C2974 0.950 . S
H2946 C2976 0.950 . S
H2947 C2977 0.950 . S
C2948 H2930 0.951 . S
C2948 C2949 1.366 . S
C2948 C2950 1.388 . S
C2949 C2948 1.366 . S
C2949 C2953 1.385 . S
C2950 H2931 0.951 . S
C2950 C2948 1.388 . S
C2950 C2951 1.366 . S
C2951 C2950 1.366 . S
C2951 C2952 1.414 . S
C2951 C2954 1.499 . S
C2952 H2932 0.950 . S
C2952 C2951 1.414 . S
C2952 C2953 1.374 . S
C2953 H2933 0.950 . S
C2953 C2949 1.385 . S
C2953 C2952 1.374 . S
C2954 C2951 1.499 . S
C2954 C2955 1.373 . S
C2954 C2956 1.389 . S
C2955 H2934 0.950 . S
C2955 C2954 1.373 . S
C2955 C2971 1.377 . S
C2956 C2954 1.389 . S
C2956 C2957 1.524 . S
C2956 C2970 1.377 . S
C2957 C2956 1.524 . S
C2957 C2958 1.397 . S
C2957 C2962 1.363 . S
C2958 H2935 0.950 . S
C2958 C2957 1.397 . S
C2958 C2959 1.334 . S
C2959 H2936 0.950 . S
C2959 C2958 1.334 . S
C2959 C2960 1.287 . S
C2960 C2959 1.287 . S
C2960 C2961 1.524 . S
C2960 H2979 0.913 . S
C2961 H2937 0.950 . S
C2961 C2960 1.524 . S
C2961 C2962 1.415 . S
C2962 H2938 0.950 . S
C2962 C2957 1.363 . S
C2962 C2961 1.415 . S
C2963 H2939 0.951 . S
C2963 C2964 1.366 . S
C2963 C2965 1.388 . S
C2964 C2963 1.366 . S
C2964 C2968 1.385 . S
C2965 H2940 0.951 . S
C2965 C2963 1.388 . S
C2965 C2966 1.366 . S
C2966 C2965 1.366 . S
C2966 C2967 1.414 . S
C2966 C2969 1.499 . S
C2967 H2941 0.950 . S
C2967 C2966 1.414 . S
C2967 C2968 1.374 . S
C2968 H2942 0.950 . S
C2968 C2964 1.385 . S
C2968 C2967 1.374 . S
C2969 C2966 1.499 . S
C2969 C2970 1.373 . S
C2969 C2971 1.389 . S
C2970 H2943 0.950 . S
C2970 C2956 1.377 . S
C2970 C2969 1.373 . S
C2971 C2955 1.377 . S
C2971 C2969 1.389 . S
C2971 C2972 1.524 . S
C2972 C2971 1.524 . S
C2972 C2973 1.397 . S
C2972 C2977 1.363 . S
C2973 H2944 0.950 . S
C2973 C2972 1.397 . S
C2973 C2974 1.334 . S
C2974 H2945 0.950 . S
C2974 C2973 1.334 . S
C2974 C2975 1.287 . S
C2975 C2974 1.287 . S
C2975 C2976 1.524 . S
C2975 H2978 0.999 . S
C2976 H2946 0.950 . S
C2976 C2975 1.524 . S
C2976 C2977 1.415 . S
C2977 H2947 0.950 . S
C2977 C2972 1.363 . S
C2977 C2976 1.415 . S
H2978 C2975 0.999 . S
H2979 C2960 0.913 . S
H2980 C2998 0.951 . S
H2981 C3000 0.951 . S
H2982 C3002 0.950 . S
H2983 C3003 0.950 . S
H2984 C3005 0.950 . S
H2985 C3008 0.950 1_554 S
H2986 C3009 0.950 . S
H2987 C3011 0.950 . S
H2988 C3012 0.950 . S
H2989 C3013 0.978 . S
H2990 C3015 0.951 1_554 S
H2991 C3017 0.950 . S
H2992 C3018 0.950 . S
H2993 C3020 0.950 . S
H2994 C3023 0.950 . S
H2995 C3024 0.950 . S
H2996 C3026 0.950 . S
H2997 C3027 0.950 . S
C2998 H2980 0.951 . S
C2998 C2999 1.366 . S
C2998 C3000 1.388 . S
C2999 C2998 1.366 . S
C2999 C3003 1.385 . S
C3000 H2981 0.951 . S
C3000 C2998 1.388 . S
C3000 C3001 1.366 . S
C3001 C3000 1.366 . S
C3001 C3002 1.414 . S
C3001 C3004 1.499 . S
C3002 H2982 0.950 . S
C3002 C3001 1.414 . S
C3002 C3003 1.374 . S
C3003 H2983 0.950 . S
C3003 C2999 1.385 . S
C3003 C3002 1.374 . S
C3004 C3001 1.499 . S
C3004 C3005 1.373 . S
C3004 C3006 1.389 . S
C3005 H2984 0.950 . S
C3005 C3004 1.373 . S
C3005 C3021 1.377 . S
C3006 C3004 1.389 . S
C3006 C3007 1.524 . S
C3006 C3020 1.377 . S
C3007 C3006 1.524 . S
C3007 C3008 1.397 . S
C3007 C3012 1.363 . S
C3008 H2985 0.950 1_556 S
C3008 C3007 1.397 . S
C3008 C3009 1.334 1_556 S
C3009 H2986 0.950 . S
C3009 C3008 1.334 1_554 S
C3009 C3010 1.287 1_554 S
C3010 C3009 1.287 1_556 S
C3010 C3011 1.524 . S
C3010 H3029 0.913 . S
C3011 H2987 0.950 . S
C3011 C3010 1.524 . S
C3011 C3012 1.415 . S
C3012 H2988 0.950 . S
C3012 C3007 1.363 . S
C3012 C3011 1.415 . S
C3013 H2989 0.978 . S
C3013 C3014 1.347 1_554 S
C3013 C3015 1.382 1_554 S
C3014 C3013 1.347 1_556 S
C3014 C3018 1.385 . S
C3015 H2990 0.951 1_556 S
C3015 C3013 1.382 1_556 S
C3015 C3016 1.366 . S
C3016 C3015 1.366 . S
C3016 C3017 1.414 . S
C3016 C3019 1.499 . S
C3017 H2991 0.950 . S
C3017 C3016 1.414 . S
C3017 C3018 1.374 . S
C3018 H2992 0.950 . S
C3018 C3014 1.385 . S
C3018 C3017 1.374 . S
C3019 C3016 1.499 . S
C3019 C3020 1.373 . S
C3019 C3021 1.389 . S
C3020 H2993 0.950 . S
C3020 C3006 1.377 . S
C3020 C3019 1.373 . S
C3021 C3005 1.377 . S
C3021 C3019 1.389 . S
C3021 C3022 1.524 . S
C3022 C3021 1.524 . S
C3022 C3023 1.397 . S
C3022 C3027 1.363 . S
C3023 H2994 0.950 . S
C3023 C3022 1.397 . S
C3023 C3024 1.334 . S
C3024 H2995 0.950 . S
C3024 C3023 1.334 . S
C3024 C3025 1.287 . S
C3025 C3024 1.287 . S
C3025 C3026 1.524 . S
C3025 H3028 0.999 . S
C3026 H2996 0.950 . S
C3026 C3025 1.524 . S
C3026 C3027 1.415 . S
C3027 H2997 0.950 . S
C3027 C3022 1.363 . S
C3027 C3026 1.415 . S
H3028 C3025 0.999 . S
H3029 C3010 0.913 . S
H3030 C3048 0.951 . S
H3031 C3050 0.951 . S
H3032 C3052 0.950 . S
H3033 C3053 0.950 . S
H3034 C3055 0.950 . S
H3035 C3058 0.950 . S
H3036 C3059 0.950 . S
H3037 C3061 0.950 . S
H3038 C3062 0.950 . S
H3039 C3063 0.951 . S
H3040 C3065 0.951 . S
H3041 C3067 0.950 . S
H3042 C3068 0.950 . S
H3043 C3070 0.950 . S
H3044 C3073 0.950 . S
H3045 C3074 0.950 . S
H3046 C3076 0.950 . S
H3047 C3077 0.950 . S
C3048 H3030 0.951 . S
C3048 C3049 1.366 . S
C3048 C3050 1.388 . S
C3049 C3048 1.366 . S
C3049 C3053 1.385 . S
C3050 H3031 0.951 . S
C3050 C3048 1.388 . S
C3050 C3051 1.366 . S
C3051 C3050 1.366 . S
C3051 C3052 1.414 . S
C3051 C3054 1.499 . S
C3052 H3032 0.950 . S
C3052 C3051 1.414 . S
C3052 C3053 1.374 . S
C3053 H3033 0.950 . S
C3053 C3049 1.385 . S
C3053 C3052 1.374 . S
C3054 C3051 1.499 . S
C3054 C3055 1.373 . S
C3054 C3056 1.389 . S
C3055 H3034 0.950 . S
C3055 C3054 1.373 . S
C3055 C3071 1.377 . S
C3056 C3054 1.389 . S
C3056 C3057 1.524 . S
C3056 C3070 1.377 . S
C3057 C3056 1.524 . S
C3057 C3058 1.397 . S
C3057 C3062 1.363 . S
C3058 H3035 0.950 . S
C3058 C3057 1.397 . S
C3058 C3059 1.334 . S
C3059 H3036 0.950 . S
C3059 C3058 1.334 . S
C3059 C3060 1.287 . S
C3060 C3059 1.287 . S
C3060 C3061 1.524 . S
C3060 H3079 0.913 . S
C3061 H3037 0.950 . S
C3061 C3060 1.524 . S
C3061 C3062 1.415 . S
C3062 H3038 0.950 . S
C3062 C3057 1.363 . S
C3062 C3061 1.415 . S
C3063 H3039 0.951 . S
C3063 C3064 1.366 . S
C3063 C3065 1.388 . S
C3064 C3063 1.366 . S
C3064 C3068 1.385 . S
C3065 H3040 0.951 . S
C3065 C3063 1.388 . S
C3065 C3066 1.366 . S
C3066 C3065 1.366 . S
C3066 C3067 1.414 . S
C3066 C3069 1.499 . S
C3067 H3041 0.950 . S
C3067 C3066 1.414 . S
C3067 C3068 1.374 . S
C3068 H3042 0.950 . S
C3068 C3064 1.385 . S
C3068 C3067 1.374 . S
C3069 C3066 1.499 . S
C3069 C3070 1.373 . S
C3069 C3071 1.389 . S
C3070 H3043 0.950 . S
C3070 C3056 1.377 . S
C3070 C3069 1.373 . S
C3071 C3055 1.377 . S
C3071 C3069 1.389 . S
C3071 C3072 1.524 . S
C3072 C3071 1.524 . S
C3072 C3073 1.397 . S
C3072 C3077 1.363 . S
C3073 H3044 0.950 . S
C3073 C3072 1.397 . S
C3073 C3074 1.334 . S
C3074 H3045 0.950 . S
C3074 C3073 1.334 . S
C3074 C3075 1.287 . S
C3075 C3074 1.287 . S
C3075 C3076 1.524 . S
C3075 H3078 0.999 . S
C3076 H3046 0.950 . S
C3076 C3075 1.524 . S
C3076 C3077 1.415 . S
C3077 H3047 0.950 . S
C3077 C3072 1.363 . S
C3077 C3076 1.415 . S
H3078 C3075 0.999 . S
H3079 C3060 0.913 . S
H3080 C3098 0.951 . S
H3081 C3100 0.951 . S
H3082 C3102 0.950 . S
H3083 C3103 0.950 . S
H3084 C3105 0.950 . S
H3085 C3108 0.950 . S
H3086 C3109 0.950 . S
H3087 C3111 0.950 . S
H3088 C3112 0.950 . S
H3089 C3113 0.951 . S
H3090 C3115 0.951 . S
H3091 C3117 0.972 . S
H3092 C3118 0.950 1_556 S
H3093 C3120 0.950 . S
H3094 C3123 0.950 . S
H3095 C3124 0.950 . S
H3096 C3126 0.950 . S
H3097 C3127 0.976 . S
C3098 H3080 0.951 . S
C3098 C3099 1.366 . S
C3098 C3100 1.388 . S
C3099 C3098 1.366 . S
C3099 C3103 1.385 . S
C3100 H3081 0.951 . S
C3100 C3098 1.388 . S
C3100 C3101 1.366 . S
C3101 C3100 1.366 . S
C3101 C3102 1.414 . S
C3101 C3104 1.499 . S
C3102 H3082 0.950 . S
C3102 C3101 1.414 . S
C3102 C3103 1.374 . S
C3103 H3083 0.950 . S
C3103 C3099 1.385 . S
C3103 C3102 1.374 . S
C3104 C3101 1.499 . S
C3104 C3105 1.373 . S
C3104 C3106 1.389 . S
C3105 H3084 0.950 . S
C3105 C3104 1.373 . S
C3105 C3121 1.377 . S
C3106 C3104 1.389 . S
C3106 C3107 1.524 . S
C3106 C3120 1.377 . S
C3107 C3106 1.524 . S
C3107 C3108 1.397 . S
C3107 C3112 1.363 . S
C3108 H3085 0.950 . S
C3108 C3107 1.397 . S
C3108 C3109 1.334 . S
C3109 H3086 0.950 . S
C3109 C3108 1.334 . S
C3109 C3110 1.287 . S
C3110 C3109 1.287 . S
C3110 C3111 1.524 . S
C3110 H3129 0.913 . S
C3111 H3087 0.950 . S
C3111 C3110 1.524 . S
C3111 C3112 1.415 . S
C3112 H3088 0.950 . S
C3112 C3107 1.363 . S
C3112 C3111 1.415 . S
C3113 H3089 0.951 . S
C3113 C3114 1.366 . S
C3113 C3115 1.388 . S
C3114 C3113 1.366 . S
C3114 C3118 1.385 . S
C3115 H3090 0.951 . S
C3115 C3113 1.388 . S
C3115 C3116 1.366 . S
C3116 C3115 1.366 . S
C3116 C3117 1.414 . S
C3116 C3119 1.499 . S
C3117 H3091 0.972 . S
C3117 C3116 1.414 . S
C3117 C3118 1.374 . S
C3118 H3092 0.950 1_554 S
C3118 C3114 1.385 . S
C3118 C3117 1.374 . S
C3119 C3116 1.499 . S
C3119 C3120 1.373 . S
C3119 C3121 1.389 . S
C3120 H3093 0.950 . S
C3120 C3106 1.377 . S
C3120 C3119 1.373 . S
C3121 C3105 1.377 . S
C3121 C3119 1.389 . S
C3121 C3122 1.524 1_554 S
C3122 C3121 1.524 1_556 S
C3122 C3123 1.397 . S
C3122 C3127 1.355 1_556 S
C3123 H3094 0.950 . S
C3123 C3122 1.397 . S
C3123 C3124 1.334 . S
C3124 H3095 0.950 . S
C3124 C3123 1.334 . S
C3124 C3125 1.287 . S
C3125 C3124 1.287 . S
C3125 C3126 1.524 . S
C3125 H3128 0.999 . S
C3126 H3096 0.950 . S
C3126 C3125 1.524 . S
C3126 C3127 1.398 1_556 S
C3127 H3097 0.976 . S
C3127 C3122 1.355 1_554 S
C3127 C3126 1.398 1_554 S
H3128 C3125 0.999 . S
H3129 C3110 0.913 . S
H3130 C3148 0.951 . S
H3131 C3150 0.951 . S
H3132 C3152 0.950 . S
H3133 C3153 0.998 . S
H3134 C3155 0.950 . S
H3135 C3158 0.950 . S
H3136 C3159 0.950 . S
H3137 C3161 0.950 . S
H3138 C3162 0.950 . S
H3139 C3163 0.951 . S
H3140 C3165 0.951 . S
H3141 C3167 0.950 . S
H3142 C3168 0.950 . S
H3143 C3170 0.950 . S
H3144 C3173 0.950 . S
H3145 C3174 0.950 . S
H3146 C3176 0.950 . S
H3147 C3177 0.950 . S
C3148 H3130 0.951 . S
C3148 C3149 1.366 . S
C3148 C3150 1.388 . S
C3149 C3148 1.366 . S
C3149 C3153 1.368 1_565 S
C3150 H3131 0.951 . S
C3150 C3148 1.388 . S
C3150 C3151 1.366 . S
C3151 C3150 1.366 . S
C3151 C3152 1.414 . S
C3151 C3154 1.499 . S
C3152 H3132 0.950 . S
C3152 C3151 1.414 . S
C3152 C3153 1.344 1_565 S
C3153 H3133 0.998 . S
C3153 C3149 1.368 1_545 S
C3153 C3152 1.344 1_545 S
C3154 C3151 1.499 . S
C3154 C3155 1.373 . S
C3154 C3156 1.389 . S
C3155 H3134 0.950 . S
C3155 C3154 1.373 . S
C3155 C3171 1.377 . S
C3156 C3154 1.389 . S
C3156 C3157 1.524 . S
C3156 C3170 1.377 . S
C3157 C3156 1.524 . S
C3157 C3158 1.397 . S
C3157 C3162 1.363 . S
C3158 H3135 0.950 . S
C3158 C3157 1.397 . S
C3158 C3159 1.334 . S
C3159 H3136 0.950 . S
C3159 C3158 1.334 . S
C3159 C3160 1.287 . S
C3160 C3159 1.287 . S
C3160 C3161 1.524 . S
C3160 H3179 0.913 . S
C3161 H3137 0.950 . S
C3161 C3160 1.524 . S
C3161 C3162 1.415 . S
C3162 H3138 0.950 . S
C3162 C3157 1.363 . S
C3162 C3161 1.415 . S
C3163 H3139 0.951 . S
C3163 C3164 1.366 . S
C3163 C3165 1.388 . S
C3164 C3163 1.366 . S
C3164 C3168 1.385 . S
C3165 H3140 0.951 . S
C3165 C3163 1.388 . S
C3165 C3166 1.366 . S
C3166 C3165 1.366 . S
C3166 C3167 1.414 . S
C3166 C3169 1.499 . S
C3167 H3141 0.950 . S
C3167 C3166 1.414 . S
C3167 C3168 1.374 . S
C3168 H3142 0.950 . S
C3168 C3164 1.385 . S
C3168 C3167 1.374 . S
C3169 C3166 1.499 . S
C3169 C3170 1.373 . S
C3169 C3171 1.389 . S
C3170 H3143 0.950 . S
C3170 C3156 1.377 . S
C3170 C3169 1.373 . S
C3171 C3155 1.377 . S
C3171 C3169 1.389 . S
C3171 C3172 1.524 1_554 S
C3172 C3171 1.524 1_556 S
C3172 C3173 1.397 . S
C3172 C3177 1.363 . S
C3173 H3144 0.950 . S
C3173 C3172 1.397 . S
C3173 C3174 1.334 . S
C3174 H3145 0.950 . S
C3174 C3173 1.334 . S
C3174 C3175 1.287 . S
C3175 C3174 1.287 . S
C3175 C3176 1.524 . S
C3175 H3178 0.999 . S
C3176 H3146 0.950 . S
C3176 C3175 1.524 . S
C3176 C3177 1.415 . S
C3177 H3147 0.950 . S
C3177 C3172 1.363 . S
C3177 C3176 1.415 . S
H3178 C3175 0.999 . S
H3179 C3160 0.913 . S
C814 C634 1.393 . S
C799 C211 1.402 . S
C864 C647 1.614 . S
C849 C255 1.626 . S
C899 C274 1.445 . S
C914 C660 1.434 . S
C964 C673 1.535 . S
C949 C157 1.548 . S
C1014 C681 1.473 . S
C999 C391 1.501 . S
C1064 C694 1.406 . S
C1049 C484 1.425 . S
C1099 C450 1.518 . S
C1114 C707 1.491 . S
C1164 C720 1.502 . S
C1149 C352 1.521 . S
C1199 C430 1.422 . S
C1214 C738 1.411 . S
C1264 C749 1.532 . S
C1249 C367 1.562 . S
C1299 C411 1.471 . S
C1314 C733 1.444 . S
C1364 C741 1.457 . S
C1349 C469 1.485 . S
C1399 C294 1.489 . S
C1414 C764 1.479 . S
C1449 C177 1.526 . S
C1464 C754 1.496 . S
C1499 C196 1.511 . S
C1514 C759 1.483 . S
C1549 C235 1.581 . S
C1564 C762 1.544 1_655 S
C1599 C133 1.441 . S
C1614 C671 1.417 . S
C1649 C567 1.405 . S
C1664 C663 1.385 . S
C1714 C632 1.557 . S
C1699 C601 1.552 1_565 S
C1764 C637 1.492 . S
C1749 C328 1.515 . S
C1799 C172 1.551 . S
C1814 C684 1.521 . S
C1864 C723 1.510 . S
C1849 C445 1.534 . S
C1914 C676 1.507 . S
C1899 C372 1.534 . S
C1964 C702 1.437 . S
C1949 C489 1.467 . S
C2014 C712 1.394 . S
C1999 C562 1.402 . S
C2049 C606 1.626 . S
C2064 C725 1.613 . S
C2099 C313 1.445 . S
C2114 C686 1.433 . S
C2164 C699 1.536 . S
C2149 C508 1.548 . S
C2199 C118 1.501 . S
C2214 C655 1.472 . S
C2264 C668 1.406 . S
C2249 C16 1.425 . S
C2314 C629 1.491 . S
C2299 C60 1.518 . S
C2364 C642 1.502 . S
C2349 C79 1.520 . S
C2399 C40 1.422 . S
C2414 C751 1.410 . S
C2449 C94 1.562 . S
C2464 C736 1.526 1_655 S
C2499 C138 1.470 . S
C2514 C746 1.445 . S
C2549 C1 1.483 . S
C2564 C728 1.458 . S
C2614 C777 1.479 . S
C2599 C333 1.489 . S
C2664 C767 1.495 . S
C2649 C528 1.525 . S
C2714 C772 1.483 . S
C2699 C547 1.511 . S
C2749 C586 1.580 . S
C2764 C775 1.548 . S
C2799 C406 1.441 . S
C2814 C697 1.418 . S
C2864 C689 1.385 . S
C2849 C216 1.405 . S
C2914 C710 1.558 . S
C2899 C250 1.586 . S
C2964 C715 1.492 . S
C2949 C289 1.520 . S
C2999 C523 1.551 . S
C3014 C658 1.522 . S
C3064 C645 1.510 . S
C3049 C55 1.539 . S
C3099 C99 1.534 . S
C3114 C650 1.506 . S
C3164 C624 1.438 . S
C3149 C21 1.467 1_565 S
