# Generated by pormake.
# Topology pyr, (3,6)-cn, num edge types: 1
# Building blocks:
#     Node 0, Type 0, BuildingBlock: QEWDON_clean_linker_0, # of connection points: 3
#     Node 1, Type 0, BuildingBlock: QEWDON_clean_linker_0, # of connection points: 3
#     Node 2, Type 0, BuildingBlock: QEWDON_clean_linker_0, # of connection points: 3
#     Node 3, Type 0, BuildingBlock: QEWDON_clean_linker_0, # of connection points: 3
#     Node 4, Type 0, BuildingBlock: QEWDON_clean_linker_0, # of connection points: 3
#     Node 5, Type 0, BuildingBlock: QEWDON_clean_linker_0, # of connection points: 3
#     Node 6, Type 0, BuildingBlock: QEWDON_clean_linker_0, # of connection points: 3
#     Node 7, Type 0, BuildingBlock: QEWDON_clean_linker_0, # of connection points: 3
#     Node 8, Type 1, BuildingBlock: FUNLAD_clean_sbu_0, # of connection points: 6
#     Node 9, Type 1, BuildingBlock: FUNLAD_clean_sbu_0, # of connection points: 6
#     Node 10, Type 1, BuildingBlock: FUNLAD_clean_sbu_0, # of connection points: 6
#     Node 11, Type 1, BuildingBlock: FUNLAD_clean_sbu_0, # of connection points: 6
#     Edge 12, Type (0, 1), BuildingBlock: MIFKUJ_clean_linker_0, # of connection points: 2
#     Edge 13, Type (0, 1), BuildingBlock: MIFKUJ_clean_linker_0, # of connection points: 2
#     Edge 14, Type (0, 1), BuildingBlock: MIFKUJ_clean_linker_0, # of connection points: 2
#     Edge 15, Type (0, 1), BuildingBlock: MIFKUJ_clean_linker_0, # of connection points: 2
#     Edge 16, Type (0, 1), BuildingBlock: MIFKUJ_clean_linker_0, # of connection points: 2
#     Edge 17, Type (0, 1), BuildingBlock: MIFKUJ_clean_linker_0, # of connection points: 2
#     Edge 18, Type (0, 1), BuildingBlock: MIFKUJ_clean_linker_0, # of connection points: 2
#     Edge 19, Type (0, 1), BuildingBlock: MIFKUJ_clean_linker_0, # of connection points: 2
#     Edge 20, Type (0, 1), BuildingBlock: MIFKUJ_clean_linker_0, # of connection points: 2
#     Edge 21, Type (0, 1), BuildingBlock: MIFKUJ_clean_linker_0, # of connection points: 2
#     Edge 22, Type (0, 1), BuildingBlock: MIFKUJ_clean_linker_0, # of connection points: 2
#     Edge 23, Type (0, 1), BuildingBlock: MIFKUJ_clean_linker_0, # of connection points: 2
#     Edge 24, Type (0, 1), BuildingBlock: MIFKUJ_clean_linker_0, # of connection points: 2
#     Edge 25, Type (0, 1), BuildingBlock: MIFKUJ_clean_linker_0, # of connection points: 2
#     Edge 26, Type (0, 1), BuildingBlock: MIFKUJ_clean_linker_0, # of connection points: 2
#     Edge 27, Type (0, 1), BuildingBlock: MIFKUJ_clean_linker_0, # of connection points: 2
#     Edge 28, Type (0, 1), BuildingBlock: MIFKUJ_clean_linker_0, # of connection points: 2
#     Edge 29, Type (0, 1), BuildingBlock: MIFKUJ_clean_linker_0, # of connection points: 2
#     Edge 30, Type (0, 1), BuildingBlock: MIFKUJ_clean_linker_0, # of connection points: 2
#     Edge 31, Type (0, 1), BuildingBlock: MIFKUJ_clean_linker_0, # of connection points: 2
#     Edge 32, Type (0, 1), BuildingBlock: MIFKUJ_clean_linker_0, # of connection points: 2
#     Edge 33, Type (0, 1), BuildingBlock: MIFKUJ_clean_linker_0, # of connection points: 2
#     Edge 34, Type (0, 1), BuildingBlock: MIFKUJ_clean_linker_0, # of connection points: 2
#     Edge 35, Type (0, 1), BuildingBlock: MIFKUJ_clean_linker_0, # of connection points: 2
# Relax obj value: 0.225
# Max RMSD: 0.287
# Mean RMSD: 0.188
data_MOF--net-pry--node1-FUNLAD_clean_sbu_0--node2-QEWDON_clean_linker_0--edge1-MIFKUJ_clean_linker_0
_symmetry_space_group_name_H-M    P1
_symmetry_Int_Tables_number       1
_symmetry_cell_setting            triclinic
loop_
_symmetry_equiv_pos_as_xyz
'x, y, z'
_cell_length_a     45.344629
_cell_length_b     48.171296
_cell_length_c     51.830099
_cell_angle_alpha  89.87167
_cell_angle_beta   90.660246
_cell_angle_gamma 94.759973
loop_
_atom_site_label
_atom_site_type_symbol
_atom_site_fract_x
_atom_site_fract_y
_atom_site_fract_z
_atom_type_partial_charge
H0 H 0.20905 0.24977 0.19431 0.0
C1 C 0.19847 0.23902 0.21053 0.0
C2 C 0.20728 0.21259 0.21839 0.0
C3 C 0.17715 0.25259 0.22432 0.0
H4 H 0.20062 0.18021 0.24738 0.0
C5 C 0.19339 0.19972 0.24036 0.0
C6 C 0.17164 0.21261 0.25448 0.0
C7 C 0.16377 0.23894 0.24593 0.0
C8 C 0.17413 0.2833 0.2207 0.0
H9 H 0.14771 0.24957 0.25665 0.0
C10 C 0.16162 0.2957 0.19841 0.0
C11 C 0.16006 0.32524 0.1971 0.0
C12 C 0.18463 0.30076 0.24106 0.0
H13 H 0.19434 0.2921 0.25819 0.0
C14 C 0.18314 0.32945 0.23973 0.0
H15 H 0.15333 0.28268 0.18248 0.0
C16 C 0.17107 0.34154 0.21807 0.0
H17 H 0.17013 0.36395 0.2178 0.0
H18 H 0.19143 0.34246 0.25566 0.0
H19 H 0.35167 0.93551 0.78398 0.0
C20 C 0.36413 0.92087 0.77369 0.0
C21 C 0.39165 0.91392 0.78383 0.0
C22 C 0.35123 0.90753 0.75166 0.0
H23 H 0.42728 0.88711 0.77876 0.0
C24 C 0.40628 0.89289 0.77117 0.0
C25 C 0.39412 0.87961 0.7485 0.0
C26 C 0.36656 0.88732 0.7391 0.0
C27 C 0.31895 0.90901 0.74633 0.0
H28 H 0.35594 0.87619 0.72288 0.0
C29 C 0.30722 0.92688 0.7276 0.0
C30 C 0.27602 0.92751 0.72455 0.0
C31 C 0.29939 0.89168 0.7612 0.0
H32 H 0.30781 0.87783 0.77553 0.0
C33 C 0.26894 0.89192 0.75791 0.0
H34 H 0.32206 0.94045 0.71605 0.0
C35 C 0.25736 0.90964 0.73989 0.0
H36 H 0.23351 0.90927 0.73783 0.0
H37 H 0.25417 0.87835 0.76951 0.0
H38 H 0.64376 0.55578 1.0086 0.0
C39 C 0.63556 0.53413 1.01094 0.0
C40 C 0.65549 0.5134 1.01226 0.0
C41 C 0.605 0.52685 1.0113 0.0
H42 H 0.66013 0.46945 1.0154 0.0
C43 C 0.64461 0.48536 1.0141 0.0
C44 C 0.61402 0.47776 1.01426 0.0
C45 C 0.59433 0.49878 1.01313 0.0
C46 C 0.58414 0.54788 1.0055 0.0
H47 H 0.57066 0.49331 1.01213 0.0
C48 C 0.58174 0.5573 0.98008 0.0
C49 C 0.55959 0.57459 0.97294 0.0
C50 C 0.56476 0.5564 0.02422 0.0
H51 H 0.56613 0.54896 0.0439 0.0
C52 C 0.54315 0.5743 1.01742 0.0
H53 H 0.59608 0.54974 0.96551 0.0
C54 C 0.54031 0.58314 0.99183 0.0
H55 H 0.52293 0.59635 0.98673 0.0
H56 H 0.52815 0.58082 0.03188 0.0
H57 H 0.9449 0.65008 0.45134 0.0
C58 C 0.92558 0.64407 0.46284 0.0
C59 C 0.913 0.66422 0.47766 0.0
C60 C 0.91254 0.61656 0.46179 0.0
H61 H 0.87773 0.67222 0.50332 0.0
C62 C 0.88779 0.65652 0.49222 0.0
C63 C 0.87468 0.62911 0.49168 0.0
C64 C 0.88717 0.60917 0.47644 0.0
C65 C 0.92388 0.59631 0.44368 0.0
H66 H 0.87658 0.58819 0.47531 0.0
C67 C 0.93068 0.60447 0.41825 0.0
C68 C 0.94059 0.58545 0.40044 0.0
C69 C 0.92717 0.56873 0.4513 0.0
H70 H 0.92213 0.56193 0.47081 0.0
C71 C 0.9373 0.54976 0.4338 0.0
H72 H 0.92805 0.62569 0.41225 0.0
C73 C 0.94398 0.558 0.40851 0.0
H74 H 0.95132 0.54278 0.3952 0.0
H75 H 0.93984 0.52855 0.43981 0.0
H76 H 0.85625 0.88696 0.89267 0.0
C77 C 0.8676 0.89724 0.87656 0.0
C78 C 0.89482 0.88808 0.86805 0.0
C79 C 0.85345 0.91801 0.8632 0.0
H80 H 0.9285 0.89415 0.83856 0.0
C81 C 0.9077 0.90064 0.84544 0.0
C82 C 0.89414 0.92196 0.83185 0.0
C83 C 0.86711 0.93029 0.84117 0.0
C84 C 0.82177 0.92269 0.86851 0.0
H85 H 0.85565 0.94554 0.8304 0.0
C86 C 0.8119 0.93491 0.89157 0.0
C87 C 0.78129 0.93854 0.89485 0.0
C88 C 0.80076 0.91433 0.84933 0.0
H89 H 0.80755 0.90488 0.83164 0.0
C90 C 0.77085 0.91769 0.85269 0.0
H91 H 0.82774 0.94164 0.90655 0.0
C92 C 0.76119 0.92964 0.87518 0.0
H93 H 0.73779 0.93219 0.87715 0.0
H94 H 0.75501 0.91103 0.83771 0.0
H95 H 0.69413 0.23517 0.43054 0.0
C96 C 0.68788 0.22928 0.41095 0.0
C97 C 0.70382 0.2096 0.39773 0.0
C98 C 0.66223 0.23955 0.39997 0.0
H99 H 0.70558 0.18602 0.36226 0.0
C100 C 0.69359 0.20073 0.37286 0.0
C101 C 0.66808 0.21067 0.36131 0.0
C102 C 0.65291 0.23028 0.37506 0.0
C103 C 0.64102 0.25403 0.41641 0.0
H104 H 0.63254 0.23711 0.36703 0.0
C105 C 0.64665 0.28143 0.42689 0.0
C106 C 0.62484 0.29318 0.44225 0.0
C107 C 0.61377 0.23913 0.42162 0.0
H108 H 0.60883 0.21827 0.41407 0.0
C109 C 0.59266 0.25056 0.43668 0.0
H110 H 0.66746 0.29335 0.42311 0.0
C111 C 0.5981 0.2772 0.44689 0.0
H112 H 0.58112 0.28552 0.45844 0.0
H113 H 0.57186 0.23864 0.44048 0.0
H114 H 0.45788 0.65112 0.16503 0.0
C115 C 0.43696 0.64927 0.15457 0.0
C116 C 0.42812 0.67207 0.14041 0.0
C117 C 0.41873 0.62422 0.15566 0.0
H118 H 0.3932 0.68742 0.11712 0.0
C119 C 0.40078 0.66962 0.12733 0.0
C120 C 0.3824 0.6448 0.12819 0.0
C121 C 0.39169 0.62196 0.14199 0.0
C122 C 0.42645 0.60156 0.17322 0.0
H123 H 0.37699 0.6031 0.14348 0.0
C124 C 0.43547 0.60789 0.19871 0.0
C125 C 0.44066 0.58663 0.21633 0.0
C126 C 0.4232 0.57359 0.1653 0.0
H127 H 0.4163 0.56819 0.14575 0.0
C128 C 0.4288 0.55236 0.18266 0.0
H129 H 0.43709 0.62935 0.20522 0.0
C130 C 0.43728 0.55877 0.20812 0.0
H131 H 0.4412 0.54202 0.22137 0.0
H132 H 0.42626 0.53085 0.17645 0.0
H133 H 0.14465 0.4887 0.62309 0.0
C134 C 0.1374 0.47995 0.60462 0.0
C135 C 0.15767 0.47963 0.58428 0.0
C136 C 0.10845 0.46739 0.60175 0.0
H137 H 0.16455 0.46431 0.54579 0.0
C138 C 0.1486 0.46662 0.5609 0.0
C139 C 0.11968 0.45434 0.55771 0.0
C140 C 0.09948 0.45586 0.57779 0.0
C141 C 0.08896 0.4626 0.62448 0.0
H142 H 0.07737 0.44568 0.57552 0.0
C143 C 0.08764 0.48291 0.64382 0.0
C144 C 0.07015 0.47738 0.66581 0.0
C145 C 0.07268 0.43663 0.62758 0.0
H146 H 0.07441 0.42 0.61382 0.0
C147 C 0.05474 0.43138 0.64894 0.0
H148 H 0.1002 0.50292 0.64184 0.0
C149 C 0.05345 0.45156 0.66796 0.0
H150 H 0.0402 0.44651 0.68485 0.0
H151 H 0.04236 0.41132 0.65106 0.0
C152 C 0.03966 0.08964 0.4912 0.0
N153 N 0.027 0.12975 0.56104 0.0
C154 C 0.05461 0.14137 0.55573 0.0
C155 C 0.06 0.17016 0.554 0.0
C156 C 0.03673 0.18716 0.55785 0.0
C157 C 1.00936 0.17473 0.56625 0.0
C158 C 1.00493 0.14572 0.56774 0.0
Zn159 Zn 0.01708 0.09053 0.54732 0.0
C160 C 0.95809 0.08805 0.51783 0.0
N161 N 0.99783 1.01143 0.51265 0.0
C162 C 0.01957 0.99978 0.49964 0.0
C163 C 0.97123 0.99709 0.5169 0.0
C164 C 0.96603 0.96953 0.50867 0.0
C165 C 0.98844 0.95666 0.4959 0.0
C166 C 0.01529 0.97234 0.49098 0.0
Zn167 Zn 1.0068 0.04996 0.52815 0.0
O168 O 0.03828 0.10467 0.51126 0.0
C169 C 0.06507 0.05258 0.55829 0.0
O170 O 0.02835 0.06456 0.49232 0.0
H171 H 0.95433 1.00678 0.52738 0.0
H172 H 0.07169 0.12835 0.54997 0.0
H173 H 0.04059 1.01156 0.49655 0.0
O174 O 0.0582 0.07723 0.56258 0.0
O175 O 0.04809 0.03689 0.54375 0.0
H176 H 0.98311 0.13604 0.57184 0.0
O177 O 0.98624 0.03559 0.56441 0.0
O178 O 0.9961 0.076 0.5833 0.0
O179 O 0.96488 0.06344 0.5129 0.0
O180 O 0.97564 0.1034 0.5321 0.0
C181 C 0.98571 0.05056 0.58468 0.0
H182 H 0.0814 0.17871 0.5473 0.0
H183 H 0.99102 0.18714 0.56993 0.0
H184 H 0.94513 0.95814 0.51318 0.0
H185 H 0.03301 0.96338 0.4809 0.0
C186 C 0.56314 0.05595 0.05368 0.0
N187 N 0.52191 0.13115 0.04654 0.0
C188 C 0.54939 0.14468 0.04828 0.0
C189 C 0.5544 0.17194 0.0393 0.0
C190 C 0.53081 0.18545 0.02869 0.0
C191 C 0.50293 0.17066 0.02626 0.0
C192 C 0.49897 0.14329 0.03526 0.0
Zn193 Zn 0.51436 0.09345 0.06395 0.0
C194 C 0.48211 0.05055 0.02844 0.0
N195 N 0.49859 0.01548 0.10149 0.0
C196 C 0.52124 1.00519 0.11493 0.0
C197 C 0.47243 1.00004 0.09765 0.0
C198 C 0.46882 0.97258 0.1064 0.0
C199 C 0.49229 0.96108 0.11939 0.0
C200 C 0.51848 0.97793 0.12424 0.0
Zn201 Zn 0.50564 0.05319 0.08398 0.0
O202 O 0.55536 0.08023 0.04871 0.0
C203 C 0.53925 0.09543 0.11919 0.0
O204 O 0.54697 0.04037 0.06867 0.0
H205 H 0.45473 1.0087 0.08695 0.0
H206 H 0.56721 0.13467 0.05752 0.0
H207 H 0.54194 0.01778 0.11753 0.0
O208 O 0.53711 0.1102 0.0989 0.0
O209 O 0.52824 0.07023 0.11853 0.0
H210 H 0.47734 0.13207 0.03403 0.0
O211 O 0.4638 0.06648 0.099 0.0
O212 O 0.47322 0.10641 0.07937 0.0
O213 O 0.48393 0.03621 0.04902 0.0
O214 O 0.49189 0.07616 0.02911 0.0
C215 C 0.45642 0.09095 0.09397 0.0
H216 H 0.57615 0.18278 0.0418 0.0
H217 H 0.48427 0.18036 1.01801 0.0
H218 H 0.44819 0.96023 0.1025 0.0
H219 H 0.53715 0.96968 0.13395 0.0
C220 C 0.54258 0.54397 0.56891 0.0
N221 N 0.53944 0.57236 0.64633 0.0
C222 C 0.52808 0.54783 0.65668 0.0
C223 C 0.53189 0.54251 0.68301 0.0
C224 C 0.54771 0.56257 0.69858 0.0
C225 C 0.56031 0.58704 0.68705 0.0
C226 C 0.55578 0.59158 0.66085 0.0
Zn227 Zn 0.52864 0.58431 0.60995 0.0
C228 C 0.58051 0.61671 0.58497 0.0
N229 N 0.50717 0.61443 0.53554 0.0
C230 C 0.49257 0.5944 0.52068 0.0
C231 C 0.51448 0.64045 0.52609 0.0
C232 C 0.50729 0.64696 0.50054 0.0
C233 C 0.49243 0.62646 0.48475 0.0
C234 C 0.48504 0.59994 0.49524 0.0
Zn235 Zn 0.51851 0.60241 0.57185 0.0
O236 O 0.54238 0.54599 0.59345 0.0
C237 C 0.46665 0.56923 0.59588 0.0
O238 O 0.53361 0.56401 0.55562 0.0
H239 H 0.52615 0.65603 0.53826 0.0
H240 H 0.51505 0.5329 0.64478 0.0
H241 H 0.48713 0.57378 0.52844 0.0
O242 O 0.48476 0.56585 0.61427 0.0
O243 O 0.47539 0.58328 0.57628 0.0
H244 H 0.56414 0.61117 0.65242 0.0
O245 O 0.50409 0.64059 0.58874 0.0
O246 O 0.51481 0.6228 0.62622 0.0
O247 O 0.56154 0.62124 0.56759 0.0
O248 O 0.57244 0.60248 0.60472 0.0
C249 C 0.50521 0.64277 0.61328 0.0
H250 H 0.52193 0.52332 0.69121 0.0
H251 H 0.57216 0.60329 0.69841 0.0
H252 H 0.5133 0.66771 0.49325 0.0
H253 H 0.47425 0.58327 0.4837 0.0
C254 C 1.00878 0.65135 1.0061 0.0
N255 N 1.01117 0.62186 0.0838 0.0
C256 C 0.01895 0.64782 0.09329 0.0
C257 C 1.01431 0.65371 0.11932 0.0
C258 C 1.00203 0.63248 0.13545 0.0
C259 C 0.99333 0.60631 0.12496 0.0
C260 C 0.99793 0.60147 0.09895 0.0
Zn261 Zn 0.02161 0.61011 0.04748 0.0
C262 C 0.96933 0.57837 0.02231 0.0
N263 N 0.04244 0.58065 0.97343 0.0
C264 C 0.05913 0.59951 0.95904 0.0
C265 C 0.03198 0.55556 0.96356 0.0
C266 C 0.03767 0.54895 0.93796 0.0
C267 C 0.0544 0.56832 0.92256 0.0
C268 C 0.0655 0.5937 0.9335 0.0
Zn269 Zn 0.03169 0.59254 1.0095 0.0
O270 O 1.00693 0.64846 0.03055 0.0
C271 C 0.08393 0.62406 0.03543 0.0
O272 O 0.01902 0.63183 0.99324 0.0
H273 H 0.01874 0.54092 0.97539 0.0
H274 H 0.02954 0.66366 0.08089 0.0
H275 H 0.06695 0.61946 0.96717 0.0
O276 O 0.06483 0.62887 0.0522 0.0
O277 O 0.07598 0.60957 1.01571 0.0
H278 H 0.99176 0.58103 0.09106 0.0
O279 O 0.04399 0.55331 0.02591 0.0
O280 O 0.03672 0.57137 0.06373 0.0
O281 O 0.98735 0.57536 1.00411 0.0
O282 O 0.97838 0.59135 0.04255 0.0
C283 C 0.04458 0.55104 0.05043 0.0
H284 H 0.02127 0.67414 0.12698 0.0
H285 H 0.98358 0.58958 0.13694 0.0
H286 H 0.02893 0.52903 0.93023 0.0
H287 H 0.07812 0.60935 0.92219 0.0
H288 H 0.15614 0.2384 0.29964 0.0
H289 H 0.13402 0.21761 0.33854 0.0
H290 H 0.13561 0.13591 0.30522 0.0
H291 H 0.15671 0.15672 0.26562 0.0
H292 H 0.08501 0.13828 0.32951 0.0
H293 H 0.18644 0.16394 0.35422 0.0
H294 H 0.23144 0.19571 0.36058 0.0
H295 H 0.18422 0.24656 0.41101 0.0
H296 H 0.13882 0.21536 0.40461 0.0
H297 H 0.05233 0.06258 0.44607 0.0
H298 H 0.07485 0.08243 0.40668 0.0
H299 H 0.08054 0.16416 0.44107 0.0
H300 H 0.05906 0.14421 0.48074 0.0
H301 H 0.12769 0.16152 0.41602 0.0
H302 H 0.0268 0.13938 0.39141 0.0
H303 H 0.98014 0.10982 0.38567 0.0
H304 H 0.02361 0.05549 0.33571 0.0
H305 H 0.07065 0.08455 0.34143 0.0
C306 C 0.15155 0.216 0.30024 0.0
C307 C 0.15835 0.19947 0.27895 0.0
C308 C 0.13915 0.20399 0.32291 0.0
C309 C 0.13331 0.17491 0.32543 0.0
C310 C 0.13985 0.15834 0.30417 0.0
C311 C 0.15225 0.17035 0.28143 0.0
C312 C 0.12019 0.16192 0.34996 0.0
C313 C 0.09472 0.14311 0.34835 0.0
C314 C 0.13187 0.16861 0.37498 0.0
C315 C 0.15915 0.18745 0.37872 0.0
C316 C 0.18559 0.18203 0.36648 0.0
C317 C 0.21118 0.19992 0.37012 0.0
C318 C 0.21067 0.22319 0.38612 0.0
C319 C 0.18458 0.22858 0.39857 0.0
C320 C 0.15891 0.21079 0.39495 0.0
C321 C 0.05836 0.08479 0.4453 0.0
C322 C 0.05365 0.10165 0.46684 0.0
C323 C 0.07114 0.09628 0.42252 0.0
C324 C 0.07918 0.12514 0.42022 0.0
C325 C 0.07471 0.14191 0.44188 0.0
C326 C 0.06225 0.1304 0.46473 0.0
C327 C 0.09248 0.13783 0.39561 0.0
C328 C 0.11798 0.15661 0.39719 0.0
C329 C 0.08055 0.13146 0.37061 0.0
C330 C 0.05232 0.11398 0.36707 0.0
C331 C 0.02646 0.12102 0.37935 0.0
C332 C 0.99993 0.10437 0.37607 0.0
C333 C 0.99893 0.08075 0.36039 0.0
C334 C 0.02444 0.07377 0.34789 0.0
C335 C 0.05103 0.09033 0.35112 0.0
H336 H 0.97838 0.06788 0.35788 0.0
H337 H 0.23051 0.237 0.38892 0.0
H338 H 0.41608 0.89026 0.82705 0.0
H339 H 0.43178 0.91291 0.868 0.0
H340 H 0.41014 0.99202 0.83744 0.0
H341 H 0.39432 0.96953 0.79664 0.0
H342 H 0.46338 0.99701 0.86498 0.0
H343 H 0.3639 0.9564 0.87863 0.0
H344 H 0.3244 0.91802 0.87952 0.0
H345 H 0.37458 0.87401 0.93458 0.0
H346 H 0.41459 0.91198 0.93374 0.0
H347 H 0.46889 0.07508 0.98182 0.0
H348 H 0.45385 0.05235 0.94097 0.0
H349 H 0.457 0.97191 0.97711 0.0
H350 H 0.47068 0.9946 1.01818 0.0
H351 H 0.4138 0.9668 0.94629 0.0
H352 H 0.51323 1.00448 0.93348 0.0
H353 H 0.55515 0.04051 0.93257 0.0
H354 H 0.5092 0.08689 0.8763 0.0
H355 H 0.46682 0.05129 0.87712 0.0
C356 C 0.41497 0.91254 0.8289 0.0
C357 C 0.40378 0.92792 0.80832 0.0
C358 C 0.42377 0.9255 0.8525 0.0
C359 C 0.422 0.95433 0.85621 0.0
C360 C 0.41176 0.96983 0.83538 0.0
C361 C 0.40257 0.95684 0.81197 0.0
C362 C 0.43015 0.96828 0.88177 0.0
C363 C 0.45227 0.99057 0.88269 0.0
C364 C 0.41646 0.95963 0.90528 0.0
C365 C 0.39236 0.9369 0.90592 0.0
C366 C 0.36661 0.93844 0.89078 0.0
C367 C 0.34411 0.91677 0.8913 0.0
C368 C 0.34701 0.89355 0.90704 0.0
C369 C 0.37238 0.89199 0.92236 0.0
C370 C 0.39497 0.91358 0.92188 0.0
C371 C 0.46616 0.05254 0.98117 0.0
C372 C 0.47109 0.03684 1.00357 0.0
C373 C 0.45782 0.03942 0.95755 0.0
C374 C 0.45479 1.01009 0.95529 0.0
C375 C 0.45911 0.99446 0.97786 0.0
C376 C 0.46702 1.00756 1.00153 0.0
C377 C 0.44718 0.99571 0.92968 0.0
C378 C 0.42509 0.97331 0.92868 0.0
C379 C 0.4613 1.00394 0.90616 0.0
C380 C 0.48673 0.02536 0.90556 0.0
C381 C 0.51198 0.02246 0.92105 0.0
C382 C 0.53583 0.04279 0.92053 0.0
C383 C 0.5348 0.06601 0.90444 0.0
C384 C 0.50994 0.06891 0.88878 0.0
C385 C 0.48601 0.04865 0.88925 0.0
H386 H 0.55329 0.08173 0.90406 0.0
H387 H 0.32956 0.8768 0.90742 0.0
H388 H 0.50828 0.56797 0.94496 0.0
H389 H 0.5033 0.56869 0.89784 0.0
H390 H 0.59626 0.59486 0.89153 0.0
H391 H 0.60129 0.59437 0.9386 0.0
H392 H 0.56167 0.61968 0.85466 0.0
H393 H 0.57595 0.52854 0.88868 0.0
H394 H 0.56437 0.4877 0.91663 0.0
H395 H 0.47827 0.47437 0.88126 0.0
H396 H 0.48918 0.51547 0.85338 0.0
H397 H 0.59522 0.57425 0.73078 0.0
H398 H 0.59474 0.57747 0.77784 0.0
H399 H 0.50219 0.54828 0.77773 0.0
H400 H 0.50247 0.54512 0.73062 0.0
H401 H 0.53333 0.52611 0.81766 0.0
H402 H 0.52117 0.6164 0.78128 0.0
H403 H 0.53446 0.65667 0.75302 0.0
H404 H 0.61805 0.67118 0.79253 0.0
H405 H 0.60543 0.63076 0.82079 0.0
C406 C 0.52741 0.57474 0.93352 0.0
C407 C 0.55521 0.58094 0.94531 0.0
C408 C 0.52459 0.57493 0.90666 0.0
C409 C 0.54952 0.58139 0.89128 0.0
C410 C 0.5768 0.58972 0.90309 0.0
C411 C 0.57966 0.58936 0.92991 0.0
C412 C 0.54799 0.57679 0.86309 0.0
C413 C 0.55562 0.59923 0.84654 0.0
C414 C 0.53976 0.55012 0.85258 0.0
C415 C 0.53324 0.52527 0.86917 0.0
C416 C 0.55445 0.51705 0.88702 0.0
C417 C 0.54803 0.49383 0.90283 0.0
C418 C 0.52057 0.4785 0.90078 0.0
C419 C 0.49951 0.48631 0.88286 0.0
C420 C 0.5058 0.50956 0.86705 0.0
C421 C 0.57486 0.56822 0.74082 0.0
C422 C 0.54882 0.55969 0.72702 0.0
C423 C 0.5746 0.57012 0.76766 0.0
C424 C 0.54826 0.5637 0.78115 0.0
C425 C 0.52269 0.55348 0.76761 0.0
C426 C 0.52294 0.55153 0.74073 0.0
C427 C 0.54712 0.56898 0.8092 0.0
C428 C 0.53905 0.54664 0.82574 0.0
C429 C 0.55506 0.59574 0.81968 0.0
C430 C 0.56245 0.6204 0.80302 0.0
C431 C 0.54245 0.62808 0.78385 0.0
C432 C 0.54986 0.65094 0.76783 0.0
C433 C 0.57712 0.66641 0.77093 0.0
C434 C 0.59696 0.65915 0.79013 0.0
C435 C 0.58968 0.63629 0.80618 0.0
H436 H 0.58288 0.68404 0.75847 0.0
H437 H 0.51563 0.46052 0.91302 0.0
H438 H 0.98689 0.57255 0.37048 0.0
H439 H 0.99776 0.58783 0.32637 0.0
H440 H 0.92069 0.63469 0.32575 0.0
H441 H 0.90894 0.61852 0.36943 0.0
H442 H 0.92372 0.60738 0.28217 0.0
H443 H 0.99045 0.6677 0.33162 0.0
H444 H 0.02879 0.68066 0.36452 0.0
H445 H 0.09044 0.63384 0.32436 0.0
H446 H 0.05233 0.62025 0.29138 0.0
H447 H 0.96697 0.66672 0.16069 0.0
H448 H 0.95743 0.66701 0.20738 0.0
H449 H 0.0218 0.60696 0.21928 0.0
H450 H 0.031 0.60643 0.17285 0.0
H451 H 0.02346 0.64874 0.25788 0.0
H452 H 0.95309 0.58392 0.21219 0.0
H453 H 0.91439 0.57181 0.17935 0.0
H454 H 0.859 0.62966 0.21323 0.0
H455 H 0.89762 0.64242 0.24605 0.0
C456 C 0.9721 0.58589 0.36088 0.0
C457 C 0.94714 0.59442 0.37353 0.0
C458 C 0.97855 0.59491 0.33578 0.0
C459 C 0.96034 0.61284 0.32294 0.0
C460 C 0.93518 0.62107 0.33537 0.0
C461 C 0.92864 0.61196 0.36041 0.0
C462 C 0.9671 0.62225 0.29623 0.0
C463 C 0.94534 0.61697 0.27699 0.0
C464 C 0.99537 0.63459 0.28939 0.0
C465 C 0.01844 0.64279 0.30912 0.0
C466 C 1.01212 0.66 0.32989 0.0
C467 C 0.03382 0.66748 0.34855 0.0
C468 C 0.06202 0.65803 0.34656 0.0
C469 C 0.06858 0.64113 0.32588 0.0
C470 C 0.04695 0.63356 0.30718 0.0
C471 C 0.97947 0.65415 0.17347 0.0
C472 C 0.99962 0.63651 0.16346 0.0
C473 C 0.97399 0.65424 0.19999 0.0
C474 C 0.98883 0.63688 0.21666 0.0
C475 C 1.01024 0.62056 0.20673 0.0
C476 C 0.0154 0.62019 0.1803 0.0
C477 C 0.98027 0.63339 0.24399 0.0
C478 C 1.00169 0.63969 0.26328 0.0
C479 C 0.95163 0.6222 0.25094 0.0
C480 C 0.92836 0.61437 0.23135 0.0
C481 C 0.93276 0.59422 0.21249 0.0
C482 C 0.91083 0.58721 0.19391 0.0
C483 C 0.88428 0.60002 0.19415 0.0
C484 C 0.87959 0.6198 0.21303 0.0
C485 C 0.90149 0.62693 0.23162 0.0
H486 H 0.86732 0.59456 0.17976 0.0
H487 H 0.07879 0.66385 0.36102 0.0
H488 H 0.25691 0.23803 0.19404 0.0
H489 H 0.29679 0.21656 0.17251 0.0
H490 H 0.25603 0.13513 0.19089 0.0
H491 H 0.21525 0.15633 0.21164 0.0
H492 H 0.31644 0.13834 0.20047 0.0
H493 H 0.25309 0.16028 0.12969 0.0
H494 H 0.2242 0.19078 0.10283 0.0
H495 H 0.30307 0.24337 0.08697 0.0
H496 H 0.33238 0.21339 0.11405 0.0
H497 H 0.41181 0.06298 0.12245 0.0
H498 H 0.36904 0.0819 0.14246 0.0
H499 H 0.39767 0.16358 0.11349 0.0
H500 H 0.43964 0.14455 0.09268 0.0
H501 H 0.34203 0.15928 0.10935 0.0
H502 H 0.4055 0.14037 0.18052 0.0
H503 H 0.43571 0.1121 0.20846 0.0
H504 H 0.35906 0.05679 0.22503 0.0
H505 H 0.32845 0.08454 0.19691 0.0
C506 C 0.25581 0.21553 0.19319 0.0
C507 C 0.23213 0.19921 0.20473 0.0
C508 C 0.27904 0.20319 0.1809 0.0
C509 C 0.2797 0.17404 0.17976 0.0
C510 C 0.25638 0.15763 0.19145 0.0
C511 C 0.23294 0.16995 0.20351 0.0
C512 C 0.30463 0.16079 0.16648 0.0
C513 C 0.32172 0.14264 0.18042 0.0
C514 C 0.31242 0.16675 0.14048 0.0
C515 C 0.29488 0.18473 0.1241 0.0
C516 C 0.26424 0.17847 0.12064 0.0
C517 C 0.24779 0.19564 0.10535 0.0
C518 C 0.26178 0.21904 0.09326 0.0
C519 C 0.29226 0.22526 0.09638 0.0
C520 C 0.3088 0.20817 0.11168 0.0
C521 C 0.40898 0.08496 0.12023 0.0
C522 C 0.4295 0.1021 0.10584 0.0
C523 C 0.38448 0.09593 0.13196 0.0
C524 C 0.37991 0.12454 0.13016 0.0
C525 C 0.40023 0.14152 0.11544 0.0
C526 C 0.42448 0.13052 0.10349 0.0
C527 C 0.35418 0.13685 0.14334 0.0
C528 C 0.33686 0.15487 0.12939 0.0
C529 C 0.34646 0.13107 0.16947 0.0
C530 C 0.36476 0.11435 0.18639 0.0
C531 C 0.39514 0.12206 0.18998 0.0
C532 C 0.41232 0.10615 0.20587 0.0
C533 C 0.39933 0.08262 0.21845 0.0
C534 C 0.3691 0.07499 0.21523 0.0
C535 C 0.35182 0.09081 0.19933 0.0
H536 H 0.41267 0.07033 0.23075 0.0
H537 H 0.24901 0.23231 0.08143 0.0
H538 H 0.28318 0.9333 0.67177 0.0
H539 H 0.25112 0.9568 0.64145 0.0
H540 H 0.20289 0.98668 0.70552 0.0
H541 H 0.23456 0.9633 0.73552 0.0
H542 H 0.16498 0.96392 0.67171 0.0
H543 H 0.24971 0.03053 0.66762 0.0
H544 H 0.30212 0.04639 0.66062 0.0
H545 H 0.29511 0.0176 0.58227 0.0
H546 H 0.24272 1.00123 0.58891 0.0
H547 H 0.10977 0.08144 0.5861 0.0
H548 H 0.14908 0.06246 0.61197 0.0
H549 H 0.11788 0.97939 0.58828 0.0
H550 H 0.07878 0.99819 0.56218 0.0
H551 H 0.19593 0.0297 0.60146 0.0
H552 H 0.12206 0.93686 0.64276 0.0
H553 H 0.06944 0.92405 0.65216 0.0
H554 H 0.0545 1.01044 0.66022 0.0
H555 H 0.10712 0.02374 0.65134 0.0
C556 C 0.26627 0.94555 0.67934 0.0
C557 C 0.26152 0.94642 0.70611 0.0
C558 C 0.24776 0.95888 0.66198 0.0
C559 C 0.2242 0.97349 0.67103 0.0
C560 C 0.22052 0.97539 0.69783 0.0
C561 C 0.23887 0.96215 0.71505 0.0
C562 C 0.20233 0.98561 0.65296 0.0
C563 C 0.17191 0.97819 0.6563 0.0
C564 C 0.21094 1.00456 0.63288 0.0
C565 C 0.24239 0.0144 0.62885 0.0
C566 C 0.25941 0.02738 0.64896 0.0
C567 C 0.2891 0.0365 0.64505 0.0
C568 C 0.30196 0.03294 0.62104 0.0
C569 C 0.28513 0.02031 0.60087 0.0
C570 C 0.25543 1.01112 0.60469 0.0
C571 C 0.11147 0.05915 0.58609 0.0
C572 C 0.09094 0.04142 0.57196 0.0
C573 C 0.13407 0.0483 0.6009 0.0
C574 C 0.13647 0.01941 0.60235 0.0
C575 C 0.1165 1.00172 0.58771 0.0
C576 C 0.09414 1.01257 0.57266 0.0
C577 C 0.15878 1.00768 0.62011 0.0
C578 C 0.18915 0.01519 0.61673 0.0
C579 C 0.15014 0.98906 0.6404 0.0
C580 C 0.11849 0.98129 0.64605 0.0
C581 C 0.10757 0.95312 0.64661 0.0
C582 C 0.07774 0.94577 0.65187 0.0
C583 C 0.05862 0.96642 0.65669 0.0
C584 C 0.06932 0.99447 0.65638 0.0
C585 C 0.09913 1.00192 0.65121 0.0
H586 H 0.03555 0.96068 0.66073 0.0
H587 H 0.32495 0.04002 0.61804 0.0
H588 H 0.69375 0.49254 0.97886 0.0
H589 H 0.74736 0.50326 0.97679 0.0
H590 H 0.74333 0.5607 0.04026 0.0
H591 H 0.68946 0.55081 0.04157 0.0
H592 H 0.78041 0.58201 1.00678 0.0
H593 H 0.76512 0.49232 0.04751 0.0
H594 H 0.74537 0.44324 0.05133 0.0
H595 H 0.79158 0.4229 0.98295 0.0
H596 H 0.81128 0.47198 0.97852 0.0
H597 H 0.9254 0.5866 0.05604 0.0
H598 H 0.87253 0.57437 0.05047 0.0
H599 H 0.88815 0.53605 0.97733 0.0
H600 H 0.94153 0.54844 0.9826 0.0
H601 H 0.84633 0.50481 1.01121 0.0
H602 H 0.86588 0.59635 0.97496 0.0
H603 H 0.88697 0.64519 0.97557 0.0
H604 H 0.83295 0.66202 0.04021 0.0
H605 H 0.81212 0.61307 0.04052 0.0
C606 C 0.7044 0.5075 0.99229 0.0
C607 C 0.68768 0.52071 1.01053 0.0
C608 C 0.73499 0.51354 0.99118 0.0
C609 C 0.7495 0.53235 1.00872 0.0
C610 C 0.73265 0.54606 0.02656 0.0
C611 C 0.70195 0.5404 0.02735 0.0
C612 C 0.78224 0.53748 1.00881 0.0
C613 C 0.79477 0.56511 1.00796 0.0
C614 C 0.80108 0.51542 1.00982 0.0
C615 C 0.78941 0.48587 1.01253 0.0
C616 C 0.7709 0.47742 0.03319 0.0
C617 C 0.75974 0.4496 0.03547 0.0
C618 C 0.76715 0.42998 1.01735 0.0
C619 C 0.78582 0.43813 0.99694 0.0
C620 C 0.797 0.46594 0.99454 0.0
C621 C 0.91774 0.57538 0.03881 0.0
C622 C 0.93767 0.56865 1.01965 0.0
C623 C 0.88749 0.56849 0.03567 0.0
C624 C 0.87653 0.55466 1.01338 0.0
C625 C 0.89632 0.54685 0.99462 0.0
C626 C 0.92672 0.55397 0.99765 0.0
C627 C 0.84423 0.54923 1.00959 0.0
C628 C 0.83186 0.52161 1.00973 0.0
C629 C 0.82553 0.57129 1.0084 0.0
C630 C 0.83759 0.60093 1.00788 0.0
C631 C 0.85865 0.61038 0.98944 0.0
C632 C 0.87054 0.63811 0.9896 0.0
C633 C 0.86129 0.65669 1.00788 0.0
C634 C 0.8401 0.6476 0.02605 0.0
C635 C 0.82825 0.61986 0.02608 0.0
H636 H 0.87053 0.67815 1.00795 0.0
H637 H 0.75849 0.40845 1.01915 0.0
H638 H 0.82421 0.60176 0.47222 0.0
H639 H 0.77503 0.59872 0.49147 0.0
H640 H 0.81177 0.63902 0.56026 0.0
H641 H 0.86097 0.64226 0.54104 0.0
H642 H 0.7478 0.57737 0.53432 0.0
H643 H 0.76596 0.68809 0.57807 0.0
H644 H 0.79754 0.73162 0.57102 0.0
H645 H 0.80616 0.71063 0.49114 0.0
H646 H 0.77421 0.66727 0.4976 0.0
H647 H 0.62726 0.60005 0.61287 0.0
H648 H 0.67897 0.60312 0.59979 0.0
H649 H 0.65754 0.65202 0.53342 0.0
H650 H 0.60558 0.64887 0.54618 0.0
H651 H 0.71301 0.66924 0.55701 0.0
H652 H 0.65797 0.58778 0.52371 0.0
H653 H 0.62437 0.54495 0.52657 0.0
H654 H 0.68604 0.50836 0.57717 0.0
H655 H 0.71978 0.55122 0.57501 0.0
C656 C 0.82191 0.60927 0.49172 0.0
C657 C 0.8463 0.6225 0.50507 0.0
C658 C 0.79381 0.60758 0.50266 0.0
C659 C 0.78973 0.61911 0.52707 0.0
C660 C 0.81441 0.63044 0.5412 0.0
C661 C 0.84245 0.63227 0.53023 0.0
C662 C 0.75946 0.62158 0.53671 0.0
C663 C 0.74027 0.5974 0.53945 0.0
C664 C 0.74939 0.64786 0.54269 0.0
C665 C 0.76796 0.67429 0.53842 0.0
C666 C 0.77447 0.69285 0.55898 0.0
C667 C 0.79244 0.71749 0.55509 0.0
C668 C 0.80393 0.72384 0.53067 0.0
C669 C 0.79732 0.70565 0.51006 0.0
C670 C 0.77929 0.68104 0.51383 0.0
C671 C 0.63361 0.61205 0.59583 0.0
C672 C 0.61227 0.62393 0.58036 0.0
C673 C 0.66315 0.61368 0.58836 0.0
C674 C 0.67183 0.6274 0.56547 0.0
C675 C 0.65113 0.64125 0.55112 0.0
C676 C 0.62148 0.6394 0.55842 0.0
C677 C 0.70175 0.62499 0.55525 0.0
C678 C 0.72074 0.64918 0.55221 0.0
C679 C 0.71134 0.59882 0.54833 0.0
C680 C 0.69127 0.57285 0.54943 0.0
C681 C 0.66426 0.5707 0.53564 0.0
C682 C 0.64519 0.54641 0.53711 0.0
C683 C 0.65303 0.52397 0.55209 0.0
C684 C 0.67998 0.52578 0.5656 0.0
C685 C 0.69909 0.55007 0.56426 0.0
H686 H 0.63826 0.50517 0.55318 0.0
H687 H 0.8179 0.74288 0.52772 0.0
H688 H 0.10218 0.3233 0.1793 0.0
H689 H 0.08028 0.35746 0.151 0.0
H690 H 0.167 0.39891 0.13894 0.0
H691 H 0.18865 0.36466 0.16657 0.0
H692 H 0.0761 0.41042 0.1564 0.0
H693 H 0.17181 0.4361 0.08406 0.0
H694 H 0.20931 0.41169 0.06101 0.0
H695 H 0.15528 0.33452 0.06748 0.0
H696 H 0.11728 0.35851 0.09025 0.0
H697 H 0.05867 0.54369 0.1017 0.0
H698 H 0.07644 0.50282 0.12293 0.0
H699 H 0.07086 0.45862 0.05055 0.0
H700 H 0.05436 0.50008 0.029 0.0
H701 H 0.11676 0.44429 0.0726 0.0
H702 H 0.01872 0.44687 0.10434 0.0
H703 H 0.97673 0.46755 0.12458 0.0
H704 H 0.0275 0.48133 0.1945 0.0
H705 H 0.06993 0.46104 0.17457 0.0
C706 C 0.11665 0.33903 0.16975 0.0
C707 C 0.14733 0.34069 0.17479 0.0
C708 C 0.10405 0.35896 0.15384 0.0
C709 C 0.12177 0.38109 0.14241 0.0
C710 C 0.15256 0.38203 0.14682 0.0
C711 C 0.16506 0.36223 0.16265 0.0
C712 C 0.10829 0.40404 0.12727 0.0
C713 C 0.08504 0.41768 0.13804 0.0
C714 C 0.11917 0.41364 0.10293 0.0
C715 C 0.14183 0.39908 0.08908 0.0
C716 C 0.16788 0.41394 0.08047 0.0
C717 C 0.18923 0.40018 0.06747 0.0
C718 C 0.18472 0.37156 0.06286 0.0
C719 C 0.1588 0.35667 0.07116 0.0
C720 C 0.13737 0.37033 0.08414 0.0
C721 C 0.06111 0.52528 0.09022 0.0
C722 C 0.05481 0.52542 0.06351 0.0
C723 C 0.07115 0.50161 0.10252 0.0
C724 C 0.07462 0.47688 0.08873 0.0
C725 C 0.06849 0.47709 0.06196 0.0
C726 C 0.05886 0.50093 0.04956 0.0
C727 C 0.08503 0.45117 0.10203 0.0
C728 C 0.10774 0.43702 0.09093 0.0
C729 C 0.07313 0.44066 0.12575 0.0
C730 C 0.04758 0.45264 0.13788 0.0
C731 C 0.02098 0.45445 0.12399 0.0
C732 C 0.9971 0.46609 0.13541 0.0
C733 C 0.99947 0.47581 0.16079 0.0
C734 C 0.0257 0.47382 0.17484 0.0
C735 C 0.04966 0.46222 0.1635 0.0
H736 H 0.98097 0.48483 0.16959 0.0
H737 H 0.20129 0.36095 0.0528 0.0
H738 H 0.56588 0.45305 0.03956 0.0
H739 H 0.54736 0.40396 0.03883 0.0
H740 H 0.61869 0.38574 0.98883 0.0
H741 H 0.63629 0.43493 0.98821 0.0
H742 H 0.56977 0.35792 0.97336 0.0
H743 H 0.62043 0.37239 0.05461 0.0
H744 H 0.63181 0.39478 0.0967 0.0
H745 H 0.54301 0.37218 0.12153 0.0
H746 H 0.53099 0.34996 0.07943 0.0
H747 H 0.57583 0.21289 1.00174 0.0
H748 H 0.58526 0.26335 0.996 0.0
H749 H 0.50475 0.27611 0.03623 0.0
H750 H 0.49526 0.22575 0.04212 0.0
H751 H 0.5549 0.30684 0.05603 0.0
H752 H 0.5068 0.28846 0.97415 0.0
H753 H 0.49841 0.26477 0.93227 0.0
H754 H 0.58636 0.29318 0.90895 0.0
H755 H 0.59544 0.31672 0.95085 0.0
C756 C 0.57743 0.43866 0.02816 0.0
C757 C 0.60276 0.44791 1.01416 0.0
C758 C 0.56697 0.41056 0.02796 0.0
C759 C 0.58192 0.39111 1.0141 0.0
C760 C 0.60688 0.40035 0.99976 0.0
C761 C 0.61715 0.42845 0.99972 0.0
C762 C 0.57193 0.36103 1.01485 0.0
C763 C 0.56677 0.3467 0.99144 0.0
C764 C 0.56755 0.34648 0.03843 0.0
C765 C 0.57472 0.3598 0.06377 0.0
C766 C 0.60326 0.37239 0.06897 0.0
C767 C 0.60984 0.38502 0.09284 0.0
C768 C 0.58812 0.38498 0.11175 0.0
C769 C 0.5598 0.37224 0.10685 0.0
C770 C 0.55309 0.35962 0.083 0.0
C771 C 0.55999 0.22648 1.00906 0.0
C772 C 0.53483 0.21547 0.02236 0.0
C773 C 0.5653 0.25522 1.00566 0.0
C774 C 0.54563 0.27335 1.01564 0.0
C775 C 0.52011 0.26238 0.02833 0.0
C776 C 0.51463 0.23365 0.03151 0.0
C777 C 0.55288 0.3038 1.0146 0.0
C778 C 0.55762 0.31816 0.03798 0.0
C779 C 0.55732 0.31822 0.99101 0.0
C780 C 0.55188 0.30416 0.96575 0.0
C781 C 0.52444 0.28946 0.96019 0.0
C782 C 0.51954 0.2761 0.93642 0.0
C783 C 0.54186 0.27741 0.91799 0.0
C784 C 0.5691 0.29216 0.92326 0.0
C785 C 0.57412 0.30554 0.947 0.0
H786 H 0.53802 0.26706 0.8996 0.0
H787 H 0.59326 0.39476 0.13022 0.0
H788 H 0.88181 0.70906 0.46861 0.0
H789 H 0.90043 0.75811 0.46732 0.0
H790 H 0.989 0.73526 0.48247 0.0
H791 H 0.97037 0.68586 0.48378 0.0
H792 H 0.9713 0.77822 0.51436 0.0
H793 H 0.97469 0.75648 0.42482 0.0
H794 H 0.95563 0.73727 0.38326 0.0
H795 H 0.88716 0.79372 0.38305 0.0
H796 H 0.90552 0.813 0.42483 0.0
H797 H 0.02906 0.91797 0.50044 0.0
H798 H 0.02147 0.86796 0.4926 0.0
H799 H 0.931 0.87698 0.46967 0.0
H800 H 0.93877 0.92729 0.47644 0.0
H801 H 0.9557 0.83982 0.43939 0.0
H802 H 0.94784 0.85723 0.53052 0.0
H803 H 0.96499 0.87611 0.57278 0.0
H804 H 0.03999 0.82732 0.57057 0.0
H805 H 0.02348 0.80843 0.52809 0.0
C806 C 0.90525 0.7145 0.4717 0.0
C807 C 0.92467 0.69377 0.47646 0.0
C808 C 0.91587 0.74246 0.47074 0.0
C809 C 0.94609 0.75021 0.4746 0.0
C810 C 0.96561 0.72959 0.47934 0.0
C811 C 0.95501 0.7015 0.48001 0.0
C812 C 0.95679 0.78004 0.47475 0.0
C813 C 0.96854 0.79163 0.49781 0.0
C814 C 0.95244 0.79749 0.45329 0.0
C815 C 0.94136 0.78604 0.42809 0.0
C816 C 0.95542 0.76465 0.41603 0.0
C817 C 0.94477 0.75377 0.39241 0.0
C818 C 0.92017 0.76423 0.38055 0.0
C819 C 0.9062 0.78563 0.39227 0.0
C820 C 0.91675 0.79656 0.41591 0.0
C821 C 1.00773 0.90946 0.49318 0.0
C822 C 0.98444 0.92662 0.48921 0.0
C823 C 1.00336 0.88081 0.48894 0.0
C824 C 0.97555 0.86873 0.48094 0.0
C825 C 0.95261 0.88589 0.47595 0.0
C826 C 0.95699 0.91459 0.48008 0.0
C827 C 0.96985 0.83807 0.47913 0.0
C828 C 0.95894 0.82635 0.4558 0.0
C829 C 0.97475 0.82048 0.50041 0.0
C830 C 0.98461 0.83168 0.52601 0.0
C831 C 0.96811 0.8507 0.53896 0.0
C832 C 0.97769 0.86137 0.56296 0.0
C833 C 1.00361 0.85299 0.57432 0.0
C834 C 0.01995 0.83384 0.56172 0.0
C835 C 1.01048 0.82313 0.53769 0.0
H836 H 1.011 0.86128 0.5929 0.0
H837 H 0.91196 0.75579 0.36225 0.0
H838 H 0.40097 0.87188 0.6964 0.0
H839 H 0.42116 0.83317 0.67413 0.0
H840 H 0.44012 0.79558 0.74739 0.0
H841 H 0.42067 0.83493 0.7698 0.0
H842 H 0.48258 0.78608 0.71722 0.0
H843 H 0.3778 0.77305 0.70572 0.0
H844 H 0.32792 0.78576 0.69358 0.0
H845 H 0.35554 0.79868 0.61519 0.0
H846 H 0.40573 0.78641 0.62694 0.0
H847 H 0.50115 0.65127 0.66553 0.0
H848 H 0.48372 0.69102 0.68826 0.0
H849 H 0.46885 0.73143 0.61553 0.0
H850 H 0.48557 0.69115 0.59257 0.0
H851 H 0.42441 0.7391 0.64584 0.0
H852 H 0.53034 0.75062 0.65922 0.0
H853 H 0.57878 0.73558 0.673 0.0
H854 H 0.5468 0.7226 0.75012 0.0
H855 H 0.49808 0.73721 0.73671 0.0
C856 C 0.40948 0.85543 0.70786 0.0
C857 C 0.40887 0.85667 0.73504 0.0
C858 C 0.42093 0.83303 0.69502 0.0
C859 C 0.43164 0.81062 0.70881 0.0
C860 C 0.43197 0.81226 0.73601 0.0
C861 C 0.42084 0.83494 0.74891 0.0
C862 C 0.4422 0.78561 0.69491 0.0
C863 C 0.46956 0.77569 0.70185 0.0
C864 C 0.42578 0.77181 0.67444 0.0
C865 C 0.3956 0.77908 0.66727 0.0
C866 C 0.37329 0.77879 0.68593 0.0
C867 C 0.34496 0.78589 0.67911 0.0
C868 C 0.33859 0.7931 0.65364 0.0
C869 C 0.36052 0.79314 0.63492 0.0
C870 C 0.38891 0.78609 0.64164 0.0
C871 C 0.4943 0.66861 0.65425 0.0
C872 C 0.49503 0.66779 0.62704 0.0
C873 C 0.48443 0.6916 0.66739 0.0
C874 C 0.47531 0.71488 0.65387 0.0
C875 C 0.47578 0.71401 0.62666 0.0
C876 C 0.4855 0.69089 0.61346 0.0
C877 C 0.46486 0.73975 0.66801 0.0
C878 C 0.43745 0.74959 0.66115 0.0
C879 C 0.48106 0.75321 0.68877 0.0
C880 C 0.5105 0.74481 0.6969 0.0
C881 C 0.53361 0.74442 0.67908 0.0
C882 C 0.56112 0.73597 0.68683 0.0
C883 C 0.56585 0.72805 0.7124 0.0
C884 C 0.54311 0.72868 0.7303 0.0
C885 C 0.51556 0.73708 0.72265 0.0
H886 H 0.58715 0.7215 0.71835 0.0
H887 H 0.31664 0.79859 0.64841 0.0
H888 H 0.91784 0.89654 0.7897 0.0
H889 H 0.93388 0.9176 0.74853 0.0
H890 H 0.91581 0.99845 0.77695 0.0
H891 H 0.89888 0.97731 0.81763 0.0
H892 H 0.89745 0.99715 0.73147 0.0
H893 H 0.98966 0.973 0.76693 0.0
H894 H 0.02604 0.94302 0.78543 0.0
H895 H 0.02021 0.89255 0.71708 0.0
H896 H 0.98343 0.92197 0.69833 0.0
H897 H 0.97402 0.07659 0.63068 0.0
H898 H 0.95961 0.05506 0.67217 0.0
H899 H 0.96068 0.97362 0.63822 0.0
H900 H 0.97467 0.99497 0.59671 0.0
H901 H 0.98816 0.97538 0.68586 0.0
H902 H 0.89539 1.00106 0.65115 0.0
H903 H 0.86113 0.03331 0.63291 0.0
H904 H 0.87115 0.08376 0.70114 0.0
H905 H 0.9058 0.05199 0.71966 0.0
C906 C 0.91766 0.91887 0.78735 0.0
C907 C 0.90697 0.93506 0.8073 0.0
C908 C 0.92697 0.93105 0.76362 0.0
C909 C 0.92657 0.95999 0.75915 0.0
C910 C 0.91637 0.97616 0.77933 0.0
C911 C 0.9067 0.96396 0.80284 0.0
C912 C 0.93569 0.97341 0.73345 0.0
C913 C 0.9176 0.99255 0.72188 0.0
C914 C 0.96165 0.96743 0.72001 0.0
C915 C 0.98347 0.94948 0.73138 0.0
C916 C 0.9959 0.95534 0.75595 0.0
C917 C 0.01663 0.93847 0.76647 0.0
C918 C 0.02534 0.91583 0.75248 0.0
C919 C 1.01338 0.91004 0.72793 0.0
C920 C 0.99258 0.92681 0.71735 0.0
C921 C 0.97093 0.0541 0.63191 0.0
C922 C 0.97532 0.03769 0.60998 0.0
C923 C 0.96265 0.04172 0.65579 0.0
C924 C 0.95877 1.0125 0.65866 0.0
C925 C 0.9634 0.99612 0.63683 0.0
C926 C 0.97126 1.00847 0.6129 0.0
C927 C 0.95001 0.99902 0.68424 0.0
C928 C 0.96811 0.9799 0.69566 0.0
C929 C 0.92432 1.00525 0.69773 0.0
C930 C 0.90342 0.02431 0.68667 0.0
C931 C 0.89047 0.01915 0.66218 0.0
C932 C 0.87095 0.03732 0.65181 0.0
C933 C 0.86403 0.06061 0.66583 0.0
C934 C 0.87656 0.06574 0.69029 0.0
C935 C 0.89613 0.04765 0.70074 0.0
H936 H 0.84891 0.07465 0.65776 0.0
H937 H 0.04143 0.90282 0.76064 0.0
H938 H 0.64613 0.23918 0.31991 0.0
H939 H 0.62592 0.22061 0.27888 0.0
H940 H 0.64141 0.13749 0.30363 0.0
H941 H 0.66272 0.15619 0.34423 0.0
H942 H 0.65298 0.13923 0.25636 0.0
H943 H 0.56884 0.1671 0.30137 0.0
H944 H 0.5388 0.1989 0.3249 0.0
H945 H 0.53982 0.25356 0.2593 0.0
H946 H 0.57021 0.22225 0.23548 0.0
H947 H 0.55514 0.06799 0.16336 0.0
H948 H 0.57766 0.08772 0.20321 0.0
H949 H 0.57826 0.17016 0.17072 0.0
H950 H 0.55597 0.15051 0.13067 0.0
H951 H 0.55842 0.1689 0.22116 0.0
H952 H 0.64189 0.13804 0.17617 0.0
H953 H 0.66989 0.10395 0.15348 0.0
H954 H 0.66719 0.05179 0.22084 0.0
H955 H 0.6388 0.0854 0.24382 0.0
C956 C 0.64522 0.21692 0.31667 0.0
C957 C 0.65615 0.19931 0.33566 0.0
C958 C 0.63339 0.20618 0.29309 0.0
C959 C 0.63126 0.17732 0.28787 0.0
C960 C 0.64256 0.15977 0.30675 0.0
C961 C 0.65486 0.17056 0.33014 0.0
C962 C 0.61752 0.16543 0.26292 0.0
C963 C 0.63207 0.14556 0.24902 0.0
C964 C 0.59037 0.17365 0.25252 0.0
C965 C 0.57206 0.19248 0.26675 0.0
C966 C 0.56283 0.186 0.29203 0.0
C967 C 0.54572 0.20392 0.30541 0.0
C968 C 0.53748 0.22827 0.29363 0.0
C969 C 0.54626 0.23471 0.26841 0.0
C970 C 0.56341 0.21688 0.25496 0.0
C971 C 0.56014 0.09033 0.16457 0.0
C972 C 0.5537 0.10753 0.14351 0.0
C973 C 0.57316 0.10165 0.18748 0.0
C974 C 0.58 0.13058 0.19024 0.0
C975 C 0.57333 0.14782 0.16933 0.0
C976 C 0.56064 0.13648 0.14627 0.0
C977 C 0.59387 0.14278 0.21486 0.0
C978 C 0.57932 0.16266 0.22863 0.0
C979 C 0.62073 0.13425 0.22535 0.0
C980 C 0.63797 0.11412 0.21163 0.0
C981 C 0.64707 0.1192 0.18608 0.0
C982 C 0.66304 0.09998 0.17317 0.0
C983 C 0.67025 0.07568 0.18569 0.0
C984 C 0.66156 0.0706 0.21116 0.0
C985 C 0.64555 0.08974 0.22414 0.0
H986 H 0.68261 0.06082 0.17566 0.0
H987 H 0.52423 0.24212 0.30402 0.0
H988 H 0.48275 0.62583 0.23437 0.0
H989 H 0.49274 0.63956 0.27941 0.0
H990 H 0.42466 0.57781 0.30439 0.0
H991 H 0.41472 0.5639 0.25946 0.0
H992 H 0.42179 0.6329 0.32591 0.0
H993 H 0.49204 0.56351 0.31196 0.0
H994 H 0.53321 0.54405 0.28936 0.0
H995 H 0.58924 0.61841 0.30551 0.0
H996 H 0.54823 0.63846 0.32792 0.0
H997 H 0.44248 0.60873 0.45754 0.0
H998 H 0.43503 0.60994 0.41109 0.0
H999 H 0.5188 0.65844 0.40273 0.0
H1000 H 0.52729 0.65573 0.44935 0.0
H1001 H 0.51648 0.61796 0.37066 0.0
H1002 H 0.4501 0.68572 0.38928 0.0
H1003 H 0.40985 0.70726 0.41128 0.0
H1004 H 0.34765 0.64071 0.38562 0.0
H1005 H 0.38758 0.61853 0.36376 0.0
C1006 C 0.47005 0.61514 0.24953 0.0
C1007 C 0.44807 0.59373 0.24353 0.0
C1008 C 0.47577 0.62297 0.27516 0.0
C1009 C 0.45938 0.6097 0.29511 0.0
C1010 C 0.43747 0.58831 0.28918 0.0
C1011 C 0.43201 0.58022 0.2636 0.0
C1012 C 0.46499 0.61803 0.32227 0.0
C1013 C 0.44238 0.62952 0.33585 0.0
C1014 C 0.49234 0.61471 0.33472 0.0
C1015 C 0.51698 0.60261 0.32133 0.0
C1016 C 0.51306 0.57581 0.31048 0.0
C1017 C 0.53638 0.56465 0.29775 0.0
C1018 C 0.5638 0.58002 0.29592 0.0
C1019 C 0.56798 0.60655 0.3069 0.0
C1020 C 0.54471 0.61781 0.31962 0.0
C1021 C 0.4593 0.6198 0.44588 0.0
C1022 C 0.48569 0.63178 0.45715 0.0
C1023 C 0.45479 0.62084 0.41927 0.0
C1024 C 0.47622 0.6345 0.40331 0.0
C1025 C 0.50193 0.64779 0.41463 0.0
C1026 C 0.50663 0.64646 0.44133 0.0
C1027 C 0.47294 0.63229 0.37482 0.0
C1028 C 0.496 0.62192 0.36082 0.0
C1029 C 0.44612 0.63709 0.3619 0.0
C1030 C 0.42193 0.65037 0.37498 0.0
C1031 C 0.42788 0.67556 0.38847 0.0
C1032 C 0.40511 0.68791 0.40089 0.0
C1033 C 0.37622 0.67535 0.39988 0.0
C1034 C 0.37004 0.65043 0.38639 0.0
C1035 C 0.39273 0.63798 0.37393 0.0
H1036 H 0.35862 0.68494 0.40952 0.0
H1037 H 0.58183 0.57135 0.28607 0.0
H1038 H 0.02352 0.49219 0.69407 0.0
H1039 H 0.0258 0.51736 0.73483 0.0
H1040 H 0.12041 0.53339 0.72743 0.0
H1041 H 0.11839 0.50709 0.68704 0.0
H1042 H 0.108 0.51088 0.77207 0.0
H1043 H 0.07396 0.58728 0.72655 0.0
H1044 H 0.04329 0.6124 0.69631 0.0
H1045 H 0.96624 0.58936 0.7414 0.0
H1046 H 0.99634 0.56374 0.77173 0.0
H1047 H 0.10559 0.57792 0.89539 0.0
H1048 H 0.11256 0.57098 0.84912 0.0
H1049 H 0.02101 0.5396 0.84113 0.0
H1050 H 1.01376 0.54692 0.88723 0.0
H1051 H 0.03907 0.57799 0.80297 0.0
H1052 H 0.07359 0.49535 0.84371 0.0
H1053 H 0.10507 0.47068 0.87367 0.0
H1054 H 0.18294 0.50762 0.83652 0.0
H1055 H 0.15189 0.5328 0.80654 0.0
C1056 C 0.04476 0.50142 0.70094 0.0
C1057 C 0.07081 0.49737 0.68753 0.0
C1058 C 0.04601 0.51612 0.72411 0.0
C1059 C 0.07328 0.5274 0.73416 0.0
C1060 C 0.09913 0.52488 0.72 0.0
C1061 C 0.09791 0.51003 0.69683 0.0
C1062 C 0.07497 0.53847 0.76084 0.0
C1063 C 0.09347 0.52614 0.77866 0.0
C1064 C 0.05572 0.55805 0.76956 0.0
C1065 C 0.03743 0.57344 0.75137 0.0
C1066 C 0.05044 0.58738 0.72993 0.0
C1067 C 0.03315 0.60175 0.71278 0.0
C1068 C 1.00283 0.60244 0.71691 0.0
C1069 C 0.98974 0.58881 0.73823 0.0
C1070 C 1.00691 0.5744 0.75543 0.0
C1071 C 0.08695 0.5696 0.88372 0.0
C1072 C 0.05916 0.56282 0.8949 0.0
C1073 C 0.09099 0.5656 0.85736 0.0
C1074 C 0.06729 0.55477 0.84179 0.0
C1075 C 0.03953 0.54806 0.85287 0.0
C1076 C 0.03551 0.55193 0.87922 0.0
C1077 C 0.0714 0.54976 0.81399 0.0
C1078 C 0.05401 0.56324 0.79611 0.0
C1079 C 0.09182 0.53141 0.80514 0.0
C1080 C 0.11044 0.51621 0.82311 0.0
C1081 C 0.09743 0.49839 0.84208 0.0
C1082 C 0.11519 0.48428 0.85903 0.0
C1083 C 0.14599 0.48765 0.85706 0.0
C1084 C 0.15909 0.50508 0.83807 0.0
C1085 C 0.14142 0.51926 0.82109 0.0
H1086 H 0.1597 0.47671 0.8702 0.0
H1087 H 0.98949 0.61358 0.70361 0.0
H1088 H 0.74991 0.91299 0.93404 0.0
H1089 H 0.7173 0.93451 0.96424 0.0
H1090 H 0.74866 0.01577 0.93602 0.0
H1091 H 0.78126 0.99412 0.90578 0.0
H1092 H 0.72101 0.97211 1.0037 0.0
H1093 H 0.68918 0.05605 0.93133 0.0
H1094 H 0.68782 0.064 0.88429 0.0
H1095 H 0.67832 0.97571 0.87118 0.0
H1096 H 0.67913 0.96725 0.91811 0.0
H1097 H 0.6038 0.08421 0.02191 0.0
H1098 H 0.64495 0.06599 0.99892 0.0
H1099 H 0.6226 0.98477 0.03179 0.0
H1100 H 0.58203 1.00306 0.05534 0.0
H1101 H 0.64782 0.02978 0.96268 0.0
H1102 H 0.68147 0.94613 0.03521 0.0
H1103 H 0.68276 0.93814 0.08223 0.0
H1104 H 0.68884 0.0264 0.09547 0.0
H1105 H 0.68796 0.03492 0.04855 0.0
C1106 C 0.75068 0.93551 0.93501 0.0
C1107 C 0.76875 0.95185 0.91791 0.0
C1108 C 0.7318 0.94784 0.95217 0.0
C1109 C 0.72997 0.97687 0.95235 0.0
C1110 C 0.74924 0.99334 0.93622 0.0
C1111 C 0.76828 0.98098 0.91916 0.0
C1112 C 0.70655 0.98951 0.96793 0.0
C1113 C 0.70489 0.98454 0.99466 0.0
C1114 C 0.68557 1.00621 0.95647 0.0
C1115 C 0.6846 1.01105 0.92822 0.0
C1116 C 0.6867 0.03835 0.9184 0.0
C1117 C 0.68602 0.04294 0.89176 0.0
C1118 C 0.6831 0.02038 0.87476 0.0
C1119 C 0.6807 0.99317 0.88436 0.0
C1120 C 0.68129 0.98846 0.91098 0.0
C1121 C 0.60783 0.06253 0.02454 0.0
C1122 C 0.58951 0.04526 0.04077 0.0
C1123 C 0.63141 0.05204 1.01121 0.0
C1124 C 0.6375 0.02392 1.01363 0.0
C1125 C 0.61916 1.00665 0.02984 0.0
C1126 C 0.59572 0.01717 0.04332 0.0
C1127 C 0.66227 1.01257 0.99861 0.0
C1128 C 0.66408 0.01763 0.97187 0.0
C1129 C 0.68341 0.99601 1.01011 0.0
C1130 C 0.68436 0.99113 0.03836 0.0
C1131 C 0.68321 0.96383 0.04815 0.0
C1132 C 0.68384 0.95921 0.07479 0.0
C1133 C 0.68579 0.98174 0.09183 0.0
C1134 C 0.68722 1.00896 0.08226 0.0
C1135 C 0.68661 0.01369 0.05564 0.0
H1136 H 0.68625 0.97812 0.11244 0.0
H1137 H 0.68262 0.02398 0.85414 0.0
H1138 H 0.7209 0.15584 0.39369 0.0
H1139 H 0.76326 0.13574 0.4134 0.0
H1140 H 0.78857 0.21361 0.45156 0.0
H1141 H 0.74689 0.23442 0.43079 0.0
H1142 H 0.83671 0.19311 0.43562 0.0
H1143 H 0.75361 0.15379 0.48339 0.0
H1144 H 0.70448 0.12886 0.48962 0.0
H1145 H 0.7343 0.0558 0.45432 0.0
H1146 H 0.78353 0.08042 0.44757 0.0
H1147 H 0.93831 0.13987 0.5249 0.0
H1148 H 0.89559 0.15964 0.50516 0.0
H1149 H 0.87323 0.08274 0.46441 0.0
H1150 H 0.91594 0.06258 0.4845 0.0
H1151 H 0.82379 0.1026 0.48162 0.0
H1152 H 0.90717 0.14231 0.43413 0.0
H1153 H 0.95653 0.16718 0.42904 0.0
H1154 H 0.92617 0.23971 0.46488 0.0
H1155 H 0.87669 0.21514 0.47046 0.0
C1156 C 0.73557 0.16902 0.40595 0.0
C1157 C 0.73007 0.19705 0.41034 0.0
C1158 C 0.75979 0.15722 0.41763 0.0
C1159 C 0.77927 0.1728 0.43452 0.0
C1160 C 0.77405 0.20086 0.4388 0.0
C1161 C 0.74986 0.21275 0.427 0.0
C1162 C 0.80501 0.15992 0.44748 0.0
C1163 C 0.83367 0.17351 0.44596 0.0
C1164 C 0.80171 0.13393 0.46065 0.0
C1165 C 0.77217 0.11904 0.46475 0.0
C1166 C 0.74963 0.13247 0.47679 0.0
C1167 C 0.72177 0.11839 0.48044 0.0
C1168 C 0.71625 0.09079 0.47231 0.0
C1169 C 0.7386 0.07719 0.46057 0.0
C1170 C 0.76649 0.09119 0.45685 0.0
C1171 C 0.92433 0.12699 0.51181 0.0
C1172 C 0.93089 0.0995 0.50635 0.0
C1173 C 0.89983 0.13849 0.50032 0.0
C1174 C 0.8811 0.12303 0.48277 0.0
C1175 C 0.88718 0.09533 0.47773 0.0
C1176 C 0.91175 0.08377 0.48926 0.0
C1177 C 0.8554 0.13581 0.46974 0.0
C1178 C 0.82678 0.1222 0.47124 0.0
C1179 C 0.85873 0.16181 0.45663 0.0
C1180 C 0.8883 0.17679 0.45291 0.0
C1181 C 0.91106 0.16351 0.44105 0.0
C1182 C 0.93906 0.17756 0.43806 0.0
C1183 C 0.9445 0.20499 0.44669 0.0
C1184 C 0.92192 0.21846 0.45823 0.0
C1185 C 0.89389 0.20449 0.46127 0.0
H1186 H 0.9662 0.21582 0.4444 0.0
H1187 H 0.69467 0.07992 0.47515 0.0
H1188 H 0.34082 0.68105 0.13633 0.0
H1189 H 0.29082 0.67976 0.11782 0.0
H1190 H 0.30629 0.60541 0.07557 0.0
H1191 H 0.35646 0.6064 0.09441 0.0
H1192 H 0.27898 0.65115 0.04651 0.0
H1193 H 0.26796 0.59441 0.12349 0.0
H1194 H 0.27428 0.58488 0.1699 0.0
H1195 H 0.22558 0.65477 0.18852 0.0
H1196 H 0.21938 0.66499 0.14218 0.0
H1197 H 0.13133 0.60491 1.01129 0.0
H1198 H 0.18316 0.61212 0.02441 0.0
H1199 H 0.16018 0.66904 0.08372 0.0
H1200 H 0.10801 0.661 0.07132 0.0
H1201 H 0.19248 0.63332 0.10374 0.0
H1202 H 0.20129 0.69042 0.02864 0.0
H1203 H 0.19554 0.70292 0.98282 0.0
H1204 H 0.24844 0.63712 0.96086 0.0
H1205 H 0.25418 0.62396 1.00656 0.0
C1206 C 0.33359 0.66453 0.12297 0.0
C1207 C 0.35238 0.64385 0.11668 0.0
C1208 C 0.3051 0.6638 0.11249 0.0
C1209 C 0.29503 0.64253 0.09537 0.0
C1210 C 0.31384 0.62203 0.08871 0.0
C1211 C 0.34228 0.6225 0.09955 0.0
C1212 C 0.26447 0.64142 0.08509 0.0
C1213 C 0.25996 0.64689 0.05883 0.0
C1214 C 0.23991 0.63685 0.10151 0.0
C1215 C 0.24348 0.63064 0.12937 0.0
C1216 C 0.25884 0.60791 0.13748 0.0
C1217 C 0.26235 0.60235 0.16377 0.0
C1218 C 0.25041 0.61926 0.18215 0.0
C1219 C 0.23486 0.64172 0.17426 0.0
C1220 C 0.23133 0.64739 0.14799 0.0
C1221 C 0.13736 0.61941 0.02679 0.0
C1222 C 0.11558 0.63229 0.04037 0.0
C1223 C 0.16708 0.62361 0.03422 0.0
C1224 C 0.17567 0.64125 0.055 0.0
C1225 C 0.15408 0.65524 0.06771 0.0
C1226 C 0.12429 0.65072 0.06054 0.0
C1227 C 0.20661 0.6431 0.06491 0.0
C1228 C 0.21132 0.63772 0.09122 0.0
C1229 C 0.23131 0.64819 0.04856 0.0
C1230 C 0.22794 0.65604 0.02103 0.0
C1231 C 0.2115 0.67847 1.01404 0.0
C1232 C 0.20828 0.6857 0.98808 0.0
C1233 C 0.22155 0.67078 0.96894 0.0
C1234 C 0.23814 0.64864 0.97572 0.0
C1235 C 0.24142 0.64131 1.00164 0.0
H1236 H 0.21904 0.67642 0.94885 0.0
H1237 H 0.25314 0.61492 0.20249 0.0
H1238 H 0.19285 0.47235 0.6267 0.0
H1239 H 0.24565 0.4862 0.63184 0.0
H1240 H 0.24696 0.52272 0.55576 0.0
H1241 H 0.194 0.50932 0.5506 0.0
H1242 H 0.29131 0.48806 0.56342 0.0
H1243 H 0.25034 0.56349 0.60844 0.0
H1244 H 0.21948 0.58382 0.64114 0.0
H1245 H 0.26771 0.5456 0.70149 0.0
H1246 H 0.29861 0.52471 0.66909 0.0
H1247 H 0.42439 0.5714 0.55847 0.0
H1248 H 0.37274 0.55345 0.56013 0.0
H1249 H 0.3862 0.52254 0.63719 0.0
H1250 H 0.43835 0.54089 0.63585 0.0
H1251 H 0.33544 0.54968 0.63277 0.0
H1252 H 0.37906 0.47732 0.5886 0.0
H1253 H 0.41031 0.45676 0.55635 0.0
H1254 H 0.35742 0.4878 0.49518 0.0
H1255 H 0.32611 0.50893 0.52706 0.0
C1256 C 0.20419 0.48387 0.61127 0.0
C1257 C 0.18918 0.48987 0.58826 0.0
C1258 C 0.23441 0.49163 0.6142 0.0
C1259 C 0.25015 0.50554 0.59421 0.0
C1260 C 0.2352 0.51188 0.57138 0.0
C1261 C 0.20498 0.50421 0.56845 0.0
C1262 C 0.28245 0.51268 0.59665 0.0
C1263 C 0.30096 0.50175 0.57842 0.0
C1264 C 0.29504 0.52964 0.61685 0.0
C1265 C 0.27656 0.54228 0.63633 0.0
C1266 C 0.2542 0.55922 0.62867 0.0
C1267 C 0.23673 0.57089 0.64715 0.0
C1268 C 0.24157 0.56594 0.67337 0.0
C1269 C 0.26395 0.54938 0.68117 0.0
C1270 C 0.28146 0.53764 0.66276 0.0
C1271 C 0.41651 0.56073 0.5758 0.0
C1272 C 0.43552 0.55751 0.59703 0.0
C1273 C 0.38696 0.55037 0.57665 0.0
C1274 C 0.37575 0.53637 0.59864 0.0
C1275 C 0.39452 0.53321 0.62 0.0
C1276 C 0.42426 0.5436 0.61917 0.0
C1277 C 0.34421 0.52562 0.59914 0.0
C1278 C 0.32584 0.53575 0.61793 0.0
C1279 C 0.33171 0.50777 0.57954 0.0
C1280 C 0.35034 0.49488 0.56025 0.0
C1281 C 0.3742 0.47994 0.56827 0.0
C1282 C 0.39192 0.46815 0.55005 0.0
C1283 C 0.38588 0.47101 0.52373 0.0
C1284 C 0.36207 0.48561 0.51558 0.0
C1285 C 0.34431 0.49746 0.53372 0.0
H1286 H 0.39962 0.46188 0.50966 0.0
H1287 H 0.22803 0.57499 0.68766 0.0
H1288 H 0.89425 0.87603 0.92042 0.0
H1289 H 0.91344 0.8369 0.94308 0.0
H1290 H 0.94762 0.8077 0.87175 0.0
H1291 H 0.92692 0.84607 0.84858 0.0
H1292 H 0.92581 0.76452 0.89655 0.0
H1293 H 0.99257 0.84151 0.92294 0.0
H1294 H 1.00741 0.88805 0.94081 0.0
H1295 H 0.96711 0.86408 1.01294 0.0
H1296 H 0.9517 0.81749 0.99539 0.0
H1297 H 1.01476 0.66564 0.95486 0.0
H1298 H 0.99702 0.7055 0.93197 0.0
H1299 H 0.96047 0.73411 1.00257 0.0
H1300 H 0.97902 0.6945 0.02579 0.0
H1301 H 0.98384 0.77754 0.9779 0.0
H1302 H 0.91713 0.69974 0.9503 0.0
H1303 H 0.90357 0.65335 0.93145 0.0
H1304 H 0.94576 0.6791 0.86065 0.0
H1305 H 0.95984 0.72555 0.87908 0.0
C1306 C 0.9056 0.86128 0.9093 0.0
C1307 C 0.90871 0.86467 0.88234 0.0
C1308 C 0.91707 0.83887 0.92252 0.0
C1309 C 0.93263 0.81911 0.90948 0.0
C1310 C 0.93591 0.82244 0.88258 0.0
C1311 C 0.92425 0.8448 0.86928 0.0
C1312 C 0.94483 0.79483 0.92373 0.0
C1313 C 0.93886 0.76757 0.91414 0.0
C1314 C 0.96146 0.79813 0.94713 0.0
C1315 C 0.97074 0.8261 0.95776 0.0
C1316 C 0.98669 0.84623 0.94255 0.0
C1317 C 0.99524 0.87261 0.95263 0.0
C1318 C 0.98814 0.87904 0.97797 0.0
C1319 C 0.97255 0.85908 0.99331 0.0
C1320 C 0.96394 0.83267 0.98331 0.0
C1321 C 1.00299 0.68037 0.96564 0.0
C1322 C 0.99838 0.67652 0.99235 0.0
C1323 C 0.99255 0.70324 0.95237 0.0
C1324 C 0.97665 0.72296 0.96516 0.0
C1325 C 0.97246 0.71941 0.99195 0.0
C1326 C 0.98312 0.69659 1.00531 0.0
C1327 C 0.96475 0.74725 0.95075 0.0
C1328 C 0.97077 0.77451 0.96032 0.0
C1329 C 0.94833 0.74396 0.92724 0.0
C1330 C 0.93977 0.71605 0.91616 0.0
C1331 C 0.92368 0.69546 0.93077 0.0
C1332 C 0.91588 0.66917 0.92016 0.0
C1333 C 0.92387 0.66327 0.89493 0.0
C1334 C 0.93961 0.68368 0.8802 0.0
C1335 C 0.94748 0.71 0.8907 0.0
H1336 H 0.91781 0.6429 0.88677 0.0
H1337 H 0.99477 0.89948 0.98574 0.0
H1338 H 0.45542 0.69864 0.18198 0.0
H1339 H 0.47756 0.74672 0.18369 0.0
H1340 H 0.46151 0.75544 0.10196 0.0
H1341 H 0.44051 0.70719 0.09995 0.0
H1342 H 0.51218 0.7838 0.1156 0.0
H1343 H 0.41123 0.77338 0.14701 0.0
H1344 H 0.37171 0.75443 0.17598 0.0
H1345 H 0.42084 0.78854 0.24151 0.0
H1346 H 0.46086 0.80738 0.21291 0.0
H1347 H 0.47353 0.91802 0.08802 0.0
H1348 H 0.4727 0.86824 0.09728 0.0
H1349 H 0.50657 0.88633 0.17405 0.0
H1350 H 0.50754 0.93652 0.16483 0.0
H1351 H 0.45656 0.845 0.1707 0.0
H1352 H 0.55277 0.86412 0.13558 0.0
H1353 H 0.58941 0.88415 0.10448 0.0
H1354 H 0.54677 0.83458 0.04387 0.0
H1355 H 0.50957 0.81457 0.07451 0.0
C1356 C 0.45744 0.71056 0.16425 0.0
C1357 C 0.44588 0.69932 0.14087 0.0
C1358 C 0.46987 0.73808 0.1653 0.0
C1359 C 0.47063 0.75479 0.14305 0.0
C1360 C 0.46102 0.74296 0.11939 0.0
C1361 C 0.44877 0.71548 0.1183 0.0
C1362 C 0.47859 0.7852 0.1445 0.0
C1363 C 0.50011 0.79719 0.1277 0.0
C1364 C 0.46327 0.80263 0.16072 0.0
C1365 C 0.43917 0.79146 0.17788 0.0
C1366 C 0.41369 0.77666 0.16762 0.0
C1367 C 0.39119 0.76596 0.18396 0.0
C1368 C 0.39381 0.7702 0.21058 0.0
C1369 C 0.41888 0.78521 0.2209 0.0
C1370 C 0.44147 0.7959 0.20463 0.0
C1371 C 0.48052 0.91142 0.10696 0.0
C1372 C 0.49046 0.93106 0.12577 0.0
C1373 C 0.4803 0.88302 0.11213 0.0
C1374 C 0.4899 0.87373 0.13622 0.0
C1375 C 0.49928 0.89321 0.15529 0.0
C1376 C 0.49985 0.92174 0.15001 0.0
C1377 C 0.48946 0.84352 0.14124 0.0
C1378 C 0.46929 0.83159 0.15918 0.0
C1379 C 0.50576 0.82618 0.12584 0.0
C1380 C 0.52827 0.83794 0.10735 0.0
C1381 C 0.55107 0.85762 0.11558 0.0
C1382 C 0.57196 0.86896 0.09804 0.0
C1383 C 0.5704 0.86067 0.07221 0.0
C1384 C 0.54796 0.84098 0.06389 0.0
C1385 C 0.52699 0.8296 0.08135 0.0
H1386 H 0.58659 0.86948 0.05866 0.0
H1387 H 0.37637 0.7619 0.22321 0.0
H1388 H 0.07188 0.45067 0.52447 0.0
H1389 H 0.05162 0.40777 0.5031 0.0
H1390 H 0.12943 0.36763 0.52632 0.0
H1391 H 0.15025 0.41059 0.54583 0.0
H1392 H 0.10716 0.34131 0.48738 0.0
H1393 H 0.05993 0.3766 0.56877 0.0
H1394 H 0.02943 0.40975 0.59038 0.0
H1395 H 0.96286 0.39707 0.53117 0.0
H1396 H 0.99274 0.36373 0.50933 0.0
H1397 H 0.08501 0.22465 0.56445 0.0
H1398 H 0.09275 0.27126 0.54593 0.0
H1399 H 1.00413 0.26359 0.51419 0.0
H1400 H 0.99642 0.21647 0.53195 0.0
H1401 H 0.01821 0.31345 0.53918 0.0
H1402 H 0.05684 0.2621 0.47291 0.0
H1403 H 0.08503 0.22675 0.45229 0.0
H1404 H 0.16636 0.26832 0.48062 0.0
H1405 H 0.13868 0.30365 0.50184 0.0
C1406 C 0.08517 0.43302 0.52375 0.0
C1407 C 0.1124 0.43372 0.53706 0.0
C1408 C 0.07346 0.4084 0.51185 0.0
C1409 C 0.08833 0.38402 0.51416 0.0
C1410 C 0.11724 0.38596 0.52445 0.0
C1411 C 0.12926 0.41066 0.53563 0.0
C1412 C 0.07272 0.35584 0.51088 0.0
C1413 C 0.08756 0.3352 0.49849 0.0
C1414 C 0.04621 0.34783 0.52425 0.0
C1415 C 0.02863 0.36802 0.53732 0.0
C1416 C 0.03881 0.38098 0.56038 0.0
C1417 C 0.02168 0.39977 0.57264 0.0
C1418 C 0.9944 0.40563 0.56207 0.0
C1419 C 0.98405 0.3926 0.53928 0.0
C1420 C 1.00102 0.37373 0.52698 0.0
C1421 C 0.06718 0.23278 0.55346 0.0
C1422 C 0.04012 0.21679 0.5497 0.0
C1423 C 0.07169 0.25935 0.54277 0.0
C1424 C 0.04922 0.27053 0.52821 0.0
C1425 C 0.02181 0.25514 0.52514 0.0
C1426 C 0.01735 0.22839 0.53564 0.0
C1427 C 0.05425 0.29904 0.51768 0.0
C1428 C 0.03721 0.31953 0.52727 0.0
C1429 C 0.07865 0.3068 0.50172 0.0
C1430 C 0.0956 0.28556 0.48905 0.0
C1431 C 0.08072 0.26362 0.47493 0.0
C1432 C 0.09662 0.24358 0.4631 0.0
C1433 C 0.12746 0.2453 0.46514 0.0
C1434 C 0.14246 0.26704 0.47903 0.0
C1435 C 0.12667 0.28712 0.49093 0.0
H1436 H 0.13974 0.22978 0.45595 0.0
H1437 H 0.98122 0.4202 0.57161 0.0
H1438 H 0.62057 0.34389 0.41855 0.0
H1439 H 0.6108 0.38789 0.43949 0.0
H1440 H 0.62312 0.35044 0.51405 0.0
H1441 H 0.63229 0.30651 0.49307 0.0
H1442 H 0.57457 0.37483 0.51516 0.0
H1443 H 0.67245 0.40515 0.48709 0.0
H1444 H 0.71287 0.41395 0.45594 0.0
H1445 H 0.66048 0.46838 0.41266 0.0
H1446 H 0.61958 0.45962 0.44337 0.0
H1447 H 0.56323 0.49691 0.59103 0.0
H1448 H 0.58159 0.4566 0.56953 0.0
H1449 H 0.56608 0.49378 0.49542 0.0
H1450 H 0.54801 0.53427 0.51682 0.0
H1451 H 0.61694 0.4702 0.49392 0.0
H1452 H 0.51892 0.43918 0.5207 0.0
H1453 H 0.478 0.43065 0.55139 0.0
H1454 H 0.53014 0.37743 0.59634 0.0
H1455 H 0.57154 0.38595 0.56607 0.0
C1456 C 0.62241 0.34543 0.43936 0.0
C1457 C 0.62808 0.32178 0.45405 0.0
C1458 C 0.61654 0.37064 0.45145 0.0
C1459 C 0.61618 0.37297 0.47861 0.0
C1460 C 0.6231 0.34959 0.49317 0.0
C1461 C 0.62885 0.32446 0.48112 0.0
C1462 C 0.6066 0.39872 0.49193 0.0
C1463 C 0.58431 0.39558 0.51071 0.0
C1464 C 0.61831 0.42623 0.4859 0.0
C1465 C 0.64284 0.43149 0.46739 0.0
C1466 C 0.66945 0.41881 0.47081 0.0
C1467 C 0.69247 0.42383 0.45326 0.0
C1468 C 0.68921 0.44165 0.43229 0.0
C1469 C 0.66295 0.45455 0.42888 0.0
C1470 C 0.63986 0.44958 0.44637 0.0
C1471 C 0.56361 0.49655 0.57014 0.0
C1472 C 0.55373 0.51898 0.5558 0.0
C1473 C 0.5741 0.47331 0.55777 0.0
C1474 C 0.57499 0.47159 0.53062 0.0
C1475 C 0.56569 0.49424 0.51631 0.0
C1476 C 0.55514 0.51746 0.52866 0.0
C1477 C 0.58514 0.44617 0.51721 0.0
C1478 C 0.60737 0.44938 0.4984 0.0
C1479 C 0.57332 0.41869 0.5231 0.0
C1480 C 0.54843 0.41342 0.54127 0.0
C1481 C 0.52174 0.42581 0.53723 0.0
C1482 C 0.49844 0.42096 0.55453 0.0
C1483 C 0.5015 0.40357 0.57584 0.0
C1484 C 0.52783 0.39093 0.57985 0.0
C1485 C 0.5512 0.39575 0.56261 0.0
H1486 H 0.48344 0.39984 0.58922 0.0
H1487 H 0.70706 0.44551 0.41873 0.0
loop_
_geom_bond_atom_site_label_1
_geom_bond_atom_site_label_2
_geom_bond_distance
_geom_bond_site_symmetry_2
_ccdc_geom_bond_type
H0 C1 0.949 . S
C1 H0 0.949 . S
C1 C2 1.395 . S
C1 C3 1.391 . S
C2 C1 1.395 . S
C2 C5 1.390 . S
C3 C1 1.391 . S
C3 C7 1.387 . S
C3 C8 1.491 . S
H4 C5 0.950 . S
C5 C2 1.390 . S
C5 H4 0.950 . S
C5 C6 1.378 . S
C6 C5 1.378 . S
C6 C7 1.409 . S
C7 C3 1.387 . S
C7 C6 1.409 . S
C7 H9 0.951 . S
C8 C3 1.491 . S
C8 C10 1.382 . S
C8 C12 1.404 . S
H9 C7 0.951 . S
C10 C8 1.382 . S
C10 C11 1.390 . S
C10 H15 0.949 . S
C11 C10 1.390 . S
C11 C16 1.399 . S
C12 C8 1.404 . S
C12 H13 0.950 . S
C12 C14 1.375 . S
H13 C12 0.950 . S
C14 C12 1.375 . S
C14 C16 1.382 . S
C14 H18 0.950 . S
H15 C10 0.949 . S
C16 C11 1.399 . S
C16 C14 1.382 . S
C16 H17 0.952 . S
H17 C16 0.952 . S
H18 C14 0.950 . S
H19 C20 0.949 . S
C20 H19 0.949 . S
C20 C21 1.395 . S
C20 C22 1.391 . S
C21 C20 1.395 . S
C21 C24 1.390 . S
C22 C20 1.391 . S
C22 C26 1.387 . S
C22 C27 1.491 . S
H23 C24 0.950 . S
C24 C21 1.390 . S
C24 H23 0.950 . S
C24 C25 1.378 . S
C25 C24 1.378 . S
C25 C26 1.409 . S
C26 C22 1.387 . S
C26 C25 1.409 . S
C26 H28 0.951 . S
C27 C22 1.491 . S
C27 C29 1.382 . S
C27 C31 1.404 . S
H28 C26 0.951 . S
C29 C27 1.382 . S
C29 C30 1.390 . S
C29 H34 0.949 . S
C30 C29 1.390 . S
C30 C35 1.399 . S
C31 C27 1.404 . S
C31 H32 0.950 . S
C31 C33 1.375 . S
H32 C31 0.950 . S
C33 C31 1.375 . S
C33 C35 1.382 . S
C33 H37 0.950 . S
H34 C29 0.949 . S
C35 C30 1.399 . S
C35 C33 1.382 . S
C35 H36 0.952 . S
H36 C35 0.952 . S
H37 C33 0.950 . S
H38 C39 0.949 . S
C39 H38 0.949 . S
C39 C40 1.395 . S
C39 C41 1.391 . S
C40 C39 1.395 . S
C40 C43 1.390 . S
C41 C39 1.391 . S
C41 C45 1.387 . S
C41 C46 1.491 . S
H42 C43 0.950 . S
C43 C40 1.390 . S
C43 H42 0.950 . S
C43 C44 1.378 . S
C44 C43 1.378 . S
C44 C45 1.409 . S
C45 C41 1.387 . S
C45 C44 1.409 . S
C45 H47 0.951 . S
C46 C41 1.491 . S
C46 C48 1.382 . S
C46 C50 1.404 . S
H47 C45 0.951 . S
C48 C46 1.382 . S
C48 C49 1.390 . S
C48 H53 0.949 . S
C49 C48 1.390 . S
C49 C54 1.399 . S
C50 C46 1.404 . S
C50 H51 0.950 . S
C50 C52 1.375 . S
H51 C50 0.950 . S
C52 C50 1.375 . S
C52 C54 1.382 . S
C52 H56 0.950 . S
H53 C48 0.949 . S
C54 C49 1.399 . S
C54 C52 1.382 . S
C54 H55 0.952 . S
H55 C54 0.952 . S
H56 C52 0.950 . S
H57 C58 0.949 . S
C58 H57 0.949 . S
C58 C59 1.395 . S
C58 C60 1.391 . S
C59 C58 1.395 . S
C59 C62 1.390 . S
C60 C58 1.391 . S
C60 C64 1.387 . S
C60 C65 1.491 . S
H61 C62 0.950 . S
C62 C59 1.390 . S
C62 H61 0.950 . S
C62 C63 1.378 . S
C63 C62 1.378 . S
C63 C64 1.409 . S
C64 C60 1.387 . S
C64 C63 1.409 . S
C64 H66 0.951 . S
C65 C60 1.491 . S
C65 C67 1.382 . S
C65 C69 1.404 . S
H66 C64 0.951 . S
C67 C65 1.382 . S
C67 C68 1.390 . S
C67 H72 0.949 . S
C68 C67 1.390 . S
C68 C73 1.399 . S
C69 C65 1.404 . S
C69 H70 0.950 . S
C69 C71 1.375 . S
H70 C69 0.950 . S
C71 C69 1.375 . S
C71 C73 1.382 . S
C71 H75 0.950 . S
H72 C67 0.949 . S
C73 C68 1.399 . S
C73 C71 1.382 . S
C73 H74 0.952 . S
H74 C73 0.952 . S
H75 C71 0.950 . S
H76 C77 0.949 . S
C77 H76 0.949 . S
C77 C78 1.395 . S
C77 C79 1.391 . S
C78 C77 1.395 . S
C78 C81 1.390 . S
C79 C77 1.391 . S
C79 C83 1.387 . S
C79 C84 1.491 . S
H80 C81 0.950 . S
C81 C78 1.390 . S
C81 H80 0.950 . S
C81 C82 1.378 . S
C82 C81 1.378 . S
C82 C83 1.409 . S
C83 C79 1.387 . S
C83 C82 1.409 . S
C83 H85 0.951 . S
C84 C79 1.491 . S
C84 C86 1.382 . S
C84 C88 1.404 . S
H85 C83 0.951 . S
C86 C84 1.382 . S
C86 C87 1.390 . S
C86 H91 0.949 . S
C87 C86 1.390 . S
C87 C92 1.399 . S
C88 C84 1.404 . S
C88 H89 0.950 . S
C88 C90 1.375 . S
H89 C88 0.950 . S
C90 C88 1.375 . S
C90 C92 1.382 . S
C90 H94 0.950 . S
H91 C86 0.949 . S
C92 C87 1.399 . S
C92 C90 1.382 . S
C92 H93 0.952 . S
H93 C92 0.952 . S
H94 C90 0.950 . S
H95 C96 0.949 . S
C96 H95 0.949 . S
C96 C97 1.395 . S
C96 C98 1.391 . S
C97 C96 1.395 . S
C97 C100 1.390 . S
C98 C96 1.391 . S
C98 C102 1.387 . S
C98 C103 1.491 . S
H99 C100 0.950 . S
C100 C97 1.390 . S
C100 H99 0.950 . S
C100 C101 1.378 . S
C101 C100 1.378 . S
C101 C102 1.409 . S
C102 C98 1.387 . S
C102 C101 1.409 . S
C102 H104 0.951 . S
C103 C98 1.491 . S
C103 C105 1.382 . S
C103 C107 1.404 . S
H104 C102 0.951 . S
C105 C103 1.382 . S
C105 C106 1.390 . S
C105 H110 0.949 . S
C106 C105 1.390 . S
C106 C111 1.399 . S
C107 C103 1.404 . S
C107 H108 0.950 . S
C107 C109 1.375 . S
H108 C107 0.950 . S
C109 C107 1.375 . S
C109 C111 1.382 . S
C109 H113 0.950 . S
H110 C105 0.949 . S
C111 C106 1.399 . S
C111 C109 1.382 . S
C111 H112 0.952 . S
H112 C111 0.952 . S
H113 C109 0.950 . S
H114 C115 0.949 . S
C115 H114 0.949 . S
C115 C116 1.395 . S
C115 C117 1.391 . S
C116 C115 1.395 . S
C116 C119 1.390 . S
C117 C115 1.391 . S
C117 C121 1.387 . S
C117 C122 1.491 . S
H118 C119 0.950 . S
C119 C116 1.390 . S
C119 H118 0.950 . S
C119 C120 1.378 . S
C120 C119 1.378 . S
C120 C121 1.409 . S
C121 C117 1.387 . S
C121 C120 1.409 . S
C121 H123 0.951 . S
C122 C117 1.491 . S
C122 C124 1.382 . S
C122 C126 1.404 . S
H123 C121 0.951 . S
C124 C122 1.382 . S
C124 C125 1.390 . S
C124 H129 0.949 . S
C125 C124 1.390 . S
C125 C130 1.399 . S
C126 C122 1.404 . S
C126 H127 0.950 . S
C126 C128 1.375 . S
H127 C126 0.950 . S
C128 C126 1.375 . S
C128 C130 1.382 . S
C128 H132 0.950 . S
H129 C124 0.949 . S
C130 C125 1.399 . S
C130 C128 1.382 . S
C130 H131 0.952 . S
H131 C130 0.952 . S
H132 C128 0.950 . S
H133 C134 0.949 . S
C134 H133 0.949 . S
C134 C135 1.395 . S
C134 C136 1.391 . S
C135 C134 1.395 . S
C135 C138 1.390 . S
C136 C134 1.391 . S
C136 C140 1.387 . S
C136 C141 1.491 . S
H137 C138 0.950 . S
C138 C135 1.390 . S
C138 H137 0.950 . S
C138 C139 1.378 . S
C139 C138 1.378 . S
C139 C140 1.409 . S
C140 C136 1.387 . S
C140 C139 1.409 . S
C140 H142 0.951 . S
C141 C136 1.491 . S
C141 C143 1.382 . S
C141 C145 1.404 . S
H142 C140 0.951 . S
C143 C141 1.382 . S
C143 C144 1.390 . S
C143 H148 0.949 . S
C144 C143 1.390 . S
C144 C149 1.399 . S
C145 C141 1.404 . S
C145 H146 0.950 . S
C145 C147 1.375 . S
H146 C145 0.950 . S
C147 C145 1.375 . S
C147 C149 1.382 . S
C147 H151 0.950 . S
H148 C143 0.949 . S
C149 C144 1.399 . S
C149 C147 1.382 . S
C149 H150 0.952 . S
H150 C149 0.952 . S
H151 C147 0.950 . S
C152 O168 1.251 . S
C152 O170 1.254 . S
N153 C154 1.333 . S
N153 C158 1.307 . S
N153 Zn159 2.020 . S
C154 N153 1.333 . S
C154 C155 1.379 . S
C154 H172 0.952 . S
C155 C154 1.379 . S
C155 C156 1.390 . S
C155 H182 0.949 . S
C156 C155 1.390 . S
C156 C157 1.357 . S
C157 C156 1.357 . S
C157 C158 1.370 . S
C157 H183 0.950 . S
C158 N153 1.307 . S
C158 C157 1.370 . S
C158 H176 0.942 1_455 S
Zn159 N153 2.020 . S
Zn159 O168 2.039 . S
Zn159 O174 2.034 . S
Zn159 O178 2.025 1_455 S
Zn159 O180 2.024 1_455 S
C160 O179 1.246 . S
C160 O180 1.249 . S
N161 C162 1.307 . S
N161 C163 1.333 . S
N161 Zn167 2.020 1_565 S
C162 N161 1.307 . S
C162 C166 1.370 . S
C162 H173 0.948 1_655 S
C163 N161 1.333 . S
C163 C164 1.379 . S
C163 H171 0.952 . S
C164 C163 1.379 . S
C164 C165 1.390 . S
C164 H184 0.949 . S
C165 C164 1.390 . S
C165 C166 1.357 . S
C166 C162 1.370 . S
C166 C165 1.357 . S
C166 H185 0.950 . S
Zn167 N161 2.020 1_545 S
Zn167 O170 2.025 1_655 S
Zn167 O175 2.024 1_655 S
Zn167 O177 2.039 . S
Zn167 O179 2.034 . S
O168 C152 1.251 . S
O168 Zn159 2.039 . S
C169 O174 1.246 . S
C169 O175 1.249 . S
O170 C152 1.254 . S
O170 Zn167 2.025 1_455 S
H171 C163 0.952 . S
H172 C154 0.952 . S
H173 C162 0.948 1_455 S
O174 Zn159 2.034 . S
O174 C169 1.246 . S
O175 Zn167 2.024 1_455 S
O175 C169 1.249 . S
H176 C158 0.942 1_655 S
O177 Zn167 2.039 . S
O177 C181 1.251 . S
O178 Zn159 2.025 1_655 S
O178 C181 1.254 . S
O179 C160 1.246 . S
O179 Zn167 2.034 . S
O180 Zn159 2.024 1_655 S
O180 C160 1.249 . S
C181 O177 1.251 . S
C181 O178 1.254 . S
H182 C155 0.949 . S
H183 C157 0.950 . S
H184 C164 0.949 . S
H185 C166 0.950 . S
C186 O202 1.251 . S
C186 O204 1.254 . S
N187 C188 1.333 . S
N187 C192 1.307 . S
N187 Zn193 2.020 . S
C188 N187 1.333 . S
C188 C189 1.379 . S
C188 H206 0.952 . S
C189 C188 1.379 . S
C189 C190 1.390 . S
C189 H216 0.949 . S
C190 C189 1.390 . S
C190 C191 1.357 . S
C191 C190 1.357 . S
C191 C192 1.370 . S
C191 H217 0.950 . S
C192 N187 1.307 . S
C192 C191 1.370 . S
C192 H210 0.948 . S
Zn193 N187 2.020 . S
Zn193 O202 2.039 . S
Zn193 O208 2.034 . S
Zn193 O212 2.025 . S
Zn193 O214 2.024 . S
C194 O213 1.246 . S
C194 O214 1.249 . S
N195 C196 1.307 . S
N195 C197 1.333 . S
N195 Zn201 2.020 1_565 S
C196 N195 1.307 . S
C196 C200 1.370 . S
C196 H207 0.948 . S
C197 N195 1.333 . S
C197 C198 1.379 . S
C197 H205 0.952 . S
C198 C197 1.379 . S
C198 C199 1.390 . S
C198 H218 0.949 . S
C199 C198 1.390 . S
C199 C200 1.357 . S
C200 C196 1.370 . S
C200 C199 1.357 . S
C200 H219 0.950 . S
Zn201 N195 2.020 1_545 S
Zn201 O204 2.025 . S
Zn201 O209 2.024 . S
Zn201 O211 2.039 . S
Zn201 O213 2.034 . S
O202 C186 1.251 . S
O202 Zn193 2.039 . S
C203 O208 1.246 . S
C203 O209 1.249 . S
O204 C186 1.254 . S
O204 Zn201 2.025 . S
H205 C197 0.952 . S
H206 C188 0.952 . S
H207 C196 0.948 . S
O208 Zn193 2.034 . S
O208 C203 1.246 . S
O209 Zn201 2.024 . S
O209 C203 1.249 . S
H210 C192 0.948 . S
O211 Zn201 2.039 . S
O211 C215 1.251 . S
O212 Zn193 2.025 . S
O212 C215 1.254 . S
O213 C194 1.246 . S
O213 Zn201 2.034 . S
O214 Zn193 2.024 . S
O214 C194 1.249 . S
C215 O211 1.251 . S
C215 O212 1.254 . S
H216 C189 0.949 . S
H217 C191 0.950 . S
H218 C198 0.949 . S
H219 C200 0.950 . S
C220 O236 1.251 . S
C220 O238 1.254 . S
N221 C222 1.333 . S
N221 C226 1.307 . S
N221 Zn227 2.020 . S
C222 N221 1.333 . S
C222 C223 1.379 . S
C222 H240 0.952 . S
C223 C222 1.379 . S
C223 C224 1.390 . S
C223 H250 0.949 . S
C224 C223 1.390 . S
C224 C225 1.357 . S
C225 C224 1.357 . S
C225 C226 1.370 . S
C225 H251 0.950 . S
C226 N221 1.307 . S
C226 C225 1.370 . S
C226 H244 0.948 . S
Zn227 N221 2.020 . S
Zn227 O236 2.039 . S
Zn227 O242 2.034 . S
Zn227 O246 2.025 . S
Zn227 O248 2.024 . S
C228 O247 1.246 . S
C228 O248 1.249 . S
N229 C230 1.307 . S
N229 C231 1.333 . S
N229 Zn235 2.020 . S
C230 N229 1.307 . S
C230 C234 1.370 . S
C230 H241 0.948 . S
C231 N229 1.333 . S
C231 C232 1.379 . S
C231 H239 0.952 . S
C232 C231 1.379 . S
C232 C233 1.390 . S
C232 H252 0.949 . S
C233 C232 1.390 . S
C233 C234 1.357 . S
C234 C230 1.370 . S
C234 C233 1.357 . S
C234 H253 0.950 . S
Zn235 N229 2.020 . S
Zn235 O238 2.025 . S
Zn235 O243 2.024 . S
Zn235 O245 2.039 . S
Zn235 O247 2.034 . S
O236 C220 1.251 . S
O236 Zn227 2.039 . S
C237 O242 1.246 . S
C237 O243 1.249 . S
O238 C220 1.254 . S
O238 Zn235 2.025 . S
H239 C231 0.952 . S
H240 C222 0.952 . S
H241 C230 0.948 . S
O242 Zn227 2.034 . S
O242 C237 1.246 . S
O243 Zn235 2.024 . S
O243 C237 1.249 . S
H244 C226 0.948 . S
O245 Zn235 2.039 . S
O245 C249 1.251 . S
O246 Zn227 2.025 . S
O246 C249 1.254 . S
O247 C228 1.246 . S
O247 Zn235 2.034 . S
O248 Zn227 2.024 . S
O248 C228 1.249 . S
C249 O245 1.251 . S
C249 O246 1.254 . S
H250 C223 0.949 . S
H251 C225 0.950 . S
H252 C232 0.949 . S
H253 C234 0.950 . S
C254 O270 1.251 . S
C254 O272 1.254 1_654 S
N255 C256 1.333 . S
N255 C260 1.307 . S
N255 Zn261 2.020 . S
C256 N255 1.333 . S
C256 C257 1.379 . S
C256 H274 0.952 . S
C257 C256 1.379 . S
C257 C258 1.390 . S
C257 H284 0.949 . S
C258 C257 1.390 . S
C258 C259 1.357 . S
C259 C258 1.357 . S
C259 C260 1.370 . S
C259 H285 0.950 . S
C260 N255 1.307 . S
C260 C259 1.370 . S
C260 H278 0.948 . S
Zn261 N255 2.020 . S
Zn261 O270 2.039 . S
Zn261 O276 2.034 1_655 S
Zn261 O280 2.025 1_655 S
Zn261 O282 2.024 . S
C262 O281 1.240 1_554 S
C262 O282 1.258 . S
N263 C264 1.307 . S
N263 C265 1.333 . S
N263 Zn269 2.020 . S
C264 N263 1.307 . S
C264 C268 1.370 . S
C264 H275 0.948 . S
C265 N263 1.333 . S
C265 C266 1.379 . S
C265 H273 0.952 . S
C266 C265 1.379 . S
C266 C267 1.390 . S
C266 H286 0.949 . S
C267 C266 1.390 . S
C267 C268 1.357 . S
C268 C264 1.370 . S
C268 C267 1.357 . S
C268 H287 0.950 . S
Zn269 N263 2.020 . S
Zn269 O272 2.025 . S
Zn269 O277 2.024 1_556 S
Zn269 O279 2.039 1_556 S
Zn269 O281 2.034 1_455 S
O270 C254 1.251 . S
O270 Zn261 2.039 . S
C271 O276 1.246 . S
C271 O277 1.249 . S
O272 C254 1.254 1_456 S
O272 Zn269 2.025 . S
H273 C265 0.952 . S
H274 C256 0.952 . S
H275 C264 0.948 . S
O276 Zn261 2.034 1_455 S
O276 C271 1.246 . S
O277 Zn269 2.024 1_554 S
O277 C271 1.249 . S
H278 C260 0.948 . S
O279 Zn269 2.039 1_554 S
O279 C283 1.251 . S
O280 Zn261 2.025 1_455 S
O280 C283 1.254 . S
O281 C262 1.240 1_556 S
O281 Zn269 2.034 1_655 S
O282 Zn261 2.024 . S
O282 C262 1.258 . S
C283 O279 1.251 . S
C283 O280 1.254 . S
H284 C257 0.949 . S
H285 C259 0.950 . S
H286 C266 0.949 . S
H287 C268 0.950 . S
H288 C306 0.951 . S
H289 C308 0.951 . S
H290 C310 0.950 . S
H291 C311 0.950 . S
H292 C313 0.950 . S
H293 C316 0.950 . S
H294 C317 0.950 . S
H295 C319 0.950 . S
H296 C320 0.950 . S
H297 C321 0.951 . S
H298 C323 0.951 . S
H299 C325 0.950 . S
H300 C326 0.950 . S
H301 C328 0.950 . S
H302 C331 0.950 . S
H303 C332 0.950 . S
H304 C334 0.950 . S
H305 C335 0.950 . S
C306 H288 0.951 . S
C306 C307 1.366 . S
C306 C308 1.388 . S
C307 C306 1.366 . S
C307 C311 1.385 . S
C308 H289 0.951 . S
C308 C306 1.388 . S
C308 C309 1.366 . S
C309 C308 1.366 . S
C309 C310 1.414 . S
C309 C312 1.499 . S
C310 H290 0.950 . S
C310 C309 1.414 . S
C310 C311 1.374 . S
C311 H291 0.950 . S
C311 C307 1.385 . S
C311 C310 1.374 . S
C312 C309 1.499 . S
C312 C313 1.373 . S
C312 C314 1.389 . S
C313 H292 0.950 . S
C313 C312 1.373 . S
C313 C329 1.377 . S
C314 C312 1.389 . S
C314 C315 1.524 . S
C314 C328 1.377 . S
C315 C314 1.524 . S
C315 C316 1.397 . S
C315 C320 1.363 . S
C316 H293 0.950 . S
C316 C315 1.397 . S
C316 C317 1.334 . S
C317 H294 0.950 . S
C317 C316 1.334 . S
C317 C318 1.287 . S
C318 C317 1.287 . S
C318 C319 1.524 . S
C318 H337 0.913 . S
C319 H295 0.950 . S
C319 C318 1.524 . S
C319 C320 1.415 . S
C320 H296 0.950 . S
C320 C315 1.363 . S
C320 C319 1.415 . S
C321 H297 0.951 . S
C321 C322 1.366 . S
C321 C323 1.388 . S
C322 C321 1.366 . S
C322 C326 1.385 . S
C323 H298 0.951 . S
C323 C321 1.388 . S
C323 C324 1.366 . S
C324 C323 1.366 . S
C324 C325 1.414 . S
C324 C327 1.499 . S
C325 H299 0.950 . S
C325 C324 1.414 . S
C325 C326 1.374 . S
C326 H300 0.950 . S
C326 C322 1.385 . S
C326 C325 1.374 . S
C327 C324 1.499 . S
C327 C328 1.373 . S
C327 C329 1.389 . S
C328 H301 0.950 . S
C328 C314 1.377 . S
C328 C327 1.373 . S
C329 C313 1.377 . S
C329 C327 1.389 . S
C329 C330 1.524 . S
C330 C329 1.524 . S
C330 C331 1.397 1_455 S
C330 C335 1.363 . S
C331 H302 0.950 . S
C331 C330 1.397 1_655 S
C331 C332 1.334 . S
C332 H303 0.950 . S
C332 C331 1.334 . S
C332 C333 1.287 . S
C333 C332 1.287 . S
C333 C334 1.524 . S
C333 H336 0.999 . S
C334 H304 0.950 . S
C334 C333 1.524 . S
C334 C335 1.415 1_655 S
C335 H305 0.950 . S
C335 C330 1.363 . S
C335 C334 1.415 1_455 S
H336 C333 0.999 . S
H337 C318 0.913 . S
H338 C356 0.951 . S
H339 C358 0.951 . S
H340 C360 0.950 . S
H341 C361 0.950 . S
H342 C363 0.950 . S
H343 C366 0.950 . S
H344 C367 0.950 . S
H345 C369 0.950 . S
H346 C370 0.950 . S
H347 C371 0.951 . S
H348 C373 0.951 . S
H349 C375 0.950 1_565 S
H350 C376 0.950 . S
H351 C378 0.950 . S
H352 C381 0.950 . S
H353 C382 0.950 . S
H354 C384 0.950 . S
H355 C385 0.950 . S
C356 H338 0.951 . S
C356 C357 1.366 . S
C356 C358 1.388 . S
C357 C356 1.366 . S
C357 C361 1.385 . S
C358 H339 0.951 . S
C358 C356 1.388 . S
C358 C359 1.366 . S
C359 C358 1.366 . S
C359 C360 1.414 . S
C359 C362 1.499 . S
C360 H340 0.950 . S
C360 C359 1.414 . S
C360 C361 1.374 . S
C361 H341 0.950 . S
C361 C357 1.385 . S
C361 C360 1.374 . S
C362 C359 1.499 . S
C362 C363 1.373 1_565 S
C362 C364 1.389 . S
C363 H342 0.950 . S
C363 C362 1.373 1_545 S
C363 C379 1.377 . S
C364 C362 1.389 . S
C364 C365 1.524 . S
C364 C378 1.377 . S
C365 C364 1.524 . S
C365 C366 1.397 . S
C365 C370 1.363 . S
C366 H343 0.950 . S
C366 C365 1.397 . S
C366 C367 1.334 . S
C367 H344 0.950 . S
C367 C366 1.334 . S
C367 C368 1.287 . S
C368 C367 1.287 . S
C368 C369 1.524 . S
C368 H387 0.913 . S
C369 H345 0.950 . S
C369 C368 1.524 . S
C369 C370 1.415 . S
C370 H346 0.950 . S
C370 C365 1.363 . S
C370 C369 1.415 . S
C371 H347 0.951 . S
C371 C372 1.366 . S
C371 C373 1.388 . S
C372 C371 1.366 . S
C372 C376 1.385 . S
C373 H348 0.951 . S
C373 C371 1.388 . S
C373 C374 1.366 . S
C374 C373 1.366 . S
C374 C375 1.414 . S
C374 C377 1.498 1_545 S
C375 H349 0.950 1_545 S
C375 C374 1.414 . S
C375 C376 1.374 . S
C376 H350 0.950 . S
C376 C372 1.385 . S
C376 C375 1.374 . S
C377 C374 1.498 1_565 S
C377 C378 1.377 . S
C377 C379 1.387 1_565 S
C378 H351 0.950 . S
C378 C364 1.377 . S
C378 C377 1.377 . S
C379 C363 1.377 . S
C379 C377 1.387 1_545 S
C379 C380 1.524 . S
C380 C379 1.524 . S
C380 C381 1.397 . S
C380 C385 1.363 . S
C381 H352 0.950 . S
C381 C380 1.397 . S
C381 C382 1.334 . S
C382 H353 0.950 . S
C382 C381 1.334 . S
C382 C383 1.287 . S
C383 C382 1.287 . S
C383 C384 1.524 . S
C383 H386 0.999 . S
C384 H354 0.950 . S
C384 C383 1.524 . S
C384 C385 1.415 . S
C385 H355 0.950 . S
C385 C380 1.363 . S
C385 C384 1.415 . S
H386 C383 0.999 . S
H387 C368 0.913 . S
H388 C406 0.951 . S
H389 C408 0.951 . S
H390 C410 0.950 . S
H391 C411 0.950 . S
H392 C413 0.950 . S
H393 C416 0.950 . S
H394 C417 0.950 . S
H395 C419 0.950 . S
H396 C420 0.950 . S
H397 C421 0.951 . S
H398 C423 0.951 . S
H399 C425 0.950 . S
H400 C426 0.950 . S
H401 C428 0.950 . S
H402 C431 0.950 . S
H403 C432 0.950 . S
H404 C434 0.950 . S
H405 C435 0.950 . S
C406 H388 0.951 . S
C406 C407 1.366 . S
C406 C408 1.388 . S
C407 C406 1.366 . S
C407 C411 1.385 . S
C408 H389 0.951 . S
C408 C406 1.388 . S
C408 C409 1.366 . S
C409 C408 1.366 . S
C409 C410 1.414 . S
C409 C412 1.499 . S
C410 H390 0.950 . S
C410 C409 1.414 . S
C410 C411 1.374 . S
C411 H391 0.950 . S
C411 C407 1.385 . S
C411 C410 1.374 . S
C412 C409 1.499 . S
C412 C413 1.373 . S
C412 C414 1.389 . S
C413 H392 0.950 . S
C413 C412 1.373 . S
C413 C429 1.377 . S
C414 C412 1.389 . S
C414 C415 1.524 . S
C414 C428 1.377 . S
C415 C414 1.524 . S
C415 C416 1.397 . S
C415 C420 1.363 . S
C416 H393 0.950 . S
C416 C415 1.397 . S
C416 C417 1.334 . S
C417 H394 0.950 . S
C417 C416 1.334 . S
C417 C418 1.287 . S
C418 C417 1.287 . S
C418 C419 1.524 . S
C418 H437 0.913 . S
C419 H395 0.950 . S
C419 C418 1.524 . S
C419 C420 1.415 . S
C420 H396 0.950 . S
C420 C415 1.363 . S
C420 C419 1.415 . S
C421 H397 0.951 . S
C421 C422 1.366 . S
C421 C423 1.388 . S
C422 C421 1.366 . S
C422 C426 1.385 . S
C423 H398 0.951 . S
C423 C421 1.388 . S
C423 C424 1.366 . S
C424 C423 1.366 . S
C424 C425 1.414 . S
C424 C427 1.499 . S
C425 H399 0.950 . S
C425 C424 1.414 . S
C425 C426 1.374 . S
C426 H400 0.950 . S
C426 C422 1.385 . S
C426 C425 1.374 . S
C427 C424 1.499 . S
C427 C428 1.373 . S
C427 C429 1.389 . S
C428 H401 0.950 . S
C428 C414 1.377 . S
C428 C427 1.373 . S
C429 C413 1.377 . S
C429 C427 1.389 . S
C429 C430 1.524 . S
C430 C429 1.524 . S
C430 C431 1.397 . S
C430 C435 1.363 . S
C431 H402 0.950 . S
C431 C430 1.397 . S
C431 C432 1.334 . S
C432 H403 0.950 . S
C432 C431 1.334 . S
C432 C433 1.287 . S
C433 C432 1.287 . S
C433 C434 1.524 . S
C433 H436 0.999 . S
C434 H404 0.950 . S
C434 C433 1.524 . S
C434 C435 1.415 . S
C435 H405 0.950 . S
C435 C430 1.363 . S
C435 C434 1.415 . S
H436 C433 0.999 . S
H437 C418 0.913 . S
H438 C456 0.951 . S
H439 C458 0.951 . S
H440 C460 0.950 . S
H441 C461 0.950 . S
H442 C463 0.950 . S
H443 C466 0.950 . S
H444 C467 0.950 . S
H445 C469 0.950 . S
H446 C470 0.950 . S
H447 C471 0.951 . S
H448 C473 0.951 . S
H449 C475 0.950 . S
H450 C476 0.950 . S
H451 C478 0.950 . S
H452 C481 0.950 . S
H453 C482 0.950 . S
H454 C484 0.950 . S
H455 C485 0.950 . S
C456 H438 0.951 . S
C456 C457 1.366 . S
C456 C458 1.388 . S
C457 C456 1.366 . S
C457 C461 1.385 . S
C458 H439 0.951 . S
C458 C456 1.388 . S
C458 C459 1.366 . S
C459 C458 1.366 . S
C459 C460 1.414 . S
C459 C462 1.499 . S
C460 H440 0.950 . S
C460 C459 1.414 . S
C460 C461 1.374 . S
C461 H441 0.950 . S
C461 C457 1.385 . S
C461 C460 1.374 . S
C462 C459 1.499 . S
C462 C463 1.373 . S
C462 C464 1.389 . S
C463 H442 0.950 . S
C463 C462 1.373 . S
C463 C479 1.377 . S
C464 C462 1.389 . S
C464 C465 1.524 . S
C464 C478 1.377 . S
C465 C464 1.524 . S
C465 C466 1.397 . S
C465 C470 1.363 . S
C466 H443 0.950 . S
C466 C465 1.397 . S
C466 C467 1.334 1_655 S
C467 H444 0.950 . S
C467 C466 1.334 1_455 S
C467 C468 1.287 . S
C468 C467 1.287 . S
C468 C469 1.524 . S
C468 H487 0.913 . S
C469 H445 0.950 . S
C469 C468 1.524 . S
C469 C470 1.415 1_455 S
C470 H446 0.950 . S
C470 C465 1.363 . S
C470 C469 1.415 1_655 S
C471 H447 0.951 . S
C471 C472 1.366 . S
C471 C473 1.388 . S
C472 C471 1.366 . S
C472 C476 1.385 . S
C473 H448 0.951 . S
C473 C471 1.388 . S
C473 C474 1.366 . S
C474 C473 1.366 . S
C474 C475 1.414 . S
C474 C477 1.499 . S
C475 H449 0.950 . S
C475 C474 1.414 . S
C475 C476 1.374 . S
C476 H450 0.950 . S
C476 C472 1.385 . S
C476 C475 1.374 . S
C477 C474 1.499 . S
C477 C478 1.373 . S
C477 C479 1.389 . S
C478 H451 0.950 . S
C478 C464 1.377 . S
C478 C477 1.373 . S
C479 C463 1.377 . S
C479 C477 1.389 . S
C479 C480 1.524 . S
C480 C479 1.524 . S
C480 C481 1.397 . S
C480 C485 1.363 . S
C481 H452 0.950 . S
C481 C480 1.397 . S
C481 C482 1.334 . S
C482 H453 0.950 . S
C482 C481 1.334 . S
C482 C483 1.287 . S
C483 C482 1.287 . S
C483 C484 1.524 . S
C483 H486 0.999 . S
C484 H454 0.950 . S
C484 C483 1.524 . S
C484 C485 1.415 . S
C485 H455 0.950 . S
C485 C480 1.363 . S
C485 C484 1.415 . S
H486 C483 0.999 . S
H487 C468 0.913 . S
H488 C506 0.951 . S
H489 C508 0.951 . S
H490 C510 0.950 . S
H491 C511 0.950 . S
H492 C513 0.950 . S
H493 C516 0.950 . S
H494 C517 0.950 . S
H495 C519 0.950 . S
H496 C520 0.950 . S
H497 C521 0.951 . S
H498 C523 0.951 . S
H499 C525 0.950 . S
H500 C526 0.950 . S
H501 C528 0.950 . S
H502 C531 0.950 . S
H503 C532 0.950 . S
H504 C534 0.950 . S
H505 C535 0.950 . S
C506 H488 0.951 . S
C506 C507 1.366 . S
C506 C508 1.388 . S
C507 C506 1.366 . S
C507 C511 1.385 . S
C508 H489 0.951 . S
C508 C506 1.388 . S
C508 C509 1.366 . S
C509 C508 1.366 . S
C509 C510 1.414 . S
C509 C512 1.499 . S
C510 H490 0.950 . S
C510 C509 1.414 . S
C510 C511 1.374 . S
C511 H491 0.950 . S
C511 C507 1.385 . S
C511 C510 1.374 . S
C512 C509 1.499 . S
C512 C513 1.373 . S
C512 C514 1.389 . S
C513 H492 0.950 . S
C513 C512 1.373 . S
C513 C529 1.377 . S
C514 C512 1.389 . S
C514 C515 1.524 . S
C514 C528 1.377 . S
C515 C514 1.524 . S
C515 C516 1.397 . S
C515 C520 1.363 . S
C516 H493 0.950 . S
C516 C515 1.397 . S
C516 C517 1.334 . S
C517 H494 0.950 . S
C517 C516 1.334 . S
C517 C518 1.287 . S
C518 C517 1.287 . S
C518 C519 1.524 . S
C518 H537 0.913 . S
C519 H495 0.950 . S
C519 C518 1.524 . S
C519 C520 1.415 . S
C520 H496 0.950 . S
C520 C515 1.363 . S
C520 C519 1.415 . S
C521 H497 0.951 . S
C521 C522 1.366 . S
C521 C523 1.388 . S
C522 C521 1.366 . S
C522 C526 1.385 . S
C523 H498 0.951 . S
C523 C521 1.388 . S
C523 C524 1.366 . S
C524 C523 1.366 . S
C524 C525 1.414 . S
C524 C527 1.499 . S
C525 H499 0.950 . S
C525 C524 1.414 . S
C525 C526 1.374 . S
C526 H500 0.950 . S
C526 C522 1.385 . S
C526 C525 1.374 . S
C527 C524 1.499 . S
C527 C528 1.373 . S
C527 C529 1.389 . S
C528 H501 0.950 . S
C528 C514 1.377 . S
C528 C527 1.373 . S
C529 C513 1.377 . S
C529 C527 1.389 . S
C529 C530 1.524 . S
C530 C529 1.524 . S
C530 C531 1.397 . S
C530 C535 1.363 . S
C531 H502 0.950 . S
C531 C530 1.397 . S
C531 C532 1.334 . S
C532 H503 0.950 . S
C532 C531 1.334 . S
C532 C533 1.287 . S
C533 C532 1.287 . S
C533 C534 1.524 . S
C533 H536 0.999 . S
C534 H504 0.950 . S
C534 C533 1.524 . S
C534 C535 1.415 . S
C535 H505 0.950 . S
C535 C530 1.363 . S
C535 C534 1.415 . S
H536 C533 0.999 . S
H537 C518 0.913 . S
H538 C556 0.951 . S
H539 C558 0.945 1_545 S
H540 C560 0.950 . S
H541 C561 0.950 . S
H542 C563 0.950 . S
H543 C566 0.950 . S
H544 C567 0.950 . S
H545 C569 0.950 . S
H546 C570 0.950 . S
H547 C571 0.951 . S
H548 C573 0.951 . S
H549 C575 0.950 . S
H550 C576 0.950 . S
H551 C578 0.950 . S
H552 C581 0.950 . S
H553 C582 0.950 . S
H554 C584 0.950 . S
H555 C585 0.950 . S
C556 H538 0.951 . S
C556 C557 1.366 . S
C556 C558 1.399 . S
C557 C556 1.366 . S
C557 C561 1.385 . S
C558 H539 0.945 1_565 S
C558 C556 1.399 . S
C558 C559 1.362 . S
C559 C558 1.362 . S
C559 C560 1.414 . S
C559 C562 1.498 1_565 S
C560 H540 0.950 . S
C560 C559 1.414 . S
C560 C561 1.374 . S
C561 H541 0.950 . S
C561 C557 1.385 . S
C561 C560 1.374 . S
C562 C559 1.498 1_545 S
C562 C563 1.373 1_545 S
C562 C564 1.389 . S
C563 H542 0.950 . S
C563 C562 1.373 1_565 S
C563 C579 1.377 . S
C564 C562 1.389 . S
C564 C565 1.524 . S
C564 C578 1.377 . S
C565 C564 1.524 . S
C565 C566 1.397 . S
C565 C570 1.363 . S
C566 H543 0.950 . S
C566 C565 1.397 . S
C566 C567 1.334 . S
C567 H544 0.950 . S
C567 C566 1.334 . S
C567 C568 1.287 . S
C568 C567 1.287 . S
C568 C569 1.524 . S
C568 H587 0.913 . S
C569 H545 0.950 . S
C569 C568 1.524 . S
C569 C570 1.415 . S
C570 H546 0.950 . S
C570 C565 1.363 . S
C570 C569 1.415 . S
C571 H547 0.951 . S
C571 C572 1.366 . S
C571 C573 1.388 . S
C572 C571 1.366 . S
C572 C576 1.385 . S
C573 H548 0.951 . S
C573 C571 1.388 . S
C573 C574 1.366 . S
C574 C573 1.366 . S
C574 C575 1.414 . S
C574 C577 1.499 . S
C575 H549 0.950 . S
C575 C574 1.414 . S
C575 C576 1.374 . S
C576 H550 0.950 . S
C576 C572 1.385 . S
C576 C575 1.374 . S
C577 C574 1.499 . S
C577 C578 1.373 . S
C577 C579 1.389 1_545 S
C578 H551 0.950 . S
C578 C564 1.377 . S
C578 C577 1.373 . S
C579 C563 1.377 . S
C579 C577 1.389 1_565 S
C579 C580 1.524 . S
C580 C579 1.524 . S
C580 C581 1.397 . S
C580 C585 1.363 . S
C581 H552 0.950 . S
C581 C580 1.397 . S
C581 C582 1.334 . S
C582 H553 0.950 . S
C582 C581 1.334 . S
C582 C583 1.287 . S
C583 C582 1.287 . S
C583 C584 1.524 . S
C583 H586 0.999 . S
C584 H554 0.950 . S
C584 C583 1.524 . S
C584 C585 1.415 . S
C585 H555 0.950 . S
C585 C580 1.363 . S
C585 C584 1.415 . S
H586 C583 0.999 . S
H587 C568 0.913 . S
H588 C606 0.951 . S
H589 C608 0.951 . S
H590 C610 0.950 . S
H591 C611 0.950 . S
H592 C613 0.950 . S
H593 C616 0.950 1_554 S
H594 C617 0.972 . S
H595 C619 0.950 . S
H596 C620 0.950 . S
H597 C621 0.951 . S
H598 C623 0.951 . S
H599 C625 0.950 . S
H600 C626 0.950 . S
H601 C628 0.950 . S
H602 C631 0.950 . S
H603 C632 0.950 . S
H604 C634 0.950 . S
H605 C635 0.950 . S
C606 H588 0.951 . S
C606 C607 1.366 . S
C606 C608 1.388 . S
C607 C606 1.366 . S
C607 C611 1.385 . S
C608 H589 0.951 . S
C608 C606 1.388 . S
C608 C609 1.366 . S
C609 C608 1.366 . S
C609 C610 1.414 . S
C609 C612 1.499 . S
C610 H590 0.950 . S
C610 C609 1.414 . S
C610 C611 1.374 . S
C611 H591 0.950 . S
C611 C607 1.385 . S
C611 C610 1.374 . S
C612 C609 1.499 . S
C612 C613 1.373 . S
C612 C614 1.389 . S
C613 H592 0.950 . S
C613 C612 1.373 . S
C613 C629 1.377 . S
C614 C612 1.389 . S
C614 C615 1.524 . S
C614 C628 1.377 . S
C615 C614 1.524 . S
C615 C616 1.397 . S
C615 C620 1.363 . S
C616 H593 0.950 1_556 S
C616 C615 1.397 . S
C616 C617 1.328 1_556 S
C617 H594 0.972 . S
C617 C616 1.328 1_554 S
C617 C618 1.271 1_554 S
C618 C617 1.271 1_556 S
C618 C619 1.524 . S
C618 H637 0.913 . S
C619 H595 0.950 . S
C619 C618 1.524 . S
C619 C620 1.415 . S
C620 H596 0.950 . S
C620 C615 1.363 . S
C620 C619 1.415 . S
C621 H597 0.951 . S
C621 C622 1.366 1_554 S
C621 C623 1.388 . S
C622 C621 1.366 1_556 S
C622 C626 1.385 . S
C623 H598 0.951 . S
C623 C621 1.388 . S
C623 C624 1.366 1_554 S
C624 C623 1.366 1_556 S
C624 C625 1.414 . S
C624 C627 1.499 . S
C625 H599 0.950 . S
C625 C624 1.414 . S
C625 C626 1.374 . S
C626 H600 0.950 . S
C626 C622 1.385 . S
C626 C625 1.374 . S
C627 C624 1.499 . S
C627 C628 1.373 . S
C627 C629 1.389 . S
C628 H601 0.950 . S
C628 C614 1.377 . S
C628 C627 1.373 . S
C629 C613 1.377 . S
C629 C627 1.389 . S
C629 C630 1.524 . S
C630 C629 1.524 . S
C630 C631 1.397 . S
C630 C635 1.363 . S
C631 H602 0.950 . S
C631 C630 1.397 . S
C631 C632 1.334 . S
C632 H603 0.950 . S
C632 C631 1.334 . S
C632 C633 1.287 . S
C633 C632 1.287 . S
C633 C634 1.524 . S
C633 H636 0.999 . S
C634 H604 0.950 . S
C634 C633 1.524 . S
C634 C635 1.415 . S
C635 H605 0.950 . S
C635 C630 1.363 . S
C635 C634 1.415 . S
H636 C633 0.999 . S
H637 C618 0.913 . S
H638 C656 0.951 . S
H639 C658 0.951 . S
H640 C660 0.950 . S
H641 C661 0.950 . S
H642 C663 0.950 . S
H643 C666 0.950 . S
H644 C667 0.950 . S
H645 C669 0.950 . S
H646 C670 0.950 . S
H647 C671 0.951 . S
H648 C673 0.951 . S
H649 C675 0.950 . S
H650 C676 0.950 . S
H651 C678 0.950 . S
H652 C681 0.950 . S
H653 C682 0.950 . S
H654 C684 0.950 . S
H655 C685 0.950 . S
C656 H638 0.951 . S
C656 C657 1.366 . S
C656 C658 1.388 . S
C657 C656 1.366 . S
C657 C661 1.385 . S
C658 H639 0.951 . S
C658 C656 1.388 . S
C658 C659 1.366 . S
C659 C658 1.366 . S
C659 C660 1.414 . S
C659 C662 1.499 . S
C660 H640 0.950 . S
C660 C659 1.414 . S
C660 C661 1.374 . S
C661 H641 0.950 . S
C661 C657 1.385 . S
C661 C660 1.374 . S
C662 C659 1.499 . S
C662 C663 1.373 . S
C662 C664 1.389 . S
C663 H642 0.950 . S
C663 C662 1.373 . S
C663 C679 1.377 . S
C664 C662 1.389 . S
C664 C665 1.524 . S
C664 C678 1.377 . S
C665 C664 1.524 . S
C665 C666 1.397 . S
C665 C670 1.363 . S
C666 H643 0.950 . S
C666 C665 1.397 . S
C666 C667 1.334 . S
C667 H644 0.950 . S
C667 C666 1.334 . S
C667 C668 1.287 . S
C668 C667 1.287 . S
C668 C669 1.524 . S
C668 H687 0.913 . S
C669 H645 0.950 . S
C669 C668 1.524 . S
C669 C670 1.415 . S
C670 H646 0.950 . S
C670 C665 1.363 . S
C670 C669 1.415 . S
C671 H647 0.951 . S
C671 C672 1.366 . S
C671 C673 1.388 . S
C672 C671 1.366 . S
C672 C676 1.385 . S
C673 H648 0.951 . S
C673 C671 1.388 . S
C673 C674 1.366 . S
C674 C673 1.366 . S
C674 C675 1.414 . S
C674 C677 1.499 . S
C675 H649 0.950 . S
C675 C674 1.414 . S
C675 C676 1.374 . S
C676 H650 0.950 . S
C676 C672 1.385 . S
C676 C675 1.374 . S
C677 C674 1.499 . S
C677 C678 1.373 . S
C677 C679 1.389 . S
C678 H651 0.950 . S
C678 C664 1.377 . S
C678 C677 1.373 . S
C679 C663 1.377 . S
C679 C677 1.389 . S
C679 C680 1.524 . S
C680 C679 1.524 . S
C680 C681 1.397 . S
C680 C685 1.363 . S
C681 H652 0.950 . S
C681 C680 1.397 . S
C681 C682 1.334 . S
C682 H653 0.950 . S
C682 C681 1.334 . S
C682 C683 1.287 . S
C683 C682 1.287 . S
C683 C684 1.524 . S
C683 H686 0.999 . S
C684 H654 0.950 . S
C684 C683 1.524 . S
C684 C685 1.415 . S
C685 H655 0.950 . S
C685 C680 1.363 . S
C685 C684 1.415 . S
H686 C683 0.999 . S
H687 C668 0.913 . S
H688 C706 0.951 . S
H689 C708 0.951 . S
H690 C710 0.950 . S
H691 C711 0.950 . S
H692 C713 0.950 . S
H693 C716 0.950 . S
H694 C717 0.950 . S
H695 C719 0.950 . S
H696 C720 0.950 . S
H697 C721 0.951 . S
H698 C723 0.951 . S
H699 C725 0.950 . S
H700 C726 0.950 1_655 S
H701 C728 0.950 . S
H702 C731 0.950 . S
H703 C732 0.950 . S
H704 C734 0.950 . S
H705 C735 0.950 . S
C706 H688 0.951 . S
C706 C707 1.366 . S
C706 C708 1.388 . S
C707 C706 1.366 . S
C707 C711 1.385 . S
C708 H689 0.951 . S
C708 C706 1.388 . S
C708 C709 1.366 . S
C709 C708 1.366 . S
C709 C710 1.414 . S
C709 C712 1.499 . S
C710 H690 0.950 . S
C710 C709 1.414 . S
C710 C711 1.374 . S
C711 H691 0.950 . S
C711 C707 1.385 . S
C711 C710 1.374 . S
C712 C709 1.499 . S
C712 C713 1.373 . S
C712 C714 1.389 . S
C713 H692 0.950 . S
C713 C712 1.373 . S
C713 C729 1.377 . S
C714 C712 1.389 . S
C714 C715 1.524 . S
C714 C728 1.377 . S
C715 C714 1.524 . S
C715 C716 1.397 . S
C715 C720 1.363 . S
C716 H693 0.950 . S
C716 C715 1.397 . S
C716 C717 1.334 . S
C717 H694 0.950 . S
C717 C716 1.334 . S
C717 C718 1.287 1_554 S
C718 C717 1.287 1_556 S
C718 C719 1.524 . S
C718 H737 0.913 . S
C719 H695 0.950 . S
C719 C718 1.524 . S
C719 C720 1.415 1_556 S
C720 H696 0.950 . S
C720 C715 1.363 . S
C720 C719 1.415 1_554 S
C721 H697 0.951 . S
C721 C722 1.366 . S
C721 C723 1.388 . S
C722 C721 1.366 . S
C722 C726 1.385 . S
C723 H698 0.951 . S
C723 C721 1.388 . S
C723 C724 1.366 . S
C724 C723 1.366 . S
C724 C725 1.414 . S
C724 C727 1.499 . S
C725 H699 0.950 . S
C725 C724 1.414 . S
C725 C726 1.374 . S
C726 H700 0.950 1_455 S
C726 C722 1.385 . S
C726 C725 1.374 . S
C727 C724 1.499 . S
C727 C728 1.373 . S
C727 C729 1.389 . S
C728 H701 0.950 . S
C728 C714 1.377 . S
C728 C727 1.373 . S
C729 C713 1.377 . S
C729 C727 1.389 . S
C729 C730 1.524 . S
C730 C729 1.524 . S
C730 C731 1.397 . S
C730 C735 1.363 . S
C731 H702 0.950 . S
C731 C730 1.397 . S
C731 C732 1.334 . S
C732 H703 0.950 . S
C732 C731 1.334 . S
C732 C733 1.287 . S
C733 C732 1.287 . S
C733 C734 1.524 . S
C733 H736 0.999 . S
C734 H704 0.950 . S
C734 C733 1.524 . S
C734 C735 1.415 . S
C735 H705 0.950 . S
C735 C730 1.363 . S
C735 C734 1.415 . S
H736 C733 0.999 . S
H737 C718 0.913 . S
H738 C756 0.951 . S
H739 C758 0.951 . S
H740 C760 0.950 . S
H741 C761 0.950 . S
H742 C763 0.950 . S
H743 C766 0.950 . S
H744 C767 0.950 . S
H745 C769 0.950 . S
H746 C770 0.950 . S
H747 C771 0.951 . S
H748 C773 0.951 1_556 S
H749 C775 0.950 . S
H750 C776 0.950 . S
H751 C778 0.950 . S
H752 C781 0.950 . S
H753 C782 0.950 . S
H754 C784 0.950 . S
H755 C785 0.950 . S
C756 H738 0.951 . S
C756 C757 1.366 . S
C756 C758 1.388 . S
C757 C756 1.366 . S
C757 C761 1.385 . S
C758 H739 0.951 . S
C758 C756 1.388 . S
C758 C759 1.366 . S
C759 C758 1.366 . S
C759 C760 1.414 . S
C759 C762 1.499 . S
C760 H740 0.950 . S
C760 C759 1.414 . S
C760 C761 1.374 . S
C761 H741 0.950 . S
C761 C757 1.385 . S
C761 C760 1.374 . S
C762 C759 1.499 . S
C762 C763 1.373 . S
C762 C764 1.389 1_556 S
C763 H742 0.950 . S
C763 C762 1.373 . S
C763 C779 1.377 . S
C764 C762 1.389 1_554 S
C764 C765 1.524 . S
C764 C778 1.377 . S
C765 C764 1.524 . S
C765 C766 1.397 . S
C765 C770 1.363 . S
C766 H743 0.950 . S
C766 C765 1.397 . S
C766 C767 1.334 . S
C767 H744 0.950 . S
C767 C766 1.334 . S
C767 C768 1.287 . S
C768 C767 1.287 . S
C768 C769 1.524 . S
C768 H787 0.913 . S
C769 H745 0.950 . S
C769 C768 1.524 . S
C769 C770 1.415 . S
C770 H746 0.950 . S
C770 C765 1.363 . S
C770 C769 1.415 . S
C771 H747 0.951 . S
C771 C772 1.366 . S
C771 C773 1.388 . S
C772 C771 1.366 . S
C772 C776 1.385 . S
C773 H748 0.951 1_554 S
C773 C771 1.388 . S
C773 C774 1.363 1_554 S
C774 C773 1.363 1_556 S
C774 C775 1.408 1_556 S
C774 C777 1.507 . S
C775 H749 0.950 . S
C775 C774 1.408 1_554 S
C775 C776 1.374 . S
C776 H750 0.950 . S
C776 C772 1.385 . S
C776 C775 1.374 . S
C777 C774 1.507 . S
C777 C778 1.373 1_556 S
C777 C779 1.389 . S
C778 H751 0.950 . S
C778 C764 1.377 . S
C778 C777 1.373 1_554 S
C779 C763 1.377 . S
C779 C777 1.389 . S
C779 C780 1.524 . S
C780 C779 1.524 . S
C780 C781 1.397 . S
C780 C785 1.363 . S
C781 H752 0.950 . S
C781 C780 1.397 . S
C781 C782 1.334 . S
C782 H753 0.950 . S
C782 C781 1.334 . S
C782 C783 1.287 . S
C783 C782 1.287 . S
C783 C784 1.524 . S
C783 H786 0.999 . S
C784 H754 0.950 . S
C784 C783 1.524 . S
C784 C785 1.415 . S
C785 H755 0.950 . S
C785 C780 1.363 . S
C785 C784 1.415 . S
H786 C783 0.999 . S
H787 C768 0.913 . S
H788 C806 0.951 . S
H789 C808 0.951 . S
H790 C810 0.950 . S
H791 C811 0.950 . S
H792 C813 0.950 . S
H793 C816 0.950 . S
H794 C817 0.950 . S
H795 C819 0.950 . S
H796 C820 0.950 . S
H797 C821 0.951 . S
H798 C823 0.951 . S
H799 C825 0.950 . S
H800 C826 0.950 . S
H801 C828 0.950 . S
H802 C831 0.950 . S
H803 C832 0.950 . S
H804 C834 0.950 . S
H805 C835 0.950 . S
C806 H788 0.951 . S
C806 C807 1.366 . S
C806 C808 1.388 . S
C807 C806 1.366 . S
C807 C811 1.385 . S
C808 H789 0.951 . S
C808 C806 1.388 . S
C808 C809 1.366 . S
C809 C808 1.366 . S
C809 C810 1.414 . S
C809 C812 1.499 . S
C810 H790 0.950 . S
C810 C809 1.414 . S
C810 C811 1.374 . S
C811 H791 0.950 . S
C811 C807 1.385 . S
C811 C810 1.374 . S
C812 C809 1.499 . S
C812 C813 1.373 . S
C812 C814 1.389 . S
C813 H792 0.950 . S
C813 C812 1.373 . S
C813 C829 1.377 . S
C814 C812 1.389 . S
C814 C815 1.524 . S
C814 C828 1.377 . S
C815 C814 1.524 . S
C815 C816 1.397 . S
C815 C820 1.363 . S
C816 H793 0.950 . S
C816 C815 1.397 . S
C816 C817 1.334 . S
C817 H794 0.950 . S
C817 C816 1.334 . S
C817 C818 1.287 . S
C818 C817 1.287 . S
C818 C819 1.524 . S
C818 H837 0.913 . S
C819 H795 0.950 . S
C819 C818 1.524 . S
C819 C820 1.415 . S
C820 H796 0.950 . S
C820 C815 1.363 . S
C820 C819 1.415 . S
C821 H797 0.951 . S
C821 C822 1.366 . S
C821 C823 1.388 . S
C822 C821 1.366 . S
C822 C826 1.385 . S
C823 H798 0.951 . S
C823 C821 1.388 . S
C823 C824 1.366 . S
C824 C823 1.366 . S
C824 C825 1.414 . S
C824 C827 1.499 . S
C825 H799 0.950 . S
C825 C824 1.414 . S
C825 C826 1.374 . S
C826 H800 0.950 . S
C826 C822 1.385 . S
C826 C825 1.374 . S
C827 C824 1.499 . S
C827 C828 1.373 . S
C827 C829 1.389 . S
C828 H801 0.950 . S
C828 C814 1.377 . S
C828 C827 1.373 . S
C829 C813 1.377 . S
C829 C827 1.389 . S
C829 C830 1.524 . S
C830 C829 1.524 . S
C830 C831 1.397 . S
C830 C835 1.363 . S
C831 H802 0.950 . S
C831 C830 1.397 . S
C831 C832 1.334 . S
C832 H803 0.950 . S
C832 C831 1.334 . S
C832 C833 1.287 . S
C833 C832 1.287 . S
C833 C834 1.524 . S
C833 H836 0.999 . S
C834 H804 0.950 . S
C834 C833 1.524 . S
C834 C835 1.415 . S
C835 H805 0.950 . S
C835 C830 1.363 . S
C835 C834 1.415 . S
H836 C833 0.999 . S
H837 C818 0.913 . S
H838 C856 0.951 . S
H839 C858 0.951 . S
H840 C860 0.950 . S
H841 C861 0.950 . S
H842 C863 0.950 . S
H843 C866 0.950 . S
H844 C867 0.950 . S
H845 C869 0.950 . S
H846 C870 0.950 . S
H847 C871 0.951 . S
H848 C873 0.951 . S
H849 C875 0.950 . S
H850 C876 0.950 . S
H851 C878 0.950 . S
H852 C881 0.950 . S
H853 C882 0.950 . S
H854 C884 0.950 . S
H855 C885 0.950 . S
C856 H838 0.951 . S
C856 C857 1.366 . S
C856 C858 1.388 . S
C857 C856 1.366 . S
C857 C861 1.385 . S
C858 H839 0.951 . S
C858 C856 1.388 . S
C858 C859 1.366 . S
C859 C858 1.366 . S
C859 C860 1.414 . S
C859 C862 1.499 . S
C860 H840 0.950 . S
C860 C859 1.414 . S
C860 C861 1.374 . S
C861 H841 0.950 . S
C861 C857 1.385 . S
C861 C860 1.374 . S
C862 C859 1.499 . S
C862 C863 1.373 . S
C862 C864 1.389 . S
C863 H842 0.950 . S
C863 C862 1.373 . S
C863 C879 1.377 . S
C864 C862 1.389 . S
C864 C865 1.524 . S
C864 C878 1.377 . S
C865 C864 1.524 . S
C865 C866 1.397 . S
C865 C870 1.363 . S
C866 H843 0.950 . S
C866 C865 1.397 . S
C866 C867 1.334 . S
C867 H844 0.950 . S
C867 C866 1.334 . S
C867 C868 1.287 . S
C868 C867 1.287 . S
C868 C869 1.524 . S
C868 H887 0.913 . S
C869 H845 0.950 . S
C869 C868 1.524 . S
C869 C870 1.415 . S
C870 H846 0.950 . S
C870 C865 1.363 . S
C870 C869 1.415 . S
C871 H847 0.951 . S
C871 C872 1.366 . S
C871 C873 1.388 . S
C872 C871 1.366 . S
C872 C876 1.385 . S
C873 H848 0.951 . S
C873 C871 1.388 . S
C873 C874 1.366 . S
C874 C873 1.366 . S
C874 C875 1.414 . S
C874 C877 1.499 . S
C875 H849 0.950 . S
C875 C874 1.414 . S
C875 C876 1.374 . S
C876 H850 0.950 . S
C876 C872 1.385 . S
C876 C875 1.374 . S
C877 C874 1.499 . S
C877 C878 1.373 . S
C877 C879 1.389 . S
C878 H851 0.950 . S
C878 C864 1.377 . S
C878 C877 1.373 . S
C879 C863 1.377 . S
C879 C877 1.389 . S
C879 C880 1.524 . S
C880 C879 1.524 . S
C880 C881 1.397 . S
C880 C885 1.363 . S
C881 H852 0.950 . S
C881 C880 1.397 . S
C881 C882 1.334 . S
C882 H853 0.950 . S
C882 C881 1.334 . S
C882 C883 1.287 . S
C883 C882 1.287 . S
C883 C884 1.524 . S
C883 H886 0.999 . S
C884 H854 0.950 . S
C884 C883 1.524 . S
C884 C885 1.415 . S
C885 H855 0.950 . S
C885 C880 1.363 . S
C885 C884 1.415 . S
H886 C883 0.999 . S
H887 C868 0.913 . S
H888 C906 0.951 . S
H889 C908 0.951 . S
H890 C910 0.950 1_545 S
H891 C911 0.950 . S
H892 C913 0.950 . S
H893 C916 0.950 1_655 S
H894 C917 0.950 . S
H895 C919 0.950 . S
H896 C920 0.950 . S
H897 C921 0.951 . S
H898 C923 0.951 . S
H899 C925 0.950 . S
H900 C926 0.950 . S
H901 C928 0.950 . S
H902 C931 0.950 . S
H903 C932 0.950 . S
H904 C934 0.950 . S
H905 C935 0.950 . S
C906 H888 0.951 . S
C906 C907 1.366 . S
C906 C908 1.388 . S
C907 C906 1.366 . S
C907 C911 1.385 . S
C908 H889 0.951 . S
C908 C906 1.388 . S
C908 C909 1.366 . S
C909 C908 1.366 . S
C909 C910 1.414 . S
C909 C912 1.499 . S
C910 H890 0.950 1_565 S
C910 C909 1.414 . S
C910 C911 1.374 . S
C911 H891 0.950 . S
C911 C907 1.385 . S
C911 C910 1.374 . S
C912 C909 1.499 . S
C912 C913 1.373 . S
C912 C914 1.389 . S
C913 H892 0.950 . S
C913 C912 1.373 . S
C913 C929 1.377 . S
C914 C912 1.389 . S
C914 C915 1.537 . S
C914 C928 1.377 . S
C915 C914 1.537 . S
C915 C916 1.396 1_665 S
C915 C920 1.351 1_655 S
C916 H893 0.950 1_455 S
C916 C915 1.396 1_445 S
C916 C917 1.334 . S
C917 H894 0.950 . S
C917 C916 1.334 . S
C917 C918 1.287 1_545 S
C918 C917 1.287 1_565 S
C918 C919 1.524 . S
C918 H937 0.913 . S
C919 H895 0.950 . S
C919 C918 1.524 . S
C919 C920 1.415 . S
C920 H896 0.950 . S
C920 C915 1.351 1_455 S
C920 C919 1.415 . S
C921 H897 0.951 . S
C921 C922 1.366 . S
C921 C923 1.388 . S
C922 C921 1.366 . S
C922 C926 1.385 1_545 S
C923 H898 0.951 . S
C923 C921 1.388 . S
C923 C924 1.366 . S
C924 C923 1.366 . S
C924 C925 1.414 1_545 S
C924 C927 1.499 1_545 S
C925 H899 0.950 . S
C925 C924 1.414 1_565 S
C925 C926 1.374 . S
C926 H900 0.950 . S
C926 C922 1.385 1_565 S
C926 C925 1.374 . S
C927 C924 1.499 1_565 S
C927 C928 1.373 . S
C927 C929 1.389 . S
C928 H901 0.950 . S
C928 C914 1.377 . S
C928 C927 1.373 . S
C929 C913 1.377 . S
C929 C927 1.389 . S
C929 C930 1.524 . S
C930 C929 1.524 . S
C930 C931 1.397 . S
C930 C935 1.363 1_565 S
C931 H902 0.950 . S
C931 C930 1.397 . S
C931 C932 1.334 . S
C932 H903 0.950 . S
C932 C931 1.334 . S
C932 C933 1.287 . S
C933 C932 1.287 . S
C933 C934 1.524 1_565 S
C933 H936 0.999 . S
C934 H904 0.950 . S
C934 C933 1.524 1_545 S
C934 C935 1.415 . S
C935 H905 0.950 . S
C935 C930 1.363 1_545 S
C935 C934 1.415 . S
H936 C933 0.999 . S
H937 C918 0.913 . S
H938 C956 0.951 . S
H939 C958 0.951 . S
H940 C960 0.950 . S
H941 C961 0.950 . S
H942 C963 0.950 . S
H943 C966 0.950 . S
H944 C967 0.950 . S
H945 C969 0.950 . S
H946 C970 0.950 . S
H947 C971 0.951 . S
H948 C973 0.951 . S
H949 C975 0.950 . S
H950 C976 0.950 . S
H951 C978 0.950 . S
H952 C981 0.950 . S
H953 C982 0.950 . S
H954 C984 0.950 1_565 S
H955 C985 0.950 . S
C956 H938 0.951 . S
C956 C957 1.366 . S
C956 C958 1.388 . S
C957 C956 1.366 . S
C957 C961 1.385 . S
C958 H939 0.951 . S
C958 C956 1.388 . S
C958 C959 1.366 . S
C959 C958 1.366 . S
C959 C960 1.414 . S
C959 C962 1.499 . S
C960 H940 0.950 . S
C960 C959 1.414 . S
C960 C961 1.374 . S
C961 H941 0.950 . S
C961 C957 1.385 . S
C961 C960 1.374 . S
C962 C959 1.499 . S
C962 C963 1.373 . S
C962 C964 1.389 . S
C963 H942 0.950 . S
C963 C962 1.373 . S
C963 C979 1.377 . S
C964 C962 1.389 . S
C964 C965 1.524 . S
C964 C978 1.377 . S
C965 C964 1.524 . S
C965 C966 1.397 . S
C965 C970 1.363 . S
C966 H943 0.950 . S
C966 C965 1.397 . S
C966 C967 1.334 . S
C967 H944 0.950 . S
C967 C966 1.334 . S
C967 C968 1.287 . S
C968 C967 1.287 . S
C968 C969 1.524 . S
C968 H987 0.913 . S
C969 H945 0.950 . S
C969 C968 1.524 . S
C969 C970 1.415 . S
C970 H946 0.950 . S
C970 C965 1.363 . S
C970 C969 1.415 . S
C971 H947 0.951 . S
C971 C972 1.366 . S
C971 C973 1.388 . S
C972 C971 1.366 . S
C972 C976 1.385 . S
C973 H948 0.951 . S
C973 C971 1.388 . S
C973 C974 1.366 . S
C974 C973 1.366 . S
C974 C975 1.414 . S
C974 C977 1.499 . S
C975 H949 0.950 . S
C975 C974 1.414 . S
C975 C976 1.374 . S
C976 H950 0.950 . S
C976 C972 1.385 . S
C976 C975 1.374 . S
C977 C974 1.499 . S
C977 C978 1.373 . S
C977 C979 1.389 . S
C978 H951 0.950 . S
C978 C964 1.377 . S
C978 C977 1.373 . S
C979 C963 1.377 . S
C979 C977 1.389 . S
C979 C980 1.524 . S
C980 C979 1.524 . S
C980 C981 1.397 . S
C980 C985 1.363 . S
C981 H952 0.950 . S
C981 C980 1.397 . S
C981 C982 1.334 . S
C982 H953 0.950 . S
C982 C981 1.334 . S
C982 C983 1.287 . S
C983 C982 1.287 . S
C983 C984 1.524 . S
C983 H986 0.999 1_545 S
C984 H954 0.950 1_545 S
C984 C983 1.524 . S
C984 C985 1.415 . S
C985 H955 0.950 . S
C985 C980 1.363 . S
C985 C984 1.415 . S
H986 C983 0.999 1_565 S
H987 C968 0.913 . S
H988 C1006 0.951 . S
H989 C1008 0.951 . S
H990 C1010 0.950 . S
H991 C1011 0.950 . S
H992 C1013 0.950 . S
H993 C1016 0.950 . S
H994 C1017 0.950 . S
H995 C1019 0.950 . S
H996 C1020 0.950 . S
H997 C1021 0.951 . S
H998 C1023 0.951 . S
H999 C1025 0.950 . S
H1000 C1026 0.950 . S
H1001 C1028 0.950 . S
H1002 C1031 0.950 . S
H1003 C1032 0.950 . S
H1004 C1034 0.950 . S
H1005 C1035 0.950 . S
C1006 H988 0.951 . S
C1006 C1007 1.366 . S
C1006 C1008 1.388 . S
C1007 C1006 1.366 . S
C1007 C1011 1.385 . S
C1008 H989 0.951 . S
C1008 C1006 1.388 . S
C1008 C1009 1.366 . S
C1009 C1008 1.366 . S
C1009 C1010 1.414 . S
C1009 C1012 1.499 . S
C1010 H990 0.950 . S
C1010 C1009 1.414 . S
C1010 C1011 1.374 . S
C1011 H991 0.950 . S
C1011 C1007 1.385 . S
C1011 C1010 1.374 . S
C1012 C1009 1.499 . S
C1012 C1013 1.373 . S
C1012 C1014 1.389 . S
C1013 H992 0.950 . S
C1013 C1012 1.373 . S
C1013 C1029 1.377 . S
C1014 C1012 1.389 . S
C1014 C1015 1.524 . S
C1014 C1028 1.377 . S
C1015 C1014 1.524 . S
C1015 C1016 1.397 . S
C1015 C1020 1.363 . S
C1016 H993 0.950 . S
C1016 C1015 1.397 . S
C1016 C1017 1.334 . S
C1017 H994 0.950 . S
C1017 C1016 1.334 . S
C1017 C1018 1.287 . S
C1018 C1017 1.287 . S
C1018 C1019 1.524 . S
C1018 H1037 0.913 . S
C1019 H995 0.950 . S
C1019 C1018 1.524 . S
C1019 C1020 1.415 . S
C1020 H996 0.950 . S
C1020 C1015 1.363 . S
C1020 C1019 1.415 . S
C1021 H997 0.951 . S
C1021 C1022 1.366 . S
C1021 C1023 1.388 . S
C1022 C1021 1.366 . S
C1022 C1026 1.385 . S
C1023 H998 0.951 . S
C1023 C1021 1.388 . S
C1023 C1024 1.366 . S
C1024 C1023 1.366 . S
C1024 C1025 1.414 . S
C1024 C1027 1.499 . S
C1025 H999 0.950 . S
C1025 C1024 1.414 . S
C1025 C1026 1.374 . S
C1026 H1000 0.950 . S
C1026 C1022 1.385 . S
C1026 C1025 1.374 . S
C1027 C1024 1.499 . S
C1027 C1028 1.373 . S
C1027 C1029 1.389 . S
C1028 H1001 0.950 . S
C1028 C1014 1.377 . S
C1028 C1027 1.373 . S
C1029 C1013 1.377 . S
C1029 C1027 1.389 . S
C1029 C1030 1.524 . S
C1030 C1029 1.524 . S
C1030 C1031 1.397 . S
C1030 C1035 1.363 . S
C1031 H1002 0.950 . S
C1031 C1030 1.397 . S
C1031 C1032 1.334 . S
C1032 H1003 0.950 . S
C1032 C1031 1.334 . S
C1032 C1033 1.287 . S
C1033 C1032 1.287 . S
C1033 C1034 1.524 . S
C1033 H1036 0.999 . S
C1034 H1004 0.950 . S
C1034 C1033 1.524 . S
C1034 C1035 1.415 . S
C1035 H1005 0.950 . S
C1035 C1030 1.363 . S
C1035 C1034 1.415 . S
H1036 C1033 0.999 . S
H1037 C1018 0.913 . S
H1038 C1056 0.951 . S
H1039 C1058 0.951 . S
H1040 C1060 0.950 . S
H1041 C1061 0.950 . S
H1042 C1063 0.950 . S
H1043 C1066 0.950 . S
H1044 C1067 0.950 . S
H1045 C1069 0.950 . S
H1046 C1070 0.950 . S
H1047 C1071 0.951 . S
H1048 C1073 0.951 . S
H1049 C1075 0.950 . S
H1050 C1076 0.950 . S
H1051 C1078 0.950 . S
H1052 C1081 0.950 . S
H1053 C1082 0.950 . S
H1054 C1084 0.950 . S
H1055 C1085 0.950 . S
C1056 H1038 0.951 . S
C1056 C1057 1.366 . S
C1056 C1058 1.388 . S
C1057 C1056 1.366 . S
C1057 C1061 1.385 . S
C1058 H1039 0.951 . S
C1058 C1056 1.388 . S
C1058 C1059 1.366 . S
C1059 C1058 1.366 . S
C1059 C1060 1.414 . S
C1059 C1062 1.499 . S
C1060 H1040 0.950 . S
C1060 C1059 1.414 . S
C1060 C1061 1.374 . S
C1061 H1041 0.950 . S
C1061 C1057 1.385 . S
C1061 C1060 1.374 . S
C1062 C1059 1.499 . S
C1062 C1063 1.373 . S
C1062 C1064 1.389 . S
C1063 H1042 0.950 . S
C1063 C1062 1.373 . S
C1063 C1079 1.377 . S
C1064 C1062 1.389 . S
C1064 C1065 1.524 . S
C1064 C1078 1.377 . S
C1065 C1064 1.524 . S
C1065 C1066 1.397 . S
C1065 C1070 1.363 . S
C1066 H1043 0.950 . S
C1066 C1065 1.397 . S
C1066 C1067 1.334 . S
C1067 H1044 0.950 . S
C1067 C1066 1.334 . S
C1067 C1068 1.287 1_455 S
C1068 C1067 1.287 1_655 S
C1068 C1069 1.524 . S
C1068 H1087 0.913 . S
C1069 H1045 0.950 . S
C1069 C1068 1.524 . S
C1069 C1070 1.415 1_655 S
C1070 H1046 0.950 . S
C1070 C1065 1.363 . S
C1070 C1069 1.415 1_455 S
C1071 H1047 0.951 . S
C1071 C1072 1.366 . S
C1071 C1073 1.388 . S
C1072 C1071 1.366 . S
C1072 C1076 1.385 . S
C1073 H1048 0.951 . S
C1073 C1071 1.388 . S
C1073 C1074 1.366 . S
C1074 C1073 1.366 . S
C1074 C1075 1.414 . S
C1074 C1077 1.499 . S
C1075 H1049 0.950 . S
C1075 C1074 1.414 . S
C1075 C1076 1.374 . S
C1076 H1050 0.950 . S
C1076 C1072 1.385 . S
C1076 C1075 1.374 . S
C1077 C1074 1.499 . S
C1077 C1078 1.373 . S
C1077 C1079 1.389 . S
C1078 H1051 0.950 . S
C1078 C1064 1.377 . S
C1078 C1077 1.373 . S
C1079 C1063 1.377 . S
C1079 C1077 1.389 . S
C1079 C1080 1.524 . S
C1080 C1079 1.524 . S
C1080 C1081 1.397 . S
C1080 C1085 1.363 . S
C1081 H1052 0.950 . S
C1081 C1080 1.397 . S
C1081 C1082 1.334 . S
C1082 H1053 0.950 . S
C1082 C1081 1.334 . S
C1082 C1083 1.287 . S
C1083 C1082 1.287 . S
C1083 C1084 1.524 . S
C1083 H1086 0.999 . S
C1084 H1054 0.950 . S
C1084 C1083 1.524 . S
C1084 C1085 1.415 . S
C1085 H1055 0.950 . S
C1085 C1080 1.363 . S
C1085 C1084 1.415 . S
H1086 C1083 0.999 . S
H1087 C1068 0.913 . S
H1088 C1106 0.951 . S
H1089 C1108 0.951 . S
H1090 C1110 0.964 . S
H1091 C1111 0.949 1_545 S
H1092 C1113 0.950 . S
H1093 C1116 0.950 . S
H1094 C1117 0.950 . S
H1095 C1119 0.950 . S
H1096 C1120 0.946 1_565 S
H1097 C1121 0.951 . S
H1098 C1123 0.951 . S
H1099 C1125 0.950 1_565 S
H1100 C1126 0.937 1_556 S
H1101 C1128 0.950 . S
H1102 C1131 0.950 . S
H1103 C1132 0.950 . S
H1104 C1134 0.950 . S
H1105 C1135 0.950 1_545 S
C1106 H1088 0.951 . S
C1106 C1107 1.366 . S
C1106 C1108 1.388 . S
C1107 C1106 1.366 . S
C1107 C1111 1.385 . S
C1108 H1089 0.951 . S
C1108 C1106 1.388 . S
C1108 C1109 1.366 . S
C1109 C1108 1.366 . S
C1109 C1110 1.410 1_565 S
C1109 C1112 1.506 . S
C1110 H1090 0.964 . S
C1110 C1109 1.410 1_545 S
C1110 C1111 1.365 1_545 S
C1111 H1091 0.949 1_565 S
C1111 C1107 1.385 . S
C1111 C1110 1.365 1_565 S
C1112 C1109 1.506 . S
C1112 C1113 1.377 1_556 S
C1112 C1114 1.380 1_565 S
C1113 H1092 0.950 . S
C1113 C1112 1.377 1_554 S
C1113 C1129 1.377 . S
C1114 C1112 1.380 1_545 S
C1114 C1115 1.524 . S
C1114 C1128 1.377 . S
C1115 C1114 1.524 . S
C1115 C1116 1.397 . S
C1115 C1120 1.363 . S
C1116 H1093 0.950 . S
C1116 C1115 1.397 . S
C1116 C1117 1.334 . S
C1117 H1094 0.950 . S
C1117 C1116 1.334 . S
C1117 C1118 1.287 . S
C1118 C1117 1.287 . S
C1118 C1119 1.524 . S
C1118 H1137 0.913 . S
C1119 H1095 0.950 . S
C1119 C1118 1.524 . S
C1119 C1120 1.415 . S
C1120 H1096 0.946 1_545 S
C1120 C1115 1.363 . S
C1120 C1119 1.415 . S
C1121 H1097 0.951 . S
C1121 C1122 1.366 . S
C1121 C1123 1.388 . S
C1122 C1121 1.366 . S
C1122 C1126 1.385 . S
C1123 H1098 0.951 . S
C1123 C1121 1.388 . S
C1123 C1124 1.366 . S
C1124 C1123 1.366 . S
C1124 C1125 1.414 1_554 S
C1124 C1127 1.499 1_554 S
C1125 H1099 0.950 1_545 S
C1125 C1124 1.414 1_556 S
C1125 C1126 1.374 1_556 S
C1126 H1100 0.937 1_554 S
C1126 C1122 1.385 . S
C1126 C1125 1.374 1_554 S
C1127 C1124 1.499 1_556 S
C1127 C1128 1.373 . S
C1127 C1129 1.389 1_546 S
C1128 H1101 0.950 . S
C1128 C1114 1.377 . S
C1128 C1127 1.373 . S
C1129 C1113 1.377 . S
C1129 C1127 1.389 1_564 S
C1129 C1130 1.524 . S
C1130 C1129 1.524 . S
C1130 C1131 1.397 . S
C1130 C1135 1.363 . S
C1131 H1102 0.950 . S
C1131 C1130 1.397 . S
C1131 C1132 1.334 . S
C1132 H1103 0.950 . S
C1132 C1131 1.334 . S
C1132 C1133 1.287 . S
C1133 C1132 1.287 . S
C1133 C1134 1.524 . S
C1133 H1136 0.999 . S
C1134 H1104 0.950 . S
C1134 C1133 1.524 . S
C1134 C1135 1.415 . S
C1135 H1105 0.950 1_565 S
C1135 C1130 1.363 . S
C1135 C1134 1.415 . S
H1136 C1133 0.999 . S
H1137 C1118 0.913 . S
H1138 C1156 0.951 . S
H1139 C1158 0.951 . S
H1140 C1160 0.950 . S
H1141 C1161 0.950 . S
H1142 C1163 0.950 . S
H1143 C1166 0.950 . S
H1144 C1167 0.950 . S
H1145 C1169 0.950 . S
H1146 C1170 0.950 . S
H1147 C1171 0.951 . S
H1148 C1173 0.951 . S
H1149 C1175 0.950 . S
H1150 C1176 0.950 . S
H1151 C1178 0.950 . S
H1152 C1181 0.950 . S
H1153 C1182 0.950 . S
H1154 C1184 0.950 . S
H1155 C1185 0.950 . S
C1156 H1138 0.951 . S
C1156 C1157 1.366 . S
C1156 C1158 1.388 . S
C1157 C1156 1.366 . S
C1157 C1161 1.385 . S
C1158 H1139 0.951 . S
C1158 C1156 1.388 . S
C1158 C1159 1.366 . S
C1159 C1158 1.366 . S
C1159 C1160 1.414 . S
C1159 C1162 1.499 . S
C1160 H1140 0.950 . S
C1160 C1159 1.414 . S
C1160 C1161 1.374 . S
C1161 H1141 0.950 . S
C1161 C1157 1.385 . S
C1161 C1160 1.374 . S
C1162 C1159 1.499 . S
C1162 C1163 1.373 . S
C1162 C1164 1.389 . S
C1163 H1142 0.950 . S
C1163 C1162 1.373 . S
C1163 C1179 1.377 . S
C1164 C1162 1.389 . S
C1164 C1165 1.524 . S
C1164 C1178 1.377 . S
C1165 C1164 1.524 . S
C1165 C1166 1.397 . S
C1165 C1170 1.363 . S
C1166 H1143 0.950 . S
C1166 C1165 1.397 . S
C1166 C1167 1.334 . S
C1167 H1144 0.950 . S
C1167 C1166 1.334 . S
C1167 C1168 1.287 . S
C1168 C1167 1.287 . S
C1168 C1169 1.524 . S
C1168 H1187 0.913 . S
C1169 H1145 0.950 . S
C1169 C1168 1.524 . S
C1169 C1170 1.415 . S
C1170 H1146 0.950 . S
C1170 C1165 1.363 . S
C1170 C1169 1.415 . S
C1171 H1147 0.951 . S
C1171 C1172 1.366 . S
C1171 C1173 1.388 . S
C1172 C1171 1.366 . S
C1172 C1176 1.385 . S
C1173 H1148 0.951 . S
C1173 C1171 1.388 . S
C1173 C1174 1.366 . S
C1174 C1173 1.366 . S
C1174 C1175 1.414 . S
C1174 C1177 1.499 . S
C1175 H1149 0.950 . S
C1175 C1174 1.414 . S
C1175 C1176 1.374 . S
C1176 H1150 0.950 . S
C1176 C1172 1.385 . S
C1176 C1175 1.374 . S
C1177 C1174 1.499 . S
C1177 C1178 1.373 . S
C1177 C1179 1.389 . S
C1178 H1151 0.950 . S
C1178 C1164 1.377 . S
C1178 C1177 1.373 . S
C1179 C1163 1.377 . S
C1179 C1177 1.389 . S
C1179 C1180 1.524 . S
C1180 C1179 1.524 . S
C1180 C1181 1.397 . S
C1180 C1185 1.363 . S
C1181 H1152 0.950 . S
C1181 C1180 1.397 . S
C1181 C1182 1.334 . S
C1182 H1153 0.950 . S
C1182 C1181 1.334 . S
C1182 C1183 1.287 . S
C1183 C1182 1.287 . S
C1183 C1184 1.524 . S
C1183 H1186 0.999 . S
C1184 H1154 0.950 . S
C1184 C1183 1.524 . S
C1184 C1185 1.415 . S
C1185 H1155 0.950 . S
C1185 C1180 1.363 . S
C1185 C1184 1.415 . S
H1186 C1183 0.999 . S
H1187 C1168 0.913 . S
H1188 C1206 0.951 . S
H1189 C1208 0.951 . S
H1190 C1210 0.950 . S
H1191 C1211 0.950 . S
H1192 C1213 0.950 . S
H1193 C1216 0.950 . S
H1194 C1217 0.950 . S
H1195 C1219 0.950 . S
H1196 C1220 0.950 . S
H1197 C1221 0.951 . S
H1198 C1223 0.951 . S
H1199 C1225 0.950 . S
H1200 C1226 0.950 . S
H1201 C1228 0.950 . S
H1202 C1231 0.950 . S
H1203 C1232 0.950 . S
H1204 C1234 0.950 . S
H1205 C1235 0.950 . S
C1206 H1188 0.951 . S
C1206 C1207 1.366 . S
C1206 C1208 1.388 . S
C1207 C1206 1.366 . S
C1207 C1211 1.385 . S
C1208 H1189 0.951 . S
C1208 C1206 1.388 . S
C1208 C1209 1.366 . S
C1209 C1208 1.366 . S
C1209 C1210 1.414 . S
C1209 C1212 1.499 . S
C1210 H1190 0.950 . S
C1210 C1209 1.414 . S
C1210 C1211 1.374 . S
C1211 H1191 0.950 . S
C1211 C1207 1.385 . S
C1211 C1210 1.374 . S
C1212 C1209 1.499 . S
C1212 C1213 1.373 . S
C1212 C1214 1.389 . S
C1213 H1192 0.950 . S
C1213 C1212 1.373 . S
C1213 C1229 1.377 . S
C1214 C1212 1.389 . S
C1214 C1215 1.524 . S
C1214 C1228 1.377 . S
C1215 C1214 1.524 . S
C1215 C1216 1.397 . S
C1215 C1220 1.363 . S
C1216 H1193 0.950 . S
C1216 C1215 1.397 . S
C1216 C1217 1.334 . S
C1217 H1194 0.950 . S
C1217 C1216 1.334 . S
C1217 C1218 1.287 . S
C1218 C1217 1.287 . S
C1218 C1219 1.524 . S
C1218 H1237 0.913 . S
C1219 H1195 0.950 . S
C1219 C1218 1.524 . S
C1219 C1220 1.415 . S
C1220 H1196 0.950 . S
C1220 C1215 1.363 . S
C1220 C1219 1.415 . S
C1221 H1197 0.951 . S
C1221 C1222 1.366 . S
C1221 C1223 1.388 . S
C1222 C1221 1.366 . S
C1222 C1226 1.385 . S
C1223 H1198 0.951 . S
C1223 C1221 1.388 . S
C1223 C1224 1.366 . S
C1224 C1223 1.366 . S
C1224 C1225 1.414 . S
C1224 C1227 1.499 . S
C1225 H1199 0.950 . S
C1225 C1224 1.414 . S
C1225 C1226 1.374 . S
C1226 H1200 0.950 . S
C1226 C1222 1.385 . S
C1226 C1225 1.374 . S
C1227 C1224 1.499 . S
C1227 C1228 1.373 . S
C1227 C1229 1.389 . S
C1228 H1201 0.950 . S
C1228 C1214 1.377 . S
C1228 C1227 1.373 . S
C1229 C1213 1.377 . S
C1229 C1227 1.389 . S
C1229 C1230 1.524 . S
C1230 C1229 1.524 . S
C1230 C1231 1.397 . S
C1230 C1235 1.363 . S
C1231 H1202 0.950 . S
C1231 C1230 1.397 . S
C1231 C1232 1.334 1_554 S
C1232 H1203 0.950 . S
C1232 C1231 1.334 1_556 S
C1232 C1233 1.287 . S
C1233 C1232 1.287 . S
C1233 C1234 1.524 . S
C1233 H1236 0.999 . S
C1234 H1204 0.950 . S
C1234 C1233 1.524 . S
C1234 C1235 1.415 1_556 S
C1235 H1205 0.950 . S
C1235 C1230 1.363 . S
C1235 C1234 1.415 1_554 S
H1236 C1233 0.999 . S
H1237 C1218 0.913 . S
H1238 C1256 0.951 . S
H1239 C1258 0.951 . S
H1240 C1260 0.950 . S
H1241 C1261 0.950 . S
H1242 C1263 0.950 . S
H1243 C1266 0.950 . S
H1244 C1267 0.950 . S
H1245 C1269 0.950 . S
H1246 C1270 0.950 . S
H1247 C1271 0.951 . S
H1248 C1273 0.951 . S
H1249 C1275 0.950 . S
H1250 C1276 0.950 . S
H1251 C1278 0.950 . S
H1252 C1281 0.950 . S
H1253 C1282 0.950 . S
H1254 C1284 0.950 . S
H1255 C1285 0.950 . S
C1256 H1238 0.951 . S
C1256 C1257 1.366 . S
C1256 C1258 1.388 . S
C1257 C1256 1.366 . S
C1257 C1261 1.385 . S
C1258 H1239 0.951 . S
C1258 C1256 1.388 . S
C1258 C1259 1.366 . S
C1259 C1258 1.366 . S
C1259 C1260 1.414 . S
C1259 C1262 1.499 . S
C1260 H1240 0.950 . S
C1260 C1259 1.414 . S
C1260 C1261 1.374 . S
C1261 H1241 0.950 . S
C1261 C1257 1.385 . S
C1261 C1260 1.374 . S
C1262 C1259 1.499 . S
C1262 C1263 1.373 . S
C1262 C1264 1.389 . S
C1263 H1242 0.950 . S
C1263 C1262 1.373 . S
C1263 C1279 1.377 . S
C1264 C1262 1.389 . S
C1264 C1265 1.524 . S
C1264 C1278 1.377 . S
C1265 C1264 1.524 . S
C1265 C1266 1.397 . S
C1265 C1270 1.363 . S
C1266 H1243 0.950 . S
C1266 C1265 1.397 . S
C1266 C1267 1.334 . S
C1267 H1244 0.950 . S
C1267 C1266 1.334 . S
C1267 C1268 1.287 . S
C1268 C1267 1.287 . S
C1268 C1269 1.524 . S
C1268 H1287 0.913 . S
C1269 H1245 0.950 . S
C1269 C1268 1.524 . S
C1269 C1270 1.415 . S
C1270 H1246 0.950 . S
C1270 C1265 1.363 . S
C1270 C1269 1.415 . S
C1271 H1247 0.951 . S
C1271 C1272 1.366 . S
C1271 C1273 1.388 . S
C1272 C1271 1.366 . S
C1272 C1276 1.385 . S
C1273 H1248 0.951 . S
C1273 C1271 1.388 . S
C1273 C1274 1.366 . S
C1274 C1273 1.366 . S
C1274 C1275 1.414 . S
C1274 C1277 1.499 . S
C1275 H1249 0.950 . S
C1275 C1274 1.414 . S
C1275 C1276 1.374 . S
C1276 H1250 0.950 . S
C1276 C1272 1.385 . S
C1276 C1275 1.374 . S
C1277 C1274 1.499 . S
C1277 C1278 1.373 . S
C1277 C1279 1.389 . S
C1278 H1251 0.950 . S
C1278 C1264 1.377 . S
C1278 C1277 1.373 . S
C1279 C1263 1.377 . S
C1279 C1277 1.389 . S
C1279 C1280 1.524 . S
C1280 C1279 1.524 . S
C1280 C1281 1.397 . S
C1280 C1285 1.363 . S
C1281 H1252 0.950 . S
C1281 C1280 1.397 . S
C1281 C1282 1.334 . S
C1282 H1253 0.950 . S
C1282 C1281 1.334 . S
C1282 C1283 1.287 . S
C1283 C1282 1.287 . S
C1283 C1284 1.524 . S
C1283 H1286 0.999 . S
C1284 H1254 0.950 . S
C1284 C1283 1.524 . S
C1284 C1285 1.415 . S
C1285 H1255 0.950 . S
C1285 C1280 1.363 . S
C1285 C1284 1.415 . S
H1286 C1283 0.999 . S
H1287 C1268 0.913 . S
H1288 C1306 0.951 . S
H1289 C1308 0.951 . S
H1290 C1310 0.950 . S
H1291 C1311 0.950 . S
H1292 C1313 0.950 . S
H1293 C1316 0.950 . S
H1294 C1317 0.950 . S
H1295 C1319 0.950 . S
H1296 C1320 0.950 . S
H1297 C1321 0.951 1_455 S
H1298 C1323 0.951 1_455 S
H1299 C1325 0.950 . S
H1300 C1326 0.950 1_554 S
H1301 C1328 0.950 . S
H1302 C1331 0.950 . S
H1303 C1332 0.950 . S
H1304 C1334 0.950 . S
H1305 C1335 0.950 . S
C1306 H1288 0.951 . S
C1306 C1307 1.366 . S
C1306 C1308 1.388 . S
C1307 C1306 1.366 . S
C1307 C1311 1.385 . S
C1308 H1289 0.951 . S
C1308 C1306 1.388 . S
C1308 C1309 1.366 . S
C1309 C1308 1.366 . S
C1309 C1310 1.414 . S
C1309 C1312 1.499 . S
C1310 H1290 0.950 . S
C1310 C1309 1.414 . S
C1310 C1311 1.374 . S
C1311 H1291 0.950 . S
C1311 C1307 1.385 . S
C1311 C1310 1.374 . S
C1312 C1309 1.499 . S
C1312 C1313 1.373 . S
C1312 C1314 1.389 . S
C1313 H1292 0.950 . S
C1313 C1312 1.373 . S
C1313 C1329 1.377 . S
C1314 C1312 1.389 . S
C1314 C1315 1.524 . S
C1314 C1328 1.377 . S
C1315 C1314 1.524 . S
C1315 C1316 1.397 . S
C1315 C1320 1.363 1_556 S
C1316 H1293 0.950 . S
C1316 C1315 1.397 . S
C1316 C1317 1.334 1_556 S
C1317 H1294 0.950 . S
C1317 C1316 1.334 1_554 S
C1317 C1318 1.287 . S
C1318 C1317 1.287 . S
C1318 C1319 1.524 . S
C1318 H1337 0.913 . S
C1319 H1295 0.950 . S
C1319 C1318 1.524 . S
C1319 C1320 1.415 . S
C1320 H1296 0.950 . S
C1320 C1315 1.363 1_554 S
C1320 C1319 1.415 . S
C1321 H1297 0.951 1_655 S
C1321 C1322 1.366 . S
C1321 C1323 1.388 . S
C1322 C1321 1.366 . S
C1322 C1326 1.385 . S
C1323 H1298 0.951 1_655 S
C1323 C1321 1.388 . S
C1323 C1324 1.366 . S
C1324 C1323 1.366 . S
C1324 C1325 1.414 . S
C1324 C1327 1.499 . S
C1325 H1299 0.950 . S
C1325 C1324 1.414 . S
C1325 C1326 1.374 . S
C1326 H1300 0.950 1_556 S
C1326 C1322 1.385 . S
C1326 C1325 1.374 . S
C1327 C1324 1.499 . S
C1327 C1328 1.373 . S
C1327 C1329 1.389 . S
C1328 H1301 0.950 . S
C1328 C1314 1.377 . S
C1328 C1327 1.373 . S
C1329 C1313 1.377 . S
C1329 C1327 1.389 . S
C1329 C1330 1.524 . S
C1330 C1329 1.524 . S
C1330 C1331 1.397 . S
C1330 C1335 1.363 . S
C1331 H1302 0.950 . S
C1331 C1330 1.397 . S
C1331 C1332 1.334 . S
C1332 H1303 0.950 . S
C1332 C1331 1.334 . S
C1332 C1333 1.287 . S
C1333 C1332 1.287 . S
C1333 C1334 1.524 . S
C1333 H1336 0.999 . S
C1334 H1304 0.950 . S
C1334 C1333 1.524 . S
C1334 C1335 1.415 . S
C1335 H1305 0.950 . S
C1335 C1330 1.363 . S
C1335 C1334 1.415 . S
H1336 C1333 0.999 . S
H1337 C1318 0.913 . S
H1338 C1356 0.951 . S
H1339 C1358 0.951 . S
H1340 C1360 0.950 . S
H1341 C1361 0.950 . S
H1342 C1363 0.950 . S
H1343 C1366 0.950 . S
H1344 C1367 0.950 . S
H1345 C1369 0.950 . S
H1346 C1370 0.950 . S
H1347 C1371 0.951 . S
H1348 C1373 0.951 . S
H1349 C1375 0.950 . S
H1350 C1376 0.950 . S
H1351 C1378 0.950 . S
H1352 C1381 0.950 . S
H1353 C1382 0.950 . S
H1354 C1384 0.950 . S
H1355 C1385 0.950 . S
C1356 H1338 0.951 . S
C1356 C1357 1.366 . S
C1356 C1358 1.388 . S
C1357 C1356 1.366 . S
C1357 C1361 1.385 . S
C1358 H1339 0.951 . S
C1358 C1356 1.388 . S
C1358 C1359 1.366 . S
C1359 C1358 1.366 . S
C1359 C1360 1.414 . S
C1359 C1362 1.499 . S
C1360 H1340 0.950 . S
C1360 C1359 1.414 . S
C1360 C1361 1.374 . S
C1361 H1341 0.950 . S
C1361 C1357 1.385 . S
C1361 C1360 1.374 . S
C1362 C1359 1.499 . S
C1362 C1363 1.373 . S
C1362 C1364 1.389 . S
C1363 H1342 0.950 . S
C1363 C1362 1.373 . S
C1363 C1379 1.377 . S
C1364 C1362 1.389 . S
C1364 C1365 1.524 . S
C1364 C1378 1.377 . S
C1365 C1364 1.524 . S
C1365 C1366 1.397 . S
C1365 C1370 1.363 . S
C1366 H1343 0.950 . S
C1366 C1365 1.397 . S
C1366 C1367 1.334 . S
C1367 H1344 0.950 . S
C1367 C1366 1.334 . S
C1367 C1368 1.287 . S
C1368 C1367 1.287 . S
C1368 C1369 1.524 . S
C1368 H1387 0.913 . S
C1369 H1345 0.950 . S
C1369 C1368 1.524 . S
C1369 C1370 1.415 . S
C1370 H1346 0.950 . S
C1370 C1365 1.363 . S
C1370 C1369 1.415 . S
C1371 H1347 0.951 . S
C1371 C1372 1.366 . S
C1371 C1373 1.388 . S
C1372 C1371 1.366 . S
C1372 C1376 1.385 . S
C1373 H1348 0.951 . S
C1373 C1371 1.388 . S
C1373 C1374 1.366 . S
C1374 C1373 1.366 . S
C1374 C1375 1.414 . S
C1374 C1377 1.499 . S
C1375 H1349 0.950 . S
C1375 C1374 1.414 . S
C1375 C1376 1.374 . S
C1376 H1350 0.950 . S
C1376 C1372 1.385 . S
C1376 C1375 1.374 . S
C1377 C1374 1.499 . S
C1377 C1378 1.373 . S
C1377 C1379 1.389 . S
C1378 H1351 0.950 . S
C1378 C1364 1.377 . S
C1378 C1377 1.373 . S
C1379 C1363 1.377 . S
C1379 C1377 1.389 . S
C1379 C1380 1.524 . S
C1380 C1379 1.524 . S
C1380 C1381 1.397 . S
C1380 C1385 1.363 . S
C1381 H1352 0.950 . S
C1381 C1380 1.397 . S
C1381 C1382 1.334 . S
C1382 H1353 0.950 . S
C1382 C1381 1.334 . S
C1382 C1383 1.287 . S
C1383 C1382 1.287 . S
C1383 C1384 1.524 . S
C1383 H1386 0.999 . S
C1384 H1354 0.950 . S
C1384 C1383 1.524 . S
C1384 C1385 1.415 . S
C1385 H1355 0.950 . S
C1385 C1380 1.363 . S
C1385 C1384 1.415 . S
H1386 C1383 0.999 . S
H1387 C1368 0.913 . S
H1388 C1406 0.951 . S
H1389 C1408 0.951 . S
H1390 C1410 0.950 . S
H1391 C1411 0.950 . S
H1392 C1413 0.950 . S
H1393 C1416 0.950 . S
H1394 C1417 0.950 . S
H1395 C1419 0.950 1_655 S
H1396 C1420 0.950 . S
H1397 C1421 0.951 . S
H1398 C1423 0.951 . S
H1399 C1425 0.950 . S
H1400 C1426 0.950 . S
H1401 C1428 0.950 . S
H1402 C1431 0.950 . S
H1403 C1432 0.950 . S
H1404 C1434 0.950 . S
H1405 C1435 0.950 . S
C1406 H1388 0.951 . S
C1406 C1407 1.366 . S
C1406 C1408 1.388 . S
C1407 C1406 1.366 . S
C1407 C1411 1.385 . S
C1408 H1389 0.951 . S
C1408 C1406 1.388 . S
C1408 C1409 1.366 . S
C1409 C1408 1.366 . S
C1409 C1410 1.414 . S
C1409 C1412 1.499 . S
C1410 H1390 0.950 . S
C1410 C1409 1.414 . S
C1410 C1411 1.374 . S
C1411 H1391 0.950 . S
C1411 C1407 1.385 . S
C1411 C1410 1.374 . S
C1412 C1409 1.499 . S
C1412 C1413 1.373 . S
C1412 C1414 1.389 . S
C1413 H1392 0.950 . S
C1413 C1412 1.373 . S
C1413 C1429 1.377 . S
C1414 C1412 1.389 . S
C1414 C1415 1.524 . S
C1414 C1428 1.377 . S
C1415 C1414 1.524 . S
C1415 C1416 1.397 . S
C1415 C1420 1.363 . S
C1416 H1393 0.950 . S
C1416 C1415 1.397 . S
C1416 C1417 1.334 . S
C1417 H1394 0.950 . S
C1417 C1416 1.334 . S
C1417 C1418 1.287 . S
C1418 C1417 1.287 . S
C1418 C1419 1.524 . S
C1418 H1437 0.913 1_455 S
C1419 H1395 0.950 1_455 S
C1419 C1418 1.524 . S
C1419 C1420 1.415 . S
C1420 H1396 0.950 . S
C1420 C1415 1.363 . S
C1420 C1419 1.415 . S
C1421 H1397 0.951 . S
C1421 C1422 1.366 . S
C1421 C1423 1.388 . S
C1422 C1421 1.366 . S
C1422 C1426 1.385 . S
C1423 H1398 0.951 . S
C1423 C1421 1.388 . S
C1423 C1424 1.366 . S
C1424 C1423 1.366 . S
C1424 C1425 1.414 . S
C1424 C1427 1.499 . S
C1425 H1399 0.950 . S
C1425 C1424 1.414 . S
C1425 C1426 1.374 . S
C1426 H1400 0.950 . S
C1426 C1422 1.385 . S
C1426 C1425 1.374 . S
C1427 C1424 1.499 . S
C1427 C1428 1.373 . S
C1427 C1429 1.389 . S
C1428 H1401 0.950 . S
C1428 C1414 1.377 . S
C1428 C1427 1.373 . S
C1429 C1413 1.377 . S
C1429 C1427 1.389 . S
C1429 C1430 1.524 . S
C1430 C1429 1.524 . S
C1430 C1431 1.397 . S
C1430 C1435 1.363 . S
C1431 H1402 0.950 . S
C1431 C1430 1.397 . S
C1431 C1432 1.334 . S
C1432 H1403 0.950 . S
C1432 C1431 1.334 . S
C1432 C1433 1.287 . S
C1433 C1432 1.287 . S
C1433 C1434 1.524 . S
C1433 H1436 0.999 . S
C1434 H1404 0.950 . S
C1434 C1433 1.524 . S
C1434 C1435 1.415 . S
C1435 H1405 0.950 . S
C1435 C1430 1.363 . S
C1435 C1434 1.415 . S
H1436 C1433 0.999 . S
H1437 C1418 0.913 1_655 S
H1438 C1456 0.951 . S
H1439 C1458 0.951 . S
H1440 C1460 0.950 . S
H1441 C1461 0.950 . S
H1442 C1463 0.950 . S
H1443 C1466 0.950 . S
H1444 C1467 0.950 . S
H1445 C1469 0.950 . S
H1446 C1470 0.950 . S
H1447 C1471 0.951 . S
H1448 C1473 0.951 . S
H1449 C1475 0.950 . S
H1450 C1476 0.950 . S
H1451 C1478 0.950 . S
H1452 C1481 0.950 . S
H1453 C1482 0.950 . S
H1454 C1484 0.950 . S
H1455 C1485 0.950 . S
C1456 H1438 0.951 . S
C1456 C1457 1.366 . S
C1456 C1458 1.388 . S
C1457 C1456 1.366 . S
C1457 C1461 1.385 . S
C1458 H1439 0.951 . S
C1458 C1456 1.388 . S
C1458 C1459 1.366 . S
C1459 C1458 1.366 . S
C1459 C1460 1.414 . S
C1459 C1462 1.499 . S
C1460 H1440 0.950 . S
C1460 C1459 1.414 . S
C1460 C1461 1.374 . S
C1461 H1441 0.950 . S
C1461 C1457 1.385 . S
C1461 C1460 1.374 . S
C1462 C1459 1.499 . S
C1462 C1463 1.373 . S
C1462 C1464 1.389 . S
C1463 H1442 0.950 . S
C1463 C1462 1.373 . S
C1463 C1479 1.377 . S
C1464 C1462 1.389 . S
C1464 C1465 1.524 . S
C1464 C1478 1.377 . S
C1465 C1464 1.524 . S
C1465 C1466 1.397 . S
C1465 C1470 1.363 . S
C1466 H1443 0.950 . S
C1466 C1465 1.397 . S
C1466 C1467 1.334 . S
C1467 H1444 0.950 . S
C1467 C1466 1.334 . S
C1467 C1468 1.287 . S
C1468 C1467 1.287 . S
C1468 C1469 1.524 . S
C1468 H1487 0.913 . S
C1469 H1445 0.950 . S
C1469 C1468 1.524 . S
C1469 C1470 1.415 . S
C1470 H1446 0.950 . S
C1470 C1465 1.363 . S
C1470 C1469 1.415 . S
C1471 H1447 0.951 . S
C1471 C1472 1.366 . S
C1471 C1473 1.388 . S
C1472 C1471 1.366 . S
C1472 C1476 1.385 . S
C1473 H1448 0.951 . S
C1473 C1471 1.388 . S
C1473 C1474 1.366 . S
C1474 C1473 1.366 . S
C1474 C1475 1.414 . S
C1474 C1477 1.499 . S
C1475 H1449 0.950 . S
C1475 C1474 1.414 . S
C1475 C1476 1.374 . S
C1476 H1450 0.950 . S
C1476 C1472 1.385 . S
C1476 C1475 1.374 . S
C1477 C1474 1.499 . S
C1477 C1478 1.373 . S
C1477 C1479 1.389 . S
C1478 H1451 0.950 . S
C1478 C1464 1.377 . S
C1478 C1477 1.373 . S
C1479 C1463 1.377 . S
C1479 C1477 1.389 . S
C1479 C1480 1.524 . S
C1480 C1479 1.524 . S
C1480 C1481 1.397 . S
C1480 C1485 1.363 . S
C1481 H1452 0.950 . S
C1481 C1480 1.397 . S
C1481 C1482 1.334 . S
C1482 H1453 0.950 . S
C1482 C1481 1.334 . S
C1482 C1483 1.287 . S
C1483 C1482 1.287 . S
C1483 C1484 1.524 . S
C1483 H1486 0.999 . S
C1484 H1454 0.950 . S
C1484 C1483 1.524 . S
C1484 C1485 1.415 . S
C1485 H1455 0.950 . S
C1485 C1480 1.363 . S
C1485 C1484 1.415 . S
H1486 C1483 0.999 . S
H1487 C1468 0.913 . S
C307 C6 2.647 . S
C322 C152 2.664 . S
C357 C21 2.937 . S
C372 C194 2.954 1_556 S
C422 C224 0.326 . S
C407 C49 0.477 . S
C457 C68 0.772 . S
C472 C258 0.787 . S
C522 C215 2.688 . S
C507 C2 2.666 . S
C572 C169 1.614 . S
C557 C30 1.416 . S
C622 C262 0.952 1_556 S
C607 C40 0.952 . S
C672 C228 1.021 . S
C657 C63 1.011 . S
C707 C11 2.018 . S
C722 C283 2.242 . S
C772 C190 1.246 . S
C757 C44 1.237 . S
C807 C59 0.752 . S
C822 C165 0.752 . S
C857 C25 2.486 . S
C872 C249 2.505 . S
C922 C181 2.893 . S
C907 C82 2.874 . S
C957 C101 2.595 . S
C972 C203 2.606 . S
C1007 C125 0.735 . S
C1022 C233 0.733 . S
C1057 C144 0.650 . S
C1072 C267 0.455 . S
C1107 C87 1.474 . S
C1122 C186 1.641 . S
C1172 C160 2.645 . S
C1157 C97 2.630 . S
C1222 C271 0.940 . S
C1207 C120 0.935 . S
C1272 C237 1.076 . S
C1257 C135 1.066 . S
C1307 C78 2.624 . S
C1322 C254 2.637 1_556 S
C1372 C199 0.725 . S
C1357 C116 0.726 . S
C1422 C156 1.230 . S
C1407 C139 1.212 . S
C1457 C106 2.077 . S
C1472 C220 2.200 . S
