# Generated by pormake.
# Topology pth, (4,4)-cn, num edge types: 1
# Building blocks:
#     Node 0, Type 0, BuildingBlock: UXUYUI_clean_sbu_0, # of connection points: 4
#     Node 1, Type 0, BuildingBlock: UXUYUI_clean_sbu_0, # of connection points: 4
#     Node 2, Type 0, BuildingBlock: UXUYUI_clean_sbu_0, # of connection points: 4
#     Node 3, Type 1, BuildingBlock: MUDLON_clean_linker_0, # of connection points: 4
#     Node 4, Type 1, BuildingBlock: MUDLON_clean_linker_0, # of connection points: 4
#     Node 5, Type 1, BuildingBlock: MUDLON_clean_linker_0, # of connection points: 4
#     Edge 6, Type (0, 1), None
#     Edge 7, Type (0, 1), None
#     Edge 8, Type (0, 1), None
#     Edge 9, Type (0, 1), None
#     Edge 10, Type (0, 1), None
#     Edge 11, Type (0, 1), None
#     Edge 12, Type (0, 1), None
#     Edge 13, Type (0, 1), None
#     Edge 14, Type (0, 1), None
#     Edge 15, Type (0, 1), None
#     Edge 16, Type (0, 1), None
#     Edge 17, Type (0, 1), None
# Relax obj value: 0.092
# Max RMSD: 0.214
# Mean RMSD: 0.143
data_MOF--net-pth--node1-UXUYUI_clean_sbu_0--node2-MUDLON_clean_linker_0--edge1-none
_symmetry_space_group_name_H-M    P1
_symmetry_Int_Tables_number       1
_symmetry_cell_setting            triclinic
loop_
_symmetry_equiv_pos_as_xyz
'x, y, z'
_cell_length_a     25.662367
_cell_length_b     25.65817
_cell_length_c     51.240324
_cell_angle_alpha  89.984641
_cell_angle_beta   89.932545
_cell_angle_gamma 119.99474
loop_
_atom_site_label
_atom_site_type_symbol
_atom_site_fract_x
_atom_site_fract_y
_atom_site_fract_z
_atom_type_partial_charge
Li0 Li 0.05138 0.04951 0.01992 0.0
Li1 Li 0.98232 0.0398 0.05452 0.0
Li2 Li 0.02122 0.97016 0.05295 0.0
Li3 Li 0.94798 0.9619 0.02058 0.0
C4 C 0.12543 0.09574 0.06406 0.0
N5 N 0.24497 0.17156 0.07644 0.0
C6 C 0.14477 0.15429 0.0727 0.0
C7 C 0.16674 0.07551 0.06205 0.0
C8 C 0.20544 0.19202 0.07875 0.0
C9 C 0.22701 0.11458 0.06832 0.0
C10 C 0.97936 0.10342 0.01097 0.0
C11 C 0.94483 0.16404 0.98935 0.0
N12 N 0.99255 0.21448 0.99927 0.0
C13 C 0.028 0.1558 0.02098 0.0
C14 C 0.93738 0.10745 0.99503 0.0
C15 C 0.03393 0.21154 0.01483 0.0
C16 C 0.08142 0.0998 0.9716 0.0
N17 N 0.10786 0.10442 0.9951 0.0
C18 C 0.19893 0.19002 0.98021 0.0
C19 C 0.16586 0.14786 0.99965 0.0
C20 C 0.17142 0.18777 0.95624 0.0
C21 C 0.11226 0.14142 0.9519 0.0
H22 H 0.0353 0.0648 0.96851 0.0
H23 H 0.18614 0.15111 0.01843 0.0
C24 C 0.99094 0.09002 0.10245 0.0
N25 N 0.96429 0.08411 0.07892 0.0
C26 C 0.98608 0.12517 0.12192 0.0
C27 C 0.92508 0.14671 0.09285 0.0
C28 C 0.93107 0.11084 0.07384 0.0
C29 C 0.95351 0.15483 0.11719 0.0
H30 H 0.01677 0.06789 0.10593 0.0
H31 H 0.91008 0.10519 0.05498 0.0
C32 C 0.05594 0.93539 0.00801 0.0
N33 N 0.11878 0.87765 0.995 0.0
C34 C 0.0251 0.87361 1.00297 0.0
C35 C 0.1186 0.96806 0.00592 0.0
C36 C 0.05772 0.84515 0.99657 0.0
C37 C 0.1496 0.93798 0.99945 0.0
C38 C 0.87806 0.93187 0.06543 0.0
C39 C 0.85036 0.89121 0.08592 0.0
C40 C 0.84593 0.95389 0.05178 0.0
C41 C 0.79082 0.8732 0.09244 0.0
C42 C 0.7865 0.93481 0.05891 0.0
N43 N 0.76041 0.8952 0.07892 0.0
C44 C 0.07084 0.94985 0.09799 0.0
C45 C 0.01517 0.86308 0.0719 0.0
C46 C 0.07689 0.91546 0.11757 0.0
N47 N 0.04049 0.92339 0.07569 0.0
C48 C 0.01998 0.82683 0.09105 0.0
C49 C 0.05044 0.85288 0.11445 0.0
H50 H 0.08776 0.99725 0.10121 0.0
H51 H 0.9887 0.8426 0.05462 0.0
C52 C 0.88576 0.92808 0.97351 0.0
N53 N 0.8876 0.90737 0.99769 0.0
C54 C 0.85111 0.88799 0.95389 0.0
C55 C 0.8192 0.80622 0.98474 0.0
C56 C 0.85459 0.84798 0.00378 0.0
C57 C 0.81837 0.8259 0.95918 0.0
H58 H 0.91376 0.97544 0.96911 0.0
H59 H 0.85799 0.83278 0.02307 0.0
O60 O 0.06611 0.05816 0.05821 0.0
O61 O 0.97263 0.04829 0.01664 0.0
O62 O 0.02471 0.96396 0.01421 0.0
O63 O 0.93639 0.94988 0.05898 0.0
H64 H 0.11326 0.17044 0.07476 0.0
H65 H 0.15239 0.03003 0.05587 0.0
H66 H 0.22108 0.23751 0.08535 0.0
H67 H 0.25948 0.09955 0.06679 0.0
H68 H 0.91267 0.16786 0.97704 0.0
H69 H 0.06085 0.15341 0.03329 0.0
H70 H 0.89942 0.06723 0.98717 0.0
H71 H 0.07141 0.25245 0.02242 0.0
H72 H 0.24459 0.22523 0.98419 0.0
H73 H 0.08986 0.13775 0.93352 0.0
H74 H 0.00749 0.12881 0.14056 0.0
H75 H 0.8996 0.16879 0.08835 0.0
H76 H 0.97649 0.84789 0.00414 0.0
H77 H 0.14301 0.01617 0.0091 0.0
H78 H 0.03449 0.79726 0.99283 0.0
H79 H 0.19815 0.96264 0.99789 0.0
H80 H 0.87468 0.87378 0.09667 0.0
H81 H 0.86642 0.9853 0.03585 0.0
H82 H 0.76881 0.84174 0.10826 0.0
H83 H 0.76112 0.9515 0.04852 0.0
H84 H 0.09937 0.93732 0.13553 0.0
H85 H 0.99879 0.77879 0.08783 0.0
H86 H 0.85272 0.90522 0.93443 0.0
H87 H 0.79421 0.75891 0.98977 0.0
Li88 Li 0.97926 0.94714 0.35492 0.0
Li89 Li 0.04198 0.01727 0.38795 0.0
Li90 Li 0.93179 0.97863 0.38714 0.0
Li91 Li 0.99428 0.04864 0.35266 0.0
C92 C 0.95808 0.87559 0.39747 0.0
N93 N 0.9231 0.75624 0.40604 0.0
C94 C 0.99883 0.86007 0.40787 0.0
C95 C 0.89943 0.83056 0.39168 0.0
C96 C 0.9803 0.79942 0.412 0.0
C97 C 0.88264 0.77044 0.39607 0.0
C98 C 0.08875 0.00785 0.33407 0.0
C99 C 0.11771 0.99386 0.291 0.0
N100 N 0.14859 0.96888 0.30173 0.0
C101 C 0.12097 0.98227 0.34469 0.0
C102 C 0.08733 0.01404 0.30702 0.0
C103 C 0.15093 0.96284 0.32801 0.0
C104 C 0.95 0.88443 0.30772 0.0
N105 N 0.97301 0.88567 0.33175 0.0
C106 C 0.00653 0.81855 0.31756 0.0
C107 C 0.99984 0.85267 0.33709 0.0
C108 C 0.98612 0.81895 0.29216 0.0
C109 C 0.95601 0.8512 0.28756 0.0
H110 H 0.93036 0.91236 0.30378 0.0
H111 H 0.01981 0.85593 0.35595 0.0
C112 C 0.08549 0.01469 0.43625 0.0
N113 N 0.10529 0.03714 0.41197 0.0
C114 C 0.12604 0.01995 0.45551 0.0
C115 C 0.20733 0.07348 0.42476 0.0
C116 C 0.1649 0.06689 0.40593 0.0
C117 C 0.1878 0.04881 0.4498 0.0
H118 H 0.03776 0.99134 0.44043 0.0
H119 H 0.17936 0.08416 0.3864 0.0
C120 C 0.86029 0.95254 0.34381 0.0
N121 N 0.74116 0.91468 0.33305 0.0
C122 C 0.84135 0.99464 0.34075 0.0
C123 C 0.81887 0.89126 0.34106 0.0
C124 C 0.78087 0.97459 0.33542 0.0
C125 C 0.75877 0.87299 0.33571 0.0
C126 C 0.03589 0.12269 0.39716 0.0
C127 C 0.01731 0.15336 0.41384 0.0
C128 C 0.09409 0.15253 0.38676 0.0
C129 C 0.0573 0.21363 0.4198 0.0
C130 C 0.13275 0.21279 0.39322 0.0
N131 N 0.11371 0.24184 0.40946 0.0
C132 C 0.85674 0.92251 0.43061 0.0
C133 C 0.83802 0.99278 0.4087 0.0
C134 C 0.81689 0.91636 0.45055 0.0
N135 N 0.86679 0.96052 0.41032 0.0
C136 C 0.79728 0.98755 0.42807 0.0
C137 C 0.78714 0.94986 0.4497 0.0
H138 H 0.88193 0.89923 0.43206 0.0
H139 H 0.84868 0.02466 0.393 0.0
C140 C 0.97528 0.08011 0.30437 0.0
N141 N 0.99645 0.10547 0.3281 0.0
C142 C 0.96544 0.11202 0.28488 0.0
C143 C 0.00194 0.19711 0.31408 0.0
C144 C 0.01021 0.16302 0.33328 0.0
C145 C 0.97803 0.17096 0.28974 0.0
H146 H 0.96388 0.03401 0.30093 0.0
H147 H 0.02563 0.18195 0.35244 0.0
O148 O 0.97541 0.93467 0.39329 0.0
O149 O 0.05785 0.02569 0.35005 0.0
O150 O 0.91941 0.97127 0.34876 0.0
O151 O 0.99727 0.06357 0.39137 0.0
H152 H 0.04443 0.89446 0.41247 0.0
H153 H 0.86722 0.84201 0.38398 0.0
H154 H 0.01142 0.78668 0.41989 0.0
H155 H 0.83742 0.73508 0.39161 0.0
H156 H 0.11662 0.99793 0.27002 0.0
H157 H 0.12173 0.97624 0.36555 0.0
H158 H 0.06255 0.03367 0.29849 0.0
H159 H 0.17559 0.94248 0.33595 0.0
H160 H 0.02951 0.79395 0.32209 0.0
H161 H 0.94035 0.85367 0.26823 0.0
H162 H 0.10911 0.00145 0.4747 0.0
H163 H 0.25457 0.09604 0.41958 0.0
H164 H 0.8729 0.0423 0.3427 0.0
H165 H 0.83307 0.85818 0.34281 0.0
H166 H 0.7655 0.00665 0.33317 0.0
H167 H 0.72617 0.82568 0.33358 0.0
H168 H 0.97241 0.13077 0.42209 0.0
H169 H 0.10925 0.12964 0.37377 0.0
H170 H 0.04352 0.23796 0.43267 0.0
H171 H 0.17787 0.23647 0.3853 0.0
H172 H 0.81187 0.88786 0.46705 0.0
H173 H 0.7752 0.01396 0.42639 0.0
H174 H 0.94746 0.09055 0.26626 0.0
H175 H 0.01184 0.24242 0.31852 0.0
Li176 Li 0.04135 0.99418 0.68644 0.0
Li177 Li 0.03202 0.05294 0.72137 0.0
Li178 Li 0.96299 0.94428 0.71983 0.0
Li179 Li 0.95336 0.0092 0.68781 0.0
C180 C 0.08881 0.96615 0.7302 0.0
N181 N 0.16494 0.92241 0.74197 0.0
C182 C 0.1474 0.00527 0.73879 0.0
C183 C 0.06871 0.90468 0.72793 0.0
C184 C 0.18527 0.98231 0.74454 0.0
C185 C 0.10793 0.88347 0.7339 0.0
C186 C 0.09455 0.11991 0.67773 0.0
C187 C 0.15489 0.21509 0.65602 0.0
N188 N 0.20545 0.21776 0.66577 0.0
C189 C 0.14706 0.12362 0.68756 0.0
C190 C 0.09838 0.16595 0.66184 0.0
C191 C 0.20272 0.17342 0.68128 0.0
C192 C 0.09048 0.01491 0.63784 0.0
N193 N 0.09604 0.9934 0.66128 0.0
C194 C 0.18253 0.99006 0.64605 0.0
C195 C 0.14038 0.98001 0.66563 0.0
C196 C 0.17933 0.01507 0.62214 0.0
C197 C 0.13202 0.02657 0.61799 0.0
H198 H 0.05482 0.02518 0.63493 0.0
H199 H 0.1444 0.96329 0.68437 0.0
C200 C 0.08335 0.09435 0.7691 0.0
N201 N 0.07669 0.11517 0.74571 0.0
C202 C 0.11908 0.13429 0.78845 0.0
C203 C 0.13961 0.21694 0.75955 0.0
C204 C 0.10316 0.17514 0.74067 0.0
C205 C 0.14857 0.19654 0.78373 0.0
H206 H 0.06142 0.04637 0.77255 0.0
H207 H 0.09692 0.19054 0.72192 0.0
C208 C 0.92781 0.87514 0.67476 0.0
N209 N 0.87126 0.7548 0.66146 0.0
C210 C 0.8659 0.8435 0.67009 0.0
C211 C 0.9612 0.846 0.67215 0.0
C212 C 0.83806 0.78256 0.66354 0.0
C213 C 0.93172 0.78502 0.66555 0.0
C214 C 0.92404 0.04836 0.73305 0.0
C215 C 0.88389 0.03501 0.75378 0.0
C216 C 0.94537 0.10257 0.71947 0.0
C217 C 0.86569 0.07621 0.76062 0.0
C218 C 0.92612 0.14259 0.72692 0.0
N219 N 0.88701 0.1287 0.74717 0.0
C220 C 0.94441 0.87447 0.76481 0.0
C221 C 0.85693 0.84249 0.73913 0.0
C222 C 0.91075 0.83386 0.7845 0.0
N223 N 0.91725 0.87802 0.74266 0.0
C224 C 0.82141 0.80126 0.75839 0.0
C225 C 0.84818 0.79721 0.78165 0.0
H226 H 0.99178 0.90534 0.76784 0.0
H227 H 0.83587 0.84818 0.72197 0.0
C228 C 0.91825 0.03994 0.64154 0.0
N229 N 0.89793 0.01493 0.66542 0.0
C230 C 0.87771 0.03498 0.62222 0.0
C231 C 0.79623 0.9803 0.65277 0.0
C232 C 0.83844 0.98638 0.67153 0.0
C233 C 0.8156 0.00351 0.6275 0.0
H234 H 0.96574 0.061 0.63709 0.0
H235 H 0.8236 0.9659 0.69056 0.0
O236 O 0.05109 0.9879 0.72462 0.0
O237 O 0.0395 0.07148 0.68351 0.0
O238 O 0.9558 0.93485 0.68107 0.0
O239 O 0.94227 0.00838 0.72629 0.0
H240 H 0.16345 0.05287 0.74103 0.0
H241 H 0.0232 0.87361 0.7218 0.0
H242 H 0.2308 0.0121 0.75109 0.0
H243 H 0.093 0.83603 0.73216 0.0
H244 H 0.15855 0.25109 0.64375 0.0
H245 H 0.14486 0.08838 0.69984 0.0
H246 H 0.05807 0.16375 0.65412 0.0
H247 H 0.24373 0.17682 0.68873 0.0
H248 H 0.21849 0.98062 0.64989 0.0
H249 H 0.12761 0.04506 0.59967 0.0
H250 H 0.12336 0.11646 0.80698 0.0
H251 H 0.16152 0.26451 0.75507 0.0
H252 H 0.83961 0.86573 0.67165 0.0
H253 H 0.00939 0.87025 0.67503 0.0
H254 H 0.79008 0.75735 0.66007 0.0
H255 H 0.95694 0.76179 0.6636 0.0
H256 H 0.86701 0.99321 0.76447 0.0
H257 H 0.97639 0.11379 0.70336 0.0
H258 H 0.83462 0.06646 0.77664 0.0
H259 H 0.94227 0.1847 0.71661 0.0
H260 H 0.93315 0.83352 0.80234 0.0
H261 H 0.77334 0.77398 0.75537 0.0
H262 H 0.8947 0.05273 0.60296 0.0
H263 H 0.74888 0.95622 0.65777 0.0
H264 H 0.94112 0.71522 0.21325 0.0
N265 N 0.04891 0.71986 0.20493 0.0
H266 H 0.91462 0.75672 0.25053 0.0
H267 H 0.11586 0.77392 0.24657 0.0
H268 H 0.09048 0.81695 0.28373 0.0
H269 H 0.1416 0.81955 0.18602 0.0
H270 H 0.14382 0.87651 0.14727 0.0
H271 H 0.95735 0.68679 0.16988 0.0
H272 H 0.95839 0.74409 0.13147 0.0
H273 H 0.95631 0.62615 0.23289 0.0
H274 H 0.09155 0.66659 0.17371 0.0
H275 H 0.92837 0.52157 0.23155 0.0
H276 H 0.06057 0.5602 0.17111 0.0
H277 H 0.85235 0.18039 0.22727 0.0
H278 H 0.8727 0.13137 0.26372 0.0
H279 H 0.0524 0.2835 0.2701 0.0
H280 H 0.03251 0.33182 0.23347 0.0
H281 H 0.03191 0.28589 0.18744 0.0
H282 H 0.04205 0.23245 0.15028 0.0
H283 H 0.855 0.16398 0.13096 0.0
H284 H 0.846 0.2198 0.16786 0.0
H285 H 0.85579 0.3264 0.21073 0.0
H286 H 0.88063 0.43151 0.20879 0.0
H287 H 0.06658 0.48484 0.19343 0.0
N288 N 0.92868 0.28232 0.20375 0.0
H289 H 0.04026 0.37989 0.19359 0.0
C290 C 0.03076 0.74167 0.22716 0.0
C291 C 0.9739 0.73726 0.22856 0.0
C292 C 0.9588 0.76105 0.24992 0.0
C293 C 1.0003 0.79005 0.27021 0.0
C294 C 0.0569 0.79386 0.26877 0.0
C295 C 0.07177 0.76976 0.24748 0.0
C296 C 0.04948 0.74933 0.18085 0.0
C297 C 0.1018 0.80261 0.17394 0.0
C298 C 0.1028 0.83516 0.15191 0.0
C299 C 0.05119 0.81507 0.13632 0.0
C300 C 0.99915 0.76052 0.14285 0.0
C301 C 0.99826 0.72794 0.16493 0.0
C302 C 0.02642 0.65557 0.20315 0.0
C303 C 0.97953 0.61304 0.21911 0.0
C304 C 0.96296 0.55224 0.21824 0.0
C305 C 0.99203 0.53183 0.20123 0.0
C306 C 0.03778 0.57404 0.18486 0.0
C307 C 0.0551 0.63501 0.18607 0.0
C308 C 0.94031 0.25986 0.22759 0.0
C309 C 0.89575 0.20361 0.23683 0.0
C310 C 0.90757 0.17557 0.25747 0.0
C311 C 0.96425 0.20362 0.26955 0.0
C312 C 0.00825 0.26115 0.26117 0.0
C313 C 0.9967 0.28885 0.24017 0.0
C314 C 0.93808 0.25706 0.18032 0.0
C315 C 0.99348 0.26071 0.17488 0.0
C316 C 0.99895 0.22934 0.15378 0.0
C317 C 0.94908 0.19322 0.13782 0.0
C318 C 0.89439 0.19166 0.14271 0.0
C319 C 0.88908 0.22334 0.16378 0.0
C320 C 0.94598 0.3451 0.2027 0.0
C321 C 0.90181 0.361 0.20687 0.0
C322 C 0.91632 0.42123 0.20593 0.0
C323 C 0.97586 0.46724 0.20114 0.0
C324 C 0.02008 0.45096 0.19678 0.0
C325 C 0.0052 0.39059 0.19724 0.0
H326 H 0.75353 0.05573 0.55144 0.0
N327 N 0.65388 0.94649 0.54076 0.0
H328 H 0.82145 0.07954 0.58847 0.0
H329 H 0.64227 0.87566 0.58084 0.0
H330 H 0.71043 0.89875 0.61792 0.0
H331 H 0.65737 0.8537 0.51961 0.0
H332 H 0.7121 0.85339 0.48053 0.0
H333 H 0.71864 0.04191 0.50809 0.0
H334 H 0.7763 0.04328 0.46994 0.0
H335 H 0.64531 0.03067 0.57214 0.0
H336 H 0.56553 0.91293 0.50579 0.0
H337 H 0.57029 0.06067 0.56938 0.0
H338 H 0.49169 0.94568 0.50226 0.0
H339 H 0.31187 0.14529 0.55986 0.0
H340 H 0.2422 0.12166 0.59654 0.0
H341 H 0.22001 0.94377 0.60144 0.0
H342 H 0.28854 0.96693 0.56462 0.0
H343 H 0.23955 0.96951 0.51991 0.0
H344 H 0.17535 0.96037 0.48319 0.0
H345 H 0.29743 0.14574 0.46236 0.0
H346 H 0.36249 0.15416 0.49912 0.0
H347 H 0.45652 0.14245 0.54636 0.0
H348 H 0.53603 0.1163 0.54581 0.0
H349 H 0.40535 0.93468 0.52303 0.0
N350 N 0.34078 0.07203 0.53566 0.0
H351 H 0.32754 0.96223 0.5223 0.0
C352 C 0.69289 0.96349 0.56328 0.0
C353 C 0.74377 0.02121 0.56582 0.0
C354 C 0.78257 0.03482 0.58708 0.0
C355 C 0.77154 0.99106 0.60618 0.0
C356 C 0.71986 0.93386 0.60383 0.0
C357 C 0.68105 0.92036 0.58259 0.0
C358 C 0.68445 0.94773 0.51689 0.0
C359 C 0.68284 0.89496 0.5086 0.0
C360 C 0.71452 0.89508 0.48638 0.0
C361 C 0.74918 0.94842 0.47208 0.0
C362 C 0.74961 0.00114 0.48017 0.0
C363 C 0.71732 0.00073 0.50225 0.0
C364 C 0.61279 0.96988 0.5387 0.0
C365 C 0.61297 0.012 0.55649 0.0
C366 C 0.5696 0.02964 0.55489 0.0
C367 C 0.52483 0.00597 0.53552 0.0
C368 C 0.52489 0.96441 0.51767 0.0
C369 C 0.56774 0.94617 0.51946 0.0
C370 C 0.30609 0.05849 0.55946 0.0
C371 C 0.29274 0.10157 0.56912 0.0
C372 C 0.25272 0.08787 0.5899 0.0
C373 C 0.22558 0.03076 0.60165 0.0
C374 C 0.24065 0.98822 0.59278 0.0
C375 C 0.28009 0.00166 0.57168 0.0
C376 C 0.30606 0.06275 0.51225 0.0
C377 C 0.25336 0.00786 0.50719 0.0
C378 C 0.21626 0.00289 0.48631 0.0
C379 C 0.23088 0.05262 0.47009 0.0
C380 C 0.28506 0.10658 0.47443 0.0
C381 C 0.32219 0.11151 0.49538 0.0
C382 C 0.38613 0.05455 0.53456 0.0
C383 C 0.44539 0.09716 0.54109 0.0
C384 C 0.4906 0.08191 0.54095 0.0
C385 C 0.47727 0.02317 0.53452 0.0
C386 C 0.41772 0.98058 0.5277 0.0
C387 C 0.37275 0.99619 0.52751 0.0
H388 H 0.7119 0.76667 0.88102 0.0
N389 N 0.71698 0.6639 0.87227 0.0
H390 H 0.75419 0.83457 0.91822 0.0
H391 H 0.77062 0.65013 0.91391 0.0
H392 H 0.81418 0.71834 0.95108 0.0
H393 H 0.81725 0.67264 0.85306 0.0
H394 H 0.87341 0.72813 0.81424 0.0
H395 H 0.68297 0.72254 0.83764 0.0
H396 H 0.73941 0.77944 0.79919 0.0
H397 H 0.62334 0.66104 0.90101 0.0
H398 H 0.66357 0.56992 0.84006 0.0
H399 H 0.51866 0.58498 0.89912 0.0
H400 H 0.5571 0.49519 0.83696 0.0
H401 H 0.17819 0.32291 0.89432 0.0
H402 H 0.13075 0.2536 0.93099 0.0
H403 H 0.28272 0.22531 0.93539 0.0
H404 H 0.32941 0.29343 0.89857 0.0
H405 H 0.28207 0.24879 0.85297 0.0
H406 H 0.22734 0.18544 0.81601 0.0
H407 H 0.15831 0.30422 0.7979 0.0
H408 H 0.21546 0.36886 0.83459 0.0
H409 H 0.32368 0.46512 0.87777 0.0
H410 H 0.42896 0.54505 0.87615 0.0
H411 H 0.48119 0.41255 0.85849 0.0
N412 N 0.27906 0.3484 0.86982 0.0
H413 H 0.37612 0.33439 0.85836 0.0
C414 C 0.73858 0.70339 0.89464 0.0
C415 C 0.73408 0.75578 0.89623 0.0
C416 C 0.75827 0.79457 0.91756 0.0
C417 C 0.78772 0.78206 0.93766 0.0
C418 C 0.79098 0.72897 0.93621 0.0
C419 C 0.76659 0.69013 0.91491 0.0
C420 C 0.74631 0.69366 0.84827 0.0
C421 C 0.79983 0.69535 0.84114 0.0
C422 C 0.8319 0.7273 0.81907 0.0
C423 C 0.81108 0.75847 0.80365 0.0
C424 C 0.75639 0.75537 0.81043 0.0
C425 C 0.7243 0.72331 0.83254 0.0
C426 C 0.65267 0.62225 0.87039 0.0
C427 C 0.61018 0.62569 0.88673 0.0
C428 C 0.54932 0.5818 0.88556 0.0
C429 C 0.52882 0.53359 0.86786 0.0
C430 C 0.57101 0.53086 0.8512 0.0
C431 C 0.63203 0.57413 0.8527 0.0
C432 C 0.25744 0.31404 0.89366 0.0
C433 C 0.2017 0.30255 0.90348 0.0
C434 C 0.17458 0.26274 0.92426 0.0
C435 C 0.20307 0.23399 0.93586 0.0
C436 C 0.26007 0.24724 0.92685 0.0
C437 C 0.28684 0.28644 0.90574 0.0
C438 C 0.25311 0.31394 0.84643 0.0
C439 C 0.25651 0.26216 0.84071 0.0
C440 C 0.22438 0.22543 0.81973 0.0
C441 C 0.18771 0.23928 0.80418 0.0
C442 C 0.18639 0.29243 0.80933 0.0
C443 C 0.21884 0.32933 0.83028 0.0
C444 C 0.34184 0.39377 0.86856 0.0
C445 C 0.35807 0.45367 0.87342 0.0
C446 C 0.41838 0.49917 0.87268 0.0
C447 C 0.46413 0.48554 0.8674 0.0
C448 C 0.44751 0.42526 0.86225 0.0
C449 C 0.38706 0.38002 0.86251 0.0
loop_
_geom_bond_atom_site_label_1
_geom_bond_atom_site_label_2
_geom_bond_distance
_geom_bond_site_symmetry_2
_ccdc_geom_bond_type
Li0 N17 1.990 1_554 S
Li0 O60 1.956 . S
Li0 O61 1.970 1_455 S
Li0 O62 1.961 1_545 S
Li1 N25 1.990 . S
Li1 O60 1.970 1_655 S
Li1 O61 1.956 . S
Li1 O63 1.961 1_545 S
Li2 N47 1.990 . S
Li2 O60 1.961 1_565 S
Li2 O62 1.956 . S
Li2 O63 1.970 1_455 S
Li3 N53 1.990 1_554 S
Li3 O61 1.961 1_565 S
Li3 O62 1.970 1_655 S
Li3 O63 1.956 . S
C4 C6 1.348 . S
C4 C7 1.356 . S
C4 O60 1.325 . S
N5 C8 1.314 . S
N5 C9 1.279 . S
C6 C4 1.348 . S
C6 C8 1.353 . S
C6 H64 0.929 . S
C7 C4 1.356 . S
C7 C9 1.358 . S
C7 H65 0.930 . S
C8 N5 1.314 . S
C8 C6 1.353 . S
C8 H66 0.930 . S
C9 N5 1.279 . S
C9 C7 1.358 . S
C9 H67 0.930 . S
C10 C13 1.348 1_655 S
C10 C14 1.356 . S
C10 O61 1.325 1_556 S
C11 N12 1.279 . S
C11 C14 1.358 . S
C11 H68 0.930 . S
N12 C11 1.279 . S
N12 C15 1.314 . S
C13 C10 1.348 1_455 S
C13 C15 1.353 1_455 S
C13 H69 0.929 . S
C14 C10 1.356 . S
C14 C11 1.358 . S
C14 H70 0.930 1_556 S
C15 N12 1.314 . S
C15 C13 1.353 1_655 S
C15 H71 0.930 1_655 S
C16 N17 1.314 . S
C16 C21 1.353 . S
C16 H22 0.930 . S
N17 Li0 1.990 1_556 S
N17 C16 1.314 . S
N17 C19 1.279 1_556 S
C18 C19 1.358 1_556 S
C18 C20 1.356 . S
C18 H72 0.930 . S
C19 N17 1.279 1_554 S
C19 C18 1.358 1_554 S
C19 H23 0.930 . S
C20 C18 1.356 . S
C20 C21 1.348 . S
C21 C16 1.353 . S
C21 C20 1.348 . S
C21 H73 0.929 . S
H22 C16 0.930 . S
H23 C19 0.930 . S
C24 N25 1.314 . S
C24 C26 1.353 . S
C24 H30 0.930 . S
N25 Li1 1.990 . S
N25 C24 1.314 . S
N25 C28 1.279 . S
C26 C24 1.353 . S
C26 C29 1.348 . S
C26 H74 0.929 . S
C27 C28 1.358 . S
C27 C29 1.356 . S
C27 H75 0.930 . S
C28 N25 1.279 . S
C28 C27 1.358 . S
C28 H31 0.930 . S
C29 C26 1.348 . S
C29 C27 1.356 . S
H30 C24 0.930 . S
H31 C28 0.930 . S
C32 C34 1.348 1_455 S
C32 C35 1.356 . S
C32 O62 1.325 1_556 S
N33 C36 1.314 . S
N33 C37 1.279 . S
C34 C32 1.348 1_655 S
C34 C36 1.353 1_655 S
C34 H76 0.929 . S
C35 C32 1.356 . S
C35 C37 1.358 . S
C35 H77 0.930 1_556 S
C36 N33 1.314 . S
C36 C34 1.353 1_455 S
C36 H78 0.930 1_455 S
C37 N33 1.279 . S
C37 C35 1.358 . S
C37 H79 0.930 . S
C38 C39 1.348 . S
C38 C40 1.356 . S
C38 O63 1.325 . S
C39 C38 1.348 . S
C39 C41 1.353 . S
C39 H80 0.929 . S
C40 C38 1.356 . S
C40 C42 1.358 . S
C40 H81 0.930 . S
C41 C39 1.353 . S
C41 N43 1.314 . S
C41 H82 0.930 . S
C42 C40 1.358 . S
C42 N43 1.279 . S
C42 H83 0.930 . S
N43 C41 1.314 . S
N43 C42 1.279 . S
C44 C46 1.353 . S
C44 N47 1.314 . S
C44 H50 0.930 . S
C45 N47 1.279 . S
C45 C48 1.358 . S
C45 H51 0.930 . S
C46 C44 1.353 . S
C46 C49 1.348 . S
C46 H84 0.929 . S
N47 Li2 1.990 . S
N47 C44 1.314 . S
N47 C45 1.279 . S
C48 C45 1.358 . S
C48 C49 1.356 . S
C48 H85 0.930 . S
C49 C46 1.348 . S
C49 C48 1.356 . S
H50 C44 0.930 . S
H51 C45 0.930 . S
C52 N53 1.314 . S
C52 C54 1.353 . S
C52 H58 0.930 . S
N53 Li3 1.990 1_556 S
N53 C52 1.314 . S
N53 C56 1.279 1_556 S
C54 C52 1.353 . S
C54 C57 1.348 . S
C54 H86 0.929 . S
C55 C56 1.358 1_556 S
C55 C57 1.356 . S
C55 H87 0.930 . S
C56 N53 1.279 1_554 S
C56 C55 1.358 1_554 S
C56 H59 0.930 . S
C57 C54 1.348 . S
C57 C55 1.356 . S
H58 C52 0.930 . S
H59 C56 0.930 . S
O60 Li0 1.956 . S
O60 Li1 1.970 1_455 S
O60 Li2 1.961 1_545 S
O60 C4 1.325 . S
O61 Li0 1.970 1_655 S
O61 Li1 1.956 . S
O61 Li3 1.961 1_545 S
O61 C10 1.325 1_554 S
O62 Li0 1.961 1_565 S
O62 Li2 1.956 . S
O62 Li3 1.970 1_455 S
O62 C32 1.325 1_554 S
O63 Li1 1.961 1_565 S
O63 Li2 1.970 1_655 S
O63 Li3 1.956 . S
O63 C38 1.325 . S
H64 C6 0.929 . S
H65 C7 0.930 . S
H66 C8 0.930 . S
H67 C9 0.930 . S
H68 C11 0.930 . S
H69 C13 0.929 . S
H70 C14 0.930 1_554 S
H71 C15 0.930 1_455 S
H72 C18 0.930 . S
H73 C21 0.929 . S
H74 C26 0.929 . S
H75 C27 0.930 . S
H76 C34 0.929 . S
H77 C35 0.930 1_554 S
H78 C36 0.930 1_655 S
H79 C37 0.930 . S
H80 C39 0.929 . S
H81 C40 0.930 . S
H82 C41 0.930 . S
H83 C42 0.930 . S
H84 C46 0.929 . S
H85 C48 0.930 . S
H86 C54 0.929 . S
H87 C55 0.930 . S
Li88 N105 1.990 . S
Li88 O148 1.956 . S
Li88 O149 1.970 1_665 S
Li88 O150 1.961 . S
Li89 N113 1.990 . S
Li89 O148 1.970 1_445 S
Li89 O149 1.956 . S
Li89 O151 1.961 . S
Li90 N135 1.990 . S
Li90 O148 1.961 . S
Li90 O150 1.956 . S
Li90 O151 1.970 1_665 S
Li91 N141 1.990 . S
Li91 O149 1.961 . S
Li91 O150 1.970 1_445 S
Li91 O151 1.956 . S
C92 C94 1.348 1_655 S
C92 C95 1.356 . S
C92 O148 1.325 . S
N93 C96 1.314 . S
N93 C97 1.279 . S
C94 C92 1.348 1_455 S
C94 C96 1.353 1_455 S
C94 H152 0.929 . S
C95 C92 1.356 . S
C95 C97 1.358 . S
C95 H153 0.930 . S
C96 N93 1.314 . S
C96 C94 1.353 1_655 S
C96 H154 0.930 1_655 S
C97 N93 1.279 . S
C97 C95 1.358 . S
C97 H155 0.930 . S
C98 C101 1.348 1_545 S
C98 C102 1.356 . S
C98 O149 1.325 . S
C99 N100 1.279 . S
C99 C102 1.358 . S
C99 H156 0.930 . S
N100 C99 1.279 . S
N100 C103 1.314 . S
C101 C98 1.348 1_565 S
C101 C103 1.353 1_565 S
C101 H157 0.929 . S
C102 C98 1.356 . S
C102 C99 1.358 . S
C102 H158 0.930 . S
C103 N100 1.314 . S
C103 C101 1.353 1_545 S
C103 H159 0.930 1_545 S
C104 N105 1.314 . S
C104 C109 1.353 . S
C104 H110 0.930 . S
N105 Li88 1.990 . S
N105 C104 1.314 . S
N105 C107 1.279 . S
C106 C107 1.358 . S
C106 C108 1.356 . S
C106 H160 0.930 . S
C107 N105 1.279 . S
C107 C106 1.358 . S
C107 H111 0.930 . S
C108 C106 1.356 . S
C108 C109 1.348 . S
C109 C104 1.353 . S
C109 C108 1.348 . S
C109 H161 0.929 . S
H110 C104 0.930 . S
H111 C107 0.930 . S
C112 N113 1.314 . S
C112 C114 1.353 . S
C112 H118 0.930 . S
N113 Li89 1.990 . S
N113 C112 1.314 . S
N113 C116 1.279 . S
C114 C112 1.353 . S
C114 C117 1.348 . S
C114 H162 0.929 . S
C115 C116 1.358 . S
C115 C117 1.356 . S
C115 H163 0.930 . S
C116 N113 1.279 . S
C116 C115 1.358 . S
C116 H119 0.930 . S
C117 C114 1.348 . S
C117 C115 1.356 . S
H118 C112 0.930 . S
H119 C116 0.930 . S
C120 C122 1.348 1_565 S
C120 C123 1.356 . S
C120 O150 1.325 . S
N121 C124 1.314 . S
N121 C125 1.279 . S
C122 C120 1.348 1_545 S
C122 C124 1.353 1_545 S
C122 H164 0.929 . S
C123 C120 1.356 . S
C123 C125 1.358 . S
C123 H165 0.930 . S
C124 N121 1.314 . S
C124 C122 1.353 1_565 S
C124 H166 0.930 1_565 S
C125 N121 1.279 . S
C125 C123 1.358 . S
C125 H167 0.930 . S
C126 C127 1.348 1_455 S
C126 C128 1.356 . S
C126 O151 1.325 . S
C127 C126 1.348 1_655 S
C127 C129 1.353 1_655 S
C127 H168 0.929 . S
C128 C126 1.356 . S
C128 C130 1.358 . S
C128 H169 0.930 . S
C129 C127 1.353 1_455 S
C129 N131 1.314 . S
C129 H170 0.930 1_455 S
C130 C128 1.358 . S
C130 N131 1.279 . S
C130 H171 0.930 . S
N131 C129 1.314 . S
N131 C130 1.279 . S
C132 C134 1.353 . S
C132 N135 1.314 . S
C132 H138 0.930 . S
C133 N135 1.279 . S
C133 C136 1.358 . S
C133 H139 0.930 . S
C134 C132 1.353 . S
C134 C137 1.348 . S
C134 H172 0.929 . S
N135 Li90 1.990 . S
N135 C132 1.314 . S
N135 C133 1.279 . S
C136 C133 1.358 . S
C136 C137 1.356 . S
C136 H173 0.930 . S
C137 C134 1.348 . S
C137 C136 1.356 . S
H138 C132 0.930 . S
H139 C133 0.930 . S
C140 N141 1.314 . S
C140 C142 1.353 . S
C140 H146 0.930 . S
N141 Li91 1.990 . S
N141 C140 1.314 . S
N141 C144 1.279 . S
C142 C140 1.353 . S
C142 C145 1.348 . S
C142 H174 0.929 . S
C143 C144 1.358 . S
C143 C145 1.356 . S
C143 H175 0.930 . S
C144 N141 1.279 . S
C144 C143 1.358 . S
C144 H147 0.930 . S
C145 C142 1.348 . S
C145 C143 1.356 . S
H146 C140 0.930 . S
H147 C144 0.930 . S
O148 Li88 1.956 . S
O148 Li89 1.970 1_665 S
O148 Li90 1.961 . S
O148 C92 1.325 . S
O149 Li88 1.970 1_445 S
O149 Li89 1.956 . S
O149 Li91 1.961 . S
O149 C98 1.325 . S
O150 Li88 1.961 . S
O150 Li90 1.956 . S
O150 Li91 1.970 1_665 S
O150 C120 1.325 . S
O151 Li89 1.961 . S
O151 Li90 1.970 1_445 S
O151 Li91 1.956 . S
O151 C126 1.325 . S
H152 C94 0.929 . S
H153 C95 0.930 . S
H154 C96 0.930 1_455 S
H155 C97 0.930 . S
H156 C99 0.930 . S
H157 C101 0.929 . S
H158 C102 0.930 . S
H159 C103 0.930 1_565 S
H160 C106 0.930 . S
H161 C109 0.929 . S
H162 C114 0.929 . S
H163 C115 0.930 . S
H164 C122 0.929 . S
H165 C123 0.930 . S
H166 C124 0.930 1_545 S
H167 C125 0.930 . S
H168 C127 0.929 . S
H169 C128 0.930 . S
H170 C129 0.930 1_655 S
H171 C130 0.930 . S
H172 C134 0.929 . S
H173 C136 0.930 . S
H174 C142 0.929 . S
H175 C143 0.930 . S
Li176 N193 1.990 . S
Li176 O236 1.956 . S
Li176 O237 1.970 1_565 S
Li176 O238 1.961 1_455 S
Li177 N201 1.990 . S
Li177 O236 1.970 1_545 S
Li177 O237 1.956 . S
Li177 O239 1.961 1_455 S
Li178 N223 1.990 . S
Li178 O236 1.961 1_655 S
Li178 O238 1.956 . S
Li178 O239 1.970 1_565 S
Li179 N229 1.990 . S
Li179 O237 1.961 1_655 S
Li179 O238 1.970 1_545 S
Li179 O239 1.956 . S
C180 C182 1.348 1_565 S
C180 C183 1.356 . S
C180 O236 1.325 . S
N181 C184 1.314 . S
N181 C185 1.279 . S
C182 C180 1.348 1_545 S
C182 C184 1.353 1_545 S
C182 H240 0.929 . S
C183 C180 1.356 . S
C183 C185 1.358 . S
C183 H241 0.930 . S
C184 N181 1.314 . S
C184 C182 1.353 1_565 S
C184 H242 0.930 1_565 S
C185 N181 1.279 . S
C185 C183 1.358 . S
C185 H243 0.930 . S
C186 C189 1.348 . S
C186 C190 1.356 . S
C186 O237 1.325 . S
C187 N188 1.279 . S
C187 C190 1.358 . S
C187 H244 0.930 . S
N188 C187 1.279 . S
N188 C191 1.314 . S
C189 C186 1.348 . S
C189 C191 1.353 . S
C189 H245 0.929 . S
C190 C186 1.356 . S
C190 C187 1.358 . S
C190 H246 0.930 . S
C191 N188 1.314 . S
C191 C189 1.353 . S
C191 H247 0.930 . S
C192 N193 1.314 . S
C192 C197 1.353 . S
C192 H198 0.930 . S
N193 Li176 1.990 . S
N193 C192 1.314 . S
N193 C195 1.279 . S
C194 C195 1.358 . S
C194 C196 1.356 . S
C194 H248 0.930 . S
C195 N193 1.279 . S
C195 C194 1.358 . S
C195 H199 0.930 . S
C196 C194 1.356 . S
C196 C197 1.348 . S
C197 C192 1.353 . S
C197 C196 1.348 . S
C197 H249 0.929 . S
H198 C192 0.930 . S
H199 C195 0.930 . S
C200 N201 1.314 . S
C200 C202 1.353 . S
C200 H206 0.930 . S
N201 Li177 1.990 . S
N201 C200 1.314 . S
N201 C204 1.279 . S
C202 C200 1.353 . S
C202 C205 1.348 . S
C202 H250 0.929 . S
C203 C204 1.358 . S
C203 C205 1.356 . S
C203 H251 0.930 . S
C204 N201 1.279 . S
C204 C203 1.358 . S
C204 H207 0.930 . S
C205 C202 1.348 . S
C205 C203 1.356 . S
H206 C200 0.930 . S
H207 C204 0.930 . S
C208 C210 1.348 . S
C208 C211 1.356 . S
C208 O238 1.325 . S
N209 C212 1.314 . S
N209 C213 1.279 . S
C210 C208 1.348 . S
C210 C212 1.353 . S
C210 H252 0.929 . S
C211 C208 1.356 . S
C211 C213 1.358 . S
C211 H253 0.930 . S
C212 N209 1.314 . S
C212 C210 1.353 . S
C212 H254 0.930 . S
C213 N209 1.279 . S
C213 C211 1.358 . S
C213 H255 0.930 . S
C214 C215 1.348 1_545 S
C214 C216 1.356 . S
C214 O239 1.325 . S
C215 C214 1.348 1_565 S
C215 C217 1.353 1_565 S
C215 H256 0.929 . S
C216 C214 1.356 . S
C216 C218 1.358 . S
C216 H257 0.930 . S
C217 C215 1.353 1_545 S
C217 N219 1.314 . S
C217 H258 0.930 1_545 S
C218 C216 1.358 . S
C218 N219 1.279 . S
C218 H259 0.930 . S
N219 C217 1.314 . S
N219 C218 1.279 . S
C220 C222 1.353 . S
C220 N223 1.314 . S
C220 H226 0.930 . S
C221 N223 1.279 . S
C221 C224 1.358 . S
C221 H227 0.930 . S
C222 C220 1.353 . S
C222 C225 1.348 . S
C222 H260 0.929 . S
N223 Li178 1.990 . S
N223 C220 1.314 . S
N223 C221 1.279 . S
C224 C221 1.358 . S
C224 C225 1.356 . S
C224 H261 0.930 . S
C225 C222 1.348 . S
C225 C224 1.356 . S
H226 C220 0.930 . S
H227 C221 0.930 . S
C228 N229 1.314 . S
C228 C230 1.353 . S
C228 H234 0.930 . S
N229 Li179 1.990 . S
N229 C228 1.314 . S
N229 C232 1.279 . S
C230 C228 1.353 . S
C230 C233 1.348 . S
C230 H262 0.929 . S
C231 C232 1.358 . S
C231 C233 1.356 . S
C231 H263 0.930 . S
C232 N229 1.279 . S
C232 C231 1.358 . S
C232 H235 0.930 . S
C233 C230 1.348 . S
C233 C231 1.356 . S
H234 C228 0.930 . S
H235 C232 0.930 . S
O236 Li176 1.956 . S
O236 Li177 1.970 1_565 S
O236 Li178 1.961 1_455 S
O236 C180 1.325 . S
O237 Li176 1.970 1_545 S
O237 Li177 1.956 . S
O237 Li179 1.961 1_455 S
O237 C186 1.325 . S
O238 Li176 1.961 1_655 S
O238 Li178 1.956 . S
O238 Li179 1.970 1_565 S
O238 C208 1.325 . S
O239 Li177 1.961 1_655 S
O239 Li178 1.970 1_545 S
O239 Li179 1.956 . S
O239 C214 1.325 . S
H240 C182 0.929 . S
H241 C183 0.930 . S
H242 C184 0.930 1_545 S
H243 C185 0.930 . S
H244 C187 0.930 . S
H245 C189 0.929 . S
H246 C190 0.930 . S
H247 C191 0.930 . S
H248 C194 0.930 . S
H249 C197 0.929 . S
H250 C202 0.929 . S
H251 C203 0.930 . S
H252 C210 0.929 . S
H253 C211 0.930 . S
H254 C212 0.930 . S
H255 C213 0.930 . S
H256 C215 0.929 . S
H257 C216 0.930 . S
H258 C217 0.930 1_565 S
H259 C218 0.930 . S
H260 C222 0.929 . S
H261 C224 0.930 . S
H262 C230 0.929 . S
H263 C231 0.930 . S
H264 C291 0.929 . S
N265 C290 1.433 . S
N265 C296 1.435 . S
N265 C302 1.423 . S
H266 C292 0.930 . S
H267 C295 0.931 . S
H268 C294 0.929 . S
H269 C297 0.930 . S
H270 C298 0.932 . S
H271 C301 0.929 . S
H272 C300 0.931 . S
H273 C303 0.929 . S
H274 C307 0.932 1_455 S
H275 C304 0.931 . S
H276 C306 0.929 1_455 S
H277 C309 0.929 . S
H278 C310 0.930 . S
H279 C312 0.929 . S
H280 C313 0.931 . S
H281 C315 0.930 . S
H282 C316 0.932 . S
H283 C318 0.931 . S
H284 C319 0.929 . S
H285 C321 0.929 . S
H286 C322 0.931 . S
H287 C324 0.929 1_455 S
N288 C308 1.433 . S
N288 C314 1.435 . S
N288 C320 1.423 . S
H289 C325 0.932 1_455 S
C290 N265 1.433 . S
C290 C291 1.363 . S
C290 C295 1.370 1_655 S
C291 H264 0.929 . S
C291 C290 1.363 . S
C291 C292 1.385 . S
C292 H266 0.930 . S
C292 C291 1.385 . S
C292 C293 1.357 . S
C293 C292 1.357 . S
C293 C294 1.406 1_655 S
C294 H268 0.929 . S
C294 C293 1.406 1_455 S
C294 C295 1.391 . S
C295 H267 0.931 . S
C295 C290 1.370 1_455 S
C295 C294 1.391 . S
C296 N265 1.435 . S
C296 C297 1.358 1_655 S
C296 C301 1.371 . S
C297 H269 0.930 . S
C297 C296 1.358 1_455 S
C297 C298 1.405 . S
C298 H270 0.932 . S
C298 C297 1.405 . S
C298 C299 1.383 1_455 S
C299 C298 1.383 1_655 S
C299 C300 1.393 . S
C300 H272 0.931 . S
C300 C299 1.393 . S
C300 C301 1.382 . S
C301 H271 0.929 . S
C301 C296 1.371 . S
C301 C300 1.382 . S
C302 N265 1.423 . S
C302 C303 1.362 . S
C302 C307 1.388 . S
C303 H273 0.929 . S
C303 C302 1.362 . S
C303 C304 1.376 . S
C304 H275 0.931 . S
C304 C303 1.376 . S
C304 C305 1.396 . S
C305 C304 1.396 . S
C305 C306 1.348 . S
C305 C323 1.472 . S
C306 H276 0.929 1_655 S
C306 C305 1.348 . S
C306 C307 1.443 . S
C307 H274 0.932 1_655 S
C307 C302 1.388 . S
C307 C306 1.443 . S
C308 N288 1.433 . S
C308 C309 1.363 . S
C308 C313 1.370 1_655 S
C309 H277 0.929 . S
C309 C308 1.363 . S
C309 C310 1.385 . S
C310 H278 0.930 . S
C310 C309 1.385 . S
C310 C311 1.357 . S
C311 C310 1.357 . S
C311 C312 1.406 1_655 S
C312 H279 0.929 . S
C312 C311 1.406 1_455 S
C312 C313 1.391 . S
C313 H280 0.931 . S
C313 C308 1.370 1_455 S
C313 C312 1.391 . S
C314 N288 1.435 . S
C314 C315 1.358 1_655 S
C314 C319 1.371 . S
C315 H281 0.930 . S
C315 C314 1.358 1_455 S
C315 C316 1.405 . S
C316 H282 0.932 . S
C316 C315 1.405 . S
C316 C317 1.383 1_455 S
C317 C316 1.383 1_655 S
C317 C318 1.393 . S
C318 H283 0.931 . S
C318 C317 1.393 . S
C318 C319 1.382 . S
C319 H284 0.929 . S
C319 C314 1.371 . S
C319 C318 1.382 . S
C320 N288 1.423 . S
C320 C321 1.362 . S
C320 C325 1.388 . S
C321 H285 0.929 . S
C321 C320 1.362 . S
C321 C322 1.376 . S
C322 H286 0.931 . S
C322 C321 1.376 . S
C322 C323 1.396 . S
C323 C305 1.472 . S
C323 C322 1.396 . S
C323 C324 1.348 . S
C324 H287 0.929 1_655 S
C324 C323 1.348 . S
C324 C325 1.443 . S
C325 H289 0.932 1_655 S
C325 C320 1.388 . S
C325 C324 1.443 . S
H326 C353 0.929 . S
N327 C352 1.433 . S
N327 C358 1.435 . S
N327 C364 1.423 . S
H328 C354 0.930 . S
H329 C357 0.931 . S
H330 C356 0.929 . S
H331 C359 0.930 . S
H332 C360 0.932 . S
H333 C363 0.929 . S
H334 C362 0.931 . S
H335 C365 0.929 . S
H336 C369 0.932 1_565 S
H337 C366 0.931 . S
H338 C368 0.929 1_565 S
H339 C371 0.929 . S
H340 C372 0.930 . S
H341 C374 0.929 . S
H342 C375 0.931 . S
H343 C377 0.930 . S
H344 C378 0.932 . S
H345 C380 0.931 . S
H346 C381 0.929 . S
H347 C383 0.929 . S
H348 C384 0.931 . S
H349 C386 0.929 1_565 S
N350 C370 1.433 . S
N350 C376 1.435 . S
N350 C382 1.423 . S
H351 C387 0.932 1_565 S
C352 N327 1.433 . S
C352 C353 1.363 . S
C352 C357 1.370 1_545 S
C353 H326 0.929 . S
C353 C352 1.363 . S
C353 C354 1.385 . S
C354 H328 0.930 . S
C354 C353 1.385 . S
C354 C355 1.357 . S
C355 C354 1.357 . S
C355 C356 1.406 1_545 S
C356 H330 0.929 . S
C356 C355 1.406 1_565 S
C356 C357 1.391 . S
C357 H329 0.931 . S
C357 C352 1.370 1_565 S
C357 C356 1.391 . S
C358 N327 1.435 . S
C358 C359 1.358 1_545 S
C358 C363 1.371 . S
C359 H331 0.930 . S
C359 C358 1.358 1_565 S
C359 C360 1.405 . S
C360 H332 0.932 . S
C360 C359 1.405 . S
C360 C361 1.383 1_565 S
C361 C360 1.383 1_545 S
C361 C362 1.393 . S
C362 H334 0.931 . S
C362 C361 1.393 . S
C362 C363 1.382 . S
C363 H333 0.929 . S
C363 C358 1.371 . S
C363 C362 1.382 . S
C364 N327 1.423 . S
C364 C365 1.362 . S
C364 C369 1.388 . S
C365 H335 0.929 . S
C365 C364 1.362 . S
C365 C366 1.376 . S
C366 H337 0.931 . S
C366 C365 1.376 . S
C366 C367 1.396 . S
C367 C366 1.396 . S
C367 C368 1.348 . S
C367 C385 1.472 . S
C368 H338 0.929 1_545 S
C368 C367 1.348 . S
C368 C369 1.443 . S
C369 H336 0.932 1_545 S
C369 C364 1.388 . S
C369 C368 1.443 . S
C370 N350 1.433 . S
C370 C371 1.363 . S
C370 C375 1.370 1_545 S
C371 H339 0.929 . S
C371 C370 1.363 . S
C371 C372 1.385 . S
C372 H340 0.930 . S
C372 C371 1.385 . S
C372 C373 1.357 . S
C373 C372 1.357 . S
C373 C374 1.406 1_545 S
C374 H341 0.929 . S
C374 C373 1.406 1_565 S
C374 C375 1.391 . S
C375 H342 0.931 . S
C375 C370 1.370 1_565 S
C375 C374 1.391 . S
C376 N350 1.435 . S
C376 C377 1.358 1_545 S
C376 C381 1.371 . S
C377 H343 0.930 . S
C377 C376 1.358 1_565 S
C377 C378 1.405 . S
C378 H344 0.932 . S
C378 C377 1.405 . S
C378 C379 1.383 1_565 S
C379 C378 1.383 1_545 S
C379 C380 1.393 . S
C380 H345 0.931 . S
C380 C379 1.393 . S
C380 C381 1.382 . S
C381 H346 0.929 . S
C381 C376 1.371 . S
C381 C380 1.382 . S
C382 N350 1.423 . S
C382 C383 1.362 . S
C382 C387 1.388 . S
C383 H347 0.929 . S
C383 C382 1.362 . S
C383 C384 1.376 . S
C384 H348 0.931 . S
C384 C383 1.376 . S
C384 C385 1.396 . S
C385 C367 1.472 . S
C385 C384 1.396 . S
C385 C386 1.348 . S
C386 H349 0.929 1_545 S
C386 C385 1.348 . S
C386 C387 1.443 . S
C387 H351 0.932 1_545 S
C387 C382 1.388 . S
C387 C386 1.443 . S
H388 C415 0.929 . S
N389 C414 1.433 . S
N389 C420 1.435 . S
N389 C426 1.423 . S
H390 C416 0.930 . S
H391 C419 0.931 . S
H392 C418 0.929 . S
H393 C421 0.930 . S
H394 C422 0.932 . S
H395 C425 0.929 . S
H396 C424 0.931 . S
H397 C427 0.929 . S
H398 C431 0.932 . S
H399 C428 0.931 . S
H400 C430 0.929 . S
H401 C433 0.929 . S
H402 C434 0.930 . S
H403 C436 0.929 . S
H404 C437 0.931 . S
H405 C439 0.930 . S
H406 C440 0.932 . S
H407 C442 0.931 . S
H408 C443 0.929 . S
H409 C445 0.929 . S
H410 C446 0.931 . S
H411 C448 0.929 . S
N412 C432 1.433 . S
N412 C438 1.435 . S
N412 C444 1.423 . S
H413 C449 0.932 . S
C414 N389 1.433 . S
C414 C415 1.363 . S
C414 C419 1.370 . S
C415 H388 0.929 . S
C415 C414 1.363 . S
C415 C416 1.385 . S
C416 H390 0.930 . S
C416 C415 1.385 . S
C416 C417 1.357 . S
C417 C416 1.357 . S
C417 C418 1.406 . S
C418 H392 0.929 . S
C418 C417 1.406 . S
C418 C419 1.391 . S
C419 H391 0.931 . S
C419 C414 1.370 . S
C419 C418 1.391 . S
C420 N389 1.435 . S
C420 C421 1.358 . S
C420 C425 1.371 . S
C421 H393 0.930 . S
C421 C420 1.358 . S
C421 C422 1.405 . S
C422 H394 0.932 . S
C422 C421 1.405 . S
C422 C423 1.383 . S
C423 C422 1.383 . S
C423 C424 1.393 . S
C424 H396 0.931 . S
C424 C423 1.393 . S
C424 C425 1.382 . S
C425 H395 0.929 . S
C425 C420 1.371 . S
C425 C424 1.382 . S
C426 N389 1.423 . S
C426 C427 1.362 . S
C426 C431 1.388 . S
C427 H397 0.929 . S
C427 C426 1.362 . S
C427 C428 1.376 . S
C428 H399 0.931 . S
C428 C427 1.376 . S
C428 C429 1.396 . S
C429 C428 1.396 . S
C429 C430 1.348 . S
C429 C447 1.472 . S
C430 H400 0.929 . S
C430 C429 1.348 . S
C430 C431 1.443 . S
C431 H398 0.932 . S
C431 C426 1.388 . S
C431 C430 1.443 . S
C432 N412 1.433 . S
C432 C433 1.363 . S
C432 C437 1.370 . S
C433 H401 0.929 . S
C433 C432 1.363 . S
C433 C434 1.385 . S
C434 H402 0.930 . S
C434 C433 1.385 . S
C434 C435 1.357 . S
C435 C434 1.357 . S
C435 C436 1.406 . S
C436 H403 0.929 . S
C436 C435 1.406 . S
C436 C437 1.391 . S
C437 H404 0.931 . S
C437 C432 1.370 . S
C437 C436 1.391 . S
C438 N412 1.435 . S
C438 C439 1.358 . S
C438 C443 1.371 . S
C439 H405 0.930 . S
C439 C438 1.358 . S
C439 C440 1.405 . S
C440 H406 0.932 . S
C440 C439 1.405 . S
C440 C441 1.383 . S
C441 C440 1.383 . S
C441 C442 1.393 . S
C442 H407 0.931 . S
C442 C441 1.393 . S
C442 C443 1.382 . S
C443 H408 0.929 . S
C443 C438 1.371 . S
C443 C442 1.382 . S
C444 N412 1.423 . S
C444 C445 1.362 . S
C444 C449 1.388 . S
C445 H409 0.929 . S
C445 C444 1.362 . S
C445 C446 1.376 . S
C446 H410 0.931 . S
C446 C445 1.376 . S
C446 C447 1.396 . S
C447 C429 1.472 . S
C447 C446 1.396 . S
C447 C448 1.348 . S
C448 H411 0.929 . S
C448 C447 1.348 . S
C448 C449 1.443 . S
C449 H413 0.932 . S
C449 C444 1.388 . S
C449 C448 1.443 . S
C317 C29 2.087 . S
C137 C361 2.172 1_565 S
C225 C423 2.172 . S
C49 C299 2.172 1_455 S
C379 C117 2.087 . S
C205 C441 2.087 . S
C355 C233 2.033 . S
C57 C417 2.033 . S
C293 C108 2.033 . S
C373 C196 2.196 1_545 S
C435 C20 2.196 . S
C145 C311 2.196 1_455 S
