# Generated by pormake.
# Topology anh, (6,3)-cn, num edge types: 1
# Building blocks:
#     Node 0, Type 0, BuildingBlock: CUWYAW_clean_sbu_0, # of connection points: 6
#     Node 1, Type 0, BuildingBlock: CUWYAW_clean_sbu_0, # of connection points: 6
#     Node 2, Type 0, BuildingBlock: CUWYAW_clean_sbu_0, # of connection points: 6
#     Node 3, Type 1, BuildingBlock: VETTIZ_charged_linker_0, # of connection points: 3
#     Node 4, Type 1, BuildingBlock: VETTIZ_charged_linker_0, # of connection points: 3
#     Node 5, Type 1, BuildingBlock: VETTIZ_charged_linker_0, # of connection points: 3
#     Node 6, Type 1, BuildingBlock: VETTIZ_charged_linker_0, # of connection points: 3
#     Node 7, Type 1, BuildingBlock: VETTIZ_charged_linker_0, # of connection points: 3
#     Node 8, Type 1, BuildingBlock: VETTIZ_charged_linker_0, # of connection points: 3
#     Edge 9, Type (0, 1), BuildingBlock: MIFKUJ_clean_linker_0, # of connection points: 2
#     Edge 10, Type (0, 1), BuildingBlock: MIFKUJ_clean_linker_0, # of connection points: 2
#     Edge 11, Type (0, 1), BuildingBlock: MIFKUJ_clean_linker_0, # of connection points: 2
#     Edge 12, Type (0, 1), BuildingBlock: MIFKUJ_clean_linker_0, # of connection points: 2
#     Edge 13, Type (0, 1), BuildingBlock: MIFKUJ_clean_linker_0, # of connection points: 2
#     Edge 14, Type (0, 1), BuildingBlock: MIFKUJ_clean_linker_0, # of connection points: 2
#     Edge 15, Type (0, 1), BuildingBlock: MIFKUJ_clean_linker_0, # of connection points: 2
#     Edge 16, Type (0, 1), BuildingBlock: MIFKUJ_clean_linker_0, # of connection points: 2
#     Edge 17, Type (0, 1), BuildingBlock: MIFKUJ_clean_linker_0, # of connection points: 2
#     Edge 18, Type (0, 1), BuildingBlock: MIFKUJ_clean_linker_0, # of connection points: 2
#     Edge 19, Type (0, 1), BuildingBlock: MIFKUJ_clean_linker_0, # of connection points: 2
#     Edge 20, Type (0, 1), BuildingBlock: MIFKUJ_clean_linker_0, # of connection points: 2
#     Edge 21, Type (0, 1), BuildingBlock: MIFKUJ_clean_linker_0, # of connection points: 2
#     Edge 22, Type (0, 1), BuildingBlock: MIFKUJ_clean_linker_0, # of connection points: 2
#     Edge 23, Type (0, 1), BuildingBlock: MIFKUJ_clean_linker_0, # of connection points: 2
#     Edge 24, Type (0, 1), BuildingBlock: MIFKUJ_clean_linker_0, # of connection points: 2
#     Edge 25, Type (0, 1), BuildingBlock: MIFKUJ_clean_linker_0, # of connection points: 2
#     Edge 26, Type (0, 1), BuildingBlock: MIFKUJ_clean_linker_0, # of connection points: 2
# Relax obj value: 0.209
# Max RMSD: 0.182
# Mean RMSD: 0.153
data_MOF--net-anh--node1-CUWYAW_clean_sbu_0--node2-VETTIZ_charged_linker_0--edge1-MIFKUJ_clean_linker_0
_symmetry_space_group_name_H-M    P1
_symmetry_Int_Tables_number       1
_symmetry_cell_setting            triclinic
loop_
_symmetry_equiv_pos_as_xyz
'x, y, z'
_cell_length_a     46.825635
_cell_length_b     46.93252
_cell_length_c     82.779377
_cell_angle_alpha  89.994152
_cell_angle_beta   90.071866
_cell_angle_gamma 120.04998
loop_
_atom_site_label
_atom_site_type_symbol
_atom_site_fract_x
_atom_site_fract_y
_atom_site_fract_z
_atom_type_partial_charge
C0 C 1.00713 0.43698 0.14934 0.0
Eu1 Eu 0.04536 0.4956 0.16089 0.0
C2 C 0.97674 0.42354 0.13974 0.0
C3 C 0.95146 0.39118 0.14244 0.0
C4 C 0.91963 0.38071 0.13674 0.0
C5 C 0.91268 0.40259 0.1283 0.0
C6 C 0.9389 0.43392 0.12419 0.0
C7 C 0.97064 0.44441 0.12999 0.0
C8 C 0.05969 0.51236 0.19267 0.0
C9 C 1.0014 0.5357 0.16065 0.0
C10 C 0.11533 0.62472 0.1841 0.0
Eu11 Eu 0.08183 0.57047 0.16823 0.0
C12 C 0.14887 0.65241 0.18169 0.0
C13 C 0.16019 0.66482 0.16611 0.0
C14 C 0.19308 0.68867 0.16364 0.0
C15 C 0.21528 0.70013 0.17665 0.0
C16 C 0.20392 0.68789 0.19225 0.0
C17 C 0.17088 0.66424 0.19475 0.0
C18 C 0.07988 0.56104 0.13581 0.0
C19 C 0.1274 0.5336 0.16048 0.0
O20 O 1.0343 0.45876 0.1422 0.0
O21 O 1.00448 0.44564 0.16405 0.0
O22 O 0.06081 0.48806 0.18581 0.0
O23 O 0.04978 0.52581 0.18259 0.0
O24 O 1.00329 0.50884 0.1568 0.0
O25 O 1.02821 0.56205 0.16668 0.0
O26 O 0.1138 0.5971 0.18845 0.0
O27 O 0.09346 0.62065 0.17305 0.0
O28 O 0.09328 0.59018 0.14226 0.0
O29 O 0.06937 0.5402 0.14694 0.0
O30 O 0.12626 0.56011 0.16582 0.0
O31 O 0.09912 0.50607 0.15694 0.0
H32 H 0.95571 0.37483 0.15002 0.0
H33 H 0.9 0.35655 0.14027 0.0
H34 H 0.93437 0.45121 0.11758 0.0
H35 H 0.98976 0.46961 0.12782 0.0
H36 H 0.14384 0.65562 0.15577 0.0
H37 H 0.20134 0.69761 0.1515 0.0
H38 H 0.22055 0.6967 0.20251 0.0
H39 H 0.16265 0.65465 0.2068 0.0
C40 C 0.53449 0.1079 0.48542 0.0
Eu41 Eu 0.55542 0.06821 0.49409 0.0
C42 C 0.55291 0.14305 0.48123 0.0
C43 C 0.58292 0.16406 0.489 0.0
C44 C 0.60245 0.19644 0.48384 0.0
C45 C 0.59233 0.20848 0.47087 0.0
C46 C 0.56188 0.1879 0.46336 0.0
C47 C 0.5424 0.15518 0.46842 0.0
C48 C 0.56165 0.05367 0.52532 0.0
C49 C 0.63912 0.11492 0.49361 0.0
C50 C 0.61326 0.99585 0.50641 0.0
Eu51 Eu 0.59299 0.03548 0.497 0.0
C52 C 0.5999 0.96009 0.50476 0.0
C53 C 0.59674 0.94546 0.48953 0.0
C54 C 0.58307 0.91144 0.48818 0.0
C55 C 0.57206 0.89144 0.50198 0.0
C56 C 0.57508 0.90604 0.51717 0.0
C57 C 0.58902 0.94007 0.51855 0.0
C58 C 0.5867 0.04987 0.46627 0.0
C59 C 0.50951 0.98782 0.4922 0.0
O60 O 0.5382 0.08865 0.47531 0.0
O61 O 0.53625 0.10053 0.50049 0.0
O62 O 0.53433 0.04895 0.5189 0.0
O63 O 0.58471 0.06576 0.51498 0.0
O64 O 0.60998 0.11222 0.49 0.0
O65 O 0.63891 0.08792 0.49873 0.0
O66 O 0.59647 1.00472 0.51572 0.0
O67 O 0.62366 1.01341 0.4932 0.0
O68 O 0.61369 0.05241 0.47196 0.0
O69 O 0.56406 0.03827 0.47668 0.0
O70 O 0.53862 0.98948 0.49486 0.0
O71 O 0.50946 1.01609 0.49087 0.0
H72 H 0.5916 0.15535 0.49892 0.0
H73 H 0.62544 0.21224 0.49008 0.0
H74 H 0.55347 0.19698 0.45347 0.0
H75 H 0.51944 0.13925 0.46219 0.0
H76 H 0.60469 0.96019 0.47864 0.0
H77 H 0.58096 0.90072 0.47633 0.0
H78 H 0.56729 0.8912 0.52804 0.0
H79 H 0.59122 0.95076 0.53041 0.0
C80 C 0.68524 0.6021 0.82395 0.0
Eu81 Eu 0.62209 0.57182 0.82809 0.0
C82 C 0.70648 0.58748 0.82606 0.0
C83 C 0.70559 0.57157 0.8406 0.0
C84 C 0.71583 0.54834 0.841 0.0
C85 C 0.72688 0.54031 0.82686 0.0
C86 C 0.73067 0.55845 0.81271 0.0
C87 C 0.72073 0.58197 0.81235 0.0
C88 C 0.59409 0.54749 0.85763 0.0
C89 C 0.58735 0.4903 0.82583 0.0
C90 C 0.48854 0.51075 0.82938 0.0
Eu91 Eu 0.55198 0.53615 0.82629 0.0
C92 C 0.46548 0.52261 0.83222 0.0
C93 C 0.43206 0.50169 0.82878 0.0
C94 C 0.41007 0.51347 0.82957 0.0
C95 C 0.42126 0.54646 0.83373 0.0
C96 C 0.45475 0.56724 0.83751 0.0
C97 C 0.47678 0.55539 0.8367 0.0
C98 C 0.58133 0.53972 0.79777 0.0
C99 C 0.58719 0.61834 0.82448 0.0
O100 O 0.66417 0.58901 0.81205 0.0
O101 O 0.6717 0.60612 0.83698 0.0
O102 O 0.61867 0.54578 0.85164 0.0
O103 O 0.58448 0.56126 0.84755 0.0
O104 O 0.61444 0.51916 0.82289 0.0
O105 O 0.55995 0.49092 0.82969 0.0
O106 O 0.50784 0.51302 0.84138 0.0
O107 O 0.50398 0.51977 0.81559 0.0
O108 O 0.55642 0.51295 0.80318 0.0
O109 O 0.58938 0.56315 0.80749 0.0
O110 O 0.55931 0.58929 0.82338 0.0
O111 O 0.61525 0.61805 0.82704 0.0
H112 H 0.69476 0.57519 0.8514 0.0
H113 H 0.71366 0.53559 0.85223 0.0
H114 H 0.73918 0.55296 0.80162 0.0
H115 H 0.72145 0.59373 0.80097 0.0
H116 H 0.42306 0.47638 0.8252 0.0
H117 H 0.38424 0.49668 0.82699 0.0
H118 H 0.46397 0.59274 0.84077 0.0
H119 H 0.50264 0.57191 0.83927 0.0
C120 C 0.59765 0.20448 0.19498 0.0
C121 C 0.62063 0.2354 0.20123 0.0
C122 C 0.62386 0.23968 0.21814 0.0
C123 C 0.58502 0.18146 0.22199 0.0
C124 C 0.58102 0.1779 0.20543 0.0
C125 C 0.56101 0.14268 0.20025 0.0
H126 H 0.48396 0.98178 0.2192 0.0
C127 C 0.56682 0.14816 0.22919 0.0
C128 C 0.55311 0.12549 0.21643 0.0
H129 H 0.50158 0.02606 0.17179 0.0
H130 H 0.52682 0.08009 0.18384 0.0
H131 H 0.55568 0.03564 0.23542 0.0
H132 H 0.45864 1.0238 0.23447 0.0
H133 H 0.47628 0.04452 0.25264 0.0
H134 H 0.46995 1.00364 0.24944 0.0
H135 H 0.5198 1.00213 0.24459 0.0
H136 H 0.5446 0.04008 0.25524 0.0
C137 C 0.58323 0.13421 0.18969 0.0
C138 C 0.52955 0.13804 0.19166 0.0
C139 C 0.56409 0.13178 0.29019 0.0
C140 C 0.54775 0.10347 0.2999 0.0
C141 C 0.52813 0.07259 0.29253 0.0
C142 C 0.52516 0.06972 0.27574 0.0
C143 C 0.5419 0.09803 0.26615 0.0
C144 C 0.56043 0.12852 0.27334 0.0
C145 C 0.57516 0.15588 0.26106 0.0
C146 C 0.56218 0.13667 0.2454 0.0
C147 C 0.54339 0.10275 0.24852 0.0
C148 C 0.61321 0.17286 0.26227 0.0
C149 C 0.56122 0.17911 0.26414 0.0
C150 C 0.49392 1.00321 0.21143 0.0
C151 C 0.49143 0.99983 0.19453 0.0
C152 C 0.50346 0.02816 0.18483 0.0
C153 C 0.51813 0.05947 0.19187 0.0
C154 C 0.52084 0.06249 0.20878 0.0
C155 C 0.50856 0.03464 0.21826 0.0
C156 C 0.51252 0.04252 0.23601 0.0
C157 C 0.53052 0.07988 0.23558 0.0
C158 C 0.53528 0.09129 0.21963 0.0
C159 C 0.53413 0.02935 0.24334 0.0
C160 C 0.47768 0.02778 0.24365 0.0
H161 H 0.61018 0.21729 0.24131 0.0
H162 H 0.59435 0.20038 0.18207 0.0
H163 H 0.51964 0.15224 0.19793 0.0
H164 H 0.50914 0.11224 0.19176 0.0
H165 H 0.53492 0.14684 0.17897 0.0
H166 H 0.60985 0.15043 0.19256 0.0
H167 H 0.57995 0.13717 0.17663 0.0
H168 H 0.57883 0.10908 0.19184 0.0
H169 H 0.57911 0.15584 0.29559 0.0
H170 H 0.51557 0.05047 0.29979 0.0
H171 H 0.51019 0.04549 0.27088 0.0
H172 H 0.62109 0.15459 0.26498 0.0
H173 H 0.62284 0.1916 0.27205 0.0
H174 H 0.62572 0.18454 0.25084 0.0
H175 H 0.53438 0.16467 0.2669 0.0
H176 H 0.56331 0.19428 0.25354 0.0
H177 H 0.57376 0.19562 0.27457 0.0
H178 H 0.64158 0.26326 0.22327 0.0
C179 C 0.60597 0.21286 0.22857 0.0
C180 C 0.60624 0.60741 0.53267 0.0
C181 C 0.58858 0.61988 0.54086 0.0
C182 C 0.58823 0.61966 0.5579 0.0
C183 C 0.62358 0.59575 0.55827 0.0
C184 C 0.62347 0.59552 0.54159 0.0
C185 C 0.64369 0.58168 0.53475 0.0
H186 H 0.73017 0.50412 0.54692 0.0
C187 C 0.64428 0.58212 0.56382 0.0
C188 C 0.65611 0.57382 0.5501 0.0
H189 H 0.70112 0.52845 0.50166 0.0
H190 H 0.67997 0.55848 0.51588 0.0
H191 H 0.75444 0.57792 0.5648 0.0
H192 H 0.66531 0.48322 0.56482 0.0
H193 H 0.67173 0.49874 0.5846 0.0
H194 H 0.70171 0.49035 0.57549 0.0
H195 H 0.75182 0.5423 0.57431 0.0
H196 H 0.73987 0.56841 0.58477 0.0
C197 C 0.67224 0.60897 0.52471 0.0
C198 C 0.62016 0.55021 0.52507 0.0
C199 C 0.66012 0.57325 0.62381 0.0
C200 C 0.6758 0.55955 0.63273 0.0
C201 C 0.69189 0.54531 0.62451 0.0
C202 C 0.69268 0.54512 0.60756 0.0
C203 C 0.67676 0.55886 0.59877 0.0
C204 C 0.66064 0.57238 0.60695 0.0
C205 C 0.6436 0.58433 0.59576 0.0
C206 C 0.65277 0.5765 0.57947 0.0
C207 C 0.67236 0.56179 0.58127 0.0
C208 C 0.65887 0.62188 0.59832 0.0
C209 C 0.60593 0.56384 0.59898 0.0
C210 C 0.71965 0.51632 0.54008 0.0
C211 C 0.71721 0.5137 0.52313 0.0
C212 C 0.70372 0.53031 0.51468 0.0
C213 C 0.69088 0.54732 0.523 0.0
C214 C 0.69121 0.54755 0.53995 0.0
C215 C 0.70636 0.53315 0.54823 0.0
C216 C 0.70392 0.53558 0.56627 0.0
C217 C 0.68403 0.55299 0.56739 0.0
C218 C 0.67646 0.55961 0.55192 0.0
C219 C 0.73927 0.55696 0.57303 0.0
C220 C 0.68491 0.50025 0.5733 0.0
H221 H 0.60475 0.60861 0.57956 0.0
H222 H 0.60687 0.60713 0.51959 0.0
H223 H 0.59578 0.53629 0.53116 0.0
H224 H 0.62909 0.53253 0.52416 0.0
H225 H 0.6158 0.55648 0.51272 0.0
H226 H 0.68015 0.63382 0.52975 0.0
H227 H 0.66463 0.60878 0.51197 0.0
H228 H 0.6948 0.60701 0.52492 0.0
H229 H 0.64695 0.58369 0.62985 0.0
H230 H 0.704 0.53451 0.63122 0.0
H231 H 0.70537 0.53401 0.60195 0.0
H232 H 0.68607 0.63392 0.59994 0.0
H233 H 0.64856 0.62711 0.60926 0.0
H234 H 0.65534 0.63441 0.58787 0.0
H235 H 0.59864 0.53876 0.60347 0.0
H236 H 0.59101 0.55945 0.58792 0.0
H237 H 0.59821 0.57582 0.6082 0.0
H238 H 0.57531 0.62973 0.56449 0.0
C239 C 0.60563 0.60769 0.56663 0.0
C240 C 0.10293 0.51121 0.8785 0.0
C241 C 0.1322 0.53155 0.88701 0.0
C242 C 0.13044 0.54006 0.90313 0.0
C243 C 0.07091 0.50681 0.90234 0.0
C244 C 0.07265 0.49896 0.88643 0.0
C245 C 1.03923 0.47568 0.87946 0.0
H246 H 0.87401 0.39815 0.88739 0.0
C247 C 1.03595 0.4889 0.90721 0.0
C248 C 1.01724 0.47036 0.89395 0.0
H249 H 0.93091 0.40358 0.84519 0.0
H250 H 0.98096 0.43027 0.86093 0.0
H251 H 0.91813 0.37875 0.91262 0.0
H252 H 0.91889 0.46836 0.90036 0.0
H253 H 0.92175 0.46649 0.92151 0.0
H254 H 0.8858 0.4352 0.91134 0.0
H255 H 0.88765 0.38776 0.92023 0.0
H256 H 0.92667 0.40206 0.9304 0.0
C257 C 1.03853 0.44355 0.87434 0.0
C258 C 1.0328 0.49381 0.86552 0.0
C259 C 1.00531 0.50328 0.96399 0.0
C260 C 0.9755 0.48874 0.97258 0.0
C261 C 0.94616 0.46589 0.96471 0.0
C262 C 0.9466 0.45785 0.94839 0.0
C263 C 0.97677 0.47256 0.93998 0.0
C264 C 1.00543 0.49468 0.94788 0.0
C265 C 1.03551 0.50643 0.93751 0.0
C266 C 1.02024 0.48798 0.92198 0.0
C267 C 0.98585 0.46843 0.92339 0.0
C268 C 0.05846 0.49538 0.94546 0.0
C269 C 0.05126 0.54416 0.93536 0.0
C270 C 0.89711 0.40413 0.88164 0.0
C271 C 0.89855 0.39914 0.86495 0.0
C272 C 0.92923 0.40765 0.85795 0.0
C273 C 0.95827 0.42337 0.86708 0.0
C274 C 0.95668 0.43077 0.88339 0.0
C275 C 0.92638 0.41996 0.89059 0.0
C276 C 0.92956 0.42979 0.90812 0.0
C277 C 0.96677 0.44998 0.90991 0.0
C278 C 0.98246 0.45057 0.89536 0.0
C279 C 0.91458 0.39809 0.91849 0.0
C280 C 0.91304 0.45095 0.9106 0.0
H281 H 0.10031 0.53501 0.92317 0.0
H282 H 0.10364 0.50389 0.86616 0.0
H283 H 0.04197 0.52 0.86876 0.0
H284 H 1.0064 0.4836 0.86279 0.0
H285 H 0.04571 0.49352 0.85433 0.0
H286 H 0.05472 0.43852 0.88227 0.0
H287 H 0.04726 0.44518 0.86173 0.0
H288 H 1.0138 0.4215 0.87557 0.0
H289 H 1.02839 0.52014 0.96989 0.0
H290 H 0.92298 0.45422 0.9712 0.0
H291 H 0.92353 0.4404 0.94298 0.0
H292 H 0.04405 0.4723 0.95252 0.0
H293 H 0.07632 0.51445 0.95387 0.0
H294 H 0.0721 0.48931 0.93651 0.0
H295 H 1.03188 0.55113 0.93406 0.0
H296 H 0.06634 0.55353 0.92432 0.0
H297 H 0.06668 0.55759 0.94598 0.0
H298 H 0.15277 0.55583 0.90986 0.0
C299 C 0.09997 0.52788 0.91083 0.0
C300 C 0.9869 0.46483 0.47222 0.0
C301 C 0.95935 0.43736 0.46387 0.0
C302 C 0.9612 0.43845 0.44693 0.0
C303 C 1.01437 0.4906 0.44654 0.0
C304 C 1.01427 0.49145 0.46322 0.0
C305 C 0.046 0.52375 0.46889 0.0
H306 H 0.196 0.66548 0.44207 0.0
C307 C 0.04489 0.52042 0.44006 0.0
C308 C 0.06464 0.54103 0.45297 0.0
H309 H 0.1663 0.64899 0.49191 0.0
H310 H 0.11504 0.59719 0.48429 0.0
H311 H 0.17361 0.59197 0.43196 0.0
H312 H 0.12783 0.65142 0.43028 0.0
H313 H 0.11414 0.62728 0.4128 0.0
H314 H 0.15773 0.65548 0.41559 0.0
H315 H 0.18606 0.62586 0.4183 0.0
H316 H 0.15434 0.58475 0.41301 0.0
C317 C 0.06739 0.515 0.47952 0.0
C318 C 1.03581 0.54567 0.47809 0.0
C319 C 0.05774 0.52856 0.37842 0.0
C320 C 0.08135 0.55225 0.36786 0.0
C321 C 0.10866 0.58008 0.37474 0.0
C322 C 0.11247 0.5842 0.3916 0.0
C323 C 0.0885 0.56054 0.40204 0.0
C324 C 0.06168 0.53341 0.39531 0.0
C325 C 1.03823 0.51124 0.4081 0.0
C326 C 0.05528 0.52932 0.42369 0.0
C327 C 0.08489 0.55814 0.42009 0.0
C328 C 1.03666 0.47747 0.40676 0.0
C329 C 1.0048 0.51013 0.40551 0.0
C330 C 0.17914 0.65104 0.45162 0.0
C331 C 0.18686 0.66239 0.46772 0.0
C332 C 0.16223 0.64188 0.47931 0.0
C333 C 0.1323 0.61159 0.47493 0.0
C334 C 0.12537 0.60101 0.45857 0.0
C335 C 0.14911 0.62173 0.44744 0.0
C336 C 0.13849 0.61034 0.43049 0.0
C337 C 0.1054 0.57902 0.43278 0.0
C338 C 0.09627 0.57181 0.44935 0.0
C339 C 0.16443 0.60301 0.42289 0.0
C340 C 0.13451 0.63744 0.4217 0.0
H341 H 0.98615 0.46172 0.42562 0.0
H342 H 0.98697 0.46573 0.48527 0.0
H343 H 1.01988 0.55139 0.47036 0.0
H344 H 0.05775 0.56925 0.48167 0.0
H345 H 1.0218 0.53307 0.48917 0.0
H346 H 0.07426 0.4988 0.47281 0.0
H347 H 0.0538 0.50186 0.4906 0.0
H348 H 0.09043 0.53755 0.48319 0.0
H349 H 1.03626 0.50698 0.37363 0.0
H350 H 0.12748 0.59858 0.36702 0.0
H351 H 0.13417 0.6058 0.3958 0.0
H352 H 0.06062 0.48051 0.40258 0.0
H353 H 1.01744 0.46103 0.398 0.0
H354 H 1.03226 0.4647 0.41849 0.0
H355 H 1.00845 0.53337 0.40003 0.0
H356 H 0.99173 0.50802 0.41697 0.0
H357 H 0.9883 0.48964 0.39735 0.0
H358 H 0.94156 0.41888 0.43995 0.0
C359 C 0.98773 0.46398 0.43848 0.0
C360 C 0.58688 0.96709 0.80459 0.0
C361 C 0.58416 0.93851 0.79608 0.0
C362 C 0.58096 0.939 0.7792 0.0
C363 C 0.58351 0.9928 0.77919 0.0
C364 C 0.58615 0.99398 0.79583 0.0
C365 C 0.58755 0.02651 0.80174 0.0
H366 H 0.58442 0.17119 0.77546 0.0
C367 C 0.5838 1.02323 0.77292 0.0
C368 C 0.58587 0.04407 0.78596 0.0
H369 H 0.59119 0.15095 0.82557 0.0
H370 H 0.59064 0.09932 0.81776 0.0
H371 H 0.63774 0.15519 0.76457 0.0
H372 H 0.53205 0.09994 0.7646 0.0
H373 H 0.54412 0.09194 0.7459 0.0
H374 H 0.55561 0.13361 0.7511 0.0
H375 H 0.61373 0.1613 0.74955 0.0
H376 H 0.6274 0.13179 0.74684 0.0
C377 C 0.62009 0.04816 0.81074 0.0
C378 C 0.5578 1.01793 0.81263 0.0
C379 C 0.58035 0.03379 0.71126 0.0
C380 C 0.58257 0.05881 0.70095 0.0
C381 C 0.58514 0.08727 0.70809 0.0
C382 C 0.58533 0.09078 0.72496 0.0
C383 C 0.58344 0.06581 0.73518 0.0
C384 C 0.58126 0.03806 0.72822 0.0
C385 C 0.58071 1.01467 0.74085 0.0
C386 C 0.58287 0.03279 0.7566 0.0
C387 C 0.584 0.06258 0.75321 0.0
C388 C 0.61174 1.0113 0.73821 0.0
C389 C 0.54721 0.98208 0.73931 0.0
C390 C 0.58527 0.15599 0.78507 0.0
C391 C 0.58717 0.16636 0.80127 0.0
C392 C 0.5895 0.14476 0.81288 0.0
C393 C 0.58907 0.11449 0.80838 0.0
C394 C 0.58685 0.10483 0.79192 0.0
C395 C 0.58545 0.12652 0.78084 0.0
C396 C 0.58514 0.11568 0.76386 0.0
C397 C 0.58513 0.08348 0.76602 0.0
C398 C 0.58616 0.07549 0.78256 0.0
C399 C 0.61743 0.1423 0.75564 0.0
C400 C 0.55278 0.11016 0.75579 0.0
H401 H 0.57837 0.96245 0.75814 0.0
H402 H 0.58898 0.96822 0.81762 0.0
H403 H 0.53439 1.00193 0.80605 0.0
H404 H 0.55773 0.04054 0.81647 0.0
H405 H 0.55845 1.00463 0.8236 0.0
H406 H 0.64145 0.05386 0.80282 0.0
H407 H 0.62173 0.03537 0.8217 0.0
H408 H 0.62201 0.07175 0.81451 0.0
H409 H 0.57863 1.01167 0.70624 0.0
H410 H 0.58655 0.1068 0.70054 0.0
H411 H 0.5868 0.11296 0.72934 0.0
H412 H 0.63259 0.03438 0.73322 0.0
H413 H 0.60663 0.99116 0.72958 0.0
H414 H 0.62166 1.00724 0.74956 0.0
H415 H 0.52744 0.9867 0.73487 0.0
H416 H 0.53785 0.96954 0.75104 0.0
H417 H 0.54889 0.96485 0.73069 0.0
H418 H 0.57873 0.9186 0.77208 0.0
C419 C 0.58075 0.96513 0.77097 0.0
C420 C 0.65343 0.53826 0.13786 0.0
C421 C 0.68028 0.53705 0.12948 0.0
C422 C 0.67821 0.53632 0.11253 0.0
C423 C 0.62631 0.53782 0.11221 0.0
C424 C 0.62634 0.53833 0.1289 0.0
C425 C 0.59448 0.53862 0.1346 0.0
H426 H 0.44733 0.53516 0.10714 0.0
C427 C 0.59617 0.53797 0.10573 0.0
C428 C 0.57617 0.5382 0.11867 0.0
H429 H 0.47206 0.54006 0.15766 0.0
H430 H 0.5233 0.53977 0.15019 0.0
H431 H 0.51685 0.58916 0.09652 0.0
H432 H 0.46631 0.48372 0.09702 0.0
H433 H 0.48799 0.49514 0.07872 0.0
H434 H 0.45721 0.50667 0.08263 0.0
H435 H 0.48559 0.56463 0.08204 0.0
H436 H 0.52859 0.57824 0.07856 0.0
C437 C 0.60431 0.57009 0.1443 0.0
C438 C 0.57285 0.50783 0.14475 0.0
C439 C 0.58593 0.53974 0.04395 0.0
C440 C 0.56208 0.53971 0.03341 0.0
C441 C 0.5339 0.53821 0.04048 0.0
C442 C 0.5298 0.53738 0.05733 0.0
C443 C 0.554 0.53791 0.0677 0.0
C444 C 0.58132 0.53881 0.06089 0.0
C445 C 0.60412 0.53851 0.07368 0.0
C446 C 0.58643 0.53795 0.08933 0.0
C447 C 0.55702 0.53761 0.08576 0.0
C448 C 0.63772 0.57088 0.07194 0.0
C449 C 0.60556 0.50637 0.07142 0.0
C450 C 0.46301 0.53666 0.11704 0.0
C451 C 0.45365 0.53801 0.1332 0.0
C452 C 0.47689 0.53898 0.14497 0.0
C453 C 0.50707 0.53889 0.14068 0.0
C454 C 0.51552 0.5379 0.12426 0.0
C455 C 0.49285 0.53694 0.11303 0.0
C456 C 0.50378 0.53675 0.09611 0.0
C457 C 0.53634 0.53746 0.09847 0.0
C458 C 0.54478 0.53795 0.11508 0.0
C459 C 0.5088 0.56859 0.08772 0.0
C460 C 0.47752 0.50411 0.08805 0.0
H461 H 0.654 0.53653 0.09125 0.0
H462 H 0.65324 0.53862 0.15092 0.0
H463 H 0.56623 0.4852 0.13768 0.0
H464 H 0.54969 0.50705 0.14842 0.0
H465 H 0.58617 0.50762 0.15583 0.0
H466 H 0.6203 0.59222 0.1369 0.0
H467 H 0.61812 0.57088 0.15537 0.0
H468 H 0.58215 0.57132 0.14794 0.0
H469 H 0.60803 0.54094 0.0392 0.0
H470 H 0.51451 0.53724 0.03295 0.0
H471 H 0.50766 0.53627 0.0616 0.0
H472 H 0.63413 0.59156 0.06805 0.0
H473 H 0.65361 0.56827 0.0628 0.0
H474 H 0.65141 0.57938 0.08346 0.0
H475 H 0.58263 0.48657 0.06571 0.0
H476 H 0.60718 0.49557 0.08304 0.0
H477 H 0.62655 0.51051 0.0636 0.0
H478 H 0.69729 0.53549 0.10549 0.0
C479 C 0.65238 0.53687 0.10411 0.0
H480 H 0.14099 0.48328 0.15201 0.0
H481 H 0.19367 0.48448 0.14869 0.0
H482 H 0.24586 0.58799 0.15973 0.0
H483 H 0.19317 0.58641 0.16363 0.0
H484 H 0.24289 0.50357 0.13156 0.0
H485 H 0.32802 0.61977 0.1682 0.0
H486 H 0.32561 0.65098 0.19165 0.0
H487 H 0.2441 0.56284 0.21098 0.0
H488 H 0.24622 0.53107 0.18771 0.0
H489 H 0.41015 0.5477 0.11252 0.0
H490 H 0.35887 0.54645 0.11779 0.0
H491 H 0.36673 0.52988 0.16819 0.0
H492 H 0.41866 0.53024 0.16299 0.0
H493 H 0.33932 0.56826 0.16714 0.0
H494 H 0.30742 0.4675 0.13971 0.0
H495 H 0.3075 0.43136 0.1181 0.0
H496 H 0.27927 0.48087 0.08346 0.0
H497 H 0.27943 0.51761 0.10483 0.0
C498 C 0.16355 0.50648 0.1539 0.0
C499 C 0.16138 0.53465 0.15832 0.0
C500 C 0.19444 0.50722 0.15189 0.0
C501 C 0.22568 0.53619 0.15414 0.0
C502 C 0.22345 0.56454 0.1583 0.0
C503 C 0.19252 0.56375 0.16043 0.0
C504 C 0.25957 0.53652 0.15193 0.0
C505 C 0.26371 0.51809 0.13943 0.0
C506 C 0.2882 0.55448 0.162 0.0
C507 C 0.2871 0.57315 0.17615 0.0
C508 C 0.30968 0.60705 0.1775 0.0
C509 C 0.30834 0.62483 0.19074 0.0
C510 C 0.28465 0.60892 0.20277 0.0
C511 C 0.26236 0.57515 0.20163 0.0
C512 C 0.26361 0.55725 0.18841 0.0
C513 C 0.40157 0.54303 0.12484 0.0
C514 C 0.42044 0.53834 0.13709 0.0
C515 C 0.37114 0.54246 0.1279 0.0
C516 C 0.3568 0.53742 0.14348 0.0
C517 C 0.37581 0.53369 0.15591 0.0
C518 C 0.40633 0.53392 0.15283 0.0
C519 C 0.32272 0.53609 0.1465 0.0
C520 C 0.31852 0.5541 0.15918 0.0
C521 C 0.29387 0.51746 0.13672 0.0
C522 C 0.29376 0.4955 0.12384 0.0
C523 C 0.30146 0.47083 0.12746 0.0
C524 C 0.30142 0.45022 0.11526 0.0
C525 C 0.29348 0.45388 0.09941 0.0
C526 C 0.28547 0.47811 0.09574 0.0
C527 C 0.28551 0.49881 0.10789 0.0
H528 H 0.29345 0.43789 0.08998 0.0
H529 H 0.28361 0.62273 0.213 0.0
H530 H 0.70512 0.13063 0.49879 0.0
H531 H 0.75702 0.18237 0.49489 0.0
H532 H 0.7028 0.22956 0.47984 0.0
H533 H 0.65103 0.17715 0.48296 0.0
H534 H 0.75312 0.25948 0.46361 0.0
H535 H 0.75423 0.23941 0.52081 0.0
H536 H 0.75309 0.20867 0.54516 0.0
H537 H 0.83776 0.205 0.52814 0.0
H538 H 0.83917 0.23546 0.50358 0.0
H539 H 0.89432 0.42454 0.46466 0.0
H540 H 0.84283 0.37347 0.47056 0.0
H541 H 0.89845 0.32649 0.48331 0.0
H542 H 0.95015 0.3783 0.47789 0.0
H543 H 0.8478 0.29652 0.50098 0.0
H544 H 0.84809 0.31729 0.44444 0.0
H545 H 0.84987 0.3477 0.41982 0.0
H546 H 0.76275 0.34869 0.43507 0.0
H547 H 0.76064 0.31857 0.45984 0.0
C548 C 0.70385 0.15192 0.49474 0.0
C549 C 0.67242 0.14847 0.49154 0.0
C550 C 0.73431 0.18243 0.49263 0.0
C551 C 0.73572 0.2121 0.48743 0.0
C552 C 0.7042 0.20842 0.484 0.0
C553 C 0.67377 0.1778 0.48596 0.0
C554 C 0.76914 0.24601 0.48519 0.0
C555 C 0.77336 0.26736 0.47208 0.0
C556 C 0.79749 0.25787 0.49557 0.0
C557 C 0.79657 0.23945 0.51027 0.0
C558 C 0.77247 0.23191 0.5222 0.0
C559 C 0.7718 0.21454 0.53605 0.0
C560 C 0.79529 0.2048 0.53818 0.0
C561 C 0.81955 0.2125 0.52647 0.0
C562 C 0.8203 0.22983 0.51258 0.0
C563 C 0.89596 0.40377 0.46919 0.0
C564 C 0.92772 0.40723 0.47126 0.0
C565 C 0.86578 0.37358 0.47227 0.0
C566 C 0.86491 0.34404 0.47715 0.0
C567 C 0.89676 0.34772 0.47961 0.0
C568 C 0.92704 0.3781 0.47663 0.0
C569 C 0.83164 0.31005 0.47948 0.0
C570 C 0.82749 0.28866 0.49255 0.0
C571 C 0.80336 0.2981 0.46905 0.0
C572 C 0.80458 0.31621 0.45416 0.0
C573 C 0.82949 0.32426 0.44262 0.0
C574 C 0.83052 0.34139 0.42861 0.0
C575 C 0.80655 0.35028 0.42592 0.0
C576 C 0.7814 0.34194 0.4372 0.0
C577 C 0.7803 0.32486 0.45124 0.0
H578 H 0.80738 0.36352 0.41506 0.0
H579 H 0.79473 0.19136 0.54891 0.0
H580 H 0.63867 0.68442 0.82792 0.0
H581 H 0.63854 0.73636 0.82455 0.0
H582 H 0.53516 0.68223 0.81293 0.0
H583 H 0.53531 0.6302 0.8163 0.0
H584 H 0.55863 0.73381 0.79431 0.0
H585 H 0.57416 0.73034 0.85131 0.0
H586 H 0.60102 0.72646 0.8762 0.0
H587 H 0.69144 0.81246 0.86229 0.0
H588 H 0.66522 0.81662 0.83721 0.0
H589 H 0.53334 0.87318 0.79545 0.0
H590 H 0.53351 0.82214 0.80115 0.0
H591 H 0.63475 0.87827 0.81646 0.0
H592 H 0.634 0.92974 0.81124 0.0
H593 H 0.61327 0.82589 0.83325 0.0
H594 H 0.59936 0.82949 0.77632 0.0
H595 H 0.57395 0.83365 0.75097 0.0
H596 H 0.48259 0.7478 0.76397 0.0
H597 H 0.50736 0.74338 0.7895 0.0
C598 C 0.61564 0.68315 0.82472 0.0
C599 C 0.58699 0.6517 0.82254 0.0
C600 C 0.6155 0.71359 0.82284 0.0
C601 C 0.58669 0.71498 0.81859 0.0
C602 C 0.55814 0.68349 0.81621 0.0
C603 C 0.55822 0.65303 0.81824 0.0
C604 C 0.58631 0.74841 0.81646 0.0
C605 C 0.57031 0.7535 0.8031 0.0
C606 C 0.60199 0.776 0.82728 0.0
C607 C 0.61783 0.77358 0.84231 0.0
C608 C 0.59984 0.74829 0.8535 0.0
C609 C 0.61494 0.74606 0.86765 0.0
C610 C 0.64794 0.76915 0.8708 0.0
C611 C 0.66589 0.79456 0.85982 0.0
C612 C 0.65092 0.79688 0.84564 0.0
C613 C 0.55561 0.87506 0.80044 0.0
C614 C 0.58329 0.90693 0.8032 0.0
C615 C 0.55599 0.84512 0.80342 0.0
C616 C 0.58448 0.84448 0.80895 0.0
C617 C 0.61201 0.87638 0.81219 0.0
C618 C 0.61152 0.90652 0.80931 0.0
C619 C 0.58544 0.81129 0.8111 0.0
C620 C 0.60156 0.80623 0.82446 0.0
C621 C 0.57009 0.78377 0.80019 0.0
C622 C 0.55511 0.78632 0.78489 0.0
C623 C 0.57379 0.81162 0.77381 0.0
C624 C 0.55951 0.81402 0.75941 0.0
C625 C 0.52665 0.79106 0.75588 0.0
C626 C 0.50803 0.7656 0.76673 0.0
C627 C 0.52217 0.76313 0.78117 0.0
H628 H 0.51564 0.79295 0.74472 0.0
H629 H 0.65959 0.76738 0.88176 0.0
H630 H 0.93876 0.4858 0.14989 0.0
H631 H 0.88681 0.4864 0.14612 0.0
H632 H 0.93462 0.58727 0.16125 0.0
H633 H 0.98634 0.58662 0.16551 0.0
H634 H 0.87545 0.56325 0.17207 0.0
H635 H 0.90602 0.55188 0.11791 0.0
H636 H 0.91931 0.5274 0.09475 0.0
H637 H 0.82877 0.43667 0.10126 0.0
H638 H 0.81414 0.46065 0.12413 0.0
H639 H 0.73672 0.58475 0.14678 0.0
H640 H 0.78893 0.58592 0.15237 0.0
H641 H 0.74792 0.48808 0.13296 0.0
H642 H 0.69653 0.48768 0.12688 0.0
H643 H 0.80472 0.51178 0.12418 0.0
H644 H 0.77397 0.52061 0.1783 0.0
H645 H 0.75794 0.54392 0.20091 0.0
H646 H 0.84717 0.6367 0.19503 0.0
H647 H 0.86357 0.61403 0.17227 0.0
C648 C 0.93866 0.50839 0.15238 0.0
C649 C 0.96821 0.53618 0.15804 0.0
C650 C 0.90838 0.50878 0.14998 0.0
C651 C 0.90529 0.53702 0.15281 0.0
C652 C 0.93475 0.56473 0.15868 0.0
C653 C 0.96507 0.56436 0.16114 0.0
C654 C 0.8719 0.53739 0.15003 0.0
C655 C 0.86052 0.55223 0.16138 0.0
C656 C 0.85022 0.52256 0.13646 0.0
C657 C 0.85933 0.50786 0.12298 0.0
C658 C 0.88908 0.52658 0.11454 0.0
C659 C 0.8968 0.51284 0.10144 0.0
C660 C 0.87522 0.48039 0.09677 0.0
C661 C 0.84551 0.46173 0.10498 0.0
C662 C 0.8374 0.47543 0.11794 0.0
C663 C 0.73817 0.56291 0.14416 0.0
C664 C 0.7106 0.53559 0.1368 0.0
C665 C 0.76883 0.56356 0.14736 0.0
C666 C 0.77413 0.53684 0.14352 0.0
C667 C 0.74629 0.50951 0.13631 0.0
C668 C 0.71594 0.50903 0.13299 0.0
C669 C 0.808 0.53733 0.14629 0.0
C670 C 0.81953 0.52268 0.1349 0.0
C671 C 0.82959 0.552 0.15989 0.0
C672 C 0.8198 0.56574 0.17348 0.0
C673 C 0.79005 0.54605 0.18177 0.0
C674 C 0.78093 0.55913 0.19461 0.0
C675 C 0.80148 0.5918 0.19936 0.0
C676 C 0.83125 0.61142 0.19131 0.0
C677 C 0.84048 0.59847 0.17844 0.0
H678 H 0.79437 0.60188 0.20931 0.0
H679 H 0.88137 0.46981 0.08667 0.0
H680 H 0.49882 0.92396 0.48542 0.0
H681 H 0.44694 0.87135 0.48174 0.0
H682 H 0.39148 0.91986 0.49118 0.0
H683 H 0.44326 0.97262 0.49435 0.0
H684 H 0.36034 0.85798 0.50668 0.0
H685 H 0.39868 0.89312 0.45209 0.0
H686 H 0.43855 0.90978 0.42968 0.0
H687 H 0.43895 0.81877 0.43376 0.0
H688 H 0.39939 0.80174 0.45633 0.0
H689 H 0.19935 0.71734 0.4872 0.0
H690 H 0.2502 0.77006 0.49111 0.0
H691 H 0.30305 0.73588 0.46185 0.0
H692 H 0.25149 0.68451 0.45684 0.0
H693 H 0.33712 0.79187 0.45679 0.0
H694 H 0.3061 0.75617 0.51118 0.0
H695 H 0.27097 0.73697 0.53548 0.0
H696 H 0.26232 0.82384 0.53477 0.0
H697 H 0.29715 0.84339 0.51037 0.0
C698 C 0.47574 0.92381 0.48671 0.0
C699 C 0.47655 0.9539 0.49023 0.0
C700 C 0.44543 0.89309 0.48451 0.0
C701 C 0.41372 0.89009 0.48601 0.0
C702 C 0.41457 0.92005 0.48984 0.0
C703 C 0.44484 0.95088 0.49166 0.0
C704 C 0.38029 0.85653 0.48357 0.0
C705 C 0.35538 0.84391 0.49561 0.0
C706 C 0.37261 0.83606 0.46956 0.0
C707 C 0.39629 0.84629 0.45598 0.0
C708 C 0.40745 0.87677 0.44828 0.0
C709 C 0.42997 0.88626 0.43554 0.0
C710 C 0.44132 0.86537 0.43032 0.0
C711 C 0.43016 0.83493 0.43782 0.0
C712 C 0.40767 0.82534 0.45058 0.0
C713 C 0.22176 0.72068 0.48166 0.0
C714 C 0.22001 0.69516 0.47173 0.0
C715 C 0.25186 0.75154 0.4841 0.0
C716 C 0.28291 0.75879 0.47735 0.0
C717 C 0.28091 0.73294 0.46749 0.0
C718 C 0.25067 0.70259 0.46465 0.0
C719 C 0.3166 0.79257 0.48002 0.0
C720 C 0.34171 0.80548 0.46797 0.0
C721 C 0.325 0.81273 0.49431 0.0
C722 C 0.30387 0.80102 0.50885 0.0
C723 C 0.29652 0.77106 0.51616 0.0
C724 C 0.27669 0.76014 0.52995 0.0
C725 C 0.26433 0.77912 0.53663 0.0
C726 C 0.27185 0.80912 0.52956 0.0
C727 C 0.29164 0.82014 0.51575 0.0
H728 H 0.24899 0.77063 0.54732 0.0
H729 H 0.45871 0.87268 0.42045 0.0
H730 H 0.53951 0.42982 0.81259 0.0
H731 H 0.5402 0.37881 0.80823 0.0
H732 H 0.63512 0.42103 0.83155 0.0
H733 H 0.63572 0.47351 0.83409 0.0
H734 H 0.63977 0.38091 0.81739 0.0
H735 H 0.53904 0.34595 0.84519 0.0
H736 H 0.48434 0.33888 0.85143 0.0
H737 H 0.44737 0.29124 0.80569 0.0
H738 H 0.50196 0.29831 0.79911 0.0
H739 H 0.62039 0.21539 0.82562 0.0
H740 H 0.62118 0.26767 0.83037 0.0
H741 H 0.55354 0.24599 0.79095 0.0
H742 H 0.55287 0.19417 0.78612 0.0
H743 H 0.53559 0.27408 0.8146 0.0
H744 H 0.64447 0.31266 0.78955 0.0
H745 H 0.69789 0.31405 0.78901 0.0
H746 H 0.71672 0.34877 0.83802 0.0
H747 H 0.66374 0.34818 0.83872 0.0
C748 C 0.56062 0.42847 0.81693 0.0
C749 C 0.58734 0.45693 0.82398 0.0
C750 C 0.56085 0.39819 0.81467 0.0
C751 C 0.58701 0.39319 0.82012 0.0
C752 C 0.61392 0.42204 0.8271 0.0
C753 C 0.61426 0.45282 0.82873 0.0
C754 C 0.58674 0.35915 0.81828 0.0
C755 C 0.61653 0.35794 0.81702 0.0
C756 C 0.55738 0.32715 0.81778 0.0
C757 C 0.52465 0.32303 0.82158 0.0
C758 C 0.51927 0.33414 0.83643 0.0
C759 C 0.4883 0.33011 0.84003 0.0
C760 C 0.46243 0.31472 0.82894 0.0
C761 C 0.46746 0.30323 0.81425 0.0
C762 C 0.49839 0.30722 0.81058 0.0
C763 C 0.60546 0.22137 0.81789 0.0
C764 C 0.58672 0.19913 0.80529 0.0
C765 C 0.60617 0.25213 0.82056 0.0
C766 C 0.58778 0.26267 0.81099 0.0
C767 C 0.56841 0.24 0.79872 0.0
C768 C 0.56818 0.20968 0.79587 0.0
C769 C 0.58825 0.29636 0.8136 0.0
C770 C 0.55856 0.29736 0.81496 0.0
C771 C 0.61758 0.32785 0.81499 0.0
C772 C 0.65017 0.33017 0.81421 0.0
C773 C 0.66013 0.32073 0.80017 0.0
C774 C 0.69032 0.32141 0.79983 0.0
C775 C 0.7106 0.33132 0.81349 0.0
C776 C 0.70097 0.34105 0.82745 0.0
C777 C 0.671 0.34079 0.82779 0.0
H778 H 0.73382 0.33155 0.81325 0.0
H779 H 0.43847 0.31162 0.83174 0.0
H780 H 0.59902 0.86055 0.4855 0.0
H781 H 0.58327 0.80266 0.48711 0.0
H782 H 0.50048 0.78355 0.51735 0.0
H783 H 0.51667 0.84186 0.51601 0.0
H784 H 0.53705 0.76422 0.53154 0.0
H785 H 0.48953 0.74652 0.47934 0.0
H786 H 0.48586 0.75772 0.45055 0.0
H787 H 0.56938 0.74635 0.44003 0.0
H788 H 0.57391 0.73558 0.46879 0.0
H789 H 0.52775 0.61319 0.54593 0.0
H790 H 0.50658 0.6469 0.53417 0.0
H791 H 0.59294 0.69588 0.50394 0.0
H792 H 0.61409 0.66232 0.51553 0.0
H793 H 0.53804 0.69061 0.48881 0.0
H794 H 0.59408 0.72519 0.54085 0.0
H795 H 0.60145 0.71683 0.56964 0.0
H796 H 0.5041 0.69932 0.57998 0.0
H797 H 0.496 0.70708 0.55116 0.0
C798 C 0.57692 0.84382 0.49211 0.0
C799 C 0.55923 0.85564 0.50077 0.0
C800 C 0.56779 0.81065 0.49294 0.0
C801 C 0.5405 0.78865 0.50224 0.0
C802 C 0.52159 0.80009 0.51008 0.0
C803 C 0.53093 0.83335 0.50939 0.0
C804 C 0.53528 0.75547 0.50588 0.0
C805 C 0.53611 0.74762 0.52216 0.0
C806 C 0.53486 0.73414 0.49366 0.0
C807 C 0.5321 0.74032 0.47628 0.0
C808 C 0.50725 0.74659 0.47091 0.0
C809 C 0.505 0.75284 0.45459 0.0
C810 C 0.52738 0.75277 0.44347 0.0
C811 C 0.55203 0.74637 0.44865 0.0
C812 C 0.5544 0.74012 0.46497 0.0
C813 C 0.54187 0.63073 0.53655 0.0
C814 C 0.57281 0.63556 0.53183 0.0
C815 C 0.52965 0.64975 0.52977 0.0
C816 C 0.54846 0.67416 0.51837 0.0
C817 C 0.57801 0.67709 0.51268 0.0
C818 C 0.59012 0.65795 0.51936 0.0
C819 C 0.54057 0.70015 0.51435 0.0
C820 C 0.53759 0.70669 0.49808 0.0
C821 C 0.5393 0.7206 0.52654 0.0
C822 C 0.54427 0.71627 0.54386 0.0
C823 C 0.57418 0.71933 0.54925 0.0
C824 C 0.57849 0.71472 0.56557 0.0
C825 C 0.55321 0.70744 0.57662 0.0
C826 C 0.52361 0.70486 0.57139 0.0
C827 C 0.51914 0.70934 0.55507 0.0
H828 H 0.5566 0.70389 0.58925 0.0
H829 H 0.52561 0.75763 0.43084 0.0
H830 H 0.77568 0.53495 0.81131 0.0
H831 H 0.78613 0.48899 0.81241 0.0
H832 H 0.70119 0.43525 0.84308 0.0
H833 H 0.69019 0.48083 0.84184 0.0
H834 H 0.75713 0.44329 0.85653 0.0
H835 H 0.70052 0.40323 0.80832 0.0
H836 H 0.68127 0.40123 0.78047 0.0
H837 H 0.77801 0.43017 0.76249 0.0
H838 H 0.79801 0.43262 0.79029 0.0
H839 H 0.83336 0.35346 0.87038 0.0
H840 H 0.78613 0.35432 0.85819 0.0
H841 H 0.85126 0.42846 0.82446 0.0
H842 H 0.89818 0.42768 0.83641 0.0
H843 H 0.78774 0.39248 0.81224 0.0
H844 H 0.8438 0.4541 0.86145 0.0
H845 H 0.86373 0.4578 0.88936 0.0
H846 H 0.76562 0.38769 0.90485 0.0
H847 H 0.74514 0.38371 0.87693 0.0
C848 C 0.75879 0.5131 0.818 0.0
C849 C 0.73242 0.51182 0.8267 0.0
C850 C 0.76466 0.48674 0.81852 0.0
C851 C 0.74428 0.45866 0.82774 0.0
C852 C 0.71715 0.4567 0.83588 0.0
C853 C 0.71119 0.48297 0.83531 0.0
C854 C 0.75468 0.43421 0.83091 0.0
C855 C 0.76262 0.43111 0.84688 0.0
C856 C 0.76231 0.41883 0.81829 0.0
C857 C 0.75082 0.41821 0.80148 0.0
C858 C 0.71782 0.40945 0.79847 0.0
C859 C 0.70673 0.40815 0.78266 0.0
C860 C 0.72842 0.41561 0.76971 0.0
C861 C 0.76123 0.42436 0.77254 0.0
C862 C 0.77243 0.4256 0.78834 0.0
C863 C 0.83739 0.36902 0.85998 0.0
C864 C 0.86957 0.39109 0.85463 0.0
C865 C 0.81039 0.36934 0.85296 0.0
C866 C 0.81539 0.39208 0.84071 0.0
C867 C 0.84686 0.41078 0.83393 0.0
C868 C 0.87377 0.41033 0.84084 0.0
C869 C 0.79081 0.4025 0.83773 0.0
C870 C 0.78075 0.40344 0.82186 0.0
C871 C 0.781 0.41594 0.85041 0.0
C872 C 0.79306 0.41835 0.86716 0.0
C873 C 0.82655 0.43941 0.87082 0.0
C874 C 0.83793 0.44155 0.88663 0.0
C875 C 0.81601 0.42284 0.89888 0.0
C876 C 0.78259 0.40209 0.89535 0.0
C877 C 0.77106 0.39993 0.87954 0.0
H878 H 0.82487 0.4245 0.91112 0.0
H879 H 0.71979 0.4146 0.75747 0.0
H880 H 0.26996 0.69958 0.1876 0.0
H881 H 0.32745 0.74396 0.1854 0.0
H882 H 0.2962 0.80153 0.15774 0.0
H883 H 0.23893 0.75708 0.15965 0.0
H884 H 0.35548 0.81171 0.14727 0.0
H885 H 0.30311 0.80899 0.19843 0.0
H886 H 0.27405 0.78261 0.22372 0.0
H887 H 0.35445 0.76875 0.23806 0.0
H888 H 0.38377 0.79467 0.21272 0.0
H889 H 0.44428 0.97718 0.17111 0.0
H890 H 0.40899 0.92017 0.16275 0.0
H891 H 0.46437 0.89047 0.19323 0.0
H892 H 0.49961 0.94766 0.20179 0.0
H893 H 0.40194 0.85927 0.201 0.0
H894 H 0.46021 0.87804 0.1517 0.0
H895 H 0.48758 0.90705 0.12658 0.0
H896 H 0.39576 0.89416 0.10866 0.0
H897 H 0.36789 0.86549 0.13375 0.0
C898 C 0.27552 0.7216 0.1809 0.0
C899 C 0.25013 0.72526 0.17401 0.0
C900 C 0.30828 0.74675 0.17956 0.0
C901 C 0.31594 0.77613 0.17158 0.0
C902 C 0.29079 0.77899 0.16388 0.0
C903 C 0.2581 0.7537 0.16506 0.0
C904 C 0.3491 0.80549 0.17303 0.0
C905 C 0.36587 0.82219 0.15898 0.0
C906 C 0.36284 0.81861 0.18833 0.0
C907 C 0.34541 0.80335 0.20362 0.0
C908 C 0.31447 0.80011 0.20694 0.0
C909 C 0.29797 0.78527 0.22128 0.0
C910 C 0.31235 0.77392 0.23247 0.0
C911 C 0.34331 0.77749 0.22936 0.0
C912 C 0.35988 0.79224 0.21502 0.0
C913 C 0.4496 0.95866 0.17562 0.0
C914 C 0.47435 0.96666 0.18724 0.0
C915 C 0.42953 0.92608 0.17076 0.0
C916 C 0.43417 0.90107 0.1773 0.0
C917 C 0.46042 0.90941 0.18803 0.0
C918 C 0.48036 0.94197 0.19298 0.0
C919 C 0.40821 0.86627 0.17521 0.0
C920 C 0.39251 0.84848 0.18921 0.0
C921 C 0.39536 0.85254 0.15986 0.0
C922 C 0.41197 0.86966 0.14467 0.0
C923 C 0.44587 0.88156 0.14245 0.0
C924 C 0.46148 0.89792 0.1282 0.0
C925 C 0.44343 0.90246 0.11604 0.0
C926 C 0.40971 0.8906 0.11809 0.0
C927 C 0.39398 0.87422 0.13231 0.0
H928 H 0.45556 0.91515 0.10502 0.0
H929 H 0.29953 0.76243 0.24356 0.0
H930 H 0.65637 0.23973 0.46092 0.0
H931 H 0.69399 0.29944 0.46012 0.0
H932 H 0.61248 0.31471 0.47113 0.0
H933 H 0.57488 0.25537 0.47104 0.0
H934 H 0.65558 0.36496 0.45517 0.0
H935 H 0.6586 0.29949 0.50014 0.0
H936 H 0.66864 0.25768 0.51273 0.0
H937 H 0.77003 0.31157 0.49788 0.0
H938 H 0.76031 0.35319 0.48474 0.0
H939 H 0.70134 0.45236 0.53315 0.0
H940 H 0.6987 0.40828 0.51684 0.0
H941 H 0.74287 0.47516 0.47681 0.0
H942 H 0.74577 0.51998 0.49327 0.0
H943 H 0.73552 0.39134 0.49997 0.0
H944 H 0.69848 0.43283 0.4429 0.0
H945 H 0.67956 0.4711 0.43435 0.0
H946 H 0.63342 0.46058 0.48048 0.0
H947 H 0.65167 0.42194 0.48918 0.0
C948 C 0.64647 0.25605 0.46251 0.0
C949 C 0.61295 0.24327 0.46621 0.0
C950 C 0.66792 0.29006 0.4621 0.0
C951 C 0.65624 0.31155 0.46602 0.0
C952 C 0.62215 0.2987 0.46811 0.0
C953 C 0.60062 0.26477 0.46812 0.0
C954 C 0.6792 0.34619 0.47079 0.0
C955 C 0.67366 0.37092 0.4647 0.0
C956 C 0.70273 0.35407 0.48331 0.0
C957 C 0.70856 0.32903 0.49115 0.0
C958 C 0.68293 0.3022 0.49939 0.0
C959 C 0.68855 0.27854 0.50661 0.0
C960 C 0.71988 0.28185 0.50599 0.0
C961 C 0.7457 0.30887 0.4982 0.0
C962 C 0.74012 0.33245 0.49082 0.0
C963 C 0.71175 0.4582 0.52112 0.0
C964 C 0.72341 0.48965 0.51446 0.0
C965 C 0.71014 0.43283 0.51174 0.0
C966 C 0.72009 0.4383 0.49552 0.0
C967 C 0.73463 0.47034 0.48925 0.0
C968 C 0.73617 0.49585 0.49865 0.0
C969 C 0.71045 0.40938 0.48497 0.0
C970 C 0.71871 0.38584 0.48988 0.0
C971 C 0.68827 0.40211 0.47191 0.0
C972 C 0.67687 0.42497 0.46674 0.0
C973 C 0.68427 0.4387 0.45119 0.0
C974 C 0.67364 0.46041 0.44631 0.0
C975 C 0.65542 0.46838 0.45689 0.0
C976 C 0.64762 0.45449 0.47232 0.0
C977 C 0.65809 0.43269 0.47722 0.0
H978 H 0.64728 0.48523 0.4531 0.0
H979 H 0.72411 0.26352 0.5116 0.0
H980 H 0.41581 0.58381 0.85748 0.0
H981 H 0.36944 0.59309 0.86177 0.0
H982 H 0.3264 0.54479 0.81659 0.0
H983 H 0.37285 0.53571 0.81212 0.0
H984 H 0.33151 0.61815 0.84497 0.0
H985 H 0.24884 0.48436 0.82683 0.0
H986 H 0.25208 0.43403 0.82237 0.0
H987 H 0.32759 0.46516 0.85863 0.0
H988 H 0.32433 0.51532 0.86348 0.0
H989 H 0.15456 0.55894 0.85719 0.0
H990 H 0.207 0.57137 0.84441 0.0
H991 H 0.23394 0.53786 0.88722 0.0
H992 H 0.18208 0.52573 0.90003 0.0
H993 H 0.23548 0.50771 0.85654 0.0
H994 H 0.27155 0.61342 0.88251 0.0
H995 H 0.26926 0.66404 0.8875 0.0
H996 H 0.28748 0.6893 0.83723 0.0
H997 H 0.2894 0.63853 0.83191 0.0
C998 C 0.39708 0.57624 0.84819 0.0
C999 C 0.39745 0.55836 0.83466 0.0
C1000 C 0.37071 0.58169 0.85062 0.0
C1001 C 0.34445 0.56924 0.83958 0.0
C1002 C 0.34643 0.55437 0.82527 0.0
C1003 C 0.37274 0.5489 0.82283 0.0
C1004 C 0.31269 0.56582 0.84458 0.0
C1005 C 0.31033 0.59406 0.84731 0.0
C1006 C 0.28526 0.53433 0.84772 0.0
C1007 C 0.28659 0.5037 0.84536 0.0
C1008 C 0.26599 0.48033 0.8339 0.0
C1009 C 0.26783 0.45186 0.8313 0.0
C1010 C 0.29011 0.44646 0.84017 0.0
C1011 C 0.31041 0.46941 0.85173 0.0
C1012 C 0.30857 0.49785 0.85441 0.0
C1013 C 0.17191 0.55458 0.86387 0.0
C1014 C 0.16448 0.54151 0.87958 0.0
C1015 C 0.20174 0.56176 0.85661 0.0
C1016 C 0.2241 0.55549 0.86494 0.0
C1017 C 0.21689 0.54289 0.88068 0.0
C1018 C 0.18742 0.53617 0.88799 0.0
C1019 C 0.25427 0.56003 0.85708 0.0
C1020 C 0.25632 0.53183 0.85382 0.0
C1021 C 0.28128 0.59151 0.85356 0.0
C1022 C 0.28019 0.62199 0.85678 0.0
C1023 C 0.27471 0.62959 0.87249 0.0
C1024 C 0.27357 0.65835 0.87539 0.0
C1025 C 0.27811 0.67982 0.86268 0.0
C1026 C 0.2839 0.67261 0.84706 0.0
C1027 C 0.28504 0.64387 0.8441 0.0
H1028 H 0.27722 0.70207 0.86495 0.0
H1029 H 0.29158 0.42446 0.83811 0.0
H1030 H 0.85703 0.34448 0.11991 0.0
H1031 H 0.80026 0.32956 0.12636 0.0
H1032 H 0.83375 0.42909 0.14186 0.0
H1033 H 0.89014 0.44412 0.13502 0.0
H1034 H 0.80431 0.38685 0.16552 0.0
H1035 H 0.77459 0.39673 0.11212 0.0
H1036 H 0.77262 0.39091 0.08245 0.0
H1037 H 0.7196 0.28564 0.08717 0.0
H1038 H 0.72181 0.29089 0.11686 0.0
H1039 H 0.64476 0.30247 0.202 0.0
H1040 H 0.68748 0.3442 0.18435 0.0
H1041 H 0.69252 0.26747 0.15804 0.0
H1042 H 0.65083 0.22632 0.17544 0.0
H1043 H 0.69821 0.31476 0.13766 0.0
H1044 H 0.74381 0.307 0.18998 0.0
H1045 H 0.74861 0.3118 0.21967 0.0
H1046 H 0.77334 0.41298 0.21665 0.0
H1047 H 0.76828 0.4086 0.18693 0.0
C1048 C 0.85207 0.36345 0.12408 0.0
C1049 C 0.8781 0.39545 0.12719 0.0
C1050 C 0.81959 0.35499 0.12767 0.0
C1051 C 0.81277 0.37835 0.13452 0.0
C1052 C 0.83839 0.41086 0.13636 0.0
C1053 C 0.87064 0.41942 0.13247 0.0
C1054 C 0.7807 0.36733 0.14256 0.0
C1055 C 0.78099 0.372 0.15932 0.0
C1056 C 0.75037 0.34776 0.13453 0.0
C1057 C 0.74861 0.34426 0.1167 0.0
C1058 C 0.76281 0.37236 0.10681 0.0
C1059 C 0.76158 0.36916 0.09 0.0
C1060 C 0.74604 0.33792 0.08293 0.0
C1061 C 0.73163 0.30982 0.09267 0.0
C1062 C 0.73282 0.31291 0.10949 0.0
C1063 C 0.65482 0.29463 0.19233 0.0
C1064 C 0.64423 0.26109 0.19006 0.0
C1065 C 0.679 0.3184 0.18222 0.0
C1066 C 0.69305 0.30886 0.16985 0.0
C1067 C 0.68166 0.27538 0.1673 0.0
C1068 C 0.65772 0.25182 0.17731 0.0
C1069 C 0.72222 0.33308 0.16064 0.0
C1070 C 0.72141 0.33084 0.1437 0.0
C1071 C 0.75223 0.35475 0.16849 0.0
C1072 C 0.75519 0.35734 0.18631 0.0
C1073 C 0.75002 0.33018 0.19568 0.0
C1074 C 0.75282 0.33283 0.2125 0.0
C1075 C 0.76115 0.36264 0.22005 0.0
C1076 C 0.76678 0.38988 0.21079 0.0
C1077 C 0.76394 0.38732 0.19397 0.0
H1078 H 0.76333 0.36466 0.23307 0.0
H1079 H 0.74511 0.33547 0.06991 0.0
H1080 H 0.09239 0.60473 0.11147 0.0
H1081 H 0.07253 0.59189 0.08355 0.0
H1082 H 1.02927 0.48816 0.09366 0.0
H1083 H 0.05018 0.50114 0.12129 0.0
H1084 H 0.05577 0.5028 0.06394 0.0
H1085 H 0.9858 0.52643 0.09635 0.0
H1086 H 0.97485 0.56072 0.115 0.0
H1087 H 1.00336 0.63491 0.07841 0.0
H1088 H 1.01602 0.60177 0.05975 0.0
H1089 H 0.9498 0.44457 -0.00278 0.0
H1090 H 0.9623 0.45619 0.02604 0.0
H1091 H 1.01638 0.5603 0.01592 0.0
H1092 H 1.00391 0.54882 0.98712 0.0
H1093 H 0.98142 0.54373 0.04611 0.0
H1094 H 0.05744 0.52308 0.01548 0.0
H1095 H 0.0714 0.49034 -0.00278 0.0
H1096 H 1.0303 0.41011 0.03098 0.0
H1097 H 1.01551 0.44219 0.0493 0.0
C1098 C 0.07916 0.57926 0.10762 0.0
C1099 C 0.07216 0.55376 0.11857 0.0
C1100 C 0.06771 0.57194 0.09172 0.0
C1101 C 0.04879 0.53904 0.08667 0.0
C1102 C 0.04359 0.5137 0.09735 0.0
C1103 C 0.0553 0.52108 0.11316 0.0
C1104 C 1.03268 0.53087 0.07064 0.0
C1105 C 1.0392 0.5114 0.06013 0.0
C1106 C 1.01122 0.54236 0.06568 0.0
C1107 C 1.00225 0.56172 0.07667 0.0
C1108 C 0.99014 0.55023 0.09231 0.0
C1109 C 0.9838 0.56956 0.10293 0.0
C1110 C 0.98846 0.6 0.0979 0.0
C1111 C 0.99974 0.6113 0.08228 0.0
C1112 C 1.00667 0.59232 0.0717 0.0
C1113 C 0.96335 0.46994 0.00124 0.0
C1114 C 0.97619 0.49582 0.99001 0.0
C1115 C 0.97059 0.47654 0.01766 0.0
C1116 C 0.99059 0.50907 0.02301 0.0
C1117 C 1.00092 0.53506 0.01199 0.0
C1118 C 0.99394 0.52847 0.99558 0.0
C1119 C 1.00467 0.5158 0.03948 0.0
C1120 C 0.99779 0.53498 0.05004 0.0
C1121 C 1.02573 0.50399 0.04456 0.0
C1122 C 1.03503 0.48488 0.03367 0.0
C1123 C 0.05114 0.49836 0.01895 0.0
C1124 C 0.05923 0.47994 0.00859 0.0
C1125 C 0.05167 0.44814 0.01292 0.0
C1126 C 1.03608 0.43473 0.02763 0.0
C1127 C 1.02783 0.45301 0.038 0.0
H1128 H 0.05797 0.43391 0.0049 0.0
H1129 H 0.98326 0.6148 0.10609 0.0
H1130 H 0.52985 0.03843 0.45158 0.0
H1131 H 0.52323 0.05241 0.42384 0.0
H1132 H 0.62779 0.0949 0.41588 0.0
H1133 H 0.63458 0.08109 0.44365 0.0
H1134 H 0.60258 0.13338 0.40345 0.0
H1135 H 0.57824 1.02075 0.40187 0.0
H1136 H 0.54986 0.96269 0.41054 0.0
H1137 H 0.45631 0.95283 0.39804 0.0
H1138 H 0.48413 1.01101 0.38947 0.0
H1139 H 0.60503 0.13294 0.31719 0.0
H1140 H 0.61139 0.12873 0.34632 0.0
H1141 H 0.50545 0.07399 0.35164 0.0
H1142 H 0.49915 0.07736 0.32249 0.0
H1143 H 0.53074 0.04294 0.36601 0.0
H1144 H 0.55488 0.15484 0.36611 0.0
H1145 H 0.58302 0.21301 0.35765 0.0
H1146 H 0.67599 0.22501 0.3731 0.0
H1147 H 0.64848 0.16676 0.38144 0.0
C1148 C 0.55141 0.05083 0.44391 0.0
C1149 C 0.58268 0.05848 0.44966 0.0
C1150 C 0.54761 0.05878 0.42811 0.0
C1151 C 0.57501 0.07448 0.41781 0.0
C1152 C 0.60638 0.08281 0.42366 0.0
C1153 C 0.61017 0.07472 0.43945 0.0
C1154 C 0.57073 0.08107 0.40076 0.0
C1155 C 0.58714 0.11367 0.39517 0.0
C1156 C 0.55001 0.05534 0.39015 0.0
C1157 C 0.53324 1.0203 0.39517 0.0
C1158 C 0.5516 1.00627 0.40108 0.0
C1159 C 0.53563 0.97334 0.40596 0.0
C1160 C 0.50131 0.95412 0.40487 0.0
C1161 C 0.48289 0.96777 0.39888 0.0
C1162 C 0.49875 1.00071 0.394 0.0
C1163 C 0.58317 0.12064 0.32467 0.0
C1164 C 0.55162 0.10537 0.31766 0.0
C1165 C 0.58679 0.11828 0.34131 0.0
C1166 C 0.55888 0.10116 0.35122 0.0
C1167 C 0.52734 0.08718 0.34425 0.0
C1168 C 0.52374 0.08916 0.32763 0.0
C1169 C 0.56243 0.09544 0.36856 0.0
C1170 C 0.54598 0.06286 0.37424 0.0
C1171 C 0.58303 0.12126 0.37923 0.0
C1172 C 0.59964 0.15633 0.37426 0.0
C1173 C 0.58136 0.16981 0.36758 0.0
C1174 C 0.5972 0.20281 0.36283 0.0
C1175 C 0.63128 0.22267 0.3648 0.0
C1176 C 0.6496 0.20959 0.37156 0.0
C1177 C 0.63389 0.17659 0.37632 0.0
H1178 H 0.64349 0.24822 0.36111 0.0
H1179 H 0.48902 0.92864 0.40861 0.0
H1180 H 0.62623 0.59607 0.7826 0.0
H1181 H 0.64891 0.60116 0.75539 0.0
H1182 H 0.59364 0.49557 0.74998 0.0
H1183 H 0.57076 0.49034 0.77715 0.0
H1184 H 0.65951 0.52529 0.73823 0.0
H1185 H 0.56298 0.53729 0.73408 0.0
H1186 H 0.5289 0.56202 0.74105 0.0
H1187 H 0.60661 0.65677 0.72569 0.0
H1188 H 0.64135 0.63267 0.71884 0.0
H1189 H 0.65454 0.50676 0.65279 0.0
H1190 H 0.64507 0.50533 0.68193 0.0
H1191 H 0.68424 0.61047 0.68187 0.0
H1192 H 0.6924 0.61161 0.65264 0.0
H1193 H 0.62987 0.58329 0.69726 0.0
H1194 H 0.72559 0.57188 0.69947 0.0
H1195 H 0.7609 0.54835 0.69291 0.0
H1196 H 0.68792 0.45497 0.71215 0.0
H1197 H 0.65194 0.4778 0.71862 0.0
C1198 C 0.61912 0.57397 0.77563 0.0
C1199 C 0.5965 0.54284 0.78184 0.0
C1200 C 0.63207 0.5769 0.76013 0.0
C1201 C 0.62272 0.54873 0.75068 0.0
C1202 C 0.60113 0.51756 0.75712 0.0
C1203 C 0.58795 0.51463 0.77256 0.0
C1204 C 0.63388 0.55185 0.73374 0.0
C1205 C 0.65292 0.53774 0.72919 0.0
C1206 C 0.62585 0.56879 0.72213 0.0
C1207 C 0.60488 0.58325 0.72612 0.0
C1208 C 0.5729 0.56345 0.73231 0.0
C1209 C 0.55345 0.57734 0.73622 0.0
C1210 C 0.56562 0.61096 0.73386 0.0
C1211 C 0.59724 0.63074 0.72754 0.0
C1212 C 0.61681 0.61698 0.72363 0.0
C1213 C 0.66164 0.52958 0.6591 0.0
C1214 C 0.67415 0.55928 0.65055 0.0
C1215 C 0.65635 0.52881 0.67575 0.0
C1216 C 0.66422 0.55786 0.68417 0.0
C1217 C 0.67788 0.58773 0.67566 0.0
C1218 C 0.68261 0.5884 0.659 0.0
C1219 C 0.6558 0.5568 0.70155 0.0
C1220 C 0.637 0.57116 0.70623 0.0
C1221 C 0.66435 0.54032 0.71327 0.0
C1222 C 0.68594 0.5265 0.7094 0.0
C1223 C 0.71695 0.54626 0.70219 0.0
C1224 C 0.73711 0.53305 0.6985 0.0
C1225 C 0.72663 0.50017 0.70207 0.0
C1226 C 0.69599 0.48043 0.70937 0.0
C1227 C 0.67572 0.4935 0.71307 0.0
H1228 H 0.74228 0.48999 0.69921 0.0
H1229 H 0.55053 0.62167 0.73689 0.0
H1230 H 0.51473 1.01491 0.54711 0.0
H1231 H 0.51956 1.0132 0.57642 0.0
H1232 H 0.62231 0.08806 0.57349 0.0
H1233 H 0.61787 0.08804 0.5439 0.0
H1234 H 0.61869 0.05108 0.59613 0.0
H1235 H 0.55427 0.10185 0.58582 0.0
H1236 H 0.50907 0.10806 0.57434 0.0
H1237 H 0.43789 1.02067 0.59904 0.0
H1238 H 0.48267 1.01369 0.61052 0.0
H1239 H 0.62534 0.10379 0.67907 0.0
H1240 H 0.62318 0.10057 0.64946 0.0
H1241 H 0.53627 1.00452 0.6521 0.0
H1242 H 0.53881 1.0073 0.68181 0.0
H1243 H 0.53234 0.05249 0.63019 0.0
H1244 H 0.60183 1.00599 0.6414 0.0
H1245 H 0.64989 1.0059 0.65354 0.0
H1246 H 0.71525 0.09418 0.62766 0.0
H1247 H 0.66753 0.09507 0.61554 0.0
C1248 C 0.53844 0.03085 0.5527 0.0
C1249 C 0.56584 0.05176 0.54313 0.0
C1250 C 0.54115 0.03015 0.56958 0.0
C1251 C 0.57107 0.05128 0.57754 0.0
C1252 C 0.59879 0.07157 0.56789 0.0
C1253 C 0.59626 0.07162 0.5509 0.0
C1254 C 0.57324 0.05227 0.5958 0.0
C1255 C 0.59991 0.05183 0.60347 0.0
C1256 C 0.54882 0.05296 0.60575 0.0
C1257 C 0.52182 0.05707 0.5989 0.0
C1258 C 0.52897 0.08383 0.58872 0.0
C1259 C 0.50342 0.08751 0.58222 0.0
C1260 C 0.47063 0.06472 0.58593 0.0
C1261 C 0.46331 0.03826 0.59617 0.0
C1262 C 0.48876 0.03445 0.60268 0.0
C1263 C 0.60588 0.08185 0.67336 0.0
C1264 C 0.58226 0.05578 0.68287 0.0
C1265 C 0.60472 0.08002 0.6564 0.0
C1266 C 0.57956 0.05231 0.64844 0.0
C1267 C 0.55595 0.02618 0.6579 0.0
C1268 C 0.55752 0.0277 0.67489 0.0
C1269 C 0.57749 0.05109 0.63031 0.0
C1270 C 0.55093 0.05165 0.62274 0.0
C1271 C 0.60241 0.0514 0.62049 0.0
C1272 C 0.6311 0.05077 0.62769 0.0
C1273 C 0.62644 1.02555 0.63841 0.0
C1274 C 0.65362 1.02532 0.64527 0.0
C1275 C 0.6856 0.05007 0.64141 0.0
C1276 C 0.69046 0.07505 0.63065 0.0
C1277 C 0.66336 0.07541 0.62378 0.0
H1278 H 0.70661 0.04984 0.64673 0.0
H1279 H 0.45089 0.06761 0.58089 0.0
H1280 H 0.61512 0.51988 0.88024 0.0
H1281 H 0.6082 0.51799 0.90955 0.0
H1282 H 0.5512 0.56665 0.90503 0.0
H1283 H 0.55821 0.56867 0.87549 0.0
H1284 H 0.59641 0.59387 0.92936 0.0
H1285 H 0.51438 0.48427 0.91443 0.0
H1286 H 0.49293 0.43032 0.90114 0.0
H1287 H 0.55996 0.41215 0.92868 0.0
H1288 H 0.58215 0.46621 0.94198 0.0
H1289 H 0.54274 0.57051 0.01105 0.0
H1290 H 0.54636 0.57058 0.98172 0.0
H1291 H 0.59547 0.51381 0.98461 0.0
H1292 H 0.59037 0.51214 0.01409 0.0
H1293 H 0.5533 0.49057 0.96089 0.0
H1294 H 0.63658 0.59969 0.97532 0.0
H1295 H 0.65978 0.65401 0.98843 0.0
H1296 H 0.59279 0.67364 0.96177 0.0
H1297 H 0.56887 0.61923 0.94865 0.0
C1298 C 0.60082 0.52994 0.88543 0.0
C1299 C 0.58716 0.54435 0.87542 0.0
C1300 C 0.59679 0.52876 0.90228 0.0
C1301 C 0.57893 0.54194 0.90971 0.0
C1302 C 0.56508 0.55624 0.89972 0.0
C1303 C 0.56893 0.55723 0.88278 0.0
C1304 C 0.57554 0.54139 0.92784 0.0
C1305 C 0.58645 0.57117 0.93621 0.0
C1306 C 0.56353 0.51202 0.93701 0.0
C1307 C 0.55013 0.47943 0.92909 0.0
C1308 C 0.52473 0.46888 0.91756 0.0
C1309 C 0.5124 0.43826 0.91004 0.0
C1310 C 0.52513 0.41785 0.91403 0.0
C1311 C 0.55015 0.428 0.92559 0.0
C1312 C 0.56259 0.45861 0.93313 0.0
C1313 C 0.55405 0.55766 0.00556 0.0
C1314 C 0.56608 0.54115 0.01523 0.0
C1315 C 0.55654 0.55814 0.98863 0.0
C1316 C 0.57164 0.54261 0.98069 0.0
C1317 C 0.58376 0.52614 0.99027 0.0
C1318 C 0.58113 0.5255 0.00725 0.0
C1319 C 0.57423 0.54311 0.96247 0.0
C1320 C 0.5632 0.5133 0.95408 0.0
C1321 C 0.58637 0.5725 0.95328 0.0
C1322 C 0.60071 0.60525 0.96113 0.0
C1323 C 0.62662 0.61549 0.97235 0.0
C1324 C 0.63993 0.64631 0.97976 0.0
C1325 C 0.6277 0.66723 0.97597 0.0
C1326 C 0.6022 0.6574 0.96471 0.0
C1327 C 0.58878 0.62658 0.95727 0.0
H1328 H 0.63804 0.69109 0.98172 0.0
H1329 H 0.51556 0.39416 0.9082 0.0
H1330 H 0.05923 0.5626 0.20982 0.0
H1331 H 0.06289 0.57077 0.23929 0.0
H1332 H 0.06887 0.48272 0.24542 0.0
H1333 H 0.06598 0.4749 0.2161 0.0
H1334 H 1.02311 0.48612 0.2666 0.0
H1335 H 0.13633 0.55484 0.24947 0.0
H1336 H 0.18035 0.59926 0.23333 0.0
H1337 H 0.15743 0.66921 0.25416 0.0
H1338 H 0.1129 0.62508 0.27025 0.0
H1339 H 0.06596 0.49741 0.34958 0.0
H1340 H 0.06261 0.49184 0.32014 0.0
H1341 H 0.08447 0.5924 0.31571 0.0
H1342 H 0.08939 0.59838 0.34512 0.0
H1343 H 0.1149 0.58391 0.29313 0.0
H1344 H 1.00293 0.5194 0.30983 0.0
H1345 H 0.95551 0.47689 0.32511 0.0
H1346 H 0.97113 0.40183 0.30451 0.0
H1347 H 1.01893 0.44396 0.28925 0.0
C1348 C 0.06155 0.54513 0.21745 0.0
C1349 C 0.06244 0.51816 0.21053 0.0
C1350 C 0.06363 0.5498 0.23432 0.0
C1351 C 0.0662 0.52737 0.2447 0.0
C1352 C 0.06683 0.50035 0.23778 0.0
C1353 C 0.0653 0.49599 0.22095 0.0
C1354 C 0.06815 0.5318 0.26273 0.0
C1355 C 0.04338 0.50733 0.27242 0.0
C1356 C 0.09393 0.55997 0.2704 0.0
C1357 C 0.12107 0.5866 0.26095 0.0
C1358 C 0.14052 0.57965 0.25053 0.0
C1359 C 0.16558 0.60478 0.2414 0.0
C1360 C 0.17164 0.63703 0.24269 0.0
C1361 C 0.15269 0.64422 0.25316 0.0
C1362 C 0.12756 0.61916 0.26229 0.0
C1363 C 0.06983 0.51827 0.34233 0.0
C1364 C 0.07783 0.5483 0.34981 0.0
C1365 C 0.06776 0.51505 0.3254 0.0
C1366 C 0.07262 0.54147 0.3154 0.0
C1367 C 0.0806 0.5715 0.32292 0.0
C1368 C 0.08333 0.57491 0.33983 0.0
C1369 C 0.06983 0.53801 0.29721 0.0
C1370 C 0.09447 0.56267 0.28743 0.0
C1371 C 0.04347 0.51031 0.2894 0.0
C1372 C 1.01471 0.48488 0.29852 0.0
C1373 C 0.99639 0.49385 0.30864 0.0
C1374 C 0.96943 0.46982 0.31729 0.0
C1375 C 0.96037 0.43669 0.31581 0.0
C1376 C 0.97821 0.42751 0.30565 0.0
C1377 C 1.00522 0.45145 0.297 0.0
H1378 H 0.93948 0.41812 0.32251 0.0
H1379 H 0.19105 0.65645 0.23561 0.0
loop_
_geom_bond_atom_site_label_1
_geom_bond_atom_site_label_2
_geom_bond_distance
_geom_bond_site_symmetry_2
_ccdc_geom_bond_type
C0 Eu1 2.835 1_655 S
C0 C2 1.500 . S
C0 O20 1.257 . S
C0 O21 1.260 . S
Eu1 C0 2.835 1_455 S
Eu1 O20 2.473 1_455 S
Eu1 O21 2.480 1_455 S
Eu1 O22 2.430 . S
Eu1 O23 2.670 . S
Eu1 O24 2.394 1_455 S
Eu1 O29 2.355 . S
Eu1 O31 2.374 . S
C2 C0 1.500 . S
C2 C3 1.377 . S
C2 C7 1.377 . S
C3 C2 1.377 . S
C3 C4 1.395 . S
C3 H32 0.931 . S
C4 C3 1.395 . S
C4 C5 1.383 . S
C4 H33 0.931 . S
C5 C4 1.383 . S
C5 C6 1.394 . S
C6 C5 1.394 . S
C6 C7 1.378 . S
C6 H34 0.931 . S
C7 C2 1.377 . S
C7 C6 1.378 . S
C7 H35 0.931 . S
C8 O22 1.259 . S
C8 O23 1.270 . S
C9 O24 1.251 . S
C9 O25 1.251 . S
C10 Eu11 2.835 . S
C10 C12 1.500 . S
C10 O26 1.257 . S
C10 O27 1.260 . S
Eu11 C10 2.835 . S
Eu11 O23 2.355 . S
Eu11 O25 2.374 1_455 S
Eu11 O26 2.473 . S
Eu11 O27 2.480 . S
Eu11 O28 2.430 . S
Eu11 O29 2.670 . S
Eu11 O30 2.394 . S
C12 C10 1.500 . S
C12 C13 1.377 . S
C12 C17 1.377 . S
C13 C12 1.377 . S
C13 C14 1.395 . S
C13 H36 0.931 . S
C14 C13 1.395 . S
C14 C15 1.383 . S
C14 H37 0.931 . S
C15 C14 1.383 . S
C15 C16 1.394 . S
C16 C15 1.394 . S
C16 C17 1.378 . S
C16 H38 0.931 . S
C17 C12 1.377 . S
C17 C16 1.378 . S
C17 H39 0.931 . S
C18 O28 1.259 . S
C18 O29 1.270 . S
C19 O30 1.251 . S
C19 O31 1.251 . S
O20 C0 1.257 . S
O20 Eu1 2.473 1_655 S
O21 C0 1.260 . S
O21 Eu1 2.480 1_655 S
O22 Eu1 2.430 . S
O22 C8 1.259 . S
O23 Eu1 2.670 . S
O23 C8 1.270 . S
O23 Eu11 2.355 . S
O24 Eu1 2.394 1_655 S
O24 C9 1.251 . S
O25 C9 1.251 . S
O25 Eu11 2.374 1_655 S
O26 C10 1.257 . S
O26 Eu11 2.473 . S
O27 C10 1.260 . S
O27 Eu11 2.480 . S
O28 Eu11 2.430 . S
O28 C18 1.259 . S
O29 Eu1 2.355 . S
O29 Eu11 2.670 . S
O29 C18 1.270 . S
O30 Eu11 2.394 . S
O30 C19 1.251 . S
O31 Eu1 2.374 . S
O31 C19 1.251 . S
H32 C3 0.931 . S
H33 C4 0.931 . S
H34 C6 0.931 . S
H35 C7 0.931 . S
H36 C13 0.931 . S
H37 C14 0.931 . S
H38 C16 0.931 . S
H39 C17 0.931 . S
C40 Eu41 2.835 . S
C40 C42 1.500 . S
C40 O60 1.257 . S
C40 O61 1.260 . S
Eu41 C40 2.835 . S
Eu41 O60 2.473 . S
Eu41 O61 2.480 . S
Eu41 O62 2.430 . S
Eu41 O63 2.670 . S
Eu41 O64 2.394 . S
Eu41 O69 2.355 . S
Eu41 O71 2.374 1_545 S
C42 C40 1.500 . S
C42 C43 1.377 . S
C42 C47 1.377 . S
C43 C42 1.377 . S
C43 C44 1.395 . S
C43 H72 0.931 . S
C44 C43 1.395 . S
C44 C45 1.383 . S
C44 H73 0.931 . S
C45 C44 1.383 . S
C45 C46 1.394 . S
C46 C45 1.394 . S
C46 C47 1.378 . S
C46 H74 0.931 . S
C47 C42 1.377 . S
C47 C46 1.378 . S
C47 H75 0.931 . S
C48 O62 1.259 . S
C48 O63 1.270 . S
C49 O64 1.251 . S
C49 O65 1.251 . S
C50 Eu51 2.835 1_565 S
C50 C52 1.500 . S
C50 O66 1.257 . S
C50 O67 1.260 . S
Eu51 C50 2.835 1_545 S
Eu51 O63 2.355 . S
Eu51 O65 2.374 . S
Eu51 O66 2.473 1_545 S
Eu51 O67 2.480 1_545 S
Eu51 O68 2.430 . S
Eu51 O69 2.670 . S
Eu51 O70 2.394 1_545 S
C52 C50 1.500 . S
C52 C53 1.377 . S
C52 C57 1.377 . S
C53 C52 1.377 . S
C53 C54 1.395 . S
C53 H76 0.931 . S
C54 C53 1.395 . S
C54 C55 1.383 . S
C54 H77 0.931 . S
C55 C54 1.383 . S
C55 C56 1.394 . S
C56 C55 1.394 . S
C56 C57 1.378 . S
C56 H78 0.931 . S
C57 C52 1.377 . S
C57 C56 1.378 . S
C57 H79 0.931 . S
C58 O68 1.259 . S
C58 O69 1.270 . S
C59 O70 1.251 . S
C59 O71 1.251 . S
O60 C40 1.257 . S
O60 Eu41 2.473 . S
O61 C40 1.260 . S
O61 Eu41 2.480 . S
O62 Eu41 2.430 . S
O62 C48 1.259 . S
O63 Eu41 2.670 . S
O63 C48 1.270 . S
O63 Eu51 2.355 . S
O64 Eu41 2.394 . S
O64 C49 1.251 . S
O65 C49 1.251 . S
O65 Eu51 2.374 . S
O66 C50 1.257 . S
O66 Eu51 2.473 1_565 S
O67 C50 1.260 . S
O67 Eu51 2.480 1_565 S
O68 Eu51 2.430 . S
O68 C58 1.259 . S
O69 Eu41 2.355 . S
O69 Eu51 2.670 . S
O69 C58 1.270 . S
O70 Eu51 2.394 1_565 S
O70 C59 1.251 . S
O71 Eu41 2.374 1_565 S
O71 C59 1.251 . S
H72 C43 0.931 . S
H73 C44 0.931 . S
H74 C46 0.931 . S
H75 C47 0.931 . S
H76 C53 0.931 . S
H77 C54 0.931 . S
H78 C56 0.931 . S
H79 C57 0.931 . S
C80 Eu81 2.835 . S
C80 C82 1.500 . S
C80 O100 1.257 . S
C80 O101 1.260 . S
Eu81 C80 2.835 . S
Eu81 O100 2.473 . S
Eu81 O101 2.480 . S
Eu81 O102 2.430 . S
Eu81 O103 2.670 . S
Eu81 O104 2.394 . S
Eu81 O109 2.355 . S
Eu81 O111 2.374 . S
C82 C80 1.500 . S
C82 C83 1.377 . S
C82 C87 1.377 . S
C83 C82 1.377 . S
C83 C84 1.395 . S
C83 H112 0.931 . S
C84 C83 1.395 . S
C84 C85 1.383 . S
C84 H113 0.931 . S
C85 C84 1.383 . S
C85 C86 1.394 . S
C86 C85 1.394 . S
C86 C87 1.378 . S
C86 H114 0.931 . S
C87 C82 1.377 . S
C87 C86 1.378 . S
C87 H115 0.931 . S
C88 O102 1.259 . S
C88 O103 1.270 . S
C89 O104 1.251 . S
C89 O105 1.251 . S
C90 Eu91 2.835 . S
C90 C92 1.500 . S
C90 O106 1.257 . S
C90 O107 1.260 . S
Eu91 C90 2.835 . S
Eu91 O103 2.355 . S
Eu91 O105 2.374 . S
Eu91 O106 2.473 . S
Eu91 O107 2.480 . S
Eu91 O108 2.430 . S
Eu91 O109 2.670 . S
Eu91 O110 2.394 . S
C92 C90 1.500 . S
C92 C93 1.377 . S
C92 C97 1.377 . S
C93 C92 1.377 . S
C93 C94 1.395 . S
C93 H116 0.931 . S
C94 C93 1.395 . S
C94 C95 1.383 . S
C94 H117 0.931 . S
C95 C94 1.383 . S
C95 C96 1.394 . S
C96 C95 1.394 . S
C96 C97 1.378 . S
C96 H118 0.931 . S
C97 C92 1.377 . S
C97 C96 1.378 . S
C97 H119 0.931 . S
C98 O108 1.259 . S
C98 O109 1.270 . S
C99 O110 1.251 . S
C99 O111 1.251 . S
O100 C80 1.257 . S
O100 Eu81 2.473 . S
O101 C80 1.260 . S
O101 Eu81 2.480 . S
O102 Eu81 2.430 . S
O102 C88 1.259 . S
O103 Eu81 2.670 . S
O103 C88 1.270 . S
O103 Eu91 2.355 . S
O104 Eu81 2.394 . S
O104 C89 1.251 . S
O105 C89 1.251 . S
O105 Eu91 2.374 . S
O106 C90 1.257 . S
O106 Eu91 2.473 . S
O107 C90 1.260 . S
O107 Eu91 2.480 . S
O108 Eu91 2.430 . S
O108 C98 1.259 . S
O109 Eu81 2.355 . S
O109 Eu91 2.670 . S
O109 C98 1.270 . S
O110 Eu91 2.394 . S
O110 C99 1.251 . S
O111 Eu81 2.374 . S
O111 C99 1.251 . S
H112 C83 0.931 . S
H113 C84 0.931 . S
H114 C86 0.931 . S
H115 C87 0.931 . S
H116 C93 0.931 . S
H117 C94 0.931 . S
H118 C96 0.931 . S
H119 C97 0.931 . S
C120 C121 1.391 . S
C120 C124 1.391 . S
C120 H162 0.948 . S
C121 C120 1.391 . S
C121 C122 1.391 . S
C122 C121 1.391 . S
C122 H178 0.947 . S
C122 C179 1.392 . S
C123 C124 1.391 . S
C123 C127 1.397 . S
C123 C179 1.419 . S
C124 C120 1.391 . S
C124 C123 1.391 . S
C124 C125 1.399 . S
C125 C124 1.399 . S
C125 C128 1.396 . S
C125 C137 1.453 . S
C125 C138 1.684 . S
H126 C150 0.948 . S
C127 C123 1.397 . S
C127 C128 1.394 . S
C127 C146 1.723 . S
C128 C125 1.396 . S
C128 C127 1.394 . S
C128 C158 1.723 . S
H129 C152 0.947 . S
H130 C153 0.948 . S
H131 C159 0.982 . S
H132 C160 0.943 1_545 S
H133 C160 0.980 . S
H134 C160 0.983 . S
H135 C159 0.979 . S
H136 C159 0.977 . S
C137 C125 1.453 . S
C137 H166 0.982 . S
C137 H167 0.979 . S
C137 H168 0.977 . S
C138 C125 1.684 . S
C138 H163 0.979 . S
C138 H164 0.980 . S
C138 H165 0.983 . S
C139 C140 1.391 . S
C139 C144 1.391 . S
C139 H169 0.948 . S
C140 C139 1.391 . S
C140 C141 1.391 . S
C141 C140 1.391 . S
C141 C142 1.392 . S
C141 H170 0.947 . S
C142 C141 1.392 . S
C142 C143 1.419 . S
C142 H171 0.948 . S
C143 C142 1.419 . S
C143 C144 1.391 . S
C143 C147 1.397 . S
C144 C139 1.391 . S
C144 C143 1.391 . S
C144 C145 1.399 . S
C145 C144 1.399 . S
C145 C146 1.396 . S
C145 C148 1.453 . S
C145 C149 1.684 . S
C146 C127 1.723 . S
C146 C145 1.396 . S
C146 C147 1.394 . S
C147 C143 1.397 . S
C147 C146 1.394 . S
C147 C157 1.723 . S
C148 C145 1.453 . S
C148 H172 0.982 . S
C148 H173 0.979 . S
C148 H174 0.977 . S
C149 C145 1.684 . S
C149 H175 0.979 . S
C149 H176 0.980 . S
C149 H177 0.983 . S
C150 H126 0.948 . S
C150 C151 1.391 . S
C150 C155 1.391 . S
C151 C150 1.391 . S
C151 C152 1.391 . S
C152 H129 0.947 . S
C152 C151 1.391 . S
C152 C153 1.392 1_565 S
C153 H130 0.948 . S
C153 C152 1.392 1_545 S
C153 C154 1.419 . S
C154 C153 1.419 . S
C154 C155 1.391 1_545 S
C154 C158 1.397 . S
C155 C150 1.391 . S
C155 C154 1.391 1_565 S
C155 C156 1.399 . S
C156 C155 1.399 . S
C156 C157 1.396 1_565 S
C156 C159 1.453 . S
C156 C160 1.684 . S
C157 C147 1.723 . S
C157 C156 1.396 1_545 S
C157 C158 1.394 . S
C158 C128 1.723 . S
C158 C154 1.397 . S
C158 C157 1.394 . S
C159 H131 0.982 . S
C159 H135 0.979 . S
C159 H136 0.977 . S
C159 C156 1.453 . S
C160 H132 0.943 1_565 S
C160 H133 0.980 . S
C160 H134 0.983 . S
C160 C156 1.684 . S
H161 C179 0.948 . S
H162 C120 0.948 . S
H163 C138 0.979 . S
H164 C138 0.980 . S
H165 C138 0.983 . S
H166 C137 0.982 . S
H167 C137 0.979 . S
H168 C137 0.977 . S
H169 C139 0.948 . S
H170 C141 0.947 . S
H171 C142 0.948 . S
H172 C148 0.982 . S
H173 C148 0.979 . S
H174 C148 0.977 . S
H175 C149 0.979 . S
H176 C149 0.980 . S
H177 C149 0.983 . S
H178 C122 0.947 . S
C179 C122 1.392 . S
C179 C123 1.419 . S
C179 H161 0.948 . S
C180 C181 1.391 . S
C180 C184 1.391 . S
C180 H222 0.948 . S
C181 C180 1.391 . S
C181 C182 1.391 . S
C182 C181 1.391 . S
C182 H238 0.947 . S
C182 C239 1.392 . S
C183 C184 1.391 . S
C183 C187 1.397 . S
C183 C239 1.419 . S
C184 C180 1.391 . S
C184 C183 1.391 . S
C184 C185 1.399 . S
C185 C184 1.399 . S
C185 C188 1.396 . S
C185 C197 1.453 . S
C185 C198 1.684 . S
H186 C210 0.948 . S
C187 C183 1.397 . S
C187 C188 1.394 . S
C187 C206 1.723 . S
C188 C185 1.396 . S
C188 C187 1.394 . S
C188 C218 1.723 . S
H189 C212 0.947 . S
H190 C213 0.948 . S
H191 C219 0.982 . S
H192 C220 0.979 . S
H193 C220 0.980 . S
H194 C220 0.983 . S
H195 C219 0.979 . S
H196 C219 0.977 . S
C197 C185 1.453 . S
C197 H226 0.982 . S
C197 H227 0.979 . S
C197 H228 0.977 . S
C198 C185 1.684 . S
C198 H223 0.979 . S
C198 H224 0.980 . S
C198 H225 0.983 . S
C199 C200 1.391 . S
C199 C204 1.391 . S
C199 H229 0.948 . S
C200 C199 1.391 . S
C200 C201 1.391 . S
C201 C200 1.391 . S
C201 C202 1.392 . S
C201 H230 0.947 . S
C202 C201 1.392 . S
C202 C203 1.419 . S
C202 H231 0.948 . S
C203 C202 1.419 . S
C203 C204 1.391 . S
C203 C207 1.397 . S
C204 C199 1.391 . S
C204 C203 1.391 . S
C204 C205 1.399 . S
C205 C204 1.399 . S
C205 C206 1.396 . S
C205 C208 1.453 . S
C205 C209 1.684 . S
C206 C187 1.723 . S
C206 C205 1.396 . S
C206 C207 1.394 . S
C207 C203 1.397 . S
C207 C206 1.394 . S
C207 C217 1.723 . S
C208 C205 1.453 . S
C208 H232 0.982 . S
C208 H233 0.979 . S
C208 H234 0.977 . S
C209 C205 1.684 . S
C209 H235 0.979 . S
C209 H236 0.980 . S
C209 H237 0.983 . S
C210 H186 0.948 . S
C210 C211 1.391 . S
C210 C215 1.391 . S
C211 C210 1.391 . S
C211 C212 1.391 . S
C212 H189 0.947 . S
C212 C211 1.391 . S
C212 C213 1.392 . S
C213 H190 0.948 . S
C213 C212 1.392 . S
C213 C214 1.419 . S
C214 C213 1.419 . S
C214 C215 1.391 . S
C214 C218 1.397 . S
C215 C210 1.391 . S
C215 C214 1.391 . S
C215 C216 1.399 . S
C216 C215 1.399 . S
C216 C217 1.396 . S
C216 C219 1.453 . S
C216 C220 1.684 . S
C217 C207 1.723 . S
C217 C216 1.396 . S
C217 C218 1.394 . S
C218 C188 1.723 . S
C218 C214 1.397 . S
C218 C217 1.394 . S
C219 H191 0.982 . S
C219 H195 0.979 . S
C219 H196 0.977 . S
C219 C216 1.453 . S
C220 H192 0.979 . S
C220 H193 0.980 . S
C220 H194 0.983 . S
C220 C216 1.684 . S
H221 C239 0.948 . S
H222 C180 0.948 . S
H223 C198 0.979 . S
H224 C198 0.980 . S
H225 C198 0.983 . S
H226 C197 0.982 . S
H227 C197 0.979 . S
H228 C197 0.977 . S
H229 C199 0.948 . S
H230 C201 0.947 . S
H231 C202 0.948 . S
H232 C208 0.982 . S
H233 C208 0.979 . S
H234 C208 0.977 . S
H235 C209 0.979 . S
H236 C209 0.980 . S
H237 C209 0.983 . S
H238 C182 0.947 . S
C239 C182 1.392 . S
C239 C183 1.419 . S
C239 H221 0.948 . S
C240 C241 1.391 . S
C240 C244 1.391 . S
C240 H282 0.948 . S
C241 C240 1.391 . S
C241 C242 1.391 . S
C242 C241 1.391 . S
C242 H298 0.947 . S
C242 C299 1.392 . S
C243 C244 1.391 . S
C243 C247 1.397 . S
C243 C299 1.419 . S
C244 C240 1.391 . S
C244 C243 1.391 . S
C244 C245 1.399 . S
C245 C244 1.399 . S
C245 C248 1.396 . S
C245 C257 1.453 . S
C245 C258 1.684 . S
H246 C270 0.948 . S
C247 C243 1.397 . S
C247 C248 1.394 . S
C247 C266 1.723 . S
C248 C245 1.396 . S
C248 C247 1.394 . S
C248 C278 1.723 1_455 S
H249 C272 0.947 . S
H250 C273 0.948 . S
H251 C279 0.982 . S
H252 C280 0.979 . S
H253 C280 0.980 . S
H254 C280 0.983 . S
H255 C279 0.979 . S
H256 C279 0.977 . S
C257 C245 1.453 . S
C257 H286 0.982 . S
C257 H287 0.979 . S
C257 H288 0.977 1_455 S
C258 C245 1.684 . S
C258 H283 0.979 . S
C258 H284 0.980 . S
C258 H285 0.983 . S
C259 C260 1.391 . S
C259 C264 1.391 . S
C259 H289 0.948 . S
C260 C259 1.391 . S
C260 C261 1.391 1_455 S
C261 C260 1.391 1_655 S
C261 C262 1.392 . S
C261 H290 0.947 . S
C262 C261 1.392 . S
C262 C263 1.453 . S
C262 H291 0.948 . S
C263 C262 1.453 . S
C263 C264 1.355 1_655 S
C263 C267 1.392 1_655 S
C264 C259 1.391 . S
C264 C263 1.355 1_455 S
C264 C265 1.399 . S
C265 C264 1.399 . S
C265 C266 1.396 . S
C265 C268 1.453 . S
C265 C269 1.684 . S
C266 C247 1.723 . S
C266 C265 1.396 . S
C266 C267 1.394 . S
C267 C263 1.392 1_455 S
C267 C266 1.394 . S
C267 C277 1.723 1_455 S
C268 C265 1.453 . S
C268 H292 0.982 . S
C268 H293 0.979 . S
C268 H294 0.977 . S
C269 C265 1.684 . S
C269 H295 0.979 . S
C269 H296 0.980 . S
C269 H297 0.983 . S
C270 H246 0.948 . S
C270 C271 1.391 . S
C270 C275 1.391 . S
C271 C270 1.391 . S
C271 C272 1.391 . S
C272 H249 0.947 . S
C272 C271 1.391 . S
C272 C273 1.392 . S
C273 H250 0.948 . S
C273 C272 1.392 . S
C273 C274 1.419 . S
C274 C273 1.419 . S
C274 C275 1.391 . S
C274 C278 1.397 . S
C275 C270 1.391 . S
C275 C274 1.391 . S
C275 C276 1.399 . S
C276 C275 1.399 . S
C276 C277 1.396 . S
C276 C279 1.453 . S
C276 C280 1.684 . S
C277 C267 1.723 1_655 S
C277 C276 1.396 . S
C277 C278 1.394 . S
C278 C248 1.723 1_655 S
C278 C274 1.397 . S
C278 C277 1.394 . S
C279 H251 0.982 . S
C279 H255 0.979 . S
C279 H256 0.977 . S
C279 C276 1.453 . S
C280 H252 0.979 . S
C280 H253 0.980 . S
C280 H254 0.983 . S
C280 C276 1.684 . S
H281 C299 0.948 . S
H282 C240 0.948 . S
H283 C258 0.979 . S
H284 C258 0.980 . S
H285 C258 0.983 . S
H286 C257 0.982 . S
H287 C257 0.979 . S
H288 C257 0.977 1_655 S
H289 C259 0.948 . S
H290 C261 0.947 . S
H291 C262 0.948 . S
H292 C268 0.982 . S
H293 C268 0.979 . S
H294 C268 0.977 . S
H295 C269 0.979 . S
H296 C269 0.980 . S
H297 C269 0.983 . S
H298 C242 0.947 . S
C299 C242 1.392 . S
C299 C243 1.419 . S
C299 H281 0.948 . S
C300 C301 1.391 . S
C300 C304 1.399 . S
C300 H342 0.948 . S
C301 C300 1.391 . S
C301 C302 1.391 . S
C302 C301 1.391 . S
C302 H358 0.947 . S
C302 C359 1.392 . S
C303 C304 1.392 . S
C303 C307 1.397 1_655 S
C303 C359 1.419 . S
C304 C300 1.399 . S
C304 C303 1.392 . S
C304 C305 1.388 1_655 S
C305 C304 1.388 1_455 S
C305 C308 1.396 . S
C305 C317 1.453 . S
C305 C318 1.684 . S
H306 C330 0.948 . S
C307 C303 1.397 1_455 S
C307 C308 1.394 . S
C307 C326 1.723 . S
C308 C305 1.396 . S
C308 C307 1.394 . S
C308 C338 1.723 . S
H309 C332 0.947 . S
H310 C333 0.948 . S
H311 C339 0.982 . S
H312 C340 0.979 . S
H313 C340 0.980 . S
H314 C340 0.983 . S
H315 C339 0.979 . S
H316 C339 0.977 . S
C317 C305 1.453 . S
C317 H346 0.982 . S
C317 H347 0.979 . S
C317 H348 0.977 . S
C318 C305 1.684 . S
C318 H343 0.979 . S
C318 H344 0.980 . S
C318 H345 0.983 . S
C319 C320 1.391 . S
C319 C324 1.391 . S
C319 H349 0.948 . S
C320 C319 1.391 . S
C320 C321 1.391 . S
C321 C320 1.391 . S
C321 C322 1.392 . S
C321 H350 0.947 . S
C322 C321 1.392 . S
C322 C323 1.419 . S
C322 H351 0.948 . S
C323 C322 1.419 . S
C323 C324 1.391 . S
C323 C327 1.397 . S
C324 C319 1.391 . S
C324 C323 1.391 . S
C324 C325 1.399 . S
C325 C324 1.399 . S
C325 C326 1.396 . S
C325 C328 1.453 . S
C325 C329 1.684 1_455 S
C326 C307 1.723 . S
C326 C325 1.396 . S
C326 C327 1.394 . S
C327 C323 1.397 . S
C327 C326 1.394 . S
C327 C337 1.723 . S
C328 C325 1.453 . S
C328 H352 0.982 . S
C328 H353 0.979 1_455 S
C328 H354 0.977 1_455 S
C329 C325 1.684 1_655 S
C329 H355 0.979 . S
C329 H356 0.980 . S
C329 H357 0.983 . S
C330 H306 0.948 . S
C330 C331 1.391 . S
C330 C335 1.391 . S
C331 C330 1.391 . S
C331 C332 1.391 . S
C332 H309 0.947 . S
C332 C331 1.391 . S
C332 C333 1.392 . S
C333 H310 0.948 . S
C333 C332 1.392 . S
C333 C334 1.419 . S
C334 C333 1.419 . S
C334 C335 1.391 . S
C334 C338 1.397 . S
C335 C330 1.391 . S
C335 C334 1.391 . S
C335 C336 1.399 . S
C336 C335 1.399 . S
C336 C337 1.396 . S
C336 C339 1.453 . S
C336 C340 1.684 . S
C337 C327 1.723 . S
C337 C336 1.396 . S
C337 C338 1.394 . S
C338 C308 1.723 . S
C338 C334 1.397 . S
C338 C337 1.394 . S
C339 H311 0.982 . S
C339 H315 0.979 . S
C339 H316 0.977 . S
C339 C336 1.453 . S
C340 H312 0.979 . S
C340 H313 0.980 . S
C340 H314 0.983 . S
C340 C336 1.684 . S
H341 C359 0.948 . S
H342 C300 0.948 . S
H343 C318 0.979 . S
H344 C318 0.980 . S
H345 C318 0.983 . S
H346 C317 0.982 . S
H347 C317 0.979 . S
H348 C317 0.977 . S
H349 C319 0.948 . S
H350 C321 0.947 . S
H351 C322 0.948 . S
H352 C328 0.982 . S
H353 C328 0.979 1_655 S
H354 C328 0.977 1_655 S
H355 C329 0.979 . S
H356 C329 0.980 . S
H357 C329 0.983 . S
H358 C302 0.947 . S
C359 C302 1.392 . S
C359 C303 1.419 . S
C359 H341 0.948 . S
C360 C361 1.391 . S
C360 C364 1.391 . S
C360 H402 0.948 . S
C361 C360 1.391 . S
C361 C362 1.391 . S
C362 C361 1.391 . S
C362 H418 0.947 . S
C362 C419 1.392 . S
C363 C364 1.391 . S
C363 C367 1.397 . S
C363 C419 1.419 . S
C364 C360 1.391 . S
C364 C363 1.391 . S
C364 C365 1.399 . S
C365 C364 1.399 . S
C365 C368 1.396 . S
C365 C377 1.453 . S
C365 C378 1.684 . S
H366 C390 0.948 . S
C367 C363 1.397 . S
C367 C368 1.394 . S
C367 C386 1.723 . S
C368 C365 1.396 . S
C368 C367 1.394 . S
C368 C398 1.723 1_565 S
H369 C392 0.947 . S
H370 C393 0.948 . S
H371 C399 0.982 . S
H372 C400 0.979 . S
H373 C400 0.980 . S
H374 C400 0.983 . S
H375 C399 0.979 . S
H376 C399 0.977 . S
C377 C365 1.453 . S
C377 H406 0.982 1_565 S
C377 H407 0.979 . S
C377 H408 0.977 1_565 S
C378 C365 1.684 . S
C378 H403 0.979 . S
C378 H404 0.980 . S
C378 H405 0.983 . S
C379 C380 1.391 1_565 S
C379 C384 1.391 . S
C379 H409 0.948 . S
C380 C379 1.391 1_545 S
C380 C381 1.391 . S
C381 C380 1.391 . S
C381 C382 1.392 . S
C381 H410 0.947 . S
C382 C381 1.392 . S
C382 C383 1.419 . S
C382 H411 0.948 . S
C383 C382 1.419 . S
C383 C384 1.391 1_545 S
C383 C387 1.397 . S
C384 C379 1.391 . S
C384 C383 1.391 1_565 S
C384 C385 1.399 . S
C385 C384 1.399 . S
C385 C386 1.396 . S
C385 C388 1.453 . S
C385 C389 1.684 . S
C386 C367 1.723 . S
C386 C385 1.396 . S
C386 C387 1.394 1_565 S
C387 C383 1.397 . S
C387 C386 1.394 1_545 S
C387 C397 1.723 . S
C388 C385 1.453 . S
C388 H412 0.982 . S
C388 H413 0.979 . S
C388 H414 0.977 . S
C389 C385 1.684 . S
C389 H415 0.979 . S
C389 H416 0.980 . S
C389 H417 0.983 . S
C390 H366 0.948 . S
C390 C391 1.391 . S
C390 C395 1.391 . S
C391 C390 1.391 . S
C391 C392 1.391 . S
C392 H369 0.947 . S
C392 C391 1.391 . S
C392 C393 1.392 . S
C393 H370 0.948 . S
C393 C392 1.392 . S
C393 C394 1.419 . S
C394 C393 1.419 . S
C394 C395 1.391 . S
C394 C398 1.397 . S
C395 C390 1.391 . S
C395 C394 1.391 . S
C395 C396 1.399 . S
C396 C395 1.399 . S
C396 C397 1.396 . S
C396 C399 1.453 . S
C396 C400 1.684 . S
C397 C387 1.723 . S
C397 C396 1.396 . S
C397 C398 1.394 . S
C398 C368 1.723 1_545 S
C398 C394 1.397 . S
C398 C397 1.394 . S
C399 H371 0.982 . S
C399 H375 0.979 . S
C399 H376 0.977 . S
C399 C396 1.453 . S
C400 H372 0.979 . S
C400 H373 0.980 . S
C400 H374 0.983 . S
C400 C396 1.684 . S
H401 C419 0.948 . S
H402 C360 0.948 . S
H403 C378 0.979 . S
H404 C378 0.980 . S
H405 C378 0.983 . S
H406 C377 0.982 1_545 S
H407 C377 0.979 . S
H408 C377 0.977 1_545 S
H409 C379 0.948 . S
H410 C381 0.947 . S
H411 C382 0.948 . S
H412 C388 0.982 . S
H413 C388 0.979 . S
H414 C388 0.977 . S
H415 C389 0.979 . S
H416 C389 0.980 . S
H417 C389 0.983 . S
H418 C362 0.947 . S
C419 C362 1.392 . S
C419 C363 1.419 . S
C419 H401 0.948 . S
C420 C421 1.391 . S
C420 C424 1.391 . S
C420 H462 0.948 . S
C421 C420 1.391 . S
C421 C422 1.391 . S
C422 C421 1.391 . S
C422 H478 0.947 . S
C422 C479 1.392 . S
C423 C424 1.391 . S
C423 C427 1.397 . S
C423 C479 1.419 . S
C424 C420 1.391 . S
C424 C423 1.391 . S
C424 C425 1.399 . S
C425 C424 1.399 . S
C425 C428 1.396 . S
C425 C437 1.453 . S
C425 C438 1.684 . S
H426 C450 0.948 . S
C427 C423 1.397 . S
C427 C428 1.394 . S
C427 C446 1.723 . S
C428 C425 1.396 . S
C428 C427 1.394 . S
C428 C458 1.723 . S
H429 C452 0.947 . S
H430 C453 0.948 . S
H431 C459 0.982 . S
H432 C460 0.979 . S
H433 C460 0.980 . S
H434 C460 0.983 . S
H435 C459 0.979 . S
H436 C459 0.977 . S
C437 C425 1.453 . S
C437 H466 0.982 . S
C437 H467 0.979 . S
C437 H468 0.977 . S
C438 C425 1.684 . S
C438 H463 0.979 . S
C438 H464 0.980 . S
C438 H465 0.983 . S
C439 C440 1.391 . S
C439 C444 1.391 . S
C439 H469 0.948 . S
C440 C439 1.391 . S
C440 C441 1.391 . S
C441 C440 1.391 . S
C441 C442 1.392 . S
C441 H470 0.947 . S
C442 C441 1.392 . S
C442 C443 1.419 . S
C442 H471 0.948 . S
C443 C442 1.419 . S
C443 C444 1.391 . S
C443 C447 1.397 . S
C444 C439 1.391 . S
C444 C443 1.391 . S
C444 C445 1.399 . S
C445 C444 1.399 . S
C445 C446 1.396 . S
C445 C448 1.453 . S
C445 C449 1.684 . S
C446 C427 1.723 . S
C446 C445 1.396 . S
C446 C447 1.394 . S
C447 C443 1.397 . S
C447 C446 1.394 . S
C447 C457 1.723 . S
C448 C445 1.453 . S
C448 H472 0.982 . S
C448 H473 0.979 . S
C448 H474 0.977 . S
C449 C445 1.684 . S
C449 H475 0.979 . S
C449 H476 0.980 . S
C449 H477 0.983 . S
C450 H426 0.948 . S
C450 C451 1.391 . S
C450 C455 1.391 . S
C451 C450 1.391 . S
C451 C452 1.391 . S
C452 H429 0.947 . S
C452 C451 1.391 . S
C452 C453 1.392 . S
C453 H430 0.948 . S
C453 C452 1.392 . S
C453 C454 1.419 . S
C454 C453 1.419 . S
C454 C455 1.391 . S
C454 C458 1.397 . S
C455 C450 1.391 . S
C455 C454 1.391 . S
C455 C456 1.399 . S
C456 C455 1.399 . S
C456 C457 1.396 . S
C456 C459 1.453 . S
C456 C460 1.684 . S
C457 C447 1.723 . S
C457 C456 1.396 . S
C457 C458 1.394 . S
C458 C428 1.723 . S
C458 C454 1.397 . S
C458 C457 1.394 . S
C459 H431 0.982 . S
C459 H435 0.979 . S
C459 H436 0.977 . S
C459 C456 1.453 . S
C460 H432 0.979 . S
C460 H433 0.980 . S
C460 H434 0.983 . S
C460 C456 1.684 . S
H461 C479 0.948 . S
H462 C420 0.948 . S
H463 C438 0.979 . S
H464 C438 0.980 . S
H465 C438 0.983 . S
H466 C437 0.982 . S
H467 C437 0.979 . S
H468 C437 0.977 . S
H469 C439 0.948 . S
H470 C441 0.947 . S
H471 C442 0.948 . S
H472 C448 0.982 . S
H473 C448 0.979 . S
H474 C448 0.977 . S
H475 C449 0.979 . S
H476 C449 0.980 . S
H477 C449 0.983 . S
H478 C422 0.947 . S
C479 C422 1.392 . S
C479 C423 1.419 . S
C479 H461 0.948 . S
H480 C498 0.951 . S
H481 C500 0.951 . S
H482 C502 0.950 . S
H483 C503 0.950 . S
H484 C505 0.950 . S
H485 C508 0.950 . S
H486 C509 0.950 . S
H487 C511 0.950 . S
H488 C512 0.950 . S
H489 C513 0.951 . S
H490 C515 0.951 . S
H491 C517 0.950 . S
H492 C518 0.950 . S
H493 C520 0.950 . S
H494 C523 0.950 . S
H495 C524 0.950 . S
H496 C526 0.950 . S
H497 C527 0.950 . S
C498 H480 0.951 . S
C498 C499 1.366 . S
C498 C500 1.388 . S
C499 C498 1.366 . S
C499 C503 1.385 . S
C500 H481 0.951 . S
C500 C498 1.388 . S
C500 C501 1.366 . S
C501 C500 1.366 . S
C501 C502 1.414 . S
C501 C504 1.499 . S
C502 H482 0.950 . S
C502 C501 1.414 . S
C502 C503 1.374 . S
C503 H483 0.950 . S
C503 C499 1.385 . S
C503 C502 1.374 . S
C504 C501 1.499 . S
C504 C505 1.373 . S
C504 C506 1.389 . S
C505 H484 0.950 . S
C505 C504 1.373 . S
C505 C521 1.377 . S
C506 C504 1.389 . S
C506 C507 1.524 . S
C506 C520 1.377 . S
C507 C506 1.524 . S
C507 C508 1.397 . S
C507 C512 1.363 . S
C508 H485 0.950 . S
C508 C507 1.397 . S
C508 C509 1.334 . S
C509 H486 0.950 . S
C509 C508 1.334 . S
C509 C510 1.287 . S
C510 C509 1.287 . S
C510 C511 1.524 . S
C510 H529 0.913 . S
C511 H487 0.950 . S
C511 C510 1.524 . S
C511 C512 1.415 . S
C512 H488 0.950 . S
C512 C507 1.363 . S
C512 C511 1.415 . S
C513 H489 0.951 . S
C513 C514 1.366 . S
C513 C515 1.388 . S
C514 C513 1.366 . S
C514 C518 1.385 . S
C515 H490 0.951 . S
C515 C513 1.388 . S
C515 C516 1.366 . S
C516 C515 1.366 . S
C516 C517 1.414 . S
C516 C519 1.499 . S
C517 H491 0.950 . S
C517 C516 1.414 . S
C517 C518 1.374 . S
C518 H492 0.950 . S
C518 C514 1.385 . S
C518 C517 1.374 . S
C519 C516 1.499 . S
C519 C520 1.373 . S
C519 C521 1.389 . S
C520 H493 0.950 . S
C520 C506 1.377 . S
C520 C519 1.373 . S
C521 C505 1.377 . S
C521 C519 1.389 . S
C521 C522 1.524 . S
C522 C521 1.524 . S
C522 C523 1.397 . S
C522 C527 1.363 . S
C523 H494 0.950 . S
C523 C522 1.397 . S
C523 C524 1.334 . S
C524 H495 0.950 . S
C524 C523 1.334 . S
C524 C525 1.287 . S
C525 C524 1.287 . S
C525 C526 1.524 . S
C525 H528 0.999 . S
C526 H496 0.950 . S
C526 C525 1.524 . S
C526 C527 1.415 . S
C527 H497 0.950 . S
C527 C522 1.363 . S
C527 C526 1.415 . S
H528 C525 0.999 . S
H529 C510 0.913 . S
H530 C548 0.951 . S
H531 C550 0.951 . S
H532 C552 0.950 . S
H533 C553 0.950 . S
H534 C555 0.950 . S
H535 C558 0.950 . S
H536 C559 0.950 . S
H537 C561 0.950 . S
H538 C562 0.950 . S
H539 C563 0.951 . S
H540 C565 0.951 . S
H541 C567 0.950 . S
H542 C568 0.950 . S
H543 C570 0.950 . S
H544 C573 0.950 . S
H545 C574 0.950 . S
H546 C576 0.950 . S
H547 C577 0.950 . S
C548 H530 0.951 . S
C548 C549 1.366 . S
C548 C550 1.388 . S
C549 C548 1.366 . S
C549 C553 1.385 . S
C550 H531 0.951 . S
C550 C548 1.388 . S
C550 C551 1.366 . S
C551 C550 1.366 . S
C551 C552 1.414 . S
C551 C554 1.499 . S
C552 H532 0.950 . S
C552 C551 1.414 . S
C552 C553 1.374 . S
C553 H533 0.950 . S
C553 C549 1.385 . S
C553 C552 1.374 . S
C554 C551 1.499 . S
C554 C555 1.373 . S
C554 C556 1.389 . S
C555 H534 0.950 . S
C555 C554 1.373 . S
C555 C571 1.377 . S
C556 C554 1.389 . S
C556 C557 1.524 . S
C556 C570 1.377 . S
C557 C556 1.524 . S
C557 C558 1.397 . S
C557 C562 1.363 . S
C558 H535 0.950 . S
C558 C557 1.397 . S
C558 C559 1.334 . S
C559 H536 0.950 . S
C559 C558 1.334 . S
C559 C560 1.287 . S
C560 C559 1.287 . S
C560 C561 1.524 . S
C560 H579 0.913 . S
C561 H537 0.950 . S
C561 C560 1.524 . S
C561 C562 1.415 . S
C562 H538 0.950 . S
C562 C557 1.363 . S
C562 C561 1.415 . S
C563 H539 0.951 . S
C563 C564 1.366 . S
C563 C565 1.388 . S
C564 C563 1.366 . S
C564 C568 1.385 . S
C565 H540 0.951 . S
C565 C563 1.388 . S
C565 C566 1.366 . S
C566 C565 1.366 . S
C566 C567 1.414 . S
C566 C569 1.499 . S
C567 H541 0.950 . S
C567 C566 1.414 . S
C567 C568 1.374 . S
C568 H542 0.950 . S
C568 C564 1.385 . S
C568 C567 1.374 . S
C569 C566 1.499 . S
C569 C570 1.373 . S
C569 C571 1.389 . S
C570 H543 0.950 . S
C570 C556 1.377 . S
C570 C569 1.373 . S
C571 C555 1.377 . S
C571 C569 1.389 . S
C571 C572 1.524 . S
C572 C571 1.524 . S
C572 C573 1.397 . S
C572 C577 1.363 . S
C573 H544 0.950 . S
C573 C572 1.397 . S
C573 C574 1.334 . S
C574 H545 0.950 . S
C574 C573 1.334 . S
C574 C575 1.287 . S
C575 C574 1.287 . S
C575 C576 1.524 . S
C575 H578 0.999 . S
C576 H546 0.950 . S
C576 C575 1.524 . S
C576 C577 1.415 . S
C577 H547 0.950 . S
C577 C572 1.363 . S
C577 C576 1.415 . S
H578 C575 0.999 . S
H579 C560 0.913 . S
H580 C598 0.951 . S
H581 C600 0.951 . S
H582 C602 0.950 . S
H583 C603 0.950 . S
H584 C605 0.950 . S
H585 C608 0.950 . S
H586 C609 0.950 . S
H587 C611 0.950 . S
H588 C612 0.950 . S
H589 C613 0.951 . S
H590 C615 0.951 . S
H591 C617 0.950 . S
H592 C618 0.950 . S
H593 C620 0.950 . S
H594 C623 0.950 . S
H595 C624 0.950 . S
H596 C626 0.950 . S
H597 C627 0.950 . S
C598 H580 0.951 . S
C598 C599 1.366 . S
C598 C600 1.388 . S
C599 C598 1.366 . S
C599 C603 1.385 . S
C600 H581 0.951 . S
C600 C598 1.388 . S
C600 C601 1.366 . S
C601 C600 1.366 . S
C601 C602 1.414 . S
C601 C604 1.499 . S
C602 H582 0.950 . S
C602 C601 1.414 . S
C602 C603 1.374 . S
C603 H583 0.950 . S
C603 C599 1.385 . S
C603 C602 1.374 . S
C604 C601 1.499 . S
C604 C605 1.373 . S
C604 C606 1.389 . S
C605 H584 0.950 . S
C605 C604 1.373 . S
C605 C621 1.377 . S
C606 C604 1.389 . S
C606 C607 1.524 . S
C606 C620 1.377 . S
C607 C606 1.524 . S
C607 C608 1.397 . S
C607 C612 1.363 . S
C608 H585 0.950 . S
C608 C607 1.397 . S
C608 C609 1.334 . S
C609 H586 0.950 . S
C609 C608 1.334 . S
C609 C610 1.287 . S
C610 C609 1.287 . S
C610 C611 1.524 . S
C610 H629 0.913 . S
C611 H587 0.950 . S
C611 C610 1.524 . S
C611 C612 1.415 . S
C612 H588 0.950 . S
C612 C607 1.363 . S
C612 C611 1.415 . S
C613 H589 0.951 . S
C613 C614 1.366 . S
C613 C615 1.388 . S
C614 C613 1.366 . S
C614 C618 1.385 . S
C615 H590 0.951 . S
C615 C613 1.388 . S
C615 C616 1.366 . S
C616 C615 1.366 . S
C616 C617 1.414 . S
C616 C619 1.499 . S
C617 H591 0.950 . S
C617 C616 1.414 . S
C617 C618 1.374 . S
C618 H592 0.950 . S
C618 C614 1.385 . S
C618 C617 1.374 . S
C619 C616 1.499 . S
C619 C620 1.373 . S
C619 C621 1.389 . S
C620 H593 0.950 . S
C620 C606 1.377 . S
C620 C619 1.373 . S
C621 C605 1.377 . S
C621 C619 1.389 . S
C621 C622 1.524 . S
C622 C621 1.524 . S
C622 C623 1.397 . S
C622 C627 1.363 . S
C623 H594 0.950 . S
C623 C622 1.397 . S
C623 C624 1.334 . S
C624 H595 0.950 . S
C624 C623 1.334 . S
C624 C625 1.287 . S
C625 C624 1.287 . S
C625 C626 1.524 . S
C625 H628 0.999 . S
C626 H596 0.950 . S
C626 C625 1.524 . S
C626 C627 1.415 . S
C627 H597 0.950 . S
C627 C622 1.363 . S
C627 C626 1.415 . S
H628 C625 0.999 . S
H629 C610 0.913 . S
H630 C648 0.951 . S
H631 C650 0.951 . S
H632 C652 0.950 . S
H633 C653 0.950 . S
H634 C655 0.950 . S
H635 C658 0.950 . S
H636 C659 0.950 . S
H637 C661 0.950 . S
H638 C662 0.950 . S
H639 C663 0.951 . S
H640 C665 0.951 . S
H641 C667 0.950 . S
H642 C668 0.950 . S
H643 C670 0.950 . S
H644 C673 0.950 . S
H645 C674 0.950 . S
H646 C676 0.950 . S
H647 C677 0.950 . S
C648 H630 0.951 . S
C648 C649 1.366 . S
C648 C650 1.388 . S
C649 C648 1.366 . S
C649 C653 1.385 . S
C650 H631 0.951 . S
C650 C648 1.388 . S
C650 C651 1.366 . S
C651 C650 1.366 . S
C651 C652 1.414 . S
C651 C654 1.499 . S
C652 H632 0.950 . S
C652 C651 1.414 . S
C652 C653 1.374 . S
C653 H633 0.950 . S
C653 C649 1.385 . S
C653 C652 1.374 . S
C654 C651 1.499 . S
C654 C655 1.373 . S
C654 C656 1.389 . S
C655 H634 0.950 . S
C655 C654 1.373 . S
C655 C671 1.377 . S
C656 C654 1.389 . S
C656 C657 1.524 . S
C656 C670 1.377 . S
C657 C656 1.524 . S
C657 C658 1.397 . S
C657 C662 1.363 . S
C658 H635 0.950 . S
C658 C657 1.397 . S
C658 C659 1.334 . S
C659 H636 0.950 . S
C659 C658 1.334 . S
C659 C660 1.287 . S
C660 C659 1.287 . S
C660 C661 1.524 . S
C660 H679 0.913 . S
C661 H637 0.950 . S
C661 C660 1.524 . S
C661 C662 1.415 . S
C662 H638 0.950 . S
C662 C657 1.363 . S
C662 C661 1.415 . S
C663 H639 0.951 . S
C663 C664 1.366 . S
C663 C665 1.388 . S
C664 C663 1.366 . S
C664 C668 1.385 . S
C665 H640 0.951 . S
C665 C663 1.388 . S
C665 C666 1.366 . S
C666 C665 1.366 . S
C666 C667 1.414 . S
C666 C669 1.499 . S
C667 H641 0.950 . S
C667 C666 1.414 . S
C667 C668 1.374 . S
C668 H642 0.950 . S
C668 C664 1.385 . S
C668 C667 1.374 . S
C669 C666 1.499 . S
C669 C670 1.373 . S
C669 C671 1.389 . S
C670 H643 0.950 . S
C670 C656 1.377 . S
C670 C669 1.373 . S
C671 C655 1.377 . S
C671 C669 1.389 . S
C671 C672 1.524 . S
C672 C671 1.524 . S
C672 C673 1.397 . S
C672 C677 1.363 . S
C673 H644 0.950 . S
C673 C672 1.397 . S
C673 C674 1.334 . S
C674 H645 0.950 . S
C674 C673 1.334 . S
C674 C675 1.287 . S
C675 C674 1.287 . S
C675 C676 1.524 . S
C675 H678 0.999 . S
C676 H646 0.950 . S
C676 C675 1.524 . S
C676 C677 1.415 . S
C677 H647 0.950 . S
C677 C672 1.363 . S
C677 C676 1.415 . S
H678 C675 0.999 . S
H679 C660 0.913 . S
H680 C698 0.951 . S
H681 C700 0.951 . S
H682 C702 0.950 . S
H683 C703 0.950 . S
H684 C705 0.950 . S
H685 C708 0.950 . S
H686 C709 0.950 . S
H687 C711 0.950 . S
H688 C712 0.950 . S
H689 C713 0.951 . S
H690 C715 0.951 . S
H691 C717 0.950 . S
H692 C718 0.950 . S
H693 C720 0.950 . S
H694 C723 0.950 . S
H695 C724 0.950 . S
H696 C726 0.950 . S
H697 C727 0.950 . S
C698 H680 0.951 . S
C698 C699 1.366 . S
C698 C700 1.388 . S
C699 C698 1.366 . S
C699 C703 1.385 . S
C700 H681 0.951 . S
C700 C698 1.388 . S
C700 C701 1.366 . S
C701 C700 1.366 . S
C701 C702 1.414 . S
C701 C704 1.499 . S
C702 H682 0.950 . S
C702 C701 1.414 . S
C702 C703 1.374 . S
C703 H683 0.950 . S
C703 C699 1.385 . S
C703 C702 1.374 . S
C704 C701 1.499 . S
C704 C705 1.373 . S
C704 C706 1.389 . S
C705 H684 0.950 . S
C705 C704 1.373 . S
C705 C721 1.377 . S
C706 C704 1.389 . S
C706 C707 1.524 . S
C706 C720 1.377 . S
C707 C706 1.524 . S
C707 C708 1.397 . S
C707 C712 1.363 . S
C708 H685 0.950 . S
C708 C707 1.397 . S
C708 C709 1.334 . S
C709 H686 0.950 . S
C709 C708 1.334 . S
C709 C710 1.287 . S
C710 C709 1.287 . S
C710 C711 1.524 . S
C710 H729 0.913 . S
C711 H687 0.950 . S
C711 C710 1.524 . S
C711 C712 1.415 . S
C712 H688 0.950 . S
C712 C707 1.363 . S
C712 C711 1.415 . S
C713 H689 0.951 . S
C713 C714 1.366 . S
C713 C715 1.388 . S
C714 C713 1.366 . S
C714 C718 1.385 . S
C715 H690 0.951 . S
C715 C713 1.388 . S
C715 C716 1.366 . S
C716 C715 1.366 . S
C716 C717 1.414 . S
C716 C719 1.499 . S
C717 H691 0.950 . S
C717 C716 1.414 . S
C717 C718 1.374 . S
C718 H692 0.950 . S
C718 C714 1.385 . S
C718 C717 1.374 . S
C719 C716 1.499 . S
C719 C720 1.373 . S
C719 C721 1.389 . S
C720 H693 0.950 . S
C720 C706 1.377 . S
C720 C719 1.373 . S
C721 C705 1.377 . S
C721 C719 1.389 . S
C721 C722 1.524 . S
C722 C721 1.524 . S
C722 C723 1.397 . S
C722 C727 1.363 . S
C723 H694 0.950 . S
C723 C722 1.397 . S
C723 C724 1.334 . S
C724 H695 0.950 . S
C724 C723 1.334 . S
C724 C725 1.287 . S
C725 C724 1.287 . S
C725 C726 1.524 . S
C725 H728 0.999 . S
C726 H696 0.950 . S
C726 C725 1.524 . S
C726 C727 1.415 . S
C727 H697 0.950 . S
C727 C722 1.363 . S
C727 C726 1.415 . S
H728 C725 0.999 . S
H729 C710 0.913 . S
H730 C748 0.951 . S
H731 C750 0.951 . S
H732 C752 0.950 . S
H733 C753 0.950 . S
H734 C755 0.950 . S
H735 C758 0.950 . S
H736 C759 0.950 . S
H737 C761 0.950 . S
H738 C762 0.950 . S
H739 C763 0.951 . S
H740 C765 0.951 . S
H741 C767 0.950 . S
H742 C768 0.950 . S
H743 C770 0.950 . S
H744 C773 0.950 . S
H745 C774 0.950 . S
H746 C776 0.950 . S
H747 C777 0.950 . S
C748 H730 0.951 . S
C748 C749 1.366 . S
C748 C750 1.388 . S
C749 C748 1.366 . S
C749 C753 1.385 . S
C750 H731 0.951 . S
C750 C748 1.388 . S
C750 C751 1.366 . S
C751 C750 1.366 . S
C751 C752 1.414 . S
C751 C754 1.499 . S
C752 H732 0.950 . S
C752 C751 1.414 . S
C752 C753 1.374 . S
C753 H733 0.950 . S
C753 C749 1.385 . S
C753 C752 1.374 . S
C754 C751 1.499 . S
C754 C755 1.373 . S
C754 C756 1.389 . S
C755 H734 0.950 . S
C755 C754 1.373 . S
C755 C771 1.377 . S
C756 C754 1.389 . S
C756 C757 1.524 . S
C756 C770 1.377 . S
C757 C756 1.524 . S
C757 C758 1.397 . S
C757 C762 1.363 . S
C758 H735 0.950 . S
C758 C757 1.397 . S
C758 C759 1.334 . S
C759 H736 0.950 . S
C759 C758 1.334 . S
C759 C760 1.287 . S
C760 C759 1.287 . S
C760 C761 1.524 . S
C760 H779 0.913 . S
C761 H737 0.950 . S
C761 C760 1.524 . S
C761 C762 1.415 . S
C762 H738 0.950 . S
C762 C757 1.363 . S
C762 C761 1.415 . S
C763 H739 0.951 . S
C763 C764 1.366 . S
C763 C765 1.388 . S
C764 C763 1.366 . S
C764 C768 1.385 . S
C765 H740 0.951 . S
C765 C763 1.388 . S
C765 C766 1.366 . S
C766 C765 1.366 . S
C766 C767 1.414 . S
C766 C769 1.499 . S
C767 H741 0.950 . S
C767 C766 1.414 . S
C767 C768 1.374 . S
C768 H742 0.950 . S
C768 C764 1.385 . S
C768 C767 1.374 . S
C769 C766 1.499 . S
C769 C770 1.373 . S
C769 C771 1.389 . S
C770 H743 0.950 . S
C770 C756 1.377 . S
C770 C769 1.373 . S
C771 C755 1.377 . S
C771 C769 1.389 . S
C771 C772 1.524 . S
C772 C771 1.524 . S
C772 C773 1.397 . S
C772 C777 1.363 . S
C773 H744 0.950 . S
C773 C772 1.397 . S
C773 C774 1.334 . S
C774 H745 0.950 . S
C774 C773 1.334 . S
C774 C775 1.287 . S
C775 C774 1.287 . S
C775 C776 1.524 . S
C775 H778 0.999 . S
C776 H746 0.950 . S
C776 C775 1.524 . S
C776 C777 1.415 . S
C777 H747 0.950 . S
C777 C772 1.363 . S
C777 C776 1.415 . S
H778 C775 0.999 . S
H779 C760 0.913 . S
H780 C798 0.951 . S
H781 C800 0.951 . S
H782 C802 0.950 . S
H783 C803 0.950 . S
H784 C805 0.950 . S
H785 C808 0.950 . S
H786 C809 0.950 . S
H787 C811 0.950 . S
H788 C812 0.950 . S
H789 C813 0.951 . S
H790 C815 0.951 . S
H791 C817 0.950 . S
H792 C818 0.950 . S
H793 C820 0.950 . S
H794 C823 0.950 . S
H795 C824 0.950 . S
H796 C826 0.950 . S
H797 C827 0.950 . S
C798 H780 0.951 . S
C798 C799 1.366 . S
C798 C800 1.388 . S
C799 C798 1.366 . S
C799 C803 1.385 . S
C800 H781 0.951 . S
C800 C798 1.388 . S
C800 C801 1.366 . S
C801 C800 1.366 . S
C801 C802 1.414 . S
C801 C804 1.499 . S
C802 H782 0.950 . S
C802 C801 1.414 . S
C802 C803 1.374 . S
C803 H783 0.950 . S
C803 C799 1.385 . S
C803 C802 1.374 . S
C804 C801 1.499 . S
C804 C805 1.373 . S
C804 C806 1.389 . S
C805 H784 0.950 . S
C805 C804 1.373 . S
C805 C821 1.377 . S
C806 C804 1.389 . S
C806 C807 1.524 . S
C806 C820 1.377 . S
C807 C806 1.524 . S
C807 C808 1.397 . S
C807 C812 1.363 . S
C808 H785 0.950 . S
C808 C807 1.397 . S
C808 C809 1.334 . S
C809 H786 0.950 . S
C809 C808 1.334 . S
C809 C810 1.287 . S
C810 C809 1.287 . S
C810 C811 1.524 . S
C810 H829 0.913 . S
C811 H787 0.950 . S
C811 C810 1.524 . S
C811 C812 1.415 . S
C812 H788 0.950 . S
C812 C807 1.363 . S
C812 C811 1.415 . S
C813 H789 0.951 . S
C813 C814 1.366 . S
C813 C815 1.388 . S
C814 C813 1.366 . S
C814 C818 1.385 . S
C815 H790 0.951 . S
C815 C813 1.388 . S
C815 C816 1.366 . S
C816 C815 1.366 . S
C816 C817 1.414 . S
C816 C819 1.499 . S
C817 H791 0.950 . S
C817 C816 1.414 . S
C817 C818 1.374 . S
C818 H792 0.950 . S
C818 C814 1.385 . S
C818 C817 1.374 . S
C819 C816 1.499 . S
C819 C820 1.373 . S
C819 C821 1.389 . S
C820 H793 0.950 . S
C820 C806 1.377 . S
C820 C819 1.373 . S
C821 C805 1.377 . S
C821 C819 1.389 . S
C821 C822 1.524 . S
C822 C821 1.524 . S
C822 C823 1.397 . S
C822 C827 1.363 . S
C823 H794 0.950 . S
C823 C822 1.397 . S
C823 C824 1.334 . S
C824 H795 0.950 . S
C824 C823 1.334 . S
C824 C825 1.287 . S
C825 C824 1.287 . S
C825 C826 1.524 . S
C825 H828 0.999 . S
C826 H796 0.950 . S
C826 C825 1.524 . S
C826 C827 1.415 . S
C827 H797 0.950 . S
C827 C822 1.363 . S
C827 C826 1.415 . S
H828 C825 0.999 . S
H829 C810 0.913 . S
H830 C848 0.951 . S
H831 C850 0.951 . S
H832 C852 0.950 . S
H833 C853 0.950 . S
H834 C855 0.950 . S
H835 C858 0.950 . S
H836 C859 0.950 . S
H837 C861 0.950 . S
H838 C862 0.950 . S
H839 C863 0.951 . S
H840 C865 0.951 . S
H841 C867 0.950 . S
H842 C868 0.950 . S
H843 C870 0.950 . S
H844 C873 0.950 . S
H845 C874 0.950 . S
H846 C876 0.950 . S
H847 C877 0.950 . S
C848 H830 0.951 . S
C848 C849 1.366 . S
C848 C850 1.388 . S
C849 C848 1.366 . S
C849 C853 1.385 . S
C850 H831 0.951 . S
C850 C848 1.388 . S
C850 C851 1.366 . S
C851 C850 1.366 . S
C851 C852 1.414 . S
C851 C854 1.499 . S
C852 H832 0.950 . S
C852 C851 1.414 . S
C852 C853 1.374 . S
C853 H833 0.950 . S
C853 C849 1.385 . S
C853 C852 1.374 . S
C854 C851 1.499 . S
C854 C855 1.373 . S
C854 C856 1.389 . S
C855 H834 0.950 . S
C855 C854 1.373 . S
C855 C871 1.377 . S
C856 C854 1.389 . S
C856 C857 1.524 . S
C856 C870 1.377 . S
C857 C856 1.524 . S
C857 C858 1.397 . S
C857 C862 1.363 . S
C858 H835 0.950 . S
C858 C857 1.397 . S
C858 C859 1.334 . S
C859 H836 0.950 . S
C859 C858 1.334 . S
C859 C860 1.287 . S
C860 C859 1.287 . S
C860 C861 1.524 . S
C860 H879 0.913 . S
C861 H837 0.950 . S
C861 C860 1.524 . S
C861 C862 1.415 . S
C862 H838 0.950 . S
C862 C857 1.363 . S
C862 C861 1.415 . S
C863 H839 0.951 . S
C863 C864 1.366 . S
C863 C865 1.388 . S
C864 C863 1.366 . S
C864 C868 1.385 . S
C865 H840 0.951 . S
C865 C863 1.388 . S
C865 C866 1.366 . S
C866 C865 1.366 . S
C866 C867 1.414 . S
C866 C869 1.499 . S
C867 H841 0.950 . S
C867 C866 1.414 . S
C867 C868 1.374 . S
C868 H842 0.950 . S
C868 C864 1.385 . S
C868 C867 1.374 . S
C869 C866 1.499 . S
C869 C870 1.373 . S
C869 C871 1.389 . S
C870 H843 0.950 . S
C870 C856 1.377 . S
C870 C869 1.373 . S
C871 C855 1.377 . S
C871 C869 1.389 . S
C871 C872 1.524 . S
C872 C871 1.524 . S
C872 C873 1.397 . S
C872 C877 1.363 . S
C873 H844 0.950 . S
C873 C872 1.397 . S
C873 C874 1.334 . S
C874 H845 0.950 . S
C874 C873 1.334 . S
C874 C875 1.287 . S
C875 C874 1.287 . S
C875 C876 1.524 . S
C875 H878 0.999 . S
C876 H846 0.950 . S
C876 C875 1.524 . S
C876 C877 1.415 . S
C877 H847 0.950 . S
C877 C872 1.363 . S
C877 C876 1.415 . S
H878 C875 0.999 . S
H879 C860 0.913 . S
H880 C898 0.951 . S
H881 C900 0.951 . S
H882 C902 0.950 . S
H883 C903 0.950 . S
H884 C905 0.950 . S
H885 C908 0.950 . S
H886 C909 0.950 . S
H887 C911 0.950 . S
H888 C912 0.950 . S
H889 C913 0.951 . S
H890 C915 0.951 . S
H891 C917 0.950 . S
H892 C918 0.950 . S
H893 C920 0.950 . S
H894 C923 0.950 . S
H895 C924 0.950 . S
H896 C926 0.950 . S
H897 C927 0.950 . S
C898 H880 0.951 . S
C898 C899 1.366 . S
C898 C900 1.388 . S
C899 C898 1.366 . S
C899 C903 1.385 . S
C900 H881 0.951 . S
C900 C898 1.388 . S
C900 C901 1.366 . S
C901 C900 1.366 . S
C901 C902 1.414 . S
C901 C904 1.499 . S
C902 H882 0.950 . S
C902 C901 1.414 . S
C902 C903 1.374 . S
C903 H883 0.950 . S
C903 C899 1.385 . S
C903 C902 1.374 . S
C904 C901 1.499 . S
C904 C905 1.373 . S
C904 C906 1.389 . S
C905 H884 0.950 . S
C905 C904 1.373 . S
C905 C921 1.377 . S
C906 C904 1.389 . S
C906 C907 1.524 . S
C906 C920 1.377 . S
C907 C906 1.524 . S
C907 C908 1.397 . S
C907 C912 1.363 . S
C908 H885 0.950 . S
C908 C907 1.397 . S
C908 C909 1.334 . S
C909 H886 0.950 . S
C909 C908 1.334 . S
C909 C910 1.287 . S
C910 C909 1.287 . S
C910 C911 1.524 . S
C910 H929 0.913 . S
C911 H887 0.950 . S
C911 C910 1.524 . S
C911 C912 1.415 . S
C912 H888 0.950 . S
C912 C907 1.363 . S
C912 C911 1.415 . S
C913 H889 0.951 . S
C913 C914 1.366 . S
C913 C915 1.388 . S
C914 C913 1.366 . S
C914 C918 1.385 . S
C915 H890 0.951 . S
C915 C913 1.388 . S
C915 C916 1.366 . S
C916 C915 1.366 . S
C916 C917 1.414 . S
C916 C919 1.499 . S
C917 H891 0.950 . S
C917 C916 1.414 . S
C917 C918 1.374 . S
C918 H892 0.950 . S
C918 C914 1.385 . S
C918 C917 1.374 . S
C919 C916 1.499 . S
C919 C920 1.373 . S
C919 C921 1.389 . S
C920 H893 0.950 . S
C920 C906 1.377 . S
C920 C919 1.373 . S
C921 C905 1.377 . S
C921 C919 1.389 . S
C921 C922 1.524 . S
C922 C921 1.524 . S
C922 C923 1.397 . S
C922 C927 1.363 . S
C923 H894 0.950 . S
C923 C922 1.397 . S
C923 C924 1.334 . S
C924 H895 0.950 . S
C924 C923 1.334 . S
C924 C925 1.287 . S
C925 C924 1.287 . S
C925 C926 1.524 . S
C925 H928 0.999 . S
C926 H896 0.950 . S
C926 C925 1.524 . S
C926 C927 1.415 . S
C927 H897 0.950 . S
C927 C922 1.363 . S
C927 C926 1.415 . S
H928 C925 0.999 . S
H929 C910 0.913 . S
H930 C948 0.951 . S
H931 C950 0.951 . S
H932 C952 0.950 . S
H933 C953 0.950 . S
H934 C955 0.950 . S
H935 C958 0.950 . S
H936 C959 0.950 . S
H937 C961 0.950 . S
H938 C962 0.950 . S
H939 C963 0.951 . S
H940 C965 0.951 . S
H941 C967 0.950 . S
H942 C968 0.950 . S
H943 C970 0.950 . S
H944 C973 0.950 . S
H945 C974 0.950 . S
H946 C976 0.950 . S
H947 C977 0.950 . S
C948 H930 0.951 . S
C948 C949 1.366 . S
C948 C950 1.388 . S
C949 C948 1.366 . S
C949 C953 1.385 . S
C950 H931 0.951 . S
C950 C948 1.388 . S
C950 C951 1.366 . S
C951 C950 1.366 . S
C951 C952 1.414 . S
C951 C954 1.499 . S
C952 H932 0.950 . S
C952 C951 1.414 . S
C952 C953 1.374 . S
C953 H933 0.950 . S
C953 C949 1.385 . S
C953 C952 1.374 . S
C954 C951 1.499 . S
C954 C955 1.373 . S
C954 C956 1.389 . S
C955 H934 0.950 . S
C955 C954 1.373 . S
C955 C971 1.377 . S
C956 C954 1.389 . S
C956 C957 1.524 . S
C956 C970 1.377 . S
C957 C956 1.524 . S
C957 C958 1.397 . S
C957 C962 1.363 . S
C958 H935 0.950 . S
C958 C957 1.397 . S
C958 C959 1.334 . S
C959 H936 0.950 . S
C959 C958 1.334 . S
C959 C960 1.287 . S
C960 C959 1.287 . S
C960 C961 1.524 . S
C960 H979 0.913 . S
C961 H937 0.950 . S
C961 C960 1.524 . S
C961 C962 1.415 . S
C962 H938 0.950 . S
C962 C957 1.363 . S
C962 C961 1.415 . S
C963 H939 0.951 . S
C963 C964 1.366 . S
C963 C965 1.388 . S
C964 C963 1.366 . S
C964 C968 1.385 . S
C965 H940 0.951 . S
C965 C963 1.388 . S
C965 C966 1.366 . S
C966 C965 1.366 . S
C966 C967 1.414 . S
C966 C969 1.499 . S
C967 H941 0.950 . S
C967 C966 1.414 . S
C967 C968 1.374 . S
C968 H942 0.950 . S
C968 C964 1.385 . S
C968 C967 1.374 . S
C969 C966 1.499 . S
C969 C970 1.373 . S
C969 C971 1.389 . S
C970 H943 0.950 . S
C970 C956 1.377 . S
C970 C969 1.373 . S
C971 C955 1.377 . S
C971 C969 1.389 . S
C971 C972 1.524 . S
C972 C971 1.524 . S
C972 C973 1.397 . S
C972 C977 1.363 . S
C973 H944 0.950 . S
C973 C972 1.397 . S
C973 C974 1.334 . S
C974 H945 0.950 . S
C974 C973 1.334 . S
C974 C975 1.287 . S
C975 C974 1.287 . S
C975 C976 1.524 . S
C975 H978 0.999 . S
C976 H946 0.950 . S
C976 C975 1.524 . S
C976 C977 1.415 . S
C977 H947 0.950 . S
C977 C972 1.363 . S
C977 C976 1.415 . S
H978 C975 0.999 . S
H979 C960 0.913 . S
H980 C998 0.951 . S
H981 C1000 0.951 . S
H982 C1002 0.950 . S
H983 C1003 0.950 . S
H984 C1005 0.950 . S
H985 C1008 0.950 . S
H986 C1009 0.950 . S
H987 C1011 0.950 . S
H988 C1012 0.950 . S
H989 C1013 0.951 . S
H990 C1015 0.951 . S
H991 C1017 0.950 . S
H992 C1018 0.950 . S
H993 C1020 0.950 . S
H994 C1023 0.950 . S
H995 C1024 0.950 . S
H996 C1026 0.950 . S
H997 C1027 0.950 . S
C998 H980 0.951 . S
C998 C999 1.366 . S
C998 C1000 1.388 . S
C999 C998 1.366 . S
C999 C1003 1.385 . S
C1000 H981 0.951 . S
C1000 C998 1.388 . S
C1000 C1001 1.366 . S
C1001 C1000 1.366 . S
C1001 C1002 1.414 . S
C1001 C1004 1.499 . S
C1002 H982 0.950 . S
C1002 C1001 1.414 . S
C1002 C1003 1.374 . S
C1003 H983 0.950 . S
C1003 C999 1.385 . S
C1003 C1002 1.374 . S
C1004 C1001 1.499 . S
C1004 C1005 1.373 . S
C1004 C1006 1.389 . S
C1005 H984 0.950 . S
C1005 C1004 1.373 . S
C1005 C1021 1.377 . S
C1006 C1004 1.389 . S
C1006 C1007 1.524 . S
C1006 C1020 1.377 . S
C1007 C1006 1.524 . S
C1007 C1008 1.397 . S
C1007 C1012 1.363 . S
C1008 H985 0.950 . S
C1008 C1007 1.397 . S
C1008 C1009 1.334 . S
C1009 H986 0.950 . S
C1009 C1008 1.334 . S
C1009 C1010 1.287 . S
C1010 C1009 1.287 . S
C1010 C1011 1.524 . S
C1010 H1029 0.913 . S
C1011 H987 0.950 . S
C1011 C1010 1.524 . S
C1011 C1012 1.415 . S
C1012 H988 0.950 . S
C1012 C1007 1.363 . S
C1012 C1011 1.415 . S
C1013 H989 0.951 . S
C1013 C1014 1.366 . S
C1013 C1015 1.388 . S
C1014 C1013 1.366 . S
C1014 C1018 1.385 . S
C1015 H990 0.951 . S
C1015 C1013 1.388 . S
C1015 C1016 1.366 . S
C1016 C1015 1.366 . S
C1016 C1017 1.414 . S
C1016 C1019 1.499 . S
C1017 H991 0.950 . S
C1017 C1016 1.414 . S
C1017 C1018 1.374 . S
C1018 H992 0.950 . S
C1018 C1014 1.385 . S
C1018 C1017 1.374 . S
C1019 C1016 1.499 . S
C1019 C1020 1.373 . S
C1019 C1021 1.389 . S
C1020 H993 0.950 . S
C1020 C1006 1.377 . S
C1020 C1019 1.373 . S
C1021 C1005 1.377 . S
C1021 C1019 1.389 . S
C1021 C1022 1.524 . S
C1022 C1021 1.524 . S
C1022 C1023 1.397 . S
C1022 C1027 1.363 . S
C1023 H994 0.950 . S
C1023 C1022 1.397 . S
C1023 C1024 1.334 . S
C1024 H995 0.950 . S
C1024 C1023 1.334 . S
C1024 C1025 1.287 . S
C1025 C1024 1.287 . S
C1025 C1026 1.524 . S
C1025 H1028 0.999 . S
C1026 H996 0.950 . S
C1026 C1025 1.524 . S
C1026 C1027 1.415 . S
C1027 H997 0.950 . S
C1027 C1022 1.363 . S
C1027 C1026 1.415 . S
H1028 C1025 0.999 . S
H1029 C1010 0.913 . S
H1030 C1048 0.951 . S
H1031 C1050 0.951 . S
H1032 C1052 0.950 . S
H1033 C1053 0.950 . S
H1034 C1055 0.950 . S
H1035 C1058 0.950 . S
H1036 C1059 0.950 . S
H1037 C1061 0.950 . S
H1038 C1062 0.950 . S
H1039 C1063 0.951 . S
H1040 C1065 0.951 . S
H1041 C1067 0.950 . S
H1042 C1068 0.950 . S
H1043 C1070 0.950 . S
H1044 C1073 0.950 . S
H1045 C1074 0.950 . S
H1046 C1076 0.950 . S
H1047 C1077 0.950 . S
C1048 H1030 0.951 . S
C1048 C1049 1.366 . S
C1048 C1050 1.388 . S
C1049 C1048 1.366 . S
C1049 C1053 1.385 . S
C1050 H1031 0.951 . S
C1050 C1048 1.388 . S
C1050 C1051 1.366 . S
C1051 C1050 1.366 . S
C1051 C1052 1.414 . S
C1051 C1054 1.499 . S
C1052 H1032 0.950 . S
C1052 C1051 1.414 . S
C1052 C1053 1.374 . S
C1053 H1033 0.950 . S
C1053 C1049 1.385 . S
C1053 C1052 1.374 . S
C1054 C1051 1.499 . S
C1054 C1055 1.373 . S
C1054 C1056 1.389 . S
C1055 H1034 0.950 . S
C1055 C1054 1.373 . S
C1055 C1071 1.377 . S
C1056 C1054 1.389 . S
C1056 C1057 1.524 . S
C1056 C1070 1.377 . S
C1057 C1056 1.524 . S
C1057 C1058 1.397 . S
C1057 C1062 1.363 . S
C1058 H1035 0.950 . S
C1058 C1057 1.397 . S
C1058 C1059 1.334 . S
C1059 H1036 0.950 . S
C1059 C1058 1.334 . S
C1059 C1060 1.287 . S
C1060 C1059 1.287 . S
C1060 C1061 1.524 . S
C1060 H1079 0.913 . S
C1061 H1037 0.950 . S
C1061 C1060 1.524 . S
C1061 C1062 1.415 . S
C1062 H1038 0.950 . S
C1062 C1057 1.363 . S
C1062 C1061 1.415 . S
C1063 H1039 0.951 . S
C1063 C1064 1.366 . S
C1063 C1065 1.388 . S
C1064 C1063 1.366 . S
C1064 C1068 1.385 . S
C1065 H1040 0.951 . S
C1065 C1063 1.388 . S
C1065 C1066 1.366 . S
C1066 C1065 1.366 . S
C1066 C1067 1.414 . S
C1066 C1069 1.499 . S
C1067 H1041 0.950 . S
C1067 C1066 1.414 . S
C1067 C1068 1.374 . S
C1068 H1042 0.950 . S
C1068 C1064 1.385 . S
C1068 C1067 1.374 . S
C1069 C1066 1.499 . S
C1069 C1070 1.373 . S
C1069 C1071 1.389 . S
C1070 H1043 0.950 . S
C1070 C1056 1.377 . S
C1070 C1069 1.373 . S
C1071 C1055 1.377 . S
C1071 C1069 1.389 . S
C1071 C1072 1.524 . S
C1072 C1071 1.524 . S
C1072 C1073 1.397 . S
C1072 C1077 1.363 . S
C1073 H1044 0.950 . S
C1073 C1072 1.397 . S
C1073 C1074 1.334 . S
C1074 H1045 0.950 . S
C1074 C1073 1.334 . S
C1074 C1075 1.287 . S
C1075 C1074 1.287 . S
C1075 C1076 1.524 . S
C1075 H1078 0.999 . S
C1076 H1046 0.950 . S
C1076 C1075 1.524 . S
C1076 C1077 1.415 . S
C1077 H1047 0.950 . S
C1077 C1072 1.363 . S
C1077 C1076 1.415 . S
H1078 C1075 0.999 . S
H1079 C1060 0.913 . S
H1080 C1098 0.951 . S
H1081 C1100 0.951 . S
H1082 C1102 0.950 1_655 S
H1083 C1103 0.949 . S
H1084 C1105 0.950 . S
H1085 C1108 0.950 . S
H1086 C1109 0.950 . S
H1087 C1111 0.950 . S
H1088 C1112 0.950 1_455 S
H1089 C1113 0.951 . S
H1090 C1115 0.952 1_655 S
H1091 C1117 0.950 . S
H1092 C1118 0.950 . S
H1093 C1120 0.950 1_655 S
H1094 C1123 0.950 . S
H1095 C1124 0.950 . S
H1096 C1126 0.950 . S
H1097 C1127 0.950 . S
C1098 H1080 0.951 . S
C1098 C1099 1.366 . S
C1098 C1100 1.388 . S
C1099 C1098 1.366 . S
C1099 C1103 1.385 . S
C1100 H1081 0.951 . S
C1100 C1098 1.388 . S
C1100 C1101 1.366 . S
C1101 C1100 1.366 . S
C1101 C1102 1.414 . S
C1101 C1104 1.499 . S
C1102 H1082 0.950 1_455 S
C1102 C1101 1.414 . S
C1102 C1103 1.374 . S
C1103 H1083 0.949 . S
C1103 C1099 1.385 . S
C1103 C1102 1.374 . S
C1104 C1101 1.499 . S
C1104 C1105 1.373 . S
C1104 C1106 1.389 . S
C1105 H1084 0.950 . S
C1105 C1104 1.373 . S
C1105 C1121 1.377 . S
C1106 C1104 1.389 . S
C1106 C1107 1.524 1_455 S
C1106 C1120 1.377 . S
C1107 C1106 1.524 1_655 S
C1107 C1108 1.397 . S
C1107 C1112 1.363 . S
C1108 H1085 0.950 . S
C1108 C1107 1.397 . S
C1108 C1109 1.334 . S
C1109 H1086 0.950 . S
C1109 C1108 1.334 . S
C1109 C1110 1.287 . S
C1110 C1109 1.287 . S
C1110 C1111 1.524 . S
C1110 H1129 0.913 . S
C1111 H1087 0.950 . S
C1111 C1110 1.524 . S
C1111 C1112 1.415 . S
C1112 H1088 0.950 1_655 S
C1112 C1107 1.363 . S
C1112 C1111 1.415 . S
C1113 H1089 0.951 . S
C1113 C1114 1.366 1_655 S
C1113 C1115 1.388 1_656 S
C1114 C1113 1.366 1_455 S
C1114 C1118 1.385 . S
C1115 H1090 0.952 1_455 S
C1115 C1113 1.388 1_454 S
C1115 C1116 1.364 . S
C1116 C1115 1.364 . S
C1116 C1117 1.414 . S
C1116 C1119 1.499 . S
C1117 H1091 0.950 . S
C1117 C1116 1.414 . S
C1117 C1118 1.374 1_554 S
C1118 H1092 0.950 . S
C1118 C1114 1.385 . S
C1118 C1117 1.374 1_556 S
C1119 C1116 1.499 . S
C1119 C1120 1.373 . S
C1119 C1121 1.389 . S
C1120 H1093 0.950 1_455 S
C1120 C1106 1.377 . S
C1120 C1119 1.373 . S
C1121 C1105 1.377 . S
C1121 C1119 1.389 . S
C1121 C1122 1.524 . S
C1122 C1121 1.524 . S
C1122 C1123 1.397 . S
C1122 C1127 1.363 . S
C1123 H1094 0.950 . S
C1123 C1122 1.397 . S
C1123 C1124 1.334 . S
C1124 H1095 0.950 . S
C1124 C1123 1.334 . S
C1124 C1125 1.287 . S
C1125 C1124 1.287 . S
C1125 C1126 1.524 . S
C1125 H1128 0.999 . S
C1126 H1096 0.950 . S
C1126 C1125 1.524 . S
C1126 C1127 1.415 . S
C1127 H1097 0.950 . S
C1127 C1122 1.363 . S
C1127 C1126 1.415 . S
H1128 C1125 0.999 . S
H1129 C1110 0.913 . S
H1130 C1148 0.951 . S
H1131 C1150 0.951 . S
H1132 C1152 0.950 . S
H1133 C1153 0.950 . S
H1134 C1155 0.950 . S
H1135 C1158 0.950 . S
H1136 C1159 0.950 . S
H1137 C1161 0.950 . S
H1138 C1162 0.950 1_545 S
H1139 C1163 0.951 . S
H1140 C1165 0.951 . S
H1141 C1167 0.950 . S
H1142 C1168 0.950 . S
H1143 C1170 0.950 . S
H1144 C1173 0.950 . S
H1145 C1174 0.950 . S
H1146 C1176 0.950 . S
H1147 C1177 0.950 . S
C1148 H1130 0.951 . S
C1148 C1149 1.366 . S
C1148 C1150 1.388 . S
C1149 C1148 1.366 . S
C1149 C1153 1.385 . S
C1150 H1131 0.951 . S
C1150 C1148 1.388 . S
C1150 C1151 1.366 . S
C1151 C1150 1.366 . S
C1151 C1152 1.414 . S
C1151 C1154 1.499 . S
C1152 H1132 0.950 . S
C1152 C1151 1.414 . S
C1152 C1153 1.374 . S
C1153 H1133 0.950 . S
C1153 C1149 1.385 . S
C1153 C1152 1.374 . S
C1154 C1151 1.499 . S
C1154 C1155 1.373 . S
C1154 C1156 1.389 . S
C1155 H1134 0.950 . S
C1155 C1154 1.373 . S
C1155 C1171 1.377 . S
C1156 C1154 1.389 . S
C1156 C1157 1.524 1_545 S
C1156 C1170 1.377 . S
C1157 C1156 1.524 1_565 S
C1157 C1158 1.397 . S
C1157 C1162 1.363 . S
C1158 H1135 0.950 . S
C1158 C1157 1.397 . S
C1158 C1159 1.334 . S
C1159 H1136 0.950 . S
C1159 C1158 1.334 . S
C1159 C1160 1.287 . S
C1160 C1159 1.287 . S
C1160 C1161 1.524 . S
C1160 H1179 0.913 . S
C1161 H1137 0.950 . S
C1161 C1160 1.524 . S
C1161 C1162 1.415 . S
C1162 H1138 0.950 1_565 S
C1162 C1157 1.363 . S
C1162 C1161 1.415 . S
C1163 H1139 0.951 . S
C1163 C1164 1.366 . S
C1163 C1165 1.388 . S
C1164 C1163 1.366 . S
C1164 C1168 1.385 . S
C1165 H1140 0.951 . S
C1165 C1163 1.388 . S
C1165 C1166 1.366 . S
C1166 C1165 1.366 . S
C1166 C1167 1.414 . S
C1166 C1169 1.499 . S
C1167 H1141 0.950 . S
C1167 C1166 1.414 . S
C1167 C1168 1.374 . S
C1168 H1142 0.950 . S
C1168 C1164 1.385 . S
C1168 C1167 1.374 . S
C1169 C1166 1.499 . S
C1169 C1170 1.373 . S
C1169 C1171 1.389 . S
C1170 H1143 0.950 . S
C1170 C1156 1.377 . S
C1170 C1169 1.373 . S
C1171 C1155 1.377 . S
C1171 C1169 1.389 . S
C1171 C1172 1.524 . S
C1172 C1171 1.524 . S
C1172 C1173 1.397 . S
C1172 C1177 1.363 . S
C1173 H1144 0.950 . S
C1173 C1172 1.397 . S
C1173 C1174 1.334 . S
C1174 H1145 0.950 . S
C1174 C1173 1.334 . S
C1174 C1175 1.287 . S
C1175 C1174 1.287 . S
C1175 C1176 1.524 . S
C1175 H1178 0.999 . S
C1176 H1146 0.950 . S
C1176 C1175 1.524 . S
C1176 C1177 1.415 . S
C1177 H1147 0.950 . S
C1177 C1172 1.363 . S
C1177 C1176 1.415 . S
H1178 C1175 0.999 . S
H1179 C1160 0.913 . S
H1180 C1198 0.951 . S
H1181 C1200 0.951 . S
H1182 C1202 0.950 . S
H1183 C1203 0.950 . S
H1184 C1205 0.950 . S
H1185 C1208 0.950 . S
H1186 C1209 0.950 . S
H1187 C1211 0.950 . S
H1188 C1212 0.950 . S
H1189 C1213 0.951 . S
H1190 C1215 0.951 . S
H1191 C1217 0.950 . S
H1192 C1218 0.950 . S
H1193 C1220 0.950 . S
H1194 C1223 0.950 . S
H1195 C1224 0.950 . S
H1196 C1226 0.950 . S
H1197 C1227 0.950 . S
C1198 H1180 0.951 . S
C1198 C1199 1.366 . S
C1198 C1200 1.388 . S
C1199 C1198 1.366 . S
C1199 C1203 1.385 . S
C1200 H1181 0.951 . S
C1200 C1198 1.388 . S
C1200 C1201 1.366 . S
C1201 C1200 1.366 . S
C1201 C1202 1.414 . S
C1201 C1204 1.499 . S
C1202 H1182 0.950 . S
C1202 C1201 1.414 . S
C1202 C1203 1.374 . S
C1203 H1183 0.950 . S
C1203 C1199 1.385 . S
C1203 C1202 1.374 . S
C1204 C1201 1.499 . S
C1204 C1205 1.373 . S
C1204 C1206 1.389 . S
C1205 H1184 0.950 . S
C1205 C1204 1.373 . S
C1205 C1221 1.377 . S
C1206 C1204 1.389 . S
C1206 C1207 1.524 . S
C1206 C1220 1.377 . S
C1207 C1206 1.524 . S
C1207 C1208 1.397 . S
C1207 C1212 1.363 . S
C1208 H1185 0.950 . S
C1208 C1207 1.397 . S
C1208 C1209 1.334 . S
C1209 H1186 0.950 . S
C1209 C1208 1.334 . S
C1209 C1210 1.287 . S
C1210 C1209 1.287 . S
C1210 C1211 1.524 . S
C1210 H1229 0.913 . S
C1211 H1187 0.950 . S
C1211 C1210 1.524 . S
C1211 C1212 1.415 . S
C1212 H1188 0.950 . S
C1212 C1207 1.363 . S
C1212 C1211 1.415 . S
C1213 H1189 0.951 . S
C1213 C1214 1.366 . S
C1213 C1215 1.388 . S
C1214 C1213 1.366 . S
C1214 C1218 1.385 . S
C1215 H1190 0.951 . S
C1215 C1213 1.388 . S
C1215 C1216 1.366 . S
C1216 C1215 1.366 . S
C1216 C1217 1.414 . S
C1216 C1219 1.499 . S
C1217 H1191 0.950 . S
C1217 C1216 1.414 . S
C1217 C1218 1.374 . S
C1218 H1192 0.950 . S
C1218 C1214 1.385 . S
C1218 C1217 1.374 . S
C1219 C1216 1.499 . S
C1219 C1220 1.373 . S
C1219 C1221 1.389 . S
C1220 H1193 0.950 . S
C1220 C1206 1.377 . S
C1220 C1219 1.373 . S
C1221 C1205 1.377 . S
C1221 C1219 1.389 . S
C1221 C1222 1.524 . S
C1222 C1221 1.524 . S
C1222 C1223 1.397 . S
C1222 C1227 1.363 . S
C1223 H1194 0.950 . S
C1223 C1222 1.397 . S
C1223 C1224 1.334 . S
C1224 H1195 0.950 . S
C1224 C1223 1.334 . S
C1224 C1225 1.287 . S
C1225 C1224 1.287 . S
C1225 C1226 1.524 . S
C1225 H1228 0.999 . S
C1226 H1196 0.950 . S
C1226 C1225 1.524 . S
C1226 C1227 1.415 . S
C1227 H1197 0.950 . S
C1227 C1222 1.363 . S
C1227 C1226 1.415 . S
H1228 C1225 0.999 . S
H1229 C1210 0.913 . S
H1230 C1248 0.940 1_565 S
H1231 C1250 0.959 . S
H1232 C1252 0.950 . S
H1233 C1253 0.950 . S
H1234 C1255 0.950 . S
H1235 C1258 0.950 . S
H1236 C1259 0.950 . S
H1237 C1261 0.950 . S
H1238 C1262 0.950 . S
H1239 C1263 0.951 . S
H1240 C1265 0.951 . S
H1241 C1267 0.950 . S
H1242 C1268 0.950 . S
H1243 C1270 0.950 . S
H1244 C1273 0.950 . S
H1245 C1274 0.950 . S
H1246 C1276 0.950 . S
H1247 C1277 0.950 . S
C1248 H1230 0.940 1_545 S
C1248 C1249 1.377 . S
C1248 C1250 1.389 1_545 S
C1249 C1248 1.377 . S
C1249 C1253 1.385 . S
C1250 H1231 0.959 . S
C1250 C1248 1.389 1_565 S
C1250 C1251 1.358 1_565 S
C1251 C1250 1.358 1_545 S
C1251 C1252 1.414 . S
C1251 C1254 1.499 . S
C1252 H1232 0.950 . S
C1252 C1251 1.414 . S
C1252 C1253 1.374 . S
C1253 H1233 0.950 . S
C1253 C1249 1.385 . S
C1253 C1252 1.374 . S
C1254 C1251 1.499 . S
C1254 C1255 1.373 . S
C1254 C1256 1.389 . S
C1255 H1234 0.950 . S
C1255 C1254 1.373 . S
C1255 C1271 1.377 . S
C1256 C1254 1.389 . S
C1256 C1257 1.524 . S
C1256 C1270 1.377 . S
C1257 C1256 1.524 . S
C1257 C1258 1.397 . S
C1257 C1262 1.363 1_545 S
C1258 H1235 0.950 . S
C1258 C1257 1.397 . S
C1258 C1259 1.334 . S
C1259 H1236 0.950 . S
C1259 C1258 1.334 . S
C1259 C1260 1.287 . S
C1260 C1259 1.287 . S
C1260 C1261 1.524 1_545 S
C1260 H1279 0.913 . S
C1261 H1237 0.950 . S
C1261 C1260 1.524 1_565 S
C1261 C1262 1.415 . S
C1262 H1238 0.950 . S
C1262 C1257 1.363 1_565 S
C1262 C1261 1.415 . S
C1263 H1239 0.951 . S
C1263 C1264 1.366 . S
C1263 C1265 1.388 . S
C1264 C1263 1.366 . S
C1264 C1268 1.385 1_545 S
C1265 H1240 0.951 . S
C1265 C1263 1.388 . S
C1265 C1266 1.366 . S
C1266 C1265 1.366 . S
C1266 C1267 1.414 1_545 S
C1266 C1269 1.499 . S
C1267 H1241 0.950 . S
C1267 C1266 1.414 1_565 S
C1267 C1268 1.374 . S
C1268 H1242 0.950 . S
C1268 C1264 1.385 1_565 S
C1268 C1267 1.374 . S
C1269 C1266 1.499 . S
C1269 C1270 1.373 . S
C1269 C1271 1.389 . S
C1270 H1243 0.950 . S
C1270 C1256 1.377 . S
C1270 C1269 1.373 . S
C1271 C1255 1.377 . S
C1271 C1269 1.389 . S
C1271 C1272 1.524 . S
C1272 C1271 1.524 . S
C1272 C1273 1.397 1_545 S
C1272 C1277 1.363 . S
C1273 H1244 0.950 . S
C1273 C1272 1.397 1_565 S
C1273 C1274 1.334 . S
C1274 H1245 0.950 . S
C1274 C1273 1.334 . S
C1274 C1275 1.287 1_565 S
C1275 C1274 1.287 1_545 S
C1275 C1276 1.524 . S
C1275 H1278 0.999 . S
C1276 H1246 0.950 . S
C1276 C1275 1.524 . S
C1276 C1277 1.415 . S
C1277 H1247 0.950 . S
C1277 C1272 1.363 . S
C1277 C1276 1.415 . S
H1278 C1275 0.999 . S
H1279 C1260 0.913 . S
H1280 C1298 0.951 . S
H1281 C1300 0.951 . S
H1282 C1302 0.950 . S
H1283 C1303 0.950 . S
H1284 C1305 0.950 . S
H1285 C1308 0.950 . S
H1286 C1309 0.950 . S
H1287 C1311 0.950 . S
H1288 C1312 0.950 . S
H1289 C1313 0.951 . S
H1290 C1315 0.951 . S
H1291 C1317 0.950 . S
H1292 C1318 0.950 . S
H1293 C1320 0.950 . S
H1294 C1323 0.950 . S
H1295 C1324 0.950 . S
H1296 C1326 0.950 . S
H1297 C1327 0.950 . S
C1298 H1280 0.951 . S
C1298 C1299 1.366 . S
C1298 C1300 1.388 . S
C1299 C1298 1.366 . S
C1299 C1303 1.385 . S
C1300 H1281 0.951 . S
C1300 C1298 1.388 . S
C1300 C1301 1.366 . S
C1301 C1300 1.366 . S
C1301 C1302 1.414 . S
C1301 C1304 1.499 . S
C1302 H1282 0.950 . S
C1302 C1301 1.414 . S
C1302 C1303 1.374 . S
C1303 H1283 0.950 . S
C1303 C1299 1.385 . S
C1303 C1302 1.374 . S
C1304 C1301 1.499 . S
C1304 C1305 1.373 . S
C1304 C1306 1.389 . S
C1305 H1284 0.950 . S
C1305 C1304 1.373 . S
C1305 C1321 1.377 . S
C1306 C1304 1.389 . S
C1306 C1307 1.524 . S
C1306 C1320 1.377 . S
C1307 C1306 1.524 . S
C1307 C1308 1.397 . S
C1307 C1312 1.363 . S
C1308 H1285 0.950 . S
C1308 C1307 1.397 . S
C1308 C1309 1.334 . S
C1309 H1286 0.950 . S
C1309 C1308 1.334 . S
C1309 C1310 1.287 . S
C1310 C1309 1.287 . S
C1310 C1311 1.524 . S
C1310 H1329 0.913 . S
C1311 H1287 0.950 . S
C1311 C1310 1.524 . S
C1311 C1312 1.415 . S
C1312 H1288 0.950 . S
C1312 C1307 1.363 . S
C1312 C1311 1.415 . S
C1313 H1289 0.951 . S
C1313 C1314 1.366 . S
C1313 C1315 1.388 1_554 S
C1314 C1313 1.366 . S
C1314 C1318 1.385 . S
C1315 H1290 0.951 . S
C1315 C1313 1.388 1_556 S
C1315 C1316 1.366 . S
C1316 C1315 1.366 . S
C1316 C1317 1.414 . S
C1316 C1319 1.499 . S
C1317 H1291 0.950 . S
C1317 C1316 1.414 . S
C1317 C1318 1.374 1_556 S
C1318 H1292 0.950 . S
C1318 C1314 1.385 . S
C1318 C1317 1.374 1_554 S
C1319 C1316 1.499 . S
C1319 C1320 1.373 . S
C1319 C1321 1.389 . S
C1320 H1293 0.950 . S
C1320 C1306 1.377 . S
C1320 C1319 1.373 . S
C1321 C1305 1.377 . S
C1321 C1319 1.389 . S
C1321 C1322 1.524 . S
C1322 C1321 1.524 . S
C1322 C1323 1.397 . S
C1322 C1327 1.363 . S
C1323 H1294 0.950 . S
C1323 C1322 1.397 . S
C1323 C1324 1.334 . S
C1324 H1295 0.950 . S
C1324 C1323 1.334 . S
C1324 C1325 1.287 . S
C1325 C1324 1.287 . S
C1325 C1326 1.524 . S
C1325 H1328 0.999 . S
C1326 H1296 0.950 . S
C1326 C1325 1.524 . S
C1326 C1327 1.415 . S
C1327 H1297 0.950 . S
C1327 C1322 1.363 . S
C1327 C1326 1.415 . S
H1328 C1325 0.999 . S
H1329 C1310 0.913 . S
H1330 C1348 0.951 . S
H1331 C1350 0.951 . S
H1332 C1352 0.950 . S
H1333 C1353 0.950 . S
H1334 C1355 0.950 1_655 S
H1335 C1358 0.950 . S
H1336 C1359 0.950 . S
H1337 C1361 0.950 . S
H1338 C1362 0.950 . S
H1339 C1363 0.951 . S
H1340 C1365 0.951 . S
H1341 C1367 0.950 . S
H1342 C1368 0.950 . S
H1343 C1370 0.950 . S
H1344 C1373 0.950 . S
H1345 C1374 0.950 . S
H1346 C1376 0.950 . S
H1347 C1377 0.950 . S
C1348 H1330 0.951 . S
C1348 C1349 1.366 . S
C1348 C1350 1.388 . S
C1349 C1348 1.366 . S
C1349 C1353 1.385 . S
C1350 H1331 0.951 . S
C1350 C1348 1.388 . S
C1350 C1351 1.366 . S
C1351 C1350 1.366 . S
C1351 C1352 1.414 . S
C1351 C1354 1.499 . S
C1352 H1332 0.950 . S
C1352 C1351 1.414 . S
C1352 C1353 1.374 . S
C1353 H1333 0.950 . S
C1353 C1349 1.385 . S
C1353 C1352 1.374 . S
C1354 C1351 1.499 . S
C1354 C1355 1.373 . S
C1354 C1356 1.389 . S
C1355 H1334 0.950 1_455 S
C1355 C1354 1.373 . S
C1355 C1371 1.377 . S
C1356 C1354 1.389 . S
C1356 C1357 1.524 . S
C1356 C1370 1.377 . S
C1357 C1356 1.524 . S
C1357 C1358 1.397 . S
C1357 C1362 1.363 . S
C1358 H1335 0.950 . S
C1358 C1357 1.397 . S
C1358 C1359 1.334 . S
C1359 H1336 0.950 . S
C1359 C1358 1.334 . S
C1359 C1360 1.287 . S
C1360 C1359 1.287 . S
C1360 C1361 1.524 . S
C1360 H1379 0.913 . S
C1361 H1337 0.950 . S
C1361 C1360 1.524 . S
C1361 C1362 1.415 . S
C1362 H1338 0.950 . S
C1362 C1357 1.363 . S
C1362 C1361 1.415 . S
C1363 H1339 0.951 . S
C1363 C1364 1.366 . S
C1363 C1365 1.388 . S
C1364 C1363 1.366 . S
C1364 C1368 1.385 . S
C1365 H1340 0.951 . S
C1365 C1363 1.388 . S
C1365 C1366 1.366 . S
C1366 C1365 1.366 . S
C1366 C1367 1.414 . S
C1366 C1369 1.499 . S
C1367 H1341 0.950 . S
C1367 C1366 1.414 . S
C1367 C1368 1.374 . S
C1368 H1342 0.950 . S
C1368 C1364 1.385 . S
C1368 C1367 1.374 . S
C1369 C1366 1.499 . S
C1369 C1370 1.373 . S
C1369 C1371 1.389 . S
C1370 H1343 0.950 . S
C1370 C1356 1.377 . S
C1370 C1369 1.373 . S
C1371 C1355 1.377 . S
C1371 C1369 1.389 . S
C1371 C1372 1.524 1_455 S
C1372 C1371 1.524 1_655 S
C1372 C1373 1.397 . S
C1372 C1377 1.363 . S
C1373 H1344 0.950 . S
C1373 C1372 1.397 . S
C1373 C1374 1.334 . S
C1374 H1345 0.950 . S
C1374 C1373 1.334 . S
C1374 C1375 1.287 . S
C1375 C1374 1.287 . S
C1375 C1376 1.524 . S
C1375 H1378 0.999 . S
C1376 H1346 0.950 . S
C1376 C1375 1.524 . S
C1376 C1377 1.415 . S
C1377 H1347 0.950 . S
C1377 C1372 1.363 . S
C1377 C1376 1.415 . S
H1378 C1375 0.999 . S
H1379 C1360 0.913 . S
C499 C19 2.904 . S
C514 C451 2.922 . S
C549 C49 3.009 . S
C564 C301 2.854 . S
C599 C99 2.904 . S
C614 C361 2.773 . S
C649 C9 3.009 . S
C664 C421 2.854 . S
C714 C331 2.923 . S
C699 C59 2.905 . S
C764 C391 3.001 . S
C749 C89 3.009 . S
C799 C55 0.288 . S
C814 C181 0.478 . S
C849 C85 0.322 . S
C864 C271 0.254 . S
C899 C15 0.290 . S
C914 C151 0.256 . S
C964 C211 0.255 . S
C949 C45 0.326 . S
C1014 C241 0.478 . S
C999 C95 0.289 . S
C1049 C5 0.322 . S
C1064 C121 0.387 . S
C1114 C260 1.075 . S
C1099 C18 1.074 . S
C1149 C58 1.073 . S
C1164 C140 1.086 . S
C1199 C98 1.074 . S
C1214 C200 1.076 . S
C1264 C380 1.755 . S
C1249 C48 1.702 . S
C1314 C440 1.758 . S
C1299 C88 1.700 . S
C1349 C8 1.701 . S
C1364 C320 1.758 . S
