# Generated by pormake.
# Topology tsx, (6,3)-cn, num edge types: 1
# Building blocks:
#     Node 0, Type 0, BuildingBlock: CIFDUS_clean_sbu_1, # of connection points: 6
#     Node 1, Type 0, BuildingBlock: CIFDUS_clean_sbu_1, # of connection points: 6
#     Node 2, Type 1, BuildingBlock: VETTIZ_charged_linker_0, # of connection points: 3
#     Node 3, Type 1, BuildingBlock: VETTIZ_charged_linker_0, # of connection points: 3
#     Node 4, Type 1, BuildingBlock: VETTIZ_charged_linker_0, # of connection points: 3
#     Node 5, Type 1, BuildingBlock: VETTIZ_charged_linker_0, # of connection points: 3
#     Edge 6, Type (0, 1), BuildingBlock: EYOCIG_clean_linker_4, # of connection points: 2
#     Edge 7, Type (0, 1), BuildingBlock: EYOCIG_clean_linker_4, # of connection points: 2
#     Edge 8, Type (0, 1), BuildingBlock: EYOCIG_clean_linker_4, # of connection points: 2
#     Edge 9, Type (0, 1), BuildingBlock: EYOCIG_clean_linker_4, # of connection points: 2
#     Edge 10, Type (0, 1), BuildingBlock: EYOCIG_clean_linker_4, # of connection points: 2
#     Edge 11, Type (0, 1), BuildingBlock: EYOCIG_clean_linker_4, # of connection points: 2
#     Edge 12, Type (0, 1), BuildingBlock: EYOCIG_clean_linker_4, # of connection points: 2
#     Edge 13, Type (0, 1), BuildingBlock: EYOCIG_clean_linker_4, # of connection points: 2
#     Edge 14, Type (0, 1), BuildingBlock: EYOCIG_clean_linker_4, # of connection points: 2
#     Edge 15, Type (0, 1), BuildingBlock: EYOCIG_clean_linker_4, # of connection points: 2
#     Edge 16, Type (0, 1), BuildingBlock: EYOCIG_clean_linker_4, # of connection points: 2
#     Edge 17, Type (0, 1), BuildingBlock: EYOCIG_clean_linker_4, # of connection points: 2
# Relax obj value: 0.132
# Max RMSD: 0.158
# Mean RMSD: 0.121
data_MOF--net-tsx--node1-CIFDUS_clean_sbu_1--node2-VETTIZ_charged_linker_0--edge1-EYOCIG_clean_linker_4
_symmetry_space_group_name_H-M    P1
_symmetry_Int_Tables_number       1
_symmetry_cell_setting            triclinic
loop_
_symmetry_equiv_pos_as_xyz
'x, y, z'
_cell_length_a     17.919734
_cell_length_b     21.748848
_cell_length_c     38.211198
_cell_angle_alpha  96.351479
_cell_angle_beta   91.197504
_cell_angle_gamma 91.575696
loop_
_atom_site_label
_atom_site_type_symbol
_atom_site_fract_x
_atom_site_fract_y
_atom_site_fract_z
_atom_type_partial_charge
O0 O 0.98505 0.12857 -0.01253 0.0
Mn1 Mn 0.04776 0.04815 -0.0122 0.0
O2 O 0.89635 0.10529 0.94463 0.0
Mn3 Mn 0.92421 0.0254 0.92979 0.0
O4 O 0.10615 0.96476 0.98663 0.0
O5 O 0.13818 0.10227 0.00769 0.0
Mn6 Mn 0.18353 0.05823 0.03792 0.0
O7 O 1.01142 0.03889 0.03847 0.0
O8 O 0.21625 0.98504 0.01477 0.0
O9 O 0.0883 0.05644 0.93746 0.0
O10 O 1.00021 0.01692 0.89804 0.0
O11 O 0.2397 0.12992 0.03944 0.0
O12 O 0.11587 0.04871 0.07297 0.0
C13 C 0.8997 0.95804 0.9646 0.0
C14 C 0.92706 0.14186 0.9695 0.0
C15 C 0.17136 0.94848 -0.00401 0.0
C16 C 0.19014 0.1447 0.01698 0.0
C17 C 0.04555 0.0404 0.06844 0.0
C18 C 0.06625 0.03704 0.90594 0.0
O19 O 0.95672 0.99647 0.96849 0.0
O20 O 0.85963 0.96077 0.93633 0.0
O21 O 0.48458 0.62797 0.48739 0.0
Mn22 Mn 0.54733 0.54758 0.48773 0.0
O23 O 0.39605 0.60473 0.44447 0.0
Mn24 Mn 0.42402 0.52488 0.42958 0.0
O25 O 0.60577 0.46422 0.48657 0.0
O26 O 0.63764 0.6017 0.50775 0.0
Mn27 Mn 0.6828 0.55765 0.53803 0.0
O28 O 0.51071 0.53816 0.53833 0.0
O29 O 0.71566 0.48448 0.5149 0.0
O30 O 0.5881 0.55601 0.43745 0.0
O31 O 0.50019 0.51654 0.39792 0.0
O32 O 0.73896 0.62937 0.53963 0.0
O33 O 0.61494 0.54805 0.57298 0.0
C34 C 0.39943 0.45744 0.46434 0.0
C35 C 0.42665 0.64126 0.46938 0.0
C36 C 0.6709 0.44794 0.49604 0.0
C37 C 0.68954 0.64414 0.51711 0.0
C38 C 0.54465 0.53964 0.56835 0.0
C39 C 0.56619 0.53669 0.4059 0.0
O40 O 0.45642 0.49589 0.46828 0.0
O41 O 0.35946 0.46018 0.43604 0.0
C42 C 0.12509 0.86822 0.44742 0.0
C43 C 0.19609 0.84786 0.43685 0.0
C44 C 0.22651 0.86637 0.40599 0.0
C45 C 0.11397 0.9198 0.39456 0.0
C46 C 0.08553 0.90618 0.4262 0.0
C47 C 0.01954 0.94653 0.43624 0.0
H48 H 0.88222 0.23345 0.4131 0.0
C49 C 0.0695 0.96742 0.38135 0.0
C50 C 0.02017 0.99022 0.40719 0.0
H51 H 0.80034 0.11329 0.4869 0.0
H52 H 0.87927 0.03013 0.46026 0.0
H53 H 0.06182 0.19265 0.40234 0.0
H54 H 0.84819 0.15488 0.35715 0.0
H55 H 0.89813 0.10396 0.32792 0.0
H56 H 0.91691 0.18663 0.33132 0.0
H57 H 1.00147 0.23925 0.37862 0.0
H58 H 0.06505 0.18733 0.3556 0.0
C59 C 0.03351 0.97977 0.47331 0.0
C60 C 0.94777 0.90556 0.43395 0.0
C61 C 0.04121 0.99086 0.2522 0.0
C62 C 0.01819 0.04079 0.23474 0.0
C63 C 1.01138 0.09952 0.25357 0.0
C64 C 0.02237 0.10758 0.29014 0.0
C65 C 0.03791 0.05604 0.3077 0.0
C66 C 0.05225 0.99988 0.28884 0.0
C67 C 0.07833 0.95338 0.31247 0.0
C68 C 0.07224 0.99092 0.34856 0.0
C69 C 0.04173 0.04843 0.34529 0.0
C70 C 0.15824 0.93487 0.30263 0.0
C71 C 0.02465 0.89627 0.30888 0.0
C72 C 0.88424 0.19049 0.42498 0.0
C73 C 0.83893 0.18082 0.45326 0.0
C74 C 0.83814 0.12256 0.46624 0.0
C75 C 0.88465 0.07522 0.45166 0.0
C76 C 0.93321 0.08707 0.4247 0.0
C77 C 0.92845 0.14265 0.41036 0.0
C78 C 0.96562 0.14119 0.37556 0.0
C79 C 0.99979 0.0778 0.37308 0.0
C80 C 0.98367 0.04681 0.40274 0.0
C81 C 0.02677 0.19307 0.37799 0.0
C82 C 0.90472 0.14692 0.34642 0.0
H83 H 0.21552 0.92474 0.3652 0.0
H84 H 0.10288 0.85697 0.47215 0.0
H85 H 0.89753 0.93363 0.43816 0.0
H86 H 0.9494 0.87248 0.45413 0.0
H87 H 0.94138 0.87852 0.40755 0.0
H88 H 0.08226 0.01241 0.47357 0.0
H89 H 0.0441 0.94671 0.49287 0.0
H90 H 0.98384 1.00421 0.48223 0.0
H91 H 0.04986 0.94603 0.23771 0.0
H92 H 0.99707 0.13895 0.24001 0.0
H93 H 0.01879 0.15326 0.30363 0.0
H94 H 0.16355 0.9259 0.27361 0.0
H95 H 0.17268 0.89087 0.31288 0.0
H96 H 0.19954 0.97222 0.31242 0.0
H97 H 0.96646 0.91009 0.31456 0.0
H98 H 0.04126 0.86328 0.32765 0.0
H99 H 0.02546 0.87158 0.28184 0.0
H100 H 0.28274 0.85408 0.39865 0.0
C101 C 0.18665 0.90404 0.3855 0.0
C102 C 0.12717 0.24462 0.54268 0.0
C103 C 0.19238 0.27782 0.55603 0.0
C104 C 0.21845 0.27152 0.59016 0.0
C105 C 0.1228 0.19263 0.59569 0.0
C106 C 0.09283 0.20188 0.56318 0.0
C107 C 0.02691 0.15754 0.55316 0.0
H108 H 0.88432 0.86562 0.57359 0.0
C109 C 0.08579 0.13743 0.60749 0.0
C110 C 0.03124 0.11371 0.58206 0.0
H111 H 0.79747 0.98669 0.50178 0.0
H112 H 0.88215 0.07078 0.52866 0.0
H113 H 0.06459 0.90759 0.57896 0.0
H114 H 0.86658 0.96131 0.63402 0.0
H115 H 0.93916 0.98164 0.66488 0.0
H116 H 0.92314 0.90142 0.64776 0.0
H117 H 1.01028 0.85964 0.6049 0.0
H118 H 0.08293 0.91147 0.62486 0.0
C119 C 0.03768 0.12517 0.51608 0.0
C120 C 0.95486 0.19473 0.55554 0.0
C121 C 0.16464 0.07264 0.72543 0.0
C122 C 0.1421 0.02298 0.74339 0.0
C123 C 0.10041 0.97303 0.72553 0.0
C124 C 0.07694 0.97458 0.69041 0.0
C125 C 0.09442 0.02716 0.67345 0.0
C126 C 0.13985 0.07392 0.69057 0.0
C127 C 0.15405 0.12548 0.66838 0.0
C128 C 0.10307 0.10519 0.6367 0.0
C129 C 0.0691 0.04743 0.63957 0.0
C130 C 0.23807 0.12488 0.65884 0.0
C131 C 0.12871 0.18675 0.6888 0.0
C132 C 0.88568 0.90933 0.56242 0.0
C133 C 0.83728 0.91862 0.53441 0.0
C134 C 0.83691 0.97765 0.52231 0.0
C135 C 0.88658 0.02586 0.53728 0.0
C136 C 0.93824 0.01451 0.56383 0.0
C137 C 0.93403 0.95773 0.57707 0.0
C138 C 0.97927 0.95754 0.61043 0.0
C139 C 0.01625 0.0215 0.61358 0.0
C140 C 0.99448 0.05499 0.58561 0.0
C141 C 0.03731 0.90619 0.60477 0.0
C142 C 0.92479 0.94975 0.64091 0.0
H143 H 0.20767 0.22655 0.63569 0.0
H144 H 0.10564 0.25027 0.51659 0.0
H145 H 0.90429 0.16428 0.55259 0.0
H146 H 0.95283 0.22659 0.53473 0.0
H147 H 0.95213 0.22291 0.58158 0.0
H148 H 0.08821 0.09672 0.51558 0.0
H149 H 0.04348 0.15882 0.49641 0.0
H150 H 0.98851 0.0963 0.50758 0.0
H151 H 0.19694 0.11142 0.73886 0.0
H152 H 0.08296 0.93424 0.73925 0.0
H153 H 0.04429 0.9357 0.67821 0.0
H154 H 0.2643 0.08046 0.66318 0.0
H155 H 0.27076 0.16229 0.67498 0.0
H156 H 0.2465 0.1293 0.63056 0.0
H157 H 0.07603 0.17897 0.7028 0.0
H158 H 0.11593 0.22274 0.6715 0.0
H159 H 0.17165 0.20576 0.70878 0.0
H160 H 0.26755 0.29768 0.60106 0.0
C161 C 0.18394 0.22948 0.61007 0.0
C162 C 0.62536 0.36871 0.94761 0.0
C163 C 0.69621 0.34819 0.93692 0.0
C164 C 0.72629 0.36635 0.9059 0.0
C165 C 0.61365 0.41974 0.89457 0.0
C166 C 0.58558 0.40647 0.92635 0.0
C167 C 0.5197 0.44693 0.93642 0.0
H168 H 0.38216 0.73354 0.91278 0.0
C169 C 0.56902 0.46721 0.88129 0.0
C170 C 0.51998 0.49028 0.9072 0.0
H171 H 0.30095 0.61405 0.98707 0.0
H172 H 0.37966 0.5307 0.96048 0.0
H173 H 0.56168 0.69253 0.90181 0.0
H174 H 0.34771 0.65465 0.85704 0.0
H175 H 0.39737 0.60349 0.82783 0.0
H176 H 0.41624 0.68613 0.83101 0.0
H177 H 0.5012 0.73898 0.87806 0.0
H178 H 0.56458 0.68685 0.85506 0.0
C179 C 0.53409 0.48058 0.97337 0.0
C180 C 0.44794 0.40598 0.93445 0.0
C181 C 0.5398 0.4898 0.75206 0.0
C182 C 0.51684 0.53966 0.73452 0.0
C183 C 0.5102 0.59848 0.75325 0.0
C184 C 0.52135 0.60673 0.78981 0.0
C185 C 0.53689 0.55529 0.80746 0.0
C186 C 0.55102 0.49902 0.78868 0.0
C187 C 0.57718 0.45265 0.81238 0.0
C188 C 0.57147 0.49044 0.84842 0.0
C189 C 0.541 0.54794 0.84507 0.0
C190 C 0.65695 0.4339 0.80243 0.0
C191 C 0.52334 0.39565 0.80902 0.0
C192 C 0.38428 0.69068 0.92477 0.0
C193 C 0.33923 0.68126 0.95317 0.0
C194 C 0.33856 0.62313 0.96631 0.0
C195 C 0.38494 0.57569 0.95175 0.0
C196 C 0.43326 0.5873 0.92466 0.0
C197 C 0.42837 0.64274 0.91018 0.0
C198 C 0.46525 0.64099 0.87529 0.0
C199 C 0.49934 0.57757 0.8729 0.0
C200 C 0.48348 0.54684 0.90268 0.0
C201 C 0.52645 0.6928 0.8775 0.0
C202 C 0.40414 0.64656 0.84623 0.0
H203 H 0.71486 0.42428 0.86492 0.0
H204 H 0.60342 0.35774 0.97244 0.0
H205 H 0.39773 0.43407 0.93867 0.0
H206 H 0.44981 0.37318 0.95478 0.0
H207 H 0.44129 0.37863 0.90815 0.0
H208 H 0.5827 0.5133 0.97337 0.0
H209 H 0.54508 0.44778 -0.00697 0.0
H210 H 0.48445 0.505 0.98236 0.0
H211 H 0.54832 0.44489 0.73763 0.0
H212 H 0.49594 0.63785 0.73963 0.0
H213 H 0.51791 0.65248 0.80323 0.0
H214 H 0.66198 0.42465 0.7734 0.0
H215 H 0.67137 0.38998 0.81278 0.0
H216 H 0.69841 0.47123 0.81204 0.0
H217 H 0.46524 0.40963 0.81478 0.0
H218 H 0.54002 0.36277 0.82784 0.0
H219 H 0.52387 0.37078 0.78202 0.0
H220 H 0.78242 0.35394 0.89846 0.0
C221 C 0.68622 0.40383 0.88537 0.0
C222 C 0.62745 0.74526 0.0429 0.0
C223 C 0.69262 0.77848 0.05629 0.0
C224 C 0.71858 0.7722 0.09044 0.0
C225 C 0.62296 0.69326 0.0959 0.0
C226 C 0.59308 0.7025 0.06337 0.0
C227 C 0.52716 0.65817 0.05333 0.0
H228 H 0.38484 0.36609 0.07353 0.0
C229 C 0.58597 0.63803 0.10767 0.0
C230 C 0.53147 0.61431 0.08222 0.0
H231 H 0.29771 0.48736 0.00191 0.0
H232 H 0.38238 0.57143 0.02883 0.0
H233 H 0.56511 0.40823 0.07892 0.0
H234 H 0.36702 0.46155 0.13403 0.0
H235 H 0.43958 0.48187 0.16491 0.0
H236 H 0.42369 0.40168 0.14771 0.0
H237 H 0.51087 0.36012 0.10481 0.0
H238 H 0.58345 0.41198 0.12481 0.0
C239 C 0.53792 0.62582 0.01624 0.0
C240 C 0.45512 0.69536 0.05572 0.0
C241 C 0.66487 0.57299 0.22555 0.0
C242 C 0.64242 0.52323 0.24345 0.0
C243 C 0.60084 0.47327 0.22554 0.0
C244 C 0.57737 0.4749 0.19042 0.0
C245 C 0.59475 0.52757 0.17353 0.0
C246 C 0.64008 0.57435 0.1907 0.0
C247 C 0.65421 0.62599 0.16855 0.0
C248 C 0.60327 0.60572 0.13685 0.0
C249 C 0.5694 0.54791 0.13967 0.0
C250 C 0.73823 0.62553 0.15904 0.0
C251 C 0.62873 0.68718 0.18902 0.0
C252 C 0.38614 0.40984 0.06241 0.0
C253 C 0.33767 0.4192 0.03443 0.0
C254 C 0.33721 0.47827 0.0224 0.0
C255 C 0.38687 0.52647 0.03739 0.0
C256 C 0.43859 0.51506 0.06391 0.0
C257 C 0.43446 0.45823 0.07708 0.0
C258 C 0.47971 0.45799 0.11044 0.0
C259 C 0.5166 0.52199 0.11365 0.0
C260 C 0.49479 0.55554 0.08572 0.0
C261 C 0.53783 0.40671 0.10473 0.0
C262 C 0.42526 0.45004 0.14091 0.0
H263 H 0.70767 0.72724 0.13597 0.0
H264 H 0.60599 0.75091 0.0168 0.0
H265 H 0.40454 0.66492 0.05275 0.0
H266 H 0.4531 0.72724 0.03491 0.0
H267 H 0.45238 0.72352 0.08177 0.0
H268 H 0.58832 0.59721 0.01576 0.0
H269 H 0.54393 0.65949 -0.00341 0.0
H270 H 0.48865 0.5971 0.00769 0.0
H271 H 0.69709 0.61177 0.23902 0.0
H272 H 0.58346 0.4344 0.23921 0.0
H273 H 0.5448 0.436 0.17818 0.0
H274 H 0.76457 0.58116 0.16338 0.0
H275 H 0.77083 0.66299 0.1752 0.0
H276 H 0.74668 0.63 0.13076 0.0
H277 H 0.57603 0.67929 0.20299 0.0
H278 H 0.61592 0.72321 0.17175 0.0
H279 H 0.67161 0.70619 0.20903 0.0
H280 H 0.76764 0.79838 0.10137 0.0
C281 C 0.68402 0.73015 0.11033 0.0
C282 C 0.2145 0.26069 0.00609 0.0
C283 C 0.19315 0.20725 0.00704 0.0
C284 C 0.25072 0.32069 0.01141 0.0
C285 C 0.28744 0.36824 0.01983 0.0
C286 C 0.2202 0.83468 0.98061 0.0
C287 C 0.1944 0.88564 0.98665 0.0
C288 C 0.25614 0.77711 0.97397 0.0
C289 C 0.29139 0.73085 0.96655 0.0
C290 C 0.83459 0.88705 0.00667 0.0
C291 C 0.8726 0.92105 -0.00912 0.0
C292 C 0.78154 0.84883 0.02181 0.0
C293 C 0.73745 0.81609 0.03531 0.0
C294 C 0.8464 0.24058 0.97765 0.0
C295 C 0.89021 0.19936 0.97789 0.0
C296 C 0.78889 0.28091 0.9701 0.0
C297 C 0.74165 0.31135 0.95774 0.0
C298 C 0.71408 0.76009 0.50616 0.0
C299 C 0.69269 0.70667 0.50713 0.0
C300 C 0.75031 0.82009 0.51144 0.0
C301 C 0.78705 0.86764 0.51983 0.0
C302 C 0.71979 0.33414 0.48069 0.0
C303 C 0.69399 0.38511 0.48671 0.0
C304 C 0.7557 0.27656 0.47406 0.0
C305 C 0.79097 0.23031 0.46664 0.0
C306 C 0.33424 0.38641 0.50637 0.0
C307 C 0.37226 0.42043 0.4906 0.0
C308 C 0.28121 0.34819 0.52151 0.0
C309 C 0.23715 0.31544 0.53503 0.0
C310 C 0.34593 0.73995 0.47757 0.0
C311 C 0.38973 0.69872 0.47779 0.0
C312 C 0.28847 0.78031 0.47002 0.0
C313 C 0.24132 0.81085 0.45766 0.0
C314 C 0.98916 0.0288 0.12947 0.0
C315 C 1.00445 0.03286 0.09934 0.0
C316 C 0.99124 0.02876 0.16624 0.0
C317 C 1.00389 0.03282 0.19744 0.0
C318 C 0.14436 0.03577 0.84898 0.0
C319 C 0.11643 0.03918 0.87745 0.0
C320 C 0.15702 0.03053 0.81257 0.0
C321 C 0.15091 0.02809 0.78104 0.0
C322 C 0.48792 0.52768 0.62926 0.0
C323 C 0.50338 0.53191 0.59917 0.0
C324 C 0.48988 0.52751 0.66602 0.0
C325 C 0.50255 0.53155 0.69722 0.0
C326 C 0.64453 0.53566 0.34902 0.0
C327 C 0.6165 0.53897 0.37747 0.0
C328 C 0.65728 0.53056 0.31262 0.0
C329 C 0.6512 0.52823 0.28109 0.0
loop_
_geom_bond_atom_site_label_1
_geom_bond_atom_site_label_2
_geom_bond_distance
_geom_bond_site_symmetry_2
_ccdc_geom_bond_type
O0 Mn1 2.163 1_654 S
O0 C14 1.244 1_554 S
Mn1 O0 2.163 1_456 S
Mn1 O4 2.161 1_545 S
Mn1 O5 2.219 1_556 S
Mn1 O7 2.135 1_556 S
Mn1 O9 2.188 . S
Mn1 O19 2.225 1_445 S
O2 Mn3 2.087 . S
O2 C14 1.256 . S
Mn3 O2 2.087 . S
Mn3 O10 2.089 . S
Mn3 O19 2.290 1_545 S
Mn3 O20 2.251 1_545 S
O4 Mn1 2.161 1_565 S
O4 C15 1.239 1_556 S
O5 Mn1 2.219 1_554 S
O5 Mn6 2.290 . S
O5 C16 1.278 . S
Mn6 O5 2.290 . S
Mn6 O8 2.089 1_545 S
Mn6 O11 2.251 . S
Mn6 O12 2.087 . S
O7 Mn1 2.135 1_554 S
O7 C17 1.244 . S
O8 Mn6 2.089 1_565 S
O8 C15 1.256 . S
O9 Mn1 2.188 . S
O9 C18 1.239 . S
O10 Mn3 2.089 . S
O10 C18 1.256 1_655 S
O11 Mn6 2.251 . S
O11 C16 1.241 . S
O12 Mn6 2.087 . S
O12 C17 1.256 . S
C13 O19 1.278 1_554 S
C13 O20 1.241 1_554 S
C14 O0 1.244 1_556 S
C14 O2 1.256 . S
C15 O4 1.239 1_554 S
C15 O8 1.256 . S
C16 O5 1.278 . S
C16 O11 1.241 . S
C17 O7 1.244 . S
C17 O12 1.256 . S
C18 O9 1.239 . S
C18 O10 1.256 1_455 S
O19 Mn1 2.225 1_665 S
O19 Mn3 2.290 1_565 S
O19 C13 1.278 1_556 S
O20 Mn3 2.251 1_565 S
O20 C13 1.241 1_556 S
O21 Mn22 2.163 . S
O21 C35 1.244 . S
Mn22 O21 2.163 . S
Mn22 O25 2.160 . S
Mn22 O26 2.221 . S
Mn22 O28 2.163 . S
Mn22 O30 2.160 . S
Mn22 O40 2.221 . S
O23 Mn24 2.087 . S
O23 C35 1.256 . S
Mn24 O23 2.087 . S
Mn24 O31 2.089 . S
Mn24 O40 2.290 . S
Mn24 O41 2.251 . S
O25 Mn22 2.160 . S
O25 C36 1.239 . S
O26 Mn22 2.221 . S
O26 Mn27 2.290 . S
O26 C37 1.278 . S
Mn27 O26 2.290 . S
Mn27 O29 2.089 . S
Mn27 O32 2.251 . S
Mn27 O33 2.087 . S
O28 Mn22 2.163 . S
O28 C38 1.244 . S
O29 Mn27 2.089 . S
O29 C36 1.256 . S
O30 Mn22 2.160 . S
O30 C39 1.239 . S
O31 Mn24 2.089 . S
O31 C39 1.256 . S
O32 Mn27 2.251 . S
O32 C37 1.241 . S
O33 Mn27 2.087 . S
O33 C38 1.256 . S
C34 O40 1.278 . S
C34 O41 1.241 . S
C35 O21 1.244 . S
C35 O23 1.256 . S
C36 O25 1.239 . S
C36 O29 1.256 . S
C37 O26 1.278 . S
C37 O32 1.241 . S
C38 O28 1.244 . S
C38 O33 1.256 . S
C39 O30 1.239 . S
C39 O31 1.256 . S
O40 Mn22 2.221 . S
O40 Mn24 2.290 . S
O40 C34 1.278 . S
O41 Mn24 2.251 . S
O41 C34 1.241 . S
C42 C43 1.391 . S
C42 C46 1.391 . S
C42 H84 0.948 . S
C43 C42 1.391 . S
C43 C44 1.391 . S
C44 C43 1.391 . S
C44 H100 0.947 . S
C44 C101 1.392 . S
C45 C46 1.391 . S
C45 C49 1.397 . S
C45 C101 1.419 . S
C46 C42 1.391 . S
C46 C45 1.391 . S
C46 C47 1.399 . S
C47 C46 1.399 . S
C47 C50 1.396 . S
C47 C59 1.453 1_565 S
C47 C60 1.684 . S
H48 C72 0.948 . S
C49 C45 1.397 . S
C49 C50 1.394 . S
C49 C68 1.723 . S
C50 C47 1.396 . S
C50 C49 1.394 . S
C50 C80 1.723 1_565 S
H51 C74 0.947 . S
H52 C75 0.948 . S
H53 C81 0.982 1_455 S
H54 C82 0.979 . S
H55 C82 0.980 . S
H56 C82 0.983 . S
H57 C81 0.979 . S
H58 C81 0.977 . S
C59 C47 1.453 1_545 S
C59 H88 0.982 . S
C59 H89 0.979 1_545 S
C59 H90 0.977 . S
C60 C47 1.684 . S
C60 H85 0.979 1_455 S
C60 H86 0.980 1_455 S
C60 H87 0.983 . S
C61 C62 1.391 . S
C61 C66 1.391 . S
C61 H91 0.948 . S
C62 C61 1.391 . S
C62 C63 1.391 1_465 S
C63 C62 1.391 1_645 S
C63 C64 1.392 . S
C63 H92 0.947 . S
C64 C63 1.392 . S
C64 C65 1.419 1_655 S
C64 H93 0.948 . S
C65 C64 1.419 1_455 S
C65 C66 1.391 1_545 S
C65 C69 1.397 . S
C66 C61 1.391 . S
C66 C65 1.391 1_565 S
C66 C67 1.399 . S
C67 C66 1.399 . S
C67 C68 1.396 . S
C67 C70 1.453 . S
C67 C71 1.684 . S
C68 C49 1.723 . S
C68 C67 1.396 . S
C68 C69 1.394 1_565 S
C69 C65 1.397 . S
C69 C68 1.394 1_545 S
C69 C79 1.723 1_455 S
C70 C67 1.453 . S
C70 H94 0.982 . S
C70 H95 0.979 . S
C70 H96 0.977 . S
C71 C67 1.684 . S
C71 H97 0.979 . S
C71 H98 0.980 . S
C71 H99 0.983 . S
C72 H48 0.948 . S
C72 C73 1.391 . S
C72 C77 1.391 . S
C73 C72 1.391 . S
C73 C74 1.391 . S
C74 H51 0.947 . S
C74 C73 1.391 . S
C74 C75 1.392 . S
C75 H52 0.948 . S
C75 C74 1.392 . S
C75 C76 1.419 . S
C76 C75 1.419 . S
C76 C77 1.391 . S
C76 C80 1.397 1_655 S
C77 C72 1.391 . S
C77 C76 1.391 . S
C77 C78 1.399 . S
C78 C77 1.399 . S
C78 C79 1.396 . S
C78 C81 1.453 . S
C78 C82 1.684 . S
C79 C69 1.723 1_655 S
C79 C78 1.396 . S
C79 C80 1.394 1_655 S
C80 C50 1.723 1_545 S
C80 C76 1.397 1_455 S
C80 C79 1.394 1_455 S
C81 H53 0.982 1_655 S
C81 H57 0.979 . S
C81 H58 0.977 . S
C81 C78 1.453 . S
C82 H54 0.979 . S
C82 H55 0.980 . S
C82 H56 0.983 . S
C82 C78 1.684 . S
H83 C101 0.948 . S
H84 C42 0.948 . S
H85 C60 0.979 1_655 S
H86 C60 0.980 1_655 S
H87 C60 0.983 . S
H88 C59 0.982 . S
H89 C59 0.979 1_565 S
H90 C59 0.977 . S
H91 C61 0.948 . S
H92 C63 0.947 . S
H93 C64 0.948 . S
H94 C70 0.982 . S
H95 C70 0.979 . S
H96 C70 0.977 . S
H97 C71 0.979 . S
H98 C71 0.980 . S
H99 C71 0.983 . S
H100 C44 0.947 . S
C101 C44 1.392 . S
C101 C45 1.419 . S
C101 H83 0.948 . S
C102 C103 1.391 . S
C102 C106 1.391 . S
C102 H144 0.948 . S
C103 C102 1.391 . S
C103 C104 1.391 . S
C104 C103 1.391 . S
C104 H160 0.947 . S
C104 C161 1.392 . S
C105 C106 1.391 . S
C105 C109 1.397 . S
C105 C161 1.419 . S
C106 C102 1.391 . S
C106 C105 1.391 . S
C106 C107 1.399 . S
C107 C106 1.399 . S
C107 C110 1.396 . S
C107 C119 1.453 . S
C107 C120 1.684 1_455 S
H108 C132 0.948 . S
C109 C105 1.397 . S
C109 C110 1.394 . S
C109 C128 1.723 . S
C110 C107 1.396 . S
C110 C109 1.394 . S
C110 C140 1.723 1_455 S
H111 C134 0.947 . S
H112 C135 0.945 1_545 S
H113 C141 0.982 . S
H114 C142 0.979 1_545 S
H115 C142 0.980 . S
H116 C142 0.983 . S
H117 C141 0.979 . S
H118 C141 0.977 . S
C119 C107 1.453 . S
C119 H148 0.982 . S
C119 H149 0.979 . S
C119 H150 0.977 . S
C120 C107 1.684 1_655 S
C120 H145 0.979 . S
C120 H146 0.980 . S
C120 H147 0.983 . S
C121 C122 1.391 1_455 S
C121 C126 1.391 . S
C121 H151 0.948 . S
C122 C121 1.391 1_655 S
C122 C123 1.391 . S
C123 C122 1.391 . S
C123 C124 1.392 . S
C123 H152 0.947 . S
C124 C123 1.392 . S
C124 C125 1.419 . S
C124 H153 0.948 . S
C125 C124 1.419 . S
C125 C126 1.391 1_655 S
C125 C129 1.397 . S
C126 C121 1.391 . S
C126 C125 1.391 1_455 S
C126 C127 1.399 . S
C127 C126 1.399 . S
C127 C128 1.396 . S
C127 C130 1.453 . S
C127 C131 1.684 . S
C128 C109 1.723 . S
C128 C127 1.396 . S
C128 C129 1.394 1_455 S
C129 C125 1.397 . S
C129 C128 1.394 1_655 S
C129 C139 1.723 . S
C130 C127 1.453 . S
C130 H154 0.982 . S
C130 H155 0.979 . S
C130 H156 0.977 . S
C131 C127 1.684 . S
C131 H157 0.979 . S
C131 H158 0.980 . S
C131 H159 0.983 . S
C132 H108 0.948 . S
C132 C133 1.391 . S
C132 C137 1.391 . S
C133 C132 1.391 . S
C133 C134 1.391 . S
C134 H111 0.947 . S
C134 C133 1.391 . S
C134 C135 1.395 . S
C135 H112 0.945 1_565 S
C135 C134 1.395 . S
C135 C136 1.419 1_565 S
C136 C135 1.419 1_545 S
C136 C137 1.391 1_545 S
C136 C140 1.397 . S
C137 C132 1.391 . S
C137 C136 1.391 1_565 S
C137 C138 1.399 . S
C138 C137 1.399 . S
C138 C139 1.396 1_565 S
C138 C141 1.453 . S
C138 C142 1.684 . S
C139 C129 1.723 . S
C139 C138 1.396 1_545 S
C139 C140 1.394 . S
C140 C110 1.723 1_655 S
C140 C136 1.397 . S
C140 C139 1.394 . S
C141 H113 0.982 . S
C141 H117 0.979 . S
C141 H118 0.977 . S
C141 C138 1.453 . S
C142 H114 0.979 1_565 S
C142 H115 0.980 . S
C142 H116 0.983 . S
C142 C138 1.684 . S
H143 C161 0.948 . S
H144 C102 0.948 . S
H145 C120 0.979 . S
H146 C120 0.980 . S
H147 C120 0.983 . S
H148 C119 0.982 . S
H149 C119 0.979 . S
H150 C119 0.977 . S
H151 C121 0.948 . S
H152 C123 0.947 . S
H153 C124 0.948 . S
H154 C130 0.982 . S
H155 C130 0.979 . S
H156 C130 0.977 . S
H157 C131 0.979 . S
H158 C131 0.980 . S
H159 C131 0.983 . S
H160 C104 0.947 . S
C161 C104 1.392 . S
C161 C105 1.419 . S
C161 H143 0.948 . S
C162 C163 1.391 . S
C162 C166 1.391 . S
C162 H204 0.948 1_556 S
C163 C162 1.391 . S
C163 C164 1.391 . S
C164 C163 1.391 . S
C164 H220 0.947 . S
C164 C221 1.392 . S
C165 C166 1.391 . S
C165 C169 1.397 . S
C165 C221 1.419 . S
C166 C162 1.391 . S
C166 C165 1.391 . S
C166 C167 1.399 . S
C167 C166 1.399 . S
C167 C170 1.396 . S
C167 C179 1.453 1_556 S
C167 C180 1.684 1_556 S
H168 C192 0.948 . S
C169 C165 1.397 . S
C169 C170 1.394 . S
C169 C188 1.723 . S
C170 C167 1.396 . S
C170 C169 1.394 . S
C170 C200 1.723 . S
H171 C194 0.947 . S
H172 C195 0.942 1_554 S
H173 C201 0.982 . S
H174 C202 0.979 . S
H175 C202 0.980 . S
H176 C202 0.983 . S
H177 C201 0.979 . S
H178 C201 0.977 . S
C179 C167 1.453 1_554 S
C179 H208 0.975 1_554 S
C179 H209 0.979 . S
C179 H210 0.977 . S
C180 C167 1.684 1_554 S
C180 H205 0.979 . S
C180 H206 0.980 . S
C180 H207 0.983 . S
C181 C182 1.391 . S
C181 C186 1.391 . S
C181 H211 0.948 . S
C182 C181 1.391 . S
C182 C183 1.391 . S
C183 C182 1.391 . S
C183 C184 1.392 . S
C183 H212 0.947 . S
C184 C183 1.392 . S
C184 C185 1.419 . S
C184 H213 0.948 . S
C185 C184 1.419 . S
C185 C186 1.391 . S
C185 C189 1.397 . S
C186 C181 1.391 . S
C186 C185 1.391 . S
C186 C187 1.399 . S
C187 C186 1.399 . S
C187 C188 1.396 . S
C187 C190 1.453 . S
C187 C191 1.684 . S
C188 C169 1.723 . S
C188 C187 1.396 . S
C188 C189 1.394 . S
C189 C185 1.397 . S
C189 C188 1.394 . S
C189 C199 1.723 . S
C190 C187 1.453 . S
C190 H214 0.982 . S
C190 H215 0.979 . S
C190 H216 0.977 . S
C191 C187 1.684 . S
C191 H217 0.979 . S
C191 H218 0.980 . S
C191 H219 0.983 . S
C192 H168 0.948 . S
C192 C193 1.391 . S
C192 C197 1.391 . S
C193 C192 1.391 . S
C193 C194 1.391 1_556 S
C194 H171 0.947 . S
C194 C193 1.391 1_554 S
C194 C195 1.388 1_554 S
C195 H172 0.942 1_556 S
C195 C194 1.388 1_556 S
C195 C196 1.428 . S
C196 C195 1.428 . S
C196 C197 1.391 . S
C196 C200 1.397 . S
C197 C192 1.391 . S
C197 C196 1.391 . S
C197 C198 1.399 . S
C198 C197 1.399 . S
C198 C199 1.396 . S
C198 C201 1.453 . S
C198 C202 1.684 . S
C199 C189 1.723 . S
C199 C198 1.396 . S
C199 C200 1.394 . S
C200 C170 1.723 . S
C200 C196 1.397 . S
C200 C199 1.394 . S
C201 H173 0.982 . S
C201 H177 0.979 . S
C201 H178 0.977 . S
C201 C198 1.453 . S
C202 H174 0.979 . S
C202 H175 0.980 . S
C202 H176 0.983 . S
C202 C198 1.684 . S
H203 C221 0.948 . S
H204 C162 0.948 1_554 S
H205 C180 0.979 . S
H206 C180 0.980 . S
H207 C180 0.983 . S
H208 C179 0.975 1_556 S
H209 C179 0.979 . S
H210 C179 0.977 . S
H211 C181 0.948 . S
H212 C183 0.947 . S
H213 C184 0.948 . S
H214 C190 0.982 . S
H215 C190 0.979 . S
H216 C190 0.977 . S
H217 C191 0.979 . S
H218 C191 0.980 . S
H219 C191 0.983 . S
H220 C164 0.947 . S
C221 C164 1.392 . S
C221 C165 1.419 . S
C221 H203 0.948 . S
C222 C223 1.391 . S
C222 C226 1.391 . S
C222 H264 0.948 1_554 S
C223 C222 1.391 . S
C223 C224 1.391 . S
C224 C223 1.391 . S
C224 H280 0.947 . S
C224 C281 1.392 . S
C225 C226 1.391 . S
C225 C229 1.397 . S
C225 C281 1.419 . S
C226 C222 1.391 . S
C226 C225 1.391 . S
C226 C227 1.399 . S
C227 C226 1.399 . S
C227 C230 1.396 . S
C227 C239 1.453 . S
C227 C240 1.684 1_554 S
H228 C252 0.948 . S
C229 C225 1.397 . S
C229 C230 1.394 . S
C229 C248 1.723 . S
C230 C227 1.396 . S
C230 C229 1.394 . S
C230 C260 1.723 . S
H231 C254 0.947 . S
H232 C255 0.948 1_556 S
H233 C261 0.982 . S
H234 C262 0.979 . S
H235 C262 0.980 . S
H236 C262 0.983 . S
H237 C261 0.979 . S
H238 C261 0.977 . S
C239 C227 1.453 . S
C239 H268 0.982 . S
C239 H269 0.979 1_554 S
C239 H270 0.977 1_554 S
C240 C227 1.684 1_556 S
C240 H265 0.979 1_556 S
C240 H266 0.980 . S
C240 H267 0.983 . S
C241 C242 1.391 . S
C241 C246 1.391 . S
C241 H271 0.948 . S
C242 C241 1.391 . S
C242 C243 1.391 . S
C243 C242 1.391 . S
C243 C244 1.392 . S
C243 H272 0.947 . S
C244 C243 1.392 . S
C244 C245 1.419 . S
C244 H273 0.948 . S
C245 C244 1.419 . S
C245 C246 1.391 . S
C245 C249 1.397 . S
C246 C241 1.391 . S
C246 C245 1.391 . S
C246 C247 1.399 . S
C247 C246 1.399 . S
C247 C248 1.396 . S
C247 C250 1.453 . S
C247 C251 1.684 . S
C248 C229 1.723 . S
C248 C247 1.396 . S
C248 C249 1.394 . S
C249 C245 1.397 . S
C249 C248 1.394 . S
C249 C259 1.723 . S
C250 C247 1.453 . S
C250 H274 0.982 . S
C250 H275 0.979 . S
C250 H276 0.977 . S
C251 C247 1.684 . S
C251 H277 0.979 . S
C251 H278 0.980 . S
C251 H279 0.983 . S
C252 H228 0.948 . S
C252 C253 1.391 . S
C252 C257 1.391 . S
C253 C252 1.391 . S
C253 C254 1.391 1_554 S
C254 H231 0.947 . S
C254 C253 1.391 1_556 S
C254 C255 1.392 1_556 S
C255 H232 0.948 1_554 S
C255 C254 1.392 1_554 S
C255 C256 1.419 . S
C256 C255 1.419 . S
C256 C257 1.391 . S
C256 C260 1.397 . S
C257 C252 1.391 . S
C257 C256 1.391 . S
C257 C258 1.399 . S
C258 C257 1.399 . S
C258 C259 1.396 . S
C258 C261 1.453 . S
C258 C262 1.684 . S
C259 C249 1.723 . S
C259 C258 1.396 . S
C259 C260 1.394 . S
C260 C230 1.723 . S
C260 C256 1.397 . S
C260 C259 1.394 . S
C261 H233 0.982 . S
C261 H237 0.979 . S
C261 H238 0.977 . S
C261 C258 1.453 . S
C262 H234 0.979 . S
C262 H235 0.980 . S
C262 H236 0.983 . S
C262 C258 1.684 . S
H263 C281 0.948 . S
H264 C222 0.948 1_556 S
H265 C240 0.979 1_554 S
H266 C240 0.980 . S
H267 C240 0.983 . S
H268 C239 0.982 . S
H269 C239 0.979 1_556 S
H270 C239 0.977 1_556 S
H271 C241 0.948 . S
H272 C243 0.947 . S
H273 C244 0.948 . S
H274 C250 0.982 . S
H275 C250 0.979 . S
H276 C250 0.977 . S
H277 C251 0.979 . S
H278 C251 0.980 . S
H279 C251 0.983 . S
H280 C224 0.947 . S
C281 C224 1.392 . S
C281 C225 1.419 . S
C281 H263 0.948 . S
C282 C283 1.170 . S
C282 C284 1.380 . S
C283 C282 1.170 . S
C284 C282 1.380 . S
C284 C285 1.170 . S
C285 C284 1.170 . S
C286 C287 1.170 1_556 S
C286 C288 1.382 . S
C287 C286 1.170 1_554 S
C288 C286 1.382 . S
C288 C289 1.166 1_556 S
C289 C288 1.166 1_554 S
C290 C291 1.170 . S
C290 C292 1.380 . S
C291 C290 1.170 . S
C292 C290 1.380 . S
C292 C293 1.170 . S
C293 C292 1.170 . S
C294 C295 1.174 . S
C294 C296 1.380 . S
C295 C294 1.174 . S
C296 C294 1.380 . S
C296 C297 1.170 . S
C297 C296 1.170 . S
C298 C299 1.170 . S
C298 C300 1.380 . S
C299 C298 1.170 . S
C300 C298 1.380 . S
C300 C301 1.170 . S
C301 C300 1.170 . S
C302 C303 1.170 . S
C302 C304 1.380 . S
C303 C302 1.170 . S
C304 C302 1.380 . S
C304 C305 1.170 . S
C305 C304 1.170 . S
C306 C307 1.170 . S
C306 C308 1.380 . S
C307 C306 1.170 . S
C308 C306 1.380 . S
C308 C309 1.170 . S
C309 C308 1.170 . S
C310 C311 1.170 . S
C310 C312 1.380 . S
C311 C310 1.170 . S
C312 C310 1.380 . S
C312 C313 1.170 . S
C313 C312 1.170 . S
C314 C315 1.170 . S
C314 C316 1.380 . S
C315 C314 1.170 . S
C316 C314 1.380 . S
C316 C317 1.170 1_545 S
C317 C316 1.170 1_565 S
C318 C319 1.170 . S
C318 C320 1.380 . S
C319 C318 1.170 . S
C320 C318 1.380 . S
C320 C321 1.170 . S
C321 C320 1.170 . S
C322 C323 1.170 . S
C322 C324 1.380 . S
C323 C322 1.170 . S
C324 C322 1.380 . S
C324 C325 1.170 . S
C325 C324 1.170 . S
C326 C327 1.170 . S
C326 C328 1.380 . S
C327 C326 1.170 . S
C328 C326 1.380 . S
C328 C329 1.170 . S
C329 C328 1.170 . S
C285 C253 1.592 . S
C283 C16 1.469 . S
C287 C15 1.606 . S
C289 C193 1.605 1_554 S
C291 C13 1.284 . S
C293 C223 1.434 . S
C295 C14 1.381 . S
C297 C163 1.360 . S
C299 C37 1.482 . S
C301 C133 1.598 . S
C303 C36 1.584 . S
C305 C73 1.612 . S
C309 C103 1.450 . S
C307 C34 1.345 . S
C313 C43 1.339 . S
C311 C35 1.374 . S
C315 C17 1.501 . S
C317 C62 1.536 . S
C319 C18 1.407 . S
C321 C122 1.425 1_455 S
C325 C182 1.510 . S
C323 C38 1.534 . S
C327 C39 1.401 . S
C329 C242 1.421 . S
