# Generated by pormake.
# Topology anh, (6,3)-cn, num edge types: 1
# Building blocks:
#     Node 0, Type 0, BuildingBlock: CUKXOW_clean_sbu_0, # of connection points: 6
#     Node 1, Type 0, BuildingBlock: CUKXOW_clean_sbu_0, # of connection points: 6
#     Node 2, Type 0, BuildingBlock: CUKXOW_clean_sbu_0, # of connection points: 6
#     Node 3, Type 1, BuildingBlock: MIDCAF_clean_linker_0, # of connection points: 3
#     Node 4, Type 1, BuildingBlock: MIDCAF_clean_linker_0, # of connection points: 3
#     Node 5, Type 1, BuildingBlock: MIDCAF_clean_linker_0, # of connection points: 3
#     Node 6, Type 1, BuildingBlock: MIDCAF_clean_linker_0, # of connection points: 3
#     Node 7, Type 1, BuildingBlock: MIDCAF_clean_linker_0, # of connection points: 3
#     Node 8, Type 1, BuildingBlock: MIDCAF_clean_linker_0, # of connection points: 3
#     Edge 9, Type (0, 1), BuildingBlock: MIFKUJ_clean_linker_0, # of connection points: 2
#     Edge 10, Type (0, 1), BuildingBlock: MIFKUJ_clean_linker_0, # of connection points: 2
#     Edge 11, Type (0, 1), BuildingBlock: MIFKUJ_clean_linker_0, # of connection points: 2
#     Edge 12, Type (0, 1), BuildingBlock: MIFKUJ_clean_linker_0, # of connection points: 2
#     Edge 13, Type (0, 1), BuildingBlock: MIFKUJ_clean_linker_0, # of connection points: 2
#     Edge 14, Type (0, 1), BuildingBlock: MIFKUJ_clean_linker_0, # of connection points: 2
#     Edge 15, Type (0, 1), BuildingBlock: MIFKUJ_clean_linker_0, # of connection points: 2
#     Edge 16, Type (0, 1), BuildingBlock: MIFKUJ_clean_linker_0, # of connection points: 2
#     Edge 17, Type (0, 1), BuildingBlock: MIFKUJ_clean_linker_0, # of connection points: 2
#     Edge 18, Type (0, 1), BuildingBlock: MIFKUJ_clean_linker_0, # of connection points: 2
#     Edge 19, Type (0, 1), BuildingBlock: MIFKUJ_clean_linker_0, # of connection points: 2
#     Edge 20, Type (0, 1), BuildingBlock: MIFKUJ_clean_linker_0, # of connection points: 2
#     Edge 21, Type (0, 1), BuildingBlock: MIFKUJ_clean_linker_0, # of connection points: 2
#     Edge 22, Type (0, 1), BuildingBlock: MIFKUJ_clean_linker_0, # of connection points: 2
#     Edge 23, Type (0, 1), BuildingBlock: MIFKUJ_clean_linker_0, # of connection points: 2
#     Edge 24, Type (0, 1), BuildingBlock: MIFKUJ_clean_linker_0, # of connection points: 2
#     Edge 25, Type (0, 1), BuildingBlock: MIFKUJ_clean_linker_0, # of connection points: 2
#     Edge 26, Type (0, 1), BuildingBlock: MIFKUJ_clean_linker_0, # of connection points: 2
# Relax obj value: 0.133
# Max RMSD: 0.194
# Mean RMSD: 0.138
data_MOF--net-anh--node1-CUKXOW_clean_sbu_0--node2-MIDCAF_clean_linker_0--edge1-MIFKUJ_clean_linker_0
_symmetry_space_group_name_H-M    P1
_symmetry_Int_Tables_number       1
_symmetry_cell_setting            triclinic
loop_
_symmetry_equiv_pos_as_xyz
'x, y, z'
_cell_length_a     44.075281
_cell_length_b     42.979648
_cell_length_c     80.708176
_cell_angle_alpha  95.664473
_cell_angle_beta   90.148346
_cell_angle_gamma 116.7838
loop_
_atom_site_label
_atom_site_type_symbol
_atom_site_fract_x
_atom_site_fract_y
_atom_site_fract_z
_atom_type_partial_charge
Tb0 Tb 0.06026 0.52659 0.15479 0.0
C1 C 0.03136 0.48868 0.18571 0.0
Tb2 Tb 0.01205 0.45043 0.149 0.0
O3 O 0.02042 0.54031 0.16369 0.0
O4 O 0.00797 0.49703 0.14613 0.0
O5 O 0.05892 0.51356 0.18012 0.0
C6 C 0.9578 0.38766 0.14845 0.0
O7 O 1.00712 0.46411 0.17538 0.0
C8 C 0.07698 0.46484 0.14795 0.0
C9 C 0.0387 0.48941 0.1175 0.0
O10 O 0.98677 0.39711 0.15639 0.0
O11 O 0.95962 0.41334 0.14067 0.0
O12 O 0.05238 0.43832 0.13931 0.0
O13 O 0.06419 0.47998 0.15779 0.0
O14 O 0.01568 0.46046 0.12308 0.0
O15 O 0.05928 0.51748 0.12763 0.0
C16 C 0.11682 0.58749 0.15567 0.0
O17 O 0.11436 0.55691 0.15048 0.0
O18 O 0.08741 0.58386 0.1604 0.0
C19 C 0.9955 0.51322 0.15554 0.0
Tb20 Tb 0.50037 0.0087 0.50945 0.0
C21 C 0.53802 0.03363 0.47677 0.0
Tb22 Tb 0.57731 0.06664 0.51235 0.0
O23 O 0.48496 0.04745 0.50177 0.0
O24 O 0.52874 0.0633 0.51687 0.0
O25 O 0.51241 0.00815 0.48338 0.0
C26 C 0.62793 0.1306 0.51138 0.0
O27 O 0.56353 0.06001 0.4858 0.0
C28 C 0.57201 0.00243 0.50839 0.0
C29 C 0.54158 0.03575 0.54462 0.0
O30 O 0.60081 0.11592 0.5015 0.0
O31 O 0.62682 0.10917 0.52198 0.0
O32 O 0.60111 0.0307 0.51 0.0
O33 O 0.54932 0.01248 0.50868 0.0
O34 O 0.56552 0.06356 0.53846 0.0
O35 O 0.51636 0.00956 0.53524 0.0
C36 C 0.44128 0.95131 0.50964 0.0
O37 O 0.44934 0.98096 0.51868 0.0
O38 O 0.46644 0.95409 0.50055 0.0
C39 C 0.5119 0.07424 0.50872 0.0
Tb40 Tb 0.53519 0.54059 0.83426 0.0
C41 C 0.56969 0.54334 0.86878 0.0
Tb42 Tb 0.61074 0.54981 0.83595 0.0
O43 O 0.51446 0.48516 0.83859 0.0
O44 O 0.56116 0.51 0.82799 0.0
O45 O 0.54709 0.55016 0.86101 0.0
C46 C 0.66315 0.53515 0.83561 0.0
O47 O 0.59359 0.5376 0.861 0.0
C48 C 0.6077 0.61047 0.84043 0.0
C49 C 0.57779 0.55282 0.80216 0.0
O50 O 0.64012 0.5264 0.84662 0.0
O51 O 0.65695 0.55258 0.82497 0.0
O52 O 0.63631 0.60847 0.84036 0.0
O53 O 0.58491 0.57954 0.83881 0.0
O54 O 0.59828 0.54222 0.8092 0.0
O55 O 0.55486 0.55914 0.81048 0.0
C56 C 0.48142 0.55194 0.82999 0.0
O57 O 0.48979 0.5323 0.81966 0.0
O58 O 0.5026 0.56411 0.84295 0.0
C59 C 0.54152 0.4824 0.83403 0.0
C60 C 0.41636 0.92133 0.20903 0.0
C61 C 0.41769 0.91015 0.19223 0.0
C62 C 0.44779 0.92799 0.18399 0.0
C63 C 0.47605 0.95634 0.19246 0.0
H64 H 0.56999 0.04556 0.18659 0.0
H65 H 0.62057 0.08515 0.17329 0.0
H66 H 0.66882 0.13597 0.2217 0.0
H67 H 0.61893 0.09644 0.23499 0.0
H68 H 0.57809 0.07775 0.2675 0.0
H69 H 0.57854 0.08142 0.2979 0.0
H70 H 0.487 0.98301 0.29477 0.0
H71 H 0.48642 0.97908 0.26449 0.0
H72 H 0.44244 0.9568 0.2305 0.0
H73 H 0.39377 0.90784 0.21583 0.0
H74 H 0.44948 0.92002 0.171 0.0
H75 H 0.499 0.96937 0.18585 0.0
N76 N 0.53248 0.01762 0.21114 0.0
N77 N 0.55955 0.04692 0.23714 0.0
N78 N 0.50518 0.99951 0.23583 0.0
C79 C 0.55992 0.04349 0.22021 0.0
C80 C 0.5323 0.02499 0.24504 0.0
C81 C 0.50491 0.99559 0.21893 0.0
C82 C 0.59029 0.06762 0.21189 0.0
C83 C 0.59139 0.06515 0.1944 0.0
C84 C 0.62031 0.08794 0.18676 0.0
C85 C 0.64879 0.11358 0.19644 0.0
C86 C 0.64757 0.11613 0.21389 0.0
C87 C 0.61875 0.09351 0.22151 0.0
C88 C 0.53229 0.02807 0.26351 0.0
C89 C 0.558 0.05692 0.27327 0.0
C90 C 0.55818 0.05916 0.29069 0.0
C91 C 0.53287 0.03244 0.29868 0.0
C92 C 0.50704 0.0038 0.28894 0.0
C93 C 0.50667 1.00169 0.27157 0.0
C94 C 0.4748 0.96704 0.20939 0.0
C95 C 0.44449 0.94932 0.21749 0.0
C96 C 0.51746 0.42114 0.53245 0.0
C97 C 0.54246 0.42154 0.5216 0.0
C98 C 0.56665 0.45388 0.51692 0.0
C99 C 0.56635 0.48531 0.52337 0.0
H100 H 0.52435 0.57858 0.51667 0.0
H101 H 0.52543 0.63088 0.50615 0.0
H102 H 0.58991 0.69548 0.54888 0.0
H103 H 0.58846 0.64371 0.55943 0.0
H104 H 0.53559 0.59113 0.59346 0.0
H105 H 0.53738 0.59336 0.62374 0.0
H106 H 0.57208 0.51357 0.62021 0.0
H107 H 0.5684 0.51008 0.59001 0.0
H108 H 0.49918 0.45147 0.5482 0.0
H109 H 0.49874 0.39667 0.5364 0.0
H110 H 0.58621 0.45487 0.50859 0.0
H111 H 0.58597 0.51001 0.5201 0.0
N112 N 0.54931 0.54589 0.537 0.0
N113 N 0.55355 0.57671 0.56339 0.0
N114 N 0.54654 0.51921 0.56143 0.0
C115 C 0.553 0.57564 0.54649 0.0
C116 C 0.55039 0.54867 0.57094 0.0
C117 C 0.54598 0.51753 0.54454 0.0
C118 C 0.55626 0.60701 0.53889 0.0
C119 C 0.5391 0.60404 0.52365 0.0
C120 C 0.53952 0.63388 0.51771 0.0
C121 C 0.55778 0.66725 0.5267 0.0
C122 C 0.57586 0.67021 0.5416 0.0
C123 C 0.57488 0.64048 0.54768 0.0
C124 C 0.55172 0.55034 0.58934 0.0
C125 C 0.5435 0.57402 0.59919 0.0
C126 C 0.54475 0.57543 0.61659 0.0
C127 C 0.55486 0.55363 0.62456 0.0
C128 C 0.56339 0.5302 0.61461 0.0
C129 C 0.56151 0.52834 0.59724 0.0
C130 C 0.54242 0.48486 0.53493 0.0
C131 C 0.51771 0.45247 0.53919 0.0
C132 C 0.94679 0.43798 0.84835 0.0
C133 C 0.93937 0.45624 0.83671 0.0
C134 C 0.96624 0.4864 0.83153 0.0
C135 C 0.999 0.49957 0.83884 0.0
H136 H 0.11225 0.53608 0.83248 0.0
H137 H 0.16844 0.56433 0.8216 0.0
H138 H 0.20781 0.62722 0.86909 0.0
H139 H 0.15177 0.59753 0.88021 0.0
H140 H 0.12094 0.54543 0.91121 0.0
H141 H 0.12023 0.53987 0.94096 0.0
H142 H 0.01175 0.47286 0.9359 0.0
H143 H 0.01245 0.47762 0.90616 0.0
H144 H 0.98387 0.43818 0.86561 0.0
H145 H 0.92698 0.41417 0.85231 0.0
H146 H 0.96162 0.50151 0.82277 0.0
H147 H 0.01864 0.52401 0.83531 0.0
N148 N 0.06665 0.52337 0.85511 0.0
N149 N 0.09571 0.53791 0.88132 0.0
N150 N 0.038 0.49742 0.87832 0.0
C151 C 0.09578 0.54176 0.8648 0.0
C152 C 0.06689 0.51576 0.88817 0.0
C153 C 0.03769 0.50113 0.86182 0.0
C154 C 0.12787 0.56394 0.85732 0.0
C155 C 0.13274 0.55645 0.84049 0.0
C156 C 0.165 0.57295 0.8342 0.0
C157 C 0.19288 0.59763 0.84456 0.0
C158 C 0.18709 0.60763 0.86091 0.0
C159 C 0.15499 0.59066 0.86729 0.0
C160 C 0.06675 0.512 0.90624 0.0
C161 C 0.09693 0.52939 0.9164 0.0
C162 C 0.09652 0.52636 0.93349 0.0
C163 C 0.06594 0.50593 0.94081 0.0
C164 C 0.03584 0.48836 0.93063 0.0
C165 C 0.03624 0.4913 0.91355 0.0
C166 C 1.0054 0.48326 0.85169 0.0
C167 C 0.97938 0.45164 0.85594 0.0
C168 C 0.1143 0.65254 0.44924 0.0
C169 C 0.11871 0.65748 0.46669 0.0
C170 C 0.09242 0.63547 0.47611 0.0
C171 C 0.06272 0.60819 0.46813 0.0
H172 H 0.96627 0.5257 0.47578 0.0
H173 H 0.92026 0.48316 0.49055 0.0
H174 H 0.87926 0.41657 0.44415 0.0
H175 H 0.92424 0.45898 0.42941 0.0
H176 H 0.96079 0.47923 0.39606 0.0
H177 H 0.96204 0.46891 0.36589 0.0
H178 H 0.03875 0.57611 0.36507 0.0
H179 H 0.03837 0.58605 0.3952 0.0
H180 H 0.08267 0.62252 0.4278 0.0
H181 H 0.13382 0.66957 0.44166 0.0
H182 H 0.0952 0.63875 0.48959 0.0
H183 H 0.0432 0.59114 0.47569 0.0
N184 N 1.00328 0.54967 0.45042 0.0
N185 N 0.97543 0.51644 0.42521 0.0
N186 N 0.02685 0.5673 0.42492 0.0
C187 C 0.97651 0.52146 0.44215 0.0
C188 C 1.00043 0.53931 0.41651 0.0
C189 C 0.02861 0.57272 0.44183 0.0
C190 C 0.94893 0.49592 0.45137 0.0
C191 C 0.94735 0.50203 0.46873 0.0
C192 C 0.92106 0.47762 0.47722 0.0
C193 C 0.89587 0.44666 0.46851 0.0
C194 C 0.89772 0.44054 0.4512 0.0
C195 C 0.92377 0.46485 0.44275 0.0
C196 C 0.99965 0.5334 0.39808 0.0
C197 C 0.97783 0.50063 0.38943 0.0
C198 C 0.97844 0.49475 0.37211 0.0
C199 C 1.00067 0.5216 0.36303 0.0
C200 C 0.02186 0.55458 0.37168 0.0
C201 C 0.02148 0.56036 0.38898 0.0
C202 C 0.05878 0.60269 0.4506 0.0
C203 C 0.08477 0.62558 0.4413 0.0
C204 C 0.53414 0.13214 0.81048 0.0
C205 C 0.55803 0.1544 0.82321 0.0
C206 C 0.58062 0.14341 0.83003 0.0
C207 C 0.57989 0.11128 0.82384 0.0
H208 H 0.58825 0.00453 0.83076 0.0
H209 H 0.59125 0.9542 0.84145 0.0
H210 H 0.53721 0.88865 0.79654 0.0
H211 H 0.5342 0.9381 0.78602 0.0
H212 H 0.55159 0.97484 0.75246 0.0
H213 H 0.55055 0.97252 0.72211 0.0
H214 H 0.56493 0.07926 0.72588 0.0
H215 H 0.56628 0.08189 0.75612 0.0
H216 H 0.51595 0.08482 0.79387 0.0
H217 H 0.51668 0.13986 0.80477 0.0
H218 H 0.59923 0.15995 0.83991 0.0
H219 H 0.59832 0.10396 0.82881 0.0
N220 N 0.56142 0.03396 0.80921 0.0
N221 N 0.56064 0.00417 0.78297 0.0
N222 N 0.55893 0.0578 0.7845 0.0
C223 C 0.5615 0.00563 0.79988 0.0
C224 C 0.55967 0.03024 0.77519 0.0
C225 C 0.55978 0.06 0.80139 0.0
C226 C 0.56118 0.97541 0.80751 0.0
C227 C 0.57668 0.97922 0.82333 0.0
C228 C 0.57858 0.9505 0.82938 0.0
C229 C 0.56439 0.91738 0.81985 0.0
C230 C 0.54803 0.91358 0.80431 0.0
C231 C 0.54657 0.94213 0.79821 0.0
C232 C 0.55902 0.02856 0.75677 0.0
C233 C 0.55461 0.99787 0.74684 0.0
C234 C 0.55383 0.99643 0.72945 0.0
C235 C 0.55773 0.02573 0.72165 0.0
C236 C 0.56226 0.05641 0.73156 0.0
C237 C 0.5628 0.05779 0.7489 0.0
C238 C 0.557 0.0901 0.81054 0.0
C239 C 0.53378 0.10059 0.80419 0.0
C240 C 0.63567 0.46744 0.12549 0.0
C241 C 0.65405 0.48551 0.14057 0.0
C242 C 0.64052 0.50426 0.15095 0.0
C243 C 0.6105 0.50598 0.146 0.0
H244 H 0.48139 0.47532 0.15019 0.0
H245 H 0.42547 0.4707 0.15825 0.0
H246 H 0.42571 0.53066 0.11846 0.0
H247 H 0.4807 0.53615 0.11077 0.0
H248 H 0.50868 0.52631 0.07775 0.0
H249 H 0.51424 0.53412 0.04826 0.0
H250 H 0.6021 0.51449 0.04817 0.0
H251 H 0.59634 0.50606 0.07761 0.0
H252 H 0.59373 0.45601 0.10854 0.0
H253 H 0.645 0.45319 0.11689 0.0
H254 H 0.65349 0.51825 0.16276 0.0
H255 H 0.60185 0.52203 0.15384 0.0
N256 N 0.53993 0.498 0.13084 0.0
N257 N 0.52158 0.51066 0.10604 0.0
N258 N 0.57033 0.50261 0.1064 0.0
C259 C 0.51691 0.50496 0.12232 0.0
C260 C 0.54799 0.50962 0.09799 0.0
C261 C 0.56696 0.49689 0.1227 0.0
C262 C 0.48574 0.50566 0.12964 0.0
C263 C 0.46981 0.4881 0.14341 0.0
C264 C 0.43769 0.48535 0.14799 0.0
C265 C 0.42076 0.49977 0.13878 0.0
C266 C 0.43756 0.51864 0.12563 0.0
C267 C 0.46937 0.52174 0.12124 0.0
C268 C 0.55199 0.51541 0.08011 0.0
C269 C 0.52926 0.5237 0.07149 0.0
C270 C 0.53256 0.52842 0.05458 0.0
C271 C 0.5586 0.52491 0.04585 0.0
C272 C 0.58151 0.51696 0.05448 0.0
C273 C 0.57828 0.51231 0.07141 0.0
C274 C 0.59334 0.48912 0.13052 0.0
C275 C 0.60602 0.46918 0.12062 0.0
H276 H 0.10763 0.4415 0.12412 0.0
H277 H 0.1658 0.44869 0.1244 0.0
H278 H 0.18685 0.50841 0.17288 0.0
H279 H 0.1287 0.50271 0.17216 0.0
H280 H 0.24119 0.5358 0.15705 0.0
H281 H 0.17055 0.41697 0.16573 0.0
H282 H 0.12263 0.3576 0.16027 0.0
H283 H 0.16056 0.34323 0.11266 0.0
H284 H 0.2085 0.40269 0.11774 0.0
H285 H 0.39418 0.51335 0.16815 0.0
H286 H 0.33683 0.50884 0.17191 0.0
H287 H 0.30965 0.46929 0.12006 0.0
H288 H 0.36664 0.47425 0.11625 0.0
H289 H 0.25895 0.43114 0.14074 0.0
H290 H 0.32977 0.55272 0.1331 0.0
H291 H 0.37728 0.61194 0.13989 0.0
H292 H 0.33877 0.61991 0.18811 0.0
H293 H 0.29132 0.56044 0.18171 0.0
C294 C 0.12465 0.45628 0.13484 0.0
C295 C 0.11329 0.47119 0.1482 0.0
C296 C 0.15803 0.46015 0.13508 0.0
C297 C 0.18097 0.47817 0.14891 0.0
C298 C 0.16992 0.49407 0.16208 0.0
C299 C 0.13655 0.49076 0.1617 0.0
C300 C 0.21613 0.48014 0.1495 0.0
C301 C 0.24486 0.5127 0.15377 0.0
C302 C 0.22164 0.45027 0.14513 0.0
C303 C 0.19297 0.4144 0.14207 0.0
C304 C 0.16856 0.40122 0.15405 0.0
C305 C 0.14141 0.36754 0.15103 0.0
C306 C 0.13852 0.34668 0.13612 0.0
C307 C 0.16283 0.35942 0.12421 0.0
C308 C 0.19002 0.3931 0.12716 0.0
C309 C 0.37582 0.50339 0.15762 0.0
C310 C 0.38511 0.4942 0.14189 0.0
C311 C 0.34308 0.50106 0.15974 0.0
C312 C 0.31871 0.48896 0.14624 0.0
C313 C 0.32775 0.47878 0.13069 0.0
C314 C 0.36047 0.48166 0.12852 0.0
C315 C 0.28379 0.48676 0.14803 0.0
C316 C 0.25513 0.45411 0.1442 0.0
C317 C 0.27842 0.5164 0.15308 0.0
C318 C 0.30725 0.55191 0.15701 0.0
C319 C 0.33166 0.56691 0.14523 0.0
C320 C 0.35853 0.60056 0.149 0.0
C321 C 0.36111 0.61963 0.16444 0.0
C322 C 0.33679 0.60508 0.17616 0.0
C323 C 0.30992 0.57139 0.17248 0.0
H324 H 0.38188 0.64572 0.16732 0.0
H325 H 0.11747 0.32062 0.1338 0.0
H326 H 0.6824 0.16985 0.53342 0.0
H327 H 0.72944 0.22797 0.53018 0.0
H328 H 0.68326 0.22747 0.48291 0.0
H329 H 0.63608 0.17029 0.48625 0.0
H330 H 0.75486 0.24166 0.4832 0.0
H331 H 0.67639 0.27644 0.50999 0.0
H332 H 0.63824 0.27754 0.532 0.0
H333 H 0.72276 0.32307 0.56812 0.0
H334 H 0.76137 0.32148 0.5463 0.0
H335 H 0.82892 0.40928 0.45804 0.0
H336 H 0.78521 0.35919 0.46995 0.0
H337 H 0.85512 0.37419 0.5109 0.0
H338 H 0.89971 0.42385 0.49874 0.0
H339 H 0.77622 0.35336 0.5169 0.0
H340 H 0.85511 0.31935 0.48756 0.0
H341 H 0.88992 0.31922 0.4637 0.0
H342 H 0.80032 0.27277 0.43077 0.0
H343 H 0.76505 0.2732 0.45442 0.0
C344 C 0.68232 0.18236 0.52242 0.0
C345 C 0.65586 0.16568 0.51004 0.0
C346 C 0.70903 0.21543 0.52061 0.0
C347 C 0.70968 0.23175 0.50629 0.0
C348 C 0.68314 0.21514 0.49401 0.0
C349 C 0.65626 0.18255 0.49595 0.0
C350 C 0.73855 0.26562 0.50364 0.0
C351 C 0.7596 0.26604 0.49061 0.0
C352 C 0.74471 0.29727 0.51341 0.0
C353 C 0.72168 0.29834 0.52657 0.0
C354 C 0.68679 0.28628 0.52266 0.0
C355 C 0.66508 0.28709 0.5351 0.0
C356 C 0.67803 0.3003 0.55148 0.0
C357 C 0.71275 0.31277 0.55543 0.0
C358 C 0.73456 0.3119 0.54303 0.0
C359 C 0.83504 0.40214 0.46963 0.0
C360 C 0.86802 0.42013 0.47726 0.0
C361 C 0.80992 0.37376 0.4765 0.0
C362 C 0.81712 0.36306 0.49122 0.0
C363 C 0.84917 0.38233 0.49956 0.0
C364 C 0.87455 0.41065 0.49259 0.0
C365 C 0.79241 0.32923 0.49647 0.0
C366 C 0.772 0.32881 0.50984 0.0
C367 C 0.78648 0.29746 0.48691 0.0
C368 C 0.80752 0.29661 0.47272 0.0
C369 C 0.84288 0.30939 0.47521 0.0
C370 C 0.86268 0.30922 0.46173 0.0
C371 C 0.84735 0.29607 0.44572 0.0
C372 C 0.81216 0.28298 0.44317 0.0
C373 C 0.79226 0.28315 0.45661 0.0
H374 H 0.86272 0.29596 0.4353 0.0
H375 H 0.66119 0.30097 0.5611 0.0
H376 H 0.5498 0.61456 0.83238 0.0
H377 H 0.54184 0.66697 0.8315 0.0
H378 H 0.64847 0.73165 0.84516 0.0
H379 H 0.65585 0.67871 0.84697 0.0
H380 H 0.61095 0.75873 0.86107 0.0
H381 H 0.61663 0.71692 0.80403 0.0
H382 H 0.59993 0.67173 0.77982 0.0
H383 H 0.49719 0.65777 0.78082 0.0
H384 H 0.51324 0.70275 0.80513 0.0
H385 H 0.62109 0.9163 0.83329 0.0
H386 H 0.62807 0.8648 0.83882 0.0
H387 H 0.52223 0.79808 0.82426 0.0
H388 H 0.51526 0.84938 0.8186 0.0
H389 H 0.55977 0.77219 0.80911 0.0
H390 H 0.55355 0.81454 0.86549 0.0
H391 H 0.56893 0.85791 0.89036 0.0
H392 H 0.67096 0.86957 0.89123 0.0
H393 H 0.65631 0.8266 0.86621 0.0
C394 C 0.57125 0.63985 0.83565 0.0
C395 C 0.60318 0.64248 0.84007 0.0
C396 C 0.56688 0.66992 0.83486 0.0
C397 C 0.59466 0.70342 0.83805 0.0
C398 C 0.62663 0.70615 0.84265 0.0
C399 C 0.63088 0.67592 0.84361 0.0
C400 C 0.59041 0.73543 0.83617 0.0
C401 C 0.60022 0.76193 0.84962 0.0
C402 C 0.57561 0.73928 0.82139 0.0
C403 C 0.56611 0.71305 0.80645 0.0
C404 C 0.59047 0.70417 0.7991 0.0
C405 C 0.58112 0.67862 0.78537 0.0
C406 C 0.54751 0.66186 0.77882 0.0
C407 C 0.52322 0.67079 0.78592 0.0
C408 C 0.53244 0.69638 0.79964 0.0
C409 C 0.59916 0.89073 0.83162 0.0
C410 C 0.56766 0.88694 0.82545 0.0
C411 C 0.60317 0.86125 0.83475 0.0
C412 C 0.57566 0.82741 0.83198 0.0
C413 C 0.54392 0.82379 0.82638 0.0
C414 C 0.53996 0.85317 0.82317 0.0
C415 C 0.58025 0.79563 0.83404 0.0
C416 C 0.57054 0.76912 0.82058 0.0
C417 C 0.59502 0.79176 0.84883 0.0
C418 C 0.60392 0.81762 0.86387 0.0
C419 C 0.57935 0.82657 0.8709 0.0
C420 C 0.58792 0.85104 0.88504 0.0
C421 C 0.62093 0.86656 0.89234 0.0
C422 C 0.64541 0.85757 0.88554 0.0
C423 C 0.63698 0.83313 0.87139 0.0
H424 H 0.62751 0.88549 0.9033 0.0
H425 H 0.54033 0.642 0.76824 0.0
H426 H 0.96963 0.55368 0.17204 0.0
H427 H 0.91164 0.54692 0.17054 0.0
H428 H 0.88091 0.4533 0.13611 0.0
H429 H 0.93971 0.46127 0.13692 0.0
H430 H 0.85106 0.48718 0.12588 0.0
H431 H 0.86211 0.45534 0.17918 0.0
H432 H 0.88643 0.46028 0.20739 0.0
H433 H 0.87052 0.55042 0.22197 0.0
H434 H 0.84639 0.54623 0.19375 0.0
H435 H 0.67343 0.43288 0.1333 0.0
H436 H 0.72975 0.43596 0.13672 0.0
H437 H 0.76835 0.54126 0.16112 0.0
H438 H 0.71222 0.53907 0.15716 0.0
H439 H 0.79249 0.49879 0.17678 0.0
H440 H 0.78427 0.53037 0.12172 0.0
H441 H 0.75762 0.52126 0.0936 0.0
H442 H 0.7662 0.42574 0.08294 0.0
H443 H 0.79247 0.43403 0.11111 0.0
C444 C 0.95056 0.53157 0.16415 0.0
C445 C 0.95946 0.50783 0.15472 0.0
C446 C 0.91712 0.52754 0.16339 0.0
C447 C 0.89117 0.49913 0.15347 0.0
C448 C 0.90009 0.47541 0.14396 0.0
C449 C 0.93378 0.47978 0.14453 0.0
C450 C 0.85518 0.49485 0.15273 0.0
C451 C 0.83824 0.48919 0.13709 0.0
C452 C 0.838 0.49786 0.16726 0.0
C453 C 0.85254 0.50053 0.18428 0.0
C454 C 0.86386 0.47627 0.18837 0.0
C455 C 0.87764 0.47895 0.20437 0.0
C456 C 0.88006 0.50568 0.21647 0.0
C457 C 0.86864 0.52973 0.21258 0.0
C458 C 0.85487 0.52718 0.19658 0.0
C459 C 0.69377 0.45695 0.1393 0.0
C460 C 0.68782 0.48594 0.14468 0.0
C461 C 0.72613 0.45853 0.14134 0.0
C462 C 0.75369 0.48899 0.149 0.0
C463 C 0.74765 0.51741 0.15514 0.0
C464 C 0.71528 0.51601 0.15293 0.0
C465 C 0.78888 0.49151 0.15 0.0
C466 C 0.80552 0.49674 0.16566 0.0
C467 C 0.8056 0.48753 0.13554 0.0
C468 C 0.79002 0.48264 0.11858 0.0
C469 C 0.78023 0.50728 0.11343 0.0
C470 C 0.76523 0.50229 0.09747 0.0
C471 C 0.76014 0.47289 0.08651 0.0
C472 C 0.77012 0.44847 0.09146 0.0
C473 C 0.78508 0.45331 0.10741 0.0
H474 H 0.74853 0.46908 0.07416 0.0
H475 H 0.89075 0.50773 0.22885 0.0
H476 H 0.42281 0.88925 0.49075 0.0
H477 H 0.36629 0.83915 0.48705 0.0
H478 H 0.32793 0.8927 0.52259 0.0
H479 H 0.38482 0.94312 0.52644 0.0
H480 H 0.30177 0.81969 0.52554 0.0
H481 H 0.31348 0.89552 0.48382 0.0
H482 H 0.34194 0.93217 0.46154 0.0
H483 H 0.33834 0.84218 0.43156 0.0
H484 H 0.31031 0.80506 0.45378 0.0
H485 H 0.12787 0.70596 0.49352 0.0
H486 H 0.18174 0.75576 0.5045 0.0
H487 H 0.23612 0.72124 0.46887 0.0
H488 H 0.18273 0.67175 0.45794 0.0
H489 H 0.25117 0.78902 0.46764 0.0
H490 H 0.24176 0.71373 0.51004 0.0
H491 H 0.21379 0.67733 0.53248 0.0
H492 H 0.21229 0.76623 0.56115 0.0
H493 H 0.23986 0.80306 0.53876 0.0
C494 C 0.40244 0.89021 0.49791 0.0
C495 C 0.40798 0.9201 0.50874 0.0
C496 C 0.37019 0.86162 0.49579 0.0
C497 C 0.34291 0.86248 0.50439 0.0
C498 C 0.3487 0.89163 0.51583 0.0
C499 C 0.38108 0.92037 0.51796 0.0
C500 C 0.30809 0.83384 0.50045 0.0
C501 C 0.29037 0.81322 0.51295 0.0
C502 C 0.29347 0.8254 0.484 0.0
C503 C 0.31004 0.84757 0.47053 0.0
C504 C 0.31898 0.88359 0.47253 0.0
C505 C 0.33501 0.90444 0.4599 0.0
C506 C 0.34201 0.88953 0.44516 0.0
C507 C 0.33292 0.8537 0.44299 0.0
C508 C 0.31693 0.83274 0.45559 0.0
C509 C 0.15143 0.70874 0.48827 0.0
C510 C 0.15113 0.68531 0.47474 0.0
C511 C 0.18213 0.73715 0.49453 0.0
C512 C 0.21287 0.74225 0.48743 0.0
C513 C 0.21265 0.71796 0.47442 0.0
C514 C 0.18214 0.68978 0.46816 0.0
C515 C 0.24515 0.77401 0.49258 0.0
C516 C 0.26235 0.79549 0.48027 0.0
C517 C 0.25909 0.78316 0.50919 0.0
C518 C 0.2425 0.76104 0.52264 0.0
C519 C 0.23517 0.72544 0.52106 0.0
C520 C 0.21946 0.70474 0.53378 0.0
C521 C 0.21116 0.71943 0.54821 0.0
C522 C 0.21866 0.75487 0.54995 0.0
C523 C 0.23436 0.77567 0.53726 0.0
H524 H 0.19901 0.70337 0.55805 0.0
H525 H 0.35443 0.90572 0.4354 0.0
H526 H 0.49473 0.41768 0.84059 0.0
H527 H 0.5017 0.36454 0.84039 0.0
H528 H 0.60681 0.42208 0.82849 0.0
H529 H 0.59831 0.47413 0.8267 0.0
H530 H 0.58695 0.36413 0.81305 0.0
H531 H 0.57411 0.39383 0.87056 0.0
H532 H 0.54713 0.40836 0.89488 0.0
H533 H 0.45784 0.30971 0.88414 0.0
H534 H 0.48398 0.29481 0.85963 0.0
H535 H 0.61531 0.21782 0.82824 0.0
H536 H 0.61803 0.27632 0.83279 0.0
H537 H 0.50855 0.22932 0.83343 0.0
H538 H 0.50576 0.171 0.82934 0.0
H539 H 0.53793 0.28499 0.85694 0.0
H540 H 0.55 0.2627 0.79668 0.0
H541 H 0.57874 0.24835 0.77306 0.0
H542 H 0.67412 0.33433 0.79166 0.0
H543 H 0.64594 0.34864 0.81553 0.0
C544 C 0.51932 0.41897 0.83794 0.0
C545 C 0.5463 0.4504 0.83413 0.0
C546 C 0.52349 0.38858 0.83805 0.0
C547 C 0.55525 0.38919 0.83514 0.0
C548 C 0.58212 0.42064 0.83105 0.0
C549 C 0.57748 0.45068 0.83027 0.0
C550 C 0.55999 0.35685 0.83578 0.0
C551 C 0.57679 0.34741 0.82291 0.0
C552 C 0.54662 0.33427 0.84846 0.0
C553 C 0.53095 0.3433 0.86321 0.0
C554 C 0.54865 0.37533 0.87334 0.0
C555 C 0.53351 0.38362 0.88715 0.0
C556 C 0.50082 0.35994 0.89101 0.0
C557 C 0.48317 0.32798 0.88111 0.0
C558 C 0.49813 0.3196 0.86728 0.0
C559 C 0.59189 0.21997 0.82971 0.0
C560 C 0.56029 0.18972 0.82831 0.0
C561 C 0.59344 0.25345 0.83211 0.0
C562 C 0.56344 0.2573 0.83313 0.0
C563 C 0.53205 0.2271 0.83257 0.0
C564 C 0.53047 0.19374 0.83016 0.0
C565 C 0.56423 0.29249 0.83418 0.0
C566 C 0.54852 0.30233 0.84734 0.0
C567 C 0.5791 0.3157 0.822 0.0
C568 C 0.59592 0.30687 0.80775 0.0
C569 C 0.57711 0.27845 0.79571 0.0
C570 C 0.59329 0.27028 0.78231 0.0
C571 C 0.62822 0.29045 0.78084 0.0
C572 C 0.64706 0.31876 0.79279 0.0
C573 C 0.631 0.32694 0.80622 0.0
H574 H 0.64069 0.28412 0.77045 0.0
H575 H 0.48913 0.36621 0.90169 0.0
H576 H 0.62126 0.98102 0.5063 0.0
H577 H 0.61507 0.92171 0.50675 0.0
H578 H 0.50648 0.8822 0.50997 0.0
H579 H 0.51307 0.94202 0.51035 0.0
H580 H 0.52757 0.85288 0.5305 0.0
H581 H 0.54403 0.86829 0.47319 0.0
H582 H 0.57134 0.8976 0.4487 0.0
H583 H 0.66274 0.89168 0.46221 0.0
H584 H 0.63615 0.86277 0.48692 0.0
H585 H 0.50223 0.6753 0.51729 0.0
H586 H 0.50085 0.72965 0.51139 0.0
H587 H 0.61024 0.78512 0.51801 0.0
H588 H 0.61172 0.73103 0.52402 0.0
H589 H 0.58331 0.80279 0.49031 0.0
H590 H 0.56558 0.79084 0.5491 0.0
H591 H 0.53597 0.76009 0.57284 0.0
H592 H 0.44297 0.75742 0.55483 0.0
H593 H 0.47194 0.78771 0.53083 0.0
C594 C 0.59603 0.95964 0.50699 0.0
C595 C 0.56749 0.96605 0.50797 0.0
C596 C 0.59246 0.92564 0.50713 0.0
C597 C 0.56019 0.89712 0.50801 0.0
C598 C 0.53163 0.90358 0.5091 0.0
C599 C 0.5353 0.93773 0.50913 0.0
C600 C 0.5566 0.86096 0.50848 0.0
C601 C 0.53922 0.84174 0.52148 0.0
C602 C 0.57206 0.84629 0.49687 0.0
C603 C 0.58817 0.8636 0.48199 0.0
C604 C 0.57004 0.87346 0.47101 0.0
C605 C 0.58538 0.88997 0.45708 0.0
C606 C 0.61878 0.89656 0.45392 0.0
C607 C 0.63688 0.88658 0.46468 0.0
C608 C 0.62167 0.87009 0.47864 0.0
C609 C 0.52599 0.69897 0.51719 0.0
C610 C 0.55708 0.69896 0.52116 0.0
C611 C 0.52516 0.73002 0.51392 0.0
C612 C 0.55544 0.76151 0.51439 0.0
C613 C 0.58659 0.76117 0.5176 0.0
C614 C 0.58739 0.73029 0.52109 0.0
C615 C 0.55473 0.79524 0.51239 0.0
C616 C 0.57134 0.81392 0.49914 0.0
C617 C 0.53818 0.80921 0.52361 0.0
C618 C 0.52082 0.79115 0.53807 0.0
C619 C 0.53874 0.78341 0.55012 0.0
C620 C 0.52209 0.76612 0.56364 0.0
C621 C 0.48758 0.75671 0.56532 0.0
C622 C 0.46968 0.76466 0.5535 0.0
C623 C 0.4862 0.78189 0.53994 0.0
H624 H 0.47474 0.74333 0.5758 0.0
H625 H 0.63061 0.90935 0.44313 0.0
H626 H 0.70442 0.54082 0.80993 0.0
H627 H 0.74736 0.51933 0.80734 0.0
H628 H 0.72498 0.48274 0.85585 0.0
H629 H 0.68171 0.5037 0.85841 0.0
H630 H 0.79552 0.52372 0.8504 0.0
H631 H 0.69412 0.42819 0.82355 0.0
H632 H 0.6458 0.40231 0.8028 0.0
H633 H 0.71467 0.42271 0.76317 0.0
H634 H 0.7636 0.45061 0.78365 0.0
H635 H 0.88548 0.43287 0.85678 0.0
H636 H 0.83225 0.43546 0.85283 0.0
H637 H 0.85879 0.4662 0.80359 0.0
H638 H 0.9119 0.46183 0.80702 0.0
H639 H 0.78608 0.42795 0.80762 0.0
H640 H 0.88543 0.52845 0.83213 0.0
H641 H 0.93622 0.55943 0.85134 0.0
H642 H 0.87318 0.53305 0.8933 0.0
H643 H 0.82202 0.50123 0.8743 0.0
C644 C 0.70882 0.52831 0.82005 0.0
C645 C 0.69 0.52394 0.8344 0.0
C646 C 0.73312 0.51592 0.81851 0.0
C647 C 0.73898 0.49928 0.83136 0.0
C648 C 0.72061 0.49546 0.84581 0.0
C649 C 0.69603 0.50743 0.84727 0.0
C650 C 0.76483 0.48644 0.82995 0.0
C651 C 0.79324 0.5025 0.84118 0.0
C652 C 0.7622 0.45958 0.81749 0.0
C653 C 0.73266 0.44202 0.80518 0.0
C654 C 0.69908 0.42771 0.81042 0.0
C655 C 0.67153 0.41269 0.79869 0.0
C656 C 0.67714 0.41079 0.78168 0.0
C657 C 0.71035 0.4242 0.77636 0.0
C658 C 0.73802 0.43982 0.78802 0.0
C659 C 0.87955 0.43845 0.84474 0.0
C660 C 0.90353 0.44796 0.83235 0.0
C661 C 0.84902 0.44012 0.84257 0.0
C662 C 0.84213 0.45188 0.82811 0.0
C663 C 0.86391 0.45736 0.8149 0.0
C664 C 0.89443 0.45529 0.81699 0.0
C665 C 0.81627 0.46481 0.8283 0.0
C666 C 0.78815 0.44906 0.81683 0.0
C667 C 0.81931 0.49251 0.84031 0.0
C668 C 0.84994 0.51213 0.85179 0.0
C669 C 0.88242 0.529 0.84545 0.0
C670 C 0.91128 0.54673 0.8563 0.0
C671 C 0.90794 0.54814 0.87353 0.0
C672 C 0.87572 0.53188 0.87994 0.0
C673 C 0.84679 0.51399 0.86914 0.0
H674 H 0.93031 0.56189 0.88191 0.0
H675 H 0.65576 0.39887 0.77264 0.0
H676 H 0.12538 0.65271 0.1674 0.0
H677 H 0.17808 0.70776 0.16936 0.0
H678 H 0.23162 0.6525 0.14724 0.0
H679 H 0.17904 0.59726 0.14558 0.0
H680 H 0.26679 0.69507 0.17364 0.0
H681 H 0.2124 0.7066 0.12516 0.0
H682 H 0.16575 0.70644 0.10817 0.0
H683 H 0.16608 0.79035 0.14191 0.0
H684 H 0.21243 0.7907 0.15925 0.0
H685 H 0.41752 0.85495 0.17199 0.0
H686 H 0.36792 0.80036 0.16119 0.0
H687 H 0.30134 0.84005 0.18318 0.0
H688 H 0.35061 0.8949 0.19353 0.0
H689 H 0.27536 0.80383 0.1533 0.0
H690 H 0.32572 0.78749 0.20307 0.0
H691 H 0.37153 0.78656 0.2203 0.0
H692 H 0.37805 0.7103 0.18381 0.0
H693 H 0.33267 0.71126 0.16622 0.0
C694 C 0.14837 0.6524 0.16288 0.0
C695 C 0.14823 0.62085 0.15633 0.0
C696 C 0.17842 0.68387 0.1639 0.0
C697 C 0.20874 0.68436 0.15823 0.0
C698 C 0.20852 0.65278 0.15163 0.0
C699 C 0.1785 0.62128 0.15067 0.0
C700 C 0.24096 0.71755 0.15997 0.0
C701 C 0.26889 0.71867 0.16888 0.0
C702 C 0.24354 0.74849 0.154 0.0
C703 C 0.21574 0.74849 0.14357 0.0
C704 C 0.20237 0.72485 0.12903 0.0
C705 C 0.176 0.72476 0.11932 0.0
C706 C 0.16292 0.74832 0.12398 0.0
C707 C 0.17623 0.7721 0.13833 0.0
C708 C 0.20258 0.77229 0.14809 0.0
C709 C 0.39228 0.85232 0.17419 0.0
C710 C 0.38796 0.87905 0.18378 0.0
C711 C 0.36399 0.82101 0.16814 0.0
C712 C 0.33095 0.81589 0.17164 0.0
C713 C 0.32658 0.84333 0.1804 0.0
C714 C 0.35477 0.87456 0.18642 0.0
C715 C 0.30091 0.7814 0.16718 0.0
C716 C 0.27339 0.78005 0.1578 0.0
C717 C 0.2987 0.75019 0.17269 0.0
C718 C 0.32615 0.74984 0.18322 0.0
C719 C 0.33718 0.77081 0.19864 0.0
C720 C 0.36303 0.77024 0.20848 0.0
C721 C 0.3778 0.7485 0.20312 0.0
C722 C 0.36668 0.72723 0.18792 0.0
C723 C 0.34092 0.7278 0.178 0.0
H724 H 0.39777 0.74806 0.21077 0.0
H725 H 0.1425 0.74821 0.11645 0.0
H726 H 0.47683 0.10032 0.4916 0.0
H727 H 0.48841 0.16156 0.49176 0.0
H728 H 0.57701 0.19368 0.52484 0.0
H729 H 0.5643 0.13213 0.52539 0.0
H730 H 0.54537 0.22835 0.5353 0.0
H731 H 0.58286 0.20813 0.48254 0.0
H732 H 0.58102 0.17755 0.45478 0.0
H733 H 0.49527 0.1917 0.43919 0.0
H734 H 0.49624 0.22194 0.46696 0.0
H735 H 0.59732 0.40882 0.52509 0.0
H736 H 0.59836 0.35194 0.52058 0.0
H737 H 0.49338 0.30268 0.50233 0.0
H738 H 0.492 0.35933 0.50716 0.0
H739 H 0.54098 0.28029 0.48364 0.0
H740 H 0.50413 0.29699 0.53948 0.0
H741 H 0.51164 0.33004 0.56721 0.0
H742 H 0.60541 0.32534 0.57645 0.0
H743 H 0.59865 0.29272 0.54866 0.0
C744 C 0.49883 0.12047 0.49886 0.0
C745 C 0.51985 0.11149 0.50835 0.0
C746 C 0.50565 0.15556 0.49884 0.0
C747 C 0.53399 0.18254 0.50807 0.0
C748 C 0.55507 0.17351 0.51755 0.0
C749 C 0.54795 0.13833 0.51776 0.0
C750 C 0.54054 0.21986 0.50843 0.0
C751 C 0.54503 0.23978 0.52395 0.0
C752 C 0.54013 0.23512 0.49368 0.0
C753 C 0.53948 0.21713 0.47689 0.0
C754 C 0.56345 0.20454 0.47324 0.0
C755 C 0.5626 0.1873 0.45749 0.0
C756 C 0.53807 0.18273 0.44523 0.0
C757 C 0.5143 0.19534 0.4487 0.0
C758 C 0.51501 0.21257 0.46444 0.0
C759 C 0.57471 0.38597 0.51977 0.0
C760 C 0.54457 0.38843 0.51645 0.0
C761 C 0.5753 0.35353 0.51727 0.0
C762 C 0.54593 0.32312 0.51115 0.0
C763 C 0.51635 0.32586 0.50699 0.0
C764 C 0.51555 0.35815 0.5098 0.0
C765 C 0.54505 0.28804 0.51044 0.0
C766 C 0.54167 0.26872 0.4949 0.0
C767 C 0.54734 0.27361 0.52513 0.0
C768 C 0.55113 0.29285 0.54191 0.0
C769 C 0.52651 0.30331 0.54736 0.0
C770 C 0.53059 0.3219 0.56311 0.0
C771 C 0.55905 0.3299 0.57357 0.0
C772 C 0.58342 0.31921 0.56833 0.0
C773 C 0.57947 0.30067 0.55258 0.0
H774 H 0.56216 0.34428 0.58576 0.0
H775 H 0.53747 0.1694 0.43304 0.0
H776 H 0.46619 0.59698 0.84979 0.0
H777 H 0.42129 0.61396 0.84491 0.0
H778 H 0.3921 0.54827 0.79786 0.0
H779 H 0.43707 0.53091 0.80279 0.0
H780 H 0.40487 0.64533 0.82051 0.0
H781 H 0.30425 0.50879 0.79505 0.0
H782 H 0.29195 0.44664 0.7944 0.0
H783 H 0.3465 0.46927 0.84176 0.0
H784 H 0.35874 0.53141 0.84275 0.0
H785 H 0.21829 0.612 0.81344 0.0
H786 H 0.27231 0.61463 0.80406 0.0
H787 H 0.30058 0.60847 0.85432 0.0
H788 H 0.24704 0.60484 0.86372 0.0
H789 H 0.28739 0.54946 0.82132 0.0
H790 H 0.34826 0.67214 0.85007 0.0
H791 H 0.36013 0.73431 0.85254 0.0
H792 H 0.38455 0.73919 0.80107 0.0
H793 H 0.37234 0.67684 0.79829 0.0
C794 C 0.45023 0.58621 0.8384 0.0
C795 C 0.45454 0.56217 0.8268 0.0
C796 C 0.42491 0.59626 0.83552 0.0
C797 C 0.40342 0.58234 0.82104 0.0
C798 C 0.40841 0.55918 0.80914 0.0
C799 C 0.43384 0.54911 0.81202 0.0
C800 C 0.37375 0.58939 0.81953 0.0
C801 C 0.37913 0.62433 0.8204 0.0
C802 C 0.34017 0.56201 0.81921 0.0
C803 C 0.33278 0.52474 0.81884 0.0
C804 C 0.31357 0.50044 0.80531 0.0
C805 C 0.30661 0.46524 0.80489 0.0
C806 C 0.31857 0.45405 0.818 0.0
C807 C 0.33738 0.478 0.83158 0.0
C808 C 0.34436 0.5132 0.83207 0.0
C809 C 0.23636 0.61198 0.82255 0.0
C810 C 0.22813 0.60795 0.83933 0.0
C811 C 0.26723 0.61375 0.81718 0.0
C812 C 0.29025 0.61193 0.82856 0.0
C813 C 0.28319 0.61042 0.84544 0.0
C814 C 0.25253 0.60855 0.85079 0.0
C815 C 0.31868 0.60531 0.82289 0.0
C816 C 0.313 0.57033 0.82068 0.0
C817 C 0.35187 0.6326 0.82222 0.0
C818 C 0.35886 0.66981 0.8239 0.0
C819 C 0.35572 0.68637 0.83924 0.0
C820 C 0.36263 0.72165 0.84071 0.0
C821 C 0.37294 0.74066 0.82695 0.0
C822 C 0.37645 0.72442 0.8117 0.0
C823 C 0.36953 0.68913 0.81017 0.0
H824 H 0.37832 0.76798 0.82812 0.0
H825 H 0.31317 0.4268 0.81764 0.0
H826 H 0.89712 0.36451 0.13116 0.0
H827 H 0.84347 0.31363 0.13551 0.0
H828 H 0.89385 0.28768 0.17386 0.0
H829 H 0.94777 0.33786 0.16912 0.0
H830 H 0.84953 0.22978 0.15596 0.0
H831 H 0.84697 0.33441 0.18287 0.0
H832 H 0.85046 0.39344 0.1837 0.0
H833 H 0.76711 0.35447 0.14712 0.0
H834 H 0.76335 0.29522 0.14596 0.0
H835 H 0.71521 0.13433 0.20606 0.0
H836 H 0.76616 0.17705 0.19431 0.0
H837 H 0.70381 0.18995 0.15695 0.0
H838 H 0.65248 0.14784 0.169 0.0
H839 H 0.75157 0.25227 0.17107 0.0
H840 H 0.75024 0.14604 0.14651 0.0
H841 H 0.74677 0.08706 0.14592 0.0
H842 H 0.83722 0.12879 0.17809 0.0
H843 H 0.84099 0.18797 0.17907 0.0
C844 C 0.89678 0.34761 0.14034 0.0
C845 C 0.92646 0.35511 0.14987 0.0
C846 C 0.8661 0.3187 0.1429 0.0
C847 C 0.86445 0.29722 0.15526 0.0
C848 C 0.89445 0.30392 0.1643 0.0
C849 C 0.92523 0.3326 0.1616 0.0
C850 C 0.83134 0.26872 0.15932 0.0
C851 C 0.8282 0.23474 0.15939 0.0
C852 C 0.80314 0.27496 0.16335 0.0
C853 C 0.80511 0.31048 0.16421 0.0
C854 C 0.82951 0.33848 0.17494 0.0
C855 C 0.83152 0.37198 0.17547 0.0
C856 C 0.80909 0.37775 0.16542 0.0
C857 C 0.7845 0.34998 0.15487 0.0
C858 C 0.78239 0.31643 0.15429 0.0
C859 C 0.71229 0.14627 0.19535 0.0
C860 C 0.67976 0.13779 0.18851 0.0
C861 C 0.74148 0.17043 0.18853 0.0
C862 C 0.73884 0.18645 0.17463 0.0
C863 C 0.70644 0.17779 0.16764 0.0
C864 C 0.67716 0.15354 0.17446 0.0
C865 C 0.76995 0.21344 0.16799 0.0
C866 C 0.77274 0.24717 0.16745 0.0
C867 C 0.79783 0.20697 0.16357 0.0
C868 C 0.79574 0.17142 0.16296 0.0
C869 C 0.76926 0.14261 0.15356 0.0
C870 C 0.76726 0.10914 0.15314 0.0
C871 C 0.79172 0.10417 0.16199 0.0
C872 C 0.81828 0.13267 0.17125 0.0
C873 C 0.82038 0.1662 0.17172 0.0
H874 H 0.79013 0.07823 0.16165 0.0
H875 H 0.81064 0.40367 0.16582 0.0
H876 H 1.00509 0.4364 0.09245 0.0
H877 H 0.01085 0.43896 0.06243 0.0
H878 H 0.08447 0.54791 0.07136 0.0
H879 H 0.0788 0.54577 0.10134 0.0
H880 H 0.03723 0.53628 0.04656 0.0
H881 H 0.11063 0.48709 0.06146 0.0
H882 H 0.12516 0.44516 0.07401 0.0
H883 H 0.0504 0.36028 0.04107 0.0
H884 H 0.03503 0.40166 0.0285 0.0
H885 H 0.0998 0.55854 0.96594 0.0
H886 H 0.09664 0.55504 0.99596 0.0
H887 H 0.02623 0.44498 0.987 0.0
H888 H 0.03032 0.44793 0.95694 0.0
H889 H 0.07199 0.45701 0.01189 0.0
H890 H 0.99805 0.50597 0.99725 0.0
H891 H 0.98293 0.54771 0.98492 0.0
H892 H 0.05822 0.63284 0.01753 0.0
H893 H 0.07413 0.59164 0.0299 0.0
C894 C 0.02245 0.46094 0.08804 0.0
C895 C 0.04151 0.49086 0.09931 0.0
C896 C 0.02582 0.4623 0.07089 0.0
C897 C 0.04832 0.49355 0.06471 0.0
C898 C 0.067 0.52355 0.0759 0.0
C899 C 0.06376 0.5222 0.09304 0.0
C900 C 0.05231 0.49509 0.04657 0.0
C901 C 0.04526 0.51928 0.03901 0.0
C902 C 0.06206 0.47234 0.03671 0.0
C903 C 0.07144 0.44743 0.04416 0.0
C904 C 0.09709 0.45945 0.05699 0.0
C905 C 0.10551 0.43579 0.06409 0.0
C906 C 0.08865 0.40007 0.05837 0.0
C907 C 0.0634 0.38795 0.04551 0.0
C908 C 0.05484 0.4115 0.03838 0.0
C909 C 0.08405 0.53346 0.97034 0.0
C910 C 0.06515 0.50355 0.95904 0.0
C911 C 0.082 0.53158 0.98751 0.0
C912 C 0.06077 0.49987 0.9937 0.0
C913 C 0.04262 0.46975 0.98248 0.0
C914 C 0.04475 0.47157 0.96531 0.0
C915 C 0.05694 0.49826 0.01187 0.0
C916 C 0.06398 0.47403 0.01944 0.0
C917 C 0.04713 0.52096 0.02176 0.0
C918 C 0.03751 0.54576 0.01438 0.0
C919 C 0.01156 0.53362 0.0017 0.0
C920 C 1.00282 0.55718 0.99472 0.0
C921 C 0.01966 0.59292 0.00041 0.0
C922 C 0.04523 0.60516 0.01312 0.0
C923 C 0.0541 0.58171 0.02013 0.0
H924 H 0.01285 0.61111 0.99499 0.0
H925 H 0.09521 0.38179 0.06388 0.0
H926 H 0.58973 0.07516 0.45837 0.0
H927 H 0.58928 0.0766 0.42824 0.0
H928 H 0.48637 0.99349 0.42337 0.0
H929 H 0.48646 0.99179 0.45359 0.0
H930 H 0.57997 0.02543 0.40264 0.0
H931 H 0.44485 0.01252 0.3919 0.0
H932 H 0.40318 0.02574 0.40747 0.0
H933 H 0.48418 0.10842 0.43854 0.0
H934 H 0.52642 0.09632 0.42292 0.0
H935 H 0.52407 0.97988 0.31743 0.0
H936 H 0.52559 0.98217 0.34784 0.0
H937 H 0.5452 0.0905 0.352 0.0
H938 H 0.54346 0.08832 0.32149 0.0
H939 H 0.4957 0.05055 0.3733 0.0
H940 H 0.60904 0.07445 0.35889 0.0
H941 H 0.65245 0.06367 0.34368 0.0
H942 H 0.61903 0.96515 0.36366 0.0
H943 H 0.57507 0.97511 0.3788 0.0
C944 C 0.56697 0.05707 0.45093 0.0
C945 C 0.53807 0.03338 0.45842 0.0
C946 C 0.56684 0.0579 0.4337 0.0
C947 C 0.53774 0.03535 0.42362 0.0
C948 C 0.50898 0.01133 0.43098 0.0
C949 C 0.50915 0.0103 0.44824 0.0
C950 C 0.53754 0.03722 0.40541 0.0
C951 C 0.56152 0.03086 0.39622 0.0
C952 C 0.51381 0.04493 0.39713 0.0
C953 C 0.48876 0.05321 0.40633 0.0
C954 C 0.45379 0.03368 0.40198 0.0
C955 C 0.43008 0.04101 0.41081 0.0
C956 C 0.44105 0.06789 0.424 0.0
C957 C 0.47576 0.08763 0.42833 0.0
C958 C 0.49959 0.08053 0.41949 0.0
C959 C 0.52845 0.00411 0.32482 0.0
C960 C 0.53367 0.03395 0.31711 0.0
C961 C 0.52949 0.00543 0.34217 0.0
C962 C 0.53567 0.03655 0.35213 0.0
C963 C 0.5404 0.06625 0.3445 0.0
C964 C 0.53966 0.06505 0.32712 0.0
C965 C 0.53772 0.03809 0.37052 0.0
C966 C 0.51411 0.04509 0.37974 0.0
C967 C 0.56204 0.03138 0.37888 0.0
C968 C 0.58856 0.02538 0.36986 0.0
C969 C 0.61076 0.05035 0.35993 0.0
C970 C 0.6355 0.04442 0.35134 0.0
C971 C 0.63844 0.01371 0.35267 0.0
C972 C 0.6167 0.98891 0.36262 0.0
C973 C 0.59189 0.9947 0.37123 0.0
H974 H 0.65762 0.00916 0.34601 0.0
H975 H 0.42265 0.07344 0.43085 0.0
H976 H 0.57216 0.60324 0.7866 0.0
H977 H 0.57156 0.60758 0.7566 0.0
H978 H 0.58314 0.51288 0.74737 0.0
H979 H 0.58656 0.51028 0.77744 0.0
H980 H 0.6169 0.55273 0.72656 0.0
H981 H 0.5032 0.51777 0.74403 0.0
H982 H 0.45883 0.52277 0.76102 0.0
H983 H 0.4808 0.62081 0.74272 0.0
H984 H 0.52576 0.61674 0.72586 0.0
H985 H 0.54076 0.49974 0.64374 0.0
H986 H 0.54709 0.50336 0.67401 0.0
H987 H 0.57755 0.61427 0.67803 0.0
H988 H 0.57336 0.61158 0.64767 0.0
H989 H 0.5233 0.56899 0.70092 0.0
H990 H 0.63731 0.60012 0.68277 0.0
H991 H 0.67902 0.59055 0.66546 0.0
H992 H 0.65092 0.492 0.68461 0.0
H993 H 0.60864 0.50075 0.70185 0.0
C994 C 0.57493 0.58363 0.7781 0.0
C995 C 0.57924 0.55635 0.78421 0.0
C996 C 0.57425 0.5859 0.76098 0.0
C997 C 0.57623 0.55996 0.74962 0.0
C998 C 0.58141 0.53316 0.75581 0.0
C999 C 0.5833 0.53161 0.77298 0.0
C1000 C 0.57241 0.56035 0.73131 0.0
C1001 C 0.59616 0.55591 0.72102 0.0
C1002 C 0.54563 0.56497 0.72394 0.0
C1003 C 0.51809 0.56711 0.7338 0.0
C1004 C 0.49869 0.54048 0.74369 0.0
C1005 C 0.47345 0.54316 0.75331 0.0
C1006 C 0.46706 0.57213 0.75298 0.0
C1007 C 0.48577 0.59838 0.74296 0.0
C1008 C 0.51117 0.59592 0.73338 0.0
C1009 C 0.54929 0.52508 0.65096 0.0
C1010 C 0.55683 0.55543 0.64312 0.0
C1011 C 0.55254 0.52697 0.66829 0.0
C1012 C 0.56282 0.55907 0.67817 0.0
C1013 C 0.56942 0.58924 0.67055 0.0
C1014 C 0.56679 0.58754 0.65318 0.0
C1015 C 0.56756 0.56113 0.69645 0.0
C1016 C 0.54399 0.56595 0.70663 0.0
C1017 C 0.59397 0.55607 0.7037 0.0
C1018 C 0.61958 0.55093 0.69346 0.0
C1019 C 0.6398 0.57626 0.68317 0.0
C1020 C 0.66359 0.57102 0.6734 0.0
C1021 C 0.66755 0.54064 0.6739 0.0
C1022 C 0.64779 0.51549 0.68422 0.0
C1023 C 0.62393 0.5206 0.694 0.0
H1024 H 0.68598 0.53663 0.66633 0.0
H1025 H 0.44758 0.5742 0.76047 0.0
H1026 H 0.49818 0.98335 0.56217 0.0
H1027 H 0.50103 0.9799 0.59208 0.0
H1028 H 0.59067 0.07996 0.59822 0.0
H1029 H 0.58837 0.08353 0.56827 0.0
H1030 H 0.59817 0.03282 0.61538 0.0
H1031 H 0.51415 0.07357 0.60904 0.0
H1032 H 0.4618 0.07216 0.59728 0.0
H1033 H 0.40209 0.97209 0.61478 0.0
H1034 H 0.45417 0.97268 0.62646 0.0
H1035 H 0.6005 0.0752 0.70274 0.0
H1036 H 0.59758 0.07416 0.67241 0.0
H1037 H 0.51033 0.97227 0.66863 0.0
H1038 H 0.51279 0.97339 0.69904 0.0
H1039 H 0.50086 0.01785 0.65017 0.0
H1040 H 0.58527 0.97849 0.65748 0.0
H1041 H 0.63785 0.98066 0.66937 0.0
H1042 H 0.69712 0.07898 0.65021 0.0
H1043 H 0.64482 0.07766 0.63839 0.0
C1044 C 0.5185 0.0047 0.56985 0.0
C1045 C 0.54299 0.0338 0.5628 0.0
C1046 C 0.52001 0.0027 0.58697 0.0
C1047 C 0.54587 0.02983 0.59738 0.0
C1048 C 0.5705 0.05875 0.59039 0.0
C1049 C 0.56905 0.06078 0.57327 0.0
C1050 C 0.54736 0.02799 0.61557 0.0
C1051 C 0.57706 0.02998 0.62303 0.0
C1052 C 0.51946 0.02339 0.62545 0.0
C1053 C 0.4881 0.02301 0.61847 0.0
C1054 C 0.48989 0.05113 0.61026 0.0
C1055 C 0.46026 0.0505 0.60363 0.0
C1056 C 0.42865 0.02201 0.60524 0.0
C1057 C 0.4266 0.99412 0.61352 0.0
C1058 C 0.45616 0.9946 0.62016 0.0
C1059 C 0.58067 0.0526 0.69544 0.0
C1060 C 0.55684 0.02438 0.70323 0.0
C1061 C 0.57919 0.05192 0.67813 0.0
C1062 C 0.55389 0.02302 0.6683 0.0
C1063 C 0.53011 0.99476 0.67602 0.0
C1064 C 0.53168 0.99533 0.69335 0.0
C1065 C 0.55174 0.02288 0.64999 0.0
C1066 C 0.52191 0.02054 0.64251 0.0
C1067 C 0.57955 0.02726 0.64011 0.0
C1068 C 0.61107 0.02813 0.64718 0.0
C1069 C 0.60948 1.00073 0.65592 0.0
C1070 C 0.63924 1.00177 0.66263 0.0
C1071 C 0.6708 0.02998 0.66058 0.0
C1072 C 0.67266 0.05717 0.6518 0.0
C1073 C 0.64296 0.05627 0.64508 0.0
H1074 H 0.69381 0.03074 0.66578 0.0
H1075 H 0.40574 0.02157 0.6001 0.0
H1076 H 0.58818 0.50443 0.88744 0.0
H1077 H 0.5852 0.50219 0.91767 0.0
H1078 H 0.5459 0.57797 0.92153 0.0
H1079 H 0.54786 0.57958 0.89124 0.0
H1080 H 0.60276 0.59189 0.94521 0.0
H1081 H 0.4935 0.50358 0.92425 0.0
H1082 H 0.45056 0.45049 0.90772 0.0
H1083 H 0.48757 0.38749 0.93085 0.0
H1084 H 0.53179 0.44037 0.94691 0.0
H1085 H 0.55133 0.57394 0.02917 0.0
H1086 H 0.5537 0.57859 -0.00082 0.0
H1087 H 0.57496 0.48972 0.99161 0.0
H1088 H 0.57172 0.48432 0.0215 0.0
H1089 H 0.52606 0.48384 0.96972 0.0
H1090 H 0.63736 0.57275 0.98958 0.0
H1091 H 0.67854 0.62555 0.00708 0.0
H1092 H 0.63567 0.68686 0.98706 0.0
H1093 H 0.5939 0.63429 0.9696 0.0
C1094 C 0.57892 0.52061 0.89474 0.0
C1095 C 0.56822 0.54217 0.88701 0.0
C1096 C 0.57714 0.51922 0.91197 0.0
C1097 C 0.5653 0.53989 0.92178 0.0
C1098 C 0.5551 0.56184 0.91414 0.0
C1099 C 0.5561 0.56261 0.89686 0.0
C1100 C 0.56369 0.53863 0.94004 0.0
C1101 C 0.58573 0.56841 0.9506 0.0
C1102 C 0.54183 0.50778 0.94699 0.0
C1103 C 0.51642 0.47613 0.9366 0.0
C1104 C 0.49308 0.47855 0.92552 0.0
C1105 C 0.46841 0.44844 0.91624 0.0
C1106 C 0.46645 0.41564 0.91814 0.0
C1107 C 0.48926 0.41292 0.92926 0.0
C1108 C 0.51425 0.44298 0.93839 0.0
C1109 C 0.55641 0.55532 0.02111 0.0
C1110 C 0.56136 0.52876 0.02773 0.0
C1111 C 0.55807 0.55822 0.00399 0.0
C1112 C 0.56481 0.53469 0.99317 0.0
C1113 C 0.56984 0.50823 -0.00025 0.0
C1114 C 0.56824 0.50535 0.01685 0.0
C1115 C 0.56554 0.53685 0.97492 0.0
C1116 C 0.54322 0.50727 0.96433 0.0
C1117 C 0.58714 0.56785 0.96796 0.0
C1118 C 0.61228 0.59951 0.97841 0.0
C1119 C 0.63653 0.59743 0.98901 0.0
C1120 C 0.66001 0.62733 -0.0011 0.0
C1121 C 0.65966 0.65952 0.99821 0.0
C1122 C 0.63588 0.6619 0.9876 0.0
C1123 C 0.61231 0.63207 0.97769 0.0
H1124 H 0.67786 0.68264 0.00588 0.0
H1125 H 0.44715 0.39232 0.91105 0.0
H1126 H 0.07926 0.52703 0.21085 0.0
H1127 H 0.07167 0.52807 0.24086 0.0
H1128 H 0.96641 0.45191 0.23171 0.0
H1129 H 0.97372 0.45063 0.20166 0.0
H1130 H 0.97558 0.50863 0.25452 0.0
H1131 H 0.02066 0.42592 0.24551 0.0
H1132 H 0.06139 0.40469 0.23522 0.0
H1133 H 0.14181 0.48867 0.26606 0.0
H1134 H 0.10164 0.51071 0.27636 0.0
H1135 H 0.94793 0.48258 0.33986 0.0
H1136 H 0.95108 0.47247 0.30973 0.0
H1137 H 0.05981 0.53724 0.31441 0.0
H1138 H 0.05716 0.54581 0.34457 0.0
H1139 H 0.04578 0.48187 0.29341 0.0
H1140 H 1.00305 0.56712 0.30115 0.0
H1141 H 0.96383 0.59073 0.31103 0.0
H1142 H 0.88088 0.50502 0.28232 0.0
H1143 H 0.91953 0.48061 0.27245 0.0
C1144 C 0.05451 0.5104 0.21521 0.0
C1145 C 0.02712 0.48869 0.20387 0.0
C1146 C 0.05027 0.51092 0.23235 0.0
C1147 C 0.01855 0.48985 0.23847 0.0
C1148 C 0.9911 0.46827 0.22721 0.0
C1149 C 0.99539 0.4675 0.21006 0.0
C1150 C 0.01393 0.49104 0.25665 0.0
C1151 C 0.99049 0.50222 0.26304 0.0
C1152 C 0.03399 0.48345 0.26771 0.0
C1153 C 0.05818 0.47014 0.2616 0.0
C1154 C 0.04708 0.44003 0.25 0.0
C1155 C 0.07006 0.42782 0.24418 0.0
C1156 C 0.10418 0.44537 0.24995 0.0
C1157 C 0.11537 0.47512 0.26159 0.0
C1158 C 0.0925 0.48746 0.26744 0.0
C1159 C 0.97258 0.49431 0.33452 0.0
C1160 C 1.00227 0.51523 0.34467 0.0
C1161 C 0.97428 0.48883 0.31725 0.0
C1162 C 1.00562 0.50455 0.30976 0.0
C1163 C 0.03532 0.52496 0.31989 0.0
C1164 C 0.03369 0.53018 0.33713 0.0
C1165 C 0.00769 0.49994 0.29139 0.0
C1166 C 0.03066 0.48807 0.28494 0.0
C1167 C 0.98739 0.50723 0.28027 0.0
C1168 C 0.9641 0.52182 0.28623 0.0
C1169 C 0.97638 0.55314 0.29706 0.0
C1170 C 0.95427 0.56669 0.30264 0.0
C1171 C 0.91986 0.54932 0.29735 0.0
C1172 C 0.90752 0.5184 0.28644 0.0
C1173 C 0.92952 0.5047 0.28085 0.0
H1174 H 0.90278 0.55986 0.30168 0.0
H1175 H 0.12193 0.43587 0.24543 0.0
loop_
_geom_bond_atom_site_label_1
_geom_bond_atom_site_label_2
_geom_bond_distance
_geom_bond_site_symmetry_2
_ccdc_geom_bond_type
Tb0 O3 2.453 1_455 S
Tb0 O4 2.596 1_455 S
Tb0 O5 2.374 . S
Tb0 O13 2.343 . S
Tb0 O15 2.353 . S
Tb0 O17 2.427 . S
Tb0 O18 2.513 . S
C1 O5 1.251 . S
C1 O7 1.263 . S
Tb2 O4 2.343 1_455 S
Tb2 O7 2.353 . S
Tb2 O10 2.427 1_455 S
Tb2 O11 2.513 1_455 S
Tb2 O12 2.453 . S
Tb2 O13 2.596 . S
Tb2 O14 2.374 . S
O3 Tb0 2.453 1_655 S
O3 C19 1.245 . S
O4 Tb0 2.596 1_655 S
O4 Tb2 2.343 1_655 S
O4 C19 1.259 . S
O5 Tb0 2.374 . S
O5 C1 1.251 . S
C6 O10 1.275 . S
C6 O11 1.246 . S
O7 C1 1.263 . S
O7 Tb2 2.353 . S
C8 O12 1.245 . S
C8 O13 1.259 . S
C9 O14 1.250 . S
C9 O15 1.263 . S
O10 Tb2 2.427 1_655 S
O10 C6 1.275 . S
O11 Tb2 2.513 1_655 S
O11 C6 1.246 . S
O12 Tb2 2.453 . S
O12 C8 1.245 . S
O13 Tb0 2.343 . S
O13 Tb2 2.596 . S
O13 C8 1.259 . S
O14 Tb2 2.374 . S
O14 C9 1.250 . S
O15 Tb0 2.353 . S
O15 C9 1.263 . S
C16 O17 1.275 . S
C16 O18 1.246 . S
O17 Tb0 2.427 . S
O17 C16 1.275 . S
O18 Tb0 2.513 . S
O18 C16 1.246 . S
C19 O3 1.245 . S
C19 O4 1.259 . S
Tb20 O23 2.453 . S
Tb20 O24 2.596 . S
Tb20 O25 2.374 . S
Tb20 O33 2.343 1_545 S
Tb20 O35 2.353 . S
Tb20 O37 2.427 1_545 S
Tb20 O38 2.513 1_545 S
C21 O25 1.251 . S
C21 O27 1.263 . S
Tb22 O24 2.343 . S
Tb22 O27 2.353 . S
Tb22 O30 2.427 . S
Tb22 O31 2.513 . S
Tb22 O32 2.453 1_545 S
Tb22 O33 2.596 1_545 S
Tb22 O34 2.374 . S
O23 Tb20 2.453 . S
O23 C39 1.245 . S
O24 Tb20 2.596 . S
O24 Tb22 2.343 . S
O24 C39 1.259 . S
O25 Tb20 2.374 . S
O25 C21 1.251 . S
C26 O30 1.275 . S
C26 O31 1.246 . S
O27 C21 1.263 . S
O27 Tb22 2.353 . S
C28 O32 1.245 . S
C28 O33 1.259 . S
C29 O34 1.250 . S
C29 O35 1.263 . S
O30 Tb22 2.427 . S
O30 C26 1.275 . S
O31 Tb22 2.513 . S
O31 C26 1.246 . S
O32 Tb22 2.453 1_565 S
O32 C28 1.245 . S
O33 Tb20 2.343 1_565 S
O33 Tb22 2.596 1_565 S
O33 C28 1.259 . S
O34 Tb22 2.374 . S
O34 C29 1.250 . S
O35 Tb20 2.353 . S
O35 C29 1.263 . S
C36 O37 1.275 . S
C36 O38 1.246 . S
O37 Tb20 2.427 1_565 S
O37 C36 1.275 . S
O38 Tb20 2.513 1_565 S
O38 C36 1.246 . S
C39 O23 1.245 . S
C39 O24 1.259 . S
Tb40 O43 2.453 . S
Tb40 O44 2.596 . S
Tb40 O45 2.374 . S
Tb40 O53 2.343 . S
Tb40 O55 2.353 . S
Tb40 O57 2.427 . S
Tb40 O58 2.513 . S
C41 O45 1.251 . S
C41 O47 1.263 . S
Tb42 O44 2.343 . S
Tb42 O47 2.353 . S
Tb42 O50 2.427 . S
Tb42 O51 2.513 . S
Tb42 O52 2.453 . S
Tb42 O53 2.596 . S
Tb42 O54 2.374 . S
O43 Tb40 2.453 . S
O43 C59 1.245 . S
O44 Tb40 2.596 . S
O44 Tb42 2.343 . S
O44 C59 1.259 . S
O45 Tb40 2.374 . S
O45 C41 1.251 . S
C46 O50 1.275 . S
C46 O51 1.246 . S
O47 C41 1.263 . S
O47 Tb42 2.353 . S
C48 O52 1.245 . S
C48 O53 1.259 . S
C49 O54 1.250 . S
C49 O55 1.263 . S
O50 Tb42 2.427 . S
O50 C46 1.275 . S
O51 Tb42 2.513 . S
O51 C46 1.246 . S
O52 Tb42 2.453 . S
O52 C48 1.245 . S
O53 Tb40 2.343 . S
O53 Tb42 2.596 . S
O53 C48 1.259 . S
O54 Tb42 2.374 . S
O54 C49 1.250 . S
O55 Tb40 2.353 . S
O55 C49 1.263 . S
C56 O57 1.275 . S
C56 O58 1.246 . S
O57 Tb40 2.427 . S
O57 C56 1.275 . S
O58 Tb40 2.513 . S
O58 C56 1.246 . S
C59 O43 1.245 . S
C59 O44 1.259 . S
C60 C61 1.384 . S
C60 H73 0.947 . S
C60 C95 1.382 . S
C61 C60 1.384 . S
C61 C62 1.378 . S
C62 C61 1.378 . S
C62 C63 1.378 . S
C62 H74 0.952 . S
C63 C62 1.378 . S
C63 H75 0.950 . S
C63 C94 1.383 . S
H64 C83 0.947 . S
H65 C84 0.946 . S
H66 C86 0.953 . S
H67 C87 0.945 . S
H68 C89 0.952 . S
H69 C90 0.949 . S
H70 C92 0.966 . S
H71 C93 0.948 1_565 S
H72 C95 0.951 . S
H73 C60 0.947 . S
H74 C62 0.952 . S
H75 C63 0.950 . S
N76 C79 1.382 . S
N76 C81 1.363 . S
N77 C79 1.371 . S
N77 C80 1.372 . S
N78 C80 1.361 . S
N78 C81 1.377 . S
C79 N76 1.382 . S
C79 N77 1.371 . S
C79 C82 1.480 . S
C80 N77 1.372 . S
C80 N78 1.361 . S
C80 C88 1.457 . S
C81 N76 1.363 . S
C81 N78 1.377 . S
C81 C94 1.479 1_545 S
C82 C79 1.480 . S
C82 C83 1.383 . S
C82 C87 1.385 . S
C83 H64 0.947 . S
C83 C82 1.383 . S
C83 C84 1.388 . S
C84 H65 0.946 . S
C84 C83 1.388 . S
C84 C85 1.384 . S
C85 C84 1.384 . S
C85 C86 1.377 . S
C86 H66 0.953 . S
C86 C85 1.377 . S
C86 C87 1.369 . S
C87 H67 0.945 . S
C87 C82 1.385 . S
C87 C86 1.369 . S
C88 C80 1.457 . S
C88 C89 1.372 . S
C88 C93 1.364 . S
C89 H68 0.952 . S
C89 C88 1.372 . S
C89 C90 1.389 . S
C90 H69 0.949 . S
C90 C89 1.389 . S
C90 C91 1.387 . S
C91 C90 1.387 . S
C91 C92 1.372 . S
C92 H70 0.966 . S
C92 C91 1.372 . S
C92 C93 1.379 . S
C93 H71 0.948 1_545 S
C93 C88 1.364 . S
C93 C92 1.379 . S
C94 C63 1.383 . S
C94 C81 1.479 1_565 S
C94 C95 1.398 . S
C95 C60 1.382 . S
C95 H72 0.951 . S
C95 C94 1.398 . S
C96 C97 1.384 . S
C96 H109 0.947 . S
C96 C131 1.382 . S
C97 C96 1.384 . S
C97 C98 1.378 . S
C98 C97 1.378 . S
C98 C99 1.378 . S
C98 H110 0.952 . S
C99 C98 1.378 . S
C99 H111 0.950 . S
C99 C130 1.383 . S
H100 C119 0.947 . S
H101 C120 0.946 . S
H102 C122 0.953 . S
H103 C123 0.945 . S
H104 C125 0.952 . S
H105 C126 0.949 . S
H106 C128 0.950 . S
H107 C129 0.948 . S
H108 C131 0.951 . S
H109 C96 0.947 . S
H110 C98 0.952 . S
H111 C99 0.950 . S
N112 C115 1.382 . S
N112 C117 1.363 . S
N113 C115 1.371 . S
N113 C116 1.372 . S
N114 C116 1.361 . S
N114 C117 1.377 . S
C115 N112 1.382 . S
C115 N113 1.371 . S
C115 C118 1.480 . S
C116 N113 1.372 . S
C116 N114 1.361 . S
C116 C124 1.457 . S
C117 N112 1.363 . S
C117 N114 1.377 . S
C117 C130 1.479 . S
C118 C115 1.480 . S
C118 C119 1.383 . S
C118 C123 1.385 . S
C119 H100 0.947 . S
C119 C118 1.383 . S
C119 C120 1.388 . S
C120 H101 0.946 . S
C120 C119 1.388 . S
C120 C121 1.384 . S
C121 C120 1.384 . S
C121 C122 1.377 . S
C122 H102 0.953 . S
C122 C121 1.377 . S
C122 C123 1.369 . S
C123 H103 0.945 . S
C123 C118 1.385 . S
C123 C122 1.369 . S
C124 C116 1.457 . S
C124 C125 1.372 . S
C124 C129 1.364 . S
C125 H104 0.952 . S
C125 C124 1.372 . S
C125 C126 1.389 . S
C126 H105 0.949 . S
C126 C125 1.389 . S
C126 C127 1.387 . S
C127 C126 1.387 . S
C127 C128 1.372 . S
C128 H106 0.950 . S
C128 C127 1.372 . S
C128 C129 1.379 . S
C129 H107 0.948 . S
C129 C124 1.364 . S
C129 C128 1.379 . S
C130 C99 1.383 . S
C130 C117 1.479 . S
C130 C131 1.398 . S
C131 C96 1.382 . S
C131 H108 0.951 . S
C131 C130 1.398 . S
C132 C133 1.384 . S
C132 H145 0.947 . S
C132 C167 1.382 . S
C133 C132 1.384 . S
C133 C134 1.378 . S
C134 C133 1.378 . S
C134 C135 1.378 1_655 S
C134 H146 0.952 . S
C135 C134 1.378 1_455 S
C135 H147 0.950 . S
C135 C166 1.383 . S
H136 C155 0.947 . S
H137 C156 0.946 . S
H138 C158 0.953 . S
H139 C159 0.945 . S
H140 C161 0.952 . S
H141 C162 0.949 . S
H142 C164 0.950 . S
H143 C165 0.948 . S
H144 C167 0.951 . S
H145 C132 0.947 . S
H146 C134 0.952 . S
H147 C135 0.950 . S
N148 C151 1.382 . S
N148 C153 1.363 . S
N149 C151 1.371 . S
N149 C152 1.372 . S
N150 C152 1.361 . S
N150 C153 1.377 . S
C151 N148 1.382 . S
C151 N149 1.371 . S
C151 C154 1.480 . S
C152 N149 1.372 . S
C152 N150 1.361 . S
C152 C160 1.457 . S
C153 N148 1.363 . S
C153 N150 1.377 . S
C153 C166 1.479 . S
C154 C151 1.480 . S
C154 C155 1.383 . S
C154 C159 1.385 . S
C155 H136 0.947 . S
C155 C154 1.383 . S
C155 C156 1.388 . S
C156 H137 0.946 . S
C156 C155 1.388 . S
C156 C157 1.384 . S
C157 C156 1.384 . S
C157 C158 1.377 . S
C158 H138 0.953 . S
C158 C157 1.377 . S
C158 C159 1.369 . S
C159 H139 0.945 . S
C159 C154 1.385 . S
C159 C158 1.369 . S
C160 C152 1.457 . S
C160 C161 1.372 . S
C160 C165 1.364 . S
C161 H140 0.952 . S
C161 C160 1.372 . S
C161 C162 1.389 . S
C162 H141 0.949 . S
C162 C161 1.389 . S
C162 C163 1.387 . S
C163 C162 1.387 . S
C163 C164 1.372 . S
C164 H142 0.950 . S
C164 C163 1.372 . S
C164 C165 1.379 . S
C165 H143 0.948 . S
C165 C160 1.364 . S
C165 C164 1.379 . S
C166 C135 1.383 . S
C166 C153 1.479 . S
C166 C167 1.398 1_455 S
C167 C132 1.382 . S
C167 H144 0.951 . S
C167 C166 1.398 1_655 S
C168 C169 1.384 . S
C168 H181 0.947 . S
C168 C203 1.382 . S
C169 C168 1.384 . S
C169 C170 1.378 . S
C170 C169 1.378 . S
C170 C171 1.378 . S
C170 H182 0.952 . S
C171 C170 1.378 . S
C171 H183 0.950 . S
C171 C202 1.383 . S
H172 C191 0.947 . S
H173 C192 0.946 . S
H174 C194 0.953 . S
H175 C195 0.945 . S
H176 C197 0.952 . S
H177 C198 0.949 . S
H178 C200 0.950 . S
H179 C201 0.948 . S
H180 C203 0.951 . S
H181 C168 0.947 . S
H182 C170 0.952 . S
H183 C171 0.950 . S
N184 C187 1.382 1_455 S
N184 C189 1.363 . S
N185 C187 1.371 . S
N185 C188 1.372 1_655 S
N186 C188 1.361 . S
N186 C189 1.377 . S
C187 N184 1.382 1_655 S
C187 N185 1.371 . S
C187 C190 1.480 . S
C188 N185 1.372 1_455 S
C188 N186 1.361 . S
C188 C196 1.457 . S
C189 N184 1.363 . S
C189 N186 1.377 . S
C189 C202 1.479 . S
C190 C187 1.480 . S
C190 C191 1.383 . S
C190 C195 1.385 . S
C191 H172 0.947 . S
C191 C190 1.383 . S
C191 C192 1.388 . S
C192 H173 0.946 . S
C192 C191 1.388 . S
C192 C193 1.384 . S
C193 C192 1.384 . S
C193 C194 1.377 . S
C194 H174 0.953 . S
C194 C193 1.377 . S
C194 C195 1.369 . S
C195 H175 0.945 . S
C195 C190 1.385 . S
C195 C194 1.369 . S
C196 C188 1.457 . S
C196 C197 1.372 1_455 S
C196 C201 1.364 . S
C197 H176 0.952 . S
C197 C196 1.372 1_655 S
C197 C198 1.389 . S
C198 H177 0.949 . S
C198 C197 1.389 . S
C198 C199 1.387 1_655 S
C199 C198 1.387 1_455 S
C199 C200 1.372 . S
C200 H178 0.950 . S
C200 C199 1.372 . S
C200 C201 1.379 . S
C201 H179 0.948 . S
C201 C196 1.364 . S
C201 C200 1.379 . S
C202 C171 1.383 . S
C202 C189 1.479 . S
C202 C203 1.398 . S
C203 C168 1.382 . S
C203 H180 0.951 . S
C203 C202 1.398 . S
C204 C205 1.384 . S
C204 H217 0.947 . S
C204 C239 1.382 . S
C205 C204 1.384 . S
C205 C206 1.378 . S
C206 C205 1.378 . S
C206 C207 1.378 . S
C206 H218 0.952 . S
C207 C206 1.378 . S
C207 H219 0.950 . S
C207 C238 1.383 . S
H208 C227 0.947 . S
H209 C228 0.946 . S
H210 C230 0.953 . S
H211 C231 0.945 . S
H212 C233 0.952 . S
H213 C234 0.949 . S
H214 C236 0.950 . S
H215 C237 0.948 . S
H216 C239 0.951 . S
H217 C204 0.947 . S
H218 C206 0.952 . S
H219 C207 0.950 . S
N220 C223 1.359 1_545 S
N220 C225 1.363 . S
N221 C223 1.371 . S
N221 C224 1.372 1_565 S
N222 C224 1.361 . S
N222 C225 1.377 . S
C223 N220 1.359 1_565 S
C223 N221 1.371 . S
C223 C226 1.504 . S
C224 N221 1.372 1_545 S
C224 N222 1.361 . S
C224 C232 1.457 . S
C225 N220 1.363 . S
C225 N222 1.377 . S
C225 C238 1.479 . S
C226 C223 1.504 . S
C226 C227 1.383 . S
C226 C231 1.385 . S
C227 H208 0.947 . S
C227 C226 1.383 . S
C227 C228 1.388 . S
C228 H209 0.946 . S
C228 C227 1.388 . S
C228 C229 1.384 . S
C229 C228 1.384 . S
C229 C230 1.377 . S
C230 H210 0.953 . S
C230 C229 1.377 . S
C230 C231 1.369 . S
C231 H211 0.945 . S
C231 C226 1.385 . S
C231 C230 1.369 . S
C232 C224 1.457 . S
C232 C233 1.372 1_545 S
C232 C237 1.364 . S
C233 H212 0.952 . S
C233 C232 1.372 1_565 S
C233 C234 1.389 . S
C234 H213 0.949 . S
C234 C233 1.389 . S
C234 C235 1.387 1_565 S
C235 C234 1.387 1_545 S
C235 C236 1.372 . S
C236 H214 0.950 . S
C236 C235 1.372 . S
C236 C237 1.379 . S
C237 H215 0.948 . S
C237 C232 1.364 . S
C237 C236 1.379 . S
C238 C207 1.383 . S
C238 C225 1.479 . S
C238 C239 1.398 . S
C239 C204 1.382 . S
C239 H216 0.951 . S
C239 C238 1.398 . S
C240 C241 1.384 . S
C240 H253 0.947 . S
C240 C275 1.382 . S
C241 C240 1.384 . S
C241 C242 1.378 . S
C242 C241 1.378 . S
C242 C243 1.378 . S
C242 H254 0.952 . S
C243 C242 1.378 . S
C243 H255 0.950 . S
C243 C274 1.383 . S
H244 C263 0.947 . S
H245 C264 0.946 . S
H246 C266 0.953 . S
H247 C267 0.945 . S
H248 C269 0.952 . S
H249 C270 0.949 . S
H250 C272 0.950 . S
H251 C273 0.948 . S
H252 C275 0.951 . S
H253 C240 0.947 . S
H254 C242 0.952 . S
H255 C243 0.950 . S
N256 C259 1.382 . S
N256 C261 1.363 . S
N257 C259 1.371 . S
N257 C260 1.372 . S
N258 C260 1.361 . S
N258 C261 1.377 . S
C259 N256 1.382 . S
C259 N257 1.371 . S
C259 C262 1.480 . S
C260 N257 1.372 . S
C260 N258 1.361 . S
C260 C268 1.457 . S
C261 N256 1.363 . S
C261 N258 1.377 . S
C261 C274 1.479 . S
C262 C259 1.480 . S
C262 C263 1.383 . S
C262 C267 1.385 . S
C263 H244 0.947 . S
C263 C262 1.383 . S
C263 C264 1.388 . S
C264 H245 0.946 . S
C264 C263 1.388 . S
C264 C265 1.384 . S
C265 C264 1.384 . S
C265 C266 1.377 . S
C266 H246 0.953 . S
C266 C265 1.377 . S
C266 C267 1.369 . S
C267 H247 0.945 . S
C267 C262 1.385 . S
C267 C266 1.369 . S
C268 C260 1.457 . S
C268 C269 1.372 . S
C268 C273 1.364 . S
C269 H248 0.952 . S
C269 C268 1.372 . S
C269 C270 1.389 . S
C270 H249 0.949 . S
C270 C269 1.389 . S
C270 C271 1.387 . S
C271 C270 1.387 . S
C271 C272 1.372 . S
C272 H250 0.950 . S
C272 C271 1.372 . S
C272 C273 1.379 . S
C273 H251 0.948 . S
C273 C268 1.364 . S
C273 C272 1.379 . S
C274 C243 1.383 . S
C274 C261 1.479 . S
C274 C275 1.398 . S
C275 C240 1.382 . S
C275 H252 0.951 . S
C275 C274 1.398 . S
H276 C294 0.951 . S
H277 C296 0.951 . S
H278 C298 0.950 . S
H279 C299 0.950 . S
H280 C301 0.950 . S
H281 C304 0.950 . S
H282 C305 0.950 . S
H283 C307 0.950 . S
H284 C308 0.950 . S
H285 C309 0.951 . S
H286 C311 0.951 . S
H287 C313 0.950 . S
H288 C314 0.950 . S
H289 C316 0.950 . S
H290 C319 0.950 . S
H291 C320 0.950 . S
H292 C322 0.950 . S
H293 C323 0.950 . S
C294 H276 0.951 . S
C294 C295 1.366 . S
C294 C296 1.388 . S
C295 C294 1.366 . S
C295 C299 1.385 . S
C296 H277 0.951 . S
C296 C294 1.388 . S
C296 C297 1.366 . S
C297 C296 1.366 . S
C297 C298 1.414 . S
C297 C300 1.499 . S
C298 H278 0.950 . S
C298 C297 1.414 . S
C298 C299 1.374 . S
C299 H279 0.950 . S
C299 C295 1.385 . S
C299 C298 1.374 . S
C300 C297 1.499 . S
C300 C301 1.373 . S
C300 C302 1.389 . S
C301 H280 0.950 . S
C301 C300 1.373 . S
C301 C317 1.377 . S
C302 C300 1.389 . S
C302 C303 1.524 . S
C302 C316 1.377 . S
C303 C302 1.524 . S
C303 C304 1.397 . S
C303 C308 1.363 . S
C304 H281 0.950 . S
C304 C303 1.397 . S
C304 C305 1.334 . S
C305 H282 0.950 . S
C305 C304 1.334 . S
C305 C306 1.287 . S
C306 C305 1.287 . S
C306 C307 1.524 . S
C306 H325 0.913 . S
C307 H283 0.950 . S
C307 C306 1.524 . S
C307 C308 1.415 . S
C308 H284 0.950 . S
C308 C303 1.363 . S
C308 C307 1.415 . S
C309 H285 0.951 . S
C309 C310 1.366 . S
C309 C311 1.388 . S
C310 C309 1.366 . S
C310 C314 1.385 . S
C311 H286 0.951 . S
C311 C309 1.388 . S
C311 C312 1.366 . S
C312 C311 1.366 . S
C312 C313 1.414 . S
C312 C315 1.499 . S
C313 H287 0.950 . S
C313 C312 1.414 . S
C313 C314 1.374 . S
C314 H288 0.950 . S
C314 C310 1.385 . S
C314 C313 1.374 . S
C315 C312 1.499 . S
C315 C316 1.373 . S
C315 C317 1.389 . S
C316 H289 0.950 . S
C316 C302 1.377 . S
C316 C315 1.373 . S
C317 C301 1.377 . S
C317 C315 1.389 . S
C317 C318 1.524 . S
C318 C317 1.524 . S
C318 C319 1.397 . S
C318 C323 1.363 . S
C319 H290 0.950 . S
C319 C318 1.397 . S
C319 C320 1.334 . S
C320 H291 0.950 . S
C320 C319 1.334 . S
C320 C321 1.287 . S
C321 C320 1.287 . S
C321 C322 1.524 . S
C321 H324 0.999 . S
C322 H292 0.950 . S
C322 C321 1.524 . S
C322 C323 1.415 . S
C323 H293 0.950 . S
C323 C318 1.363 . S
C323 C322 1.415 . S
H324 C321 0.999 . S
H325 C306 0.913 . S
H326 C344 0.951 . S
H327 C346 0.951 . S
H328 C348 0.950 . S
H329 C349 0.950 . S
H330 C351 0.950 . S
H331 C354 0.950 . S
H332 C355 0.950 . S
H333 C357 0.950 . S
H334 C358 0.950 . S
H335 C359 0.951 . S
H336 C361 0.951 . S
H337 C363 0.950 . S
H338 C364 0.950 . S
H339 C366 0.950 . S
H340 C369 0.950 . S
H341 C370 0.950 . S
H342 C372 0.950 . S
H343 C373 0.950 . S
C344 H326 0.951 . S
C344 C345 1.366 . S
C344 C346 1.388 . S
C345 C344 1.366 . S
C345 C349 1.385 . S
C346 H327 0.951 . S
C346 C344 1.388 . S
C346 C347 1.366 . S
C347 C346 1.366 . S
C347 C348 1.414 . S
C347 C350 1.499 . S
C348 H328 0.950 . S
C348 C347 1.414 . S
C348 C349 1.374 . S
C349 H329 0.950 . S
C349 C345 1.385 . S
C349 C348 1.374 . S
C350 C347 1.499 . S
C350 C351 1.373 . S
C350 C352 1.389 . S
C351 H330 0.950 . S
C351 C350 1.373 . S
C351 C367 1.377 . S
C352 C350 1.389 . S
C352 C353 1.524 . S
C352 C366 1.377 . S
C353 C352 1.524 . S
C353 C354 1.397 . S
C353 C358 1.363 . S
C354 H331 0.950 . S
C354 C353 1.397 . S
C354 C355 1.334 . S
C355 H332 0.950 . S
C355 C354 1.334 . S
C355 C356 1.287 . S
C356 C355 1.287 . S
C356 C357 1.524 . S
C356 H375 0.913 . S
C357 H333 0.950 . S
C357 C356 1.524 . S
C357 C358 1.415 . S
C358 H334 0.950 . S
C358 C353 1.363 . S
C358 C357 1.415 . S
C359 H335 0.951 . S
C359 C360 1.366 . S
C359 C361 1.388 . S
C360 C359 1.366 . S
C360 C364 1.385 . S
C361 H336 0.951 . S
C361 C359 1.388 . S
C361 C362 1.366 . S
C362 C361 1.366 . S
C362 C363 1.414 . S
C362 C365 1.499 . S
C363 H337 0.950 . S
C363 C362 1.414 . S
C363 C364 1.374 . S
C364 H338 0.950 . S
C364 C360 1.385 . S
C364 C363 1.374 . S
C365 C362 1.499 . S
C365 C366 1.373 . S
C365 C367 1.389 . S
C366 H339 0.950 . S
C366 C352 1.377 . S
C366 C365 1.373 . S
C367 C351 1.377 . S
C367 C365 1.389 . S
C367 C368 1.524 . S
C368 C367 1.524 . S
C368 C369 1.397 . S
C368 C373 1.363 . S
C369 H340 0.950 . S
C369 C368 1.397 . S
C369 C370 1.334 . S
C370 H341 0.950 . S
C370 C369 1.334 . S
C370 C371 1.287 . S
C371 C370 1.287 . S
C371 C372 1.524 . S
C371 H374 0.999 . S
C372 H342 0.950 . S
C372 C371 1.524 . S
C372 C373 1.415 . S
C373 H343 0.950 . S
C373 C368 1.363 . S
C373 C372 1.415 . S
H374 C371 0.999 . S
H375 C356 0.913 . S
H376 C394 0.951 . S
H377 C396 0.951 . S
H378 C398 0.950 . S
H379 C399 0.950 . S
H380 C401 0.950 . S
H381 C404 0.950 . S
H382 C405 0.950 . S
H383 C407 0.950 . S
H384 C408 0.950 . S
H385 C409 0.951 . S
H386 C411 0.951 . S
H387 C413 0.950 . S
H388 C414 0.950 . S
H389 C416 0.950 . S
H390 C419 0.950 . S
H391 C420 0.950 . S
H392 C422 0.950 . S
H393 C423 0.950 . S
C394 H376 0.951 . S
C394 C395 1.366 . S
C394 C396 1.388 . S
C395 C394 1.366 . S
C395 C399 1.385 . S
C396 H377 0.951 . S
C396 C394 1.388 . S
C396 C397 1.366 . S
C397 C396 1.366 . S
C397 C398 1.414 . S
C397 C400 1.499 . S
C398 H378 0.950 . S
C398 C397 1.414 . S
C398 C399 1.374 . S
C399 H379 0.950 . S
C399 C395 1.385 . S
C399 C398 1.374 . S
C400 C397 1.499 . S
C400 C401 1.373 . S
C400 C402 1.389 . S
C401 H380 0.950 . S
C401 C400 1.373 . S
C401 C417 1.377 . S
C402 C400 1.389 . S
C402 C403 1.524 . S
C402 C416 1.377 . S
C403 C402 1.524 . S
C403 C404 1.397 . S
C403 C408 1.363 . S
C404 H381 0.950 . S
C404 C403 1.397 . S
C404 C405 1.334 . S
C405 H382 0.950 . S
C405 C404 1.334 . S
C405 C406 1.287 . S
C406 C405 1.287 . S
C406 C407 1.524 . S
C406 H425 0.913 . S
C407 H383 0.950 . S
C407 C406 1.524 . S
C407 C408 1.415 . S
C408 H384 0.950 . S
C408 C403 1.363 . S
C408 C407 1.415 . S
C409 H385 0.951 . S
C409 C410 1.366 . S
C409 C411 1.388 . S
C410 C409 1.366 . S
C410 C414 1.385 . S
C411 H386 0.951 . S
C411 C409 1.388 . S
C411 C412 1.366 . S
C412 C411 1.366 . S
C412 C413 1.414 . S
C412 C415 1.499 . S
C413 H387 0.950 . S
C413 C412 1.414 . S
C413 C414 1.374 . S
C414 H388 0.950 . S
C414 C410 1.385 . S
C414 C413 1.374 . S
C415 C412 1.499 . S
C415 C416 1.373 . S
C415 C417 1.389 . S
C416 H389 0.950 . S
C416 C402 1.377 . S
C416 C415 1.373 . S
C417 C401 1.377 . S
C417 C415 1.389 . S
C417 C418 1.524 . S
C418 C417 1.524 . S
C418 C419 1.397 . S
C418 C423 1.363 . S
C419 H390 0.950 . S
C419 C418 1.397 . S
C419 C420 1.334 . S
C420 H391 0.950 . S
C420 C419 1.334 . S
C420 C421 1.287 . S
C421 C420 1.287 . S
C421 C422 1.524 . S
C421 H424 0.999 . S
C422 H392 0.950 . S
C422 C421 1.524 . S
C422 C423 1.415 . S
C423 H393 0.950 . S
C423 C418 1.363 . S
C423 C422 1.415 . S
H424 C421 0.999 . S
H425 C406 0.913 . S
H426 C444 0.951 . S
H427 C446 0.951 . S
H428 C448 0.950 . S
H429 C449 0.950 . S
H430 C451 0.950 . S
H431 C454 0.950 . S
H432 C455 0.950 . S
H433 C457 0.950 . S
H434 C458 0.950 . S
H435 C459 0.951 . S
H436 C461 0.951 . S
H437 C463 0.950 . S
H438 C464 0.950 . S
H439 C466 0.950 . S
H440 C469 0.950 . S
H441 C470 0.950 . S
H442 C472 0.950 . S
H443 C473 0.950 . S
C444 H426 0.951 . S
C444 C445 1.366 . S
C444 C446 1.388 . S
C445 C444 1.366 . S
C445 C449 1.385 . S
C446 H427 0.951 . S
C446 C444 1.388 . S
C446 C447 1.366 . S
C447 C446 1.366 . S
C447 C448 1.414 . S
C447 C450 1.499 . S
C448 H428 0.950 . S
C448 C447 1.414 . S
C448 C449 1.374 . S
C449 H429 0.950 . S
C449 C445 1.385 . S
C449 C448 1.374 . S
C450 C447 1.499 . S
C450 C451 1.373 . S
C450 C452 1.389 . S
C451 H430 0.950 . S
C451 C450 1.373 . S
C451 C467 1.377 . S
C452 C450 1.389 . S
C452 C453 1.524 . S
C452 C466 1.377 . S
C453 C452 1.524 . S
C453 C454 1.397 . S
C453 C458 1.363 . S
C454 H431 0.950 . S
C454 C453 1.397 . S
C454 C455 1.334 . S
C455 H432 0.950 . S
C455 C454 1.334 . S
C455 C456 1.287 . S
C456 C455 1.287 . S
C456 C457 1.524 . S
C456 H475 0.913 . S
C457 H433 0.950 . S
C457 C456 1.524 . S
C457 C458 1.415 . S
C458 H434 0.950 . S
C458 C453 1.363 . S
C458 C457 1.415 . S
C459 H435 0.951 . S
C459 C460 1.366 . S
C459 C461 1.388 . S
C460 C459 1.366 . S
C460 C464 1.385 . S
C461 H436 0.951 . S
C461 C459 1.388 . S
C461 C462 1.366 . S
C462 C461 1.366 . S
C462 C463 1.414 . S
C462 C465 1.499 . S
C463 H437 0.950 . S
C463 C462 1.414 . S
C463 C464 1.374 . S
C464 H438 0.950 . S
C464 C460 1.385 . S
C464 C463 1.374 . S
C465 C462 1.499 . S
C465 C466 1.373 . S
C465 C467 1.389 . S
C466 H439 0.950 . S
C466 C452 1.377 . S
C466 C465 1.373 . S
C467 C451 1.377 . S
C467 C465 1.389 . S
C467 C468 1.524 . S
C468 C467 1.524 . S
C468 C469 1.397 . S
C468 C473 1.363 . S
C469 H440 0.950 . S
C469 C468 1.397 . S
C469 C470 1.334 . S
C470 H441 0.950 . S
C470 C469 1.334 . S
C470 C471 1.287 . S
C471 C470 1.287 . S
C471 C472 1.524 . S
C471 H474 0.999 . S
C472 H442 0.950 . S
C472 C471 1.524 . S
C472 C473 1.415 . S
C473 H443 0.950 . S
C473 C468 1.363 . S
C473 C472 1.415 . S
H474 C471 0.999 . S
H475 C456 0.913 . S
H476 C494 0.951 . S
H477 C496 0.951 . S
H478 C498 0.950 . S
H479 C499 0.950 . S
H480 C501 0.950 . S
H481 C504 0.950 . S
H482 C505 0.950 . S
H483 C507 0.950 . S
H484 C508 0.950 . S
H485 C509 0.951 . S
H486 C511 0.951 . S
H487 C513 0.950 . S
H488 C514 0.950 . S
H489 C516 0.950 . S
H490 C519 0.950 . S
H491 C520 0.950 . S
H492 C522 0.950 . S
H493 C523 0.950 . S
C494 H476 0.951 . S
C494 C495 1.366 . S
C494 C496 1.388 . S
C495 C494 1.366 . S
C495 C499 1.385 . S
C496 H477 0.951 . S
C496 C494 1.388 . S
C496 C497 1.366 . S
C497 C496 1.366 . S
C497 C498 1.414 . S
C497 C500 1.499 . S
C498 H478 0.950 . S
C498 C497 1.414 . S
C498 C499 1.374 . S
C499 H479 0.950 . S
C499 C495 1.385 . S
C499 C498 1.374 . S
C500 C497 1.499 . S
C500 C501 1.373 . S
C500 C502 1.389 . S
C501 H480 0.950 . S
C501 C500 1.373 . S
C501 C517 1.377 . S
C502 C500 1.389 . S
C502 C503 1.524 . S
C502 C516 1.377 . S
C503 C502 1.524 . S
C503 C504 1.397 . S
C503 C508 1.363 . S
C504 H481 0.950 . S
C504 C503 1.397 . S
C504 C505 1.334 . S
C505 H482 0.950 . S
C505 C504 1.334 . S
C505 C506 1.287 . S
C506 C505 1.287 . S
C506 C507 1.524 . S
C506 H525 0.913 . S
C507 H483 0.950 . S
C507 C506 1.524 . S
C507 C508 1.415 . S
C508 H484 0.950 . S
C508 C503 1.363 . S
C508 C507 1.415 . S
C509 H485 0.951 . S
C509 C510 1.366 . S
C509 C511 1.388 . S
C510 C509 1.366 . S
C510 C514 1.385 . S
C511 H486 0.951 . S
C511 C509 1.388 . S
C511 C512 1.366 . S
C512 C511 1.366 . S
C512 C513 1.414 . S
C512 C515 1.499 . S
C513 H487 0.950 . S
C513 C512 1.414 . S
C513 C514 1.374 . S
C514 H488 0.950 . S
C514 C510 1.385 . S
C514 C513 1.374 . S
C515 C512 1.499 . S
C515 C516 1.373 . S
C515 C517 1.389 . S
C516 H489 0.950 . S
C516 C502 1.377 . S
C516 C515 1.373 . S
C517 C501 1.377 . S
C517 C515 1.389 . S
C517 C518 1.524 . S
C518 C517 1.524 . S
C518 C519 1.397 . S
C518 C523 1.363 . S
C519 H490 0.950 . S
C519 C518 1.397 . S
C519 C520 1.334 . S
C520 H491 0.950 . S
C520 C519 1.334 . S
C520 C521 1.287 . S
C521 C520 1.287 . S
C521 C522 1.524 . S
C521 H524 0.999 . S
C522 H492 0.950 . S
C522 C521 1.524 . S
C522 C523 1.415 . S
C523 H493 0.950 . S
C523 C518 1.363 . S
C523 C522 1.415 . S
H524 C521 0.999 . S
H525 C506 0.913 . S
H526 C544 0.951 . S
H527 C546 0.951 . S
H528 C548 0.950 . S
H529 C549 0.950 . S
H530 C551 0.950 . S
H531 C554 0.950 . S
H532 C555 0.950 . S
H533 C557 0.950 . S
H534 C558 0.950 . S
H535 C559 0.951 . S
H536 C561 0.951 . S
H537 C563 0.950 . S
H538 C564 0.950 . S
H539 C566 0.950 . S
H540 C569 0.950 . S
H541 C570 0.950 . S
H542 C572 0.950 . S
H543 C573 0.950 . S
C544 H526 0.951 . S
C544 C545 1.366 . S
C544 C546 1.388 . S
C545 C544 1.366 . S
C545 C549 1.385 . S
C546 H527 0.951 . S
C546 C544 1.388 . S
C546 C547 1.366 . S
C547 C546 1.366 . S
C547 C548 1.414 . S
C547 C550 1.499 . S
C548 H528 0.950 . S
C548 C547 1.414 . S
C548 C549 1.374 . S
C549 H529 0.950 . S
C549 C545 1.385 . S
C549 C548 1.374 . S
C550 C547 1.499 . S
C550 C551 1.373 . S
C550 C552 1.389 . S
C551 H530 0.950 . S
C551 C550 1.373 . S
C551 C567 1.377 . S
C552 C550 1.389 . S
C552 C553 1.524 . S
C552 C566 1.377 . S
C553 C552 1.524 . S
C553 C554 1.397 . S
C553 C558 1.363 . S
C554 H531 0.950 . S
C554 C553 1.397 . S
C554 C555 1.334 . S
C555 H532 0.950 . S
C555 C554 1.334 . S
C555 C556 1.287 . S
C556 C555 1.287 . S
C556 C557 1.524 . S
C556 H575 0.913 . S
C557 H533 0.950 . S
C557 C556 1.524 . S
C557 C558 1.415 . S
C558 H534 0.950 . S
C558 C553 1.363 . S
C558 C557 1.415 . S
C559 H535 0.951 . S
C559 C560 1.366 . S
C559 C561 1.388 . S
C560 C559 1.366 . S
C560 C564 1.385 . S
C561 H536 0.951 . S
C561 C559 1.388 . S
C561 C562 1.366 . S
C562 C561 1.366 . S
C562 C563 1.414 . S
C562 C565 1.499 . S
C563 H537 0.950 . S
C563 C562 1.414 . S
C563 C564 1.374 . S
C564 H538 0.950 . S
C564 C560 1.385 . S
C564 C563 1.374 . S
C565 C562 1.499 . S
C565 C566 1.373 . S
C565 C567 1.389 . S
C566 H539 0.950 . S
C566 C552 1.377 . S
C566 C565 1.373 . S
C567 C551 1.377 . S
C567 C565 1.389 . S
C567 C568 1.524 . S
C568 C567 1.524 . S
C568 C569 1.397 . S
C568 C573 1.363 . S
C569 H540 0.950 . S
C569 C568 1.397 . S
C569 C570 1.334 . S
C570 H541 0.950 . S
C570 C569 1.334 . S
C570 C571 1.287 . S
C571 C570 1.287 . S
C571 C572 1.524 . S
C571 H574 0.999 . S
C572 H542 0.950 . S
C572 C571 1.524 . S
C572 C573 1.415 . S
C573 H543 0.950 . S
C573 C568 1.363 . S
C573 C572 1.415 . S
H574 C571 0.999 . S
H575 C556 0.913 . S
H576 C594 0.951 . S
H577 C596 0.951 . S
H578 C598 0.950 . S
H579 C599 0.950 . S
H580 C601 0.950 . S
H581 C604 0.950 . S
H582 C605 0.950 . S
H583 C607 0.950 . S
H584 C608 0.950 . S
H585 C609 0.951 . S
H586 C611 0.951 . S
H587 C613 0.950 . S
H588 C614 0.950 . S
H589 C616 0.950 . S
H590 C619 0.950 . S
H591 C620 0.950 . S
H592 C622 0.950 . S
H593 C623 0.950 . S
C594 H576 0.951 . S
C594 C595 1.366 . S
C594 C596 1.388 . S
C595 C594 1.366 . S
C595 C599 1.385 . S
C596 H577 0.951 . S
C596 C594 1.388 . S
C596 C597 1.366 . S
C597 C596 1.366 . S
C597 C598 1.414 . S
C597 C600 1.499 . S
C598 H578 0.950 . S
C598 C597 1.414 . S
C598 C599 1.374 . S
C599 H579 0.950 . S
C599 C595 1.385 . S
C599 C598 1.374 . S
C600 C597 1.499 . S
C600 C601 1.373 . S
C600 C602 1.389 . S
C601 H580 0.950 . S
C601 C600 1.373 . S
C601 C617 1.377 . S
C602 C600 1.389 . S
C602 C603 1.524 . S
C602 C616 1.377 . S
C603 C602 1.524 . S
C603 C604 1.397 . S
C603 C608 1.363 . S
C604 H581 0.950 . S
C604 C603 1.397 . S
C604 C605 1.334 . S
C605 H582 0.950 . S
C605 C604 1.334 . S
C605 C606 1.287 . S
C606 C605 1.287 . S
C606 C607 1.524 . S
C606 H625 0.913 . S
C607 H583 0.950 . S
C607 C606 1.524 . S
C607 C608 1.415 . S
C608 H584 0.950 . S
C608 C603 1.363 . S
C608 C607 1.415 . S
C609 H585 0.951 . S
C609 C610 1.366 . S
C609 C611 1.388 . S
C610 C609 1.366 . S
C610 C614 1.385 . S
C611 H586 0.951 . S
C611 C609 1.388 . S
C611 C612 1.366 . S
C612 C611 1.366 . S
C612 C613 1.414 . S
C612 C615 1.499 . S
C613 H587 0.950 . S
C613 C612 1.414 . S
C613 C614 1.374 . S
C614 H588 0.950 . S
C614 C610 1.385 . S
C614 C613 1.374 . S
C615 C612 1.499 . S
C615 C616 1.373 . S
C615 C617 1.389 . S
C616 H589 0.950 . S
C616 C602 1.377 . S
C616 C615 1.373 . S
C617 C601 1.377 . S
C617 C615 1.389 . S
C617 C618 1.524 . S
C618 C617 1.524 . S
C618 C619 1.397 . S
C618 C623 1.363 . S
C619 H590 0.950 . S
C619 C618 1.397 . S
C619 C620 1.334 . S
C620 H591 0.950 . S
C620 C619 1.334 . S
C620 C621 1.287 . S
C621 C620 1.287 . S
C621 C622 1.524 . S
C621 H624 0.999 . S
C622 H592 0.950 . S
C622 C621 1.524 . S
C622 C623 1.415 . S
C623 H593 0.950 . S
C623 C618 1.363 . S
C623 C622 1.415 . S
H624 C621 0.999 . S
H625 C606 0.913 . S
H626 C644 0.951 . S
H627 C646 0.951 . S
H628 C648 0.950 . S
H629 C649 0.950 . S
H630 C651 0.950 . S
H631 C654 0.950 . S
H632 C655 0.950 . S
H633 C657 0.950 . S
H634 C658 0.950 . S
H635 C659 0.951 . S
H636 C661 0.951 . S
H637 C663 0.950 . S
H638 C664 0.950 . S
H639 C666 0.950 . S
H640 C669 0.950 . S
H641 C670 0.950 . S
H642 C672 0.950 . S
H643 C673 0.950 . S
C644 H626 0.951 . S
C644 C645 1.366 . S
C644 C646 1.388 . S
C645 C644 1.366 . S
C645 C649 1.385 . S
C646 H627 0.951 . S
C646 C644 1.388 . S
C646 C647 1.366 . S
C647 C646 1.366 . S
C647 C648 1.414 . S
C647 C650 1.499 . S
C648 H628 0.950 . S
C648 C647 1.414 . S
C648 C649 1.374 . S
C649 H629 0.950 . S
C649 C645 1.385 . S
C649 C648 1.374 . S
C650 C647 1.499 . S
C650 C651 1.373 . S
C650 C652 1.389 . S
C651 H630 0.950 . S
C651 C650 1.373 . S
C651 C667 1.377 . S
C652 C650 1.389 . S
C652 C653 1.524 . S
C652 C666 1.377 . S
C653 C652 1.524 . S
C653 C654 1.397 . S
C653 C658 1.363 . S
C654 H631 0.950 . S
C654 C653 1.397 . S
C654 C655 1.334 . S
C655 H632 0.950 . S
C655 C654 1.334 . S
C655 C656 1.287 . S
C656 C655 1.287 . S
C656 C657 1.524 . S
C656 H675 0.913 . S
C657 H633 0.950 . S
C657 C656 1.524 . S
C657 C658 1.415 . S
C658 H634 0.950 . S
C658 C653 1.363 . S
C658 C657 1.415 . S
C659 H635 0.951 . S
C659 C660 1.366 . S
C659 C661 1.388 . S
C660 C659 1.366 . S
C660 C664 1.385 . S
C661 H636 0.951 . S
C661 C659 1.388 . S
C661 C662 1.366 . S
C662 C661 1.366 . S
C662 C663 1.414 . S
C662 C665 1.499 . S
C663 H637 0.950 . S
C663 C662 1.414 . S
C663 C664 1.374 . S
C664 H638 0.950 . S
C664 C660 1.385 . S
C664 C663 1.374 . S
C665 C662 1.499 . S
C665 C666 1.373 . S
C665 C667 1.389 . S
C666 H639 0.950 . S
C666 C652 1.377 . S
C666 C665 1.373 . S
C667 C651 1.377 . S
C667 C665 1.389 . S
C667 C668 1.524 . S
C668 C667 1.524 . S
C668 C669 1.397 . S
C668 C673 1.363 . S
C669 H640 0.950 . S
C669 C668 1.397 . S
C669 C670 1.334 . S
C670 H641 0.950 . S
C670 C669 1.334 . S
C670 C671 1.287 . S
C671 C670 1.287 . S
C671 C672 1.524 . S
C671 H674 0.999 . S
C672 H642 0.950 . S
C672 C671 1.524 . S
C672 C673 1.415 . S
C673 H643 0.950 . S
C673 C668 1.363 . S
C673 C672 1.415 . S
H674 C671 0.999 . S
H675 C656 0.913 . S
H676 C694 0.951 . S
H677 C696 0.951 . S
H678 C698 0.950 . S
H679 C699 0.950 . S
H680 C701 0.950 . S
H681 C704 0.950 . S
H682 C705 0.950 . S
H683 C707 0.950 . S
H684 C708 0.950 . S
H685 C709 0.951 . S
H686 C711 0.951 . S
H687 C713 0.950 . S
H688 C714 0.950 . S
H689 C716 0.950 . S
H690 C719 0.950 . S
H691 C720 0.950 . S
H692 C722 0.950 . S
H693 C723 0.950 . S
C694 H676 0.951 . S
C694 C695 1.366 . S
C694 C696 1.388 . S
C695 C694 1.366 . S
C695 C699 1.385 . S
C696 H677 0.951 . S
C696 C694 1.388 . S
C696 C697 1.366 . S
C697 C696 1.366 . S
C697 C698 1.414 . S
C697 C700 1.499 . S
C698 H678 0.950 . S
C698 C697 1.414 . S
C698 C699 1.374 . S
C699 H679 0.950 . S
C699 C695 1.385 . S
C699 C698 1.374 . S
C700 C697 1.499 . S
C700 C701 1.373 . S
C700 C702 1.389 . S
C701 H680 0.950 . S
C701 C700 1.373 . S
C701 C717 1.377 . S
C702 C700 1.389 . S
C702 C703 1.524 . S
C702 C716 1.377 . S
C703 C702 1.524 . S
C703 C704 1.397 . S
C703 C708 1.363 . S
C704 H681 0.950 . S
C704 C703 1.397 . S
C704 C705 1.334 . S
C705 H682 0.950 . S
C705 C704 1.334 . S
C705 C706 1.287 . S
C706 C705 1.287 . S
C706 C707 1.524 . S
C706 H725 0.913 . S
C707 H683 0.950 . S
C707 C706 1.524 . S
C707 C708 1.415 . S
C708 H684 0.950 . S
C708 C703 1.363 . S
C708 C707 1.415 . S
C709 H685 0.951 . S
C709 C710 1.366 . S
C709 C711 1.388 . S
C710 C709 1.366 . S
C710 C714 1.385 . S
C711 H686 0.951 . S
C711 C709 1.388 . S
C711 C712 1.366 . S
C712 C711 1.366 . S
C712 C713 1.414 . S
C712 C715 1.499 . S
C713 H687 0.950 . S
C713 C712 1.414 . S
C713 C714 1.374 . S
C714 H688 0.950 . S
C714 C710 1.385 . S
C714 C713 1.374 . S
C715 C712 1.499 . S
C715 C716 1.373 . S
C715 C717 1.389 . S
C716 H689 0.950 . S
C716 C702 1.377 . S
C716 C715 1.373 . S
C717 C701 1.377 . S
C717 C715 1.389 . S
C717 C718 1.524 . S
C718 C717 1.524 . S
C718 C719 1.397 . S
C718 C723 1.363 . S
C719 H690 0.950 . S
C719 C718 1.397 . S
C719 C720 1.334 . S
C720 H691 0.950 . S
C720 C719 1.334 . S
C720 C721 1.287 . S
C721 C720 1.287 . S
C721 C722 1.524 . S
C721 H724 0.999 . S
C722 H692 0.950 . S
C722 C721 1.524 . S
C722 C723 1.415 . S
C723 H693 0.950 . S
C723 C718 1.363 . S
C723 C722 1.415 . S
H724 C721 0.999 . S
H725 C706 0.913 . S
H726 C744 0.951 . S
H727 C746 0.951 . S
H728 C748 0.950 . S
H729 C749 0.950 . S
H730 C751 0.950 . S
H731 C754 0.950 . S
H732 C755 0.950 . S
H733 C757 0.950 . S
H734 C758 0.950 . S
H735 C759 0.951 . S
H736 C761 0.951 . S
H737 C763 0.950 . S
H738 C764 0.950 . S
H739 C766 0.950 . S
H740 C769 0.950 . S
H741 C770 0.950 . S
H742 C772 0.950 . S
H743 C773 0.950 . S
C744 H726 0.951 . S
C744 C745 1.366 . S
C744 C746 1.388 . S
C745 C744 1.366 . S
C745 C749 1.385 . S
C746 H727 0.951 . S
C746 C744 1.388 . S
C746 C747 1.366 . S
C747 C746 1.366 . S
C747 C748 1.414 . S
C747 C750 1.499 . S
C748 H728 0.950 . S
C748 C747 1.414 . S
C748 C749 1.374 . S
C749 H729 0.950 . S
C749 C745 1.385 . S
C749 C748 1.374 . S
C750 C747 1.499 . S
C750 C751 1.373 . S
C750 C752 1.389 . S
C751 H730 0.950 . S
C751 C750 1.373 . S
C751 C767 1.377 . S
C752 C750 1.389 . S
C752 C753 1.524 . S
C752 C766 1.377 . S
C753 C752 1.524 . S
C753 C754 1.397 . S
C753 C758 1.363 . S
C754 H731 0.950 . S
C754 C753 1.397 . S
C754 C755 1.334 . S
C755 H732 0.950 . S
C755 C754 1.334 . S
C755 C756 1.287 . S
C756 C755 1.287 . S
C756 C757 1.524 . S
C756 H775 0.913 . S
C757 H733 0.950 . S
C757 C756 1.524 . S
C757 C758 1.415 . S
C758 H734 0.950 . S
C758 C753 1.363 . S
C758 C757 1.415 . S
C759 H735 0.951 . S
C759 C760 1.366 . S
C759 C761 1.388 . S
C760 C759 1.366 . S
C760 C764 1.385 . S
C761 H736 0.951 . S
C761 C759 1.388 . S
C761 C762 1.366 . S
C762 C761 1.366 . S
C762 C763 1.414 . S
C762 C765 1.499 . S
C763 H737 0.950 . S
C763 C762 1.414 . S
C763 C764 1.374 . S
C764 H738 0.950 . S
C764 C760 1.385 . S
C764 C763 1.374 . S
C765 C762 1.499 . S
C765 C766 1.373 . S
C765 C767 1.389 . S
C766 H739 0.950 . S
C766 C752 1.377 . S
C766 C765 1.373 . S
C767 C751 1.377 . S
C767 C765 1.389 . S
C767 C768 1.524 . S
C768 C767 1.524 . S
C768 C769 1.397 . S
C768 C773 1.363 . S
C769 H740 0.950 . S
C769 C768 1.397 . S
C769 C770 1.334 . S
C770 H741 0.950 . S
C770 C769 1.334 . S
C770 C771 1.287 . S
C771 C770 1.287 . S
C771 C772 1.524 . S
C771 H774 0.999 . S
C772 H742 0.950 . S
C772 C771 1.524 . S
C772 C773 1.415 . S
C773 H743 0.950 . S
C773 C768 1.363 . S
C773 C772 1.415 . S
H774 C771 0.999 . S
H775 C756 0.913 . S
H776 C794 0.951 . S
H777 C796 0.951 . S
H778 C798 0.950 . S
H779 C799 0.950 . S
H780 C801 0.950 . S
H781 C804 0.950 . S
H782 C805 0.950 . S
H783 C807 0.950 . S
H784 C808 0.950 . S
H785 C809 0.951 . S
H786 C811 0.951 . S
H787 C813 0.950 . S
H788 C814 0.950 . S
H789 C816 0.950 . S
H790 C819 0.950 . S
H791 C820 0.950 . S
H792 C822 0.950 . S
H793 C823 0.950 . S
C794 H776 0.951 . S
C794 C795 1.366 . S
C794 C796 1.388 . S
C795 C794 1.366 . S
C795 C799 1.385 . S
C796 H777 0.951 . S
C796 C794 1.388 . S
C796 C797 1.366 . S
C797 C796 1.366 . S
C797 C798 1.414 . S
C797 C800 1.499 . S
C798 H778 0.950 . S
C798 C797 1.414 . S
C798 C799 1.374 . S
C799 H779 0.950 . S
C799 C795 1.385 . S
C799 C798 1.374 . S
C800 C797 1.499 . S
C800 C801 1.373 . S
C800 C802 1.389 . S
C801 H780 0.950 . S
C801 C800 1.373 . S
C801 C817 1.377 . S
C802 C800 1.389 . S
C802 C803 1.524 . S
C802 C816 1.377 . S
C803 C802 1.524 . S
C803 C804 1.397 . S
C803 C808 1.363 . S
C804 H781 0.950 . S
C804 C803 1.397 . S
C804 C805 1.334 . S
C805 H782 0.950 . S
C805 C804 1.334 . S
C805 C806 1.287 . S
C806 C805 1.287 . S
C806 C807 1.524 . S
C806 H825 0.913 . S
C807 H783 0.950 . S
C807 C806 1.524 . S
C807 C808 1.415 . S
C808 H784 0.950 . S
C808 C803 1.363 . S
C808 C807 1.415 . S
C809 H785 0.951 . S
C809 C810 1.366 . S
C809 C811 1.388 . S
C810 C809 1.366 . S
C810 C814 1.385 . S
C811 H786 0.951 . S
C811 C809 1.388 . S
C811 C812 1.366 . S
C812 C811 1.366 . S
C812 C813 1.414 . S
C812 C815 1.499 . S
C813 H787 0.950 . S
C813 C812 1.414 . S
C813 C814 1.374 . S
C814 H788 0.950 . S
C814 C810 1.385 . S
C814 C813 1.374 . S
C815 C812 1.499 . S
C815 C816 1.373 . S
C815 C817 1.389 . S
C816 H789 0.950 . S
C816 C802 1.377 . S
C816 C815 1.373 . S
C817 C801 1.377 . S
C817 C815 1.389 . S
C817 C818 1.524 . S
C818 C817 1.524 . S
C818 C819 1.397 . S
C818 C823 1.363 . S
C819 H790 0.950 . S
C819 C818 1.397 . S
C819 C820 1.334 . S
C820 H791 0.950 . S
C820 C819 1.334 . S
C820 C821 1.287 . S
C821 C820 1.287 . S
C821 C822 1.524 . S
C821 H824 0.999 . S
C822 H792 0.950 . S
C822 C821 1.524 . S
C822 C823 1.415 . S
C823 H793 0.950 . S
C823 C818 1.363 . S
C823 C822 1.415 . S
H824 C821 0.999 . S
H825 C806 0.913 . S
H826 C844 0.951 . S
H827 C846 0.951 . S
H828 C848 0.950 . S
H829 C849 0.950 . S
H830 C851 0.950 . S
H831 C854 0.950 . S
H832 C855 0.950 . S
H833 C857 0.950 . S
H834 C858 0.950 . S
H835 C859 0.951 . S
H836 C861 0.951 . S
H837 C863 0.950 . S
H838 C864 0.950 . S
H839 C866 0.950 . S
H840 C869 0.950 . S
H841 C870 0.950 . S
H842 C872 0.950 . S
H843 C873 0.950 . S
C844 H826 0.951 . S
C844 C845 1.366 . S
C844 C846 1.388 . S
C845 C844 1.366 . S
C845 C849 1.385 . S
C846 H827 0.951 . S
C846 C844 1.388 . S
C846 C847 1.366 . S
C847 C846 1.366 . S
C847 C848 1.414 . S
C847 C850 1.499 . S
C848 H828 0.950 . S
C848 C847 1.414 . S
C848 C849 1.374 . S
C849 H829 0.950 . S
C849 C845 1.385 . S
C849 C848 1.374 . S
C850 C847 1.499 . S
C850 C851 1.373 . S
C850 C852 1.389 . S
C851 H830 0.950 . S
C851 C850 1.373 . S
C851 C867 1.377 . S
C852 C850 1.389 . S
C852 C853 1.524 . S
C852 C866 1.377 . S
C853 C852 1.524 . S
C853 C854 1.397 . S
C853 C858 1.363 . S
C854 H831 0.950 . S
C854 C853 1.397 . S
C854 C855 1.334 . S
C855 H832 0.950 . S
C855 C854 1.334 . S
C855 C856 1.287 . S
C856 C855 1.287 . S
C856 C857 1.524 . S
C856 H875 0.913 . S
C857 H833 0.950 . S
C857 C856 1.524 . S
C857 C858 1.415 . S
C858 H834 0.950 . S
C858 C853 1.363 . S
C858 C857 1.415 . S
C859 H835 0.951 . S
C859 C860 1.366 . S
C859 C861 1.388 . S
C860 C859 1.366 . S
C860 C864 1.385 . S
C861 H836 0.951 . S
C861 C859 1.388 . S
C861 C862 1.366 . S
C862 C861 1.366 . S
C862 C863 1.414 . S
C862 C865 1.499 . S
C863 H837 0.950 . S
C863 C862 1.414 . S
C863 C864 1.374 . S
C864 H838 0.950 . S
C864 C860 1.385 . S
C864 C863 1.374 . S
C865 C862 1.499 . S
C865 C866 1.373 . S
C865 C867 1.389 . S
C866 H839 0.950 . S
C866 C852 1.377 . S
C866 C865 1.373 . S
C867 C851 1.377 . S
C867 C865 1.389 . S
C867 C868 1.524 . S
C868 C867 1.524 . S
C868 C869 1.397 . S
C868 C873 1.363 . S
C869 H840 0.950 . S
C869 C868 1.397 . S
C869 C870 1.334 . S
C870 H841 0.950 . S
C870 C869 1.334 . S
C870 C871 1.287 . S
C871 C870 1.287 . S
C871 C872 1.524 . S
C871 H874 0.999 . S
C872 H842 0.950 . S
C872 C871 1.524 . S
C872 C873 1.415 . S
C873 H843 0.950 . S
C873 C868 1.363 . S
C873 C872 1.415 . S
H874 C871 0.999 . S
H875 C856 0.913 . S
H876 C894 0.951 . S
H877 C896 0.951 . S
H878 C898 0.950 . S
H879 C899 0.950 . S
H880 C901 0.950 . S
H881 C904 0.950 . S
H882 C905 0.950 . S
H883 C907 0.950 . S
H884 C908 0.950 . S
H885 C909 0.951 . S
H886 C911 0.951 . S
H887 C913 0.950 . S
H888 C914 0.950 . S
H889 C916 0.950 . S
H890 C919 0.950 . S
H891 C920 0.950 1_655 S
H892 C922 0.950 . S
H893 C923 0.950 . S
C894 H876 0.951 . S
C894 C895 1.366 . S
C894 C896 1.388 . S
C895 C894 1.366 . S
C895 C899 1.385 . S
C896 H877 0.951 . S
C896 C894 1.388 . S
C896 C897 1.366 . S
C897 C896 1.366 . S
C897 C898 1.414 . S
C897 C900 1.499 . S
C898 H878 0.950 . S
C898 C897 1.414 . S
C898 C899 1.374 . S
C899 H879 0.950 . S
C899 C895 1.385 . S
C899 C898 1.374 . S
C900 C897 1.499 . S
C900 C901 1.373 . S
C900 C902 1.389 . S
C901 H880 0.950 . S
C901 C900 1.373 . S
C901 C917 1.377 . S
C902 C900 1.389 . S
C902 C903 1.524 . S
C902 C916 1.377 . S
C903 C902 1.524 . S
C903 C904 1.397 . S
C903 C908 1.363 . S
C904 H881 0.950 . S
C904 C903 1.397 . S
C904 C905 1.334 . S
C905 H882 0.950 . S
C905 C904 1.334 . S
C905 C906 1.287 . S
C906 C905 1.287 . S
C906 C907 1.524 . S
C906 H925 0.913 . S
C907 H883 0.950 . S
C907 C906 1.524 . S
C907 C908 1.415 . S
C908 H884 0.950 . S
C908 C903 1.363 . S
C908 C907 1.415 . S
C909 H885 0.951 . S
C909 C910 1.366 . S
C909 C911 1.388 1_556 S
C910 C909 1.366 . S
C910 C914 1.385 . S
C911 H886 0.951 . S
C911 C909 1.388 1_554 S
C911 C912 1.366 . S
C912 C911 1.366 . S
C912 C913 1.414 1_554 S
C912 C915 1.499 . S
C913 H887 0.950 . S
C913 C912 1.414 1_556 S
C913 C914 1.374 . S
C914 H888 0.950 . S
C914 C910 1.385 . S
C914 C913 1.374 . S
C915 C912 1.499 . S
C915 C916 1.373 . S
C915 C917 1.389 . S
C916 H889 0.950 . S
C916 C902 1.377 . S
C916 C915 1.373 . S
C917 C901 1.377 . S
C917 C915 1.389 . S
C917 C918 1.524 . S
C918 C917 1.524 . S
C918 C919 1.397 . S
C918 C923 1.363 . S
C919 H890 0.950 . S
C919 C918 1.397 . S
C919 C920 1.334 . S
C920 H891 0.950 1_455 S
C920 C919 1.334 . S
C920 C921 1.287 . S
C921 C920 1.287 . S
C921 C922 1.524 . S
C921 H924 0.999 . S
C922 H892 0.950 . S
C922 C921 1.524 . S
C922 C923 1.415 . S
C923 H893 0.950 . S
C923 C918 1.363 . S
C923 C922 1.415 . S
H924 C921 0.999 . S
H925 C906 0.913 . S
H926 C944 0.951 . S
H927 C946 0.951 . S
H928 C948 0.950 . S
H929 C949 0.950 . S
H930 C951 0.950 . S
H931 C954 0.950 1_565 S
H932 C955 0.950 . S
H933 C957 0.950 . S
H934 C958 0.950 . S
H935 C959 0.951 . S
H936 C961 0.951 . S
H937 C963 0.950 . S
H938 C964 0.950 . S
H939 C966 0.950 . S
H940 C969 0.950 . S
H941 C970 0.950 . S
H942 C972 0.950 . S
H943 C973 0.950 . S
C944 H926 0.951 . S
C944 C945 1.366 . S
C944 C946 1.388 . S
C945 C944 1.366 . S
C945 C949 1.385 . S
C946 H927 0.951 . S
C946 C944 1.388 . S
C946 C947 1.366 . S
C947 C946 1.366 . S
C947 C948 1.414 . S
C947 C950 1.499 . S
C948 H928 0.950 . S
C948 C947 1.414 . S
C948 C949 1.374 . S
C949 H929 0.950 . S
C949 C945 1.385 . S
C949 C948 1.374 . S
C950 C947 1.499 . S
C950 C951 1.373 . S
C950 C952 1.389 . S
C951 H930 0.950 . S
C951 C950 1.373 . S
C951 C967 1.377 . S
C952 C950 1.389 . S
C952 C953 1.524 . S
C952 C966 1.377 . S
C953 C952 1.524 . S
C953 C954 1.397 . S
C953 C958 1.363 . S
C954 H931 0.950 1_545 S
C954 C953 1.397 . S
C954 C955 1.334 1_545 S
C955 H932 0.950 . S
C955 C954 1.334 1_565 S
C955 C956 1.287 1_565 S
C956 C955 1.287 1_545 S
C956 C957 1.524 . S
C956 H975 0.913 . S
C957 H933 0.950 . S
C957 C956 1.524 . S
C957 C958 1.415 . S
C958 H934 0.950 . S
C958 C953 1.363 . S
C958 C957 1.415 . S
C959 H935 0.951 . S
C959 C960 1.366 . S
C959 C961 1.388 . S
C960 C959 1.366 . S
C960 C964 1.385 . S
C961 H936 0.951 . S
C961 C959 1.388 . S
C961 C962 1.366 . S
C962 C961 1.366 . S
C962 C963 1.414 . S
C962 C965 1.499 . S
C963 H937 0.950 . S
C963 C962 1.414 . S
C963 C964 1.374 . S
C964 H938 0.950 . S
C964 C960 1.385 . S
C964 C963 1.374 . S
C965 C962 1.499 . S
C965 C966 1.373 . S
C965 C967 1.389 . S
C966 H939 0.950 . S
C966 C952 1.377 . S
C966 C965 1.373 . S
C967 C951 1.377 . S
C967 C965 1.389 . S
C967 C968 1.524 . S
C968 C967 1.524 . S
C968 C969 1.397 . S
C968 C973 1.363 . S
C969 H940 0.950 . S
C969 C968 1.397 . S
C969 C970 1.334 . S
C970 H941 0.950 . S
C970 C969 1.334 . S
C970 C971 1.287 . S
C971 C970 1.287 . S
C971 C972 1.524 . S
C971 H974 0.999 . S
C972 H942 0.950 . S
C972 C971 1.524 . S
C972 C973 1.415 . S
C973 H943 0.950 . S
C973 C968 1.363 . S
C973 C972 1.415 . S
H974 C971 0.999 . S
H975 C956 0.913 . S
H976 C994 0.951 . S
H977 C996 0.951 . S
H978 C998 0.950 . S
H979 C999 0.950 . S
H980 C1001 0.950 . S
H981 C1004 0.950 . S
H982 C1005 0.950 . S
H983 C1007 0.950 . S
H984 C1008 0.950 . S
H985 C1009 0.951 . S
H986 C1011 0.951 . S
H987 C1013 0.950 . S
H988 C1014 0.950 . S
H989 C1016 0.950 . S
H990 C1019 0.950 . S
H991 C1020 0.950 . S
H992 C1022 0.950 . S
H993 C1023 0.950 . S
C994 H976 0.951 . S
C994 C995 1.366 . S
C994 C996 1.388 . S
C995 C994 1.366 . S
C995 C999 1.385 . S
C996 H977 0.951 . S
C996 C994 1.388 . S
C996 C997 1.366 . S
C997 C996 1.366 . S
C997 C998 1.414 . S
C997 C1000 1.499 . S
C998 H978 0.950 . S
C998 C997 1.414 . S
C998 C999 1.374 . S
C999 H979 0.950 . S
C999 C995 1.385 . S
C999 C998 1.374 . S
C1000 C997 1.499 . S
C1000 C1001 1.373 . S
C1000 C1002 1.389 . S
C1001 H980 0.950 . S
C1001 C1000 1.373 . S
C1001 C1017 1.377 . S
C1002 C1000 1.389 . S
C1002 C1003 1.524 . S
C1002 C1016 1.377 . S
C1003 C1002 1.524 . S
C1003 C1004 1.397 . S
C1003 C1008 1.363 . S
C1004 H981 0.950 . S
C1004 C1003 1.397 . S
C1004 C1005 1.334 . S
C1005 H982 0.950 . S
C1005 C1004 1.334 . S
C1005 C1006 1.287 . S
C1006 C1005 1.287 . S
C1006 C1007 1.524 . S
C1006 H1025 0.913 . S
C1007 H983 0.950 . S
C1007 C1006 1.524 . S
C1007 C1008 1.415 . S
C1008 H984 0.950 . S
C1008 C1003 1.363 . S
C1008 C1007 1.415 . S
C1009 H985 0.951 . S
C1009 C1010 1.366 . S
C1009 C1011 1.388 . S
C1010 C1009 1.366 . S
C1010 C1014 1.385 . S
C1011 H986 0.951 . S
C1011 C1009 1.388 . S
C1011 C1012 1.366 . S
C1012 C1011 1.366 . S
C1012 C1013 1.414 . S
C1012 C1015 1.499 . S
C1013 H987 0.950 . S
C1013 C1012 1.414 . S
C1013 C1014 1.374 . S
C1014 H988 0.950 . S
C1014 C1010 1.385 . S
C1014 C1013 1.374 . S
C1015 C1012 1.499 . S
C1015 C1016 1.373 . S
C1015 C1017 1.389 . S
C1016 H989 0.950 . S
C1016 C1002 1.377 . S
C1016 C1015 1.373 . S
C1017 C1001 1.377 . S
C1017 C1015 1.389 . S
C1017 C1018 1.524 . S
C1018 C1017 1.524 . S
C1018 C1019 1.397 . S
C1018 C1023 1.363 . S
C1019 H990 0.950 . S
C1019 C1018 1.397 . S
C1019 C1020 1.334 . S
C1020 H991 0.950 . S
C1020 C1019 1.334 . S
C1020 C1021 1.287 . S
C1021 C1020 1.287 . S
C1021 C1022 1.524 . S
C1021 H1024 0.999 . S
C1022 H992 0.950 . S
C1022 C1021 1.524 . S
C1022 C1023 1.415 . S
C1023 H993 0.950 . S
C1023 C1018 1.363 . S
C1023 C1022 1.415 . S
H1024 C1021 0.999 . S
H1025 C1006 0.913 . S
H1026 C1044 0.951 . S
H1027 C1046 0.951 1_565 S
H1028 C1048 0.950 . S
H1029 C1049 0.950 . S
H1030 C1051 0.950 . S
H1031 C1054 0.950 . S
H1032 C1055 0.950 . S
H1033 C1057 0.950 . S
H1034 C1058 0.950 . S
H1035 C1059 0.951 . S
H1036 C1061 0.951 . S
H1037 C1063 0.950 . S
H1038 C1064 0.950 . S
H1039 C1066 0.950 . S
H1040 C1069 0.950 . S
H1041 C1070 0.950 . S
H1042 C1072 0.950 . S
H1043 C1073 0.950 . S
C1044 H1026 0.951 . S
C1044 C1045 1.366 . S
C1044 C1046 1.388 . S
C1045 C1044 1.366 . S
C1045 C1049 1.385 . S
C1046 H1027 0.951 1_545 S
C1046 C1044 1.388 . S
C1046 C1047 1.366 . S
C1047 C1046 1.366 . S
C1047 C1048 1.414 . S
C1047 C1050 1.499 . S
C1048 H1028 0.950 . S
C1048 C1047 1.414 . S
C1048 C1049 1.374 . S
C1049 H1029 0.950 . S
C1049 C1045 1.385 . S
C1049 C1048 1.374 . S
C1050 C1047 1.499 . S
C1050 C1051 1.373 . S
C1050 C1052 1.389 . S
C1051 H1030 0.950 . S
C1051 C1050 1.373 . S
C1051 C1067 1.377 . S
C1052 C1050 1.389 . S
C1052 C1053 1.524 . S
C1052 C1066 1.377 . S
C1053 C1052 1.524 . S
C1053 C1054 1.397 . S
C1053 C1058 1.363 . S
C1054 H1031 0.950 . S
C1054 C1053 1.397 . S
C1054 C1055 1.334 . S
C1055 H1032 0.950 . S
C1055 C1054 1.334 . S
C1055 C1056 1.287 . S
C1056 C1055 1.287 . S
C1056 C1057 1.524 . S
C1056 H1075 0.913 . S
C1057 H1033 0.950 . S
C1057 C1056 1.524 . S
C1057 C1058 1.415 . S
C1058 H1034 0.950 . S
C1058 C1053 1.363 . S
C1058 C1057 1.415 . S
C1059 H1035 0.951 . S
C1059 C1060 1.366 . S
C1059 C1061 1.388 . S
C1060 C1059 1.366 . S
C1060 C1064 1.385 1_545 S
C1061 H1036 0.951 . S
C1061 C1059 1.388 . S
C1061 C1062 1.366 . S
C1062 C1061 1.366 . S
C1062 C1063 1.414 1_545 S
C1062 C1065 1.499 . S
C1063 H1037 0.950 . S
C1063 C1062 1.414 1_565 S
C1063 C1064 1.374 . S
C1064 H1038 0.950 . S
C1064 C1060 1.385 1_565 S
C1064 C1063 1.374 . S
C1065 C1062 1.499 . S
C1065 C1066 1.373 . S
C1065 C1067 1.389 . S
C1066 H1039 0.950 . S
C1066 C1052 1.377 . S
C1066 C1065 1.373 . S
C1067 C1051 1.377 . S
C1067 C1065 1.389 . S
C1067 C1068 1.524 1_545 S
C1068 C1067 1.524 1_565 S
C1068 C1069 1.397 . S
C1068 C1073 1.363 1_565 S
C1069 H1040 0.950 . S
C1069 C1068 1.397 . S
C1069 C1070 1.334 . S
C1070 H1041 0.950 . S
C1070 C1069 1.334 . S
C1070 C1071 1.287 . S
C1071 C1070 1.287 . S
C1071 C1072 1.524 . S
C1071 H1074 0.999 . S
C1072 H1042 0.950 . S
C1072 C1071 1.524 . S
C1072 C1073 1.415 1_565 S
C1073 H1043 0.950 . S
C1073 C1068 1.363 1_545 S
C1073 C1072 1.415 1_545 S
H1074 C1071 0.999 . S
H1075 C1056 0.913 . S
H1076 C1094 0.951 . S
H1077 C1096 0.951 . S
H1078 C1098 0.950 . S
H1079 C1099 0.950 . S
H1080 C1101 0.950 . S
H1081 C1104 0.950 . S
H1082 C1105 0.950 . S
H1083 C1107 0.950 . S
H1084 C1108 0.950 . S
H1085 C1109 0.951 . S
H1086 C1111 0.958 . S
H1087 C1113 0.950 . S
H1088 C1114 0.950 . S
H1089 C1116 0.950 . S
H1090 C1119 0.950 . S
H1091 C1120 0.950 1_554 S
H1092 C1122 0.950 . S
H1093 C1123 0.950 . S
C1094 H1076 0.951 . S
C1094 C1095 1.366 . S
C1094 C1096 1.388 . S
C1095 C1094 1.366 . S
C1095 C1099 1.385 . S
C1096 H1077 0.951 . S
C1096 C1094 1.388 . S
C1096 C1097 1.366 . S
C1097 C1096 1.366 . S
C1097 C1098 1.414 . S
C1097 C1100 1.499 . S
C1098 H1078 0.950 . S
C1098 C1097 1.414 . S
C1098 C1099 1.374 . S
C1099 H1079 0.950 . S
C1099 C1095 1.385 . S
C1099 C1098 1.374 . S
C1100 C1097 1.499 . S
C1100 C1101 1.373 . S
C1100 C1102 1.389 . S
C1101 H1080 0.950 . S
C1101 C1100 1.373 . S
C1101 C1117 1.377 . S
C1102 C1100 1.389 . S
C1102 C1103 1.524 . S
C1102 C1116 1.377 . S
C1103 C1102 1.524 . S
C1103 C1104 1.397 . S
C1103 C1108 1.363 . S
C1104 H1081 0.950 . S
C1104 C1103 1.397 . S
C1104 C1105 1.334 . S
C1105 H1082 0.950 . S
C1105 C1104 1.334 . S
C1105 C1106 1.287 . S
C1106 C1105 1.287 . S
C1106 C1107 1.524 . S
C1106 H1125 0.913 . S
C1107 H1083 0.950 . S
C1107 C1106 1.524 . S
C1107 C1108 1.415 . S
C1108 H1084 0.950 . S
C1108 C1103 1.363 . S
C1108 C1107 1.415 . S
C1109 H1085 0.951 . S
C1109 C1110 1.366 . S
C1109 C1111 1.369 1_554 S
C1110 C1109 1.366 . S
C1110 C1114 1.385 . S
C1111 H1086 0.958 . S
C1111 C1109 1.369 1_556 S
C1111 C1112 1.377 . S
C1112 C1111 1.377 . S
C1112 C1113 1.414 . S
C1112 C1115 1.499 . S
C1113 H1087 0.950 . S
C1113 C1112 1.414 . S
C1113 C1114 1.374 1_556 S
C1114 H1088 0.950 . S
C1114 C1110 1.385 . S
C1114 C1113 1.374 1_554 S
C1115 C1112 1.499 . S
C1115 C1116 1.373 . S
C1115 C1117 1.389 . S
C1116 H1089 0.950 . S
C1116 C1102 1.377 . S
C1116 C1115 1.373 . S
C1117 C1101 1.377 . S
C1117 C1115 1.389 . S
C1117 C1118 1.524 . S
C1118 C1117 1.524 . S
C1118 C1119 1.397 . S
C1118 C1123 1.363 . S
C1119 H1090 0.950 . S
C1119 C1118 1.397 . S
C1119 C1120 1.334 . S
C1120 H1091 0.950 1_556 S
C1120 C1119 1.334 . S
C1120 C1121 1.287 . S
C1121 C1120 1.287 . S
C1121 C1122 1.524 . S
C1121 H1124 0.999 1_556 S
C1122 H1092 0.950 . S
C1122 C1121 1.524 . S
C1122 C1123 1.415 . S
C1123 H1093 0.950 . S
C1123 C1118 1.363 . S
C1123 C1122 1.415 . S
H1124 C1121 0.999 1_554 S
H1125 C1106 0.913 . S
H1126 C1144 0.951 . S
H1127 C1146 0.951 . S
H1128 C1148 0.950 . S
H1129 C1149 0.950 . S
H1130 C1151 0.950 . S
H1131 C1154 0.950 . S
H1132 C1155 0.950 . S
H1133 C1157 0.950 . S
H1134 C1158 0.950 . S
H1135 C1159 0.951 . S
H1136 C1161 0.951 . S
H1137 C1163 0.950 . S
H1138 C1164 0.950 . S
H1139 C1166 0.950 . S
H1140 C1169 0.950 . S
H1141 C1170 0.950 . S
H1142 C1172 0.950 . S
H1143 C1173 0.950 . S
C1144 H1126 0.951 . S
C1144 C1145 1.366 . S
C1144 C1146 1.388 . S
C1145 C1144 1.366 . S
C1145 C1149 1.385 1_455 S
C1146 H1127 0.951 . S
C1146 C1144 1.388 . S
C1146 C1147 1.366 . S
C1147 C1146 1.366 . S
C1147 C1148 1.414 1_455 S
C1147 C1150 1.499 . S
C1148 H1128 0.950 . S
C1148 C1147 1.414 1_655 S
C1148 C1149 1.374 . S
C1149 H1129 0.950 . S
C1149 C1145 1.385 1_655 S
C1149 C1148 1.374 . S
C1150 C1147 1.499 . S
C1150 C1151 1.373 1_455 S
C1150 C1152 1.389 . S
C1151 H1130 0.950 . S
C1151 C1150 1.373 1_655 S
C1151 C1167 1.377 . S
C1152 C1150 1.389 . S
C1152 C1153 1.524 . S
C1152 C1166 1.377 . S
C1153 C1152 1.524 . S
C1153 C1154 1.397 . S
C1153 C1158 1.363 . S
C1154 H1131 0.950 . S
C1154 C1153 1.397 . S
C1154 C1155 1.334 . S
C1155 H1132 0.950 . S
C1155 C1154 1.334 . S
C1155 C1156 1.287 . S
C1156 C1155 1.287 . S
C1156 C1157 1.524 . S
C1156 H1175 0.913 . S
C1157 H1133 0.950 . S
C1157 C1156 1.524 . S
C1157 C1158 1.415 . S
C1158 H1134 0.950 . S
C1158 C1153 1.363 . S
C1158 C1157 1.415 . S
C1159 H1135 0.951 . S
C1159 C1160 1.355 1_655 S
C1159 C1161 1.388 . S
C1160 C1159 1.355 1_455 S
C1160 C1164 1.398 . S
C1161 H1136 0.951 . S
C1161 C1159 1.388 . S
C1161 C1162 1.366 1_655 S
C1162 C1161 1.366 1_455 S
C1162 C1163 1.414 . S
C1162 C1165 1.499 . S
C1163 H1137 0.950 . S
C1163 C1162 1.414 . S
C1163 C1164 1.374 . S
C1164 H1138 0.950 . S
C1164 C1160 1.398 . S
C1164 C1163 1.374 . S
C1165 C1162 1.499 . S
C1165 C1166 1.373 . S
C1165 C1167 1.389 1_455 S
C1166 H1139 0.950 . S
C1166 C1152 1.377 . S
C1166 C1165 1.373 . S
C1167 C1151 1.377 . S
C1167 C1165 1.389 1_655 S
C1167 C1168 1.524 . S
C1168 C1167 1.524 . S
C1168 C1169 1.397 . S
C1168 C1173 1.363 . S
C1169 H1140 0.950 . S
C1169 C1168 1.397 . S
C1169 C1170 1.334 . S
C1170 H1141 0.950 . S
C1170 C1169 1.334 . S
C1170 C1171 1.287 . S
C1171 C1170 1.287 . S
C1171 C1172 1.524 . S
C1171 H1174 0.999 . S
C1172 H1142 0.950 . S
C1172 C1171 1.524 . S
C1172 C1173 1.415 . S
C1173 H1143 0.950 . S
C1173 C1168 1.363 . S
C1173 C1172 1.415 . S
H1174 C1171 0.999 . S
H1175 C1156 0.913 . S
C295 C8 1.997 . S
C310 C265 2.033 . S
C345 C26 1.278 . S
C360 C193 1.263 . S
C395 C48 1.442 . S
C410 C229 1.456 . S
C445 C19 1.729 . S
C460 C241 1.787 . S
C510 C169 1.493 . S
C495 C36 1.480 . S
C560 C205 1.729 . S
C545 C59 1.666 . S
C595 C28 1.466 . S
C610 C121 1.490 . S
C645 C46 1.204 . S
C660 C133 1.212 . S
C695 C16 1.562 . S
C710 C61 1.576 . S
C760 C97 1.683 . S
C745 C39 1.629 . S
C810 C157 0.956 . S
C795 C56 0.956 . S
C845 C6 1.314 . S
C860 C85 1.287 . S
C910 C163 1.424 . S
C895 C9 1.400 . S
C945 C21 1.492 . S
C960 C91 1.495 . S
C995 C49 1.473 . S
C1010 C127 1.483 . S
C1060 C235 1.458 . S
C1045 C29 1.456 . S
C1110 C271 1.589 . S
C1095 C41 1.572 . S
C1145 C1 1.496 . S
C1160 C199 1.502 . S
