# Generated by pormake.
# Topology anh, (6,3)-cn, num edge types: 1
# Building blocks:
#     Node 0, Type 0, BuildingBlock: BETFEN_clean_sbu_0, # of connection points: 6
#     Node 1, Type 0, BuildingBlock: BETFEN_clean_sbu_0, # of connection points: 6
#     Node 2, Type 0, BuildingBlock: BETFEN_clean_sbu_0, # of connection points: 6
#     Node 3, Type 1, BuildingBlock: MIDCAF_clean_linker_0, # of connection points: 3
#     Node 4, Type 1, BuildingBlock: MIDCAF_clean_linker_0, # of connection points: 3
#     Node 5, Type 1, BuildingBlock: MIDCAF_clean_linker_0, # of connection points: 3
#     Node 6, Type 1, BuildingBlock: MIDCAF_clean_linker_0, # of connection points: 3
#     Node 7, Type 1, BuildingBlock: MIDCAF_clean_linker_0, # of connection points: 3
#     Node 8, Type 1, BuildingBlock: MIDCAF_clean_linker_0, # of connection points: 3
#     Edge 9, Type (0, 1), BuildingBlock: TEMPAE_clean_linker_10, # of connection points: 2
#     Edge 10, Type (0, 1), BuildingBlock: TEMPAE_clean_linker_10, # of connection points: 2
#     Edge 11, Type (0, 1), BuildingBlock: TEMPAE_clean_linker_10, # of connection points: 2
#     Edge 12, Type (0, 1), BuildingBlock: TEMPAE_clean_linker_10, # of connection points: 2
#     Edge 13, Type (0, 1), BuildingBlock: TEMPAE_clean_linker_10, # of connection points: 2
#     Edge 14, Type (0, 1), BuildingBlock: TEMPAE_clean_linker_10, # of connection points: 2
#     Edge 15, Type (0, 1), BuildingBlock: TEMPAE_clean_linker_10, # of connection points: 2
#     Edge 16, Type (0, 1), BuildingBlock: TEMPAE_clean_linker_10, # of connection points: 2
#     Edge 17, Type (0, 1), BuildingBlock: TEMPAE_clean_linker_10, # of connection points: 2
#     Edge 18, Type (0, 1), BuildingBlock: TEMPAE_clean_linker_10, # of connection points: 2
#     Edge 19, Type (0, 1), BuildingBlock: TEMPAE_clean_linker_10, # of connection points: 2
#     Edge 20, Type (0, 1), BuildingBlock: TEMPAE_clean_linker_10, # of connection points: 2
#     Edge 21, Type (0, 1), BuildingBlock: TEMPAE_clean_linker_10, # of connection points: 2
#     Edge 22, Type (0, 1), BuildingBlock: TEMPAE_clean_linker_10, # of connection points: 2
#     Edge 23, Type (0, 1), BuildingBlock: TEMPAE_clean_linker_10, # of connection points: 2
#     Edge 24, Type (0, 1), BuildingBlock: TEMPAE_clean_linker_10, # of connection points: 2
#     Edge 25, Type (0, 1), BuildingBlock: TEMPAE_clean_linker_10, # of connection points: 2
#     Edge 26, Type (0, 1), BuildingBlock: TEMPAE_clean_linker_10, # of connection points: 2
# Relax obj value: 0.183
# Max RMSD: 0.208
# Mean RMSD: 0.156
data_MOF--net-anh--node1-BETFEN_clean_sbu_0--node2-MIDCAF_clean_linker_0--edge1-TEMPAE_clean_linker_10
_symmetry_space_group_name_H-M    P1
_symmetry_Int_Tables_number       1
_symmetry_cell_setting            triclinic
loop_
_symmetry_equiv_pos_as_xyz
'x, y, z'
_cell_length_a     36.414979
_cell_length_b     38.957988
_cell_length_c     67.258975
_cell_angle_alpha  90.319623
_cell_angle_beta   92.12063
_cell_angle_gamma 108.08387
loop_
_atom_site_label
_atom_site_type_symbol
_atom_site_fract_x
_atom_site_fract_y
_atom_site_fract_z
_atom_type_partial_charge
Pr0 Pr 0.0302 0.51452 0.15196 0.0
Pr1 Pr 0.05461 0.59381 0.14386 0.0
C2 C 0.99743 0.44796 0.16642 0.0
C3 C 0.95908 0.42124 0.16945 0.0
C4 C 0.93567 0.40206 0.15338 0.0
C5 C 0.90063 0.37536 0.15674 0.0
C6 C 0.88825 0.3672 0.17622 0.0
C7 C 0.91139 0.38696 0.19221 0.0
C8 C 0.94642 0.41351 0.18886 0.0
C9 C 0.04065 0.53008 0.1118 0.0
C10 C 0.96201 0.55502 0.14347 0.0
C11 C 0.08919 0.66213 0.13239 0.0
C12 C 0.12596 0.69 0.13785 0.0
C13 C 0.14847 0.68546 0.1544 0.0
C14 C 0.18285 0.71239 0.15998 0.0
C15 C 0.19557 0.74434 0.14902 0.0
C16 C 0.17313 0.7484 0.13221 0.0
C17 C 0.1386 0.72146 0.1267 0.0
C18 C 0.04594 0.57718 0.18407 0.0
C19 C 0.12297 0.55226 0.14901 0.0
O20 O 1.00718 0.47736 0.17751 0.0
O21 O 1.00902 0.45369 0.1482 0.0
O22 O 0.02382 0.54547 0.12336 0.0
O23 O 0.05131 0.50499 0.12068 0.0
O24 O 0.98892 0.58177 0.13555 0.0
O25 O 0.97134 0.5287 0.15263 0.0
O26 O 0.09181 0.63383 0.12273 0.0
O27 O 0.0639 0.65383 0.14629 0.0
O28 O 0.06272 0.5628 0.17202 0.0
O29 O 0.03366 0.60158 0.17561 0.0
O30 O 0.09675 0.52421 0.15635 0.0
O31 O 0.11323 0.57997 0.14194 0.0
H32 H 0.94464 0.40722 0.13822 0.0
H33 H 0.88374 0.36045 0.14409 0.0
H34 H 0.90248 0.38184 0.20738 0.0
H35 H 0.96389 0.42777 0.20153 0.0
H36 H 0.13916 0.66125 0.16317 0.0
H37 H 0.19899 0.70849 0.17316 0.0
H38 H 0.18228 0.77235 0.12325 0.0
H39 H 0.12167 0.72527 0.1138 0.0
Pr40 Pr 0.57196 0.06268 0.51927 0.0
Pr41 Pr 0.48609 0.03774 0.52189 0.0
C42 C 0.64455 0.09507 0.50755 0.0
C43 C 0.67202 0.13135 0.50393 0.0
C44 C 0.68653 0.15707 0.51936 0.0
C45 C 0.71355 0.19064 0.51551 0.0
C46 C 0.72665 0.19924 0.49617 0.0
C47 C 0.71158 0.17356 0.48076 0.0
C48 C 0.68479 0.14005 0.48461 0.0
C49 C 0.54733 0.05197 0.55793 0.0
C50 C 0.52613 0.12881 0.52281 0.0
C51 C 0.41186 1.00258 0.52981 0.0
C52 C 0.38412 0.96706 0.52402 0.0
C53 C 0.38607 0.95095 0.50552 0.0
C54 C 0.35952 0.91748 0.50001 0.0
C55 C 0.33067 0.89919 0.51296 0.0
C56 C 0.32927 0.91509 0.53165 0.0
C57 C 0.3557 0.94877 0.53709 0.0
C58 C 0.51077 0.0467 0.48308 0.0
C59 C 0.53277 0.97176 0.52133 0.0
O60 O 0.61458 0.08362 0.49513 0.0
O61 O 0.63653 0.08572 0.52595 0.0
O62 O 0.53306 0.0673 0.54463 0.0
O63 O 0.57683 0.04325 0.55184 0.0
O64 O 0.49455 0.10167 0.52693 0.0
O65 O 0.55779 0.12041 0.51809 0.0
O66 O 0.44097 1.00217 0.5417 0.0
O67 O 0.42193 0.02609 0.51563 0.0
O68 O 0.52473 0.03163 0.49662 0.0
O69 O 0.48236 0.05683 0.48922 0.0
O70 O 0.56469 0.99856 0.51735 0.0
O71 O 0.50061 0.98035 0.52464 0.0
H72 H 0.67733 0.15121 0.53443 0.0
H73 H 0.72472 0.20955 0.52779 0.0
H74 H 0.72034 0.17938 0.46561 0.0
H75 H 0.67411 0.12078 0.47243 0.0
H76 H 0.40811 0.96428 0.49528 0.0
H77 H 0.3618 0.90572 0.48565 0.0
H78 H 0.30731 0.90179 0.54192 0.0
H79 H 0.35385 0.96062 0.55149 0.0
Pr80 Pr 0.5314 0.51921 0.81591 0.0
Pr81 Pr 0.56174 0.60304 0.83031 0.0
C82 C 0.51906 0.45485 0.7978 0.0
C83 C 0.52935 0.42238 0.80261 0.0
C84 C 0.50896 0.38966 0.79314 0.0
C85 C 0.51524 0.35773 0.79922 0.0
C86 C 0.54211 0.35805 0.81488 0.0
C87 C 0.56329 0.39118 0.82401 0.0
C88 C 0.5569 0.42317 0.81792 0.0
C89 C 0.53345 0.5316 0.85674 0.0
C90 C 0.628 0.56187 0.82445 0.0
C91 C 0.56988 0.66123 0.85319 0.0
C92 C 0.54618 0.68562 0.85248 0.0
C93 C 0.5331 0.69487 0.834 0.0
C94 C 0.50421 0.71132 0.83294 0.0
C95 C 0.48758 0.71867 0.85033 0.0
C96 C 0.50128 0.71024 0.86889 0.0
C97 C 0.53047 0.69386 0.86995 0.0
C98 C 0.54863 0.5969 0.78859 0.0
C99 C 0.46709 0.562 0.82038 0.0
O100 O 0.54759 0.48348 0.7935 0.0
O101 O 0.49435 0.46179 0.80956 0.0
O102 O 0.55834 0.54898 0.84493 0.0
O103 O 0.508 0.50439 0.84777 0.0
O104 O 0.62126 0.59172 0.83054 0.0
O105 O 0.59974 0.53257 0.81818 0.0
O106 O 0.5511 0.62851 0.85878 0.0
O107 O 0.59184 0.66194 0.838 0.0
O108 O 0.54356 0.57249 0.80115 0.0
O109 O 0.56169 0.62804 0.79781 0.0
O110 O 0.47535 0.53627 0.81022 0.0
O111 O 0.49391 0.5867 0.83104 0.0
H112 H 0.48727 0.38864 0.78148 0.0
H113 H 0.49787 0.3326 0.79214 0.0
H114 H 0.5843 0.39228 0.83601 0.0
H115 H 0.57266 0.44835 0.82549 0.0
H116 H 0.54384 0.68786 0.82024 0.0
H117 H 0.4938 0.717 0.81842 0.0
H118 H 0.48905 0.71584 0.8825 0.0
H119 H 0.53956 0.68617 0.88432 0.0
C120 C 0.44056 0.93287 0.22777 0.0
C121 C 0.42863 0.93839 0.20826 0.0
C122 C 0.44851 0.9706 0.1988 0.0
C123 C 0.47876 0.99708 0.20886 0.0
H124 H 0.58346 0.08663 0.20184 0.0
H125 H 0.63108 0.13736 0.18655 0.0
H126 H 0.66597 0.18743 0.24456 0.0
H127 H 0.6185 0.13764 0.25972 0.0
H128 H 0.57657 0.10193 0.29793 0.0
H129 H 0.57553 0.10016 0.33403 0.0
H130 H 0.52103 0.98448 0.33075 0.0
H131 H 0.52041 0.98662 0.29457 0.0
H132 H 0.47833 0.95414 0.25296 0.0
H133 H 0.42663 0.90805 0.23536 0.0
H134 H 0.43995 0.97587 0.18382 0.0
H135 H 0.49281 1.02193 0.20134 0.0
N136 N 0.54357 0.04971 0.23091 0.0
N137 N 0.571 0.07449 0.26195 0.0
N138 N 0.52148 1.01926 0.26033 0.0
C139 C 0.56971 0.07658 0.24179 0.0
C140 C 0.54713 0.04595 0.27133 0.0
C141 C 0.5193 1.02091 0.24015 0.0
C142 C 0.5971 0.10786 0.23204 0.0
C143 C 0.60107 0.10862 0.2113 0.0
C144 C 0.62848 0.13759 0.20254 0.0
C145 C 0.65226 0.16652 0.21432 0.0
C146 C 0.64776 0.16594 0.23498 0.0
C147 C 0.62062 0.13708 0.24371 0.0
C148 C 0.54836 0.04445 0.29335 0.0
C149 C 0.56451 0.07608 0.30492 0.0
C150 C 0.56415 0.07501 0.32568 0.0
C151 C 0.54816 0.04217 0.33544 0.0
C152 C 0.53289 1.01039 0.32382 0.0
C153 C 0.5327 1.01156 0.30304 0.0
C154 C 0.48961 0.99199 0.22865 0.0
C155 C 0.47047 0.95932 0.23784 0.0
C156 C 0.50842 0.41469 0.54825 0.0
C157 C 0.52579 0.40394 0.53184 0.0
C158 C 0.5414 0.43242 0.51816 0.0
C159 C 0.54105 0.46927 0.52133 0.0
H160 H 0.48304 0.60775 0.51676 0.0
H161 H 0.48248 0.67037 0.51136 0.0
H162 H 0.58798 0.71028 0.54706 0.0
H163 H 0.58858 0.64865 0.55209 0.0
H164 H 0.56583 0.61524 0.59823 0.0
H165 H 0.56772 0.62027 0.63454 0.0
H166 H 0.50265 0.50733 0.63781 0.0
H167 H 0.50144 0.50188 0.60143 0.0
H168 H 0.49399 0.45593 0.56447 0.0
H169 H 0.49492 0.39492 0.55916 0.0
H170 H 0.55524 0.4266 0.50516 0.0
H171 H 0.55505 0.48962 0.51081 0.0
N172 N 0.53017 0.55049 0.53409 0.0
N173 N 0.53443 0.58474 0.56383 0.0
N174 N 0.52894 0.52346 0.56562 0.0
C175 C 0.53311 0.58379 0.54365 0.0
C176 C 0.5322 0.5553 0.57486 0.0
C177 C 0.52812 0.51952 0.54547 0.0
C178 C 0.53675 0.62151 0.53435 0.0
C179 C 0.50712 0.62976 0.52279 0.0
C180 C 0.50653 0.66644 0.51995 0.0
C181 C 0.53492 0.69728 0.52891 0.0
C182 C 0.56481 0.68874 0.53996 0.0
C183 C 0.56559 0.65252 0.54256 0.0
C184 C 0.53349 0.55814 0.59692 0.0
C185 C 0.55196 0.59143 0.60666 0.0
C186 C 0.55321 0.59432 0.62744 0.0
C187 C 0.5353 0.56421 0.63893 0.0
C188 C 0.51654 0.53098 0.62926 0.0
C189 C 0.51604 0.52786 0.60847 0.0
C190 C 0.52444 0.47983 0.53826 0.0
C191 C 0.50765 0.45076 0.55124 0.0
C192 C 0.93535 0.57351 0.83661 0.0
C193 C 0.90204 0.54872 0.84431 0.0
C194 C 0.90713 0.52207 0.85718 0.0
C195 C 0.94409 0.52183 0.86337 0.0
H196 H 0.1185 0.59222 0.83664 0.0
H197 H 0.183 0.59536 0.82552 0.0
H198 H 0.18714 0.51264 0.86734 0.0
H199 H 0.12444 0.51123 0.87894 0.0
H200 H 0.10815 0.55473 0.92471 0.0
H201 H 0.1073 0.55419 0.96095 0.0
H202 H 0.98762 0.55097 0.95795 0.0
H203 H 0.98807 0.55088 0.92182 0.0
H204 H 0.99774 0.59362 0.8375 0.0
H205 H 0.93268 0.59448 0.8267 0.0
H206 H 0.88242 0.50185 0.863 0.0
H207 H 0.94673 0.50198 0.8741 0.0
N208 N 0.04784 0.55272 0.85743 0.0
N209 N 0.08038 0.55307 0.88846 0.0
N210 N 1.01571 0.5513 0.88732 0.0
C211 C 0.08069 0.5532 0.86824 0.0
C212 C 0.04821 0.55255 0.89814 0.0
C213 C 1.01501 0.55141 0.86713 0.0
C214 C 0.11651 0.5517 0.85877 0.0
C215 C 0.13318 0.57449 0.8432 0.0
C216 C 0.17023 0.57623 0.83686 0.0
C217 C 0.19113 0.55482 0.84578 0.0
C218 C 0.17303 0.53059 0.86053 0.0
C219 C 0.13666 0.5294 0.86706 0.0
C220 C 0.04815 0.55271 0.92024 0.0
C221 C 0.08162 0.55391 0.93174 0.0
C222 C 0.08123 0.55384 0.95255 0.0
C223 C 0.04738 0.55249 0.96236 0.0
C224 C 1.01403 0.55153 0.95087 0.0
C225 C 1.0144 0.55166 0.93011 0.0
C226 C 0.9773 0.54776 0.85665 0.0
C227 C 0.97267 0.57299 0.84271 0.0
C228 C 0.1498 0.65409 0.44167 0.0
C229 C 0.14349 0.66248 0.46134 0.0
C230 C 0.1107 0.6403 0.47063 0.0
C231 C 0.0847 0.61059 0.46038 0.0
H232 H 0.99486 0.50832 0.4668 0.0
H233 H 0.94577 0.45823 0.48171 0.0
H234 H 0.90507 0.4137 0.42308 0.0
H235 H 0.9529 0.46355 0.40827 0.0
H236 H 0.97899 0.51562 0.37017 0.0
H237 H 0.98082 0.5183 0.33407 0.0
H238 H 0.10263 0.57848 0.33894 0.0
H239 H 0.1001 0.57745 0.37502 0.0
H240 H 0.12957 0.61961 0.41619 0.0
H241 H 0.17444 0.67081 0.43397 0.0
H242 H 0.10516 0.64592 0.48582 0.0
H243 H 0.05954 0.59429 0.46786 0.0
N244 N 0.03426 0.54662 0.4379 0.0
N245 N 1.01007 0.52031 0.40664 0.0
N246 N 0.0638 0.57232 0.40871 0.0
C247 C 1.00813 0.51998 0.4268 0.0
C248 C 0.03778 0.54627 0.39749 0.0
C249 C 0.06225 0.57295 0.42887 0.0
C250 C 0.978 0.49022 0.43629 0.0
C251 C 0.97527 0.48795 0.4571 0.0
C252 C 0.94724 0.45911 0.46566 0.0
C253 C 0.92123 0.43194 0.45361 0.0
C254 C 0.92401 0.4344 0.43285 0.0
C255 C 0.95183 0.46305 0.42434 0.0
C256 C 0.03934 0.54649 0.37549 0.0
C257 C 1.00617 0.52936 0.36351 0.0
C258 C 1.00733 0.53071 0.34275 0.0
C259 C 0.04188 0.54867 0.3334 0.0
C260 C 0.07525 0.5651 0.34548 0.0
C261 C 0.0739 0.56432 0.36623 0.0
C262 C 0.09069 0.60274 0.44053 0.0
C263 C 0.12378 0.62476 0.43142 0.0
C264 C 0.49899 0.09615 0.81233 0.0
C265 C 0.481 0.10315 0.82932 0.0
C266 C 0.44589 0.07812 0.83464 0.0
C267 C 0.42793 0.04789 0.82246 0.0
H268 H 0.33551 0.94656 0.81659 0.0
H269 H 0.31186 0.88944 0.83375 0.0
H270 H 0.33948 0.83425 0.78318 0.0
H271 H 0.36089 0.89061 0.76586 0.0
H272 H 0.37373 0.95628 0.72387 0.0
H273 H 0.39294 0.96548 0.68935 0.0
H274 H 0.50251 0.04118 0.70942 0.0
H275 H 0.48283 0.03313 0.74352 0.0
H276 H 0.49486 0.06261 0.78665 0.0
H277 H 0.52575 0.11515 0.80766 0.0
H278 H 0.43144 0.08292 0.84768 0.0
H279 H 0.40009 0.02986 0.82644 0.0
N280 N 0.39525 0.98439 0.79605 0.0
N281 N 0.38672 0.96077 0.76336 0.0
N282 N 0.43319 1.01659 0.77087 0.0
C283 C 0.37676 0.95765 0.78274 0.0
C284 C 0.41477 0.99046 0.75732 0.0
C285 C 0.42361 1.01385 0.79021 0.0
C286 C 0.35127 0.92317 0.79017 0.0
C287 C 0.33508 0.92192 0.8089 0.0
C288 C 0.32163 0.88917 0.81875 0.0
C289 C 0.32512 0.8573 0.81025 0.0
C290 C 0.33632 0.85803 0.79038 0.0
C291 C 0.34902 0.89064 0.78039 0.0
C292 C 0.42656 0.99422 0.73642 0.0
C293 C 0.40191 0.97482 0.72084 0.0
C294 C 0.413 0.98001 0.70108 0.0
C295 C 0.44914 1.00439 0.69655 0.0
C296 C 0.47407 1.02295 0.71225 0.0
C297 C 0.46283 1.01814 0.73188 0.0
C298 C 0.44458 0.04258 0.80464 0.0
C299 C 0.48092 0.0663 0.80009 0.0
C300 C 0.66535 0.57232 0.13126 0.0
C301 C 0.67956 0.54457 0.12459 0.0
C302 C 0.65429 0.51611 0.11305 0.0
C303 C 0.61734 0.5168 0.10701 0.0
H304 H 0.47892 0.53614 0.13725 0.0
H305 H 0.41508 0.53386 0.14914 0.0
H306 H 0.39082 0.58184 0.09454 0.0
H307 H 0.45336 0.58386 0.08274 0.0
H308 H 0.48377 0.55968 0.04359 0.0
H309 H 0.48537 0.55989 0.00745 0.0
H310 H 0.60247 0.55543 0.01116 0.0
H311 H 0.6007 0.55434 0.04729 0.0
H312 H 0.61875 0.59553 0.12965 0.0
H313 H 0.68385 0.59484 0.14006 0.0
H314 H 0.66347 0.49371 0.10806 0.0
H315 H 0.59966 0.49558 0.0971 0.0
N316 N 0.5382 0.55338 0.11109 0.0
N317 N 0.50949 0.5587 0.07979 0.0
N318 N 0.57066 0.5513 0.08163 0.0
C319 C 0.5076 0.55753 0.09994 0.0
C320 C 0.54076 0.55571 0.0705 0.0
C321 C 0.56991 0.55028 0.10178 0.0
C322 C 0.47133 0.5597 0.10889 0.0
C323 C 0.46009 0.54657 0.12793 0.0
C324 C 0.42346 0.54523 0.13473 0.0
C325 C 0.39734 0.55696 0.12262 0.0
C326 C 0.40954 0.57159 0.10406 0.0
C327 C 0.44575 0.57291 0.09733 0.0
C328 C 0.54204 0.55682 0.04845 0.0
C329 C 0.50994 0.5588 0.03675 0.0
C330 C 0.51092 0.55917 0.01599 0.0
C331 C 0.54404 0.55766 0.00638 0.0
C332 C 0.57629 0.55611 0.01806 0.0
C333 C 0.5753 0.55565 0.03882 0.0
C334 C 0.60406 0.54545 0.11271 0.0
C335 C 0.62793 0.5727 0.1254 0.0
C336 C 0.17483 0.52181 0.15254 0.0
C337 C 0.16405 0.5526 0.14798 0.0
C338 C 0.21302 0.52127 0.15022 0.0
C339 C 0.24134 0.55227 0.14323 0.0
C340 C 0.23089 0.58378 0.13924 0.0
C341 C 0.19255 0.58354 0.14161 0.0
C342 C 0.22275 0.4871 0.15467 0.0
C343 C 0.25998 0.61754 0.13184 0.0
C344 C 0.34957 0.56253 0.14801 0.0
C345 C 0.35707 0.55335 0.12868 0.0
C346 C 0.31199 0.56161 0.15313 0.0
C347 C 0.28102 0.55109 0.13865 0.0
C348 C 0.28828 0.54073 0.11934 0.0
C349 C 0.32597 0.54193 0.11463 0.0
C350 C 0.30561 0.57285 0.1739 0.0
C351 C 0.25631 0.52906 0.10342 0.0
H352 H 0.15321 0.49774 0.15748 0.0
H353 H 0.18482 0.60762 0.13816 0.0
H354 H 0.22996 0.47574 0.14072 0.0
H355 H 0.24858 0.49305 0.16495 0.0
H356 H 0.19847 0.46627 0.16141 0.0
H357 H 0.24812 0.64056 0.13077 0.0
H358 H 0.28618 0.62554 0.1419 0.0
H359 H 0.26915 0.61215 0.1169 0.0
H360 H 0.3733 0.57152 0.15896 0.0
H361 H 0.33115 0.53403 0.09978 0.0
H362 H 0.28172 0.55156 0.18056 0.0
H363 H 0.29692 0.59772 0.17329 0.0
H364 H 0.33196 0.57814 0.18379 0.0
H365 H 0.23213 0.50632 0.10874 0.0
H366 H 0.26632 0.5205 0.08938 0.0
H367 H 0.24466 0.55167 0.10014 0.0
C368 C 0.75501 0.26679 0.50105 0.0
C369 C 0.75613 0.23458 0.49197 0.0
C370 C 0.78191 0.30027 0.49659 0.0
C371 C 0.81051 0.30171 0.48262 0.0
C372 C 0.81221 0.26926 0.47369 0.0
C373 C 0.78522 0.2362 0.47853 0.0
C374 C 0.77924 0.33419 0.50654 0.0
C375 C 0.84216 0.2695 0.4587 0.0
C376 C 0.85456 0.38691 0.45334 0.0
C377 C 0.89172 0.4006 0.46239 0.0
C378 C 0.82756 0.35541 0.46014 0.0
C379 C 0.83765 0.33711 0.47657 0.0
C380 C 0.87448 0.35157 0.48633 0.0
C381 C 0.90109 0.38305 0.47911 0.0
C382 C 0.78864 0.34103 0.44929 0.0
C383 C 0.88628 0.33307 0.50399 0.0
H384 H 0.73252 0.26599 0.51131 0.0
H385 H 0.78695 0.21149 0.47174 0.0
H386 H 0.80758 0.34953 0.51371 0.0
H387 H 0.77198 0.35192 0.49522 0.0
H388 H 0.75697 0.32833 0.51797 0.0
H389 H 0.84022 0.24187 0.45345 0.0
H390 H 0.83842 0.28552 0.44563 0.0
H391 H 0.87161 0.2826 0.4653 0.0
H392 H 0.84668 0.40064 0.44069 0.0
H393 H 0.92975 0.39318 0.48614 0.0
H394 H 0.76511 0.33702 0.4599 0.0
H395 H 0.78569 0.3143 0.44241 0.0
H396 H 0.78451 0.35936 0.43743 0.0
H397 H 0.86395 0.32778 0.51535 0.0
H398 H 0.91446 0.34934 0.51099 0.0
H399 H 0.88863 0.30657 0.4992 0.0
C400 C 0.45823 0.76311 0.8359 0.0
C401 C 0.45551 0.73442 0.84875 0.0
C402 C 0.42747 0.77703 0.83297 0.0
C403 C 0.39296 0.76195 0.84324 0.0
C404 C 0.39 0.73304 0.85638 0.0
C405 C 0.42156 0.71977 0.85911 0.0
C406 C 0.43204 0.80795 0.81879 0.0
C407 C 0.35397 0.7163 0.86771 0.0
C408 C 0.34639 0.83432 0.8418 0.0
C409 C 0.32701 0.82672 0.82304 0.0
C410 C 0.36323 0.81 0.85056 0.0
C411 C 0.36107 0.77781 0.84015 0.0
C412 C 0.33575 0.76714 0.8232 0.0
C413 C 0.31864 0.79173 0.81489 0.0
C414 C 0.38836 0.82145 0.86928 0.0
C415 C 0.33126 0.73215 0.81219 0.0
H416 H 0.48463 0.77472 0.82807 0.0
H417 H 0.4193 0.69732 0.86895 0.0
H418 H 0.40889 0.80037 0.80689 0.0
H419 H 0.42931 0.8319 0.82686 0.0
H420 H 0.46044 0.81586 0.81166 0.0
H421 H 0.35174 0.68838 0.87227 0.0
H422 H 0.35503 0.73271 0.88138 0.0
H423 H 0.32746 0.71562 0.85883 0.0
H424 H 0.35265 0.86087 0.84862 0.0
H425 H 0.30213 0.78491 0.80088 0.0
H426 H 0.419 0.83291 0.86525 0.0
H427 H 0.38613 0.79801 0.87897 0.0
H428 H 0.38036 0.84238 0.87782 0.0
H429 H 0.35638 0.73569 0.80265 0.0
H430 H 0.30451 0.72392 0.80249 0.0
H431 H 0.33062 0.71013 0.82269 0.0
C432 C 0.89101 0.5238 0.148 0.0
C433 C 0.92062 0.55405 0.1418 0.0
C434 C 0.85183 0.52224 0.14612 0.0
C435 C 0.84172 0.55174 0.13797 0.0
C436 C 0.87151 0.58258 0.13198 0.0
C437 C 0.91043 0.5833 0.13389 0.0
C438 C 0.82115 0.48869 0.15255 0.0
C439 C 0.86223 0.61473 0.12332 0.0
C440 C 0.74109 0.53461 0.11358 0.0
C441 C 0.72106 0.5462 0.1284 0.0
C442 C 0.77997 0.53596 0.1166 0.0
C443 C 0.80001 0.54969 0.13483 0.0
C444 C 0.78023 0.5617 0.14983 0.0
C445 C 0.7411 0.55975 0.14647 0.0
C446 C 0.7997 0.52283 0.10016 0.0
C447 C 0.80046 0.57669 0.16945 0.0
H448 H 0.89837 0.50099 0.15413 0.0
H449 H 0.93292 0.60691 0.12913 0.0
H450 H 0.80282 0.49587 0.16364 0.0
H451 H 0.80197 0.47595 0.13957 0.0
H452 H 0.83369 0.46852 0.15915 0.0
H453 H 0.88867 0.63727 0.1202 0.0
H454 H 0.84468 0.60662 0.10925 0.0
H455 H 0.84472 0.6247 0.13372 0.0
H456 H 0.72655 0.52493 0.09935 0.0
H457 H 0.72612 0.56855 0.15812 0.0
H458 H 0.81118 0.50127 0.10573 0.0
H459 H 0.82464 0.54528 0.09526 0.0
H460 H 0.77989 0.51208 0.08705 0.0
H461 H 0.81104 0.55611 0.17699 0.0
H462 H 0.78126 0.58511 0.17956 0.0
H463 H 0.82609 0.60036 0.16686 0.0
C464 C 0.29249 0.83482 0.51999 0.0
C465 C 0.30205 0.86383 0.50684 0.0
C466 C 0.26627 0.80109 0.51411 0.0
C467 C 0.2489 0.7963 0.49466 0.0
C468 C 0.25801 0.82568 0.48144 0.0
C469 C 0.28451 0.85896 0.48766 0.0
C470 C 0.25763 0.7704 0.52858 0.0
C471 C 0.23994 0.8219 0.46065 0.0
C472 C 0.21068 0.70317 0.46996 0.0
C473 C 0.17058 0.69505 0.47164 0.0
C474 C 0.23651 0.73544 0.47795 0.0
C475 C 0.222 0.76042 0.48783 0.0
C476 C 0.18164 0.75186 0.49016 0.0
C477 C 0.15644 0.71926 0.4821 0.0
C478 C 0.27932 0.74326 0.4753 0.0
C479 C 0.16495 0.77777 0.50053 0.0
H480 H 0.30618 0.83827 0.53477 0.0
H481 H 0.29133 0.88138 0.47751 0.0
H482 H 0.22606 0.75978 0.53071 0.0
H483 H 0.26667 0.7479 0.52247 0.0
H484 H 0.27269 0.77874 0.54332 0.0
H485 H 0.2492 0.84759 0.45239 0.0
H486 H 0.24794 0.80097 0.45215 0.0
H487 H 0.20796 0.81289 0.46126 0.0
H488 H 0.22188 0.68438 0.46216 0.0
H489 H 0.1255 0.71337 0.48331 0.0
H490 H 0.29535 0.74998 0.48987 0.0
H491 H 0.29007 0.76708 0.4657 0.0
H492 H 0.28615 0.7201 0.46841 0.0
H493 H 0.17929 0.78547 0.51545 0.0
H494 H 0.1333 0.76615 0.50229 0.0
H495 H 0.17046 0.80288 0.49185 0.0
C496 C 0.54627 0.31683 0.84283 0.0
C497 C 0.54566 0.32343 0.82233 0.0
C498 C 0.54249 0.28205 0.84983 0.0
C499 C 0.53718 0.25333 0.83596 0.0
C500 C 0.53971 0.26053 0.81533 0.0
C501 C 0.54434 0.29558 0.80882 0.0
C502 C 0.54151 0.27585 0.87195 0.0
C503 C 0.53454 0.23076 0.79996 0.0
C504 C 0.53495 0.15705 0.84179 0.0
C505 C 0.49516 0.13961 0.83868 0.0
C506 C 0.54937 0.19479 0.84378 0.0
C507 C 0.52334 0.21516 0.84222 0.0
C508 C 0.48301 0.19732 0.84192 0.0
C509 C 0.46937 0.15962 0.84025 0.0
C510 C 0.59251 0.21287 0.84527 0.0
C511 C 0.45417 0.21803 0.84061 0.0
H512 H 0.54744 0.33827 0.85341 0.0
H513 H 0.54504 0.30085 0.79301 0.0
H514 H 0.51119 0.26861 0.87661 0.0
H515 H 0.55299 0.2535 0.8761 0.0
H516 H 0.55846 0.30068 0.88036 0.0
H517 H 0.53912 0.24125 0.78463 0.0
H518 H 0.55507 0.21546 0.80327 0.0
H519 H 0.50484 0.21149 0.80041 0.0
H520 H 0.55494 0.14149 0.84104 0.0
H521 H 0.43858 0.14629 0.83795 0.0
H522 H 0.59997 0.23777 0.85467 0.0
H523 H 0.60325 0.22068 0.83021 0.0
H524 H 0.60777 0.19445 0.85153 0.0
H525 H 0.46192 0.24062 0.85164 0.0
H526 H 0.42427 0.2005 0.84315 0.0
H527 H 0.45457 0.22979 0.82559 0.0
C528 C 0.56423 0.92008 0.51606 0.0
C529 C 0.53269 0.93128 0.52208 0.0
C530 C 0.56435 0.883 0.51663 0.0
C531 C 0.5324 0.85454 0.52371 0.0
C532 C 0.50055 0.86572 0.52989 0.0
C533 C 0.50095 0.90289 0.52889 0.0
C534 C 0.59917 0.87424 0.50945 0.0
C535 C 0.46562 0.83814 0.53788 0.0
C536 C 0.5174 0.75073 0.51072 0.0
C537 C 0.53354 0.73747 0.52743 0.0
C538 C 0.5171 0.78772 0.50925 0.0
C539 C 0.53259 0.81389 0.52495 0.0
C540 C 0.54833 0.80055 0.54195 0.0
C541 C 0.54888 0.76369 0.54289 0.0
C542 C 0.50035 0.79899 0.49051 0.0
C543 C 0.56463 0.82546 0.55953 0.0
H544 H 0.58926 0.9405 0.51065 0.0
H545 H 0.47602 0.90977 0.53372 0.0
H546 H 0.61278 0.8632 0.52183 0.0
H547 H 0.59014 0.8531 0.49755 0.0
H548 H 0.62112 0.89827 0.50359 0.0
H549 H 0.44328 0.8503 0.5424 0.0
H550 H 0.45255 0.81681 0.52643 0.0
H551 H 0.47443 0.82481 0.55094 0.0
H552 H 0.50545 0.73223 0.49836 0.0
H553 H 0.56101 0.75528 0.55623 0.0
H554 H 0.5224 0.82191 0.4838 0.0
H555 H 0.47563 0.80854 0.4941 0.0
H556 H 0.49027 0.7766 0.47934 0.0
H557 H 0.58912 0.84864 0.55493 0.0
H558 H 0.57495 0.81164 0.57193 0.0
H559 H 0.54225 0.8366 0.56508 0.0
C560 C 0.67696 0.52841 0.82148 0.0
C561 C 0.66873 0.56067 0.82546 0.0
C562 C 0.71502 0.5266 0.82329 0.0
C563 C 0.74592 0.55779 0.82915 0.0
C564 C 0.73795 0.59061 0.83273 0.0
C565 C 0.69962 0.59163 0.8309 0.0
C566 C 0.72202 0.49098 0.81942 0.0
C567 C 0.76986 0.62458 0.83896 0.0
C568 C 0.8356 0.5453 0.85535 0.0
C569 C 0.86223 0.55149 0.84011 0.0
C570 C 0.79789 0.54707 0.85192 0.0
C571 C 0.78611 0.55561 0.83277 0.0
C572 C 0.81284 0.5623 0.81733 0.0
C573 C 0.8505 0.5602 0.82117 0.0
C574 C 0.77063 0.53986 0.86889 0.0
C575 C 0.80159 0.57157 0.79671 0.0
H576 H 0.65352 0.50425 0.81727 0.0
H577 H 0.69388 0.61679 0.83394 0.0
H578 H 0.74447 0.49429 0.80824 0.0
H579 H 0.73301 0.48168 0.83331 0.0
H580 H 0.69537 0.46968 0.81399 0.0
H581 H 0.75937 0.6484 0.84005 0.0
H582 H 0.78276 0.62071 0.85365 0.0
H583 H 0.79323 0.63041 0.82816 0.0
H584 H 0.84437 0.53942 0.87018 0.0
H585 H 0.87057 0.56486 0.80923 0.0
H586 H 0.7442 0.51718 0.86484 0.0
H587 H 0.76141 0.56395 0.87183 0.0
H588 H 0.78397 0.53306 0.88283 0.0
H589 H 0.77654 0.54935 0.79055 0.0
H590 H 0.82565 0.57629 0.78635 0.0
H591 H 0.79244 0.59618 0.79739 0.0
C592 C 0.23284 0.81001 0.15473 0.0
C593 C 0.23146 0.77362 0.15551 0.0
C594 C 0.26563 0.83773 0.16189 0.0
C595 C 0.29776 0.8289 0.17023 0.0
C596 C 0.29697 0.79234 0.17062 0.0
C597 C 0.26396 0.76521 0.16319 0.0
C598 C 0.26539 0.87639 0.1611 0.0
C599 C 0.33058 0.78177 0.17942 0.0
C600 C 0.39509 0.90209 0.17793 0.0
C601 C 0.39491 0.91092 0.19819 0.0
C602 C 0.36356 0.87571 0.16854 0.0
C603 C 0.33114 0.8576 0.17969 0.0
C604 C 0.33065 0.86663 0.20007 0.0
C605 C 0.36235 0.89323 0.20901 0.0
C606 C 0.36504 0.86699 0.14675 0.0
C607 C 0.29667 0.84799 0.2125 0.0
H608 H 0.2078 0.81685 0.14906 0.0
H609 H 0.26352 0.73727 0.16352 0.0
H610 H 0.26587 0.88719 0.17644 0.0
H611 H 0.29167 0.89347 0.15397 0.0
H612 H 0.23951 0.87901 0.15277 0.0
H613 H 0.32622 0.75237 0.17775 0.0
H614 H 0.35765 0.79681 0.1722 0.0
H615 H 0.33466 0.78911 0.1955 0.0
H616 H 0.42019 0.91536 0.16948 0.0
H617 H 0.3615 0.90036 0.22455 0.0
H618 H 0.33968 0.87067 0.13843 0.0
H619 H 0.36353 0.83828 0.14482 0.0
H620 H 0.39181 0.8842 0.14004 0.0
H621 H 0.26994 0.8521 0.206 0.0
H622 H 0.30082 0.8581 0.22816 0.0
H623 H 0.2921 0.81848 0.21247 0.0
C624 C 0.56082 0.19904 0.52253 0.0
C625 C 0.52641 0.16938 0.52364 0.0
C626 C 0.56162 0.23637 0.52348 0.0
C627 C 0.52713 0.24632 0.52529 0.0
C628 C 0.49226 0.2165 0.5262 0.0
C629 C 0.49236 0.1794 0.52555 0.0
C630 C 0.60007 0.2655 0.52275 0.0
C631 C 0.45418 0.22377 0.5278 0.0
C632 C 0.5297 0.34262 0.54663 0.0
C633 C 0.52737 0.36385 0.52974 0.0
C634 C 0.53012 0.30574 0.54538 0.0
C635 C 0.52756 0.28718 0.52671 0.0
C636 C 0.5253 0.30832 0.50956 0.0
C637 C 0.52562 0.34553 0.51122 0.0
C638 C 0.53357 0.28649 0.5644 0.0
C639 C 0.52191 0.29129 0.48914 0.0
H640 H 0.58779 0.19313 0.52111 0.0
H641 H 0.46515 0.15796 0.52639 0.0
H642 H 0.60002 0.28297 0.5098 0.0
H643 H 0.60498 0.28293 0.53632 0.0
H644 H 0.62451 0.25429 0.52164 0.0
H645 H 0.42929 0.19853 0.52743 0.0
H646 H 0.45416 0.23872 0.54188 0.0
H647 H 0.45014 0.2411 0.5154 0.0
H648 H 0.53184 0.35509 0.56123 0.0
H649 H 0.52356 0.36007 0.49777 0.0
H650 H 0.55898 0.27654 0.56407 0.0
H651 H 0.50762 0.26258 0.56578 0.0
H652 H 0.53665 0.30416 0.57777 0.0
H653 H 0.54747 0.2823 0.48667 0.0
H654 H 0.51962 0.31014 0.47717 0.0
H655 H 0.49604 0.26695 0.488 0.0
C656 C 0.41859 0.5946 0.82631 0.0
C657 C 0.42633 0.56271 0.82087 0.0
C658 C 0.38048 0.59525 0.82855 0.0
C659 C 0.34907 0.56298 0.82582 0.0
C660 C 0.35664 0.53091 0.81983 0.0
C661 C 0.39504 0.53125 0.81722 0.0
C662 C 0.37413 0.63034 0.83454 0.0
C663 C 0.32428 0.49577 0.81703 0.0
C664 C 0.25873 0.55387 0.85511 0.0
C665 C 0.23196 0.55818 0.84045 0.0
C666 C 0.29655 0.55529 0.85051 0.0
C667 C 0.30882 0.56205 0.83078 0.0
C668 C 0.28254 0.56756 0.81597 0.0
C669 C 0.24448 0.56532 0.82092 0.0
C670 C 0.32338 0.54927 0.86684 0.0
C671 C 0.29465 0.57576 0.79486 0.0
H672 H 0.44246 0.61919 0.82904 0.0
H673 H 0.40064 0.50643 0.81314 0.0
H674 H 0.34905 0.63425 0.82606 0.0
H675 H 0.36779 0.62976 0.85056 0.0
H676 H 0.4 0.65394 0.83212 0.0
H677 H 0.33453 0.4737 0.81127 0.0
H678 H 0.31071 0.48746 0.83147 0.0
H679 H 0.30151 0.49924 0.80655 0.0
H680 H 0.25024 0.54951 0.87039 0.0
H681 H 0.22438 0.5686 0.80937 0.0
H682 H 0.34905 0.57361 0.86884 0.0
H683 H 0.3339 0.52646 0.86268 0.0
H684 H 0.30916 0.54327 0.88131 0.0
H685 H 0.32063 0.59997 0.79469 0.0
H686 H 0.27141 0.58064 0.78521 0.0
H687 H 0.30265 0.55292 0.78841 0.0
C688 C 0.8185 0.33253 0.16779 0.0
C689 C 0.85198 0.33755 0.17997 0.0
C690 C 0.78414 0.30479 0.17143 0.0
C691 C 0.78319 0.2816 0.18768 0.0
C692 C 0.81697 0.28633 0.19989 0.0
C693 C 0.85089 0.31409 0.19586 0.0
C694 C 0.74876 0.30055 0.15805 0.0
C695 C 0.81722 0.2622 0.21737 0.0
C696 C 0.68969 0.23231 0.21227 0.0
C697 C 0.68287 0.19665 0.20548 0.0
C698 C 0.72132 0.26049 0.20594 0.0
C699 C 0.74677 0.25293 0.1924 0.0
C700 C 0.73897 0.21735 0.1847 0.0
C701 C 0.70713 0.18962 0.19135 0.0
C702 C 0.72846 0.29806 0.21445 0.0
C703 C 0.76528 0.20823 0.17015 0.0
H704 H 0.81894 0.35069 0.15559 0.0
H705 H 0.87677 0.31726 0.20511 0.0
H706 H 0.7379 0.27265 0.15177 0.0
H707 H 0.72532 0.30492 0.1668 0.0
H708 H 0.75464 0.31984 0.14558 0.0
H709 H 0.84599 0.26917 0.22527 0.0
H710 H 0.79563 0.2644 0.22811 0.0
H711 H 0.80888 0.23359 0.21225 0.0
H712 H 0.67065 0.23808 0.22292 0.0
H713 H 0.70226 0.16214 0.18612 0.0
H714 H 0.73245 0.3179 0.20232 0.0
H715 H 0.75547 0.30586 0.22392 0.0
H716 H 0.70438 0.30003 0.2236 0.0
H717 H 0.77055 0.22732 0.15762 0.0
H718 H 0.75314 0.18026 0.16404 0.0
H719 H 0.7937 0.211 0.17769 0.0
C720 C 0.02814 0.56145 0.08107 0.0
C721 C 0.04301 0.53598 0.09013 0.0
C722 C 0.02926 0.56622 0.06037 0.0
C723 C 0.0456 0.54498 0.04851 0.0
C724 C 0.06122 0.51967 0.05767 0.0
C725 C 0.05977 0.51552 0.07837 0.0
C726 C 1.01244 0.59356 0.05115 0.0
C727 C 0.07892 0.49652 0.04558 0.0
C728 C 1.01488 0.52793 0.9938 0.0
C729 C 0.04657 0.55146 0.98447 0.0
C730 C 1.0139 0.52607 0.01462 0.0
C731 C 0.04539 0.54827 0.02645 0.0
C732 C 0.07725 0.57243 0.01715 0.0
C733 C 0.07749 0.5737 -0.00372 0.0
C734 C 0.97948 0.49981 0.02395 0.0
C735 C 0.11129 0.59663 0.02926 0.0
H736 H 1.01531 0.57743 0.09014 0.0
H737 H 0.07146 0.49591 0.08532 0.0
H738 H 0.0344 0.61296 0.0423 0.0
H739 H 0.98779 0.5797 0.04079 0.0
H740 H 1.00213 0.60888 0.06249 0.0
H741 H 0.09071 0.4788 0.05504 0.0
H742 H 0.05686 0.47931 0.03488 0.0
H743 H 0.1026 0.51385 0.03678 0.0
H744 H 0.9911 0.51033 0.98479 0.0
H745 H 0.10183 0.5923 0.98918 0.0
H746 H 0.96668 0.51424 0.03461 0.0
H747 H 0.98887 0.47948 0.03247 0.0
H748 H 0.95671 0.48544 0.0127 0.0
H749 H 0.10131 0.61334 0.03992 0.0
H750 H 0.13315 0.61484 0.0198 0.0
H751 H 0.12542 0.57997 0.03812 0.0
C752 C 0.54178 0.02538 0.45498 0.0
C753 C 0.52068 0.04721 0.46198 0.0
C754 C 0.54885 1.02394 0.43463 0.0
C755 C 0.53511 0.04539 0.42113 0.0
C756 C 0.51502 0.06845 0.42831 0.0
C757 C 0.50775 0.06882 0.44863 0.0
C758 C 0.5699 0.99865 0.42751 0.0
C759 C 0.50055 0.09226 0.41447 0.0
C760 C 0.57601 0.06445 0.3697 0.0
C761 C 0.54618 0.04136 0.35756 0.0
C762 C 0.57319 0.06561 0.39046 0.0
C763 C 0.54007 0.04267 0.39937 0.0
C764 C 0.51051 1.01842 0.38732 0.0
C765 C 0.51373 1.0183 0.3666 0.0
C766 C 0.60515 0.0921 0.40279 0.0
C767 C 0.47491 0.99322 0.39628 0.0
H768 H 0.55178 1.00861 0.46531 0.0
H769 H 0.49172 0.08597 0.45406 0.0
H770 H 0.55038 0.97773 0.41738 0.0
H771 H 0.5951 1.01362 0.41888 0.0
H772 H 0.58017 0.98498 0.43999 0.0
H773 H 0.4876 0.11029 0.42259 0.0
H774 H 0.52461 0.10917 0.40573 0.0
H775 H 0.47839 0.07529 0.40373 0.0
H776 H 0.60157 0.08188 0.36298 0.0
H777 H 0.49019 1.00075 0.35745 0.0
H778 H 0.61618 0.07782 0.41467 0.0
H779 H 0.59365 0.11191 0.41021 0.0
H780 H 0.6297 0.10707 0.39369 0.0
H781 H 0.48331 0.97752 0.40836 0.0
H782 H 0.45607 0.97405 0.38508 0.0
H783 H 0.45785 1.00914 0.403 0.0
C784 C 0.54336 0.61951 0.75421 0.0
C785 C 0.5443 0.59118 0.76675 0.0
C786 C 0.54027 0.61464 0.73341 0.0
C787 C 0.53912 0.5809 0.72494 0.0
C788 C 0.54001 0.55219 0.7376 0.0
C789 C 0.54208 0.55756 0.75835 0.0
C790 C 0.53845 0.64568 0.72048 0.0
C791 C 0.53969 0.51604 0.72924 0.0
C792 C 0.50179 0.55763 0.67124 0.0
C793 C 0.53621 0.56764 0.66097 0.0
C794 C 0.50223 0.56205 0.69203 0.0
C795 C 0.53804 0.57596 0.70285 0.0
C796 C 0.57292 0.58541 0.69252 0.0
C797 C 0.57154 0.58157 0.67169 0.0
C798 C 0.46438 0.5524 0.70239 0.0
C799 C 0.61173 0.59949 0.70349 0.0
H800 H 0.54485 0.64548 0.76069 0.0
H801 H 0.54295 0.53566 0.76801 0.0
H802 H 0.56411 0.65406 0.71115 0.0
H803 H 0.5125 0.63705 0.71025 0.0
H804 H 0.53742 0.66945 0.72938 0.0
H805 H 0.54032 0.49646 0.74109 0.0
H806 H 0.5135 0.50436 0.71946 0.0
H807 H 0.56513 0.5196 0.71995 0.0
H808 H 0.47444 0.54713 0.66292 0.0
H809 H 0.59819 0.58908 0.66375 0.0
H810 H 0.46196 0.57645 0.71049 0.0
H811 H 0.46331 0.53135 0.71358 0.0
H812 H 0.43903 0.54232 0.69182 0.0
H813 H 0.61406 0.62522 0.71137 0.0
H814 H 0.63617 0.60428 0.69336 0.0
H815 H 0.6146 0.57996 0.71493 0.0
C816 C 0.49592 0.04833 0.582 0.0
C817 C 0.53195 0.04454 0.57796 0.0
C818 C 0.48045 0.0406 0.60085 0.0
C819 C 0.50199 0.02963 0.6161 0.0
C820 C 0.5385 0.02592 0.6121 0.0
C821 C 0.55289 0.0331 0.59298 0.0
C822 C 0.44113 0.04425 0.60445 0.0
C823 C 0.56259 1.01488 0.62809 0.0
C824 C 0.48196 0.04575 0.66969 0.0
C825 C 0.46105 1.01086 0.67561 0.0
C826 C 0.49533 0.0522 0.65037 0.0
C827 C 0.48697 1.02319 0.63644 0.0
C828 C 0.46494 0.98809 0.64208 0.0
C829 C 0.45246 0.98228 0.66164 0.0
C830 C 0.51893 0.08999 0.64495 0.0
C831 C 0.45501 0.95661 0.62751 0.0
H832 H 0.47961 0.05704 0.57035 0.0
H833 H 0.58078 0.03018 0.58986 0.0
H834 H 0.42182 1.01862 0.61022 0.0
H835 H 0.44379 0.06556 0.61591 0.0
H836 H 0.42728 0.05123 0.59072 0.0
H837 H 0.59027 1.01304 0.62251 0.0
H838 H 0.56917 0.03474 0.64064 0.0
H839 H 0.54619 0.9883 0.63408 0.0
H840 H 0.48799 0.06818 0.6802 0.0
H841 H 0.43667 0.95519 0.6661 0.0
H842 H 0.50462 0.09947 0.63223 0.0
H843 H 0.5478 0.09004 0.64018 0.0
H844 H 0.52302 0.10955 0.65755 0.0
H845 H 0.44035 0.96293 0.61391 0.0
H846 H 0.43594 0.93142 0.63392 0.0
H847 H 0.48187 0.95165 0.62288 0.0
C848 C 0.50578 0.51772 0.89015 0.0
C849 C 0.53541 0.53837 0.87844 0.0
C850 C 0.50758 0.52267 0.91088 0.0
C851 C 0.53988 0.54885 0.92013 0.0
C852 C 0.56961 0.57024 0.90832 0.0
C853 C 0.567 0.56475 0.88758 0.0
C854 C 0.47518 0.49945 0.92291 0.0
C855 C 0.60448 0.59842 0.91764 0.0
C856 C 0.52798 0.5786 0.9728 0.0
C857 C 0.54457 0.55678 0.98425 0.0
C858 C 0.52696 0.57689 0.95191 0.0
C859 C 0.54298 0.55284 0.94221 0.0
C860 C 0.56044 0.53129 0.95366 0.0
C861 C 0.56094 0.53345 0.97451 0.0
C862 C 0.50813 0.60034 0.94022 0.0
C863 C 0.5778 0.50527 0.94387 0.0
H864 H 0.48121 0.49742 0.88311 0.0
H865 H 0.58997 0.58075 0.87854 0.0
H866 H 0.48653 0.4828 0.93331 0.0
H867 H 0.46296 0.51674 0.93205 0.0
H868 H 0.45149 0.48117 0.91339 0.0
H869 H 0.62425 0.61382 0.90632 0.0
H870 H 0.59522 0.61769 0.92688 0.0
H871 H 0.62078 0.58527 0.92764 0.0
H872 H 0.51577 0.59709 0.9802 0.0
H873 H 0.57335 0.51614 0.98319 0.0
H874 H 0.48268 0.58308 0.93139 0.0
H875 H 0.52857 0.61683 0.92954 0.0
H876 H 0.49848 0.61871 0.94997 0.0
H877 H 0.5549 0.48423 0.93535 0.0
H878 H 0.59199 0.49177 0.95485 0.0
H879 H 0.59947 0.51969 0.93314 0.0
C880 C 0.01889 0.58179 0.21711 0.0
C881 C 0.04426 0.57019 0.20563 0.0
C882 C 0.01758 0.5764 0.23773 0.0
C883 C 0.04289 0.55972 0.24715 0.0
C884 C 0.06836 0.54765 0.23557 0.0
C885 C 0.06842 0.55267 0.21488 0.0
C886 C 0.98939 0.58892 0.24946 0.0
C887 C 0.09625 0.53034 0.24509 0.0
C888 C 0.06622 0.58214 0.30218 0.0
C889 C 0.04292 0.55091 0.31122 0.0
C890 C 0.06718 0.58492 0.28138 0.0
C891 C 0.0436 0.55617 0.26921 0.0
C892 C 0.01999 0.52459 0.27814 0.0
C893 C 0.02025 0.52218 0.299 0.0
C894 C 0.09316 0.61889 0.27244 0.0
C895 C 0.994 0.49355 0.26568 0.0
H896 H 0.99993 0.59506 0.20995 0.0
H897 H 0.0881 0.54371 0.20602 0.0
H898 H 0.97125 0.5663 0.2582 0.0
H899 H 1.0054 0.61058 0.2602 0.0
H900 H 0.97012 0.59943 0.23974 0.0
H901 H 0.11356 0.52172 0.23395 0.0
H902 H 0.11632 0.54971 0.25576 0.0
H903 H 0.08034 0.50644 0.25365 0.0
H904 H 0.08331 0.60485 0.31133 0.0
H905 H 1.00266 0.49764 0.30569 0.0
H906 H 0.07542 0.63297 0.2641 0.0
H907 H 0.11229 0.61198 0.2617 0.0
H908 H 0.11145 0.63785 0.28391 0.0
H909 H 0.9733 0.503 0.25642 0.0
H910 H 0.97737 0.47086 0.2749 0.0
H911 H 1.0114 0.48327 0.25536 0.0
loop_
_geom_bond_atom_site_label_1
_geom_bond_atom_site_label_2
_geom_bond_distance
_geom_bond_site_symmetry_2
_ccdc_geom_bond_type
Pr0 C2 2.880 . S
Pr0 O20 2.562 . S
Pr0 O21 2.490 . S
Pr0 O22 2.695 1_655 S
Pr0 O23 2.512 . S
Pr0 O25 2.437 . S
Pr0 O28 2.436 . S
Pr0 O30 2.438 1_655 S
Pr1 C11 2.880 . S
Pr1 O22 2.436 . S
Pr1 O24 2.438 1_455 S
Pr1 O26 2.562 . S
Pr1 O27 2.490 . S
Pr1 O28 2.695 1_455 S
Pr1 O29 2.512 . S
Pr1 O31 2.437 . S
C2 Pr0 2.880 . S
C2 C3 1.491 . S
C2 O20 1.254 . S
C2 O21 1.225 . S
C3 C2 1.491 . S
C3 C4 1.392 . S
C3 C8 1.356 . S
C4 C3 1.392 . S
C4 C5 1.368 . S
C4 H32 0.929 . S
C5 C4 1.368 . S
C5 C6 1.386 . S
C5 H33 0.929 . S
C6 C5 1.386 . S
C6 C7 1.373 . S
C7 C6 1.373 . S
C7 C8 1.409 . S
C7 H34 0.931 . S
C8 C3 1.356 . S
C8 C7 1.409 . S
C8 H35 0.930 . S
C9 O22 1.270 . S
C9 O23 1.248 1_455 S
C10 O24 1.267 . S
C10 O25 1.278 . S
C11 Pr1 2.880 . S
C11 C12 1.491 . S
C11 O26 1.254 . S
C11 O27 1.225 . S
C12 C11 1.491 . S
C12 C13 1.392 . S
C12 C17 1.356 . S
C13 C12 1.392 . S
C13 C14 1.368 . S
C13 H36 0.929 . S
C14 C13 1.368 . S
C14 C15 1.386 . S
C14 H37 0.929 . S
C15 C14 1.386 . S
C15 C16 1.373 . S
C16 C15 1.373 . S
C16 C17 1.409 . S
C16 H38 0.931 . S
C17 C12 1.356 . S
C17 C16 1.409 . S
C17 H39 0.930 . S
C18 O28 1.270 1_455 S
C18 O29 1.248 . S
C19 O30 1.267 . S
C19 O31 1.278 . S
O20 Pr0 2.562 . S
O20 C2 1.254 . S
O21 Pr0 2.490 . S
O21 C2 1.225 . S
O22 Pr0 2.695 1_455 S
O22 Pr1 2.436 . S
O22 C9 1.270 . S
O23 Pr0 2.512 . S
O23 C9 1.248 1_655 S
O24 Pr1 2.438 1_655 S
O24 C10 1.267 . S
O25 Pr0 2.437 . S
O25 C10 1.278 . S
O26 Pr1 2.562 . S
O26 C11 1.254 . S
O27 Pr1 2.490 . S
O27 C11 1.225 . S
O28 Pr0 2.436 . S
O28 Pr1 2.695 1_655 S
O28 C18 1.270 1_655 S
O29 Pr1 2.512 . S
O29 C18 1.248 . S
O30 Pr0 2.438 1_455 S
O30 C19 1.267 . S
O31 Pr1 2.437 . S
O31 C19 1.278 . S
H32 C4 0.929 . S
H33 C5 0.929 . S
H34 C7 0.931 . S
H35 C8 0.930 . S
H36 C13 0.929 . S
H37 C14 0.929 . S
H38 C16 0.931 . S
H39 C17 0.930 . S
Pr40 C42 2.880 . S
Pr40 O60 2.562 . S
Pr40 O61 2.490 . S
Pr40 O62 2.695 . S
Pr40 O63 2.512 . S
Pr40 O65 2.437 . S
Pr40 O68 2.436 . S
Pr40 O70 2.438 1_545 S
Pr41 C51 2.880 . S
Pr41 O62 2.436 1_565 S
Pr41 O64 2.438 1_565 S
Pr41 O66 2.562 . S
Pr41 O67 2.490 . S
Pr41 O68 2.695 1_565 S
Pr41 O69 2.512 . S
Pr41 O71 2.437 . S
C42 Pr40 2.880 . S
C42 C43 1.491 . S
C42 O60 1.254 . S
C42 O61 1.225 . S
C43 C42 1.491 . S
C43 C44 1.392 . S
C43 C48 1.356 . S
C44 C43 1.392 . S
C44 C45 1.368 . S
C44 H72 0.929 . S
C45 C44 1.368 . S
C45 C46 1.386 . S
C45 H73 0.929 . S
C46 C45 1.386 . S
C46 C47 1.373 . S
C47 C46 1.373 . S
C47 C48 1.409 . S
C47 H74 0.931 . S
C48 C43 1.356 . S
C48 C47 1.409 . S
C48 H75 0.930 . S
C49 O62 1.270 . S
C49 O63 1.248 . S
C50 O64 1.267 . S
C50 O65 1.278 . S
C51 Pr41 2.880 . S
C51 C52 1.491 . S
C51 O66 1.254 . S
C51 O67 1.225 . S
C52 C51 1.491 . S
C52 C53 1.392 . S
C52 C57 1.356 . S
C53 C52 1.392 . S
C53 C54 1.368 . S
C53 H76 0.929 . S
C54 C53 1.368 . S
C54 C55 1.386 . S
C54 H77 0.929 . S
C55 C54 1.386 . S
C55 C56 1.373 . S
C56 C55 1.373 . S
C56 C57 1.409 . S
C56 H78 0.931 . S
C57 C52 1.356 . S
C57 C56 1.409 . S
C57 H79 0.930 . S
C58 O68 1.270 . S
C58 O69 1.248 1_545 S
C59 O70 1.267 . S
C59 O71 1.278 . S
O60 Pr40 2.562 . S
O60 C42 1.254 . S
O61 Pr40 2.490 . S
O61 C42 1.225 . S
O62 Pr40 2.695 . S
O62 Pr41 2.436 1_545 S
O62 C49 1.270 . S
O63 Pr40 2.512 . S
O63 C49 1.248 . S
O64 Pr41 2.438 1_545 S
O64 C50 1.267 . S
O65 Pr40 2.437 . S
O65 C50 1.278 . S
O66 Pr41 2.562 . S
O66 C51 1.254 . S
O67 Pr41 2.490 . S
O67 C51 1.225 . S
O68 Pr40 2.436 . S
O68 Pr41 2.695 1_545 S
O68 C58 1.270 . S
O69 Pr41 2.512 . S
O69 C58 1.248 1_565 S
O70 Pr40 2.438 1_565 S
O70 C59 1.267 . S
O71 Pr41 2.437 . S
O71 C59 1.278 . S
H72 C44 0.929 . S
H73 C45 0.929 . S
H74 C47 0.931 . S
H75 C48 0.930 . S
H76 C53 0.929 . S
H77 C54 0.929 . S
H78 C56 0.931 . S
H79 C57 0.930 . S
Pr80 C82 2.880 . S
Pr80 O100 2.562 . S
Pr80 O101 2.490 . S
Pr80 O102 2.695 . S
Pr80 O103 2.512 . S
Pr80 O105 2.437 . S
Pr80 O108 2.436 . S
Pr80 O110 2.438 . S
Pr81 C91 2.880 . S
Pr81 O102 2.436 . S
Pr81 O104 2.438 . S
Pr81 O106 2.562 . S
Pr81 O107 2.490 . S
Pr81 O108 2.695 . S
Pr81 O109 2.512 . S
Pr81 O111 2.437 . S
C82 Pr80 2.880 . S
C82 C83 1.491 . S
C82 O100 1.254 . S
C82 O101 1.225 . S
C83 C82 1.491 . S
C83 C84 1.392 . S
C83 C88 1.356 . S
C84 C83 1.392 . S
C84 C85 1.368 . S
C84 H112 0.929 . S
C85 C84 1.368 . S
C85 C86 1.386 . S
C85 H113 0.929 . S
C86 C85 1.386 . S
C86 C87 1.373 . S
C87 C86 1.373 . S
C87 C88 1.409 . S
C87 H114 0.931 . S
C88 C83 1.356 . S
C88 C87 1.409 . S
C88 H115 0.930 . S
C89 O102 1.270 . S
C89 O103 1.248 . S
C90 O104 1.267 . S
C90 O105 1.278 . S
C91 Pr81 2.880 . S
C91 C92 1.491 . S
C91 O106 1.254 . S
C91 O107 1.225 . S
C92 C91 1.491 . S
C92 C93 1.392 . S
C92 C97 1.356 . S
C93 C92 1.392 . S
C93 C94 1.368 . S
C93 H116 0.929 . S
C94 C93 1.368 . S
C94 C95 1.386 . S
C94 H117 0.929 . S
C95 C94 1.386 . S
C95 C96 1.373 . S
C96 C95 1.373 . S
C96 C97 1.409 . S
C96 H118 0.931 . S
C97 C92 1.356 . S
C97 C96 1.409 . S
C97 H119 0.930 . S
C98 O108 1.270 . S
C98 O109 1.248 . S
C99 O110 1.267 . S
C99 O111 1.278 . S
O100 Pr80 2.562 . S
O100 C82 1.254 . S
O101 Pr80 2.490 . S
O101 C82 1.225 . S
O102 Pr80 2.695 . S
O102 Pr81 2.436 . S
O102 C89 1.270 . S
O103 Pr80 2.512 . S
O103 C89 1.248 . S
O104 Pr81 2.438 . S
O104 C90 1.267 . S
O105 Pr80 2.437 . S
O105 C90 1.278 . S
O106 Pr81 2.562 . S
O106 C91 1.254 . S
O107 Pr81 2.490 . S
O107 C91 1.225 . S
O108 Pr80 2.436 . S
O108 Pr81 2.695 . S
O108 C98 1.270 . S
O109 Pr81 2.512 . S
O109 C98 1.248 . S
O110 Pr80 2.438 . S
O110 C99 1.267 . S
O111 Pr81 2.437 . S
O111 C99 1.278 . S
H112 C84 0.929 . S
H113 C85 0.929 . S
H114 C87 0.931 . S
H115 C88 0.930 . S
H116 C93 0.929 . S
H117 C94 0.929 . S
H118 C96 0.931 . S
H119 C97 0.930 . S
C120 C121 1.384 . S
C120 H133 0.947 . S
C120 C155 1.382 . S
C121 C120 1.384 . S
C121 C122 1.378 . S
C122 C121 1.378 . S
C122 C123 1.378 . S
C122 H134 0.952 . S
C123 C122 1.378 . S
C123 H135 0.950 . S
C123 C154 1.383 . S
H124 C143 0.947 . S
H125 C144 0.946 . S
H126 C146 0.953 . S
H127 C147 0.945 . S
H128 C149 0.952 . S
H129 C150 0.949 . S
H130 C152 0.950 . S
H131 C153 0.948 . S
H132 C155 0.951 . S
H133 C120 0.947 . S
H134 C122 0.952 . S
H135 C123 0.950 . S
N136 C139 1.382 . S
N136 C141 1.344 1_545 S
N137 C139 1.371 . S
N137 C140 1.372 . S
N138 C140 1.364 . S
N138 C141 1.376 1_545 S
C139 N136 1.382 . S
C139 N137 1.371 . S
C139 C142 1.480 . S
C140 N137 1.372 . S
C140 N138 1.364 . S
C140 C148 1.457 . S
C141 N136 1.344 1_565 S
C141 N138 1.376 1_565 S
C141 C154 1.494 . S
C142 C139 1.480 . S
C142 C143 1.383 . S
C142 C147 1.385 . S
C143 H124 0.947 . S
C143 C142 1.383 . S
C143 C144 1.388 . S
C144 H125 0.946 . S
C144 C143 1.388 . S
C144 C145 1.384 . S
C145 C144 1.384 . S
C145 C146 1.377 . S
C146 H126 0.953 . S
C146 C145 1.377 . S
C146 C147 1.369 . S
C147 H127 0.945 . S
C147 C142 1.385 . S
C147 C146 1.369 . S
C148 C140 1.457 . S
C148 C149 1.372 . S
C148 C153 1.364 1_545 S
C149 H128 0.952 . S
C149 C148 1.372 . S
C149 C150 1.389 . S
C150 H129 0.949 . S
C150 C149 1.389 . S
C150 C151 1.387 . S
C151 C150 1.387 . S
C151 C152 1.372 1_545 S
C152 H130 0.950 . S
C152 C151 1.372 1_565 S
C152 C153 1.379 . S
C153 H131 0.948 . S
C153 C148 1.364 1_565 S
C153 C152 1.379 . S
C154 C123 1.383 . S
C154 C141 1.494 . S
C154 C155 1.398 . S
C155 C120 1.382 . S
C155 H132 0.951 . S
C155 C154 1.398 . S
C156 C157 1.384 . S
C156 H169 0.947 . S
C156 C191 1.382 . S
C157 C156 1.384 . S
C157 C158 1.378 . S
C158 C157 1.378 . S
C158 C159 1.378 . S
C158 H170 0.952 . S
C159 C158 1.378 . S
C159 H171 0.950 . S
C159 C190 1.383 . S
H160 C179 0.947 . S
H161 C180 0.946 . S
H162 C182 0.953 . S
H163 C183 0.945 . S
H164 C185 0.952 . S
H165 C186 0.949 . S
H166 C188 0.950 . S
H167 C189 0.948 . S
H168 C191 0.951 . S
H169 C156 0.947 . S
H170 C158 0.952 . S
H171 C159 0.950 . S
N172 C175 1.382 . S
N172 C177 1.363 . S
N173 C175 1.371 . S
N173 C176 1.372 . S
N174 C176 1.361 . S
N174 C177 1.377 . S
C175 N172 1.382 . S
C175 N173 1.371 . S
C175 C178 1.480 . S
C176 N173 1.372 . S
C176 N174 1.361 . S
C176 C184 1.457 . S
C177 N172 1.363 . S
C177 N174 1.377 . S
C177 C190 1.479 . S
C178 C175 1.480 . S
C178 C179 1.383 . S
C178 C183 1.385 . S
C179 H160 0.947 . S
C179 C178 1.383 . S
C179 C180 1.388 . S
C180 H161 0.946 . S
C180 C179 1.388 . S
C180 C181 1.384 . S
C181 C180 1.384 . S
C181 C182 1.377 . S
C182 H162 0.953 . S
C182 C181 1.377 . S
C182 C183 1.369 . S
C183 H163 0.945 . S
C183 C178 1.385 . S
C183 C182 1.369 . S
C184 C176 1.457 . S
C184 C185 1.372 . S
C184 C189 1.364 . S
C185 H164 0.952 . S
C185 C184 1.372 . S
C185 C186 1.389 . S
C186 H165 0.949 . S
C186 C185 1.389 . S
C186 C187 1.387 . S
C187 C186 1.387 . S
C187 C188 1.372 . S
C188 H166 0.950 . S
C188 C187 1.372 . S
C188 C189 1.379 . S
C189 H167 0.948 . S
C189 C184 1.364 . S
C189 C188 1.379 . S
C190 C159 1.383 . S
C190 C177 1.479 . S
C190 C191 1.398 . S
C191 C156 1.382 . S
C191 H168 0.951 . S
C191 C190 1.398 . S
C192 C193 1.384 . S
C192 H205 0.947 . S
C192 C227 1.382 . S
C193 C192 1.384 . S
C193 C194 1.378 . S
C194 C193 1.378 . S
C194 C195 1.378 . S
C194 H206 0.952 . S
C195 C194 1.378 . S
C195 H207 0.950 . S
C195 C226 1.383 . S
H196 C215 0.947 . S
H197 C216 0.946 . S
H198 C218 0.953 . S
H199 C219 0.945 . S
H200 C221 0.952 . S
H201 C222 0.949 . S
H202 C224 0.950 . S
H203 C225 0.948 . S
H204 C227 0.951 . S
H205 C192 0.947 . S
H206 C194 0.952 . S
H207 C195 0.950 . S
N208 C211 1.382 . S
N208 C213 1.363 1_455 S
N209 C211 1.371 . S
N209 C212 1.372 . S
N210 C212 1.361 1_655 S
N210 C213 1.377 . S
C211 N208 1.382 . S
C211 N209 1.371 . S
C211 C214 1.480 . S
C212 N209 1.372 . S
C212 N210 1.361 1_455 S
C212 C220 1.457 . S
C213 N208 1.363 1_655 S
C213 N210 1.377 . S
C213 C226 1.479 . S
C214 C211 1.480 . S
C214 C215 1.383 . S
C214 C219 1.385 . S
C215 H196 0.947 . S
C215 C214 1.383 . S
C215 C216 1.388 . S
C216 H197 0.946 . S
C216 C215 1.388 . S
C216 C217 1.384 . S
C217 C216 1.384 . S
C217 C218 1.377 . S
C218 H198 0.953 . S
C218 C217 1.377 . S
C218 C219 1.369 . S
C219 H199 0.945 . S
C219 C214 1.385 . S
C219 C218 1.369 . S
C220 C212 1.457 . S
C220 C221 1.372 . S
C220 C225 1.364 1_455 S
C221 H200 0.952 . S
C221 C220 1.372 . S
C221 C222 1.389 . S
C222 H201 0.949 . S
C222 C221 1.389 . S
C222 C223 1.387 . S
C223 C222 1.387 . S
C223 C224 1.372 1_455 S
C224 H202 0.950 . S
C224 C223 1.372 1_655 S
C224 C225 1.379 . S
C225 H203 0.948 . S
C225 C220 1.364 1_655 S
C225 C224 1.379 . S
C226 C195 1.383 . S
C226 C213 1.479 . S
C226 C227 1.398 . S
C227 C192 1.382 . S
C227 H204 0.951 . S
C227 C226 1.398 . S
C228 C229 1.384 . S
C228 H241 0.947 . S
C228 C263 1.382 . S
C229 C228 1.384 . S
C229 C230 1.378 . S
C230 C229 1.378 . S
C230 C231 1.378 . S
C230 H242 0.952 . S
C231 C230 1.378 . S
C231 H243 0.950 . S
C231 C262 1.383 . S
H232 C251 0.947 . S
H233 C252 0.946 . S
H234 C254 0.953 . S
H235 C255 0.945 . S
H236 C257 0.952 . S
H237 C258 0.949 . S
H238 C260 0.950 . S
H239 C261 0.948 . S
H240 C263 0.951 . S
H241 C228 0.947 . S
H242 C230 0.952 . S
H243 C231 0.950 . S
N244 C247 1.382 1_455 S
N244 C249 1.363 . S
N245 C247 1.371 . S
N245 C248 1.372 1_655 S
N246 C248 1.361 . S
N246 C249 1.377 . S
C247 N244 1.382 1_655 S
C247 N245 1.371 . S
C247 C250 1.480 . S
C248 N245 1.372 1_455 S
C248 N246 1.361 . S
C248 C256 1.457 . S
C249 N244 1.363 . S
C249 N246 1.377 . S
C249 C262 1.479 . S
C250 C247 1.480 . S
C250 C251 1.383 . S
C250 C255 1.385 . S
C251 H232 0.947 . S
C251 C250 1.383 . S
C251 C252 1.388 . S
C252 H233 0.946 . S
C252 C251 1.388 . S
C252 C253 1.384 . S
C253 C252 1.384 . S
C253 C254 1.377 . S
C254 H234 0.953 . S
C254 C253 1.377 . S
C254 C255 1.369 . S
C255 H235 0.945 . S
C255 C250 1.385 . S
C255 C254 1.369 . S
C256 C248 1.457 . S
C256 C257 1.372 1_455 S
C256 C261 1.364 . S
C257 H236 0.952 . S
C257 C256 1.372 1_655 S
C257 C258 1.389 . S
C258 H237 0.949 . S
C258 C257 1.389 . S
C258 C259 1.387 . S
C259 C258 1.387 . S
C259 C260 1.372 1_655 S
C260 H238 0.950 . S
C260 C259 1.372 1_455 S
C260 C261 1.379 . S
C261 H239 0.948 . S
C261 C256 1.364 . S
C261 C260 1.379 . S
C262 C231 1.383 . S
C262 C249 1.479 . S
C262 C263 1.398 . S
C263 C228 1.382 . S
C263 H240 0.951 . S
C263 C262 1.398 . S
C264 C265 1.384 . S
C264 H277 0.947 . S
C264 C299 1.382 . S
C265 C264 1.384 . S
C265 C266 1.378 . S
C266 C265 1.378 . S
C266 C267 1.378 . S
C266 H278 0.952 . S
C267 C266 1.378 . S
C267 H279 0.950 . S
C267 C298 1.383 . S
H268 C287 0.947 . S
H269 C288 0.946 . S
H270 C290 0.953 . S
H271 C291 0.945 . S
H272 C293 0.952 . S
H273 C294 0.949 . S
H274 C296 0.950 . S
H275 C297 0.948 . S
H276 C299 0.951 . S
H277 C264 0.947 . S
H278 C266 0.952 . S
H279 C267 0.950 . S
N280 C283 1.382 1_545 S
N280 C285 1.363 . S
N281 C283 1.371 . S
N281 C284 1.372 1_565 S
N282 C284 1.361 . S
N282 C285 1.377 . S
C283 N280 1.382 1_565 S
C283 N281 1.371 . S
C283 C286 1.480 . S
C284 N281 1.372 1_545 S
C284 N282 1.361 . S
C284 C292 1.457 . S
C285 N280 1.363 . S
C285 N282 1.377 . S
C285 C298 1.479 . S
C286 C283 1.480 . S
C286 C287 1.383 . S
C286 C291 1.385 . S
C287 H268 0.947 . S
C287 C286 1.383 . S
C287 C288 1.388 . S
C288 H269 0.946 . S
C288 C287 1.388 . S
C288 C289 1.384 . S
C289 C288 1.384 . S
C289 C290 1.377 . S
C290 H270 0.953 . S
C290 C289 1.377 . S
C290 C291 1.369 . S
C291 H271 0.945 . S
C291 C286 1.385 . S
C291 C290 1.369 . S
C292 C284 1.457 . S
C292 C293 1.372 1_545 S
C292 C297 1.364 . S
C293 H272 0.952 . S
C293 C292 1.372 1_565 S
C293 C294 1.389 . S
C294 H273 0.949 . S
C294 C293 1.389 . S
C294 C295 1.387 1_565 S
C295 C294 1.387 1_545 S
C295 C296 1.372 . S
C296 H274 0.950 . S
C296 C295 1.372 . S
C296 C297 1.379 . S
C297 H275 0.948 . S
C297 C292 1.364 . S
C297 C296 1.379 . S
C298 C267 1.383 . S
C298 C285 1.479 . S
C298 C299 1.398 . S
C299 C264 1.382 . S
C299 H276 0.951 . S
C299 C298 1.398 . S
C300 C301 1.384 . S
C300 H313 0.947 . S
C300 C335 1.382 . S
C301 C300 1.384 . S
C301 C302 1.378 . S
C302 C301 1.378 . S
C302 C303 1.378 . S
C302 H314 0.952 . S
C303 C302 1.378 . S
C303 H315 0.950 . S
C303 C334 1.383 . S
H304 C323 0.947 . S
H305 C324 0.946 . S
H306 C326 0.953 . S
H307 C327 0.945 . S
H308 C329 0.952 . S
H309 C330 0.949 . S
H310 C332 0.950 . S
H311 C333 0.948 . S
H312 C335 0.951 . S
H313 C300 0.947 . S
H314 C302 0.952 . S
H315 C303 0.950 . S
N316 C319 1.382 . S
N316 C321 1.363 . S
N317 C319 1.371 . S
N317 C320 1.372 . S
N318 C320 1.361 . S
N318 C321 1.377 . S
C319 N316 1.382 . S
C319 N317 1.371 . S
C319 C322 1.480 . S
C320 N317 1.372 . S
C320 N318 1.361 . S
C320 C328 1.457 . S
C321 N316 1.363 . S
C321 N318 1.377 . S
C321 C334 1.479 . S
C322 C319 1.480 . S
C322 C323 1.383 . S
C322 C327 1.385 . S
C323 H304 0.947 . S
C323 C322 1.383 . S
C323 C324 1.388 . S
C324 H305 0.946 . S
C324 C323 1.388 . S
C324 C325 1.384 . S
C325 C324 1.384 . S
C325 C326 1.377 . S
C326 H306 0.953 . S
C326 C325 1.377 . S
C326 C327 1.369 . S
C327 H307 0.945 . S
C327 C322 1.385 . S
C327 C326 1.369 . S
C328 C320 1.457 . S
C328 C329 1.372 . S
C328 C333 1.364 . S
C329 H308 0.952 . S
C329 C328 1.372 . S
C329 C330 1.389 . S
C330 H309 0.949 . S
C330 C329 1.389 . S
C330 C331 1.387 . S
C331 C330 1.387 . S
C331 C332 1.372 . S
C332 H310 0.950 . S
C332 C331 1.372 . S
C332 C333 1.379 . S
C333 H311 0.948 . S
C333 C328 1.364 . S
C333 C332 1.379 . S
C334 C303 1.383 . S
C334 C321 1.479 . S
C334 C335 1.398 . S
C335 C300 1.382 . S
C335 H312 0.951 . S
C335 C334 1.398 . S
C336 C337 1.391 . S
C336 C338 1.394 . S
C336 H352 0.931 . S
C337 C336 1.391 . S
C337 C341 1.376 . S
C338 C336 1.394 . S
C338 C339 1.369 . S
C338 C342 1.531 . S
C339 C338 1.369 . S
C339 C340 1.410 . S
C339 C347 1.503 . S
C340 C339 1.410 . S
C340 C341 1.392 . S
C340 C343 1.511 . S
C341 C337 1.376 . S
C341 C340 1.392 . S
C341 H353 0.929 . S
C342 C338 1.531 . S
C342 H354 0.960 . S
C342 H355 0.962 . S
C342 H356 0.960 . S
C343 C340 1.511 . S
C343 H357 0.961 . S
C343 H358 0.961 . S
C343 H359 0.961 . S
C344 C345 1.370 . S
C344 C346 1.363 . S
C344 H360 0.931 . S
C345 C344 1.370 . S
C345 C349 1.408 . S
C346 C344 1.363 . S
C346 C347 1.370 . S
C346 C350 1.524 . S
C347 C339 1.503 . S
C347 C346 1.370 . S
C347 C348 1.403 . S
C348 C347 1.403 . S
C348 C349 1.404 . S
C348 C351 1.539 . S
C349 C345 1.408 . S
C349 C348 1.404 . S
C349 H361 0.930 . S
C350 C346 1.524 . S
C350 H362 0.956 . S
C350 H363 0.961 . S
C350 H364 0.961 . S
C351 C348 1.539 . S
C351 H365 0.958 . S
C351 H366 0.961 . S
C351 H367 0.960 . S
H352 C336 0.931 . S
H353 C341 0.929 . S
H354 C342 0.960 . S
H355 C342 0.962 . S
H356 C342 0.960 . S
H357 C343 0.961 . S
H358 C343 0.961 . S
H359 C343 0.961 . S
H360 C344 0.931 . S
H361 C349 0.930 . S
H362 C350 0.956 . S
H363 C350 0.961 . S
H364 C350 0.961 . S
H365 C351 0.958 . S
H366 C351 0.961 . S
H367 C351 0.960 . S
C368 C369 1.391 . S
C368 C370 1.394 . S
C368 H384 0.931 . S
C369 C368 1.391 . S
C369 C373 1.376 . S
C370 C368 1.394 . S
C370 C371 1.369 . S
C370 C374 1.531 . S
C371 C370 1.369 . S
C371 C372 1.410 . S
C371 C379 1.503 . S
C372 C371 1.410 . S
C372 C373 1.392 . S
C372 C375 1.511 . S
C373 C369 1.376 . S
C373 C372 1.392 . S
C373 H385 0.929 . S
C374 C370 1.531 . S
C374 H386 0.960 . S
C374 H387 0.962 . S
C374 H388 0.960 . S
C375 C372 1.511 . S
C375 H389 0.961 . S
C375 H390 0.961 . S
C375 H391 0.961 . S
C376 C377 1.370 . S
C376 C378 1.363 . S
C376 H392 0.931 . S
C377 C376 1.370 . S
C377 C381 1.408 . S
C378 C376 1.363 . S
C378 C379 1.370 . S
C378 C382 1.524 . S
C379 C371 1.503 . S
C379 C378 1.370 . S
C379 C380 1.403 . S
C380 C379 1.403 . S
C380 C381 1.404 . S
C380 C383 1.539 . S
C381 C377 1.408 . S
C381 C380 1.404 . S
C381 H393 0.930 . S
C382 C378 1.524 . S
C382 H394 0.956 . S
C382 H395 0.961 . S
C382 H396 0.961 . S
C383 C380 1.539 . S
C383 H397 0.958 . S
C383 H398 0.961 . S
C383 H399 0.960 . S
H384 C368 0.931 . S
H385 C373 0.929 . S
H386 C374 0.960 . S
H387 C374 0.962 . S
H388 C374 0.960 . S
H389 C375 0.961 . S
H390 C375 0.961 . S
H391 C375 0.961 . S
H392 C376 0.931 . S
H393 C381 0.930 . S
H394 C382 0.956 . S
H395 C382 0.961 . S
H396 C382 0.961 . S
H397 C383 0.958 . S
H398 C383 0.961 . S
H399 C383 0.960 . S
C400 C401 1.391 . S
C400 C402 1.394 . S
C400 H416 0.931 . S
C401 C400 1.391 . S
C401 C405 1.376 . S
C402 C400 1.394 . S
C402 C403 1.369 . S
C402 C406 1.531 . S
C403 C402 1.369 . S
C403 C404 1.410 . S
C403 C411 1.503 . S
C404 C403 1.410 . S
C404 C405 1.392 . S
C404 C407 1.511 . S
C405 C401 1.376 . S
C405 C404 1.392 . S
C405 H417 0.929 . S
C406 C402 1.531 . S
C406 H418 0.960 . S
C406 H419 0.962 . S
C406 H420 0.960 . S
C407 C404 1.511 . S
C407 H421 0.961 . S
C407 H422 0.961 . S
C407 H423 0.961 . S
C408 C409 1.370 . S
C408 C410 1.363 . S
C408 H424 0.931 . S
C409 C408 1.370 . S
C409 C413 1.408 . S
C410 C408 1.363 . S
C410 C411 1.370 . S
C410 C414 1.524 . S
C411 C403 1.503 . S
C411 C410 1.370 . S
C411 C412 1.403 . S
C412 C411 1.403 . S
C412 C413 1.404 . S
C412 C415 1.539 . S
C413 C409 1.408 . S
C413 C412 1.404 . S
C413 H425 0.930 . S
C414 C410 1.524 . S
C414 H426 0.956 . S
C414 H427 0.961 . S
C414 H428 0.961 . S
C415 C412 1.539 . S
C415 H429 0.958 . S
C415 H430 0.961 . S
C415 H431 0.960 . S
H416 C400 0.931 . S
H417 C405 0.929 . S
H418 C406 0.960 . S
H419 C406 0.962 . S
H420 C406 0.960 . S
H421 C407 0.961 . S
H422 C407 0.961 . S
H423 C407 0.961 . S
H424 C408 0.931 . S
H425 C413 0.930 . S
H426 C414 0.956 . S
H427 C414 0.961 . S
H428 C414 0.961 . S
H429 C415 0.958 . S
H430 C415 0.961 . S
H431 C415 0.960 . S
C432 C433 1.391 . S
C432 C434 1.394 . S
C432 H448 0.931 . S
C433 C432 1.391 . S
C433 C437 1.376 . S
C434 C432 1.394 . S
C434 C435 1.369 . S
C434 C438 1.531 . S
C435 C434 1.369 . S
C435 C436 1.410 . S
C435 C443 1.503 . S
C436 C435 1.410 . S
C436 C437 1.392 . S
C436 C439 1.511 . S
C437 C433 1.376 . S
C437 C436 1.392 . S
C437 H449 0.929 . S
C438 C434 1.531 . S
C438 H450 0.960 . S
C438 H451 0.962 . S
C438 H452 0.960 . S
C439 C436 1.511 . S
C439 H453 0.961 . S
C439 H454 0.961 . S
C439 H455 0.961 . S
C440 C441 1.370 . S
C440 C442 1.363 . S
C440 H456 0.931 . S
C441 C440 1.370 . S
C441 C445 1.408 . S
C442 C440 1.363 . S
C442 C443 1.370 . S
C442 C446 1.524 . S
C443 C435 1.503 . S
C443 C442 1.370 . S
C443 C444 1.403 . S
C444 C443 1.403 . S
C444 C445 1.404 . S
C444 C447 1.539 . S
C445 C441 1.408 . S
C445 C444 1.404 . S
C445 H457 0.930 . S
C446 C442 1.524 . S
C446 H458 0.956 . S
C446 H459 0.961 . S
C446 H460 0.961 . S
C447 C444 1.539 . S
C447 H461 0.958 . S
C447 H462 0.961 . S
C447 H463 0.960 . S
H448 C432 0.931 . S
H449 C437 0.929 . S
H450 C438 0.960 . S
H451 C438 0.962 . S
H452 C438 0.960 . S
H453 C439 0.961 . S
H454 C439 0.961 . S
H455 C439 0.961 . S
H456 C440 0.931 . S
H457 C445 0.930 . S
H458 C446 0.956 . S
H459 C446 0.961 . S
H460 C446 0.961 . S
H461 C447 0.958 . S
H462 C447 0.961 . S
H463 C447 0.960 . S
C464 C465 1.391 . S
C464 C466 1.394 . S
C464 H480 0.931 . S
C465 C464 1.391 . S
C465 C469 1.376 . S
C466 C464 1.394 . S
C466 C467 1.369 . S
C466 C470 1.531 . S
C467 C466 1.369 . S
C467 C468 1.410 . S
C467 C475 1.503 . S
C468 C467 1.410 . S
C468 C469 1.392 . S
C468 C471 1.511 . S
C469 C465 1.376 . S
C469 C468 1.392 . S
C469 H481 0.929 . S
C470 C466 1.531 . S
C470 H482 0.960 . S
C470 H483 0.962 . S
C470 H484 0.960 . S
C471 C468 1.511 . S
C471 H485 0.961 . S
C471 H486 0.961 . S
C471 H487 0.961 . S
C472 C473 1.370 . S
C472 C474 1.363 . S
C472 H488 0.931 . S
C473 C472 1.370 . S
C473 C477 1.408 . S
C474 C472 1.363 . S
C474 C475 1.370 . S
C474 C478 1.524 . S
C475 C467 1.503 . S
C475 C474 1.370 . S
C475 C476 1.403 . S
C476 C475 1.403 . S
C476 C477 1.404 . S
C476 C479 1.539 . S
C477 C473 1.408 . S
C477 C476 1.404 . S
C477 H489 0.930 . S
C478 C474 1.524 . S
C478 H490 0.956 . S
C478 H491 0.961 . S
C478 H492 0.961 . S
C479 C476 1.539 . S
C479 H493 0.958 . S
C479 H494 0.961 . S
C479 H495 0.960 . S
H480 C464 0.931 . S
H481 C469 0.929 . S
H482 C470 0.960 . S
H483 C470 0.962 . S
H484 C470 0.960 . S
H485 C471 0.961 . S
H486 C471 0.961 . S
H487 C471 0.961 . S
H488 C472 0.931 . S
H489 C477 0.930 . S
H490 C478 0.956 . S
H491 C478 0.961 . S
H492 C478 0.961 . S
H493 C479 0.958 . S
H494 C479 0.961 . S
H495 C479 0.960 . S
C496 C497 1.391 . S
C496 C498 1.394 . S
C496 H512 0.931 . S
C497 C496 1.391 . S
C497 C501 1.376 . S
C498 C496 1.394 . S
C498 C499 1.369 . S
C498 C502 1.531 . S
C499 C498 1.369 . S
C499 C500 1.410 . S
C499 C507 1.503 . S
C500 C499 1.410 . S
C500 C501 1.392 . S
C500 C503 1.511 . S
C501 C497 1.376 . S
C501 C500 1.392 . S
C501 H513 0.929 . S
C502 C498 1.531 . S
C502 H514 0.960 . S
C502 H515 0.962 . S
C502 H516 0.960 . S
C503 C500 1.511 . S
C503 H517 0.961 . S
C503 H518 0.961 . S
C503 H519 0.961 . S
C504 C505 1.370 . S
C504 C506 1.363 . S
C504 H520 0.931 . S
C505 C504 1.370 . S
C505 C509 1.408 . S
C506 C504 1.363 . S
C506 C507 1.370 . S
C506 C510 1.524 . S
C507 C499 1.503 . S
C507 C506 1.370 . S
C507 C508 1.403 . S
C508 C507 1.403 . S
C508 C509 1.404 . S
C508 C511 1.539 . S
C509 C505 1.408 . S
C509 C508 1.404 . S
C509 H521 0.930 . S
C510 C506 1.524 . S
C510 H522 0.956 . S
C510 H523 0.961 . S
C510 H524 0.961 . S
C511 C508 1.539 . S
C511 H525 0.958 . S
C511 H526 0.961 . S
C511 H527 0.960 . S
H512 C496 0.931 . S
H513 C501 0.929 . S
H514 C502 0.960 . S
H515 C502 0.962 . S
H516 C502 0.960 . S
H517 C503 0.961 . S
H518 C503 0.961 . S
H519 C503 0.961 . S
H520 C504 0.931 . S
H521 C509 0.930 . S
H522 C510 0.956 . S
H523 C510 0.961 . S
H524 C510 0.961 . S
H525 C511 0.958 . S
H526 C511 0.961 . S
H527 C511 0.960 . S
C528 C529 1.391 . S
C528 C530 1.394 . S
C528 H544 0.931 . S
C529 C528 1.391 . S
C529 C533 1.376 . S
C530 C528 1.394 . S
C530 C531 1.369 . S
C530 C534 1.531 . S
C531 C530 1.369 . S
C531 C532 1.410 . S
C531 C539 1.503 . S
C532 C531 1.410 . S
C532 C533 1.392 . S
C532 C535 1.511 . S
C533 C529 1.376 . S
C533 C532 1.392 . S
C533 H545 0.929 . S
C534 C530 1.531 . S
C534 H546 0.960 . S
C534 H547 0.962 . S
C534 H548 0.960 . S
C535 C532 1.511 . S
C535 H549 0.961 . S
C535 H550 0.961 . S
C535 H551 0.961 . S
C536 C537 1.370 . S
C536 C538 1.363 . S
C536 H552 0.931 . S
C537 C536 1.370 . S
C537 C541 1.408 . S
C538 C536 1.363 . S
C538 C539 1.370 . S
C538 C542 1.524 . S
C539 C531 1.503 . S
C539 C538 1.370 . S
C539 C540 1.403 . S
C540 C539 1.403 . S
C540 C541 1.404 . S
C540 C543 1.539 . S
C541 C537 1.408 . S
C541 C540 1.404 . S
C541 H553 0.930 . S
C542 C538 1.524 . S
C542 H554 0.956 . S
C542 H555 0.961 . S
C542 H556 0.961 . S
C543 C540 1.539 . S
C543 H557 0.958 . S
C543 H558 0.961 . S
C543 H559 0.960 . S
H544 C528 0.931 . S
H545 C533 0.929 . S
H546 C534 0.960 . S
H547 C534 0.962 . S
H548 C534 0.960 . S
H549 C535 0.961 . S
H550 C535 0.961 . S
H551 C535 0.961 . S
H552 C536 0.931 . S
H553 C541 0.930 . S
H554 C542 0.956 . S
H555 C542 0.961 . S
H556 C542 0.961 . S
H557 C543 0.958 . S
H558 C543 0.961 . S
H559 C543 0.960 . S
C560 C561 1.391 . S
C560 C562 1.394 . S
C560 H576 0.931 . S
C561 C560 1.391 . S
C561 C565 1.376 . S
C562 C560 1.394 . S
C562 C563 1.369 . S
C562 C566 1.531 . S
C563 C562 1.369 . S
C563 C564 1.410 . S
C563 C571 1.503 . S
C564 C563 1.410 . S
C564 C565 1.392 . S
C564 C567 1.511 . S
C565 C561 1.376 . S
C565 C564 1.392 . S
C565 H577 0.929 . S
C566 C562 1.531 . S
C566 H578 0.960 . S
C566 H579 0.962 . S
C566 H580 0.960 . S
C567 C564 1.511 . S
C567 H581 0.961 . S
C567 H582 0.961 . S
C567 H583 0.961 . S
C568 C569 1.370 . S
C568 C570 1.363 . S
C568 H584 0.931 . S
C569 C568 1.370 . S
C569 C573 1.408 . S
C570 C568 1.363 . S
C570 C571 1.370 . S
C570 C574 1.524 . S
C571 C563 1.503 . S
C571 C570 1.370 . S
C571 C572 1.403 . S
C572 C571 1.403 . S
C572 C573 1.404 . S
C572 C575 1.539 . S
C573 C569 1.408 . S
C573 C572 1.404 . S
C573 H585 0.930 . S
C574 C570 1.524 . S
C574 H586 0.956 . S
C574 H587 0.961 . S
C574 H588 0.961 . S
C575 C572 1.539 . S
C575 H589 0.958 . S
C575 H590 0.961 . S
C575 H591 0.960 . S
H576 C560 0.931 . S
H577 C565 0.929 . S
H578 C566 0.960 . S
H579 C566 0.962 . S
H580 C566 0.960 . S
H581 C567 0.961 . S
H582 C567 0.961 . S
H583 C567 0.961 . S
H584 C568 0.931 . S
H585 C573 0.930 . S
H586 C574 0.956 . S
H587 C574 0.961 . S
H588 C574 0.961 . S
H589 C575 0.958 . S
H590 C575 0.961 . S
H591 C575 0.960 . S
C592 C593 1.391 . S
C592 C594 1.394 . S
C592 H608 0.931 . S
C593 C592 1.391 . S
C593 C597 1.376 . S
C594 C592 1.394 . S
C594 C595 1.369 . S
C594 C598 1.531 . S
C595 C594 1.369 . S
C595 C596 1.410 . S
C595 C603 1.503 . S
C596 C595 1.410 . S
C596 C597 1.392 . S
C596 C599 1.511 . S
C597 C593 1.376 . S
C597 C596 1.392 . S
C597 H609 0.929 . S
C598 C594 1.531 . S
C598 H610 0.960 . S
C598 H611 0.962 . S
C598 H612 0.960 . S
C599 C596 1.511 . S
C599 H613 0.961 . S
C599 H614 0.961 . S
C599 H615 0.961 . S
C600 C601 1.370 . S
C600 C602 1.363 . S
C600 H616 0.931 . S
C601 C600 1.370 . S
C601 C605 1.408 . S
C602 C600 1.363 . S
C602 C603 1.370 . S
C602 C606 1.524 . S
C603 C595 1.503 . S
C603 C602 1.370 . S
C603 C604 1.403 . S
C604 C603 1.403 . S
C604 C605 1.404 . S
C604 C607 1.539 . S
C605 C601 1.408 . S
C605 C604 1.404 . S
C605 H617 0.930 . S
C606 C602 1.524 . S
C606 H618 0.956 . S
C606 H619 0.961 . S
C606 H620 0.961 . S
C607 C604 1.539 . S
C607 H621 0.958 . S
C607 H622 0.961 . S
C607 H623 0.960 . S
H608 C592 0.931 . S
H609 C597 0.929 . S
H610 C598 0.960 . S
H611 C598 0.962 . S
H612 C598 0.960 . S
H613 C599 0.961 . S
H614 C599 0.961 . S
H615 C599 0.961 . S
H616 C600 0.931 . S
H617 C605 0.930 . S
H618 C606 0.956 . S
H619 C606 0.961 . S
H620 C606 0.961 . S
H621 C607 0.958 . S
H622 C607 0.961 . S
H623 C607 0.960 . S
C624 C625 1.391 . S
C624 C626 1.394 . S
C624 H640 0.931 . S
C625 C624 1.391 . S
C625 C629 1.376 . S
C626 C624 1.394 . S
C626 C627 1.369 . S
C626 C630 1.531 . S
C627 C626 1.369 . S
C627 C628 1.410 . S
C627 C635 1.503 . S
C628 C627 1.410 . S
C628 C629 1.392 . S
C628 C631 1.511 . S
C629 C625 1.376 . S
C629 C628 1.392 . S
C629 H641 0.929 . S
C630 C626 1.531 . S
C630 H642 0.960 . S
C630 H643 0.962 . S
C630 H644 0.960 . S
C631 C628 1.511 . S
C631 H645 0.961 . S
C631 H646 0.961 . S
C631 H647 0.961 . S
C632 C633 1.370 . S
C632 C634 1.363 . S
C632 H648 0.931 . S
C633 C632 1.370 . S
C633 C637 1.408 . S
C634 C632 1.363 . S
C634 C635 1.370 . S
C634 C638 1.524 . S
C635 C627 1.503 . S
C635 C634 1.370 . S
C635 C636 1.403 . S
C636 C635 1.403 . S
C636 C637 1.404 . S
C636 C639 1.539 . S
C637 C633 1.408 . S
C637 C636 1.404 . S
C637 H649 0.930 . S
C638 C634 1.524 . S
C638 H650 0.956 . S
C638 H651 0.961 . S
C638 H652 0.961 . S
C639 C636 1.539 . S
C639 H653 0.958 . S
C639 H654 0.961 . S
C639 H655 0.960 . S
H640 C624 0.931 . S
H641 C629 0.929 . S
H642 C630 0.960 . S
H643 C630 0.962 . S
H644 C630 0.960 . S
H645 C631 0.961 . S
H646 C631 0.961 . S
H647 C631 0.961 . S
H648 C632 0.931 . S
H649 C637 0.930 . S
H650 C638 0.956 . S
H651 C638 0.961 . S
H652 C638 0.961 . S
H653 C639 0.958 . S
H654 C639 0.961 . S
H655 C639 0.960 . S
C656 C657 1.391 . S
C656 C658 1.394 . S
C656 H672 0.931 . S
C657 C656 1.391 . S
C657 C661 1.376 . S
C658 C656 1.394 . S
C658 C659 1.369 . S
C658 C662 1.531 . S
C659 C658 1.369 . S
C659 C660 1.410 . S
C659 C667 1.503 . S
C660 C659 1.410 . S
C660 C661 1.392 . S
C660 C663 1.511 . S
C661 C657 1.376 . S
C661 C660 1.392 . S
C661 H673 0.929 . S
C662 C658 1.531 . S
C662 H674 0.960 . S
C662 H675 0.962 . S
C662 H676 0.960 . S
C663 C660 1.511 . S
C663 H677 0.961 . S
C663 H678 0.961 . S
C663 H679 0.961 . S
C664 C665 1.370 . S
C664 C666 1.363 . S
C664 H680 0.931 . S
C665 C664 1.370 . S
C665 C669 1.408 . S
C666 C664 1.363 . S
C666 C667 1.370 . S
C666 C670 1.524 . S
C667 C659 1.503 . S
C667 C666 1.370 . S
C667 C668 1.403 . S
C668 C667 1.403 . S
C668 C669 1.404 . S
C668 C671 1.539 . S
C669 C665 1.408 . S
C669 C668 1.404 . S
C669 H681 0.930 . S
C670 C666 1.524 . S
C670 H682 0.956 . S
C670 H683 0.961 . S
C670 H684 0.961 . S
C671 C668 1.539 . S
C671 H685 0.958 . S
C671 H686 0.961 . S
C671 H687 0.960 . S
H672 C656 0.931 . S
H673 C661 0.929 . S
H674 C662 0.960 . S
H675 C662 0.962 . S
H676 C662 0.960 . S
H677 C663 0.961 . S
H678 C663 0.961 . S
H679 C663 0.961 . S
H680 C664 0.931 . S
H681 C669 0.930 . S
H682 C670 0.956 . S
H683 C670 0.961 . S
H684 C670 0.961 . S
H685 C671 0.958 . S
H686 C671 0.961 . S
H687 C671 0.960 . S
C688 C689 1.391 . S
C688 C690 1.394 . S
C688 H704 0.931 . S
C689 C688 1.391 . S
C689 C693 1.376 . S
C690 C688 1.394 . S
C690 C691 1.369 . S
C690 C694 1.531 . S
C691 C690 1.369 . S
C691 C692 1.410 . S
C691 C699 1.503 . S
C692 C691 1.410 . S
C692 C693 1.392 . S
C692 C695 1.511 . S
C693 C689 1.376 . S
C693 C692 1.392 . S
C693 H705 0.929 . S
C694 C690 1.531 . S
C694 H706 0.960 . S
C694 H707 0.962 . S
C694 H708 0.960 . S
C695 C692 1.511 . S
C695 H709 0.961 . S
C695 H710 0.961 . S
C695 H711 0.961 . S
C696 C697 1.370 . S
C696 C698 1.363 . S
C696 H712 0.931 . S
C697 C696 1.370 . S
C697 C701 1.408 . S
C698 C696 1.363 . S
C698 C699 1.370 . S
C698 C702 1.524 . S
C699 C691 1.503 . S
C699 C698 1.370 . S
C699 C700 1.403 . S
C700 C699 1.403 . S
C700 C701 1.404 . S
C700 C703 1.539 . S
C701 C697 1.408 . S
C701 C700 1.404 . S
C701 H713 0.930 . S
C702 C698 1.524 . S
C702 H714 0.956 . S
C702 H715 0.961 . S
C702 H716 0.961 . S
C703 C700 1.539 . S
C703 H717 0.958 . S
C703 H718 0.961 . S
C703 H719 0.960 . S
H704 C688 0.931 . S
H705 C693 0.929 . S
H706 C694 0.960 . S
H707 C694 0.962 . S
H708 C694 0.960 . S
H709 C695 0.961 . S
H710 C695 0.961 . S
H711 C695 0.961 . S
H712 C696 0.931 . S
H713 C701 0.930 . S
H714 C702 0.956 . S
H715 C702 0.961 . S
H716 C702 0.961 . S
H717 C703 0.958 . S
H718 C703 0.961 . S
H719 C703 0.960 . S
C720 C721 1.391 1_655 S
C720 C722 1.394 . S
C720 H736 0.931 . S
C721 C720 1.391 1_455 S
C721 C725 1.376 . S
C722 C720 1.394 . S
C722 C723 1.369 1_655 S
C722 C726 1.531 . S
C723 C722 1.369 1_455 S
C723 C724 1.410 . S
C723 C731 1.503 . S
C724 C723 1.410 . S
C724 C725 1.392 . S
C724 C727 1.511 . S
C725 C721 1.376 . S
C725 C724 1.392 . S
C725 H737 0.929 . S
C726 C722 1.531 . S
C726 H738 0.960 . S
C726 H739 0.962 . S
C726 H740 0.960 . S
C727 C724 1.511 . S
C727 H741 0.961 . S
C727 H742 0.961 . S
C727 H743 0.961 . S
C728 C729 1.370 1_654 S
C728 C730 1.363 . S
C728 H744 0.931 1_554 S
C729 C728 1.370 1_456 S
C729 C733 1.408 1_556 S
C730 C728 1.363 . S
C730 C731 1.370 1_655 S
C730 C734 1.524 . S
C731 C723 1.503 . S
C731 C730 1.370 1_455 S
C731 C732 1.403 . S
C732 C731 1.403 . S
C732 C733 1.404 . S
C732 C735 1.539 . S
C733 C729 1.408 1_554 S
C733 C732 1.404 . S
C733 H745 0.930 1_554 S
C734 C730 1.524 . S
C734 H746 0.956 . S
C734 H747 0.961 . S
C734 H748 0.961 . S
C735 C732 1.539 . S
C735 H749 0.958 . S
C735 H750 0.961 . S
C735 H751 0.960 . S
H736 C720 0.931 . S
H737 C725 0.929 . S
H738 C726 0.960 . S
H739 C726 0.962 . S
H740 C726 0.960 . S
H741 C727 0.961 . S
H742 C727 0.961 . S
H743 C727 0.961 . S
H744 C728 0.931 1_556 S
H745 C733 0.930 1_556 S
H746 C734 0.956 . S
H747 C734 0.961 . S
H748 C734 0.961 . S
H749 C735 0.958 . S
H750 C735 0.961 . S
H751 C735 0.960 . S
C752 C753 1.391 1_565 S
C752 C754 1.394 . S
C752 H768 0.931 . S
C753 C752 1.391 1_545 S
C753 C757 1.376 . S
C754 C752 1.394 . S
C754 C755 1.369 1_565 S
C754 C758 1.531 . S
C755 C754 1.369 1_545 S
C755 C756 1.410 . S
C755 C763 1.503 . S
C756 C755 1.410 . S
C756 C757 1.392 . S
C756 C759 1.511 . S
C757 C753 1.376 . S
C757 C756 1.392 . S
C757 H769 0.929 . S
C758 C754 1.531 . S
C758 H770 0.960 . S
C758 H771 0.962 . S
C758 H772 0.960 . S
C759 C756 1.511 . S
C759 H773 0.961 . S
C759 H774 0.961 . S
C759 H775 0.961 . S
C760 C761 1.370 . S
C760 C762 1.363 . S
C760 H776 0.931 . S
C761 C760 1.370 . S
C761 C765 1.408 . S
C762 C760 1.363 . S
C762 C763 1.370 . S
C762 C766 1.524 . S
C763 C755 1.503 . S
C763 C762 1.370 . S
C763 C764 1.403 . S
C764 C763 1.403 . S
C764 C765 1.404 . S
C764 C767 1.539 1_545 S
C765 C761 1.408 . S
C765 C764 1.404 . S
C765 H777 0.930 . S
C766 C762 1.524 . S
C766 H778 0.956 . S
C766 H779 0.961 . S
C766 H780 0.961 . S
C767 C764 1.539 1_565 S
C767 H781 0.958 . S
C767 H782 0.961 . S
C767 H783 0.960 1_565 S
H768 C752 0.931 . S
H769 C757 0.929 . S
H770 C758 0.960 . S
H771 C758 0.962 . S
H772 C758 0.960 . S
H773 C759 0.961 . S
H774 C759 0.961 . S
H775 C759 0.961 . S
H776 C760 0.931 . S
H777 C765 0.930 . S
H778 C766 0.956 . S
H779 C766 0.961 . S
H780 C766 0.961 . S
H781 C767 0.958 . S
H782 C767 0.961 . S
H783 C767 0.960 1_545 S
C784 C785 1.391 . S
C784 C786 1.394 . S
C784 H800 0.931 . S
C785 C784 1.391 . S
C785 C789 1.376 . S
C786 C784 1.394 . S
C786 C787 1.369 . S
C786 C790 1.531 . S
C787 C786 1.369 . S
C787 C788 1.410 . S
C787 C795 1.503 . S
C788 C787 1.410 . S
C788 C789 1.392 . S
C788 C791 1.511 . S
C789 C785 1.376 . S
C789 C788 1.392 . S
C789 H801 0.929 . S
C790 C786 1.531 . S
C790 H802 0.960 . S
C790 H803 0.962 . S
C790 H804 0.960 . S
C791 C788 1.511 . S
C791 H805 0.961 . S
C791 H806 0.961 . S
C791 H807 0.961 . S
C792 C793 1.370 . S
C792 C794 1.363 . S
C792 H808 0.931 . S
C793 C792 1.370 . S
C793 C797 1.408 . S
C794 C792 1.363 . S
C794 C795 1.370 . S
C794 C798 1.524 . S
C795 C787 1.503 . S
C795 C794 1.370 . S
C795 C796 1.403 . S
C796 C795 1.403 . S
C796 C797 1.404 . S
C796 C799 1.539 . S
C797 C793 1.408 . S
C797 C796 1.404 . S
C797 H809 0.930 . S
C798 C794 1.524 . S
C798 H810 0.956 . S
C798 H811 0.961 . S
C798 H812 0.961 . S
C799 C796 1.539 . S
C799 H813 0.958 . S
C799 H814 0.961 . S
C799 H815 0.960 . S
H800 C784 0.931 . S
H801 C789 0.929 . S
H802 C790 0.960 . S
H803 C790 0.962 . S
H804 C790 0.960 . S
H805 C791 0.961 . S
H806 C791 0.961 . S
H807 C791 0.961 . S
H808 C792 0.931 . S
H809 C797 0.930 . S
H810 C798 0.956 . S
H811 C798 0.961 . S
H812 C798 0.961 . S
H813 C799 0.958 . S
H814 C799 0.961 . S
H815 C799 0.960 . S
C816 C817 1.391 1_565 S
C816 C818 1.394 . S
C816 H832 0.931 . S
C817 C816 1.391 1_545 S
C817 C821 1.376 . S
C818 C816 1.394 . S
C818 C819 1.369 1_565 S
C818 C822 1.531 . S
C819 C818 1.369 1_545 S
C819 C820 1.410 . S
C819 C827 1.503 . S
C820 C819 1.410 . S
C820 C821 1.392 . S
C820 C823 1.511 . S
C821 C817 1.376 . S
C821 C820 1.392 . S
C821 H833 0.929 . S
C822 C818 1.531 . S
C822 H834 0.960 . S
C822 H835 0.962 . S
C822 H836 0.960 . S
C823 C820 1.511 . S
C823 H837 0.961 . S
C823 H838 0.961 . S
C823 H839 0.961 . S
C824 C825 1.370 . S
C824 C826 1.363 . S
C824 H840 0.931 . S
C825 C824 1.370 . S
C825 C829 1.408 1_545 S
C826 C824 1.363 . S
C826 C827 1.370 . S
C826 C830 1.524 . S
C827 C819 1.503 . S
C827 C826 1.370 . S
C827 C828 1.403 1_545 S
C828 C827 1.403 1_565 S
C828 C829 1.404 . S
C828 C831 1.539 . S
C829 C825 1.408 1_565 S
C829 C828 1.404 . S
C829 H841 0.930 . S
C830 C826 1.524 . S
C830 H842 0.956 . S
C830 H843 0.961 . S
C830 H844 0.961 . S
C831 C828 1.539 . S
C831 H845 0.958 . S
C831 H846 0.961 . S
C831 H847 0.960 . S
H832 C816 0.931 . S
H833 C821 0.929 . S
H834 C822 0.960 . S
H835 C822 0.962 . S
H836 C822 0.960 . S
H837 C823 0.961 . S
H838 C823 0.961 . S
H839 C823 0.961 . S
H840 C824 0.931 . S
H841 C829 0.930 . S
H842 C830 0.956 . S
H843 C830 0.961 . S
H844 C830 0.961 . S
H845 C831 0.958 . S
H846 C831 0.961 . S
H847 C831 0.960 . S
C848 C849 1.391 . S
C848 C850 1.394 . S
C848 H864 0.931 . S
C849 C848 1.391 . S
C849 C853 1.376 . S
C850 C848 1.394 . S
C850 C851 1.369 . S
C850 C854 1.531 . S
C851 C850 1.369 . S
C851 C852 1.410 . S
C851 C859 1.503 . S
C852 C851 1.410 . S
C852 C853 1.392 . S
C852 C855 1.511 . S
C853 C849 1.376 . S
C853 C852 1.392 . S
C853 H865 0.929 . S
C854 C850 1.531 . S
C854 H866 0.960 . S
C854 H867 0.962 . S
C854 H868 0.960 . S
C855 C852 1.511 . S
C855 H869 0.961 . S
C855 H870 0.961 . S
C855 H871 0.961 . S
C856 C857 1.370 1_556 S
C856 C858 1.363 . S
C856 H872 0.929 . S
C857 C856 1.370 1_554 S
C857 C861 1.390 1_554 S
C858 C856 1.363 . S
C858 C859 1.370 . S
C858 C862 1.524 . S
C859 C851 1.503 . S
C859 C858 1.370 . S
C859 C860 1.403 . S
C860 C859 1.403 . S
C860 C861 1.456 . S
C860 C863 1.539 . S
C861 C857 1.390 1_556 S
C861 C860 1.456 . S
C861 H873 0.898 1_556 S
C862 C858 1.524 . S
C862 H874 0.956 . S
C862 H875 0.961 . S
C862 H876 0.961 . S
C863 C860 1.539 . S
C863 H877 0.958 . S
C863 H878 0.961 . S
C863 H879 0.960 . S
H864 C848 0.931 . S
H865 C853 0.929 . S
H866 C854 0.960 . S
H867 C854 0.962 . S
H868 C854 0.960 . S
H869 C855 0.961 . S
H870 C855 0.961 . S
H871 C855 0.961 . S
H872 C856 0.929 . S
H873 C861 0.898 1_554 S
H874 C862 0.956 . S
H875 C862 0.961 . S
H876 C862 0.961 . S
H877 C863 0.958 . S
H878 C863 0.961 . S
H879 C863 0.960 . S
C880 C881 1.391 1_655 S
C880 C882 1.394 . S
C880 H896 0.931 . S
C881 C880 1.391 1_455 S
C881 C885 1.376 . S
C882 C880 1.394 . S
C882 C883 1.369 . S
C882 C886 1.531 . S
C883 C882 1.369 . S
C883 C884 1.410 1_655 S
C883 C891 1.503 . S
C884 C883 1.410 1_455 S
C884 C885 1.392 . S
C884 C887 1.511 . S
C885 C881 1.376 . S
C885 C884 1.392 . S
C885 H897 0.929 . S
C886 C882 1.531 . S
C886 H898 0.960 . S
C886 H899 0.962 . S
C886 H900 0.960 . S
C887 C884 1.511 . S
C887 H901 0.961 . S
C887 H902 0.961 . S
C887 H903 0.961 . S
C888 C889 1.370 1_455 S
C888 C890 1.363 . S
C888 H904 0.931 . S
C889 C888 1.370 1_655 S
C889 C893 1.408 . S
C890 C888 1.363 . S
C890 C891 1.370 1_455 S
C890 C894 1.524 . S
C891 C883 1.503 . S
C891 C890 1.370 1_655 S
C891 C892 1.403 . S
C892 C891 1.403 . S
C892 C893 1.404 . S
C892 C895 1.539 . S
C893 C889 1.408 . S
C893 C892 1.404 . S
C893 H905 0.930 . S
C894 C890 1.524 . S
C894 H906 0.956 . S
C894 H907 0.961 . S
C894 H908 0.961 . S
C895 C892 1.539 . S
C895 H909 0.958 . S
C895 H910 0.961 . S
C895 H911 0.960 . S
H896 C880 0.931 . S
H897 C885 0.929 . S
H898 C886 0.960 . S
H899 C886 0.962 . S
H900 C886 0.960 . S
H901 C887 0.961 . S
H902 C887 0.961 . S
H903 C887 0.961 . S
H904 C888 0.931 . S
H905 C893 0.930 . S
H906 C894 0.956 . S
H907 C894 0.961 . S
H908 C894 0.961 . S
H909 C895 0.958 . S
H910 C895 0.961 . S
H911 C895 0.960 . S
C337 C19 1.928 . S
C345 C325 1.849 . S
C369 C46 1.245 . S
C377 C253 1.223 . S
C401 C95 0.433 . S
C409 C289 0.339 . S
C433 C10 2.011 . S
C441 C301 1.987 . S
C473 C229 1.315 . S
C465 C55 1.316 . S
C505 C265 0.586 . S
C497 C86 0.591 . S
C529 C59 3.105 . S
C537 C181 3.019 . S
C561 C90 2.031 . S
C569 C193 2.023 . S
C593 C15 1.267 . S
C601 C121 1.302 . S
C633 C157 2.989 . S
C625 C50 3.007 . S
C665 C217 1.871 . S
C657 C99 1.903 . S
C689 C6 1.215 . S
C697 C145 1.215 . S
C729 C223 1.376 . S
C721 C9 1.358 . S
C753 C58 1.414 . S
C761 C151 1.504 . S
C785 C98 1.677 . S
C793 C187 1.769 . S
C825 C295 1.080 . S
C817 C49 1.065 . S
C857 C331 1.355 . S
C849 C89 1.288 . S
C881 C18 1.466 . S
C889 C259 1.479 . S
