# Generated by pormake.
# Topology pyr, (3,6)-cn, num edge types: 1
# Building blocks:
#     Node 0, Type 0, BuildingBlock: KAKCAD_clean_linker_0, # of connection points: 3
#     Node 1, Type 0, BuildingBlock: KAKCAD_clean_linker_0, # of connection points: 3
#     Node 2, Type 0, BuildingBlock: KAKCAD_clean_linker_0, # of connection points: 3
#     Node 3, Type 0, BuildingBlock: KAKCAD_clean_linker_0, # of connection points: 3
#     Node 4, Type 0, BuildingBlock: KAKCAD_clean_linker_0, # of connection points: 3
#     Node 5, Type 0, BuildingBlock: KAKCAD_clean_linker_0, # of connection points: 3
#     Node 6, Type 0, BuildingBlock: KAKCAD_clean_linker_0, # of connection points: 3
#     Node 7, Type 0, BuildingBlock: KAKCAD_clean_linker_0, # of connection points: 3
#     Node 8, Type 1, BuildingBlock: PAMTUU_clean_sbu_0, # of connection points: 6
#     Node 9, Type 1, BuildingBlock: PAMTUU_clean_sbu_0, # of connection points: 6
#     Node 10, Type 1, BuildingBlock: PAMTUU_clean_sbu_0, # of connection points: 6
#     Node 11, Type 1, BuildingBlock: PAMTUU_clean_sbu_0, # of connection points: 6
#     Edge 12, Type (0, 1), BuildingBlock: OJICUG_clean_linker_0, # of connection points: 2
#     Edge 13, Type (0, 1), BuildingBlock: OJICUG_clean_linker_0, # of connection points: 2
#     Edge 14, Type (0, 1), BuildingBlock: OJICUG_clean_linker_0, # of connection points: 2
#     Edge 15, Type (0, 1), BuildingBlock: OJICUG_clean_linker_0, # of connection points: 2
#     Edge 16, Type (0, 1), BuildingBlock: OJICUG_clean_linker_0, # of connection points: 2
#     Edge 17, Type (0, 1), BuildingBlock: OJICUG_clean_linker_0, # of connection points: 2
#     Edge 18, Type (0, 1), BuildingBlock: OJICUG_clean_linker_0, # of connection points: 2
#     Edge 19, Type (0, 1), BuildingBlock: OJICUG_clean_linker_0, # of connection points: 2
#     Edge 20, Type (0, 1), BuildingBlock: OJICUG_clean_linker_0, # of connection points: 2
#     Edge 21, Type (0, 1), BuildingBlock: OJICUG_clean_linker_0, # of connection points: 2
#     Edge 22, Type (0, 1), BuildingBlock: OJICUG_clean_linker_0, # of connection points: 2
#     Edge 23, Type (0, 1), BuildingBlock: OJICUG_clean_linker_0, # of connection points: 2
#     Edge 24, Type (0, 1), BuildingBlock: OJICUG_clean_linker_0, # of connection points: 2
#     Edge 25, Type (0, 1), BuildingBlock: OJICUG_clean_linker_0, # of connection points: 2
#     Edge 26, Type (0, 1), BuildingBlock: OJICUG_clean_linker_0, # of connection points: 2
#     Edge 27, Type (0, 1), BuildingBlock: OJICUG_clean_linker_0, # of connection points: 2
#     Edge 28, Type (0, 1), BuildingBlock: OJICUG_clean_linker_0, # of connection points: 2
#     Edge 29, Type (0, 1), BuildingBlock: OJICUG_clean_linker_0, # of connection points: 2
#     Edge 30, Type (0, 1), BuildingBlock: OJICUG_clean_linker_0, # of connection points: 2
#     Edge 31, Type (0, 1), BuildingBlock: OJICUG_clean_linker_0, # of connection points: 2
#     Edge 32, Type (0, 1), BuildingBlock: OJICUG_clean_linker_0, # of connection points: 2
#     Edge 33, Type (0, 1), BuildingBlock: OJICUG_clean_linker_0, # of connection points: 2
#     Edge 34, Type (0, 1), BuildingBlock: OJICUG_clean_linker_0, # of connection points: 2
#     Edge 35, Type (0, 1), BuildingBlock: OJICUG_clean_linker_0, # of connection points: 2
# Relax obj value: 0.124
# Max RMSD: 0.140
# Mean RMSD: 0.057
data_MOF--net-pyr--node1-PAMTUU_clean_sbu_0--node2-KAKCAD_clean_linker_0--edge1-OJICUG_clean_linker_0
_symmetry_space_group_name_H-M    P1
_symmetry_Int_Tables_number       1
_symmetry_cell_setting            triclinic
loop_
_symmetry_equiv_pos_as_xyz
'x, y, z'
_cell_length_a     36.542411
_cell_length_b     37.690108
_cell_length_c     35.773468
_cell_angle_alpha  90.113227
_cell_angle_beta   89.502798
_cell_angle_gamma 101.44626
loop_
_atom_site_label
_atom_site_type_symbol
_atom_site_fract_x
_atom_site_fract_y
_atom_site_fract_z
_atom_type_partial_charge
C0 C 0.28221 0.26013 0.33808 0.0
C1 C 0.30029 0.2418 0.3639 0.0
C2 C 0.30265 0.28223 0.31104 0.0
C3 C 0.34182 0.28672 0.30924 0.0
C4 C 0.36014 0.27078 0.33721 0.0
C5 C 0.33946 0.24848 0.36445 0.0
C6 C 0.36178 0.30248 0.27483 0.0
C7 C 0.34896 0.32997 0.25548 0.0
C8 C 0.35684 0.33592 0.21727 0.0
C9 C 0.3811 0.31663 0.19932 0.0
C10 C 0.39617 0.29072 0.21893 0.0
C11 C 0.38681 0.28409 0.25673 0.0
C12 C 0.4144 0.26493 0.19829 0.0
C13 C 0.39465 0.2437 0.17005 0.0
C14 C 0.44946 0.2587 0.20887 0.0
C15 C 0.46455 0.23155 0.19129 0.0
C16 C 0.44437 0.20951 0.1635 0.0
C17 C 0.33262 0.35522 0.19526 0.0
C18 C 0.31337 0.33794 0.16427 0.0
C19 C 0.32305 0.38716 0.20897 0.0
C20 C 0.29283 0.39981 0.19401 0.0
C21 C 0.27154 0.3807 0.16515 0.0
C22 C 0.28314 0.35052 0.1494 0.0
C23 C 0.4092 0.21611 0.15318 0.0
H24 H 0.25199 0.25547 0.33731 0.0
H25 H 0.28726 0.29333 0.28978 0.0
H26 H 0.39025 0.27392 0.33678 0.0
H27 H 0.35392 0.2345 0.38418 0.0
H28 H 0.32907 0.34371 0.26907 0.0
H29 H 0.39556 0.26162 0.27054 0.0
H30 H 0.38631 0.32001 0.16953 0.0
H31 H 0.36712 0.24746 0.1621 0.0
H32 H 0.46499 0.27467 0.23086 0.0
H33 H 0.49191 0.2278 0.19968 0.0
H34 H 0.31964 0.31295 0.15341 0.0
H35 H 0.33761 0.40117 0.23264 0.0
H36 H 0.3921 0.19926 0.13285 0.0
H37 H 0.26726 0.33499 0.12735 0.0
H38 H 0.28513 0.42366 0.20617 0.0
C39 C 0.19349 0.82061 0.87186 0.0
C40 C 0.23053 0.81683 0.87772 0.0
C41 C 0.17215 0.8009 0.84359 0.0
C42 C 0.18784 0.77798 0.81969 0.0
C43 C 0.22359 0.77167 0.82856 0.0
C44 C 0.24412 0.79017 0.85759 0.0
C45 C 0.17049 0.76558 0.78277 0.0
C46 C 0.14859 0.78655 0.76373 0.0
C47 C 0.14116 0.78161 0.72527 0.0
C48 C 0.15725 0.75612 0.70544 0.0
C49 C 0.17958 0.73568 0.72391 0.0
C50 C 0.18258 0.7378 0.76283 0.0
C51 C 0.20951 0.72282 0.70313 0.0
C52 C 0.20267 0.69272 0.67924 0.0
C53 C 0.24628 0.74169 0.70818 0.0
C54 C 0.27594 0.73042 0.69042 0.0
C55 C 0.26965 0.6999 0.66708 0.0
C56 C 0.12229 0.80754 0.7052 0.0
C57 C 0.09273 0.82078 0.72214 0.0
C58 C 0.1358 0.82162 0.67026 0.0
C59 C 0.12107 0.84893 0.65333 0.0
C60 C 0.09291 0.86354 0.67114 0.0
C61 C 0.07831 0.84856 0.70538 0.0
C62 C 0.2327 0.68109 0.66153 0.0
H63 H 0.18174 0.84049 0.88728 0.0
H64 H 0.14418 0.80544 0.83925 0.0
H65 H 0.23769 0.7547 0.81164 0.0
H66 H 0.27194 0.78532 0.86244 0.0
H67 H 0.14023 0.80918 0.77766 0.0
H68 H 0.19891 0.72061 0.77637 0.0
H69 H 0.15499 0.75412 0.67531 0.0
H70 H 0.17443 0.67797 0.6749 0.0
H71 H 0.25213 0.76517 0.72633 0.0
H72 H 0.304 0.74513 0.69582 0.0
H73 H 0.08132 0.81026 0.74885 0.0
H74 H 0.15887 0.81272 0.65645 0.0
H75 H 0.22711 0.6575 0.64358 0.0
H76 H 0.05664 0.85911 0.71993 0.0
H77 H 0.13238 0.85909 0.62647 0.0
C78 C 0.78393 0.45857 0.92517 0.0
C79 C 0.80861 0.43776 0.93996 0.0
C80 C 0.75118 0.44217 0.9061 0.0
C81 C 0.74184 0.40432 0.901 0.0
C82 C 0.76698 0.3837 0.91514 0.0
C83 C 0.79953 0.40002 0.93429 0.0
C84 C 0.70563 0.38607 0.88253 0.0
C85 C 0.69023 0.40189 0.85194 0.0
C86 C 0.65613 0.38484 0.83484 0.0
C87 C 0.63765 0.35069 0.84965 0.0
C88 C 0.65276 0.33385 0.87981 0.0
C89 C 0.68633 0.35224 0.89588 0.0
C90 C 0.63449 0.29696 0.89528 0.0
C91 C 0.596 0.28769 0.90366 0.0
C92 C 0.65639 0.27129 0.90422 0.0
C93 C 0.64081 0.23815 0.92163 0.0
C94 C 0.60254 0.22915 0.93134 0.0
C95 C 0.64054 0.4025 0.80138 0.0
C96 C 0.64786 0.44052 0.79627 0.0
C97 C 0.61861 0.38177 0.77362 0.0
C98 C 0.60495 0.39812 0.74243 0.0
C99 C 0.61273 0.43612 0.73703 0.0
C100 C 0.63452 0.45684 0.76491 0.0
C101 C 0.58036 0.25454 0.92151 0.0
H102 H 0.78942 0.48763 0.92904 0.0
H103 H 0.73269 0.45921 0.89619 0.0
H104 H 0.76171 0.35464 0.91124 0.0
H105 H 0.81791 0.38289 0.94423 0.0
H106 H 0.70566 0.42716 0.84076 0.0
H107 H 0.69712 0.34026 0.91985 0.0
H108 H 0.61156 0.33695 0.83769 0.0
H109 H 0.57812 0.30665 0.89763 0.0
H110 H 0.686 0.27687 0.89779 0.0
H111 H 0.6591 0.21952 0.92731 0.0
H112 H 0.66385 0.45815 0.81673 0.0
H113 H 0.61225 0.35254 0.77546 0.0
H114 H 0.55093 0.24941 0.92852 0.0
H115 H 0.64195 0.48599 0.76249 0.0
H116 H 0.58788 0.38056 0.72265 0.0
C117 C 0.90669 0.60617 0.26594 0.0
C118 C 0.92239 0.62694 0.23482 0.0
C119 C 0.8932 0.62233 0.29745 0.0
C120 C 0.89477 0.66004 0.2994 0.0
C121 C 0.91064 0.68089 0.2684 0.0
C122 C 0.92407 0.66469 0.23676 0.0
C123 C 0.87935 0.67716 0.33317 0.0
C124 C 0.84679 0.65865 0.35209 0.0
C125 C 0.83167 0.67382 0.38353 0.0
C126 C 0.84979 0.70848 0.3957 0.0
C127 C 0.88225 0.72801 0.37792 0.0
C128 C 0.89682 0.71188 0.34669 0.0
C129 C 0.90038 0.76503 0.39285 0.0
C130 C 0.87826 0.7888 0.40709 0.0
C131 C 0.93951 0.77637 0.39514 0.0
C132 C 0.95572 0.80957 0.41231 0.0
C133 C 0.93337 0.8325 0.4279 0.0
C134 C 0.79689 0.65404 0.40383 0.0
C135 C 0.76746 0.63145 0.38473 0.0
C136 C 0.79223 0.65844 0.44272 0.0
C137 C 0.75919 0.64207 0.46143 0.0
C138 C 0.72968 0.62001 0.44224 0.0
C139 C 0.73456 0.61456 0.40365 0.0
C140 C 0.89437 0.82167 0.42437 0.0
H141 H 0.90426 0.57708 0.2659 0.0
H142 H 0.88179 0.60503 0.32058 0.0
H143 H 0.91224 0.70988 0.26821 0.0
H144 H 0.93621 0.68201 0.21393 0.0
H145 H 0.83309 0.63222 0.34226 0.0
H146 H 0.92179 0.72643 0.33289 0.0
H147 H 0.83845 0.72056 0.41948 0.0
H148 H 0.84814 0.78197 0.4051 0.0
H149 H 0.9577 0.75903 0.38483 0.0
H150 H 0.98583 0.81666 0.41444 0.0
H151 H 0.76929 0.62744 0.35486 0.0
H152 H 0.81425 0.67451 0.45909 0.0
H153 H 0.87603 0.83873 0.43498 0.0
H154 H 0.71245 0.59798 0.38776 0.0
H155 H 0.75691 0.64644 0.49122 0.0
C156 C 0.72893 0.79747 0.73615 0.0
C157 C 0.72597 0.83351 0.7296 0.0
C158 C 0.70695 0.77719 0.76396 0.0
C159 C 0.68231 0.79295 0.78617 0.0
C160 C 0.67657 0.82758 0.7761 0.0
C161 C 0.69778 0.84731 0.74795 0.0
C162 C 0.6685 0.77747 0.82338 0.0
C163 C 0.69077 0.75909 0.84495 0.0
C164 C 0.68505 0.75482 0.88368 0.0
C165 C 0.65754 0.77045 0.90133 0.0
C166 C 0.6343 0.78812 0.87999 0.0
C167 C 0.63797 0.78834 0.84086 0.0
C168 C 0.61111 0.81188 0.89802 0.0
C169 C 0.59214 0.80256 0.93206 0.0
C170 C 0.61029 0.84592 0.88214 0.0
C171 C 0.59165 0.87013 0.89992 0.0
C172 C 0.57367 0.86134 0.93439 0.0
C173 C 0.71183 0.73845 0.90538 0.0
C174 C 0.71969 0.70499 0.89424 0.0
C175 C 0.73336 0.75822 0.93362 0.0
C176 C 0.76363 0.7457 0.94885 0.0
C177 C 0.7726 0.71301 0.93637 0.0
C178 C 0.74961 0.6923 0.9097 0.0
C179 C 0.57366 0.8271 0.95011 0.0
H180 H 0.75008 0.78591 0.7219 0.0
H181 H 0.71121 0.75012 0.76965 0.0
H182 H 0.65824 0.84134 0.79194 0.0
H183 H 0.69411 0.87468 0.7426 0.0
H184 H 0.7149 0.75083 0.83258 0.0
H185 H 0.61904 0.80047 0.82431 0.0
H186 H 0.65555 0.77025 0.93157 0.0
H187 H 0.59202 0.77658 0.94498 0.0
H188 H 0.62551 0.85476 0.85663 0.0
H189 H 0.59297 0.89654 0.88749 0.0
H190 H 0.70355 0.68934 0.8724 0.0
H191 H 0.7281 0.78429 0.9424 0.0
H192 H 0.55985 0.81953 0.97665 0.0
H193 H 0.75594 0.66718 0.89925 0.0
H194 H 0.78066 0.76207 0.96961 0.0
C195 C 0.84907 0.21773 0.23139 0.0
C196 C 0.81885 0.22914 0.21461 0.0
C197 C 0.8674 0.23672 0.2614 0.0
C198 C 0.85706 0.26867 0.27472 0.0
C199 C 0.83111 0.28319 0.25348 0.0
C200 C 0.81167 0.26328 0.22421 0.0
C201 C 0.86777 0.28214 0.31351 0.0
C202 C 0.89725 0.27085 0.33208 0.0
C203 C 0.89832 0.26976 0.37127 0.0
C204 C 0.87387 0.28665 0.39215 0.0
C205 C 0.84718 0.30246 0.37393 0.0
C206 C 0.84383 0.29941 0.33488 0.0
C207 C 0.81904 0.31784 0.39529 0.0
C208 C 0.79801 0.29795 0.42409 0.0
C209 C 0.81026 0.35085 0.38414 0.0
C210 C 0.78019 0.36309 0.40043 0.0
C211 C 0.75803 0.34244 0.42803 0.0
C212 C 0.91914 0.24447 0.38944 0.0
C213 C 0.91666 0.20962 0.37421 0.0
C214 C 0.93886 0.25319 0.42287 0.0
C215 C 0.95538 0.22731 0.4408 0.0
C216 C 0.95179 0.19224 0.42586 0.0
C217 C 0.93277 0.18392 0.39215 0.0
C218 C 0.76766 0.31005 0.44019 0.0
H219 H 0.85651 0.1923 0.22348 0.0
H220 H 0.88723 0.22396 0.27572 0.0
H221 H 0.8237 0.30869 0.2609 0.0
H222 H 0.78911 0.27341 0.21124 0.0
H223 H 0.91759 0.2594 0.31649 0.0
H224 H 0.82032 0.30791 0.32206 0.0
H225 H 0.87423 0.28583 0.42242 0.0
H226 H 0.80393 0.27221 0.43293 0.0
H227 H 0.82604 0.36666 0.36198 0.0
H228 H 0.77332 0.38798 0.3902 0.0
H229 H 0.90101 0.20164 0.34894 0.0
H230 H 0.9411 0.27976 0.43528 0.0
H231 H 0.75128 0.29374 0.46165 0.0
H232 H 0.9298 0.15718 0.37991 0.0
H233 H 0.96981 0.23428 0.46693 0.0
C234 C 0.22946 0.61356 0.19346 0.0
C235 C 0.22518 0.62047 0.1551 0.0
C236 C 0.26217 0.62964 0.21292 0.0
C237 C 0.29202 0.65293 0.19464 0.0
C238 C 0.288 0.65857 0.15591 0.0
C239 C 0.25523 0.64305 0.13673 0.0
C240 C 0.32664 0.67228 0.21534 0.0
C241 C 0.34156 0.65685 0.24657 0.0
C242 C 0.37468 0.67485 0.26466 0.0
C243 C 0.39284 0.70927 0.25059 0.0
C244 C 0.37847 0.7256 0.21967 0.0
C245 C 0.34522 0.70689 0.20317 0.0
C246 C 0.39746 0.76198 0.20348 0.0
C247 C 0.41246 0.79197 0.22614 0.0
C248 C 0.39867 0.76753 0.16444 0.0
C249 C 0.41287 0.80174 0.1487 0.0
C250 C 0.42658 0.83218 0.17119 0.0
C251 C 0.3905 0.65737 0.29775 0.0
C252 C 0.36713 0.63963 0.32655 0.0
C253 C 0.42912 0.65787 0.30089 0.0
C254 C 0.44364 0.64098 0.33118 0.0
C255 C 0.42032 0.62347 0.36013 0.0
C256 C 0.38175 0.62339 0.35725 0.0
C257 C 0.42673 0.82646 0.21028 0.0
H258 H 0.20703 0.59644 0.20878 0.0
H259 H 0.26353 0.62447 0.24257 0.0
H260 H 0.31036 0.67505 0.13996 0.0
H261 H 0.25363 0.6485 0.10714 0.0
H262 H 0.32808 0.6302 0.25619 0.0
H263 H 0.33322 0.72001 0.18079 0.0
H264 H 0.41823 0.72334 0.26368 0.0
H265 H 0.41203 0.78914 0.25626 0.0
H266 H 0.38838 0.74524 0.14572 0.0
H267 H 0.4131 0.80417 0.11855 0.0
H268 H 0.33733 0.63863 0.32564 0.0
H269 H 0.44825 0.67087 0.27947 0.0
H270 H 0.43684 0.84889 0.22887 0.0
H271 H 0.36259 0.61016 0.37853 0.0
H272 H 0.47345 0.64207 0.33212 0.0
C273 C 0.14584 0.23633 0.67933 0.0
C274 C 0.1083 0.22722 0.66786 0.0
C275 C 0.16033 0.26987 0.69614 0.0
C276 C 0.1379 0.29573 0.70261 0.0
C277 C 0.1 0.28633 0.69265 0.0
C278 C 0.08548 0.25273 0.67541 0.0
C279 C 0.15537 0.3331 0.71657 0.0
C280 C 0.18885 0.35113 0.69975 0.0
C281 C 0.20764 0.38544 0.71184 0.0
C282 C 0.19191 0.40216 0.74184 0.0
C283 C 0.15783 0.38536 0.75958 0.0
C284 C 0.13974 0.35069 0.74606 0.0
C285 C 0.1419 0.40375 0.79245 0.0
C286 C 0.14867 0.44188 0.79623 0.0
C287 C 0.12023 0.38356 0.82098 0.0
C288 C 0.10626 0.40058 0.85174 0.0
C289 C 0.11358 0.4387 0.85586 0.0
C290 C 0.2437 0.40319 0.69263 0.0
C291 C 0.26934 0.38227 0.67981 0.0
C292 C 0.25221 0.44067 0.68528 0.0
C293 C 0.28476 0.45644 0.66522 0.0
C294 C 0.30994 0.4353 0.65175 0.0
C295 C 0.3017 0.39797 0.65966 0.0
C296 C 0.13507 0.45889 0.82721 0.0
H297 H 0.16439 0.21752 0.67535 0.0
H298 H 0.18952 0.27577 0.70382 0.0
H299 H 0.08189 0.30554 0.69682 0.0
H300 H 0.05655 0.24736 0.66695 0.0
H301 H 0.19999 0.3384 0.67623 0.0
H302 H 0.11362 0.33709 0.75849 0.0
H303 H 0.20705 0.4279 0.75206 0.0
H304 H 0.16443 0.45903 0.77505 0.0
H305 H 0.11435 0.35429 0.82011 0.0
H306 H 0.08935 0.38345 0.87219 0.0
H307 H 0.26457 0.3535 0.68548 0.0
H308 H 0.2332 0.45778 0.69417 0.0
H309 H 0.14207 0.48811 0.82873 0.0
H310 H 0.32058 0.38075 0.65072 0.0
H311 H 0.28976 0.48522 0.65958 0.0
Tb312 Tb 0.06365 0.03343 0.52491 0.0
Tb313 Tb 0.98376 1.0245 0.56968 0.0
C314 C 0.99576 0.96705 0.50921 0.0
C315 C 0.15412 0.06882 0.47586 0.0
C316 C 0.20815 0.1249 0.44524 0.0
C317 C 0.20523 0.08913 0.43261 0.0
C318 C 0.17843 0.06131 0.44786 0.0
C319 C 0.15765 0.10425 0.48956 0.0
C320 C 0.18472 0.13217 0.47443 0.0
C321 C 0.12425 0.0396 0.48897 0.0
O322 O 0.04022 0.07946 0.50839 0.0
O323 O 0.97974 0.05093 0.51638 0.0
O324 O 1.01517 0.07756 0.58743 0.0
O325 O 0.07508 0.07352 0.57025 0.0
O326 O 0.92569 1.01652 0.56423 0.0
O327 O 0.95169 1.02753 0.61813 0.0
O328 O 1.01548 0.99405 0.60414 0.0
O329 O 0.06318 0.98904 0.56301 0.0
O330 O 0.0237 0.9912 0.49515 0.0
O331 O 0.98069 0.97253 0.54169 0.0
C332 C 1.00463 0.07772 0.5028 0.0
O333 O 0.1213 0.03489 0.52505 0.0
O334 O 0.09185 0.03788 0.47331 0.0
C335 C 0.05153 0.08993 0.58843 0.0
C336 C 0.89215 0.99003 0.61645 0.0
C337 C 0.83763 0.93592 0.64949 0.0
C338 C 0.83281 0.97201 0.64834 0.0
C339 C 0.85989 0.99882 0.63199 0.0
C340 C 0.89688 0.95396 0.6166 0.0
C341 C 0.86966 0.92698 0.63299 0.0
C342 C 0.92034 1.01889 0.60009 0.0
C343 C 0.04464 0.98053 0.59431 0.0
H344 H 0.22315 0.08284 0.4103 0.0
H345 H 0.17605 0.03405 0.43711 0.0
H346 H 0.1389 0.11043 0.51116 0.0
H347 H 0.18622 0.15959 0.48435 0.0
H348 H 0.80812 0.97956 0.66035 0.0
H349 H 0.85576 1.02651 0.63172 0.0
H350 H 0.92173 0.94684 0.60446 0.0
H351 H 0.87414 0.89943 0.63372 0.0
Tb352 Tb 0.54963 0.03722 0.07802 0.0
Tb353 Tb 0.47127 1.02867 1.03141 0.0
C354 C 0.52924 0.98016 1.0133 0.0
C355 C 0.64359 0.07232 0.11827 0.0
C356 C 0.70492 0.12604 0.13916 0.0
C357 C 0.70914 0.09016 0.13322 0.0
C358 C 0.67869 0.06354 0.12298 0.0
C359 C 0.63951 0.10841 0.12213 0.0
C360 C 0.67002 0.13514 0.13259 0.0
C361 C 0.6117 0.04326 0.10991 0.0
O362 O 0.56219 0.07605 1.0312 0.0
O363 O 0.50339 0.08094 1.01214 0.0
O364 O 0.46595 0.06401 0.07815 0.0
O365 O 0.52668 0.08267 0.0975 0.0
O366 O 0.4413 1.02781 0.98151 0.0
O367 O 0.41293 1.0206 1.03499 0.0
O368 O 0.4654 0.979 0.06484 0.0
O369 O 0.50935 0.99701 0.11018 0.0
O370 O 0.54388 0.98758 1.04632 0.0
O371 O 0.50595 0.9988 0.99906 0.0
C372 C 0.53982 0.09291 1.01221 0.0
O373 O 0.58047 0.04432 0.12753 0.0
O374 O 0.60652 0.03527 0.07463 0.0
C375 C 0.49176 0.08609 0.09669 0.0
C376 C 0.38284 0.98813 0.98467 0.0
C377 C 0.33178 0.92809 0.95758 0.0
C378 C 0.3201 0.96065 0.96555 0.0
C379 C 0.34554 0.99052 0.97893 0.0
C380 C 0.39438 0.95536 0.9779 0.0
C381 C 0.36905 0.92559 0.96427 0.0
C382 C 0.40916 1.01958 0.99884 0.0
C383 C 0.48049 0.97355 0.09716 0.0
H384 H 0.73584 0.08248 0.13747 0.0
H385 H 0.68237 0.03588 0.11955 0.0
H386 H 0.61259 0.1157 0.11807 0.0
H387 H 0.66589 0.1625 0.13715 0.0
H388 H 0.29163 0.96336 0.96027 0.0
H389 H 0.3362 1.01558 0.98446 0.0
H390 H 0.423 0.95293 0.98285 0.0
H391 H 0.37865 0.90068 0.95864 0.0
Tb392 Tb 0.51886 0.49139 0.52202 0.0
Tb393 Tb 0.51831 0.56513 0.56851 0.0
C394 C 0.48335 0.55445 0.48734 0.0
C395 C 0.5566 0.41683 0.48298 0.0
C396 C 0.62168 0.3887 0.47098 0.0
C397 C 0.58937 0.37614 0.44982 0.0
C398 C 0.5571 0.39023 0.45571 0.0
C399 C 0.58837 0.42864 0.5049 0.0
C400 C 0.6206 0.41471 0.49898 0.0
C401 C 0.52439 0.43453 0.48676 0.0
O402 O 0.57656 0.52132 0.51811 0.0
O403 O 0.56868 0.57848 0.53352 0.0
O404 O 0.55407 0.53774 0.60324 0.0
O405 O 0.53868 0.48062 0.57807 0.0
O406 O 0.5195 0.6211 0.56702 0.0
O407 O 0.51261 0.59204 0.61908 0.0
O408 O 0.47124 0.52588 0.5904 0.0
O409 O 0.46082 0.48504 0.5423 0.0
O410 O 0.50271 0.52904 0.48102 0.0
O411 O 0.47924 0.5655 0.5218 0.0
C412 C 0.5887 0.55661 0.51851 0.0
O413 O 0.51005 0.43453 0.5202 0.0
O414 O 0.52893 0.4664 0.47147 0.0
C415 C 0.55398 0.50265 0.60485 0.0
C416 C 0.47426 0.63377 0.60883 0.0
C417 C 0.40563 0.65509 0.6221 0.0
C418 C 0.43944 0.67704 0.63382 0.0
C419 C 0.47353 0.6664 0.62725 0.0
C420 C 0.44067 0.61199 0.59684 0.0
C421 C 0.40669 0.6225 0.60345 0.0
C422 C 0.50957 0.62176 0.60201 0.0
C423 C 0.44985 0.49858 0.57355 0.0
H424 H 0.58946 0.35641 0.42778 0.0
H425 H 0.53291 0.38106 0.43834 0.0
H426 H 0.58853 0.44926 0.52607 0.0
H427 H 0.64484 0.42461 0.51603 0.0
H428 H 0.43948 0.70211 0.64869 0.0
H429 H 0.49919 0.68348 0.63673 0.0
H430 H 0.44071 0.58673 0.5824 0.0
H431 H 0.38127 0.60521 0.59371 0.0
Tb432 Tb 0.01778 0.56986 1.02283 0.0
Tb433 Tb 1.01624 0.49515 0.06868 0.0
C434 C 0.05319 0.5068 0.98653 0.0
C435 C 0.97822 0.64172 0.97998 0.0
C436 C 0.91099 0.66663 0.96879 0.0
C437 C 0.91598 0.63349 0.95348 0.0
C438 C 0.94909 0.62113 0.95909 0.0
C439 C 0.97372 0.67521 0.99457 0.0
C440 C 0.94046 0.68755 0.98908 0.0
C441 C 1.01183 0.62722 0.98926 0.0
O442 O 0.96904 0.53202 1.0016 0.0
O443 O 0.9589 0.48857 1.04753 0.0
O444 O 0.99909 0.53217 0.10968 0.0
O445 O 0.97901 0.57149 0.06997 0.0
O446 O 1.00995 0.43843 0.06968 0.0
O447 O 0.02259 0.46979 0.1198 0.0
O448 O 0.07388 0.52488 0.07408 0.0
O449 O 0.06718 0.58235 0.05889 0.0
O450 O 0.05381 0.54194 0.98838 0.0
O451 O 0.03683 0.48465 1.01281 0.0
C452 C 0.948 0.50339 1.01722 0.0
O453 O 0.01918 0.62597 1.02472 0.0
O454 O 1.01584 0.59762 0.97224 0.0
C455 C 0.98155 0.55891 0.10396 0.0
C456 C 0.05616 0.42437 0.10911 0.0
C457 C 0.12595 0.40709 0.12509 0.0
C458 C 0.0947 0.39452 0.14827 0.0
C459 C 0.06008 0.40322 0.14039 0.0
C460 C 0.08693 0.43592 0.08526 0.0
C461 C 0.12145 0.42733 0.09312 0.0
C462 C 0.02202 0.43868 0.10384 0.0
C463 C 0.08633 0.56013 0.07439 0.0
H464 H 0.89426 0.617 0.93704 0.0
H465 H 0.95153 0.59514 0.94749 0.0
H466 H 0.99564 0.69146 1.01101 0.0
H467 H 0.93751 0.71305 1.00154 0.0
H468 H 0.09715 0.37845 0.17285 0.0
H469 H 0.03674 0.39444 0.1593 0.0
H470 H 0.08466 0.45281 0.06126 0.0
H471 H 0.14496 0.43786 0.07498 0.0
C472 C 0.25349 0.18453 0.36664 0.0
C473 C 0.27791 0.2119 0.38572 0.0
H474 H 0.21244 0.13576 0.37065 0.0
C475 C 0.28017 0.21031 0.42482 0.0
H476 H 0.25156 0.18503 0.33644 0.0
C477 C 0.25744 0.18204 0.44457 0.0
C478 C 0.23295 0.15473 0.42527 0.0
H479 H 0.2989 0.23119 0.43999 0.0
H480 H 0.25913 0.18134 0.47477 0.0
C481 C 0.23136 0.15622 0.38617 0.0
C482 C 0.2447 0.85905 0.93309 0.0
C483 C 0.25664 0.8434 0.9006 0.0
H484 H 0.25933 0.89821 0.97692 0.0
C485 C 0.29373 0.85517 0.88815 0.0
H486 H 0.21646 0.85053 0.94359 0.0
C487 C 0.31816 0.8818 0.90743 0.0
C488 C 0.3061 0.89788 0.93937 0.0
H489 H 0.30377 0.84482 0.8626 0.0
H490 H 0.34619 0.89081 0.89646 0.0
C491 C 0.26921 0.88623 0.95221 0.0
C492 C 0.59061 0.43491 0.66864 0.0
C493 C 0.59843 0.4538 0.70281 0.0
H494 H 0.57112 0.43484 0.61206 0.0
C495 C 0.59229 0.4898 0.70359 0.0
H496 H 0.59545 0.40766 0.66564 0.0
C497 C 0.57887 0.50586 0.67201 0.0
C498 C 0.57053 0.4866 0.63826 0.0
H499 H 0.59709 0.50569 0.72891 0.0
H500 H 0.57425 0.53329 0.67439 0.0
C501 C 0.57681 0.45082 0.63731 0.0
C502 C 0.95387 0.57887 0.20482 0.0
C503 C 0.93704 0.60931 0.20093 0.0
H504 H 0.98064 0.53948 0.17833 0.0
C505 C 0.93448 0.62252 0.16427 0.0
H506 H 0.95716 0.56789 0.23225 0.0
C507 C 0.94822 0.60607 0.13297 0.0
C508 C 0.96518 0.57577 0.13704 0.0
H509 H 0.92142 0.64549 0.15954 0.0
H510 H 0.94573 0.61734 0.1055 0.0
C511 C 0.96764 0.56251 0.17361 0.0
C512 C 0.48103 0.15917 0.16628 0.0
C513 C 0.45895 0.17904 0.14597 0.0
H514 H 0.50926 0.11421 0.16636 0.0
C515 C 0.44945 0.16851 0.10895 0.0
H516 H 0.48863 0.16601 0.19495 0.0
C517 C 0.45993 0.13807 0.09342 0.0
C518 C 0.48129 0.11808 0.11396 0.0
H519 H 0.43375 0.18367 0.09176 0.0
H520 H 0.45173 0.13039 0.06503 0.0
C521 C 0.49257 0.12925 0.15017 0.0
C522 C 0.10614 0.92216 0.63603 0.0
C523 C 0.08022 0.89514 0.65442 0.0
H524 H 0.1151 0.97024 0.60291 0.0
C525 C 0.04249 0.89845 0.65591 0.0
H526 H 0.13559 0.92131 0.63535 0.0
C527 C 0.03085 0.92732 0.63796 0.0
C528 C 0.0567 0.95302 0.61792 0.0
H529 H 0.02174 0.87812 0.66976 0.0
H530 H 1.00149 0.92859 0.6383 0.0
C531 C 0.09448 0.95049 0.61773 0.0
C532 C 0.85681 0.43773 0.99148 0.0
C533 C 0.84368 0.45511 0.96081 0.0
H534 H 0.89903 0.43896 1.03336 0.0
C535 C 0.86484 0.48904 0.94995 0.0
H536 H 0.84132 0.41188 1.0013 0.0
C537 C 0.89804 0.50463 0.96851 0.0
C538 C 0.91138 0.4871 0.99887 0.0
H539 H 0.85629 0.50335 0.9264 0.0
H540 H 0.91346 0.5305 0.95867 0.0
C541 C 0.88996 0.45347 1.01022 0.0
C542 C 0.67702 0.62375 0.48801 0.0
C543 C 0.69392 0.60336 0.46237 0.0
H544 H 0.63103 0.62546 0.52537 0.0
C545 C 0.67624 0.56708 0.4562 0.0
H546 H 0.68951 0.65181 0.49337 0.0
C547 C 0.64283 0.55172 0.47507 0.0
C548 C 0.62561 0.57233 0.50024 0.0
H549 H 0.68843 0.55038 0.43697 0.0
H550 H 0.63014 0.52378 0.46935 0.0
C551 C 0.6433 0.6086 0.50636 0.0
C552 C 0.21084 0.39831 0.18184 0.0
C553 C 0.23527 0.38963 0.15425 0.0
H554 H 0.15746 0.41075 0.19429 0.0
C555 C 0.22355 0.38697 0.11685 0.0
H556 H 0.21867 0.39996 0.21102 0.0
C557 C 0.18805 0.39245 0.10736 0.0
C558 C 0.16349 0.4007 0.13506 0.0
H559 H 0.24174 0.38048 0.0949 0.0
H560 H 0.17965 0.3897 0.07837 0.0
C561 C 0.17542 0.40382 0.17236 0.0
C562 C 0.54873 0.17611 0.94753 0.0
C563 C 0.58634 0.19389 0.95184 0.0
H564 H 0.50487 0.13121 0.96245 0.0
C565 C 0.60837 0.17743 0.97622 0.0
H566 H 0.53057 0.187 0.92888 0.0
C567 C 0.59361 0.14479 0.99514 0.0
C568 C 0.55605 0.12724 0.99087 0.0
H569 H 0.63713 0.19005 0.98143 0.0
H570 H 0.61168 0.1336 1.01367 0.0
C571 C 0.5339 0.14361 0.96673 0.0
C572 C 0.98313 0.89023 0.43624 0.0
C573 C 0.95008 0.86698 0.4486 0.0
H574 H 0.02315 0.93978 0.44488 0.0
C575 C 0.93271 0.87714 0.48119 0.0
H576 H 0.99734 0.8837 0.41123 0.0
C577 C 0.94758 0.90922 0.50056 0.0
C578 C 0.98033 0.93271 0.48804 0.0
H579 H 0.90763 0.85997 0.49218 0.0
H580 H 0.93313 0.91564 0.52548 0.0
C581 C 0.99787 0.92265 0.4555 0.0
C582 C 0.30514 0.65084 0.65298 0.0
C583 C 0.30223 0.68735 0.65055 0.0
H584 H 0.34038 0.61209 0.64652 0.0
C585 C 0.33252 0.71261 0.63596 0.0
H586 H 0.28242 0.63085 0.66449 0.0
C587 C 0.36572 0.70198 0.62587 0.0
C588 C 0.36935 0.6658 0.63 0.0
H589 H 0.33087 0.74086 0.63321 0.0
H590 H 0.38874 0.7222 0.61526 0.0
C591 C 0.33841 0.64016 0.64283 0.0
C592 C 0.7691 0.84911 0.67392 0.0
C593 C 0.75514 0.85861 0.70846 0.0
H594 H 0.80623 0.86651 0.62767 0.0
C595 C 0.76987 0.8927 0.72393 0.0
H596 H 0.75841 0.82289 0.66155 0.0
C597 C 0.79689 0.9173 0.70485 0.0
C598 C 0.81007 0.90848 0.66981 0.0
H599 H 0.76066 0.90037 0.75111 0.0
H600 H 0.80764 0.94329 0.7177 0.0
C601 C 0.79642 0.87395 0.65467 0.0
C602 C 0.78276 0.16658 0.20407 0.0
C603 C 0.79174 0.20292 0.19241 0.0
H604 H 0.74848 0.1144 0.19672 0.0
C605 C 0.77246 0.21382 0.16198 0.0
H606 H 0.7959 0.15732 0.2282 0.0
C607 C 0.74459 0.18885 0.14395 0.0
C608 C 0.73572 0.15262 0.156 0.0
H609 H 0.77869 0.24159 0.15232 0.0
H610 H 0.72992 0.19785 0.12075 0.0
C611 C 0.75531 0.14183 0.18607 0.0
C612 C 0.46398 0.58472 0.3874 0.0
C613 C 0.43605 0.60537 0.39285 0.0
H614 H 0.4999 0.5523 0.41183 0.0
C615 C 0.42349 0.60852 0.42999 0.0
H616 H 0.47438 0.58116 0.35949 0.0
C617 C 0.43863 0.59223 0.46036 0.0
C618 C 0.4664 0.57141 0.45481 0.0
H619 H 0.40232 0.62426 0.43578 0.0
H620 H 0.4284 0.59592 0.48831 0.0
C621 C 0.47855 0.56783 0.41764 0.0
C622 C 0.09206 0.43904 0.92444 0.0
C623 C 0.09911 0.45701 0.88968 0.0
H624 H 0.07267 0.44007 0.98122 0.0
C625 C 0.09199 0.4926 0.88791 0.0
H626 H 0.09779 0.4122 0.92814 0.0
C627 C 0.0782 0.50914 0.91921 0.0
C628 C 0.07047 0.49066 0.95349 0.0
H629 H 0.09624 0.50772 0.86204 0.0
H630 H 0.0727 0.53618 0.91619 0.0
C631 C 0.07783 0.45535 0.95545 0.0
C632 C 0.56688 0.89548 0.99311 0.0
C633 C 0.55843 0.88939 0.95519 0.0
H634 H 0.56458 0.92884 1.04091 0.0
C635 C 0.53855 0.91248 0.93669 0.0
H636 H 0.58255 0.87853 1.00804 0.0
C637 C 0.5283 0.94168 0.95554 0.0
C638 C 0.53811 0.94853 0.99312 0.0
H639 H 0.53143 0.90826 0.90748 0.0
H640 H 0.5135 0.9593 0.94047 0.0
C641 C 0.55695 0.92471 1.0118 0.0
C642 C 1.00263 0.16891 0.45899 0.0
C643 C 0.9658 0.1634 0.44596 0.0
H644 H 0.04418 0.14574 0.48662 0.0
C645 C 0.94218 0.12952 0.45133 0.0
H646 H 0.02141 0.19475 0.455 0.0
C647 C 0.95501 0.10166 0.46938 0.0
C648 C 0.9919 0.10691 0.48217 0.0
H649 H 0.91354 0.12466 0.44183 0.0
H650 H 0.93593 0.07598 0.4733 0.0
C651 C 1.01569 0.14078 0.47671 0.0
C652 C 0.1739 0.62598 0.10882 0.0
C653 C 0.18968 0.60474 0.13422 0.0
H654 H 0.12951 0.62914 0.0706 0.0
C655 C 0.17133 0.56841 0.13906 0.0
H656 H 0.18682 0.6541 0.10439 0.0
C657 C 0.13858 0.55384 0.1191 0.0
C658 C 0.12255 0.57525 0.09405 0.0
H659 H 0.18257 0.55098 0.158 0.0
H660 H 0.12549 0.52579 0.1238 0.0
C661 C 0.1408 0.61161 0.08938 0.0
C662 C 0.3584 0.43366 0.60019 0.0
C663 C 0.34491 0.452 0.63024 0.0
H664 H 0.40133 0.43373 0.5585 0.0
C665 C 0.36569 0.48626 0.64008 0.0
H666 H 0.34309 0.40746 0.59129 0.0
C667 C 0.39906 0.50128 0.62123 0.0
C668 C 0.41289 0.48277 0.59162 0.0
H669 H 0.35674 0.50125 0.66312 0.0
H670 H 0.41424 0.5275 0.63028 0.0
C671 C 0.39176 0.44887 0.58108 0.0
C672 C 0.84139 0.72699 0.94915 0.0
C673 C 0.8074 0.7018 0.94855 0.0
H674 H 0.90072 0.73565 0.95523 0.0
C675 C 0.80748 0.66538 0.95674 0.0
H676 H 0.84232 0.75516 0.94242 0.0
C677 C 0.84092 0.6542 0.96425 0.0
C678 C 0.87517 0.67911 0.96345 0.0
H679 H 0.78167 0.64542 0.95695 0.0
H680 H 0.83993 0.62591 0.97044 0.0
C681 C 0.8749 0.71577 0.95644 0.0
C682 C 0.46999 0.89489 0.16819 0.0
C683 C 0.43985 0.86935 0.1536 0.0
H684 H 0.50645 0.94714 0.16238 0.0
C685 C 0.42258 0.87953 0.12126 0.0
H686 H 0.48441 0.88842 0.19278 0.0
C687 C 0.4353 0.91323 0.10376 0.0
C688 C 0.46585 0.93846 0.11781 0.0
H689 H 0.39882 0.86145 0.10929 0.0
H690 H 0.42116 0.91932 0.0788 0.0
C691 C 0.4828 0.92877 0.15058 0.0
C692 C 0.11706 0.17558 0.6243 0.0
C693 C 0.09359 0.19175 0.6477 0.0
H694 H 0.12277 0.13158 0.58784 0.0
C695 C 0.05605 0.17355 0.6514 0.0
H696 H 0.14589 0.18865 0.61969 0.0
C697 C 0.0426 0.14072 0.63249 0.0
C698 C 0.06618 0.12462 0.60931 0.0
H699 H 0.03691 0.18436 0.66933 0.0
H700 H 1.01356 0.12786 0.63624 0.0
C701 C 0.10368 0.14264 0.60564 0.0
C702 C 0.72401 0.39018 0.45059 0.0
C703 C 0.72373 0.3537 0.44217 0.0
H704 H 0.69207 0.42978 0.4661 0.0
C705 C 0.68988 0.32843 0.44501 0.0
H706 H 0.74969 0.41023 0.44888 0.0
C707 C 0.65682 0.33961 0.45497 0.0
C708 C 0.65698 0.37624 0.46257 0.0
H709 H 0.68869 0.30019 0.43834 0.0
H710 H 0.63108 0.31962 0.45645 0.0
C711 C 0.69104 0.4013 0.46075 0.0
loop_
_geom_bond_atom_site_label_1
_geom_bond_atom_site_label_2
_geom_bond_distance
_geom_bond_site_symmetry_2
_ccdc_geom_bond_type
C0 C1 1.386 . S
C0 C2 1.397 . S
C0 H24 0.931 . S
C1 C0 1.386 . S
C1 C5 1.397 . S
C2 C0 1.397 . S
C2 C3 1.384 . S
C2 H25 0.930 . S
C3 C2 1.384 . S
C3 C4 1.377 . S
C3 C6 1.481 . S
C4 C3 1.377 . S
C4 C5 1.389 . S
C4 H26 0.929 . S
C5 C1 1.397 . S
C5 C4 1.389 . S
C5 H27 0.931 . S
C6 C3 1.481 . S
C6 C7 1.387 . S
C6 C11 1.390 . S
C7 C6 1.387 . S
C7 C8 1.401 . S
C7 H28 0.930 . S
C8 C7 1.401 . S
C8 C9 1.376 . S
C8 C17 1.511 . S
C9 C8 1.376 . S
C9 C10 1.392 . S
C9 H30 0.931 . S
C10 C9 1.392 . S
C10 C11 1.361 . S
C10 C12 1.500 . S
C11 C6 1.390 . S
C11 C10 1.361 . S
C11 H29 0.931 . S
C12 C10 1.500 . S
C12 C13 1.371 . S
C12 C14 1.365 . S
C13 C12 1.371 . S
C13 C23 1.386 . S
C13 H31 0.931 . S
C14 C12 1.365 . S
C14 C15 1.409 . S
C14 H32 0.929 . S
C15 C14 1.409 . S
C15 C16 1.380 . S
C15 H33 0.930 . S
C16 C15 1.380 . S
C16 C23 1.357 . S
C17 C8 1.511 . S
C17 C18 1.341 . S
C17 C19 1.371 . S
C18 C17 1.341 . S
C18 C22 1.394 . S
C18 H34 0.930 . S
C19 C17 1.371 . S
C19 C20 1.392 . S
C19 H35 0.931 . S
C20 C19 1.392 . S
C20 C21 1.331 . S
C20 H38 0.932 . S
C21 C20 1.331 . S
C21 C22 1.336 . S
C22 C18 1.394 . S
C22 C21 1.336 . S
C22 H37 0.929 . S
C23 C13 1.386 . S
C23 C16 1.357 . S
C23 H36 0.928 . S
H24 C0 0.931 . S
H25 C2 0.930 . S
H26 C4 0.929 . S
H27 C5 0.931 . S
H28 C7 0.930 . S
H29 C11 0.931 . S
H30 C9 0.931 . S
H31 C13 0.931 . S
H32 C14 0.929 . S
H33 C15 0.930 . S
H34 C18 0.930 . S
H35 C19 0.931 . S
H36 C23 0.928 . S
H37 C22 0.929 . S
H38 C20 0.932 . S
C39 C40 1.386 . S
C39 C41 1.397 . S
C39 H63 0.931 . S
C40 C39 1.386 . S
C40 C44 1.397 . S
C41 C39 1.397 . S
C41 C42 1.384 . S
C41 H64 0.930 . S
C42 C41 1.384 . S
C42 C43 1.377 . S
C42 C45 1.481 . S
C43 C42 1.377 . S
C43 C44 1.389 . S
C43 H65 0.929 . S
C44 C40 1.397 . S
C44 C43 1.389 . S
C44 H66 0.931 . S
C45 C42 1.481 . S
C45 C46 1.387 . S
C45 C50 1.390 . S
C46 C45 1.387 . S
C46 C47 1.401 . S
C46 H67 0.930 . S
C47 C46 1.401 . S
C47 C48 1.376 . S
C47 C56 1.511 . S
C48 C47 1.376 . S
C48 C49 1.392 . S
C48 H69 0.931 . S
C49 C48 1.392 . S
C49 C50 1.361 . S
C49 C51 1.500 . S
C50 C45 1.390 . S
C50 C49 1.361 . S
C50 H68 0.931 . S
C51 C49 1.500 . S
C51 C52 1.371 . S
C51 C53 1.365 . S
C52 C51 1.371 . S
C52 C62 1.386 . S
C52 H70 0.931 . S
C53 C51 1.365 . S
C53 C54 1.409 . S
C53 H71 0.929 . S
C54 C53 1.409 . S
C54 C55 1.380 . S
C54 H72 0.930 . S
C55 C54 1.380 . S
C55 C62 1.357 . S
C56 C47 1.511 . S
C56 C57 1.341 . S
C56 C58 1.371 . S
C57 C56 1.341 . S
C57 C61 1.394 . S
C57 H73 0.930 . S
C58 C56 1.371 . S
C58 C59 1.392 . S
C58 H74 0.931 . S
C59 C58 1.392 . S
C59 C60 1.331 . S
C59 H77 0.932 . S
C60 C59 1.331 . S
C60 C61 1.336 . S
C61 C57 1.394 . S
C61 C60 1.336 . S
C61 H76 0.929 . S
C62 C52 1.386 . S
C62 C55 1.357 . S
C62 H75 0.928 . S
H63 C39 0.931 . S
H64 C41 0.930 . S
H65 C43 0.929 . S
H66 C44 0.931 . S
H67 C46 0.930 . S
H68 C50 0.931 . S
H69 C48 0.931 . S
H70 C52 0.931 . S
H71 C53 0.929 . S
H72 C54 0.930 . S
H73 C57 0.930 . S
H74 C58 0.931 . S
H75 C62 0.928 . S
H76 C61 0.929 . S
H77 C59 0.932 . S
C78 C79 1.386 . S
C78 C80 1.397 . S
C78 H102 0.931 . S
C79 C78 1.386 . S
C79 C83 1.397 . S
C80 C78 1.397 . S
C80 C81 1.384 . S
C80 H103 0.930 . S
C81 C80 1.384 . S
C81 C82 1.377 . S
C81 C84 1.481 . S
C82 C81 1.377 . S
C82 C83 1.389 . S
C82 H104 0.929 . S
C83 C79 1.397 . S
C83 C82 1.389 . S
C83 H105 0.931 . S
C84 C81 1.481 . S
C84 C85 1.387 . S
C84 C89 1.390 . S
C85 C84 1.387 . S
C85 C86 1.401 . S
C85 H106 0.930 . S
C86 C85 1.401 . S
C86 C87 1.376 . S
C86 C95 1.511 . S
C87 C86 1.376 . S
C87 C88 1.392 . S
C87 H108 0.931 . S
C88 C87 1.392 . S
C88 C89 1.361 . S
C88 C90 1.500 . S
C89 C84 1.390 . S
C89 C88 1.361 . S
C89 H107 0.931 . S
C90 C88 1.500 . S
C90 C91 1.371 . S
C90 C92 1.365 . S
C91 C90 1.371 . S
C91 C101 1.386 . S
C91 H109 0.931 . S
C92 C90 1.365 . S
C92 C93 1.409 . S
C92 H110 0.929 . S
C93 C92 1.409 . S
C93 C94 1.380 . S
C93 H111 0.930 . S
C94 C93 1.380 . S
C94 C101 1.357 . S
C95 C86 1.511 . S
C95 C96 1.341 . S
C95 C97 1.371 . S
C96 C95 1.341 . S
C96 C100 1.394 . S
C96 H112 0.930 . S
C97 C95 1.371 . S
C97 C98 1.392 . S
C97 H113 0.931 . S
C98 C97 1.392 . S
C98 C99 1.331 . S
C98 H116 0.932 . S
C99 C98 1.331 . S
C99 C100 1.336 . S
C100 C96 1.394 . S
C100 C99 1.336 . S
C100 H115 0.929 . S
C101 C91 1.386 . S
C101 C94 1.357 . S
C101 H114 0.928 . S
H102 C78 0.931 . S
H103 C80 0.930 . S
H104 C82 0.929 . S
H105 C83 0.931 . S
H106 C85 0.930 . S
H107 C89 0.931 . S
H108 C87 0.931 . S
H109 C91 0.931 . S
H110 C92 0.929 . S
H111 C93 0.930 . S
H112 C96 0.930 . S
H113 C97 0.931 . S
H114 C101 0.928 . S
H115 C100 0.929 . S
H116 C98 0.932 . S
C117 C118 1.386 . S
C117 C119 1.397 . S
C117 H141 0.931 . S
C118 C117 1.386 . S
C118 C122 1.397 . S
C119 C117 1.397 . S
C119 C120 1.384 . S
C119 H142 0.930 . S
C120 C119 1.384 . S
C120 C121 1.377 . S
C120 C123 1.481 . S
C121 C120 1.377 . S
C121 C122 1.389 . S
C121 H143 0.929 . S
C122 C118 1.397 . S
C122 C121 1.389 . S
C122 H144 0.931 . S
C123 C120 1.481 . S
C123 C124 1.387 . S
C123 C128 1.390 . S
C124 C123 1.387 . S
C124 C125 1.401 . S
C124 H145 0.930 . S
C125 C124 1.401 . S
C125 C126 1.376 . S
C125 C134 1.511 . S
C126 C125 1.376 . S
C126 C127 1.392 . S
C126 H147 0.931 . S
C127 C126 1.392 . S
C127 C128 1.361 . S
C127 C129 1.500 . S
C128 C123 1.390 . S
C128 C127 1.361 . S
C128 H146 0.931 . S
C129 C127 1.500 . S
C129 C130 1.371 . S
C129 C131 1.365 . S
C130 C129 1.371 . S
C130 C140 1.386 . S
C130 H148 0.931 . S
C131 C129 1.365 . S
C131 C132 1.409 . S
C131 H149 0.929 . S
C132 C131 1.409 . S
C132 C133 1.380 . S
C132 H150 0.930 . S
C133 C132 1.380 . S
C133 C140 1.357 . S
C134 C125 1.511 . S
C134 C135 1.341 . S
C134 C136 1.371 . S
C135 C134 1.341 . S
C135 C139 1.394 . S
C135 H151 0.930 . S
C136 C134 1.371 . S
C136 C137 1.392 . S
C136 H152 0.931 . S
C137 C136 1.392 . S
C137 C138 1.331 . S
C137 H155 0.932 . S
C138 C137 1.331 . S
C138 C139 1.336 . S
C139 C135 1.394 . S
C139 C138 1.336 . S
C139 H154 0.929 . S
C140 C130 1.386 . S
C140 C133 1.357 . S
C140 H153 0.928 . S
H141 C117 0.931 . S
H142 C119 0.930 . S
H143 C121 0.929 . S
H144 C122 0.931 . S
H145 C124 0.930 . S
H146 C128 0.931 . S
H147 C126 0.931 . S
H148 C130 0.931 . S
H149 C131 0.929 . S
H150 C132 0.930 . S
H151 C135 0.930 . S
H152 C136 0.931 . S
H153 C140 0.928 . S
H154 C139 0.929 . S
H155 C137 0.932 . S
C156 C157 1.386 . S
C156 C158 1.397 . S
C156 H180 0.931 . S
C157 C156 1.386 . S
C157 C161 1.397 . S
C158 C156 1.397 . S
C158 C159 1.384 . S
C158 H181 0.930 . S
C159 C158 1.384 . S
C159 C160 1.377 . S
C159 C162 1.481 . S
C160 C159 1.377 . S
C160 C161 1.389 . S
C160 H182 0.929 . S
C161 C157 1.397 . S
C161 C160 1.389 . S
C161 H183 0.931 . S
C162 C159 1.481 . S
C162 C163 1.387 . S
C162 C167 1.390 . S
C163 C162 1.387 . S
C163 C164 1.401 . S
C163 H184 0.930 . S
C164 C163 1.401 . S
C164 C165 1.376 . S
C164 C173 1.511 . S
C165 C164 1.376 . S
C165 C166 1.392 . S
C165 H186 0.931 . S
C166 C165 1.392 . S
C166 C167 1.361 . S
C166 C168 1.500 . S
C167 C162 1.390 . S
C167 C166 1.361 . S
C167 H185 0.931 . S
C168 C166 1.500 . S
C168 C169 1.371 . S
C168 C170 1.365 . S
C169 C168 1.371 . S
C169 C179 1.386 . S
C169 H187 0.931 . S
C170 C168 1.365 . S
C170 C171 1.409 . S
C170 H188 0.929 . S
C171 C170 1.409 . S
C171 C172 1.380 . S
C171 H189 0.930 . S
C172 C171 1.380 . S
C172 C179 1.357 . S
C173 C164 1.511 . S
C173 C174 1.341 . S
C173 C175 1.371 . S
C174 C173 1.341 . S
C174 C178 1.394 . S
C174 H190 0.930 . S
C175 C173 1.371 . S
C175 C176 1.392 . S
C175 H191 0.931 . S
C176 C175 1.392 . S
C176 C177 1.331 . S
C176 H194 0.932 . S
C177 C176 1.331 . S
C177 C178 1.336 . S
C178 C174 1.394 . S
C178 C177 1.336 . S
C178 H193 0.929 . S
C179 C169 1.386 . S
C179 C172 1.357 . S
C179 H192 0.928 . S
H180 C156 0.931 . S
H181 C158 0.930 . S
H182 C160 0.929 . S
H183 C161 0.931 . S
H184 C163 0.930 . S
H185 C167 0.931 . S
H186 C165 0.931 . S
H187 C169 0.931 . S
H188 C170 0.929 . S
H189 C171 0.930 . S
H190 C174 0.930 . S
H191 C175 0.931 . S
H192 C179 0.928 . S
H193 C178 0.929 . S
H194 C176 0.932 . S
C195 C196 1.386 . S
C195 C197 1.397 . S
C195 H219 0.931 . S
C196 C195 1.386 . S
C196 C200 1.397 . S
C197 C195 1.397 . S
C197 C198 1.384 . S
C197 H220 0.930 . S
C198 C197 1.384 . S
C198 C199 1.377 . S
C198 C201 1.481 . S
C199 C198 1.377 . S
C199 C200 1.389 . S
C199 H221 0.929 . S
C200 C196 1.397 . S
C200 C199 1.389 . S
C200 H222 0.931 . S
C201 C198 1.481 . S
C201 C202 1.387 . S
C201 C206 1.390 . S
C202 C201 1.387 . S
C202 C203 1.401 . S
C202 H223 0.930 . S
C203 C202 1.401 . S
C203 C204 1.376 . S
C203 C212 1.511 . S
C204 C203 1.376 . S
C204 C205 1.392 . S
C204 H225 0.931 . S
C205 C204 1.392 . S
C205 C206 1.361 . S
C205 C207 1.500 . S
C206 C201 1.390 . S
C206 C205 1.361 . S
C206 H224 0.931 . S
C207 C205 1.500 . S
C207 C208 1.371 . S
C207 C209 1.365 . S
C208 C207 1.371 . S
C208 C218 1.386 . S
C208 H226 0.931 . S
C209 C207 1.365 . S
C209 C210 1.409 . S
C209 H227 0.929 . S
C210 C209 1.409 . S
C210 C211 1.380 . S
C210 H228 0.930 . S
C211 C210 1.380 . S
C211 C218 1.357 . S
C212 C203 1.511 . S
C212 C213 1.341 . S
C212 C214 1.371 . S
C213 C212 1.341 . S
C213 C217 1.394 . S
C213 H229 0.930 . S
C214 C212 1.371 . S
C214 C215 1.392 . S
C214 H230 0.931 . S
C215 C214 1.392 . S
C215 C216 1.331 . S
C215 H233 0.932 . S
C216 C215 1.331 . S
C216 C217 1.336 . S
C217 C213 1.394 . S
C217 C216 1.336 . S
C217 H232 0.929 . S
C218 C208 1.386 . S
C218 C211 1.357 . S
C218 H231 0.928 . S
H219 C195 0.931 . S
H220 C197 0.930 . S
H221 C199 0.929 . S
H222 C200 0.931 . S
H223 C202 0.930 . S
H224 C206 0.931 . S
H225 C204 0.931 . S
H226 C208 0.931 . S
H227 C209 0.929 . S
H228 C210 0.930 . S
H229 C213 0.930 . S
H230 C214 0.931 . S
H231 C218 0.928 . S
H232 C217 0.929 . S
H233 C215 0.932 . S
C234 C235 1.386 . S
C234 C236 1.397 . S
C234 H258 0.931 . S
C235 C234 1.386 . S
C235 C239 1.397 . S
C236 C234 1.397 . S
C236 C237 1.384 . S
C236 H259 0.930 . S
C237 C236 1.384 . S
C237 C238 1.377 . S
C237 C240 1.481 . S
C238 C237 1.377 . S
C238 C239 1.389 . S
C238 H260 0.929 . S
C239 C235 1.397 . S
C239 C238 1.389 . S
C239 H261 0.931 . S
C240 C237 1.481 . S
C240 C241 1.387 . S
C240 C245 1.390 . S
C241 C240 1.387 . S
C241 C242 1.401 . S
C241 H262 0.930 . S
C242 C241 1.401 . S
C242 C243 1.376 . S
C242 C251 1.511 . S
C243 C242 1.376 . S
C243 C244 1.392 . S
C243 H264 0.931 . S
C244 C243 1.392 . S
C244 C245 1.361 . S
C244 C246 1.500 . S
C245 C240 1.390 . S
C245 C244 1.361 . S
C245 H263 0.931 . S
C246 C244 1.500 . S
C246 C247 1.371 . S
C246 C248 1.365 . S
C247 C246 1.371 . S
C247 C257 1.386 . S
C247 H265 0.931 . S
C248 C246 1.365 . S
C248 C249 1.409 . S
C248 H266 0.929 . S
C249 C248 1.409 . S
C249 C250 1.380 . S
C249 H267 0.930 . S
C250 C249 1.380 . S
C250 C257 1.357 . S
C251 C242 1.511 . S
C251 C252 1.341 . S
C251 C253 1.371 . S
C252 C251 1.341 . S
C252 C256 1.394 . S
C252 H268 0.930 . S
C253 C251 1.371 . S
C253 C254 1.392 . S
C253 H269 0.931 . S
C254 C253 1.392 . S
C254 C255 1.331 . S
C254 H272 0.932 . S
C255 C254 1.331 . S
C255 C256 1.336 . S
C256 C252 1.394 . S
C256 C255 1.336 . S
C256 H271 0.929 . S
C257 C247 1.386 . S
C257 C250 1.357 . S
C257 H270 0.928 . S
H258 C234 0.931 . S
H259 C236 0.930 . S
H260 C238 0.929 . S
H261 C239 0.931 . S
H262 C241 0.930 . S
H263 C245 0.931 . S
H264 C243 0.931 . S
H265 C247 0.931 . S
H266 C248 0.929 . S
H267 C249 0.930 . S
H268 C252 0.930 . S
H269 C253 0.931 . S
H270 C257 0.928 . S
H271 C256 0.929 . S
H272 C254 0.932 . S
C273 C274 1.386 . S
C273 C275 1.397 . S
C273 H297 0.931 . S
C274 C273 1.386 . S
C274 C278 1.397 . S
C275 C273 1.397 . S
C275 C276 1.384 . S
C275 H298 0.930 . S
C276 C275 1.384 . S
C276 C277 1.377 . S
C276 C279 1.481 . S
C277 C276 1.377 . S
C277 C278 1.389 . S
C277 H299 0.929 . S
C278 C274 1.397 . S
C278 C277 1.389 . S
C278 H300 0.931 . S
C279 C276 1.481 . S
C279 C280 1.387 . S
C279 C284 1.390 . S
C280 C279 1.387 . S
C280 C281 1.401 . S
C280 H301 0.930 . S
C281 C280 1.401 . S
C281 C282 1.376 . S
C281 C290 1.511 . S
C282 C281 1.376 . S
C282 C283 1.392 . S
C282 H303 0.931 . S
C283 C282 1.392 . S
C283 C284 1.361 . S
C283 C285 1.500 . S
C284 C279 1.390 . S
C284 C283 1.361 . S
C284 H302 0.931 . S
C285 C283 1.500 . S
C285 C286 1.371 . S
C285 C287 1.365 . S
C286 C285 1.371 . S
C286 C296 1.386 . S
C286 H304 0.931 . S
C287 C285 1.365 . S
C287 C288 1.409 . S
C287 H305 0.929 . S
C288 C287 1.409 . S
C288 C289 1.380 . S
C288 H306 0.930 . S
C289 C288 1.380 . S
C289 C296 1.357 . S
C290 C281 1.511 . S
C290 C291 1.341 . S
C290 C292 1.371 . S
C291 C290 1.341 . S
C291 C295 1.394 . S
C291 H307 0.930 . S
C292 C290 1.371 . S
C292 C293 1.392 . S
C292 H308 0.931 . S
C293 C292 1.392 . S
C293 C294 1.331 . S
C293 H311 0.932 . S
C294 C293 1.331 . S
C294 C295 1.336 . S
C295 C291 1.394 . S
C295 C294 1.336 . S
C295 H310 0.929 . S
C296 C286 1.386 . S
C296 C289 1.357 . S
C296 H309 0.928 . S
H297 C273 0.931 . S
H298 C275 0.930 . S
H299 C277 0.929 . S
H300 C278 0.931 . S
H301 C280 0.930 . S
H302 C284 0.931 . S
H303 C282 0.931 . S
H304 C286 0.931 . S
H305 C287 0.929 . S
H306 C288 0.930 . S
H307 C291 0.930 . S
H308 C292 0.931 . S
H309 C296 0.928 . S
H310 C295 0.929 . S
H311 C293 0.932 . S
Tb312 C321 2.764 . S
Tb312 O322 2.312 1_455 S
Tb312 O325 2.303 . S
Tb312 O329 2.322 1_545 S
Tb312 O330 2.349 1_545 S
Tb312 O333 2.415 . S
Tb312 O334 2.399 . S
Tb313 O323 2.332 . S
Tb313 O324 2.360 . S
Tb313 O326 2.403 1_545 S
Tb313 O327 2.398 1_545 S
Tb313 O328 2.317 1_645 S
Tb313 O331 2.294 1_545 S
Tb313 C342 2.757 1_545 S
C314 O330 1.261 1_655 S
C314 O331 1.257 . S
C315 C318 1.358 . S
C315 C319 1.332 . S
C315 C321 1.504 . S
C316 C317 1.373 . S
C316 C320 1.308 . S
C317 C316 1.373 . S
C317 C318 1.429 . S
C317 H344 0.932 . S
C318 C315 1.358 . S
C318 C317 1.429 . S
C318 H345 0.930 . S
C319 C315 1.332 . S
C319 C320 1.394 . S
C319 H346 0.932 . S
C320 C316 1.308 . S
C320 C319 1.394 . S
C320 H347 0.929 . S
C321 Tb312 2.764 . S
C321 C315 1.504 . S
C321 O333 1.239 . S
C321 O334 1.263 . S
O322 Tb312 2.312 1_655 S
O322 C332 1.250 . S
O323 Tb313 2.332 . S
O323 C332 1.257 . S
O324 Tb313 2.360 . S
O324 C335 1.261 1_655 S
O325 Tb312 2.303 . S
O325 C335 1.257 . S
O326 Tb313 2.403 1_565 S
O326 C342 1.239 . S
O327 Tb313 2.398 1_565 S
O327 C342 1.263 . S
O328 Tb313 2.317 1_465 S
O328 C343 1.236 . S
O329 Tb312 2.322 1_565 S
O329 C343 1.257 . S
O330 Tb312 2.349 1_565 S
O330 C314 1.261 1_455 S
O331 Tb313 2.294 1_565 S
O331 C314 1.257 . S
C332 O322 1.250 . S
C332 O323 1.257 . S
O333 Tb312 2.415 . S
O333 C321 1.239 . S
O334 Tb312 2.399 . S
O334 C321 1.263 . S
C335 O324 1.261 1_455 S
C335 O325 1.257 . S
C336 C339 1.358 . S
C336 C340 1.332 . S
C336 C342 1.504 . S
C337 C338 1.373 . S
C337 C341 1.308 . S
C338 C337 1.373 . S
C338 C339 1.429 . S
C338 H348 0.932 . S
C339 C336 1.358 . S
C339 C338 1.429 . S
C339 H349 0.930 . S
C340 C336 1.332 . S
C340 C341 1.394 . S
C340 H350 0.932 . S
C341 C337 1.308 . S
C341 C340 1.394 . S
C341 H351 0.929 . S
C342 Tb313 2.757 1_565 S
C342 O326 1.239 . S
C342 O327 1.263 . S
C342 C336 1.504 . S
C343 O328 1.236 . S
C343 O329 1.257 . S
H344 C317 0.932 . S
H345 C318 0.930 . S
H346 C319 0.932 . S
H347 C320 0.929 . S
H348 C338 0.932 . S
H349 C339 0.930 . S
H350 C340 0.932 . S
H351 C341 0.929 . S
Tb352 C361 2.764 . S
Tb352 O362 2.325 1_554 S
Tb352 O365 2.303 . S
Tb352 O369 2.322 1_545 S
Tb352 O370 2.349 1_544 S
Tb352 O373 2.415 . S
Tb352 O374 2.399 . S
Tb353 O363 2.322 1_565 S
Tb353 O364 2.349 1_566 S
Tb353 O366 2.415 . S
Tb353 O367 2.399 . S
Tb353 O368 2.325 1_556 S
Tb353 O371 2.303 . S
Tb353 C382 2.764 . S
C354 O370 1.261 . S
C354 O371 1.257 . S
C355 C358 1.358 . S
C355 C359 1.332 . S
C355 C361 1.504 . S
C356 C357 1.373 . S
C356 C360 1.308 . S
C357 C356 1.373 . S
C357 C358 1.429 . S
C357 H384 0.932 . S
C358 C355 1.358 . S
C358 C357 1.429 . S
C358 H385 0.930 . S
C359 C355 1.332 . S
C359 C360 1.394 . S
C359 H386 0.932 . S
C360 C356 1.308 . S
C360 C359 1.394 . S
C360 H387 0.929 . S
C361 Tb352 2.764 . S
C361 C355 1.504 . S
C361 O373 1.239 . S
C361 O374 1.263 . S
O362 Tb352 2.325 1_556 S
O362 C372 1.236 . S
O363 Tb353 2.322 1_545 S
O363 C372 1.257 . S
O364 Tb353 2.349 1_544 S
O364 C375 1.261 . S
O365 Tb352 2.303 . S
O365 C375 1.257 . S
O366 Tb353 2.415 . S
O366 C382 1.239 . S
O367 Tb353 2.399 . S
O367 C382 1.263 . S
O368 Tb353 2.325 1_554 S
O368 C383 1.236 . S
O369 Tb352 2.322 1_565 S
O369 C383 1.257 . S
O370 Tb352 2.349 1_566 S
O370 C354 1.261 . S
O371 Tb353 2.303 . S
O371 C354 1.257 . S
C372 O362 1.236 . S
C372 O363 1.257 . S
O373 Tb352 2.415 . S
O373 C361 1.239 . S
O374 Tb352 2.399 . S
O374 C361 1.263 . S
C375 O364 1.261 . S
C375 O365 1.257 . S
C376 C379 1.358 . S
C376 C380 1.332 . S
C376 C382 1.504 . S
C377 C378 1.373 . S
C377 C381 1.308 . S
C378 C377 1.373 . S
C378 C379 1.429 . S
C378 H388 0.932 . S
C379 C376 1.358 . S
C379 C378 1.429 . S
C379 H389 0.930 . S
C380 C376 1.332 . S
C380 C381 1.394 . S
C380 H390 0.932 . S
C381 C377 1.308 . S
C381 C380 1.394 . S
C381 H391 0.929 . S
C382 Tb353 2.764 . S
C382 O366 1.239 . S
C382 O367 1.263 . S
C382 C376 1.504 . S
C383 O368 1.236 . S
C383 O369 1.257 . S
H384 C357 0.932 . S
H385 C358 0.930 . S
H386 C359 0.932 . S
H387 C360 0.929 . S
H388 C378 0.932 . S
H389 C379 0.930 . S
H390 C380 0.932 . S
H391 C381 0.929 . S
Tb392 C401 2.764 . S
Tb392 O402 2.325 . S
Tb392 O405 2.303 . S
Tb392 O409 2.322 . S
Tb392 O410 2.349 . S
Tb392 O413 2.415 . S
Tb392 O414 2.399 . S
Tb393 O403 2.322 . S
Tb393 O404 2.349 . S
Tb393 O406 2.415 . S
Tb393 O407 2.399 . S
Tb393 O408 2.325 . S
Tb393 O411 2.303 . S
Tb393 C422 2.764 . S
C394 O410 1.261 . S
C394 O411 1.257 . S
C395 C398 1.358 . S
C395 C399 1.332 . S
C395 C401 1.504 . S
C396 C397 1.373 . S
C396 C400 1.308 . S
C397 C396 1.373 . S
C397 C398 1.429 . S
C397 H424 0.932 . S
C398 C395 1.358 . S
C398 C397 1.429 . S
C398 H425 0.930 . S
C399 C395 1.332 . S
C399 C400 1.394 . S
C399 H426 0.932 . S
C400 C396 1.308 . S
C400 C399 1.394 . S
C400 H427 0.929 . S
C401 Tb392 2.764 . S
C401 C395 1.504 . S
C401 O413 1.239 . S
C401 O414 1.263 . S
O402 Tb392 2.325 . S
O402 C412 1.236 . S
O403 Tb393 2.322 . S
O403 C412 1.257 . S
O404 Tb393 2.349 . S
O404 C415 1.261 . S
O405 Tb392 2.303 . S
O405 C415 1.257 . S
O406 Tb393 2.415 . S
O406 C422 1.239 . S
O407 Tb393 2.399 . S
O407 C422 1.263 . S
O408 Tb393 2.325 . S
O408 C423 1.236 . S
O409 Tb392 2.322 . S
O409 C423 1.257 . S
O410 Tb392 2.349 . S
O410 C394 1.261 . S
O411 Tb393 2.303 . S
O411 C394 1.257 . S
C412 O402 1.236 . S
C412 O403 1.257 . S
O413 Tb392 2.415 . S
O413 C401 1.239 . S
O414 Tb392 2.399 . S
O414 C401 1.263 . S
C415 O404 1.261 . S
C415 O405 1.257 . S
C416 C419 1.358 . S
C416 C420 1.332 . S
C416 C422 1.504 . S
C417 C418 1.373 . S
C417 C421 1.308 . S
C418 C417 1.373 . S
C418 C419 1.429 . S
C418 H428 0.932 . S
C419 C416 1.358 . S
C419 C418 1.429 . S
C419 H429 0.930 . S
C420 C416 1.332 . S
C420 C421 1.394 . S
C420 H430 0.932 . S
C421 C417 1.308 . S
C421 C420 1.394 . S
C421 H431 0.929 . S
C422 Tb393 2.764 . S
C422 O406 1.239 . S
C422 O407 1.263 . S
C422 C416 1.504 . S
C423 O408 1.236 . S
C423 O409 1.257 . S
H424 C397 0.932 . S
H425 C398 0.930 . S
H426 C399 0.932 . S
H427 C400 0.929 . S
H428 C418 0.932 . S
H429 C419 0.930 . S
H430 C420 0.932 . S
H431 C421 0.929 . S
Tb432 C441 2.764 . S
Tb432 O442 2.325 . S
Tb432 O445 2.303 1_556 S
Tb432 O449 2.329 1_655 S
Tb432 O450 2.349 1_655 S
Tb432 O453 2.415 . S
Tb432 O454 2.399 . S
Tb433 O443 2.322 1_455 S
Tb433 O444 2.349 1_455 S
Tb433 O446 2.415 . S
Tb433 O447 2.399 . S
Tb433 O448 2.325 . S
Tb433 O451 2.303 1_554 S
Tb433 C462 2.764 . S
C434 O450 1.261 . S
C434 O451 1.257 . S
C435 C438 1.358 . S
C435 C439 1.332 . S
C435 C441 1.504 . S
C436 C437 1.373 . S
C436 C440 1.308 . S
C437 C436 1.373 . S
C437 C438 1.429 . S
C437 H464 0.932 . S
C438 C435 1.358 . S
C438 C437 1.429 . S
C438 H465 0.930 . S
C439 C435 1.332 . S
C439 C440 1.394 . S
C439 H466 0.932 . S
C440 C436 1.308 . S
C440 C439 1.394 . S
C440 H467 0.929 . S
C441 Tb432 2.764 . S
C441 C435 1.504 . S
C441 O453 1.239 . S
C441 O454 1.263 . S
O442 Tb432 2.325 . S
O442 C452 1.236 . S
O443 Tb433 2.322 1_655 S
O443 C452 1.257 1_554 S
O444 Tb433 2.349 1_655 S
O444 C455 1.261 . S
O445 Tb432 2.303 1_554 S
O445 C455 1.257 . S
O446 Tb433 2.415 . S
O446 C462 1.239 . S
O447 Tb433 2.399 . S
O447 C462 1.263 . S
O448 Tb433 2.325 . S
O448 C463 1.236 . S
O449 Tb432 2.329 1_455 S
O449 C463 1.247 1_556 S
O450 Tb432 2.349 1_455 S
O450 C434 1.261 . S
O451 Tb433 2.303 1_556 S
O451 C434 1.257 . S
C452 O442 1.236 . S
C452 O443 1.257 1_556 S
O453 Tb432 2.415 . S
O453 C441 1.239 . S
O454 Tb432 2.399 . S
O454 C441 1.263 . S
C455 O444 1.261 . S
C455 O445 1.257 . S
C456 C459 1.358 . S
C456 C460 1.332 . S
C456 C462 1.504 . S
C457 C458 1.373 . S
C457 C461 1.308 . S
C458 C457 1.373 . S
C458 C459 1.429 . S
C458 H468 0.932 . S
C459 C456 1.358 . S
C459 C458 1.429 . S
C459 H469 0.930 . S
C460 C456 1.332 . S
C460 C461 1.394 . S
C460 H470 0.932 . S
C461 C457 1.308 . S
C461 C460 1.394 . S
C461 H471 0.929 . S
C462 Tb433 2.764 . S
C462 O446 1.239 . S
C462 O447 1.263 . S
C462 C456 1.504 . S
C463 O448 1.236 . S
C463 O449 1.247 1_554 S
H464 C437 0.932 . S
H465 C438 0.930 . S
H466 C439 0.932 . S
H467 C440 0.929 . S
H468 C458 0.932 . S
H469 C459 0.930 . S
H470 C460 0.932 . S
H471 C461 0.929 . S
C472 C473 1.387 . S
C472 H476 0.950 . S
C472 C481 1.390 . S
C473 C472 1.387 . S
C473 C475 1.387 . S
H474 C481 0.950 . S
C475 C473 1.387 . S
C475 C477 1.390 . S
C475 H479 0.950 . S
H476 C472 0.950 . S
C477 C475 1.390 . S
C477 C478 1.387 . S
C477 H480 0.950 . S
C478 C477 1.387 . S
C478 C481 1.387 . S
H479 C475 0.950 . S
H480 C477 0.950 . S
C481 C472 1.390 . S
C481 H474 0.950 . S
C481 C478 1.387 . S
C482 C483 1.387 . S
C482 H486 0.950 . S
C482 C491 1.390 . S
C483 C482 1.387 . S
C483 C485 1.387 . S
H484 C491 0.950 . S
C485 C483 1.387 . S
C485 C487 1.390 . S
C485 H489 0.950 . S
H486 C482 0.950 . S
C487 C485 1.390 . S
C487 C488 1.387 . S
C487 H490 0.950 . S
C488 C487 1.387 . S
C488 C491 1.387 . S
H489 C485 0.950 . S
H490 C487 0.950 . S
C491 C482 1.390 . S
C491 H484 0.950 . S
C491 C488 1.387 . S
C492 C493 1.387 . S
C492 H496 0.950 . S
C492 C501 1.390 . S
C493 C492 1.387 . S
C493 C495 1.387 . S
H494 C501 0.950 . S
C495 C493 1.387 . S
C495 C497 1.390 . S
C495 H499 0.950 . S
H496 C492 0.950 . S
C497 C495 1.390 . S
C497 C498 1.387 . S
C497 H500 0.950 . S
C498 C497 1.387 . S
C498 C501 1.387 . S
H499 C495 0.950 . S
H500 C497 0.950 . S
C501 C492 1.390 . S
C501 H494 0.950 . S
C501 C498 1.387 . S
C502 C503 1.387 . S
C502 H506 0.950 . S
C502 C511 1.390 . S
C503 C502 1.387 . S
C503 C505 1.387 . S
H504 C511 0.950 . S
C505 C503 1.387 . S
C505 C507 1.390 . S
C505 H509 0.950 . S
H506 C502 0.950 . S
C507 C505 1.390 . S
C507 C508 1.387 . S
C507 H510 0.950 . S
C508 C507 1.387 . S
C508 C511 1.387 . S
H509 C505 0.950 . S
H510 C507 0.950 . S
C511 C502 1.390 . S
C511 H504 0.950 . S
C511 C508 1.387 . S
C512 C513 1.387 . S
C512 H516 0.950 . S
C512 C521 1.390 . S
C513 C512 1.387 . S
C513 C515 1.387 . S
H514 C521 0.950 . S
C515 C513 1.387 . S
C515 C517 1.390 . S
C515 H519 0.950 . S
H516 C512 0.950 . S
C517 C515 1.390 . S
C517 C518 1.387 . S
C517 H520 0.950 . S
C518 C517 1.387 . S
C518 C521 1.387 . S
H519 C515 0.950 . S
H520 C517 0.950 . S
C521 C512 1.390 . S
C521 H514 0.950 . S
C521 C518 1.387 . S
C522 C523 1.387 . S
C522 H526 0.950 . S
C522 C531 1.390 . S
C523 C522 1.387 . S
C523 C525 1.387 1_455 S
H524 C531 0.950 . S
C525 C523 1.387 1_655 S
C525 C527 1.390 . S
C525 H529 0.950 . S
H526 C522 0.950 . S
C527 C525 1.390 . S
C527 C528 1.387 1_655 S
C527 H530 0.950 . S
C528 C527 1.387 1_455 S
C528 C531 1.387 . S
H529 C525 0.950 . S
H530 C527 0.950 . S
C531 C522 1.390 . S
C531 H524 0.950 . S
C531 C528 1.387 . S
C532 C533 1.387 . S
C532 H536 0.950 . S
C532 C541 1.390 . S
C533 C532 1.387 . S
C533 C535 1.387 . S
H534 C541 0.950 . S
C535 C533 1.387 . S
C535 C537 1.390 . S
C535 H539 0.950 . S
H536 C532 0.950 . S
C537 C535 1.390 . S
C537 C538 1.387 . S
C537 H540 0.950 . S
C538 C537 1.387 . S
C538 C541 1.387 . S
H539 C535 0.950 . S
H540 C537 0.950 . S
C541 C532 1.390 . S
C541 H534 0.950 . S
C541 C538 1.387 . S
C542 C543 1.387 . S
C542 H546 0.950 . S
C542 C551 1.390 . S
C543 C542 1.387 . S
C543 C545 1.387 . S
H544 C551 0.950 . S
C545 C543 1.387 . S
C545 C547 1.390 . S
C545 H549 0.950 . S
H546 C542 0.950 . S
C547 C545 1.390 . S
C547 C548 1.387 . S
C547 H550 0.950 . S
C548 C547 1.387 . S
C548 C551 1.387 . S
H549 C545 0.950 . S
H550 C547 0.950 . S
C551 C542 1.390 . S
C551 H544 0.950 . S
C551 C548 1.387 . S
C552 C553 1.387 . S
C552 H556 0.950 . S
C552 C561 1.390 . S
C553 C552 1.387 . S
C553 C555 1.387 . S
H554 C561 0.950 . S
C555 C553 1.387 . S
C555 C557 1.390 . S
C555 H559 0.950 . S
H556 C552 0.950 . S
C557 C555 1.390 . S
C557 C558 1.387 . S
C557 H560 0.950 . S
C558 C557 1.387 . S
C558 C561 1.387 . S
H559 C555 0.950 . S
H560 C557 0.950 . S
C561 C552 1.390 . S
C561 H554 0.950 . S
C561 C558 1.387 . S
C562 C563 1.387 . S
C562 H566 0.950 . S
C562 C571 1.390 . S
C563 C562 1.387 . S
C563 C565 1.387 . S
H564 C571 0.950 . S
C565 C563 1.387 . S
C565 C567 1.390 . S
C565 H569 0.950 . S
H566 C562 0.950 . S
C567 C565 1.390 . S
C567 C568 1.387 . S
C567 H570 0.950 . S
C568 C567 1.387 . S
C568 C571 1.387 . S
H569 C565 0.950 . S
H570 C567 0.950 . S
C571 C562 1.390 . S
C571 H564 0.950 . S
C571 C568 1.387 . S
C572 C573 1.387 . S
C572 H576 0.950 . S
C572 C581 1.390 . S
C573 C572 1.387 . S
C573 C575 1.387 . S
H574 C581 0.950 . S
C575 C573 1.387 . S
C575 C577 1.390 . S
C575 H579 0.950 . S
H576 C572 0.950 . S
C577 C575 1.390 . S
C577 C578 1.387 . S
C577 H580 0.950 . S
C578 C577 1.387 . S
C578 C581 1.387 . S
H579 C575 0.950 . S
H580 C577 0.950 . S
C581 C572 1.390 . S
C581 H574 0.950 . S
C581 C578 1.387 . S
C582 C583 1.387 . S
C582 H586 0.950 . S
C582 C591 1.390 . S
C583 C582 1.387 . S
C583 C585 1.387 . S
H584 C591 0.950 . S
C585 C583 1.387 . S
C585 C587 1.390 . S
C585 H589 0.950 . S
H586 C582 0.950 . S
C587 C585 1.390 . S
C587 C588 1.387 . S
C587 H590 0.950 . S
C588 C587 1.387 . S
C588 C591 1.387 . S
H589 C585 0.950 . S
H590 C587 0.950 . S
C591 C582 1.390 . S
C591 H584 0.950 . S
C591 C588 1.387 . S
C592 C593 1.387 . S
C592 H596 0.950 . S
C592 C601 1.390 . S
C593 C592 1.387 . S
C593 C595 1.387 . S
H594 C601 0.950 . S
C595 C593 1.387 . S
C595 C597 1.390 . S
C595 H599 0.950 . S
H596 C592 0.950 . S
C597 C595 1.390 . S
C597 C598 1.387 . S
C597 H600 0.950 . S
C598 C597 1.387 . S
C598 C601 1.387 . S
H599 C595 0.950 . S
H600 C597 0.950 . S
C601 C592 1.390 . S
C601 H594 0.950 . S
C601 C598 1.387 . S
C602 C603 1.387 . S
C602 H606 0.950 . S
C602 C611 1.390 . S
C603 C602 1.387 . S
C603 C605 1.387 . S
H604 C611 0.950 . S
C605 C603 1.387 . S
C605 C607 1.390 . S
C605 H609 0.950 . S
H606 C602 0.950 . S
C607 C605 1.390 . S
C607 C608 1.387 . S
C607 H610 0.950 . S
C608 C607 1.387 . S
C608 C611 1.387 . S
H609 C605 0.950 . S
H610 C607 0.950 . S
C611 C602 1.390 . S
C611 H604 0.950 . S
C611 C608 1.387 . S
C612 C613 1.387 . S
C612 H616 0.950 . S
C612 C621 1.390 . S
C613 C612 1.387 . S
C613 C615 1.387 . S
H614 C621 0.950 . S
C615 C613 1.387 . S
C615 C617 1.390 . S
C615 H619 0.950 . S
H616 C612 0.950 . S
C617 C615 1.390 . S
C617 C618 1.387 . S
C617 H620 0.950 . S
C618 C617 1.387 . S
C618 C621 1.387 . S
H619 C615 0.950 . S
H620 C617 0.950 . S
C621 C612 1.390 . S
C621 H614 0.950 . S
C621 C618 1.387 . S
C622 C623 1.387 . S
C622 H626 0.950 . S
C622 C631 1.390 . S
C623 C622 1.387 . S
C623 C625 1.387 . S
H624 C631 0.950 . S
C625 C623 1.387 . S
C625 C627 1.390 . S
C625 H629 0.950 . S
H626 C622 0.950 . S
C627 C625 1.390 . S
C627 C628 1.387 . S
C627 H630 0.950 . S
C628 C627 1.387 . S
C628 C631 1.387 . S
H629 C625 0.950 . S
H630 C627 0.950 . S
C631 C622 1.390 . S
C631 H624 0.950 . S
C631 C628 1.387 . S
C632 C633 1.387 . S
C632 H636 0.950 . S
C632 C641 1.390 . S
C633 C632 1.387 . S
C633 C635 1.387 . S
H634 C641 0.950 . S
C635 C633 1.387 . S
C635 C637 1.390 . S
C635 H639 0.950 . S
H636 C632 0.950 . S
C637 C635 1.390 . S
C637 C638 1.387 . S
C637 H640 0.950 . S
C638 C637 1.387 . S
C638 C641 1.387 . S
H639 C635 0.950 . S
H640 C637 0.950 . S
C641 C632 1.390 . S
C641 H634 0.950 . S
C641 C638 1.387 . S
C642 C643 1.387 . S
C642 H646 0.950 1_655 S
C642 C651 1.390 . S
C643 C642 1.387 . S
C643 C645 1.387 . S
H644 C651 0.950 1_455 S
C645 C643 1.387 . S
C645 C647 1.390 . S
C645 H649 0.950 . S
H646 C642 0.950 1_455 S
C647 C645 1.390 . S
C647 C648 1.387 . S
C647 H650 0.950 . S
C648 C647 1.387 . S
C648 C651 1.387 . S
H649 C645 0.950 . S
H650 C647 0.950 . S
C651 C642 1.390 . S
C651 H644 0.950 1_655 S
C651 C648 1.387 . S
C652 C653 1.387 . S
C652 H656 0.950 . S
C652 C661 1.390 . S
C653 C652 1.387 . S
C653 C655 1.387 . S
H654 C661 0.950 . S
C655 C653 1.387 . S
C655 C657 1.390 . S
C655 H659 0.950 . S
H656 C652 0.950 . S
C657 C655 1.390 . S
C657 C658 1.387 . S
C657 H660 0.950 . S
C658 C657 1.387 . S
C658 C661 1.387 . S
H659 C655 0.950 . S
H660 C657 0.950 . S
C661 C652 1.390 . S
C661 H654 0.950 . S
C661 C658 1.387 . S
C662 C663 1.387 . S
C662 H666 0.950 . S
C662 C671 1.390 . S
C663 C662 1.387 . S
C663 C665 1.387 . S
H664 C671 0.950 . S
C665 C663 1.387 . S
C665 C667 1.390 . S
C665 H669 0.950 . S
H666 C662 0.950 . S
C667 C665 1.390 . S
C667 C668 1.387 . S
C667 H670 0.950 . S
C668 C667 1.387 . S
C668 C671 1.387 . S
H669 C665 0.950 . S
H670 C667 0.950 . S
C671 C662 1.390 . S
C671 H664 0.950 . S
C671 C668 1.387 . S
C672 C673 1.387 . S
C672 H676 0.950 . S
C672 C681 1.390 . S
C673 C672 1.387 . S
C673 C675 1.387 . S
H674 C681 0.950 . S
C675 C673 1.387 . S
C675 C677 1.390 . S
C675 H679 0.950 . S
H676 C672 0.950 . S
C677 C675 1.390 . S
C677 C678 1.387 . S
C677 H680 0.950 . S
C678 C677 1.387 . S
C678 C681 1.387 . S
H679 C675 0.950 . S
H680 C677 0.950 . S
C681 C672 1.390 . S
C681 H674 0.950 . S
C681 C678 1.387 . S
C682 C683 1.387 . S
C682 H686 0.950 . S
C682 C691 1.390 . S
C683 C682 1.387 . S
C683 C685 1.387 . S
H684 C691 0.950 . S
C685 C683 1.387 . S
C685 C687 1.390 . S
C685 H689 0.950 . S
H686 C682 0.950 . S
C687 C685 1.390 . S
C687 C688 1.387 . S
C687 H690 0.950 . S
C688 C687 1.387 . S
C688 C691 1.387 . S
H689 C685 0.950 . S
H690 C687 0.950 . S
C691 C682 1.390 . S
C691 H684 0.950 . S
C691 C688 1.387 . S
C692 C693 1.387 . S
C692 H696 0.950 . S
C692 C701 1.390 . S
C693 C692 1.387 . S
C693 C695 1.387 . S
H694 C701 0.950 . S
C695 C693 1.387 . S
C695 C697 1.390 . S
C695 H699 0.950 . S
H696 C692 0.950 . S
C697 C695 1.390 . S
C697 C698 1.387 . S
C697 H700 0.950 . S
C698 C697 1.387 . S
C698 C701 1.387 . S
H699 C695 0.950 . S
H700 C697 0.950 . S
C701 C692 1.390 . S
C701 H694 0.950 . S
C701 C698 1.387 . S
C702 C703 1.387 . S
C702 H706 0.950 . S
C702 C711 1.390 . S
C703 C702 1.387 . S
C703 C705 1.387 . S
H704 C711 0.950 . S
C705 C703 1.387 . S
C705 C707 1.390 . S
C705 H709 0.950 . S
H706 C702 0.950 . S
C707 C705 1.390 . S
C707 C708 1.387 . S
C707 H710 0.950 . S
C708 C707 1.387 . S
C708 C711 1.387 . S
H709 C705 0.950 . S
H710 C707 0.950 . S
C711 C702 1.390 . S
C711 H704 0.950 . S
C711 C708 1.387 . S
C473 C1 1.082 . S
C478 C316 1.136 . S
C483 C40 1.243 . S
C488 C377 1.319 . S
C498 C415 2.525 . S
C493 C99 2.599 . S
C503 C118 2.409 . S
C508 C455 2.360 . S
C518 C375 1.516 . S
C513 C16 1.403 . S
C528 C343 2.294 . S
C523 C60 2.129 . S
C538 C452 1.815 . S
C533 C79 1.836 . S
C548 C412 1.888 . S
C543 C138 1.905 . S
C553 C21 1.339 . S
C558 C457 1.394 . S
C568 C372 2.412 . S
C563 C94 2.409 . S
C573 C133 2.236 . S
C578 C314 2.189 . S
C583 C55 1.664 . S
C588 C417 1.770 . S
C598 C337 1.140 . S
C593 C157 1.094 . S
C603 C196 1.237 . S
C608 C356 1.321 . S
C613 C255 2.592 . S
C618 C394 2.525 . S
C623 C289 2.407 . S
C628 C434 2.356 . S
C633 C172 1.394 . S
C638 C354 1.514 . S
C648 C332 2.294 . S
C643 C216 2.095 . S
C658 C463 1.817 . S
C653 C235 1.835 . S
C668 C423 1.885 . S
C663 C294 1.907 . S
C673 C177 1.352 . S
C678 C436 1.390 . S
C688 C383 2.413 . S
C683 C250 2.412 . S
C698 C335 2.193 . S
C693 C274 2.237 . S
C703 C211 1.675 . S
C708 C396 1.772 . S
