# Generated by pormake.
# Topology eea, (3,6)-cn, num edge types: 1
# Building blocks:
#     Node 0, Type 0, BuildingBlock: VETTIZ_charged_linker_0, # of connection points: 3
#     Node 1, Type 0, BuildingBlock: VETTIZ_charged_linker_0, # of connection points: 3
#     Node 2, Type 0, BuildingBlock: VETTIZ_charged_linker_0, # of connection points: 3
#     Node 3, Type 0, BuildingBlock: VETTIZ_charged_linker_0, # of connection points: 3
#     Node 4, Type 0, BuildingBlock: VETTIZ_charged_linker_0, # of connection points: 3
#     Node 5, Type 0, BuildingBlock: VETTIZ_charged_linker_0, # of connection points: 3
#     Node 6, Type 0, BuildingBlock: VETTIZ_charged_linker_0, # of connection points: 3
#     Node 7, Type 0, BuildingBlock: VETTIZ_charged_linker_0, # of connection points: 3
#     Node 8, Type 0, BuildingBlock: VETTIZ_charged_linker_0, # of connection points: 3
#     Node 9, Type 0, BuildingBlock: VETTIZ_charged_linker_0, # of connection points: 3
#     Node 10, Type 0, BuildingBlock: VETTIZ_charged_linker_0, # of connection points: 3
#     Node 11, Type 0, BuildingBlock: VETTIZ_charged_linker_0, # of connection points: 3
#     Node 12, Type 0, BuildingBlock: VETTIZ_charged_linker_0, # of connection points: 3
#     Node 13, Type 0, BuildingBlock: VETTIZ_charged_linker_0, # of connection points: 3
#     Node 14, Type 0, BuildingBlock: VETTIZ_charged_linker_0, # of connection points: 3
#     Node 15, Type 0, BuildingBlock: VETTIZ_charged_linker_0, # of connection points: 3
#     Node 16, Type 0, BuildingBlock: VETTIZ_charged_linker_0, # of connection points: 3
#     Node 17, Type 0, BuildingBlock: VETTIZ_charged_linker_0, # of connection points: 3
#     Node 18, Type 1, BuildingBlock: KUMBOL_clean_sbu_0, # of connection points: 6
#     Node 19, Type 1, BuildingBlock: KUMBOL_clean_sbu_0, # of connection points: 6
#     Node 20, Type 1, BuildingBlock: KUMBOL_clean_sbu_0, # of connection points: 6
#     Node 21, Type 1, BuildingBlock: KUMBOL_clean_sbu_0, # of connection points: 6
#     Node 22, Type 1, BuildingBlock: KUMBOL_clean_sbu_0, # of connection points: 6
#     Node 23, Type 1, BuildingBlock: KUMBOL_clean_sbu_0, # of connection points: 6
#     Node 24, Type 1, BuildingBlock: KUMBOL_clean_sbu_0, # of connection points: 6
#     Node 25, Type 1, BuildingBlock: KUMBOL_clean_sbu_0, # of connection points: 6
#     Node 26, Type 1, BuildingBlock: KUMBOL_clean_sbu_0, # of connection points: 6
#     Edge 27, Type (0, 1), None
#     Edge 28, Type (0, 1), None
#     Edge 29, Type (0, 1), None
#     Edge 30, Type (0, 1), None
#     Edge 31, Type (0, 1), None
#     Edge 32, Type (0, 1), None
#     Edge 33, Type (0, 1), None
#     Edge 34, Type (0, 1), None
#     Edge 35, Type (0, 1), None
#     Edge 36, Type (0, 1), None
#     Edge 37, Type (0, 1), None
#     Edge 38, Type (0, 1), None
#     Edge 39, Type (0, 1), None
#     Edge 40, Type (0, 1), None
#     Edge 41, Type (0, 1), None
#     Edge 42, Type (0, 1), None
#     Edge 43, Type (0, 1), None
#     Edge 44, Type (0, 1), None
#     Edge 45, Type (0, 1), None
#     Edge 46, Type (0, 1), None
#     Edge 47, Type (0, 1), None
#     Edge 48, Type (0, 1), None
#     Edge 49, Type (0, 1), None
#     Edge 50, Type (0, 1), None
#     Edge 51, Type (0, 1), None
#     Edge 52, Type (0, 1), None
#     Edge 53, Type (0, 1), None
#     Edge 54, Type (0, 1), None
#     Edge 55, Type (0, 1), None
#     Edge 56, Type (0, 1), None
#     Edge 57, Type (0, 1), None
#     Edge 58, Type (0, 1), None
#     Edge 59, Type (0, 1), None
#     Edge 60, Type (0, 1), None
#     Edge 61, Type (0, 1), None
#     Edge 62, Type (0, 1), None
#     Edge 63, Type (0, 1), None
#     Edge 64, Type (0, 1), None
#     Edge 65, Type (0, 1), None
#     Edge 66, Type (0, 1), None
#     Edge 67, Type (0, 1), None
#     Edge 68, Type (0, 1), None
#     Edge 69, Type (0, 1), None
#     Edge 70, Type (0, 1), None
#     Edge 71, Type (0, 1), None
#     Edge 72, Type (0, 1), None
#     Edge 73, Type (0, 1), None
#     Edge 74, Type (0, 1), None
#     Edge 75, Type (0, 1), None
#     Edge 76, Type (0, 1), None
#     Edge 77, Type (0, 1), None
#     Edge 78, Type (0, 1), None
#     Edge 79, Type (0, 1), None
#     Edge 80, Type (0, 1), None
# Relax obj value: 0.007
# Max RMSD: 0.108
# Mean RMSD: 0.092
data_MOF--net-eea--node1-KUMBOL_clean_sbu_0--node2-VETTIZ_charged_linker_0--edge1-none
_symmetry_space_group_name_H-M    P1
_symmetry_Int_Tables_number       1
_symmetry_cell_setting            triclinic
loop_
_symmetry_equiv_pos_as_xyz
'x, y, z'
_cell_length_a     32.605734
_cell_length_b     34.049271
_cell_length_c     54.210072
_cell_angle_alpha  89.849459
_cell_angle_beta   90.121459
_cell_angle_gamma 119.54771
loop_
_atom_site_label
_atom_site_type_symbol
_atom_site_fract_x
_atom_site_fract_y
_atom_site_fract_z
_atom_type_partial_charge
C0 C 0.21115 0.20901 0.3657 0.0
C1 C 0.22846 0.2543 0.3723 0.0
C2 C 0.25704 0.27131 0.39352 0.0
C3 C 0.24827 0.19777 0.40185 0.0
C4 C 0.22197 0.18166 0.38049 0.0
C5 C 0.20755 0.13317 0.37564 0.0
H6 H 0.23176 0.95323 0.4039 0.0
C7 C 0.25183 0.16035 0.41344 0.0
C8 C 0.22901 0.12278 0.39788 0.0
H9 H 0.16057 0.9715 0.3412 0.0
H10 H 0.17551 0.04313 0.35723 0.0
H11 H 0.31839 0.05673 0.41036 0.0
H12 H 0.17984 0.9815 0.44183 0.0
H13 H 0.21362 0.023 0.46373 0.0
H14 H 0.22942 0.98071 0.4556 0.0
H15 H 0.29858 0.00774 0.42972 0.0
H16 H 0.32148 0.0629 0.44284 0.0
C17 C 0.22997 0.13041 0.35088 0.0
C18 C 0.15299 0.10534 0.37612 0.0
C19 C 0.3323 0.18196 0.49672 0.0
C20 C 0.33884 0.15242 0.51222 0.0
C21 C 0.32083 0.10712 0.50523 0.0
C22 C 0.29755 0.0916 0.48259 0.0
C23 C 0.2921 0.12172 0.46694 0.0
C24 C 0.30833 0.16578 0.47435 0.0
C25 C 0.29751 0.19235 0.45577 0.0
C26 C 0.27204 0.1569 0.43602 0.0
C27 C 0.2698 0.11594 0.44251 0.0
C28 C 0.34474 0.23191 0.44626 0.0
C29 C 0.26467 0.20723 0.46821 0.0
C30 C 0.21989 0.97287 0.39341 0.0
C31 C 0.19727 0.95777 0.37046 0.0
C32 C 0.18017 0.98329 0.35818 0.0
C33 C 0.18837 0.02469 0.3677 0.0
C34 C 0.21281 0.04014 0.39009 0.0
C35 C 0.22678 0.01373 0.40296 0.0
C36 C 0.2491 0.03414 0.42737 0.0
C37 C 0.24947 0.07885 0.42602 0.0
C38 C 0.22846 0.08212 0.40407 0.0
C39 C 0.29956 0.04069 0.4278 0.0
C40 C 0.2167 0.00333 0.4483 0.0
H41 H 0.28814 0.25799 0.42444 0.0
H42 H 0.1891 0.19481 0.34959 0.0
H43 H 0.13865 0.11662 0.39146 0.0
H44 H 0.13959 0.06899 0.3794 0.0
H45 H 0.13772 0.10949 0.35861 0.0
H46 H 0.25976 0.16374 0.3452 0.0
H47 H 0.20378 0.11848 0.33565 0.0
H48 H 0.24552 0.10799 0.35209 0.0
H49 H 0.34586 0.21694 0.50187 0.0
H50 H 0.32582 0.0841 0.51705 0.0
H51 H 0.28532 0.05698 0.47797 0.0
H52 H 0.37342 0.22318 0.44695 0.0
H53 H 0.35612 0.26272 0.45758 0.0
H54 H 0.34301 0.24008 0.42666 0.0
H55 H 0.23688 0.179 0.47918 0.0
H56 H 0.24556 0.21685 0.45489 0.0
H57 H 0.28482 0.23598 0.48095 0.0
H58 H 0.271 0.30613 0.39907 0.0
C59 C 0.26683 0.24325 0.40836 0.0
C60 C 0.02953 0.19893 0.3673 0.0
C61 C 0.05534 0.2459 0.37101 0.0
C62 C 0.0372 0.26578 0.3873 0.0
C63 C 0.97298 0.19241 0.39852 0.0
C64 C 0.98733 0.17315 0.38048 0.0
C65 C 0.95351 0.12321 0.37806 0.0
H66 H 0.73995 0.9483 0.407 0.0
C67 C 0.93187 0.15608 0.41141 0.0
C68 C 0.91917 0.11568 0.3989 0.0
H69 H 0.83402 0.95728 0.34844 0.0
H70 H 0.89413 0.02887 0.36396 0.0
H71 H 0.81833 0.97579 0.44663 0.0
H72 H 0.76259 0.05245 0.41171 0.0
H73 H 0.76449 0.05873 0.44433 0.0
H74 H 0.73117 0.00366 0.43117 0.0
H75 H 0.77378 0.98345 0.46135 0.0
H76 H 0.83569 0.02279 0.46607 0.0
C77 C 0.98063 0.09728 0.38273 0.0
C78 C 0.92932 0.11406 0.3524 0.0
C79 C 0.87643 0.18607 0.49352 0.0
C80 C 0.84263 0.15715 0.51071 0.0
C81 C 0.81564 0.11079 0.50543 0.0
C82 C 0.82139 0.09352 0.48307 0.0
C83 C 0.85485 0.12281 0.46595 0.0
C84 C 0.88252 0.16808 0.47147 0.0
C85 C 0.91806 0.19344 0.45147 0.0
C86 C 0.90805 0.15541 0.43352 0.0
C87 C 0.87013 0.11455 0.44189 0.0
C88 C 0.96796 0.21398 0.46283 0.0
C89 C 0.90684 0.22889 0.44006 0.0
C90 C 0.7732 0.96604 0.39728 0.0
C91 C 0.78091 0.94856 0.37538 0.0
C92 C 0.82587 0.97124 0.36432 0.0
C93 C 0.86097 0.01271 0.37343 0.0
C94 C 0.85146 0.0313 0.39419 0.0
C95 C 0.80916 0.00708 0.40652 0.0
C96 C 0.80789 0.03013 0.42994 0.0
C97 C 0.85359 0.07483 0.42755 0.0
C98 C 0.87879 0.07519 0.40654 0.0
C99 C 0.80876 0.00169 0.45219 0.0
C100 C 0.76415 0.03661 0.4294 0.0
H101 H 0.98598 0.25638 0.41422 0.0
H102 H 0.04295 0.1824 0.35542 0.0
H103 H 0.93541 0.14565 0.34319 0.0
H104 H 0.89044 0.09333 0.35363 0.0
H105 H 0.94228 0.09674 0.33996 0.0
H106 H 1.00404 0.11119 0.3991 0.0
H107 H 1.00297 0.10018 0.36661 0.0
H108 H 0.95685 0.06111 0.38669 0.0
H109 H 0.89776 0.22185 0.49724 0.0
H110 H 0.78918 0.08811 0.51836 0.0
H111 H 0.79918 0.05817 0.47981 0.0
H112 H 0.97199 0.18771 0.47306 0.0
H113 H 0.97429 0.24136 0.476 0.0
H114 H 0.99625 0.2281 0.44894 0.0
H115 H 0.86925 0.21938 0.44281 0.0
H116 H 0.91183 0.23169 0.41981 0.0
H117 H 0.9288 0.26267 0.44851 0.0
H118 H 0.0568 0.30153 0.39091 0.0
C119 C 0.99657 0.23939 0.40123 0.0
C120 C 0.02325 0.81099 0.36806 0.0
C121 C 0.05359 0.79265 0.37207 0.0
C122 C 0.03711 0.75386 0.38699 0.0
C123 C 0.96576 0.75634 0.39662 0.0
C124 C 0.97835 0.79081 0.37968 0.0
C125 C 0.93906 0.80255 0.37684 0.0
H126 H 0.70491 0.72812 0.3985 0.0
C127 C 0.92023 0.74584 0.40803 0.0
C128 C 0.90236 0.77039 0.39539 0.0
H129 H 0.79647 0.84289 0.35408 0.0
H130 H 0.8639 0.83446 0.36591 0.0
H131 H 0.75048 0.66062 0.40216 0.0
H132 H 0.77286 0.78019 0.43965 0.0
H133 H 0.79877 0.75715 0.45916 0.0
H134 H 0.73621 0.72571 0.45278 0.0
H135 H 0.70847 0.66764 0.4204 0.0
H136 H 0.74944 0.65416 0.43484 0.0
C137 C 0.92056 0.79274 0.35013 0.0
C138 C 0.95806 0.85224 0.38426 0.0
C139 C 0.87323 0.66256 0.49057 0.0
C140 C 0.83582 0.65249 0.50698 0.0
C141 C 0.80047 0.66253 0.49983 0.0
C142 C 0.80206 0.68191 0.47667 0.0
C143 C 0.84 0.69248 0.46062 0.0
C144 C 0.87506 0.6832 0.46774 0.0
C145 C 0.91305 0.69751 0.44836 0.0
C146 C 0.89673 0.72019 0.42941 0.0
C147 C 0.85328 0.71582 0.4364 0.0
C148 C 0.91203 0.65465 0.43785 0.0
C149 C 0.96081 0.73133 0.46016 0.0
C150 C 0.73896 0.75016 0.39029 0.0
C151 C 0.74391 0.78223 0.37233 0.0
C152 C 0.79028 0.81402 0.36498 0.0
C153 C 0.82958 0.80975 0.37241 0.0
C154 C 0.82311 0.77531 0.38902 0.0
C155 C 0.77882 0.74881 0.39911 0.0
C156 C 0.78081 0.72501 0.42212 0.0
C157 C 0.83149 0.73453 0.42134 0.0
C158 C 0.85641 0.76341 0.40156 0.0
C159 C 0.74531 0.67402 0.41987 0.0
C160 C 0.77153 0.74784 0.44462 0.0
H161 H 0.9844 0.70765 0.41127 0.0
H162 H 0.03481 0.84102 0.35691 0.0
H163 H 0.97616 0.85913 0.40244 0.0
H164 H 0.92956 0.86065 0.38609 0.0
H165 H 0.98384 0.87542 0.37045 0.0
H166 H 0.91783 0.76069 0.34346 0.0
H167 H 0.94449 0.82067 0.33777 0.0
H168 H 0.88504 0.78863 0.34821 0.0
H169 H 0.90061 0.65472 0.4955 0.0
H170 H 0.77089 0.65425 0.51194 0.0
H171 H 0.77331 0.68727 0.47197 0.0
H172 H 0.87978 0.62307 0.44344 0.0
H173 H 0.94278 0.65174 0.44433 0.0
H174 H 0.91147 0.65429 0.41738 0.0
H175 H 0.95858 0.75983 0.46877 0.0
H176 H 0.98985 0.746 0.44667 0.0
H177 H 0.97085 0.71461 0.47471 0.0
H178 H 0.05952 0.73928 0.39058 0.0
C179 C 0.99385 0.73597 0.39936 0.0
C180 C 0.22421 0.19598 0.65636 0.0
C181 C 0.27283 0.2162 0.64969 0.0
C182 C 0.28749 0.24438 0.62858 0.0
C183 C 0.20897 0.2321 0.62113 0.0
C184 C 0.19321 0.20584 0.64221 0.0
C185 C 0.14141 0.19163 0.64678 0.0
H186 H 0.97588 0.25661 0.62684 0.0
C187 C 0.17038 0.23746 0.61024 0.0
C188 C 0.13075 0.21588 0.62581 0.0
H189 H 0.95227 0.14301 0.6716 0.0
H190 H 0.0289 0.15255 0.65882 0.0
H191 H 0.08951 0.32319 0.62059 0.0
H192 H 0.98491 0.20102 0.58623 0.0
H193 H 0.03069 0.22544 0.56455 0.0
H194 H 0.99975 0.25497 0.57361 0.0
H195 H 0.03915 0.31619 0.60332 0.0
H196 H 0.09276 0.32859 0.58794 0.0
C197 C 0.13612 0.2079 0.67238 0.0
C198 C 0.11184 0.13997 0.64418 0.0
C199 C 0.19726 0.31936 0.52761 0.0
C200 C 0.16914 0.3314 0.51329 0.0
C201 C 0.12451 0.32138 0.52216 0.0
C202 C 0.10817 0.29997 0.5451 0.0
C203 C 0.13656 0.28798 0.5593 0.0
C204 C 0.18011 0.29736 0.55037 0.0
C205 C 0.20594 0.28334 0.56829 0.0
C206 C 0.16906 0.26062 0.58854 0.0
C207 C 0.12924 0.2647 0.58347 0.0
C208 C 0.25014 0.32687 0.57756 0.0
C209 C 0.21708 0.24944 0.55507 0.0
C210 C 0.98773 0.23486 0.63498 0.0
C211 C 0.96067 0.20308 0.65321 0.0
C212 C 0.97516 0.17177 0.6604 0.0
C213 C 0.01899 0.1766 0.65242 0.0
C214 C 0.04667 0.21061 0.63523 0.0
C215 C 0.02818 0.23607 0.62538 0.0
C216 C 0.05117 0.25802 0.60146 0.0
C217 C 0.09143 0.24784 0.60058 0.0
C218 C 0.09037 0.22138 0.62097 0.0
C219 C 0.06908 0.30928 0.60327 0.0
C220 C 0.01497 0.23402 0.58032 0.0
H221 H 0.2706 0.27216 0.59833 0.0
H222 H 0.21069 0.17363 0.67202 0.0
H223 H 0.11968 0.12887 0.62638 0.0
H224 H 0.07367 0.12815 0.6444 0.0
H225 H 0.11989 0.12283 0.65938 0.0
H226 H 0.16191 0.24434 0.67485 0.0
H227 H 0.14217 0.18842 0.68689 0.0
H228 H 0.10055 0.20328 0.67531 0.0
H229 H 0.23217 0.32761 0.5214 0.0
H230 H 0.10278 0.33122 0.51159 0.0
H231 H 0.07459 0.29466 0.55115 0.0
H232 H 0.24828 0.35797 0.57336 0.0
H233 H 0.2829 0.33107 0.56888 0.0
H234 H 0.25386 0.32717 0.59791 0.0
H235 H 0.18545 0.22363 0.54503 0.0
H236 H 0.22724 0.23046 0.56788 0.0
H237 H 0.24587 0.26699 0.5414 0.0
H238 H 0.32377 0.26103 0.62242 0.0
C239 C 0.25625 0.25146 0.6143 0.0
C240 C 0.79005 0.77989 0.65926 0.0
C241 C 0.7775 0.73657 0.65054 0.0
C242 C 0.75107 0.72113 0.62855 0.0
C243 C 0.75259 0.79239 0.62364 0.0
C244 C 0.77659 0.80684 0.64575 0.0
C245 C 0.78549 0.85311 0.65275 0.0
H246 H 0.76821 0.03752 0.62409 0.0
C247 C 0.74622 0.8292 0.61345 0.0
C248 C 0.76469 0.86461 0.63058 0.0
H249 H 0.82065 0.00956 0.6914 0.0
H250 H 0.80432 0.93766 0.67549 0.0
H251 H 0.81869 0.00343 0.58845 0.0
H252 H 0.67721 0.93558 0.61729 0.0
H253 H 0.67495 0.92595 0.58526 0.0
H254 H 0.69884 0.98273 0.59646 0.0
H255 H 0.77359 0.0134 0.57605 0.0
H256 H 0.78217 0.96796 0.56496 0.0
C257 C 0.83944 0.88482 0.65471 0.0
C258 C 0.75814 0.84905 0.67691 0.0
C259 C 0.67307 0.81253 0.5286 0.0
C260 C 0.66486 0.84177 0.51378 0.0
C261 C 0.67974 0.88597 0.52189 0.0
C262 C 0.70138 0.9005 0.54503 0.0
C263 C 0.70827 0.87044 0.56006 0.0
C264 C 0.69515 0.82763 0.55149 0.0
C265 C 0.70664 0.80079 0.5695 0.0
C266 C 0.72797 0.83418 0.59056 0.0
C267 C 0.7284 0.87469 0.58504 0.0
C268 C 0.74323 0.79063 0.55717 0.0
C269 C 0.66004 0.75827 0.57715 0.0
C270 C 0.77586 0.01592 0.63565 0.0
C271 C 0.79572 0.02969 0.65934 0.0
C272 C 0.80528 0.00024 0.67335 0.0
C273 C 0.79584 0.95831 0.66397 0.0
C274 C 0.7767 0.94556 0.6402 0.0
C275 C 0.76682 0.97409 0.6265 0.0
C276 C 0.74685 0.9551 0.60151 0.0
C277 C 0.74533 0.90988 0.60276 0.0
C278 C 0.76315 0.9047 0.62541 0.0
C279 C 0.78172 0.98653 0.58157 0.0
C280 C 0.6969 0.94965 0.59979 0.0
H281 H 0.7193 0.73526 0.59831 0.0
H282 H 0.81036 0.79288 0.676 0.0
H283 H 0.72859 0.81412 0.67987 0.0
H284 H 0.74118 0.87033 0.67658 0.0
H285 H 0.78155 0.85813 0.69329 0.0
H286 H 0.85781 0.8793 0.63895 0.0
H287 H 0.85352 0.87836 0.67201 0.0
H288 H 0.84971 0.92091 0.65402 0.0
H289 H 0.66189 0.77837 0.52261 0.0
H290 H 0.67342 0.90877 0.51061 0.0
H291 H 0.71128 0.9343 0.55048 0.0
H292 H 0.76972 0.82051 0.54665 0.0
H293 H 0.72584 0.76204 0.54402 0.0
H294 H 0.76397 0.78308 0.57052 0.0
H295 H 0.6298 0.7648 0.57648 0.0
H296 H 0.66067 0.74785 0.59642 0.0
H297 H 0.65166 0.72945 0.56467 0.0
H298 H 0.74084 0.68793 0.6213 0.0
C299 C 0.73875 0.7488 0.61505 0.0
C300 C 0.9778 0.79233 0.65428 0.0
C301 C 0.9521 0.7454 0.65048 0.0
C302 C 0.97106 0.72533 0.63486 0.0
C303 C 0.03633 0.79863 0.62438 0.0
C304 C 0.02083 0.81799 0.64179 0.0
C305 C 0.05476 0.86781 0.64455 0.0
H306 H 0.27002 0.04274 0.61911 0.0
C307 C 0.07865 0.83489 0.61224 0.0
C308 C 0.09052 0.87529 0.62456 0.0
H309 H 0.17244 0.03327 0.67583 0.0
H310 H 0.11318 0.96194 0.65939 0.0
H311 H 0.24812 0.93889 0.61565 0.0
H312 H 0.19431 0.01444 0.57757 0.0
H313 H 0.17992 0.96773 0.55837 0.0
H314 H 0.24099 0.00786 0.56469 0.0
H315 H 0.28101 0.98748 0.59626 0.0
H316 H 0.24887 0.93225 0.58315 0.0
C317 C 0.07712 0.87646 0.67066 0.0
C318 C 0.02839 0.89415 0.63901 0.0
C319 C 0.14143 0.80421 0.53273 0.0
C320 C 0.17658 0.83307 0.51614 0.0
C321 C 0.20322 0.87944 0.52145 0.0
C322 C 0.19558 0.89689 0.54326 0.0
C323 C 0.1606 0.86775 0.5598 0.0
C324 C 0.13344 0.82241 0.55422 0.0
C325 C 0.09601 0.79729 0.57343 0.0
C326 C 0.10441 0.83546 0.59094 0.0
C327 C 0.14314 0.87627 0.58314 0.0
C328 C 0.10596 0.76183 0.58593 0.0
C329 C 0.04728 0.77682 0.5607 0.0
C330 C 0.23614 0.02504 0.62822 0.0
C331 C 0.22704 0.04239 0.64981 0.0
C332 C 0.18144 0.01957 0.66011 0.0
C333 C 0.14692 0.97821 0.65048 0.0
C334 C 0.15781 0.95973 0.63009 0.0
C335 C 0.20094 0.98401 0.61856 0.0
C336 C 0.20422 0.96084 0.59561 0.0
C337 C 0.15845 0.91607 0.59733 0.0
C338 C 0.13157 0.91576 0.61758 0.0
C339 C 0.24794 0.95451 0.59763 0.0
C340 C 0.20513 0.98907 0.57284 0.0
H341 H 0.02408 0.73453 0.60917 0.0
H342 H 0.96393 0.80884 0.66589 0.0
H343 H 1.00594 0.88039 0.62229 0.0
H344 H 0.05265 0.93026 0.63513 0.0
H345 H 1.00516 0.89147 0.65465 0.0
H346 H 0.07161 0.8448 0.67952 0.0
H347 H 0.06228 0.89237 0.68291 0.0
H348 H 0.11593 0.89813 0.67029 0.0
H349 H 0.1205 0.76842 0.52893 0.0
H350 H 0.23061 0.902 0.50889 0.0
H351 H 0.21745 0.9323 0.54656 0.0
H352 H 0.14383 0.7715 0.58455 0.0
H353 H 0.08511 0.72812 0.57724 0.0
H354 H 0.09861 0.75885 0.60599 0.0
H355 H 0.04455 0.80298 0.54962 0.0
H356 H 0.01768 0.7633 0.57383 0.0
H357 H 0.04192 0.74904 0.54806 0.0
H358 H 0.95178 0.68945 0.63145 0.0
C359 C 0.01266 0.75163 0.62162 0.0
C360 C 0.87781 0.54233 0.69904 0.0
C361 C 0.89512 0.58761 0.70564 0.0
C362 C 0.9237 0.60462 0.72686 0.0
C363 C 0.91493 0.53108 0.73519 0.0
C364 C 0.88864 0.51498 0.71383 0.0
C365 C 0.87422 0.46649 0.70898 0.0
H366 H 0.89848 0.28656 0.73721 0.0
C367 C 0.91849 0.49367 0.74678 0.0
C368 C 0.89569 0.45609 0.73121 0.0
H369 H 0.82724 0.30483 0.67453 0.0
H370 H 0.84218 0.37645 0.69056 0.0
H371 H 0.9851 0.39008 0.74368 0.0
H372 H 0.84656 0.31481 0.77515 0.0
H373 H 0.88033 0.35631 0.79705 0.0
H374 H 0.89614 0.31403 0.78891 0.0
H375 H 0.9653 0.34108 0.76303 0.0
H376 H 0.98819 0.39623 0.77616 0.0
C377 C 0.89664 0.46373 0.68421 0.0
C378 C 0.81966 0.43865 0.70945 0.0
C379 C 0.99896 0.51526 0.83006 0.0
C380 C 1.00551 0.48572 0.84555 0.0
C381 C 0.98752 0.44043 0.83856 0.0
C382 C 0.96425 0.42492 0.81592 0.0
C383 C 0.95878 0.45504 0.80027 0.0
C384 C 0.975 0.49909 0.80769 0.0
C385 C 0.96417 0.52566 0.78911 0.0
C386 C 0.93871 0.49021 0.76936 0.0
C387 C 0.93649 0.44926 0.77584 0.0
C388 C 0.0114 0.56523 0.7796 0.0
C389 C 0.93132 0.54052 0.80155 0.0
C390 C 0.8866 0.30621 0.72672 0.0
C391 C 0.86396 0.29111 0.70378 0.0
C392 C 0.84685 0.31662 0.69151 0.0
C393 C 0.85506 0.35802 0.70103 0.0
C394 C 0.8795 0.37347 0.72341 0.0
C395 C 0.89348 0.34706 0.73628 0.0
C396 C 0.9158 0.36746 0.76069 0.0
C397 C 0.91616 0.41218 0.75934 0.0
C398 C 0.89515 0.41544 0.7374 0.0
C399 C 0.96627 0.37403 0.76111 0.0
C400 C 0.88341 0.33665 0.78162 0.0
H401 H 0.95479 0.5913 0.75779 0.0
H402 H 0.85576 0.52813 0.68293 0.0
H403 H 0.80531 0.44993 0.7248 0.0
H404 H 0.80627 0.40231 0.71274 0.0
H405 H 0.80438 0.4428 0.69195 0.0
H406 H 0.92642 0.49707 0.67854 0.0
H407 H 0.87045 0.4518 0.66898 0.0
H408 H 0.91219 0.44132 0.68542 0.0
H409 H 0.01251 0.55024 0.83522 0.0
H410 H 0.99252 0.41741 0.85037 0.0
H411 H 0.95203 0.3903 0.81129 0.0
H412 H 0.04009 0.55651 0.7803 0.0
H413 H 0.02277 0.59604 0.79092 0.0
H414 H 0.00967 0.5734 0.76001 0.0
H415 H 0.90353 0.51229 0.81251 0.0
H416 H 0.91221 0.55015 0.78823 0.0
H417 H 0.95146 0.56927 0.8143 0.0
H418 H 0.93766 0.63944 0.73241 0.0
C419 C 0.93348 0.57656 0.74171 0.0
C420 C 0.69619 0.53226 0.70064 0.0
C421 C 0.72201 0.57923 0.70435 0.0
C422 C 0.70387 0.59912 0.72064 0.0
C423 C 0.63965 0.52574 0.73186 0.0
C424 C 0.654 0.50648 0.71382 0.0
C425 C 0.62017 0.45654 0.7114 0.0
H426 H 0.40661 0.28164 0.74033 0.0
C427 C 0.59854 0.48941 0.74475 0.0
C428 C 0.58584 0.44902 0.73224 0.0
H429 H 0.50068 0.29062 0.68178 0.0
H430 H 0.56079 0.36221 0.69729 0.0
H431 H 0.48499 0.30913 0.77997 0.0
H432 H 0.42926 0.3858 0.74505 0.0
H433 H 0.43116 0.39207 0.77767 0.0
H434 H 0.39784 0.337 0.76451 0.0
H435 H 0.44045 0.31679 0.79469 0.0
H436 H 0.50236 0.35612 0.7994 0.0
C437 C 0.64729 0.43061 0.71606 0.0
C438 C 0.59598 0.44739 0.68574 0.0
C439 C 0.54312 0.5194 0.82686 0.0
C440 C 0.50931 0.49049 0.84405 0.0
C441 C 0.48232 0.44412 0.83877 0.0
C442 C 0.48807 0.42686 0.81642 0.0
C443 C 0.52153 0.45614 0.79929 0.0
C444 C 0.5492 0.50141 0.80481 0.0
C445 C 0.58474 0.52677 0.78481 0.0
C446 C 0.57472 0.48874 0.76686 0.0
C447 C 0.5368 0.44789 0.77523 0.0
C448 C 0.63464 0.54731 0.79617 0.0
C449 C 0.57352 0.56223 0.77341 0.0
C450 C 0.43986 0.29938 0.73062 0.0
C451 C 0.44756 0.2819 0.70872 0.0
C452 C 0.49253 0.30458 0.69765 0.0
C453 C 0.52763 0.34605 0.70677 0.0
C454 C 0.51813 0.36464 0.72753 0.0
C455 C 0.47583 0.34042 0.73986 0.0
C456 C 0.47455 0.36347 0.76328 0.0
C457 C 0.52026 0.40817 0.76089 0.0
C458 C 0.54546 0.40853 0.73988 0.0
C459 C 0.47542 0.33502 0.78553 0.0
C460 C 0.43083 0.36995 0.76274 0.0
H461 H 0.65265 0.58972 0.74756 0.0
H462 H 0.70962 0.51573 0.68876 0.0
H463 H 0.60207 0.47899 0.67652 0.0
H464 H 0.5571 0.42668 0.68697 0.0
H465 H 0.60894 0.43008 0.67329 0.0
H466 H 0.67071 0.44452 0.73243 0.0
H467 H 0.66963 0.43352 0.69995 0.0
H468 H 0.62351 0.39445 0.72003 0.0
H469 H 0.56445 0.55518 0.83058 0.0
H470 H 0.45587 0.42144 0.8517 0.0
H471 H 0.46586 0.3915 0.81315 0.0
H472 H 0.63867 0.52104 0.8064 0.0
H473 H 0.64098 0.57469 0.80935 0.0
H474 H 0.66293 0.56143 0.78228 0.0
H475 H 0.53593 0.55272 0.77616 0.0
H476 H 0.5785 0.56503 0.75315 0.0
H477 H 0.59548 0.59601 0.78185 0.0
H478 H 0.72347 0.63487 0.72425 0.0
C479 C 0.66325 0.57273 0.73457 0.0
C480 C 0.6899 0.14432 0.70138 0.0
C481 C 0.72023 0.12597 0.70538 0.0
C482 C 0.70376 0.08719 0.72031 0.0
C483 C 0.63241 0.08967 0.72995 0.0
C484 C 0.645 0.12413 0.713 0.0
C485 C 0.60571 0.13588 0.71016 0.0
H486 H 0.37157 0.06146 0.73183 0.0
C487 C 0.58688 0.07917 0.74135 0.0
C488 C 0.56901 0.10372 0.72871 0.0
H489 H 0.46313 0.17622 0.68741 0.0
H490 H 0.53055 0.16779 0.69924 0.0
H491 H 0.41713 0.99396 0.73549 0.0
H492 H 0.43952 0.11353 0.77298 0.0
H493 H 0.46543 0.09049 0.79249 0.0
H494 H 0.40287 0.05905 0.78611 0.0
H495 H 0.37512 0.00098 0.75373 0.0
H496 H 0.4161 0.9875 0.76817 0.0
C497 C 0.5872 0.12607 0.68346 0.0
C498 C 0.62471 0.18557 0.71758 0.0
C499 C 0.5399 -0.00409 0.8239 0.0
C500 C 0.50248 0.98583 0.84031 0.0
C501 C 0.46713 -0.00412 0.83316 0.0
C502 C 0.46872 0.01525 0.81 0.0
C503 C 0.50665 0.02582 0.79395 0.0
C504 C 0.54172 0.01653 0.80107 0.0
C505 C 0.57971 0.03084 0.78169 0.0
C506 C 0.56339 0.05352 0.76274 0.0
C507 C 0.51994 0.04915 0.76973 0.0
C508 C 0.57869 0.98798 0.77118 0.0
C509 C 0.62747 0.06466 0.79348 0.0
C510 C 0.40562 0.0835 0.72362 0.0
C511 C 0.41057 0.11556 0.70566 0.0
C512 C 0.45693 0.14735 0.69831 0.0
C513 C 0.49623 0.14308 0.70574 0.0
C514 C 0.48977 0.10864 0.72235 0.0
C515 C 0.44548 0.08215 0.73244 0.0
C516 C 0.44747 0.05835 0.75545 0.0
C517 C 0.49815 0.06787 0.75467 0.0
C518 C 0.52306 0.09674 0.73489 0.0
C519 C 0.41197 0.00736 0.7532 0.0
C520 C 0.43819 0.08118 0.77795 0.0
H521 H 0.65105 0.04098 0.74459 0.0
H522 H 0.70145 0.17434 0.69023 0.0
H523 H 0.64282 0.19246 0.73576 0.0
H524 H 0.59621 0.19398 0.71942 0.0
H525 H 0.65049 0.20874 0.70377 0.0
H526 H 0.58447 0.09401 0.67679 0.0
H527 H 0.61113 0.15399 0.67109 0.0
H528 H 0.55168 0.12195 0.68154 0.0
H529 H 0.56727 0.98807 0.82883 0.0
H530 H 0.43756 0.98759 0.84527 0.0
H531 H 0.43997 0.02061 0.8053 0.0
H532 H 0.54644 0.95641 0.77677 0.0
H533 H 0.60944 0.98508 0.77766 0.0
H534 H 0.57812 0.98762 0.75071 0.0
H535 H 0.62524 0.09317 0.80209 0.0
H536 H 0.6565 0.07934 0.78 0.0
H537 H 0.63751 0.04795 0.80804 0.0
H538 H 0.72616 0.0726 0.7239 0.0
C539 C 0.6605 0.0693 0.73268 0.0
C540 C 0.89089 0.52932 0.98969 0.0
C541 C 0.93951 0.54955 0.98302 0.0
C542 C 0.95417 0.57773 0.96192 0.0
C543 C 0.87565 0.56545 0.95446 0.0
C544 C 0.85989 0.53919 0.97555 0.0
C545 C 0.80809 0.52497 0.98012 0.0
H546 H 0.64253 0.58992 0.96017 0.0
C547 C 0.83706 0.57081 0.94358 0.0
C548 C 0.79743 0.54922 0.95914 0.0
H549 H 0.61897 0.47637 1.00496 0.0
H550 H 0.6956 0.4859 0.99217 0.0
H551 H 0.75615 0.65651 0.95392 0.0
H552 H 0.65158 0.53433 0.91956 0.0
H553 H 0.69736 0.55876 0.89788 0.0
H554 H 0.6664 0.58827 0.90694 0.0
H555 H 0.70579 0.64949 0.93665 0.0
H556 H 0.7594 0.66191 0.92127 0.0
C557 C 0.80281 0.54125 1.00572 0.0
C558 C 0.77851 0.47331 0.97751 0.0
C559 C 0.86393 0.65271 0.86095 0.0
C560 C 0.83581 0.66473 0.84662 0.0
C561 C 0.79117 0.65471 0.85549 0.0
C562 C 0.77484 0.6333 0.87843 0.0
C563 C 0.80323 0.62132 0.89264 0.0
C564 C 0.84678 0.6307 0.88371 0.0
C565 C 0.87261 0.61669 0.90162 0.0
C566 C 0.83574 0.59397 0.92188 0.0
C567 C 0.79591 0.59804 0.9168 0.0
C568 C 0.91681 0.66023 0.9109 0.0
C569 C 0.88376 0.58279 0.88841 0.0
C570 C 0.65439 0.56817 0.96831 0.0
C571 C 0.62735 0.53641 0.98655 0.0
C572 C 0.64185 0.50511 0.99375 0.0
C573 C 0.68568 0.50995 0.98577 0.0
C574 C 0.71334 0.54395 0.96857 0.0
C575 C 0.69485 0.56939 0.95871 0.0
C576 C 0.71783 0.59134 0.93479 0.0
C577 C 0.7581 0.58117 0.93391 0.0
C578 C 0.75705 0.55472 0.95431 0.0
C579 C 0.73572 0.6426 0.9366 0.0
C580 C 0.68163 0.56733 0.91365 0.0
H581 H 0.93728 0.60552 0.93167 0.0
H582 H 0.87737 0.50697 1.00535 0.0
H583 H 0.78636 0.46221 0.95972 0.0
H584 H 0.74035 0.46149 0.97773 0.0
H585 H 0.78656 0.45617 0.99271 0.0
H586 H 0.82863 0.57768 1.00819 0.0
H587 H 0.80882 0.52173 0.02022 0.0
H588 H 0.76725 0.53667 1.00864 0.0
H589 H 0.89885 0.66097 0.85474 0.0
H590 H 0.76943 0.66454 0.84492 0.0
H591 H 0.74124 0.62798 0.88448 0.0
H592 H 0.91494 0.69132 0.9067 0.0
H593 H 0.94958 0.66443 0.90222 0.0
H594 H 0.92053 0.66052 0.93125 0.0
H595 H 0.85214 0.55699 0.87837 0.0
H596 H 0.89393 0.56381 0.90121 0.0
H597 H 0.91255 0.60034 0.87474 0.0
H598 H 0.99045 0.59438 0.95576 0.0
C599 C 0.92293 0.58481 0.94764 0.0
C600 C 0.45666 0.11321 0.99261 0.0
C601 C 0.44414 0.0699 0.98389 0.0
C602 C 0.41772 0.05446 0.96189 0.0
C603 C 0.41921 0.12571 0.95699 0.0
C604 C 0.44319 0.14016 0.97911 0.0
C605 C 0.45206 0.18641 0.98611 0.0
H606 H 0.43491 0.37088 0.95743 0.0
C607 C 0.41283 0.16252 0.9468 0.0
C608 C 0.43128 0.19792 0.96393 0.0
H609 H 0.48711 0.34281 0.02478 0.0
H610 H 0.47078 0.27091 1.00888 0.0
H611 H 0.48538 0.3367 0.92181 0.0
H612 H 0.34387 0.26898 0.95061 0.0
H613 H 0.34162 0.2593 0.91859 0.0
H614 H 0.36554 0.31611 0.92977 0.0
H615 H 0.44034 0.34677 0.90941 0.0
H616 H 0.44884 0.3013 0.89831 0.0
C617 C 0.50601 0.21814 0.98809 0.0
C618 C 0.42468 0.18232 1.01026 0.0
C619 C 0.33974 0.14588 0.86194 0.0
C620 C 0.33154 0.17512 0.84712 0.0
C621 C 0.34643 0.21933 0.85523 0.0
C622 C 0.36806 0.23385 0.87837 0.0
C623 C 0.37494 0.20379 0.8934 0.0
C624 C 0.36182 0.16098 0.88483 0.0
C625 C 0.3733 0.13413 0.90284 0.0
C626 C 0.39461 0.16751 0.9239 0.0
C627 C 0.39504 0.20803 0.91838 0.0
C628 C 0.4099 0.12397 0.89051 0.0
C629 C 0.32669 0.09161 0.91048 0.0
C630 C 0.44251 0.34926 0.969 0.0
C631 C 0.46233 0.363 0.99269 0.0
C632 C 0.4718 0.33352 1.00672 0.0
C633 C 0.46236 0.29158 0.99734 0.0
C634 C 0.44329 0.27886 0.97356 0.0
C635 C 0.43345 0.30742 0.95985 0.0
C636 C 0.41351 0.28844 0.93485 0.0
C637 C 0.41196 0.24321 0.93611 0.0
C638 C 0.42974 0.23801 0.95877 0.0
C639 C 0.44842 0.31986 0.91492 0.0
C640 C 0.36357 0.28302 0.93311 0.0
H641 H 0.38595 0.0686 0.93165 0.0
H642 H 0.47697 0.12619 1.00935 0.0
H643 H 0.39515 0.14737 0.01322 0.0
H644 H 0.40767 0.20356 1.00992 0.0
H645 H 0.44808 0.19142 0.02665 0.0
H646 H 0.5244 0.21267 0.97232 0.0
H647 H 0.52008 0.21165 1.00538 0.0
H648 H 0.51626 0.25423 0.98743 0.0
H649 H 0.32857 0.11172 0.85595 0.0
H650 H 0.34012 0.24212 0.84394 0.0
H651 H 0.37797 0.26765 0.88381 0.0
H652 H 0.43639 0.15386 0.88 0.0
H653 H 0.39253 0.09538 0.87737 0.0
H654 H 0.43064 0.11643 0.90387 0.0
H655 H 0.29646 0.09813 0.90981 0.0
H656 H 0.32732 0.08117 0.92975 0.0
H657 H 0.31832 0.06279 0.89799 0.0
H658 H 0.40751 0.02127 0.95463 0.0
C659 C 0.40539 0.08213 0.94839 0.0
C660 C 0.64446 0.12569 0.98761 0.0
C661 C 0.61876 0.07876 0.98381 0.0
C662 C 0.63772 0.05869 0.96819 0.0
C663 C 0.70298 0.13199 0.95771 0.0
C664 C 0.68748 0.15135 0.97512 0.0
C665 C 0.72142 0.20117 0.97789 0.0
H666 H 0.93669 0.3761 0.95245 0.0
C667 C 0.74531 0.16826 0.94557 0.0
C668 C 0.75717 0.20865 0.95789 0.0
H669 H 0.83912 0.36662 1.00917 0.0
H670 H 0.77985 0.2953 0.99272 0.0
H671 H 0.91477 0.27224 0.94898 0.0
H672 H 0.86098 0.34781 0.91091 0.0
H673 H 0.84656 0.30111 0.8917 0.0
H674 H 0.90765 0.34122 0.89802 0.0
H675 H 0.94766 0.32083 0.92958 0.0
H676 H 0.91552 0.26561 0.91647 0.0
C677 C 0.74378 0.20981 1.00399 0.0
C678 C 0.69505 0.22751 0.97234 0.0
C679 C 0.80807 0.13759 0.86605 0.0
C680 C 0.84323 0.16645 0.84946 0.0
C681 C 0.86986 0.21282 0.85477 0.0
C682 C 0.86222 0.23027 0.87658 0.0
C683 C 0.82725 0.20113 0.89312 0.0
C684 C 0.80009 0.15578 0.88754 0.0
C685 C 0.76266 0.13066 0.90675 0.0
C686 C 0.77106 0.16883 0.92427 0.0
C687 C 0.80979 0.20963 0.91646 0.0
C688 C 0.77261 0.0952 0.91925 0.0
C689 C 0.71393 0.11019 0.89402 0.0
C690 C 0.9028 0.35839 0.96156 0.0
C691 C 0.89371 0.37573 0.98315 0.0
C692 C 0.84811 0.35292 0.99345 0.0
C693 C 0.81359 0.31157 0.98382 0.0
C694 C 0.82447 0.29309 0.96343 0.0
C695 C 0.8676 0.31737 0.95189 0.0
C696 C 0.87088 0.2942 0.92894 0.0
C697 C 0.8251 0.24943 0.93066 0.0
C698 C 0.79822 0.24912 0.95091 0.0
C699 C 0.9146 0.28787 0.93096 0.0
C700 C 0.87179 0.32244 0.90617 0.0
H701 H 0.69074 0.0679 0.94249 0.0
H702 H 0.63059 0.1422 0.99922 0.0
H703 H 0.6726 0.21376 0.95563 0.0
H704 H 0.71931 0.26362 0.96847 0.0
H705 H 0.67183 0.22483 0.98799 0.0
H706 H 0.73827 0.17815 0.01285 0.0
H707 H 0.72895 0.22572 0.01624 0.0
H708 H 0.78259 0.23148 1.00362 0.0
H709 H 0.78715 0.1018 0.86225 0.0
H710 H 0.89725 0.23538 0.84221 0.0
H711 H 0.88409 0.26568 0.87989 0.0
H712 H 0.81049 0.10487 0.91787 0.0
H713 H 0.75177 0.06149 0.91055 0.0
H714 H 0.76526 0.09221 0.9393 0.0
H715 H 0.71119 0.13635 0.88294 0.0
H716 H 0.68433 0.09666 0.90715 0.0
H717 H 0.70857 0.08241 0.88138 0.0
H718 H 0.61844 0.02282 0.96477 0.0
C719 C 0.67932 0.08499 0.95494 0.0
C720 C 0.54449 0.87569 0.03236 0.0
C721 C 0.5618 0.92097 0.03897 0.0
C722 C 0.59039 0.93799 0.06018 0.0
C723 C 0.58161 0.86445 0.06851 0.0
C724 C 0.55532 0.84834 0.04715 0.0
C725 C 0.5409 0.79985 0.04231 0.0
H726 H 0.56509 0.6199 0.07057 0.0
C727 C 0.58517 0.82703 0.08011 0.0
C728 C 0.56235 0.78945 0.06454 0.0
H729 H 0.4939 0.63818 1.00787 0.0
H730 H 0.50885 0.70981 0.02389 0.0
H731 H 0.65172 0.72339 0.07702 0.0
H732 H 0.51318 0.64818 0.10849 0.0
H733 H 0.54696 0.68968 0.13039 0.0
H734 H 0.56275 0.64738 0.12226 0.0
H735 H 0.63191 0.67441 0.09639 0.0
H736 H 0.65482 0.72957 0.10951 0.0
C737 C 0.56332 0.79709 0.01754 0.0
C738 C 0.48633 0.77202 0.04278 0.0
C739 C 0.66564 0.84863 0.16339 0.0
C740 C 0.67218 0.81908 0.17888 0.0
C741 C 0.65417 0.77379 0.17189 0.0
C742 C 0.63089 0.75827 0.14925 0.0
C743 C 0.62544 0.7884 0.13361 0.0
C744 C 0.64167 0.83246 0.14101 0.0
C745 C 0.63085 0.85903 0.12244 0.0
C746 C 0.60538 0.82357 0.10269 0.0
C747 C 0.60314 0.78261 0.10917 0.0
C748 C 0.67808 0.89858 0.11292 0.0
C749 C 0.59802 0.8739 0.13488 0.0
C750 C 0.55322 0.63954 0.06007 0.0
C751 C 0.5306 0.62445 0.03712 0.0
C752 C 0.51351 0.64997 0.02485 0.0
C753 C 0.52171 0.69137 0.03436 0.0
C754 C 0.54615 0.70682 0.05675 0.0
C755 C 0.56011 0.6804 0.06963 0.0
C756 C 0.58243 0.70081 0.09403 0.0
C757 C 0.58281 0.74553 0.09268 0.0
C758 C 0.5618 0.74879 0.07073 0.0
C759 C 0.6329 0.70736 0.09446 0.0
C760 C 0.55003 0.67001 0.11497 0.0
H761 H 0.62148 0.92466 0.09111 0.0
H762 H 0.52244 0.86149 0.01626 0.0
H763 H 0.47199 0.7833 0.05812 0.0
H764 H 0.47294 0.73567 0.04607 0.0
H765 H 0.47106 0.77617 0.02527 0.0
H766 H 0.5931 0.83042 0.01187 0.0
H767 H 0.53713 0.78516 1.00231 0.0
H768 H 0.57887 0.77467 0.01875 0.0
H769 H 0.6792 0.88361 0.16854 0.0
H770 H 0.65916 0.75076 0.18371 0.0
H771 H 0.61866 0.72365 0.14463 0.0
H772 H 0.70677 0.88985 0.11362 0.0
H773 H 0.68947 0.9294 0.12425 0.0
H774 H 0.67635 0.90676 0.09333 0.0
H775 H 0.57023 0.84568 0.14584 0.0
H776 H 0.5789 0.88353 0.12156 0.0
H777 H 0.61817 0.90266 0.14762 0.0
H778 H 0.60435 0.97281 0.06573 0.0
C779 C 0.60017 0.90993 0.07503 0.0
C780 C 0.36287 0.8656 0.03397 0.0
C781 C 0.38868 0.91258 0.03768 0.0
C782 C 0.37055 0.93246 0.05397 0.0
C783 C 0.30633 0.85908 0.06519 0.0
C784 C 0.32067 0.83982 0.04715 0.0
C785 C 0.28685 0.78989 0.04473 0.0
H786 H 0.07329 0.61498 0.07367 0.0
C787 C 0.26522 0.82275 0.07808 0.0
C788 C 0.25252 0.78236 0.06557 0.0
H789 H 0.16736 0.62397 0.01511 0.0
H790 H 0.22747 0.69556 0.03063 0.0
H791 H 0.15167 0.64246 0.1133 0.0
H792 H 0.09594 0.71914 0.07839 0.0
H793 H 0.09784 0.7254 0.11101 0.0
H794 H 0.06452 0.67034 0.09785 0.0
H795 H 0.10713 0.65012 0.12802 0.0
H796 H 0.16904 0.68946 0.13274 0.0
C797 C 0.31397 0.76396 0.04939 0.0
C798 C 0.26265 0.78074 0.01907 0.0
C799 C 0.20979 0.85274 0.1602 0.0
C800 C 0.17598 0.82382 0.17739 0.0
C801 C 0.14899 0.77746 0.17211 0.0
C802 C 0.15475 0.76019 0.14975 0.0
C803 C 0.1882 0.78948 0.13263 0.0
C804 C 0.21587 0.83475 0.13815 0.0
C805 C 0.25141 0.86011 0.11814 0.0
C806 C 0.2414 0.82208 0.1002 0.0
C807 C 0.20348 0.78122 0.10856 0.0
C808 C 0.30131 0.88065 0.12951 0.0
C809 C 0.24019 0.89557 0.10674 0.0
C810 C 0.10654 0.63272 0.06395 0.0
C811 C 0.11424 0.61525 0.04205 0.0
C812 C 0.15921 0.63793 0.03098 0.0
C813 C 0.19431 0.6794 0.0401 0.0
C814 C 0.18481 0.69798 0.06086 0.0
C815 C 0.14251 0.67376 0.07319 0.0
C816 C 0.14123 0.69681 0.09661 0.0
C817 C 0.18694 0.7415 0.09422 0.0
C818 C 0.21213 0.74187 0.07321 0.0
C819 C 0.1421 0.66836 0.11886 0.0
C820 C 0.0975 0.70328 0.09608 0.0
H821 H 0.31933 0.92306 0.0809 0.0
H822 H 0.37629 0.84908 0.02209 0.0
H823 H 0.26875 0.81233 1.00986 0.0
H824 H 0.22378 0.76002 0.02031 0.0
H825 H 0.27561 0.76342 1.00663 0.0
H826 H 0.33739 0.77787 0.06577 0.0
H827 H 0.33631 0.76686 0.03328 0.0
H828 H 0.29019 0.72779 0.05336 0.0
H829 H 0.23112 0.88851 0.16392 0.0
H830 H 0.12254 0.75478 0.18504 0.0
H831 H 0.13253 0.72484 0.14648 0.0
H832 H 0.30535 0.85438 0.13974 0.0
H833 H 0.30765 0.90803 0.14268 0.0
H834 H 0.3296 0.89477 0.11561 0.0
H835 H 0.2026 0.88605 0.10949 0.0
H836 H 0.24518 0.89837 0.08649 0.0
H837 H 0.26215 0.92934 0.11519 0.0
H838 H 0.39014 0.96821 0.05758 0.0
C839 C 0.32992 0.90607 0.06791 0.0
C840 C 0.35659 0.47767 0.03472 0.0
C841 C 0.38692 0.45932 0.03873 0.0
C842 C 0.37044 0.42053 0.05365 0.0
C843 C 0.29909 0.42301 0.06329 0.0
C844 C 0.31168 0.45748 0.04634 0.0
C845 C 0.2724 0.46923 0.04351 0.0
H846 H 0.03825 0.39481 0.06516 0.0
C847 C 0.25356 0.41251 0.07469 0.0
C848 C 0.23569 0.43707 0.06205 0.0
H849 H 0.12981 0.50957 0.02075 0.0
H850 H 0.19724 0.50114 0.03258 0.0
H851 H 0.08381 0.3273 0.06882 0.0
H852 H 0.1062 0.44686 0.10632 0.0
H853 H 0.1321 0.42383 0.12582 0.0
H854 H 0.06955 0.39239 0.11944 0.0
H855 H 0.0418 0.33432 0.08706 0.0
H856 H 0.08277 0.32084 0.1015 0.0
C857 C 0.25389 0.45942 0.0168 0.0
C858 C 0.2914 0.51891 0.05093 0.0
C859 C 0.20656 0.32924 0.15723 0.0
C860 C 0.16915 0.31916 0.17365 0.0
C861 C 0.1338 0.32921 0.1665 0.0
C862 C 0.13539 0.34858 0.14334 0.0
C863 C 0.17333 0.35915 0.12729 0.0
C864 C 0.2084 0.34987 0.13441 0.0
C865 C 0.24638 0.36418 0.11502 0.0
C866 C 0.23006 0.38686 0.09608 0.0
C867 C 0.18661 0.38249 0.10306 0.0
C868 C 0.24536 0.32132 0.10451 0.0
C869 C 0.29414 0.398 0.12682 0.0
C870 C 0.07229 0.41684 0.05695 0.0
C871 C 0.07725 0.44891 0.039 0.0
C872 C 0.12361 0.4807 0.03165 0.0
C873 C 0.16291 0.47643 0.03908 0.0
C874 C 0.15645 0.44199 0.05568 0.0
C875 C 0.11216 0.41549 0.06578 0.0
C876 C 0.11414 0.39169 0.08879 0.0
C877 C 0.16482 0.40121 0.08801 0.0
C878 C 0.18975 0.43009 0.06823 0.0
C879 C 0.07864 0.3407 0.08653 0.0
C880 C 0.10487 0.41452 0.11128 0.0
H881 H 0.31773 0.37432 0.07793 0.0
H882 H 0.36815 0.5077 0.02357 0.0
H883 H 0.30949 0.52581 0.06911 0.0
H884 H 0.26289 0.52733 0.05276 0.0
H885 H 0.31718 0.5421 0.03712 0.0
H886 H 0.25116 0.42736 1.01013 0.0
H887 H 0.27783 0.48734 1.00443 0.0
H888 H 0.21838 0.45531 0.01488 0.0
H889 H 0.23394 0.3214 0.16216 0.0
H890 H 0.10422 0.32092 0.1786 0.0
H891 H 0.10664 0.35395 0.13863 0.0
H892 H 0.21312 0.28975 0.1101 0.0
H893 H 0.27611 0.31842 0.111 0.0
H894 H 0.2448 0.32096 0.08404 0.0
H895 H 0.29192 0.42651 0.13543 0.0
H896 H 0.32318 0.41268 0.11334 0.0
H897 H 0.30418 0.38129 0.14138 0.0
H898 H 0.39284 0.40595 0.05724 0.0
C899 C 0.32718 0.40264 0.06602 0.0
C900 C 0.55755 0.86264 0.32302 0.0
C901 C 0.60617 0.88287 0.31636 0.0
C902 C 0.62083 0.91105 0.29525 0.0
C903 C 0.54232 0.89877 0.2878 0.0
C904 C 0.52655 0.87251 0.30888 0.0
C905 C 0.47475 0.8583 0.31345 0.0
H906 H 0.3092 0.92325 0.2935 0.0
C907 C 0.50373 0.90413 0.27691 0.0
C908 C 0.46409 0.88255 0.29248 0.0
H909 H 0.28564 0.8097 0.3383 0.0
H910 H 0.36227 0.81923 0.32551 0.0
H911 H 0.42282 0.98984 0.28725 0.0
H912 H 0.31824 0.86765 0.25289 0.0
H913 H 0.36403 0.89208 0.23121 0.0
H914 H 0.33307 0.9216 0.24027 0.0
H915 H 0.37246 0.98282 0.26998 0.0
H916 H 0.42607 0.99523 0.2546 0.0
C917 C 0.46947 0.87457 0.33905 0.0
C918 C 0.44518 0.80663 0.31084 0.0
C919 C 0.5306 0.98604 0.19428 0.0
C920 C 0.50248 -0.00194 0.17996 0.0
C921 C 0.45784 0.98803 0.18883 0.0
C922 C 0.44151 0.96662 0.21176 0.0
C923 C 0.4699 0.95464 0.22597 0.0
C924 C 0.51345 0.96403 0.21704 0.0
C925 C 0.53928 0.95002 0.23496 0.0
C926 C 0.5024 0.92729 0.25521 0.0
C927 C 0.46258 0.93137 0.25014 0.0
C928 C 0.58348 0.99355 0.24423 0.0
C929 C 0.55043 0.91612 0.22174 0.0
C930 C 0.32106 0.9015 0.30165 0.0
C931 C 0.29402 0.86974 0.31989 0.0
C932 C 0.30852 0.83844 0.32708 0.0
C933 C 0.35234 0.84327 0.3191 0.0
C934 C 0.38001 0.87727 0.3019 0.0
C935 C 0.36151 0.90272 0.29204 0.0
C936 C 0.3845 0.92466 0.26812 0.0
C937 C 0.42476 0.91449 0.26725 0.0
C938 C 0.42371 0.88804 0.28764 0.0
C939 C 0.40239 0.97593 0.26993 0.0
C940 C 0.3483 0.90065 0.24698 0.0
H941 H 0.60395 0.93884 0.265 0.0
H942 H 0.54403 0.84029 0.33868 0.0
H943 H 0.45302 0.79553 0.29305 0.0
H944 H 0.40701 0.79482 0.31107 0.0
H945 H 0.45322 0.78949 0.32604 0.0
H946 H 0.49529 0.911 0.34152 0.0
H947 H 0.47548 0.85506 0.35356 0.0
H948 H 0.43392 0.86999 0.34197 0.0
H949 H 0.56552 0.99429 0.18808 0.0
H950 H 0.4361 -0.00213 0.17826 0.0
H951 H 0.40791 0.9613 0.21781 0.0
H952 H 0.58161 0.02464 0.24003 0.0
H953 H 0.61624 -0.00225 0.23555 0.0
H954 H 0.5872 0.99385 0.26458 0.0
H955 H 0.5188 0.89031 0.2117 0.0
H956 H 0.5606 0.89714 0.23455 0.0
H957 H 0.57922 0.93367 0.20807 0.0
H958 H 0.65712 0.9277 0.28909 0.0
C959 C 0.5896 0.91813 0.28097 0.0
C960 C 0.12333 0.44654 0.32595 0.0
C961 C 0.1108 0.40323 0.31722 0.0
C962 C 0.08438 0.38779 0.29522 0.0
C963 C 0.08587 0.45904 0.29032 0.0
C964 C 0.10986 0.47349 0.31244 0.0
C965 C 0.11873 0.51974 0.31944 0.0
H966 H 0.10158 0.70421 0.29077 0.0
C967 C 0.07949 0.49585 0.28013 0.0
C968 C 0.09795 0.53125 0.29727 0.0
H969 H 0.15379 0.67615 0.35812 0.0
H970 H 0.13746 0.60425 0.34221 0.0
H971 H 0.15205 0.67004 0.25514 0.0
H972 H 0.01053 0.60231 0.28395 0.0
H973 H 0.00829 0.59263 0.25193 0.0
H974 H 0.0322 0.64944 0.26311 0.0
H975 H 0.107 0.6801 0.24274 0.0
H976 H 0.11551 0.63463 0.23165 0.0
C977 C 0.17268 0.55146 0.32142 0.0
C978 C 0.09135 0.51565 0.3436 0.0
C979 C 1.00641 0.47922 0.19528 0.0
C980 C 0.99821 0.50846 0.18045 0.0
C981 C 0.01309 0.55267 0.18856 0.0
C982 C 0.03473 0.56718 0.21171 0.0
C983 C 0.04161 0.53712 0.22674 0.0
C984 C 0.02848 0.49431 0.21816 0.0
C985 C 0.03996 0.46746 0.23617 0.0
C986 C 0.06128 0.50085 0.25723 0.0
C987 C 0.06171 0.54136 0.25172 0.0
C988 C 0.07656 0.45731 0.22384 0.0
C989 C 0.99335 0.42494 0.24381 0.0
C990 C 0.10918 0.68259 0.30233 0.0
C991 C 0.129 0.69634 0.32603 0.0
C992 C 0.13848 0.66685 0.34005 0.0
C993 C 0.12904 0.62492 0.33067 0.0
C994 C 0.10996 0.61219 0.3069 0.0
C995 C 0.10012 0.64075 0.29319 0.0
C996 C 0.08018 0.62177 0.26819 0.0
C997 C 0.07863 0.57654 0.26944 0.0
C998 C 0.09641 0.57134 0.2921 0.0
C999 C 0.11508 0.65319 0.24826 0.0
C1000 C 0.03024 0.61635 0.26645 0.0
H1001 H 0.05261 0.40193 0.26498 0.0
H1002 H 0.14363 0.45952 0.34268 0.0
H1003 H 0.06182 0.4807 0.34655 0.0
H1004 H 0.07435 0.53689 0.34326 0.0
H1005 H 0.11476 0.52475 0.35998 0.0
H1006 H 0.19107 0.54599 0.30565 0.0
H1007 H 0.18675 0.54498 0.33871 0.0
H1008 H 0.18293 0.58755 0.32076 0.0
H1009 H 0.99523 0.44506 0.18928 0.0
H1010 H 0.00678 0.57547 0.17728 0.0
H1011 H 0.04463 0.60099 0.21715 0.0
H1012 H 0.10305 0.4872 0.21333 0.0
H1013 H 0.05918 0.42872 0.2107 0.0
H1014 H 0.0973 0.44976 0.2372 0.0
H1015 H 0.96312 0.43147 0.24315 0.0
H1016 H 0.99398 0.41451 0.26308 0.0
H1017 H 0.98498 0.39613 0.23133 0.0
H1018 H 0.07417 0.3546 0.28796 0.0
C1019 C 0.07205 0.41546 0.28173 0.0
C1020 C 0.31113 0.45901 0.32094 0.0
C1021 C 0.28542 0.41208 0.31714 0.0
C1022 C 0.30438 0.39201 0.30153 0.0
C1023 C 0.36965 0.4653 0.29104 0.0
C1024 C 0.35415 0.48466 0.30845 0.0
C1025 C 0.38809 0.53449 0.31122 0.0
H1026 H 0.60337 0.7094 0.28578 0.0
C1027 C 0.41198 0.50156 0.2789 0.0
C1028 C 0.42384 0.54196 0.29122 0.0
H1029 H 0.50578 0.69994 0.34249 0.0
H1030 H 0.44652 0.62862 0.32605 0.0
H1031 H 0.58144 0.60554 0.28232 0.0
H1032 H 0.52766 0.6811 0.24423 0.0
H1033 H 0.51326 0.6344 0.22503 0.0
H1034 H 0.57434 0.67452 0.23135 0.0
H1035 H 0.61434 0.65413 0.26292 0.0
H1036 H 0.5822 0.5989 0.24982 0.0
C1037 C 0.41045 0.54313 0.33732 0.0
C1038 C 0.36172 0.56083 0.30566 0.0
C1039 C 0.47475 0.47087 0.19939 0.0
C1040 C 0.50991 0.49973 0.1828 0.0
C1041 C 0.53655 0.54609 0.18811 0.0
C1042 C 0.52891 0.56355 0.20992 0.0
C1043 C 0.49393 0.53441 0.22646 0.0
C1044 C 0.46676 0.48907 0.22088 0.0
C1045 C 0.42933 0.46395 0.24009 0.0
C1046 C 0.43774 0.50213 0.25761 0.0
C1047 C 0.47647 0.54293 0.2498 0.0
C1048 C 0.43927 0.42849 0.2526 0.0
C1049 C 0.3806 0.44348 0.22736 0.0
C1050 C 0.56948 0.69169 0.29489 0.0
C1051 C 0.56039 0.70905 0.31647 0.0
C1052 C 0.51478 0.68624 0.32678 0.0
C1053 C 0.48026 0.64488 0.31715 0.0
C1054 C 0.49114 0.6264 0.29675 0.0
C1055 C 0.53428 0.65068 0.28523 0.0
C1056 C 0.53756 0.6275 0.26227 0.0
C1057 C 0.49178 0.58273 0.26399 0.0
C1058 C 0.4649 0.58242 0.28424 0.0
C1059 C 0.58127 0.62116 0.2643 0.0
C1060 C 0.53848 0.65573 0.23951 0.0
H1061 H 0.3574 0.4012 0.27583 0.0
H1062 H 0.29726 0.47552 0.33255 0.0
H1063 H 0.33928 0.54707 0.28895 0.0
H1064 H 0.38599 0.59694 0.30179 0.0
H1065 H 0.3385 0.55815 0.32131 0.0
H1066 H 0.40494 0.51147 0.34618 0.0
H1067 H 0.39561 0.55904 0.34957 0.0
H1068 H 0.44926 0.5648 0.33695 0.0
H1069 H 0.45382 0.43508 0.1956 0.0
H1070 H 0.56394 0.56865 0.17555 0.0
H1071 H 0.55078 0.59896 0.21323 0.0
H1072 H 0.47714 0.43815 0.25122 0.0
H1073 H 0.41842 0.39478 0.2439 0.0
H1074 H 0.43193 0.42551 0.27265 0.0
H1075 H 0.37787 0.46965 0.21628 0.0
H1076 H 0.351 0.42997 0.24049 0.0
H1077 H 0.37524 0.41571 0.21472 0.0
H1078 H 0.2851 0.35613 0.29811 0.0
C1079 C 0.34598 0.4183 0.28828 0.0
Gd1080 Gd 0.51875 0.02217 0.04015 0.0
Gd1081 Gd 0.48981 0.96823 0.9812 0.0
C1082 C 0.37878 0.82158 0.9693 0.0
C1083 C 0.42646 0.78553 0.96363 0.0
C1084 C 0.46403 0.86619 0.97176 0.0
C1085 C 0.42004 0.86325 0.97346 0.0
C1086 C 0.4676 0.82749 0.96624 0.0
C1087 C 0.38217 0.78261 0.96505 0.0
C1088 C 0.33541 0.82061 0.96856 0.0
C1089 C 0.33375 0.86037 0.97213 0.0
N1090 N 0.41759 0.90145 0.97752 0.0
C1091 C 0.37535 0.90069 0.97671 0.0
H1092 H 0.3735 0.93118 0.97916 0.0
C1093 C 0.54684 0.91286 0.96819 0.0
N1094 N 0.50337 0.90742 0.9738 0.0
C1095 C 0.55207 0.87537 0.96304 0.0
C1096 C 0.51235 0.83242 0.96239 0.0
H1097 H 0.57753 0.94604 0.96863 0.0
H1098 H 0.35077 0.75026 0.96215 0.0
H1099 H 0.63522 0.0603 0.04144 0.0
H1100 H 0.3031 0.78949 0.96477 0.0
H1101 H 0.30041 0.86002 0.97126 0.0
H1102 H 0.42854 0.75538 0.95965 0.0
H1103 H 0.43083 0.04304 0.05435 0.0
H1104 H 0.70471 0.20074 0.05882 0.0
H1105 H 0.70783 0.13088 0.05061 0.0
H1106 H 0.57857 0.23329 0.06657 0.0
H1107 H 0.58668 0.87964 0.95945 0.0
H1108 H 0.51648 0.80349 0.95811 0.0
H1109 H 0.65663 0.2393 0.06301 0.0
H1110 H 0.42096 0.10817 0.06558 0.0
N1111 N 0.59067 0.08945 0.04414 0.0
C1112 C 0.67254 0.16984 0.05449 0.0
C1113 C 0.67445 0.13047 0.04992 0.0
C1114 C 0.62908 0.16866 0.05411 0.0
C1115 C 0.58799 0.12717 0.0493 0.0
C1116 C 0.63304 0.09044 0.04461 0.0
N1117 N 0.50495 0.08228 0.04951 0.0
C1118 C 0.54392 0.12357 0.05193 0.0
C1119 C 0.45569 0.113 0.0617 0.0
C1120 C 0.49513 0.15604 0.06298 0.0
C1121 C 0.46135 0.07616 0.05543 0.0
C1122 C 0.54 0.16164 0.05859 0.0
H1123 H 0.49071 0.18448 0.06807 0.0
O1124 O 0.48166 0.00539 0.07541 0.0
O1125 O 0.45747 0.97149 0.01687 0.0
O1126 O 0.44495 0.00019 0.98808 0.0
O1127 O 0.49269 0.05866 0.01419 0.0
O1128 O 0.46681 0.95055 0.05036 0.0
O1129 O 0.55375 0.0183 0.07337 0.0
O1130 O 0.53065 0.98766 0.94737 0.0
O1131 O 0.55058 0.0193 1.00435 0.0
O1132 O 0.5646 0.99188 0.03193 0.0
O1133 O 0.51421 0.93172 1.00801 0.0
O1134 O 0.54033 0.04058 0.97119 0.0
O1135 O 0.45582 0.96508 0.94586 0.0
C1136 C 0.43942 0.93853 0.03168 0.0
C1137 C 0.58092 0.20362 0.06168 0.0
C1138 C 0.62537 0.20706 0.05961 0.0
C1139 C 0.51771 0.00853 0.08764 0.0
C1140 C 0.52803 0.03073 0.11201 0.0
C1141 C 0.55812 0.07744 0.11418 0.0
C1142 C 0.50937 0.00451 0.13356 0.0
C1143 C 0.52136 0.02488 0.15703 0.0
C1144 C 0.56971 0.09771 0.13741 0.0
C1145 C 0.55166 0.07163 0.15873 0.0
C1146 C 0.46087 0.04171 0.99627 0.0
C1147 C 0.56806 0.05256 0.98978 0.0
C1148 C 0.49476 0.97923 0.93325 0.0
C1149 C 0.49239 0.95743 0.90925 0.0
C1150 C 0.49026 0.91532 0.9083 0.0
C1151 C 0.49585 0.9805 0.88696 0.0
C1152 C 0.49857 0.96212 0.86406 0.0
C1153 C 0.49259 0.8969 0.88572 0.0
C1154 C 0.49716 0.92025 0.86376 0.0
C1155 C 0.54717 0.94947 0.02525 0.0
H1156 H 0.57315 0.09816 0.09798 0.0
H1157 H 0.48623 0.96835 0.13211 0.0
H1158 H 0.59306 0.13377 0.13891 0.0
H1159 H 0.56122 0.08794 0.17659 0.0
H1160 H 0.4875 0.89687 0.92494 0.0
H1161 H 0.49769 0.01316 0.88746 0.0
H1162 H 0.49121 0.86449 0.88525 0.0
H1163 H 0.49898 0.90532 0.84646 0.0
Gd1164 Gd 0.97267 0.4828 0.04168 0.0
Gd1165 Gd 0.03501 0.50741 0.9841 0.0
C1166 C 0.15647 0.47953 0.97032 0.0
C1167 C 0.22158 0.55479 0.9621 0.0
C1168 C 0.14352 0.54371 0.97111 0.0
C1169 C 0.12619 0.49771 0.9734 0.0
C1170 C 0.19115 0.57266 0.96484 0.0
C1171 C 0.20426 0.50833 0.96494 0.0
C1172 C 0.13787 0.43291 0.97278 0.0
C1173 C 0.09002 0.40557 0.97785 0.0
N1174 N 0.07995 0.47085 0.97911 0.0
C1175 C 0.06134 0.42509 0.98074 0.0
H1176 H 0.0246 0.40319 0.9848 0.0
C1177 C 0.12752 0.60428 0.96929 0.0
N1178 N 0.11337 0.55998 0.97416 0.0
C1179 C 0.17435 0.63428 0.9629 0.0
C1180 C 0.20649 0.61853 0.96101 0.0
H1181 H 0.10279 0.61661 0.97078 0.0
H1182 H 0.22786 0.49477 0.9627 0.0
H1183 H 0.97386 0.58173 0.04216 0.0
H1184 H 0.16006 0.41771 0.97068 0.0
H1185 H 0.07519 0.36941 0.97962 0.0
H1186 H 0.25839 0.57653 0.95752 0.0
H1187 H 0.91246 0.37107 0.0515 0.0
H1188 H 0.8387 0.5572 0.06678 0.0
H1189 H 0.92025 0.61038 0.05353 0.0
H1190 H 0.75085 0.3965 0.07616 0.0
H1191 H 0.18566 0.66952 0.95955 0.0
H1192 H 0.24278 0.64185 0.95613 0.0
H1193 H 0.77615 0.47734 0.0755 0.0
H1194 H 0.83214 0.31313 0.06376 0.0
N1195 N 0.9224 0.51275 0.04753 0.0
C1196 C 0.86183 0.54434 0.06135 0.0
C1197 C 0.90779 0.57445 0.05382 0.0
C1198 C 0.84607 0.49793 0.06159 0.0
C1199 C 0.87755 0.4829 0.05442 0.0
C1200 C 0.93794 0.55803 0.04716 0.0
N1201 N 0.8963 0.42449 0.05075 0.0
C1202 C 0.86377 0.43734 0.05553 0.0
C1203 C 0.84052 0.34789 0.06144 0.0
C1204 C 0.80623 0.36027 0.06575 0.0
C1205 C 0.88592 0.38076 0.05443 0.0
C1206 C 0.81792 0.40558 0.06338 0.0
H1207 H 0.77133 0.33488 0.07164 0.0
O1208 O 0.98342 0.45646 0.07606 0.0
O1209 O 0.03477 0.48632 0.02274 0.0
O1210 O 0.97472 0.435 0.98571 0.0
O1211 O 0.92111 0.43489 0.01377 0.0
O1212 O 0.99588 0.43015 0.04363 0.0
O1213 O 0.99097 0.5234 0.07515 0.0
O1214 O 0.02726 0.53807 0.95058 0.0
O1215 O 0.97209 0.50519 1.00274 0.0
O1216 O 0.03272 0.5559 0.04 0.0
O1217 O 0.08634 0.55592 0.01177 0.0
O1218 O 0.01882 0.5643 0.98651 0.0
O1219 O 0.01226 0.46871 0.95 0.0
C1220 C 0.03427 0.45145 0.03109 0.0
C1221 C 0.78607 0.4203 0.06986 0.0
C1222 C 0.80036 0.46639 0.06931 0.0
C1223 C 0.99083 0.49175 0.08886 0.0
C1224 C 0.96665 0.48266 0.11286 0.0
C1225 C 0.91822 0.45196 0.11487 0.0
C1226 C 0.99286 0.50264 0.13436 0.0
C1227 C 0.97076 0.49129 0.15756 0.0
C1228 C 0.89609 0.44155 0.13782 0.0
C1229 C 0.92226 0.46086 0.15913 0.0
C1230 C 0.93151 0.41721 0.99475 0.0
C1231 C 0.97712 0.54303 0.996 0.0
C1232 C 0.01592 0.50261 0.93706 0.0
C1233 C 0.03941 0.51073 0.9129 0.0
C1234 C 0.08852 0.53769 0.91073 0.0
C1235 C 0.01209 0.49291 0.8915 0.0
C1236 C 0.03372 0.50291 0.86819 0.0
C1237 C 0.11004 0.54723 0.88761 0.0
C1238 C 0.08277 0.53022 0.86637 0.0
C1239 C 0.07604 0.57362 0.03086 0.0
H1240 H 0.8976 0.43511 0.0989 0.0
H1241 H 0.03051 0.52565 0.13314 0.0
H1242 H 0.85874 0.41771 0.13913 0.0
H1243 H 0.90482 0.45166 0.1769 0.0
H1244 H 0.11034 0.55194 0.92673 0.0
H1245 H 0.97409 0.4722 0.8929 0.0
H1246 H 0.14791 0.56824 0.88614 0.0
H1247 H 0.09988 0.53822 0.8485 0.0
Gd1248 Gd 0.48982 0.50785 0.98302 0.0
Gd1249 Gd 0.52554 0.49022 0.04364 0.0
C1250 C 0.67858 0.52114 0.05137 0.0
C1251 C 0.66865 0.44717 0.06039 0.0
C1252 C 0.59978 0.45659 0.05466 0.0
C1253 C 0.62903 0.50263 0.05063 0.0
C1254 C 0.61956 0.4289 0.0605 0.0
C1255 C 0.69799 0.49309 0.05565 0.0
C1256 C 0.70755 0.56739 0.04754 0.0
C1257 C 0.68726 0.59441 0.04363 0.0
N1258 N 0.6095 0.52915 0.04563 0.0
C1259 C 0.63827 0.57497 0.04299 0.0
H1260 H 0.62491 0.59771 0.0398 0.0
C1261 C 0.52316 0.39608 0.06241 0.0
N1262 N 0.55226 0.43914 0.05401 0.0
C1263 C 0.54119 0.36764 0.06849 0.0
C1264 C 0.58953 0.38381 0.06697 0.0
H1265 H 0.48555 0.38309 0.06379 0.0
H1266 H 0.73581 0.50696 0.05559 0.0
H1267 H 0.38345 0.4165 0.98687 0.0
H1268 H 0.74561 0.58262 0.04782 0.0
H1269 H 0.70942 0.63042 0.04097 0.0
H1270 H 0.68429 0.42619 0.06435 0.0
H1271 H 0.55437 0.61699 0.96623 0.0
H1272 H 0.28126 0.45275 0.96335 0.0
H1273 H 0.30099 0.39489 0.97736 0.0
H1274 H 0.37311 0.61172 0.94842 0.0
H1275 H 0.51773 0.33325 0.07431 0.0
H1276 H 0.60343 0.36165 0.07165 0.0
H1277 H 0.30827 0.53417 0.95382 0.0
H1278 H 0.54126 0.67858 0.95183 0.0
N1279 N 0.40987 0.48622 0.97932 0.0
C1280 C 0.31741 0.4626 0.968 0.0
C1281 C 0.32841 0.42981 0.97582 0.0
C1282 C 0.35308 0.50771 0.96626 0.0
C1283 C 0.39972 0.51858 0.9719 0.0
C1284 C 0.37514 0.44223 0.98133 0.0
N1285 N 0.48134 0.57039 0.97172 0.0
C1286 C 0.43646 0.56215 0.96835 0.0
C1287 C 0.5115 0.64614 0.95661 0.0
C1288 C 0.46564 0.63884 0.95423 0.0
C1289 C 0.51878 0.61114 0.96493 0.0
C1290 C 0.42743 0.5962 0.95955 0.0
H1291 H 0.46011 0.66585 0.94746 0.0
O1292 O 0.53114 0.52039 0.94946 0.0
O1293 O 0.54624 0.50104 1.00379 0.0
O1294 O 0.54616 0.56291 0.03765 0.0
O1295 O 0.49543 0.56346 1.00772 0.0
O1296 O 0.56729 0.55719 0.98197 0.0
O1297 O 0.45779 0.47039 0.94918 0.0
O1298 O 0.48616 0.45465 0.07643 0.0
O1299 O 0.46211 0.47471 0.01966 0.0
O1300 O 0.46657 0.43416 0.98639 0.0
O1301 O 0.49727 0.42339 0.02308 0.0
O1302 O 0.46468 0.50125 0.05345 0.0
O1303 O 0.54663 0.52247 0.07944 0.0
C1304 C 0.58225 0.53479 0.99469 0.0
C1305 C 0.38079 0.58603 0.95514 0.0
C1306 C 0.34377 0.54181 0.95826 0.0
C1307 C 0.4959 0.49205 0.93611 0.0
C1308 C 0.49132 0.50839 0.91155 0.0
C1309 C 0.47911 0.54237 0.90918 0.0
C1310 C 0.50124 0.49124 0.89019 0.0
C1311 C 0.50017 0.50888 0.86678 0.0
C1312 C 0.47815 0.56 0.88607 0.0
C1313 C 0.48899 0.54365 0.86497 0.0
C1314 C 0.52398 0.58172 0.02671 0.0
C1315 C 0.43885 0.48569 0.03419 0.0
C1316 C 0.51298 0.48804 0.09113 0.0
C1317 C 0.5244 0.47715 0.11569 0.0
C1318 C 0.54871 0.45303 0.11853 0.0
C1319 C 0.51114 0.49204 0.13685 0.0
C1320 C 0.52072 0.4816 0.16055 0.0
C1321 C 0.55753 0.44195 0.14203 0.0
C1322 C 0.5433 0.45583 0.16298 0.0
C1323 C 0.47573 0.40901 1.00149 0.0
H1324 H 0.47055 0.55557 0.92506 0.0
H1325 H 0.51047 0.46479 0.89178 0.0
H1326 H 0.46894 0.58641 0.88453 0.0
H1327 H 0.48768 0.5575 0.84715 0.0
H1328 H 0.56142 0.44311 0.1028 0.0
H1329 H 0.49353 0.51184 0.13491 0.0
H1330 H 0.576 0.42302 0.14402 0.0
H1331 H 0.55113 0.44763 0.18108 0.0
Gd1332 Gd 0.18541 0.3555 0.37348 0.0
Gd1333 Gd 0.15647 0.30155 0.31453 0.0
C1334 C 0.04544 0.15491 0.30263 0.0
C1335 C 0.09311 0.11885 0.29697 0.0
C1336 C 0.13069 0.19951 0.30509 0.0
C1337 C 0.0867 0.19657 0.30679 0.0
C1338 C 0.13425 0.16081 0.29957 0.0
C1339 C 0.04882 0.11594 0.29838 0.0
C1340 C 1.00206 0.15393 0.30188 0.0
C1341 C 1.00041 0.1937 0.30546 0.0
N1342 N 0.08425 0.23477 0.31085 0.0
C1343 C 0.04201 0.23402 0.31004 0.0
H1344 H 0.04016 0.26451 0.31249 0.0
C1345 C 0.2135 0.24618 0.30152 0.0
N1346 N 0.17002 0.24074 0.30713 0.0
C1347 C 0.21873 0.20869 0.29637 0.0
C1348 C 0.179 0.16574 0.29572 0.0
H1349 H 0.24418 0.27935 0.30197 0.0
H1350 H 0.01742 0.08358 0.29548 0.0
H1351 H 0.30187 0.39362 0.37477 0.0
H1352 H 0.96975 0.12282 0.29809 0.0
H1353 H 0.96707 0.19335 0.30459 0.0
H1354 H 0.09519 0.0887 0.29298 0.0
H1355 H 0.09749 0.37636 0.38768 0.0
H1356 H 0.37138 0.53406 0.39215 0.0
H1357 H 0.37449 0.4642 0.38394 0.0
H1358 H 0.24523 0.56661 0.3999 0.0
H1359 H 0.25333 0.21295 0.29278 0.0
H1360 H 0.18312 0.13681 0.29144 0.0
H1361 H 0.32329 0.57262 0.39634 0.0
H1362 H 0.08762 0.44149 0.39891 0.0
N1363 N 0.25733 0.42277 0.37747 0.0
C1364 C 0.33921 0.50316 0.38782 0.0
C1365 C 0.34111 0.4638 0.38325 0.0
C1366 C 0.29574 0.50198 0.38744 0.0
C1367 C 0.25465 0.4605 0.38263 0.0
C1368 C 0.2997 0.42376 0.37794 0.0
N1369 N 0.17161 0.41561 0.38284 0.0
C1370 C 0.21059 0.4569 0.38526 0.0
C1371 C 0.12236 0.44633 0.39504 0.0
C1372 C 0.1618 0.48937 0.39631 0.0
C1373 C 0.12802 0.40949 0.38876 0.0
C1374 C 0.20666 0.49497 0.39192 0.0
H1375 H 0.15737 0.51781 0.4014 0.0
O1376 O 0.14833 0.33872 0.40874 0.0
O1377 O 0.12413 0.30481 0.3502 0.0
O1378 O 0.11161 0.33352 0.32141 0.0
O1379 O 0.15935 0.39198 0.34752 0.0
O1380 O 0.13347 0.28388 0.38369 0.0
O1381 O 0.22041 0.35163 0.4067 0.0
O1382 O 0.19731 0.32098 0.2807 0.0
O1383 O 0.21724 0.35262 0.33768 0.0
O1384 O 0.23125 0.3252 0.36526 0.0
O1385 O 0.18087 0.26504 0.34135 0.0
O1386 O 0.207 0.37391 0.30452 0.0
O1387 O 0.12249 0.29841 0.27919 0.0
C1388 C 0.10607 0.27186 0.36501 0.0
C1389 C 0.24758 0.53695 0.395 0.0
C1390 C 0.29203 0.54039 0.39294 0.0
C1391 C 0.18437 0.34185 0.42097 0.0
C1392 C 0.19469 0.36406 0.44534 0.0
C1393 C 0.22478 0.41077 0.44751 0.0
C1394 C 0.17603 0.33784 0.46689 0.0
C1395 C 0.18802 0.35821 0.49036 0.0
C1396 C 0.23636 0.43105 0.47074 0.0
C1397 C 0.21832 0.40496 0.49206 0.0
C1398 C 0.12753 0.37503 0.3296 0.0
C1399 C 0.23473 0.38589 0.32312 0.0
C1400 C 0.16143 0.31256 0.26658 0.0
C1401 C 0.15906 0.29076 0.24259 0.0
C1402 C 0.15693 0.24864 0.24163 0.0
C1403 C 0.16251 0.31383 0.22029 0.0
C1404 C 0.16523 0.29545 0.19739 0.0
C1405 C 0.15925 0.23023 0.21905 0.0
C1406 C 0.16383 0.25358 0.19709 0.0
C1407 C 0.21383 0.28279 0.35858 0.0
H1408 H 0.23981 0.43149 0.43131 0.0
H1409 H 0.1529 0.30167 0.46544 0.0
H1410 H 0.25972 0.4671 0.47224 0.0
H1411 H 0.22788 0.42128 0.50992 0.0
H1412 H 0.15416 0.23019 0.25827 0.0
H1413 H 0.16436 0.34649 0.22079 0.0
H1414 H 0.15787 0.19781 0.21858 0.0
H1415 H 0.16564 0.23864 0.1798 0.0
Gd1416 Gd 0.63933 0.81611 0.37501 0.0
Gd1417 Gd 0.70168 0.84073 0.31743 0.0
C1418 C 0.82314 0.81286 0.30364 0.0
C1419 C 0.88825 0.88812 0.29543 0.0
C1420 C 0.81018 0.87703 0.30444 0.0
C1421 C 0.79286 0.83104 0.30673 0.0
C1422 C 0.85782 0.90599 0.29817 0.0
C1423 C 0.87093 0.84166 0.29826 0.0
C1424 C 0.80454 0.76624 0.30611 0.0
C1425 C 0.7567 0.73889 0.31118 0.0
N1426 N 0.74662 0.80418 0.31244 0.0
C1427 C 0.72801 0.75841 0.31407 0.0
H1428 H 0.69127 0.73652 0.31813 0.0
C1429 C 0.79418 0.93761 0.30262 0.0
N1430 N 0.78004 0.89331 0.3075 0.0
C1431 C 0.84102 0.96761 0.29624 0.0
C1432 C 0.87316 0.95186 0.29435 0.0
H1433 H 0.76945 0.94993 0.30411 0.0
H1434 H 0.89453 0.8281 0.29603 0.0
H1435 H 0.64052 0.91504 0.3755 0.0
H1436 H 0.82673 0.75104 0.304 0.0
H1437 H 0.74186 0.70273 0.31294 0.0
H1438 H 0.92506 0.90986 0.29085 0.0
H1439 H 0.57912 0.70438 0.38482 0.0
H1440 H 0.50537 0.89051 0.40011 0.0
H1441 H 0.58691 0.94369 0.38686 0.0
H1442 H 0.41751 0.7298 0.40949 0.0
H1443 H 0.85232 0.00284 0.29289 0.0
H1444 H 0.90945 0.97518 0.28946 0.0
H1445 H 0.44281 0.81064 0.40883 0.0
H1446 H 0.4988 0.64644 0.39708 0.0
N1447 N 0.58906 0.84606 0.38086 0.0
C1448 C 0.5285 0.87765 0.39468 0.0
C1449 C 0.57446 0.90776 0.38716 0.0
C1450 C 0.51273 0.83124 0.39492 0.0
C1451 C 0.54421 0.81621 0.38775 0.0
C1452 C 0.6046 0.89134 0.38049 0.0
N1453 N 0.56296 0.7578 0.38408 0.0
C1454 C 0.53043 0.77065 0.38886 0.0
C1455 C 0.50718 0.6812 0.39476 0.0
C1456 C 0.47289 0.69358 0.39908 0.0
C1457 C 0.55258 0.71407 0.38775 0.0
C1458 C 0.48458 0.73888 0.39671 0.0
H1459 H 0.43799 0.66818 0.40496 0.0
O1460 O 0.65008 0.78976 0.40938 0.0
O1461 O 0.70143 0.81964 0.35607 0.0
O1462 O 0.64139 0.76832 0.31904 0.0
O1463 O 0.58777 0.76821 0.34709 0.0
O1464 O 0.66255 0.76346 0.37696 0.0
O1465 O 0.65763 0.8567 0.40848 0.0
O1466 O 0.69392 0.87139 0.28391 0.0
O1467 O 0.63876 0.8385 0.33607 0.0
O1468 O 0.69938 0.88921 0.37333 0.0
O1469 O 0.75301 0.88924 0.34511 0.0
O1470 O 0.68549 0.89762 0.31984 0.0
O1471 O 0.67894 0.80204 0.28333 0.0
C1472 C 0.70093 0.78477 0.36442 0.0
C1473 C 0.45273 0.75361 0.40319 0.0
C1474 C 0.46702 0.79969 0.40264 0.0
C1475 C 0.65749 0.82506 0.42219 0.0
C1476 C 0.6333 0.81596 0.44619 0.0
C1477 C 0.58488 0.78525 0.4482 0.0
C1478 C 0.65951 0.83594 0.46769 0.0
C1479 C 0.63742 0.82459 0.49089 0.0
C1480 C 0.56274 0.77484 0.47115 0.0
C1481 C 0.58891 0.79416 0.49246 0.0
C1482 C 0.59818 0.75053 0.32807 0.0
C1483 C 0.64378 0.87634 0.32933 0.0
C1484 C 0.68259 0.83594 0.27039 0.0
C1485 C 0.70608 0.84407 0.24623 0.0
C1486 C 0.75519 0.87104 0.24406 0.0
C1487 C 0.67876 0.82625 0.22483 0.0
C1488 C 0.70039 0.83627 0.20152 0.0
C1489 C 0.77671 0.8806 0.22094 0.0
C1490 C 0.74943 0.86359 0.1997 0.0
C1491 C 0.7427 0.90694 0.36419 0.0
H1492 H 0.56426 0.7684 0.43223 0.0
H1493 H 0.69716 0.85895 0.46647 0.0
H1494 H 0.5254 0.751 0.47246 0.0
H1495 H 0.57147 0.78496 0.51023 0.0
H1496 H 0.77701 0.88529 0.26006 0.0
H1497 H 0.64076 0.80553 0.22624 0.0
H1498 H 0.81458 0.90162 0.21947 0.0
H1499 H 0.76654 0.8716 0.18183 0.0
Gd1500 Gd 0.15649 0.84118 0.31635 0.0
Gd1501 Gd 0.19221 0.82355 0.37698 0.0
C1502 C 0.34524 0.85445 0.3847 0.0
C1503 C 0.3353 0.78048 0.39373 0.0
C1504 C 0.26644 0.78991 0.38799 0.0
C1505 C 0.2957 0.83595 0.38397 0.0
C1506 C 0.28622 0.76221 0.39384 0.0
C1507 C 0.36465 0.8264 0.38899 0.0
C1508 C 0.37421 0.9007 0.38088 0.0
C1509 C 0.35394 0.92773 0.37696 0.0
N1510 N 0.27617 0.86248 0.37897 0.0
C1511 C 0.30494 0.90829 0.37632 0.0
H1512 H 0.29158 0.93103 0.37313 0.0
C1513 C 0.18981 0.7294 0.39575 0.0
N1514 N 0.21892 0.77247 0.38735 0.0
C1515 C 0.20784 0.70096 0.40183 0.0
C1516 C 0.25618 0.71712 0.40032 0.0
H1517 H 0.1522 0.71642 0.39713 0.0
H1518 H 0.40247 0.84026 0.38892 0.0
H1519 H 0.05012 0.74983 0.32021 0.0
H1520 H 0.41228 0.91593 0.38116 0.0
H1521 H 0.3761 0.96374 0.37431 0.0
H1522 H 0.35093 0.7595 0.39768 0.0
H1523 H 0.22104 0.95033 0.29957 0.0
H1524 H 0.94793 0.78608 0.29668 0.0
H1525 H 0.96766 0.72822 0.31069 0.0
H1526 H 0.03978 0.94506 0.28175 0.0
H1527 H 0.18438 0.66657 0.40766 0.0
H1528 H 0.27008 0.69497 0.40499 0.0
H1529 H 0.97495 0.86751 0.28715 0.0
H1530 H 0.20793 0.01191 0.28517 0.0
N1531 N 0.07654 0.81955 0.31266 0.0
C1532 C 0.98408 0.79594 0.30133 0.0
C1533 C 0.99508 0.76314 0.30916 0.0
C1534 C 0.01975 0.84104 0.29959 0.0
C1535 C 0.06639 0.85191 0.30523 0.0
C1536 C 0.04181 0.77556 0.31466 0.0
N1537 N 0.14801 0.90372 0.30505 0.0
C1538 C 0.10313 0.89548 0.30169 0.0
C1539 C 0.17818 0.97947 0.28995 0.0
C1540 C 0.13231 0.97217 0.28757 0.0
C1541 C 0.18545 0.94447 0.29827 0.0
C1542 C 0.0941 0.92953 0.29289 0.0
H1543 H 0.12678 -0.00082 0.2808 0.0
O1544 O 0.19781 0.85372 0.28279 0.0
O1545 O 0.21291 0.83437 0.33712 0.0
O1546 O 0.21284 0.89624 0.37098 0.0
O1547 O 0.1621 0.89679 0.34105 0.0
O1548 O 0.23396 0.89052 0.31531 0.0
O1549 O 0.12446 0.80372 0.28252 0.0
O1550 O 0.15283 0.78799 0.40977 0.0
O1551 O 0.12878 0.80804 0.353 0.0
O1552 O 0.13324 0.76749 0.31973 0.0
O1553 O 0.16395 0.75672 0.35642 0.0
O1554 O 0.13135 0.83458 0.38679 0.0
O1555 O 0.2133 0.85581 0.41278 0.0
C1556 C 0.24892 0.86812 0.32802 0.0
C1557 C 0.04746 0.91936 0.28847 0.0
C1558 C 0.01044 0.87514 0.2916 0.0
C1559 C 0.16257 0.82538 0.26945 0.0
C1560 C 0.15799 0.84172 0.24489 0.0
C1561 C 0.14578 0.8757 0.24251 0.0
C1562 C 0.16791 0.82457 0.22352 0.0
C1563 C 0.16685 0.84221 0.20011 0.0
C1564 C 0.14482 0.89333 0.21941 0.0
C1565 C 0.15566 0.87698 0.1983 0.0
C1566 C 0.19065 0.91505 0.36004 0.0
C1567 C 0.10552 0.81902 0.36752 0.0
C1568 C 0.17965 0.82139 0.42447 0.0
C1569 C 0.19107 0.81049 0.44902 0.0
C1570 C 0.21539 0.78638 0.45186 0.0
C1571 C 0.17782 0.82539 0.47018 0.0
C1572 C 0.1874 0.81495 0.49388 0.0
C1573 C 0.22421 0.7753 0.47537 0.0
C1574 C 0.20998 0.78918 0.49631 0.0
C1575 C 0.14241 0.74234 0.33483 0.0
H1576 H 0.13722 0.8889 0.2584 0.0
H1577 H 0.17714 0.79812 0.22511 0.0
H1578 H 0.13561 0.91974 0.21787 0.0
H1579 H 0.15436 0.89084 0.18049 0.0
H1580 H 0.22809 0.77645 0.43614 0.0
H1581 H 0.16021 0.84519 0.46825 0.0
H1582 H 0.24268 0.75637 0.47735 0.0
H1583 H 0.21781 0.78097 0.51442 0.0
Gd1584 Gd 0.85209 0.68883 0.70682 0.0
Gd1585 Gd 0.82315 0.63488 0.64787 0.0
C1586 C 0.7121 0.48823 0.63597 0.0
C1587 C 0.75978 0.45217 0.6303 0.0
C1588 C 0.79736 0.53284 0.63842 0.0
C1589 C 0.75337 0.5299 0.64013 0.0
C1590 C 0.80092 0.49414 0.6329 0.0
C1591 C 0.71549 0.44927 0.63171 0.0
C1592 C 0.66873 0.48726 0.63522 0.0
C1593 C 0.66708 0.52703 0.63879 0.0
N1594 N 0.75092 0.5681 0.64419 0.0
C1595 C 0.70869 0.56735 0.64338 0.0
H1596 H 0.70684 0.59785 0.64582 0.0
C1597 C 0.88017 0.5795 0.63486 0.0
N1598 N 0.83669 0.57406 0.64047 0.0
C1599 C 0.88539 0.54201 0.62971 0.0
C1600 C 0.84567 0.49906 0.62906 0.0
H1601 H 0.91085 0.61267 0.6353 0.0
H1602 H 0.68408 0.41691 0.62881 0.0
H1603 H 0.96855 0.72694 0.70811 0.0
H1604 H 0.63642 0.45615 0.63143 0.0
H1605 H 0.63374 0.52669 0.63792 0.0
H1606 H 0.76185 0.42203 0.62631 0.0
H1607 H 0.76417 0.7097 0.72101 0.0
H1608 H 0.03806 0.86738 0.72549 0.0
H1609 H 0.04117 0.79752 0.71728 0.0
H1610 H 0.91192 0.89994 0.73324 0.0
H1611 H 0.91999 0.54627 0.62612 0.0
H1612 H 0.84979 0.47013 0.62478 0.0
H1613 H 0.98997 0.90595 0.72968 0.0
H1614 H 0.7543 0.77484 0.73223 0.0
N1615 N 0.924 0.75609 0.71081 0.0
C1616 C 1.00589 0.83648 0.72116 0.0
C1617 C 0.00779 0.79712 0.71659 0.0
C1618 C 0.96242 0.83531 0.72078 0.0
C1619 C 0.92133 0.79383 0.71597 0.0
C1620 C 0.96638 0.75708 0.71128 0.0
N1621 N 0.83829 0.74894 0.71617 0.0
C1622 C 0.87727 0.79023 0.71859 0.0
C1623 C 0.78904 0.77967 0.72836 0.0
C1624 C 0.82848 0.82271 0.72964 0.0
C1625 C 0.79469 0.74282 0.72209 0.0
C1626 C 0.87334 0.8283 0.72525 0.0
H1627 H 0.82406 0.85115 0.73472 0.0
O1628 O 0.815 0.67205 0.74208 0.0
O1629 O 0.79081 0.63814 0.68354 0.0
O1630 O 0.77829 0.66685 0.65475 0.0
O1631 O 0.82604 0.72532 0.68085 0.0
O1632 O 0.80014 0.61721 0.71703 0.0
O1633 O 0.88708 0.68496 0.74004 0.0
O1634 O 0.86398 0.65431 0.61404 0.0
O1635 O 0.88392 0.68594 0.67102 0.0
O1636 O 0.89792 0.65852 0.6986 0.0
O1637 O 0.84753 0.59837 0.67468 0.0
O1638 O 0.87368 0.70723 0.63786 0.0
O1639 O 0.78916 0.63173 0.61253 0.0
C1640 C 0.77274 0.60519 0.69835 0.0
C1641 C 0.91427 0.87028 0.72834 0.0
C1642 C 0.95871 0.87371 0.72627 0.0
C1643 C 0.85104 0.67519 0.7543 0.0
C1644 C 0.86135 0.69739 0.77868 0.0
C1645 C 0.89145 0.7441 0.78084 0.0
C1646 C 0.8427 0.67117 0.80023 0.0
C1647 C 0.85469 0.69155 0.8237 0.0
C1648 C 0.90304 0.76438 0.80408 0.0
C1649 C 0.88499 0.7383 0.8254 0.0
C1650 C 0.79422 0.70837 0.66293 0.0
C1651 C 0.9014 0.71921 0.65645 0.0
C1652 C 0.8281 0.64588 0.59992 0.0
C1653 C 0.82573 0.62408 0.57592 0.0
C1654 C 0.8236 0.58197 0.57496 0.0
C1655 C 0.82918 0.64715 0.55363 0.0
C1656 C 0.8319 0.62877 0.53073 0.0
C1657 C 0.82592 0.56355 0.55238 0.0
C1658 C 0.83049 0.5869 0.53043 0.0
C1659 C 0.88049 0.61611 0.69192 0.0
H1660 H 0.90648 0.76482 0.76464 0.0
H1661 H 0.81956 0.63501 0.79878 0.0
H1662 H 0.92639 0.80043 0.80557 0.0
H1663 H 0.89455 0.75461 0.84326 0.0
H1664 H 0.82083 0.56352 0.59161 0.0
H1665 H 0.83103 0.67982 0.55413 0.0
H1666 H 0.82454 0.53114 0.55192 0.0
H1667 H 0.83231 0.57197 0.51313 0.0
Gd1668 Gd 0.30599 0.14945 0.70835 0.0
Gd1669 Gd 0.36833 0.17407 0.65077 0.0
C1670 C 0.4898 0.1462 0.63697 0.0
C1671 C 0.5549 0.22146 0.62876 0.0
C1672 C 0.47684 0.21037 0.63777 0.0
C1673 C 0.45952 0.16438 0.64006 0.0
C1674 C 0.52447 0.23933 0.6315 0.0
C1675 C 0.53759 0.175 0.63159 0.0
C1676 C 0.4712 0.09958 0.63944 0.0
C1677 C 0.42335 0.07223 0.64451 0.0
N1678 N 0.41328 0.13752 0.64577 0.0
C1679 C 0.39467 0.09175 0.6474 0.0
H1680 H 0.35792 0.06986 0.65146 0.0
C1681 C 0.46084 0.27095 0.63596 0.0
N1682 N 0.44669 0.22665 0.64083 0.0
C1683 C 0.50768 0.30095 0.62957 0.0
C1684 C 0.53982 0.2852 0.62768 0.0
H1685 H 0.43611 0.28328 0.63745 0.0
H1686 H 0.56118 0.16144 0.62936 0.0
H1687 H 0.30717 0.24837 0.70883 0.0
H1688 H 0.49339 0.08437 0.63733 0.0
H1689 H 0.40851 0.03607 0.64627 0.0
H1690 H 0.59172 0.2432 0.62418 0.0
H1691 H 0.24578 0.03771 0.71815 0.0
H1692 H 0.17202 0.22383 0.73347 0.0
H1693 H 0.25356 0.27701 0.72021 0.0
H1694 H 0.08419 0.06313 0.74287 0.0
H1695 H 0.51898 0.33619 0.62622 0.0
H1696 H 0.5761 0.30852 0.62279 0.0
H1697 H 0.10948 0.14397 0.74221 0.0
H1698 H 0.16548 0.97978 0.73043 0.0
N1699 N 0.25571 0.17939 0.71419 0.0
C1700 C 0.19515 0.21097 0.72803 0.0
C1701 C 0.2411 0.24109 0.7205 0.0
C1702 C 0.17939 0.16457 0.72827 0.0
C1703 C 0.21087 0.14954 0.7211 0.0
C1704 C 0.27125 0.22467 0.71383 0.0
N1705 N 0.22962 0.09113 0.71742 0.0
C1706 C 0.19709 0.10398 0.72221 0.0
C1707 C 0.17385 0.01453 0.7281 0.0
C1708 C 0.13957 0.02691 0.73243 0.0
C1709 C 0.21925 0.0474 0.72109 0.0
C1710 C 0.15125 0.07221 0.73006 0.0
H1711 H 0.10467 0.00151 0.73832 0.0
O1712 O 0.31675 0.12311 0.74272 0.0
O1713 O 0.36809 0.15298 0.68941 0.0
O1714 O 0.30804 0.10166 0.65237 0.0
O1715 O 0.25443 0.10155 0.68043 0.0
O1716 O 0.32921 0.0968 0.71029 0.0
O1717 O 0.32429 0.19005 0.74182 0.0
O1718 O 0.36058 0.20474 0.61725 0.0
O1719 O 0.30541 0.17184 0.66941 0.0
O1720 O 0.36604 0.22255 0.70666 0.0
O1721 O 0.41966 0.22258 0.67844 0.0
O1722 O 0.35215 0.23096 0.65318 0.0
O1723 O 0.34559 0.13538 0.61666 0.0
C1724 C 0.36759 0.11811 0.69775 0.0
C1725 C 0.11941 0.08693 0.73656 0.0
C1726 C 0.13369 0.13302 0.73601 0.0
C1727 C 0.32416 0.1584 0.75552 0.0
C1728 C 0.29997 0.14931 0.77953 0.0
C1729 C 0.25155 0.11859 0.78154 0.0
C1730 C 0.32619 0.1693 0.80102 0.0
C1731 C 0.3041 0.15794 0.82422 0.0
C1732 C 0.22942 0.10818 0.80449 0.0
C1733 C 0.25559 0.1275 0.8258 0.0
C1734 C 0.26483 0.08387 0.66141 0.0
C1735 C 0.31044 0.20968 0.66267 0.0
C1736 C 0.34924 0.16928 0.60373 0.0
C1737 C 0.37273 0.17741 0.57957 0.0
C1738 C 0.42185 0.20438 0.5774 0.0
C1739 C 0.34541 0.15959 0.55817 0.0
C1740 C 0.36705 0.16961 0.53486 0.0
C1741 C 0.44336 0.21394 0.55427 0.0
C1742 C 0.41609 0.19692 0.53303 0.0
C1743 C 0.40936 0.24028 0.69753 0.0
H1744 H 0.23094 0.10173 0.76557 0.0
H1745 H 0.36383 0.19231 0.7998 0.0
H1746 H 0.19208 0.08433 0.8058 0.0
H1747 H 0.23816 0.11829 0.84357 0.0
H1748 H 0.44367 0.21864 0.59339 0.0
H1749 H 0.30742 0.13887 0.55957 0.0
H1750 H 0.48124 0.23496 0.55281 0.0
H1751 H 0.4332 0.20493 0.51517 0.0
Gd1752 Gd 0.82314 0.1745 0.64967 0.0
Gd1753 Gd 0.85885 0.15689 0.7103 0.0
C1754 C 0.01179 0.18753 0.71802 0.0
C1755 C 1.00171 0.11352 0.72706 0.0
C1756 C 0.93294 0.12308 0.72132 0.0
C1757 C 0.96226 0.1691 0.71729 0.0
C1758 C 0.95264 0.09532 0.72718 0.0
C1759 C 0.03112 0.15942 0.7223 0.0
C1760 C 0.04083 0.23377 0.7142 0.0
C1761 C 0.02062 0.26087 0.7103 0.0
N1762 N 0.9428 0.19569 0.7123 0.0
C1763 C 0.97163 0.2415 0.70966 0.0
H1764 H 0.95832 0.26428 0.70649 0.0
C1765 C 0.85626 0.06267 0.72911 0.0
N1766 N 0.88543 0.10571 0.72069 0.0
C1767 C 0.87422 0.03418 0.73522 0.0
C1768 C 0.92254 0.05026 0.73368 0.0
H1769 H 0.81866 0.04975 0.73049 0.0
H1770 H 0.06893 0.17322 0.72222 0.0
H1771 H 0.71677 0.08316 0.65352 0.0
H1772 H 0.07889 0.24895 0.71447 0.0
H1773 H 0.04283 0.29687 0.70765 0.0
H1774 H 0.0173 0.09249 0.73102 0.0
H1775 H 0.88769 0.28366 0.63289 0.0
H1776 H 0.61458 0.11943 0.63001 0.0
H1777 H 0.63431 0.06155 0.64401 0.0
H1778 H 0.70644 0.2784 0.61509 0.0
H1779 H 0.85072 -0.00019 0.74106 0.0
H1780 H 0.93639 0.02806 0.73837 0.0
H1781 H 0.6416 0.20085 0.62048 0.0
H1782 H 0.87459 0.34525 0.6185 0.0
N1783 N 0.74319 0.15288 0.64598 0.0
C1784 C 0.65073 0.12927 0.63466 0.0
C1785 C 0.66172 0.09647 0.64248 0.0
C1786 C 0.6864 0.17438 0.63292 0.0
C1787 C 0.73305 0.18525 0.63856 0.0
C1788 C 0.70846 0.1089 0.64798 0.0
N1789 N 0.81466 0.23706 0.63838 0.0
C1790 C 0.76978 0.22881 0.63501 0.0
C1791 C 0.84483 0.3128 0.62327 0.0
C1792 C 0.79897 0.30551 0.6209 0.0
C1793 C 0.8521 0.2778 0.6316 0.0
C1794 C 0.76075 0.26287 0.62622 0.0
H1795 H 0.79344 0.33252 0.61413 0.0
O1796 O 0.86446 0.18704 0.61611 0.0
O1797 O 0.87956 0.16771 0.67044 0.0
O1798 O 0.87956 0.22959 0.70427 0.0
O1799 O 0.82875 0.23011 0.67438 0.0
O1800 O 0.90061 0.22384 0.64862 0.0
O1801 O 0.7911 0.13705 0.61584 0.0
O1802 O 0.81946 0.12142 0.74311 0.0
O1803 O 0.79542 0.14136 0.68632 0.0
O1804 O 0.79989 0.10082 0.65305 0.0
O1805 O 0.83066 0.09008 0.68973 0.0
O1806 O 0.79799 0.16792 0.7201 0.0
O1807 O 0.88002 0.1892 0.74608 0.0
C1808 C 0.91557 0.20146 0.66134 0.0
C1809 C 0.71411 0.2527 0.6218 0.0
C1810 C 0.6771 0.20848 0.62493 0.0
C1811 C 0.82921 0.1587 0.60276 0.0
C1812 C 0.82463 0.17505 0.57821 0.0
C1813 C 0.81244 0.20904 0.57584 0.0
C1814 C 0.83455 0.1579 0.55684 0.0
C1815 C 0.83349 0.17554 0.53344 0.0
C1816 C 0.81147 0.22666 0.55273 0.0
C1817 C 0.82231 0.21032 0.53162 0.0
C1818 C 0.85734 0.24839 0.69335 0.0
C1819 C 0.77216 0.15234 0.70084 0.0
C1820 C 0.84634 0.15481 0.75779 0.0
C1821 C 0.85775 0.14391 0.78234 0.0
C1822 C 0.88206 0.11979 0.78518 0.0
C1823 C 0.84449 0.15879 0.8035 0.0
C1824 C 0.85405 0.14834 0.8272 0.0
C1825 C 0.89086 0.10869 0.80869 0.0
C1826 C 0.87662 0.12256 0.82963 0.0
C1827 C 0.8091 0.07568 0.66815 0.0
H1828 H 0.80387 0.22223 0.59172 0.0
H1829 H 0.84378 0.13145 0.55843 0.0
H1830 H 0.80227 0.25308 0.55119 0.0
H1831 H 0.82101 0.22418 0.51381 0.0
H1832 H 0.89477 0.10987 0.76946 0.0
H1833 H 0.82688 0.1786 0.80157 0.0
H1834 H 0.90933 0.08976 0.81067 0.0
H1835 H 0.88444 0.11434 0.84773 0.0
loop_
_geom_bond_atom_site_label_1
_geom_bond_atom_site_label_2
_geom_bond_distance
_geom_bond_site_symmetry_2
_ccdc_geom_bond_type
C0 C1 1.391 . S
C0 C4 1.391 . S
C0 H42 0.948 . S
C1 C0 1.391 . S
C1 C2 1.391 . S
C2 C1 1.391 . S
C2 H58 0.947 . S
C2 C59 1.392 . S
C3 C4 1.391 . S
C3 C7 1.397 . S
C3 C59 1.419 . S
C4 C0 1.391 . S
C4 C3 1.391 . S
C4 C5 1.399 . S
C5 C4 1.399 . S
C5 C8 1.396 . S
C5 C17 1.453 . S
C5 C18 1.684 . S
H6 C30 0.948 . S
C7 C3 1.397 . S
C7 C8 1.394 . S
C7 C26 1.723 . S
C8 C5 1.396 . S
C8 C7 1.394 . S
C8 C38 1.723 . S
H9 C32 0.946 1_565 S
H10 C33 0.948 . S
H11 C39 0.982 . S
H12 C40 0.980 1_565 S
H13 C40 0.982 . S
H14 C40 0.976 1_565 S
H15 C39 0.979 . S
H16 C39 0.977 . S
C17 C5 1.453 . S
C17 H46 0.982 . S
C17 H47 0.979 . S
C17 H48 0.977 . S
C18 C5 1.684 . S
C18 H43 0.979 . S
C18 H44 0.980 . S
C18 H45 0.983 . S
C19 C20 1.391 . S
C19 C24 1.391 . S
C19 H49 0.948 . S
C20 C19 1.391 . S
C20 C21 1.391 . S
C21 C20 1.391 . S
C21 C22 1.392 . S
C21 H50 0.947 . S
C22 C21 1.392 . S
C22 C23 1.419 . S
C22 H51 0.948 . S
C23 C22 1.419 . S
C23 C24 1.391 . S
C23 C27 1.397 . S
C24 C19 1.391 . S
C24 C23 1.391 . S
C24 C25 1.399 . S
C25 C24 1.399 . S
C25 C26 1.396 . S
C25 C28 1.453 . S
C25 C29 1.684 . S
C26 C7 1.723 . S
C26 C25 1.396 . S
C26 C27 1.394 . S
C27 C23 1.397 . S
C27 C26 1.394 . S
C27 C37 1.723 . S
C28 C25 1.453 . S
C28 H52 0.982 . S
C28 H53 0.979 . S
C28 H54 0.977 . S
C29 C25 1.684 . S
C29 H55 0.979 . S
C29 H56 0.980 . S
C29 H57 0.983 . S
C30 H6 0.948 . S
C30 C31 1.391 . S
C30 C35 1.391 1_565 S
C31 C30 1.391 . S
C31 C32 1.378 1_565 S
C32 H9 0.946 1_545 S
C32 C31 1.378 1_545 S
C32 C33 1.407 . S
C33 H10 0.948 . S
C33 C32 1.407 . S
C33 C34 1.419 . S
C34 C33 1.419 . S
C34 C35 1.391 . S
C34 C38 1.397 . S
C35 C30 1.391 1_545 S
C35 C34 1.391 . S
C35 C36 1.399 . S
C36 C35 1.399 . S
C36 C37 1.396 . S
C36 C39 1.453 . S
C36 C40 1.687 . S
C37 C27 1.723 . S
C37 C36 1.396 . S
C37 C38 1.394 . S
C38 C8 1.723 . S
C38 C34 1.397 . S
C38 C37 1.394 . S
C39 H11 0.982 . S
C39 H15 0.979 . S
C39 H16 0.977 . S
C39 C36 1.453 . S
C40 H12 0.980 1_545 S
C40 H13 0.982 . S
C40 H14 0.976 1_545 S
C40 C36 1.687 . S
H41 C59 0.948 . S
H42 C0 0.948 . S
H43 C18 0.979 . S
H44 C18 0.980 . S
H45 C18 0.983 . S
H46 C17 0.982 . S
H47 C17 0.979 . S
H48 C17 0.977 . S
H49 C19 0.948 . S
H50 C21 0.947 . S
H51 C22 0.948 . S
H52 C28 0.982 . S
H53 C28 0.979 . S
H54 C28 0.977 . S
H55 C29 0.979 . S
H56 C29 0.980 . S
H57 C29 0.983 . S
H58 C2 0.947 . S
C59 C2 1.392 . S
C59 C3 1.419 . S
C59 H41 0.948 . S
C60 C61 1.391 . S
C60 C64 1.391 1_455 S
C60 H102 0.948 . S
C61 C60 1.391 . S
C61 C62 1.391 . S
C62 C61 1.391 . S
C62 H118 0.947 . S
C62 C119 1.376 1_455 S
C63 C64 1.391 . S
C63 C67 1.397 . S
C63 C119 1.426 . S
C64 C60 1.391 1_655 S
C64 C63 1.391 . S
C64 C65 1.399 . S
C65 C64 1.399 . S
C65 C68 1.396 . S
C65 C77 1.453 . S
C65 C78 1.684 . S
H66 C90 0.948 . S
C67 C63 1.397 . S
C67 C68 1.394 . S
C67 C86 1.723 . S
C68 C65 1.396 . S
C68 C67 1.394 . S
C68 C98 1.723 . S
H69 C92 0.939 1_565 S
H70 C93 0.948 . S
H71 C99 0.982 . S
H72 C100 0.979 . S
H73 C100 0.980 . S
H74 C100 0.983 . S
H75 C99 0.979 1_565 S
H76 C99 0.977 . S
C77 C65 1.453 . S
C77 H106 0.982 . S
C77 H107 0.979 . S
C77 H108 0.977 . S
C78 C65 1.684 . S
C78 H103 0.979 . S
C78 H104 0.980 . S
C78 H105 0.983 . S
C79 C80 1.391 . S
C79 C84 1.391 . S
C79 H109 0.948 . S
C80 C79 1.391 . S
C80 C81 1.391 . S
C81 C80 1.391 . S
C81 C82 1.392 . S
C81 H110 0.947 . S
C82 C81 1.392 . S
C82 C83 1.419 . S
C82 H111 0.948 . S
C83 C82 1.419 . S
C83 C84 1.391 . S
C83 C87 1.397 . S
C84 C79 1.391 . S
C84 C83 1.391 . S
C84 C85 1.399 . S
C85 C84 1.399 . S
C85 C86 1.396 . S
C85 C88 1.453 . S
C85 C89 1.684 . S
C86 C67 1.723 . S
C86 C85 1.396 . S
C86 C87 1.394 . S
C87 C83 1.397 . S
C87 C86 1.394 . S
C87 C97 1.723 . S
C88 C85 1.453 . S
C88 H112 0.982 . S
C88 H113 0.979 . S
C88 H114 0.977 . S
C89 C85 1.684 . S
C89 H115 0.979 . S
C89 H116 0.980 . S
C89 H117 0.983 . S
C90 H66 0.948 . S
C90 C91 1.391 . S
C90 C95 1.391 1_565 S
C91 C90 1.391 . S
C91 C92 1.382 1_565 S
C92 H69 0.939 1_545 S
C92 C91 1.382 1_545 S
C92 C93 1.410 . S
C93 H70 0.948 . S
C93 C92 1.410 . S
C93 C94 1.419 . S
C94 C93 1.419 . S
C94 C95 1.391 . S
C94 C98 1.397 . S
C95 C90 1.391 1_545 S
C95 C94 1.391 . S
C95 C96 1.399 . S
C96 C95 1.399 . S
C96 C97 1.396 . S
C96 C99 1.453 . S
C96 C100 1.684 . S
C97 C87 1.723 . S
C97 C96 1.396 . S
C97 C98 1.394 . S
C98 C68 1.723 . S
C98 C94 1.397 . S
C98 C97 1.394 . S
C99 H71 0.982 . S
C99 H75 0.979 1_545 S
C99 H76 0.977 . S
C99 C96 1.453 . S
C100 H72 0.979 . S
C100 H73 0.980 . S
C100 H74 0.983 . S
C100 C96 1.684 . S
H101 C119 0.956 . S
H102 C60 0.948 . S
H103 C78 0.979 . S
H104 C78 0.980 . S
H105 C78 0.983 . S
H106 C77 0.982 . S
H107 C77 0.979 . S
H108 C77 0.977 . S
H109 C79 0.948 . S
H110 C81 0.947 . S
H111 C82 0.948 . S
H112 C88 0.982 . S
H113 C88 0.979 . S
H114 C88 0.977 . S
H115 C89 0.979 . S
H116 C89 0.980 . S
H117 C89 0.983 . S
H118 C62 0.947 . S
C119 C62 1.376 1_655 S
C119 C63 1.426 . S
C119 H101 0.956 . S
C120 C121 1.391 . S
C120 C124 1.391 1_455 S
C120 H162 0.948 . S
C121 C120 1.391 . S
C121 C122 1.391 . S
C122 C121 1.391 . S
C122 H178 0.947 . S
C122 C179 1.392 . S
C123 C124 1.391 . S
C123 C127 1.397 . S
C123 C179 1.419 1_655 S
C124 C120 1.391 1_655 S
C124 C123 1.391 . S
C124 C125 1.399 . S
C125 C124 1.399 . S
C125 C128 1.396 . S
C125 C137 1.453 . S
C125 C138 1.684 . S
H126 C150 0.948 . S
C127 C123 1.397 . S
C127 C128 1.394 . S
C127 C146 1.723 . S
C128 C125 1.396 . S
C128 C127 1.394 . S
C128 C158 1.723 . S
H129 C152 0.947 . S
H130 C153 0.948 . S
H131 C159 0.982 . S
H132 C160 0.979 . S
H133 C160 0.980 . S
H134 C160 0.983 . S
H135 C159 0.979 . S
H136 C159 0.977 . S
C137 C125 1.453 . S
C137 H166 0.982 . S
C137 H167 0.979 . S
C137 H168 0.977 . S
C138 C125 1.684 . S
C138 H163 0.979 . S
C138 H164 0.980 . S
C138 H165 0.983 . S
C139 C140 1.391 . S
C139 C144 1.391 . S
C139 H169 0.948 . S
C140 C139 1.391 . S
C140 C141 1.391 . S
C141 C140 1.391 . S
C141 C142 1.392 . S
C141 H170 0.947 . S
C142 C141 1.392 . S
C142 C143 1.419 . S
C142 H171 0.948 . S
C143 C142 1.419 . S
C143 C144 1.391 . S
C143 C147 1.397 . S
C144 C139 1.391 . S
C144 C143 1.391 . S
C144 C145 1.399 . S
C145 C144 1.399 . S
C145 C146 1.396 . S
C145 C148 1.453 . S
C145 C149 1.684 . S
C146 C127 1.723 . S
C146 C145 1.396 . S
C146 C147 1.394 . S
C147 C143 1.397 . S
C147 C146 1.394 . S
C147 C157 1.723 . S
C148 C145 1.453 . S
C148 H172 0.982 . S
C148 H173 0.979 . S
C148 H174 0.977 . S
C149 C145 1.684 . S
C149 H175 0.979 . S
C149 H176 0.980 1_655 S
C149 H177 0.983 . S
C150 H126 0.948 . S
C150 C151 1.391 . S
C150 C155 1.391 . S
C151 C150 1.391 . S
C151 C152 1.391 . S
C152 H129 0.947 . S
C152 C151 1.391 . S
C152 C153 1.392 . S
C153 H130 0.948 . S
C153 C152 1.392 . S
C153 C154 1.419 . S
C154 C153 1.419 . S
C154 C155 1.391 . S
C154 C158 1.397 . S
C155 C150 1.391 . S
C155 C154 1.391 . S
C155 C156 1.399 . S
C156 C155 1.399 . S
C156 C157 1.396 . S
C156 C159 1.453 . S
C156 C160 1.684 . S
C157 C147 1.723 . S
C157 C156 1.396 . S
C157 C158 1.394 . S
C158 C128 1.723 . S
C158 C154 1.397 . S
C158 C157 1.394 . S
C159 H131 0.982 . S
C159 H135 0.979 . S
C159 H136 0.977 . S
C159 C156 1.453 . S
C160 H132 0.979 . S
C160 H133 0.980 . S
C160 H134 0.983 . S
C160 C156 1.684 . S
H161 C179 0.948 . S
H162 C120 0.948 . S
H163 C138 0.979 . S
H164 C138 0.980 . S
H165 C138 0.983 . S
H166 C137 0.982 . S
H167 C137 0.979 . S
H168 C137 0.977 . S
H169 C139 0.948 . S
H170 C141 0.947 . S
H171 C142 0.948 . S
H172 C148 0.982 . S
H173 C148 0.979 . S
H174 C148 0.977 . S
H175 C149 0.979 . S
H176 C149 0.980 1_455 S
H177 C149 0.983 . S
H178 C122 0.947 . S
C179 C122 1.392 . S
C179 C123 1.419 1_455 S
C179 H161 0.948 . S
C180 C181 1.391 . S
C180 C184 1.391 . S
C180 H222 0.948 . S
C181 C180 1.391 . S
C181 C182 1.391 . S
C182 C181 1.391 . S
C182 H238 0.947 . S
C182 C239 1.392 . S
C183 C184 1.391 . S
C183 C187 1.397 . S
C183 C239 1.419 . S
C184 C180 1.391 . S
C184 C183 1.391 . S
C184 C185 1.399 . S
C185 C184 1.399 . S
C185 C188 1.396 . S
C185 C197 1.453 . S
C185 C198 1.684 . S
H186 C210 0.948 . S
C187 C183 1.397 . S
C187 C188 1.394 . S
C187 C206 1.723 . S
C188 C185 1.396 . S
C188 C187 1.394 . S
C188 C218 1.723 . S
H189 C212 0.947 . S
H190 C213 0.948 . S
H191 C219 0.982 . S
H192 C220 0.979 . S
H193 C220 0.980 1_455 S
H194 C220 0.983 . S
H195 C219 0.979 1_655 S
H196 C219 0.977 . S
C197 C185 1.453 . S
C197 H226 0.982 . S
C197 H227 0.979 . S
C197 H228 0.977 . S
C198 C185 1.684 . S
C198 H223 0.979 . S
C198 H224 0.980 . S
C198 H225 0.983 . S
C199 C200 1.391 . S
C199 C204 1.391 . S
C199 H229 0.948 . S
C200 C199 1.391 . S
C200 C201 1.391 . S
C201 C200 1.391 . S
C201 C202 1.392 . S
C201 H230 0.947 . S
C202 C201 1.392 . S
C202 C203 1.419 . S
C202 H231 0.948 . S
C203 C202 1.419 . S
C203 C204 1.391 . S
C203 C207 1.397 . S
C204 C199 1.391 . S
C204 C203 1.391 . S
C204 C205 1.399 . S
C205 C204 1.399 . S
C205 C206 1.396 . S
C205 C208 1.453 . S
C205 C209 1.684 . S
C206 C187 1.723 . S
C206 C205 1.396 . S
C206 C207 1.394 . S
C207 C203 1.397 . S
C207 C206 1.394 . S
C207 C217 1.723 . S
C208 C205 1.453 . S
C208 H232 0.982 . S
C208 H233 0.979 . S
C208 H234 0.977 . S
C209 C205 1.684 . S
C209 H235 0.979 . S
C209 H236 0.980 . S
C209 H237 0.983 . S
C210 H186 0.948 . S
C210 C211 1.391 . S
C210 C215 1.391 1_655 S
C211 C210 1.391 . S
C211 C212 1.391 . S
C212 H189 0.947 . S
C212 C211 1.391 . S
C212 C213 1.392 1_655 S
C213 H190 0.948 . S
C213 C212 1.392 1_455 S
C213 C214 1.419 . S
C214 C213 1.419 . S
C214 C215 1.391 . S
C214 C218 1.397 . S
C215 C210 1.391 1_455 S
C215 C214 1.391 . S
C215 C216 1.399 . S
C216 C215 1.399 . S
C216 C217 1.396 . S
C216 C219 1.453 . S
C216 C220 1.684 1_455 S
C217 C207 1.723 . S
C217 C216 1.396 . S
C217 C218 1.394 . S
C218 C188 1.723 . S
C218 C214 1.397 . S
C218 C217 1.394 . S
C219 H191 0.982 . S
C219 H195 0.979 1_455 S
C219 H196 0.977 . S
C219 C216 1.453 . S
C220 H192 0.979 . S
C220 H193 0.980 1_655 S
C220 H194 0.983 . S
C220 C216 1.684 1_655 S
H221 C239 0.948 . S
H222 C180 0.948 . S
H223 C198 0.979 . S
H224 C198 0.980 . S
H225 C198 0.983 . S
H226 C197 0.982 . S
H227 C197 0.979 . S
H228 C197 0.977 . S
H229 C199 0.948 . S
H230 C201 0.947 . S
H231 C202 0.948 . S
H232 C208 0.982 . S
H233 C208 0.979 . S
H234 C208 0.977 . S
H235 C209 0.979 . S
H236 C209 0.980 . S
H237 C209 0.983 . S
H238 C182 0.947 . S
C239 C182 1.392 . S
C239 C183 1.419 . S
C239 H221 0.948 . S
C240 C241 1.391 . S
C240 C244 1.391 . S
C240 H282 0.948 . S
C241 C240 1.391 . S
C241 C242 1.391 . S
C242 C241 1.391 . S
C242 H298 0.947 . S
C242 C299 1.392 . S
C243 C244 1.391 . S
C243 C247 1.397 . S
C243 C299 1.419 . S
C244 C240 1.391 . S
C244 C243 1.391 . S
C244 C245 1.399 . S
C245 C244 1.399 . S
C245 C248 1.396 . S
C245 C257 1.453 . S
C245 C258 1.684 . S
H246 C270 0.948 . S
C247 C243 1.397 . S
C247 C248 1.394 . S
C247 C266 1.723 . S
C248 C245 1.396 . S
C248 C247 1.394 . S
C248 C278 1.723 . S
H249 C272 0.947 1_545 S
H250 C273 0.948 . S
H251 C279 0.982 . S
H252 C280 0.979 . S
H253 C280 0.980 . S
H254 C280 0.983 . S
H255 C279 0.979 1_545 S
H256 C279 0.977 . S
C257 C245 1.453 . S
C257 H286 0.982 . S
C257 H287 0.979 . S
C257 H288 0.977 . S
C258 C245 1.684 . S
C258 H283 0.979 . S
C258 H284 0.980 . S
C258 H285 0.983 . S
C259 C260 1.391 . S
C259 C264 1.391 . S
C259 H289 0.948 . S
C260 C259 1.391 . S
C260 C261 1.391 . S
C261 C260 1.391 . S
C261 C262 1.392 . S
C261 H290 0.947 . S
C262 C261 1.392 . S
C262 C263 1.419 . S
C262 H291 0.948 . S
C263 C262 1.419 . S
C263 C264 1.391 . S
C263 C267 1.397 . S
C264 C259 1.391 . S
C264 C263 1.391 . S
C264 C265 1.399 . S
C265 C264 1.399 . S
C265 C266 1.396 . S
C265 C268 1.453 . S
C265 C269 1.684 . S
C266 C247 1.723 . S
C266 C265 1.396 . S
C266 C267 1.394 . S
C267 C263 1.397 . S
C267 C266 1.394 . S
C267 C277 1.723 . S
C268 C265 1.453 . S
C268 H292 0.982 . S
C268 H293 0.979 . S
C268 H294 0.977 . S
C269 C265 1.684 . S
C269 H295 0.979 . S
C269 H296 0.980 . S
C269 H297 0.983 . S
C270 H246 0.948 . S
C270 C271 1.391 . S
C270 C275 1.391 1_545 S
C271 C270 1.391 . S
C271 C272 1.391 1_545 S
C272 H249 0.947 1_565 S
C272 C271 1.391 1_565 S
C272 C273 1.392 . S
C273 H250 0.948 . S
C273 C272 1.392 . S
C273 C274 1.419 . S
C274 C273 1.419 . S
C274 C275 1.391 . S
C274 C278 1.397 . S
C275 C270 1.391 1_565 S
C275 C274 1.391 . S
C275 C276 1.399 . S
C276 C275 1.399 . S
C276 C277 1.396 . S
C276 C279 1.453 . S
C276 C280 1.684 . S
C277 C267 1.723 . S
C277 C276 1.396 . S
C277 C278 1.394 . S
C278 C248 1.723 . S
C278 C274 1.397 . S
C278 C277 1.394 . S
C279 H251 0.982 . S
C279 H255 0.979 1_565 S
C279 H256 0.977 . S
C279 C276 1.453 . S
C280 H252 0.979 . S
C280 H253 0.980 . S
C280 H254 0.983 . S
C280 C276 1.684 . S
H281 C299 0.948 . S
H282 C240 0.948 . S
H283 C258 0.979 . S
H284 C258 0.980 . S
H285 C258 0.983 . S
H286 C257 0.982 . S
H287 C257 0.979 . S
H288 C257 0.977 . S
H289 C259 0.948 . S
H290 C261 0.947 . S
H291 C262 0.948 . S
H292 C268 0.982 . S
H293 C268 0.979 . S
H294 C268 0.977 . S
H295 C269 0.979 . S
H296 C269 0.980 . S
H297 C269 0.983 . S
H298 C242 0.947 . S
C299 C242 1.392 . S
C299 C243 1.419 . S
C299 H281 0.948 . S
C300 C301 1.391 . S
C300 C304 1.391 1_655 S
C300 H342 0.948 . S
C301 C300 1.391 . S
C301 C302 1.391 . S
C302 C301 1.391 . S
C302 H358 0.947 . S
C302 C359 1.392 . S
C303 C304 1.391 . S
C303 C307 1.397 . S
C303 C359 1.419 1_455 S
C304 C300 1.391 1_455 S
C304 C303 1.391 . S
C304 C305 1.399 . S
C305 C304 1.399 . S
C305 C308 1.396 . S
C305 C317 1.453 . S
C305 C318 1.684 . S
H306 C330 0.948 . S
C307 C303 1.397 . S
C307 C308 1.394 . S
C307 C326 1.723 . S
C308 C305 1.396 . S
C308 C307 1.394 . S
C308 C338 1.723 . S
H309 C332 0.947 . S
H310 C333 0.948 . S
H311 C339 0.982 . S
H312 C340 0.979 . S
H313 C340 0.980 1_565 S
H314 C340 0.983 . S
H315 C339 0.979 . S
H316 C339 0.977 . S
C317 C305 1.453 . S
C317 H346 0.982 . S
C317 H347 0.979 . S
C317 H348 0.977 . S
C318 C305 1.684 . S
C318 H343 0.979 . S
C318 H344 0.980 . S
C318 H345 0.983 . S
C319 C320 1.391 . S
C319 C324 1.391 . S
C319 H349 0.948 . S
C320 C319 1.391 . S
C320 C321 1.391 . S
C321 C320 1.391 . S
C321 C322 1.392 . S
C321 H350 0.947 . S
C322 C321 1.392 . S
C322 C323 1.419 . S
C322 H351 0.948 . S
C323 C322 1.419 . S
C323 C324 1.391 . S
C323 C327 1.397 . S
C324 C319 1.391 . S
C324 C323 1.391 . S
C324 C325 1.399 . S
C325 C324 1.399 . S
C325 C326 1.396 . S
C325 C328 1.453 . S
C325 C329 1.684 . S
C326 C307 1.723 . S
C326 C325 1.396 . S
C326 C327 1.394 . S
C327 C323 1.397 . S
C327 C326 1.394 . S
C327 C337 1.723 . S
C328 C325 1.453 . S
C328 H352 0.982 . S
C328 H353 0.979 . S
C328 H354 0.977 . S
C329 C325 1.684 . S
C329 H355 0.979 . S
C329 H356 0.980 1_455 S
C329 H357 0.983 . S
C330 H306 0.948 . S
C330 C331 1.391 . S
C330 C335 1.391 1_545 S
C331 C330 1.391 . S
C331 C332 1.391 . S
C332 H309 0.947 . S
C332 C331 1.391 . S
C332 C333 1.392 1_545 S
C333 H310 0.948 . S
C333 C332 1.392 1_565 S
C333 C334 1.419 . S
C334 C333 1.419 . S
C334 C335 1.391 . S
C334 C338 1.397 . S
C335 C330 1.391 1_565 S
C335 C334 1.391 . S
C335 C336 1.399 . S
C336 C335 1.399 . S
C336 C337 1.396 . S
C336 C339 1.453 . S
C336 C340 1.684 1_565 S
C337 C327 1.723 . S
C337 C336 1.396 . S
C337 C338 1.394 . S
C338 C308 1.723 . S
C338 C334 1.397 . S
C338 C337 1.394 . S
C339 H311 0.982 . S
C339 H315 0.979 . S
C339 H316 0.977 . S
C339 C336 1.453 . S
C340 H312 0.979 . S
C340 H313 0.980 1_545 S
C340 H314 0.983 . S
C340 C336 1.684 1_545 S
H341 C359 0.948 . S
H342 C300 0.948 . S
H343 C318 0.979 . S
H344 C318 0.980 . S
H345 C318 0.983 . S
H346 C317 0.982 . S
H347 C317 0.979 . S
H348 C317 0.977 . S
H349 C319 0.948 . S
H350 C321 0.947 . S
H351 C322 0.948 . S
H352 C328 0.982 . S
H353 C328 0.979 . S
H354 C328 0.977 . S
H355 C329 0.979 . S
H356 C329 0.980 1_655 S
H357 C329 0.983 . S
H358 C302 0.947 . S
C359 C302 1.392 . S
C359 C303 1.419 1_655 S
C359 H341 0.948 . S
C360 C361 1.391 . S
C360 C364 1.391 . S
C360 H402 0.948 . S
C361 C360 1.391 . S
C361 C362 1.391 . S
C362 C361 1.391 . S
C362 H418 0.947 . S
C362 C419 1.392 . S
C363 C364 1.391 . S
C363 C367 1.397 . S
C363 C419 1.419 . S
C364 C360 1.391 . S
C364 C363 1.391 . S
C364 C365 1.399 . S
C365 C364 1.399 . S
C365 C368 1.396 . S
C365 C377 1.453 . S
C365 C378 1.684 . S
H366 C390 0.948 . S
C367 C363 1.397 . S
C367 C368 1.394 . S
C367 C386 1.723 . S
C368 C365 1.396 . S
C368 C367 1.394 . S
C368 C398 1.723 . S
H369 C392 0.947 . S
H370 C393 0.948 . S
H371 C399 0.982 . S
H372 C400 0.979 . S
H373 C400 0.980 . S
H374 C400 0.983 . S
H375 C399 0.979 . S
H376 C399 0.977 . S
C377 C365 1.453 . S
C377 H406 0.982 . S
C377 H407 0.979 . S
C377 H408 0.977 . S
C378 C365 1.684 . S
C378 H403 0.979 . S
C378 H404 0.980 . S
C378 H405 0.983 . S
C379 C380 1.391 . S
C379 C384 1.391 . S
C379 H409 0.948 . S
C380 C379 1.391 . S
C380 C381 1.391 . S
C381 C380 1.391 . S
C381 C382 1.392 . S
C381 H410 0.947 . S
C382 C381 1.392 . S
C382 C383 1.419 . S
C382 H411 0.948 . S
C383 C382 1.419 . S
C383 C384 1.391 . S
C383 C387 1.397 . S
C384 C379 1.391 . S
C384 C383 1.391 . S
C384 C385 1.399 . S
C385 C384 1.399 . S
C385 C386 1.396 . S
C385 C388 1.453 . S
C385 C389 1.684 . S
C386 C367 1.723 . S
C386 C385 1.396 . S
C386 C387 1.394 . S
C387 C383 1.397 . S
C387 C386 1.394 . S
C387 C397 1.723 . S
C388 C385 1.453 . S
C388 H412 0.982 . S
C388 H413 0.979 . S
C388 H414 0.977 . S
C389 C385 1.684 . S
C389 H415 0.979 . S
C389 H416 0.980 . S
C389 H417 0.983 . S
C390 H366 0.948 . S
C390 C391 1.391 . S
C390 C395 1.391 . S
C391 C390 1.391 . S
C391 C392 1.391 . S
C392 H369 0.947 . S
C392 C391 1.391 . S
C392 C393 1.392 . S
C393 H370 0.948 . S
C393 C392 1.392 . S
C393 C394 1.419 . S
C394 C393 1.419 . S
C394 C395 1.391 . S
C394 C398 1.397 . S
C395 C390 1.391 . S
C395 C394 1.391 . S
C395 C396 1.399 . S
C396 C395 1.399 . S
C396 C397 1.396 . S
C396 C399 1.453 . S
C396 C400 1.684 . S
C397 C387 1.723 . S
C397 C396 1.396 . S
C397 C398 1.394 . S
C398 C368 1.723 . S
C398 C394 1.397 . S
C398 C397 1.394 . S
C399 H371 0.982 . S
C399 H375 0.979 . S
C399 H376 0.977 . S
C399 C396 1.453 . S
C400 H372 0.979 . S
C400 H373 0.980 . S
C400 H374 0.983 . S
C400 C396 1.684 . S
H401 C419 0.948 . S
H402 C360 0.948 . S
H403 C378 0.979 . S
H404 C378 0.980 . S
H405 C378 0.983 . S
H406 C377 0.982 . S
H407 C377 0.979 . S
H408 C377 0.977 . S
H409 C379 0.948 . S
H410 C381 0.947 . S
H411 C382 0.948 . S
H412 C388 0.982 . S
H413 C388 0.979 . S
H414 C388 0.977 . S
H415 C389 0.979 . S
H416 C389 0.980 . S
H417 C389 0.983 . S
H418 C362 0.947 . S
C419 C362 1.392 . S
C419 C363 1.419 . S
C419 H401 0.948 . S
C420 C421 1.391 . S
C420 C424 1.391 . S
C420 H462 0.948 . S
C421 C420 1.391 . S
C421 C422 1.391 . S
C422 C421 1.391 . S
C422 H478 0.947 . S
C422 C479 1.392 . S
C423 C424 1.391 . S
C423 C427 1.397 . S
C423 C479 1.419 . S
C424 C420 1.391 . S
C424 C423 1.391 . S
C424 C425 1.399 . S
C425 C424 1.399 . S
C425 C428 1.396 . S
C425 C437 1.453 . S
C425 C438 1.684 . S
H426 C450 0.948 . S
C427 C423 1.397 . S
C427 C428 1.394 . S
C427 C446 1.723 . S
C428 C425 1.396 . S
C428 C427 1.394 . S
C428 C458 1.723 . S
H429 C452 0.947 . S
H430 C453 0.948 . S
H431 C459 0.982 . S
H432 C460 0.979 . S
H433 C460 0.980 . S
H434 C460 0.983 . S
H435 C459 0.979 . S
H436 C459 0.977 . S
C437 C425 1.453 . S
C437 H466 0.982 . S
C437 H467 0.979 . S
C437 H468 0.977 . S
C438 C425 1.684 . S
C438 H463 0.979 . S
C438 H464 0.980 . S
C438 H465 0.983 . S
C439 C440 1.391 . S
C439 C444 1.391 . S
C439 H469 0.948 . S
C440 C439 1.391 . S
C440 C441 1.391 . S
C441 C440 1.391 . S
C441 C442 1.392 . S
C441 H470 0.947 . S
C442 C441 1.392 . S
C442 C443 1.419 . S
C442 H471 0.948 . S
C443 C442 1.419 . S
C443 C444 1.391 . S
C443 C447 1.397 . S
C444 C439 1.391 . S
C444 C443 1.391 . S
C444 C445 1.399 . S
C445 C444 1.399 . S
C445 C446 1.396 . S
C445 C448 1.453 . S
C445 C449 1.684 . S
C446 C427 1.723 . S
C446 C445 1.396 . S
C446 C447 1.394 . S
C447 C443 1.397 . S
C447 C446 1.394 . S
C447 C457 1.723 . S
C448 C445 1.453 . S
C448 H472 0.982 . S
C448 H473 0.979 . S
C448 H474 0.977 . S
C449 C445 1.684 . S
C449 H475 0.979 . S
C449 H476 0.980 . S
C449 H477 0.983 . S
C450 H426 0.948 . S
C450 C451 1.391 . S
C450 C455 1.391 . S
C451 C450 1.391 . S
C451 C452 1.391 . S
C452 H429 0.947 . S
C452 C451 1.391 . S
C452 C453 1.392 . S
C453 H430 0.948 . S
C453 C452 1.392 . S
C453 C454 1.419 . S
C454 C453 1.419 . S
C454 C455 1.391 . S
C454 C458 1.397 . S
C455 C450 1.391 . S
C455 C454 1.391 . S
C455 C456 1.399 . S
C456 C455 1.399 . S
C456 C457 1.396 . S
C456 C459 1.453 . S
C456 C460 1.684 . S
C457 C447 1.723 . S
C457 C456 1.396 . S
C457 C458 1.394 . S
C458 C428 1.723 . S
C458 C454 1.397 . S
C458 C457 1.394 . S
C459 H431 0.982 . S
C459 H435 0.979 . S
C459 H436 0.977 . S
C459 C456 1.453 . S
C460 H432 0.979 . S
C460 H433 0.980 . S
C460 H434 0.983 . S
C460 C456 1.684 . S
H461 C479 0.948 . S
H462 C420 0.948 . S
H463 C438 0.979 . S
H464 C438 0.980 . S
H465 C438 0.983 . S
H466 C437 0.982 . S
H467 C437 0.979 . S
H468 C437 0.977 . S
H469 C439 0.948 . S
H470 C441 0.947 . S
H471 C442 0.948 . S
H472 C448 0.982 . S
H473 C448 0.979 . S
H474 C448 0.977 . S
H475 C449 0.979 . S
H476 C449 0.980 . S
H477 C449 0.983 . S
H478 C422 0.947 . S
C479 C422 1.392 . S
C479 C423 1.419 . S
C479 H461 0.948 . S
C480 C481 1.391 . S
C480 C484 1.391 . S
C480 H522 0.948 . S
C481 C480 1.391 . S
C481 C482 1.391 . S
C482 C481 1.391 . S
C482 H538 0.947 . S
C482 C539 1.392 . S
C483 C484 1.391 . S
C483 C487 1.397 . S
C483 C539 1.419 . S
C484 C480 1.391 . S
C484 C483 1.391 . S
C484 C485 1.399 . S
C485 C484 1.399 . S
C485 C488 1.396 . S
C485 C497 1.453 . S
C485 C498 1.684 . S
H486 C510 0.948 . S
C487 C483 1.397 . S
C487 C488 1.394 . S
C487 C506 1.723 . S
C488 C485 1.396 . S
C488 C487 1.394 . S
C488 C518 1.723 . S
H489 C512 0.947 . S
H490 C513 0.948 . S
H491 C519 0.982 . S
H492 C520 0.979 . S
H493 C520 0.980 . S
H494 C520 0.983 . S
H495 C519 0.979 . S
H496 C519 0.977 . S
C497 C485 1.453 . S
C497 H526 0.982 . S
C497 H527 0.979 . S
C497 H528 0.977 . S
C498 C485 1.684 . S
C498 H523 0.979 . S
C498 H524 0.980 . S
C498 H525 0.983 . S
C499 C500 1.391 . S
C499 C504 1.391 . S
C499 H529 0.948 . S
C500 C499 1.391 . S
C500 C501 1.391 . S
C501 C500 1.391 . S
C501 C502 1.392 . S
C501 H530 0.947 . S
C502 C501 1.392 . S
C502 C503 1.419 . S
C502 H531 0.948 . S
C503 C502 1.419 . S
C503 C504 1.391 . S
C503 C507 1.397 . S
C504 C499 1.391 . S
C504 C503 1.391 . S
C504 C505 1.399 . S
C505 C504 1.399 . S
C505 C506 1.396 . S
C505 C508 1.453 . S
C505 C509 1.684 . S
C506 C487 1.723 . S
C506 C505 1.396 . S
C506 C507 1.394 . S
C507 C503 1.397 . S
C507 C506 1.394 . S
C507 C517 1.723 . S
C508 C505 1.453 . S
C508 H532 0.982 . S
C508 H533 0.979 . S
C508 H534 0.977 . S
C509 C505 1.684 . S
C509 H535 0.979 . S
C509 H536 0.980 . S
C509 H537 0.983 . S
C510 H486 0.948 . S
C510 C511 1.391 . S
C510 C515 1.391 . S
C511 C510 1.391 . S
C511 C512 1.391 . S
C512 H489 0.947 . S
C512 C511 1.391 . S
C512 C513 1.392 . S
C513 H490 0.948 . S
C513 C512 1.392 . S
C513 C514 1.419 . S
C514 C513 1.419 . S
C514 C515 1.391 . S
C514 C518 1.397 . S
C515 C510 1.391 . S
C515 C514 1.391 . S
C515 C516 1.399 . S
C516 C515 1.399 . S
C516 C517 1.396 . S
C516 C519 1.453 . S
C516 C520 1.684 . S
C517 C507 1.723 . S
C517 C516 1.396 . S
C517 C518 1.394 . S
C518 C488 1.723 . S
C518 C514 1.397 . S
C518 C517 1.394 . S
C519 H491 0.982 . S
C519 H495 0.979 . S
C519 H496 0.977 . S
C519 C516 1.453 . S
C520 H492 0.979 . S
C520 H493 0.980 . S
C520 H494 0.983 . S
C520 C516 1.684 . S
H521 C539 0.948 . S
H522 C480 0.948 . S
H523 C498 0.979 . S
H524 C498 0.980 . S
H525 C498 0.983 . S
H526 C497 0.982 . S
H527 C497 0.979 . S
H528 C497 0.977 . S
H529 C499 0.948 . S
H530 C501 0.947 . S
H531 C502 0.948 . S
H532 C508 0.982 . S
H533 C508 0.979 . S
H534 C508 0.977 . S
H535 C509 0.979 . S
H536 C509 0.980 . S
H537 C509 0.983 . S
H538 C482 0.947 . S
C539 C482 1.392 . S
C539 C483 1.419 . S
C539 H521 0.948 . S
C540 C541 1.391 . S
C540 C544 1.391 . S
C540 H582 0.948 . S
C541 C540 1.391 . S
C541 C542 1.391 . S
C542 C541 1.391 . S
C542 H598 0.947 . S
C542 C599 1.392 . S
C543 C544 1.391 . S
C543 C547 1.397 . S
C543 C599 1.419 . S
C544 C540 1.391 . S
C544 C543 1.391 . S
C544 C545 1.399 . S
C545 C544 1.399 . S
C545 C548 1.396 . S
C545 C557 1.453 . S
C545 C558 1.684 . S
H546 C570 0.948 . S
C547 C543 1.397 . S
C547 C548 1.394 . S
C547 C566 1.723 . S
C548 C545 1.396 . S
C548 C547 1.394 . S
C548 C578 1.723 . S
H549 C572 0.947 1_554 S
H550 C573 0.948 . S
H551 C579 0.982 . S
H552 C580 0.979 . S
H553 C580 0.980 . S
H554 C580 0.983 . S
H555 C579 0.979 . S
H556 C579 0.977 . S
C557 C545 1.453 . S
C557 H586 0.982 . S
C557 H587 0.979 1_556 S
C557 H588 0.977 . S
C558 C545 1.684 . S
C558 H583 0.979 . S
C558 H584 0.980 . S
C558 H585 0.983 1_556 S
C559 C560 1.391 . S
C559 C564 1.391 . S
C559 H589 0.948 . S
C560 C559 1.391 . S
C560 C561 1.391 . S
C561 C560 1.391 . S
C561 C562 1.392 . S
C561 H590 0.947 . S
C562 C561 1.392 . S
C562 C563 1.419 . S
C562 H591 0.948 . S
C563 C562 1.419 . S
C563 C564 1.391 . S
C563 C567 1.397 . S
C564 C559 1.391 . S
C564 C563 1.391 . S
C564 C565 1.399 . S
C565 C564 1.399 . S
C565 C566 1.396 . S
C565 C568 1.453 . S
C565 C569 1.684 . S
C566 C547 1.723 . S
C566 C565 1.396 . S
C566 C567 1.394 . S
C567 C563 1.397 . S
C567 C566 1.394 . S
C567 C577 1.723 . S
C568 C565 1.453 . S
C568 H592 0.982 . S
C568 H593 0.979 . S
C568 H594 0.977 . S
C569 C565 1.684 . S
C569 H595 0.979 . S
C569 H596 0.980 . S
C569 H597 0.983 . S
C570 H546 0.948 . S
C570 C571 1.391 . S
C570 C575 1.391 . S
C571 C570 1.391 . S
C571 C572 1.391 . S
C572 H549 0.947 1_556 S
C572 C571 1.391 . S
C572 C573 1.392 . S
C573 H550 0.948 . S
C573 C572 1.392 . S
C573 C574 1.419 . S
C574 C573 1.419 . S
C574 C575 1.391 . S
C574 C578 1.397 . S
C575 C570 1.391 . S
C575 C574 1.391 . S
C575 C576 1.399 . S
C576 C575 1.399 . S
C576 C577 1.396 . S
C576 C579 1.453 . S
C576 C580 1.684 . S
C577 C567 1.723 . S
C577 C576 1.396 . S
C577 C578 1.394 . S
C578 C548 1.723 . S
C578 C574 1.397 . S
C578 C577 1.394 . S
C579 H551 0.982 . S
C579 H555 0.979 . S
C579 H556 0.977 . S
C579 C576 1.453 . S
C580 H552 0.979 . S
C580 H553 0.980 . S
C580 H554 0.983 . S
C580 C576 1.684 . S
H581 C599 0.948 . S
H582 C540 0.948 . S
H583 C558 0.979 . S
H584 C558 0.980 . S
H585 C558 0.983 1_554 S
H586 C557 0.982 . S
H587 C557 0.979 1_554 S
H588 C557 0.977 . S
H589 C559 0.948 . S
H590 C561 0.947 . S
H591 C562 0.948 . S
H592 C568 0.982 . S
H593 C568 0.979 . S
H594 C568 0.977 . S
H595 C569 0.979 . S
H596 C569 0.980 . S
H597 C569 0.983 . S
H598 C542 0.947 . S
C599 C542 1.392 . S
C599 C543 1.419 . S
C599 H581 0.948 . S
C600 C601 1.391 . S
C600 C604 1.391 . S
C600 H642 0.948 1_556 S
C601 C600 1.391 . S
C601 C602 1.391 . S
C602 C601 1.391 . S
C602 H658 0.947 . S
C602 C659 1.392 . S
C603 C604 1.391 . S
C603 C607 1.397 . S
C603 C659 1.419 . S
C604 C600 1.391 . S
C604 C603 1.391 . S
C604 C605 1.399 . S
C605 C604 1.399 . S
C605 C608 1.396 . S
C605 C617 1.453 . S
C605 C618 1.684 1_556 S
H606 C630 0.948 . S
C607 C603 1.397 . S
C607 C608 1.394 . S
C607 C626 1.723 . S
C608 C605 1.396 . S
C608 C607 1.394 . S
C608 C638 1.723 . S
H609 C632 0.947 1_554 S
H610 C633 0.948 . S
H611 C639 0.982 . S
H612 C640 0.979 . S
H613 C640 0.980 . S
H614 C640 0.983 . S
H615 C639 0.979 . S
H616 C639 0.977 . S
C617 C605 1.453 . S
C617 H646 0.982 . S
C617 H647 0.979 1_556 S
C617 H648 0.977 . S
C618 C605 1.684 1_554 S
C618 H643 0.979 . S
C618 H644 0.980 . S
C618 H645 0.983 . S
C619 C620 1.391 . S
C619 C624 1.391 . S
C619 H649 0.948 . S
C620 C619 1.391 . S
C620 C621 1.391 . S
C621 C620 1.391 . S
C621 C622 1.392 . S
C621 H650 0.947 . S
C622 C621 1.392 . S
C622 C623 1.419 . S
C622 H651 0.948 . S
C623 C622 1.419 . S
C623 C624 1.391 . S
C623 C627 1.397 . S
C624 C619 1.391 . S
C624 C623 1.391 . S
C624 C625 1.399 . S
C625 C624 1.399 . S
C625 C626 1.396 . S
C625 C628 1.453 . S
C625 C629 1.684 . S
C626 C607 1.723 . S
C626 C625 1.396 . S
C626 C627 1.394 . S
C627 C623 1.397 . S
C627 C626 1.394 . S
C627 C637 1.723 . S
C628 C625 1.453 . S
C628 H652 0.982 . S
C628 H653 0.979 . S
C628 H654 0.977 . S
C629 C625 1.684 . S
C629 H655 0.979 . S
C629 H656 0.980 . S
C629 H657 0.983 . S
C630 H606 0.948 . S
C630 C631 1.391 . S
C630 C635 1.391 . S
C631 C630 1.391 . S
C631 C632 1.391 . S
C632 H609 0.947 1_556 S
C632 C631 1.391 . S
C632 C633 1.392 . S
C633 H610 0.948 . S
C633 C632 1.392 . S
C633 C634 1.419 . S
C634 C633 1.419 . S
C634 C635 1.391 . S
C634 C638 1.397 . S
C635 C630 1.391 . S
C635 C634 1.391 . S
C635 C636 1.399 . S
C636 C635 1.399 . S
C636 C637 1.396 . S
C636 C639 1.453 . S
C636 C640 1.684 . S
C637 C627 1.723 . S
C637 C636 1.396 . S
C637 C638 1.394 . S
C638 C608 1.723 . S
C638 C634 1.397 . S
C638 C637 1.394 . S
C639 H611 0.982 . S
C639 H615 0.979 . S
C639 H616 0.977 . S
C639 C636 1.453 . S
C640 H612 0.979 . S
C640 H613 0.980 . S
C640 H614 0.983 . S
C640 C636 1.684 . S
H641 C659 0.948 . S
H642 C600 0.948 1_554 S
H643 C618 0.979 . S
H644 C618 0.980 . S
H645 C618 0.983 . S
H646 C617 0.982 . S
H647 C617 0.979 1_554 S
H648 C617 0.977 . S
H649 C619 0.948 . S
H650 C621 0.947 . S
H651 C622 0.948 . S
H652 C628 0.982 . S
H653 C628 0.979 . S
H654 C628 0.977 . S
H655 C629 0.979 . S
H656 C629 0.980 . S
H657 C629 0.983 . S
H658 C602 0.947 . S
C659 C602 1.392 . S
C659 C603 1.419 . S
C659 H641 0.948 . S
C660 C661 1.391 . S
C660 C664 1.391 . S
C660 H702 0.911 1_556 S
C661 C660 1.391 . S
C661 C662 1.391 . S
C662 C661 1.391 . S
C662 H718 0.947 . S
C662 C719 1.392 . S
C663 C664 1.391 . S
C663 C667 1.397 . S
C663 C719 1.419 . S
C664 C660 1.391 . S
C664 C663 1.391 . S
C664 C665 1.399 . S
C665 C664 1.399 . S
C665 C668 1.396 . S
C665 C677 1.453 . S
C665 C678 1.684 . S
H666 C690 0.948 . S
C667 C663 1.397 . S
C667 C668 1.394 . S
C667 C686 1.723 . S
C668 C665 1.396 . S
C668 C667 1.394 . S
C668 C698 1.723 . S
H669 C692 0.947 1_554 S
H670 C693 0.948 . S
H671 C699 0.982 . S
H672 C700 0.979 . S
H673 C700 0.980 . S
H674 C700 0.983 . S
H675 C699 0.979 . S
H676 C699 0.977 . S
C677 C665 1.453 . S
C677 H706 0.982 . S
C677 H707 0.979 1_556 S
C677 H708 0.977 . S
C678 C665 1.684 . S
C678 H703 0.979 . S
C678 H704 0.980 . S
C678 H705 0.983 1_556 S
C679 C680 1.391 . S
C679 C684 1.391 . S
C679 H709 0.948 . S
C680 C679 1.391 . S
C680 C681 1.391 . S
C681 C680 1.391 . S
C681 C682 1.392 . S
C681 H710 0.947 . S
C682 C681 1.392 . S
C682 C683 1.419 . S
C682 H711 0.948 . S
C683 C682 1.419 . S
C683 C684 1.391 . S
C683 C687 1.397 . S
C684 C679 1.391 . S
C684 C683 1.391 . S
C684 C685 1.399 . S
C685 C684 1.399 . S
C685 C686 1.396 . S
C685 C688 1.453 . S
C685 C689 1.684 . S
C686 C667 1.723 . S
C686 C685 1.396 . S
C686 C687 1.394 . S
C687 C683 1.397 . S
C687 C686 1.394 . S
C687 C697 1.723 . S
C688 C685 1.453 . S
C688 H712 0.982 . S
C688 H713 0.979 . S
C688 H714 0.977 . S
C689 C685 1.684 . S
C689 H715 0.979 . S
C689 H716 0.980 . S
C689 H717 0.983 . S
C690 H666 0.948 . S
C690 C691 1.391 . S
C690 C695 1.391 . S
C691 C690 1.391 . S
C691 C692 1.391 . S
C692 H669 0.947 1_556 S
C692 C691 1.391 . S
C692 C693 1.392 . S
C693 H670 0.948 . S
C693 C692 1.392 . S
C693 C694 1.419 . S
C694 C693 1.419 . S
C694 C695 1.391 . S
C694 C698 1.397 . S
C695 C690 1.391 . S
C695 C694 1.391 . S
C695 C696 1.399 . S
C696 C695 1.399 . S
C696 C697 1.396 . S
C696 C699 1.453 . S
C696 C700 1.684 . S
C697 C687 1.723 . S
C697 C696 1.396 . S
C697 C698 1.394 . S
C698 C668 1.723 . S
C698 C694 1.397 . S
C698 C697 1.394 . S
C699 H671 0.982 . S
C699 H675 0.979 . S
C699 H676 0.977 . S
C699 C696 1.453 . S
C700 H672 0.979 . S
C700 H673 0.980 . S
C700 H674 0.983 . S
C700 C696 1.684 . S
H701 C719 0.948 . S
H702 C660 0.911 1_554 S
H703 C678 0.979 . S
H704 C678 0.980 . S
H705 C678 0.983 1_554 S
H706 C677 0.982 . S
H707 C677 0.979 1_554 S
H708 C677 0.977 . S
H709 C679 0.948 . S
H710 C681 0.947 . S
H711 C682 0.948 . S
H712 C688 0.982 . S
H713 C688 0.979 . S
H714 C688 0.977 . S
H715 C689 0.979 . S
H716 C689 0.980 . S
H717 C689 0.983 . S
H718 C662 0.947 . S
C719 C662 1.392 . S
C719 C663 1.419 . S
C719 H701 0.948 . S
C720 C721 1.391 . S
C720 C724 1.391 . S
C720 H762 0.948 1_554 S
C721 C720 1.391 . S
C721 C722 1.391 . S
C722 C721 1.391 . S
C722 H778 0.947 . S
C722 C779 1.392 . S
C723 C724 1.391 . S
C723 C727 1.397 . S
C723 C779 1.419 . S
C724 C720 1.391 . S
C724 C723 1.391 . S
C724 C725 1.399 . S
C725 C724 1.399 . S
C725 C728 1.396 . S
C725 C737 1.453 . S
C725 C738 1.684 . S
H726 C750 0.948 . S
C727 C723 1.397 . S
C727 C728 1.394 . S
C727 C746 1.723 . S
C728 C725 1.396 . S
C728 C727 1.394 . S
C728 C758 1.723 . S
H729 C752 0.947 1_556 S
H730 C753 0.948 . S
H731 C759 0.982 . S
H732 C760 0.979 . S
H733 C760 0.980 . S
H734 C760 0.983 . S
H735 C759 0.979 . S
H736 C759 0.977 . S
C737 C725 1.453 . S
C737 H766 0.982 . S
C737 H767 0.979 1_554 S
C737 H768 0.980 . S
C738 C725 1.684 . S
C738 H763 0.979 . S
C738 H764 0.980 . S
C738 H765 0.983 1_554 S
C739 C740 1.391 . S
C739 C744 1.391 . S
C739 H769 0.948 . S
C740 C739 1.391 . S
C740 C741 1.391 . S
C741 C740 1.391 . S
C741 C742 1.392 . S
C741 H770 0.947 . S
C742 C741 1.392 . S
C742 C743 1.419 . S
C742 H771 0.948 . S
C743 C742 1.419 . S
C743 C744 1.391 . S
C743 C747 1.397 . S
C744 C739 1.391 . S
C744 C743 1.391 . S
C744 C745 1.399 . S
C745 C744 1.399 . S
C745 C746 1.396 . S
C745 C748 1.453 . S
C745 C749 1.684 . S
C746 C727 1.723 . S
C746 C745 1.396 . S
C746 C747 1.394 . S
C747 C743 1.397 . S
C747 C746 1.394 . S
C747 C757 1.723 . S
C748 C745 1.453 . S
C748 H772 0.982 . S
C748 H773 0.979 . S
C748 H774 0.977 . S
C749 C745 1.684 . S
C749 H775 0.979 . S
C749 H776 0.980 . S
C749 H777 0.983 . S
C750 H726 0.948 . S
C750 C751 1.391 . S
C750 C755 1.391 . S
C751 C750 1.391 . S
C751 C752 1.391 . S
C752 H729 0.947 1_554 S
C752 C751 1.391 . S
C752 C753 1.392 . S
C753 H730 0.948 . S
C753 C752 1.392 . S
C753 C754 1.419 . S
C754 C753 1.419 . S
C754 C755 1.391 . S
C754 C758 1.397 . S
C755 C750 1.391 . S
C755 C754 1.391 . S
C755 C756 1.399 . S
C756 C755 1.399 . S
C756 C757 1.396 . S
C756 C759 1.453 . S
C756 C760 1.684 . S
C757 C747 1.723 . S
C757 C756 1.396 . S
C757 C758 1.394 . S
C758 C728 1.723 . S
C758 C754 1.397 . S
C758 C757 1.394 . S
C759 H731 0.982 . S
C759 H735 0.979 . S
C759 H736 0.977 . S
C759 C756 1.453 . S
C760 H732 0.979 . S
C760 H733 0.980 . S
C760 H734 0.983 . S
C760 C756 1.684 . S
H761 C779 0.948 . S
H762 C720 0.948 1_556 S
H763 C738 0.979 . S
H764 C738 0.980 . S
H765 C738 0.983 1_556 S
H766 C737 0.982 . S
H767 C737 0.979 1_556 S
H768 C737 0.980 . S
H769 C739 0.948 . S
H770 C741 0.947 . S
H771 C742 0.948 . S
H772 C748 0.982 . S
H773 C748 0.979 . S
H774 C748 0.977 . S
H775 C749 0.979 . S
H776 C749 0.980 . S
H777 C749 0.983 . S
H778 C722 0.947 . S
C779 C722 1.392 . S
C779 C723 1.419 . S
C779 H761 0.948 . S
C780 C781 1.391 . S
C780 C784 1.391 . S
C780 H822 0.948 1_554 S
C781 C780 1.391 . S
C781 C782 1.391 . S
C782 C781 1.391 . S
C782 H838 0.947 . S
C782 C839 1.392 . S
C783 C784 1.391 . S
C783 C787 1.397 . S
C783 C839 1.419 . S
C784 C780 1.391 . S
C784 C783 1.391 . S
C784 C785 1.399 . S
C785 C784 1.399 . S
C785 C788 1.396 . S
C785 C797 1.453 . S
C785 C798 1.684 1_554 S
H786 C810 0.948 . S
C787 C783 1.397 . S
C787 C788 1.394 . S
C787 C806 1.723 . S
C788 C785 1.396 . S
C788 C787 1.394 . S
C788 C818 1.723 . S
H789 C812 0.947 1_556 S
H790 C813 0.948 . S
H791 C819 0.982 . S
H792 C820 0.979 . S
H793 C820 0.980 . S
H794 C820 0.983 . S
H795 C819 0.979 . S
H796 C819 0.977 . S
C797 C785 1.453 . S
C797 H826 0.982 . S
C797 H827 0.979 1_554 S
C797 H828 0.977 . S
C798 C785 1.684 1_556 S
C798 H823 0.979 . S
C798 H824 0.980 . S
C798 H825 0.983 . S
C799 C800 1.391 . S
C799 C804 1.391 . S
C799 H829 0.948 . S
C800 C799 1.391 . S
C800 C801 1.391 . S
C801 C800 1.391 . S
C801 C802 1.392 . S
C801 H830 0.947 . S
C802 C801 1.392 . S
C802 C803 1.419 . S
C802 H831 0.948 . S
C803 C802 1.419 . S
C803 C804 1.391 . S
C803 C807 1.397 . S
C804 C799 1.391 . S
C804 C803 1.391 . S
C804 C805 1.399 . S
C805 C804 1.399 . S
C805 C806 1.396 . S
C805 C808 1.453 . S
C805 C809 1.684 . S
C806 C787 1.723 . S
C806 C805 1.396 . S
C806 C807 1.394 . S
C807 C803 1.397 . S
C807 C806 1.394 . S
C807 C817 1.723 . S
C808 C805 1.453 . S
C808 H832 0.982 . S
C808 H833 0.979 . S
C808 H834 0.977 . S
C809 C805 1.684 . S
C809 H835 0.979 . S
C809 H836 0.980 . S
C809 H837 0.983 . S
C810 H786 0.948 . S
C810 C811 1.391 . S
C810 C815 1.391 . S
C811 C810 1.391 . S
C811 C812 1.391 . S
C812 H789 0.947 1_554 S
C812 C811 1.391 . S
C812 C813 1.392 . S
C813 H790 0.948 . S
C813 C812 1.392 . S
C813 C814 1.419 . S
C814 C813 1.419 . S
C814 C815 1.391 . S
C814 C818 1.397 . S
C815 C810 1.391 . S
C815 C814 1.391 . S
C815 C816 1.399 . S
C816 C815 1.399 . S
C816 C817 1.396 . S
C816 C819 1.453 . S
C816 C820 1.684 . S
C817 C807 1.723 . S
C817 C816 1.396 . S
C817 C818 1.394 . S
C818 C788 1.723 . S
C818 C814 1.397 . S
C818 C817 1.394 . S
C819 H791 0.982 . S
C819 H795 0.979 . S
C819 H796 0.977 . S
C819 C816 1.453 . S
C820 H792 0.979 . S
C820 H793 0.980 . S
C820 H794 0.983 . S
C820 C816 1.684 . S
H821 C839 0.948 . S
H822 C780 0.948 1_556 S
H823 C798 0.979 . S
H824 C798 0.980 . S
H825 C798 0.983 . S
H826 C797 0.982 . S
H827 C797 0.979 1_556 S
H828 C797 0.977 . S
H829 C799 0.948 . S
H830 C801 0.947 . S
H831 C802 0.948 . S
H832 C808 0.982 . S
H833 C808 0.979 . S
H834 C808 0.977 . S
H835 C809 0.979 . S
H836 C809 0.980 . S
H837 C809 0.983 . S
H838 C782 0.947 . S
C839 C782 1.392 . S
C839 C783 1.419 . S
C839 H821 0.948 . S
C840 C841 1.391 . S
C840 C844 1.391 . S
C840 H882 0.948 . S
C841 C840 1.391 . S
C841 C842 1.391 . S
C842 C841 1.391 . S
C842 H898 0.947 . S
C842 C899 1.392 . S
C843 C844 1.391 . S
C843 C847 1.397 . S
C843 C899 1.419 . S
C844 C840 1.391 . S
C844 C843 1.391 . S
C844 C845 1.399 . S
C845 C844 1.399 . S
C845 C848 1.396 . S
C845 C857 1.453 . S
C845 C858 1.684 . S
H846 C870 0.948 . S
C847 C843 1.397 . S
C847 C848 1.394 . S
C847 C866 1.723 . S
C848 C845 1.396 . S
C848 C847 1.394 . S
C848 C878 1.723 . S
H849 C872 0.947 1_556 S
H850 C873 0.948 . S
H851 C879 0.982 . S
H852 C880 0.979 . S
H853 C880 0.980 . S
H854 C880 0.983 . S
H855 C879 0.979 . S
H856 C879 0.977 . S
C857 C845 1.453 . S
C857 H886 0.982 . S
C857 H887 0.979 1_554 S
C857 H888 0.977 . S
C858 C845 1.684 . S
C858 H883 0.979 . S
C858 H884 0.980 . S
C858 H885 0.983 1_554 S
C859 C860 1.391 . S
C859 C864 1.391 . S
C859 H889 0.948 . S
C860 C859 1.391 . S
C860 C861 1.391 . S
C861 C860 1.391 . S
C861 C862 1.392 . S
C861 H890 0.947 . S
C862 C861 1.392 . S
C862 C863 1.419 . S
C862 H891 0.948 . S
C863 C862 1.419 . S
C863 C864 1.391 . S
C863 C867 1.397 . S
C864 C859 1.391 . S
C864 C863 1.391 . S
C864 C865 1.399 . S
C865 C864 1.399 . S
C865 C866 1.396 . S
C865 C868 1.453 . S
C865 C869 1.684 . S
C866 C847 1.723 . S
C866 C865 1.396 . S
C866 C867 1.394 . S
C867 C863 1.397 . S
C867 C866 1.394 . S
C867 C877 1.723 . S
C868 C865 1.453 . S
C868 H892 0.982 . S
C868 H893 0.979 . S
C868 H894 0.977 . S
C869 C865 1.684 . S
C869 H895 0.979 . S
C869 H896 0.980 . S
C869 H897 0.983 . S
C870 H846 0.948 . S
C870 C871 1.391 . S
C870 C875 1.391 . S
C871 C870 1.391 . S
C871 C872 1.391 . S
C872 H849 0.947 1_554 S
C872 C871 1.391 . S
C872 C873 1.392 . S
C873 H850 0.948 . S
C873 C872 1.392 . S
C873 C874 1.419 . S
C874 C873 1.419 . S
C874 C875 1.391 . S
C874 C878 1.397 . S
C875 C870 1.391 . S
C875 C874 1.391 . S
C875 C876 1.399 . S
C876 C875 1.399 . S
C876 C877 1.396 . S
C876 C879 1.453 . S
C876 C880 1.684 . S
C877 C867 1.723 . S
C877 C876 1.396 . S
C877 C878 1.394 . S
C878 C848 1.723 . S
C878 C874 1.397 . S
C878 C877 1.394 . S
C879 H851 0.982 . S
C879 H855 0.979 . S
C879 H856 0.977 . S
C879 C876 1.453 . S
C880 H852 0.979 . S
C880 H853 0.980 . S
C880 H854 0.983 . S
C880 C876 1.684 . S
H881 C899 0.948 . S
H882 C840 0.948 . S
H883 C858 0.979 . S
H884 C858 0.980 . S
H885 C858 0.983 1_556 S
H886 C857 0.982 . S
H887 C857 0.979 1_556 S
H888 C857 0.977 . S
H889 C859 0.948 . S
H890 C861 0.947 . S
H891 C862 0.948 . S
H892 C868 0.982 . S
H893 C868 0.979 . S
H894 C868 0.977 . S
H895 C869 0.979 . S
H896 C869 0.980 . S
H897 C869 0.983 . S
H898 C842 0.947 . S
C899 C842 1.392 . S
C899 C843 1.419 . S
C899 H881 0.948 . S
C900 C901 1.391 . S
C900 C904 1.391 . S
C900 H942 0.948 . S
C901 C900 1.391 . S
C901 C902 1.391 . S
C902 C901 1.391 . S
C902 H958 0.947 . S
C902 C959 1.392 . S
C903 C904 1.391 . S
C903 C907 1.397 . S
C903 C959 1.419 . S
C904 C900 1.391 . S
C904 C903 1.391 . S
C904 C905 1.399 . S
C905 C904 1.399 . S
C905 C908 1.396 . S
C905 C917 1.453 . S
C905 C918 1.684 . S
H906 C930 0.948 . S
C907 C903 1.397 . S
C907 C908 1.394 . S
C907 C926 1.723 . S
C908 C905 1.396 . S
C908 C907 1.394 . S
C908 C938 1.723 . S
H909 C932 0.947 . S
H910 C933 0.948 . S
H911 C939 0.982 . S
H912 C940 0.979 . S
H913 C940 0.980 . S
H914 C940 0.983 . S
H915 C939 0.979 . S
H916 C939 0.977 . S
C917 C905 1.453 . S
C917 H946 0.982 . S
C917 H947 0.979 . S
C917 H948 0.977 . S
C918 C905 1.684 . S
C918 H943 0.979 . S
C918 H944 0.980 . S
C918 H945 0.983 . S
C919 C920 1.391 . S
C919 C924 1.391 . S
C919 H949 0.948 . S
C920 C919 1.391 . S
C920 C921 1.391 . S
C921 C920 1.391 . S
C921 C922 1.392 . S
C921 H950 0.947 . S
C922 C921 1.392 . S
C922 C923 1.419 . S
C922 H951 0.948 . S
C923 C922 1.419 . S
C923 C924 1.391 . S
C923 C927 1.397 . S
C924 C919 1.391 . S
C924 C923 1.391 . S
C924 C925 1.399 . S
C925 C924 1.399 . S
C925 C926 1.396 . S
C925 C928 1.453 . S
C925 C929 1.684 . S
C926 C907 1.723 . S
C926 C925 1.396 . S
C926 C927 1.394 . S
C927 C923 1.397 . S
C927 C926 1.394 . S
C927 C937 1.723 . S
C928 C925 1.453 . S
C928 H952 0.982 . S
C928 H953 0.979 . S
C928 H954 0.977 . S
C929 C925 1.684 . S
C929 H955 0.979 . S
C929 H956 0.980 . S
C929 H957 0.983 . S
C930 H906 0.948 . S
C930 C931 1.391 . S
C930 C935 1.391 . S
C931 C930 1.391 . S
C931 C932 1.391 . S
C932 H909 0.947 . S
C932 C931 1.391 . S
C932 C933 1.392 . S
C933 H910 0.948 . S
C933 C932 1.392 . S
C933 C934 1.419 . S
C934 C933 1.419 . S
C934 C935 1.391 . S
C934 C938 1.397 . S
C935 C930 1.391 . S
C935 C934 1.391 . S
C935 C936 1.399 . S
C936 C935 1.399 . S
C936 C937 1.396 . S
C936 C939 1.453 . S
C936 C940 1.684 . S
C937 C927 1.723 . S
C937 C936 1.396 . S
C937 C938 1.394 . S
C938 C908 1.723 . S
C938 C934 1.397 . S
C938 C937 1.394 . S
C939 H911 0.982 . S
C939 H915 0.979 . S
C939 H916 0.977 . S
C939 C936 1.453 . S
C940 H912 0.979 . S
C940 H913 0.980 . S
C940 H914 0.983 . S
C940 C936 1.684 . S
H941 C959 0.948 . S
H942 C900 0.948 . S
H943 C918 0.979 . S
H944 C918 0.980 . S
H945 C918 0.983 . S
H946 C917 0.982 . S
H947 C917 0.979 . S
H948 C917 0.977 . S
H949 C919 0.948 . S
H950 C921 0.947 . S
H951 C922 0.948 . S
H952 C928 0.982 . S
H953 C928 0.979 . S
H954 C928 0.977 . S
H955 C929 0.979 . S
H956 C929 0.980 . S
H957 C929 0.983 . S
H958 C902 0.947 . S
C959 C902 1.392 . S
C959 C903 1.419 . S
C959 H941 0.948 . S
C960 C961 1.391 . S
C960 C964 1.391 . S
C960 H1002 0.948 . S
C961 C960 1.391 . S
C961 C962 1.391 . S
C962 C961 1.391 . S
C962 H1018 0.947 . S
C962 C1019 1.392 . S
C963 C964 1.391 . S
C963 C967 1.397 . S
C963 C1019 1.419 . S
C964 C960 1.391 . S
C964 C963 1.391 . S
C964 C965 1.399 . S
C965 C964 1.399 . S
C965 C968 1.396 . S
C965 C977 1.453 . S
C965 C978 1.684 . S
H966 C990 0.948 . S
C967 C963 1.397 . S
C967 C968 1.394 . S
C967 C986 1.723 . S
C968 C965 1.396 . S
C968 C967 1.394 . S
C968 C998 1.723 . S
H969 C992 0.947 . S
H970 C993 0.948 . S
H971 C999 0.982 . S
H972 C1000 0.979 . S
H973 C1000 0.980 . S
H974 C1000 0.983 . S
H975 C999 0.979 . S
H976 C999 0.977 . S
C977 C965 1.453 . S
C977 H1006 0.982 . S
C977 H1007 0.979 . S
C977 H1008 0.977 . S
C978 C965 1.684 . S
C978 H1003 0.979 . S
C978 H1004 0.980 . S
C978 H1005 0.983 . S
C979 C980 1.391 . S
C979 C984 1.391 . S
C979 H1009 0.948 . S
C980 C979 1.391 . S
C980 C981 1.391 . S
C981 C980 1.391 . S
C981 C982 1.392 . S
C981 H1010 0.947 . S
C982 C981 1.392 . S
C982 C983 1.419 . S
C982 H1011 0.948 . S
C983 C982 1.419 . S
C983 C984 1.391 . S
C983 C987 1.397 . S
C984 C979 1.391 . S
C984 C983 1.391 . S
C984 C985 1.399 . S
C985 C984 1.399 . S
C985 C986 1.396 . S
C985 C988 1.453 . S
C985 C989 1.684 . S
C986 C967 1.723 . S
C986 C985 1.396 . S
C986 C987 1.394 . S
C987 C983 1.397 . S
C987 C986 1.394 . S
C987 C997 1.723 . S
C988 C985 1.453 . S
C988 H1012 0.982 . S
C988 H1013 0.979 . S
C988 H1014 0.977 . S
C989 C985 1.684 . S
C989 H1015 0.979 1_455 S
C989 H1016 0.980 . S
C989 H1017 0.983 . S
C990 H966 0.948 . S
C990 C991 1.391 . S
C990 C995 1.391 . S
C991 C990 1.391 . S
C991 C992 1.391 . S
C992 H969 0.947 . S
C992 C991 1.391 . S
C992 C993 1.392 . S
C993 H970 0.948 . S
C993 C992 1.392 . S
C993 C994 1.419 . S
C994 C993 1.419 . S
C994 C995 1.391 . S
C994 C998 1.397 . S
C995 C990 1.391 . S
C995 C994 1.391 . S
C995 C996 1.399 . S
C996 C995 1.399 . S
C996 C997 1.396 . S
C996 C999 1.453 . S
C996 C1000 1.684 . S
C997 C987 1.723 . S
C997 C996 1.396 . S
C997 C998 1.394 . S
C998 C968 1.723 . S
C998 C994 1.397 . S
C998 C997 1.394 . S
C999 H971 0.982 . S
C999 H975 0.979 . S
C999 H976 0.977 . S
C999 C996 1.453 . S
C1000 H972 0.979 . S
C1000 H973 0.980 . S
C1000 H974 0.983 . S
C1000 C996 1.684 . S
H1001 C1019 0.948 . S
H1002 C960 0.948 . S
H1003 C978 0.979 . S
H1004 C978 0.980 . S
H1005 C978 0.983 . S
H1006 C977 0.982 . S
H1007 C977 0.979 . S
H1008 C977 0.977 . S
H1009 C979 0.948 . S
H1010 C981 0.947 . S
H1011 C982 0.948 . S
H1012 C988 0.982 . S
H1013 C988 0.979 . S
H1014 C988 0.977 . S
H1015 C989 0.979 1_655 S
H1016 C989 0.980 . S
H1017 C989 0.983 . S
H1018 C962 0.947 . S
C1019 C962 1.392 . S
C1019 C963 1.419 . S
C1019 H1001 0.948 . S
C1020 C1021 1.391 . S
C1020 C1024 1.391 . S
C1020 H1062 0.948 . S
C1021 C1020 1.391 . S
C1021 C1022 1.391 . S
C1022 C1021 1.391 . S
C1022 H1078 0.947 . S
C1022 C1079 1.392 . S
C1023 C1024 1.391 . S
C1023 C1027 1.397 . S
C1023 C1079 1.419 . S
C1024 C1020 1.391 . S
C1024 C1023 1.391 . S
C1024 C1025 1.399 . S
C1025 C1024 1.399 . S
C1025 C1028 1.396 . S
C1025 C1037 1.453 . S
C1025 C1038 1.684 . S
H1026 C1050 0.948 . S
C1027 C1023 1.397 . S
C1027 C1028 1.394 . S
C1027 C1046 1.723 . S
C1028 C1025 1.396 . S
C1028 C1027 1.394 . S
C1028 C1058 1.723 . S
H1029 C1052 0.947 . S
H1030 C1053 0.948 . S
H1031 C1059 0.982 . S
H1032 C1060 0.979 . S
H1033 C1060 0.980 . S
H1034 C1060 0.983 . S
H1035 C1059 0.979 . S
H1036 C1059 0.977 . S
C1037 C1025 1.453 . S
C1037 H1066 0.982 . S
C1037 H1067 0.979 . S
C1037 H1068 0.977 . S
C1038 C1025 1.684 . S
C1038 H1063 0.979 . S
C1038 H1064 0.980 . S
C1038 H1065 0.983 . S
C1039 C1040 1.391 . S
C1039 C1044 1.391 . S
C1039 H1069 0.948 . S
C1040 C1039 1.391 . S
C1040 C1041 1.391 . S
C1041 C1040 1.391 . S
C1041 C1042 1.392 . S
C1041 H1070 0.947 . S
C1042 C1041 1.392 . S
C1042 C1043 1.419 . S
C1042 H1071 0.948 . S
C1043 C1042 1.419 . S
C1043 C1044 1.391 . S
C1043 C1047 1.397 . S
C1044 C1039 1.391 . S
C1044 C1043 1.391 . S
C1044 C1045 1.399 . S
C1045 C1044 1.399 . S
C1045 C1046 1.396 . S
C1045 C1048 1.453 . S
C1045 C1049 1.684 . S
C1046 C1027 1.723 . S
C1046 C1045 1.396 . S
C1046 C1047 1.394 . S
C1047 C1043 1.397 . S
C1047 C1046 1.394 . S
C1047 C1057 1.723 . S
C1048 C1045 1.453 . S
C1048 H1072 0.982 . S
C1048 H1073 0.979 . S
C1048 H1074 0.977 . S
C1049 C1045 1.684 . S
C1049 H1075 0.979 . S
C1049 H1076 0.980 . S
C1049 H1077 0.983 . S
C1050 H1026 0.948 . S
C1050 C1051 1.391 . S
C1050 C1055 1.391 . S
C1051 C1050 1.391 . S
C1051 C1052 1.391 . S
C1052 H1029 0.947 . S
C1052 C1051 1.391 . S
C1052 C1053 1.392 . S
C1053 H1030 0.948 . S
C1053 C1052 1.392 . S
C1053 C1054 1.419 . S
C1054 C1053 1.419 . S
C1054 C1055 1.391 . S
C1054 C1058 1.397 . S
C1055 C1050 1.391 . S
C1055 C1054 1.391 . S
C1055 C1056 1.399 . S
C1056 C1055 1.399 . S
C1056 C1057 1.396 . S
C1056 C1059 1.453 . S
C1056 C1060 1.684 . S
C1057 C1047 1.723 . S
C1057 C1056 1.396 . S
C1057 C1058 1.394 . S
C1058 C1028 1.723 . S
C1058 C1054 1.397 . S
C1058 C1057 1.394 . S
C1059 H1031 0.982 . S
C1059 H1035 0.979 . S
C1059 H1036 0.977 . S
C1059 C1056 1.453 . S
C1060 H1032 0.979 . S
C1060 H1033 0.980 . S
C1060 H1034 0.983 . S
C1060 C1056 1.684 . S
H1061 C1079 0.948 . S
H1062 C1020 0.948 . S
H1063 C1038 0.979 . S
H1064 C1038 0.980 . S
H1065 C1038 0.983 . S
H1066 C1037 0.982 . S
H1067 C1037 0.979 . S
H1068 C1037 0.977 . S
H1069 C1039 0.948 . S
H1070 C1041 0.947 . S
H1071 C1042 0.948 . S
H1072 C1048 0.982 . S
H1073 C1048 0.979 . S
H1074 C1048 0.977 . S
H1075 C1049 0.979 . S
H1076 C1049 0.980 . S
H1077 C1049 0.983 . S
H1078 C1022 0.947 . S
C1079 C1022 1.392 . S
C1079 C1023 1.419 . S
C1079 H1061 0.948 . S
Gd1080 N1111 2.661 . S
Gd1080 N1117 2.601 . S
Gd1080 O1124 2.545 . S
Gd1080 O1125 2.606 1_545 S
Gd1080 O1127 2.429 . S
Gd1080 O1128 2.545 1_545 S
Gd1080 O1129 2.412 . S
Gd1080 O1131 2.362 1_554 S
Gd1080 O1132 2.324 1_545 S
Gd1080 C1139 2.828 . S
Gd1081 N1090 2.661 . S
Gd1081 N1094 2.601 . S
Gd1081 O1125 2.362 1_556 S
Gd1081 O1126 2.324 1_565 S
Gd1081 O1130 2.545 . S
Gd1081 O1131 2.606 1_565 S
Gd1081 O1133 2.429 . S
Gd1081 O1134 2.545 1_565 S
Gd1081 O1135 2.412 . S
Gd1081 C1148 2.828 . S
C1082 C1085 1.417 . S
C1082 C1087 1.431 . S
C1082 C1088 1.412 . S
C1083 C1086 1.437 . S
C1083 C1087 1.317 . S
C1083 H1102 0.929 . S
C1084 C1085 1.426 . S
C1084 C1086 1.413 . S
C1084 N1094 1.359 . S
C1085 C1082 1.417 . S
C1085 C1084 1.426 . S
C1085 N1090 1.350 . S
C1086 C1083 1.437 . S
C1086 C1084 1.413 . S
C1086 C1096 1.391 . S
C1087 C1082 1.431 . S
C1087 C1083 1.317 . S
C1087 H1098 0.930 . S
C1088 C1082 1.412 . S
C1088 C1089 1.355 . S
C1088 H1100 0.930 . S
C1089 C1088 1.355 . S
C1089 C1091 1.402 . S
C1089 H1101 0.930 . S
N1090 Gd1081 2.661 . S
N1090 C1085 1.350 . S
N1090 C1091 1.307 . S
C1091 C1089 1.402 . S
C1091 N1090 1.307 . S
C1091 H1092 0.930 . S
H1092 C1091 0.930 . S
C1093 N1094 1.334 . S
C1093 C1095 1.394 . S
C1093 H1097 0.930 . S
N1094 Gd1081 2.601 . S
N1094 C1084 1.359 . S
N1094 C1093 1.334 . S
C1095 C1093 1.394 . S
C1095 C1096 1.359 . S
C1095 H1107 0.930 . S
C1096 C1086 1.391 . S
C1096 C1095 1.359 . S
C1096 H1108 0.929 . S
H1097 C1093 0.930 . S
H1098 C1087 0.930 . S
H1099 C1116 0.930 . S
H1100 C1088 0.930 . S
H1101 C1089 0.930 . S
H1102 C1083 0.929 . S
H1103 C1121 0.930 . S
H1104 C1112 0.930 . S
H1105 C1113 0.930 . S
H1106 C1137 0.929 . S
H1107 C1095 0.930 . S
H1108 C1096 0.929 . S
H1109 C1138 0.930 . S
H1110 C1119 0.930 . S
N1111 Gd1080 2.661 . S
N1111 C1115 1.350 . S
N1111 C1116 1.307 . S
C1112 H1104 0.930 . S
C1112 C1113 1.355 . S
C1112 C1114 1.412 . S
C1113 H1105 0.930 . S
C1113 C1112 1.355 . S
C1113 C1116 1.402 . S
C1114 C1112 1.412 . S
C1114 C1115 1.417 . S
C1114 C1138 1.431 . S
C1115 N1111 1.350 . S
C1115 C1114 1.417 . S
C1115 C1118 1.426 . S
C1116 H1099 0.930 . S
C1116 N1111 1.307 . S
C1116 C1113 1.402 . S
N1117 Gd1080 2.601 . S
N1117 C1118 1.359 . S
N1117 C1121 1.334 . S
C1118 C1115 1.426 . S
C1118 N1117 1.359 . S
C1118 C1122 1.413 . S
C1119 H1110 0.930 . S
C1119 C1120 1.359 . S
C1119 C1121 1.394 . S
C1120 C1119 1.359 . S
C1120 C1122 1.391 . S
C1120 H1123 0.929 . S
C1121 H1103 0.930 . S
C1121 N1117 1.334 . S
C1121 C1119 1.394 . S
C1122 C1118 1.413 . S
C1122 C1120 1.391 . S
C1122 C1137 1.437 . S
H1123 C1120 0.929 . S
O1124 Gd1080 2.545 . S
O1124 C1139 1.258 . S
O1125 Gd1080 2.606 1_565 S
O1125 Gd1081 2.362 1_554 S
O1125 C1136 1.284 . S
O1126 Gd1081 2.324 1_545 S
O1126 C1146 1.254 . S
O1127 Gd1080 2.429 . S
O1127 C1146 1.268 1_554 S
O1128 Gd1080 2.545 1_565 S
O1128 C1136 1.250 . S
O1129 Gd1080 2.412 . S
O1129 C1139 1.252 . S
O1130 Gd1081 2.545 . S
O1130 C1148 1.258 . S
O1131 Gd1080 2.362 1_556 S
O1131 Gd1081 2.606 1_545 S
O1131 C1147 1.284 . S
O1132 Gd1080 2.324 1_565 S
O1132 C1155 1.254 . S
O1133 Gd1081 2.429 . S
O1133 C1155 1.268 1_556 S
O1134 Gd1081 2.545 1_545 S
O1134 C1147 1.250 . S
O1135 Gd1081 2.412 . S
O1135 C1148 1.252 . S
C1136 O1125 1.284 . S
C1136 O1128 1.250 . S
C1137 H1106 0.929 . S
C1137 C1122 1.437 . S
C1137 C1138 1.317 . S
C1138 H1109 0.930 . S
C1138 C1114 1.431 . S
C1138 C1137 1.317 . S
C1139 Gd1080 2.828 . S
C1139 O1124 1.258 . S
C1139 O1129 1.252 . S
C1139 C1140 1.497 . S
C1140 C1139 1.497 . S
C1140 C1141 1.395 . S
C1140 C1142 1.380 1_545 S
C1141 C1140 1.395 . S
C1141 C1144 1.398 . S
C1141 H1156 0.930 . S
C1142 C1140 1.380 1_565 S
C1142 C1143 1.391 . S
C1142 H1157 0.930 . S
C1143 C1142 1.391 . S
C1143 C1145 1.387 1_565 S
C1144 C1141 1.398 . S
C1144 C1145 1.380 . S
C1144 H1158 0.930 . S
C1145 C1143 1.387 1_545 S
C1145 C1144 1.380 . S
C1145 H1159 0.930 . S
C1146 O1126 1.254 . S
C1146 O1127 1.268 1_556 S
C1147 O1131 1.284 . S
C1147 O1134 1.250 . S
C1148 Gd1081 2.828 . S
C1148 O1130 1.258 . S
C1148 O1135 1.252 . S
C1148 C1149 1.497 . S
C1149 C1148 1.497 . S
C1149 C1150 1.395 . S
C1149 C1151 1.380 1_565 S
C1150 C1149 1.395 . S
C1150 C1153 1.398 . S
C1150 H1160 0.930 . S
C1151 C1149 1.380 1_545 S
C1151 C1152 1.391 . S
C1151 H1161 0.930 . S
C1152 C1151 1.391 . S
C1152 C1154 1.387 1_545 S
C1153 C1150 1.398 . S
C1153 C1154 1.380 . S
C1153 H1162 0.930 . S
C1154 C1152 1.387 1_565 S
C1154 C1153 1.380 . S
C1154 H1163 0.930 . S
C1155 O1132 1.254 . S
C1155 O1133 1.268 1_554 S
H1156 C1141 0.930 . S
H1157 C1142 0.930 . S
H1158 C1144 0.930 . S
H1159 C1145 0.930 . S
H1160 C1150 0.930 . S
H1161 C1151 0.930 . S
H1162 C1153 0.930 . S
H1163 C1154 0.930 . S
Gd1164 N1195 2.661 . S
Gd1164 N1201 2.601 . S
Gd1164 O1208 2.545 . S
Gd1164 O1209 2.606 1_655 S
Gd1164 O1211 2.429 . S
Gd1164 O1212 2.545 1_655 S
Gd1164 O1213 2.412 . S
Gd1164 O1215 2.362 1_554 S
Gd1164 O1216 2.324 1_655 S
Gd1164 C1223 2.828 . S
Gd1165 N1174 2.661 . S
Gd1165 N1178 2.601 . S
Gd1165 O1209 2.362 1_556 S
Gd1165 O1210 2.324 1_455 S
Gd1165 O1214 2.545 . S
Gd1165 O1215 2.606 1_455 S
Gd1165 O1217 2.429 . S
Gd1165 O1218 2.545 1_455 S
Gd1165 O1219 2.412 . S
Gd1165 C1232 2.828 . S
C1166 C1169 1.417 . S
C1166 C1171 1.431 . S
C1166 C1172 1.412 . S
C1167 C1170 1.437 . S
C1167 C1171 1.317 . S
C1167 H1186 0.929 . S
C1168 C1169 1.426 . S
C1168 C1170 1.413 . S
C1168 N1178 1.359 . S
C1169 C1166 1.417 . S
C1169 C1168 1.426 . S
C1169 N1174 1.350 . S
C1170 C1167 1.437 . S
C1170 C1168 1.413 . S
C1170 C1180 1.391 . S
C1171 C1166 1.431 . S
C1171 C1167 1.317 . S
C1171 H1182 0.930 . S
C1172 C1166 1.412 . S
C1172 C1173 1.355 . S
C1172 H1184 0.930 . S
C1173 C1172 1.355 . S
C1173 C1175 1.402 . S
C1173 H1185 0.930 . S
N1174 Gd1165 2.661 . S
N1174 C1169 1.350 . S
N1174 C1175 1.307 . S
C1175 C1173 1.402 . S
C1175 N1174 1.307 . S
C1175 H1176 0.930 . S
H1176 C1175 0.930 . S
C1177 N1178 1.334 . S
C1177 C1179 1.394 . S
C1177 H1181 0.930 . S
N1178 Gd1165 2.601 . S
N1178 C1168 1.359 . S
N1178 C1177 1.334 . S
C1179 C1177 1.394 . S
C1179 C1180 1.359 . S
C1179 H1191 0.930 . S
C1180 C1170 1.391 . S
C1180 C1179 1.359 . S
C1180 H1192 0.929 . S
H1181 C1177 0.930 . S
H1182 C1171 0.930 . S
H1183 C1200 0.930 . S
H1184 C1172 0.930 . S
H1185 C1173 0.930 . S
H1186 C1167 0.929 . S
H1187 C1205 0.930 . S
H1188 C1196 0.930 . S
H1189 C1197 0.930 . S
H1190 C1221 0.929 . S
H1191 C1179 0.930 . S
H1192 C1180 0.929 . S
H1193 C1222 0.930 . S
H1194 C1203 0.930 . S
N1195 Gd1164 2.661 . S
N1195 C1199 1.350 . S
N1195 C1200 1.307 . S
C1196 H1188 0.930 . S
C1196 C1197 1.355 . S
C1196 C1198 1.412 . S
C1197 H1189 0.930 . S
C1197 C1196 1.355 . S
C1197 C1200 1.402 . S
C1198 C1196 1.412 . S
C1198 C1199 1.417 . S
C1198 C1222 1.431 . S
C1199 N1195 1.350 . S
C1199 C1198 1.417 . S
C1199 C1202 1.426 . S
C1200 H1183 0.930 . S
C1200 N1195 1.307 . S
C1200 C1197 1.402 . S
N1201 Gd1164 2.601 . S
N1201 C1202 1.359 . S
N1201 C1205 1.334 . S
C1202 C1199 1.426 . S
C1202 N1201 1.359 . S
C1202 C1206 1.413 . S
C1203 H1194 0.930 . S
C1203 C1204 1.359 . S
C1203 C1205 1.394 . S
C1204 C1203 1.359 . S
C1204 C1206 1.391 . S
C1204 H1207 0.929 . S
C1205 H1187 0.930 . S
C1205 N1201 1.334 . S
C1205 C1203 1.394 . S
C1206 C1202 1.413 . S
C1206 C1204 1.391 . S
C1206 C1221 1.437 . S
H1207 C1204 0.929 . S
O1208 Gd1164 2.545 . S
O1208 C1223 1.258 . S
O1209 Gd1164 2.606 1_455 S
O1209 Gd1165 2.362 1_554 S
O1209 C1220 1.284 . S
O1210 Gd1165 2.324 1_655 S
O1210 C1230 1.254 . S
O1211 Gd1164 2.429 . S
O1211 C1230 1.268 1_554 S
O1212 Gd1164 2.545 1_455 S
O1212 C1220 1.250 . S
O1213 Gd1164 2.412 . S
O1213 C1223 1.252 . S
O1214 Gd1165 2.545 . S
O1214 C1232 1.258 . S
O1215 Gd1164 2.362 1_556 S
O1215 Gd1165 2.606 1_655 S
O1215 C1231 1.284 . S
O1216 Gd1164 2.324 1_455 S
O1216 C1239 1.254 . S
O1217 Gd1165 2.429 . S
O1217 C1239 1.268 1_556 S
O1218 Gd1165 2.545 1_655 S
O1218 C1231 1.250 . S
O1219 Gd1165 2.412 . S
O1219 C1232 1.252 . S
C1220 O1209 1.284 . S
C1220 O1212 1.250 . S
C1221 H1190 0.929 . S
C1221 C1206 1.437 . S
C1221 C1222 1.317 . S
C1222 H1193 0.930 . S
C1222 C1198 1.431 . S
C1222 C1221 1.317 . S
C1223 Gd1164 2.828 . S
C1223 O1208 1.258 . S
C1223 O1213 1.252 . S
C1223 C1224 1.497 . S
C1224 C1223 1.497 . S
C1224 C1225 1.395 . S
C1224 C1226 1.380 1_655 S
C1225 C1224 1.395 . S
C1225 C1228 1.398 . S
C1225 H1240 0.930 . S
C1226 C1224 1.380 1_455 S
C1226 C1227 1.391 . S
C1226 H1241 0.930 . S
C1227 C1226 1.391 . S
C1227 C1229 1.387 1_455 S
C1228 C1225 1.398 . S
C1228 C1229 1.380 . S
C1228 H1242 0.930 . S
C1229 C1227 1.387 1_655 S
C1229 C1228 1.380 . S
C1229 H1243 0.930 . S
C1230 O1210 1.254 . S
C1230 O1211 1.268 1_556 S
C1231 O1215 1.284 . S
C1231 O1218 1.250 . S
C1232 Gd1165 2.828 . S
C1232 O1214 1.258 . S
C1232 O1219 1.252 . S
C1232 C1233 1.497 . S
C1233 C1232 1.497 . S
C1233 C1234 1.395 . S
C1233 C1235 1.380 1_455 S
C1234 C1233 1.395 . S
C1234 C1237 1.398 . S
C1234 H1244 0.930 . S
C1235 C1233 1.380 1_655 S
C1235 C1236 1.391 . S
C1235 H1245 0.930 . S
C1236 C1235 1.391 . S
C1236 C1238 1.387 1_655 S
C1237 C1234 1.398 . S
C1237 C1238 1.380 . S
C1237 H1246 0.930 . S
C1238 C1236 1.387 1_455 S
C1238 C1237 1.380 . S
C1238 H1247 0.930 . S
C1239 O1216 1.254 . S
C1239 O1217 1.268 1_554 S
H1240 C1225 0.930 . S
H1241 C1226 0.930 . S
H1242 C1228 0.930 . S
H1243 C1229 0.930 . S
H1244 C1234 0.930 . S
H1245 C1235 0.930 . S
H1246 C1237 0.930 . S
H1247 C1238 0.930 . S
Gd1248 N1279 2.661 . S
Gd1248 N1285 2.601 . S
Gd1248 O1292 2.545 . S
Gd1248 O1293 2.606 . S
Gd1248 O1295 2.429 . S
Gd1248 O1296 2.545 . S
Gd1248 O1297 2.412 . S
Gd1248 O1299 2.362 1_556 S
Gd1248 O1300 2.324 . S
Gd1248 C1307 2.828 . S
Gd1249 N1258 2.661 . S
Gd1249 N1262 2.601 . S
Gd1249 O1293 2.362 1_554 S
Gd1249 O1294 2.324 . S
Gd1249 O1298 2.545 . S
Gd1249 O1299 2.606 . S
Gd1249 O1301 2.429 . S
Gd1249 O1302 2.545 . S
Gd1249 O1303 2.412 . S
Gd1249 C1316 2.828 . S
C1250 C1253 1.417 . S
C1250 C1255 1.431 . S
C1250 C1256 1.412 . S
C1251 C1254 1.437 . S
C1251 C1255 1.317 . S
C1251 H1270 0.929 . S
C1252 C1253 1.426 . S
C1252 C1254 1.413 . S
C1252 N1262 1.359 . S
C1253 C1250 1.417 . S
C1253 C1252 1.426 . S
C1253 N1258 1.350 . S
C1254 C1251 1.437 . S
C1254 C1252 1.413 . S
C1254 C1264 1.391 . S
C1255 C1250 1.431 . S
C1255 C1251 1.317 . S
C1255 H1266 0.930 . S
C1256 C1250 1.412 . S
C1256 C1257 1.355 . S
C1256 H1268 0.930 . S
C1257 C1256 1.355 . S
C1257 C1259 1.402 . S
C1257 H1269 0.930 . S
N1258 Gd1249 2.661 . S
N1258 C1253 1.350 . S
N1258 C1259 1.307 . S
C1259 C1257 1.402 . S
C1259 N1258 1.307 . S
C1259 H1260 0.930 . S
H1260 C1259 0.930 . S
C1261 N1262 1.334 . S
C1261 C1263 1.394 . S
C1261 H1265 0.930 . S
N1262 Gd1249 2.601 . S
N1262 C1252 1.359 . S
N1262 C1261 1.334 . S
C1263 C1261 1.394 . S
C1263 C1264 1.359 . S
C1263 H1275 0.930 . S
C1264 C1254 1.391 . S
C1264 C1263 1.359 . S
C1264 H1276 0.929 . S
H1265 C1261 0.930 . S
H1266 C1255 0.930 . S
H1267 C1284 0.930 . S
H1268 C1256 0.930 . S
H1269 C1257 0.930 . S
H1270 C1251 0.929 . S
H1271 C1289 0.930 . S
H1272 C1280 0.930 . S
H1273 C1281 0.930 . S
H1274 C1305 0.929 . S
H1275 C1263 0.930 . S
H1276 C1264 0.929 . S
H1277 C1306 0.930 . S
H1278 C1287 0.930 . S
N1279 Gd1248 2.661 . S
N1279 C1283 1.350 . S
N1279 C1284 1.307 . S
C1280 H1272 0.930 . S
C1280 C1281 1.355 . S
C1280 C1282 1.412 . S
C1281 H1273 0.930 . S
C1281 C1280 1.355 . S
C1281 C1284 1.402 . S
C1282 C1280 1.412 . S
C1282 C1283 1.417 . S
C1282 C1306 1.431 . S
C1283 N1279 1.350 . S
C1283 C1282 1.417 . S
C1283 C1286 1.426 . S
C1284 H1267 0.930 . S
C1284 N1279 1.307 . S
C1284 C1281 1.402 . S
N1285 Gd1248 2.601 . S
N1285 C1286 1.359 . S
N1285 C1289 1.334 . S
C1286 C1283 1.426 . S
C1286 N1285 1.359 . S
C1286 C1290 1.413 . S
C1287 H1278 0.930 . S
C1287 C1288 1.359 . S
C1287 C1289 1.394 . S
C1288 C1287 1.359 . S
C1288 C1290 1.391 . S
C1288 H1291 0.929 . S
C1289 H1271 0.930 . S
C1289 N1285 1.334 . S
C1289 C1287 1.394 . S
C1290 C1286 1.413 . S
C1290 C1288 1.391 . S
C1290 C1305 1.437 . S
H1291 C1288 0.929 . S
O1292 Gd1248 2.545 . S
O1292 C1307 1.258 . S
O1293 Gd1248 2.606 . S
O1293 Gd1249 2.362 1_556 S
O1293 C1304 1.284 . S
O1294 Gd1249 2.324 . S
O1294 C1314 1.254 . S
O1295 Gd1248 2.429 . S
O1295 C1314 1.268 1_556 S
O1296 Gd1248 2.545 . S
O1296 C1304 1.250 . S
O1297 Gd1248 2.412 . S
O1297 C1307 1.252 . S
O1298 Gd1249 2.545 . S
O1298 C1316 1.258 . S
O1299 Gd1248 2.362 1_554 S
O1299 Gd1249 2.606 . S
O1299 C1315 1.284 . S
O1300 Gd1248 2.324 . S
O1300 C1323 1.254 . S
O1301 Gd1249 2.429 . S
O1301 C1323 1.268 1_554 S
O1302 Gd1249 2.545 . S
O1302 C1315 1.250 . S
O1303 Gd1249 2.412 . S
O1303 C1316 1.252 . S
C1304 O1293 1.284 . S
C1304 O1296 1.250 . S
C1305 H1274 0.929 . S
C1305 C1290 1.437 . S
C1305 C1306 1.317 . S
C1306 H1277 0.930 . S
C1306 C1282 1.431 . S
C1306 C1305 1.317 . S
C1307 Gd1248 2.828 . S
C1307 O1292 1.258 . S
C1307 O1297 1.252 . S
C1307 C1308 1.497 . S
C1308 C1307 1.497 . S
C1308 C1309 1.395 . S
C1308 C1310 1.380 . S
C1309 C1308 1.395 . S
C1309 C1312 1.398 . S
C1309 H1324 0.930 . S
C1310 C1308 1.380 . S
C1310 C1311 1.391 . S
C1310 H1325 0.930 . S
C1311 C1310 1.391 . S
C1311 C1313 1.387 . S
C1312 C1309 1.398 . S
C1312 C1313 1.380 . S
C1312 H1326 0.930 . S
C1313 C1311 1.387 . S
C1313 C1312 1.380 . S
C1313 H1327 0.930 . S
C1314 O1294 1.254 . S
C1314 O1295 1.268 1_554 S
C1315 O1299 1.284 . S
C1315 O1302 1.250 . S
C1316 Gd1249 2.828 . S
C1316 O1298 1.258 . S
C1316 O1303 1.252 . S
C1316 C1317 1.497 . S
C1317 C1316 1.497 . S
C1317 C1318 1.395 . S
C1317 C1319 1.380 . S
C1318 C1317 1.395 . S
C1318 C1321 1.398 . S
C1318 H1328 0.930 . S
C1319 C1317 1.380 . S
C1319 C1320 1.391 . S
C1319 H1329 0.930 . S
C1320 C1319 1.391 . S
C1320 C1322 1.387 . S
C1321 C1318 1.398 . S
C1321 C1322 1.380 . S
C1321 H1330 0.930 . S
C1322 C1320 1.387 . S
C1322 C1321 1.380 . S
C1322 H1331 0.930 . S
C1323 O1300 1.254 . S
C1323 O1301 1.268 1_556 S
H1324 C1309 0.930 . S
H1325 C1310 0.930 . S
H1326 C1312 0.930 . S
H1327 C1313 0.930 . S
H1328 C1318 0.930 . S
H1329 C1319 0.930 . S
H1330 C1321 0.930 . S
H1331 C1322 0.930 . S
Gd1332 N1363 2.661 . S
Gd1332 N1369 2.601 . S
Gd1332 O1376 2.545 . S
Gd1332 O1377 2.606 . S
Gd1332 O1379 2.429 . S
Gd1332 O1380 2.545 . S
Gd1332 O1381 2.412 . S
Gd1332 O1383 2.362 . S
Gd1332 O1384 2.324 . S
Gd1332 C1391 2.828 . S
Gd1333 N1342 2.661 . S
Gd1333 N1346 2.601 . S
Gd1333 O1377 2.362 . S
Gd1333 O1378 2.324 . S
Gd1333 O1382 2.545 . S
Gd1333 O1383 2.606 . S
Gd1333 O1385 2.429 . S
Gd1333 O1386 2.545 . S
Gd1333 O1387 2.412 . S
Gd1333 C1400 2.828 . S
C1334 C1337 1.417 1_655 S
C1334 C1339 1.431 . S
C1334 C1340 1.412 . S
C1335 C1338 1.437 1_655 S
C1335 C1339 1.317 . S
C1335 H1354 0.929 . S
C1336 C1337 1.426 . S
C1336 C1338 1.413 . S
C1336 N1346 1.359 . S
C1337 C1334 1.417 1_455 S
C1337 C1336 1.426 . S
C1337 N1342 1.350 . S
C1338 C1335 1.437 1_455 S
C1338 C1336 1.413 . S
C1338 C1348 1.391 . S
C1339 C1334 1.431 . S
C1339 C1335 1.317 . S
C1339 H1350 0.930 . S
C1340 C1334 1.412 . S
C1340 C1341 1.355 . S
C1340 H1352 0.930 . S
C1341 C1340 1.355 . S
C1341 C1343 1.402 1_655 S
C1341 H1353 0.930 . S
N1342 Gd1333 2.661 . S
N1342 C1337 1.350 . S
N1342 C1343 1.307 . S
C1343 C1341 1.402 1_455 S
C1343 N1342 1.307 . S
C1343 H1344 0.930 . S
H1344 C1343 0.930 . S
C1345 N1346 1.334 . S
C1345 C1347 1.394 . S
C1345 H1349 0.930 . S
N1346 Gd1333 2.601 . S
N1346 C1336 1.359 . S
N1346 C1345 1.334 . S
C1347 C1345 1.394 . S
C1347 C1348 1.359 . S
C1347 H1359 0.930 . S
C1348 C1338 1.391 . S
C1348 C1347 1.359 . S
C1348 H1360 0.929 . S
H1349 C1345 0.930 . S
H1350 C1339 0.930 . S
H1351 C1368 0.930 . S
H1352 C1340 0.930 . S
H1353 C1341 0.930 . S
H1354 C1335 0.929 . S
H1355 C1373 0.930 . S
H1356 C1364 0.930 . S
H1357 C1365 0.930 . S
H1358 C1389 0.929 . S
H1359 C1347 0.930 . S
H1360 C1348 0.929 . S
H1361 C1390 0.930 . S
H1362 C1371 0.930 . S
N1363 Gd1332 2.661 . S
N1363 C1367 1.350 . S
N1363 C1368 1.307 . S
C1364 H1356 0.930 . S
C1364 C1365 1.355 . S
C1364 C1366 1.412 . S
C1365 H1357 0.930 . S
C1365 C1364 1.355 . S
C1365 C1368 1.402 . S
C1366 C1364 1.412 . S
C1366 C1367 1.417 . S
C1366 C1390 1.431 . S
C1367 N1363 1.350 . S
C1367 C1366 1.417 . S
C1367 C1370 1.426 . S
C1368 H1351 0.930 . S
C1368 N1363 1.307 . S
C1368 C1365 1.402 . S
N1369 Gd1332 2.601 . S
N1369 C1370 1.359 . S
N1369 C1373 1.334 . S
C1370 C1367 1.426 . S
C1370 N1369 1.359 . S
C1370 C1374 1.413 . S
C1371 H1362 0.930 . S
C1371 C1372 1.359 . S
C1371 C1373 1.394 . S
C1372 C1371 1.359 . S
C1372 C1374 1.391 . S
C1372 H1375 0.929 . S
C1373 H1355 0.930 . S
C1373 N1369 1.334 . S
C1373 C1371 1.394 . S
C1374 C1370 1.413 . S
C1374 C1372 1.391 . S
C1374 C1389 1.437 . S
H1375 C1372 0.929 . S
O1376 Gd1332 2.545 . S
O1376 C1391 1.258 . S
O1377 Gd1332 2.606 . S
O1377 Gd1333 2.362 . S
O1377 C1388 1.284 . S
O1378 Gd1333 2.324 . S
O1378 C1398 1.254 . S
O1379 Gd1332 2.429 . S
O1379 C1398 1.268 . S
O1380 Gd1332 2.545 . S
O1380 C1388 1.250 . S
O1381 Gd1332 2.412 . S
O1381 C1391 1.252 . S
O1382 Gd1333 2.545 . S
O1382 C1400 1.258 . S
O1383 Gd1332 2.362 . S
O1383 Gd1333 2.606 . S
O1383 C1399 1.284 . S
O1384 Gd1332 2.324 . S
O1384 C1407 1.254 . S
O1385 Gd1333 2.429 . S
O1385 C1407 1.268 . S
O1386 Gd1333 2.545 . S
O1386 C1399 1.250 . S
O1387 Gd1333 2.412 . S
O1387 C1400 1.252 . S
C1388 O1377 1.284 . S
C1388 O1380 1.250 . S
C1389 H1358 0.929 . S
C1389 C1374 1.437 . S
C1389 C1390 1.317 . S
C1390 H1361 0.930 . S
C1390 C1366 1.431 . S
C1390 C1389 1.317 . S
C1391 Gd1332 2.828 . S
C1391 O1376 1.258 . S
C1391 O1381 1.252 . S
C1391 C1392 1.497 . S
C1392 C1391 1.497 . S
C1392 C1393 1.395 . S
C1392 C1394 1.380 . S
C1393 C1392 1.395 . S
C1393 C1396 1.398 . S
C1393 H1408 0.930 . S
C1394 C1392 1.380 . S
C1394 C1395 1.391 . S
C1394 H1409 0.930 . S
C1395 C1394 1.391 . S
C1395 C1397 1.387 . S
C1396 C1393 1.398 . S
C1396 C1397 1.380 . S
C1396 H1410 0.930 . S
C1397 C1395 1.387 . S
C1397 C1396 1.380 . S
C1397 H1411 0.930 . S
C1398 O1378 1.254 . S
C1398 O1379 1.268 . S
C1399 O1383 1.284 . S
C1399 O1386 1.250 . S
C1400 Gd1333 2.828 . S
C1400 O1382 1.258 . S
C1400 O1387 1.252 . S
C1400 C1401 1.497 . S
C1401 C1400 1.497 . S
C1401 C1402 1.395 . S
C1401 C1403 1.380 . S
C1402 C1401 1.395 . S
C1402 C1405 1.398 . S
C1402 H1412 0.930 . S
C1403 C1401 1.380 . S
C1403 C1404 1.391 . S
C1403 H1413 0.930 . S
C1404 C1403 1.391 . S
C1404 C1406 1.387 . S
C1405 C1402 1.398 . S
C1405 C1406 1.380 . S
C1405 H1414 0.930 . S
C1406 C1404 1.387 . S
C1406 C1405 1.380 . S
C1406 H1415 0.930 . S
C1407 O1384 1.254 . S
C1407 O1385 1.268 . S
H1408 C1393 0.930 . S
H1409 C1394 0.930 . S
H1410 C1396 0.930 . S
H1411 C1397 0.930 . S
H1412 C1402 0.930 . S
H1413 C1403 0.930 . S
H1414 C1405 0.930 . S
H1415 C1406 0.930 . S
Gd1416 N1447 2.661 . S
Gd1416 N1453 2.601 . S
Gd1416 O1460 2.545 . S
Gd1416 O1461 2.606 . S
Gd1416 O1463 2.429 . S
Gd1416 O1464 2.545 . S
Gd1416 O1465 2.412 . S
Gd1416 O1467 2.362 . S
Gd1416 O1468 2.324 . S
Gd1416 C1475 2.828 . S
Gd1417 N1426 2.661 . S
Gd1417 N1430 2.601 . S
Gd1417 O1461 2.362 . S
Gd1417 O1462 2.324 . S
Gd1417 O1466 2.545 . S
Gd1417 O1467 2.606 . S
Gd1417 O1469 2.429 . S
Gd1417 O1470 2.545 . S
Gd1417 O1471 2.412 . S
Gd1417 C1484 2.828 . S
C1418 C1421 1.417 . S
C1418 C1423 1.431 . S
C1418 C1424 1.412 . S
C1419 C1422 1.437 . S
C1419 C1423 1.317 . S
C1419 H1438 0.929 . S
C1420 C1421 1.426 . S
C1420 C1422 1.413 . S
C1420 N1430 1.359 . S
C1421 C1418 1.417 . S
C1421 C1420 1.426 . S
C1421 N1426 1.350 . S
C1422 C1419 1.437 . S
C1422 C1420 1.413 . S
C1422 C1432 1.391 . S
C1423 C1418 1.431 . S
C1423 C1419 1.317 . S
C1423 H1434 0.930 . S
C1424 C1418 1.412 . S
C1424 C1425 1.355 . S
C1424 H1436 0.930 . S
C1425 C1424 1.355 . S
C1425 C1427 1.402 . S
C1425 H1437 0.930 . S
N1426 Gd1417 2.661 . S
N1426 C1421 1.350 . S
N1426 C1427 1.307 . S
C1427 C1425 1.402 . S
C1427 N1426 1.307 . S
C1427 H1428 0.930 . S
H1428 C1427 0.930 . S
C1429 N1430 1.334 . S
C1429 C1431 1.394 . S
C1429 H1433 0.930 . S
N1430 Gd1417 2.601 . S
N1430 C1420 1.359 . S
N1430 C1429 1.334 . S
C1431 C1429 1.394 . S
C1431 C1432 1.359 . S
C1431 H1443 0.930 . S
C1432 C1422 1.391 . S
C1432 C1431 1.359 . S
C1432 H1444 0.929 . S
H1433 C1429 0.930 . S
H1434 C1423 0.930 . S
H1435 C1452 0.930 . S
H1436 C1424 0.930 . S
H1437 C1425 0.930 . S
H1438 C1419 0.929 . S
H1439 C1457 0.930 . S
H1440 C1448 0.930 . S
H1441 C1449 0.930 . S
H1442 C1473 0.929 . S
H1443 C1431 0.930 . S
H1444 C1432 0.929 . S
H1445 C1474 0.930 . S
H1446 C1455 0.930 . S
N1447 Gd1416 2.661 . S
N1447 C1451 1.350 . S
N1447 C1452 1.307 . S
C1448 H1440 0.930 . S
C1448 C1449 1.355 . S
C1448 C1450 1.412 . S
C1449 H1441 0.930 . S
C1449 C1448 1.355 . S
C1449 C1452 1.402 . S
C1450 C1448 1.412 . S
C1450 C1451 1.417 . S
C1450 C1474 1.431 . S
C1451 N1447 1.350 . S
C1451 C1450 1.417 . S
C1451 C1454 1.426 . S
C1452 H1435 0.930 . S
C1452 N1447 1.307 . S
C1452 C1449 1.402 . S
N1453 Gd1416 2.601 . S
N1453 C1454 1.359 . S
N1453 C1457 1.334 . S
C1454 C1451 1.426 . S
C1454 N1453 1.359 . S
C1454 C1458 1.413 . S
C1455 H1446 0.930 . S
C1455 C1456 1.359 . S
C1455 C1457 1.394 . S
C1456 C1455 1.359 . S
C1456 C1458 1.391 . S
C1456 H1459 0.929 . S
C1457 H1439 0.930 . S
C1457 N1453 1.334 . S
C1457 C1455 1.394 . S
C1458 C1454 1.413 . S
C1458 C1456 1.391 . S
C1458 C1473 1.437 . S
H1459 C1456 0.929 . S
O1460 Gd1416 2.545 . S
O1460 C1475 1.258 . S
O1461 Gd1416 2.606 . S
O1461 Gd1417 2.362 . S
O1461 C1472 1.284 . S
O1462 Gd1417 2.324 . S
O1462 C1482 1.254 . S
O1463 Gd1416 2.429 . S
O1463 C1482 1.268 . S
O1464 Gd1416 2.545 . S
O1464 C1472 1.250 . S
O1465 Gd1416 2.412 . S
O1465 C1475 1.252 . S
O1466 Gd1417 2.545 . S
O1466 C1484 1.258 . S
O1467 Gd1416 2.362 . S
O1467 Gd1417 2.606 . S
O1467 C1483 1.284 . S
O1468 Gd1416 2.324 . S
O1468 C1491 1.254 . S
O1469 Gd1417 2.429 . S
O1469 C1491 1.268 . S
O1470 Gd1417 2.545 . S
O1470 C1483 1.250 . S
O1471 Gd1417 2.412 . S
O1471 C1484 1.252 . S
C1472 O1461 1.284 . S
C1472 O1464 1.250 . S
C1473 H1442 0.929 . S
C1473 C1458 1.437 . S
C1473 C1474 1.317 . S
C1474 H1445 0.930 . S
C1474 C1450 1.431 . S
C1474 C1473 1.317 . S
C1475 Gd1416 2.828 . S
C1475 O1460 1.258 . S
C1475 O1465 1.252 . S
C1475 C1476 1.497 . S
C1476 C1475 1.497 . S
C1476 C1477 1.395 . S
C1476 C1478 1.380 . S
C1477 C1476 1.395 . S
C1477 C1480 1.398 . S
C1477 H1492 0.930 . S
C1478 C1476 1.380 . S
C1478 C1479 1.391 . S
C1478 H1493 0.930 . S
C1479 C1478 1.391 . S
C1479 C1481 1.387 . S
C1480 C1477 1.398 . S
C1480 C1481 1.380 . S
C1480 H1494 0.930 . S
C1481 C1479 1.387 . S
C1481 C1480 1.380 . S
C1481 H1495 0.930 . S
C1482 O1462 1.254 . S
C1482 O1463 1.268 . S
C1483 O1467 1.284 . S
C1483 O1470 1.250 . S
C1484 Gd1417 2.828 . S
C1484 O1466 1.258 . S
C1484 O1471 1.252 . S
C1484 C1485 1.497 . S
C1485 C1484 1.497 . S
C1485 C1486 1.395 . S
C1485 C1487 1.380 . S
C1486 C1485 1.395 . S
C1486 C1489 1.398 . S
C1486 H1496 0.930 . S
C1487 C1485 1.380 . S
C1487 C1488 1.391 . S
C1487 H1497 0.930 . S
C1488 C1487 1.391 . S
C1488 C1490 1.387 . S
C1489 C1486 1.398 . S
C1489 C1490 1.380 . S
C1489 H1498 0.930 . S
C1490 C1488 1.387 . S
C1490 C1489 1.380 . S
C1490 H1499 0.930 . S
C1491 O1468 1.254 . S
C1491 O1469 1.268 . S
H1492 C1477 0.930 . S
H1493 C1478 0.930 . S
H1494 C1480 0.930 . S
H1495 C1481 0.930 . S
H1496 C1486 0.930 . S
H1497 C1487 0.930 . S
H1498 C1489 0.930 . S
H1499 C1490 0.930 . S
Gd1500 N1531 2.661 . S
Gd1500 N1537 2.601 . S
Gd1500 O1544 2.545 . S
Gd1500 O1545 2.606 . S
Gd1500 O1547 2.429 . S
Gd1500 O1548 2.545 . S
Gd1500 O1549 2.412 . S
Gd1500 O1551 2.362 . S
Gd1500 O1552 2.324 . S
Gd1500 C1559 2.828 . S
Gd1501 N1510 2.661 . S
Gd1501 N1514 2.601 . S
Gd1501 O1545 2.362 . S
Gd1501 O1546 2.324 . S
Gd1501 O1550 2.545 . S
Gd1501 O1551 2.606 . S
Gd1501 O1553 2.429 . S
Gd1501 O1554 2.545 . S
Gd1501 O1555 2.412 . S
Gd1501 C1568 2.828 . S
C1502 C1505 1.417 . S
C1502 C1507 1.431 . S
C1502 C1508 1.412 . S
C1503 C1506 1.437 . S
C1503 C1507 1.317 . S
C1503 H1522 0.929 . S
C1504 C1505 1.426 . S
C1504 C1506 1.413 . S
C1504 N1514 1.359 . S
C1505 C1502 1.417 . S
C1505 C1504 1.426 . S
C1505 N1510 1.350 . S
C1506 C1503 1.437 . S
C1506 C1504 1.413 . S
C1506 C1516 1.391 . S
C1507 C1502 1.431 . S
C1507 C1503 1.317 . S
C1507 H1518 0.930 . S
C1508 C1502 1.412 . S
C1508 C1509 1.355 . S
C1508 H1520 0.930 . S
C1509 C1508 1.355 . S
C1509 C1511 1.402 . S
C1509 H1521 0.930 . S
N1510 Gd1501 2.661 . S
N1510 C1505 1.350 . S
N1510 C1511 1.307 . S
C1511 C1509 1.402 . S
C1511 N1510 1.307 . S
C1511 H1512 0.930 . S
H1512 C1511 0.930 . S
C1513 N1514 1.334 . S
C1513 C1515 1.394 . S
C1513 H1517 0.930 . S
N1514 Gd1501 2.601 . S
N1514 C1504 1.359 . S
N1514 C1513 1.334 . S
C1515 C1513 1.394 . S
C1515 C1516 1.359 . S
C1515 H1527 0.930 . S
C1516 C1506 1.391 . S
C1516 C1515 1.359 . S
C1516 H1528 0.929 . S
H1517 C1513 0.930 . S
H1518 C1507 0.930 . S
H1519 C1536 0.930 . S
H1520 C1508 0.930 . S
H1521 C1509 0.930 . S
H1522 C1503 0.929 . S
H1523 C1541 0.930 . S
H1524 C1532 0.930 . S
H1525 C1533 0.930 . S
H1526 C1557 0.929 . S
H1527 C1515 0.930 . S
H1528 C1516 0.929 . S
H1529 C1558 0.930 . S
H1530 C1539 0.930 . S
N1531 Gd1500 2.661 . S
N1531 C1535 1.350 . S
N1531 C1536 1.307 . S
C1532 H1524 0.930 . S
C1532 C1533 1.355 . S
C1532 C1534 1.412 . S
C1533 H1525 0.930 . S
C1533 C1532 1.355 . S
C1533 C1536 1.402 1_655 S
C1534 C1532 1.412 . S
C1534 C1535 1.417 1_655 S
C1534 C1558 1.431 . S
C1535 N1531 1.350 . S
C1535 C1534 1.417 1_455 S
C1535 C1538 1.426 . S
C1536 H1519 0.930 . S
C1536 N1531 1.307 . S
C1536 C1533 1.402 1_455 S
N1537 Gd1500 2.601 . S
N1537 C1538 1.359 . S
N1537 C1541 1.334 . S
C1538 C1535 1.426 . S
C1538 N1537 1.359 . S
C1538 C1542 1.413 . S
C1539 H1530 0.930 . S
C1539 C1540 1.359 . S
C1539 C1541 1.394 . S
C1540 C1539 1.359 . S
C1540 C1542 1.391 . S
C1540 H1543 0.929 . S
C1541 H1523 0.930 . S
C1541 N1537 1.334 . S
C1541 C1539 1.394 . S
C1542 C1538 1.413 . S
C1542 C1540 1.391 . S
C1542 C1557 1.437 1_455 S
H1543 C1540 0.929 . S
O1544 Gd1500 2.545 . S
O1544 C1559 1.258 . S
O1545 Gd1500 2.606 . S
O1545 Gd1501 2.362 . S
O1545 C1556 1.284 . S
O1546 Gd1501 2.324 . S
O1546 C1566 1.254 . S
O1547 Gd1500 2.429 . S
O1547 C1566 1.268 . S
O1548 Gd1500 2.545 . S
O1548 C1556 1.250 . S
O1549 Gd1500 2.412 . S
O1549 C1559 1.252 . S
O1550 Gd1501 2.545 . S
O1550 C1568 1.258 . S
O1551 Gd1500 2.362 . S
O1551 Gd1501 2.606 . S
O1551 C1567 1.284 . S
O1552 Gd1500 2.324 . S
O1552 C1575 1.254 . S
O1553 Gd1501 2.429 . S
O1553 C1575 1.268 . S
O1554 Gd1501 2.545 . S
O1554 C1567 1.250 . S
O1555 Gd1501 2.412 . S
O1555 C1568 1.252 . S
C1556 O1545 1.284 . S
C1556 O1548 1.250 . S
C1557 H1526 0.929 . S
C1557 C1542 1.437 1_655 S
C1557 C1558 1.317 . S
C1558 H1529 0.930 . S
C1558 C1534 1.431 . S
C1558 C1557 1.317 . S
C1559 Gd1500 2.828 . S
C1559 O1544 1.258 . S
C1559 O1549 1.252 . S
C1559 C1560 1.497 . S
C1560 C1559 1.497 . S
C1560 C1561 1.395 . S
C1560 C1562 1.380 . S
C1561 C1560 1.395 . S
C1561 C1564 1.398 . S
C1561 H1576 0.930 . S
C1562 C1560 1.380 . S
C1562 C1563 1.391 . S
C1562 H1577 0.930 . S
C1563 C1562 1.391 . S
C1563 C1565 1.387 . S
C1564 C1561 1.398 . S
C1564 C1565 1.380 . S
C1564 H1578 0.930 . S
C1565 C1563 1.387 . S
C1565 C1564 1.380 . S
C1565 H1579 0.930 . S
C1566 O1546 1.254 . S
C1566 O1547 1.268 . S
C1567 O1551 1.284 . S
C1567 O1554 1.250 . S
C1568 Gd1501 2.828 . S
C1568 O1550 1.258 . S
C1568 O1555 1.252 . S
C1568 C1569 1.497 . S
C1569 C1568 1.497 . S
C1569 C1570 1.395 . S
C1569 C1571 1.380 . S
C1570 C1569 1.395 . S
C1570 C1573 1.398 . S
C1570 H1580 0.930 . S
C1571 C1569 1.380 . S
C1571 C1572 1.391 . S
C1571 H1581 0.930 . S
C1572 C1571 1.391 . S
C1572 C1574 1.387 . S
C1573 C1570 1.398 . S
C1573 C1574 1.380 . S
C1573 H1582 0.930 . S
C1574 C1572 1.387 . S
C1574 C1573 1.380 . S
C1574 H1583 0.930 . S
C1575 O1552 1.254 . S
C1575 O1553 1.268 . S
H1576 C1561 0.930 . S
H1577 C1562 0.930 . S
H1578 C1564 0.930 . S
H1579 C1565 0.930 . S
H1580 C1570 0.930 . S
H1581 C1571 0.930 . S
H1582 C1573 0.930 . S
H1583 C1574 0.930 . S
Gd1584 N1615 2.661 . S
Gd1584 N1621 2.601 . S
Gd1584 O1628 2.545 . S
Gd1584 O1629 2.606 . S
Gd1584 O1631 2.429 . S
Gd1584 O1632 2.545 . S
Gd1584 O1633 2.412 . S
Gd1584 O1635 2.362 . S
Gd1584 O1636 2.324 . S
Gd1584 C1643 2.828 . S
Gd1585 N1594 2.661 . S
Gd1585 N1598 2.601 . S
Gd1585 O1629 2.362 . S
Gd1585 O1630 2.324 . S
Gd1585 O1634 2.545 . S
Gd1585 O1635 2.606 . S
Gd1585 O1637 2.429 . S
Gd1585 O1638 2.545 . S
Gd1585 O1639 2.412 . S
Gd1585 C1652 2.828 . S
C1586 C1589 1.417 . S
C1586 C1591 1.431 . S
C1586 C1592 1.412 . S
C1587 C1590 1.437 . S
C1587 C1591 1.317 . S
C1587 H1606 0.929 . S
C1588 C1589 1.426 . S
C1588 C1590 1.413 . S
C1588 N1598 1.359 . S
C1589 C1586 1.417 . S
C1589 C1588 1.426 . S
C1589 N1594 1.350 . S
C1590 C1587 1.437 . S
C1590 C1588 1.413 . S
C1590 C1600 1.391 . S
C1591 C1586 1.431 . S
C1591 C1587 1.317 . S
C1591 H1602 0.930 . S
C1592 C1586 1.412 . S
C1592 C1593 1.355 . S
C1592 H1604 0.930 . S
C1593 C1592 1.355 . S
C1593 C1595 1.402 . S
C1593 H1605 0.930 . S
N1594 Gd1585 2.661 . S
N1594 C1589 1.350 . S
N1594 C1595 1.307 . S
C1595 C1593 1.402 . S
C1595 N1594 1.307 . S
C1595 H1596 0.930 . S
H1596 C1595 0.930 . S
C1597 N1598 1.334 . S
C1597 C1599 1.394 . S
C1597 H1601 0.930 . S
N1598 Gd1585 2.601 . S
N1598 C1588 1.359 . S
N1598 C1597 1.334 . S
C1599 C1597 1.394 . S
C1599 C1600 1.359 . S
C1599 H1611 0.930 . S
C1600 C1590 1.391 . S
C1600 C1599 1.359 . S
C1600 H1612 0.929 . S
H1601 C1597 0.930 . S
H1602 C1591 0.930 . S
H1603 C1620 0.930 . S
H1604 C1592 0.930 . S
H1605 C1593 0.930 . S
H1606 C1587 0.929 . S
H1607 C1625 0.930 . S
H1608 C1616 0.930 . S
H1609 C1617 0.930 . S
H1610 C1641 0.929 . S
H1611 C1599 0.930 . S
H1612 C1600 0.929 . S
H1613 C1642 0.930 . S
H1614 C1623 0.930 . S
N1615 Gd1584 2.661 . S
N1615 C1619 1.350 . S
N1615 C1620 1.307 . S
C1616 H1608 0.930 . S
C1616 C1617 1.355 . S
C1616 C1618 1.412 . S
C1617 H1609 0.930 . S
C1617 C1616 1.355 . S
C1617 C1620 1.402 1_455 S
C1618 C1616 1.412 . S
C1618 C1619 1.417 1_455 S
C1618 C1642 1.431 . S
C1619 N1615 1.350 . S
C1619 C1618 1.417 1_655 S
C1619 C1622 1.426 . S
C1620 H1603 0.930 . S
C1620 N1615 1.307 . S
C1620 C1617 1.402 1_655 S
N1621 Gd1584 2.601 . S
N1621 C1622 1.359 . S
N1621 C1625 1.334 . S
C1622 C1619 1.426 . S
C1622 N1621 1.359 . S
C1622 C1626 1.413 . S
C1623 H1614 0.930 . S
C1623 C1624 1.359 . S
C1623 C1625 1.394 . S
C1624 C1623 1.359 . S
C1624 C1626 1.391 . S
C1624 H1627 0.929 . S
C1625 H1607 0.930 . S
C1625 N1621 1.334 . S
C1625 C1623 1.394 . S
C1626 C1622 1.413 . S
C1626 C1624 1.391 . S
C1626 C1641 1.437 1_655 S
H1627 C1624 0.929 . S
O1628 Gd1584 2.545 . S
O1628 C1643 1.258 . S
O1629 Gd1584 2.606 . S
O1629 Gd1585 2.362 . S
O1629 C1640 1.284 . S
O1630 Gd1585 2.324 . S
O1630 C1650 1.254 . S
O1631 Gd1584 2.429 . S
O1631 C1650 1.268 . S
O1632 Gd1584 2.545 . S
O1632 C1640 1.250 . S
O1633 Gd1584 2.412 . S
O1633 C1643 1.252 . S
O1634 Gd1585 2.545 . S
O1634 C1652 1.258 . S
O1635 Gd1584 2.362 . S
O1635 Gd1585 2.606 . S
O1635 C1651 1.284 . S
O1636 Gd1584 2.324 . S
O1636 C1659 1.254 . S
O1637 Gd1585 2.429 . S
O1637 C1659 1.268 . S
O1638 Gd1585 2.545 . S
O1638 C1651 1.250 . S
O1639 Gd1585 2.412 . S
O1639 C1652 1.252 . S
C1640 O1629 1.284 . S
C1640 O1632 1.250 . S
C1641 H1610 0.929 . S
C1641 C1626 1.437 1_455 S
C1641 C1642 1.317 . S
C1642 H1613 0.930 . S
C1642 C1618 1.431 . S
C1642 C1641 1.317 . S
C1643 Gd1584 2.828 . S
C1643 O1628 1.258 . S
C1643 O1633 1.252 . S
C1643 C1644 1.497 . S
C1644 C1643 1.497 . S
C1644 C1645 1.395 . S
C1644 C1646 1.380 . S
C1645 C1644 1.395 . S
C1645 C1648 1.398 . S
C1645 H1660 0.930 . S
C1646 C1644 1.380 . S
C1646 C1647 1.391 . S
C1646 H1661 0.930 . S
C1647 C1646 1.391 . S
C1647 C1649 1.387 . S
C1648 C1645 1.398 . S
C1648 C1649 1.380 . S
C1648 H1662 0.930 . S
C1649 C1647 1.387 . S
C1649 C1648 1.380 . S
C1649 H1663 0.930 . S
C1650 O1630 1.254 . S
C1650 O1631 1.268 . S
C1651 O1635 1.284 . S
C1651 O1638 1.250 . S
C1652 Gd1585 2.828 . S
C1652 O1634 1.258 . S
C1652 O1639 1.252 . S
C1652 C1653 1.497 . S
C1653 C1652 1.497 . S
C1653 C1654 1.395 . S
C1653 C1655 1.380 . S
C1654 C1653 1.395 . S
C1654 C1657 1.398 . S
C1654 H1664 0.930 . S
C1655 C1653 1.380 . S
C1655 C1656 1.391 . S
C1655 H1665 0.930 . S
C1656 C1655 1.391 . S
C1656 C1658 1.387 . S
C1657 C1654 1.398 . S
C1657 C1658 1.380 . S
C1657 H1666 0.930 . S
C1658 C1656 1.387 . S
C1658 C1657 1.380 . S
C1658 H1667 0.930 . S
C1659 O1636 1.254 . S
C1659 O1637 1.268 . S
H1660 C1645 0.930 . S
H1661 C1646 0.930 . S
H1662 C1648 0.930 . S
H1663 C1649 0.930 . S
H1664 C1654 0.930 . S
H1665 C1655 0.930 . S
H1666 C1657 0.930 . S
H1667 C1658 0.930 . S
Gd1668 N1699 2.661 . S
Gd1668 N1705 2.601 . S
Gd1668 O1712 2.545 . S
Gd1668 O1713 2.606 . S
Gd1668 O1715 2.429 . S
Gd1668 O1716 2.545 . S
Gd1668 O1717 2.412 . S
Gd1668 O1719 2.362 . S
Gd1668 O1720 2.324 . S
Gd1668 C1727 2.828 . S
Gd1669 N1678 2.661 . S
Gd1669 N1682 2.601 . S
Gd1669 O1713 2.362 . S
Gd1669 O1714 2.324 . S
Gd1669 O1718 2.545 . S
Gd1669 O1719 2.606 . S
Gd1669 O1721 2.429 . S
Gd1669 O1722 2.545 . S
Gd1669 O1723 2.412 . S
Gd1669 C1736 2.828 . S
C1670 C1673 1.417 . S
C1670 C1675 1.431 . S
C1670 C1676 1.412 . S
C1671 C1674 1.437 . S
C1671 C1675 1.317 . S
C1671 H1690 0.929 . S
C1672 C1673 1.426 . S
C1672 C1674 1.413 . S
C1672 N1682 1.359 . S
C1673 C1670 1.417 . S
C1673 C1672 1.426 . S
C1673 N1678 1.350 . S
C1674 C1671 1.437 . S
C1674 C1672 1.413 . S
C1674 C1684 1.391 . S
C1675 C1670 1.431 . S
C1675 C1671 1.317 . S
C1675 H1686 0.930 . S
C1676 C1670 1.412 . S
C1676 C1677 1.355 . S
C1676 H1688 0.930 . S
C1677 C1676 1.355 . S
C1677 C1679 1.402 . S
C1677 H1689 0.930 . S
N1678 Gd1669 2.661 . S
N1678 C1673 1.350 . S
N1678 C1679 1.307 . S
C1679 C1677 1.402 . S
C1679 N1678 1.307 . S
C1679 H1680 0.930 . S
H1680 C1679 0.930 . S
C1681 N1682 1.334 . S
C1681 C1683 1.394 . S
C1681 H1685 0.930 . S
N1682 Gd1669 2.601 . S
N1682 C1672 1.359 . S
N1682 C1681 1.334 . S
C1683 C1681 1.394 . S
C1683 C1684 1.359 . S
C1683 H1695 0.930 . S
C1684 C1674 1.391 . S
C1684 C1683 1.359 . S
C1684 H1696 0.929 . S
H1685 C1681 0.930 . S
H1686 C1675 0.930 . S
H1687 C1704 0.930 . S
H1688 C1676 0.930 . S
H1689 C1677 0.930 . S
H1690 C1671 0.929 . S
H1691 C1709 0.930 . S
H1692 C1700 0.930 . S
H1693 C1701 0.930 . S
H1694 C1725 0.929 . S
H1695 C1683 0.930 . S
H1696 C1684 0.929 . S
H1697 C1726 0.930 . S
H1698 C1707 0.930 . S
N1699 Gd1668 2.661 . S
N1699 C1703 1.350 . S
N1699 C1704 1.307 . S
C1700 H1692 0.930 . S
C1700 C1701 1.355 . S
C1700 C1702 1.412 . S
C1701 H1693 0.930 . S
C1701 C1700 1.355 . S
C1701 C1704 1.402 . S
C1702 C1700 1.412 . S
C1702 C1703 1.417 . S
C1702 C1726 1.431 . S
C1703 N1699 1.350 . S
C1703 C1702 1.417 . S
C1703 C1706 1.426 . S
C1704 H1687 0.930 . S
C1704 N1699 1.307 . S
C1704 C1701 1.402 . S
N1705 Gd1668 2.601 . S
N1705 C1706 1.359 . S
N1705 C1709 1.334 . S
C1706 C1703 1.426 . S
C1706 N1705 1.359 . S
C1706 C1710 1.413 . S
C1707 H1698 0.930 . S
C1707 C1708 1.359 . S
C1707 C1709 1.394 . S
C1708 C1707 1.359 . S
C1708 C1710 1.391 . S
C1708 H1711 0.929 . S
C1709 H1691 0.930 . S
C1709 N1705 1.334 . S
C1709 C1707 1.394 . S
C1710 C1706 1.413 . S
C1710 C1708 1.391 . S
C1710 C1725 1.437 . S
H1711 C1708 0.929 . S
O1712 Gd1668 2.545 . S
O1712 C1727 1.258 . S
O1713 Gd1668 2.606 . S
O1713 Gd1669 2.362 . S
O1713 C1724 1.284 . S
O1714 Gd1669 2.324 . S
O1714 C1734 1.254 . S
O1715 Gd1668 2.429 . S
O1715 C1734 1.268 . S
O1716 Gd1668 2.545 . S
O1716 C1724 1.250 . S
O1717 Gd1668 2.412 . S
O1717 C1727 1.252 . S
O1718 Gd1669 2.545 . S
O1718 C1736 1.258 . S
O1719 Gd1668 2.362 . S
O1719 Gd1669 2.606 . S
O1719 C1735 1.284 . S
O1720 Gd1668 2.324 . S
O1720 C1743 1.254 . S
O1721 Gd1669 2.429 . S
O1721 C1743 1.268 . S
O1722 Gd1669 2.545 . S
O1722 C1735 1.250 . S
O1723 Gd1669 2.412 . S
O1723 C1736 1.252 . S
C1724 O1713 1.284 . S
C1724 O1716 1.250 . S
C1725 H1694 0.929 . S
C1725 C1710 1.437 . S
C1725 C1726 1.317 . S
C1726 H1697 0.930 . S
C1726 C1702 1.431 . S
C1726 C1725 1.317 . S
C1727 Gd1668 2.828 . S
C1727 O1712 1.258 . S
C1727 O1717 1.252 . S
C1727 C1728 1.497 . S
C1728 C1727 1.497 . S
C1728 C1729 1.395 . S
C1728 C1730 1.380 . S
C1729 C1728 1.395 . S
C1729 C1732 1.398 . S
C1729 H1744 0.930 . S
C1730 C1728 1.380 . S
C1730 C1731 1.391 . S
C1730 H1745 0.930 . S
C1731 C1730 1.391 . S
C1731 C1733 1.387 . S
C1732 C1729 1.398 . S
C1732 C1733 1.380 . S
C1732 H1746 0.930 . S
C1733 C1731 1.387 . S
C1733 C1732 1.380 . S
C1733 H1747 0.930 . S
C1734 O1714 1.254 . S
C1734 O1715 1.268 . S
C1735 O1719 1.284 . S
C1735 O1722 1.250 . S
C1736 Gd1669 2.828 . S
C1736 O1718 1.258 . S
C1736 O1723 1.252 . S
C1736 C1737 1.497 . S
C1737 C1736 1.497 . S
C1737 C1738 1.395 . S
C1737 C1739 1.380 . S
C1738 C1737 1.395 . S
C1738 C1741 1.398 . S
C1738 H1748 0.930 . S
C1739 C1737 1.380 . S
C1739 C1740 1.391 . S
C1739 H1749 0.930 . S
C1740 C1739 1.391 . S
C1740 C1742 1.387 . S
C1741 C1738 1.398 . S
C1741 C1742 1.380 . S
C1741 H1750 0.930 . S
C1742 C1740 1.387 . S
C1742 C1741 1.380 . S
C1742 H1751 0.930 . S
C1743 O1720 1.254 . S
C1743 O1721 1.268 . S
H1744 C1729 0.930 . S
H1745 C1730 0.930 . S
H1746 C1732 0.930 . S
H1747 C1733 0.930 . S
H1748 C1738 0.930 . S
H1749 C1739 0.930 . S
H1750 C1741 0.930 . S
H1751 C1742 0.930 . S
Gd1752 N1783 2.661 . S
Gd1752 N1789 2.601 . S
Gd1752 O1796 2.545 . S
Gd1752 O1797 2.606 . S
Gd1752 O1799 2.429 . S
Gd1752 O1800 2.545 . S
Gd1752 O1801 2.412 . S
Gd1752 O1803 2.362 . S
Gd1752 O1804 2.324 . S
Gd1752 C1811 2.828 . S
Gd1753 N1762 2.661 . S
Gd1753 N1766 2.601 . S
Gd1753 O1797 2.362 . S
Gd1753 O1798 2.324 . S
Gd1753 O1802 2.545 . S
Gd1753 O1803 2.606 . S
Gd1753 O1805 2.429 . S
Gd1753 O1806 2.545 . S
Gd1753 O1807 2.412 . S
Gd1753 C1820 2.828 . S
C1754 C1757 1.417 1_455 S
C1754 C1759 1.431 . S
C1754 C1760 1.412 . S
C1755 C1758 1.437 1_455 S
C1755 C1759 1.317 . S
C1755 H1774 0.929 . S
C1756 C1757 1.426 . S
C1756 C1758 1.413 . S
C1756 N1766 1.359 . S
C1757 C1754 1.417 1_655 S
C1757 C1756 1.426 . S
C1757 N1762 1.350 . S
C1758 C1755 1.437 1_655 S
C1758 C1756 1.413 . S
C1758 C1768 1.391 . S
C1759 C1754 1.431 . S
C1759 C1755 1.317 . S
C1759 H1770 0.930 . S
C1760 C1754 1.412 . S
C1760 C1761 1.355 . S
C1760 H1772 0.930 . S
C1761 C1760 1.355 . S
C1761 C1763 1.402 1_455 S
C1761 H1773 0.930 . S
N1762 Gd1753 2.661 . S
N1762 C1757 1.350 . S
N1762 C1763 1.307 . S
C1763 C1761 1.402 1_655 S
C1763 N1762 1.307 . S
C1763 H1764 0.930 . S
H1764 C1763 0.930 . S
C1765 N1766 1.334 . S
C1765 C1767 1.394 . S
C1765 H1769 0.930 . S
N1766 Gd1753 2.601 . S
N1766 C1756 1.359 . S
N1766 C1765 1.334 . S
C1767 C1765 1.394 . S
C1767 C1768 1.359 . S
C1767 H1779 0.930 . S
C1768 C1758 1.391 . S
C1768 C1767 1.359 . S
C1768 H1780 0.929 . S
H1769 C1765 0.930 . S
H1770 C1759 0.930 . S
H1771 C1788 0.930 . S
H1772 C1760 0.930 . S
H1773 C1761 0.930 . S
H1774 C1755 0.929 . S
H1775 C1793 0.930 . S
H1776 C1784 0.930 . S
H1777 C1785 0.930 . S
H1778 C1809 0.929 . S
H1779 C1767 0.930 . S
H1780 C1768 0.929 . S
H1781 C1810 0.930 . S
H1782 C1791 0.930 . S
N1783 Gd1752 2.661 . S
N1783 C1787 1.350 . S
N1783 C1788 1.307 . S
C1784 H1776 0.930 . S
C1784 C1785 1.355 . S
C1784 C1786 1.412 . S
C1785 H1777 0.930 . S
C1785 C1784 1.355 . S
C1785 C1788 1.402 . S
C1786 C1784 1.412 . S
C1786 C1787 1.417 . S
C1786 C1810 1.431 . S
C1787 N1783 1.350 . S
C1787 C1786 1.417 . S
C1787 C1790 1.426 . S
C1788 H1771 0.930 . S
C1788 N1783 1.307 . S
C1788 C1785 1.402 . S
N1789 Gd1752 2.601 . S
N1789 C1790 1.359 . S
N1789 C1793 1.334 . S
C1790 C1787 1.426 . S
C1790 N1789 1.359 . S
C1790 C1794 1.413 . S
C1791 H1782 0.930 . S
C1791 C1792 1.359 . S
C1791 C1793 1.394 . S
C1792 C1791 1.359 . S
C1792 C1794 1.391 . S
C1792 H1795 0.929 . S
C1793 H1775 0.930 . S
C1793 N1789 1.334 . S
C1793 C1791 1.394 . S
C1794 C1790 1.413 . S
C1794 C1792 1.391 . S
C1794 C1809 1.437 . S
H1795 C1792 0.929 . S
O1796 Gd1752 2.545 . S
O1796 C1811 1.258 . S
O1797 Gd1752 2.606 . S
O1797 Gd1753 2.362 . S
O1797 C1808 1.284 . S
O1798 Gd1753 2.324 . S
O1798 C1818 1.254 . S
O1799 Gd1752 2.429 . S
O1799 C1818 1.268 . S
O1800 Gd1752 2.545 . S
O1800 C1808 1.250 . S
O1801 Gd1752 2.412 . S
O1801 C1811 1.252 . S
O1802 Gd1753 2.545 . S
O1802 C1820 1.258 . S
O1803 Gd1752 2.362 . S
O1803 Gd1753 2.606 . S
O1803 C1819 1.284 . S
O1804 Gd1752 2.324 . S
O1804 C1827 1.254 . S
O1805 Gd1753 2.429 . S
O1805 C1827 1.268 . S
O1806 Gd1753 2.545 . S
O1806 C1819 1.250 . S
O1807 Gd1753 2.412 . S
O1807 C1820 1.252 . S
C1808 O1797 1.284 . S
C1808 O1800 1.250 . S
C1809 H1778 0.929 . S
C1809 C1794 1.437 . S
C1809 C1810 1.317 . S
C1810 H1781 0.930 . S
C1810 C1786 1.431 . S
C1810 C1809 1.317 . S
C1811 Gd1752 2.828 . S
C1811 O1796 1.258 . S
C1811 O1801 1.252 . S
C1811 C1812 1.497 . S
C1812 C1811 1.497 . S
C1812 C1813 1.395 . S
C1812 C1814 1.380 . S
C1813 C1812 1.395 . S
C1813 C1816 1.398 . S
C1813 H1828 0.930 . S
C1814 C1812 1.380 . S
C1814 C1815 1.391 . S
C1814 H1829 0.930 . S
C1815 C1814 1.391 . S
C1815 C1817 1.387 . S
C1816 C1813 1.398 . S
C1816 C1817 1.380 . S
C1816 H1830 0.930 . S
C1817 C1815 1.387 . S
C1817 C1816 1.380 . S
C1817 H1831 0.930 . S
C1818 O1798 1.254 . S
C1818 O1799 1.268 . S
C1819 O1803 1.284 . S
C1819 O1806 1.250 . S
C1820 Gd1753 2.828 . S
C1820 O1802 1.258 . S
C1820 O1807 1.252 . S
C1820 C1821 1.497 . S
C1821 C1820 1.497 . S
C1821 C1822 1.395 . S
C1821 C1823 1.380 . S
C1822 C1821 1.395 . S
C1822 C1825 1.398 . S
C1822 H1832 0.930 . S
C1823 C1821 1.380 . S
C1823 C1824 1.391 . S
C1823 H1833 0.930 . S
C1824 C1823 1.391 . S
C1824 C1826 1.387 . S
C1825 C1822 1.398 . S
C1825 C1826 1.380 . S
C1825 H1834 0.930 . S
C1826 C1824 1.387 . S
C1826 C1825 1.380 . S
C1826 H1835 0.930 . S
C1827 O1804 1.254 . S
C1827 O1805 1.268 . S
H1828 C1813 0.930 . S
H1829 C1814 0.930 . S
H1830 C1816 0.930 . S
H1831 C1817 0.930 . S
H1832 C1822 0.930 . S
H1833 C1823 0.930 . S
H1834 C1825 0.930 . S
H1835 C1826 0.930 . S
C781 C1136 1.549 . S
C871 C1220 1.549 . S
C751 C1314 1.512 . S
C691 C1230 1.408 . S
C1304 C571 1.439 . S
C601 C1146 1.537 . S
C1147 C661 1.392 . S
C1231 C541 1.374 . S
C631 C1323 1.653 . S
C811 C1239 1.517 . S
C841 C1315 1.274 . S
C1155 C721 1.386 . S
C1388 C61 1.550 . S
C151 C1472 1.552 . S
C31 C1566 1.511 . S
C1051 C1482 1.407 . S
C931 C1556 1.439 . S
C961 C1398 1.539 . S
C1021 C1399 1.391 . S
C901 C1483 1.372 . S
C1575 C991 1.654 . S
C91 C1491 1.517 . S
C1567 C121 1.273 . S
C1 C1407 1.385 . S
C1640 C421 1.549 . S
C511 C1724 1.552 . S
C1818 C391 1.513 . S
C1734 C331 1.407 . S
C1808 C211 1.439 . S
C241 C1650 1.538 . S
C301 C1651 1.392 . S
C181 C1735 1.371 . S
C1827 C271 1.652 . S
C451 C1743 1.517 . S
C481 C1819 1.274 . S
C361 C1659 1.386 . S
C920 C1143 1.619 . S
C1227 C980 1.400 . S
C1040 C1320 1.546 . S
C380 C1236 1.486 . S
C440 C1311 1.419 . S
C1152 C500 1.705 . S
C200 C1395 1.619 . S
C260 C1479 1.400 . S
C320 C1572 1.546 . S
C740 C1488 1.485 . S
C1563 C800 1.420 . S
C860 C1404 1.707 . S
C560 C1647 1.618 . S
C620 C1731 1.400 . S
C1824 C680 1.546 . S
C20 C1740 1.486 . S
C80 C1815 1.419 . S
C140 C1656 1.707 . S
