# Generated by pormake.
# Topology pyr, (3,6)-cn, num edge types: 1
# Building blocks:
#     Node 0, Type 0, BuildingBlock: CUQRIR_clean_linker_1, # of connection points: 3
#     Node 1, Type 0, BuildingBlock: CUQRIR_clean_linker_1, # of connection points: 3
#     Node 2, Type 0, BuildingBlock: CUQRIR_clean_linker_1, # of connection points: 3
#     Node 3, Type 0, BuildingBlock: CUQRIR_clean_linker_1, # of connection points: 3
#     Node 4, Type 0, BuildingBlock: CUQRIR_clean_linker_1, # of connection points: 3
#     Node 5, Type 0, BuildingBlock: CUQRIR_clean_linker_1, # of connection points: 3
#     Node 6, Type 0, BuildingBlock: CUQRIR_clean_linker_1, # of connection points: 3
#     Node 7, Type 0, BuildingBlock: CUQRIR_clean_linker_1, # of connection points: 3
#     Node 8, Type 1, BuildingBlock: INOVEN_clean_sbu_0, # of connection points: 6
#     Node 9, Type 1, BuildingBlock: INOVEN_clean_sbu_0, # of connection points: 6
#     Node 10, Type 1, BuildingBlock: INOVEN_clean_sbu_0, # of connection points: 6
#     Node 11, Type 1, BuildingBlock: INOVEN_clean_sbu_0, # of connection points: 6
#     Edge 12, Type (0, 1), BuildingBlock: KIFKEQ_clean_linker_1, # of connection points: 2
#     Edge 13, Type (0, 1), BuildingBlock: KIFKEQ_clean_linker_1, # of connection points: 2
#     Edge 14, Type (0, 1), BuildingBlock: KIFKEQ_clean_linker_1, # of connection points: 2
#     Edge 15, Type (0, 1), BuildingBlock: KIFKEQ_clean_linker_1, # of connection points: 2
#     Edge 16, Type (0, 1), BuildingBlock: KIFKEQ_clean_linker_1, # of connection points: 2
#     Edge 17, Type (0, 1), BuildingBlock: KIFKEQ_clean_linker_1, # of connection points: 2
#     Edge 18, Type (0, 1), BuildingBlock: KIFKEQ_clean_linker_1, # of connection points: 2
#     Edge 19, Type (0, 1), BuildingBlock: KIFKEQ_clean_linker_1, # of connection points: 2
#     Edge 20, Type (0, 1), BuildingBlock: KIFKEQ_clean_linker_1, # of connection points: 2
#     Edge 21, Type (0, 1), BuildingBlock: KIFKEQ_clean_linker_1, # of connection points: 2
#     Edge 22, Type (0, 1), BuildingBlock: KIFKEQ_clean_linker_1, # of connection points: 2
#     Edge 23, Type (0, 1), BuildingBlock: KIFKEQ_clean_linker_1, # of connection points: 2
#     Edge 24, Type (0, 1), BuildingBlock: KIFKEQ_clean_linker_1, # of connection points: 2
#     Edge 25, Type (0, 1), BuildingBlock: KIFKEQ_clean_linker_1, # of connection points: 2
#     Edge 26, Type (0, 1), BuildingBlock: KIFKEQ_clean_linker_1, # of connection points: 2
#     Edge 27, Type (0, 1), BuildingBlock: KIFKEQ_clean_linker_1, # of connection points: 2
#     Edge 28, Type (0, 1), BuildingBlock: KIFKEQ_clean_linker_1, # of connection points: 2
#     Edge 29, Type (0, 1), BuildingBlock: KIFKEQ_clean_linker_1, # of connection points: 2
#     Edge 30, Type (0, 1), BuildingBlock: KIFKEQ_clean_linker_1, # of connection points: 2
#     Edge 31, Type (0, 1), BuildingBlock: KIFKEQ_clean_linker_1, # of connection points: 2
#     Edge 32, Type (0, 1), BuildingBlock: KIFKEQ_clean_linker_1, # of connection points: 2
#     Edge 33, Type (0, 1), BuildingBlock: KIFKEQ_clean_linker_1, # of connection points: 2
#     Edge 34, Type (0, 1), BuildingBlock: KIFKEQ_clean_linker_1, # of connection points: 2
#     Edge 35, Type (0, 1), BuildingBlock: KIFKEQ_clean_linker_1, # of connection points: 2
# Relax obj value: 0.194
# Max RMSD: 0.256
# Mean RMSD: 0.169
data_MOF--net-pyr--node1-INOVEN_clean_sbu_0--node2-CUQRIR_clean_linker_1--edge1-KIFKEQ_clean_linker_1
_symmetry_space_group_name_H-M    P1
_symmetry_Int_Tables_number       1
_symmetry_cell_setting            triclinic
loop_
_symmetry_equiv_pos_as_xyz
'x, y, z'
_cell_length_a     36.476731
_cell_length_b     37.720222
_cell_length_c     33.237975
_cell_angle_alpha  90.153728
_cell_angle_beta   89.39299
_cell_angle_gamma 107.56742
loop_
_atom_site_label
_atom_site_type_symbol
_atom_site_fract_x
_atom_site_fract_y
_atom_site_fract_z
_atom_type_partial_charge
C0 C 0.3451 0.38935 0.21888 0.0
N1 N 0.36058 0.36156 0.22637 0.0
N2 N 0.35288 0.402 0.18064 0.0
C3 C 0.31608 0.39888 0.24632 0.0
C4 C 0.37347 0.38073 0.16501 0.0
N5 N 0.37841 0.35641 0.19277 0.0
C6 C 0.38587 0.38167 0.12171 0.0
H7 H 0.30328 0.41922 0.23308 0.0
H8 H 0.33025 0.41069 0.27478 0.0
H9 H 0.29243 0.3733 0.25386 0.0
H10 H 0.38948 0.40951 0.10846 0.0
H11 H 0.36343 0.36081 0.1046 0.0
H12 H 0.41318 0.37457 0.1189 0.0
C13 C 0.26046 0.93182 0.63606 0.0
N14 N 0.24831 0.95423 0.66124 0.0
N15 N 0.28497 0.91713 0.65517 0.0
C16 C 0.25183 0.92762 0.59175 0.0
C17 C 0.28742 0.93148 0.69275 0.0
N18 N 0.26533 0.95429 0.69629 0.0
C19 C 0.31111 0.92312 0.72611 0.0
H20 H 0.2247 0.90475 0.58747 0.0
H21 H 0.27514 0.9208 0.57475 0.0
H22 H 0.248 0.95346 0.57913 0.0
H23 H 0.31543 0.89546 0.72184 0.0
H24 H 0.2971 0.9239 0.75576 0.0
H25 H 0.33961 0.94465 0.72619 0.0
C26 C 0.62969 0.40377 0.8815 0.0
N27 N 0.65407 0.40014 0.91089 0.0
N28 N 0.64517 0.43505 0.85935 0.0
C29 C 0.59125 0.37587 0.87341 0.0
C30 C 0.67996 0.45047 0.87655 0.0
N31 N 0.68577 0.42924 0.90758 0.0
C32 C 0.70663 0.48821 0.86541 0.0
H33 H 0.58297 0.37695 0.84152 0.0
H34 H 0.5692 0.38234 0.89286 0.0
H35 H 0.59166 0.34729 0.88064 0.0
H36 H 0.6906 0.50588 0.85188 0.0
H37 H 0.72807 0.48478 0.84301 0.0
H38 H 0.72219 0.50268 0.89215 0.0
C39 C 0.84847 0.72405 0.38028 0.0
N40 N 0.88066 0.75099 0.36762 0.0
N41 N 0.8303 0.73623 0.41077 0.0
C42 C 0.83572 0.685 0.36396 0.0
C43 C 0.85269 0.77179 0.4164 0.0
N44 N 0.88331 0.78103 0.39049 0.0
C45 C 0.84416 0.79794 0.44698 0.0
H46 H 0.81685 0.68395 0.33774 0.0
H47 H 0.81937 0.66507 0.38701 0.0
H48 H 0.86077 0.67633 0.35374 0.0
H49 H 0.81286 0.79079 0.45328 0.0
H50 H 0.85451 0.82722 0.43677 0.0
H51 H 0.85908 0.79581 0.47537 0.0
C52 C 0.68091 0.85143 0.92505 0.0
N53 N 0.70718 0.84146 0.90242 0.0
N54 N 0.6719 0.88023 0.90801 0.0
C55 C 0.66694 0.83561 0.96582 0.0
C56 C 0.69379 0.88744 0.87415 0.0
N57 N 0.71535 0.86399 0.87075 0.0
C58 C 0.69852 0.92101 0.84796 0.0
H59 H 0.63791 0.8381 0.97232 0.0
H60 H 0.68693 0.85138 0.98908 0.0
H61 H 0.66618 0.80602 0.96753 0.0
H62 H 0.71147 0.9177 0.81836 0.0
H63 H 0.71751 0.94587 0.86328 0.0
H64 H 0.67029 0.92572 0.84326 0.0
C65 C 0.82954 0.31988 0.53844 0.0
N66 N 0.83809 0.29327 0.51622 0.0
N67 N 0.8084 0.33674 0.51669 0.0
C68 C 0.84189 0.32958 0.58106 0.0
C69 C 0.80384 0.31898 0.48078 0.0
N70 N 0.82232 0.29287 0.48035 0.0
C71 C 0.77711 0.32373 0.4483 0.0
H72 H 0.82026 0.31138 0.60175 0.0
H73 H 0.84383 0.35894 0.58771 0.0
H74 H 0.87005 0.32497 0.5866 0.0
H75 H 0.79376 0.34468 0.42632 0.0
H76 H 0.75358 0.33349 0.46088 0.0
H77 H 0.76404 0.29727 0.43206 0.0
C78 C 0.35424 0.73983 0.27789 0.0
N79 N 0.38655 0.76636 0.29018 0.0
N80 N 0.33563 0.75312 0.24922 0.0
C81 C 0.34136 0.70045 0.2933 0.0
C82 C 0.35767 0.78893 0.24459 0.0
N83 N 0.38859 0.79726 0.26932 0.0
C84 C 0.34885 0.81603 0.21578 0.0
H85 H 0.36631 0.69108 0.30161 0.0
H86 H 0.32416 0.68115 0.27047 0.0
H87 H 0.3233 0.69917 0.32064 0.0
H88 H 0.35819 0.84476 0.22771 0.0
H89 H 0.31763 0.80843 0.20954 0.0
H90 H 0.36457 0.81579 0.18707 0.0
C91 C 0.13515 0.42242 0.778 0.0
N92 N 0.15829 0.41717 0.7474 0.0
N93 N 0.14899 0.45698 0.79445 0.0
C94 C 0.0971 0.39504 0.78947 0.0
C95 C 0.18146 0.47264 0.77231 0.0
N96 N 0.18706 0.44883 0.74369 0.0
C97 C 0.20893 0.51072 0.77982 0.0
H98 H 0.07699 0.40954 0.80144 0.0
H99 H 0.10174 0.37625 0.81319 0.0
H100 H 0.08374 0.37793 0.76323 0.0
H101 H 0.23884 0.51177 0.77179 0.0
H102 H 0.20787 0.51887 0.8118 0.0
H103 H 0.20077 0.53116 0.76071 0.0
Gd104 Gd 0.03726 0.12207 0.51354 0.0
Gd105 Gd 0.03389 0.08275 0.5928 0.0
C106 C 0.06574 0.17128 0.59527 0.0
C107 C 0.04146 0.16683 0.45418 0.0
C108 C 0.07704 0.19258 0.438 0.0
C109 C 0.11203 0.19324 0.45556 0.0
C110 C 0.07711 0.21315 0.40307 0.0
C111 C 0.14734 0.23161 0.40087 0.0
C112 C 0.11205 0.2329 0.38484 0.0
C113 C 0.14681 0.21229 0.43708 0.0
C114 C 0.10107 0.10356 0.533 0.0
C115 C 1.00303 1.03391 0.51043 0.0
C116 C 0.03969 1.03882 0.65012 0.0
C117 C 1.0117 1.00533 0.66637 0.0
C118 C 0.97392 0.99485 0.65217 0.0
C119 C 0.02115 0.98609 0.69862 0.0
C120 C 0.95383 0.94919 0.7059 0.0
C121 C 0.99244 0.95798 0.71812 0.0
C122 C 0.94522 0.96719 0.67182 0.0
C123 C 0.97132 0.10451 0.57846 0.0
O124 O 0.04878 0.16958 0.5598 0.0
O125 O 0.06984 0.14059 0.61142 0.0
O126 O 0.03916 0.13187 0.44938 0.0
O127 O 0.03187 0.17412 0.49058 0.0
O128 O 0.0878 0.10079 0.49692 0.0
O129 O 0.08085 0.11637 0.55556 0.0
O130 O 1.01789 1.03494 0.54692 0.0
O131 O 1.00097 0.06496 0.49335 0.0
O132 O 0.03045 0.06935 0.65607 0.0
O133 O 0.052 1.03616 0.61343 0.0
O134 O 0.98393 0.10126 0.61408 0.0
O135 O 0.98941 0.09169 0.55267 0.0
H136 H 0.11242 0.17745 0.48265 0.0
H137 H 0.0503 0.21297 0.38924 0.0
H138 H 0.11131 0.24831 0.3576 0.0
H139 H 0.17309 0.21015 0.45021 0.0
H140 H 0.96622 1.00956 0.62723 0.0
H141 H 0.05031 0.9938 0.70975 0.0
H142 H 1.00027 0.94421 0.74372 0.0
H143 H 0.91592 0.96178 0.66174 0.0
Gd144 Gd 0.56365 0.11665 0.12235 0.0
Gd145 Gd 0.49318 0.0853 0.08117 0.0
C146 C 0.49164 0.14783 0.14056 0.0
C147 C 0.62502 0.15623 0.15838 0.0
C148 C 0.64902 0.15256 0.19271 0.0
C149 C 0.68259 0.14216 0.18665 0.0
C150 C 0.63983 0.16186 0.23165 0.0
C151 C 0.69818 0.15223 0.25759 0.0
C152 C 0.66405 0.16163 0.26366 0.0
C153 C 0.70693 0.14192 0.21884 0.0
C154 C 0.52503 1.04824 0.15372 0.0
C155 C 0.56441 1.05844 0.05714 0.0
C156 C 0.43263 1.0445 1.04476 0.0
C157 C 0.40219 1.04821 1.01787 0.0
C158 C 0.41095 0.07153 0.98401 0.0
C159 C 0.36441 1.02525 1.02384 0.0
C160 C 0.34572 1.04477 0.95942 0.0
C161 C 0.33633 1.02368 0.99502 0.0
C162 C 0.38304 0.06972 0.95499 0.0
C163 C 0.53396 0.15351 0.05014 0.0
O164 O 0.52937 0.15616 0.13785 0.0
O165 O 0.46944 0.11663 0.12563 0.0
O166 O 0.6259 0.13637 0.12639 0.0
O167 O 0.59052 0.1578 0.16687 0.0
O168 O 0.56183 0.06181 0.15006 0.0
O169 O 0.50947 0.0726 0.14297 0.0
O170 O 0.52767 1.0468 0.06647 0.0
O171 O 0.58555 0.09117 0.0699 0.0
O172 O 0.46737 1.05304 1.02952 0.0
O173 O 0.43188 1.05558 0.08194 0.0
O174 O 0.49691 0.14098 0.05282 0.0
O175 O 0.54798 0.1283 0.06106 0.0
H176 H 0.69056 0.13509 0.15689 0.0
H177 H 0.61448 0.17047 0.23734 0.0
H178 H 0.65684 0.17067 0.29284 0.0
H179 H 0.73298 0.13449 0.21323 0.0
H180 H 0.43987 0.08976 0.97887 0.0
H181 H 0.35701 1.00725 0.04995 0.0
H182 H 0.30771 1.00474 0.99982 0.0
H183 H 0.39156 0.08615 0.92791 0.0
Gd184 Gd 0.50197 0.56004 0.54336 0.0
Gd185 Gd 0.51034 0.61971 0.59892 0.0
C186 C 0.53633 0.55451 0.63367 0.0
C187 C 0.5168 0.50849 0.50115 0.0
C188 C 0.54945 0.4938 0.5058 0.0
C189 C 0.5473 0.45794 0.49279 0.0
C190 C 0.58237 0.51521 0.52594 0.0
C191 C 0.61066 0.4648 0.52077 0.0
C192 C 0.61252 0.50081 0.53359 0.0
C193 C 0.57779 0.44358 0.50001 0.0
C194 C 0.43421 0.55427 0.58233 0.0
C195 C 0.47825 0.62847 0.50879 0.0
C196 C 0.50094 0.6731 0.64192 0.0
C197 C 0.47812 0.69798 0.63339 0.0
C198 C 0.4919 0.7356 0.64382 0.0
C199 C 0.44376 0.68474 0.61185 0.0
C200 C 0.43635 0.7463 0.61245 0.0
C201 C 0.42302 0.70872 0.6015 0.0
C202 C 0.47109 0.7597 0.63341 0.0
C203 C 0.57735 0.62294 0.5601 0.0
O204 O 0.53653 0.54529 0.59514 0.0
O205 O 0.52263 0.5816 0.64435 0.0
O206 O 0.49213 0.50135 0.53102 0.0
O207 O 0.52589 0.5431 0.48939 0.0
O208 O 0.43734 0.5475 0.54433 0.0
O209 O 0.46729 0.5636 0.598 0.0
O210 O 0.47973 0.63849 0.54709 0.0
O211 O 0.48816 0.59882 0.49821 0.0
O212 O 0.5307 0.67718 0.61825 0.0
O213 O 0.48126 0.63827 0.64784 0.0
O214 O 0.57473 0.629 0.59829 0.0
O215 O 0.54451 0.61557 0.54449 0.0
H216 H 0.52203 0.44102 0.47734 0.0
H217 H 0.5846 0.54302 0.53631 0.0
H218 H 0.637 0.51774 0.55016 0.0
H219 H 0.5757 0.41596 0.48913 0.0
H220 H 0.51866 0.74626 0.65992 0.0
H221 H 0.43292 0.65585 0.60286 0.0
H222 H 0.39647 0.69788 0.58508 0.0
H223 H 0.48163 0.78855 0.64262 0.0
Gd224 Gd 1.00404 0.56558 0.10731 0.0
Gd225 Gd 1.00991 0.62944 0.05964 0.0
C226 C 0.08353 0.63288 0.10964 0.0
C227 C 0.02009 0.51071 0.14133 0.0
C228 C 0.05621 0.50094 0.1396 0.0
C229 C 0.06789 0.48415 0.17259 0.0
C230 C 0.08053 0.51064 0.10568 0.0
C231 C 0.12789 0.48685 0.13776 0.0
C232 C 0.11591 0.50349 0.10469 0.0
C233 C 0.10347 0.47716 0.17171 0.0
C234 C 0.9731 0.61469 0.14602 0.0
C235 C 0.93076 0.55828 0.05498 0.0
C236 C 0.99972 0.68742 1.02572 0.0
C237 C 0.9678 0.69779 1.00794 0.0
C238 C 0.97575 0.7269 0.98003 0.0
C239 C 0.92963 0.68012 1.01986 0.0
C240 C 0.90788 0.72268 0.9783 0.0
C241 C 0.89989 0.6925 1.0052 0.0
C242 C 0.94605 0.73922 0.96523 0.0
C243 C 0.04623 0.58465 1.02256 0.0
O244 O 0.06765 0.59656 0.11093 0.0
O245 O 0.06453 0.65406 0.09399 0.0
O246 O 0.02192 0.54158 0.1602 0.0
O247 O 1.00147 0.50748 0.10749 0.0
O248 O 0.95782 0.57883 0.14597 0.0
O249 O 1.00406 0.62264 0.12576 0.0
O250 O 0.94792 0.59392 1.04705 0.0
O251 O 0.94786 0.53941 0.07729 0.0
O252 O 1.01159 0.66287 1.00613 0.0
O253 O 0.99745 0.68172 0.06454 0.0
O254 O 0.05922 0.62063 1.0243 0.0
O255 O 1.01395 0.57354 1.04101 0.0
H256 H 0.04969 0.4768 0.19913 0.0
H257 H 0.0724 0.52424 0.08008 0.0
H258 H 0.13425 0.5117 0.07836 0.0
H259 H 0.11178 0.46399 0.19751 0.0
H260 H 1.00506 0.74064 0.97033 0.0
H261 H 0.92295 0.65748 1.04136 0.0
H262 H 0.87089 0.67937 1.01613 0.0
H263 H 0.95305 0.76205 0.94398 0.0
H264 H 0.31984 0.28999 0.21456 0.0
H265 H 0.36477 0.37137 0.30682 0.0
H266 H 0.2751 0.25126 0.2623 0.0
H267 H 0.31634 0.33509 0.35395 0.0
H268 H 0.21992 0.26426 0.43131 0.0
H269 H 0.28033 0.28624 0.39404 0.0
H270 H 0.21801 0.25973 0.28241 0.0
H271 H 0.15878 0.23463 0.3194 0.0
C272 C 0.32139 0.29885 0.24558 0.0
C273 C 0.34566 0.33381 0.25694 0.0
C274 C 0.29472 0.2772 0.27282 0.0
C275 C 0.29051 0.29091 0.31144 0.0
C276 C 0.3182 0.32366 0.32437 0.0
C277 C 0.34603 0.34458 0.29741 0.0
C278 C 0.21923 0.26246 0.3988 0.0
C279 C 0.18421 0.24767 0.37848 0.0
C280 C 0.25396 0.27542 0.37738 0.0
C281 C 0.25445 0.27443 0.33509 0.0
C282 C 0.21931 0.26001 0.31493 0.0
C283 C 0.18486 0.24647 0.33626 0.0
H284 H 0.31755 1.01791 0.71668 0.0
H285 H 0.21074 0.939 0.75388 0.0
H286 H 0.32473 1.04661 0.78322 0.0
H287 H 0.21748 0.96738 0.82116 0.0
H288 H 0.29798 0.97754 0.93518 0.0
H289 H 0.26607 0.96266 0.87114 0.0
H290 H 0.30194 0.07906 0.83924 0.0
H291 H 0.33345 0.09435 0.90428 0.0
C292 C 0.29482 1.00794 0.73887 0.0
C293 C 0.26353 0.97673 0.73063 0.0
C294 C 0.29877 1.02426 0.7769 0.0
C295 C 0.27173 1.00912 0.80754 0.0
C296 C 0.2388 0.97953 0.79817 0.0
C297 C 0.23474 0.96348 0.75984 0.0
C298 C 0.29783 1.00028 0.91543 0.0
C299 C 0.31893 1.03715 0.92476 0.0
C300 C 0.27941 0.99166 0.87852 0.0
C301 C 0.28185 1.01966 0.84994 0.0
C302 C 0.30004 1.05687 0.86054 0.0
C303 C 0.31825 0.06556 0.89768 0.0
H304 H 0.67661 0.45472 0.7853 0.0
H305 H 0.57612 0.44827 0.85741 0.0
H306 H 0.65028 0.48202 0.72986 0.0
H307 H 0.54911 0.47475 0.802 0.0
H308 H 0.53335 0.56304 0.71531 0.0
H309 H 0.55879 0.53293 0.768 0.0
H310 H 0.60078 0.47138 0.67833 0.0
H311 H 0.57541 0.5021 0.62507 0.0
C312 C 0.64872 0.45897 0.78914 0.0
C313 C 0.62849 0.44937 0.82579 0.0
C314 C 0.63342 0.47437 0.75723 0.0
C315 C 0.59746 0.48092 0.76112 0.0
C316 C 0.57705 0.47073 0.79776 0.0
C317 C 0.5923 0.45516 0.82953 0.0
C318 C 0.54796 0.54309 0.70655 0.0
C319 C 0.55217 0.53518 0.66559 0.0
C320 C 0.56239 0.52548 0.73705 0.0
C321 C 0.58181 0.49933 0.72787 0.0
C322 C 0.58629 0.49148 0.68682 0.0
C323 C 0.57153 0.509 0.65615 0.0
H324 H 0.85785 0.74623 0.29079 0.0
H325 H 0.95155 0.74072 0.36523 0.0
H326 H 0.8821 0.7159 0.23578 0.0
H327 H 0.97699 0.7113 0.30951 0.0
H328 H 1.01956 0.67977 0.1799 0.0
H329 H 1.00252 0.71913 0.23167 0.0
H330 H 0.88558 0.64724 0.2319 0.0
H331 H 0.90289 0.60729 0.18147 0.0
C332 C 0.88483 0.74026 0.29468 0.0
C333 C 0.90318 0.74695 0.33229 0.0
C334 C 0.8984 0.72214 0.26333 0.0
C335 C 0.93139 0.71058 0.26801 0.0
C336 C 0.95159 0.71982 0.30454 0.0
C337 C 0.93739 0.73729 0.33639 0.0
C338 C 0.99017 0.67238 0.19093 0.0
C339 C 0.96262 0.64017 0.17622 0.0
C340 C 0.98044 0.69492 0.22085 0.0
C341 C 0.94256 0.68666 0.23617 0.0
C342 C 0.91496 0.65482 0.22083 0.0
C343 C 0.92492 0.63176 0.19185 0.0
H344 H 0.3516 0.29801 0.14354 0.0
H345 H 0.44124 0.34772 0.22756 0.0
H346 H 0.37685 0.24586 0.13421 0.0
H347 H 0.46976 0.29767 0.21564 0.0
H348 H 0.499 0.18899 0.20975 0.0
H349 H 0.47025 0.23846 0.22433 0.0
H350 H 0.42131 0.22506 0.1049 0.0
H351 H 0.44664 0.17367 0.09286 0.0
C352 C 0.37741 0.29791 0.15926 0.0
C353 C 0.39475 0.32662 0.18602 0.0
C354 C 0.3923 0.2682 0.15378 0.0
C355 C 0.42602 0.26724 0.17364 0.0
C356 C 0.44349 0.2966 0.20023 0.0
C357 C 0.42758 0.32562 0.20681 0.0
C358 C 0.48146 0.19651 0.18717 0.0
C359 C 0.47431 0.17727 0.15059 0.0
C360 C 0.4653 0.2252 0.19516 0.0
C361 C 0.44291 0.23614 0.166 0.0
C362 C 0.43692 0.21705 0.12896 0.0
C363 C 0.45179 0.18763 0.12173 0.0
H364 H 0.27162 1.02873 0.66022 0.0
H365 H 0.17629 0.93196 0.6343 0.0
H366 H 0.23865 0.06831 0.62715 0.0
H367 H 0.14316 0.97115 0.60069 0.0
H368 H 0.12138 1.04528 0.50134 0.0
H369 H 0.15819 1.00981 0.53574 0.0
H370 H 0.17767 0.08705 0.63521 0.0
H371 H 0.14123 0.12227 0.60097 0.0
C372 C 0.24301 1.01629 0.64859 0.0
C373 C 0.22595 0.97773 0.64999 0.0
C374 C 0.22444 1.03867 0.62927 0.0
C375 C 0.18881 1.02251 0.61085 0.0
C376 C 0.171 0.98405 0.614 0.0
C377 C 0.18947 0.96182 0.63359 0.0
C378 C 0.13442 1.05501 0.53005 0.0
C379 C 0.12867 0.08623 0.54871 0.0
C380 C 0.15494 1.03461 0.54989 0.0
C381 C 0.17019 1.04563 0.58824 0.0
C382 C 0.16622 0.07811 0.60567 0.0
C383 C 0.14544 0.09817 0.58611 0.0
H384 H 0.68988 0.43774 0.98908 0.0
H385 H 0.75914 0.44369 0.88222 0.0
H386 H 0.74843 0.46781 1.02785 0.0
H387 H 0.81712 0.47495 0.92009 0.0
H388 H 0.89747 0.57736 0.98785 0.0
H389 H 0.83793 0.54173 0.95482 0.0
H390 H 0.81725 0.45852 1.04796 0.0
H391 H 0.87744 0.49354 0.08048 0.0
C392 C 0.71766 0.44453 0.97416 0.0
C393 C 0.71987 0.43837 0.93255 0.0
C394 C 0.75116 0.46215 0.99619 0.0
C395 C 0.78746 0.47455 0.97688 0.0
C396 C 0.78967 0.46645 0.93579 0.0
C397 C 0.75649 0.44824 0.91415 0.0
C398 C 0.88017 0.55164 1.00153 0.0
C399 C 0.89253 0.53841 1.03686 0.0
C400 C 0.84609 0.53106 0.98244 0.0
C401 C 0.82282 0.49709 0.9986 0.0
C402 C 0.83438 0.48453 1.03472 0.0
C403 C 0.86898 0.50464 0.0533 0.0
H404 H 0.8175 0.73025 0.49139 0.0
H405 H 0.76222 0.6975 0.37763 0.0
H406 H 0.75688 0.70203 0.52649 0.0
H407 H 0.7021 0.66585 0.41237 0.0
H408 H 0.58869 0.64524 0.48136 0.0
H409 H 0.64939 0.67096 0.44546 0.0
H410 H 0.71051 0.65193 0.55013 0.0
H411 H 0.64962 0.62882 0.58655 0.0
C412 C 0.79231 0.71662 0.47389 0.0
C413 C 0.79473 0.71653 0.43166 0.0
C414 C 0.75738 0.69973 0.49407 0.0
C415 C 0.72369 0.68127 0.47274 0.0
C416 C 0.72665 0.68027 0.43034 0.0
C417 C 0.76146 0.69792 0.41018 0.0
C418 C 0.61517 0.64649 0.49658 0.0
C419 C 0.6143 0.63523 0.53695 0.0
C420 C 0.65029 0.66108 0.47584 0.0
C421 C 0.68575 0.6641 0.49449 0.0
C422 C 0.68443 0.65136 0.5346 0.0
C423 C 0.64933 0.63761 0.55559 0.0
H424 H 0.29572 0.37135 0.1297 0.0
H425 H 0.35821 0.47448 0.18584 0.0
H426 H 0.24466 0.39767 0.11148 0.0
H427 H 0.30726 0.50145 0.16761 0.0
H428 H 0.18116 0.49993 0.19747 0.0
H429 H 0.2419 0.48544 0.19759 0.0
H430 H 0.22174 0.44432 0.07585 0.0
H431 H 0.1604 0.45812 0.07607 0.0
C432 C 0.29925 0.40031 0.1363 0.0
C433 C 0.33065 0.42108 0.15895 0.0
C434 C 0.26999 0.41538 0.12616 0.0
C435 C 0.27163 0.45145 0.13874 0.0
C436 C 0.30495 0.47339 0.15806 0.0
C437 C 0.33431 0.45829 0.16798 0.0
C438 C 0.18971 0.48784 0.17072 0.0
C439 C 0.16582 0.47983 0.13693 0.0
C440 C 0.2248 0.48006 0.17054 0.0
C441 C 0.23676 0.46393 0.13661 0.0
C442 C 0.21328 0.4567 0.10244 0.0
C443 C 0.17826 0.46472 0.10253 0.0
H444 H 0.68385 0.34238 0.91047 0.0
H445 H 0.60359 0.38675 0.97263 0.0
H446 H 0.65765 0.28302 0.94639 0.0
H447 H 0.57782 0.32834 1.0095 0.0
H448 H 0.50444 0.20774 1.02485 0.0
H449 H 0.53754 0.26813 0.99575 0.0
H450 H 0.64608 0.24523 1.00674 0.0
H451 H 0.61228 0.18388 1.03542 0.0
C452 C 0.66159 0.33984 0.93305 0.0
C453 C 0.64621 0.36943 0.93925 0.0
C454 C 0.64626 0.30569 0.95354 0.0
C455 C 0.61491 0.30014 0.98067 0.0
C456 C 0.60121 0.33078 0.98833 0.0
C457 C 0.61642 0.36467 0.96777 0.0
C458 C 0.53539 0.21545 1.02108 0.0
C459 C 0.55553 0.19065 1.03242 0.0
C460 C 0.55461 0.25051 1.00465 0.0
C461 C 0.59488 0.26234 0.99895 0.0
C462 C 0.61513 0.23738 1.01025 0.0
C463 C 0.59575 0.20213 1.02688 0.0
H464 H 0.94735 0.79863 0.43525 0.0
H465 H 0.88318 0.845 0.35429 0.0
H466 H 0.98031 0.86062 0.46111 0.0
H467 H 0.9143 0.90704 0.38095 0.0
H468 H 0.99214 0.96308 0.53974 0.0
H469 H 0.97003 0.90389 0.50464 0.0
H470 H 0.96164 0.96163 0.39467 0.0
H471 H 0.98223 1.02078 0.43059 0.0
C472 C 0.94163 0.82242 0.42158 0.0
C473 C 0.91327 0.81667 0.39184 0.0
C474 C 0.95964 0.85816 0.43736 0.0
C475 C 0.94955 0.88966 0.42442 0.0
C476 C 0.92348 0.8842 0.39211 0.0
C477 C 0.90585 0.84843 0.37607 0.0
C478 C 0.98553 0.96327 0.50807 0.0
C479 C 0.98895 0.99718 0.48837 0.0
C480 C 0.97313 0.92898 0.48751 0.0
C481 C 0.96402 0.92702 0.44612 0.0
C482 C 0.96767 0.96115 0.42642 0.0
C483 C 0.97971 0.99546 0.44715 0.0
H484 H 0.25621 0.85271 0.61575 0.0
H485 H 0.36156 0.9315 0.6557 0.0
H486 H 0.29226 0.81191 0.59051 0.0
H487 H 0.39764 0.89021 0.63304 0.0
H488 H 0.45885 0.81671 0.58164 0.0
H489 H 0.42054 0.85984 0.57929 0.0
H490 H 0.32229 0.77361 0.62614 0.0
H491 H 0.36012 0.73077 0.62745 0.0
C492 C 0.28717 0.86119 0.61878 0.0
C493 C 0.30632 0.8945 0.63823 0.0
C494 C 0.30776 0.838 0.60456 0.0
C495 C 0.34773 0.84768 0.61015 0.0
C496 C 0.36697 0.88208 0.62783 0.0
C497 C 0.34638 0.90538 0.64154 0.0
C498 C 0.42885 0.80703 0.59069 0.0
C499 C 0.41242 0.77072 0.60514 0.0
C500 C 0.40697 0.83158 0.58935 0.0
C501 C 0.36854 0.82021 0.60292 0.0
C502 C 0.35161 0.78313 0.6149 0.0
C503 C 0.37334 0.75859 0.61588 0.0
H504 H 0.73055 0.82188 0.81096 0.0
H505 H 0.77859 0.92171 0.87959 0.0
H506 H 0.79128 0.83364 0.77309 0.0
H507 H 0.83839 0.93496 0.84105 0.0
H508 H 0.95007 0.94438 0.78815 0.0
H509 H 0.89381 0.91635 0.8296 0.0
H510 H 0.82767 0.87518 0.723 0.0
H511 H 0.88488 0.90066 0.68156 0.0
C512 C 0.75425 0.84639 0.81763 0.0
C513 C 0.75028 0.87118 0.84758 0.0
C514 C 0.78885 0.85325 0.79604 0.0
C515 C 0.81989 0.88516 0.80411 0.0
C516 C 0.81556 0.9097 0.8345 0.0
C517 C 0.78122 0.90261 0.85615 0.0
C518 C 0.92403 0.92817 0.77346 0.0
C519 C 0.92197 0.9255 0.73128 0.0
C520 C 0.89147 0.91261 0.79731 0.0
C521 C 0.85587 0.89454 0.7796 0.0
C522 C 0.85452 0.88908 0.73772 0.0
C523 C 0.88729 0.90416 0.71386 0.0
H524 H 0.79418 0.21862 0.49017 0.0
H525 H 0.84138 0.30434 0.40231 0.0
H526 H 0.7762 0.17227 0.43674 0.0
H527 H 0.82115 0.25909 0.34841 0.0
H528 H 0.68319 0.13478 0.33706 0.0
H529 H 0.72469 0.16121 0.39273 0.0
H530 H 0.81914 0.20668 0.30953 0.0
H531 H 0.7765 0.18242 0.25351 0.0
C532 C 0.80164 0.22723 0.45935 0.0
C533 C 0.81878 0.26486 0.44997 0.0
C534 C 0.79095 0.20086 0.42868 0.0
C535 C 0.7964 0.21192 0.38809 0.0
C536 C 0.81667 0.24924 0.37916 0.0
C537 C 0.82794 0.27538 0.40989 0.0
C538 C 0.71299 0.14991 0.33068 0.0
C539 C 0.72614 0.15766 0.29085 0.0
C540 C 0.73712 0.16469 0.36274 0.0
C541 C 0.77516 0.18709 0.35566 0.0
C542 C 0.78967 0.19055 0.316 0.0
C543 C 0.76531 0.1762 0.28384 0.0
H544 H 0.37357 0.77128 0.36941 0.0
H545 H 0.4498 0.74329 0.28437 0.0
H546 H 0.39735 0.73994 0.42289 0.0
H547 H 0.47477 0.71241 0.33774 0.0
H548 H 0.47234 0.61779 0.42646 0.0
H549 H 0.45605 0.65684 0.37548 0.0
H550 H 0.44394 0.73318 0.46804 0.0
H551 H 0.45936 0.6936 0.51897 0.0
C552 C 0.39702 0.7601 0.36267 0.0
C553 C 0.41061 0.76097 0.32279 0.0
C554 C 0.41045 0.74154 0.39332 0.0
C555 C 0.43789 0.72277 0.38516 0.0
C556 C 0.45318 0.72567 0.34558 0.0
C557 C 0.43965 0.74431 0.31496 0.0
C558 C 0.46606 0.64281 0.43608 0.0
C559 C 0.46702 0.65205 0.47727 0.0
C560 C 0.45706 0.66566 0.40656 0.0
C561 C 0.4487 0.69878 0.41697 0.0
C562 C 0.44965 0.70793 0.45829 0.0
C563 C 0.45864 0.68507 0.48779 0.0
H564 H 0.13661 0.52457 0.7959 0.0
H565 H 0.12392 0.42697 0.86816 0.0
H566 H 0.11148 0.55334 0.85143 0.0
H567 H 0.09786 0.45535 0.92383 0.0
H568 H 1.01956 0.50934 1.00237 0.0
H569 H 0.04317 0.47712 0.94794 0.0
H570 H 0.13012 0.57971 0.91735 0.0
H571 H 0.10685 0.61139 0.97108 0.0
C572 C 0.12865 0.50929 0.82376 0.0
C573 C 0.13273 0.4735 0.82741 0.0
C574 C 0.11409 0.52578 0.8558 0.0
C575 C 0.10265 0.50699 0.8927 0.0
C576 C 0.10594 0.47077 0.89603 0.0
C577 C 0.12092 0.45441 0.86402 0.0
C578 C 0.0438 0.5249 0.9841 0.0
C579 C 0.06096 0.56318 0.99121 0.0
C580 C 0.05749 0.5064 0.95284 0.0
C581 C 0.08845 0.52572 0.92747 0.0
C582 C 0.10583 0.56379 0.93534 0.0
C583 C 0.09251 0.58203 0.96659 0.0
H584 H 0.70196 0.92164 0.97205 0.0
H585 H 0.60805 0.89768 0.8888 0.0
H586 H 0.67673 0.96679 1.00676 0.0
H587 H 0.58284 0.94356 0.92261 0.0
H588 H 0.52636 0.9914 1.02472 0.0
H589 H 0.55292 0.94945 0.98726 0.0
H590 H 0.66666 1.02772 0.99717 0.0
H591 H 0.64002 0.06982 1.0356 0.0
C592 C 0.67573 0.92613 0.96148 0.0
C593 C 0.65637 0.90609 0.92844 0.0
C594 C 0.66158 0.95222 0.98086 0.0
C595 C 0.6278 0.95875 0.96742 0.0
C596 C 0.60868 0.93881 0.93396 0.0
C597 C 0.62296 0.91271 0.91458 0.0
C598 C 0.55706 0.99983 1.01892 0.0
C599 C 0.58115 1.03392 1.03331 0.0
C600 C 0.57222 0.97583 0.99712 0.0
C601 C 0.61185 0.98527 0.98917 0.0
C602 C 0.63601 1.01954 1.00319 0.0
C603 C 0.62077 1.0437 1.02502 0.0
H604 H 0.90002 0.28356 0.47964 0.0
H605 H 0.82099 0.24577 0.57872 0.0
H606 H 0.93082 0.23589 0.49483 0.0
H607 H 0.85088 0.19738 0.59387 0.0
H608 H 0.94111 0.14208 0.63235 0.0
H609 H 0.90924 0.18874 0.61854 0.0
H610 H 0.91684 0.16918 0.4909 0.0
H611 H 0.94997 0.12311 0.50491 0.0
C612 C 0.88968 0.26511 0.50496 0.0
C613 C 0.85873 0.2683 0.52843 0.0
C614 C 0.90683 0.23761 0.51338 0.0
C615 C 0.89305 0.21263 0.54533 0.0
C616 C 0.86246 0.21645 0.56934 0.0
C617 C 0.84548 0.24416 0.56096 0.0
C618 C 0.93561 0.14749 0.60135 0.0
C619 C 0.94802 0.12915 0.56963 0.0
C620 C 0.91724 0.17414 0.59345 0.0
C621 C 0.91073 0.18286 0.55364 0.0
C622 C 0.92208 0.16355 0.5219 0.0
C623 C 0.94065 0.13694 0.52985 0.0
H624 H 0.32412 0.74927 0.16869 0.0
H625 H 0.26741 0.7136 0.28244 0.0
H626 H 0.26362 0.72034 0.13353 0.0
H627 H 0.2073 0.68301 0.24725 0.0
H628 H 0.12101 0.60036 0.16198 0.0
H629 H 0.18237 0.62849 0.19531 0.0
H630 H 0.19536 0.7312 0.13183 0.0
H631 H 0.13335 0.70339 0.09901 0.0
C632 C 0.2987 0.73518 0.18613 0.0
C633 C 0.30046 0.73392 0.22836 0.0
C634 C 0.26412 0.71857 0.16603 0.0
C635 C 0.23064 0.69946 0.1876 0.0
C636 C 0.23265 0.69732 0.22976 0.0
C637 C 0.26705 0.71465 0.24991 0.0
C638 C 0.13695 0.62891 0.1549 0.0
C639 C 0.12213 0.64962 0.12777 0.0
C640 C 0.17204 0.64506 0.17423 0.0
C641 C 0.19368 0.68209 0.16631 0.0
C642 C 0.17942 0.70255 0.13843 0.0
C643 C 0.14386 0.68664 0.11971 0.0
H644 H 0.19616 0.48997 0.67616 0.0
H645 H 0.25239 0.42949 0.75039 0.0
H646 H 0.25548 0.51518 0.63661 0.0
H647 H 0.3122 0.45456 0.71114 0.0
H648 H 0.4232 0.54285 0.66417 0.0
H649 H 0.36281 0.51413 0.70074 0.0
H650 H 0.30072 0.50137 0.58917 0.0
H651 H 0.361 0.53005 0.55282 0.0
C652 C 0.22104 0.4812 0.68313 0.0
C653 C 0.21934 0.45697 0.71562 0.0
C654 C 0.25522 0.49581 0.66067 0.0
C655 C 0.28912 0.48723 0.67055 0.0
C656 C 0.28703 0.46225 0.7027 0.0
C657 C 0.25261 0.4473 0.72484 0.0
C658 C 0.39663 0.53409 0.64746 0.0
C659 C 0.39716 0.5389 0.60543 0.0
C660 C 0.36191 0.51723 0.66843 0.0
C661 C 0.32648 0.50502 0.64811 0.0
C662 C 0.3271 0.51049 0.60612 0.0
C663 C 0.36183 0.52695 0.58516 0.0
H664 H 0.75597 0.85911 0.96406 0.0
H665 H 0.71422 0.77817 0.87067 0.0
H666 H 0.80303 0.82806 0.98339 0.0
H667 H 0.76235 0.74746 0.88857 0.0
H668 H 0.83353 0.68511 0.95774 0.0
H669 H 0.7821 0.71166 0.94139 0.0
H670 H 0.8616 0.82218 0.9535 0.0
H671 H 0.91227 0.79584 0.9715 0.0
C672 C 0.75667 0.83421 0.94821 0.0
C673 C 0.7316 0.82059 0.91628 0.0
C674 C 0.78384 0.81675 0.95874 0.0
C675 C 0.78668 0.78552 0.93721 0.0
C676 C 0.76069 0.77128 0.90591 0.0
C677 C 0.73336 0.78878 0.89553 0.0
C678 C 0.83989 0.71506 0.95712 0.0
C679 C 0.87699 0.73836 0.96594 0.0
C680 C 0.81054 0.73025 0.94742 0.0
C681 C 0.81772 0.769 0.94648 0.0
C682 C 0.85496 0.79221 0.95464 0.0
C683 C 0.88419 0.77709 0.96436 0.0
H684 H 0.38974 0.86128 0.30643 0.0
H685 H 0.4524 0.81356 0.22321 0.0
H686 H 0.42369 0.92369 0.28078 0.0
H687 H 0.48669 0.87552 0.19742 0.0
H688 H 0.55861 0.99563 0.1734 0.0
H689 H 0.53149 0.93674 0.20829 0.0
H690 H 0.4222 0.95856 0.21765 0.0
H691 H 0.44979 1.01823 0.18244 0.0
C692 C 0.4124 0.86437 0.28419 0.0
C693 C 0.41907 0.8324 0.26769 0.0
C694 C 0.43113 0.90008 0.26858 0.0
C695 C 0.45764 0.90501 0.23632 0.0
C696 C 0.4667 0.87325 0.22228 0.0
C697 C 0.44756 0.83758 0.23758 0.0
C698 C 0.52874 0.98806 0.18289 0.0
C699 C 0.50649 1.01198 0.17497 0.0
C700 C 0.51308 0.95399 0.20289 0.0
C701 C 0.47452 0.94246 0.21614 0.0
C702 C 0.45215 0.9665 0.2085 0.0
C703 C 0.46785 1.00068 0.18798 0.0
H704 H 0.1475 0.34764 0.77546 0.0
H705 H 0.15365 0.40946 0.66577 0.0
H706 H 0.12641 0.28943 0.73827 0.0
H707 H 0.13424 0.35108 0.62745 0.0
H708 H 0.0565 0.23945 0.57657 0.0
H709 H 0.08216 0.29881 0.61139 0.0
H710 H 0.1395 0.24666 0.69531 0.0
H711 H 0.11264 0.18735 0.66142 0.0
C712 C 0.14503 0.34872 0.74309 0.0
C713 C 0.15224 0.3833 0.72371 0.0
C714 C 0.1331 0.31516 0.72147 0.0
C715 C 0.12817 0.31478 0.67937 0.0
C716 C 0.13688 0.34967 0.65976 0.0
C717 C 0.14871 0.38338 0.68161 0.0
C718 C 0.07456 0.24062 0.6025 0.0
C719 C 0.0821 0.20817 0.61614 0.0
C720 C 0.08968 0.27497 0.62245 0.0
C721 C 0.11313 0.27825 0.65669 0.0
C722 C 0.12106 0.24573 0.6698 0.0
C723 C 0.10571 0.21141 0.65007 0.0
H724 H 0.81402 0.40243 0.48288 0.0
H725 H 0.75808 0.32826 0.57835 0.0
H726 H 0.76866 0.43785 0.49186 0.0
H727 H 0.71331 0.36449 0.58912 0.0
H728 H 0.60692 0.39361 0.54175 0.0
H729 H 0.65998 0.36797 0.55009 0.0
H730 H 0.74094 0.47677 0.52946 0.0
H731 H 0.68786 0.50189 0.51837 0.0
C732 C 0.79281 0.3948 0.50692 0.0
C733 C 0.78913 0.36277 0.52978 0.0
C734 C 0.76685 0.41503 0.51223 0.0
C735 C 0.73688 0.40366 0.54083 0.0
C736 C 0.73555 0.3735 0.56626 0.0
C737 C 0.76144 0.3531 0.56064 0.0
C738 C 0.63603 0.41203 0.53872 0.0
C739 C 0.64305 0.44969 0.52882 0.0
C740 C 0.66653 0.39747 0.54431 0.0
C741 C 0.70482 0.42031 0.54047 0.0
C742 C 0.71183 0.45831 0.5322 0.0
C743 C 0.68132 0.47278 0.52621 0.0
loop_
_geom_bond_atom_site_label_1
_geom_bond_atom_site_label_2
_geom_bond_distance
_geom_bond_site_symmetry_2
_ccdc_geom_bond_type
C0 N1 1.317 . S
C0 N2 1.348 . S
C0 C3 1.485 . S
N1 C0 1.317 . S
N1 N5 1.370 . S
N2 C0 1.348 . S
N2 C4 1.346 . S
C3 C0 1.485 . S
C3 H7 0.960 . S
C3 H8 0.961 . S
C3 H9 0.960 . S
C4 N2 1.346 . S
C4 N5 1.307 . S
C4 C6 1.486 . S
N5 N1 1.370 . S
N5 C4 1.307 . S
C6 C4 1.486 . S
C6 H10 0.960 . S
C6 H11 0.960 . S
C6 H12 0.959 . S
H7 C3 0.960 . S
H8 C3 0.961 . S
H9 C3 0.960 . S
H10 C6 0.960 . S
H11 C6 0.960 . S
H12 C6 0.959 . S
C13 N14 1.317 . S
C13 N15 1.348 . S
C13 C16 1.485 . S
N14 C13 1.317 . S
N14 N18 1.370 . S
N15 C13 1.348 . S
N15 C17 1.346 . S
C16 C13 1.485 . S
C16 H20 0.960 . S
C16 H21 0.961 . S
C16 H22 0.960 . S
C17 N15 1.346 . S
C17 N18 1.307 . S
C17 C19 1.486 . S
N18 N14 1.370 . S
N18 C17 1.307 . S
C19 C17 1.486 . S
C19 H23 0.960 . S
C19 H24 0.960 . S
C19 H25 0.959 . S
H20 C16 0.960 . S
H21 C16 0.961 . S
H22 C16 0.960 . S
H23 C19 0.960 . S
H24 C19 0.960 . S
H25 C19 0.959 . S
C26 N27 1.317 . S
C26 N28 1.348 . S
C26 C29 1.485 . S
N27 C26 1.317 . S
N27 N31 1.370 . S
N28 C26 1.348 . S
N28 C30 1.346 . S
C29 C26 1.485 . S
C29 H33 0.960 . S
C29 H34 0.961 . S
C29 H35 0.960 . S
C30 N28 1.346 . S
C30 N31 1.307 . S
C30 C32 1.486 . S
N31 N27 1.370 . S
N31 C30 1.307 . S
C32 C30 1.486 . S
C32 H36 0.960 . S
C32 H37 0.960 . S
C32 H38 0.959 . S
H33 C29 0.960 . S
H34 C29 0.961 . S
H35 C29 0.960 . S
H36 C32 0.960 . S
H37 C32 0.960 . S
H38 C32 0.959 . S
C39 N40 1.317 . S
C39 N41 1.348 . S
C39 C42 1.485 . S
N40 C39 1.317 . S
N40 N44 1.370 . S
N41 C39 1.348 . S
N41 C43 1.346 . S
C42 C39 1.485 . S
C42 H46 0.960 . S
C42 H47 0.961 . S
C42 H48 0.960 . S
C43 N41 1.346 . S
C43 N44 1.307 . S
C43 C45 1.486 . S
N44 N40 1.370 . S
N44 C43 1.307 . S
C45 C43 1.486 . S
C45 H49 0.960 . S
C45 H50 0.960 . S
C45 H51 0.959 . S
H46 C42 0.960 . S
H47 C42 0.961 . S
H48 C42 0.960 . S
H49 C45 0.960 . S
H50 C45 0.960 . S
H51 C45 0.959 . S
C52 N53 1.317 . S
C52 N54 1.348 . S
C52 C55 1.485 . S
N53 C52 1.317 . S
N53 N57 1.370 . S
N54 C52 1.348 . S
N54 C56 1.346 . S
C55 C52 1.485 . S
C55 H59 0.960 . S
C55 H60 0.961 . S
C55 H61 0.960 . S
C56 N54 1.346 . S
C56 N57 1.307 . S
C56 C58 1.486 . S
N57 N53 1.370 . S
N57 C56 1.307 . S
C58 C56 1.486 . S
C58 H62 0.960 . S
C58 H63 0.960 . S
C58 H64 0.959 . S
H59 C55 0.960 . S
H60 C55 0.961 . S
H61 C55 0.960 . S
H62 C58 0.960 . S
H63 C58 0.960 . S
H64 C58 0.959 . S
C65 N66 1.317 . S
C65 N67 1.348 . S
C65 C68 1.485 . S
N66 C65 1.317 . S
N66 N70 1.370 . S
N67 C65 1.348 . S
N67 C69 1.346 . S
C68 C65 1.485 . S
C68 H72 0.960 . S
C68 H73 0.961 . S
C68 H74 0.960 . S
C69 N67 1.346 . S
C69 N70 1.307 . S
C69 C71 1.486 . S
N70 N66 1.370 . S
N70 C69 1.307 . S
C71 C69 1.486 . S
C71 H75 0.960 . S
C71 H76 0.960 . S
C71 H77 0.959 . S
H72 C68 0.960 . S
H73 C68 0.961 . S
H74 C68 0.960 . S
H75 C71 0.960 . S
H76 C71 0.960 . S
H77 C71 0.959 . S
C78 N79 1.317 . S
C78 N80 1.348 . S
C78 C81 1.485 . S
N79 C78 1.317 . S
N79 N83 1.370 . S
N80 C78 1.348 . S
N80 C82 1.346 . S
C81 C78 1.485 . S
C81 H85 0.960 . S
C81 H86 0.961 . S
C81 H87 0.960 . S
C82 N80 1.346 . S
C82 N83 1.307 . S
C82 C84 1.486 . S
N83 N79 1.370 . S
N83 C82 1.307 . S
C84 C82 1.486 . S
C84 H88 0.960 . S
C84 H89 0.960 . S
C84 H90 0.959 . S
H85 C81 0.960 . S
H86 C81 0.961 . S
H87 C81 0.960 . S
H88 C84 0.960 . S
H89 C84 0.960 . S
H90 C84 0.959 . S
C91 N92 1.317 . S
C91 N93 1.348 . S
C91 C94 1.485 . S
N92 C91 1.317 . S
N92 N96 1.370 . S
N93 C91 1.348 . S
N93 C95 1.346 . S
C94 C91 1.485 . S
C94 H98 0.960 . S
C94 H99 0.961 . S
C94 H100 0.960 . S
C95 N93 1.346 . S
C95 N96 1.307 . S
C95 C97 1.486 . S
N96 N92 1.370 . S
N96 C95 1.307 . S
C97 C95 1.486 . S
C97 H101 0.960 . S
C97 H102 0.960 . S
C97 H103 0.959 . S
H98 C94 0.960 . S
H99 C94 0.961 . S
H100 C94 0.960 . S
H101 C97 0.960 . S
H102 C97 0.960 . S
H103 C97 0.959 . S
Gd104 C107 2.818 . S
Gd104 O124 2.377 . S
Gd104 O126 2.448 . S
Gd104 O127 2.506 . S
Gd104 O128 2.435 . S
Gd104 O129 2.717 . S
Gd104 O131 2.395 1_545 S
Gd104 O135 2.327 . S
Gd105 C116 2.818 1_445 S
Gd105 O125 2.395 . S
Gd105 O129 2.327 . S
Gd105 O130 2.377 1_445 S
Gd105 O132 2.448 1_445 S
Gd105 O133 2.506 1_445 S
Gd105 O134 2.435 1_455 S
Gd105 O135 2.717 . S
C106 O124 1.240 . S
C106 O125 1.240 . S
C107 Gd104 2.818 . S
C107 C108 1.510 . S
C107 O126 1.249 . S
C107 O127 1.252 . S
C108 C107 1.510 . S
C108 C109 1.404 . S
C108 C110 1.352 . S
C109 C108 1.404 . S
C109 C113 1.389 . S
C109 H136 0.930 . S
C110 C108 1.352 . S
C110 C112 1.374 . S
C110 H137 0.931 . S
C111 C112 1.359 . S
C111 C113 1.364 . S
C112 C110 1.374 . S
C112 C111 1.359 . S
C112 H138 0.931 . S
C113 C109 1.389 . S
C113 C111 1.364 . S
C113 H139 0.931 . S
C114 O128 1.256 1_565 S
C114 O129 1.257 1_565 S
C115 O130 1.240 . S
C115 O131 1.240 1_655 S
C116 Gd105 2.818 1_665 S
C116 C117 1.510 . S
C116 O132 1.249 . S
C116 O133 1.252 . S
C117 C116 1.510 . S
C117 C118 1.404 . S
C117 C119 1.352 . S
C118 C117 1.404 . S
C118 C122 1.389 . S
C118 H140 0.930 . S
C119 C117 1.352 . S
C119 C121 1.374 . S
C119 H141 0.931 . S
C120 C121 1.359 . S
C120 C122 1.364 . S
C121 C119 1.374 . S
C121 C120 1.359 . S
C121 H142 0.931 . S
C122 C118 1.389 . S
C122 C120 1.364 . S
C122 H143 0.931 . S
C123 O134 1.256 . S
C123 O135 1.257 1_655 S
O124 Gd104 2.377 . S
O124 C106 1.240 . S
O125 Gd105 2.395 . S
O125 C106 1.240 . S
O126 Gd104 2.448 . S
O126 C107 1.249 . S
O127 Gd104 2.506 . S
O127 C107 1.252 . S
O128 Gd104 2.435 . S
O128 C114 1.256 1_545 S
O129 Gd104 2.717 . S
O129 Gd105 2.327 . S
O129 C114 1.257 1_545 S
O130 Gd105 2.377 1_665 S
O130 C115 1.240 . S
O131 Gd104 2.395 1_565 S
O131 C115 1.240 1_455 S
O132 Gd105 2.448 1_665 S
O132 C116 1.249 . S
O133 Gd105 2.506 1_665 S
O133 C116 1.252 . S
O134 Gd105 2.435 1_655 S
O134 C123 1.256 . S
O135 Gd104 2.327 . S
O135 Gd105 2.717 . S
O135 C123 1.257 1_455 S
H136 C109 0.930 . S
H137 C110 0.931 . S
H138 C112 0.931 . S
H139 C113 0.931 . S
H140 C118 0.930 . S
H141 C119 0.931 . S
H142 C121 0.931 . S
H143 C122 0.931 . S
Gd144 C147 2.818 . S
Gd144 O164 2.377 . S
Gd144 O166 2.448 . S
Gd144 O167 2.506 . S
Gd144 O168 2.435 1_545 S
Gd144 O169 2.717 . S
Gd144 O171 2.395 . S
Gd144 O175 2.327 . S
Gd145 C156 2.818 1_554 S
Gd145 O165 2.395 . S
Gd145 O169 2.327 . S
Gd145 O170 2.377 1_554 S
Gd145 O172 2.448 1_554 S
Gd145 O173 2.506 1_544 S
Gd145 O174 2.435 1_554 S
Gd145 O175 2.717 . S
C146 O164 1.240 . S
C146 O165 1.240 . S
C147 Gd144 2.818 . S
C147 C148 1.510 . S
C147 O166 1.249 . S
C147 O167 1.252 . S
C148 C147 1.510 . S
C148 C149 1.404 . S
C148 C150 1.352 . S
C149 C148 1.404 . S
C149 C153 1.389 . S
C149 H176 0.930 . S
C150 C148 1.352 . S
C150 C152 1.374 . S
C150 H177 0.931 . S
C151 C152 1.359 . S
C151 C153 1.364 . S
C152 C150 1.374 . S
C152 C151 1.359 . S
C152 H178 0.931 . S
C153 C149 1.389 . S
C153 C151 1.364 . S
C153 H179 0.931 . S
C154 O168 1.256 . S
C154 O169 1.257 1_565 S
C155 O170 1.240 1_554 S
C155 O171 1.240 . S
C156 Gd145 2.818 1_556 S
C156 C157 1.510 1_545 S
C156 O172 1.249 . S
C156 O173 1.252 1_545 S
C157 C156 1.510 1_565 S
C157 C158 1.404 . S
C157 C159 1.352 . S
C158 C157 1.404 . S
C158 C162 1.389 . S
C158 H180 0.930 1_565 S
C159 C157 1.352 . S
C159 C161 1.374 . S
C159 H181 0.931 . S
C160 C161 1.359 . S
C160 C162 1.364 . S
C161 C159 1.374 . S
C161 C160 1.359 . S
C161 H182 0.931 . S
C162 C158 1.389 . S
C162 C160 1.364 . S
C162 H183 0.931 . S
C163 O174 1.256 1_554 S
C163 O175 1.257 . S
O164 Gd144 2.377 . S
O164 C146 1.240 . S
O165 Gd145 2.395 . S
O165 C146 1.240 . S
O166 Gd144 2.448 . S
O166 C147 1.249 . S
O167 Gd144 2.506 . S
O167 C147 1.252 . S
O168 Gd144 2.435 1_565 S
O168 C154 1.256 . S
O169 Gd144 2.717 . S
O169 Gd145 2.327 . S
O169 C154 1.257 1_545 S
O170 Gd145 2.377 1_556 S
O170 C155 1.240 1_556 S
O171 Gd144 2.395 . S
O171 C155 1.240 . S
O172 Gd145 2.448 1_556 S
O172 C156 1.249 . S
O173 Gd145 2.506 1_566 S
O173 C156 1.252 1_565 S
O174 Gd145 2.435 1_556 S
O174 C163 1.256 1_556 S
O175 Gd144 2.327 . S
O175 Gd145 2.717 . S
O175 C163 1.257 . S
H176 C149 0.930 . S
H177 C150 0.931 . S
H178 C152 0.931 . S
H179 C153 0.931 . S
H180 C158 0.930 1_545 S
H181 C159 0.931 . S
H182 C161 0.931 . S
H183 C162 0.931 . S
Gd184 C187 2.818 . S
Gd184 O204 2.377 . S
Gd184 O206 2.448 . S
Gd184 O207 2.506 . S
Gd184 O208 2.435 . S
Gd184 O209 2.717 . S
Gd184 O211 2.395 . S
Gd184 O215 2.327 . S
Gd185 C196 2.818 . S
Gd185 O205 2.395 . S
Gd185 O209 2.327 . S
Gd185 O210 2.377 . S
Gd185 O212 2.448 . S
Gd185 O213 2.506 . S
Gd185 O214 2.435 . S
Gd185 O215 2.717 . S
C186 O204 1.240 . S
C186 O205 1.240 . S
C187 Gd184 2.818 . S
C187 C188 1.510 . S
C187 O206 1.249 . S
C187 O207 1.252 . S
C188 C187 1.510 . S
C188 C189 1.404 . S
C188 C190 1.352 . S
C189 C188 1.404 . S
C189 C193 1.389 . S
C189 H216 0.930 . S
C190 C188 1.352 . S
C190 C192 1.374 . S
C190 H217 0.931 . S
C191 C192 1.359 . S
C191 C193 1.364 . S
C192 C190 1.374 . S
C192 C191 1.359 . S
C192 H218 0.931 . S
C193 C189 1.389 . S
C193 C191 1.364 . S
C193 H219 0.931 . S
C194 O208 1.256 . S
C194 O209 1.257 . S
C195 O210 1.240 . S
C195 O211 1.240 . S
C196 Gd185 2.818 . S
C196 C197 1.510 . S
C196 O212 1.249 . S
C196 O213 1.252 . S
C197 C196 1.510 . S
C197 C198 1.404 . S
C197 C199 1.352 . S
C198 C197 1.404 . S
C198 C202 1.389 . S
C198 H220 0.930 . S
C199 C197 1.352 . S
C199 C201 1.374 . S
C199 H221 0.931 . S
C200 C201 1.359 . S
C200 C202 1.364 . S
C201 C199 1.374 . S
C201 C200 1.359 . S
C201 H222 0.931 . S
C202 C198 1.389 . S
C202 C200 1.364 . S
C202 H223 0.931 . S
C203 O214 1.256 . S
C203 O215 1.257 . S
O204 Gd184 2.377 . S
O204 C186 1.240 . S
O205 Gd185 2.395 . S
O205 C186 1.240 . S
O206 Gd184 2.448 . S
O206 C187 1.249 . S
O207 Gd184 2.506 . S
O207 C187 1.252 . S
O208 Gd184 2.435 . S
O208 C194 1.256 . S
O209 Gd184 2.717 . S
O209 Gd185 2.327 . S
O209 C194 1.257 . S
O210 Gd185 2.377 . S
O210 C195 1.240 . S
O211 Gd184 2.395 . S
O211 C195 1.240 . S
O212 Gd185 2.448 . S
O212 C196 1.249 . S
O213 Gd185 2.506 . S
O213 C196 1.252 . S
O214 Gd185 2.435 . S
O214 C203 1.256 . S
O215 Gd184 2.327 . S
O215 Gd185 2.717 . S
O215 C203 1.257 . S
H216 C189 0.930 . S
H217 C190 0.931 . S
H218 C192 0.931 . S
H219 C193 0.931 . S
H220 C198 0.930 . S
H221 C199 0.931 . S
H222 C201 0.931 . S
H223 C202 0.931 . S
Gd224 C227 2.818 . S
Gd224 O244 2.377 . S
Gd224 O246 2.448 . S
Gd224 O247 2.506 . S
Gd224 O248 2.435 1_455 S
Gd224 O249 2.717 1_455 S
Gd224 O251 2.395 1_455 S
Gd224 O255 2.327 1_554 S
Gd225 C236 2.818 1_455 S
Gd225 O245 2.395 1_556 S
Gd225 O249 2.327 1_456 S
Gd225 O250 2.377 1_455 S
Gd225 O252 2.448 1_455 S
Gd225 O253 2.506 1_455 S
Gd225 O254 2.435 . S
Gd225 O255 2.717 . S
C226 O244 1.240 . S
C226 O245 1.240 . S
C227 Gd224 2.818 . S
C227 C228 1.510 . S
C227 O246 1.249 . S
C227 O247 1.252 . S
C228 C227 1.510 . S
C228 C229 1.404 . S
C228 C230 1.352 . S
C229 C228 1.404 . S
C229 C233 1.389 . S
C229 H256 0.930 . S
C230 C228 1.352 . S
C230 C232 1.374 . S
C230 H257 0.931 . S
C231 C232 1.359 . S
C231 C233 1.364 . S
C232 C230 1.374 . S
C232 C231 1.359 . S
C232 H258 0.931 . S
C233 C229 1.389 . S
C233 C231 1.364 . S
C233 H259 0.931 . S
C234 O248 1.256 . S
C234 O249 1.257 . S
C235 O250 1.240 . S
C235 O251 1.240 1_556 S
C236 Gd225 2.818 1_655 S
C236 C237 1.510 . S
C236 O252 1.249 . S
C236 O253 1.252 . S
C237 C236 1.510 . S
C237 C238 1.404 . S
C237 C239 1.352 . S
C238 C237 1.404 . S
C238 C242 1.389 . S
C238 H260 0.930 . S
C239 C237 1.352 . S
C239 C241 1.374 . S
C239 H261 0.931 . S
C240 C241 1.359 . S
C240 C242 1.364 . S
C241 C239 1.374 . S
C241 C240 1.359 . S
C241 H262 0.931 . S
C242 C238 1.389 . S
C242 C240 1.364 . S
C242 H263 0.931 . S
C243 O254 1.256 . S
C243 O255 1.257 . S
O244 Gd224 2.377 . S
O244 C226 1.240 . S
O245 Gd225 2.395 1_554 S
O245 C226 1.240 . S
O246 Gd224 2.448 . S
O246 C227 1.249 . S
O247 Gd224 2.506 . S
O247 C227 1.252 . S
O248 Gd224 2.435 1_655 S
O248 C234 1.256 . S
O249 Gd224 2.717 1_655 S
O249 Gd225 2.327 1_654 S
O249 C234 1.257 . S
O250 Gd225 2.377 1_655 S
O250 C235 1.240 . S
O251 Gd224 2.395 1_655 S
O251 C235 1.240 1_554 S
O252 Gd225 2.448 1_655 S
O252 C236 1.249 . S
O253 Gd225 2.506 1_655 S
O253 C236 1.252 . S
O254 Gd225 2.435 . S
O254 C243 1.256 . S
O255 Gd224 2.327 1_556 S
O255 Gd225 2.717 . S
O255 C243 1.257 . S
H256 C229 0.930 . S
H257 C230 0.931 . S
H258 C232 0.931 . S
H259 C233 0.931 . S
H260 C238 0.930 . S
H261 C239 0.931 . S
H262 C241 0.931 . S
H263 C242 0.931 . S
H264 C272 0.950 . S
H265 C277 0.950 . S
H266 C274 0.950 . S
H267 C276 0.950 . S
H268 C278 0.950 . S
H269 C280 0.950 . S
H270 C282 0.950 . S
H271 C283 0.950 . S
C272 H264 0.950 . S
C272 C273 1.386 . S
C272 C274 1.391 . S
C273 C272 1.386 . S
C273 C277 1.393 . S
C274 H266 0.950 . S
C274 C272 1.391 . S
C274 C275 1.400 . S
C275 C274 1.400 . S
C275 C276 1.398 . S
C275 C281 1.491 . S
C276 H267 0.950 . S
C276 C275 1.398 . S
C276 C277 1.391 . S
C277 H265 0.950 . S
C277 C273 1.393 . S
C277 C276 1.391 . S
C278 H268 0.950 . S
C278 C279 1.386 . S
C278 C280 1.391 . S
C279 C278 1.386 . S
C279 C283 1.393 . S
C280 H269 0.950 . S
C280 C278 1.391 . S
C280 C281 1.400 . S
C281 C275 1.491 . S
C281 C280 1.400 . S
C281 C282 1.398 . S
C282 H270 0.950 . S
C282 C281 1.398 . S
C282 C283 1.391 . S
C283 H271 0.950 . S
C283 C279 1.393 . S
C283 C282 1.391 . S
H284 C292 0.950 . S
H285 C297 0.950 . S
H286 C294 0.950 . S
H287 C296 0.950 . S
H288 C298 0.950 . S
H289 C300 0.950 . S
H290 C302 0.950 . S
H291 C303 0.950 . S
C292 H284 0.950 . S
C292 C293 1.386 . S
C292 C294 1.391 . S
C293 C292 1.386 . S
C293 C297 1.393 . S
C294 H286 0.950 . S
C294 C292 1.391 . S
C294 C295 1.400 . S
C295 C294 1.400 . S
C295 C296 1.398 . S
C295 C301 1.491 . S
C296 H287 0.950 . S
C296 C295 1.398 . S
C296 C297 1.391 . S
C297 H285 0.950 . S
C297 C293 1.393 . S
C297 C296 1.391 . S
C298 H288 0.950 . S
C298 C299 1.386 . S
C298 C300 1.391 . S
C299 C298 1.386 . S
C299 C303 1.393 . S
C300 H289 0.950 . S
C300 C298 1.391 . S
C300 C301 1.400 . S
C301 C295 1.491 . S
C301 C300 1.400 . S
C301 C302 1.398 . S
C302 H290 0.950 . S
C302 C301 1.398 . S
C302 C303 1.391 . S
C303 H291 0.950 . S
C303 C299 1.393 . S
C303 C302 1.391 . S
H304 C312 0.950 . S
H305 C317 0.950 . S
H306 C314 0.950 . S
H307 C316 0.950 . S
H308 C318 0.950 . S
H309 C320 0.950 . S
H310 C322 0.950 . S
H311 C323 0.950 . S
C312 H304 0.950 . S
C312 C313 1.386 . S
C312 C314 1.391 . S
C313 C312 1.386 . S
C313 C317 1.393 . S
C314 H306 0.950 . S
C314 C312 1.391 . S
C314 C315 1.400 . S
C315 C314 1.400 . S
C315 C316 1.398 . S
C315 C321 1.491 . S
C316 H307 0.950 . S
C316 C315 1.398 . S
C316 C317 1.391 . S
C317 H305 0.950 . S
C317 C313 1.393 . S
C317 C316 1.391 . S
C318 H308 0.950 . S
C318 C319 1.386 . S
C318 C320 1.391 . S
C319 C318 1.386 . S
C319 C323 1.393 . S
C320 H309 0.950 . S
C320 C318 1.391 . S
C320 C321 1.400 . S
C321 C315 1.491 . S
C321 C320 1.400 . S
C321 C322 1.398 . S
C322 H310 0.950 . S
C322 C321 1.398 . S
C322 C323 1.391 . S
C323 H311 0.950 . S
C323 C319 1.393 . S
C323 C322 1.391 . S
H324 C332 0.950 . S
H325 C337 0.950 . S
H326 C334 0.950 . S
H327 C336 0.950 . S
H328 C338 0.950 . S
H329 C340 0.950 . S
H330 C342 0.950 . S
H331 C343 0.950 . S
C332 H324 0.950 . S
C332 C333 1.386 . S
C332 C334 1.391 . S
C333 C332 1.386 . S
C333 C337 1.393 . S
C334 H326 0.950 . S
C334 C332 1.391 . S
C334 C335 1.400 . S
C335 C334 1.400 . S
C335 C336 1.398 . S
C335 C341 1.491 . S
C336 H327 0.950 . S
C336 C335 1.398 . S
C336 C337 1.391 . S
C337 H325 0.950 . S
C337 C333 1.393 . S
C337 C336 1.391 . S
C338 H328 0.950 . S
C338 C339 1.386 . S
C338 C340 1.391 . S
C339 C338 1.386 . S
C339 C343 1.393 . S
C340 H329 0.950 . S
C340 C338 1.391 . S
C340 C341 1.400 . S
C341 C335 1.491 . S
C341 C340 1.400 . S
C341 C342 1.398 . S
C342 H330 0.950 . S
C342 C341 1.398 . S
C342 C343 1.391 . S
C343 H331 0.950 . S
C343 C339 1.393 . S
C343 C342 1.391 . S
H344 C352 0.950 . S
H345 C357 0.950 . S
H346 C354 0.950 . S
H347 C356 0.950 . S
H348 C358 0.950 . S
H349 C360 0.950 . S
H350 C362 0.950 . S
H351 C363 0.950 . S
C352 H344 0.950 . S
C352 C353 1.386 . S
C352 C354 1.391 . S
C353 C352 1.386 . S
C353 C357 1.393 . S
C354 H346 0.950 . S
C354 C352 1.391 . S
C354 C355 1.400 . S
C355 C354 1.400 . S
C355 C356 1.398 . S
C355 C361 1.491 . S
C356 H347 0.950 . S
C356 C355 1.398 . S
C356 C357 1.391 . S
C357 H345 0.950 . S
C357 C353 1.393 . S
C357 C356 1.391 . S
C358 H348 0.950 . S
C358 C359 1.386 . S
C358 C360 1.391 . S
C359 C358 1.386 . S
C359 C363 1.393 . S
C360 H349 0.950 . S
C360 C358 1.391 . S
C360 C361 1.400 . S
C361 C355 1.491 . S
C361 C360 1.400 . S
C361 C362 1.398 . S
C362 H350 0.950 . S
C362 C361 1.398 . S
C362 C363 1.391 . S
C363 H351 0.950 . S
C363 C359 1.393 . S
C363 C362 1.391 . S
H364 C372 0.950 . S
H365 C377 0.950 . S
H366 C374 0.950 . S
H367 C376 0.950 . S
H368 C378 0.950 . S
H369 C380 0.950 . S
H370 C382 0.950 . S
H371 C383 0.922 1_545 S
C372 H364 0.950 . S
C372 C373 1.386 . S
C372 C374 1.391 . S
C373 C372 1.386 . S
C373 C377 1.393 . S
C374 H366 0.950 . S
C374 C372 1.391 . S
C374 C375 1.400 . S
C375 C374 1.400 . S
C375 C376 1.398 . S
C375 C381 1.491 . S
C376 H367 0.950 . S
C376 C375 1.398 . S
C376 C377 1.391 . S
C377 H365 0.950 . S
C377 C373 1.393 . S
C377 C376 1.391 . S
C378 H368 0.950 . S
C378 C379 1.386 . S
C378 C380 1.391 . S
C379 C378 1.386 . S
C379 C383 1.400 . S
C380 H369 0.950 . S
C380 C378 1.391 . S
C380 C381 1.400 . S
C381 C375 1.491 . S
C381 C380 1.400 . S
C381 C382 1.398 . S
C382 H370 0.950 . S
C382 C381 1.398 . S
C382 C383 1.411 . S
C383 H371 0.922 1_565 S
C383 C379 1.400 . S
C383 C382 1.411 . S
H384 C392 0.950 . S
H385 C397 0.950 . S
H386 C394 0.950 . S
H387 C396 0.950 . S
H388 C398 0.950 . S
H389 C400 0.950 . S
H390 C402 0.950 . S
H391 C403 0.950 1_554 S
C392 H384 0.950 . S
C392 C393 1.386 . S
C392 C394 1.391 . S
C393 C392 1.386 . S
C393 C397 1.393 . S
C394 H386 0.950 . S
C394 C392 1.391 . S
C394 C395 1.400 . S
C395 C394 1.400 . S
C395 C396 1.398 . S
C395 C401 1.491 . S
C396 H387 0.950 . S
C396 C395 1.398 . S
C396 C397 1.391 . S
C397 H385 0.950 . S
C397 C393 1.393 . S
C397 C396 1.391 . S
C398 H388 0.950 . S
C398 C399 1.386 . S
C398 C400 1.391 . S
C399 C398 1.386 . S
C399 C403 1.393 . S
C400 H389 0.950 . S
C400 C398 1.391 . S
C400 C401 1.400 . S
C401 C395 1.491 . S
C401 C400 1.400 . S
C401 C402 1.398 . S
C402 H390 0.950 . S
C402 C401 1.398 . S
C402 C403 1.391 . S
C403 H391 0.950 1_556 S
C403 C399 1.393 . S
C403 C402 1.391 . S
H404 C412 0.950 . S
H405 C417 0.950 . S
H406 C414 0.950 . S
H407 C416 0.950 . S
H408 C418 0.950 . S
H409 C420 0.950 . S
H410 C422 0.950 . S
H411 C423 0.950 . S
C412 H404 0.950 . S
C412 C413 1.386 . S
C412 C414 1.391 . S
C413 C412 1.386 . S
C413 C417 1.393 . S
C414 H406 0.950 . S
C414 C412 1.391 . S
C414 C415 1.400 . S
C415 C414 1.400 . S
C415 C416 1.398 . S
C415 C421 1.491 . S
C416 H407 0.950 . S
C416 C415 1.398 . S
C416 C417 1.391 . S
C417 H405 0.950 . S
C417 C413 1.393 . S
C417 C416 1.391 . S
C418 H408 0.950 . S
C418 C419 1.386 . S
C418 C420 1.391 . S
C419 C418 1.386 . S
C419 C423 1.393 . S
C420 H409 0.950 . S
C420 C418 1.391 . S
C420 C421 1.400 . S
C421 C415 1.491 . S
C421 C420 1.400 . S
C421 C422 1.398 . S
C422 H410 0.950 . S
C422 C421 1.398 . S
C422 C423 1.391 . S
C423 H411 0.950 . S
C423 C419 1.393 . S
C423 C422 1.391 . S
H424 C432 0.950 . S
H425 C437 0.950 . S
H426 C434 0.950 . S
H427 C436 0.950 . S
H428 C438 0.950 . S
H429 C440 0.950 . S
H430 C442 0.950 . S
H431 C443 0.950 . S
C432 H424 0.950 . S
C432 C433 1.386 . S
C432 C434 1.391 . S
C433 C432 1.386 . S
C433 C437 1.393 . S
C434 H426 0.950 . S
C434 C432 1.391 . S
C434 C435 1.400 . S
C435 C434 1.400 . S
C435 C436 1.398 . S
C435 C441 1.491 . S
C436 H427 0.950 . S
C436 C435 1.398 . S
C436 C437 1.391 . S
C437 H425 0.950 . S
C437 C433 1.393 . S
C437 C436 1.391 . S
C438 H428 0.950 . S
C438 C439 1.386 . S
C438 C440 1.391 . S
C439 C438 1.386 . S
C439 C443 1.393 . S
C440 H429 0.950 . S
C440 C438 1.391 . S
C440 C441 1.400 . S
C441 C435 1.491 . S
C441 C440 1.400 . S
C441 C442 1.398 . S
C442 H430 0.950 . S
C442 C441 1.398 . S
C442 C443 1.391 . S
C443 H431 0.950 . S
C443 C439 1.393 . S
C443 C442 1.391 . S
H444 C452 0.950 . S
H445 C457 0.950 . S
H446 C454 0.950 . S
H447 C456 0.950 . S
H448 C458 0.950 . S
H449 C460 0.950 . S
H450 C462 0.950 . S
H451 C463 0.950 . S
C452 H444 0.950 . S
C452 C453 1.386 . S
C452 C454 1.391 . S
C453 C452 1.386 . S
C453 C457 1.393 . S
C454 H446 0.950 . S
C454 C452 1.391 . S
C454 C455 1.400 . S
C455 C454 1.400 . S
C455 C456 1.398 . S
C455 C461 1.491 . S
C456 H447 0.950 . S
C456 C455 1.398 . S
C456 C457 1.391 . S
C457 H445 0.950 . S
C457 C453 1.393 . S
C457 C456 1.391 . S
C458 H448 0.950 . S
C458 C459 1.386 . S
C458 C460 1.391 . S
C459 C458 1.386 . S
C459 C463 1.393 . S
C460 H449 0.950 . S
C460 C458 1.391 . S
C460 C461 1.400 . S
C461 C455 1.491 . S
C461 C460 1.400 . S
C461 C462 1.398 . S
C462 H450 0.950 . S
C462 C461 1.398 . S
C462 C463 1.391 . S
C463 H451 0.950 . S
C463 C459 1.393 . S
C463 C462 1.391 . S
H464 C472 0.950 . S
H465 C477 0.950 . S
H466 C474 0.950 . S
H467 C476 0.950 . S
H468 C478 0.950 . S
H469 C480 0.950 . S
H470 C482 0.950 . S
H471 C483 0.950 1_455 S
C472 H464 0.950 . S
C472 C473 1.386 . S
C472 C474 1.391 . S
C473 C472 1.386 . S
C473 C477 1.393 . S
C474 H466 0.950 . S
C474 C472 1.391 . S
C474 C475 1.400 . S
C475 C474 1.400 . S
C475 C476 1.398 . S
C475 C481 1.491 . S
C476 H467 0.950 . S
C476 C475 1.398 . S
C476 C477 1.391 . S
C477 H465 0.950 . S
C477 C473 1.393 . S
C477 C476 1.391 . S
C478 H468 0.950 . S
C478 C479 1.386 . S
C478 C480 1.391 . S
C479 C478 1.386 . S
C479 C483 1.393 . S
C480 H469 0.950 . S
C480 C478 1.391 . S
C480 C481 1.400 . S
C481 C475 1.491 . S
C481 C480 1.400 . S
C481 C482 1.398 . S
C482 H470 0.950 . S
C482 C481 1.398 . S
C482 C483 1.391 . S
C483 H471 0.950 1_655 S
C483 C479 1.393 . S
C483 C482 1.391 . S
H484 C492 0.950 . S
H485 C497 0.950 . S
H486 C494 0.950 . S
H487 C496 0.950 . S
H488 C498 0.950 . S
H489 C500 0.950 . S
H490 C502 0.950 . S
H491 C503 0.950 . S
C492 H484 0.950 . S
C492 C493 1.386 . S
C492 C494 1.391 . S
C493 C492 1.386 . S
C493 C497 1.393 . S
C494 H486 0.950 . S
C494 C492 1.391 . S
C494 C495 1.400 . S
C495 C494 1.400 . S
C495 C496 1.398 . S
C495 C501 1.491 . S
C496 H487 0.950 . S
C496 C495 1.398 . S
C496 C497 1.391 . S
C497 H485 0.950 . S
C497 C493 1.393 . S
C497 C496 1.391 . S
C498 H488 0.950 . S
C498 C499 1.386 . S
C498 C500 1.391 . S
C499 C498 1.386 . S
C499 C503 1.393 . S
C500 H489 0.950 . S
C500 C498 1.391 . S
C500 C501 1.400 . S
C501 C495 1.491 . S
C501 C500 1.400 . S
C501 C502 1.398 . S
C502 H490 0.950 . S
C502 C501 1.398 . S
C502 C503 1.391 . S
C503 H491 0.950 . S
C503 C499 1.393 . S
C503 C502 1.391 . S
H504 C512 0.950 . S
H505 C517 0.950 . S
H506 C514 0.950 . S
H507 C516 0.950 . S
H508 C518 0.950 . S
H509 C520 0.950 . S
H510 C522 0.950 . S
H511 C523 0.950 . S
C512 H504 0.950 . S
C512 C513 1.386 . S
C512 C514 1.391 . S
C513 C512 1.386 . S
C513 C517 1.393 . S
C514 H506 0.950 . S
C514 C512 1.391 . S
C514 C515 1.400 . S
C515 C514 1.400 . S
C515 C516 1.398 . S
C515 C521 1.491 . S
C516 H507 0.950 . S
C516 C515 1.398 . S
C516 C517 1.391 . S
C517 H505 0.950 . S
C517 C513 1.393 . S
C517 C516 1.391 . S
C518 H508 0.950 . S
C518 C519 1.386 . S
C518 C520 1.391 . S
C519 C518 1.386 . S
C519 C523 1.393 . S
C520 H509 0.950 . S
C520 C518 1.391 . S
C520 C521 1.400 . S
C521 C515 1.491 . S
C521 C520 1.400 . S
C521 C522 1.398 . S
C522 H510 0.950 . S
C522 C521 1.398 . S
C522 C523 1.391 . S
C523 H511 0.950 . S
C523 C519 1.393 . S
C523 C522 1.391 . S
H524 C532 0.950 . S
H525 C537 0.950 . S
H526 C534 0.950 . S
H527 C536 0.950 . S
H528 C538 0.950 . S
H529 C540 0.950 . S
H530 C542 0.950 . S
H531 C543 0.950 . S
C532 H524 0.950 . S
C532 C533 1.386 . S
C532 C534 1.391 . S
C533 C532 1.386 . S
C533 C537 1.393 . S
C534 H526 0.950 . S
C534 C532 1.391 . S
C534 C535 1.400 . S
C535 C534 1.400 . S
C535 C536 1.398 . S
C535 C541 1.491 . S
C536 H527 0.950 . S
C536 C535 1.398 . S
C536 C537 1.391 . S
C537 H525 0.950 . S
C537 C533 1.393 . S
C537 C536 1.391 . S
C538 H528 0.950 . S
C538 C539 1.386 . S
C538 C540 1.391 . S
C539 C538 1.386 . S
C539 C543 1.393 . S
C540 H529 0.950 . S
C540 C538 1.391 . S
C540 C541 1.400 . S
C541 C535 1.491 . S
C541 C540 1.400 . S
C541 C542 1.398 . S
C542 H530 0.950 . S
C542 C541 1.398 . S
C542 C543 1.391 . S
C543 H531 0.950 . S
C543 C539 1.393 . S
C543 C542 1.391 . S
H544 C552 0.950 . S
H545 C557 0.950 . S
H546 C554 0.950 . S
H547 C556 0.950 . S
H548 C558 0.950 . S
H549 C560 0.950 . S
H550 C562 0.950 . S
H551 C563 0.950 . S
C552 H544 0.950 . S
C552 C553 1.386 . S
C552 C554 1.391 . S
C553 C552 1.386 . S
C553 C557 1.393 . S
C554 H546 0.950 . S
C554 C552 1.391 . S
C554 C555 1.400 . S
C555 C554 1.400 . S
C555 C556 1.398 . S
C555 C561 1.491 . S
C556 H547 0.950 . S
C556 C555 1.398 . S
C556 C557 1.391 . S
C557 H545 0.950 . S
C557 C553 1.393 . S
C557 C556 1.391 . S
C558 H548 0.950 . S
C558 C559 1.386 . S
C558 C560 1.391 . S
C559 C558 1.386 . S
C559 C563 1.393 . S
C560 H549 0.950 . S
C560 C558 1.391 . S
C560 C561 1.400 . S
C561 C555 1.491 . S
C561 C560 1.400 . S
C561 C562 1.398 . S
C562 H550 0.950 . S
C562 C561 1.398 . S
C562 C563 1.391 . S
C563 H551 0.950 . S
C563 C559 1.393 . S
C563 C562 1.391 . S
H564 C572 0.950 . S
H565 C577 0.950 . S
H566 C574 0.950 . S
H567 C576 0.950 . S
H568 C578 0.950 . S
H569 C580 0.950 . S
H570 C582 0.950 . S
H571 C583 0.950 . S
C572 H564 0.950 . S
C572 C573 1.386 . S
C572 C574 1.391 . S
C573 C572 1.386 . S
C573 C577 1.393 . S
C574 H566 0.950 . S
C574 C572 1.391 . S
C574 C575 1.400 . S
C575 C574 1.400 . S
C575 C576 1.398 . S
C575 C581 1.491 . S
C576 H567 0.950 . S
C576 C575 1.398 . S
C576 C577 1.391 . S
C577 H565 0.950 . S
C577 C573 1.393 . S
C577 C576 1.391 . S
C578 H568 0.950 . S
C578 C579 1.386 . S
C578 C580 1.391 . S
C579 C578 1.386 . S
C579 C583 1.393 . S
C580 H569 0.950 . S
C580 C578 1.391 . S
C580 C581 1.400 . S
C581 C575 1.491 . S
C581 C580 1.400 . S
C581 C582 1.398 . S
C582 H570 0.950 . S
C582 C581 1.398 . S
C582 C583 1.391 . S
C583 H571 0.950 . S
C583 C579 1.393 . S
C583 C582 1.391 . S
H584 C592 0.950 . S
H585 C597 0.950 . S
H586 C594 0.950 . S
H587 C596 0.950 . S
H588 C598 0.958 . S
H589 C600 0.950 . S
H590 C602 0.950 . S
H591 C603 0.950 . S
C592 H584 0.950 . S
C592 C593 1.386 . S
C592 C594 1.391 . S
C593 C592 1.386 . S
C593 C597 1.393 . S
C594 H586 0.950 . S
C594 C592 1.391 . S
C594 C595 1.400 . S
C595 C594 1.400 . S
C595 C596 1.398 . S
C595 C601 1.491 . S
C596 H587 0.950 . S
C596 C595 1.398 . S
C596 C597 1.391 . S
C597 H585 0.950 . S
C597 C593 1.393 . S
C597 C596 1.391 . S
C598 H588 0.958 . S
C598 C599 1.386 . S
C598 C600 1.391 . S
C599 C598 1.386 . S
C599 C603 1.393 . S
C600 H589 0.950 . S
C600 C598 1.391 . S
C600 C601 1.400 . S
C601 C595 1.491 . S
C601 C600 1.400 . S
C601 C602 1.398 . S
C602 H590 0.950 . S
C602 C601 1.398 . S
C602 C603 1.391 . S
C603 H591 0.950 . S
C603 C599 1.393 . S
C603 C602 1.391 . S
H604 C612 0.950 . S
H605 C617 0.950 . S
H606 C614 0.950 . S
H607 C616 0.950 . S
H608 C618 0.950 . S
H609 C620 0.950 . S
H610 C622 0.950 . S
H611 C623 0.950 . S
C612 H604 0.950 . S
C612 C613 1.386 . S
C612 C614 1.391 . S
C613 C612 1.386 . S
C613 C617 1.393 . S
C614 H606 0.950 . S
C614 C612 1.391 . S
C614 C615 1.400 . S
C615 C614 1.400 . S
C615 C616 1.398 . S
C615 C621 1.491 . S
C616 H607 0.950 . S
C616 C615 1.398 . S
C616 C617 1.391 . S
C617 H605 0.950 . S
C617 C613 1.393 . S
C617 C616 1.391 . S
C618 H608 0.950 . S
C618 C619 1.386 . S
C618 C620 1.391 . S
C619 C618 1.386 . S
C619 C623 1.393 . S
C620 H609 0.950 . S
C620 C618 1.391 . S
C620 C621 1.400 . S
C621 C615 1.491 . S
C621 C620 1.400 . S
C621 C622 1.398 . S
C622 H610 0.950 . S
C622 C621 1.398 . S
C622 C623 1.391 . S
C623 H611 0.950 . S
C623 C619 1.393 . S
C623 C622 1.391 . S
H624 C632 0.950 . S
H625 C637 0.950 . S
H626 C634 0.950 . S
H627 C636 0.950 . S
H628 C638 0.950 . S
H629 C640 0.950 . S
H630 C642 0.950 . S
H631 C643 0.950 . S
C632 H624 0.950 . S
C632 C633 1.386 . S
C632 C634 1.391 . S
C633 C632 1.386 . S
C633 C637 1.393 . S
C634 H626 0.950 . S
C634 C632 1.391 . S
C634 C635 1.400 . S
C635 C634 1.400 . S
C635 C636 1.398 . S
C635 C641 1.491 . S
C636 H627 0.950 . S
C636 C635 1.398 . S
C636 C637 1.391 . S
C637 H625 0.950 . S
C637 C633 1.393 . S
C637 C636 1.391 . S
C638 H628 0.950 . S
C638 C639 1.386 . S
C638 C640 1.391 . S
C639 C638 1.386 . S
C639 C643 1.393 . S
C640 H629 0.950 . S
C640 C638 1.391 . S
C640 C641 1.400 . S
C641 C635 1.491 . S
C641 C640 1.400 . S
C641 C642 1.398 . S
C642 H630 0.950 . S
C642 C641 1.398 . S
C642 C643 1.391 . S
C643 H631 0.950 . S
C643 C639 1.393 . S
C643 C642 1.391 . S
H644 C652 0.950 . S
H645 C657 0.950 . S
H646 C654 0.950 . S
H647 C656 0.950 . S
H648 C658 0.950 . S
H649 C660 0.950 . S
H650 C662 0.950 . S
H651 C663 0.950 . S
C652 H644 0.950 . S
C652 C653 1.386 . S
C652 C654 1.391 . S
C653 C652 1.386 . S
C653 C657 1.393 . S
C654 H646 0.950 . S
C654 C652 1.391 . S
C654 C655 1.400 . S
C655 C654 1.400 . S
C655 C656 1.398 . S
C655 C661 1.491 . S
C656 H647 0.950 . S
C656 C655 1.398 . S
C656 C657 1.391 . S
C657 H645 0.950 . S
C657 C653 1.393 . S
C657 C656 1.391 . S
C658 H648 0.950 . S
C658 C659 1.386 . S
C658 C660 1.391 . S
C659 C658 1.386 . S
C659 C663 1.393 . S
C660 H649 0.950 . S
C660 C658 1.391 . S
C660 C661 1.400 . S
C661 C655 1.491 . S
C661 C660 1.400 . S
C661 C662 1.398 . S
C662 H650 0.950 . S
C662 C661 1.398 . S
C662 C663 1.391 . S
C663 H651 0.950 . S
C663 C659 1.393 . S
C663 C662 1.391 . S
H664 C672 0.950 . S
H665 C677 0.950 . S
H666 C674 0.950 . S
H667 C676 0.950 . S
H668 C678 0.950 . S
H669 C680 0.950 . S
H670 C682 0.950 . S
H671 C683 0.950 . S
C672 H664 0.950 . S
C672 C673 1.386 . S
C672 C674 1.391 . S
C673 C672 1.386 . S
C673 C677 1.393 . S
C674 H666 0.950 . S
C674 C672 1.391 . S
C674 C675 1.400 . S
C675 C674 1.400 . S
C675 C676 1.398 . S
C675 C681 1.491 . S
C676 H667 0.950 . S
C676 C675 1.398 . S
C676 C677 1.391 . S
C677 H665 0.950 . S
C677 C673 1.393 . S
C677 C676 1.391 . S
C678 H668 0.950 . S
C678 C679 1.386 . S
C678 C680 1.391 . S
C679 C678 1.386 . S
C679 C683 1.393 . S
C680 H669 0.950 . S
C680 C678 1.391 . S
C680 C681 1.400 . S
C681 C675 1.491 . S
C681 C680 1.400 . S
C681 C682 1.398 . S
C682 H670 0.950 . S
C682 C681 1.398 . S
C682 C683 1.391 . S
C683 H671 0.950 . S
C683 C679 1.393 . S
C683 C682 1.391 . S
H684 C692 0.950 . S
H685 C697 0.950 . S
H686 C694 0.950 . S
H687 C696 0.950 . S
H688 C698 0.950 . S
H689 C700 0.950 . S
H690 C702 0.950 . S
H691 C703 0.950 . S
C692 H684 0.950 . S
C692 C693 1.386 . S
C692 C694 1.391 . S
C693 C692 1.386 . S
C693 C697 1.393 . S
C694 H686 0.950 . S
C694 C692 1.391 . S
C694 C695 1.400 . S
C695 C694 1.400 . S
C695 C696 1.398 . S
C695 C701 1.491 . S
C696 H687 0.950 . S
C696 C695 1.398 . S
C696 C697 1.391 . S
C697 H685 0.950 . S
C697 C693 1.393 . S
C697 C696 1.391 . S
C698 H688 0.950 . S
C698 C699 1.386 . S
C698 C700 1.391 . S
C699 C698 1.386 . S
C699 C703 1.393 . S
C700 H689 0.950 . S
C700 C698 1.391 . S
C700 C701 1.400 . S
C701 C695 1.491 . S
C701 C700 1.400 . S
C701 C702 1.398 . S
C702 H690 0.950 . S
C702 C701 1.398 . S
C702 C703 1.391 . S
C703 H691 0.950 . S
C703 C699 1.393 . S
C703 C702 1.391 . S
H704 C712 0.950 . S
H705 C717 0.950 . S
H706 C714 0.950 . S
H707 C716 0.950 . S
H708 C718 0.950 . S
H709 C720 0.950 . S
H710 C722 0.950 . S
H711 C723 0.950 . S
C712 H704 0.950 . S
C712 C713 1.386 . S
C712 C714 1.391 . S
C713 C712 1.386 . S
C713 C717 1.393 . S
C714 H706 0.950 . S
C714 C712 1.391 . S
C714 C715 1.400 . S
C715 C714 1.400 . S
C715 C716 1.398 . S
C715 C721 1.491 . S
C716 H707 0.950 . S
C716 C715 1.398 . S
C716 C717 1.391 . S
C717 H705 0.950 . S
C717 C713 1.393 . S
C717 C716 1.391 . S
C718 H708 0.950 . S
C718 C719 1.386 . S
C718 C720 1.391 . S
C719 C718 1.386 . S
C719 C723 1.393 . S
C720 H709 0.950 . S
C720 C718 1.391 . S
C720 C721 1.400 . S
C721 C715 1.491 . S
C721 C720 1.400 . S
C721 C722 1.398 . S
C722 H710 0.950 . S
C722 C721 1.398 . S
C722 C723 1.391 . S
C723 H711 0.950 . S
C723 C719 1.393 . S
C723 C722 1.391 . S
H724 C732 0.950 . S
H725 C737 0.950 . S
H726 C734 0.950 . S
H727 C736 0.950 . S
H728 C738 0.950 . S
H729 C740 0.950 . S
H730 C742 0.950 . S
H731 C743 0.950 . S
C732 H724 0.950 . S
C732 C733 1.386 . S
C732 C734 1.391 . S
C733 C732 1.386 . S
C733 C737 1.393 . S
C734 H726 0.950 . S
C734 C732 1.391 . S
C734 C735 1.400 . S
C735 C734 1.400 . S
C735 C736 1.398 . S
C735 C741 1.491 . S
C736 H727 0.950 . S
C736 C735 1.398 . S
C736 C737 1.391 . S
C737 H725 0.950 . S
C737 C733 1.393 . S
C737 C736 1.391 . S
C738 H728 0.950 . S
C738 C739 1.386 . S
C738 C740 1.391 . S
C739 C738 1.386 . S
C739 C743 1.393 . S
C740 H729 0.950 . S
C740 C738 1.391 . S
C740 C741 1.400 . S
C741 C735 1.491 . S
C741 C740 1.400 . S
C741 C742 1.398 . S
C742 H730 0.950 . S
C742 C741 1.398 . S
C742 C743 1.391 . S
C743 H731 0.950 . S
C743 C739 1.393 . S
C743 C742 1.391 . S
C273 N1 0.963 . S
C279 C111 0.978 . S
C293 N18 1.093 . S
C299 C160 1.133 . S
C319 C186 2.062 . S
C313 N28 2.093 . S
C333 N40 2.599 . S
C339 C234 2.584 . S
C359 C146 2.422 . S
C353 N5 2.366 . S
C379 C114 0.764 . S
C373 N14 0.728 . S
C399 C235 2.026 . S
C393 N31 2.016 . S
C419 C203 1.387 . S
C413 N41 1.399 . S
C433 N2 1.336 . S
C439 C231 1.374 . S
C459 C163 2.454 1_556 S
C453 N27 2.515 . S
C473 N44 2.400 . S
C479 C115 2.449 . S
C493 N15 0.723 . S
C499 C200 0.708 . S
C519 C120 1.483 . S
C513 N57 1.483 . S
C533 N70 0.907 . S
C539 C151 0.944 . S
C553 N79 2.262 . S
C559 C195 2.301 . S
C573 N93 2.388 . S
C579 C243 2.360 . S
C593 N54 1.932 . S
C599 C155 2.026 1_566 S
C619 C123 1.508 . S
C613 N66 1.587 . S
C639 C226 1.412 . S
C633 N80 1.451 . S
C659 C194 1.676 . S
C653 N96 1.681 . S
C673 N53 1.471 . S
C679 C240 1.505 . S
C699 C154 2.134 . S
C693 N83 2.127 . S
C719 C106 2.618 . S
C713 N92 2.606 . S
C733 N67 0.886 . S
C739 C191 0.909 . S
