# Generated by pormake.
# Topology ssa, (4,4)-cn, num edge types: 1
# Building blocks:
#     Node 0, Type 0, BuildingBlock: NAWXER_clean_sbu_0, # of connection points: 4
#     Node 1, Type 0, BuildingBlock: NAWXER_clean_sbu_0, # of connection points: 4
#     Node 2, Type 0, BuildingBlock: NAWXER_clean_sbu_0, # of connection points: 4
#     Node 3, Type 0, BuildingBlock: NAWXER_clean_sbu_0, # of connection points: 4
#     Node 4, Type 0, BuildingBlock: NAWXER_clean_sbu_0, # of connection points: 4
#     Node 5, Type 0, BuildingBlock: NAWXER_clean_sbu_0, # of connection points: 4
#     Node 6, Type 1, BuildingBlock: NAHDIM_clean_linker_0, # of connection points: 4
#     Node 7, Type 1, BuildingBlock: NAHDIM_clean_linker_0, # of connection points: 4
#     Node 8, Type 1, BuildingBlock: NAHDIM_clean_linker_0, # of connection points: 4
#     Node 9, Type 1, BuildingBlock: NAHDIM_clean_linker_0, # of connection points: 4
#     Node 10, Type 1, BuildingBlock: NAHDIM_clean_linker_0, # of connection points: 4
#     Node 11, Type 1, BuildingBlock: NAHDIM_clean_linker_0, # of connection points: 4
#     Edge 12, Type (0, 1), BuildingBlock: ZUJKAS_clean_linker_0, # of connection points: 2
#     Edge 13, Type (0, 1), BuildingBlock: ZUJKAS_clean_linker_0, # of connection points: 2
#     Edge 14, Type (0, 1), BuildingBlock: ZUJKAS_clean_linker_0, # of connection points: 2
#     Edge 15, Type (0, 1), BuildingBlock: ZUJKAS_clean_linker_0, # of connection points: 2
#     Edge 16, Type (0, 1), BuildingBlock: ZUJKAS_clean_linker_0, # of connection points: 2
#     Edge 17, Type (0, 1), BuildingBlock: ZUJKAS_clean_linker_0, # of connection points: 2
#     Edge 18, Type (0, 1), BuildingBlock: ZUJKAS_clean_linker_0, # of connection points: 2
#     Edge 19, Type (0, 1), BuildingBlock: ZUJKAS_clean_linker_0, # of connection points: 2
#     Edge 20, Type (0, 1), BuildingBlock: ZUJKAS_clean_linker_0, # of connection points: 2
#     Edge 21, Type (0, 1), BuildingBlock: ZUJKAS_clean_linker_0, # of connection points: 2
#     Edge 22, Type (0, 1), BuildingBlock: ZUJKAS_clean_linker_0, # of connection points: 2
#     Edge 23, Type (0, 1), BuildingBlock: ZUJKAS_clean_linker_0, # of connection points: 2
#     Edge 24, Type (0, 1), BuildingBlock: ZUJKAS_clean_linker_0, # of connection points: 2
#     Edge 25, Type (0, 1), BuildingBlock: ZUJKAS_clean_linker_0, # of connection points: 2
#     Edge 26, Type (0, 1), BuildingBlock: ZUJKAS_clean_linker_0, # of connection points: 2
#     Edge 27, Type (0, 1), BuildingBlock: ZUJKAS_clean_linker_0, # of connection points: 2
#     Edge 28, Type (0, 1), BuildingBlock: ZUJKAS_clean_linker_0, # of connection points: 2
#     Edge 29, Type (0, 1), BuildingBlock: ZUJKAS_clean_linker_0, # of connection points: 2
#     Edge 30, Type (0, 1), BuildingBlock: ZUJKAS_clean_linker_0, # of connection points: 2
#     Edge 31, Type (0, 1), BuildingBlock: ZUJKAS_clean_linker_0, # of connection points: 2
#     Edge 32, Type (0, 1), BuildingBlock: ZUJKAS_clean_linker_0, # of connection points: 2
#     Edge 33, Type (0, 1), BuildingBlock: ZUJKAS_clean_linker_0, # of connection points: 2
#     Edge 34, Type (0, 1), BuildingBlock: ZUJKAS_clean_linker_0, # of connection points: 2
#     Edge 35, Type (0, 1), BuildingBlock: ZUJKAS_clean_linker_0, # of connection points: 2
# Relax obj value: 0.028
# Max RMSD: 0.056
# Mean RMSD: 0.044
data_MOF--net-ssa--node1-NAWXER_clean_sbu_0--node2-NAHDIM_clean_linker_0--edge1-ZUJKAS_clean_linker_0
_symmetry_space_group_name_H-M    P1
_symmetry_Int_Tables_number       1
_symmetry_cell_setting            triclinic
loop_
_symmetry_equiv_pos_as_xyz
'x, y, z'
_cell_length_a     73.795752
_cell_length_b     73.785176
_cell_length_c     63.026733
_cell_angle_alpha  89.801194
_cell_angle_beta   90.379195
_cell_angle_gamma 119.99967
loop_
_atom_site_label
_atom_site_type_symbol
_atom_site_fract_x
_atom_site_fract_y
_atom_site_fract_z
_atom_type_partial_charge
C0 C 0.01831 0.52807 0.03614 0.0
C1 C 0.98828 0.46615 0.99069 0.0
O2 O 1.00029 0.51187 0.03762 0.0
Zn3 Zn 0.0028 0.49699 0.01366 0.0
O4 O 0.03065 0.52926 0.02126 0.0
Zn5 Zn 0.03059 0.5107 0.99504 0.0
O6 O 0.03305 0.52812 0.97085 0.0
O7 O 0.00301 0.51574 0.98761 0.0
O8 O 0.00671 0.4802 0.98503 0.0
O9 O 0.97987 0.46942 0.00666 0.0
O10 O 0.02666 0.49049 0.02409 0.0
O11 O 0.05349 0.50595 0.00232 0.0
C12 C 0.01526 0.52677 0.97261 0.0
C13 C 0.04505 0.49465 0.01859 0.0
C14 C 0.5076 0.03606 0.5261 0.0
C15 C 0.53475 0.00191 0.48027 0.0
O16 O 0.50311 0.0178 0.53265 0.0
Zn17 Zn 0.5082 0.99273 0.52315 0.0
O18 O 0.51823 0.04339 0.50926 0.0
Zn19 Zn 0.52157 0.01959 0.50303 0.0
O20 O 0.49004 0.99629 0.49555 0.0
O21 O 0.47998 0.96991 0.51794 0.0
O22 O 0.5369 0.02001 0.47798 0.0
O23 O 0.52459 0.99068 0.49623 0.0
O24 O 0.52416 0.99104 0.54679 0.0
O25 O 0.54134 0.02032 0.5285 0.0
C26 C 0.476 0.97828 0.50226 0.0
C27 C 0.5406 0.00865 0.54399 0.0
C28 C 0.49215 0.48212 0.98408 0.0
C29 C 0.52318 0.54389 0.02989 0.0
O30 O 0.49115 0.49872 0.98167 0.0
Zn31 Zn 0.50768 0.51342 0.00646 0.0
O32 O 0.5025 0.48067 0.99976 0.0
Zn33 Zn 0.52067 0.49914 0.0261 0.0
O34 O 0.50518 0.48186 0.0499 0.0
O35 O 0.4883 0.49487 0.03229 0.0
O36 O 0.52716 0.52963 0.03599 0.0
O37 O 0.51229 0.54104 0.0132 0.0
O38 O 0.53841 0.52002 0.99785 0.0
O39 O 0.54823 0.50335 0.02007 0.0
C40 C 0.48906 0.48373 0.04758 0.0
C41 C 0.55212 0.51532 0.00413 0.0
C42 C 0.03326 0.5311 0.50081 0.0
C43 C 0.9974 0.4692 0.54598 0.0
O44 O 0.04006 0.52766 0.51808 0.0
Zn45 Zn 0.01598 0.5005 0.5238 0.0
O46 O 0.01511 0.51756 0.49378 0.0
Zn47 Zn 0.98943 0.4876 0.50281 0.0
O48 O 0.9669 0.49365 0.50755 0.0
O49 O 0.99288 0.5089 0.53065 0.0
O50 O 0.98655 0.46873 0.52982 0.0
O51 O 0.01568 0.48475 0.5487 0.0
O52 O 0.01693 0.48186 0.4985 0.0
O53 O 0.98814 0.46995 0.47924 0.0
C54 C 0.97514 0.50552 0.52355 0.0
C55 C 0.0057 0.47112 0.48271 0.0
C56 C 0.53246 0.00087 0.04692 0.0
C57 C 0.50198 0.03257 0.00123 0.0
O58 O 0.5345 0.01894 0.04895 0.0
Zn59 Zn 0.51758 0.0174 0.02448 0.0
O60 O 0.52153 0.9891 0.03151 0.0
Zn61 Zn 0.5036 0.98984 0.00509 0.0
O62 O 0.51904 0.98794 0.98103 0.0
O63 O 0.53634 0.01755 0.99877 0.0
O64 O 0.49734 0.01407 0.99546 0.0
O65 O 0.51368 0.04084 0.01737 0.0
O66 O 0.48675 0.9937 0.03357 0.0
O67 O 0.4759 0.96687 0.01171 0.0
C68 C 0.53541 0.00573 0.98346 0.0
C69 C 0.47262 0.97536 0.02765 0.0
C70 C 0.55107 0.51079 0.52716 0.0
C71 C 0.48712 0.4807 0.48416 0.0
O72 O 0.53767 0.51577 0.53354 0.0
Zn73 Zn 0.50682 0.50947 0.52554 0.0
O74 O 0.54666 0.49845 0.51147 0.0
Zn75 Zn 0.51914 0.49483 0.50565 0.0
O76 O 0.52657 0.52595 0.49648 0.0
O77 O 0.51182 0.53725 0.51929 0.0
O78 O 0.50262 0.47786 0.48171 0.0
O79 O 0.48715 0.49193 0.49963 0.0
O80 O 0.49048 0.49461 0.55025 0.0
O81 O 0.50169 0.47661 0.53225 0.0
C82 C 0.52295 0.54034 0.50287 0.0
C83 C 0.49162 0.47809 0.548 0.0
C84 C 0.11361 0.36969 0.38752 0.0
C85 C 0.11917 0.39002 0.37583 0.0
C86 C 0.1342 0.38927 0.34226 0.0
C87 C 0.15204 0.40904 0.34024 0.0
C88 C 0.1694 0.41166 0.3287 0.0
C89 C 0.16892 0.39402 0.31927 0.0
C90 C 0.15073 0.37405 0.3211 0.0
C91 C 0.13341 0.37202 0.33229 0.0
C92 C 0.18835 0.43322 0.32682 0.0
C93 C 0.14975 0.35481 0.31167 0.0
C94 C 0.27509 0.37939 0.39194 0.0
C95 C 0.29038 0.39069 0.37372 0.0
C96 C 0.27129 0.40392 0.35231 0.0
C97 C 0.25576 0.3844 0.34442 0.0
C98 C 0.23955 0.38284 0.33134 0.0
C99 C 0.23897 0.40114 0.32581 0.0
C100 C 0.25464 0.42079 0.33356 0.0
C101 C 0.27057 0.42189 0.34673 0.0
C102 C 0.22306 0.36163 0.32333 0.0
C103 C 0.2546 0.44064 0.32782 0.0
C104 C 0.28455 0.40707 0.19356 0.0
C105 C 0.26775 0.38739 0.19933 0.0
C106 C 0.24946 0.38557 0.20808 0.0
C107 C 0.24802 0.40378 0.21131 0.0
C108 C 0.26467 0.42351 0.20506 0.0
C109 C 0.28267 0.42485 0.19616 0.0
C110 C 0.2318 0.36424 0.21424 0.0
C111 C 0.26361 0.44322 0.20822 0.0
C112 C 0.09595 0.38372 0.17646 0.0
C113 C 0.11754 0.40157 0.17014 0.0
C114 C 0.14633 0.39534 0.17793 0.0
C115 C 0.1483 0.37773 0.18155 0.0
C116 C 0.16412 0.37878 0.19486 0.0
C117 C 0.17863 0.39813 0.20426 0.0
C118 C 0.17725 0.41624 0.19986 0.0
C119 C 0.16103 0.41463 0.18679 0.0
C120 C 0.16518 0.35919 0.19908 0.0
C121 C 0.1929 0.43726 0.209 0.0
C122 C 0.18772 0.39634 0.30824 0.0
C123 C 0.20404 0.39759 0.32075 0.0
C124 C 0.22222 0.39977 0.31155 0.0
C125 C 0.22423 0.40061 0.28923 0.0
C126 C 0.24228 0.40276 0.27948 0.0
C127 C 0.24407 0.40338 0.25751 0.0
C128 C 0.22787 0.4019 0.24441 0.0
C129 C 0.22947 0.40227 0.22205 0.0
C130 C 0.21324 0.4011 0.20948 0.0
C131 C 0.19525 0.3994 0.21864 0.0
C132 C 0.19325 0.39875 0.24099 0.0
C133 C 0.17529 0.39684 0.25076 0.0
C134 C 0.17352 0.39627 0.27277 0.0
C135 C 0.1895 0.39728 0.28587 0.0
C136 C 0.20778 0.39929 0.27635 0.0
C137 C 0.20964 0.4 0.2539 0.0
C138 C 0.31546 0.39118 0.20675 0.0
C139 C 0.30947 0.3952 0.1846 0.0
O140 O 0.11777 0.38654 0.35413 0.0
O141 O 0.13034 0.39334 0.16553 0.0
O142 O 0.30285 0.40977 0.18567 0.0
O143 O 0.28711 0.40624 0.36533 0.0
H144 H 0.13552 0.40188 0.38034 0.0
H145 H 0.12471 0.36435 0.38304 0.0
H146 H 0.09749 0.3572 0.38334 0.0
H147 H 0.11469 0.37223 0.40496 0.0
H148 H 0.15235 0.42237 0.34778 0.0
H149 H 0.11945 0.35683 0.33395 0.0
H150 H 0.2014 0.43391 0.33631 0.0
H151 H 0.18524 0.44561 0.33261 0.0
H152 H 0.19353 0.43658 0.31006 0.0
H153 H 0.1353 0.34022 0.31627 0.0
H154 H 0.16355 0.35365 0.31685 0.0
H155 H 0.15019 0.35602 0.2941 0.0
H156 H 0.2881 0.37921 0.3611 0.0
H157 H 0.27695 0.39067 0.40459 0.0
H158 H 0.25867 0.37161 0.38619 0.0
H159 H 0.27797 0.36719 0.39887 0.0
H160 H 0.25609 0.3703 0.34838 0.0
H161 H 0.28261 0.43688 0.35281 0.0
H162 H 0.20729 0.35863 0.32793 0.0
H163 H 0.22527 0.34878 0.32963 0.0
H164 H 0.22349 0.36137 0.30573 0.0
H165 H 0.26805 0.45475 0.33493 0.0
H166 H 0.23986 0.43962 0.33334 0.0
H167 H 0.25515 0.44251 0.31031 0.0
H168 H 0.29676 0.38029 0.17785 0.0
H169 H 0.26877 0.3734 0.19722 0.0
H170 H 0.29563 0.43994 0.19154 0.0
H171 H 0.22999 0.3634 0.23175 0.0
H172 H 0.23456 0.35144 0.20904 0.0
H173 H 0.21686 0.36164 0.20718 0.0
H174 H 0.27804 0.45742 0.20282 0.0
H175 H 0.26118 0.44505 0.22527 0.0
H176 H 0.25003 0.44204 0.19931 0.0
H177 H 0.12378 0.41245 0.18392 0.0
H178 H 0.08542 0.38992 0.18043 0.0
H179 H 0.0974 0.37556 0.19066 0.0
H180 H 0.08883 0.37218 0.16335 0.0
H181 H 0.13703 0.36299 0.17434 0.0
H182 H 0.15997 0.42845 0.18329 0.0
H183 H 0.16523 0.3566 0.21644 0.0
H184 H 0.17999 0.3611 0.19261 0.0
H185 H 0.15186 0.34511 0.19176 0.0
H186 H 0.19078 0.45012 0.20258 0.0
H187 H 0.20907 0.44074 0.20554 0.0
H188 H 0.19122 0.43688 0.22651 0.0
H189 H 0.20259 0.39685 0.33789 0.0
H190 H 0.25524 0.40393 0.28872 0.0
H191 H 0.25833 0.40503 0.25093 0.0
H192 H 0.21462 0.40146 0.19233 0.0
H193 H 0.16239 0.3958 0.2415 0.0
H194 H 0.1594 0.39493 0.27939 0.0
H195 H 0.32798 0.40599 0.21383 0.0
H196 H 0.3211 0.37978 0.20581 0.0
H197 H 0.30172 0.38455 0.21743 0.0
C198 C 0.8947 0.29912 0.89433 0.0
C199 C 0.88518 0.27941 0.88178 0.0
C200 C 0.85906 0.26165 0.85379 0.0
C201 C 0.86443 0.24618 0.84983 0.0
C202 C 0.8527 0.22982 0.83551 0.0
C203 C 0.83517 0.2288 0.82512 0.0
C204 C 0.82986 0.24446 0.82893 0.0
C205 C 0.84203 0.26079 0.84308 0.0
C206 C 0.85892 0.21349 0.83162 0.0
C207 C 0.81111 0.24377 0.81833 0.0
C208 C 0.74506 0.09826 0.88753 0.0
C209 C 0.73182 0.10631 0.87672 0.0
C210 C 0.74674 0.12145 0.84296 0.0
C211 C 0.74383 0.13857 0.83964 0.0
C212 C 0.7584 0.15598 0.82798 0.0
C213 C 0.77642 0.15632 0.81982 0.0
C214 C 0.77928 0.1389 0.82311 0.0
C215 C 0.76415 0.12148 0.83438 0.0
C216 C 0.75467 0.17411 0.82458 0.0
C217 C 0.79847 0.13885 0.81509 0.0
C218 C 0.75178 0.12705 0.68357 0.0
C219 C 0.74631 0.14127 0.69177 0.0
C220 C 0.76122 0.15946 0.70226 0.0
C221 C 0.78189 0.16318 0.70497 0.0
C222 C 0.78763 0.14929 0.6958 0.0
C223 C 0.7725 0.13149 0.68491 0.0
C224 C 0.75473 0.17436 0.71101 0.0
C225 C 0.80953 0.15285 0.69815 0.0
C226 C 0.9155 0.31479 0.65906 0.0
C227 C 0.90579 0.29601 0.67308 0.0
C228 C 0.87183 0.27213 0.68914 0.0
C229 C 0.85228 0.26933 0.69459 0.0
C230 C 0.83738 0.25115 0.70503 0.0
C231 C 0.84218 0.23531 0.71006 0.0
C232 C 0.86189 0.23794 0.70447 0.0
C233 C 0.87657 0.25635 0.69414 0.0
C234 C 0.81654 0.2489 0.71082 0.0
C235 C 0.86743 0.22128 0.7095 0.0
C236 C 0.82176 0.21084 0.81105 0.0
C237 C 0.8065 0.19239 0.82059 0.0
C238 C 0.79252 0.17515 0.80844 0.0
C239 C 0.79372 0.17627 0.78605 0.0
C240 C 0.77971 0.15937 0.77332 0.0
C241 C 0.78095 0.16063 0.75131 0.0
C242 C 0.796 0.17901 0.74112 0.0
C243 C 0.79695 0.18063 0.71873 0.0
C244 C 0.8122 0.19908 0.70913 0.0
C245 C 0.82662 0.21609 0.72132 0.0
C246 C 0.82582 0.21479 0.74374 0.0
C247 C 0.83998 0.23163 0.7565 0.0
C248 C 0.83881 0.23032 0.77854 0.0
C249 C 0.82342 0.21215 0.78868 0.0
C250 C 0.80923 0.19484 0.77614 0.0
C251 C 0.81039 0.1962 0.75365 0.0
C252 C 0.72228 0.07627 0.69276 0.0
C253 C 0.71918 0.09411 0.68468 0.0
O254 O 0.86973 0.27751 0.86782 0.0
O255 O 0.88553 0.29015 0.67907 0.0
O256 O 0.73724 0.10884 0.67453 0.0
O257 O 0.73307 0.10504 0.8549 0.0
H258 H 0.88046 0.26489 0.8912 0.0
H259 H 0.89033 0.29397 0.91128 0.0
H260 H 0.88387 0.30568 0.89271 0.0
H261 H 0.92578 0.31522 0.88402 0.0
H262 H 0.87773 0.24675 0.85785 0.0
H263 H 0.83806 0.27283 0.84617 0.0
H264 H 0.8466 0.19817 0.83784 0.0
H265 H 0.87403 0.21751 0.83939 0.0
H266 H 0.86023 0.21165 0.81431 0.0
H267 H 0.80839 0.25646 0.82394 0.0
H268 H 0.79687 0.22845 0.82144 0.0
H269 H 0.81346 0.24529 0.8009 0.0
H270 H 0.73827 0.12297 0.88158 0.0
H271 H 0.74422 0.09918 0.90506 0.0
H272 H 0.76168 0.10801 0.88274 0.0
H273 H 0.73952 0.08177 0.88292 0.0
H274 H 0.73017 0.13825 0.8463 0.0
H275 H 0.76617 0.10808 0.83712 0.0
H276 H 0.75666 0.17866 0.80757 0.0
H277 H 0.7664 0.18783 0.8338 0.0
H278 H 0.73879 0.17038 0.82968 0.0
H279 H 0.79929 0.12498 0.82069 0.0
H280 H 0.81282 0.15324 0.8204 0.0
H281 H 0.79837 0.13885 0.79749 0.0
H282 H 0.71598 0.10116 0.69877 0.0
H283 H 0.73034 0.13802 0.69007 0.0
H284 H 0.77655 0.1205 0.67819 0.0
H285 H 0.75342 0.17274 0.72853 0.0
H286 H 0.7394 0.17121 0.7045 0.0
H287 H 0.76671 0.1908 0.70736 0.0
H288 H 0.81128 0.14017 0.69075 0.0
H289 H 0.81375 0.15391 0.71523 0.0
H290 H 0.8208 0.16795 0.69063 0.0
H291 H 0.91573 0.2963 0.68664 0.0
H292 H 0.929 0.32711 0.66856 0.0
H293 H 0.90571 0.32254 0.66049 0.0
H294 H 0.91959 0.30318 0.63024 0.0
H295 H 0.84875 0.28155 0.69067 0.0
H296 H 0.89164 0.25827 0.69001 0.0
H297 H 0.81439 0.24709 0.72827 0.0
H298 H 0.8037 0.23457 0.70336 0.0
H299 H 0.81516 0.26258 0.70569 0.0
H300 H 0.88334 0.22556 0.70395 0.0
H301 H 0.85588 0.2063 0.70191 0.0
H302 H 0.86662 0.21858 0.7269 0.0
H303 H 0.80531 0.19153 0.83777 0.0
H304 H 0.76761 0.14493 0.78022 0.0
H305 H 0.76982 0.14702 0.7424 0.0
H306 H 0.81279 0.20025 0.69196 0.0
H307 H 0.85208 0.24606 0.74958 0.0
H308 H 0.85009 0.24378 0.78755 0.0
H309 H 0.72576 0.06871 0.67941 0.0
H310 H 0.708 0.06432 0.70104 0.0
H311 H 0.73557 0.08248 0.70418 0.0
C312 C 0.63878 0.72103 0.36059 0.0
C313 C 0.62141 0.72331 0.37125 0.0
C314 C 0.60882 0.73941 0.34499 0.0
C315 C 0.5912 0.73613 0.33349 0.0
C316 C 0.59115 0.75236 0.32189 0.0
C317 C 0.60949 0.77228 0.32128 0.0
C318 C 0.62755 0.77565 0.3326 0.0
C319 C 0.62699 0.75925 0.34449 0.0
C320 C 0.57138 0.74823 0.31049 0.0
C321 C 0.64743 0.79663 0.33217 0.0
C322 C 0.6041 0.91101 0.37876 0.0
C323 C 0.61245 0.89908 0.36749 0.0
C324 C 0.59979 0.86551 0.34938 0.0
C325 C 0.61953 0.86993 0.34197 0.0
C326 C 0.62168 0.85533 0.32961 0.0
C327 C 0.60372 0.83606 0.3243 0.0
C328 C 0.58385 0.83159 0.33169 0.0
C329 C 0.58218 0.84638 0.34421 0.0
C330 C 0.64314 0.86048 0.32217 0.0
C331 C 0.56438 0.81125 0.32623 0.0
C332 C 0.59992 0.87235 0.18883 0.0
C333 C 0.61958 0.8773 0.1972 0.0
C334 C 0.62254 0.86193 0.20719 0.0
C335 C 0.6054 0.84134 0.20933 0.0
C336 C 0.58566 0.83629 0.20073 0.0
C337 C 0.58327 0.85185 0.1904 0.0
C338 C 0.64395 0.86773 0.21566 0.0
C339 C 0.56702 0.81454 0.20274 0.0
C340 C 0.63139 0.71192 0.18379 0.0
C341 C 0.61298 0.71445 0.17645 0.0
C342 C 0.61801 0.74931 0.18189 0.0
C343 C 0.63525 0.7693 0.18475 0.0
C344 C 0.63375 0.78431 0.19706 0.0
C345 C 0.61432 0.77929 0.2062 0.0
C346 C 0.59655 0.75935 0.20249 0.0
C347 C 0.59862 0.74452 0.19046 0.0
C348 C 0.65299 0.80542 0.20055 0.0
C349 C 0.57539 0.7537 0.21129 0.0
C350 C 0.60948 0.78972 0.30942 0.0
C351 C 0.60713 0.80452 0.32103 0.0
C352 C 0.60575 0.82066 0.3109 0.0
C353 C 0.60628 0.82193 0.28851 0.0
C354 C 0.60398 0.83741 0.27779 0.0
C355 C 0.60441 0.83847 0.25575 0.0
C356 C 0.60738 0.82424 0.24356 0.0
C357 C 0.60791 0.82526 0.22113 0.0
C358 C 0.61041 0.81057 0.20949 0.0
C359 C 0.61254 0.79484 0.21963 0.0
C360 C 0.61244 0.79381 0.24206 0.0
C361 C 0.615 0.77849 0.25283 0.0
C362 C 0.61423 0.77722 0.27488 0.0
C363 C 0.61094 0.79126 0.28703 0.0
C364 C 0.60903 0.80725 0.27654 0.0
C365 C 0.60968 0.80848 0.25404 0.0
C366 C 0.60217 0.91952 0.16513 0.0
C367 C 0.60975 0.90824 0.17893 0.0
O368 O 0.60751 0.72297 0.35614 0.0
O369 O 0.62043 0.73509 0.17052 0.0
O370 O 0.59634 0.88676 0.17913 0.0
O371 O 0.59704 0.87915 0.36149 0.0
H372 H 0.62859 0.73835 0.38015 0.0
H373 H 0.64788 0.73428 0.34961 0.0
H374 H 0.6321 0.70627 0.35132 0.0
H375 H 0.64972 0.72099 0.37277 0.0
H376 H 0.57728 0.72079 0.33393 0.0
H377 H 0.64084 0.76207 0.35318 0.0
H378 H 0.5676 0.76066 0.31424 0.0
H379 H 0.55778 0.73281 0.31479 0.0
H380 H 0.57374 0.74848 0.2931 0.0
H381 H 0.66083 0.79601 0.33955 0.0
H382 H 0.64499 0.80826 0.34092 0.0
H383 H 0.65152 0.80224 0.31556 0.0
H384 H 0.6262 0.89936 0.37531 0.0
H385 H 0.6111 0.91355 0.39515 0.0
H386 H 0.58776 0.89931 0.384 0.0
H387 H 0.61052 0.93576 0.35808 0.0
H388 H 0.63332 0.8847 0.34578 0.0
H389 H 0.56703 0.8431 0.34997 0.0
H390 H 0.64632 0.84782 0.3269 0.0
H391 H 0.6557 0.87555 0.32874 0.0
H392 H 0.64372 0.86147 0.30459 0.0
H393 H 0.54997 0.81054 0.33238 0.0
H394 H 0.56559 0.79798 0.33301 0.0
H395 H 0.56293 0.80915 0.30874 0.0
H396 H 0.61507 0.91495 0.19512 0.0
H397 H 0.63267 0.89308 0.19592 0.0
H398 H 0.5682 0.84815 0.18379 0.0
H399 H 0.64364 0.86745 0.23326 0.0
H400 H 0.65616 0.88356 0.21042 0.0
H401 H 0.64838 0.85613 0.21037 0.0
H402 H 0.55243 0.81351 0.19647 0.0
H403 H 0.56462 0.80962 0.21964 0.0
H404 H 0.57 0.80332 0.19389 0.0
H405 H 0.6021 0.71011 0.19012 0.0
H406 H 0.62581 0.69551 0.18879 0.0
H407 H 0.63929 0.72234 0.19757 0.0
H408 H 0.64298 0.71613 0.17085 0.0
H409 H 0.65007 0.77291 0.17776 0.0
H410 H 0.58506 0.72928 0.18752 0.0
H411 H 0.65559 0.80885 0.2178 0.0
H412 H 0.6506 0.81776 0.19315 0.0
H413 H 0.66724 0.80633 0.19367 0.0
H414 H 0.56274 0.73856 0.20498 0.0
H415 H 0.5716 0.76614 0.20745 0.0
H416 H 0.57572 0.75253 0.22884 0.0
H417 H 0.60621 0.80337 0.3382 0.0
H418 H 0.60167 0.8488 0.28631 0.0
H419 H 0.60238 0.85063 0.2484 0.0
H420 H 0.61052 0.81128 0.19229 0.0
H421 H 0.61751 0.76723 0.24431 0.0
H422 H 0.6162 0.76505 0.2823 0.0
H423 H 0.62465 0.93219 0.14109 0.0
H424 H 0.59918 0.92953 0.17638 0.0
H425 H 0.58509 0.90835 0.1618 0.0
C426 C 0.76 0.62063 0.8978 0.0
C427 C 0.74187 0.60825 0.8822 0.0
C428 C 0.75887 0.59769 0.85518 0.0
C429 C 0.77169 0.61772 0.84648 0.0
C430 C 0.78669 0.62102 0.83104 0.0
C431 C 0.78867 0.60394 0.8239 0.0
C432 C 0.77526 0.58367 0.83203 0.0
C433 C 0.76056 0.58085 0.84759 0.0
C434 C 0.80074 0.64283 0.82266 0.0
C435 C 0.77676 0.56505 0.82459 0.0
C436 C 0.94538 0.64738 0.83236 0.0
C437 C 0.93069 0.63112 0.84851 0.0
C438 C 0.89575 0.61523 0.83156 0.0
C439 C 0.87968 0.59666 0.82296 0.0
C440 C 0.86137 0.59545 0.81488 0.0
C441 C 0.85932 0.61353 0.8149 0.0
C442 C 0.87531 0.63232 0.82399 0.0
C443 C 0.8933 0.63294 0.83244 0.0
C444 C 0.84436 0.57489 0.80604 0.0
C445 C 0.87355 0.65183 0.82439 0.0
C446 C 0.87954 0.61229 0.6765 0.0
C447 C 0.86443 0.59322 0.68536 0.0
C448 C 0.84812 0.59207 0.69766 0.0
C449 C 0.84686 0.61037 0.70103 0.0
C450 C 0.86145 0.62937 0.69121 0.0
C451 C 0.87754 0.63003 0.67887 0.0
C452 C 0.83244 0.57141 0.70738 0.0
C453 C 0.86035 0.64906 0.69426 0.0
C454 C 0.70025 0.58484 0.64534 0.0
C455 C 0.71697 0.59575 0.66159 0.0
C456 C 0.73907 0.58818 0.68491 0.0
C457 C 0.74203 0.5724 0.69354 0.0
C458 C 0.75998 0.57719 0.7055 0.0
C459 C 0.77531 0.59838 0.70893 0.0
C460 C 0.77217 0.61448 0.70077 0.0
C461 C 0.75405 0.60924 0.68885 0.0
C462 C 0.76282 0.55962 0.71399 0.0
C463 C 0.7882 0.63721 0.70426 0.0
C464 C 0.80561 0.60744 0.80897 0.0
C465 C 0.82431 0.61019 0.81767 0.0
C466 C 0.84075 0.61282 0.80472 0.0
C467 C 0.83873 0.61317 0.78242 0.0
C468 C 0.85518 0.61635 0.76894 0.0
C469 C 0.85271 0.61552 0.74703 0.0
C470 C 0.8337 0.61153 0.73772 0.0
C471 C 0.83073 0.60969 0.71548 0.0
C472 C 0.81173 0.60589 0.70671 0.0
C473 C 0.79535 0.60361 0.71957 0.0
C474 C 0.79793 0.60523 0.74188 0.0
C475 C 0.78174 0.60283 0.75534 0.0
C476 C 0.78426 0.60376 0.77732 0.0
C477 C 0.80307 0.60713 0.78667 0.0
C478 C 0.81971 0.60996 0.77337 0.0
C479 C 0.81716 0.60908 0.75097 0.0
C480 C 0.92969 0.62174 0.67855 0.0
C481 C 0.9078 0.60476 0.67155 0.0
O482 O 0.74496 0.59387 0.87104 0.0
O483 O 0.72183 0.58241 0.6726 0.0
O484 O 0.89619 0.61406 0.66568 0.0
O485 O 0.91327 0.61523 0.8384 0.0
H486 H 0.74078 0.6193 0.87089 0.0
H487 H 0.75706 0.63162 0.90717 0.0
H488 H 0.76183 0.60988 0.90886 0.0
H489 H 0.77495 0.62996 0.88923 0.0
H490 H 0.77038 0.63092 0.85183 0.0
H491 H 0.75051 0.56544 0.85421 0.0
H492 H 0.81734 0.64769 0.82612 0.0
H493 H 0.7972 0.65448 0.82972 0.0
H494 H 0.799 0.64297 0.80516 0.0
H495 H 0.76404 0.55007 0.83109 0.0
H496 H 0.79203 0.56689 0.82964 0.0
H497 H 0.77609 0.56421 0.80699 0.0
H498 H 0.9257 0.63897 0.86028 0.0
H499 H 0.95963 0.65968 0.8405 0.0
H500 H 0.93758 0.65509 0.82438 0.0
H501 H 0.95011 0.6399 0.81998 0.0
H502 H 0.8816 0.58303 0.82253 0.0
H503 H 0.90542 0.64737 0.83933 0.0
H504 H 0.84408 0.57592 0.78848 0.0
H505 H 0.82881 0.57143 0.81196 0.0
H506 H 0.84685 0.56167 0.8103 0.0
H507 H 0.88784 0.66552 0.83093 0.0
H508 H 0.85997 0.64902 0.83424 0.0
H509 H 0.87071 0.65564 0.80809 0.0
H510 H 0.90088 0.59443 0.68562 0.0
H511 H 0.8654 0.57923 0.68272 0.0
H512 H 0.88908 0.64458 0.67163 0.0
H513 H 0.8339 0.57252 0.72494 0.0
H514 H 0.83472 0.55835 0.70205 0.0
H515 H 0.8163 0.56768 0.70319 0.0
H516 H 0.87286 0.66259 0.68551 0.0
H517 H 0.86179 0.65301 0.71141 0.0
H518 H 0.84491 0.64645 0.68874 0.0
H519 H 0.71497 0.60668 0.6722 0.0
H520 H 0.6868 0.58665 0.65101 0.0
H521 H 0.69234 0.5676 0.64906 0.0
H522 H 0.71557 0.59746 0.6165 0.0
H523 H 0.73035 0.55622 0.69051 0.0
H524 H 0.75186 0.62165 0.68246 0.0
H525 H 0.76525 0.56123 0.73144 0.0
H526 H 0.77699 0.56054 0.70691 0.0
H527 H 0.74915 0.54397 0.71046 0.0
H528 H 0.78282 0.64789 0.69816 0.0
H529 H 0.80296 0.64092 0.69612 0.0
H530 H 0.79179 0.64025 0.72146 0.0
H531 H 0.82591 0.60979 0.83477 0.0
H532 H 0.87013 0.61934 0.7752 0.0
H533 H 0.86585 0.61787 0.73748 0.0
H534 H 0.80949 0.60422 0.68964 0.0
H535 H 0.76689 0.60005 0.749 0.0
H536 H 0.77122 0.60162 0.78692 0.0
H537 H 0.93943 0.61465 0.68279 0.0
H538 H 0.92847 0.62993 0.69275 0.0
H539 H 0.93759 0.63351 0.66581 0.0
C540 C 0.15093 0.74066 0.39736 0.0
C541 C 0.13404 0.72431 0.38262 0.0
C542 C 0.15298 0.73768 0.349 0.0
C543 C 0.1498 0.75482 0.34651 0.0
C544 C 0.1616 0.77073 0.33183 0.0
C545 C 0.17695 0.76953 0.31955 0.0
C546 C 0.17966 0.75191 0.32154 0.0
C547 C 0.16737 0.73606 0.33603 0.0
C548 C 0.15804 0.7891 0.32982 0.0
C549 C 0.19608 0.75019 0.30896 0.0
C550 C 0.3013 0.91592 0.35247 0.0
C551 C 0.29575 0.89643 0.36578 0.0
C552 C 0.27637 0.86675 0.34119 0.0
C553 C 0.27749 0.85096 0.33018 0.0
C554 C 0.26054 0.83616 0.3181 0.0
C555 C 0.24206 0.83741 0.31677 0.0
C556 C 0.24085 0.85351 0.32765 0.0
C557 C 0.258 0.86801 0.33983 0.0
C558 C 0.26231 0.81901 0.307 0.0
C559 C 0.22135 0.85527 0.32651 0.0
C560 C 0.26833 0.8701 0.17968 0.0
C561 C 0.27013 0.85311 0.18711 0.0
C562 C 0.25369 0.83667 0.19824 0.0
C563 C 0.23509 0.83726 0.20198 0.0
C564 C 0.2329 0.8539 0.19365 0.0
C565 C 0.24954 0.87004 0.18239 0.0
C566 C 0.25632 0.81882 0.2063 0.0
C567 C 0.2132 0.85487 0.19712 0.0
C568 C 0.08928 0.70358 0.19312 0.0
C569 C 0.10137 0.70882 0.17219 0.0
C570 C 0.13737 0.73288 0.18471 0.0
C571 C 0.15639 0.7341 0.18982 0.0
C572 C 0.17256 0.75186 0.19977 0.0
C573 C 0.1696 0.7689 0.20463 0.0
C574 C 0.15065 0.76811 0.19892 0.0
C575 C 0.1347 0.7501 0.189 0.0
C576 C 0.19265 0.75226 0.20546 0.0
C577 C 0.14716 0.78615 0.20369 0.0
C578 C 0.19149 0.78753 0.30617 0.0
C579 C 0.20847 0.80425 0.31634 0.0
C580 C 0.22368 0.82122 0.30487 0.0
C581 C 0.22193 0.82174 0.28255 0.0
C582 C 0.23692 0.83862 0.27053 0.0
C583 C 0.2356 0.83851 0.24848 0.0
C584 C 0.21922 0.82151 0.23763 0.0
C585 C 0.21827 0.8208 0.21519 0.0
C586 C 0.20172 0.80371 0.20493 0.0
C587 C 0.18604 0.78714 0.21649 0.0
C588 C 0.18676 0.78752 0.23893 0.0
C589 C 0.1713 0.77105 0.25104 0.0
C590 C 0.17258 0.77118 0.27309 0.0
C591 C 0.18946 0.78772 0.28386 0.0
C592 C 0.20488 0.8048 0.272 0.0
C593 C 0.20353 0.80469 0.24951 0.0
C594 C 0.31095 0.91765 0.18642 0.0
C595 C 0.30514 0.89651 0.17649 0.0
O596 O 0.14291 0.7226 0.36392 0.0
O597 O 0.12214 0.71476 0.17594 0.0
O598 O 0.28442 0.88667 0.16982 0.0
O599 O 0.2934 0.88027 0.35278 0.0
H600 H 0.12216 0.72894 0.37891 0.0
H601 H 0.15845 0.75641 0.38997 0.0
H602 H 0.16319 0.73649 0.40079 0.0
H603 H 0.14389 0.74159 0.41256 0.0
H604 H 0.13836 0.75603 0.3561 0.0
H605 H 0.16955 0.72267 0.33794 0.0
H606 H 0.17163 0.80322 0.33671 0.0
H607 H 0.14367 0.78636 0.33818 0.0
H608 H 0.15678 0.79242 0.31284 0.0
H609 H 0.19704 0.73609 0.31332 0.0
H610 H 0.21165 0.76428 0.3116 0.0
H611 H 0.19242 0.74942 0.29178 0.0
H612 H 0.281 0.89157 0.37459 0.0
H613 H 0.30313 0.92889 0.36283 0.0
H614 H 0.28874 0.91258 0.34074 0.0
H615 H 0.31613 0.92109 0.34373 0.0
H616 H 0.29173 0.85014 0.3313 0.0
H617 H 0.25686 0.88018 0.34817 0.0
H618 H 0.26125 0.82056 0.28958 0.0
H619 H 0.24914 0.80348 0.31169 0.0
H620 H 0.27728 0.81949 0.3107 0.0
H621 H 0.2235 0.86971 0.33429 0.0
H622 H 0.20829 0.84151 0.33442 0.0
H623 H 0.21673 0.8552 0.30969 0.0
H624 H 0.30748 0.88735 0.1892 0.0
H625 H 0.28434 0.85266 0.18417 0.0
H626 H 0.24819 0.88305 0.17624 0.0
H627 H 0.25683 0.81912 0.2239 0.0
H628 H 0.27088 0.81969 0.20039 0.0
H629 H 0.24272 0.80363 0.20137 0.0
H630 H 0.21409 0.86907 0.18996 0.0
H631 H 0.21026 0.85475 0.21439 0.0
H632 H 0.19964 0.84081 0.19009 0.0
H633 H 0.10046 0.72173 0.16402 0.0
H634 H 0.07254 0.69837 0.19001 0.0
H635 H 0.09569 0.71753 0.20357 0.0
H636 H 0.09035 0.69095 0.20168 0.0
H637 H 0.15838 0.72083 0.18631 0.0
H638 H 0.12021 0.7496 0.18487 0.0
H639 H 0.19497 0.75364 0.22293 0.0
H640 H 0.20612 0.76617 0.19821 0.0
H641 H 0.19272 0.73798 0.20006 0.0
H642 H 0.13183 0.78344 0.19765 0.0
H643 H 0.15981 0.80072 0.19646 0.0
H644 H 0.14787 0.78867 0.22111 0.0
H645 H 0.21017 0.80379 0.33342 0.0
H646 H 0.24996 0.85201 0.27803 0.0
H647 H 0.24769 0.85184 0.24005 0.0
H648 H 0.20125 0.80312 0.18772 0.0
H649 H 0.15808 0.75777 0.24361 0.0
H650 H 0.16032 0.75804 0.28161 0.0
H651 H 0.32764 0.92599 0.19147 0.0
H652 H 0.30113 0.91515 0.20063 0.0
H653 H 0.30829 0.92764 0.17504 0.0
C654 C 0.38176 0.09343 0.66122 0.0
C655 C 0.40077 0.1135 0.65298 0.0
C656 C 0.41228 0.14031 0.68095 0.0
C657 C 0.42964 0.154 0.69313 0.0
C658 C 0.42977 0.17019 0.70487 0.0
C659 C 0.41161 0.17211 0.70518 0.0
C660 C 0.39379 0.15804 0.69318 0.0
C661 C 0.39441 0.14249 0.68094 0.0
C662 C 0.44943 0.18532 0.71671 0.0
C663 C 0.37406 0.15944 0.69321 0.0
C664 C 0.41695 0.31712 0.64956 0.0
C665 C 0.40831 0.29676 0.66088 0.0
C666 C 0.42052 0.27511 0.67849 0.0
C667 C 0.40067 0.2596 0.68548 0.0
C668 C 0.39835 0.24255 0.69759 0.0
C669 C 0.41625 0.2412 0.70314 0.0
C670 C 0.43624 0.25683 0.69621 0.0
C671 C 0.43807 0.27353 0.68386 0.0
C672 C 0.37677 0.22598 0.70448 0.0
C673 C 0.45567 0.25595 0.70195 0.0
C674 C 0.41495 0.27811 0.83637 0.0
C675 C 0.39546 0.25984 0.8334 0.0
C676 C 0.39415 0.24194 0.82411 0.0
C677 C 0.41268 0.24222 0.81796 0.0
C678 C 0.43235 0.2602 0.82188 0.0
C679 C 0.43319 0.27794 0.83095 0.0
C680 C 0.37294 0.22292 0.82033 0.0
C681 C 0.45245 0.26087 0.81592 0.0
C682 C 0.40216 0.09192 0.83821 0.0
C683 C 0.41768 0.11315 0.84794 0.0
C684 C 0.40812 0.14012 0.84339 0.0
C685 C 0.38972 0.14084 0.84034 0.0
C686 C 0.38977 0.15716 0.82874 0.0
C687 C 0.40882 0.17331 0.82041 0.0
C688 C 0.42766 0.1732 0.82438 0.0
C689 C 0.42712 0.15661 0.83587 0.0
C690 C 0.36945 0.15694 0.82504 0.0
C691 C 0.44835 0.19051 0.81628 0.0
C692 C 0.41151 0.18928 0.71736 0.0
C693 C 0.41345 0.20646 0.70598 0.0
C694 C 0.4141 0.2235 0.71631 0.0
C695 C 0.41309 0.22366 0.7387 0.0
C696 C 0.41408 0.24072 0.74961 0.0
C697 C 0.41328 0.24085 0.77163 0.0
C698 C 0.41172 0.22403 0.78366 0.0
C699 C 0.41143 0.22427 0.80609 0.0
C700 C 0.41023 0.20746 0.81758 0.0
C701 C 0.40905 0.19017 0.80724 0.0
C702 C 0.40889 0.18945 0.78478 0.0
C703 C 0.40718 0.17207 0.77384 0.0
C704 C 0.40765 0.1718 0.75176 0.0
C705 C 0.4101 0.18899 0.73977 0.0
C706 C 0.41118 0.20638 0.75046 0.0
C707 C 0.41053 0.20659 0.77298 0.0
C708 C 0.39123 0.30335 0.82866 0.0
C709 C 0.40125 0.30059 0.84894 0.0
O710 O 0.41345 0.12522 0.66972 0.0
O711 O 0.40706 0.12345 0.85373 0.0
O712 O 0.41699 0.29628 0.84399 0.0
O713 O 0.42347 0.29176 0.66657 0.0
H714 H 0.39504 0.12273 0.64407 0.0
H715 H 0.37179 0.09722 0.6712 0.0
H716 H 0.38673 0.08411 0.671 0.0
H717 H 0.3721 0.0837 0.64769 0.0
H718 H 0.44336 0.15223 0.69303 0.0
H719 H 0.3808 0.13204 0.67164 0.0
H720 H 0.45298 0.20168 0.71422 0.0
H721 H 0.46316 0.18406 0.71168 0.0
H722 H 0.44713 0.18196 0.73396 0.0
H723 H 0.36063 0.14549 0.68585 0.0
H724 H 0.37677 0.17351 0.68417 0.0
H725 H 0.36985 0.16112 0.70968 0.0
H726 H 0.39428 0.28354 0.6532 0.0
H727 H 0.40968 0.31285 0.63329 0.0
H728 H 0.4331 0.32137 0.64404 0.0
H729 H 0.4115 0.33585 0.67046 0.0
H730 H 0.38693 0.26063 0.68152 0.0
H731 H 0.45331 0.28556 0.67842 0.0
H732 H 0.37385 0.21026 0.69972 0.0
H733 H 0.36429 0.22845 0.69756 0.0
H734 H 0.37573 0.22608 0.72204 0.0
H735 H 0.47017 0.26995 0.69634 0.0
H736 H 0.45477 0.2418 0.6948 0.0
H737 H 0.45668 0.25469 0.71943 0.0
H738 H 0.38903 0.28752 0.85847 0.0
H739 H 0.38117 0.25946 0.83791 0.0
H740 H 0.44817 0.29199 0.83351 0.0
H741 H 0.37064 0.21934 0.8031 0.0
H742 H 0.35998 0.22511 0.82612 0.0
H743 H 0.37211 0.20916 0.82848 0.0
H744 H 0.46647 0.2752 0.82189 0.0
H745 H 0.45346 0.26043 0.79838 0.0
H746 H 0.45262 0.24692 0.82235 0.0
H747 H 0.42935 0.12188 0.83534 0.0
H748 H 0.41027 0.08318 0.83396 0.0
H749 H 0.39521 0.09434 0.82353 0.0
H750 H 0.38926 0.08236 0.84938 0.0
H751 H 0.37519 0.12822 0.84655 0.0
H752 H 0.44156 0.15661 0.83907 0.0
H753 H 0.36672 0.15738 0.80774 0.0
H754 H 0.37041 0.17112 0.83219 0.0
H755 H 0.35586 0.14288 0.83196 0.0
H756 H 0.46177 0.18901 0.82214 0.0
H757 H 0.45065 0.20596 0.82124 0.0
H758 H 0.44831 0.19022 0.79867 0.0
H759 H 0.41459 0.20664 0.68882 0.0
H760 H 0.41553 0.25422 0.74124 0.0
H761 H 0.41408 0.25442 0.77911 0.0
H762 H 0.41037 0.20793 0.83479 0.0
H763 H 0.4055 0.15849 0.78222 0.0
H764 H 0.40624 0.15799 0.7442 0.0
H765 H 0.37923 0.30764 0.83276 0.0
H766 H 0.40324 0.31578 0.8184 0.0
H767 H 0.3834 0.28862 0.81938 0.0
H768 H 0.03247 0.47398 0.05616 0.0
H769 H 0.0496 0.4593 0.07743 0.0
H770 H 0.09924 0.4806 0.03155 0.0
H771 H 0.08225 0.49584 0.01011 0.0
H772 H 0.05857 0.42868 0.06599 0.0
H773 H 0.13095 0.50255 0.08791 0.0
H774 H 0.10827 0.50233 0.07668 0.0
H775 H 0.12526 0.4978 0.06004 0.0
C776 C 0.04707 0.47567 0.05053 0.0
C777 C 0.056 0.48613 0.0314 0.0
C778 C 0.05684 0.46722 0.06274 0.0
C779 C 0.07576 0.46897 0.05617 0.0
C780 C 0.0848 0.47937 0.03708 0.0
H781 H 0.11545 0.39169 0.12757 0.0
H782 H 0.1084 0.40848 0.0975 0.0
C783 C 0.07504 0.48798 0.02481 0.0
C784 C 0.08546 0.45943 0.06944 0.0
H785 H 0.12686 0.47129 0.10238 0.0
C786 C 0.07363 0.43792 0.07376 0.0
C787 C 0.10504 0.4716 0.07962 0.0
C788 C 0.11813 0.49488 0.07602 0.0
C789 C 0.0804 0.42837 0.08863 0.0
C790 C 0.09983 0.44058 0.0991 0.0
C791 C 0.11204 0.46196 0.09422 0.0
C792 C 0.10669 0.43188 0.11662 0.0
C793 C 0.06614 0.40553 0.09383 0.0
C794 C 0.1089 0.43999 0.13719 0.0
C795 C 0.11323 0.43064 0.15429 0.0
C796 C 0.1156 0.4131 0.15115 0.0
C797 C 0.11398 0.40536 0.13043 0.0
C798 C 0.10977 0.41482 0.11328 0.0
H799 H 0.04998 0.39965 0.08774 0.0
H800 H 0.07232 0.39612 0.08642 0.0
H801 H 0.0654 0.4029 0.11123 0.0
H802 H 0.1065 0.4531 0.14013 0.0
H803 H 0.1141 0.43674 0.1701 0.0
H804 H 0.54402 0.99011 0.58055 0.0
H805 H 0.57387 0.00389 0.60519 0.0
H806 H 0.60808 0.05766 0.56481 0.0
H807 H 0.57845 0.04427 0.54036 0.0
H808 H 0.61577 0.01453 0.59849 0.0
H809 H 0.61011 0.08371 0.62267 0.0
H810 H 0.58929 0.06178 0.60871 0.0
H811 H 0.61158 0.08139 0.59447 0.0
C812 C 0.55791 0.00485 0.57692 0.0
C813 C 0.55876 0.01617 0.55859 0.0
C814 C 0.57493 0.01269 0.591 0.0
C815 C 0.59301 0.03198 0.587 0.0
C816 C 0.5941 0.04298 0.56844 0.0
H817 H 0.7172 0.08368 0.64238 0.0
H818 H 0.68642 0.06822 0.61897 0.0
C819 C 0.57715 0.03522 0.55442 0.0
C820 C 0.61083 0.04073 0.60215 0.0
H821 H 0.64112 0.08352 0.63292 0.0
C822 C 0.62126 0.02955 0.60614 0.0
C823 C 0.61777 0.0602 0.61229 0.0
C824 C 0.6065 0.0724 0.60951 0.0
C825 C 0.63883 0.03759 0.61962 0.0
C826 C 0.6463 0.05748 0.62905 0.0
C827 C 0.63553 0.0684 0.62546 0.0
C828 C 0.66506 0.06714 0.64299 0.0
C829 C 0.64906 0.02461 0.62383 0.0
C830 C 0.66338 0.07222 0.66404 0.0
C831 C 0.68096 0.08129 0.67731 0.0
C832 C 0.70062 0.0857 0.66971 0.0
C833 C 0.7023 0.08071 0.64856 0.0
C834 C 0.6847 0.07167 0.63527 0.0
H835 H 0.63834 0.00781 0.62017 0.0
H836 H 0.66304 0.03025 0.6136 0.0
H837 H 0.65421 0.02602 0.64064 0.0
H838 H 0.64839 0.06889 0.6703 0.0
H839 H 0.67916 0.08468 0.69362 0.0
H840 H 0.54312 0.55217 0.06808 0.0
H841 H 0.55716 0.58405 0.08904 0.0
H842 H 0.53654 0.61198 0.04144 0.0
H843 H 0.52196 0.57973 0.02033 0.0
H844 H 0.58778 0.62361 0.07797 0.0
H845 H 0.51329 0.62189 0.09629 0.0
H846 H 0.51392 0.5995 0.08574 0.0
H847 H 0.51855 0.6209 0.06865 0.0
C848 C 0.54145 0.56502 0.06201 0.0
C849 C 0.53138 0.56337 0.0425 0.0
C850 C 0.54953 0.58326 0.07405 0.0
C851 C 0.54776 0.60033 0.06691 0.0
C852 C 0.53776 0.59886 0.04742 0.0
H853 H 0.62313 0.72 0.13386 0.0
H854 H 0.60688 0.69448 0.10508 0.0
C855 C 0.52954 0.58047 0.03534 0.0
C856 C 0.55691 0.61966 0.07994 0.0
H857 H 0.54429 0.64997 0.11031 0.0
C858 C 0.57833 0.62952 0.08488 0.0
C859 C 0.54448 0.62721 0.08905 0.0
C860 C 0.52125 0.61679 0.08486 0.0
C861 C 0.58757 0.64632 0.09919 0.0
C862 C 0.57513 0.65379 0.10843 0.0
C863 C 0.55381 0.6443 0.10306 0.0
C864 C 0.58359 0.67021 0.12508 0.0
C865 C 0.61033 0.65521 0.10505 0.0
C866 C 0.57538 0.66532 0.14566 0.0
C867 C 0.58443 0.67994 0.16202 0.0
C868 C 0.60176 0.69982 0.15808 0.0
C869 C 0.60961 0.70491 0.13731 0.0
C870 C 0.60047 0.69029 0.12091 0.0
H871 H 0.61635 0.64475 0.10015 0.0
H872 H 0.61979 0.67048 0.09695 0.0
H873 H 0.61273 0.65787 0.12242 0.0
H874 H 0.5624 0.6499 0.14924 0.0
H875 H 0.57825 0.6755 0.17792 0.0
H876 H 0.93304 0.49213 0.52587 0.0
H877 H 0.91648 0.50695 0.54828 0.0
H878 H 0.97747 0.55633 0.56789 0.0
H879 H 0.9939 0.54137 0.54625 0.0
H880 H 0.95299 0.53657 0.60116 0.0
H881 H 0.90984 0.55845 0.54354 0.0
H882 H 0.904 0.53174 0.54212 0.0
H883 H 0.92973 0.55251 0.53547 0.0
C884 C 0.94284 0.50634 0.5347 0.0
C885 C 0.96473 0.5155 0.53448 0.0
C886 C 0.93339 0.51484 0.54742 0.0
C887 C 0.94575 0.5328 0.55972 0.0
C888 C 0.96761 0.54242 0.55864 0.0
H889 H 0.92288 0.61809 0.63118 0.0
H890 H 0.92922 0.59864 0.60356 0.0
C891 C 0.97698 0.53383 0.54626 0.0
C892 C 0.93636 0.54082 0.5752 0.0
H893 H 0.90553 0.56299 0.57998 0.0
C894 C 0.94253 0.54226 0.59653 0.0
C895 C 0.92283 0.54834 0.5691 0.0
C896 C 0.9163 0.54789 0.54629 0.0
C897 C 0.93605 0.5515 0.61184 0.0
C898 C 0.92236 0.55888 0.60584 0.0
C899 C 0.91585 0.55712 0.58457 0.0
C900 C 0.91584 0.56965 0.62128 0.0
C901 C 0.94473 0.55408 0.6341 0.0
C902 C 0.90551 0.55959 0.64005 0.0
C903 C 0.90228 0.57077 0.65598 0.0
C904 C 0.90899 0.59213 0.65328 0.0
C905 C 0.91789 0.60174 0.63382 0.0
C906 C 0.92138 0.59062 0.61799 0.0
H907 H 0.95896 0.55255 0.63466 0.0
H908 H 0.94874 0.56956 0.64077 0.0
H909 H 0.93279 0.54174 0.64444 0.0
H910 H 0.9006 0.54326 0.64268 0.0
H911 H 0.89507 0.56286 0.67067 0.0
H912 H 0.45763 0.99244 0.0557 0.0
H913 H 0.42697 0.97447 0.07827 0.0
H914 H 0.41254 0.91533 0.05061 0.0
H915 H 0.4432 0.93339 0.02743 0.0
H916 H 0.37708 0.91918 0.05693 0.0
H917 H 0.42579 0.94049 0.12972 0.0
H918 H 0.43132 0.96296 0.11398 0.0
H919 H 0.43667 0.94344 0.10354 0.0
C920 C 0.44794 0.97561 0.05431 0.0
C921 C 0.45301 0.9643 0.03996 0.0
C922 C 0.43044 0.96535 0.0673 0.0
C923 C 0.41779 0.94352 0.0665 0.0
C924 C 0.42224 0.93219 0.05159 0.0
H925 H 0.33417 0.88378 0.17334 0.0
H926 H 0.35958 0.89142 0.14512 0.0
C927 C 0.43973 0.94251 0.03838 0.0
C928 C 0.4003 0.93274 0.0817 0.0
H929 H 0.38946 0.92871 0.13459 0.0
C930 C 0.37974 0.92102 0.07393 0.0
C931 C 0.40384 0.93479 0.10388 0.0
C932 C 0.42562 0.94591 0.11329 0.0
C933 C 0.36256 0.91207 0.08777 0.0
C934 C 0.36606 0.91535 0.10991 0.0
C935 C 0.3867 0.92634 0.11763 0.0
C936 C 0.34876 0.90826 0.12545 0.0
C937 C 0.34087 0.89918 0.07853 0.0
C938 C 0.33396 0.91489 0.12368 0.0
C939 C 0.31924 0.91029 0.13969 0.0
C940 C 0.31931 0.89935 0.15798 0.0
C941 C 0.33375 0.89226 0.15945 0.0
C942 C 0.34829 0.89663 0.14334 0.0
H943 H 0.34127 0.8923 0.063 0.0
H944 H 0.33047 0.88632 0.0894 0.0
H945 H 0.33402 0.90939 0.07581 0.0
H946 H 0.3343 0.92433 0.11034 0.0
H947 H 0.30829 0.91594 0.13815 0.0
H948 H 0.46581 0.47339 0.58146 0.0
H949 H 0.44881 0.4435 0.60579 0.0
H950 H 0.47791 0.41337 0.57332 0.0
H951 H 0.49453 0.44276 0.54887 0.0
H952 H 0.43633 0.38698 0.57977 0.0
H953 H 0.47543 0.42808 0.65445 0.0
H954 H 0.46219 0.43927 0.64024 0.0
H955 H 0.48451 0.43957 0.62861 0.0
C956 C 0.46864 0.46043 0.57959 0.0
C957 C 0.48154 0.46048 0.56322 0.0
C958 C 0.45901 0.44342 0.59356 0.0
C959 C 0.46229 0.42632 0.59151 0.0
C960 C 0.47517 0.4264 0.57522 0.0
H961 H 0.44182 0.32683 0.6934 0.0
H962 H 0.45777 0.36286 0.66562 0.0
C963 C 0.48469 0.44327 0.56124 0.0
C964 C 0.45197 0.40794 0.60583 0.0
H965 H 0.44905 0.39257 0.65743 0.0
C966 C 0.43902 0.38818 0.59678 0.0
C967 C 0.45581 0.40953 0.62795 0.0
C968 C 0.47038 0.43021 0.63843 0.0
C969 C 0.42991 0.36993 0.60917 0.0
C970 C 0.43338 0.37156 0.63136 0.0
C971 C 0.44629 0.39133 0.64044 0.0
C972 C 0.42439 0.35307 0.64546 0.0
C973 C 0.41756 0.34913 0.59809 0.0
C974 C 0.39662 0.33447 0.64437 0.0
C975 C 0.38517 0.31203 0.66167 0.0
C976 C 0.40443 0.30767 0.67676 0.0
C977 C 0.4315 0.3291 0.68286 0.0
C978 C 0.44143 0.35094 0.66484 0.0
H979 H 0.42161 0.35028 0.581 0.0
H980 H 0.42046 0.33715 0.60545 0.0
H981 H 0.40063 0.34379 0.59908 0.0
H982 H 0.38665 0.33693 0.63353 0.0
H983 H 0.36895 0.29995 0.65996 0.0
H984 H 0.56104 0.02227 0.44686 0.0
H985 H 0.57668 0.00812 0.4225 0.0
H986 H 0.5444 0.94854 0.45451 0.0
H987 H 0.5291 0.96254 0.47902 0.0
H988 H 0.58563 0.96166 0.44861 0.0
H989 H 0.54905 0.96718 0.37341 0.0
H990 H 0.56313 0.99134 0.3878 0.0
H991 H 0.54004 0.96989 0.39912 0.0
C992 C 0.55719 0.00612 0.44861 0.0
C993 C 0.54384 0.99355 0.4649 0.0
C994 C 0.56605 0.99803 0.43461 0.0
C995 C 0.56152 0.9772 0.43655 0.0
C996 C 0.5481 0.96465 0.45271 0.0
H997 H 0.57982 0.89717 0.33454 0.0
H998 H 0.56433 0.91756 0.36225 0.0
C999 C 0.53936 0.97271 0.46672 0.0
C1000 C 0.57121 0.96848 0.42234 0.0
H1001 H 0.5744 0.9566 0.37071 0.0
C1002 C 0.58324 0.96061 0.43156 0.0
C1003 C 0.56776 0.9668 0.40016 0.0
C1004 C 0.55414 0.97406 0.38949 0.0
C1005 C 0.5919 0.95105 0.41923 0.0
C1006 C 0.58889 0.94983 0.39698 0.0
C1007 C 0.57681 0.95765 0.38776 0.0
C1008 C 0.5976 0.9401 0.38296 0.0
C1009 C 0.60328 0.94152 0.43041 0.0
C1010 C 0.62519 0.94854 0.38444 0.0
C1011 C 0.63639 0.93736 0.36721 0.0
C1012 C 0.61694 0.91424 0.35175 0.0
C1013 C 0.59021 0.90944 0.34529 0.0
C1014 C 0.58053 0.92152 0.36326 0.0
H1015 H 0.59895 0.93849 0.44744 0.0
H1016 H 0.59975 0.92653 0.42292 0.0
H1017 H 0.62038 0.95251 0.42966 0.0
H1018 H 0.63522 0.96065 0.3955 0.0
H1019 H 0.65245 0.94101 0.36915 0.0
H1020 H 0.58294 0.50497 0.0087 0.0
H1021 H 0.61601 0.51962 0.9891 0.0
H1022 H 0.59967 0.55983 0.95425 0.0
H1023 H 0.56677 0.54538 0.97352 0.0
H1024 H 0.6202 0.52126 0.94124 0.0
H1025 H 0.65961 0.59898 0.98083 0.0
H1026 H 0.63806 0.57608 0.99273 0.0
H1027 H 0.63323 0.58981 0.9719 0.0
C1028 C 0.58644 0.51698 0.99691 0.0
C1029 C 0.57224 0.52403 0.99271 0.0
C1030 C 0.60528 0.52528 0.98573 0.0
C1031 C 0.61028 0.54091 0.97042 0.0
C1032 C 0.59616 0.54793 0.96619 0.0
H1033 H 0.71087 0.61834 0.88577 0.0
H1034 H 0.67891 0.60087 0.90698 0.0
C1035 C 0.57732 0.53958 0.97718 0.0
C1036 C 0.6301 0.54984 0.95848 0.0
H1037 H 0.6758 0.59542 0.95001 0.0
C1038 C 0.6325 0.53739 0.94326 0.0
C1039 C 0.64595 0.57092 0.96112 0.0
C1040 C 0.64427 0.58476 0.97763 0.0
C1041 C 0.65014 0.54572 0.93006 0.0
C1042 C 0.66595 0.56691 0.93255 0.0
C1043 C 0.66365 0.57921 0.94807 0.0
C1044 C 0.68486 0.57681 0.91902 0.0
C1045 C 0.65131 0.53198 0.91308 0.0
C1046 C 0.69885 0.56914 0.91883 0.0
C1047 C 0.717 0.57899 0.90658 0.0
C1048 C 0.72155 0.59676 0.89437 0.0
C1049 C 0.7076 0.6045 0.89475 0.0
C1050 C 0.68941 0.59459 0.90692 0.0
H1051 H 0.6357 0.51821 0.9096 0.0
H1052 H 0.6578 0.54088 0.89815 0.0
H1053 H 0.66176 0.52611 0.91857 0.0
H1054 H 0.69595 0.55578 0.92847 0.0
H1055 H 0.72768 0.57294 0.9069 0.0
H1056 H 0.03134 0.53686 0.45851 0.0
H1057 H 0.05003 0.5694 0.4385 0.0
H1058 H 0.08094 0.60235 0.49595 0.0
H1059 H 0.06296 0.56947 0.5159 0.0
H1060 H 0.04737 0.60284 0.4414 0.0
H1061 H 0.12981 0.6251 0.45725 0.0
H1062 H 0.10826 0.5997 0.46411 0.0
H1063 H 0.11553 0.62184 0.48121 0.0
C1064 C 0.04235 0.551 0.46683 0.0
C1065 C 0.04576 0.55065 0.48875 0.0
C1066 C 0.053 0.5696 0.45538 0.0
C1067 C 0.0671 0.58835 0.46562 0.0
C1068 C 0.07061 0.58803 0.48755 0.0
H1069 H 0.10166 0.71006 0.41062 0.0
H1070 H 0.08547 0.67745 0.43101 0.0
C1071 C 0.06024 0.56926 0.49897 0.0
C1072 C 0.07709 0.60827 0.45341 0.0
H1073 H 0.12407 0.6512 0.44141 0.0
C1074 C 0.06417 0.61334 0.44132 0.0
C1075 C 0.09903 0.62189 0.45305 0.0
C1076 C 0.11397 0.61677 0.46442 0.0
C1077 C 0.07249 0.63156 0.42893 0.0
C1078 C 0.09434 0.64562 0.42929 0.0
C1079 C 0.1073 0.64054 0.4413 0.0
C1080 C 0.10414 0.66549 0.41703 0.0
C1081 C 0.05778 0.63518 0.41515 0.0
C1082 C 0.12058 0.67004 0.40299 0.0
C1083 C 0.13014 0.68885 0.39169 0.0
C1084 C 0.12317 0.70335 0.39388 0.0
C1085 C 0.10691 0.69889 0.40817 0.0
C1086 C 0.0976 0.68023 0.41974 0.0
H1087 H 0.0432 0.62027 0.41153 0.0
H1088 H 0.05328 0.64545 0.42368 0.0
H1089 H 0.06524 0.64282 0.39994 0.0
H1090 H 0.12607 0.65903 0.40081 0.0
H1091 H 0.14304 0.69204 0.38131 0.0
H1092 H 0.47062 0.01626 0.97198 0.0
H1093 H 0.45888 0.0349 0.94885 0.0
H1094 H 0.50336 0.09338 0.97805 0.0
H1095 H 0.51505 0.07466 0.00177 0.0
H1096 H 0.46405 0.08985 0.97009 0.0
H1097 H 0.49372 0.06977 0.89875 0.0
H1098 H 0.47633 0.04707 0.91388 0.0
H1099 H 0.50087 0.06644 0.92531 0.0
C1100 C 0.47791 0.03309 0.9736 0.0
C1101 C 0.49398 0.04403 0.98854 0.0
C1102 C 0.4712 0.04372 0.9603 0.0
C1103 C 0.4806 0.06556 0.96138 0.0
C1104 C 0.49604 0.07652 0.97685 0.0
H1105 H 0.45942 0.12624 0.85278 0.0
H1106 H 0.47667 0.11875 0.88198 0.0
C1107 C 0.50269 0.06582 0.99037 0.0
C1108 C 0.47449 0.07672 0.94586 0.0
H1109 H 0.46932 0.08162 0.89268 0.0
C1110 C 0.46542 0.08832 0.95315 0.0
C1111 C 0.47669 0.07507 0.92378 0.0
C1112 C 0.48764 0.0641 0.91495 0.0
C1113 C 0.45759 0.09748 0.93888 0.0
C1114 C 0.45848 0.09455 0.91679 0.0
C1115 C 0.46841 0.08373 0.90958 0.0
C1116 C 0.44859 0.10172 0.90073 0.0
C1117 C 0.44849 0.11019 0.94764 0.0
C1118 C 0.42712 0.095 0.90168 0.0
C1119 C 0.4173 0.09952 0.88511 0.0
C1120 C 0.42866 0.11045 0.86705 0.0
C1121 C 0.45025 0.11772 0.86644 0.0
C1122 C 0.46011 0.11343 0.88311 0.0
H1123 H 0.45541 0.11695 0.96337 0.0
H1124 H 0.45108 0.12311 0.93674 0.0
H1125 H 0.43139 0.09987 0.94983 0.0
H1126 H 0.41775 0.0855 0.9148 0.0
H1127 H 0.40065 0.0938 0.88604 0.0
H1128 H 0.47513 0.44786 0.45633 0.0
H1129 H 0.44298 0.4309 0.43475 0.0
H1130 H 0.42612 0.47553 0.45752 0.0
H1131 H 0.45765 0.4921 0.4793 0.0
H1132 H 0.39453 0.4352 0.46179 0.0
H1133 H 0.42665 0.44901 0.37998 0.0
H1134 H 0.436 0.43644 0.39786 0.0
H1135 H 0.44247 0.46299 0.4027 0.0
C1136 C 0.46466 0.45416 0.4565 0.0
C1137 C 0.46886 0.47122 0.46962 0.0
C1138 C 0.44636 0.44453 0.4441 0.0
C1139 C 0.43222 0.45205 0.44442 0.0
C1140 C 0.43676 0.46943 0.45706 0.0
H1141 H 0.3133 0.42764 0.39565 0.0
H1142 H 0.34805 0.44161 0.41171 0.0
C1143 C 0.45482 0.47887 0.46953 0.0
C1144 C 0.41196 0.44128 0.43281 0.0
H1145 H 0.38983 0.42939 0.38332 0.0
C1146 C 0.39353 0.43388 0.44463 0.0
C1147 C 0.41066 0.43943 0.41044 0.0
C1148 C 0.42997 0.44751 0.39692 0.0
C1149 C 0.37388 0.42507 0.43472 0.0
C1150 C 0.37261 0.42383 0.41234 0.0
C1151 C 0.39092 0.43053 0.40048 0.0
C1152 C 0.35239 0.41618 0.4011 0.0
C1153 C 0.35462 0.41721 0.44831 0.0
C1154 C 0.34363 0.39759 0.38929 0.0
C1155 C 0.32383 0.38965 0.37996 0.0
C1156 C 0.31261 0.40035 0.38203 0.0
C1157 C 0.32168 0.41921 0.39352 0.0
C1158 C 0.34144 0.42711 0.40282 0.0
H1159 H 0.35765 0.41428 0.46491 0.0
H1160 H 0.3497 0.42917 0.44868 0.0
H1161 H 0.34147 0.40253 0.44174 0.0
H1162 H 0.35184 0.38891 0.38783 0.0
H1163 H 0.31709 0.37494 0.37147 0.0
H1164 H 0.95093 0.43081 1.00006 0.0
H1165 H 0.93432 0.39737 0.98088 0.0
H1166 H 0.98423 0.42317 0.93514 0.0
H1167 H 0.00101 0.45631 0.9542 0.0
H1168 H 0.92024 0.38763 0.93892 0.0
H1169 H 0.98385 0.37026 0.95501 0.0
H1170 H 0.98157 0.39026 0.96914 0.0
H1171 H 0.99318 0.39554 0.9432 0.0
C1172 C 0.95833 0.42934 0.98591 0.0
C1173 C 0.9774 0.44617 0.97879 0.0
C1174 C 0.94883 0.41024 0.97498 0.0
C1175 C 0.95828 0.40768 0.95685 0.0
C1176 C 0.97694 0.42464 0.94939 0.0
H1177 H 0.90061 0.31309 0.8457 0.0
H1178 H 0.91463 0.34803 0.87464 0.0
C1179 C 0.98645 0.44364 0.96028 0.0
C1180 C 0.94876 0.38737 0.94551 0.0
H1181 H 0.9597 0.35039 0.92742 0.0
C1182 C 0.92875 0.37935 0.93655 0.0
C1183 C 0.9597 0.37634 0.94284 0.0
C1184 C 0.98067 0.38341 0.95324 0.0
C1185 C 0.91974 0.36103 0.92421 0.0
C1186 C 0.93129 0.35079 0.92039 0.0
C1187 C 0.9509 0.35832 0.93013 0.0
C1188 C 0.92379 0.33261 0.90604 0.0
C1189 C 0.89781 0.35275 0.9158 0.0
C1190 C 0.92692 0.31083 0.91435 0.0
C1191 C 0.91967 0.28893 0.89696 0.0
C1192 C 0.90514 0.28877 0.87264 0.0
C1193 C 0.90721 0.313 0.86105 0.0
C1194 C 0.91487 0.33413 0.87962 0.0
H1195 H 0.88872 0.35738 0.9262 0.0
H1196 H 0.89854 0.35953 0.89988 0.0
H1197 H 0.88929 0.33544 0.9145 0.0
H1198 H 0.93324 0.31094 0.92991 0.0
H1199 H 0.91977 0.27507 0.90245 0.0
H1200 H 0.97869 0.52736 0.9736 0.0
H1201 H 0.96719 0.54585 0.95002 0.0
H1202 H 0.02452 0.57014 0.91466 0.0
H1203 H 0.03643 0.55176 0.93854 0.0
H1204 H 0.01319 0.60041 0.92437 0.0
H1205 H 0.94651 0.52971 0.88898 0.0
H1206 H 0.94608 0.52944 0.91744 0.0
H1207 H 0.9671 0.52883 0.90376 0.0
C1208 C 0.98889 0.53653 0.96077 0.0
C1209 C 0.00846 0.53795 0.95788 0.0
C1210 C 0.98221 0.54702 0.94724 0.0
C1211 C 0.99482 0.55905 0.93037 0.0
C1212 C 0.01449 0.56078 0.92751 0.0
H1213 H 0.94295 0.60434 0.83263 0.0
H1214 H 0.96065 0.5883 0.85119 0.0
C1215 C 0.02124 0.55025 0.94113 0.0
C1216 C 0.98742 0.57006 0.91614 0.0
H1217 H 0.94641 0.56185 0.88433 0.0
C1218 C 0.99872 0.59201 0.91539 0.0
C1219 C 0.96869 0.55905 0.90424 0.0
C1220 C 0.95649 0.53545 0.90344 0.0
C1221 C 0.99134 0.60327 0.90369 0.0
C1222 C 0.97198 0.59226 0.89278 0.0
C1223 C 0.96112 0.5703 0.89289 0.0
C1224 C 0.96248 0.6031 0.88133 0.0
C1225 C 0.00436 0.62683 0.90309 0.0
C1226 C 0.95756 0.6167 0.89212 0.0
C1227 C 0.94754 0.62597 0.88151 0.0
C1228 C 0.94199 0.62156 0.85999 0.0
C1229 C 0.94702 0.608 0.84922 0.0
C1230 C 0.95712 0.59884 0.85979 0.0
H1231 H 0.0211 0.63231 0.9066 0.0
H1232 H 0.00323 0.63305 0.88737 0.0
H1233 H 0.99861 0.63349 0.91532 0.0
H1234 H 0.96109 0.61984 0.90886 0.0
H1235 H 0.94386 0.63635 0.8902 0.0
H1236 H 0.44837 0.93608 0.49899 0.0
H1237 H 0.41632 0.91907 0.47722 0.0
H1238 H 0.42518 0.97963 0.46011 0.0
H1239 H 0.45739 0.99658 0.48099 0.0
H1240 H 0.37941 0.9191 0.47657 0.0
H1241 H 0.42297 0.95497 0.40274 0.0
H1242 H 0.43598 0.956 0.42741 0.0
H1243 H 0.42715 0.97438 0.42218 0.0
C1244 C 0.44334 0.94569 0.49066 0.0
C1245 C 0.45551 0.96762 0.49135 0.0
C1246 C 0.42508 0.93598 0.47825 0.0
C1247 C 0.41871 0.94811 0.46656 0.0
C1248 C 0.43018 0.96997 0.4684 0.0
H1249 H 0.29991 0.91244 0.40582 0.0
H1250 H 0.32899 0.9231 0.43091 0.0
C1251 C 0.44853 0.97964 0.48042 0.0
C1252 C 0.40048 0.93816 0.45193 0.0
H1253 H 0.38587 0.93987 0.40084 0.0
C1254 C 0.38081 0.92346 0.45996 0.0
C1255 C 0.4024 0.94352 0.43014 0.0
C1256 C 0.42331 0.9579 0.42006 0.0
C1257 C 0.36288 0.91453 0.44692 0.0
C1258 C 0.36464 0.92092 0.42545 0.0
C1259 C 0.38443 0.93513 0.41734 0.0
C1260 C 0.34629 0.91325 0.41098 0.0
C1261 C 0.34234 0.89818 0.45623 0.0
C1262 C 0.34659 0.90475 0.39118 0.0
C1263 C 0.33024 0.8991 0.37669 0.0
C1264 C 0.313 0.90144 0.38184 0.0
C1265 C 0.31274 0.90998 0.40167 0.0
C1266 C 0.32926 0.91591 0.41606 0.0
H1267 H 0.3448 0.8903 0.4701 0.0
H1268 H 0.33355 0.90582 0.46178 0.0
H1269 H 0.33261 0.88611 0.44429 0.0
H1270 H 0.35968 0.9028 0.38677 0.0
H1271 H 0.33123 0.89308 0.36135 0.0
H1272 H 0.4852 0.44259 0.98956 0.0
H1273 H 0.46946 0.4135 0.96466 0.0
H1274 H 0.45991 0.45208 0.91956 0.0
H1275 H 0.47533 0.48139 0.94477 0.0
H1276 H 0.42583 0.41231 0.92238 0.0
H1277 H 0.49818 0.40826 0.91247 0.0
H1278 H 0.49079 0.40647 0.93978 0.0
H1279 H 0.49809 0.43012 0.92512 0.0
C1280 C 0.47979 0.44498 0.97434 0.0
C1281 C 0.48173 0.4644 0.96905 0.0
C1282 C 0.47089 0.42832 0.96008 0.0
C1283 C 0.46401 0.43077 0.94005 0.0
C1284 C 0.46533 0.44994 0.93487 0.0
H1285 H 0.43625 0.33845 0.84046 0.0
H1286 H 0.45085 0.37089 0.86105 0.0
C1287 C 0.47412 0.46665 0.94927 0.0
C1288 C 0.45538 0.41317 0.92472 0.0
H1289 H 0.4664 0.37854 0.90048 0.0
C1290 C 0.43475 0.40504 0.9174 0.0
C1291 C 0.46715 0.40392 0.91795 0.0
C1292 C 0.48985 0.41278 0.92405 0.0
C1293 C 0.42532 0.38741 0.9041 0.0
C1294 C 0.43671 0.37741 0.89838 0.0
C1295 C 0.45757 0.38602 0.9051 0.0
C1296 C 0.42732 0.35793 0.88559 0.0
C1297 C 0.40333 0.37977 0.89619 0.0
C1298 C 0.40937 0.3398 0.89264 0.0
C1299 C 0.40095 0.32131 0.88084 0.0
C1300 C 0.41054 0.32049 0.86196 0.0
C1301 C 0.4286 0.33863 0.855 0.0
C1302 C 0.43692 0.35714 0.86673 0.0
H1303 H 0.39938 0.39246 0.89643 0.0
H1304 H 0.40116 0.37356 0.87978 0.0
H1305 H 0.39213 0.36703 0.90669 0.0
H1306 H 0.402 0.33988 0.90741 0.0
H1307 H 0.387 0.30759 0.88654 0.0
H1308 H 0.98712 0.44663 0.4473 0.0
H1309 H 0.00104 0.42886 0.42535 0.0
H1310 H 0.05614 0.45401 0.46503 0.0
H1311 H 0.04254 0.47148 0.48689 0.0
H1312 H 0.04061 0.44688 0.40294 0.0
H1313 H 0.03445 0.39059 0.46469 0.0
H1314 H 0.0202 0.40458 0.46607 0.0
H1315 H 0.04722 0.41704 0.47422 0.0
C1316 C 0.00216 0.44829 0.45134 0.0
C1317 C 0.01361 0.46035 0.46896 0.0
C1318 C 0.01008 0.43816 0.43879 0.0
C1319 C 0.02943 0.43984 0.44383 0.0
C1320 C 0.04097 0.45215 0.46114 0.0
H1321 H 0.1262 0.41899 0.40635 0.0
H1322 H 0.10191 0.42946 0.42024 0.0
C1323 C 0.03316 0.46222 0.47359 0.0
C1324 C 0.03816 0.42919 0.43108 0.0
H1325 H 0.05904 0.39729 0.43663 0.0
C1326 C 0.04422 0.43565 0.41007 0.0
C1327 C 0.04276 0.41449 0.44044 0.0
C1328 C 0.03563 0.4061 0.46253 0.0
C1329 C 0.05605 0.42883 0.39869 0.0
C1330 C 0.06181 0.41524 0.40862 0.0
C1331 C 0.05473 0.40788 0.42916 0.0
C1332 C 0.07666 0.40985 0.3988 0.0
C1333 C 0.06335 0.43705 0.37661 0.0
C1334 C 0.07046 0.3954 0.3821 0.0
C1335 C 0.08433 0.38937 0.37413 0.0
C1336 C 0.10467 0.39789 0.38263 0.0
C1337 C 0.1108 0.41249 0.39923 0.0
C1338 C 0.09693 0.41842 0.40722 0.0
H1339 H 0.05861 0.44854 0.37161 0.0
H1340 H 0.08066 0.44462 0.37578 0.0
H1341 H 0.05668 0.42383 0.36519 0.0
H1342 H 0.05475 0.38841 0.37564 0.0
H1343 H 0.07904 0.37774 0.36166 0.0
H1344 H 0.5716 0.04311 0.9851 0.0
H1345 H 0.60246 0.05533 0.96308 0.0
H1346 H 0.57225 0.99764 0.92766 0.0
H1347 H 0.54086 0.9851 0.94978 0.0
H1348 H 0.62618 0.03417 0.95871 0.0
H1349 H 0.59541 0.04539 0.88173 0.0
H1350 H 0.58283 0.04401 0.90666 0.0
H1351 H 0.58058 0.02074 0.89527 0.0
C1352 C 0.57133 0.03295 0.97258 0.0
C1353 C 0.5537 0.01306 0.96924 0.0
C1354 C 0.58905 0.04002 0.96 0.0
C1355 C 0.5896 0.02746 0.9437 0.0
C1356 C 0.57202 0.00766 0.94004 0.0
H1357 H 0.70065 0.06745 0.86294 0.0
H1358 H 0.66532 0.04605 0.8776 0.0
C1359 C 0.55415 0.0005 0.95272 0.0
C1360 C 0.6091 0.03518 0.93133 0.0
H1361 H 0.63134 0.05642 0.88355 0.0
C1362 C 0.62726 0.03877 0.94219 0.0
C1363 C 0.61042 0.04107 0.90977 0.0
C1364 C 0.59135 0.03776 0.89757 0.0
C1365 C 0.64685 0.04881 0.93231 0.0
C1366 C 0.64835 0.0557 0.9111 0.0
C1367 C 0.63009 0.05119 0.89986 0.0
C1368 C 0.66897 0.06897 0.90107 0.0
C1369 C 0.66588 0.05238 0.94478 0.0
C1370 C 0.68245 0.08904 0.90914 0.0
C1371 C 0.70246 0.10127 0.90077 0.0
C1372 C 0.70933 0.09375 0.884 0.0
C1373 C 0.69563 0.07376 0.87563 0.0
C1374 C 0.67552 0.06153 0.88401 0.0
H1375 H 0.66157 0.04153 0.95851 0.0
H1376 H 0.67695 0.05034 0.93458 0.0
H1377 H 0.67409 0.06863 0.95099 0.0
H1378 H 0.6776 0.09512 0.9222 0.0
H1379 H 0.71275 0.11647 0.9077 0.0
H1380 H 0.55031 0.55264 0.46995 0.0
H1381 H 0.56594 0.58569 0.45068 0.0
H1382 H 0.5323 0.60676 0.48967 0.0
H1383 H 0.5164 0.57349 0.5092 0.0
H1384 H 0.53066 0.61297 0.4444 0.0
H1385 H 0.61166 0.64322 0.4741 0.0
H1386 H 0.59962 0.617 0.46391 0.0
H1387 H 0.58908 0.62236 0.48713 0.0
C1388 C 0.54619 0.56425 0.47452 0.0
C1389 C 0.53214 0.56044 0.4912 0.0
C1390 C 0.55525 0.58319 0.46353 0.0
C1391 C 0.5505 0.59874 0.46897 0.0
C1392 C 0.53625 0.59496 0.48537 0.0
H1393 H 0.62322 0.72438 0.41489 0.0
H1394 H 0.60478 0.6953 0.43982 0.0
C1395 C 0.52722 0.57598 0.4965 0.0
C1396 C 0.56023 0.61872 0.45709 0.0
H1397 H 0.60765 0.66014 0.44354 0.0
C1398 C 0.54746 0.62345 0.44438 0.0
C1399 C 0.58211 0.63246 0.45732 0.0
C1400 C 0.59644 0.62866 0.4715 0.0
C1401 C 0.55613 0.64116 0.43117 0.0
C1402 C 0.57814 0.65426 0.43049 0.0
C1403 C 0.5908 0.64999 0.44391 0.0
C1404 C 0.58844 0.67203 0.41545 0.0
C1405 C 0.54163 0.64561 0.41804 0.0
C1406 C 0.58555 0.66856 0.3935 0.0
C1407 C 0.59596 0.68513 0.37927 0.0
C1408 C 0.60958 0.7055 0.38672 0.0
C1409 C 0.61263 0.70891 0.40871 0.0
C1410 C 0.60214 0.69232 0.42295 0.0
H1411 H 0.52574 0.63828 0.42504 0.0
H1412 H 0.54779 0.6627 0.41647 0.0
H1413 H 0.54012 0.63898 0.40192 0.0
H1414 H 0.57554 0.65294 0.38733 0.0
H1415 H 0.59356 0.68201 0.3624 0.0
H1416 H 0.50426 0.06974 0.51268 0.0
H1417 H 0.48881 0.08748 0.53219 0.0
H1418 H 0.47784 0.04689 0.58579 0.0
H1419 H 0.49295 0.02902 0.56652 0.0
H1420 H 0.44454 0.06301 0.55206 0.0
H1421 H 0.50952 0.11024 0.60842 0.0
H1422 H 0.51372 0.10177 0.58296 0.0
H1423 H 0.50311 0.08352 0.60452 0.0
C1424 C 0.49876 0.06477 0.52871 0.0
C1425 C 0.49979 0.04796 0.53805 0.0
C1426 C 0.48991 0.07487 0.53977 0.0
C1427 C 0.48236 0.06854 0.56043 0.0
C1428 C 0.48377 0.05209 0.56992 0.0
H1429 H 0.4222 0.09288 0.66237 0.0
H1430 H 0.44205 0.08342 0.63841 0.0
C1431 C 0.49234 0.04186 0.55883 0.0
C1432 C 0.47194 0.07819 0.57192 0.0
H1433 H 0.47655 0.10696 0.61595 0.0
C1434 C 0.45157 0.0729 0.56585 0.0
C1435 C 0.48119 0.09086 0.58996 0.0
C1436 C 0.50316 0.09712 0.59687 0.0
C1437 C 0.43977 0.07918 0.57798 0.0
C1438 C 0.44888 0.0916 0.59632 0.0
C1439 C 0.46956 0.09745 0.60192 0.0
C1440 C 0.43689 0.09765 0.61065 0.0
C1441 C 0.41733 0.07153 0.57163 0.0
C1442 C 0.42757 0.10902 0.6031 0.0
C1443 C 0.41586 0.11409 0.61671 0.0
C1444 C 0.41355 0.10818 0.6382 0.0
C1445 C 0.42344 0.09736 0.64583 0.0
C1446 C 0.43489 0.09207 0.63218 0.0
H1447 H 0.41121 0.05789 0.56073 0.0
H1448 H 0.40705 0.06698 0.58575 0.0
H1449 H 0.41635 0.08426 0.56323 0.0
H1450 H 0.42938 0.11402 0.5867 0.0
H1451 H 0.40864 0.12267 0.61044 0.0
H1452 H 0.45439 0.48782 0.0486 0.0
H1453 H 0.42474 0.47096 0.0726 0.0
H1454 H 0.45286 0.43872 0.10348 0.0
H1455 H 0.48299 0.45595 0.07968 0.0
H1456 H 0.39693 0.42951 0.07819 0.0
H1457 H 0.4397 0.46519 0.15328 0.0
H1458 H 0.45117 0.47462 0.12754 0.0
H1459 H 0.44968 0.45136 0.13842 0.0
C1460 C 0.45438 0.47721 0.06052 0.0
C1461 C 0.47114 0.47331 0.06228 0.0
C1462 C 0.43736 0.46755 0.07422 0.0
C1463 C 0.43669 0.45378 0.08998 0.0
C1464 C 0.45326 0.44962 0.09169 0.0
H1465 H 0.32042 0.37266 0.15844 0.0
H1466 H 0.35137 0.38549 0.13586 0.0
C1467 C 0.47041 0.4594 0.07802 0.0
C1468 C 0.4184 0.44369 0.10431 0.0
H1469 H 0.40376 0.44021 0.15611 0.0
C1470 C 0.39841 0.43177 0.09524 0.0
C1471 C 0.42038 0.44687 0.12652 0.0
C1472 C 0.44135 0.46035 0.13706 0.0
C1473 C 0.3803 0.42316 0.10773 0.0
C1474 C 0.38228 0.42613 0.12997 0.0
C1475 C 0.40229 0.43784 0.13907 0.0
C1476 C 0.36377 0.4181 0.14398 0.0
C1477 C 0.35922 0.41163 0.09686 0.0
C1478 C 0.36085 0.43206 0.15659 0.0
C1479 C 0.34334 0.42474 0.16965 0.0
C1480 C 0.32825 0.40332 0.17012 0.0
C1481 C 0.33149 0.3893 0.1579 0.0
C1482 C 0.34912 0.39662 0.14498 0.0
H1483 H 0.3603 0.41541 0.07967 0.0
H1484 H 0.35294 0.39453 0.0984 0.0
H1485 H 0.34792 0.41546 0.10423 0.0
H1486 H 0.37207 0.44867 0.15624 0.0
H1487 H 0.34159 0.43586 0.17934 0.0
H1488 H 0.95632 0.44169 0.55278 0.0
H1489 H 0.94112 0.40995 0.57424 0.0
H1490 H 0.00298 0.42348 0.59307 0.0
H1491 H 0.0183 0.45584 0.57213 0.0
H1492 H 0.94608 0.37733 0.56758 0.0
H1493 H 0.97354 0.40665 0.64915 0.0
H1494 H 0.97549 0.42375 0.62765 0.0
H1495 H 0.99431 0.41514 0.63026 0.0
C1496 C 0.9667 0.43809 0.56177 0.0
C1497 C 0.98851 0.45122 0.56076 0.0
C1498 C 0.95798 0.41993 0.57403 0.0
C1499 C 0.97085 0.41435 0.58543 0.0
C1500 C 0.99268 0.42767 0.58484 0.0
H1501 H 0.94513 0.29513 0.66206 0.0
H1502 H 0.96417 0.33473 0.63974 0.0
C1503 C 0.00143 0.44611 0.57278 0.0
C1504 C 0.96131 0.39373 0.59634 0.0
H1505 H 0.95708 0.3698 0.64406 0.0
C1506 C 0.94837 0.37575 0.58435 0.0
C1507 C 0.96449 0.3916 0.61818 0.0
C1508 C 0.97756 0.41032 0.63213 0.0
C1509 C 0.93856 0.35575 0.59351 0.0
C1510 C 0.94153 0.35367 0.61536 0.0
C1511 C 0.95475 0.37151 0.62733 0.0
C1512 C 0.93121 0.33313 0.62602 0.0
C1513 C 0.92562 0.33707 0.57944 0.0
C1514 C 0.90316 0.31653 0.62371 0.0
C1515 C 0.89004 0.29116 0.63611 0.0
C1516 C 0.90677 0.28599 0.65459 0.0
C1517 C 0.93579 0.29959 0.65246 0.0
C1518 C 0.94736 0.32466 0.63948 0.0
H1519 H 0.9308 0.34047 0.56266 0.0
H1520 H 0.92649 0.32315 0.58468 0.0
H1521 H 0.90905 0.33323 0.57992 0.0
H1522 H 0.89406 0.32191 0.61502 0.0
H1523 H 0.87315 0.28185 0.6363 0.0
H1524 H 0.56317 0.02315 0.07667 0.0
H1525 H 0.58188 0.01017 0.09876 0.0
H1526 H 0.5436 0.94834 0.07272 0.0
H1527 H 0.52521 0.96108 0.05054 0.0
H1528 H 0.56755 0.97761 0.12929 0.0
H1529 H 0.60294 0.96068 0.0604 0.0
H1530 H 0.5908 0.97664 0.05829 0.0
H1531 H 0.57501 0.94854 0.05831 0.0
C1532 C 0.55871 0.00678 0.07576 0.0
C1533 C 0.5429 0.99322 0.06164 0.0
C1534 C 0.56941 0.99941 0.08836 0.0
C1535 C 0.56444 0.97841 0.08699 0.0
C1536 C 0.54806 0.96472 0.0736 0.0
H1537 H 0.6045 0.88576 0.13562 0.0
H1538 H 0.58651 0.90793 0.11423 0.0
C1539 C 0.53751 0.97205 0.06098 0.0
C1540 C 0.57634 0.97058 0.09926 0.0
H1541 H 0.60421 0.94542 0.09341 0.0
C1542 C 0.57584 0.97083 0.12151 0.0
C1543 C 0.58711 0.96174 0.08902 0.0
C1544 C 0.58921 0.96205 0.06519 0.0
C1545 C 0.5851 0.96164 0.13379 0.0
C1546 C 0.5953 0.95225 0.12348 0.0
C1547 C 0.5962 0.95246 0.10128 0.0
C1548 C 0.60473 0.94161 0.13512 0.0
C1549 C 0.58291 0.96111 0.15759 0.0
C1550 C 0.62475 0.95581 0.15489 0.0
C1551 C 0.63751 0.94362 0.16835 0.0
C1552 C 0.62542 0.91499 0.16348 0.0
C1553 C 0.60962 0.90193 0.13933 0.0
C1554 C 0.5978 0.91549 0.12687 0.0
H1555 H 0.57054 0.96458 0.16259 0.0
H1556 H 0.57906 0.94557 0.16398 0.0
H1557 H 0.5979 0.97308 0.16479 0.0
H1558 H 0.62942 0.97188 0.15846 0.0
H1559 H 0.64823 0.95133 0.1814 0.0
H1560 H 0.57821 0.49546 0.52938 0.0
H1561 H 0.61096 0.51005 0.54998 0.0
H1562 H 0.60304 0.56171 0.56924 0.0
H1563 H 0.5702 0.5469 0.54959 0.0
H1564 H 0.64724 0.54617 0.54817 0.0
H1565 H 0.61107 0.54224 0.62573 0.0
H1566 H 0.59566 0.52951 0.60242 0.0
H1567 H 0.6051 0.55691 0.6071 0.0
C1568 C 0.58351 0.5099 0.53806 0.0
C1569 C 0.57151 0.51987 0.53817 0.0
C1570 C 0.60216 0.51821 0.54983 0.0
C1571 C 0.60913 0.53665 0.5617 0.0
C1572 C 0.5976 0.54706 0.56092 0.0
H1573 H 0.71948 0.63394 0.6412 0.0
H1574 H 0.68306 0.61033 0.61449 0.0
C1575 C 0.57889 0.53863 0.54954 0.0
C1576 C 0.62858 0.54542 0.57467 0.0
H1577 H 0.64832 0.56545 0.62371 0.0
C1578 C 0.64742 0.55005 0.56478 0.0
C1579 C 0.62883 0.55038 0.59642 0.0
C1580 C 0.60902 0.54427 0.60857 0.0
C1581 C 0.66659 0.56041 0.57579 0.0
C1582 C 0.66682 0.56621 0.59715 0.0
C1583 C 0.64802 0.56112 0.60722 0.0
C1584 C 0.68638 0.57824 0.60924 0.0
C1585 C 0.68651 0.56582 0.56425 0.0
C1586 C 0.70302 0.56721 0.61409 0.0
C1587 C 0.72654 0.58116 0.6297 0.0
C1588 C 0.72936 0.60473 0.64353 0.0
C1589 C 0.71632 0.61931 0.63407 0.0
C1590 C 0.69315 0.60405 0.61833 0.0
H1591 H 0.6842 0.56451 0.54676 0.0
H1592 H 0.69908 0.58195 0.56818 0.0
H1593 H 0.6919 0.55485 0.56926 0.0
H1594 H 0.69868 0.55192 0.60787 0.0
H1595 H 0.73567 0.57397 0.63421 0.0
H1596 H 0.99467 0.53513 0.06486 0.0
H1597 H 0.00637 0.56566 0.08809 0.0
H1598 H 0.0693 0.59108 0.06478 0.0
H1599 H 0.05774 0.56108 0.04129 0.0
H1600 H 0.03531 0.58106 0.11999 0.0
H1601 H 0.05929 0.63956 0.05549 0.0
H1602 H 0.04384 0.61178 0.05065 0.0
H1603 H 0.07182 0.62415 0.05361 0.0
C1604 C 0.01099 0.54725 0.0647 0.0
C1605 C 0.02522 0.54579 0.05107 0.0
C1606 C 0.01765 0.56467 0.07795 0.0
C1607 C 0.03861 0.58088 0.07778 0.0
C1608 C 0.05293 0.57908 0.06471 0.0
H1609 H 0.10789 0.67513 0.17223 0.0
H1610 H 0.09141 0.64405 0.14964 0.0
C1611 C 0.0463 0.56183 0.05138 0.0
C1612 C 0.04574 0.59957 0.09147 0.0
H1613 H 0.07191 0.65298 0.09032 0.0
C1614 C 0.04313 0.59679 0.11351 0.0
C1615 C 0.05561 0.62007 0.08297 0.0
C1616 C 0.05761 0.62409 0.05937 0.0
C1617 C 0.05081 0.61399 0.12732 0.0
C1618 C 0.06181 0.6345 0.11888 0.0
C1619 C 0.06373 0.63726 0.0968 0.0
C1620 C 0.07176 0.65334 0.13263 0.0
C1621 C 0.04694 0.60999 0.1508 0.0
C1622 C 0.06668 0.6692 0.13015 0.0
C1623 C 0.07641 0.68719 0.14277 0.0
C1624 C 0.09156 0.68975 0.15792 0.0
C1625 C 0.09653 0.67376 0.16045 0.0
C1626 C 0.08691 0.65587 0.14774 0.0
H1627 H 0.03309 0.59437 0.15393 0.0
H1628 H 0.06073 0.61032 0.15835 0.0
H1629 H 0.04447 0.62211 0.15845 0.0
H1630 H 0.05507 0.6676 0.11855 0.0
H1631 H 0.07204 0.69909 0.14074 0.0
loop_
_geom_bond_atom_site_label_1
_geom_bond_atom_site_label_2
_geom_bond_distance
_geom_bond_site_symmetry_2
_ccdc_geom_bond_type
C0 O2 1.247 . S
C0 O4 1.258 . S
C1 O8 1.247 . S
C1 O9 1.258 1_455 S
O2 C0 1.247 . S
O2 Zn3 2.028 . S
Zn3 O2 2.028 . S
Zn3 O7 2.035 1_454 S
Zn3 O9 2.035 1_454 S
Zn3 O10 2.028 . S
O4 C0 1.258 . S
O4 Zn5 2.035 1_554 S
Zn5 O4 2.035 1_556 S
Zn5 O6 2.028 . S
Zn5 O8 2.028 . S
Zn5 O11 2.035 1_556 S
O6 Zn5 2.028 . S
O6 C12 1.247 . S
O7 Zn3 2.035 1_656 S
O7 C12 1.258 1_655 S
O8 C1 1.247 . S
O8 Zn5 2.028 . S
O9 C1 1.258 1_655 S
O9 Zn3 2.035 1_656 S
O10 Zn3 2.028 . S
O10 C13 1.247 . S
O11 Zn5 2.035 1_554 S
O11 C13 1.258 . S
C12 O6 1.247 . S
C12 O7 1.258 1_455 S
C13 O10 1.247 . S
C13 O11 1.258 . S
C14 O16 1.247 . S
C14 O18 1.258 . S
C15 O22 1.247 1_565 S
C15 O23 1.258 . S
O16 C14 1.247 . S
O16 Zn17 2.028 1_545 S
Zn17 O16 2.028 1_565 S
Zn17 O21 2.035 . S
Zn17 O23 2.035 . S
Zn17 O24 2.028 1_565 S
O18 C14 1.258 . S
O18 Zn19 2.035 . S
Zn19 O18 2.035 . S
Zn19 O20 2.028 . S
Zn19 O22 2.028 . S
Zn19 O25 2.035 . S
O20 Zn19 2.028 . S
O20 C26 1.247 1_545 S
O21 Zn17 2.035 . S
O21 C26 1.258 . S
O22 C15 1.247 1_545 S
O22 Zn19 2.028 . S
O23 C15 1.258 . S
O23 Zn17 2.035 . S
O24 Zn17 2.028 1_545 S
O24 C27 1.247 . S
O25 Zn19 2.035 . S
O25 C27 1.258 . S
C26 O20 1.247 1_565 S
C26 O21 1.258 . S
C27 O24 1.247 . S
C27 O25 1.258 . S
C28 O30 1.247 . S
C28 O32 1.258 1_556 S
C29 O36 1.247 . S
C29 O37 1.258 . S
O30 C28 1.247 . S
O30 Zn31 2.028 1_556 S
Zn31 O30 2.028 1_554 S
Zn31 O35 2.035 . S
Zn31 O37 2.035 . S
Zn31 O38 2.028 1_554 S
O32 C28 1.258 1_554 S
O32 Zn33 2.035 . S
Zn33 O32 2.035 . S
Zn33 O34 2.028 . S
Zn33 O36 2.028 . S
Zn33 O39 2.035 . S
O34 Zn33 2.028 . S
O34 C40 1.247 . S
O35 Zn31 2.035 . S
O35 C40 1.258 . S
O36 C29 1.247 . S
O36 Zn33 2.028 . S
O37 C29 1.258 . S
O37 Zn31 2.035 . S
O38 Zn31 2.028 1_556 S
O38 C41 1.247 . S
O39 Zn33 2.035 . S
O39 C41 1.258 1_554 S
C40 O34 1.247 . S
C40 O35 1.258 . S
C41 O38 1.247 . S
C41 O39 1.258 1_556 S
C42 O44 1.247 . S
C42 O46 1.258 . S
C43 O50 1.247 . S
C43 O51 1.258 1_655 S
O44 C42 1.247 . S
O44 Zn45 2.028 . S
Zn45 O44 2.028 . S
Zn45 O49 2.035 . S
Zn45 O51 2.035 . S
Zn45 O52 2.028 . S
O46 C42 1.258 . S
O46 Zn47 2.035 1_455 S
Zn47 O46 2.035 1_655 S
Zn47 O48 2.028 . S
Zn47 O50 2.028 . S
Zn47 O53 2.035 1_655 S
O48 Zn47 2.028 . S
O48 C54 1.247 . S
O49 Zn45 2.035 . S
O49 C54 1.258 1_455 S
O50 C43 1.247 . S
O50 Zn47 2.028 . S
O51 C43 1.258 1_455 S
O51 Zn45 2.035 . S
O52 Zn45 2.028 . S
O52 C55 1.247 . S
O53 Zn47 2.035 1_455 S
O53 C55 1.258 . S
C54 O48 1.247 . S
C54 O49 1.258 1_655 S
C55 O52 1.247 . S
C55 O53 1.258 . S
C56 O58 1.247 1_565 S
C56 O60 1.258 . S
C57 O64 1.247 . S
C57 O65 1.258 1_556 S
O58 C56 1.247 1_545 S
O58 Zn59 2.028 . S
Zn59 O58 2.028 . S
Zn59 O63 2.035 . S
Zn59 O65 2.035 . S
Zn59 O66 2.028 . S
O60 C56 1.258 . S
O60 Zn61 2.035 . S
Zn61 O60 2.035 . S
Zn61 O62 2.028 1_564 S
Zn61 O64 2.028 1_564 S
Zn61 O67 2.035 . S
O62 Zn61 2.028 1_546 S
O62 C68 1.247 . S
O63 Zn59 2.035 . S
O63 C68 1.258 1_554 S
O64 C57 1.247 . S
O64 Zn61 2.028 1_546 S
O65 C57 1.258 1_554 S
O65 Zn59 2.035 . S
O66 Zn59 2.028 . S
O66 C69 1.247 1_545 S
O67 Zn61 2.035 . S
O67 C69 1.258 . S
C68 O62 1.247 . S
C68 O63 1.258 1_556 S
C69 O66 1.247 1_565 S
C69 O67 1.258 . S
C70 O72 1.247 . S
C70 O74 1.258 . S
C71 O78 1.247 . S
C71 O79 1.258 . S
O72 C70 1.247 . S
O72 Zn73 2.028 . S
Zn73 O72 2.028 . S
Zn73 O77 2.035 . S
Zn73 O79 2.035 . S
Zn73 O80 2.028 . S
O74 C70 1.258 . S
O74 Zn75 2.035 . S
Zn75 O74 2.035 . S
Zn75 O76 2.028 . S
Zn75 O78 2.028 . S
Zn75 O81 2.035 . S
O76 Zn75 2.028 . S
O76 C82 1.247 . S
O77 Zn73 2.035 . S
O77 C82 1.258 . S
O78 C71 1.247 . S
O78 Zn75 2.028 . S
O79 C71 1.258 . S
O79 Zn73 2.035 . S
O80 Zn73 2.028 . S
O80 C83 1.247 . S
O81 Zn75 2.035 . S
O81 C83 1.258 . S
C82 O76 1.247 . S
C82 O77 1.258 . S
C83 O80 1.247 . S
C83 O81 1.258 . S
C84 C85 1.560 . S
C84 H145 0.959 . S
C84 H146 0.959 . S
C84 H147 0.960 . S
C85 C84 1.560 . S
C85 O140 1.426 . S
C85 H144 0.980 . S
C86 C87 1.407 . S
C86 C91 1.418 . S
C86 O140 1.334 . S
C87 C86 1.407 . S
C87 C88 1.360 . S
C87 H148 0.929 . S
C88 C87 1.360 . S
C88 C89 1.401 . S
C88 C92 1.527 . S
C89 C88 1.401 . S
C89 C90 1.405 . S
C89 C122 1.587 . S
C90 C89 1.405 . S
C90 C91 1.332 . S
C90 C93 1.496 . S
C91 C86 1.418 . S
C91 C90 1.332 . S
C91 H149 0.929 . S
C92 C88 1.527 . S
C92 H150 0.959 . S
C92 H151 0.961 . S
C92 H152 0.961 . S
C93 C90 1.496 . S
C93 H153 0.960 . S
C93 H154 0.960 . S
C93 H155 0.961 . S
C94 C95 1.517 . S
C94 H157 0.961 . S
C94 H158 0.960 . S
C94 H159 0.959 . S
C95 C94 1.517 . S
C95 O143 1.468 . S
C95 H156 0.980 . S
C96 C97 1.349 . S
C96 C101 1.367 . S
C96 O143 1.408 . S
C97 C96 1.349 . S
C97 C98 1.407 . S
C97 H160 0.930 . S
C98 C97 1.407 . S
C98 C99 1.449 . S
C98 C102 1.535 . S
C99 C98 1.449 . S
C99 C100 1.384 . S
C99 C124 1.553 . S
C100 C99 1.384 . S
C100 C101 1.364 . S
C100 C103 1.450 . S
C101 C96 1.367 . S
C101 C100 1.364 . S
C101 H161 0.931 . S
C102 C98 1.535 . S
C102 H162 0.959 . S
C102 H163 0.961 . S
C102 H164 0.959 . S
C103 C100 1.450 . S
C103 H165 0.960 . S
C103 H166 0.960 . S
C103 H167 0.960 . S
C104 C105 1.309 . S
C104 C109 1.304 . S
C104 O142 1.435 . S
C105 C104 1.309 . S
C105 C106 1.476 . S
C105 H169 0.930 . S
C106 C105 1.476 . S
C106 C107 1.400 . S
C106 C110 1.567 . S
C107 C106 1.400 . S
C107 C108 1.373 . S
C107 C129 1.432 . S
C108 C107 1.373 . S
C108 C109 1.339 . S
C108 C111 1.530 . S
C109 C104 1.304 . S
C109 C108 1.339 . S
C109 H170 0.930 . S
C110 C106 1.567 . S
C110 H171 0.961 . S
C110 H172 0.960 . S
C110 H173 0.958 . S
C111 C108 1.530 . S
C111 H174 0.961 . S
C111 H175 0.960 . S
C111 H176 0.960 . S
C112 C113 1.530 . S
C112 H178 0.961 . S
C112 H179 0.961 . S
C112 H180 0.959 . S
C113 C112 1.530 . S
C113 O141 1.412 . S
C113 H177 0.980 . S
C114 C115 1.288 . S
C114 C119 1.377 . S
C114 O141 1.393 . S
C115 C114 1.288 . S
C115 C116 1.369 . S
C115 H181 0.932 . S
C116 C115 1.369 . S
C116 C117 1.398 . S
C116 C120 1.527 . S
C117 C116 1.398 . S
C117 C118 1.380 . S
C117 C131 1.497 . S
C118 C117 1.380 . S
C118 C119 1.383 . S
C118 C121 1.603 . S
C119 C114 1.377 . S
C119 C118 1.383 . S
C119 H182 0.929 . S
C120 C116 1.527 . S
C120 H183 0.961 . S
C120 H184 0.959 . S
C120 H185 0.959 . S
C121 C118 1.603 . S
C121 H186 0.960 . S
C121 H187 0.962 . S
C121 H188 0.961 . S
C122 C89 1.587 . S
C122 C123 1.360 . S
C122 C135 1.412 . S
C123 C122 1.360 . S
C123 C124 1.365 . S
C123 H189 0.929 . S
C124 C99 1.553 . S
C124 C123 1.365 . S
C124 C125 1.404 . S
C125 C124 1.404 . S
C125 C126 1.395 . S
C125 C136 1.451 . S
C126 C125 1.395 . S
C126 C127 1.322 . S
C126 H190 0.930 . S
C127 C126 1.322 . S
C127 C128 1.459 . S
C127 H191 0.929 . S
C128 C127 1.459 . S
C128 C129 1.445 . S
C128 C137 1.395 . S
C129 C107 1.432 . S
C129 C128 1.445 . S
C129 C130 1.370 . S
C130 C129 1.370 . S
C130 C131 1.438 . S
C130 H192 0.930 . S
C131 C117 1.497 . S
C131 C130 1.438 . S
C131 C132 1.360 . S
C132 C131 1.360 . S
C132 C133 1.401 . S
C132 C137 1.446 . S
C133 C132 1.401 . S
C133 C134 1.347 . S
C133 H193 0.929 . S
C134 C133 1.347 . S
C134 C135 1.455 . S
C134 H194 0.930 . S
C135 C122 1.412 . S
C135 C134 1.455 . S
C135 C136 1.331 . S
C136 C125 1.451 . S
C136 C135 1.331 . S
C136 C137 1.497 . S
C137 C128 1.395 . S
C137 C132 1.446 . S
C137 C136 1.497 . S
C138 C139 1.582 . S
C138 H195 0.962 . S
C138 H196 0.959 . S
C138 H197 0.958 . S
C139 C138 1.582 . S
C139 O142 1.458 . S
C139 H168 0.980 . S
O140 C85 1.426 . S
O140 C86 1.334 . S
O141 C113 1.412 . S
O141 C114 1.393 . S
O142 C104 1.435 . S
O142 C139 1.458 . S
O143 C95 1.468 . S
O143 C96 1.408 . S
H144 C85 0.980 . S
H145 C84 0.959 . S
H146 C84 0.959 . S
H147 C84 0.960 . S
H148 C87 0.929 . S
H149 C91 0.929 . S
H150 C92 0.959 . S
H151 C92 0.961 . S
H152 C92 0.961 . S
H153 C93 0.960 . S
H154 C93 0.960 . S
H155 C93 0.961 . S
H156 C95 0.980 . S
H157 C94 0.961 . S
H158 C94 0.960 . S
H159 C94 0.959 . S
H160 C97 0.930 . S
H161 C101 0.931 . S
H162 C102 0.959 . S
H163 C102 0.961 . S
H164 C102 0.959 . S
H165 C103 0.960 . S
H166 C103 0.960 . S
H167 C103 0.960 . S
H168 C139 0.980 . S
H169 C105 0.930 . S
H170 C109 0.930 . S
H171 C110 0.961 . S
H172 C110 0.960 . S
H173 C110 0.958 . S
H174 C111 0.961 . S
H175 C111 0.960 . S
H176 C111 0.960 . S
H177 C113 0.980 . S
H178 C112 0.961 . S
H179 C112 0.961 . S
H180 C112 0.959 . S
H181 C115 0.932 . S
H182 C119 0.929 . S
H183 C120 0.961 . S
H184 C120 0.959 . S
H185 C120 0.959 . S
H186 C121 0.960 . S
H187 C121 0.962 . S
H188 C121 0.961 . S
H189 C123 0.929 . S
H190 C126 0.930 . S
H191 C127 0.929 . S
H192 C130 0.930 . S
H193 C133 0.929 . S
H194 C134 0.930 . S
H195 C138 0.962 . S
H196 C138 0.959 . S
H197 C138 0.958 . S
C198 C199 1.560 . S
C198 H259 0.959 . S
C198 H260 0.959 . S
C198 H261 0.960 . S
C199 C198 1.560 . S
C199 O254 1.426 . S
C199 H258 0.980 . S
C200 C201 1.407 . S
C200 C205 1.418 . S
C200 O254 1.334 . S
C201 C200 1.407 . S
C201 C202 1.360 . S
C201 H262 0.929 . S
C202 C201 1.360 . S
C202 C203 1.401 . S
C202 C206 1.527 . S
C203 C202 1.401 . S
C203 C204 1.405 . S
C203 C236 1.587 . S
C204 C203 1.405 . S
C204 C205 1.332 . S
C204 C207 1.496 . S
C205 C200 1.418 . S
C205 C204 1.332 . S
C205 H263 0.929 . S
C206 C202 1.527 . S
C206 H264 0.959 . S
C206 H265 0.961 . S
C206 H266 0.961 . S
C207 C204 1.496 . S
C207 H267 0.960 . S
C207 H268 0.960 . S
C207 H269 0.961 . S
C208 C209 1.517 . S
C208 H271 0.961 . S
C208 H272 0.960 . S
C208 H273 0.959 . S
C209 C208 1.517 . S
C209 O257 1.468 . S
C209 H270 0.980 . S
C210 C211 1.349 . S
C210 C215 1.367 . S
C210 O257 1.408 . S
C211 C210 1.349 . S
C211 C212 1.407 . S
C211 H274 0.930 . S
C212 C211 1.407 . S
C212 C213 1.449 . S
C212 C216 1.535 . S
C213 C212 1.449 . S
C213 C214 1.384 . S
C213 C238 1.553 . S
C214 C213 1.384 . S
C214 C215 1.364 . S
C214 C217 1.450 . S
C215 C210 1.367 . S
C215 C214 1.364 . S
C215 H275 0.931 . S
C216 C212 1.535 . S
C216 H276 0.959 . S
C216 H277 0.961 . S
C216 H278 0.959 . S
C217 C214 1.450 . S
C217 H279 0.960 . S
C217 H280 0.960 . S
C217 H281 0.960 . S
C218 C219 1.309 . S
C218 C223 1.304 . S
C218 O256 1.435 . S
C219 C218 1.309 . S
C219 C220 1.476 . S
C219 H283 0.930 . S
C220 C219 1.476 . S
C220 C221 1.400 . S
C220 C224 1.567 . S
C221 C220 1.400 . S
C221 C222 1.373 . S
C221 C243 1.432 . S
C222 C221 1.373 . S
C222 C223 1.339 . S
C222 C225 1.530 . S
C223 C218 1.304 . S
C223 C222 1.339 . S
C223 H284 0.930 . S
C224 C220 1.567 . S
C224 H285 0.961 . S
C224 H286 0.960 . S
C224 H287 0.958 . S
C225 C222 1.530 . S
C225 H288 0.961 . S
C225 H289 0.960 . S
C225 H290 0.960 . S
C226 C227 1.530 . S
C226 H292 0.961 . S
C226 H293 0.961 . S
C226 H294 0.959 . S
C227 C226 1.530 . S
C227 O255 1.412 . S
C227 H291 0.980 . S
C228 C229 1.288 . S
C228 C233 1.377 . S
C228 O255 1.393 . S
C229 C228 1.288 . S
C229 C230 1.369 . S
C229 H295 0.932 . S
C230 C229 1.369 . S
C230 C231 1.398 . S
C230 C234 1.527 . S
C231 C230 1.398 . S
C231 C232 1.380 . S
C231 C245 1.497 . S
C232 C231 1.380 . S
C232 C233 1.383 . S
C232 C235 1.603 . S
C233 C228 1.377 . S
C233 C232 1.383 . S
C233 H296 0.929 . S
C234 C230 1.527 . S
C234 H297 0.961 . S
C234 H298 0.959 . S
C234 H299 0.959 . S
C235 C232 1.603 . S
C235 H300 0.960 . S
C235 H301 0.962 . S
C235 H302 0.961 . S
C236 C203 1.587 . S
C236 C237 1.360 . S
C236 C249 1.412 . S
C237 C236 1.360 . S
C237 C238 1.365 . S
C237 H303 0.929 . S
C238 C213 1.553 . S
C238 C237 1.365 . S
C238 C239 1.404 . S
C239 C238 1.404 . S
C239 C240 1.395 . S
C239 C250 1.451 . S
C240 C239 1.395 . S
C240 C241 1.322 . S
C240 H304 0.930 . S
C241 C240 1.322 . S
C241 C242 1.459 . S
C241 H305 0.929 . S
C242 C241 1.459 . S
C242 C243 1.445 . S
C242 C251 1.395 . S
C243 C221 1.432 . S
C243 C242 1.445 . S
C243 C244 1.370 . S
C244 C243 1.370 . S
C244 C245 1.438 . S
C244 H306 0.930 . S
C245 C231 1.497 . S
C245 C244 1.438 . S
C245 C246 1.360 . S
C246 C245 1.360 . S
C246 C247 1.401 . S
C246 C251 1.446 . S
C247 C246 1.401 . S
C247 C248 1.347 . S
C247 H307 0.929 . S
C248 C247 1.347 . S
C248 C249 1.455 . S
C248 H308 0.930 . S
C249 C236 1.412 . S
C249 C248 1.455 . S
C249 C250 1.331 . S
C250 C239 1.451 . S
C250 C249 1.331 . S
C250 C251 1.497 . S
C251 C242 1.395 . S
C251 C246 1.446 . S
C251 C250 1.497 . S
C252 C253 1.582 . S
C252 H309 0.962 . S
C252 H310 0.959 . S
C252 H311 0.958 . S
C253 C252 1.582 . S
C253 O256 1.458 . S
C253 H282 0.980 . S
O254 C199 1.426 . S
O254 C200 1.334 . S
O255 C227 1.412 . S
O255 C228 1.393 . S
O256 C218 1.435 . S
O256 C253 1.458 . S
O257 C209 1.468 . S
O257 C210 1.408 . S
H258 C199 0.980 . S
H259 C198 0.959 . S
H260 C198 0.959 . S
H261 C198 0.960 . S
H262 C201 0.929 . S
H263 C205 0.929 . S
H264 C206 0.959 . S
H265 C206 0.961 . S
H266 C206 0.961 . S
H267 C207 0.960 . S
H268 C207 0.960 . S
H269 C207 0.961 . S
H270 C209 0.980 . S
H271 C208 0.961 . S
H272 C208 0.960 . S
H273 C208 0.959 . S
H274 C211 0.930 . S
H275 C215 0.931 . S
H276 C216 0.959 . S
H277 C216 0.961 . S
H278 C216 0.959 . S
H279 C217 0.960 . S
H280 C217 0.960 . S
H281 C217 0.960 . S
H282 C253 0.980 . S
H283 C219 0.930 . S
H284 C223 0.930 . S
H285 C224 0.961 . S
H286 C224 0.960 . S
H287 C224 0.958 . S
H288 C225 0.961 . S
H289 C225 0.960 . S
H290 C225 0.960 . S
H291 C227 0.980 . S
H292 C226 0.961 . S
H293 C226 0.961 . S
H294 C226 0.959 . S
H295 C229 0.932 . S
H296 C233 0.929 . S
H297 C234 0.961 . S
H298 C234 0.959 . S
H299 C234 0.959 . S
H300 C235 0.960 . S
H301 C235 0.962 . S
H302 C235 0.961 . S
H303 C237 0.929 . S
H304 C240 0.930 . S
H305 C241 0.929 . S
H306 C244 0.930 . S
H307 C247 0.929 . S
H308 C248 0.930 . S
H309 C252 0.962 . S
H310 C252 0.959 . S
H311 C252 0.958 . S
C312 C313 1.560 . S
C312 H373 0.959 . S
C312 H374 0.959 . S
C312 H375 0.960 . S
C313 C312 1.560 . S
C313 O368 1.426 . S
C313 H372 0.980 . S
C314 C315 1.407 . S
C314 C319 1.418 . S
C314 O368 1.334 . S
C315 C314 1.407 . S
C315 C316 1.360 . S
C315 H376 0.929 . S
C316 C315 1.360 . S
C316 C317 1.401 . S
C316 C320 1.527 . S
C317 C316 1.401 . S
C317 C318 1.405 . S
C317 C350 1.587 . S
C318 C317 1.405 . S
C318 C319 1.332 . S
C318 C321 1.496 . S
C319 C314 1.418 . S
C319 C318 1.332 . S
C319 H377 0.929 . S
C320 C316 1.527 . S
C320 H378 0.959 . S
C320 H379 0.961 . S
C320 H380 0.961 . S
C321 C318 1.496 . S
C321 H381 0.960 . S
C321 H382 0.960 . S
C321 H383 0.961 . S
C322 C323 1.517 . S
C322 H385 0.961 . S
C322 H386 0.960 . S
C322 H387 0.959 . S
C323 C322 1.517 . S
C323 O371 1.468 . S
C323 H384 0.980 . S
C324 C325 1.349 . S
C324 C329 1.367 . S
C324 O371 1.408 . S
C325 C324 1.349 . S
C325 C326 1.407 . S
C325 H388 0.930 . S
C326 C325 1.407 . S
C326 C327 1.449 . S
C326 C330 1.535 . S
C327 C326 1.449 . S
C327 C328 1.384 . S
C327 C352 1.553 . S
C328 C327 1.384 . S
C328 C329 1.364 . S
C328 C331 1.450 . S
C329 C324 1.367 . S
C329 C328 1.364 . S
C329 H389 0.931 . S
C330 C326 1.535 . S
C330 H390 0.959 . S
C330 H391 0.961 . S
C330 H392 0.959 . S
C331 C328 1.450 . S
C331 H393 0.960 . S
C331 H394 0.960 . S
C331 H395 0.960 . S
C332 C333 1.309 . S
C332 C337 1.304 . S
C332 O370 1.435 . S
C333 C332 1.309 . S
C333 C334 1.476 . S
C333 H397 0.930 . S
C334 C333 1.476 . S
C334 C335 1.400 . S
C334 C338 1.567 . S
C335 C334 1.400 . S
C335 C336 1.373 . S
C335 C357 1.432 . S
C336 C335 1.373 . S
C336 C337 1.339 . S
C336 C339 1.530 . S
C337 C332 1.304 . S
C337 C336 1.339 . S
C337 H398 0.930 . S
C338 C334 1.567 . S
C338 H399 0.961 . S
C338 H400 0.960 . S
C338 H401 0.958 . S
C339 C336 1.530 . S
C339 H402 0.961 . S
C339 H403 0.960 . S
C339 H404 0.960 . S
C340 C341 1.530 . S
C340 H406 0.961 . S
C340 H407 0.961 . S
C340 H408 0.959 . S
C341 C340 1.530 . S
C341 O369 1.412 . S
C341 H405 0.980 . S
C342 C343 1.288 . S
C342 C347 1.377 . S
C342 O369 1.393 . S
C343 C342 1.288 . S
C343 C344 1.369 . S
C343 H409 0.932 . S
C344 C343 1.369 . S
C344 C345 1.398 . S
C344 C348 1.527 . S
C345 C344 1.398 . S
C345 C346 1.380 . S
C345 C359 1.497 . S
C346 C345 1.380 . S
C346 C347 1.383 . S
C346 C349 1.603 . S
C347 C342 1.377 . S
C347 C346 1.383 . S
C347 H410 0.929 . S
C348 C344 1.527 . S
C348 H411 0.961 . S
C348 H412 0.959 . S
C348 H413 0.959 . S
C349 C346 1.603 . S
C349 H414 0.960 . S
C349 H415 0.962 . S
C349 H416 0.961 . S
C350 C317 1.587 . S
C350 C351 1.360 . S
C350 C363 1.412 . S
C351 C350 1.360 . S
C351 C352 1.365 . S
C351 H417 0.929 . S
C352 C327 1.553 . S
C352 C351 1.365 . S
C352 C353 1.404 . S
C353 C352 1.404 . S
C353 C354 1.395 . S
C353 C364 1.451 . S
C354 C353 1.395 . S
C354 C355 1.322 . S
C354 H418 0.930 . S
C355 C354 1.322 . S
C355 C356 1.459 . S
C355 H419 0.929 . S
C356 C355 1.459 . S
C356 C357 1.445 . S
C356 C365 1.395 . S
C357 C335 1.432 . S
C357 C356 1.445 . S
C357 C358 1.370 . S
C358 C357 1.370 . S
C358 C359 1.438 . S
C358 H420 0.930 . S
C359 C345 1.497 . S
C359 C358 1.438 . S
C359 C360 1.360 . S
C360 C359 1.360 . S
C360 C361 1.401 . S
C360 C365 1.446 . S
C361 C360 1.401 . S
C361 C362 1.347 . S
C361 H421 0.929 . S
C362 C361 1.347 . S
C362 C363 1.455 . S
C362 H422 0.930 . S
C363 C350 1.412 . S
C363 C362 1.455 . S
C363 C364 1.331 . S
C364 C353 1.451 . S
C364 C363 1.331 . S
C364 C365 1.497 . S
C365 C356 1.395 . S
C365 C360 1.446 . S
C365 C364 1.497 . S
C366 C367 1.582 . S
C366 H423 0.962 . S
C366 H424 0.959 . S
C366 H425 0.958 . S
C367 C366 1.582 . S
C367 O370 1.458 . S
C367 H396 0.980 . S
O368 C313 1.426 . S
O368 C314 1.334 . S
O369 C341 1.412 . S
O369 C342 1.393 . S
O370 C332 1.435 . S
O370 C367 1.458 . S
O371 C323 1.468 . S
O371 C324 1.408 . S
H372 C313 0.980 . S
H373 C312 0.959 . S
H374 C312 0.959 . S
H375 C312 0.960 . S
H376 C315 0.929 . S
H377 C319 0.929 . S
H378 C320 0.959 . S
H379 C320 0.961 . S
H380 C320 0.961 . S
H381 C321 0.960 . S
H382 C321 0.960 . S
H383 C321 0.961 . S
H384 C323 0.980 . S
H385 C322 0.961 . S
H386 C322 0.960 . S
H387 C322 0.959 . S
H388 C325 0.930 . S
H389 C329 0.931 . S
H390 C330 0.959 . S
H391 C330 0.961 . S
H392 C330 0.959 . S
H393 C331 0.960 . S
H394 C331 0.960 . S
H395 C331 0.960 . S
H396 C367 0.980 . S
H397 C333 0.930 . S
H398 C337 0.930 . S
H399 C338 0.961 . S
H400 C338 0.960 . S
H401 C338 0.958 . S
H402 C339 0.961 . S
H403 C339 0.960 . S
H404 C339 0.960 . S
H405 C341 0.980 . S
H406 C340 0.961 . S
H407 C340 0.961 . S
H408 C340 0.959 . S
H409 C343 0.932 . S
H410 C347 0.929 . S
H411 C348 0.961 . S
H412 C348 0.959 . S
H413 C348 0.959 . S
H414 C349 0.960 . S
H415 C349 0.962 . S
H416 C349 0.961 . S
H417 C351 0.929 . S
H418 C354 0.930 . S
H419 C355 0.929 . S
H420 C358 0.930 . S
H421 C361 0.929 . S
H422 C362 0.930 . S
H423 C366 0.962 . S
H424 C366 0.959 . S
H425 C366 0.958 . S
C426 C427 1.560 . S
C426 H487 0.959 . S
C426 H488 0.959 . S
C426 H489 0.960 . S
C427 C426 1.560 . S
C427 O482 1.426 . S
C427 H486 0.980 . S
C428 C429 1.407 . S
C428 C433 1.418 . S
C428 O482 1.334 . S
C429 C428 1.407 . S
C429 C430 1.360 . S
C429 H490 0.929 . S
C430 C429 1.360 . S
C430 C431 1.401 . S
C430 C434 1.527 . S
C431 C430 1.401 . S
C431 C432 1.405 . S
C431 C464 1.587 . S
C432 C431 1.405 . S
C432 C433 1.332 . S
C432 C435 1.496 . S
C433 C428 1.418 . S
C433 C432 1.332 . S
C433 H491 0.929 . S
C434 C430 1.527 . S
C434 H492 0.959 . S
C434 H493 0.961 . S
C434 H494 0.961 . S
C435 C432 1.496 . S
C435 H495 0.960 . S
C435 H496 0.960 . S
C435 H497 0.961 . S
C436 C437 1.517 . S
C436 H499 0.961 . S
C436 H500 0.960 . S
C436 H501 0.959 . S
C437 C436 1.517 . S
C437 O485 1.468 . S
C437 H498 0.980 . S
C438 C439 1.349 . S
C438 C443 1.367 . S
C438 O485 1.408 . S
C439 C438 1.349 . S
C439 C440 1.407 . S
C439 H502 0.930 . S
C440 C439 1.407 . S
C440 C441 1.449 . S
C440 C444 1.535 . S
C441 C440 1.449 . S
C441 C442 1.384 . S
C441 C466 1.553 . S
C442 C441 1.384 . S
C442 C443 1.364 . S
C442 C445 1.450 . S
C443 C438 1.367 . S
C443 C442 1.364 . S
C443 H503 0.931 . S
C444 C440 1.535 . S
C444 H504 0.959 . S
C444 H505 0.961 . S
C444 H506 0.959 . S
C445 C442 1.450 . S
C445 H507 0.960 . S
C445 H508 0.960 . S
C445 H509 0.960 . S
C446 C447 1.309 . S
C446 C451 1.304 . S
C446 O484 1.435 . S
C447 C446 1.309 . S
C447 C448 1.476 . S
C447 H511 0.930 . S
C448 C447 1.476 . S
C448 C449 1.400 . S
C448 C452 1.567 . S
C449 C448 1.400 . S
C449 C450 1.373 . S
C449 C471 1.432 . S
C450 C449 1.373 . S
C450 C451 1.339 . S
C450 C453 1.530 . S
C451 C446 1.304 . S
C451 C450 1.339 . S
C451 H512 0.930 . S
C452 C448 1.567 . S
C452 H513 0.961 . S
C452 H514 0.960 . S
C452 H515 0.958 . S
C453 C450 1.530 . S
C453 H516 0.961 . S
C453 H517 0.960 . S
C453 H518 0.960 . S
C454 C455 1.530 . S
C454 H520 0.961 . S
C454 H521 0.961 . S
C454 H522 0.959 . S
C455 C454 1.530 . S
C455 O483 1.412 . S
C455 H519 0.980 . S
C456 C457 1.288 . S
C456 C461 1.377 . S
C456 O483 1.393 . S
C457 C456 1.288 . S
C457 C458 1.369 . S
C457 H523 0.932 . S
C458 C457 1.369 . S
C458 C459 1.398 . S
C458 C462 1.527 . S
C459 C458 1.398 . S
C459 C460 1.380 . S
C459 C473 1.497 . S
C460 C459 1.380 . S
C460 C461 1.383 . S
C460 C463 1.603 . S
C461 C456 1.377 . S
C461 C460 1.383 . S
C461 H524 0.929 . S
C462 C458 1.527 . S
C462 H525 0.961 . S
C462 H526 0.959 . S
C462 H527 0.959 . S
C463 C460 1.603 . S
C463 H528 0.960 . S
C463 H529 0.962 . S
C463 H530 0.961 . S
C464 C431 1.587 . S
C464 C465 1.360 . S
C464 C477 1.412 . S
C465 C464 1.360 . S
C465 C466 1.365 . S
C465 H531 0.929 . S
C466 C441 1.553 . S
C466 C465 1.365 . S
C466 C467 1.404 . S
C467 C466 1.404 . S
C467 C468 1.395 . S
C467 C478 1.451 . S
C468 C467 1.395 . S
C468 C469 1.322 . S
C468 H532 0.930 . S
C469 C468 1.322 . S
C469 C470 1.459 . S
C469 H533 0.929 . S
C470 C469 1.459 . S
C470 C471 1.445 . S
C470 C479 1.395 . S
C471 C449 1.432 . S
C471 C470 1.445 . S
C471 C472 1.370 . S
C472 C471 1.370 . S
C472 C473 1.438 . S
C472 H534 0.930 . S
C473 C459 1.497 . S
C473 C472 1.438 . S
C473 C474 1.360 . S
C474 C473 1.360 . S
C474 C475 1.401 . S
C474 C479 1.446 . S
C475 C474 1.401 . S
C475 C476 1.347 . S
C475 H535 0.929 . S
C476 C475 1.347 . S
C476 C477 1.455 . S
C476 H536 0.930 . S
C477 C464 1.412 . S
C477 C476 1.455 . S
C477 C478 1.331 . S
C478 C467 1.451 . S
C478 C477 1.331 . S
C478 C479 1.497 . S
C479 C470 1.395 . S
C479 C474 1.446 . S
C479 C478 1.497 . S
C480 C481 1.582 . S
C480 H537 0.962 . S
C480 H538 0.959 . S
C480 H539 0.958 . S
C481 C480 1.582 . S
C481 O484 1.458 . S
C481 H510 0.980 . S
O482 C427 1.426 . S
O482 C428 1.334 . S
O483 C455 1.412 . S
O483 C456 1.393 . S
O484 C446 1.435 . S
O484 C481 1.458 . S
O485 C437 1.468 . S
O485 C438 1.408 . S
H486 C427 0.980 . S
H487 C426 0.959 . S
H488 C426 0.959 . S
H489 C426 0.960 . S
H490 C429 0.929 . S
H491 C433 0.929 . S
H492 C434 0.959 . S
H493 C434 0.961 . S
H494 C434 0.961 . S
H495 C435 0.960 . S
H496 C435 0.960 . S
H497 C435 0.961 . S
H498 C437 0.980 . S
H499 C436 0.961 . S
H500 C436 0.960 . S
H501 C436 0.959 . S
H502 C439 0.930 . S
H503 C443 0.931 . S
H504 C444 0.959 . S
H505 C444 0.961 . S
H506 C444 0.959 . S
H507 C445 0.960 . S
H508 C445 0.960 . S
H509 C445 0.960 . S
H510 C481 0.980 . S
H511 C447 0.930 . S
H512 C451 0.930 . S
H513 C452 0.961 . S
H514 C452 0.960 . S
H515 C452 0.958 . S
H516 C453 0.961 . S
H517 C453 0.960 . S
H518 C453 0.960 . S
H519 C455 0.980 . S
H520 C454 0.961 . S
H521 C454 0.961 . S
H522 C454 0.959 . S
H523 C457 0.932 . S
H524 C461 0.929 . S
H525 C462 0.961 . S
H526 C462 0.959 . S
H527 C462 0.959 . S
H528 C463 0.960 . S
H529 C463 0.962 . S
H530 C463 0.961 . S
H531 C465 0.929 . S
H532 C468 0.930 . S
H533 C469 0.929 . S
H534 C472 0.930 . S
H535 C475 0.929 . S
H536 C476 0.930 . S
H537 C480 0.962 . S
H538 C480 0.959 . S
H539 C480 0.958 . S
C540 C541 1.560 . S
C540 H601 0.959 . S
C540 H602 0.959 . S
C540 H603 0.960 . S
C541 C540 1.560 . S
C541 O596 1.426 . S
C541 H600 0.980 . S
C542 C543 1.407 . S
C542 C547 1.418 . S
C542 O596 1.334 . S
C543 C542 1.407 . S
C543 C544 1.360 . S
C543 H604 0.929 . S
C544 C543 1.360 . S
C544 C545 1.401 . S
C544 C548 1.527 . S
C545 C544 1.401 . S
C545 C546 1.405 . S
C545 C578 1.587 . S
C546 C545 1.405 . S
C546 C547 1.332 . S
C546 C549 1.496 . S
C547 C542 1.418 . S
C547 C546 1.332 . S
C547 H605 0.929 . S
C548 C544 1.527 . S
C548 H606 0.959 . S
C548 H607 0.961 . S
C548 H608 0.961 . S
C549 C546 1.496 . S
C549 H609 0.960 . S
C549 H610 0.960 . S
C549 H611 0.961 . S
C550 C551 1.517 . S
C550 H613 0.961 . S
C550 H614 0.960 . S
C550 H615 0.959 . S
C551 C550 1.517 . S
C551 O599 1.468 . S
C551 H612 0.980 . S
C552 C553 1.349 . S
C552 C557 1.367 . S
C552 O599 1.408 . S
C553 C552 1.349 . S
C553 C554 1.407 . S
C553 H616 0.930 . S
C554 C553 1.407 . S
C554 C555 1.449 . S
C554 C558 1.535 . S
C555 C554 1.449 . S
C555 C556 1.384 . S
C555 C580 1.553 . S
C556 C555 1.384 . S
C556 C557 1.364 . S
C556 C559 1.450 . S
C557 C552 1.367 . S
C557 C556 1.364 . S
C557 H617 0.931 . S
C558 C554 1.535 . S
C558 H618 0.959 . S
C558 H619 0.961 . S
C558 H620 0.959 . S
C559 C556 1.450 . S
C559 H621 0.960 . S
C559 H622 0.960 . S
C559 H623 0.960 . S
C560 C561 1.309 . S
C560 C565 1.304 . S
C560 O598 1.435 . S
C561 C560 1.309 . S
C561 C562 1.476 . S
C561 H625 0.930 . S
C562 C561 1.476 . S
C562 C563 1.400 . S
C562 C566 1.567 . S
C563 C562 1.400 . S
C563 C564 1.373 . S
C563 C585 1.432 . S
C564 C563 1.373 . S
C564 C565 1.339 . S
C564 C567 1.530 . S
C565 C560 1.304 . S
C565 C564 1.339 . S
C565 H626 0.930 . S
C566 C562 1.567 . S
C566 H627 0.961 . S
C566 H628 0.960 . S
C566 H629 0.958 . S
C567 C564 1.530 . S
C567 H630 0.961 . S
C567 H631 0.960 . S
C567 H632 0.960 . S
C568 C569 1.530 . S
C568 H634 0.961 . S
C568 H635 0.961 . S
C568 H636 0.959 . S
C569 C568 1.530 . S
C569 O597 1.412 . S
C569 H633 0.980 . S
C570 C571 1.288 . S
C570 C575 1.377 . S
C570 O597 1.393 . S
C571 C570 1.288 . S
C571 C572 1.369 . S
C571 H637 0.932 . S
C572 C571 1.369 . S
C572 C573 1.398 . S
C572 C576 1.527 . S
C573 C572 1.398 . S
C573 C574 1.380 . S
C573 C587 1.497 . S
C574 C573 1.380 . S
C574 C575 1.383 . S
C574 C577 1.603 . S
C575 C570 1.377 . S
C575 C574 1.383 . S
C575 H638 0.929 . S
C576 C572 1.527 . S
C576 H639 0.961 . S
C576 H640 0.959 . S
C576 H641 0.959 . S
C577 C574 1.603 . S
C577 H642 0.960 . S
C577 H643 0.962 . S
C577 H644 0.961 . S
C578 C545 1.587 . S
C578 C579 1.360 . S
C578 C591 1.412 . S
C579 C578 1.360 . S
C579 C580 1.365 . S
C579 H645 0.929 . S
C580 C555 1.553 . S
C580 C579 1.365 . S
C580 C581 1.404 . S
C581 C580 1.404 . S
C581 C582 1.395 . S
C581 C592 1.451 . S
C582 C581 1.395 . S
C582 C583 1.322 . S
C582 H646 0.930 . S
C583 C582 1.322 . S
C583 C584 1.459 . S
C583 H647 0.929 . S
C584 C583 1.459 . S
C584 C585 1.445 . S
C584 C593 1.395 . S
C585 C563 1.432 . S
C585 C584 1.445 . S
C585 C586 1.370 . S
C586 C585 1.370 . S
C586 C587 1.438 . S
C586 H648 0.930 . S
C587 C573 1.497 . S
C587 C586 1.438 . S
C587 C588 1.360 . S
C588 C587 1.360 . S
C588 C589 1.401 . S
C588 C593 1.446 . S
C589 C588 1.401 . S
C589 C590 1.347 . S
C589 H649 0.929 . S
C590 C589 1.347 . S
C590 C591 1.455 . S
C590 H650 0.930 . S
C591 C578 1.412 . S
C591 C590 1.455 . S
C591 C592 1.331 . S
C592 C581 1.451 . S
C592 C591 1.331 . S
C592 C593 1.497 . S
C593 C584 1.395 . S
C593 C588 1.446 . S
C593 C592 1.497 . S
C594 C595 1.582 . S
C594 H651 0.962 . S
C594 H652 0.959 . S
C594 H653 0.958 . S
C595 C594 1.582 . S
C595 O598 1.458 . S
C595 H624 0.980 . S
O596 C541 1.426 . S
O596 C542 1.334 . S
O597 C569 1.412 . S
O597 C570 1.393 . S
O598 C560 1.435 . S
O598 C595 1.458 . S
O599 C551 1.468 . S
O599 C552 1.408 . S
H600 C541 0.980 . S
H601 C540 0.959 . S
H602 C540 0.959 . S
H603 C540 0.960 . S
H604 C543 0.929 . S
H605 C547 0.929 . S
H606 C548 0.959 . S
H607 C548 0.961 . S
H608 C548 0.961 . S
H609 C549 0.960 . S
H610 C549 0.960 . S
H611 C549 0.961 . S
H612 C551 0.980 . S
H613 C550 0.961 . S
H614 C550 0.960 . S
H615 C550 0.959 . S
H616 C553 0.930 . S
H617 C557 0.931 . S
H618 C558 0.959 . S
H619 C558 0.961 . S
H620 C558 0.959 . S
H621 C559 0.960 . S
H622 C559 0.960 . S
H623 C559 0.960 . S
H624 C595 0.980 . S
H625 C561 0.930 . S
H626 C565 0.930 . S
H627 C566 0.961 . S
H628 C566 0.960 . S
H629 C566 0.958 . S
H630 C567 0.961 . S
H631 C567 0.960 . S
H632 C567 0.960 . S
H633 C569 0.980 . S
H634 C568 0.961 . S
H635 C568 0.961 . S
H636 C568 0.959 . S
H637 C571 0.932 . S
H638 C575 0.929 . S
H639 C576 0.961 . S
H640 C576 0.959 . S
H641 C576 0.959 . S
H642 C577 0.960 . S
H643 C577 0.962 . S
H644 C577 0.961 . S
H645 C579 0.929 . S
H646 C582 0.930 . S
H647 C583 0.929 . S
H648 C586 0.930 . S
H649 C589 0.929 . S
H650 C590 0.930 . S
H651 C594 0.962 . S
H652 C594 0.959 . S
H653 C594 0.958 . S
C654 C655 1.560 . S
C654 H715 0.959 . S
C654 H716 0.959 . S
C654 H717 0.960 . S
C655 C654 1.560 . S
C655 O710 1.426 . S
C655 H714 0.980 . S
C656 C657 1.407 . S
C656 C661 1.418 . S
C656 O710 1.334 . S
C657 C656 1.407 . S
C657 C658 1.360 . S
C657 H718 0.929 . S
C658 C657 1.360 . S
C658 C659 1.401 . S
C658 C662 1.527 . S
C659 C658 1.401 . S
C659 C660 1.405 . S
C659 C692 1.587 . S
C660 C659 1.405 . S
C660 C661 1.332 . S
C660 C663 1.496 . S
C661 C656 1.418 . S
C661 C660 1.332 . S
C661 H719 0.929 . S
C662 C658 1.527 . S
C662 H720 0.959 . S
C662 H721 0.961 . S
C662 H722 0.961 . S
C663 C660 1.496 . S
C663 H723 0.960 . S
C663 H724 0.960 . S
C663 H725 0.961 . S
C664 C665 1.517 . S
C664 H727 0.961 . S
C664 H728 0.960 . S
C664 H729 0.959 . S
C665 C664 1.517 . S
C665 O713 1.468 . S
C665 H726 0.980 . S
C666 C667 1.349 . S
C666 C671 1.367 . S
C666 O713 1.408 . S
C667 C666 1.349 . S
C667 C668 1.407 . S
C667 H730 0.930 . S
C668 C667 1.407 . S
C668 C669 1.449 . S
C668 C672 1.535 . S
C669 C668 1.449 . S
C669 C670 1.384 . S
C669 C694 1.553 . S
C670 C669 1.384 . S
C670 C671 1.364 . S
C670 C673 1.450 . S
C671 C666 1.367 . S
C671 C670 1.364 . S
C671 H731 0.931 . S
C672 C668 1.535 . S
C672 H732 0.959 . S
C672 H733 0.961 . S
C672 H734 0.959 . S
C673 C670 1.450 . S
C673 H735 0.960 . S
C673 H736 0.960 . S
C673 H737 0.960 . S
C674 C675 1.309 . S
C674 C679 1.304 . S
C674 O712 1.435 . S
C675 C674 1.309 . S
C675 C676 1.476 . S
C675 H739 0.930 . S
C676 C675 1.476 . S
C676 C677 1.400 . S
C676 C680 1.567 . S
C677 C676 1.400 . S
C677 C678 1.373 . S
C677 C699 1.432 . S
C678 C677 1.373 . S
C678 C679 1.339 . S
C678 C681 1.530 . S
C679 C674 1.304 . S
C679 C678 1.339 . S
C679 H740 0.930 . S
C680 C676 1.567 . S
C680 H741 0.961 . S
C680 H742 0.960 . S
C680 H743 0.958 . S
C681 C678 1.530 . S
C681 H744 0.961 . S
C681 H745 0.960 . S
C681 H746 0.960 . S
C682 C683 1.530 . S
C682 H748 0.961 . S
C682 H749 0.961 . S
C682 H750 0.959 . S
C683 C682 1.530 . S
C683 O711 1.412 . S
C683 H747 0.980 . S
C684 C685 1.288 . S
C684 C689 1.377 . S
C684 O711 1.393 . S
C685 C684 1.288 . S
C685 C686 1.369 . S
C685 H751 0.932 . S
C686 C685 1.369 . S
C686 C687 1.398 . S
C686 C690 1.527 . S
C687 C686 1.398 . S
C687 C688 1.380 . S
C687 C701 1.497 . S
C688 C687 1.380 . S
C688 C689 1.383 . S
C688 C691 1.603 . S
C689 C684 1.377 . S
C689 C688 1.383 . S
C689 H752 0.929 . S
C690 C686 1.527 . S
C690 H753 0.961 . S
C690 H754 0.959 . S
C690 H755 0.959 . S
C691 C688 1.603 . S
C691 H756 0.960 . S
C691 H757 0.962 . S
C691 H758 0.961 . S
C692 C659 1.587 . S
C692 C693 1.360 . S
C692 C705 1.412 . S
C693 C692 1.360 . S
C693 C694 1.365 . S
C693 H759 0.929 . S
C694 C669 1.553 . S
C694 C693 1.365 . S
C694 C695 1.404 . S
C695 C694 1.404 . S
C695 C696 1.395 . S
C695 C706 1.451 . S
C696 C695 1.395 . S
C696 C697 1.322 . S
C696 H760 0.930 . S
C697 C696 1.322 . S
C697 C698 1.459 . S
C697 H761 0.929 . S
C698 C697 1.459 . S
C698 C699 1.445 . S
C698 C707 1.395 . S
C699 C677 1.432 . S
C699 C698 1.445 . S
C699 C700 1.370 . S
C700 C699 1.370 . S
C700 C701 1.438 . S
C700 H762 0.930 . S
C701 C687 1.497 . S
C701 C700 1.438 . S
C701 C702 1.360 . S
C702 C701 1.360 . S
C702 C703 1.401 . S
C702 C707 1.446 . S
C703 C702 1.401 . S
C703 C704 1.347 . S
C703 H763 0.929 . S
C704 C703 1.347 . S
C704 C705 1.455 . S
C704 H764 0.930 . S
C705 C692 1.412 . S
C705 C704 1.455 . S
C705 C706 1.331 . S
C706 C695 1.451 . S
C706 C705 1.331 . S
C706 C707 1.497 . S
C707 C698 1.395 . S
C707 C702 1.446 . S
C707 C706 1.497 . S
C708 C709 1.582 . S
C708 H765 0.962 . S
C708 H766 0.959 . S
C708 H767 0.958 . S
C709 C708 1.582 . S
C709 O712 1.458 . S
C709 H738 0.980 . S
O710 C655 1.426 . S
O710 C656 1.334 . S
O711 C683 1.412 . S
O711 C684 1.393 . S
O712 C674 1.435 . S
O712 C709 1.458 . S
O713 C665 1.468 . S
O713 C666 1.408 . S
H714 C655 0.980 . S
H715 C654 0.959 . S
H716 C654 0.959 . S
H717 C654 0.960 . S
H718 C657 0.929 . S
H719 C661 0.929 . S
H720 C662 0.959 . S
H721 C662 0.961 . S
H722 C662 0.961 . S
H723 C663 0.960 . S
H724 C663 0.960 . S
H725 C663 0.961 . S
H726 C665 0.980 . S
H727 C664 0.961 . S
H728 C664 0.960 . S
H729 C664 0.959 . S
H730 C667 0.930 . S
H731 C671 0.931 . S
H732 C672 0.959 . S
H733 C672 0.961 . S
H734 C672 0.959 . S
H735 C673 0.960 . S
H736 C673 0.960 . S
H737 C673 0.960 . S
H738 C709 0.980 . S
H739 C675 0.930 . S
H740 C679 0.930 . S
H741 C680 0.961 . S
H742 C680 0.960 . S
H743 C680 0.958 . S
H744 C681 0.961 . S
H745 C681 0.960 . S
H746 C681 0.960 . S
H747 C683 0.980 . S
H748 C682 0.961 . S
H749 C682 0.961 . S
H750 C682 0.959 . S
H751 C685 0.932 . S
H752 C689 0.929 . S
H753 C690 0.961 . S
H754 C690 0.959 . S
H755 C690 0.959 . S
H756 C691 0.960 . S
H757 C691 0.962 . S
H758 C691 0.961 . S
H759 C693 0.929 . S
H760 C696 0.930 . S
H761 C697 0.929 . S
H762 C700 0.930 . S
H763 C703 0.929 . S
H764 C704 0.930 . S
H765 C708 0.962 . S
H766 C708 0.959 . S
H767 C708 0.958 . S
H768 C776 0.929 . S
H769 C778 0.930 . S
H770 C780 0.930 . S
H771 C783 0.929 . S
H772 C786 0.930 . S
H773 C788 0.960 . S
H774 C788 0.960 . S
H775 C788 0.960 . S
C776 H768 0.929 . S
C776 C777 1.377 . S
C776 C778 1.384 . S
C777 C776 1.377 . S
C777 C783 1.390 . S
C778 H769 0.930 . S
C778 C776 1.384 . S
C778 C779 1.372 . S
C779 C778 1.372 . S
C779 C780 1.400 . S
C779 C784 1.490 . S
C780 H770 0.930 . S
C780 C779 1.400 . S
C780 C783 1.386 . S
H781 C797 0.930 . S
H782 C798 0.931 . S
C783 H771 0.929 . S
C783 C777 1.390 . S
C783 C780 1.386 . S
C784 C779 1.490 . S
C784 C786 1.395 . S
C784 C787 1.403 . S
H785 C791 0.930 . S
C786 H772 0.930 . S
C786 C784 1.395 . S
C786 C789 1.403 . S
C787 C784 1.403 . S
C787 C788 1.524 . S
C787 C791 1.400 . S
C788 H773 0.960 . S
C788 H774 0.960 . S
C788 H775 0.960 . S
C788 C787 1.524 . S
C789 C786 1.403 . S
C789 C790 1.392 . S
C789 C793 1.495 . S
C790 C789 1.392 . S
C790 C791 1.385 . S
C790 C792 1.478 . S
C791 H785 0.930 . S
C791 C787 1.400 . S
C791 C790 1.385 . S
C792 C790 1.478 . S
C792 C794 1.381 . S
C792 C798 1.383 . S
C793 C789 1.495 . S
C793 H799 0.959 . S
C793 H800 0.961 . S
C793 H801 0.960 . S
C794 C792 1.381 . S
C794 C795 1.394 . S
C794 H802 0.930 . S
C795 C794 1.394 . S
C795 C796 1.383 . S
C795 H803 0.929 . S
C796 C795 1.383 . S
C796 C797 1.377 . S
C797 H781 0.930 . S
C797 C796 1.377 . S
C797 C798 1.379 . S
C798 H782 0.931 . S
C798 C792 1.383 . S
C798 C797 1.379 . S
H799 C793 0.959 . S
H800 C793 0.961 . S
H801 C793 0.960 . S
H802 C794 0.930 . S
H803 C795 0.929 . S
H804 C812 0.929 . S
H805 C814 0.930 . S
H806 C816 0.930 . S
H807 C819 0.929 . S
H808 C822 0.930 . S
H809 C824 0.960 . S
H810 C824 0.960 . S
H811 C824 0.960 . S
C812 H804 0.929 . S
C812 C813 1.377 . S
C812 C814 1.384 . S
C813 C812 1.377 . S
C813 C819 1.390 . S
C814 H805 0.930 . S
C814 C812 1.384 . S
C814 C815 1.372 . S
C815 C814 1.372 . S
C815 C816 1.400 . S
C815 C820 1.490 . S
C816 H806 0.930 . S
C816 C815 1.400 . S
C816 C819 1.386 . S
H817 C833 0.930 . S
H818 C834 0.931 . S
C819 H807 0.929 . S
C819 C813 1.390 . S
C819 C816 1.386 . S
C820 C815 1.490 . S
C820 C822 1.395 . S
C820 C823 1.403 . S
H821 C827 0.930 . S
C822 H808 0.930 . S
C822 C820 1.395 . S
C822 C825 1.403 . S
C823 C820 1.403 . S
C823 C824 1.524 . S
C823 C827 1.400 . S
C824 H809 0.960 . S
C824 H810 0.960 . S
C824 H811 0.960 . S
C824 C823 1.524 . S
C825 C822 1.403 . S
C825 C826 1.392 . S
C825 C829 1.495 . S
C826 C825 1.392 . S
C826 C827 1.385 . S
C826 C828 1.478 . S
C827 H821 0.930 . S
C827 C823 1.400 . S
C827 C826 1.385 . S
C828 C826 1.478 . S
C828 C830 1.381 . S
C828 C834 1.383 . S
C829 C825 1.495 . S
C829 H835 0.959 . S
C829 H836 0.961 . S
C829 H837 0.960 . S
C830 C828 1.381 . S
C830 C831 1.394 . S
C830 H838 0.930 . S
C831 C830 1.394 . S
C831 C832 1.383 . S
C831 H839 0.929 . S
C832 C831 1.383 . S
C832 C833 1.377 . S
C833 H817 0.930 . S
C833 C832 1.377 . S
C833 C834 1.379 . S
C834 H818 0.931 . S
C834 C828 1.383 . S
C834 C833 1.379 . S
H835 C829 0.959 . S
H836 C829 0.961 . S
H837 C829 0.960 . S
H838 C830 0.930 . S
H839 C831 0.929 . S
H840 C848 0.929 . S
H841 C850 0.930 . S
H842 C852 0.930 . S
H843 C855 0.929 . S
H844 C858 0.930 . S
H845 C860 0.960 . S
H846 C860 0.960 . S
H847 C860 0.960 . S
C848 H840 0.929 . S
C848 C849 1.377 . S
C848 C850 1.384 . S
C849 C848 1.377 . S
C849 C855 1.390 . S
C850 H841 0.930 . S
C850 C848 1.384 . S
C850 C851 1.372 . S
C851 C850 1.372 . S
C851 C852 1.400 . S
C851 C856 1.490 . S
C852 H842 0.930 . S
C852 C851 1.400 . S
C852 C855 1.386 . S
H853 C869 0.930 . S
H854 C870 0.931 . S
C855 H843 0.929 . S
C855 C849 1.390 . S
C855 C852 1.386 . S
C856 C851 1.490 . S
C856 C858 1.395 . S
C856 C859 1.403 . S
H857 C863 0.930 . S
C858 H844 0.930 . S
C858 C856 1.395 . S
C858 C861 1.403 . S
C859 C856 1.403 . S
C859 C860 1.524 . S
C859 C863 1.400 . S
C860 H845 0.960 . S
C860 H846 0.960 . S
C860 H847 0.960 . S
C860 C859 1.524 . S
C861 C858 1.403 . S
C861 C862 1.392 . S
C861 C865 1.495 . S
C862 C861 1.392 . S
C862 C863 1.385 . S
C862 C864 1.478 . S
C863 H857 0.930 . S
C863 C859 1.400 . S
C863 C862 1.385 . S
C864 C862 1.478 . S
C864 C866 1.381 . S
C864 C870 1.383 . S
C865 C861 1.495 . S
C865 H871 0.959 . S
C865 H872 0.961 . S
C865 H873 0.960 . S
C866 C864 1.381 . S
C866 C867 1.394 . S
C866 H874 0.930 . S
C867 C866 1.394 . S
C867 C868 1.383 . S
C867 H875 0.929 . S
C868 C867 1.383 . S
C868 C869 1.377 . S
C869 H853 0.930 . S
C869 C868 1.377 . S
C869 C870 1.379 . S
C870 H854 0.931 . S
C870 C864 1.383 . S
C870 C869 1.379 . S
H871 C865 0.959 . S
H872 C865 0.961 . S
H873 C865 0.960 . S
H874 C866 0.930 . S
H875 C867 0.929 . S
H876 C884 0.929 . S
H877 C886 0.930 . S
H878 C888 0.930 . S
H879 C891 0.929 . S
H880 C894 0.930 . S
H881 C896 0.960 . S
H882 C896 0.960 . S
H883 C896 0.960 . S
C884 H876 0.929 . S
C884 C885 1.377 . S
C884 C886 1.384 . S
C885 C884 1.377 . S
C885 C891 1.390 . S
C886 H877 0.930 . S
C886 C884 1.384 . S
C886 C887 1.372 . S
C887 C886 1.372 . S
C887 C888 1.400 . S
C887 C892 1.490 . S
C888 H878 0.930 . S
C888 C887 1.400 . S
C888 C891 1.386 . S
H889 C905 0.930 . S
H890 C906 0.931 . S
C891 H879 0.929 . S
C891 C885 1.390 . S
C891 C888 1.386 . S
C892 C887 1.490 . S
C892 C894 1.395 . S
C892 C895 1.403 . S
H893 C899 0.930 . S
C894 H880 0.930 . S
C894 C892 1.395 . S
C894 C897 1.403 . S
C895 C892 1.403 . S
C895 C896 1.524 . S
C895 C899 1.400 . S
C896 H881 0.960 . S
C896 H882 0.960 . S
C896 H883 0.960 . S
C896 C895 1.524 . S
C897 C894 1.403 . S
C897 C898 1.392 . S
C897 C901 1.495 . S
C898 C897 1.392 . S
C898 C899 1.385 . S
C898 C900 1.478 . S
C899 H893 0.930 . S
C899 C895 1.400 . S
C899 C898 1.385 . S
C900 C898 1.478 . S
C900 C902 1.381 . S
C900 C906 1.383 . S
C901 C897 1.495 . S
C901 H907 0.959 . S
C901 H908 0.961 . S
C901 H909 0.960 . S
C902 C900 1.381 . S
C902 C903 1.394 . S
C902 H910 0.930 . S
C903 C902 1.394 . S
C903 C904 1.383 . S
C903 H911 0.929 . S
C904 C903 1.383 . S
C904 C905 1.377 . S
C905 H889 0.930 . S
C905 C904 1.377 . S
C905 C906 1.379 . S
C906 H890 0.931 . S
C906 C900 1.383 . S
C906 C905 1.379 . S
H907 C901 0.959 . S
H908 C901 0.961 . S
H909 C901 0.960 . S
H910 C902 0.930 . S
H911 C903 0.929 . S
H912 C920 0.929 . S
H913 C922 0.930 . S
H914 C924 0.930 . S
H915 C927 0.929 . S
H916 C930 0.930 . S
H917 C932 0.960 . S
H918 C932 0.960 . S
H919 C932 0.960 . S
C920 H912 0.929 . S
C920 C921 1.377 . S
C920 C922 1.384 . S
C921 C920 1.377 . S
C921 C927 1.390 . S
C922 H913 0.930 . S
C922 C920 1.384 . S
C922 C923 1.372 . S
C923 C922 1.372 . S
C923 C924 1.400 . S
C923 C928 1.490 . S
C924 H914 0.930 . S
C924 C923 1.400 . S
C924 C927 1.386 . S
H925 C941 0.930 . S
H926 C942 0.931 . S
C927 H915 0.929 . S
C927 C921 1.390 . S
C927 C924 1.386 . S
C928 C923 1.490 . S
C928 C930 1.395 . S
C928 C931 1.403 . S
H929 C935 0.930 . S
C930 H916 0.930 . S
C930 C928 1.395 . S
C930 C933 1.403 . S
C931 C928 1.403 . S
C931 C932 1.524 . S
C931 C935 1.400 . S
C932 H917 0.960 . S
C932 H918 0.960 . S
C932 H919 0.960 . S
C932 C931 1.524 . S
C933 C930 1.403 . S
C933 C934 1.392 . S
C933 C937 1.495 . S
C934 C933 1.392 . S
C934 C935 1.385 . S
C934 C936 1.478 . S
C935 H929 0.930 . S
C935 C931 1.400 . S
C935 C934 1.385 . S
C936 C934 1.478 . S
C936 C938 1.381 . S
C936 C942 1.383 . S
C937 C933 1.495 . S
C937 H943 0.959 . S
C937 H944 0.961 . S
C937 H945 0.960 . S
C938 C936 1.381 . S
C938 C939 1.394 . S
C938 H946 0.930 . S
C939 C938 1.394 . S
C939 C940 1.383 . S
C939 H947 0.929 . S
C940 C939 1.383 . S
C940 C941 1.377 . S
C941 H925 0.930 . S
C941 C940 1.377 . S
C941 C942 1.379 . S
C942 H926 0.931 . S
C942 C936 1.383 . S
C942 C941 1.379 . S
H943 C937 0.959 . S
H944 C937 0.961 . S
H945 C937 0.960 . S
H946 C938 0.930 . S
H947 C939 0.929 . S
H948 C956 0.929 . S
H949 C958 0.930 . S
H950 C960 0.930 . S
H951 C963 0.929 . S
H952 C966 0.930 . S
H953 C968 0.960 . S
H954 C968 0.960 . S
H955 C968 0.960 . S
C956 H948 0.929 . S
C956 C957 1.377 . S
C956 C958 1.384 . S
C957 C956 1.377 . S
C957 C963 1.390 . S
C958 H949 0.930 . S
C958 C956 1.384 . S
C958 C959 1.372 . S
C959 C958 1.372 . S
C959 C960 1.400 . S
C959 C964 1.490 . S
C960 H950 0.930 . S
C960 C959 1.400 . S
C960 C963 1.386 . S
H961 C977 0.930 . S
H962 C978 0.931 . S
C963 H951 0.929 . S
C963 C957 1.390 . S
C963 C960 1.386 . S
C964 C959 1.490 . S
C964 C966 1.395 . S
C964 C967 1.403 . S
H965 C971 0.930 . S
C966 H952 0.930 . S
C966 C964 1.395 . S
C966 C969 1.403 . S
C967 C964 1.403 . S
C967 C968 1.524 . S
C967 C971 1.400 . S
C968 H953 0.960 . S
C968 H954 0.960 . S
C968 H955 0.960 . S
C968 C967 1.524 . S
C969 C966 1.403 . S
C969 C970 1.392 . S
C969 C973 1.495 . S
C970 C969 1.392 . S
C970 C971 1.385 . S
C970 C972 1.478 . S
C971 H965 0.930 . S
C971 C967 1.400 . S
C971 C970 1.385 . S
C972 C970 1.478 . S
C972 C974 1.381 . S
C972 C978 1.383 . S
C973 C969 1.495 . S
C973 H979 0.959 . S
C973 H980 0.961 . S
C973 H981 0.960 . S
C974 C972 1.381 . S
C974 C975 1.394 . S
C974 H982 0.930 . S
C975 C974 1.394 . S
C975 C976 1.383 . S
C975 H983 0.929 . S
C976 C975 1.383 . S
C976 C977 1.377 . S
C977 H961 0.930 . S
C977 C976 1.377 . S
C977 C978 1.379 . S
C978 H962 0.931 . S
C978 C972 1.383 . S
C978 C977 1.379 . S
H979 C973 0.959 . S
H980 C973 0.961 . S
H981 C973 0.960 . S
H982 C974 0.930 . S
H983 C975 0.929 . S
H984 C992 0.929 . S
H985 C994 0.930 . S
H986 C996 0.930 . S
H987 C999 0.929 . S
H988 C1002 0.930 . S
H989 C1004 0.960 . S
H990 C1004 0.960 . S
H991 C1004 0.960 . S
C992 H984 0.929 . S
C992 C993 1.377 . S
C992 C994 1.384 . S
C993 C992 1.377 . S
C993 C999 1.390 . S
C994 H985 0.930 . S
C994 C992 1.384 . S
C994 C995 1.372 . S
C995 C994 1.372 . S
C995 C996 1.400 . S
C995 C1000 1.490 . S
C996 H986 0.930 . S
C996 C995 1.400 . S
C996 C999 1.386 . S
H997 C1013 0.930 . S
H998 C1014 0.931 . S
C999 H987 0.929 . S
C999 C993 1.390 . S
C999 C996 1.386 . S
C1000 C995 1.490 . S
C1000 C1002 1.395 . S
C1000 C1003 1.403 . S
H1001 C1007 0.930 . S
C1002 H988 0.930 . S
C1002 C1000 1.395 . S
C1002 C1005 1.403 . S
C1003 C1000 1.403 . S
C1003 C1004 1.524 . S
C1003 C1007 1.400 . S
C1004 H989 0.960 . S
C1004 H990 0.960 . S
C1004 H991 0.960 . S
C1004 C1003 1.524 . S
C1005 C1002 1.403 . S
C1005 C1006 1.392 . S
C1005 C1009 1.495 . S
C1006 C1005 1.392 . S
C1006 C1007 1.385 . S
C1006 C1008 1.478 . S
C1007 H1001 0.930 . S
C1007 C1003 1.400 . S
C1007 C1006 1.385 . S
C1008 C1006 1.478 . S
C1008 C1010 1.381 . S
C1008 C1014 1.383 . S
C1009 C1005 1.495 . S
C1009 H1015 0.959 . S
C1009 H1016 0.961 . S
C1009 H1017 0.960 . S
C1010 C1008 1.381 . S
C1010 C1011 1.394 . S
C1010 H1018 0.930 . S
C1011 C1010 1.394 . S
C1011 C1012 1.383 . S
C1011 H1019 0.929 . S
C1012 C1011 1.383 . S
C1012 C1013 1.377 . S
C1013 H997 0.930 . S
C1013 C1012 1.377 . S
C1013 C1014 1.379 . S
C1014 H998 0.931 . S
C1014 C1008 1.383 . S
C1014 C1013 1.379 . S
H1015 C1009 0.959 . S
H1016 C1009 0.961 . S
H1017 C1009 0.960 . S
H1018 C1010 0.930 . S
H1019 C1011 0.929 . S
H1020 C1028 0.929 . S
H1021 C1030 0.930 . S
H1022 C1032 0.930 . S
H1023 C1035 0.929 . S
H1024 C1038 0.930 . S
H1025 C1040 0.960 . S
H1026 C1040 0.960 . S
H1027 C1040 0.960 . S
C1028 H1020 0.929 . S
C1028 C1029 1.377 . S
C1028 C1030 1.384 . S
C1029 C1028 1.377 . S
C1029 C1035 1.390 . S
C1030 H1021 0.930 . S
C1030 C1028 1.384 . S
C1030 C1031 1.372 . S
C1031 C1030 1.372 . S
C1031 C1032 1.400 . S
C1031 C1036 1.490 . S
C1032 H1022 0.930 . S
C1032 C1031 1.400 . S
C1032 C1035 1.386 . S
H1033 C1049 0.930 . S
H1034 C1050 0.931 . S
C1035 H1023 0.929 . S
C1035 C1029 1.390 . S
C1035 C1032 1.386 . S
C1036 C1031 1.490 . S
C1036 C1038 1.395 . S
C1036 C1039 1.403 . S
H1037 C1043 0.930 . S
C1038 H1024 0.930 . S
C1038 C1036 1.395 . S
C1038 C1041 1.403 . S
C1039 C1036 1.403 . S
C1039 C1040 1.524 . S
C1039 C1043 1.400 . S
C1040 H1025 0.960 . S
C1040 H1026 0.960 . S
C1040 H1027 0.960 . S
C1040 C1039 1.524 . S
C1041 C1038 1.403 . S
C1041 C1042 1.392 . S
C1041 C1045 1.495 . S
C1042 C1041 1.392 . S
C1042 C1043 1.385 . S
C1042 C1044 1.478 . S
C1043 H1037 0.930 . S
C1043 C1039 1.400 . S
C1043 C1042 1.385 . S
C1044 C1042 1.478 . S
C1044 C1046 1.381 . S
C1044 C1050 1.383 . S
C1045 C1041 1.495 . S
C1045 H1051 0.959 . S
C1045 H1052 0.961 . S
C1045 H1053 0.960 . S
C1046 C1044 1.381 . S
C1046 C1047 1.394 . S
C1046 H1054 0.930 . S
C1047 C1046 1.394 . S
C1047 C1048 1.383 . S
C1047 H1055 0.929 . S
C1048 C1047 1.383 . S
C1048 C1049 1.377 . S
C1049 H1033 0.930 . S
C1049 C1048 1.377 . S
C1049 C1050 1.379 . S
C1050 H1034 0.931 . S
C1050 C1044 1.383 . S
C1050 C1049 1.379 . S
H1051 C1045 0.959 . S
H1052 C1045 0.961 . S
H1053 C1045 0.960 . S
H1054 C1046 0.930 . S
H1055 C1047 0.929 . S
H1056 C1064 0.929 . S
H1057 C1066 0.930 . S
H1058 C1068 0.930 . S
H1059 C1071 0.929 . S
H1060 C1074 0.930 . S
H1061 C1076 0.960 . S
H1062 C1076 0.960 . S
H1063 C1076 0.960 . S
C1064 H1056 0.929 . S
C1064 C1065 1.377 . S
C1064 C1066 1.384 . S
C1065 C1064 1.377 . S
C1065 C1071 1.390 . S
C1066 H1057 0.930 . S
C1066 C1064 1.384 . S
C1066 C1067 1.372 . S
C1067 C1066 1.372 . S
C1067 C1068 1.400 . S
C1067 C1072 1.490 . S
C1068 H1058 0.930 . S
C1068 C1067 1.400 . S
C1068 C1071 1.386 . S
H1069 C1085 0.930 . S
H1070 C1086 0.931 . S
C1071 H1059 0.929 . S
C1071 C1065 1.390 . S
C1071 C1068 1.386 . S
C1072 C1067 1.490 . S
C1072 C1074 1.395 . S
C1072 C1075 1.403 . S
H1073 C1079 0.930 . S
C1074 H1060 0.930 . S
C1074 C1072 1.395 . S
C1074 C1077 1.403 . S
C1075 C1072 1.403 . S
C1075 C1076 1.524 . S
C1075 C1079 1.400 . S
C1076 H1061 0.960 . S
C1076 H1062 0.960 . S
C1076 H1063 0.960 . S
C1076 C1075 1.524 . S
C1077 C1074 1.403 . S
C1077 C1078 1.392 . S
C1077 C1081 1.495 . S
C1078 C1077 1.392 . S
C1078 C1079 1.385 . S
C1078 C1080 1.478 . S
C1079 H1073 0.930 . S
C1079 C1075 1.400 . S
C1079 C1078 1.385 . S
C1080 C1078 1.478 . S
C1080 C1082 1.381 . S
C1080 C1086 1.383 . S
C1081 C1077 1.495 . S
C1081 H1087 0.959 . S
C1081 H1088 0.961 . S
C1081 H1089 0.960 . S
C1082 C1080 1.381 . S
C1082 C1083 1.394 . S
C1082 H1090 0.930 . S
C1083 C1082 1.394 . S
C1083 C1084 1.383 . S
C1083 H1091 0.929 . S
C1084 C1083 1.383 . S
C1084 C1085 1.377 . S
C1085 H1069 0.930 . S
C1085 C1084 1.377 . S
C1085 C1086 1.379 . S
C1086 H1070 0.931 . S
C1086 C1080 1.383 . S
C1086 C1085 1.379 . S
H1087 C1081 0.959 . S
H1088 C1081 0.961 . S
H1089 C1081 0.960 . S
H1090 C1082 0.930 . S
H1091 C1083 0.929 . S
H1092 C1100 0.929 . S
H1093 C1102 0.930 . S
H1094 C1104 0.930 . S
H1095 C1107 0.929 . S
H1096 C1110 0.930 . S
H1097 C1112 0.960 . S
H1098 C1112 0.960 . S
H1099 C1112 0.960 . S
C1100 H1092 0.929 . S
C1100 C1101 1.377 . S
C1100 C1102 1.384 . S
C1101 C1100 1.377 . S
C1101 C1107 1.390 . S
C1102 H1093 0.930 . S
C1102 C1100 1.384 . S
C1102 C1103 1.372 . S
C1103 C1102 1.372 . S
C1103 C1104 1.400 . S
C1103 C1108 1.490 . S
C1104 H1094 0.930 . S
C1104 C1103 1.400 . S
C1104 C1107 1.386 . S
H1105 C1121 0.930 . S
H1106 C1122 0.931 . S
C1107 H1095 0.929 . S
C1107 C1101 1.390 . S
C1107 C1104 1.386 . S
C1108 C1103 1.490 . S
C1108 C1110 1.395 . S
C1108 C1111 1.403 . S
H1109 C1115 0.930 . S
C1110 H1096 0.930 . S
C1110 C1108 1.395 . S
C1110 C1113 1.403 . S
C1111 C1108 1.403 . S
C1111 C1112 1.524 . S
C1111 C1115 1.400 . S
C1112 H1097 0.960 . S
C1112 H1098 0.960 . S
C1112 H1099 0.960 . S
C1112 C1111 1.524 . S
C1113 C1110 1.403 . S
C1113 C1114 1.392 . S
C1113 C1117 1.495 . S
C1114 C1113 1.392 . S
C1114 C1115 1.385 . S
C1114 C1116 1.478 . S
C1115 H1109 0.930 . S
C1115 C1111 1.400 . S
C1115 C1114 1.385 . S
C1116 C1114 1.478 . S
C1116 C1118 1.381 . S
C1116 C1122 1.383 . S
C1117 C1113 1.495 . S
C1117 H1123 0.959 . S
C1117 H1124 0.961 . S
C1117 H1125 0.960 . S
C1118 C1116 1.381 . S
C1118 C1119 1.394 . S
C1118 H1126 0.930 . S
C1119 C1118 1.394 . S
C1119 C1120 1.383 . S
C1119 H1127 0.929 . S
C1120 C1119 1.383 . S
C1120 C1121 1.377 . S
C1121 H1105 0.930 . S
C1121 C1120 1.377 . S
C1121 C1122 1.379 . S
C1122 H1106 0.931 . S
C1122 C1116 1.383 . S
C1122 C1121 1.379 . S
H1123 C1117 0.959 . S
H1124 C1117 0.961 . S
H1125 C1117 0.960 . S
H1126 C1118 0.930 . S
H1127 C1119 0.929 . S
H1128 C1136 0.929 . S
H1129 C1138 0.930 . S
H1130 C1140 0.930 . S
H1131 C1143 0.929 . S
H1132 C1146 0.930 . S
H1133 C1148 0.960 . S
H1134 C1148 0.960 . S
H1135 C1148 0.960 . S
C1136 H1128 0.929 . S
C1136 C1137 1.377 . S
C1136 C1138 1.384 . S
C1137 C1136 1.377 . S
C1137 C1143 1.390 . S
C1138 H1129 0.930 . S
C1138 C1136 1.384 . S
C1138 C1139 1.372 . S
C1139 C1138 1.372 . S
C1139 C1140 1.400 . S
C1139 C1144 1.490 . S
C1140 H1130 0.930 . S
C1140 C1139 1.400 . S
C1140 C1143 1.386 . S
H1141 C1157 0.930 . S
H1142 C1158 0.931 . S
C1143 H1131 0.929 . S
C1143 C1137 1.390 . S
C1143 C1140 1.386 . S
C1144 C1139 1.490 . S
C1144 C1146 1.395 . S
C1144 C1147 1.403 . S
H1145 C1151 0.930 . S
C1146 H1132 0.930 . S
C1146 C1144 1.395 . S
C1146 C1149 1.403 . S
C1147 C1144 1.403 . S
C1147 C1148 1.524 . S
C1147 C1151 1.400 . S
C1148 H1133 0.960 . S
C1148 H1134 0.960 . S
C1148 H1135 0.960 . S
C1148 C1147 1.524 . S
C1149 C1146 1.403 . S
C1149 C1150 1.392 . S
C1149 C1153 1.495 . S
C1150 C1149 1.392 . S
C1150 C1151 1.385 . S
C1150 C1152 1.478 . S
C1151 H1145 0.930 . S
C1151 C1147 1.400 . S
C1151 C1150 1.385 . S
C1152 C1150 1.478 . S
C1152 C1154 1.381 . S
C1152 C1158 1.383 . S
C1153 C1149 1.495 . S
C1153 H1159 0.959 . S
C1153 H1160 0.961 . S
C1153 H1161 0.960 . S
C1154 C1152 1.381 . S
C1154 C1155 1.394 . S
C1154 H1162 0.930 . S
C1155 C1154 1.394 . S
C1155 C1156 1.383 . S
C1155 H1163 0.929 . S
C1156 C1155 1.383 . S
C1156 C1157 1.377 . S
C1157 H1141 0.930 . S
C1157 C1156 1.377 . S
C1157 C1158 1.379 . S
C1158 H1142 0.931 . S
C1158 C1152 1.383 . S
C1158 C1157 1.379 . S
H1159 C1153 0.959 . S
H1160 C1153 0.961 . S
H1161 C1153 0.960 . S
H1162 C1154 0.930 . S
H1163 C1155 0.929 . S
H1164 C1172 0.929 . S
H1165 C1174 0.930 . S
H1166 C1176 0.930 . S
H1167 C1179 0.929 . S
H1168 C1182 0.930 . S
H1169 C1184 0.914 1_455 S
H1170 C1184 0.959 . S
H1171 C1184 0.953 1_455 S
C1172 H1164 0.929 . S
C1172 C1173 1.377 . S
C1172 C1174 1.384 . S
C1173 C1172 1.377 . S
C1173 C1179 1.390 1_655 S
C1174 H1165 0.930 . S
C1174 C1172 1.384 . S
C1174 C1175 1.372 . S
C1175 C1174 1.372 . S
C1175 C1176 1.400 . S
C1175 C1180 1.490 . S
C1176 H1166 0.930 . S
C1176 C1175 1.400 . S
C1176 C1179 1.386 1_655 S
H1177 C1193 0.930 . S
H1178 C1194 0.931 . S
C1179 H1167 0.929 . S
C1179 C1173 1.390 1_455 S
C1179 C1176 1.386 1_455 S
C1180 C1175 1.490 . S
C1180 C1182 1.395 . S
C1180 C1183 1.403 . S
H1181 C1187 0.930 . S
C1182 H1168 0.930 . S
C1182 C1180 1.395 . S
C1182 C1185 1.403 . S
C1183 C1180 1.403 . S
C1183 C1184 1.584 . S
C1183 C1187 1.400 . S
C1184 H1169 0.914 1_655 S
C1184 H1170 0.959 . S
C1184 H1171 0.953 1_655 S
C1184 C1183 1.584 . S
C1185 C1182 1.403 . S
C1185 C1186 1.392 . S
C1185 C1189 1.495 . S
C1186 C1185 1.392 . S
C1186 C1187 1.385 . S
C1186 C1188 1.478 . S
C1187 H1181 0.930 . S
C1187 C1183 1.400 . S
C1187 C1186 1.385 . S
C1188 C1186 1.478 . S
C1188 C1190 1.381 . S
C1188 C1194 1.383 . S
C1189 C1185 1.495 . S
C1189 H1195 0.959 . S
C1189 H1196 0.961 . S
C1189 H1197 0.960 . S
C1190 C1188 1.381 . S
C1190 C1191 1.394 . S
C1190 H1198 0.930 . S
C1191 C1190 1.394 . S
C1191 C1192 1.383 . S
C1191 H1199 0.929 . S
C1192 C1191 1.383 . S
C1192 C1193 1.377 . S
C1193 H1177 0.930 . S
C1193 C1192 1.377 . S
C1193 C1194 1.379 . S
C1194 H1178 0.931 . S
C1194 C1188 1.383 . S
C1194 C1193 1.379 . S
H1195 C1189 0.959 . S
H1196 C1189 0.961 . S
H1197 C1189 0.960 . S
H1198 C1190 0.930 . S
H1199 C1191 0.929 . S
H1200 C1208 0.929 . S
H1201 C1210 0.930 . S
H1202 C1212 0.930 . S
H1203 C1215 0.929 . S
H1204 C1218 0.930 . S
H1205 C1220 0.960 . S
H1206 C1220 0.960 . S
H1207 C1220 0.960 . S
C1208 H1200 0.929 . S
C1208 C1209 1.377 . S
C1208 C1210 1.384 . S
C1209 C1208 1.377 . S
C1209 C1215 1.390 . S
C1210 H1201 0.930 . S
C1210 C1208 1.384 . S
C1210 C1211 1.372 . S
C1211 C1210 1.372 . S
C1211 C1212 1.400 . S
C1211 C1216 1.490 . S
C1212 H1202 0.930 . S
C1212 C1211 1.400 . S
C1212 C1215 1.386 . S
H1213 C1229 0.930 . S
H1214 C1230 0.931 . S
C1215 H1203 0.929 . S
C1215 C1209 1.390 . S
C1215 C1212 1.386 . S
C1216 C1211 1.490 . S
C1216 C1218 1.395 . S
C1216 C1219 1.403 . S
H1217 C1223 0.930 . S
C1218 H1204 0.930 . S
C1218 C1216 1.395 . S
C1218 C1221 1.403 . S
C1219 C1216 1.403 . S
C1219 C1220 1.524 . S
C1219 C1223 1.400 . S
C1220 H1205 0.960 . S
C1220 H1206 0.960 . S
C1220 H1207 0.960 . S
C1220 C1219 1.524 . S
C1221 C1218 1.403 . S
C1221 C1222 1.392 . S
C1221 C1225 1.495 . S
C1222 C1221 1.392 . S
C1222 C1223 1.385 . S
C1222 C1224 1.478 . S
C1223 H1217 0.930 . S
C1223 C1219 1.400 . S
C1223 C1222 1.385 . S
C1224 C1222 1.478 . S
C1224 C1226 1.381 . S
C1224 C1230 1.383 . S
C1225 C1221 1.495 . S
C1225 H1231 0.959 1_655 S
C1225 H1232 0.961 . S
C1225 H1233 0.960 . S
C1226 C1224 1.381 . S
C1226 C1227 1.394 . S
C1226 H1234 0.930 . S
C1227 C1226 1.394 . S
C1227 C1228 1.383 . S
C1227 H1235 0.929 . S
C1228 C1227 1.383 . S
C1228 C1229 1.377 . S
C1229 H1213 0.930 . S
C1229 C1228 1.377 . S
C1229 C1230 1.379 . S
C1230 H1214 0.931 . S
C1230 C1224 1.383 . S
C1230 C1229 1.379 . S
H1231 C1225 0.959 1_455 S
H1232 C1225 0.961 . S
H1233 C1225 0.960 . S
H1234 C1226 0.930 . S
H1235 C1227 0.929 . S
H1236 C1244 0.929 . S
H1237 C1246 0.930 . S
H1238 C1248 0.930 . S
H1239 C1251 0.929 . S
H1240 C1254 0.930 . S
H1241 C1256 0.960 . S
H1242 C1256 0.960 . S
H1243 C1256 0.960 . S
C1244 H1236 0.929 . S
C1244 C1245 1.377 . S
C1244 C1246 1.384 . S
C1245 C1244 1.377 . S
C1245 C1251 1.390 . S
C1246 H1237 0.930 . S
C1246 C1244 1.384 . S
C1246 C1247 1.372 . S
C1247 C1246 1.372 . S
C1247 C1248 1.400 . S
C1247 C1252 1.490 . S
C1248 H1238 0.930 . S
C1248 C1247 1.400 . S
C1248 C1251 1.386 . S
H1249 C1265 0.930 . S
H1250 C1266 0.931 . S
C1251 H1239 0.929 . S
C1251 C1245 1.390 . S
C1251 C1248 1.386 . S
C1252 C1247 1.490 . S
C1252 C1254 1.395 . S
C1252 C1255 1.403 . S
H1253 C1259 0.930 . S
C1254 H1240 0.930 . S
C1254 C1252 1.395 . S
C1254 C1257 1.403 . S
C1255 C1252 1.403 . S
C1255 C1256 1.524 . S
C1255 C1259 1.400 . S
C1256 H1241 0.960 . S
C1256 H1242 0.960 . S
C1256 H1243 0.960 . S
C1256 C1255 1.524 . S
C1257 C1254 1.403 . S
C1257 C1258 1.392 . S
C1257 C1261 1.495 . S
C1258 C1257 1.392 . S
C1258 C1259 1.385 . S
C1258 C1260 1.478 . S
C1259 H1253 0.930 . S
C1259 C1255 1.400 . S
C1259 C1258 1.385 . S
C1260 C1258 1.478 . S
C1260 C1262 1.381 . S
C1260 C1266 1.383 . S
C1261 C1257 1.495 . S
C1261 H1267 0.959 . S
C1261 H1268 0.961 . S
C1261 H1269 0.960 . S
C1262 C1260 1.381 . S
C1262 C1263 1.394 . S
C1262 H1270 0.930 . S
C1263 C1262 1.394 . S
C1263 C1264 1.383 . S
C1263 H1271 0.929 . S
C1264 C1263 1.383 . S
C1264 C1265 1.377 . S
C1265 H1249 0.930 . S
C1265 C1264 1.377 . S
C1265 C1266 1.379 . S
C1266 H1250 0.931 . S
C1266 C1260 1.383 . S
C1266 C1265 1.379 . S
H1267 C1261 0.959 . S
H1268 C1261 0.961 . S
H1269 C1261 0.960 . S
H1270 C1262 0.930 . S
H1271 C1263 0.929 . S
H1272 C1280 0.929 . S
H1273 C1282 0.930 . S
H1274 C1284 0.930 . S
H1275 C1287 0.929 . S
H1276 C1290 0.930 . S
H1277 C1292 0.960 . S
H1278 C1292 0.960 . S
H1279 C1292 0.960 . S
C1280 H1272 0.929 . S
C1280 C1281 1.377 . S
C1280 C1282 1.384 . S
C1281 C1280 1.377 . S
C1281 C1287 1.390 . S
C1282 H1273 0.930 . S
C1282 C1280 1.384 . S
C1282 C1283 1.372 . S
C1283 C1282 1.372 . S
C1283 C1284 1.400 . S
C1283 C1288 1.490 . S
C1284 H1274 0.930 . S
C1284 C1283 1.400 . S
C1284 C1287 1.386 . S
H1285 C1301 0.930 . S
H1286 C1302 0.931 . S
C1287 H1275 0.929 . S
C1287 C1281 1.390 . S
C1287 C1284 1.386 . S
C1288 C1283 1.490 . S
C1288 C1290 1.395 . S
C1288 C1291 1.403 . S
H1289 C1295 0.930 . S
C1290 H1276 0.930 . S
C1290 C1288 1.395 . S
C1290 C1293 1.403 . S
C1291 C1288 1.403 . S
C1291 C1292 1.524 . S
C1291 C1295 1.400 . S
C1292 H1277 0.960 . S
C1292 H1278 0.960 . S
C1292 H1279 0.960 . S
C1292 C1291 1.524 . S
C1293 C1290 1.403 . S
C1293 C1294 1.392 . S
C1293 C1297 1.495 . S
C1294 C1293 1.392 . S
C1294 C1295 1.385 . S
C1294 C1296 1.478 . S
C1295 H1289 0.930 . S
C1295 C1291 1.400 . S
C1295 C1294 1.385 . S
C1296 C1294 1.478 . S
C1296 C1298 1.381 . S
C1296 C1302 1.383 . S
C1297 C1293 1.495 . S
C1297 H1303 0.959 . S
C1297 H1304 0.961 . S
C1297 H1305 0.960 . S
C1298 C1296 1.381 . S
C1298 C1299 1.394 . S
C1298 H1306 0.930 . S
C1299 C1298 1.394 . S
C1299 C1300 1.383 . S
C1299 H1307 0.929 . S
C1300 C1299 1.383 . S
C1300 C1301 1.377 . S
C1301 H1285 0.930 . S
C1301 C1300 1.377 . S
C1301 C1302 1.379 . S
C1302 H1286 0.931 . S
C1302 C1296 1.383 . S
C1302 C1301 1.379 . S
H1303 C1297 0.959 . S
H1304 C1297 0.961 . S
H1305 C1297 0.960 . S
H1306 C1298 0.930 . S
H1307 C1299 0.929 . S
H1308 C1316 0.929 . S
H1309 C1318 0.930 . S
H1310 C1320 0.930 . S
H1311 C1323 0.929 . S
H1312 C1326 0.930 . S
H1313 C1328 0.960 . S
H1314 C1328 0.960 . S
H1315 C1328 0.960 . S
C1316 H1308 0.929 . S
C1316 C1317 1.377 . S
C1316 C1318 1.384 . S
C1317 C1316 1.377 . S
C1317 C1323 1.390 . S
C1318 H1309 0.930 . S
C1318 C1316 1.384 . S
C1318 C1319 1.372 . S
C1319 C1318 1.372 . S
C1319 C1320 1.400 . S
C1319 C1324 1.490 . S
C1320 H1310 0.930 . S
C1320 C1319 1.400 . S
C1320 C1323 1.386 . S
H1321 C1337 0.930 . S
H1322 C1338 0.931 . S
C1323 H1311 0.929 . S
C1323 C1317 1.390 . S
C1323 C1320 1.386 . S
C1324 C1319 1.490 . S
C1324 C1326 1.395 . S
C1324 C1327 1.403 . S
H1325 C1331 0.930 . S
C1326 H1312 0.930 . S
C1326 C1324 1.395 . S
C1326 C1329 1.403 . S
C1327 C1324 1.403 . S
C1327 C1328 1.524 . S
C1327 C1331 1.400 . S
C1328 H1313 0.960 . S
C1328 H1314 0.960 . S
C1328 H1315 0.960 . S
C1328 C1327 1.524 . S
C1329 C1326 1.403 . S
C1329 C1330 1.392 . S
C1329 C1333 1.495 . S
C1330 C1329 1.392 . S
C1330 C1331 1.385 . S
C1330 C1332 1.478 . S
C1331 H1325 0.930 . S
C1331 C1327 1.400 . S
C1331 C1330 1.385 . S
C1332 C1330 1.478 . S
C1332 C1334 1.381 . S
C1332 C1338 1.383 . S
C1333 C1329 1.495 . S
C1333 H1339 0.959 . S
C1333 H1340 0.961 . S
C1333 H1341 0.960 . S
C1334 C1332 1.381 . S
C1334 C1335 1.394 . S
C1334 H1342 0.930 . S
C1335 C1334 1.394 . S
C1335 C1336 1.383 . S
C1335 H1343 0.929 . S
C1336 C1335 1.383 . S
C1336 C1337 1.377 . S
C1337 H1321 0.930 . S
C1337 C1336 1.377 . S
C1337 C1338 1.379 . S
C1338 H1322 0.931 . S
C1338 C1332 1.383 . S
C1338 C1337 1.379 . S
H1339 C1333 0.959 . S
H1340 C1333 0.961 . S
H1341 C1333 0.960 . S
H1342 C1334 0.930 . S
H1343 C1335 0.929 . S
H1344 C1352 0.929 . S
H1345 C1354 0.930 . S
H1346 C1356 0.930 . S
H1347 C1359 0.929 . S
H1348 C1362 0.930 . S
H1349 C1364 0.960 . S
H1350 C1364 0.960 . S
H1351 C1364 0.960 . S
C1352 H1344 0.929 . S
C1352 C1353 1.377 . S
C1352 C1354 1.384 . S
C1353 C1352 1.377 . S
C1353 C1359 1.390 . S
C1354 H1345 0.930 . S
C1354 C1352 1.384 . S
C1354 C1355 1.372 . S
C1355 C1354 1.372 . S
C1355 C1356 1.400 . S
C1355 C1360 1.490 . S
C1356 H1346 0.930 . S
C1356 C1355 1.400 . S
C1356 C1359 1.386 . S
H1357 C1373 0.930 . S
H1358 C1374 0.931 . S
C1359 H1347 0.929 . S
C1359 C1353 1.390 . S
C1359 C1356 1.386 . S
C1360 C1355 1.490 . S
C1360 C1362 1.395 . S
C1360 C1363 1.403 . S
H1361 C1367 0.930 . S
C1362 H1348 0.930 . S
C1362 C1360 1.395 . S
C1362 C1365 1.403 . S
C1363 C1360 1.403 . S
C1363 C1364 1.524 . S
C1363 C1367 1.400 . S
C1364 H1349 0.960 . S
C1364 H1350 0.960 . S
C1364 H1351 0.960 . S
C1364 C1363 1.524 . S
C1365 C1362 1.403 . S
C1365 C1366 1.392 . S
C1365 C1369 1.495 . S
C1366 C1365 1.392 . S
C1366 C1367 1.385 . S
C1366 C1368 1.478 . S
C1367 H1361 0.930 . S
C1367 C1363 1.400 . S
C1367 C1366 1.385 . S
C1368 C1366 1.478 . S
C1368 C1370 1.381 . S
C1368 C1374 1.383 . S
C1369 C1365 1.495 . S
C1369 H1375 0.959 . S
C1369 H1376 0.961 . S
C1369 H1377 0.960 . S
C1370 C1368 1.381 . S
C1370 C1371 1.394 . S
C1370 H1378 0.930 . S
C1371 C1370 1.394 . S
C1371 C1372 1.383 . S
C1371 H1379 0.929 . S
C1372 C1371 1.383 . S
C1372 C1373 1.377 . S
C1373 H1357 0.930 . S
C1373 C1372 1.377 . S
C1373 C1374 1.379 . S
C1374 H1358 0.931 . S
C1374 C1368 1.383 . S
C1374 C1373 1.379 . S
H1375 C1369 0.959 . S
H1376 C1369 0.961 . S
H1377 C1369 0.960 . S
H1378 C1370 0.930 . S
H1379 C1371 0.929 . S
H1380 C1388 0.929 . S
H1381 C1390 0.930 . S
H1382 C1392 0.930 . S
H1383 C1395 0.929 . S
H1384 C1398 0.930 . S
H1385 C1400 0.960 . S
H1386 C1400 0.960 . S
H1387 C1400 0.960 . S
C1388 H1380 0.929 . S
C1388 C1389 1.377 . S
C1388 C1390 1.384 . S
C1389 C1388 1.377 . S
C1389 C1395 1.390 . S
C1390 H1381 0.930 . S
C1390 C1388 1.384 . S
C1390 C1391 1.372 . S
C1391 C1390 1.372 . S
C1391 C1392 1.400 . S
C1391 C1396 1.490 . S
C1392 H1382 0.930 . S
C1392 C1391 1.400 . S
C1392 C1395 1.386 . S
H1393 C1409 0.930 . S
H1394 C1410 0.931 . S
C1395 H1383 0.929 . S
C1395 C1389 1.390 . S
C1395 C1392 1.386 . S
C1396 C1391 1.490 . S
C1396 C1398 1.395 . S
C1396 C1399 1.403 . S
H1397 C1403 0.930 . S
C1398 H1384 0.930 . S
C1398 C1396 1.395 . S
C1398 C1401 1.403 . S
C1399 C1396 1.403 . S
C1399 C1400 1.524 . S
C1399 C1403 1.400 . S
C1400 H1385 0.960 . S
C1400 H1386 0.960 . S
C1400 H1387 0.960 . S
C1400 C1399 1.524 . S
C1401 C1398 1.403 . S
C1401 C1402 1.392 . S
C1401 C1405 1.495 . S
C1402 C1401 1.392 . S
C1402 C1403 1.385 . S
C1402 C1404 1.478 . S
C1403 H1397 0.930 . S
C1403 C1399 1.400 . S
C1403 C1402 1.385 . S
C1404 C1402 1.478 . S
C1404 C1406 1.381 . S
C1404 C1410 1.383 . S
C1405 C1401 1.495 . S
C1405 H1411 0.959 . S
C1405 H1412 0.961 . S
C1405 H1413 0.960 . S
C1406 C1404 1.381 . S
C1406 C1407 1.394 . S
C1406 H1414 0.930 . S
C1407 C1406 1.394 . S
C1407 C1408 1.383 . S
C1407 H1415 0.929 . S
C1408 C1407 1.383 . S
C1408 C1409 1.377 . S
C1409 H1393 0.930 . S
C1409 C1408 1.377 . S
C1409 C1410 1.379 . S
C1410 H1394 0.931 . S
C1410 C1404 1.383 . S
C1410 C1409 1.379 . S
H1411 C1405 0.959 . S
H1412 C1405 0.961 . S
H1413 C1405 0.960 . S
H1414 C1406 0.930 . S
H1415 C1407 0.929 . S
H1416 C1424 0.929 . S
H1417 C1426 0.930 . S
H1418 C1428 0.930 . S
H1419 C1431 0.929 . S
H1420 C1434 0.930 . S
H1421 C1436 0.960 . S
H1422 C1436 0.960 . S
H1423 C1436 0.960 . S
C1424 H1416 0.929 . S
C1424 C1425 1.377 . S
C1424 C1426 1.384 . S
C1425 C1424 1.377 . S
C1425 C1431 1.390 . S
C1426 H1417 0.930 . S
C1426 C1424 1.384 . S
C1426 C1427 1.372 . S
C1427 C1426 1.372 . S
C1427 C1428 1.400 . S
C1427 C1432 1.490 . S
C1428 H1418 0.930 . S
C1428 C1427 1.400 . S
C1428 C1431 1.386 . S
H1429 C1445 0.930 . S
H1430 C1446 0.931 . S
C1431 H1419 0.929 . S
C1431 C1425 1.390 . S
C1431 C1428 1.386 . S
C1432 C1427 1.490 . S
C1432 C1434 1.395 . S
C1432 C1435 1.403 . S
H1433 C1439 0.930 . S
C1434 H1420 0.930 . S
C1434 C1432 1.395 . S
C1434 C1437 1.403 . S
C1435 C1432 1.403 . S
C1435 C1436 1.524 . S
C1435 C1439 1.400 . S
C1436 H1421 0.960 . S
C1436 H1422 0.960 . S
C1436 H1423 0.960 . S
C1436 C1435 1.524 . S
C1437 C1434 1.403 . S
C1437 C1438 1.392 . S
C1437 C1441 1.495 . S
C1438 C1437 1.392 . S
C1438 C1439 1.385 . S
C1438 C1440 1.478 . S
C1439 H1433 0.930 . S
C1439 C1435 1.400 . S
C1439 C1438 1.385 . S
C1440 C1438 1.478 . S
C1440 C1442 1.381 . S
C1440 C1446 1.383 . S
C1441 C1437 1.495 . S
C1441 H1447 0.959 . S
C1441 H1448 0.961 . S
C1441 H1449 0.960 . S
C1442 C1440 1.381 . S
C1442 C1443 1.394 . S
C1442 H1450 0.930 . S
C1443 C1442 1.394 . S
C1443 C1444 1.383 . S
C1443 H1451 0.929 . S
C1444 C1443 1.383 . S
C1444 C1445 1.377 . S
C1445 H1429 0.930 . S
C1445 C1444 1.377 . S
C1445 C1446 1.379 . S
C1446 H1430 0.931 . S
C1446 C1440 1.383 . S
C1446 C1445 1.379 . S
H1447 C1441 0.959 . S
H1448 C1441 0.961 . S
H1449 C1441 0.960 . S
H1450 C1442 0.930 . S
H1451 C1443 0.929 . S
H1452 C1460 0.929 . S
H1453 C1462 0.930 . S
H1454 C1464 0.930 . S
H1455 C1467 0.929 . S
H1456 C1470 0.930 . S
H1457 C1472 0.960 . S
H1458 C1472 0.960 . S
H1459 C1472 0.960 . S
C1460 H1452 0.929 . S
C1460 C1461 1.377 . S
C1460 C1462 1.384 . S
C1461 C1460 1.377 . S
C1461 C1467 1.390 . S
C1462 H1453 0.930 . S
C1462 C1460 1.384 . S
C1462 C1463 1.372 . S
C1463 C1462 1.372 . S
C1463 C1464 1.400 . S
C1463 C1468 1.490 . S
C1464 H1454 0.930 . S
C1464 C1463 1.400 . S
C1464 C1467 1.386 . S
H1465 C1481 0.930 . S
H1466 C1482 0.931 . S
C1467 H1455 0.929 . S
C1467 C1461 1.390 . S
C1467 C1464 1.386 . S
C1468 C1463 1.490 . S
C1468 C1470 1.395 . S
C1468 C1471 1.403 . S
H1469 C1475 0.930 . S
C1470 H1456 0.930 . S
C1470 C1468 1.395 . S
C1470 C1473 1.403 . S
C1471 C1468 1.403 . S
C1471 C1472 1.524 . S
C1471 C1475 1.400 . S
C1472 H1457 0.960 . S
C1472 H1458 0.960 . S
C1472 H1459 0.960 . S
C1472 C1471 1.524 . S
C1473 C1470 1.403 . S
C1473 C1474 1.392 . S
C1473 C1477 1.495 . S
C1474 C1473 1.392 . S
C1474 C1475 1.385 . S
C1474 C1476 1.478 . S
C1475 H1469 0.930 . S
C1475 C1471 1.400 . S
C1475 C1474 1.385 . S
C1476 C1474 1.478 . S
C1476 C1478 1.381 . S
C1476 C1482 1.383 . S
C1477 C1473 1.495 . S
C1477 H1483 0.959 . S
C1477 H1484 0.961 . S
C1477 H1485 0.960 . S
C1478 C1476 1.381 . S
C1478 C1479 1.394 . S
C1478 H1486 0.930 . S
C1479 C1478 1.394 . S
C1479 C1480 1.383 . S
C1479 H1487 0.929 . S
C1480 C1479 1.383 . S
C1480 C1481 1.377 . S
C1481 H1465 0.930 . S
C1481 C1480 1.377 . S
C1481 C1482 1.379 . S
C1482 H1466 0.931 . S
C1482 C1476 1.383 . S
C1482 C1481 1.379 . S
H1483 C1477 0.959 . S
H1484 C1477 0.961 . S
H1485 C1477 0.960 . S
H1486 C1478 0.930 . S
H1487 C1479 0.929 . S
H1488 C1496 0.929 . S
H1489 C1498 0.930 . S
H1490 C1500 0.930 . S
H1491 C1503 0.929 . S
H1492 C1506 0.930 . S
H1493 C1508 0.960 . S
H1494 C1508 0.960 . S
H1495 C1508 0.960 . S
C1496 H1488 0.929 . S
C1496 C1497 1.377 . S
C1496 C1498 1.384 . S
C1497 C1496 1.377 . S
C1497 C1503 1.390 . S
C1498 H1489 0.930 . S
C1498 C1496 1.384 . S
C1498 C1499 1.372 . S
C1499 C1498 1.372 . S
C1499 C1500 1.400 . S
C1499 C1504 1.490 . S
C1500 H1490 0.930 . S
C1500 C1499 1.400 . S
C1500 C1503 1.386 . S
H1501 C1517 0.930 . S
H1502 C1518 0.931 . S
C1503 H1491 0.929 . S
C1503 C1497 1.390 . S
C1503 C1500 1.386 . S
C1504 C1499 1.490 . S
C1504 C1506 1.395 . S
C1504 C1507 1.403 . S
H1505 C1511 0.930 . S
C1506 H1492 0.930 . S
C1506 C1504 1.395 . S
C1506 C1509 1.403 . S
C1507 C1504 1.403 . S
C1507 C1508 1.524 . S
C1507 C1511 1.400 . S
C1508 H1493 0.960 . S
C1508 H1494 0.960 . S
C1508 H1495 0.960 . S
C1508 C1507 1.524 . S
C1509 C1506 1.403 . S
C1509 C1510 1.392 . S
C1509 C1513 1.495 . S
C1510 C1509 1.392 . S
C1510 C1511 1.385 . S
C1510 C1512 1.478 . S
C1511 H1505 0.930 . S
C1511 C1507 1.400 . S
C1511 C1510 1.385 . S
C1512 C1510 1.478 . S
C1512 C1514 1.381 . S
C1512 C1518 1.383 . S
C1513 C1509 1.495 . S
C1513 H1519 0.959 . S
C1513 H1520 0.961 . S
C1513 H1521 0.960 . S
C1514 C1512 1.381 . S
C1514 C1515 1.394 . S
C1514 H1522 0.930 . S
C1515 C1514 1.394 . S
C1515 C1516 1.383 . S
C1515 H1523 0.929 . S
C1516 C1515 1.383 . S
C1516 C1517 1.377 . S
C1517 H1501 0.930 . S
C1517 C1516 1.377 . S
C1517 C1518 1.379 . S
C1518 H1502 0.931 . S
C1518 C1512 1.383 . S
C1518 C1517 1.379 . S
H1519 C1513 0.959 . S
H1520 C1513 0.961 . S
H1521 C1513 0.960 . S
H1522 C1514 0.930 . S
H1523 C1515 0.929 . S
H1524 C1532 0.929 1_545 S
H1525 C1534 0.930 . S
H1526 C1536 0.930 . S
H1527 C1539 0.929 . S
H1528 C1542 0.930 . S
H1529 C1544 0.960 . S
H1530 C1544 0.960 . S
H1531 C1544 0.960 . S
C1532 H1524 0.929 1_565 S
C1532 C1533 1.377 . S
C1532 C1534 1.384 . S
C1533 C1532 1.377 . S
C1533 C1539 1.390 . S
C1534 H1525 0.930 . S
C1534 C1532 1.384 . S
C1534 C1535 1.372 . S
C1535 C1534 1.372 . S
C1535 C1536 1.400 . S
C1535 C1540 1.490 . S
C1536 H1526 0.930 . S
C1536 C1535 1.400 . S
C1536 C1539 1.386 . S
H1537 C1553 0.930 . S
H1538 C1554 0.931 . S
C1539 H1527 0.929 . S
C1539 C1533 1.390 . S
C1539 C1536 1.386 . S
C1540 C1535 1.490 . S
C1540 C1542 1.395 . S
C1540 C1543 1.403 . S
H1541 C1547 0.930 . S
C1542 H1528 0.930 . S
C1542 C1540 1.395 . S
C1542 C1545 1.403 . S
C1543 C1540 1.403 . S
C1543 C1544 1.524 . S
C1543 C1547 1.400 . S
C1544 H1529 0.960 . S
C1544 H1530 0.960 . S
C1544 H1531 0.960 . S
C1544 C1543 1.524 . S
C1545 C1542 1.403 . S
C1545 C1546 1.392 . S
C1545 C1549 1.495 . S
C1546 C1545 1.392 . S
C1546 C1547 1.385 . S
C1546 C1548 1.478 . S
C1547 H1541 0.930 . S
C1547 C1543 1.400 . S
C1547 C1546 1.385 . S
C1548 C1546 1.478 . S
C1548 C1550 1.381 . S
C1548 C1554 1.383 . S
C1549 C1545 1.495 . S
C1549 H1555 0.959 . S
C1549 H1556 0.961 . S
C1549 H1557 0.960 . S
C1550 C1548 1.381 . S
C1550 C1551 1.394 . S
C1550 H1558 0.930 . S
C1551 C1550 1.394 . S
C1551 C1552 1.383 . S
C1551 H1559 0.929 . S
C1552 C1551 1.383 . S
C1552 C1553 1.377 . S
C1553 H1537 0.930 . S
C1553 C1552 1.377 . S
C1553 C1554 1.379 . S
C1554 H1538 0.931 . S
C1554 C1548 1.383 . S
C1554 C1553 1.379 . S
H1555 C1549 0.959 . S
H1556 C1549 0.961 . S
H1557 C1549 0.960 . S
H1558 C1550 0.930 . S
H1559 C1551 0.929 . S
H1560 C1568 0.929 . S
H1561 C1570 0.930 . S
H1562 C1572 0.930 . S
H1563 C1575 0.929 . S
H1564 C1578 0.930 . S
H1565 C1580 0.960 . S
H1566 C1580 0.960 . S
H1567 C1580 0.960 . S
C1568 H1560 0.929 . S
C1568 C1569 1.377 . S
C1568 C1570 1.384 . S
C1569 C1568 1.377 . S
C1569 C1575 1.390 . S
C1570 H1561 0.930 . S
C1570 C1568 1.384 . S
C1570 C1571 1.372 . S
C1571 C1570 1.372 . S
C1571 C1572 1.400 . S
C1571 C1576 1.490 . S
C1572 H1562 0.930 . S
C1572 C1571 1.400 . S
C1572 C1575 1.386 . S
H1573 C1589 0.930 . S
H1574 C1590 0.931 . S
C1575 H1563 0.929 . S
C1575 C1569 1.390 . S
C1575 C1572 1.386 . S
C1576 C1571 1.490 . S
C1576 C1578 1.395 . S
C1576 C1579 1.403 . S
H1577 C1583 0.930 . S
C1578 H1564 0.930 . S
C1578 C1576 1.395 . S
C1578 C1581 1.403 . S
C1579 C1576 1.403 . S
C1579 C1580 1.524 . S
C1579 C1583 1.400 . S
C1580 H1565 0.960 . S
C1580 H1566 0.960 . S
C1580 H1567 0.960 . S
C1580 C1579 1.524 . S
C1581 C1578 1.403 . S
C1581 C1582 1.392 . S
C1581 C1585 1.495 . S
C1582 C1581 1.392 . S
C1582 C1583 1.385 . S
C1582 C1584 1.478 . S
C1583 H1577 0.930 . S
C1583 C1579 1.400 . S
C1583 C1582 1.385 . S
C1584 C1582 1.478 . S
C1584 C1586 1.381 . S
C1584 C1590 1.383 . S
C1585 C1581 1.495 . S
C1585 H1591 0.959 . S
C1585 H1592 0.961 . S
C1585 H1593 0.960 . S
C1586 C1584 1.381 . S
C1586 C1587 1.394 . S
C1586 H1594 0.930 . S
C1587 C1586 1.394 . S
C1587 C1588 1.383 . S
C1587 H1595 0.929 . S
C1588 C1587 1.383 . S
C1588 C1589 1.377 . S
C1589 H1573 0.930 . S
C1589 C1588 1.377 . S
C1589 C1590 1.379 . S
C1590 H1574 0.931 . S
C1590 C1584 1.383 . S
C1590 C1589 1.379 . S
H1591 C1585 0.959 . S
H1592 C1585 0.961 . S
H1593 C1585 0.960 . S
H1594 C1586 0.930 . S
H1595 C1587 0.929 . S
H1596 C1604 0.929 . S
H1597 C1606 0.930 . S
H1598 C1608 0.930 . S
H1599 C1611 0.929 . S
H1600 C1614 0.930 . S
H1601 C1616 0.960 . S
H1602 C1616 0.960 . S
H1603 C1616 0.960 . S
C1604 H1596 0.929 . S
C1604 C1605 1.377 . S
C1604 C1606 1.384 . S
C1605 C1604 1.377 . S
C1605 C1611 1.390 . S
C1606 H1597 0.930 . S
C1606 C1604 1.384 . S
C1606 C1607 1.372 . S
C1607 C1606 1.372 . S
C1607 C1608 1.400 . S
C1607 C1612 1.490 . S
C1608 H1598 0.930 . S
C1608 C1607 1.400 . S
C1608 C1611 1.386 . S
H1609 C1625 0.930 . S
H1610 C1626 0.931 . S
C1611 H1599 0.929 . S
C1611 C1605 1.390 . S
C1611 C1608 1.386 . S
C1612 C1607 1.490 . S
C1612 C1614 1.395 . S
C1612 C1615 1.403 . S
H1613 C1619 0.930 . S
C1614 H1600 0.930 . S
C1614 C1612 1.395 . S
C1614 C1617 1.403 . S
C1615 C1612 1.403 . S
C1615 C1616 1.524 . S
C1615 C1619 1.400 . S
C1616 H1601 0.960 . S
C1616 H1602 0.960 . S
C1616 H1603 0.960 . S
C1616 C1615 1.524 . S
C1617 C1614 1.403 . S
C1617 C1618 1.392 . S
C1617 C1621 1.495 . S
C1618 C1617 1.392 . S
C1618 C1619 1.385 . S
C1618 C1620 1.478 . S
C1619 H1613 0.930 . S
C1619 C1615 1.400 . S
C1619 C1618 1.385 . S
C1620 C1618 1.478 . S
C1620 C1622 1.381 . S
C1620 C1626 1.383 . S
C1621 C1617 1.495 . S
C1621 H1627 0.959 . S
C1621 H1628 0.961 . S
C1621 H1629 0.960 . S
C1622 C1620 1.381 . S
C1622 C1623 1.394 . S
C1622 H1630 0.930 . S
C1623 C1622 1.394 . S
C1623 C1624 1.383 . S
C1623 H1631 0.929 . S
C1624 C1623 1.383 . S
C1624 C1625 1.377 . S
C1625 H1609 0.930 . S
C1625 C1624 1.377 . S
C1625 C1626 1.379 . S
C1626 H1610 0.931 . S
C1626 C1620 1.383 . S
C1626 C1625 1.379 . S
H1627 C1621 0.959 . S
H1628 C1621 0.961 . S
H1629 C1621 0.960 . S
H1630 C1622 0.930 . S
H1631 C1623 0.929 . S
C777 C13 1.898 . S
C796 C113 1.688 . S
C813 C27 1.933 . S
C832 C253 1.633 . S
C868 C341 1.618 . S
C849 C29 1.853 . S
C904 C481 1.643 . S
C885 C54 1.929 . S
C940 C595 1.657 . S
C921 C69 1.906 . S
C976 C665 1.012 . S
C957 C83 1.916 . S
C993 C15 1.910 . S
C1012 C323 1.001 . S
C1029 C41 1.790 . S
C1048 C427 1.262 . S
C1084 C541 1.367 . S
C1065 C42 1.836 . S
C1120 C683 1.688 . S
C1101 C57 1.851 . S
C1137 C71 1.994 . S
C1156 C95 1.047 . S
C1192 C199 1.221 . S
C1173 C1 1.750 1_655 S
C1228 C437 1.532 . S
C1209 C12 2.026 1_655 S
C1245 C26 2.026 . S
C1264 C551 1.552 . S
C1300 C709 1.361 . S
C1281 C28 2.115 . S
C1317 C55 1.898 . S
C1336 C85 1.693 . S
C1353 C68 2.145 . S
C1372 C209 1.594 . S
C1389 C82 1.867 . S
C1408 C313 1.649 . S
C1425 C14 1.943 . S
C1444 C655 1.647 . S
C1480 C139 1.344 . S
C1461 C40 2.035 . S
C1497 C43 1.949 . S
C1516 C227 1.365 . S
C1533 C56 2.038 . S
C1552 C367 1.217 . S
C1569 C70 1.922 . S
C1588 C455 1.362 . S
C1605 C0 1.984 . S
C1624 C569 1.387 . S
