# Generated by pormake.
# Topology eea, (3,6)-cn, num edge types: 1
# Building blocks:
#     Node 0, Type 0, BuildingBlock: VETTIZ_charged_linker_0, # of connection points: 3
#     Node 1, Type 0, BuildingBlock: VETTIZ_charged_linker_0, # of connection points: 3
#     Node 2, Type 0, BuildingBlock: VETTIZ_charged_linker_0, # of connection points: 3
#     Node 3, Type 0, BuildingBlock: VETTIZ_charged_linker_0, # of connection points: 3
#     Node 4, Type 0, BuildingBlock: VETTIZ_charged_linker_0, # of connection points: 3
#     Node 5, Type 0, BuildingBlock: VETTIZ_charged_linker_0, # of connection points: 3
#     Node 6, Type 0, BuildingBlock: VETTIZ_charged_linker_0, # of connection points: 3
#     Node 7, Type 0, BuildingBlock: VETTIZ_charged_linker_0, # of connection points: 3
#     Node 8, Type 0, BuildingBlock: VETTIZ_charged_linker_0, # of connection points: 3
#     Node 9, Type 0, BuildingBlock: VETTIZ_charged_linker_0, # of connection points: 3
#     Node 10, Type 0, BuildingBlock: VETTIZ_charged_linker_0, # of connection points: 3
#     Node 11, Type 0, BuildingBlock: VETTIZ_charged_linker_0, # of connection points: 3
#     Node 12, Type 0, BuildingBlock: VETTIZ_charged_linker_0, # of connection points: 3
#     Node 13, Type 0, BuildingBlock: VETTIZ_charged_linker_0, # of connection points: 3
#     Node 14, Type 0, BuildingBlock: VETTIZ_charged_linker_0, # of connection points: 3
#     Node 15, Type 0, BuildingBlock: VETTIZ_charged_linker_0, # of connection points: 3
#     Node 16, Type 0, BuildingBlock: VETTIZ_charged_linker_0, # of connection points: 3
#     Node 17, Type 0, BuildingBlock: VETTIZ_charged_linker_0, # of connection points: 3
#     Node 18, Type 1, BuildingBlock: KUMBUR_clean_sbu_0, # of connection points: 6
#     Node 19, Type 1, BuildingBlock: KUMBUR_clean_sbu_0, # of connection points: 6
#     Node 20, Type 1, BuildingBlock: KUMBUR_clean_sbu_0, # of connection points: 6
#     Node 21, Type 1, BuildingBlock: KUMBUR_clean_sbu_0, # of connection points: 6
#     Node 22, Type 1, BuildingBlock: KUMBUR_clean_sbu_0, # of connection points: 6
#     Node 23, Type 1, BuildingBlock: KUMBUR_clean_sbu_0, # of connection points: 6
#     Node 24, Type 1, BuildingBlock: KUMBUR_clean_sbu_0, # of connection points: 6
#     Node 25, Type 1, BuildingBlock: KUMBUR_clean_sbu_0, # of connection points: 6
#     Node 26, Type 1, BuildingBlock: KUMBUR_clean_sbu_0, # of connection points: 6
#     Edge 27, Type (0, 1), BuildingBlock: MIFKUJ_clean_linker_0, # of connection points: 2
#     Edge 28, Type (0, 1), BuildingBlock: MIFKUJ_clean_linker_0, # of connection points: 2
#     Edge 29, Type (0, 1), BuildingBlock: MIFKUJ_clean_linker_0, # of connection points: 2
#     Edge 30, Type (0, 1), BuildingBlock: MIFKUJ_clean_linker_0, # of connection points: 2
#     Edge 31, Type (0, 1), BuildingBlock: MIFKUJ_clean_linker_0, # of connection points: 2
#     Edge 32, Type (0, 1), BuildingBlock: MIFKUJ_clean_linker_0, # of connection points: 2
#     Edge 33, Type (0, 1), BuildingBlock: MIFKUJ_clean_linker_0, # of connection points: 2
#     Edge 34, Type (0, 1), BuildingBlock: MIFKUJ_clean_linker_0, # of connection points: 2
#     Edge 35, Type (0, 1), BuildingBlock: MIFKUJ_clean_linker_0, # of connection points: 2
#     Edge 36, Type (0, 1), BuildingBlock: MIFKUJ_clean_linker_0, # of connection points: 2
#     Edge 37, Type (0, 1), BuildingBlock: MIFKUJ_clean_linker_0, # of connection points: 2
#     Edge 38, Type (0, 1), BuildingBlock: MIFKUJ_clean_linker_0, # of connection points: 2
#     Edge 39, Type (0, 1), BuildingBlock: MIFKUJ_clean_linker_0, # of connection points: 2
#     Edge 40, Type (0, 1), BuildingBlock: MIFKUJ_clean_linker_0, # of connection points: 2
#     Edge 41, Type (0, 1), BuildingBlock: MIFKUJ_clean_linker_0, # of connection points: 2
#     Edge 42, Type (0, 1), BuildingBlock: MIFKUJ_clean_linker_0, # of connection points: 2
#     Edge 43, Type (0, 1), BuildingBlock: MIFKUJ_clean_linker_0, # of connection points: 2
#     Edge 44, Type (0, 1), BuildingBlock: MIFKUJ_clean_linker_0, # of connection points: 2
#     Edge 45, Type (0, 1), BuildingBlock: MIFKUJ_clean_linker_0, # of connection points: 2
#     Edge 46, Type (0, 1), BuildingBlock: MIFKUJ_clean_linker_0, # of connection points: 2
#     Edge 47, Type (0, 1), BuildingBlock: MIFKUJ_clean_linker_0, # of connection points: 2
#     Edge 48, Type (0, 1), BuildingBlock: MIFKUJ_clean_linker_0, # of connection points: 2
#     Edge 49, Type (0, 1), BuildingBlock: MIFKUJ_clean_linker_0, # of connection points: 2
#     Edge 50, Type (0, 1), BuildingBlock: MIFKUJ_clean_linker_0, # of connection points: 2
#     Edge 51, Type (0, 1), BuildingBlock: MIFKUJ_clean_linker_0, # of connection points: 2
#     Edge 52, Type (0, 1), BuildingBlock: MIFKUJ_clean_linker_0, # of connection points: 2
#     Edge 53, Type (0, 1), BuildingBlock: MIFKUJ_clean_linker_0, # of connection points: 2
#     Edge 54, Type (0, 1), BuildingBlock: MIFKUJ_clean_linker_0, # of connection points: 2
#     Edge 55, Type (0, 1), BuildingBlock: MIFKUJ_clean_linker_0, # of connection points: 2
#     Edge 56, Type (0, 1), BuildingBlock: MIFKUJ_clean_linker_0, # of connection points: 2
#     Edge 57, Type (0, 1), BuildingBlock: MIFKUJ_clean_linker_0, # of connection points: 2
#     Edge 58, Type (0, 1), BuildingBlock: MIFKUJ_clean_linker_0, # of connection points: 2
#     Edge 59, Type (0, 1), BuildingBlock: MIFKUJ_clean_linker_0, # of connection points: 2
#     Edge 60, Type (0, 1), BuildingBlock: MIFKUJ_clean_linker_0, # of connection points: 2
#     Edge 61, Type (0, 1), BuildingBlock: MIFKUJ_clean_linker_0, # of connection points: 2
#     Edge 62, Type (0, 1), BuildingBlock: MIFKUJ_clean_linker_0, # of connection points: 2
#     Edge 63, Type (0, 1), BuildingBlock: MIFKUJ_clean_linker_0, # of connection points: 2
#     Edge 64, Type (0, 1), BuildingBlock: MIFKUJ_clean_linker_0, # of connection points: 2
#     Edge 65, Type (0, 1), BuildingBlock: MIFKUJ_clean_linker_0, # of connection points: 2
#     Edge 66, Type (0, 1), BuildingBlock: MIFKUJ_clean_linker_0, # of connection points: 2
#     Edge 67, Type (0, 1), BuildingBlock: MIFKUJ_clean_linker_0, # of connection points: 2
#     Edge 68, Type (0, 1), BuildingBlock: MIFKUJ_clean_linker_0, # of connection points: 2
#     Edge 69, Type (0, 1), BuildingBlock: MIFKUJ_clean_linker_0, # of connection points: 2
#     Edge 70, Type (0, 1), BuildingBlock: MIFKUJ_clean_linker_0, # of connection points: 2
#     Edge 71, Type (0, 1), BuildingBlock: MIFKUJ_clean_linker_0, # of connection points: 2
#     Edge 72, Type (0, 1), BuildingBlock: MIFKUJ_clean_linker_0, # of connection points: 2
#     Edge 73, Type (0, 1), BuildingBlock: MIFKUJ_clean_linker_0, # of connection points: 2
#     Edge 74, Type (0, 1), BuildingBlock: MIFKUJ_clean_linker_0, # of connection points: 2
#     Edge 75, Type (0, 1), BuildingBlock: MIFKUJ_clean_linker_0, # of connection points: 2
#     Edge 76, Type (0, 1), BuildingBlock: MIFKUJ_clean_linker_0, # of connection points: 2
#     Edge 77, Type (0, 1), BuildingBlock: MIFKUJ_clean_linker_0, # of connection points: 2
#     Edge 78, Type (0, 1), BuildingBlock: MIFKUJ_clean_linker_0, # of connection points: 2
#     Edge 79, Type (0, 1), BuildingBlock: MIFKUJ_clean_linker_0, # of connection points: 2
#     Edge 80, Type (0, 1), BuildingBlock: MIFKUJ_clean_linker_0, # of connection points: 2
# Relax obj value: 0.010
# Max RMSD: 0.100
# Mean RMSD: 0.054
data_MOF--net-eea--node1-KUMBUR_clean_sbu_0--node2-VETTIZ_charged_linker_0--edge1-MIFKUJ_clean_linker_0
_symmetry_space_group_name_H-M    P1
_symmetry_Int_Tables_number       1
_symmetry_cell_setting            triclinic
loop_
_symmetry_equiv_pos_as_xyz
'x, y, z'
_cell_length_a     77.651683
_cell_length_b     79.01242
_cell_length_c     107.26175
_cell_angle_alpha  90.241443
_cell_angle_beta   90.281201
_cell_angle_gamma 119.97933
loop_
_atom_site_label
_atom_site_type_symbol
_atom_site_fract_x
_atom_site_fract_y
_atom_site_fract_z
_atom_type_partial_charge
C0 C 0.2213 0.16129 0.40618 0.0
C1 C 0.22173 0.17714 0.41243 0.0
C2 C 0.22709 0.18029 0.42515 0.0
C3 C 0.23182 0.15218 0.42511 0.0
C4 C 0.22623 0.14899 0.41268 0.0
C5 C 0.22578 0.13109 0.40749 0.0
H6 H 0.23605 0.05208 0.41663 0.0
C7 C 0.23601 0.13669 0.42906 0.0
C8 C 0.23235 0.12423 0.41879 0.0
H9 H 0.21742 0.06882 0.38305 0.0
H10 H 0.22194 0.09797 0.39328 0.0
H11 H 0.27245 0.09488 0.42274 0.0
H12 H 0.2122 0.06352 0.4358 0.0
H13 H 0.22774 0.07501 0.44877 0.0
H14 H 0.23065 0.05714 0.43997 0.0
H15 H 0.2647 0.07624 0.43434 0.0
H16 H 0.27328 0.10141 0.43847 0.0
C17 C 0.2411 0.13751 0.3968 0.0
C18 C 0.20407 0.11631 0.40353 0.0
C19 C 0.26108 0.13717 0.47302 0.0
C20 C 0.26689 0.12508 0.47912 0.0
C21 C 0.26546 0.10882 0.47268 0.0
C22 C 0.25847 0.10473 0.46036 0.0
C23 C 0.25288 0.11703 0.45435 0.0
C24 C 0.25425 0.13295 0.46066 0.0
C25 C 0.24795 0.14457 0.45268 0.0
C26 C 0.24273 0.13306 0.44053 0.0
C27 C 0.24556 0.1169 0.44161 0.0
C28 C 0.26602 0.16541 0.45126 0.0
C29 C 0.22952 0.14387 0.45872 0.0
C30 C 0.23319 0.06214 0.41143 0.0
C31 C 0.22622 0.05804 0.39903 0.0
C32 C 0.22248 0.07146 0.39267 0.0
C33 C 0.22517 0.08843 0.39862 0.0
C34 C 0.23166 0.09207 0.41109 0.0
C35 C 0.23579 0.07916 0.41724 0.0
C36 C 0.24267 0.08551 0.43045 0.0
C37 C 0.2415 0.10409 0.43129 0.0
C38 C 0.23504 0.10782 0.41994 0.0
C39 C 0.26434 0.08963 0.43169 0.0
C40 C 0.2277 0.06949 0.43929 0.0
H41 H 0.23629 0.17115 0.44117 0.0
H42 H 0.2169 0.15834 0.39645 0.0
H43 H 0.19323 0.11765 0.40961 0.0
H44 H 0.20032 0.10094 0.40451 0.0
H45 H 0.20106 0.11882 0.39378 0.0
H46 H 0.25457 0.15176 0.39906 0.0
H47 H 0.23473 0.1393 0.38794 0.0
H48 H 0.24669 0.12729 0.39523 0.0
H49 H 0.26221 0.14989 0.47768 0.0
H50 H 0.26962 0.09916 0.47723 0.0
H51 H 0.25771 0.09214 0.45599 0.0
H52 H 0.27994 0.16484 0.45002 0.0
H53 H 0.26798 0.17449 0.45965 0.0
H54 H 0.26497 0.17305 0.44296 0.0
H55 H 0.22016 0.1297 0.46348 0.0
H56 H 0.21945 0.14485 0.45181 0.0
H57 H 0.23398 0.15569 0.46578 0.0
H58 H 0.22757 0.19249 0.43012 0.0
C59 C 0.23221 0.16794 0.43152 0.0
C60 C 0.95303 0.16228 0.40273 0.0
C61 C 0.96713 0.18081 0.40738 0.0
C62 C 0.96424 0.18663 0.41927 0.0
C63 C 0.93375 0.15562 0.42171 0.0
C64 C 0.93645 0.15006 0.40997 0.0
C65 C 0.91963 0.13026 0.40619 0.0
H66 H 0.83307 0.04882 0.42059 0.0
C67 C 0.91505 0.13951 0.42681 0.0
C68 C 0.90666 0.12465 0.4177 0.0
H69 H 0.86466 0.06255 0.3857 0.0
H70 H 0.88992 0.09363 0.39415 0.0
H71 H 0.87182 0.06582 0.43877 0.0
H72 H 0.83729 0.09025 0.42426 0.0
H73 H 0.84366 0.09883 0.43964 0.0
H74 H 0.82859 0.07291 0.43672 0.0
H75 H 0.8472 0.0585 0.44407 0.0
H76 H 0.86884 0.07902 0.45097 0.0
C77 C 0.92825 0.11656 0.40404 0.0
C78 C 0.90908 0.13278 0.39462 0.0
C79 C 0.89278 0.14479 0.47062 0.0
C80 C 0.87612 0.13209 0.47775 0.0
C81 C 0.86228 0.11369 0.47269 0.0
C82 C 0.86478 0.10812 0.46073 0.0
C83 C 0.8813 0.12103 0.45365 0.0
C84 C 0.89503 0.13899 0.45862 0.0
C85 C 0.91161 0.1508 0.44965 0.0
C86 C 0.90548 0.13698 0.43849 0.0
C87 C 0.88771 0.11958 0.44092 0.0
C88 C 0.93132 0.1543 0.45562 0.0
C89 C 0.91118 0.16973 0.44657 0.0
C90 C 0.84555 0.05847 0.41483 0.0
C91 C 0.84699 0.05322 0.4025 0.0
C92 C 0.86323 0.06633 0.39521 0.0
C93 C 0.87789 0.08434 0.40014 0.0
C94 C 0.87622 0.08943 0.41248 0.0
C95 C 0.86016 0.07662 0.41956 0.0
C96 C 0.86034 0.0848 0.43228 0.0
C97 C 0.87919 0.1046 0.43169 0.0
C98 C 0.88853 0.10717 0.42012 0.0
C99 C 0.86199 0.07137 0.44212 0.0
C100 C 0.84148 0.08673 0.43342 0.0
H101 H 0.94641 0.17938 0.43545 0.0
H102 H 0.95468 0.15756 0.39354 0.0
H103 H 0.91036 0.14745 0.39457 0.0
H104 H 0.8929 0.12239 0.39447 0.0
H105 H 0.91568 0.13123 0.38582 0.0
H106 H 0.93926 0.11877 0.41147 0.0
H107 H 0.93596 0.11954 0.39493 0.0
H108 H 0.9169 0.10093 0.40441 0.0
H109 H 0.90362 0.15908 0.47418 0.0
H110 H 0.8495 0.10349 0.47804 0.0
H111 H 0.85366 0.09394 0.45746 0.0
H112 H 0.92908 0.14097 0.46053 0.0
H113 H 0.93704 0.16642 0.46256 0.0
H114 H 0.94302 0.15747 0.44871 0.0
H115 H 0.89566 0.167 0.44642 0.0
H116 H 0.91699 0.17541 0.43721 0.0
H117 H 0.91966 0.18134 0.45363 0.0
H118 H 0.97494 0.20082 0.42305 0.0
C119 C 0.94771 0.17413 0.42647 0.0
C120 C 0.95096 0.79707 0.40422 0.0
C121 C 0.96562 0.79351 0.40935 0.0
C122 C 0.96291 0.78602 0.42155 0.0
C123 C 0.93149 0.78555 0.4232 0.0
C124 C 0.93407 0.79291 0.41126 0.0
C125 C 0.91685 0.79539 0.40713 0.0
H126 H 0.82637 0.78532 0.41936 0.0
C127 C 0.91231 0.78268 0.42797 0.0
C128 C 0.90361 0.78838 0.41857 0.0
H129 H 0.86133 0.80756 0.3859 0.0
H130 H 0.88712 0.80293 0.39493 0.0
H131 H 0.8354 0.75018 0.42398 0.0
H132 H 0.86301 0.8091 0.43824 0.0
H133 H 0.86228 0.79422 0.45056 0.0
H134 H 0.8393 0.79028 0.44366 0.0
H135 H 0.82339 0.75817 0.43487 0.0
H136 H 0.83971 0.7495 0.44003 0.0
C137 C 0.90685 0.78191 0.39568 0.0
C138 C 0.92484 0.81735 0.40464 0.0
C139 C 0.88986 0.75617 0.47178 0.0
C140 C 0.87296 0.75207 0.47884 0.0
C141 C 0.85837 0.75546 0.47342 0.0
C142 C 0.86049 0.76272 0.46126 0.0
C143 C 0.87743 0.76671 0.45433 0.0
C144 C 0.89179 0.76349 0.45963 0.0
C145 C 0.90887 0.76872 0.45092 0.0
C146 C 0.90241 0.77563 0.43954 0.0
C147 C 0.88393 0.77435 0.44157 0.0
C148 C 0.90978 0.74992 0.44813 0.0
C149 C 0.92797 0.78546 0.45702 0.0
C150 C 0.83963 0.78937 0.41399 0.0
C151 C 0.84155 0.79668 0.4018 0.0
C152 C 0.85911 0.80153 0.39518 0.0
C153 C 0.87421 0.79896 0.40049 0.0
C154 C 0.87194 0.79147 0.41261 0.0
C155 C 0.85491 0.78694 0.41918 0.0
C156 C 0.85516 0.77941 0.43201 0.0
C157 C 0.87503 0.77997 0.43202 0.0
C158 C 0.88481 0.787 0.42061 0.0
C159 C 0.83746 0.75825 0.4329 0.0
C160 C 0.85478 0.79382 0.4417 0.0
H161 H 0.94497 0.77642 0.43768 0.0
H162 H 0.95242 0.80262 0.39484 0.0
H163 H 0.93669 0.8266 0.4115 0.0
H164 H 0.91338 0.82161 0.40571 0.0
H165 H 0.93133 0.82144 0.39517 0.0
H166 H 0.90665 0.76781 0.39677 0.0
H167 H 0.91502 0.78883 0.38699 0.0
H168 H 0.89112 0.7778 0.39446 0.0
H169 H 0.90148 0.75396 0.47566 0.0
H170 H 0.84507 0.7522 0.47852 0.0
H171 H 0.84878 0.76484 0.4577 0.0
H172 H 0.89458 0.7369 0.4477 0.0
H173 H 0.91824 0.74727 0.4555 0.0
H174 H 0.91631 0.7502 0.43896 0.0
H175 H 0.92465 0.79576 0.46215 0.0
H176 H 0.93936 0.7946 0.45016 0.0
H177 H 0.93457 0.77966 0.46379 0.0
H178 H 0.97401 0.78338 0.42583 0.0
C179 C 0.94603 0.78207 0.42847 0.0
C180 C 0.15569 0.20656 0.60489 0.0
C181 C 0.17332 0.20883 0.59954 0.0
C182 C 0.17712 0.21448 0.58692 0.0
C183 C 0.14679 0.21616 0.58544 0.0
C184 C 0.14268 0.21017 0.59768 0.0
C185 C 0.12315 0.20804 0.60183 0.0
H186 H 0.04228 0.21711 0.58919 0.0
C187 C 0.13049 0.21901 0.58059 0.0
C188 C 0.11648 0.21414 0.59014 0.0
H189 H 0.05544 0.1955 0.62282 0.0
H190 H 0.08593 0.20043 0.61387 0.0
H191 H 0.08691 0.25236 0.5845 0.0
H192 H 0.05528 0.19334 0.57021 0.0
H193 H 0.06851 0.20889 0.55785 0.0
H194 H 0.0494 0.21164 0.56548 0.0
H195 H 0.06708 0.24444 0.57329 0.0
H196 H 0.09236 0.25303 0.56857 0.0
C197 C 0.1274 0.22243 0.6128 0.0
C198 C 0.10892 0.1863 0.60504 0.0
C199 C 0.13479 0.24516 0.53668 0.0
C200 C 0.12255 0.25009 0.52966 0.0
C201 C 0.10476 0.24725 0.53508 0.0
C202 C 0.09937 0.23983 0.54721 0.0
C203 C 0.11186 0.23515 0.55411 0.0
C204 C 0.12922 0.23782 0.5488 0.0
C205 C 0.14077 0.23219 0.5575 0.0
C206 C 0.12756 0.22579 0.56894 0.0
C207 C 0.1106 0.22753 0.56692 0.0
C208 C 0.16115 0.25068 0.56016 0.0
C209 C 0.14211 0.21501 0.55149 0.0
C210 C 0.05158 0.21324 0.59461 0.0
C211 C 0.04628 0.20603 0.60684 0.0
C212 C 0.05916 0.20146 0.61352 0.0
C213 C 0.07687 0.20417 0.60825 0.0
C214 C 0.08196 0.21145 0.59609 0.0
C215 C 0.06934 0.21576 0.58944 0.0
C216 C 0.07706 0.22311 0.57656 0.0
C217 C 0.09629 0.22241 0.57655 0.0
C218 C 0.09916 0.21567 0.58806 0.0
C219 C 0.08098 0.2443 0.57555 0.0
C220 C 0.0618 0.20866 0.56694 0.0
H221 H 0.16799 0.22248 0.57039 0.0
H222 H 0.15214 0.20231 0.61453 0.0
H223 H 0.11191 0.17647 0.59912 0.0
H224 H 0.09315 0.18164 0.6032 0.0
H225 H 0.11071 0.18329 0.61493 0.0
H226 H 0.14095 0.23673 0.61096 0.0
H227 H 0.12992 0.21663 0.62161 0.0
H228 H 0.1154 0.22583 0.61425 0.0
H229 H 0.14842 0.24685 0.53282 0.0
H230 H 0.09513 0.25114 0.53005 0.0
H231 H 0.08573 0.23816 0.55078 0.0
H232 H 0.15944 0.26378 0.56121 0.0
H233 H 0.17165 0.2535 0.5524 0.0
H234 H 0.1681 0.24989 0.56896 0.0
H235 H 0.12863 0.20557 0.54576 0.0
H236 H 0.14269 0.20505 0.55846 0.0
H237 H 0.15521 0.22042 0.54529 0.0
H238 H 0.19015 0.21585 0.58234 0.0
C239 C 0.16408 0.21819 0.5799 0.0
C240 C 0.78855 0.84417 0.60482 0.0
C241 C 0.78437 0.82614 0.59962 0.0
C242 C 0.77529 0.82073 0.58774 0.0
C243 C 0.77485 0.85112 0.58644 0.0
C244 C 0.78363 0.85634 0.59811 0.0
C245 C 0.78683 0.87586 0.60238 0.0
H246 H 0.77889 0.95582 0.59094 0.0
C247 C 0.77173 0.86707 0.58198 0.0
C248 C 0.77869 0.88158 0.59129 0.0
H249 H 0.80264 0.94309 0.62388 0.0
H250 H 0.79575 0.91232 0.61486 0.0
H251 H 0.79984 0.94162 0.57142 0.0
H252 H 0.74135 0.91264 0.58737 0.0
H253 H 0.73866 0.90649 0.57144 0.0
H254 H 0.74899 0.93171 0.57606 0.0
H255 H 0.78085 0.94688 0.5666 0.0
H256 H 0.7833 0.92746 0.55948 0.0
C257 C 0.80947 0.88979 0.6042 0.0
C258 C 0.7743 0.87268 0.61426 0.0
C259 C 0.7415 0.86236 0.53909 0.0
C260 C 0.73734 0.8751 0.53229 0.0
C261 C 0.74154 0.89304 0.53775 0.0
C262 C 0.74977 0.89823 0.54976 0.0
C263 C 0.75393 0.88539 0.55641 0.0
C264 C 0.74981 0.8678 0.55106 0.0
C265 C 0.75548 0.85613 0.55944 0.0
C266 C 0.76369 0.86963 0.5707 0.0
C267 C 0.76269 0.8867 0.56887 0.0
C268 C 0.77171 0.85353 0.55281 0.0
C269 C 0.73635 0.83675 0.56259 0.0
C270 C 0.78278 0.94649 0.59616 0.0
C271 C 0.79134 0.95192 0.60814 0.0
C272 C 0.79584 0.93917 0.6147 0.0
C273 C 0.79193 0.92133 0.60941 0.0
C274 C 0.7834 0.91614 0.59742 0.0
C275 C 0.77896 0.92863 0.59102 0.0
C276 C 0.76992 0.92069 0.5784 0.0
C277 C 0.76963 0.90135 0.5783 0.0
C278 C 0.77755 0.89878 0.58945 0.0
C279 C 0.78402 0.93486 0.56838 0.0
C280 C 0.74866 0.9178 0.57817 0.0
H281 H 0.76372 0.8282 0.57212 0.0
H282 H 0.79523 0.8486 0.614 0.0
H283 H 0.7602 0.8584 0.61384 0.0
H284 H 0.76955 0.88363 0.61539 0.0
H285 H 0.78255 0.87271 0.62276 0.0
H286 H 0.81804 0.88704 0.59698 0.0
H287 H 0.81455 0.88769 0.61347 0.0
H288 H 0.81394 0.90535 0.60315 0.0
H289 H 0.73866 0.84857 0.5351 0.0
H290 H 0.73825 0.903 0.53276 0.0
H291 H 0.75257 0.91206 0.55338 0.0
H292 H 0.78185 0.86682 0.54743 0.0
H293 H 0.76499 0.841 0.54618 0.0
H294 H 0.78155 0.85154 0.55937 0.0
H295 H 0.72339 0.83905 0.56346 0.0
H296 H 0.73729 0.83067 0.57165 0.0
H297 H 0.73274 0.82558 0.55517 0.0
H298 H 0.77207 0.80698 0.5835 0.0
C299 C 0.77054 0.83312 0.58113 0.0
C300 C 0.05381 0.84133 0.60835 0.0
C301 C 0.03892 0.82314 0.60366 0.0
C302 C 0.04045 0.81793 0.59128 0.0
C303 C 0.07121 0.84856 0.58858 0.0
C304 C 0.06973 0.85373 0.60069 0.0
C305 C 0.08683 0.87351 0.60425 0.0
H306 H 0.17274 0.95459 0.5883 0.0
C307 C 0.08951 0.86469 0.58311 0.0
C308 C 0.09872 0.87938 0.59226 0.0
H309 H 0.14253 0.94162 0.62373 0.0
H310 H 0.11673 0.91071 0.6156 0.0
H311 H 0.16653 0.9113 0.58389 0.0
H312 H 0.13434 0.93938 0.57138 0.0
H313 H 0.13442 0.92502 0.55888 0.0
H314 H 0.15769 0.94477 0.56475 0.0
H315 H 0.17609 0.93028 0.57244 0.0
H316 H 0.16036 0.90498 0.56812 0.0
C317 C 0.09844 0.87079 0.61511 0.0
C318 C 0.07836 0.88709 0.60734 0.0
C319 C 0.10844 0.8593 0.53844 0.0
C320 C 0.12434 0.87206 0.53081 0.0
C321 C 0.13867 0.89041 0.53568 0.0
C322 C 0.1373 0.89593 0.54791 0.0
C323 C 0.12141 0.883 0.55543 0.0
C324 C 0.10724 0.86508 0.55065 0.0
C325 C 0.09121 0.85341 0.55996 0.0
C326 C 0.09822 0.86722 0.57113 0.0
C327 C 0.11596 0.88448 0.56843 0.0
C328 C 0.09163 0.83438 0.56267 0.0
C329 C 0.07118 0.85014 0.55462 0.0
C330 C 0.16068 0.94504 0.59436 0.0
C331 C 0.15974 0.95066 0.60669 0.0
C332 C 0.14353 0.93783 0.61415 0.0
C333 C 0.1286 0.9198 0.60943 0.0
C334 C 0.12978 0.91441 0.59709 0.0
C335 C 0.14564 0.92696 0.58979 0.0
C336 C 0.14446 0.91885 0.5769 0.0
C337 C 0.12532 0.89933 0.57768 0.0
C338 C 0.11677 0.89679 0.58953 0.0
C339 C 0.16282 0.91628 0.57511 0.0
C340 C 0.14278 0.93269 0.5674 0.0
H341 H 0.05668 0.82563 0.57443 0.0
H342 H 0.05325 0.84575 0.61785 0.0
H343 H 0.06569 0.88401 0.60103 0.0
H344 H 0.08922 0.9027 0.60595 0.0
H345 H 0.07284 0.88494 0.61707 0.0
H346 H 0.09862 0.85687 0.61402 0.0
H347 H 0.09151 0.87034 0.62423 0.0
H348 H 0.11426 0.88226 0.61546 0.0
H349 H 0.09707 0.84518 0.53495 0.0
H350 H 0.15122 0.90042 0.53009 0.0
H351 H 0.14876 0.91004 0.55104 0.0
H352 H 0.10719 0.83725 0.56299 0.0
H353 H 0.08355 0.8232 0.5553 0.0
H354 H 0.08537 0.82807 0.57183 0.0
H355 H 0.0734 0.86294 0.54908 0.0
H356 H 0.06056 0.84861 0.56195 0.0
H357 H 0.06411 0.8371 0.5484 0.0
H358 H 0.02909 0.80417 0.58733 0.0
C359 C 0.05645 0.83049 0.58375 0.0
C360 C 0.89633 0.49614 0.7374 0.0
C361 C 0.89945 0.51367 0.74287 0.0
C362 C 0.90728 0.51843 0.7551 0.0
C363 C 0.90818 0.48823 0.75626 0.0
C364 C 0.90081 0.48375 0.74421 0.0
C365 C 0.89817 0.46454 0.73975 0.0
H366 H 0.90279 0.38293 0.75152 0.0
C367 C 0.91076 0.472 0.76081 0.0
C368 C 0.90499 0.45812 0.75115 0.0
H369 H 0.88489 0.39887 0.71732 0.0
H370 H 0.89106 0.42916 0.7267 0.0
H371 H 0.94085 0.42536 0.75674 0.0
H372 H 0.88063 0.39725 0.7699 0.0
H373 H 0.89607 0.40994 0.78264 0.0
H374 H 0.89835 0.39059 0.77527 0.0
H375 H 0.93167 0.40622 0.76807 0.0
H376 H 0.94197 0.4315 0.77259 0.0
C377 C 0.9121 0.46851 0.72849 0.0
C378 C 0.87579 0.4507 0.73686 0.0
C379 C 0.93531 0.47347 0.80508 0.0
C380 C 0.93896 0.46039 0.81189 0.0
C381 C 0.93543 0.44285 0.80612 0.0
C382 C 0.92849 0.43845 0.7938 0.0
C383 C 0.92499 0.4517 0.78711 0.0
C384 C 0.92838 0.46886 0.79275 0.0
C385 C 0.92386 0.48118 0.78417 0.0
C386 C 0.91722 0.46857 0.77245 0.0
C387 C 0.9179 0.45132 0.77426 0.0
C388 C 0.94331 0.50081 0.78211 0.0
C389 C 0.90676 0.48326 0.78995 0.0
C390 C 0.90041 0.39304 0.746 0.0
C391 C 0.89328 0.38843 0.73366 0.0
C392 C 0.8901 0.40191 0.72689 0.0
C393 C 0.89381 0.41957 0.73234 0.0
C394 C 0.90077 0.42387 0.74472 0.0
C395 C 0.90405 0.41075 0.75131 0.0
C396 C 0.91151 0.4178 0.76434 0.0
C397 C 0.91216 0.43733 0.76447 0.0
C398 C 0.9058 0.44075 0.75297 0.0
C399 C 0.93254 0.42027 0.76563 0.0
C400 C 0.89601 0.40317 0.7736 0.0
H401 H 0.91751 0.51024 0.77107 0.0
H402 H 0.89011 0.49188 0.72809 0.0
H403 H 0.86637 0.45294 0.74371 0.0
H404 H 0.87124 0.43509 0.73761 0.0
H405 H 0.87181 0.45344 0.72742 0.0
H406 H 0.92598 0.48289 0.72949 0.0
H407 H 0.90477 0.46872 0.71961 0.0
H408 H 0.91725 0.45781 0.72766 0.0
H409 H 0.93806 0.48716 0.80918 0.0
H410 H 0.93784 0.43238 0.8112 0.0
H411 H 0.92609 0.42487 0.78998 0.0
H412 H 0.95641 0.49863 0.78198 0.0
H413 H 0.94579 0.51145 0.78968 0.0
H414 H 0.94363 0.50748 0.77302 0.0
H415 H 0.89568 0.46939 0.79443 0.0
H416 H 0.89816 0.48628 0.78298 0.0
H417 H 0.91249 0.49492 0.79721 0.0
H418 H 0.91012 0.53196 0.75948 0.0
C419 C 0.91166 0.50582 0.76181 0.0
C420 C 0.61644 0.48951 0.73742 0.0
C421 C 0.63241 0.5065 0.7426 0.0
C422 C 0.63179 0.511 0.75525 0.0
C423 C 0.5992 0.48215 0.75724 0.0
C424 C 0.60014 0.47745 0.74492 0.0
C425 C 0.58233 0.45832 0.74107 0.0
H426 H 0.49142 0.38257 0.75491 0.0
C427 C 0.58004 0.46685 0.76236 0.0
C428 C 0.57017 0.45275 0.75295 0.0
H429 H 0.52631 0.39025 0.72181 0.0
H430 H 0.55238 0.42083 0.72994 0.0
H431 H 0.5266 0.39277 0.77315 0.0
H432 H 0.50303 0.42788 0.75885 0.0
H433 H 0.50772 0.43313 0.77487 0.0
H434 H 0.4901 0.4086 0.76986 0.0
H435 H 0.5043 0.39109 0.77919 0.0
H436 H 0.52852 0.40847 0.78535 0.0
C437 C 0.58949 0.44369 0.73781 0.0
C438 C 0.57162 0.46224 0.73022 0.0
C439 C 0.5601 0.47337 0.80657 0.0
C440 C 0.54306 0.46163 0.81369 0.0
C441 C 0.52741 0.44455 0.80822 0.0
C442 C 0.52873 0.43915 0.79596 0.0
C443 C 0.5459 0.45088 0.78902 0.0
C444 C 0.56121 0.4677 0.79431 0.0
C445 C 0.57834 0.47827 0.78549 0.0
C446 C 0.57078 0.46494 0.77408 0.0
C447 C 0.55175 0.44896 0.77622 0.0
C448 C 0.59697 0.47894 0.79133 0.0
C449 C 0.58073 0.49858 0.78287 0.0
C450 C 0.50468 0.3906 0.74938 0.0
C451 C 0.50644 0.38371 0.73757 0.0
C452 C 0.52407 0.39515 0.73077 0.0
C453 C 0.53943 0.41289 0.73559 0.0
C454 C 0.53744 0.41931 0.74744 0.0
C455 C 0.52036 0.4081 0.75417 0.0
C456 C 0.52134 0.41649 0.76694 0.0
C457 C 0.54183 0.43463 0.76675 0.0
C458 C 0.55107 0.43638 0.75523 0.0
C459 C 0.51999 0.40149 0.77674 0.0
C460 C 0.50464 0.42173 0.76781 0.0
H461 H 0.61554 0.50329 0.77211 0.0
H462 H 0.61676 0.48558 0.72776 0.0
H463 H 0.57014 0.47526 0.73233 0.0
H464 H 0.55637 0.45009 0.72855 0.0
H465 H 0.58012 0.46512 0.72143 0.0
H466 H 0.60366 0.4475 0.7427 0.0
H467 H 0.59208 0.44352 0.72765 0.0
H468 H 0.57894 0.42865 0.74088 0.0
H469 H 0.57243 0.48652 0.81052 0.0
H470 H 0.51397 0.43543 0.81338 0.0
H471 H 0.51628 0.42601 0.79238 0.0
H472 H 0.59278 0.46577 0.79708 0.0
H473 H 0.60522 0.49197 0.79746 0.0
H474 H 0.6072 0.4788 0.78426 0.0
H475 H 0.56595 0.49742 0.7816 0.0
H476 H 0.58886 0.50522 0.77421 0.0
H477 H 0.58842 0.50884 0.79075 0.0
H478 H 0.644 0.52404 0.75939 0.0
C479 C 0.61523 0.49898 0.76258 0.0
C480 C 0.6162 0.12827 0.73595 0.0
C481 C 0.63168 0.12619 0.7413 0.0
C482 C 0.62974 0.12009 0.75384 0.0
C483 C 0.59738 0.11773 0.75523 0.0
C484 C 0.59937 0.12408 0.74306 0.0
C485 C 0.5818 0.12586 0.73882 0.0
H486 H 0.49069 0.11414 0.75061 0.0
C487 C 0.57796 0.11433 0.75995 0.0
C488 C 0.56881 0.11918 0.75036 0.0
H489 H 0.52619 0.13746 0.71743 0.0
H490 H 0.55202 0.133 0.72654 0.0
H491 H 0.50025 0.07964 0.75509 0.0
H492 H 0.52714 0.13821 0.76987 0.0
H493 H 0.52536 0.12283 0.78217 0.0
H494 H 0.503 0.11924 0.77456 0.0
H495 H 0.48818 0.08678 0.76647 0.0
H496 H 0.50519 0.07856 0.77097 0.0
C497 C 0.57181 0.11171 0.72766 0.0
C498 C 0.58925 0.14761 0.73585 0.0
C499 C 0.55527 0.08747 0.80376 0.0
C500 C 0.53769 0.08204 0.81045 0.0
C501 C 0.52264 0.08443 0.80471 0.0
C502 C 0.52493 0.09189 0.79261 0.0
C503 C 0.54246 0.09708 0.78602 0.0
C504 C 0.55728 0.09483 0.7916 0.0
C505 C 0.57477 0.10088 0.78308 0.0
C506 C 0.56803 0.10717 0.77151 0.0
C507 C 0.54908 0.10494 0.77331 0.0
C508 C 0.57691 0.08272 0.7805 0.0
C509 C 0.59327 0.11822 0.78928 0.0
C510 C 0.50408 0.11851 0.74531 0.0
C511 C 0.50613 0.12608 0.73317 0.0
C512 C 0.52385 0.13124 0.72666 0.0
C513 C 0.53901 0.1288 0.73202 0.0
C514 C 0.53666 0.12119 0.74412 0.0
C515 C 0.51946 0.1163 0.75058 0.0
C516 C 0.51969 0.10875 0.76342 0.0
C517 C 0.53987 0.10997 0.76361 0.0
C518 C 0.54972 0.11715 0.75224 0.0
C519 C 0.50239 0.08736 0.76416 0.0
C520 C 0.5186 0.12281 0.77309 0.0
H521 H 0.61229 0.11123 0.77023 0.0
H522 H 0.61694 0.13279 0.72637 0.0
H523 H 0.60206 0.15746 0.74194 0.0
H524 H 0.57793 0.15188 0.73767 0.0
H525 H 0.5942 0.151 0.72602 0.0
H526 H 0.57126 0.09756 0.72933 0.0
H527 H 0.58022 0.11795 0.71893 0.0
H528 H 0.55622 0.1079 0.72613 0.0
H529 H 0.56707 0.08569 0.8078 0.0
H530 H 0.50908 0.0807 0.80965 0.0
H531 H 0.51289 0.0933 0.78884 0.0
H532 H 0.56205 0.0694 0.77936 0.0
H533 H 0.5847 0.08013 0.78833 0.0
H534 H 0.58478 0.08376 0.77175 0.0
H535 H 0.58909 0.12785 0.79446 0.0
H536 H 0.6044 0.1279 0.78244 0.0
H537 H 0.60046 0.11299 0.79601 0.0
H538 H 0.64148 0.11878 0.75841 0.0
C539 C 0.61276 0.11582 0.76078 0.0
C540 C 0.82163 0.54269 0.94053 0.0
C541 C 0.83912 0.54483 0.93506 0.0
C542 C 0.84268 0.55024 0.92239 0.0
C543 C 0.81227 0.55177 0.92106 0.0
C544 C 0.80845 0.5461 0.93337 0.0
C545 C 0.78905 0.5441 0.93766 0.0
H546 H 0.70564 0.54849 0.92444 0.0
C547 C 0.79575 0.55429 0.91626 0.0
C548 C 0.78198 0.54966 0.92592 0.0
H549 H 0.72194 0.53275 0.95928 0.0
H550 H 0.75274 0.53815 0.95032 0.0
H551 H 0.74852 0.58506 0.91945 0.0
H552 H 0.721 0.52562 0.90608 0.0
H553 H 0.73274 0.54131 0.89345 0.0
H554 H 0.71288 0.54232 0.90139 0.0
H555 H 0.7298 0.57601 0.90743 0.0
H556 H 0.75578 0.58589 0.90389 0.0
C557 C 0.79356 0.5589 0.94842 0.0
C558 C 0.77503 0.52249 0.94124 0.0
C559 C 0.79848 0.57861 0.87198 0.0
C560 C 0.78581 0.58295 0.86494 0.0
C561 C 0.76793 0.57976 0.87042 0.0
C562 C 0.76287 0.57259 0.88261 0.0
C563 C 0.77581 0.56855 0.88953 0.0
C564 C 0.79325 0.57154 0.88418 0.0
C565 C 0.80527 0.56657 0.89293 0.0
C566 C 0.79233 0.56037 0.90448 0.0
C567 C 0.77503 0.56149 0.90244 0.0
C568 C 0.8255 0.58537 0.89529 0.0
C569 C 0.80689 0.5494 0.88714 0.0
C570 C 0.71576 0.54602 0.9301 0.0
C571 C 0.71123 0.54007 0.94259 0.0
C572 C 0.72507 0.53744 0.94968 0.0
C573 C 0.74293 0.54048 0.94443 0.0
C574 C 0.74719 0.54633 0.93193 0.0
C575 C 0.73377 0.54916 0.92501 0.0
C576 C 0.7411 0.55605 0.91201 0.0
C577 C 0.76088 0.55644 0.91215 0.0
C578 C 0.76437 0.55067 0.92385 0.0
C579 C 0.74386 0.57677 0.91049 0.0
C580 C 0.72617 0.54067 0.90266 0.0
H581 H 0.83317 0.55786 0.90587 0.0
H582 H 0.81832 0.53868 0.95023 0.0
H583 H 0.7769 0.51249 0.93477 0.0
H584 H 0.75914 0.51806 0.9405 0.0
H585 H 0.77825 0.51956 0.95083 0.0
H586 H 0.80766 0.57277 0.9467 0.0
H587 H 0.79517 0.55299 0.95745 0.0
H588 H 0.78214 0.56325 0.94934 0.0
H589 H 0.81218 0.58055 0.86808 0.0
H590 H 0.75796 0.58318 0.86536 0.0
H591 H 0.74912 0.5706 0.8862 0.0
H592 H 0.82346 0.59829 0.89627 0.0
H593 H 0.83582 0.58821 0.88742 0.0
H594 H 0.83284 0.58498 0.90403 0.0
H595 H 0.79347 0.53968 0.88145 0.0
H596 H 0.80763 0.53969 0.89425 0.0
H597 H 0.82001 0.55481 0.88096 0.0
H598 H 0.85563 0.55155 0.91774 0.0
C599 C 0.82947 0.55376 0.91542 0.0
C600 C 0.44509 0.17231 0.93889 0.0
C601 C 0.44265 0.15525 0.9331 0.0
C602 C 0.43501 0.15079 0.92082 0.0
C603 C 0.43272 0.18028 0.9203 0.0
C604 C 0.44011 0.18456 0.93235 0.0
C605 C 0.44215 0.20337 0.93714 0.0
H606 H 0.43456 0.2837 0.9268 0.0
C607 C 0.42927 0.19616 0.91614 0.0
C608 C 0.43478 0.20972 0.92598 0.0
H609 H 0.45452 0.26824 0.96035 0.0
H610 H 0.44866 0.23822 0.95067 0.0
H611 H 0.45644 0.26993 0.9075 0.0
H612 H 0.39714 0.2416 0.92214 0.0
H613 H 0.39488 0.23407 0.90652 0.0
H614 H 0.40489 0.25966 0.91015 0.0
H615 H 0.43836 0.27674 0.90324 0.0
H616 H 0.44008 0.2577 0.89502 0.0
C617 C 0.46446 0.21767 0.93996 0.0
C618 C 0.4283 0.19868 0.94853 0.0
C619 C 0.40203 0.19427 0.87261 0.0
C620 C 0.39703 0.20684 0.86632 0.0
C621 C 0.39994 0.22392 0.8724 0.0
C622 C 0.40763 0.22843 0.88455 0.0
C623 C 0.41247 0.21571 0.89074 0.0
C624 C 0.40961 0.19894 0.88479 0.0
C625 C 0.41531 0.18702 0.89294 0.0
C626 C 0.42203 0.19942 0.90474 0.0
C627 C 0.42039 0.21622 0.90335 0.0
C628 C 0.43263 0.18595 0.88661 0.0
C629 C 0.3965 0.16691 0.89511 0.0
C630 C 0.43747 0.27376 0.93212 0.0
C631 C 0.4451 0.27842 0.94435 0.0
C632 C 0.44893 0.26516 0.95086 0.0
C633 C 0.44542 0.24767 0.94523 0.0
C634 C 0.43801 0.24335 0.93295 0.0
C635 C 0.43403 0.25624 0.92665 0.0
C636 C 0.42603 0.24916 0.91372 0.0
C637 C 0.42606 0.22998 0.91326 0.0
C638 C 0.43314 0.2267 0.92452 0.0
C639 C 0.44082 0.26413 0.9043 0.0
C640 C 0.40468 0.24605 0.91296 0.0
H641 H 0.42439 0.15906 0.90507 0.0
H642 H 0.45065 0.17605 0.94837 0.0
H643 H 0.4145 0.18428 0.94732 0.0
H644 H 0.42303 0.20923 0.94979 0.0
H645 H 0.43575 0.19808 0.95724 0.0
H646 H 0.47404 0.21578 0.93306 0.0
H647 H 0.46868 0.21508 0.94937 0.0
H648 H 0.46859 0.23317 0.93922 0.0
H649 H 0.39975 0.18092 0.86822 0.0
H650 H 0.39642 0.23394 0.8677 0.0
H651 H 0.40952 0.24167 0.88863 0.0
H652 H 0.44282 0.19994 0.88189 0.0
H653 H 0.42698 0.17415 0.87945 0.0
H654 H 0.44217 0.18375 0.8933 0.0
H655 H 0.38308 0.16847 0.89597 0.0
H656 H 0.39713 0.15999 0.90388 0.0
H657 H 0.39387 0.15672 0.88722 0.0
H658 H 0.43318 0.13785 0.91609 0.0
C659 C 0.43003 0.1632 0.91441 0.0
C660 C 0.72182 0.17447 0.94085 0.0
C661 C 0.70572 0.15761 0.93552 0.0
C662 C 0.70646 0.15386 0.92269 0.0
C663 C 0.73869 0.18319 0.9209 0.0
C664 C 0.73789 0.18707 0.93339 0.0
C665 C 0.75558 0.20605 0.93752 0.0
H666 H 0.84107 0.28847 0.92303 0.0
C667 C 0.7573 0.19937 0.91576 0.0
C668 C 0.76711 0.21294 0.92545 0.0
H669 H 0.81271 0.27143 0.95895 0.0
H670 H 0.78676 0.24112 0.95011 0.0
H671 H 0.83605 0.24714 0.91677 0.0
H672 H 0.80126 0.27348 0.90639 0.0
H673 H 0.80315 0.26145 0.89309 0.0
H674 H 0.8254 0.28107 0.9001 0.0
H675 H 0.8438 0.26527 0.90482 0.0
H676 H 0.82803 0.23958 0.9014 0.0
C677 C 0.76709 0.20154 0.94757 0.0
C678 C 0.74799 0.21984 0.94197 0.0
C679 C 0.77711 0.19656 0.87085 0.0
C680 C 0.79364 0.20949 0.86368 0.0
C681 C 0.80768 0.22764 0.86897 0.0
C682 C 0.80573 0.23259 0.88121 0.0
C683 C 0.7895 0.21934 0.88836 0.0
C684 C 0.77535 0.20178 0.88312 0.0
C685 C 0.75884 0.18981 0.89211 0.0
C686 C 0.76589 0.20278 0.9037 0.0
C687 C 0.78387 0.22003 0.90141 0.0
C688 C 0.75832 0.17021 0.89423 0.0
C689 C 0.73922 0.1876 0.88677 0.0
C690 C 0.82913 0.27827 0.92894 0.0
C691 C 0.8288 0.28237 0.94167 0.0
C692 C 0.81329 0.26854 0.94912 0.0
C693 C 0.79819 0.25099 0.94395 0.0
C694 C 0.79864 0.24713 0.93118 0.0
C695 C 0.81407 0.26057 0.92394 0.0
C696 C 0.81266 0.25358 0.91071 0.0
C697 C 0.79357 0.23396 0.91112 0.0
C698 C 0.78535 0.23033 0.92311 0.0
C699 C 0.83108 0.25136 0.90816 0.0
C700 C 0.81064 0.26813 0.90203 0.0
H701 H 0.72247 0.16273 0.90574 0.0
H702 H 0.72206 0.17786 0.95066 0.0
H703 H 0.73534 0.21799 0.93605 0.0
H704 H 0.75925 0.23546 0.94122 0.0
H705 H 0.74271 0.21669 0.95174 0.0
H706 H 0.76636 0.18736 0.9456 0.0
H707 H 0.76076 0.20059 0.95698 0.0
H708 H 0.78314 0.21239 0.94783 0.0
H709 H 0.76601 0.18252 0.86712 0.0
H710 H 0.82026 0.23815 0.86361 0.0
H711 H 0.81702 0.24657 0.88465 0.0
H712 H 0.77363 0.17273 0.89567 0.0
H713 H 0.75173 0.16033 0.88603 0.0
H714 H 0.74996 0.16247 0.9026 0.0
H715 H 0.74211 0.20018 0.88075 0.0
H716 H 0.72928 0.18755 0.89413 0.0
H717 H 0.7311 0.17411 0.88102 0.0
H718 H 0.69421 0.14133 0.91816 0.0
C719 C 0.72284 0.16645 0.9154 0.0
C720 C 0.55442 0.82421 0.0715 0.0
C721 C 0.55788 0.842 0.07671 0.0
C722 C 0.56578 0.84704 0.08892 0.0
C723 C 0.56591 0.81652 0.09058 0.0
C724 C 0.55843 0.81174 0.07857 0.0
C725 C 0.55493 0.79204 0.07452 0.0
H726 H 0.55677 0.70943 0.0879 0.0
C727 C 0.5677 0.80003 0.09552 0.0
C728 C 0.56122 0.78562 0.08615 0.0
H729 H 0.53891 0.72464 0.05342 0.0
H730 H 0.5458 0.75549 0.06232 0.0
H731 H 0.59572 0.75309 0.09322 0.0
H732 H 0.53501 0.72355 0.10554 0.0
H733 H 0.54926 0.73834 0.11807 0.0
H734 H 0.55331 0.71898 0.11253 0.0
H735 H 0.58542 0.73227 0.10332 0.0
H736 H 0.59563 0.7567 0.10943 0.0
C737 C 0.56878 0.79501 0.06337 0.0
C738 C 0.53244 0.77881 0.07163 0.0
C739 C 0.59343 0.80307 0.13961 0.0
C740 C 0.59532 0.78941 0.14696 0.0
C741 C 0.58972 0.77086 0.14195 0.0
C742 C 0.58258 0.76603 0.12968 0.0
C743 C 0.58082 0.77985 0.12239 0.0
C744 C 0.58596 0.79791 0.12743 0.0
C745 C 0.582 0.81028 0.11855 0.0
C746 C 0.57405 0.79681 0.10726 0.0
C747 C 0.57359 0.77911 0.10954 0.0
C748 C 0.60202 0.82895 0.11578 0.0
C749 C 0.56606 0.81419 0.12438 0.0
C750 C 0.55454 0.71952 0.08225 0.0
C751 C 0.54731 0.71464 0.06994 0.0
C752 C 0.54427 0.728 0.06296 0.0
C753 C 0.54838 0.74595 0.06813 0.0
C754 C 0.55556 0.75061 0.08045 0.0
C755 C 0.55851 0.73749 0.08729 0.0
C756 C 0.56596 0.74482 0.10028 0.0
C757 C 0.56719 0.7646 0.10004 0.0
C758 C 0.56109 0.76789 0.08841 0.0
C759 C 0.58673 0.74677 0.10177 0.0
C760 C 0.55024 0.73072 0.10966 0.0
H761 H 0.57568 0.83901 0.10511 0.0
H762 H 0.54864 0.82 0.06209 0.0
H763 H 0.52332 0.7822 0.07804 0.0
H764 H 0.52712 0.76314 0.07306 0.0
H765 H 0.52883 0.78098 0.06194 0.0
H766 H 0.58321 0.80886 0.06444 0.0
H767 H 0.56192 0.79576 0.05443 0.0
H768 H 0.57286 0.78351 0.06265 0.0
H769 H 0.59736 0.81732 0.14335 0.0
H770 H 0.59115 0.76018 0.14749 0.0
H771 H 0.5787 0.75173 0.12636 0.0
H772 H 0.61407 0.82536 0.1146 0.0
H773 H 0.60644 0.83971 0.12355 0.0
H774 H 0.60175 0.83608 0.10701 0.0
H775 H 0.55574 0.80186 0.13041 0.0
H776 H 0.5563 0.81536 0.11733 0.0
H777 H 0.57303 0.82763 0.13025 0.0
H778 H 0.5684 0.86055 0.09322 0.0
C779 C 0.56984 0.83442 0.09586 0.0
C780 C 0.28301 0.82557 0.06973 0.0
C781 C 0.29805 0.84355 0.0746 0.0
C782 C 0.29594 0.84898 0.08681 0.0
C783 C 0.26435 0.81897 0.08896 0.0
C784 C 0.26639 0.81362 0.07701 0.0
C785 C 0.24901 0.79421 0.07315 0.0
H786 H 0.15982 0.71559 0.08703 0.0
C787 C 0.24529 0.80333 0.09399 0.0
C788 C 0.23623 0.78878 0.08474 0.0
H789 H 0.19287 0.72703 0.05278 0.0
H790 H 0.21894 0.75747 0.06132 0.0
H791 H 0.19668 0.72928 0.10526 0.0
H792 H 0.16766 0.75932 0.09072 0.0
H793 H 0.17321 0.76622 0.10645 0.0
H794 H 0.15673 0.74089 0.10247 0.0
H795 H 0.17301 0.72476 0.11084 0.0
H796 H 0.19605 0.74382 0.11746 0.0
C797 C 0.25677 0.77987 0.07065 0.0
C798 C 0.2387 0.79757 0.06178 0.0
C799 C 0.22378 0.80943 0.13783 0.0
C800 C 0.20672 0.79736 0.14485 0.0
C801 C 0.19202 0.7795 0.13959 0.0
C802 C 0.19409 0.77385 0.12756 0.0
C803 C 0.21106 0.78614 0.12061 0.0
C804 C 0.2256 0.80357 0.12577 0.0
C805 C 0.24255 0.81476 0.11692 0.0
C806 C 0.23576 0.80115 0.10565 0.0
C807 C 0.2173 0.78443 0.10788 0.0
C808 C 0.26168 0.81679 0.12292 0.0
C809 C 0.24361 0.83445 0.11402 0.0
C810 C 0.17257 0.72473 0.08131 0.0
C811 C 0.17422 0.71882 0.0692 0.0
C812 C 0.19129 0.73107 0.06219 0.0
C813 C 0.20639 0.74883 0.06714 0.0
C814 C 0.2045 0.7545 0.07927 0.0
C815 C 0.18779 0.74249 0.08613 0.0
C816 C 0.18833 0.75077 0.09887 0.0
C817 C 0.20809 0.76975 0.09852 0.0
C818 C 0.2175 0.77189 0.08702 0.0
C819 C 0.18838 0.73646 0.1087 0.0
C820 C 0.17053 0.75442 0.09981 0.0
H821 H 0.27853 0.84186 0.10317 0.0
H822 H 0.28418 0.82077 0.06046 0.0
H823 H 0.23898 0.81174 0.06268 0.0
H824 H 0.2228 0.78648 0.06093 0.0
H825 H 0.24632 0.79791 0.05297 0.0
H826 H 0.2689 0.7825 0.07732 0.0
H827 H 0.26282 0.78166 0.06108 0.0
H828 H 0.24532 0.76443 0.07201 0.0
H829 H 0.23528 0.82332 0.14154 0.0
H830 H 0.17889 0.76977 0.14485 0.0
H831 H 0.18233 0.7601 0.12414 0.0
H832 H 0.25837 0.80325 0.128 0.0
H833 H 0.26834 0.82911 0.12972 0.0
H834 H 0.27301 0.81879 0.116 0.0
H835 H 0.22846 0.83265 0.11361 0.0
H836 H 0.25011 0.84033 0.10482 0.0
H837 H 0.2522 0.84557 0.12132 0.0
H838 H 0.30706 0.86284 0.09076 0.0
C839 C 0.27925 0.83682 0.09399 0.0
C840 C 0.28169 0.46316 0.07079 0.0
C841 C 0.29717 0.4613 0.07629 0.0
C842 C 0.29519 0.45507 0.08876 0.0
C843 C 0.26265 0.45234 0.08997 0.0
C844 C 0.26474 0.4588 0.07781 0.0
C845 C 0.24728 0.46075 0.07356 0.0
H846 H 0.15646 0.44989 0.08535 0.0
C847 C 0.24319 0.44889 0.09462 0.0
C848 C 0.23418 0.45396 0.08505 0.0
H849 H 0.19202 0.47318 0.05226 0.0
H850 H 0.21783 0.46848 0.06135 0.0
H851 H 0.16585 0.4145 0.0895 0.0
H852 H 0.19211 0.47283 0.1046 0.0
H853 H 0.19094 0.45755 0.11679 0.0
H854 H 0.16823 0.45358 0.10946 0.0
H855 H 0.15336 0.42159 0.10061 0.0
H856 H 0.17011 0.41325 0.10549 0.0
C857 C 0.23734 0.44678 0.06232 0.0
C858 C 0.25485 0.48256 0.0707 0.0
C859 C 0.21977 0.42091 0.13811 0.0
C860 C 0.20222 0.41562 0.1448 0.0
C861 C 0.18741 0.41846 0.13913 0.0
C862 C 0.18987 0.42617 0.12709 0.0
C863 C 0.20737 0.43121 0.1205 0.0
C864 C 0.222 0.4286 0.12603 0.0
C865 C 0.2396 0.43481 0.11759 0.0
C866 C 0.2331 0.44151 0.10611 0.0
C867 C 0.21418 0.43936 0.10788 0.0
C868 C 0.24164 0.41666 0.11478 0.0
C869 C 0.25807 0.4519 0.12401 0.0
C870 C 0.16975 0.45384 0.08003 0.0
C871 C 0.17214 0.4619 0.06804 0.0
C872 C 0.18984 0.46712 0.06154 0.0
C873 C 0.20481 0.46431 0.06682 0.0
C874 C 0.20223 0.4563 0.07882 0.0
C875 C 0.18495 0.45131 0.08524 0.0
C876 C 0.18501 0.44351 0.09802 0.0
C877 C 0.20514 0.44463 0.09822 0.0
C878 C 0.21512 0.45199 0.08691 0.0
C879 C 0.16764 0.42213 0.09857 0.0
C880 C 0.18388 0.45741 0.1078 0.0
H881 H 0.27743 0.44573 0.10501 0.0
H882 H 0.28289 0.46819 0.06129 0.0
H883 H 0.26782 0.49231 0.07672 0.0
H884 H 0.24367 0.48694 0.07271 0.0
H885 H 0.25962 0.48601 0.06085 0.0
H886 H 0.23644 0.43247 0.06401 0.0
H887 H 0.24602 0.45299 0.05368 0.0
H888 H 0.22189 0.44331 0.06063 0.0
H889 H 0.23142 0.41883 0.14208 0.0
H890 H 0.1739 0.41491 0.14407 0.0
H891 H 0.17801 0.42792 0.12338 0.0
H892 H 0.22676 0.40351 0.11323 0.0
H893 H 0.24889 0.41352 0.12269 0.0
H894 H 0.25001 0.41808 0.1062 0.0
H895 H 0.25386 0.46116 0.12959 0.0
H896 H 0.26909 0.46203 0.11728 0.0
H897 H 0.26542 0.4464 0.13042 0.0
H898 H 0.30683 0.45342 0.09319 0.0
C899 C 0.27805 0.45053 0.0956 0.0
C900 C 0.48902 0.87361 0.27272 0.0
C901 C 0.50769 0.87818 0.26791 0.0
C902 C 0.513 0.88662 0.25599 0.0
C903 C 0.48155 0.88607 0.25396 0.0
C904 C 0.47633 0.87785 0.26567 0.0
C905 C 0.45641 0.87488 0.26964 0.0
H906 H 0.37622 0.88538 0.25771 0.0
C907 C 0.46528 0.88903 0.24918 0.0
C908 C 0.45054 0.88263 0.25839 0.0
H909 H 0.38806 0.86117 0.29055 0.0
H910 H 0.41862 0.8661 0.28153 0.0
H911 H 0.42105 0.92109 0.25418 0.0
H912 H 0.3896 0.86327 0.2381 0.0
H913 H 0.40385 0.87935 0.22623 0.0
H914 H 0.38459 0.88224 0.23355 0.0
H915 H 0.40145 0.91398 0.24288 0.0
H916 H 0.42685 0.92305 0.23824 0.0
C917 C 0.45964 0.88747 0.28147 0.0
C918 C 0.44215 0.85272 0.27145 0.0
C919 C 0.46994 0.91707 0.20573 0.0
C920 C 0.45751 0.92196 0.19889 0.0
C921 C 0.43976 0.91896 0.20444 0.0
C922 C 0.43445 0.91122 0.21648 0.0
C923 C 0.447 0.90642 0.22319 0.0
C924 C 0.46446 0.90945 0.21781 0.0
C925 C 0.47621 0.90395 0.22647 0.0
C926 C 0.46272 0.89672 0.23778 0.0
C927 C 0.4456 0.89819 0.2358 0.0
C928 C 0.49628 0.92263 0.22947 0.0
C929 C 0.47825 0.88737 0.22018 0.0
C930 C 0.38546 0.88127 0.263 0.0
C931 C 0.37963 0.8729 0.27491 0.0
C932 C 0.39201 0.86745 0.28133 0.0
C933 C 0.40987 0.87046 0.2761 0.0
C934 C 0.41556 0.87899 0.26426 0.0
C935 C 0.40332 0.88408 0.25787 0.0
C936 C 0.41151 0.89253 0.24526 0.0
C937 C 0.43081 0.89197 0.24521 0.0
C938 C 0.43318 0.8841 0.25639 0.0
C939 C 0.41535 0.91374 0.24499 0.0
C940 C 0.39666 0.87882 0.23519 0.0
H941 H 0.50501 0.89689 0.23998 0.0
H942 H 0.4846 0.86737 0.28192 0.0
H943 H 0.44493 0.84407 0.26435 0.0
H944 H 0.42636 0.8484 0.27017 0.0
H945 H 0.44423 0.84797 0.28079 0.0
H946 H 0.4738 0.90166 0.28089 0.0
H947 H 0.46043 0.8799 0.28997 0.0
H948 H 0.44803 0.89148 0.28272 0.0
H949 H 0.48382 0.91944 0.20186 0.0
H950 H 0.42979 0.92239 0.19938 0.0
H951 H 0.42073 0.90928 0.2201 0.0
H952 H 0.49472 0.93589 0.22931 0.0
H953 H 0.50782 0.92479 0.22257 0.0
H954 H 0.50186 0.92254 0.23896 0.0
H955 H 0.46401 0.87659 0.21562 0.0
H956 H 0.48167 0.87885 0.22686 0.0
H957 H 0.48991 0.89327 0.2129 0.0
H958 H 0.52721 0.89015 0.25203 0.0
C959 C 0.50005 0.89049 0.24899 0.0
C960 C 0.11561 0.51096 0.27263 0.0
C961 C 0.11186 0.49303 0.26746 0.0
C962 C 0.10249 0.48733 0.25566 0.0
C963 C 0.10123 0.5173 0.25434 0.0
C964 C 0.11012 0.52273 0.26597 0.0
C965 C 0.11292 0.5421 0.27023 0.0
H966 H 0.10249 0.62063 0.25898 0.0
C967 C 0.09771 0.53298 0.24986 0.0
C968 C 0.10443 0.5475 0.25917 0.0
H969 H 0.12796 0.60904 0.29157 0.0
H970 H 0.12139 0.57839 0.28261 0.0
H971 H 0.12423 0.6083 0.23972 0.0
H972 H 0.06547 0.57629 0.25504 0.0
H973 H 0.06355 0.57158 0.23889 0.0
H974 H 0.073 0.59625 0.24443 0.0
H975 H 0.10428 0.61157 0.23417 0.0
H976 H 0.10886 0.59307 0.22769 0.0
C977 C 0.1355 0.55644 0.27197 0.0
C978 C 0.10041 0.53868 0.28215 0.0
C979 C 0.06851 0.52839 0.20662 0.0
C980 C 0.06458 0.5412 0.19974 0.0
C981 C 0.06827 0.55894 0.20525 0.0
C982 C 0.07583 0.56388 0.21742 0.0
C983 C 0.07989 0.55104 0.22415 0.0
C984 C 0.07624 0.53364 0.21874 0.0
C985 C 0.08195 0.52206 0.22719 0.0
C986 C 0.08967 0.53542 0.23854 0.0
C987 C 0.08833 0.5523 0.23671 0.0
C988 C 0.09856 0.51987 0.22074 0.0
C989 C 0.06294 0.50245 0.23013 0.0
C990 C 0.10676 0.61156 0.26418 0.0
C991 C 0.11568 0.6173 0.27605 0.0
C992 C 0.12076 0.60487 0.28251 0.0
C993 C 0.11707 0.58711 0.27724 0.0
C994 C 0.10827 0.58167 0.26535 0.0
C995 C 0.1033 0.59383 0.25902 0.0
C996 C 0.09454 0.58591 0.24634 0.0
C997 C 0.09485 0.56685 0.24618 0.0
C998 C 0.10287 0.56445 0.25734 0.0
C999 C 0.10851 0.60042 0.2364 0.0
C1000 C 0.07304 0.58238 0.24603 0.0
H1001 H 0.09014 0.4942 0.24016 0.0
H1002 H 0.12293 0.51592 0.28161 0.0
H1003 H 0.0864 0.52433 0.2817 0.0
H1004 H 0.09551 0.5495 0.28339 0.0
H1005 H 0.10875 0.53871 0.29061 0.0
H1006 H 0.14423 0.55366 0.26487 0.0
H1007 H 0.14071 0.55482 0.28131 0.0
H1008 H 0.13966 0.57187 0.27064 0.0
H1009 H 0.06601 0.51475 0.20257 0.0
H1010 H 0.06515 0.56893 0.20016 0.0
H1011 H 0.07827 0.57756 0.2211 0.0
H1012 H 0.10895 0.53349 0.21574 0.0
H1013 H 0.09221 0.50774 0.2138 0.0
H1014 H 0.10803 0.51747 0.22736 0.0
H1015 H 0.04972 0.50439 0.23068 0.0
H1016 H 0.06367 0.4965 0.23929 0.0
H1017 H 0.05989 0.49133 0.22278 0.0
H1018 H 0.09906 0.47344 0.25155 0.0
C1019 C 0.09719 0.49936 0.24908 0.0
C1020 C 0.39083 0.51364 0.27318 0.0
C1021 C 0.37656 0.49508 0.26861 0.0
C1022 C 0.37908 0.48937 0.25658 0.0
C1023 C 0.40963 0.52023 0.25399 0.0
C1024 C 0.4072 0.52588 0.26577 0.0
C1025 C 0.42394 0.54589 0.2693 0.0
H1026 H 0.51113 0.62626 0.25415 0.0
C1027 C 0.42821 0.53626 0.24872 0.0
C1028 C 0.43667 0.55136 0.25767 0.0
H1029 H 0.47873 0.615 0.28865 0.0
H1030 H 0.45311 0.5839 0.28054 0.0
H1031 H 0.50495 0.58303 0.25117 0.0
H1032 H 0.47418 0.61107 0.23625 0.0
H1033 H 0.47403 0.59568 0.22437 0.0
H1034 H 0.49746 0.61541 0.23009 0.0
H1035 H 0.51532 0.60158 0.23945 0.0
H1036 H 0.49987 0.57613 0.2354 0.0
C1037 C 0.43484 0.54379 0.28081 0.0
C1038 C 0.41511 0.55942 0.27141 0.0
C1039 C 0.4506 0.52944 0.20524 0.0
C1040 C 0.46712 0.54204 0.19795 0.0
C1041 C 0.4808 0.56068 0.20278 0.0
C1042 C 0.47836 0.56655 0.21465 0.0
C1043 C 0.462 0.55374 0.22188 0.0
C1044 C 0.44834 0.5356 0.21713 0.0
C1045 C 0.43171 0.52413 0.22614 0.0
C1046 C 0.43776 0.53837 0.23707 0.0
C1047 C 0.45557 0.55562 0.23452 0.0
C1048 C 0.43217 0.50536 0.22964 0.0
C1049 C 0.412 0.52038 0.21999 0.0
C1050 C 0.49862 0.61705 0.26002 0.0
C1051 C 0.49706 0.62315 0.27209 0.0
C1052 C 0.48026 0.61079 0.27928 0.0
C1053 C 0.46544 0.59265 0.27458 0.0
C1054 C 0.46736 0.5867 0.26254 0.0
C1055 C 0.48374 0.5989 0.25548 0.0
C1056 C 0.4834 0.5903 0.2429 0.0
C1057 C 0.46421 0.57084 0.24358 0.0
C1058 C 0.45484 0.56875 0.25509 0.0
C1059 C 0.50186 0.58768 0.24205 0.0
C1060 C 0.48236 0.60377 0.23281 0.0
H1061 H 0.39647 0.49654 0.24022 0.0
H1062 H 0.38949 0.51842 0.28242 0.0
H1063 H 0.4031 0.55618 0.26449 0.0
H1064 H 0.42608 0.57503 0.27012 0.0
H1065 H 0.40861 0.55739 0.28086 0.0
H1066 H 0.43532 0.52996 0.28029 0.0
H1067 H 0.42717 0.54355 0.28958 0.0
H1068 H 0.45056 0.55544 0.28148 0.0
H1069 H 0.43982 0.51499 0.20188 0.0
H1070 H 0.4934 0.5709 0.19732 0.0
H1071 H 0.48937 0.5809 0.21773 0.0
H1072 H 0.44775 0.50839 0.23043 0.0
H1073 H 0.42449 0.49377 0.22244 0.0
H1074 H 0.42554 0.49952 0.23881 0.0
H1075 H 0.41441 0.53308 0.21427 0.0
H1076 H 0.40064 0.51853 0.22685 0.0
H1077 H 0.40575 0.50735 0.21375 0.0
H1078 H 0.36821 0.47528 0.25275 0.0
C1079 C 0.39547 0.5018 0.24928 0.0
Tb1080 Tb 0.49542 0.98597 0.98948 0.0
C1081 C 0.5311 0.0582 0.02346 0.0
C1082 C 0.56629 0.06936 0.02379 0.0
C1083 C 0.55488 0.0928 0.02602 0.0
C1084 C 0.54637 0.0542 0.02263 0.0
C1085 C 0.53507 0.07746 0.02542 0.0
C1086 C 0.57048 0.08875 0.0252 0.0
C1087 C 0.49967 0.0647 0.02702 0.0
N1088 N 0.51224 0.04294 0.02292 0.0
C1089 C 0.49654 0.04582 0.02513 0.0
C1090 C 0.51902 0.08063 0.02703 0.0
Tb1091 Tb 0.50847 0.01268 0.01895 0.0
N1092 N 0.54161 0.03527 0.02139 0.0
C1093 C 0.55615 0.03036 0.02225 0.0
C1094 C 0.5813 0.06449 0.02387 0.0
C1095 C 0.57617 0.04487 0.02331 0.0
H1096 H 0.48151 0.03366 0.02505 0.0
H1097 H 0.58763 0.04088 0.02363 0.0
H1098 H 0.5857 0.10063 0.02598 0.0
H1099 H 0.48717 0.06694 0.02845 0.0
H1100 H 0.55255 0.01532 0.02171 0.0
H1101 H 0.41681 0.95808 0.98253 0.0
H1102 H 0.5968 0.07569 0.0247 0.0
H1103 H 0.52316 0.96528 0.98506 0.0
H1104 H 0.45133 0.98315 0.98703 0.0
H1105 H 0.51802 0.93258 0.98035 0.0
H1106 H 0.55827 0.10775 0.02741 0.0
H1107 H 0.40833 0.92401 0.97842 0.0
H1108 H 0.41998 0.89969 0.97557 0.0
H1109 H 0.52142 0.09522 0.02854 0.0
H1110 H 0.4473 0.89243 0.97567 0.0
N1111 N 0.46252 0.9634 0.98633 0.0
C1112 C 0.44797 0.96832 0.98553 0.0
C1113 C 0.42352 0.93485 0.98072 0.0
C1114 C 0.43854 0.92999 0.98109 0.0
C1115 C 0.42827 0.95411 0.98295 0.0
C1116 C 0.4581 0.94478 0.98398 0.0
H1117 H 0.48398 0.90461 0.97749 0.0
N1118 N 0.49221 0.95597 0.98544 0.0
C1119 C 0.50535 0.93468 0.9813 0.0
C1120 C 0.4735 0.94088 0.98361 0.0
C1121 C 0.50818 0.95325 0.98393 0.0
C1122 C 0.48611 0.91892 0.97972 0.0
C1123 C 0.4699 0.92198 0.98061 0.0
O1124 O 0.51215 0.99209 0.97302 0.0
O1125 O 0.51711 0.01059 1.00024 0.0
O1126 O 0.50602 0.03129 0.00491 0.0
O1127 O 0.48535 0.0076 0.99039 0.0
O1128 O 0.52762 0.99754 0.98869 0.0
O1129 O 0.48569 0.99433 0.97349 0.0
O1130 O 0.49215 0.00684 0.03558 0.0
O1131 O 0.48666 0.98811 0.00816 0.0
O1132 O 0.49699 0.96707 0.00369 0.0
O1133 O 0.51832 0.9909 0.01791 0.0
O1134 O 0.47623 0.00108 0.01984 0.0
O1135 O 0.51861 0.00467 0.03488 0.0
C1136 C 0.53296 0.01181 0.99638 0.0
C1137 C 0.49447 0.98666 0.95404 0.0
C1138 C 0.49444 0.99022 0.93132 0.0
C1139 C 0.49958 0.9986 0.94339 0.0
C1140 C 0.48417 0.96972 0.93015 0.0
C1141 C 0.4842 0.96631 0.95257 0.0
C1142 C 0.47909 0.95792 0.94069 0.0
C1143 C 0.49366 0.02549 0.99524 0.0
C1144 C 0.50004 0.99562 0.96658 0.0
C1145 C 0.45038 0.90702 0.97809 0.0
C1146 C 0.43478 0.9111 0.97816 0.0
C1147 C 0.47082 0.98693 0.01202 0.0
C1148 C 0.51059 0.01313 0.0543 0.0
C1149 C 0.5037 0.00189 0.06524 0.0
C1150 C 0.50906 0.01095 0.07712 0.0
C1151 C 0.5216 0.03135 0.0778 0.0
C1152 C 0.52308 0.0334 0.05528 0.0
C1153 C 0.52855 0.04243 0.06697 0.0
C1154 C 0.50961 0.97288 0.01324 0.0
C1155 C 0.50451 0.00359 0.04194 0.0
H1156 H 0.50728 0.01432 0.94452 0.0
H1157 H 0.48026 0.96275 0.92106 0.0
H1158 H 0.48019 0.9569 0.96056 0.0
H1159 H 0.47124 0.94217 0.93965 0.0
H1160 H 0.49394 0.98622 0.0645 0.0
H1161 H 0.52624 0.03875 0.08674 0.0
H1162 H 0.5286 0.04226 0.04703 0.0
H1163 H 0.53824 0.05809 0.06764 0.0
Tb1164 Tb 0.0158 0.50626 0.99276 0.0
C1165 C 0.93783 0.47128 0.02189 0.0
C1166 C 0.92679 0.49489 0.02083 0.0
C1167 C 0.90254 0.46038 0.02289 0.0
C1168 C 0.94213 0.49032 0.02061 0.0
C1169 C 0.91803 0.45608 0.0233 0.0
C1170 C 0.90692 0.47979 0.02167 0.0
C1171 C 0.93061 0.43402 0.02672 0.0
N1172 N 0.95326 0.46787 0.02246 0.0
C1173 C 0.94997 0.4496 0.02528 0.0
C1174 C 0.91452 0.43718 0.02553 0.0
Tb1175 Tb 0.98445 0.49434 0.01992 0.0
N1176 N 0.96151 0.50449 0.01997 0.0
C1177 C 0.9666 0.52374 0.02032 0.0
C1178 C 0.93192 0.51452 0.02067 0.0
C1179 C 0.95191 0.52903 0.02053 0.0
H1180 H 0.9622 0.44686 0.02616 0.0
H1181 H 0.95605 0.54429 0.02062 0.0
H1182 H 0.8949 0.48301 0.02172 0.0
H1183 H 0.92816 0.41964 0.02885 0.0
H1184 H 0.98197 0.53515 0.02022 0.0
H1185 H 0.04201 0.45436 0.99346 0.0
H1186 H 0.92058 0.51855 0.02105 0.0
H1187 H 0.03963 0.5537 0.98649 0.0
H1188 H 0.01688 0.46452 0.99277 0.0
H1189 H 0.0743 0.58045 0.98464 0.0
H1190 H 0.8872 0.4489 0.02385 0.0
H1191 H 0.07778 0.47917 0.99376 0.0
H1192 H 0.10428 0.51462 0.99275 0.0
H1193 H 0.89954 0.42508 0.0267 0.0
H1194 H 0.11311 0.54903 0.99038 0.0
N1195 N 0.038 0.49505 0.99294 0.0
C1196 C 0.03236 0.47563 0.99282 0.0
C1197 C 0.06678 0.48377 0.99342 0.0
C1198 C 0.0725 0.50357 0.99287 0.0
C1199 C 0.04661 0.46974 0.99323 0.0
C1200 C 0.05756 0.50875 0.99254 0.0
H1201 H 0.10201 0.57372 0.98718 0.0
N1202 N 0.04752 0.532 0.99038 0.0
C1203 C 0.0712 0.56575 0.98655 0.0
C1204 C 0.06252 0.52797 0.99124 0.0
C1205 C 0.05154 0.55051 0.98757 0.0
C1206 C 0.0868 0.56191 0.98802 0.0
C1207 C 0.08256 0.54276 0.9902 0.0
O1208 O 0.0134 0.5166 0.97517 0.0
O1209 O 0.98946 0.50424 1.00092 0.0
O1210 O 0.96704 0.47341 0.00528 0.0
O1211 O 0.99274 0.47491 0.99332 0.0
O1212 O 0.00518 0.52695 0.98928 0.0
O1213 O 0.0096 0.4878 0.97719 0.0
O1214 O 0.98761 0.4844 0.03746 0.0
O1215 O 0.01081 0.49666 0.01175 0.0
O1216 O 0.03295 0.52748 0.00736 0.0
O1217 O 0.00727 0.52578 0.01948 0.0
O1218 O 0.99559 0.47409 0.0235 0.0
O1219 O 0.98991 0.51263 0.03549 0.0
C1220 C 0.98949 0.51872 0.996 0.0
C1221 C 0.0223 0.50386 0.95811 0.0
C1222 C 0.02355 0.50245 0.93541 0.0
C1223 C 0.01271 0.4995 0.94646 0.0
C1224 C 0.0442 0.50987 0.93625 0.0
C1225 C 0.04285 0.51113 0.95875 0.0
C1226 C 0.05373 0.51412 0.94786 0.0
C1227 C 0.97383 0.46602 0.99682 0.0
C1228 C 0.01057 0.50086 0.96942 0.0
C1229 C 0.0976 0.53786 0.99104 0.0
C1230 C 0.09257 0.51828 0.99238 0.0
C1231 C 0.01125 0.48251 0.01678 0.0
C1232 C 0.978 0.49628 0.05459 0.0
C1233 C 0.98757 0.49931 0.06616 0.0
C1234 C 0.97688 0.49585 0.0773 0.0
C1235 C 0.95636 0.48912 0.07667 0.0
C1236 C 0.95757 0.48967 0.05412 0.0
C1237 C 0.9468 0.48607 0.06512 0.0
C1238 C 0.02619 0.53469 0.01598 0.0
C1239 C 0.98969 0.49985 0.04322 0.0
H1240 H 0.99676 0.4936 0.94604 0.0
H1241 H 0.05304 0.5126 0.92794 0.0
H1242 H 0.05049 0.51451 0.96761 0.0
H1243 H 0.06962 0.51984 0.94842 0.0
H1244 H 0.00334 0.5042 0.06646 0.0
H1245 H 0.94777 0.48656 0.08508 0.0
H1246 H 0.94995 0.48732 0.04531 0.0
H1247 H 0.93103 0.481 0.06471 0.0
Tb1248 Tb 0.50953 0.49341 0.01958 0.0
C1249 C 0.46923 0.52801 0.98711 0.0
C1250 C 0.43414 0.50415 0.98654 0.0
C1251 C 0.44508 0.53853 0.98358 0.0
C1252 C 0.45412 0.50891 0.98804 0.0
C1253 C 0.46495 0.54307 0.98479 0.0
C1254 C 0.42968 0.5191 0.9845 0.0
C1255 C 0.50027 0.5657 0.98402 0.0
N1256 N 0.48822 0.53166 0.98792 0.0
C1257 C 0.50375 0.55019 0.98605 0.0
C1258 C 0.48078 0.56215 0.98344 0.0
Tb1259 Tb 0.49237 0.50519 0.99123 0.0
N1260 N 0.45911 0.49487 0.98964 0.0
C1261 C 0.44474 0.4756 0.9891 0.0
C1262 C 0.41932 0.48448 0.98665 0.0
C1263 C 0.42469 0.47013 0.98774 0.0
H1264 H 0.51891 0.55324 0.98644 0.0
H1265 H 0.41338 0.45483 0.98756 0.0
H1266 H 0.41442 0.51575 0.98337 0.0
H1267 H 0.51263 0.58037 0.98284 0.0
H1268 H 0.44856 0.46427 0.98989 0.0
H1269 H 0.5884 0.54558 0.01994 0.0
H1270 H 0.40379 0.4802 0.98554 0.0
H1271 H 0.48513 0.4465 0.02699 0.0
H1272 H 0.55283 0.53524 0.02 0.0
H1273 H 0.49266 0.42001 0.03025 0.0
H1274 H 0.44146 0.5499 0.98181 0.0
H1275 H 0.5991 0.52088 0.02051 0.0
H1276 H 0.58965 0.48549 0.02235 0.0
H1277 H 0.47812 0.57416 0.98173 0.0
H1278 H 0.56352 0.45119 0.02523 0.0
N1279 N 0.54312 0.50478 0.02026 0.0
C1280 C 0.55713 0.52422 0.02032 0.0
C1281 C 0.5834 0.51622 0.02055 0.0
C1282 C 0.56903 0.49642 0.02129 0.0
C1283 C 0.57741 0.53019 0.02026 0.0
C1284 C 0.54881 0.49118 0.02122 0.0
H1285 H 0.52723 0.42659 0.02838 0.0
N1286 N 0.51515 0.46799 0.02322 0.0
C1287 C 0.5045 0.43454 0.02804 0.0
C1288 C 0.53426 0.47203 0.02278 0.0
C1289 C 0.50031 0.44964 0.02626 0.0
C1290 C 0.52403 0.43832 0.02698 0.0
C1291 C 0.53928 0.45735 0.02451 0.0
O1292 O 0.49546 0.48345 0.03689 0.0
O1293 O 0.486 0.49499 0.01007 0.0
O1294 O 0.49369 0.52507 0.00578 0.0
O1295 O 0.51777 0.52455 0.01854 0.0
O1296 O 0.47755 0.47284 0.02205 0.0
O1297 O 0.52098 0.51224 0.03511 0.0
O1298 O 0.50797 0.51509 0.97443 0.0
O1299 O 0.51579 0.50285 1.00054 0.0
O1300 O 0.50565 0.47168 0.00562 0.0
O1301 O 0.48316 0.47382 0.99207 0.0
O1302 O 0.52421 0.52613 0.98929 0.0
O1303 O 0.4806 0.48753 0.97517 0.0
C1304 C 0.4707 0.48082 0.01463 0.0
C1305 C 0.51601 0.49688 0.05462 0.0
C1306 C 0.51671 0.49857 0.07739 0.0
C1307 C 0.50915 0.50052 0.06585 0.0
C1308 C 0.53112 0.49273 0.07748 0.0
C1309 C 0.53038 0.4911 0.05492 0.0
C1310 C 0.53785 0.489 0.06631 0.0
C1311 C 0.50736 0.53274 0.01469 0.0
C1312 C 0.50812 0.49939 0.04273 0.0
C1313 C 0.55933 0.46227 0.02405 0.0
C1314 C 0.5742 0.4818 0.02242 0.0
C1315 C 0.53093 0.51742 0.99614 0.0
C1316 C 0.48915 0.50436 0.95596 0.0
C1317 C 0.49657 0.50051 0.94506 0.0
C1318 C 0.49252 0.50567 0.93333 0.0
C1319 C 0.48084 0.51466 0.93265 0.0
C1320 C 0.47736 0.51316 0.95511 0.0
C1321 C 0.47323 0.51826 0.94349 0.0
C1322 C 0.49224 0.46461 0.99651 0.0
C1323 C 0.49484 0.50004 0.96809 0.0
H1324 H 0.49821 0.50522 0.06559 0.0
H1325 H 0.53707 0.49088 0.0862 0.0
H1326 H 0.53587 0.48829 0.04639 0.0
H1327 H 0.54892 0.48449 0.06649 0.0
H1328 H 0.50583 0.49386 0.94574 0.0
H1329 H 0.47737 0.51866 0.92373 0.0
H1330 H 0.4715 0.51621 0.96338 0.0
H1331 H 0.46416 0.52509 0.94288 0.0
Tb1332 Tb 0.16348 0.32334 0.32395 0.0
C1333 C 0.20592 0.39723 0.35697 0.0
C1334 C 0.24056 0.40694 0.35488 0.0
C1335 C 0.23108 0.43158 0.35844 0.0
C1336 C 0.22032 0.39238 0.35489 0.0
C1337 C 0.21106 0.4168 0.35915 0.0
C1338 C 0.24584 0.42665 0.3563 0.0
C1339 C 0.17663 0.40533 0.36394 0.0
N1340 N 0.18688 0.38247 0.35768 0.0
C1341 C 0.17236 0.38613 0.36172 0.0
C1342 C 0.19601 0.42079 0.36241 0.0
Tb1343 Tb 0.18076 0.35161 0.35286 0.0
N1344 N 0.21448 0.37318 0.35365 0.0
C1345 C 0.22845 0.36744 0.35352 0.0
C1346 C 0.25485 0.40118 0.35385 0.0
C1347 C 0.24876 0.38131 0.35341 0.0
H1348 H 0.15728 0.37432 0.36282 0.0
H1349 H 0.25968 0.37665 0.35291 0.0
H1350 H 0.2613 0.43809 0.35614 0.0
H1351 H 0.16495 0.40818 0.36677 0.0
H1352 H 0.22416 0.35222 0.35305 0.0
H1353 H 0.08481 0.29886 0.32229 0.0
H1354 H 0.27057 0.41189 0.35375 0.0
H1355 H 0.18783 0.29987 0.31735 0.0
H1356 H 0.12044 0.32318 0.3229 0.0
H1357 H 0.18003 0.26579 0.31436 0.0
H1358 H 0.23535 0.44676 0.35992 0.0
H1359 H 0.07378 0.26358 0.32149 0.0
H1360 H 0.08291 0.23723 0.31991 0.0
H1361 H 0.1993 0.43564 0.36414 0.0
H1362 H 0.10888 0.22818 0.31774 0.0
N1363 N 0.12987 0.30203 0.32274 0.0
C1364 C 0.11601 0.3079 0.32248 0.0
C1365 C 0.08952 0.27422 0.32173 0.0
C1366 C 0.10376 0.26834 0.32127 0.0
C1367 C 0.09569 0.29411 0.32215 0.0
C1368 C 0.12403 0.2828 0.32168 0.0
H1369 H 0.1452 0.23876 0.31554 0.0
N1370 N 0.15772 0.29228 0.32039 0.0
C1371 C 0.1682 0.26892 0.31615 0.0
C1372 C 0.1385 0.27772 0.32045 0.0
C1373 C 0.17255 0.28825 0.31779 0.0
C1374 C 0.14853 0.25371 0.31682 0.0
C1375 C 0.13333 0.25803 0.3188 0.0
O1376 O 0.17839 0.3275 0.3069 0.0
O1377 O 0.18677 0.34842 0.33363 0.0
O1378 O 0.1756 0.36978 0.33976 0.0
O1379 O 0.15539 0.34635 0.32473 0.0
O1380 O 0.19524 0.33365 0.32188 0.0
O1381 O 0.15252 0.3307 0.30813 0.0
O1382 O 0.16577 0.34575 0.37003 0.0
O1383 O 0.15729 0.32715 0.34294 0.0
O1384 O 0.16606 0.3049 0.33804 0.0
O1385 O 0.18957 0.32913 0.35114 0.0
O1386 O 0.14898 0.34136 0.35515 0.0
O1387 O 0.19184 0.34316 0.36811 0.0
C1388 C 0.20182 0.34873 0.32903 0.0
C1389 C 0.15918 0.32144 0.28854 0.0
C1390 C 0.1583 0.32383 0.26578 0.0
C1391 C 0.16473 0.33277 0.27762 0.0
C1392 C 0.14635 0.30334 0.26513 0.0
C1393 C 0.1472 0.3011 0.28762 0.0
C1394 C 0.14087 0.29213 0.27596 0.0
C1395 C 0.16343 0.36398 0.32995 0.0
C1396 C 0.16603 0.33108 0.3008 0.0
C1397 C 0.11319 0.24343 0.31888 0.0
C1398 C 0.09841 0.24858 0.32012 0.0
C1399 C 0.14223 0.32679 0.34756 0.0
C1400 C 0.18528 0.35108 0.3881 0.0
C1401 C 0.17846 0.33945 0.39887 0.0
C1402 C 0.1851 0.34781 0.41082 0.0
C1403 C 0.19854 0.36803 0.41176 0.0
C1404 C 0.19871 0.37115 0.3893 0.0
C1405 C 0.20526 0.37956 0.40109 0.0
C1406 C 0.17956 0.3108 0.34706 0.0
C1407 C 0.17833 0.34205 0.37572 0.0
H1408 H 0.17377 0.34852 0.27837 0.0
H1409 H 0.14139 0.29591 0.25622 0.0
H1410 H 0.14277 0.29217 0.29588 0.0
H1411 H 0.13169 0.27639 0.27531 0.0
H1412 H 0.16828 0.32389 0.3979 0.0
H1413 H 0.20372 0.37503 0.42078 0.0
H1414 H 0.20414 0.3803 0.38115 0.0
H1415 H 0.21558 0.39508 0.40196 0.0
Tb1416 Tb 0.68631 0.84618 0.32521 0.0
C1417 C 0.60946 0.80436 0.35446 0.0
C1418 C 0.5976 0.82735 0.35582 0.0
C1419 C 0.57399 0.79246 0.35573 0.0
C1420 C 0.61331 0.82337 0.35472 0.0
C1421 C 0.58981 0.78864 0.35521 0.0
C1422 C 0.57789 0.8118 0.35606 0.0
C1423 C 0.60308 0.76677 0.35606 0.0
N1424 N 0.62518 0.80136 0.35419 0.0
C1425 C 0.62232 0.78288 0.35546 0.0
C1426 C 0.58673 0.76964 0.3558 0.0
Tb1427 Tb 0.65609 0.82865 0.35274 0.0
N1428 N 0.63256 0.83793 0.35457 0.0
C1429 C 0.63715 0.85691 0.35624 0.0
C1430 C 0.60222 0.84679 0.35705 0.0
C1431 C 0.62209 0.86163 0.35735 0.0
H1432 H 0.63483 0.78048 0.35562 0.0
H1433 H 0.62587 0.87671 0.35848 0.0
H1434 H 0.5656 0.81457 0.35678 0.0
H1435 H 0.60088 0.75216 0.35675 0.0
H1436 H 0.65241 0.8686 0.3565 0.0
H1437 H 0.71552 0.7976 0.31791 0.0
H1438 H 0.59057 0.8504 0.3581 0.0
H1439 H 0.70744 0.89444 0.32267 0.0
H1440 H 0.68973 0.8059 0.32252 0.0
H1441 H 0.74094 0.92253 0.31957 0.0
H1442 H 0.55875 0.78059 0.35621 0.0
H1443 H 0.75007 0.82372 0.31436 0.0
H1444 H 0.77448 0.85961 0.31224 0.0
H1445 H 0.57185 0.75714 0.35635 0.0
H1446 H 0.78188 0.89362 0.31381 0.0
N1447 N 0.7096 0.83673 0.32261 0.0
C1448 C 0.70481 0.81761 0.32139 0.0
C1449 C 0.73894 0.82756 0.3168 0.0
C1450 C 0.74371 0.84709 0.3177 0.0
C1451 C 0.71942 0.81276 0.31871 0.0
C1452 C 0.72855 0.85124 0.32072 0.0
H1453 H 0.76952 0.91728 0.31675 0.0
N1454 N 0.71704 0.87343 0.32288 0.0
C1455 C 0.7388 0.90792 0.32002 0.0
C1456 C 0.73246 0.87028 0.32101 0.0
C1457 C 0.71981 0.89192 0.32187 0.0
C1458 C 0.75489 0.9049 0.31846 0.0
C1459 C 0.75175 0.88587 0.31862 0.0
O1460 O 0.6802 0.85771 0.30932 0.0
O1461 O 0.65957 0.84113 0.33452 0.0
O1462 O 0.63887 0.80979 0.33725 0.0
O1463 O 0.66443 0.81445 0.32396 0.0
O1464 O 0.67454 0.86627 0.32482 0.0
O1465 O 0.68207 0.83145 0.308 0.0
O1466 O 0.65882 0.81572 0.36917 0.0
O1467 O 0.68287 0.83383 0.34345 0.0
O1468 O 0.70369 0.86586 0.34037 0.0
O1469 O 0.67821 0.86022 0.35426 0.0
O1470 O 0.66865 0.80911 0.35356 0.0
O1471 O 0.6614 0.8442 0.36961 0.0
C1472 C 0.65879 0.85606 0.33125 0.0
C1473 C 0.69053 0.8515 0.29012 0.0
C1474 C 0.68922 0.85035 0.26731 0.0
C1475 C 0.68079 0.84233 0.27896 0.0
C1476 C 0.70809 0.86745 0.26719 0.0
C1477 C 0.70941 0.86823 0.28972 0.0
C1478 C 0.71818 0.87605 0.2783 0.0
C1479 C 0.6457 0.80431 0.32772 0.0
C1480 C 0.67981 0.84444 0.30192 0.0
C1481 C 0.76702 0.88188 0.31586 0.0
C1482 C 0.76289 0.86251 0.31515 0.0
C1483 C 0.68415 0.81929 0.34692 0.0
C1484 C 0.64886 0.8248 0.38756 0.0
C1485 C 0.65847 0.82941 0.39921 0.0
C1486 C 0.64738 0.82437 0.41028 0.0
C1487 C 0.6265 0.81464 0.40951 0.0
C1488 C 0.62805 0.81514 0.38699 0.0
C1489 C 0.61694 0.81009 0.39791 0.0
C1490 C 0.69661 0.87088 0.35003 0.0
C1491 C 0.66087 0.83013 0.37619 0.0
H1492 H 0.66646 0.82912 0.2795 0.0
H1493 H 0.715 0.87463 0.25858 0.0
H1494 H 0.71718 0.87557 0.29816 0.0
H1495 H 0.73262 0.88918 0.27806 0.0
H1496 H 0.67456 0.83671 0.39963 0.0
H1497 H 0.61758 0.81079 0.41786 0.0
H1498 H 0.62036 0.81148 0.37816 0.0
H1499 H 0.60087 0.80267 0.39739 0.0
Tb1500 Tb 0.17918 0.83171 0.35344 0.0
C1501 C 0.13899 0.86405 0.31959 0.0
C1502 C 0.10436 0.83901 0.31826 0.0
C1503 C 0.11388 0.87307 0.31529 0.0
C1504 C 0.12445 0.84467 0.32041 0.0
C1505 C 0.13395 0.87849 0.31688 0.0
C1506 C 0.09913 0.85334 0.31585 0.0
C1507 C 0.16902 0.90209 0.31592 0.0
N1508 N 0.15822 0.86852 0.32056 0.0
C1509 C 0.17326 0.88715 0.3183 0.0
C1510 C 0.14927 0.89777 0.31531 0.0
Tb1511 Tb 0.16363 0.84302 0.32437 0.0
N1512 N 0.13017 0.83124 0.32239 0.0
C1513 C 0.11645 0.81172 0.32197 0.0
C1514 C 0.0903 0.81909 0.31802 0.0
C1515 C 0.09634 0.80539 0.31994 0.0
H1516 H 0.18859 0.89065 0.31869 0.0
H1517 H 0.08556 0.78993 0.31965 0.0
H1518 H 0.08382 0.84929 0.31405 0.0
H1519 H 0.18099 0.91688 0.31447 0.0
H1520 H 0.12084 0.80088 0.32324 0.0
H1521 H 0.2581 0.88351 0.35521 0.0
H1522 H 0.07488 0.81411 0.31593 0.0
H1523 H 0.1546 0.78635 0.3638 0.0
H1524 H 0.22279 0.87332 0.35351 0.0
H1525 H 0.16166 0.76018 0.36936 0.0
H1526 H 0.10967 0.88392 0.31318 0.0
H1527 H 0.2685 0.85877 0.35799 0.0
H1528 H 0.25879 0.8236 0.36084 0.0
H1529 H 0.14602 0.90931 0.31327 0.0
H1530 H 0.23234 0.78973 0.3646 0.0
N1531 N 0.21275 0.84282 0.35469 0.0
C1532 C 0.22687 0.86223 0.35458 0.0
C1533 C 0.25289 0.85417 0.35697 0.0
C1534 C 0.2384 0.83444 0.35774 0.0
C1535 C 0.24707 0.86814 0.35551 0.0
C1536 C 0.21824 0.82924 0.35668 0.0
H1537 H 0.19601 0.76599 0.36808 0.0
N1538 N 0.18451 0.80664 0.35888 0.0
C1539 C 0.17358 0.7742 0.36631 0.0
C1540 C 0.20352 0.81037 0.35882 0.0
C1541 C 0.16965 0.78911 0.36315 0.0
C1542 C 0.19296 0.77749 0.36553 0.0
C1543 C 0.20832 0.79592 0.36204 0.0
O1544 O 0.16352 0.82341 0.37038 0.0
O1545 O 0.15602 0.83356 0.34332 0.0
O1546 O 0.16531 0.86389 0.33834 0.0
O1547 O 0.1883 0.86293 0.35183 0.0
O1548 O 0.14726 0.81079 0.35508 0.0
O1549 O 0.19078 0.85073 0.3689 0.0
O1550 O 0.17878 0.8539 0.30745 0.0
O1551 O 0.1866 0.84053 0.33424 0.0
O1552 O 0.17468 0.80824 0.34065 0.0
O1553 O 0.15567 0.81205 0.32499 0.0
O1554 O 0.19547 0.86388 0.32284 0.0
O1555 O 0.15324 0.825 0.30841 0.0
C1556 C 0.14071 0.81895 0.34759 0.0
C1557 C 0.18333 0.83526 0.3885 0.0
C1558 C 0.18023 0.8334 0.41118 0.0
C1559 C 0.17461 0.83719 0.39947 0.0
C1560 C 0.19468 0.82765 0.41173 0.0
C1561 C 0.19789 0.82975 0.38928 0.0
C1562 C 0.20347 0.82591 0.40084 0.0
C1563 C 0.17872 0.87158 0.34738 0.0
C1564 C 0.17686 0.83878 0.37634 0.0
C1565 C 0.22833 0.80066 0.36228 0.0
C1566 C 0.24338 0.81993 0.36015 0.0
C1567 C 0.20188 0.85511 0.3299 0.0
C1568 C 0.15946 0.84129 0.28911 0.0
C1569 C 0.16599 0.83692 0.27798 0.0
C1570 C 0.1593 0.83969 0.26632 0.0
C1571 C 0.14615 0.84709 0.26603 0.0
C1572 C 0.14624 0.84847 0.28855 0.0
C1573 C 0.13967 0.8514 0.27707 0.0
C1574 C 0.16312 0.80211 0.33058 0.0
C1575 C 0.16657 0.83824 0.30119 0.0
H1576 H 0.16332 0.8414 0.39888 0.0
H1577 H 0.19945 0.82483 0.4206 0.0
H1578 H 0.20499 0.82848 0.38101 0.0
H1579 H 0.21471 0.82165 0.40136 0.0
H1580 H 0.17602 0.83112 0.27842 0.0
H1581 H 0.14101 0.84976 0.25725 0.0
H1582 H 0.14098 0.85184 0.29692 0.0
H1583 H 0.12955 0.85706 0.27674 0.0
Tb1584 Tb 0.8263 0.65161 0.65662 0.0
C1585 C 0.86778 0.72289 0.69093 0.0
C1586 C 0.90217 0.73094 0.69075 0.0
C1587 C 0.89399 0.75667 0.69351 0.0
C1588 C 0.88173 0.71711 0.68981 0.0
C1589 C 0.87365 0.74265 0.69308 0.0
C1590 C 0.90825 0.75082 0.69233 0.0
C1591 C 0.83896 0.7329 0.69528 0.0
N1592 N 0.84835 0.70887 0.69054 0.0
C1593 C 0.83392 0.71346 0.69318 0.0
C1594 C 0.85891 0.74761 0.69507 0.0
Tb1595 Tb 0.84143 0.67762 0.68631 0.0
N1596 N 0.87519 0.69778 0.68835 0.0
C1597 C 0.88844 0.69114 0.68871 0.0
C1598 C 0.91582 0.72431 0.69038 0.0
C1599 C 0.9089 0.70429 0.68955 0.0
H1600 H 0.81845 0.70219 0.69325 0.0
H1601 H 0.9193 0.69895 0.68948 0.0
H1602 H 0.92389 0.7617 0.69294 0.0
H1603 H 0.82746 0.73652 0.69704 0.0
H1604 H 0.88348 0.67577 0.68797 0.0
H1605 H 0.7471 0.6242 0.65401 0.0
H1606 H 0.93167 0.73445 0.69102 0.0
H1607 H 0.85224 0.63141 0.64639 0.0
H1608 H 0.78231 0.6494 0.65599 0.0
H1609 H 0.8461 0.59867 0.64064 0.0
H1610 H 0.89884 0.77198 0.69503 0.0
H1611 H 0.73781 0.58963 0.65092 0.0
H1612 H 0.74827 0.56462 0.6479 0.0
H1613 H 0.86279 0.76264 0.69674 0.0
H1614 H 0.77537 0.55755 0.64428 0.0
N1615 N 0.793 0.62929 0.65474 0.0
C1616 C 0.77856 0.6344 0.65478 0.0
C1617 C 0.75323 0.6006 0.65207 0.0
C1618 C 0.76804 0.59556 0.6513 0.0
C1619 C 0.75848 0.62012 0.65368 0.0
C1620 C 0.78802 0.61047 0.65255 0.0
H1621 H 0.81198 0.57028 0.64127 0.0
N1622 N 0.82198 0.62173 0.6508 0.0
C1623 C 0.83386 0.60063 0.64349 0.0
C1624 C 0.8031 0.60652 0.65051 0.0
C1625 C 0.83727 0.61922 0.64678 0.0
C1626 C 0.8146 0.58463 0.64391 0.0
C1627 C 0.79884 0.58753 0.64718 0.0
O1628 O 0.84297 0.66047 0.64006 0.0
O1629 O 0.84899 0.67565 0.66734 0.0
O1630 O 0.8392 0.69687 0.67266 0.0
O1631 O 0.81684 0.67357 0.65861 0.0
O1632 O 0.8582 0.66204 0.65528 0.0
O1633 O 0.81479 0.65916 0.64112 0.0
O1634 O 0.82607 0.67378 0.70317 0.0
O1635 O 0.8186 0.65334 0.67577 0.0
O1636 O 0.82998 0.63202 0.66927 0.0
O1637 O 0.84865 0.654 0.68535 0.0
O1638 O 0.80963 0.66757 0.68765 0.0
O1639 O 0.85049 0.66826 0.70208 0.0
C1640 C 0.86438 0.67625 0.66312 0.0
C1641 C 0.82465 0.65379 0.62135 0.0
C1642 C 0.82828 0.65768 0.59871 0.0
C1643 C 0.83186 0.66588 0.61081 0.0
C1644 C 0.817 0.63724 0.59736 0.0
C1645 C 0.8133 0.63349 0.61973 0.0
C1646 C 0.80949 0.62529 0.60779 0.0
C1647 C 0.82613 0.69148 0.66341 0.0
C1648 C 0.82961 0.66248 0.63396 0.0
C1649 C 0.77898 0.5723 0.64668 0.0
C1650 C 0.76356 0.57632 0.64874 0.0
C1651 C 0.80333 0.65298 0.68009 0.0
C1652 C 0.84461 0.67812 0.72165 0.0
C1653 C 0.83784 0.66676 0.73253 0.0
C1654 C 0.84499 0.67531 0.74439 0.0
C1655 C 0.85881 0.69546 0.74513 0.0
C1656 C 0.85844 0.69812 0.72267 0.0
C1657 C 0.86544 0.70672 0.73435 0.0
C1658 C 0.84108 0.63684 0.67954 0.0
C1659 C 0.83739 0.66887 0.70933 0.0
H1660 H 0.84053 0.68158 0.61203 0.0
H1661 H 0.81374 0.63049 0.58819 0.0
H1662 H 0.80742 0.62397 0.62766 0.0
H1663 H 0.80073 0.60959 0.60662 0.0
H1664 H 0.82732 0.65124 0.73173 0.0
H1665 H 0.86437 0.7026 0.75408 0.0
H1666 H 0.86386 0.70707 0.71446 0.0
H1667 H 0.87607 0.72219 0.73506 0.0
Tb1668 Tb 0.35017 0.17289 0.65897 0.0
C1669 C 0.27174 0.13685 0.68769 0.0
C1670 C 0.26108 0.16077 0.68708 0.0
C1671 C 0.23651 0.12626 0.6885 0.0
C1672 C 0.27628 0.156 0.68681 0.0
C1673 C 0.25184 0.12172 0.68878 0.0
C1674 C 0.24113 0.14578 0.68766 0.0
C1675 C 0.26392 0.0991 0.69142 0.0
N1676 N 0.28702 0.13319 0.68813 0.0
C1677 C 0.28342 0.11465 0.69041 0.0
C1678 C 0.24804 0.10261 0.69047 0.0
Tb1679 Tb 0.31843 0.15958 0.68601 0.0
N1680 N 0.29572 0.17003 0.68634 0.0
C1681 C 0.301 0.18933 0.68691 0.0
C1682 C 0.26642 0.18046 0.68715 0.0
C1683 C 0.28646 0.19483 0.68716 0.0
H1684 H 0.29552 0.11167 0.69109 0.0
H1685 H 0.29074 0.21013 0.6874 0.0
H1686 H 0.22922 0.14917 0.68776 0.0
H1687 H 0.26116 0.08442 0.69294 0.0
H1688 H 0.31642 0.20063 0.6869 0.0
H1689 H 0.37507 0.12006 0.65628 0.0
H1690 H 0.25519 0.18465 0.68755 0.0
H1691 H 0.37461 0.22101 0.65524 0.0
H1692 H 0.3504 0.13074 0.65746 0.0
H1693 H 0.40941 0.24752 0.65354 0.0
H1694 H 0.2211 0.11485 0.68922 0.0
H1695 H 0.41094 0.14446 0.65573 0.0
H1696 H 0.43782 0.17979 0.65534 0.0
H1697 H 0.23296 0.09056 0.69133 0.0
H1698 H 0.44721 0.21452 0.6548 0.0
N1699 N 0.37189 0.16118 0.65778 0.0
C1700 C 0.36592 0.14169 0.65716 0.0
C1701 C 0.40014 0.1493 0.6562 0.0
C1702 C 0.40616 0.1692 0.65636 0.0
C1703 C 0.37991 0.1355 0.6565 0.0
C1704 C 0.39149 0.17469 0.65705 0.0
H1705 H 0.43671 0.23994 0.65406 0.0
N1706 N 0.38203 0.19856 0.65711 0.0
C1707 C 0.40607 0.23256 0.65452 0.0
C1708 C 0.39677 0.19411 0.65685 0.0
C1709 C 0.38634 0.21746 0.65545 0.0
C1710 C 0.42144 0.22823 0.65485 0.0
C1711 C 0.41687 0.20877 0.65582 0.0
O1712 O 0.34808 0.18484 0.64196 0.0
O1713 O 0.32374 0.17046 0.66725 0.0
O1714 O 0.30118 0.13947 0.67099 0.0
O1715 O 0.32685 0.14158 0.6587 0.0
O1716 O 0.33987 0.19402 0.65636 0.0
O1717 O 0.3437 0.15566 0.64273 0.0
O1718 O 0.32077 0.14895 0.7035 0.0
O1719 O 0.34461 0.16175 0.67763 0.0
O1720 O 0.36743 0.19268 0.67427 0.0
O1721 O 0.34143 0.1909 0.68601 0.0
O1722 O 0.32917 0.13891 0.68915 0.0
O1723 O 0.32462 0.17782 0.7017 0.0
C1724 C 0.32387 0.18526 0.66276 0.0
C1725 C 0.35621 0.17311 0.62404 0.0
C1726 C 0.35627 0.17117 0.60131 0.0
C1727 C 0.34591 0.16712 0.61264 0.0
C1728 C 0.37721 0.18114 0.60164 0.0
C1729 C 0.37703 0.18296 0.62416 0.0
C1730 C 0.38746 0.18689 0.613 0.0
C1731 C 0.30791 0.1326 0.66215 0.0
C1732 C 0.34484 0.16946 0.63557 0.0
C1733 C 0.43165 0.20348 0.65549 0.0
C1734 C 0.4263 0.18371 0.65576 0.0
C1735 C 0.34476 0.14724 0.68236 0.0
C1736 C 0.31197 0.16157 0.72069 0.0
C1737 C 0.32191 0.16802 0.73218 0.0
C1738 C 0.31118 0.1648 0.7433 0.0
C1739 C 0.29027 0.15517 0.74266 0.0
C1740 C 0.29117 0.1521 0.72026 0.0
C1741 C 0.28039 0.14897 0.7312 0.0
C1742 C 0.36052 0.19963 0.68297 0.0
C1743 C 0.32364 0.16463 0.70936 0.0
H1744 H 0.32979 0.15926 0.61266 0.0
H1745 H 0.38571 0.18483 0.59312 0.0
H1746 H 0.38523 0.18777 0.63281 0.0
H1747 H 0.40355 0.19461 0.61315 0.0
H1748 H 0.33803 0.1756 0.7324 0.0
H1749 H 0.28148 0.15209 0.75103 0.0
H1750 H 0.28326 0.14703 0.71153 0.0
H1751 H 0.26431 0.14154 0.73082 0.0
Tb1752 Tb 0.84463 0.16215 0.68623 0.0
C1753 C 0.80771 0.19791 0.65288 0.0
C1754 C 0.77245 0.17488 0.65307 0.0
C1755 C 0.78421 0.20949 0.65038 0.0
C1756 C 0.79228 0.17904 0.65407 0.0
C1757 C 0.80394 0.21337 0.65079 0.0
C1758 C 0.76847 0.19025 0.65151 0.0
C1759 C 0.83933 0.23491 0.64866 0.0
N1760 N 0.82649 0.20093 0.65318 0.0
C1761 C 0.84227 0.21905 0.65066 0.0
C1762 C 0.82009 0.23211 0.64886 0.0
Tb1763 Tb 0.82984 0.17418 0.65714 0.0
N1764 N 0.79677 0.16462 0.65542 0.0
C1765 C 0.78201 0.14547 0.65498 0.0
C1766 C 0.75729 0.15538 0.65325 0.0
C1767 C 0.76207 0.14058 0.65408 0.0
H1768 H 0.85722 0.22145 0.65055 0.0
H1769 H 0.75041 0.12541 0.65401 0.0
H1770 H 0.7533 0.18735 0.65086 0.0
H1771 H 0.8519 0.24929 0.64698 0.0
H1772 H 0.78543 0.13385 0.65564 0.0
H1773 H 0.92401 0.21058 0.68981 0.0
H1774 H 0.74194 0.15164 0.65238 0.0
H1775 H 0.81645 0.11472 0.69235 0.0
H1776 H 0.88935 0.2021 0.6863 0.0
H1777 H 0.82125 0.08731 0.69811 0.0
H1778 H 0.78097 0.22117 0.64889 0.0
H1779 H 0.93206 0.18481 0.69483 0.0
H1780 H 0.91973 0.14953 0.69992 0.0
H1781 H 0.81784 0.2444 0.64725 0.0
H1782 H 0.892 0.11586 0.70146 0.0
N1783 N 0.8776 0.17142 0.6883 0.0
C1784 C 0.8925 0.19052 0.68814 0.0
C1785 C 0.91677 0.18087 0.69297 0.0
C1786 C 0.90141 0.16146 0.69369 0.0
C1787 C 0.91228 0.19547 0.69019 0.0
C1788 C 0.88179 0.15715 0.69115 0.0
H1789 H 0.8552 0.09247 0.70074 0.0
N1790 N 0.84747 0.13535 0.69103 0.0
C1791 C 0.83403 0.10161 0.69657 0.0
C1792 C 0.86614 0.13841 0.69255 0.0
C1793 C 0.83139 0.11729 0.6933 0.0
C1794 C 0.8532 0.10455 0.69799 0.0
C1795 C 0.86955 0.1232 0.6962 0.0
O1796 O 0.82924 0.15353 0.70324 0.0
O1797 O 0.82201 0.16492 0.67612 0.0
O1798 O 0.83286 0.19573 0.67103 0.0
O1799 O 0.85514 0.1937 0.68467 0.0
O1800 O 0.81253 0.14222 0.68801 0.0
O1801 O 0.85612 0.18132 0.70161 0.0
O1802 O 0.84477 0.18365 0.64003 0.0
O1803 O 0.85227 0.17114 0.66718 0.0
O1804 O 0.84179 0.14048 0.67255 0.0
O1805 O 0.81995 0.14267 0.6585 0.0
O1806 O 0.86207 0.1938 0.65528 0.0
O1807 O 0.81829 0.15553 0.64151 0.0
C1808 C 0.80646 0.1507 0.68046 0.0
C1809 C 0.84867 0.16658 0.72146 0.0
C1810 C 0.84697 0.16824 0.74415 0.0
C1811 C 0.84073 0.17032 0.73218 0.0
C1812 C 0.86106 0.16207 0.7452 0.0
C1813 C 0.86275 0.16053 0.72274 0.0
C1814 C 0.86884 0.15822 0.73456 0.0
C1815 C 0.8462 0.20295 0.68015 0.0
C1816 C 0.84223 0.1693 0.70908 0.0
C1817 C 0.88907 0.12728 0.69848 0.0
C1818 C 0.90492 0.14643 0.69744 0.0
C1819 C 0.86795 0.18509 0.66279 0.0
C1820 C 0.82458 0.17131 0.62204 0.0
C1821 C 0.83154 0.16773 0.61081 0.0
C1822 C 0.82474 0.17064 0.59924 0.0
C1823 C 0.81106 0.1774 0.59913 0.0
C1824 C 0.81087 0.17792 0.62167 0.0
C1825 C 0.8042 0.18099 0.61028 0.0
C1826 C 0.82867 0.13332 0.66329 0.0
C1827 C 0.83174 0.16807 0.63404 0.0
H1828 H 0.83003 0.17524 0.73119 0.0
H1829 H 0.86598 0.1601 0.75427 0.0
H1830 H 0.8691 0.15768 0.71466 0.0
H1831 H 0.87969 0.1535 0.73547 0.0
H1832 H 0.84197 0.1624 0.61111 0.0
H1833 H 0.80579 0.18013 0.59042 0.0
H1834 H 0.80528 0.18068 0.63015 0.0
H1835 H 0.79367 0.18618 0.61008 0.0
H1836 H 0.33695 0.86584 0.08226 0.0
H1837 H 0.3656 0.88825 0.06981 0.0
H1838 H 0.328 0.87331 0.03718 0.0
H1839 H 0.2992 0.85115 0.04958 0.0
H1840 H 0.36325 0.8746 0.03212 0.0
H1841 H 0.3416 0.91521 0.05275 0.0
H1842 H 0.33302 0.92861 0.07096 0.0
H1843 H 0.39187 0.95079 0.08593 0.0
H1844 H 0.40071 0.93725 0.06791 0.0
H1845 H 0.4352 0.98467 0.01327 0.0
H1846 H 0.40419 0.95736 0.02088 0.0
H1847 H 0.43205 0.92192 0.02307 0.0
H1848 H 0.46288 0.9491 0.01502 0.0
H1849 H 0.40142 0.94498 0.04327 0.0
H1850 H 0.40284 0.87851 0.02636 0.0
H1851 H 0.40662 0.86201 0.00784 0.0
H1852 H 0.38396 0.89057 0.98449 0.0
H1853 H 0.38087 0.90787 0.00283 0.0
C1854 C 0.33471 0.86742 0.07246 0.0
C1855 C 0.31569 0.85672 0.06696 0.0
C1856 C 0.35114 0.88018 0.06534 0.0
C1857 C 0.34892 0.88256 0.05258 0.0
C1858 C 0.33008 0.87164 0.047 0.0
C1859 C 0.31363 0.85892 0.05411 0.0
C1860 C 0.36612 0.89676 0.04508 0.0
C1861 C 0.37161 0.89001 0.03455 0.0
C1862 C 0.37703 0.91685 0.04822 0.0
C1863 C 0.37175 0.92505 0.05904 0.0
C1864 C 0.35266 0.92281 0.05998 0.0
C1865 C 0.34776 0.93044 0.07026 0.0
C1866 C 0.36187 0.94049 0.07962 0.0
C1867 C 0.38094 0.94297 0.0787 0.0
C1868 C 0.38591 0.93532 0.06844 0.0
C1869 C 0.43444 0.9708 0.01494 0.0
C1870 C 0.45137 0.96897 0.01347 0.0
C1871 C 0.41675 0.9552 0.01935 0.0
C1872 C 0.41569 0.93751 0.02265 0.0
C1873 C 0.43226 0.93523 0.02042 0.0
C1874 C 0.44996 0.95083 0.01582 0.0
C1875 C 0.39847 0.92295 0.03008 0.0
C1876 C 0.39309 0.9296 0.04075 0.0
C1877 C 0.38762 0.90281 0.02706 0.0
C1878 C 0.39184 0.89458 0.01589 0.0
C1879 C 0.39904 0.88152 0.01723 0.0
C1880 C 0.40107 0.87207 0.00678 0.0
C1881 C 0.39556 0.87528 0.99499 0.0
C1882 C 0.38838 0.88825 0.99361 0.0
C1883 C 0.38672 0.89807 0.004 0.0
H1884 H 0.39684 0.8677 0.98694 0.0
H1885 H 0.35806 0.94641 0.08758 0.0
H1886 H 0.13194 0.4365 0.06748 0.0
H1887 H 0.10603 0.44124 0.05778 0.0
H1888 H 0.1505 0.49874 0.04596 0.0
H1889 H 0.1765 0.49408 0.05565 0.0
H1890 H 0.11681 0.49775 0.05649 0.0
H1891 H 0.13182 0.4636 0.0251 0.0
H1892 H 0.13665 0.43709 0.01688 0.0
H1893 H 0.07615 0.39506 0.02553 0.0
H1894 H 0.07104 0.42131 0.03398 0.0
H1895 H 0.05022 0.51238 0.01885 0.0
H1896 H 0.07891 0.50999 0.02575 0.0
H1897 H 0.04085 0.44807 0.03145 0.0
H1898 H 0.01247 0.45026 0.0235 0.0
H1899 H 0.07332 0.45289 0.0231 0.0
H1900 H 0.05832 0.48561 0.05587 0.0
H1901 H 0.05279 0.51145 0.06459 0.0
H1902 H 0.11193 0.55502 0.05433 0.0
H1903 H 0.11774 0.52946 0.04542 0.0
C1904 C 0.13619 0.4502 0.06288 0.0
C1905 C 0.15631 0.46489 0.06231 0.0
C1906 C 0.12138 0.45285 0.05727 0.0
C1907 C 0.12631 0.4703 0.05106 0.0
C1908 C 0.14633 0.48514 0.05067 0.0
C1909 C 0.16118 0.4824 0.05614 0.0
C1910 C 0.11058 0.47299 0.04492 0.0
C1911 C 0.10744 0.4881 0.04908 0.0
C1912 C 0.09811 0.46019 0.03541 0.0
C1913 C 0.10111 0.4444 0.03028 0.0
C1914 C 0.1196 0.44869 0.02534 0.0
C1915 C 0.12237 0.43371 0.02062 0.0
C1916 C 0.10673 0.41439 0.02071 0.0
C1917 C 0.08826 0.41003 0.02548 0.0
C1918 C 0.08541 0.42495 0.03023 0.0
C1919 C 0.04806 0.49819 0.02121 0.0
C1920 C 0.02917 0.4814 0.02025 0.0
C1921 C 0.06446 0.49686 0.02542 0.0
C1922 C 0.06214 0.47888 0.02939 0.0
C1923 C 0.0432 0.46212 0.02843 0.0
C1924 C 0.02694 0.46338 0.02393 0.0
C1925 C 0.07915 0.47744 0.03483 0.0
C1926 C 0.08262 0.46258 0.03051 0.0
C1927 C 0.09175 0.49032 0.04433 0.0
C1928 C 0.0884 0.50564 0.0499 0.0
C1929 C 0.07012 0.50071 0.05544 0.0
C1930 C 0.06693 0.5153 0.06041 0.0
C1931 C 0.082 0.53486 0.05999 0.0
C1932 C 0.10028 0.53986 0.05464 0.0
C1933 C 0.10354 0.52533 0.04964 0.0
H1934 H 0.07953 0.54613 0.06386 0.0
H1935 H 0.10891 0.40282 0.01705 0.0
H1936 H 0.51474 0.68935 0.05618 0.0
H1937 H 0.50765 0.65812 0.04694 0.0
H1938 H 0.5627 0.66581 0.0621 0.0
H1939 H 0.57004 0.69722 0.07119 0.0
H1940 H 0.55704 0.65408 0.03756 0.0
H1941 H 0.51993 0.6351 0.0756 0.0
H1942 H 0.49581 0.63363 0.09102 0.0
H1943 H 0.4489 0.60694 0.06375 0.0
H1944 H 0.47282 0.60853 0.04808 0.0
H1945 H 0.53894 0.55755 0.02934 0.0
H1946 H 0.54515 0.58833 0.03879 0.0
H1947 H 0.49044 0.5803 0.02283 0.0
H1948 H 0.48398 0.54945 0.01342 0.0
H1949 H 0.4956 0.59209 0.04756 0.0
H1950 H 0.53219 0.61097 0.00956 0.0
H1951 H 0.55584 0.61166 0.99405 0.0
H1952 H 0.60323 0.63819 0.02102 0.0
H1953 H 0.57977 0.63734 0.03678 0.0
C1954 C 0.52538 0.68443 0.05747 0.0
C1955 C 0.54293 0.69568 0.06441 0.0
C1956 C 0.52124 0.66654 0.05228 0.0
C1957 C 0.53458 0.65962 0.05394 0.0
C1958 C 0.5522 0.6709 0.06075 0.0
C1959 C 0.5563 0.68874 0.06601 0.0
C1960 C 0.53024 0.64068 0.04844 0.0
C1961 C 0.54374 0.64049 0.03987 0.0
C1962 C 0.51263 0.62306 0.05123 0.0
C1963 C 0.49823 0.62218 0.06062 0.0
C1964 C 0.50452 0.62911 0.07284 0.0
C1965 C 0.49087 0.62821 0.08164 0.0
C1966 C 0.47085 0.62026 0.07835 0.0
C1967 C 0.46443 0.61314 0.06627 0.0
C1968 C 0.47802 0.61403 0.05743 0.0
C1969 C 0.52821 0.56231 0.02786 0.0
C1970 C 0.51109 0.55119 0.02054 0.0
C1971 C 0.53181 0.5799 0.03323 0.0
C1972 C 0.51833 0.58662 0.03139 0.0
C1973 C 0.50102 0.57535 0.02431 0.0
C1974 C 0.49746 0.55781 0.01888 0.0
C1975 C 0.52244 0.60552 0.03676 0.0
C1976 C 0.50889 0.60571 0.04527 0.0
C1977 C 0.53996 0.62314 0.03389 0.0
C1978 C 0.55418 0.62392 0.02439 0.0
C1979 C 0.54762 0.61681 0.01222 0.0
C1980 C 0.561 0.61725 0.00338 0.0
C1981 C 0.58102 0.62493 0.00656 0.0
C1982 C 0.58771 0.63223 0.01858 0.0
C1983 C 0.57438 0.63178 0.02747 0.0
H1984 H 0.59136 0.62525 0.9997 0.0
H1985 H 0.4603 0.61956 0.08518 0.0
H1986 H 0.84283 0.31929 0.93284 0.0
H1987 H 0.8684 0.35004 0.94218 0.0
H1988 H 0.87633 0.31806 0.97206 0.0
H1989 H 0.85026 0.28737 0.96295 0.0
H1990 H 0.87618 0.34751 0.98152 0.0
H1991 H 0.91039 0.3394 0.94723 0.0
H1992 H 0.916 0.33397 0.92532 0.0
H1993 H 0.91665 0.38662 0.91471 0.0
H1994 H 0.91076 0.39223 0.93653 0.0
H1995 H 0.98224 0.44139 0.9835 0.0
H1996 H 0.95863 0.40954 0.97448 0.0
H1997 H 0.90981 0.41589 0.98784 0.0
H1998 H 0.93326 0.44741 0.99713 0.0
H1999 H 0.93214 0.3983 0.95712 0.0
H2000 H 0.87067 0.37384 0.99442 0.0
H2001 H 0.86743 0.3766 0.01711 0.0
H2002 H 0.92598 0.38506 0.02293 0.0
H2003 H 0.92959 0.38243 1.00028 0.0
C2004 C 0.85014 0.31887 0.94136 0.0
C2005 C 0.8446 0.30098 0.94718 0.0
C2006 C 0.8648 0.33643 0.94668 0.0
C2007 C 0.87456 0.33642 0.95775 0.0
C2008 C 0.86903 0.31851 0.96353 0.0
C2009 C 0.85414 0.30097 0.95833 0.0
C2010 C 0.89012 0.35507 0.9635 0.0
C2011 C 0.88842 0.35858 0.97616 0.0
C2012 C 0.90637 0.36944 0.95663 0.0
C2013 C 0.90996 0.36614 0.9435 0.0
C2014 C 0.91159 0.34975 0.94021 0.0
C2015 C 0.91484 0.34665 0.92781 0.0
C2016 C 0.91663 0.35991 0.91863 0.0
C2017 C 0.91523 0.37634 0.92183 0.0
C2018 C 0.91196 0.3795 0.93422 0.0
C2019 C 0.96647 0.43597 0.98455 0.0
C2020 C 0.95965 0.44686 0.99115 0.0
C2021 C 0.95298 0.41776 0.97937 0.0
C2022 C 0.9324 0.41012 0.98062 0.0
C2023 C 0.92558 0.42118 0.987 0.0
C2024 C 0.93904 0.43928 0.99228 0.0
C2025 C 0.91805 0.39076 0.97508 0.0
C2026 C 0.91993 0.38718 0.96246 0.0
C2027 C 0.90231 0.37604 0.98207 0.0
C2028 C 0.90043 0.37807 0.99566 0.0
C2029 C 0.88284 0.3763 1.00055 0.0
C2030 C 0.88096 0.37786 0.0134 0.0
C2031 C 0.89648 0.38098 0.02146 0.0
C2032 C 0.91397 0.38265 0.01668 0.0
C2033 C 0.91599 0.38124 0.00383 0.0
H2034 H 0.89498 0.38216 0.0314 0.0
H2035 H 0.91915 0.35749 0.90904 0.0
H2036 H 0.70574 0.55194 0.96554 0.0
H2037 H 0.67461 0.54607 0.97491 0.0
H2038 H 0.64245 0.51417 0.94197 0.0
H2039 H 0.67369 0.52048 0.93244 0.0
H2040 H 0.62783 0.53517 0.94886 0.0
H2041 H 0.6424 0.49131 0.97038 0.0
H2042 H 0.6623 0.48072 0.98257 0.0
H2043 H 0.66626 0.51822 0.01287 0.0
H2044 H 0.64662 0.52926 1.00079 0.0
H2045 H 0.53906 0.48721 0.9942 0.0
H2046 H 0.56916 0.48893 0.98574 0.0
H2047 H 0.59471 0.55094 0.98042 0.0
H2048 H 0.56493 0.54938 0.98924 0.0
H2049 H 0.61 0.51052 0.99207 0.0
H2050 H 0.61521 0.56037 0.95055 0.0
H2051 H 0.59261 0.56617 0.93732 0.0
H2052 H 0.54462 0.50861 0.94529 0.0
H2053 H 0.56698 0.50232 0.95837 0.0
C2054 C 0.69202 0.54358 0.96032 0.0
C2055 C 0.69222 0.53661 0.94826 0.0
C2056 C 0.67417 0.54016 0.9657 0.0
C2057 C 0.65598 0.52934 0.95928 0.0
C2058 C 0.6562 0.52254 0.94717 0.0
C2059 C 0.67409 0.52617 0.94171 0.0
C2060 C 0.63685 0.52543 0.96509 0.0
C2061 C 0.62401 0.52979 0.95831 0.0
C2062 C 0.63138 0.51784 0.97731 0.0
C2063 C 0.64319 0.51125 0.98462 0.0
C2064 C 0.64764 0.49741 0.9796 0.0
C2065 C 0.65886 0.49132 0.9865 0.0
C2066 C 0.66558 0.49883 0.99848 0.0
C2067 C 0.66106 0.51243 0.00359 0.0
C2068 C 0.64988 0.5186 0.99672 0.0
C2069 C 0.5513 0.50128 0.99159 0.0
C2070 C 0.54979 0.51825 0.99263 0.0
C2071 C 0.56846 0.50223 0.98666 0.0
C2072 C 0.58412 0.52004 0.98234 0.0
C2073 C 0.58277 0.53702 0.98361 0.0
C2074 C 0.56579 0.53612 0.98869 0.0
C2075 C 0.60154 0.5209 0.97598 0.0
C2076 C 0.61395 0.51593 0.98264 0.0
C2077 C 0.60631 0.52733 0.96351 0.0
C2078 C 0.59275 0.531 0.9556 0.0
C2079 C 0.59985 0.54894 0.94947 0.0
C2080 C 0.58707 0.55231 0.94199 0.0
C2081 C 0.56715 0.53782 0.94054 0.0
C2082 C 0.56 0.51988 0.9465 0.0
C2083 C 0.57273 0.51642 0.95396 0.0
H2084 H 0.5573 0.54044 0.93473 0.0
H2085 H 0.67426 0.49409 0.0038 0.0
H2086 H 0.47526 0.16594 0.94797 0.0
H2087 H 0.48415 0.14464 0.95933 0.0
H2088 H 0.43201 0.094 0.94453 0.0
H2089 H 0.4226 0.11525 0.93351 0.0
H2090 H 0.43656 0.08997 0.96895 0.0
H2091 H 0.47802 0.10868 0.93271 0.0
H2092 H 0.50252 0.13162 0.91777 0.0
H2093 H 0.54613 0.15705 0.94709 0.0
H2094 H 0.52179 0.13443 0.96225 0.0
H2095 H 0.46301 0.01754 0.97929 0.0
H2096 H 0.45501 0.04073 0.96971 0.0
H2097 H 0.505 0.08836 0.98862 0.0
H2098 H 0.51324 0.06522 0.99825 0.0
H2099 H 0.50232 0.09498 0.96314 0.0
H2100 H 0.46096 0.07481 0.99919 0.0
H2101 H 0.43654 0.05096 0.01376 0.0
H2102 H 0.39267 0.02758 0.98448 0.0
H2103 H 0.41695 0.05109 0.96966 0.0
C2104 C 0.46557 0.15027 0.94722 0.0
C2105 C 0.44822 0.14228 0.93982 0.0
C2106 C 0.47078 0.13812 0.95363 0.0
C2107 C 0.45886 0.11774 0.95266 0.0
C2108 C 0.44145 0.1097 0.94537 0.0
C2109 C 0.4362 0.12185 0.93898 0.0
C2110 C 0.4645 0.10479 0.95929 0.0
C2111 C 0.45085 0.09092 0.96757 0.0
C2112 C 0.48335 0.10638 0.95773 0.0
C2113 C 0.49801 0.12 0.94863 0.0
C2114 C 0.49278 0.11928 0.93599 0.0
C2115 C 0.50665 0.1322 0.92748 0.0
C2116 C 0.52586 0.14582 0.93148 0.0
C2117 C 0.53124 0.14651 0.94401 0.0
C2118 C 0.51742 0.13364 0.95256 0.0
C2119 C 0.47231 0.03293 0.98145 0.0
C2120 C 0.48868 0.03953 0.9896 0.0
C2121 C 0.46766 0.04615 0.976 0.0
C2122 C 0.47932 0.0662 0.97856 0.0
C2123 C 0.4958 0.0729 0.98658 0.0
C2124 C 0.50039 0.05966 0.99212 0.0
C2125 C 0.47433 0.08011 0.97268 0.0
C2126 C 0.48809 0.09414 0.96456 0.0
C2127 C 0.45557 0.07862 0.97435 0.0
C2128 C 0.44084 0.06461 0.98328 0.0
C2129 C 0.44615 0.06449 0.99582 0.0
C2130 C 0.43233 0.05104 0.00414 0.0
C2131 C 0.41307 0.03773 1.00004 0.0
C2132 C 0.4076 0.03789 0.98763 0.0
C2133 C 0.42138 0.05128 0.97927 0.0
H2134 H 0.40239 0.02733 0.00649 0.0
H2135 H 0.53657 0.15581 0.92488 0.0
H2136 H 0.68921 0.16681 0.95531 0.0
H2137 H 0.66095 0.14455 0.96805 0.0
H2138 H 0.65331 0.09583 0.94569 0.0
H2139 H 0.68227 0.11764 0.93336 0.0
H2140 H 0.61719 0.09963 0.95025 0.0
H2141 H 0.67252 0.09849 0.97094 0.0
H2142 H 0.70526 0.11393 0.98144 0.0
H2143 H 0.68402 0.13778 0.00951 0.0
H2144 H 0.65122 0.1227 0.99906 0.0
H2145 H 0.56903 0.01518 0.9941 0.0
H2146 H 0.59953 0.04351 0.98663 0.0
H2147 H 0.56991 0.07736 0.98595 0.0
H2148 H 0.5394 0.04905 0.99341 0.0
H2149 H 0.62458 0.08345 0.99391 0.0
H2150 H 0.58261 0.10069 0.95713 0.0
H2151 H 0.54989 0.08532 0.94655 0.0
H2152 H 0.54466 0.02886 0.95047 0.0
H2153 H 0.57744 0.04395 0.96091 0.0
C2154 C 0.68183 0.15134 0.95319 0.0
C2155 C 0.68821 0.14414 0.94323 0.0
C2156 C 0.66553 0.13867 0.96044 0.0
C2157 C 0.65507 0.1186 0.95777 0.0
C2158 C 0.66115 0.11133 0.94782 0.0
C2159 C 0.67766 0.1239 0.94072 0.0
C2160 C 0.63773 0.10507 0.96534 0.0
C2161 C 0.61878 0.09621 0.95982 0.0
C2162 C 0.63984 0.1007 0.97784 0.0
C2163 C 0.65951 0.10969 0.98413 0.0
C2164 C 0.6749 0.1072 0.97928 0.0
C2165 C 0.69345 0.11585 0.98523 0.0
C2166 C 0.69675 0.12689 0.99611 0.0
C2167 C 0.68147 0.12926 1.00107 0.0
C2168 C 0.66289 0.12066 0.99514 0.0
C2169 C 0.56925 0.02885 0.99269 0.0
C2170 C 0.55197 0.03001 0.99447 0.0
C2171 C 0.58666 0.04502 0.98847 0.0
C2172 C 0.58693 0.06247 0.98567 0.0
C2173 C 0.56998 0.064 0.98806 0.0
C2174 C 0.55259 0.04785 0.9924 0.0
C2175 C 0.60403 0.07796 0.9788 0.0
C2176 C 0.62295 0.08716 0.98442 0.0
C2177 C 0.60191 0.0827 0.96638 0.0
C2178 C 0.58236 0.07344 0.95991 0.0
C2179 C 0.57449 0.08501 0.95569 0.0
C2180 C 0.55594 0.07635 0.94972 0.0
C2181 C 0.54518 0.05613 0.94787 0.0
C2182 C 0.55297 0.04452 0.95194 0.0
C2183 C 0.57153 0.05312 0.95789 0.0
H2184 H 0.53084 0.0495 0.94324 0.0
H2185 H 0.71112 0.13356 1.00071 0.0
H2186 H 0.87994 0.56423 0.93331 0.0
H2187 H 0.90348 0.55817 0.94481 0.0
H2188 H 0.85529 0.51251 0.96543 0.0
H2189 H 0.83142 0.51789 0.95362 0.0
H2190 H 0.88736 0.53849 0.98051 0.0
H2191 H 0.87648 0.50019 0.94337 0.0
H2192 H 0.87486 0.49428 0.92069 0.0
H2193 H 0.93674 0.53717 0.91755 0.0
H2194 H 0.93865 0.54358 0.94019 0.0
H2195 H 0.94987 0.4903 0.99377 0.0
H2196 H 0.92239 0.49462 0.98626 0.0
H2197 H 0.96293 0.55627 0.982 0.0
H2198 H 0.99014 0.55221 0.99018 0.0
H2199 H 0.93301 0.52066 0.95967 0.0
H2200 H 0.9426 0.56285 0.99579 0.0
H2201 H 0.9429 0.57278 0.01761 0.0
H2202 H 0.88315 0.52549 0.02216 0.0
H2203 H 0.88279 0.51486 1.00045 0.0
C2204 C 0.8742 0.55264 0.94013 0.0
C2205 C 0.85361 0.54147 0.94241 0.0
C2206 C 0.88776 0.54928 0.94675 0.0
C2207 C 0.88117 0.53476 0.95591 0.0
C2208 C 0.86073 0.52379 0.9584 0.0
C2209 C 0.8471 0.527 0.95167 0.0
C2210 C 0.89568 0.53135 0.96303 0.0
C2211 C 0.89716 0.5343 0.97598 0.0
C2212 C 0.90878 0.52634 0.95708 0.0
C2213 C 0.90766 0.52249 0.94347 0.0
C2214 C 0.8897 0.50849 0.93783 0.0
C2215 C 0.88874 0.50503 0.92498 0.0
C2216 C 0.90567 0.51538 0.91768 0.0
C2217 C 0.92362 0.52919 0.92322 0.0
C2218 C 0.92466 0.53273 0.93606 0.0
C2219 C 0.95275 0.50488 0.99177 0.0
C2220 C 0.97207 0.52103 0.99298 0.0
C2221 C 0.93703 0.50734 0.98743 0.0
C2222 C 0.94043 0.5259 0.98397 0.0
C2223 C 0.95973 0.54196 0.9851 0.0
C2224 C 0.97532 0.53958 0.98965 0.0
C2225 C 0.92482 0.52797 0.97718 0.0
C2226 C 0.9231 0.52467 0.96423 0.0
C2227 C 0.91168 0.53294 0.98313 0.0
C2228 C 0.91294 0.53766 0.9966 0.0
C2229 C 0.92981 0.55412 1.00155 0.0
C2230 C 0.92989 0.56004 0.01387 0.0
C2231 C 0.91308 0.54976 0.02128 0.0
C2232 C 0.89619 0.53344 0.01642 0.0
C2233 C 0.89611 0.52736 0.00415 0.0
H2234 H 0.91314 0.55443 0.03079 0.0
H2235 H 0.9049 0.51267 0.90774 0.0
H2236 H 0.4226 0.2962 0.94314 0.0
H2237 H 0.43032 0.32774 0.9521 0.0
H2238 H 0.48461 0.33445 0.96789 0.0
H2239 H 0.47717 0.30306 0.95879 0.0
H2240 H 0.46412 0.34404 0.98451 0.0
H2241 H 0.4864 0.35875 0.94218 0.0
H2242 H 0.48315 0.35513 0.91931 0.0
H2243 H 0.43679 0.36972 0.91978 0.0
H2244 H 0.43956 0.37314 0.94269 0.0
H2245 H 0.5125 0.44484 0.99916 0.0
H2246 H 0.5037 0.41288 0.99059 0.0
H2247 H 0.45154 0.40883 0.97317 0.0
H2248 H 0.46036 0.44097 0.98161 0.0
H2249 H 0.47033 0.39757 0.95745 0.0
H2250 H 0.44809 0.38311 0.99975 0.0
H2251 H 0.451 0.38634 0.02265 0.0
H2252 H 0.497 0.37126 0.0223 0.0
H2253 H 0.49454 0.36816 0.99937 0.0
C2254 C 0.43626 0.30445 0.94844 0.0
C2255 C 0.44933 0.29717 0.95021 0.0
C2256 C 0.44061 0.32243 0.95358 0.0
C2257 C 0.45812 0.33348 0.96054 0.0
C2258 C 0.471 0.3261 0.96255 0.0
C2259 C 0.46668 0.30814 0.95739 0.0
C2260 C 0.4631 0.35282 0.96567 0.0
C2261 C 0.46572 0.35584 0.9786 0.0
C2262 C 0.46471 0.368 0.95795 0.0
C2263 C 0.46304 0.366 0.94417 0.0
C2264 C 0.47539 0.36102 0.93742 0.0
C2265 C 0.47366 0.35903 0.92445 0.0
C2266 C 0.45973 0.36214 0.9181 0.0
C2267 C 0.44755 0.36728 0.92471 0.0
C2268 C 0.4492 0.36926 0.93769 0.0
C2269 C 0.49906 0.43711 0.9936 0.0
C2270 C 0.48699 0.44535 0.9912 0.0
C2271 C 0.49405 0.41882 0.98871 0.0
C2272 C 0.47679 0.40834 0.98141 0.0
C2273 C 0.46488 0.41666 0.97882 0.0
C2274 C 0.46994 0.43501 0.98367 0.0
C2275 C 0.47135 0.38883 0.97632 0.0
C2276 C 0.46866 0.38577 0.96339 0.0
C2277 C 0.46965 0.37359 0.98405 0.0
C2278 C 0.47122 0.37553 0.99783 0.0
C2279 C 0.45892 0.38061 0.00454 0.0
C2280 C 0.46045 0.38236 0.01753 0.0
C2281 C 0.47414 0.37896 0.02392 0.0
C2282 C 0.48637 0.37385 0.01734 0.0
C2283 C 0.4849 0.37207 0.00435 0.0
H2284 H 0.47531 0.38033 0.03398 0.0
H2285 H 0.45842 0.3606 0.90806 0.0
H2286 H 0.17852 0.69191 0.05543 0.0
H2287 H 0.15237 0.66097 0.04674 0.0
H2288 H 0.10774 0.67187 0.06239 0.0
H2289 H 0.13384 0.70291 0.0711 0.0
H2290 H 0.09831 0.63478 0.06608 0.0
H2291 H 0.11803 0.67793 0.03136 0.0
H2292 H 0.14135 0.70216 0.01649 0.0
H2293 H 0.15918 0.66145 0.00418 0.0
H2294 H 0.13616 0.63706 0.01911 0.0
H2295 H 0.01828 0.55881 0.03036 0.0
H2296 H 0.04233 0.59007 0.03995 0.0
H2297 H 0.09051 0.58394 0.02515 0.0
H2298 H 0.06669 0.55297 0.01544 0.0
H2299 H 0.09683 0.61941 0.02108 0.0
H2300 H 0.07582 0.57584 0.05635 0.0
H2301 H 0.05235 0.55259 0.07164 0.0
H2302 H 0.03608 0.59483 0.08303 0.0
H2303 H 0.05907 0.61817 0.06763 0.0
C2304 C 0.16314 0.68783 0.05692 0.0
C2305 C 0.15829 0.69995 0.06391 0.0
C2306 C 0.1482 0.67011 0.05197 0.0
C2307 C 0.12806 0.66418 0.05379 0.0
C2308 C 0.12316 0.67612 0.06088 0.0
C2309 C 0.13811 0.69384 0.06587 0.0
C2310 C 0.11217 0.64549 0.04831 0.0
C2311 C 0.09778 0.6315 0.05621 0.0
C2312 C 0.11165 0.64111 0.03546 0.0
C2313 C 0.1255 0.65573 0.02644 0.0
C2314 C 0.12704 0.6742 0.02555 0.0
C2315 C 0.14019 0.68795 0.0171 0.0
C2316 C 0.15178 0.68337 0.00941 0.0
C2317 C 0.15021 0.66499 0.01015 0.0
C2318 C 0.1371 0.65119 0.0186 0.0
C2319 C 0.034 0.5641 0.02918 0.0
C2320 C 0.04054 0.55346 0.02203 0.0
C2321 C 0.04774 0.58194 0.03472 0.0
C2322 C 0.06827 0.58932 0.03336 0.0
C2323 C 0.07477 0.57861 0.02631 0.0
C2324 C 0.0611 0.56089 0.02072 0.0
C2325 C 0.08309 0.60848 0.03889 0.0
C2326 C 0.09728 0.62264 0.03096 0.0
C2327 C 0.08327 0.61302 0.0517 0.0
C2328 C 0.06905 0.59871 0.06073 0.0
C2329 C 0.06706 0.58009 0.062 0.0
C2330 C 0.05387 0.56691 0.07071 0.0
C2331 C 0.04276 0.57225 0.07829 0.0
C2332 C 0.0447 0.59072 0.07714 0.0
C2333 C 0.05778 0.60391 0.06841 0.0
H2334 H 0.03271 0.56214 0.08512 0.0
H2335 H 0.16195 0.69403 0.00287 0.0
H2336 H 0.29904 0.44839 0.05289 0.0
H2337 H 0.32877 0.4539 0.04154 0.0
H2338 H 0.36585 0.48953 0.07194 0.0
H2339 H 0.33615 0.48382 0.08342 0.0
H2340 H 0.37984 0.50519 0.0469 0.0
H2341 H 0.35835 0.44677 0.07116 0.0
H2342 H 0.33389 0.41382 0.07841 0.0
H2343 H 0.32538 0.39191 0.04084 0.0
H2344 H 0.34959 0.42483 0.03335 0.0
H2345 H 0.46992 0.50927 0.02837 0.0
H2346 H 0.44143 0.50777 0.03872 0.0
H2347 H 0.40273 0.45308 0.01981 0.0
H2348 H 0.43187 0.45305 0.01146 0.0
H2349 H 0.38899 0.44822 0.03957 0.0
H2350 H 0.41055 0.50735 0.01466 0.0
H2351 H 0.43485 0.54066 0.00778 0.0
H2352 H 0.443 0.56162 0.04548 0.0
H2353 H 0.41875 0.52852 0.05266 0.0
C2354 C 0.31354 0.45755 0.05709 0.0
C2355 C 0.31525 0.4656 0.06907 0.0
C2356 C 0.3305 0.46066 0.05062 0.0
C2357 C 0.34954 0.47211 0.0559 0.0
C2358 C 0.35133 0.48068 0.06768 0.0
C2359 C 0.33435 0.4773 0.07425 0.0
C2360 C 0.36746 0.47431 0.04942 0.0
C2361 C 0.38195 0.49279 0.04525 0.0
C2362 C 0.37007 0.45811 0.04717 0.0
C2363 C 0.3556 0.4383 0.05168 0.0
C2364 C 0.35112 0.43497 0.06443 0.0
C2365 C 0.33734 0.41629 0.06859 0.0
C2366 C 0.32804 0.40079 0.06009 0.0
C2367 C 0.33256 0.40394 0.04742 0.0
C2368 C 0.34632 0.4226 0.04321 0.0
C2369 C 0.45523 0.49719 0.02621 0.0
C2370 C 0.45297 0.48177 0.01854 0.0
C2371 C 0.43875 0.49639 0.03207 0.0
C2372 C 0.41937 0.48071 0.02979 0.0
C2373 C 0.41726 0.46548 0.02185 0.0
C2374 C 0.43391 0.46562 0.01678 0.0
C2375 C 0.4015 0.47918 0.03633 0.0
C2376 C 0.38696 0.46074 0.04077 0.0
C2377 C 0.39877 0.49546 0.03863 0.0
C2378 C 0.41291 0.51543 0.0342 0.0
C2379 C 0.41752 0.51906 0.02148 0.0
C2380 C 0.4313 0.53788 0.01753 0.0
C2381 C 0.44052 0.55318 0.02617 0.0
C2382 C 0.43586 0.54975 0.0388 0.0
C2383 C 0.42205 0.53099 0.04281 0.0
H2384 H 0.45123 0.5677 0.02306 0.0
H2385 H 0.31738 0.38634 0.06332 0.0
H2386 H 0.579 0.88196 0.07539 0.0
H2387 H 0.56998 0.90327 0.0641 0.0
H2388 H 0.51654 0.85286 0.05045 0.0
H2389 H 0.52524 0.83145 0.06187 0.0
H2390 H 0.53597 0.88005 0.03206 0.0
H2391 H 0.51342 0.87858 0.07383 0.0
H2392 H 0.51647 0.88169 0.09673 0.0
H2393 H 0.56136 0.94207 0.09346 0.0
H2394 H 0.55879 0.93923 0.07053 0.0
H2395 H 0.48942 0.93304 0.01072 0.0
H2396 H 0.49687 0.90986 0.02102 0.0
H2397 H 0.54818 0.95773 0.03884 0.0
H2398 H 0.54053 0.98087 0.0289 0.0
H2399 H 0.52824 0.93043 0.05508 0.0
H2400 H 0.55201 0.93182 0.01342 0.0
H2401 H 0.54873 0.92915 0.99051 0.0
H2402 H 0.50171 0.86958 0.99352 0.0
H2403 H 0.50461 0.87195 0.01646 0.0
C2404 C 0.56525 0.87541 0.07007 0.0
C2405 C 0.5528 0.85501 0.06958 0.0
C2406 C 0.56017 0.88759 0.06358 0.0
C2407 C 0.54252 0.87962 0.05653 0.0
C2408 C 0.53026 0.85928 0.05581 0.0
C2409 C 0.53529 0.84708 0.06232 0.0
C2410 C 0.53669 0.89255 0.05009 0.0
C2411 C 0.53404 0.89092 0.0371 0.0
C2412 C 0.53448 0.90689 0.05666 0.0
C2413 C 0.53605 0.90863 0.07046 0.0
C2414 C 0.52406 0.89247 0.07799 0.0
C2415 C 0.52568 0.89419 0.09098 0.0
C2416 C 0.53913 0.91205 0.09655 0.0
C2417 C 0.55097 0.92823 0.08914 0.0
C2418 C 0.54943 0.92658 0.07614 0.0
C2419 C 0.50236 0.93862 0.01677 0.0
C2420 C 0.51441 0.95879 0.01898 0.0
C2421 C 0.50663 0.92536 0.02263 0.0
C2422 C 0.5232 0.93208 0.03061 0.0
C2423 C 0.53529 0.95221 0.03274 0.0
C2424 C 0.53091 0.96543 0.02702 0.0
C2425 C 0.52785 0.91822 0.03701 0.0
C2426 C 0.53019 0.91959 0.05002 0.0
C2427 C 0.52985 0.90372 0.03044 0.0
C2428 C 0.52842 0.90211 0.01665 0.0
C2429 C 0.54093 0.91817 0.00919 0.0
C2430 C 0.53915 0.91671 0.9962 0.0
C2431 C 0.52498 0.89922 0.99056 0.0
C2432 C 0.51266 0.88312 0.9979 0.0
C2433 C 0.51439 0.8845 0.0109 0.0
H2434 H 0.52357 0.89815 0.98051 0.0
H2435 H 0.54035 0.91336 0.1066 0.0
H2436 H 0.98068 0.21919 0.4022 0.0
H2437 H 0.00971 0.24123 0.38978 0.0
H2438 H 0.0224 0.19468 0.38331 0.0
H2439 H 0.99315 0.17244 0.39559 0.0
H2440 H 0.05614 0.23221 0.39148 0.0
H2441 H 0.00424 0.20509 0.3604 0.0
H2442 H 0.97134 0.19599 0.35155 0.0
H2443 H 0.98635 0.25618 0.35217 0.0
H2444 H 0.01924 0.26561 0.36121 0.0
H2445 H 0.13378 0.2887 0.34971 0.0
H2446 H 0.10301 0.26107 0.35735 0.0
H2447 H 0.07695 0.29803 0.36017 0.0
H2448 H 0.10757 0.32555 0.35215 0.0
H2449 H 0.04963 0.2624 0.35256 0.0
H2450 H 0.09845 0.28987 0.38529 0.0
H2451 H 0.13085 0.30088 0.39553 0.0
H2452 H 0.12156 0.24262 0.39336 0.0
H2453 H 0.08914 0.2313 0.38295 0.0
C2454 C 0.98968 0.21368 0.39814 0.0
C2455 C 0.98469 0.19412 0.39984 0.0
C2456 C 0.00619 0.22624 0.39101 0.0
C2457 C 0.01814 0.21955 0.3856 0.0
C2458 C 0.01333 0.20009 0.38739 0.0
C2459 C 0.99661 0.18742 0.39435 0.0
C2460 C 0.03575 0.23303 0.37817 0.0
C2461 C 0.05475 0.23853 0.38284 0.0
C2462 C 0.03388 0.24164 0.36709 0.0
C2463 C 0.01415 0.23603 0.36159 0.0
C2464 C 1.00047 0.21637 0.35875 0.0
C2465 C 0.98183 0.21115 0.35368 0.0
C2466 C 0.97674 0.22549 0.35133 0.0
C2467 C 0.9903 0.24508 0.35401 0.0
C2468 C 0.00896 0.25037 0.3591 0.0
C2469 C 0.12131 0.29078 0.35155 0.0
C2470 C 0.12293 0.30919 0.3501 0.0
C2471 C 0.10377 0.27502 0.35607 0.0
C2472 C 0.08773 0.27752 0.3595 0.0
C2473 C 0.08908 0.29571 0.35758 0.0
C2474 C 0.10657 0.31142 0.35302 0.0
C2475 C 0.07011 0.26175 0.36591 0.0
C2476 C 0.05107 0.25586 0.3611 0.0
C2477 C 0.07196 0.25304 0.377 0.0
C2478 C 0.09148 0.25979 0.3832 0.0
C2479 C 0.10339 0.27944 0.3869 0.0
C2480 C 0.12174 0.28573 0.39276 0.0
C2481 C 0.12829 0.27247 0.39509 0.0
C2482 C 0.11648 0.25288 0.39155 0.0
C2483 C 0.0981 0.24651 0.38567 0.0
H2484 H 0.14249 0.27736 0.39966 0.0
H2485 H 0.96231 0.22142 0.3474 0.0
H2486 H 0.81747 0.80883 0.41281 0.0
H2487 H 0.79147 0.81323 0.40298 0.0
H2488 H 0.80316 0.79494 0.36764 0.0
H2489 H 0.82881 0.79011 0.37739 0.0
H2490 H 0.80076 0.82757 0.36519 0.0
H2491 H 0.76215 0.76471 0.38452 0.0
H2492 H 0.75056 0.7417 0.4021 0.0
H2493 H 0.72928 0.7759 0.42064 0.0
H2494 H 0.741 0.79928 0.40324 0.0
H2495 H 0.6872 0.78697 0.34927 0.0
H2496 H 0.71549 0.78446 0.35694 0.0
H2497 H 0.75089 0.84735 0.35881 0.0
H2498 H 0.7226 0.84982 0.3508 0.0
H2499 H 0.73052 0.79375 0.37873 0.0
H2500 H 0.79425 0.86277 0.36147 0.0
H2501 H 0.81175 0.8834 0.34337 0.0
H2502 H 0.78511 0.83281 0.31948 0.0
H2503 H 0.76685 0.81206 0.33737 0.0
C2504 C 0.81437 0.80549 0.40298 0.0
C2505 C 0.8254 0.79916 0.39592 0.0
C2506 C 0.79949 0.80808 0.39736 0.0
C2507 C 0.79527 0.80438 0.38455 0.0
C2508 C 0.80619 0.79802 0.37751 0.0
C2509 C 0.82098 0.79535 0.38312 0.0
C2510 C 0.7798 0.80747 0.37835 0.0
C2511 C 0.78538 0.82018 0.36818 0.0
C2512 C 0.75973 0.79791 0.3822 0.0
C2513 C 0.75264 0.78385 0.39264 0.0
C2514 C 0.75515 0.76741 0.3924 0.0
C2515 C 0.74853 0.75429 0.40232 0.0
C2516 C 0.73924 0.75737 0.4125 0.0
C2517 C 0.73651 0.77355 0.41276 0.0
C2518 C 0.74312 0.78674 0.40287 0.0
C2519 C 0.70119 0.80027 0.35101 0.0
C2520 C 0.70266 0.81856 0.34933 0.0
C2521 C 0.71738 0.79885 0.35546 0.0
C2522 C 0.7355 0.81568 0.35854 0.0
C2523 C 0.73731 0.83408 0.35634 0.0
C2524 C 0.72105 0.83551 0.35176 0.0
C2525 C 0.75134 0.81363 0.36529 0.0
C2526 C 0.74587 0.80122 0.37571 0.0
C2527 C 0.77152 0.82336 0.36164 0.0
C2528 C 0.77889 0.83604 0.35064 0.0
C2529 C 0.79167 0.85621 0.35226 0.0
C2530 C 0.80178 0.86788 0.34208 0.0
C2531 C 0.79953 0.85941 0.3303 0.0
C2532 C 0.78673 0.83934 0.32861 0.0
C2533 C 0.77626 0.82768 0.33872 0.0
H2534 H 0.80768 0.86839 0.32247 0.0
H2535 H 0.73412 0.74719 0.42017 0.0
H2536 H 0.19452 0.034 0.38419 0.0
H2537 H 0.18707 0.00286 0.37479 0.0
H2538 H 0.24066 0.00852 0.39103 0.0
H2539 H 0.24861 0.0401 0.40012 0.0
H2540 H 0.23538 0.99513 0.36725 0.0
H2541 H 0.19618 0.97946 0.40434 0.0
H2542 H 0.17223 0.98055 0.41886 0.0
H2543 H 0.12674 0.95623 0.39058 0.0
H2544 H 0.15051 0.95525 0.37582 0.0
H2545 H 0.2104 0.89588 0.36214 0.0
H2546 H 0.21859 0.92793 0.37037 0.0
H2547 H 0.16632 0.92291 0.3525 0.0
H2548 H 0.15782 0.8907 0.34437 0.0
H2549 H 0.17094 0.93601 0.37682 0.0
H2550 H 0.21032 0.95104 0.33987 0.0
H2551 H 0.23423 0.94913 0.32573 0.0
H2552 H 0.2795 0.97412 0.35412 0.0
H2553 H 0.25575 0.97589 0.36852 0.0
C2554 C 0.2049 0.02879 0.38561 0.0
C2555 C 0.22214 0.0395 0.39293 0.0
C2556 C 0.20051 0.0109 0.38033 0.0
C2557 C 0.21317 0.00327 0.38237 0.0
C2558 C 0.23065 0.01413 0.3894 0.0
C2559 C 0.23508 0.03207 0.39467 0.0
C2560 C 0.20794 0.98377 0.37737 0.0
C2561 C 0.2214 0.98216 0.36946 0.0
C2562 C 0.18952 0.96694 0.38007 0.0
C2563 C 0.17518 0.96747 0.38894 0.0
C2564 C 0.18111 0.97449 0.40118 0.0
C2565 C 0.16756 0.97506 0.40946 0.0
C2566 C 0.14799 0.96851 0.40564 0.0
C2567 C 0.14191 0.96132 0.39352 0.0
C2568 C 0.15541 0.96074 0.3852 0.0
C2569 C 0.20062 0.90156 0.35996 0.0
C2570 C 0.18357 0.89084 0.35249 0.0
C2571 C 0.20537 0.91991 0.36463 0.0
C2572 C 0.19318 0.92784 0.36191 0.0
C2573 C 0.17596 0.91704 0.35465 0.0
C2574 C 0.17121 0.89871 0.34995 0.0
C2575 C 0.19836 0.9474 0.36672 0.0
C2576 C 0.18489 0.949 0.37459 0.0
C2577 C 0.21678 0.96419 0.36402 0.0
C2578 C 0.2312 0.96344 0.35531 0.0
C2579 C 0.22533 0.95601 0.34313 0.0
C2580 C 0.23886 0.95496 0.33507 0.0
C2581 C 0.25836 0.96146 0.33903 0.0
C2582 C 0.26438 0.96908 0.35107 0.0
C2583 C 0.2509 0.97012 0.35918 0.0
H2584 H 0.26881 0.96063 0.33278 0.0
H2585 H 0.13752 0.96896 0.41206 0.0
H2586 H 0.53736 0.63943 0.26962 0.0
H2587 H 0.56353 0.67076 0.27781 0.0
H2588 H 0.51926 0.6812 0.29454 0.0
H2589 H 0.49291 0.65011 0.28602 0.0
H2590 H 0.54804 0.71388 0.28344 0.0
H2591 H 0.54546 0.6658 0.312 0.0
H2592 H 0.54599 0.63597 0.31801 0.0
H2593 H 0.60473 0.6596 0.30308 0.0
H2594 H 0.60443 0.68947 0.29682 0.0
H2595 H 0.60527 0.78546 0.32849 0.0
H2596 H 0.58166 0.7553 0.31788 0.0
H2597 H 0.63005 0.75183 0.30092 0.0
H2598 H 0.65401 0.78216 0.31168 0.0
H2599 H 0.60088 0.71629 0.3109 0.0
H2600 H 0.60439 0.76494 0.28325 0.0
H2601 H 0.60461 0.79534 0.27785 0.0
H2602 H 0.54488 0.77116 0.29117 0.0
H2603 H 0.54439 0.74065 0.2968 0.0
C2604 C 0.53315 0.64846 0.27493 0.0
C2605 C 0.513 0.64221 0.27717 0.0
C2606 C 0.54816 0.66631 0.2797 0.0
C2607 C 0.54338 0.67826 0.2869 0.0
C2608 C 0.5233 0.6722 0.28903 0.0
C2609 C 0.50826 0.65434 0.28426 0.0
C2610 C 0.55934 0.69694 0.29234 0.0
C2611 C 0.55947 0.71436 0.28954 0.0
C2612 C 0.5746 0.6977 0.30003 0.0
C2613 C 0.57483 0.67978 0.30382 0.0
C2614 C 0.55842 0.66457 0.30991 0.0
C2615 C 0.55869 0.64767 0.31338 0.0
C2616 C 0.57536 0.64587 0.3109 0.0
C2617 C 0.59181 0.661 0.30498 0.0
C2618 C 0.59161 0.67792 0.30147 0.0
C2619 C 0.61098 0.77829 0.32256 0.0
C2620 C 0.63156 0.78617 0.32099 0.0
C2621 C 0.59741 0.76109 0.31643 0.0
C2622 C 0.60409 0.7514 0.30854 0.0
C2623 C 0.62461 0.75912 0.30696 0.0
C2624 C 0.63826 0.77647 0.31307 0.0
C2625 C 0.58945 0.73311 0.30208 0.0
C2626 C 0.58955 0.71579 0.3047 0.0
C2627 C 0.57444 0.73246 0.29421 0.0
C2628 C 0.57441 0.75055 0.29054 0.0
C2629 C 0.59133 0.76613 0.28509 0.0
C2630 C 0.5915 0.78337 0.28197 0.0
C2631 C 0.57479 0.78519 0.2842 0.0
C2632 C 0.55782 0.76972 0.28946 0.0
C2633 C 0.55757 0.75243 0.2926 0.0
H2634 H 0.57501 0.79859 0.28182 0.0
H2635 H 0.57554 0.63277 0.31359 0.0
H2636 H 0.3518 0.84133 0.28807 0.0
H2637 H 0.32188 0.8374 0.29826 0.0
H2638 H 0.33504 0.89409 0.28511 0.0
H2639 H 0.36513 0.89824 0.27506 0.0
H2640 H 0.32546 0.88955 0.30965 0.0
H2641 H 0.29802 0.85266 0.27189 0.0
H2642 H 0.29156 0.82732 0.25612 0.0
H2643 H 0.26382 0.78276 0.28383 0.0
H2644 H 0.27037 0.80788 0.29981 0.0
H2645 H 0.23528 0.88706 0.32239 0.0
H2646 H 0.26547 0.88924 0.31423 0.0
H2647 H 0.24269 0.82829 0.32247 0.0
H2648 H 0.21157 0.82578 0.32969 0.0
H2649 H 0.25773 0.834 0.30124 0.0
H2650 H 0.28789 0.87022 0.3393 0.0
H2651 H 0.29574 0.89525 0.35567 0.0
H2652 H 0.31874 0.94018 0.32797 0.0
H2653 H 0.31121 0.91543 0.31152 0.0
C2654 C 0.34836 0.85299 0.28736 0.0
C2655 C 0.36093 0.87012 0.28073 0.0
C2656 C 0.33113 0.85065 0.29311 0.0
C2657 C 0.32606 0.86539 0.2924 0.0
C2658 C 0.33857 0.88248 0.28578 0.0
C2659 C 0.35571 0.88477 0.27995 0.0
C2660 C 0.30811 0.8633 0.29886 0.0
C2661 C 0.31062 0.8775 0.30771 0.0
C2662 C 0.28877 0.84728 0.29666 0.0
C2663 C 0.2849 0.83217 0.28707 0.0
C2664 C 0.29072 0.83748 0.27465 0.0
C2665 C 0.287 0.82315 0.26566 0.0
C2666 C 0.27734 0.80345 0.26898 0.0
C2667 C 0.27133 0.79803 0.28128 0.0
C2668 C 0.27504 0.81231 0.2903 0.0
C2669 C 0.23683 0.87418 0.32265 0.0
C2670 C 0.22118 0.85636 0.32695 0.0
C2671 C 0.25429 0.87549 0.3181 0.0
C2672 C 0.25687 0.85909 0.31797 0.0
C2673 C 0.24131 0.84126 0.3225 0.0
C2674 C 0.22356 0.83986 0.3268 0.0
C2675 C 0.27499 0.86026 0.31214 0.0
C2676 C 0.27255 0.84595 0.30333 0.0
C2677 C 0.29446 0.8761 0.31444 0.0
C2678 C 0.29871 0.89098 0.32422 0.0
C2679 C 0.29442 0.88543 0.33674 0.0
C2680 C 0.29891 0.89956 0.34602 0.0
C2681 C 0.30756 0.91926 0.34285 0.0
C2682 C 0.31196 0.92491 0.33041 0.0
C2683 C 0.30769 0.91085 0.32112 0.0
H2684 H 0.31095 0.93016 0.35004 0.0
H2685 H 0.27446 0.79238 0.26201 0.0
H2686 H 0.12763 0.47158 0.25789 0.0
H2687 H 0.13662 0.45024 0.26913 0.0
H2688 H 0.1191 0.46492 0.30377 0.0
H2689 H 0.10951 0.48589 0.29258 0.0
H2690 H 0.15563 0.46544 0.30536 0.0
H2691 H 0.08873 0.42321 0.29109 0.0
H2692 H 0.06145 0.40857 0.27563 0.0
H2693 H 0.09298 0.38614 0.25493 0.0
H2694 H 0.12067 0.40096 0.27014 0.0
H2695 H 0.1534 0.38886 0.34123 0.0
H2696 H 0.145 0.41149 0.33109 0.0
H2697 H 0.15433 0.39286 0.29509 0.0
H2698 H 0.16239 0.37003 0.30526 0.0
H2699 H 0.12163 0.39477 0.29472 0.0
H2700 H 0.18878 0.43707 0.30889 0.0
H2701 H 0.21537 0.45036 0.32486 0.0
H2702 H 0.18355 0.47222 0.34583 0.0
H2703 H 0.15658 0.45874 0.33009 0.0
C2704 C 0.12547 0.47013 0.26788 0.0
C2705 C 0.11772 0.48036 0.27432 0.0
C2706 C 0.13076 0.45804 0.27429 0.0
C2707 C 0.12843 0.45597 0.28725 0.0
C2708 C 0.12109 0.46643 0.29376 0.0
C2709 C 0.11566 0.47843 0.28735 0.0
C2710 C 0.13314 0.44244 0.29394 0.0
C2711 C 0.14808 0.44995 0.30315 0.0
C2712 C 0.12347 0.42232 0.29088 0.0
C2713 C 0.10687 0.41338 0.28169 0.0
C2714 C 0.08995 0.41532 0.28317 0.0
C2715 C 0.0744 0.40697 0.27446 0.0
C2716 C 0.07552 0.39649 0.26427 0.0
C2717 C 0.09218 0.39431 0.2628 0.0
C2718 C 0.1078 0.40268 0.27147 0.0
C2719 C 0.15401 0.38989 0.3312 0.0
C2720 C 0.15881 0.37798 0.32404 0.0
C2721 C 0.14911 0.40273 0.32539 0.0
C2722 C 0.14933 0.40408 0.31233 0.0
C2723 C 0.15407 0.39207 0.30518 0.0
C2724 C 0.15868 0.37907 0.31099 0.0
C2725 C 0.14433 0.41776 0.30606 0.0
C2726 C 0.12928 0.41027 0.29692 0.0
C2727 C 0.15397 0.4379 0.30916 0.0
C2728 C 0.17058 0.44676 0.31836 0.0
C2729 C 0.18743 0.44467 0.31692 0.0
C2730 C 0.20256 0.45221 0.32594 0.0
C2731 C 0.20113 0.46209 0.33636 0.0
C2732 C 0.18462 0.46455 0.33775 0.0
C2733 C 0.16941 0.45697 0.32878 0.0
H2734 H 0.21282 0.46785 0.34336 0.0
H2735 H 0.06346 0.39002 0.25755 0.0
H2736 H 0.35276 0.50387 0.28288 0.0
H2737 H 0.32344 0.48132 0.29486 0.0
H2738 H 0.33177 0.43338 0.28371 0.0
H2739 H 0.36092 0.45578 0.27169 0.0
H2740 H 0.29431 0.42332 0.28097 0.0
H2741 H 0.34332 0.45402 0.31356 0.0
H2742 H 0.36884 0.48158 0.32598 0.0
H2743 H 0.32603 0.49841 0.33613 0.0
H2744 H 0.30032 0.47109 0.32362 0.0
H2745 H 0.23599 0.34995 0.32302 0.0
H2746 H 0.26618 0.37762 0.3147 0.0
H2747 H 0.24074 0.41477 0.3196 0.0
H2748 H 0.21019 0.3869 0.32764 0.0
H2749 H 0.28514 0.43197 0.32586 0.0
H2750 H 0.236 0.40039 0.29337 0.0
H2751 H 0.21047 0.37138 0.28204 0.0
H2752 H 0.25417 0.35555 0.27228 0.0
H2753 H 0.27991 0.38431 0.28378 0.0
C2754 C 0.34845 0.48855 0.2831 0.0
C2755 C 0.35915 0.48161 0.27629 0.0
C2756 C 0.33168 0.47567 0.28995 0.0
C2757 C 0.32541 0.45562 0.29027 0.0
C2758 C 0.33621 0.44874 0.28357 0.0
C2759 C 0.35287 0.46157 0.27667 0.0
C2760 C 0.30731 0.44162 0.29723 0.0
C2761 C 0.29246 0.42522 0.29081 0.0
C2762 C 0.30452 0.44423 0.31001 0.0
C2763 C 0.31996 0.46066 0.31752 0.0
C2764 C 0.3394 0.46371 0.31834 0.0
C2765 C 0.35388 0.47926 0.32542 0.0
C2766 C 0.34908 0.49178 0.3318 0.0
C2767 C 0.32975 0.48873 0.33116 0.0
C2768 C 0.31521 0.47321 0.32408 0.0
C2769 C 0.23701 0.36412 0.32255 0.0
C2770 C 0.2209 0.36636 0.32613 0.0
C2771 C 0.25424 0.37989 0.31783 0.0
C2772 C 0.25565 0.3982 0.31654 0.0
C2773 C 0.23996 0.40078 0.32063 0.0
C2774 C 0.22256 0.38487 0.32524 0.0
C2775 C 0.27256 0.41377 0.3096 0.0
C2776 C 0.28705 0.43034 0.316 0.0
C2777 C 0.27512 0.41136 0.2968 0.0
C2778 C 0.25984 0.39441 0.28953 0.0
C2779 C 0.24014 0.39065 0.28888 0.0
C2780 C 0.22563 0.37425 0.28242 0.0
C2781 C 0.23067 0.36159 0.27647 0.0
C2782 C 0.25028 0.36536 0.27691 0.0
C2783 C 0.26484 0.38172 0.28339 0.0
H2784 H 0.21941 0.34886 0.27151 0.0
H2785 H 0.36031 0.50381 0.33728 0.0
H2786 H 0.54719 0.90347 0.27216 0.0
H2787 H 0.57068 0.89794 0.28433 0.0
H2788 H 0.524 0.83951 0.29261 0.0
H2789 H 0.5003 0.84506 0.28052 0.0
H2790 H 0.5686 0.88813 0.30979 0.0
H2791 H 0.54731 0.8109 0.29265 0.0
H2792 H 0.5343 0.79017 0.2738 0.0
H2793 H 0.5584 0.84132 0.2509 0.0
H2794 H 0.57163 0.86233 0.2696 0.0
H2795 H 0.62019 0.82566 0.32775 0.0
H2796 H 0.59189 0.82792 0.31972 0.0
H2797 H 0.62898 0.89061 0.31762 0.0
H2798 H 0.65666 0.88839 0.32655 0.0
H2799 H 0.58636 0.83784 0.29856 0.0
H2800 H 0.60643 0.91488 0.31591 0.0
H2801 H 0.61939 0.93572 0.33472 0.0
H2802 H 0.59682 0.88473 0.35765 0.0
H2803 H 0.58384 0.86356 0.33891 0.0
C2804 C 0.54193 0.88941 0.27653 0.0
C2805 C 0.52189 0.87469 0.27536 0.0
C2806 C 0.55536 0.8863 0.28353 0.0
C2807 C 0.54916 0.86828 0.28933 0.0
C2808 C 0.52916 0.85349 0.28814 0.0
C2809 C 0.51562 0.85671 0.2813 0.0
C2810 C 0.56358 0.86523 0.29684 0.0
C2811 C 0.5726 0.87722 0.3073 0.0
C2812 C 0.5684 0.85065 0.29382 0.0
C2813 C 0.56019 0.83816 0.28254 0.0
C2814 C 0.54976 0.81771 0.28359 0.0
C2815 C 0.54235 0.80592 0.27293 0.0
C2816 C 0.54544 0.81442 0.26116 0.0
C2817 C 0.55591 0.83475 0.26002 0.0
C2818 C 0.56331 0.8466 0.27065 0.0
C2819 C 0.62206 0.83995 0.3261 0.0
C2820 C 0.64056 0.8569 0.32815 0.0
C2821 C 0.60589 0.84125 0.32132 0.0
C2822 C 0.60798 0.85949 0.31819 0.0
C2823 C 0.6265 0.87638 0.32032 0.0
C2824 C 0.64247 0.87511 0.32534 0.0
C2825 C 0.59158 0.8608 0.31163 0.0
C2826 C 0.58219 0.84855 0.30126 0.0
C2827 C 0.58633 0.8751 0.31478 0.0
C2828 C 0.59437 0.88767 0.32604 0.0
C2829 C 0.60427 0.90812 0.32497 0.0
C2830 C 0.61166 0.91998 0.3356 0.0
C2831 C 0.60904 0.91153 0.34736 0.0
C2832 C 0.59901 0.89121 0.34851 0.0
C2833 C 0.59173 0.87929 0.33789 0.0
H2834 H 0.6147 0.92072 0.35559 0.0
H2835 H 0.53977 0.80527 0.25292 0.0
H2836 H 0.12907 0.65225 0.26417 0.0
H2837 H 0.13644 0.68351 0.27329 0.0
H2838 H 0.12062 0.65706 0.30963 0.0
H2839 H 0.11211 0.62545 0.30046 0.0
H2840 H 0.10628 0.68061 0.30659 0.0
H2841 H 0.16963 0.68552 0.30062 0.0
H2842 H 0.19617 0.68403 0.28901 0.0
H2843 H 0.20077 0.72871 0.2643 0.0
H2844 H 0.17403 0.73026 0.27566 0.0
H2845 H 0.15512 0.76841 0.34236 0.0
H2846 H 0.14705 0.73717 0.33281 0.0
H2847 H 0.15195 0.76184 0.29632 0.0
H2848 H 0.16017 0.79324 0.3059 0.0
H2849 H 0.17193 0.73962 0.2994 0.0
H2850 H 0.10826 0.73448 0.30628 0.0
H2851 H 0.08284 0.73631 0.31896 0.0
H2852 H 0.08017 0.69199 0.34324 0.0
H2853 H 0.10585 0.69014 0.33081 0.0
C2854 C 0.12686 0.65298 0.27407 0.0
C2855 C 0.12005 0.63632 0.28159 0.0
C2856 C 0.13133 0.67094 0.2793 0.0
C2857 C 0.12941 0.6727 0.29217 0.0
C2858 C 0.12232 0.65606 0.29968 0.0
C2859 C 0.11766 0.63804 0.29444 0.0
C2860 C 0.13484 0.69191 0.29782 0.0
C2861 C 0.12073 0.69344 0.30513 0.0
C2862 C 0.15359 0.70875 0.29577 0.0
C2863 C 0.16968 0.70785 0.28891 0.0
C2864 C 0.17618 0.69491 0.29265 0.0
C2865 C 0.19128 0.69408 0.28612 0.0
C2866 C 0.20011 0.70623 0.2759 0.0
C2867 C 0.19389 0.71928 0.2722 0.0
C2868 C 0.17877 0.72015 0.27869 0.0
C2869 C 0.15481 0.7673 0.33235 0.0
C2870 C 0.15844 0.78328 0.3249 0.0
C2871 C 0.14999 0.74939 0.32689 0.0
C2872 C 0.14886 0.74725 0.31388 0.0
C2873 C 0.15277 0.76326 0.30638 0.0
C2874 C 0.15733 0.7811 0.31186 0.0
C2875 C 0.14338 0.7282 0.30811 0.0
C2876 C 0.15749 0.72674 0.3008 0.0
C2877 C 0.12474 0.7114 0.31028 0.0
C2878 C 0.10912 0.71231 0.31768 0.0
C2879 C 0.10238 0.72524 0.31438 0.0
C2880 C 0.0879 0.72626 0.32152 0.0
C2881 C 0.07993 0.71431 0.33192 0.0
C2882 C 0.08638 0.70126 0.33519 0.0
C2883 C 0.10088 0.70021 0.32809 0.0
H2884 H 0.06873 0.71512 0.33743 0.0
H2885 H 0.21181 0.70557 0.27086 0.0
H2886 H 0.82723 0.04675 0.38031 0.0
H2887 H 0.80084 0.01553 0.37185 0.0
H2888 H 0.80534 0.98579 0.40424 0.0
H2889 H 0.83159 0.01702 0.41282 0.0
H2890 H 0.80408 0.96753 0.38028 0.0
H2891 H 0.76885 0.99307 0.4036 0.0
H2892 H 0.76017 0.01813 0.40933 0.0
H2893 H 0.74051 0.01792 0.37181 0.0
H2894 H 0.74936 0.99306 0.36581 0.0
H2895 H 0.71738 0.87596 0.37138 0.0
H2896 H 0.7421 0.90714 0.38095 0.0
H2897 H 0.73085 0.93839 0.35208 0.0
H2898 H 0.70573 0.90721 0.34281 0.0
H2899 H 0.73565 0.95614 0.37425 0.0
H2900 H 0.77035 0.93192 0.35028 0.0
H2901 H 0.77877 0.90713 0.34341 0.0
H2902 H 0.80012 0.90587 0.3802 0.0
H2903 H 0.7915 0.93042 0.38736 0.0
C2904 C 0.82266 0.03353 0.38558 0.0
C2905 C 0.83141 0.03428 0.39722 0.0
C2906 C 0.80755 0.01575 0.38077 0.0
C2907 C 0.80112 0.99839 0.38745 0.0
C2908 C 0.81011 0.99904 0.39895 0.0
C2909 C 0.82499 0.01686 0.40386 0.0
C2910 C 0.78481 0.9796 0.38249 0.0
C2911 C 0.78906 0.96491 0.37912 0.0
C2912 C 0.76538 0.97647 0.38063 0.0
C2913 C 0.75997 0.99136 0.38423 0.0
C2914 C 0.76285 0.9985 0.39655 0.0
C2915 C 0.75786 0.01264 0.39985 0.0
C2916 C 0.74985 0.01965 0.39093 0.0
C2917 C 0.74675 0.0125 0.3787 0.0
C2918 C 0.75174 0.99837 0.37535 0.0
C2919 C 0.72009 0.88955 0.36724 0.0
C2920 C 0.70999 0.8894 0.35634 0.0
C2921 C 0.73423 0.9073 0.37263 0.0
C2922 C 0.73856 0.92511 0.36711 0.0
C2923 C 0.72782 0.92486 0.35647 0.0
C2924 C 0.71363 0.9071 0.35112 0.0
C2925 C 0.75485 0.94393 0.37212 0.0
C2926 C 0.75065 0.95869 0.37545 0.0
C2927 C 0.77442 0.94726 0.37374 0.0
C2928 C 0.78012 0.93289 0.36939 0.0
C2929 C 0.77674 0.92629 0.35693 0.0
C2930 C 0.78154 0.91228 0.35298 0.0
C2931 C 0.78993 0.90492 0.36137 0.0
C2932 C 0.7936 0.91159 0.37372 0.0
C2933 C 0.78878 0.92556 0.37773 0.0
H2934 H 0.79362 0.89409 0.35831 0.0
H2935 H 0.74599 0.0306 0.39351 0.0
H2936 H 0.98291 0.77069 0.40763 0.0
H2937 H 0.0126 0.77714 0.39612 0.0
H2938 H 0.01896 0.83154 0.3831 0.0
H2939 H 0.98901 0.82501 0.39452 0.0
H2940 H 0.02545 0.81388 0.36467 0.0
H2941 H 0.04984 0.82948 0.40643 0.0
H2942 H 0.05 0.82394 0.42902 0.0
H2943 H 0.05732 0.7744 0.42193 0.0
H2944 H 0.05689 0.77944 0.39928 0.0
H2945 H 0.1304 0.84795 0.34803 0.0
H2946 H 0.09957 0.84504 0.35623 0.0
H2947 H 0.07647 0.78356 0.36227 0.0
H2948 H 0.10688 0.78625 0.3537 0.0
H2949 H 0.0802 0.80819 0.38439 0.0
H2950 H 0.04153 0.78696 0.3438 0.0
H2951 H 0.03423 0.78993 0.32173 0.0
H2952 H 0.05414 0.85083 0.32747 0.0
H2953 H 0.06112 0.84802 0.34964 0.0
C2954 C 0.99071 0.78413 0.40241 0.0
C2955 C 0.9836 0.79739 0.40209 0.0
C2956 C 0.00777 0.78784 0.39584 0.0
C2957 C 0.01838 0.80505 0.3889 0.0
C2958 C 0.01116 0.8182 0.38841 0.0
C2959 C 0.99397 0.81441 0.39491 0.0
C2960 C 0.03661 0.80896 0.38189 0.0
C2961 C 0.03758 0.81301 0.36909 0.0
C2962 C 0.05243 0.80758 0.38751 0.0
C2963 C 0.05313 0.80473 0.40114 0.0
C2964 C 0.05133 0.81731 0.40968 0.0
C2965 C 0.05144 0.81424 0.4225 0.0
C2966 C 0.05352 0.79874 0.42691 0.0
C2967 C 0.05562 0.78635 0.4185 0.0
C2968 C 0.05548 0.78932 0.40567 0.0
C2969 C 0.11847 0.83368 0.35062 0.0
C2970 C 0.12103 0.81726 0.35004 0.0
C2971 C 0.10085 0.83204 0.35538 0.0
C2972 C 0.08566 0.81406 0.35988 0.0
C2973 C 0.0879 0.79756 0.35882 0.0
C2974 C 0.10531 0.79913 0.35391 0.0
C2975 C 0.06878 0.81283 0.3672 0.0
C2976 C 0.06816 0.80933 0.38007 0.0
C2977 C 0.05337 0.81489 0.36173 0.0
C2978 C 0.05217 0.81737 0.34822 0.0
C2979 C 0.04465 0.80103 0.34026 0.0
C2980 C 0.04027 0.80261 0.32781 0.0
C2981 C 0.04368 0.82055 0.32321 0.0
C2982 C 0.0515 0.83695 0.33105 0.0
C2983 C 0.05565 0.83537 0.34355 0.0
H2984 H 0.04037 0.82177 0.31355 0.0
H2985 H 0.05367 0.79643 0.43684 0.0
H2986 H 0.2359 0.19437 0.39002 0.0
H2987 H 0.22773 0.21633 0.37876 0.0
H2988 H 0.18731 0.21085 0.40802 0.0
H2989 H 0.19598 0.18938 0.41949 0.0
H2990 H 0.19552 0.21248 0.36873 0.0
H2991 H 0.18541 0.25231 0.4108 0.0
H2992 H 0.19731 0.26168 0.43249 0.0
H2993 H 0.25117 0.2617 0.42352 0.0
H2994 H 0.23968 0.25264 0.40175 0.0
H2995 H 0.15551 0.27114 0.34744 0.0
H2996 H 0.16141 0.24752 0.35853 0.0
H2997 H 0.21868 0.29416 0.37091 0.0
H2998 H 0.21249 0.31786 0.36033 0.0
H2999 H 0.20131 0.27145 0.38934 0.0
H3000 H 0.21291 0.26123 0.34656 0.0
H3001 H 0.20385 0.25454 0.32428 0.0
H3002 H 0.1532 0.19924 0.3335 0.0
H3003 H 0.16192 0.20566 0.35586 0.0
C3004 C 0.22527 0.19788 0.39402 0.0
C3005 C 0.21666 0.19033 0.40564 0.0
C3006 C 0.22057 0.21036 0.38758 0.0
C3007 C 0.20706 0.21542 0.39259 0.0
C3008 C 0.19809 0.20751 0.40408 0.0
C3009 C 0.20303 0.19525 0.41063 0.0
C3010 C 0.20265 0.22918 0.38583 0.0
C3011 C 0.19679 0.22537 0.37324 0.0
C3012 C 0.20445 0.2461 0.39166 0.0
C3013 C 0.21158 0.25162 0.4047 0.0
C3014 C 0.19981 0.2544 0.41347 0.0
C3015 C 0.20648 0.25964 0.42577 0.0
C3016 C 0.22496 0.26222 0.42939 0.0
C3017 C 0.23683 0.25963 0.42071 0.0
C3018 C 0.23024 0.25443 0.4084 0.0
C3019 C 0.16941 0.27632 0.35247 0.0
C3020 C 0.18357 0.29634 0.35301 0.0
C3021 C 0.17278 0.2628 0.35877 0.0
C3022 C 0.19058 0.26903 0.36546 0.0
C3023 C 0.2048 0.28901 0.36587 0.0
C3024 C 0.20128 0.30254 0.35977 0.0
C3025 C 0.19443 0.2549 0.37221 0.0
C3026 C 0.20003 0.25855 0.38483 0.0
C3027 C 0.19291 0.23814 0.36632 0.0
C3028 C 0.18798 0.23399 0.35287 0.0
C3029 C 0.19981 0.24766 0.34383 0.0
C3030 C 0.19474 0.24392 0.3312 0.0
C3031 C 0.17792 0.22651 0.32748 0.0
C3032 C 0.16622 0.21273 0.33639 0.0
C3033 C 0.17124 0.21639 0.34904 0.0
H3034 H 0.17397 0.22368 0.3177 0.0
H3035 H 0.2301 0.26627 0.43892 0.0
H3036 H 0.67143 0.51744 0.74608 0.0
H3037 H 0.69978 0.53988 0.73333 0.0
H3038 H 0.66017 0.54874 0.70934 0.0
H3039 H 0.63179 0.52534 0.72164 0.0
H3040 H 0.68531 0.54792 0.69553 0.0
H3041 H 0.69152 0.58223 0.73372 0.0
H3042 H 0.69448 0.58814 0.75644 0.0
H3043 H 0.74864 0.58596 0.75713 0.0
H3044 H 0.74584 0.57975 0.73444 0.0
H3045 H 0.76922 0.65247 0.68523 0.0
H3046 H 0.7383 0.62506 0.69302 0.0
H3047 H 0.76229 0.58671 0.68812 0.0
H3048 H 0.79359 0.61431 0.68063 0.0
H3049 H 0.74549 0.60194 0.71559 0.0
H3050 H 0.70898 0.54441 0.67664 0.0
H3051 H 0.69876 0.5405 0.65449 0.0
H3052 H 0.69942 0.59516 0.65584 0.0
H3053 H 0.70971 0.59938 0.67795 0.0
C3054 C 0.66888 0.52415 0.73803 0.0
C3055 C 0.64953 0.51977 0.73482 0.0
C3056 C 0.68507 0.53708 0.73079 0.0
C3057 C 0.68229 0.54641 0.72046 0.0
C3058 C 0.66282 0.54178 0.71721 0.0
C3059 C 0.6466 0.52847 0.72425 0.0
C3060 C 0.69952 0.56107 0.71307 0.0
C3061 C 0.69848 0.55966 0.69998 0.0
C3062 C 0.71669 0.57669 0.71875 0.0
C3063 C 0.71833 0.58028 0.73241 0.0
C3064 C 0.70397 0.58284 0.73874 0.0
C3065 C 0.70563 0.58627 0.7516 0.0
C3066 C 0.7217 0.58736 0.75823 0.0
C3067 C 0.73617 0.58506 0.75199 0.0
C3068 C 0.73455 0.58159 0.73913 0.0
C3069 C 0.7677 0.63808 0.68551 0.0
C3070 C 0.78371 0.63547 0.6822 0.0
C3071 C 0.75001 0.62244 0.68989 0.0
C3072 C 0.74792 0.60384 0.69098 0.0
C3073 C 0.7635 0.60091 0.68713 0.0
C3074 C 0.78136 0.61665 0.68283 0.0
C3075 C 0.73109 0.58866 0.69818 0.0
C3076 C 0.73237 0.58997 0.71123 0.0
C3077 C 0.71382 0.57348 0.69249 0.0
C3078 C 0.71045 0.57236 0.67886 0.0
C3079 C 0.70725 0.55573 0.67213 0.0
C3080 C 0.70129 0.55338 0.65962 0.0
C3081 C 0.69827 0.56749 0.65379 0.0
C3082 C 0.70167 0.58419 0.66038 0.0
C3083 C 0.70778 0.58667 0.67286 0.0
H3084 H 0.69352 0.56558 0.64413 0.0
H3085 H 0.72297 0.59003 0.76818 0.0
H3086 H 0.4812 0.13694 0.74439 0.0
H3087 H 0.45444 0.14026 0.73482 0.0
H3088 H 0.46837 0.12554 0.69894 0.0
H3089 H 0.49431 0.12104 0.70852 0.0
H3090 H 0.45282 0.16338 0.71828 0.0
H3091 H 0.4276 0.10246 0.6807 0.0
H3092 H 0.42613 0.07079 0.67764 0.0
H3093 H 0.42419 0.06263 0.71727 0.0
H3094 H 0.42538 0.09411 0.72056 0.0
H3095 H 0.38463 0.1752 0.682 0.0
H3096 H 0.41276 0.17097 0.68703 0.0
H3097 H 0.37233 0.11159 0.69815 0.0
H3098 H 0.34443 0.11474 0.69048 0.0
H3099 H 0.40175 0.11106 0.69127 0.0
H3100 H 0.39741 0.15808 0.71912 0.0
H3101 H 0.39441 0.18771 0.72018 0.0
H3102 H 0.45128 0.22093 0.70273 0.0
H3103 H 0.45446 0.19141 0.70136 0.0
C3104 C 0.47841 0.13409 0.73449 0.0
C3105 C 0.48997 0.12857 0.7273 0.0
C3106 C 0.4632 0.13623 0.72899 0.0
C3107 C 0.45912 0.13295 0.71614 0.0
C3108 C 0.47089 0.12784 0.70889 0.0
C3109 C 0.48597 0.12551 0.7144 0.0
C3110 C 0.44251 0.13474 0.71037 0.0
C3111 C 0.4416 0.15185 0.71245 0.0
C3112 C 0.42771 0.11978 0.70275 0.0
C3113 C 0.4268 0.10074 0.70087 0.0
C3114 C 0.4268 0.09387 0.68875 0.0
C3115 C 0.42602 0.07596 0.68698 0.0
C3116 C 0.42514 0.06474 0.69725 0.0
C3117 C 0.42495 0.07137 0.70932 0.0
C3118 C 0.4257 0.08926 0.71114 0.0
C3119 C 0.38178 0.16096 0.68483 0.0
C3120 C 0.3623 0.14508 0.68523 0.0
C3121 C 0.39794 0.15869 0.68821 0.0
C3122 C 0.39494 0.14118 0.69357 0.0
C3123 C 0.37536 0.12532 0.69409 0.0
C3124 C 0.35932 0.12718 0.6898 0.0
C3125 C 0.4118 0.13958 0.69929 0.0
C3126 C 0.41285 0.12254 0.69718 0.0
C3127 C 0.42637 0.15433 0.7072 0.0
C3128 C 0.42609 0.17254 0.71006 0.0
C3129 C 0.40941 0.17178 0.71571 0.0
C3130 C 0.40759 0.18849 0.71623 0.0
C3131 C 0.42252 0.20608 0.71135 0.0
C3132 C 0.43966 0.20722 0.70639 0.0
C3133 C 0.44151 0.19053 0.70577 0.0
H3134 H 0.42083 0.21884 0.71142 0.0
H3135 H 0.42455 0.05088 0.69586 0.0
H3136 H 0.86153 0.36415 0.71889 0.0
H3137 H 0.85414 0.33293 0.70962 0.0
H3138 H 0.90726 0.33839 0.72648 0.0
H3139 H 0.91514 0.37002 0.73544 0.0
H3140 H 0.90306 0.32577 0.7027 0.0
H3141 H 0.86205 0.30835 0.739 0.0
H3142 H 0.83736 0.30868 0.75322 0.0
H3143 H 0.79325 0.2856 0.72407 0.0
H3144 H 0.81776 0.28537 0.70962 0.0
H3145 H 0.8777 0.22638 0.69535 0.0
H3146 H 0.88595 0.2581 0.70426 0.0
H3147 H 0.83468 0.25472 0.686 0.0
H3148 H 0.82613 0.22288 0.67721 0.0
H3149 H 0.83817 0.26619 0.71058 0.0
H3150 H 0.87948 0.28336 0.67435 0.0
H3151 H 0.90417 0.28239 0.66046 0.0
H3152 H 0.94787 0.30552 0.68984 0.0
H3153 H 0.92333 0.30634 0.70399 0.0
C3154 C 0.87177 0.35884 0.72051 0.0
C3155 C 0.8889 0.36955 0.72792 0.0
C3156 C 0.86742 0.34089 0.71531 0.0
C3157 C 0.88002 0.33323 0.7175 0.0
C3158 C 0.8973 0.34401 0.72472 0.0
C3159 C 0.90168 0.36199 0.72992 0.0
C3160 C 0.8751 0.31392 0.71228 0.0
C3161 C 0.88898 0.31269 0.70456 0.0
C3162 C 0.85658 0.29694 0.71452 0.0
C3163 C 0.84179 0.29703 0.72319 0.0
C3164 C 0.84713 0.30349 0.73559 0.0
C3165 C 0.83316 0.30363 0.7437 0.0
C3166 C 0.81376 0.29721 0.73954 0.0
C3167 C 0.80828 0.29059 0.72727 0.0
C3168 C 0.8222 0.29043 0.71912 0.0
C3169 C 0.86817 0.23237 0.69322 0.0
C3170 C 0.85136 0.22219 0.68548 0.0
C3171 C 0.87296 0.25053 0.69828 0.0
C3172 C 0.86102 0.25881 0.69568 0.0
C3173 C 0.84411 0.24859 0.68808 0.0
C3174 C 0.83934 0.23046 0.68299 0.0
C3175 C 0.86609 0.27808 0.70099 0.0
C3176 C 0.85224 0.27928 0.70873 0.0
C3177 C 0.88466 0.295 0.6988 0.0
C3178 C 0.89951 0.29474 0.69027 0.0
C3179 C 0.89431 0.2881 0.67789 0.0
C3180 C 0.90829 0.2876 0.66996 0.0
C3181 C 0.92757 0.29385 0.67428 0.0
C3182 C 0.93293 0.30066 0.68652 0.0
C3183 C 0.91899 0.30117 0.69449 0.0
H3184 H 0.93837 0.29344 0.66813 0.0
H3185 H 0.80297 0.29733 0.74583 0.0
H3186 H 0.20001 0.96823 0.60319 0.0
H3187 H 0.22594 0.99955 0.61161 0.0
H3188 H 0.18141 0.00742 0.63039 0.0
H3189 H 0.15534 0.97643 0.62166 0.0
H3190 H 0.20854 0.0408 0.61962 0.0
H3191 H 0.20976 0.99246 0.64617 0.0
H3192 H 0.21208 0.96315 0.65093 0.0
H3193 H 0.27019 0.98977 0.6347 0.0
H3194 H 0.2681 0.01915 0.62969 0.0
H3195 H 0.26741 0.11337 0.6637 0.0
H3196 H 0.24355 0.08285 0.65358 0.0
H3197 H 0.29145 0.07955 0.63573 0.0
H3198 H 0.31563 0.10998 0.64617 0.0
H3199 H 0.26393 0.04439 0.64496 0.0
H3200 H 0.26337 0.09356 0.61938 0.0
H3201 H 0.26129 0.12317 0.61527 0.0
H3202 H 0.2021 0.09525 0.62994 0.0
H3203 H 0.20392 0.06555 0.6343 0.0
C3204 C 0.1957 0.97671 0.60901 0.0
C3205 C 0.17557 0.96976 0.61178 0.0
C3206 C 0.21057 0.99454 0.61391 0.0
C3207 C 0.20565 0.00575 0.62176 0.0
C3208 C 0.18557 0.999 0.62439 0.0
C3209 C 0.17069 0.98118 0.61949 0.0
C3210 C 0.22142 0.02445 0.6273 0.0
C3211 C 0.22053 0.04154 0.62526 0.0
C3212 C 0.23738 0.02554 0.6344 0.0
C3213 C 0.23868 0.00791 0.63743 0.0
C3214 C 0.22296 0.992 0.64352 0.0
C3215 C 0.22425 0.97539 0.64628 0.0
C3216 C 0.24125 0.97458 0.64309 0.0
C3217 C 0.25702 0.9904 0.63715 0.0
C3218 C 0.2558 0.00704 0.63436 0.0
C3219 C 0.27297 0.10612 0.65773 0.0
C3220 C 0.2935 0.11409 0.65584 0.0
C3221 C 0.25924 0.08872 0.65185 0.0
C3222 C 0.26568 0.07901 0.64377 0.0
C3223 C 0.28616 0.08682 0.6419 0.0
C3224 C 0.29995 0.10426 0.64784 0.0
C3225 C 0.25094 0.06068 0.63736 0.0
C3226 C 0.25202 0.04367 0.63923 0.0
C3227 C 0.23516 0.05967 0.63011 0.0
C3228 C 0.23384 0.07736 0.62725 0.0
C3229 C 0.24994 0.09376 0.62179 0.0
C3230 C 0.24881 0.11057 0.61941 0.0
C3231 C 0.23159 0.11111 0.62237 0.0
C3232 C 0.21543 0.09481 0.62766 0.0
C3233 C 0.2165 0.07798 0.63007 0.0
H3234 H 0.23075 0.12414 0.62054 0.0
H3235 H 0.24222 0.9617 0.64524 0.0
H3236 H 0.00967 0.19373 0.59576 0.0
H3237 H 0.97913 0.18887 0.60557 0.0
H3238 H 0.00954 0.20671 0.64103 0.0
H3239 H 0.04019 0.2121 0.6313 0.0
H3240 H 0.97341 0.17363 0.64317 0.0
H3241 H 0.99976 0.23732 0.62447 0.0
H3242 H 0.01186 0.26068 0.60708 0.0
H3243 H 0.95576 0.22734 0.58814 0.0
H3244 H 0.94343 0.20362 0.60535 0.0
H3245 H 0.90411 0.21689 0.66007 0.0
H3246 H 0.93415 0.2185 0.65181 0.0
H3247 H 0.90383 0.15551 0.64987 0.0
H3248 H 0.87413 0.15397 0.65878 0.0
H3249 H 0.93885 0.20911 0.63001 0.0
H3250 H 0.92789 0.1388 0.64649 0.0
H3251 H 0.92071 0.11687 0.66446 0.0
H3252 H 0.95133 0.16667 0.6888 0.0
H3253 H 0.95759 0.18876 0.67107 0.0
C3254 C 0.00999 0.19688 0.60561 0.0
C3255 C 0.02754 0.20328 0.6127 0.0
C3256 C 0.99243 0.19399 0.61123 0.0
C3257 C 0.99197 0.19742 0.62406 0.0
C3258 C 0.00942 0.2038 0.63114 0.0
C3259 C 0.02698 0.2068 0.62554 0.0
C3260 C 0.97341 0.19435 0.63021 0.0
C3261 C 0.96583 0.18138 0.64025 0.0
C3262 C 0.96337 0.20432 0.62645 0.0
C3263 C 0.97076 0.21859 0.61612 0.0
C3264 C 0.99007 0.23488 0.61654 0.0
C3265 C 0.99695 0.24821 0.60673 0.0
C3266 C 0.98461 0.24547 0.59649 0.0
C3267 C 0.96532 0.22943 0.59606 0.0
C3268 C 0.95837 0.21604 0.60585 0.0
C3269 C 0.90411 0.20338 0.65827 0.0
C3270 C 0.88687 0.18534 0.66027 0.0
C3271 C 0.92126 0.20428 0.65344 0.0
C3272 C 0.92153 0.18715 0.65018 0.0
C3273 C 0.90443 0.169 0.65257 0.0
C3274 C 0.88733 0.1681 0.65767 0.0
C3275 C 0.939 0.18867 0.64324 0.0
C3276 C 0.94631 0.20126 0.63293 0.0
C3277 C 0.94886 0.17841 0.64675 0.0
C3278 C 0.9428 0.16532 0.65757 0.0
C3279 C 0.9326 0.14498 0.65575 0.0
C3280 C 0.92868 0.13254 0.66588 0.0
C3281 C 0.93545 0.14036 0.67779 0.0
C3282 C 0.94586 0.16062 0.67961 0.0
C3283 C 0.94932 0.17309 0.66956 0.0
H3284 H 0.9327 0.13073 0.6856 0.0
H3285 H 0.98996 0.2558 0.5889 0.0
H3286 H 0.76123 0.7867 0.60253 0.0
H3287 H 0.76918 0.76499 0.6143 0.0
H3288 H 0.82632 0.81401 0.62441 0.0
H3289 H 0.8186 0.8358 0.61246 0.0
H3290 H 0.82871 0.78172 0.61688 0.0
H3291 H 0.79054 0.79644 0.64536 0.0
H3292 H 0.76192 0.79951 0.65214 0.0
H3293 H 0.72308 0.73794 0.64634 0.0
H3294 H 0.75143 0.73456 0.63934 0.0
H3295 H 0.84883 0.73126 0.66481 0.0
H3296 H 0.84216 0.75525 0.65482 0.0
H3297 H 0.78674 0.70864 0.64016 0.0
H3298 H 0.79337 0.68457 0.64994 0.0
H3299 H 0.78463 0.74108 0.65099 0.0
H3300 H 0.82117 0.72664 0.62075 0.0
H3301 H 0.84902 0.72258 0.6136 0.0
H3302 H 0.89018 0.78263 0.62266 0.0
H3303 H 0.8625 0.787 0.62993 0.0
C3304 C 0.77555 0.79282 0.60717 0.0
C3305 C 0.78928 0.81294 0.60661 0.0
C3306 C 0.78001 0.78045 0.61396 0.0
C3307 C 0.79825 0.78796 0.62032 0.0
C3308 C 0.81213 0.80797 0.6196 0.0
C3309 C 0.80765 0.82039 0.61286 0.0
C3310 C 0.80275 0.77486 0.62772 0.0
C3311 C 0.81927 0.77309 0.62447 0.0
C3312 C 0.79017 0.76332 0.63746 0.0
C3313 C 0.77309 0.76528 0.64172 0.0
C3314 C 0.77587 0.78358 0.64543 0.0
C3315 C 0.7597 0.78537 0.64933 0.0
C3316 C 0.74068 0.76894 0.64964 0.0
C3317 C 0.73781 0.75067 0.64608 0.0
C3318 C 0.75393 0.7488 0.64216 0.0
C3319 C 0.83515 0.72613 0.65955 0.0
C3320 C 0.82165 0.70604 0.65811 0.0
C3321 C 0.8314 0.73983 0.65384 0.0
C3322 C 0.81401 0.73363 0.64674 0.0
C3323 C 0.80023 0.71364 0.64562 0.0
C3324 C 0.80409 0.69994 0.65116 0.0
C3325 C 0.81047 0.74794 0.64008 0.0
C3326 C 0.79414 0.74989 0.64347 0.0
C3327 C 0.82314 0.75957 0.63044 0.0
C3328 C 0.83981 0.75709 0.626 0.0
C3329 C 0.83618 0.73894 0.62131 0.0
C3330 C 0.85193 0.73659 0.61721 0.0
C3331 C 0.87138 0.75232 0.61773 0.0
C3332 C 0.8751 0.77045 0.62229 0.0
C3333 C 0.85939 0.77289 0.62637 0.0
H3334 H 0.88356 0.75049 0.61455 0.0
H3335 H 0.72818 0.77035 0.65267 0.0
H3336 H 0.01741 0.83215 0.61994 0.0
H3337 H 0.98861 0.80957 0.63228 0.0
H3338 H 0.99292 0.76096 0.61753 0.0
H3339 H 0.02172 0.78339 0.60527 0.0
H3340 H 0.95557 0.75376 0.61621 0.0
H3341 H 0.00729 0.77783 0.64751 0.0
H3342 H 0.03483 0.80302 0.66019 0.0
H3343 H 0.99598 0.82219 0.67479 0.0
H3344 H 0.96826 0.79728 0.66205 0.0
H3345 H 0.89891 0.67773 0.65782 0.0
H3346 H 0.92943 0.70571 0.65006 0.0
H3347 H 0.90396 0.74276 0.65526 0.0
H3348 H 0.87307 0.71464 0.66251 0.0
H3349 H 0.95067 0.75765 0.66217 0.0
H3350 H 0.89965 0.73495 0.62998 0.0
H3351 H 0.87198 0.70932 0.6177 0.0
H3352 H 0.90979 0.68763 0.60507 0.0
H3353 H 0.93769 0.71305 0.61748 0.0
C3354 C 0.01238 0.81667 0.61945 0.0
C3355 C 0.02185 0.80959 0.61156 0.0
C3356 C 0.9959 0.80377 0.62651 0.0
C3357 C 0.98862 0.78355 0.62589 0.0
C3358 C 0.99818 0.77649 0.61812 0.0
C3359 C 0.01461 0.78934 0.61107 0.0
C3360 C 0.97066 0.76958 0.63294 0.0
C3361 C 0.95464 0.75462 0.62627 0.0
C3362 C 0.96912 0.77088 0.64605 0.0
C3363 C 0.98576 0.78585 0.65371 0.0
C3364 C 0.00466 0.78754 0.65334 0.0
C3365 C 0.0203 0.80174 0.66055 0.0
C3366 C 0.01718 0.81424 0.66826 0.0
C3367 C 0.99839 0.81253 0.66879 0.0
C3368 C 0.98271 0.79836 0.66158 0.0
C3369 C 0.9 0.69195 0.65758 0.0
C3370 C 0.88374 0.69406 0.66098 0.0
C3371 C 0.91742 0.70789 0.65318 0.0
C3372 C 0.91893 0.72626 0.65215 0.0
C3373 C 0.90313 0.72872 0.65614 0.0
C3374 C 0.88551 0.71264 0.66034 0.0
C3375 C 0.93593 0.74198 0.64539 0.0
C3376 C 0.95168 0.75709 0.6521 0.0
C3377 C 0.93729 0.74095 0.63231 0.0
C3378 C 0.92066 0.72573 0.62477 0.0
C3379 C 0.902 0.72458 0.62469 0.0
C3380 C 0.88628 0.71012 0.61768 0.0
C3381 C 0.88907 0.69678 0.61062 0.0
C3382 C 0.90763 0.69794 0.61055 0.0
C3383 C 0.92341 0.71239 0.61757 0.0
H3384 H 0.87689 0.68561 0.60517 0.0
H3385 H 0.0293 0.82523 0.67384 0.0
H3386 H 0.21419 0.22814 0.59792 0.0
H3387 H 0.23763 0.22221 0.60962 0.0
H3388 H 0.18928 0.17676 0.63025 0.0
H3389 H 0.16549 0.18196 0.61822 0.0
H3390 H 0.22108 0.20305 0.6454 0.0
H3391 H 0.21091 0.16418 0.6087 0.0
H3392 H 0.20964 0.15742 0.58615 0.0
H3393 H 0.27155 0.20023 0.58306 0.0
H3394 H 0.27312 0.2075 0.60556 0.0
H3395 H 0.28448 0.15632 0.66003 0.0
H3396 H 0.25695 0.15999 0.65193 0.0
H3397 H 0.29672 0.22181 0.64781 0.0
H3398 H 0.32398 0.21841 0.65661 0.0
H3399 H 0.26742 0.18541 0.62533 0.0
H3400 H 0.27592 0.22831 0.66104 0.0
H3401 H 0.27584 0.23804 0.68286 0.0
H3402 H 0.21662 0.18975 0.6873 0.0
H3403 H 0.21668 0.17929 0.66559 0.0
C3404 C 0.20837 0.2166 0.60477 0.0
C3405 C 0.18775 0.20545 0.60698 0.0
C3406 C 0.22189 0.21331 0.61151 0.0
C3407 C 0.21524 0.19891 0.62075 0.0
C3408 C 0.19478 0.18795 0.62316 0.0
C3409 C 0.18118 0.19106 0.61631 0.0
C3410 C 0.22974 0.19574 0.62809 0.0
C3411 C 0.23104 0.19893 0.64103 0.0
C3412 C 0.24303 0.19075 0.62237 0.0
C3413 C 0.24207 0.18653 0.60881 0.0
C3414 C 0.2242 0.17231 0.60319 0.0
C3415 C 0.22344 0.16835 0.59042 0.0
C3416 C 0.24049 0.17843 0.58317 0.0
C3417 C 0.25835 0.19246 0.58868 0.0
C3418 C 0.25918 0.1965 0.60145 0.0
C3419 C 0.28718 0.1708 0.65794 0.0
C3420 C 0.30632 0.18718 0.65937 0.0
C3421 C 0.27142 0.17288 0.65324 0.0
C3422 C 0.27458 0.19129 0.64964 0.0
C3423 C 0.29369 0.2076 0.65099 0.0
C3424 C 0.30931 0.2056 0.65591 0.0
C3425 C 0.25894 0.193 0.64262 0.0
C3426 C 0.25737 0.18941 0.62971 0.0
C3427 C 0.24558 0.19788 0.64835 0.0
C3428 C 0.24657 0.20265 0.66179 0.0
C3429 C 0.26318 0.21934 0.66678 0.0
C3430 C 0.26304 0.22514 0.67909 0.0
C3431 C 0.24624 0.21452 0.68647 0.0
C3432 C 0.22962 0.19796 0.68158 0.0
C3433 C 0.22978 0.192 0.66931 0.0
H3434 H 0.24612 0.21911 0.69598 0.0
H3435 H 0.23987 0.17532 0.57329 0.0
H3436 H 0.78502 0.95896 0.63221 0.0
H3437 H 0.79135 0.98995 0.64137 0.0
H3438 H 0.81269 0.01831 0.60596 0.0
H3439 H 0.807 0.9875 0.59683 0.0
H3440 H 0.83621 0.04069 0.62467 0.0
H3441 H 0.76645 0.00556 0.61544 0.0
H3442 H 0.73226 0.97754 0.61582 0.0
H3443 H 0.73171 0.98154 0.65574 0.0
H3444 H 0.76603 0.00943 0.65561 0.0
H3445 H 0.80005 0.11165 0.64586 0.0
H3446 H 0.79326 0.08077 0.63629 0.0
H3447 H 0.83918 0.0807 0.65906 0.0
H3448 H 0.8465 0.11177 0.66839 0.0
H3449 H 0.78144 0.04487 0.64542 0.0
H3450 H 0.8634 0.06357 0.64225 0.0
H3451 H 0.89663 0.09297 0.64072 0.0
H3452 H 0.87107 0.12364 0.6225 0.0
H3453 H 0.83777 0.09439 0.6238 0.0
C3454 C 0.79128 0.97184 0.62641 0.0
C3455 C 0.79545 0.97077 0.61378 0.0
C3456 C 0.79472 0.98949 0.63163 0.0
C3457 C 0.80228 0.00636 0.62431 0.0
C3458 C 0.8068 0.00544 0.61177 0.0
C3459 C 0.80337 0.98779 0.60654 0.0
C3460 C 0.80525 0.02494 0.62969 0.0
C3461 C 0.82424 0.04159 0.62921 0.0
C3462 C 0.78953 0.02621 0.63541 0.0
C3463 C 0.76888 0.00947 0.63552 0.0
C3464 C 0.7591 0.00037 0.62431 0.0
C3465 C 0.73968 0.98452 0.62448 0.0
C3466 C 0.72984 0.97773 0.6358 0.0
C3467 C 0.73937 0.9868 0.64698 0.0
C3468 C 0.75879 0.00264 0.64686 0.0
C3469 C 0.8087 0.10507 0.64885 0.0
C3470 C 0.82383 0.11421 0.65789 0.0
C3471 C 0.80472 0.08737 0.64342 0.0
C3472 C 0.81584 0.07857 0.64689 0.0
C3473 C 0.83059 0.08739 0.65614 0.0
C3474 C 0.83465 0.10511 0.66153 0.0
C3475 C 0.81244 0.06045 0.64058 0.0
C3476 C 0.79339 0.04392 0.64089 0.0
C3477 C 0.82799 0.0594 0.63446 0.0
C3478 C 0.84808 0.07681 0.6332 0.0
C3479 C 0.8649 0.07654 0.63784 0.0
C3480 C 0.88374 0.09319 0.63704 0.0
C3481 C 0.88594 0.11016 0.63153 0.0
C3482 C 0.86933 0.1105 0.62678 0.0
C3483 C 0.85048 0.09389 0.62756 0.0
H3484 H 0.90051 0.12304 0.63091 0.0
H3485 H 0.7148 0.96547 0.63591 0.0
H3486 H 0.49558 0.37278 0.71298 0.0
H3487 H 0.47027 0.34126 0.70487 0.0
H3488 H 0.45361 0.32006 0.7424 0.0
H3489 H 0.48035 0.35072 0.75057 0.0
H3490 H 0.45163 0.29275 0.73051 0.0
H3491 H 0.42543 0.33424 0.72201 0.0
H3492 H 0.42456 0.36307 0.71412 0.0
H3493 H 0.43194 0.34839 0.6767 0.0
H3494 H 0.43312 0.31959 0.68438 0.0
H3495 H 0.35187 0.22444 0.6957 0.0
H3496 H 0.37504 0.25492 0.7064 0.0
H3497 H 0.42405 0.24684 0.69605 0.0
H3498 H 0.40098 0.21641 0.68512 0.0
H3499 H 0.40667 0.28802 0.69601 0.0
H3500 H 0.45649 0.26468 0.72496 0.0
H3501 H 0.45255 0.23683 0.7374 0.0
H3502 H 0.38961 0.21439 0.73929 0.0
H3503 H 0.39322 0.2425 0.72736 0.0
C3504 C 0.48686 0.36138 0.71957 0.0
C3505 C 0.49023 0.36459 0.73251 0.0
C3506 C 0.472 0.34336 0.71488 0.0
C3507 C 0.45959 0.32825 0.72298 0.0
C3508 C 0.46285 0.33141 0.73589 0.0
C3509 C 0.47806 0.34921 0.74058 0.0
C3510 C 0.4436 0.30902 0.71803 0.0
C3511 C 0.44187 0.29175 0.72293 0.0
C3512 C 0.43023 0.30754 0.70846 0.0
C3513 C 0.42954 0.32485 0.70379 0.0
C3514 C 0.42701 0.33723 0.71211 0.0
C3515 C 0.42644 0.35356 0.70767 0.0
C3516 C 0.42824 0.35759 0.69492 0.0
C3517 C 0.43057 0.34526 0.68658 0.0
C3518 C 0.43117 0.32893 0.69096 0.0
C3519 C 0.36757 0.2291 0.6957 0.0
C3520 C 0.37459 0.21804 0.6895 0.0
C3521 C 0.38078 0.24654 0.70182 0.0
C3522 C 0.40123 0.25306 0.7021 0.0
C3523 C 0.40829 0.24196 0.69604 0.0
C3524 C 0.39511 0.22466 0.68973 0.0
C3525 C 0.41527 0.27194 0.70823 0.0
C3526 C 0.41657 0.28908 0.70353 0.0
C3527 C 0.42758 0.27321 0.71839 0.0
C3528 C 0.4251 0.2556 0.72499 0.0
C3529 C 0.44179 0.25383 0.72802 0.0
C3530 C 0.43964 0.23807 0.73509 0.0
C3531 C 0.42084 0.22384 0.73912 0.0
C3532 C 0.40415 0.22536 0.73609 0.0
C3533 C 0.40625 0.24124 0.72918 0.0
H3534 H 0.41919 0.21162 0.74456 0.0
H3535 H 0.42779 0.37023 0.69151 0.0
H3536 H 0.65348 0.10741 0.74247 0.0
H3537 H 0.68305 0.11427 0.73071 0.0
H3538 H 0.68016 0.16029 0.71112 0.0
H3539 H 0.65094 0.15408 0.72318 0.0
H3540 H 0.68629 0.13579 0.69526 0.0
H3541 H 0.71457 0.17212 0.73294 0.0
H3542 H 0.71955 0.17747 0.75564 0.0
H3543 H 0.73819 0.13474 0.7578 0.0
H3544 H 0.73299 0.12887 0.73513 0.0
H3545 H 0.79767 0.18057 0.68178 0.0
H3546 H 0.76657 0.17801 0.68925 0.0
H3547 H 0.74121 0.11583 0.69327 0.0
H3548 H 0.77182 0.11819 0.68536 0.0
H3549 H 0.75 0.15183 0.71594 0.0
H3550 H 0.71365 0.11029 0.67944 0.0
H3551 H 0.7047 0.10239 0.65725 0.0
H3552 H 0.70009 0.15405 0.65331 0.0
H3553 H 0.70944 0.16243 0.67545 0.0
C3554 C 0.65924 0.11924 0.73584 0.0
C3555 C 0.64971 0.13024 0.73391 0.0
C3556 C 0.67616 0.12307 0.72905 0.0
C3557 C 0.68398 0.13791 0.72008 0.0
C3558 C 0.67441 0.14876 0.71797 0.0
C3559 C 0.65758 0.14508 0.72486 0.0
C3560 C 0.70192 0.14182 0.71281 0.0
C3561 C 0.70031 0.13957 0.69978 0.0
C3562 C 0.72017 0.14651 0.71868 0.0
C3563 C 0.7232 0.14992 0.73234 0.0
C3564 C 0.71954 0.16372 0.73827 0.0
C3565 C 0.72243 0.16687 0.75113 0.0
C3566 C 0.72913 0.15642 0.75816 0.0
C3567 C 0.73297 0.14281 0.75235 0.0
C3568 C 0.73006 0.13957 0.73949 0.0
C3569 C 0.78517 0.16628 0.68373 0.0
C3570 C 0.78703 0.1495 0.6827 0.0
C3571 C 0.76742 0.16483 0.68807 0.0
C3572 C 0.75137 0.14665 0.69157 0.0
C3573 C 0.75312 0.12991 0.69028 0.0
C3574 C 0.77069 0.1313 0.68583 0.0
C3575 C 0.7342 0.14543 0.69845 0.0
C3576 C 0.73603 0.14826 0.71142 0.0
C3577 C 0.7161 0.14107 0.69256 0.0
C3578 C 0.71273 0.13723 0.67901 0.0
C3579 C 0.71128 0.12024 0.67376 0.0
C3580 C 0.70589 0.11554 0.66123 0.0
C3581 C 0.70174 0.12766 0.65388 0.0
C3582 C 0.70324 0.14464 0.65901 0.0
C3583 C 0.70868 0.14942 0.67153 0.0
H3584 H 0.69749 0.12396 0.64419 0.0
H3585 H 0.73139 0.1589 0.76812 0.0
H3586 H 0.88171 0.53358 0.75199 0.0
H3587 H 0.87154 0.55372 0.74044 0.0
H3588 H 0.89378 0.5425 0.70647 0.0
H3589 H 0.90485 0.52304 0.71806 0.0
H3590 H 0.90314 0.57966 0.70762 0.0
H3591 H 0.84399 0.51809 0.71288 0.0
H3592 H 0.81869 0.48958 0.72437 0.0
H3593 H 0.80442 0.52687 0.74583 0.0
H3594 H 0.82984 0.55566 0.73458 0.0
H3595 H 0.85166 0.61245 0.66803 0.0
H3596 H 0.86047 0.58995 0.67803 0.0
H3597 H 0.84893 0.60645 0.71408 0.0
H3598 H 0.84007 0.62888 0.70409 0.0
H3599 H 0.83334 0.56528 0.71065 0.0
H3600 H 0.89403 0.62698 0.70556 0.0
H3601 H 0.91854 0.65492 0.69329 0.0
H3602 H 0.92909 0.61618 0.67057 0.0
H3603 H 0.90434 0.58794 0.68257 0.0
C3604 C 0.88474 0.53563 0.7421 0.0
C3605 C 0.89402 0.52661 0.73594 0.0
C3606 C 0.87869 0.54697 0.73548 0.0
C3607 C 0.88156 0.54931 0.72255 0.0
C3608 C 0.89128 0.54076 0.71642 0.0
C3609 C 0.89744 0.52951 0.72305 0.0
C3610 C 0.87428 0.56057 0.71542 0.0
C3611 C 0.8878 0.57631 0.70813 0.0
C3612 C 0.85431 0.55635 0.7162 0.0
C3613 C 0.83895 0.53906 0.72296 0.0
C3614 C 0.83556 0.52023 0.72011 0.0
C3615 C 0.82118 0.50402 0.72657 0.0
C3616 C 0.80999 0.50641 0.73584 0.0
C3617 C 0.81312 0.52504 0.73865 0.0
C3618 C 0.8275 0.54131 0.73223 0.0
C3619 C 0.85059 0.61095 0.67803 0.0
C3620 C 0.84511 0.62229 0.68527 0.0
C3621 C 0.85579 0.59825 0.68374 0.0
C3622 C 0.8554 0.59664 0.69678 0.0
C3623 C 0.84929 0.60749 0.704 0.0
C3624 C 0.84438 0.62036 0.6983 0.0
C3625 C 0.86223 0.58436 0.70299 0.0
C3626 C 0.84862 0.56847 0.71009 0.0
C3627 C 0.88205 0.58834 0.70196 0.0
C3628 C 0.89717 0.60533 0.69487 0.0
C3629 C 0.90145 0.6244 0.69788 0.0
C3630 C 0.9154 0.64029 0.69098 0.0
C3631 C 0.92533 0.63732 0.68113 0.0
C3632 C 0.92136 0.61845 0.67819 0.0
C3633 C 0.90737 0.6025 0.68503 0.0
H3634 H 0.93612 0.64964 0.6758 0.0
H3635 H 0.79886 0.49384 0.74083 0.0
H3636 H 0.47247 0.91014 0.1797 0.0
H3637 H 0.4803 0.92311 0.1585 0.0
H3638 H 0.46285 0.96553 0.16791 0.0
H3639 H 0.45468 0.95239 0.18899 0.0
H3640 H 0.44834 0.95095 0.14614 0.0
H3641 H 0.51302 0.97701 0.16502 0.0
H3642 H 0.54017 0.97566 0.17615 0.0
H3643 H 0.54286 0.9397 0.14696 0.0
H3644 H 0.51552 0.94062 0.13574 0.0
H3645 H 0.49451 0.01972 0.0978 0.0
H3646 H 0.48482 0.00241 0.11761 0.0
H3647 H 0.49731 0.95878 0.10299 0.0
H3648 H 0.50733 0.97629 0.08309 0.0
H3649 H 0.51346 0.97146 0.12645 0.0
H3650 H 0.4498 0.94792 0.10693 0.0
H3651 H 0.42332 0.95069 0.09599 0.0
H3652 H 0.41954 0.98365 0.12673 0.0
H3653 H 0.4462 0.98131 0.13778 0.0
C3654 C 0.47046 0.92234 0.17727 0.0
C3655 C 0.46293 0.93021 0.18607 0.0
C3656 C 0.47497 0.92978 0.16513 0.0
C3657 C 0.47239 0.94549 0.16155 0.0
C3658 C 0.46492 0.95338 0.17035 0.0
C3659 C 0.46023 0.94583 0.18243 0.0
C3660 C 0.47714 0.9536 0.14863 0.0
C3661 C 0.46268 0.95562 0.14192 0.0
C3662 C 0.49564 0.95926 0.14288 0.0
C3663 C 0.51207 0.9587 0.14961 0.0
C3664 C 0.51929 0.96868 0.16103 0.0
C3665 C 0.53473 0.96802 0.16734 0.0
C3666 C 0.5432 0.95755 0.16228 0.0
C3667 C 0.53627 0.94777 0.15088 0.0
C3668 C 0.52081 0.94836 0.14453 0.0
C3669 C 0.49518 0.00643 0.09877 0.0
C3670 C 0.50176 0.99943 0.08885 0.0
C3671 C 0.48949 0.99645 0.1101 0.0
C3672 C 0.49019 0.97919 0.11181 0.0
C3673 C 0.4966 0.97204 0.10189 0.0
C3674 C 0.50217 0.98197 0.09049 0.0
C3675 C 0.48477 0.96905 0.12409 0.0
C3676 C 0.49908 0.96664 0.13066 0.0
C3677 C 0.46621 0.9632 0.12976 0.0
C3678 C 0.45012 0.96456 0.12314 0.0
C3679 C 0.44343 0.95588 0.11132 0.0
C3680 C 0.42837 0.95736 0.1051 0.0
C3681 C 0.41979 0.96738 0.11066 0.0
C3682 C 0.42621 0.9759 0.12244 0.0
C3683 C 0.44128 0.97449 0.12869 0.0
H3684 H 0.40814 0.96853 0.10585 0.0
H3685 H 0.55515 0.95706 0.16718 0.0
H3686 H 0.0341 0.50656 0.19103 0.0
H3687 H 0.02085 0.49862 0.16975 0.0
H3688 H 0.06454 0.55658 0.15799 0.0
H3689 H 0.07751 0.56468 0.17933 0.0
H3690 H 0.0304 0.54773 0.14845 0.0
H3691 H 0.06822 0.5155 0.15066 0.0
H3692 H 0.0797 0.49393 0.15927 0.0
H3693 H 0.021 0.44446 0.15488 0.0
H3694 H 0.00907 0.46579 0.14641 0.0
H3695 H 0.01301 0.52677 0.08378 0.0
H3696 H 0.02961 0.53392 0.10413 0.0
H3697 H 0.98083 0.48096 0.11879 0.0
H3698 H 0.96425 0.47356 0.09838 0.0
H3699 H 0.01895 0.48773 0.12621 0.0
H3700 H 0.98188 0.52229 0.12476 0.0
H3701 H 0.97245 0.5447 0.11494 0.0
H3702 H 0.03323 0.59111 0.11664 0.0
H3703 H 0.04303 0.56889 0.12638 0.0
C3704 C 0.04095 0.51753 0.18387 0.0
C3705 C 0.05682 0.53622 0.18681 0.0
C3706 C 0.03342 0.51298 0.17171 0.0
C3707 C 0.04186 0.52692 0.16222 0.0
C3708 C 0.05776 0.54559 0.16515 0.0
C3709 C 0.06514 0.55022 0.17733 0.0
C3710 C 0.03372 0.52223 0.14932 0.0
C3711 C 0.0282 0.53475 0.14355 0.0
C3712 C 0.03062 0.50519 0.14292 0.0
C3713 C 0.03771 0.49229 0.14802 0.0
C3714 C 0.05771 0.50005 0.15163 0.0
C3715 C 0.06431 0.48786 0.15647 0.0
C3716 C 0.05107 0.46784 0.15765 0.0
C3717 C 0.03122 0.45997 0.15398 0.0
C3718 C 0.02454 0.4721 0.14915 0.0
C3719 C 0.00592 0.51655 0.0913 0.0
C3720 C 0.98725 0.49971 0.08952 0.0
C3721 C 0.01538 0.52069 0.10292 0.0
C3722 C 0.00633 0.50804 0.11296 0.0
C3723 C 0.988 0.4909 0.11114 0.0
C3724 C 0.97847 0.48681 0.09953 0.0
C3725 C 0.01558 0.51313 0.12551 0.0
C3726 C 0.02127 0.50071 0.13117 0.0
C3727 C 0.01916 0.53041 0.13173 0.0
C3728 C 0.0132 0.54391 0.12622 0.0
C3729 C 0.99323 0.53726 0.12301 0.0
C3730 C 0.98782 0.54992 0.11746 0.0
C3731 C 0.00224 0.56931 0.11515 0.0
C3732 C 0.02208 0.57609 0.11844 0.0
C3733 C 0.02756 0.56348 0.12399 0.0
H3734 H 0.99803 0.57908 0.11083 0.0
H3735 H 0.05621 0.45843 0.1614 0.0
H3736 H 0.43929 0.52113 0.17973 0.0
H3737 H 0.44519 0.51271 0.15877 0.0
H3738 H 0.50807 0.54114 0.16672 0.0
H3739 H 0.50231 0.54923 0.18768 0.0
H3740 H 0.50019 0.55244 0.14432 0.0
H3741 H 0.48039 0.49217 0.1662 0.0
H3742 H 0.45791 0.46362 0.17881 0.0
H3743 H 0.41239 0.44561 0.15071 0.0
H3744 H 0.43453 0.47422 0.138 0.0
H3745 H 0.53939 0.51918 0.09748 0.0
H3746 H 0.52826 0.52583 0.11721 0.0
H3747 H 0.46752 0.49466 0.10404 0.0
H3748 H 0.47857 0.48764 0.08427 0.0
H3749 H 0.47099 0.48469 0.128 0.0
H3750 H 0.49089 0.54315 0.10542 0.0
H3751 H 0.51274 0.57168 0.0926 0.0
H3752 H 0.557 0.59332 0.12167 0.0
H3753 H 0.53552 0.56476 0.1346 0.0
C3754 C 0.45434 0.52535 0.17708 0.0
C3755 C 0.47034 0.53599 0.18539 0.0
C3756 C 0.45769 0.52058 0.16508 0.0
C3757 C 0.47709 0.52633 0.16117 0.0
C3758 C 0.493 0.53671 0.16949 0.0
C3759 C 0.48967 0.54139 0.18147 0.0
C3760 C 0.48103 0.52195 0.14835 0.0
C3761 C 0.49395 0.53762 0.14079 0.0
C3762 C 0.47234 0.50265 0.14359 0.0
C3763 C 0.45903 0.48546 0.15122 0.0
C3764 C 0.46553 0.48222 0.16276 0.0
C3765 C 0.45286 0.466 0.16992 0.0
C3766 C 0.43371 0.45284 0.16558 0.0
C3767 C 0.42721 0.45584 0.15406 0.0
C3768 C 0.43981 0.47204 0.14688 0.0
C3769 C 0.52364 0.51364 0.09879 0.0
C3770 C 0.50986 0.50287 0.0893 0.0
C3771 C 0.51731 0.51759 0.11004 0.0
C3772 C 0.49707 0.5109 0.11206 0.0
C3773 C 0.48322 0.50002 0.10266 0.0
C3774 C 0.48957 0.49614 0.09135 0.0
C3775 C 0.49052 0.51517 0.12409 0.0
C3776 C 0.47709 0.49952 0.13148 0.0
C3777 C 0.49864 0.5345 0.12869 0.0
C3778 C 0.51165 0.55171 0.12094 0.0
C3779 C 0.50535 0.5539 0.10904 0.0
C3780 C 0.51765 0.5701 0.10176 0.0
C3781 C 0.53626 0.58428 0.10631 0.0
C3782 C 0.54259 0.58231 0.11816 0.0
C3783 C 0.53034 0.56613 0.12547 0.0
H3784 H 0.54576 0.59682 0.10066 0.0
H3785 H 0.42392 0.44029 0.17114 0.0
H3786 H 0.96792 0.45514 0.82259 0.0
H3787 H 0.97989 0.46185 0.84412 0.0
H3788 H 0.9394 0.48284 0.8522 0.0
H3789 H 0.92726 0.47608 0.8306 0.0
H3790 H 0.97569 0.50659 0.86214 0.0
H3791 H 0.92918 0.43827 0.8621 0.0
H3792 H 0.91354 0.40413 0.8547 0.0
H3793 H 0.96784 0.40376 0.86172 0.0
H3794 H 0.98391 0.43801 0.86899 0.0
H3795 H 0.99376 0.5091 0.92758 0.0
H3796 H 0.97708 0.50132 0.90725 0.0
H3797 H 0.01405 0.47819 0.89483 0.0
H3798 H 0.03017 0.48512 0.91529 0.0
H3799 H 0.97634 0.45483 0.88784 0.0
H3800 H 0.02326 0.52433 0.88644 0.0
H3801 H 0.03836 0.5584 0.89394 0.0
H3802 H 0.9822 0.55615 0.88992 0.0
H3803 H 0.96672 0.52198 0.88253 0.0
C3804 C 0.96142 0.46102 0.82897 0.0
C3805 C 0.94653 0.46494 0.82491 0.0
C3806 C 0.9683 0.46487 0.84127 0.0
C3807 C 0.96032 0.47256 0.84981 0.0
C3808 C 0.94572 0.47685 0.84576 0.0
C3809 C 0.93885 0.47304 0.83342 0.0
C3810 C 0.96742 0.47622 0.86294 0.0
C3811 C 0.97553 0.4952 0.86784 0.0
C3812 C 0.96742 0.46141 0.87031 0.0
C3813 C 0.9578 0.44077 0.86599 0.0
C3814 C 0.93784 0.43096 0.86198 0.0
C3815 C 0.92889 0.41158 0.85782 0.0
C3816 C 0.9397 0.4018 0.85771 0.0
C3817 C 0.95948 0.41137 0.86179 0.0
C3818 C 0.96851 0.43076 0.86595 0.0
C3819 C 0.99819 0.50215 0.92058 0.0
C3820 C 0.01337 0.4978 0.92306 0.0
C3821 C 0.98878 0.4979 0.90892 0.0
C3822 C 0.9945 0.48941 0.89947 0.0
C3823 C 0.00945 0.48482 0.90197 0.0
C3824 C 0.01879 0.48897 0.91363 0.0
C3825 C 0.98502 0.48529 0.88694 0.0
C3826 C 0.97638 0.46619 0.88216 0.0
C3827 C 0.98445 0.49997 0.87971 0.0
C3828 C 0.9938 0.52055 0.88406 0.0
C3829 C 0.01411 0.53107 0.88724 0.0
C3830 C 0.02274 0.5504 0.89145 0.0
C3831 C 0.01124 0.55942 0.89244 0.0
C3832 C 0.99109 0.54914 0.88917 0.0
C3833 C 0.98238 0.5298 0.88495 0.0
H3834 H 0.01795 0.57438 0.8957 0.0
H3835 H 0.93275 0.38679 0.85449 0.0
H3836 H 0.5291 0.43763 0.83388 0.0
H3837 H 0.52341 0.44576 0.85488 0.0
H3838 H 0.54732 0.5059 0.84414 0.0
H3839 H 0.55309 0.49784 0.82304 0.0
H3840 H 0.55924 0.50293 0.86783 0.0
H3841 H 0.49787 0.47579 0.84466 0.0
H3842 H 0.47057 0.45125 0.83152 0.0
H3843 H 0.45585 0.40807 0.85991 0.0
H3844 H 0.48327 0.43231 0.87315 0.0
H3845 H 0.51165 0.53058 0.91413 0.0
H3846 H 0.52323 0.52339 0.89467 0.0
H3847 H 0.50258 0.46449 0.90701 0.0
H3848 H 0.49104 0.47163 0.92653 0.0
H3849 H 0.48971 0.46669 0.88292 0.0
H3850 H 0.55038 0.49376 0.90633 0.0
H3851 H 0.5774 0.51821 0.91966 0.0
H3852 H 0.59289 0.56149 0.89125 0.0
H3853 H 0.56588 0.53728 0.87775 0.0
C3854 C 0.53317 0.4526 0.83598 0.0
C3855 C 0.54129 0.46703 0.82673 0.0
C3856 C 0.52997 0.45724 0.848 0.0
C3857 C 0.53463 0.47637 0.85103 0.0
C3858 C 0.54357 0.49103 0.84201 0.0
C3859 C 0.54687 0.4864 0.82995 0.0
C3860 C 0.52915 0.48077 0.86339 0.0
C3861 C 0.54401 0.49517 0.87107 0.0
C3862 C 0.50933 0.47038 0.86775 0.0
C3863 C 0.49274 0.45582 0.85984 0.0
C3864 C 0.4889 0.46103 0.84806 0.0
C3865 C 0.4734 0.44718 0.8406 0.0
C3866 C 0.46152 0.4281 0.84486 0.0
C3867 C 0.46509 0.42285 0.85661 0.0
C3868 C 0.4806 0.43664 0.8641 0.0
C3869 C 0.50964 0.51612 0.9127 0.0
C3870 C 0.50038 0.50163 0.9218 0.0
C3871 C 0.51637 0.51208 0.90163 0.0
C3872 C 0.51382 0.49343 0.89943 0.0
C3873 C 0.50472 0.47898 0.90855 0.0
C3874 C 0.49823 0.48309 0.9197 0.0
C3875 C 0.51978 0.48878 0.88735 0.0
C3876 C 0.50496 0.47438 0.8797 0.0
C3877 C 0.53959 0.49918 0.88305 0.0
C3878 C 0.55598 0.51375 0.89107 0.0
C3879 C 0.55945 0.50853 0.90295 0.0
C3880 C 0.57479 0.52233 0.91054 0.0
C3881 C 0.58679 0.54142 0.90634 0.0
C3882 C 0.58356 0.5467 0.8945 0.0
C3883 C 0.56827 0.53293 0.88687 0.0
H3884 H 0.59862 0.5521 0.91224 0.0
H3885 H 0.44952 0.4174 0.83907 0.0
H3886 H 0.50406 0.05138 0.82018 0.0
H3887 H 0.49866 0.03865 0.84135 0.0
H3888 H 0.55918 0.08107 0.85114 0.0
H3889 H 0.56473 0.09385 0.82984 0.0
H3890 H 0.54952 0.04675 0.86115 0.0
H3891 H 0.51975 0.08686 0.86039 0.0
H3892 H 0.49828 0.0992 0.8524 0.0
H3893 H 0.44672 0.0427 0.85749 0.0
H3894 H 0.46791 0.02994 0.86535 0.0
H3895 H 0.52958 0.02377 0.92597 0.0
H3896 H 0.5387 0.04231 0.90648 0.0
H3897 H 0.48064 0.00267 0.89118 0.0
H3898 H 0.47128 0.98454 0.91068 0.0
H3899 H 0.49158 0.03927 0.88501 0.0
H3900 H 0.52224 0.99887 0.88418 0.0
H3901 H 0.54398 0.98691 0.89226 0.0
H3902 H 0.59434 0.04493 0.8905 0.0
H3903 H 0.57283 0.05727 0.88254 0.0
C3904 C 0.51622 0.05813 0.82684 0.0
C3905 C 0.53478 0.07381 0.8233 0.0
C3906 C 0.5131 0.05082 0.83898 0.0
C3907 C 0.52837 0.05912 0.84799 0.0
C3908 C 0.54711 0.07444 0.84441 0.0
C3909 C 0.55028 0.08171 0.83221 0.0
C3910 C 0.52466 0.05172 0.86108 0.0
C3911 C 0.53705 0.04544 0.86644 0.0
C3912 C 0.50827 0.04977 0.86802 0.0
C3913 C 0.49545 0.05741 0.86337 0.0
C3914 C 0.50384 0.07703 0.85973 0.0
C3915 C 0.49172 0.08411 0.85523 0.0
C3916 C 0.47115 0.07173 0.85442 0.0
C3917 C 0.46266 0.05227 0.85812 0.0
C3918 C 0.47471 0.04511 0.86261 0.0
C3919 C 0.51866 0.0192 0.91853 0.0
C3920 C 0.49974 0.00254 0.91988 0.0
C3921 C 0.52396 0.0297 0.90733 0.0
C3922 C 0.51048 0.02374 0.89723 0.0
C3923 C 0.49137 0.00755 0.89876 0.0
C3924 C 0.48609 0.99708 0.90991 0.0
C3925 C 0.51617 0.03392 0.88496 0.0
C3926 C 0.50416 0.04076 0.87976 0.0
C3927 C 0.53295 0.03646 0.87821 0.0
C3928 C 0.54589 0.02902 0.8829 0.0
C3929 C 0.53792 0.00909 0.8856 0.0
C3930 C 0.55021 0.00224 0.89014 0.0
C3931 C 0.57052 0.01516 0.89193 0.0
C3932 C 0.5786 0.03494 0.88913 0.0
C3933 C 0.56637 0.04187 0.8846 0.0
H3934 H 0.58001 0.00983 0.89545 0.0
H3935 H 0.46179 0.07723 0.85093 0.0
H3936 H 0.15993 0.27627 0.52128 0.0
H3937 H 0.16953 0.29073 0.50063 0.0
H3938 H 0.10836 0.25834 0.48841 0.0
H3939 H 0.09869 0.24317 0.50896 0.0
H3940 H 0.13245 0.25882 0.47027 0.0
H3941 H 0.12986 0.30666 0.49647 0.0
H3942 H 0.13746 0.32785 0.51501 0.0
H3943 H 0.19965 0.35674 0.50635 0.0
H3944 H 0.19244 0.33553 0.48784 0.0
H3945 H 0.14727 0.31863 0.41651 0.0
H3946 H 0.13578 0.30044 0.43602 0.0
H3947 H 0.19565 0.33144 0.45071 0.0
H3948 H 0.20716 0.34966 0.4313 0.0
H3949 H 0.17061 0.33111 0.4674 0.0
H3950 H 0.17273 0.28284 0.44089 0.0
H3951 H 0.16439 0.26249 0.42191 0.0
H3952 H 0.10236 0.23474 0.43079 0.0
H3953 H 0.11028 0.25525 0.44972 0.0
C3954 C 0.1485 0.27195 0.51418 0.0
C3955 C 0.12848 0.25856 0.51688 0.0
C3956 C 0.15401 0.28041 0.50237 0.0
C3957 C 0.13965 0.27589 0.49296 0.0
C3958 C 0.11973 0.26217 0.4955 0.0
C3959 C 0.11419 0.25365 0.50732 0.0
C3960 C 0.14542 0.2859 0.48064 0.0
C3961 C 0.14059 0.27463 0.46963 0.0
C3962 C 0.15624 0.30654 0.47974 0.0
C3963 C 0.16062 0.31938 0.49084 0.0
C3964 C 0.14517 0.31744 0.49857 0.0
C3965 C 0.14941 0.32947 0.50907 0.0
C3966 C 0.16903 0.3436 0.51188 0.0
C3967 C 0.18446 0.34577 0.50418 0.0
C3968 C 0.18031 0.33376 0.49367 0.0
C3969 C 0.15803 0.32138 0.42383 0.0
C3970 C 0.17813 0.33571 0.42234 0.0
C3971 C 0.15143 0.31097 0.43501 0.0
C3972 C 0.16484 0.31448 0.44488 0.0
C3973 C 0.18496 0.32852 0.4433 0.0
C3974 C 0.19152 0.33897 0.43218 0.0
C3975 C 0.15797 0.30408 0.45702 0.0
C3976 C 0.16251 0.3153 0.46801 0.0
C3977 C 0.14684 0.28343 0.45786 0.0
C3978 C 0.14209 0.27071 0.44668 0.0
C3979 C 0.1573 0.27247 0.43877 0.0
C3980 C 0.15265 0.2609 0.42802 0.0
C3981 C 0.13287 0.24732 0.42515 0.0
C3982 C 0.11768 0.24526 0.43303 0.0
C3983 C 0.12224 0.25686 0.44378 0.0
H3984 H 0.12931 0.23837 0.41682 0.0
H3985 H 0.17228 0.3529 0.52001 0.0
H3986 H 0.70706 0.83986 0.5241 0.0
H3987 H 0.6928 0.8312 0.50309 0.0
H3988 H 0.73399 0.88957 0.49069 0.0
H3989 H 0.7482 0.89835 0.51171 0.0
H3990 H 0.69773 0.87827 0.48223 0.0
H3991 H 0.7403 0.85061 0.4833 0.0
H3992 H 0.75386 0.8306 0.49168 0.0
H3993 H 0.69661 0.77895 0.48767 0.0
H3994 H 0.68263 0.79869 0.47943 0.0
H3995 H 0.68026 0.85858 0.41743 0.0
H3996 H 0.69651 0.86698 0.43791 0.0
H3997 H 0.65351 0.81005 0.45153 0.0
H3998 H 0.63747 0.80137 0.43098 0.0
H3999 H 0.69133 0.82084 0.45911 0.0
H4000 H 0.64884 0.84899 0.45844 0.0
H4001 H 0.63561 0.8692 0.44993 0.0
H4002 H 0.69347 0.92029 0.45299 0.0
H4003 H 0.7071 0.90032 0.46137 0.0
C4004 C 0.71318 0.85078 0.51686 0.0
C4005 C 0.72876 0.86977 0.51954 0.0
C4006 C 0.70504 0.84582 0.50486 0.0
C4007 C 0.71249 0.85967 0.49528 0.0
C4008 C 0.728 0.87866 0.49794 0.0
C4009 C 0.73606 0.88367 0.50996 0.0
C4010 C 0.70384 0.8545 0.48253 0.0
C4011 C 0.69661 0.86588 0.4771 0.0
C4012 C 0.702 0.83809 0.47595 0.0
C4013 C 0.71038 0.82616 0.48086 0.0
C4014 C 0.73056 0.835 0.48429 0.0
C4015 C 0.73833 0.82371 0.489 0.0
C4016 C 0.72609 0.80352 0.49023 0.0
C4017 C 0.70607 0.79459 0.48672 0.0
C4018 C 0.69822 0.80582 0.48202 0.0
C4019 C 0.6744 0.84778 0.42474 0.0
C4020 C 0.65753 0.82934 0.42261 0.0
C4021 C 0.6836 0.85265 0.43646 0.0
C4022 C 0.67607 0.83921 0.44626 0.0
C4023 C 0.65951 0.82065 0.4441 0.0
C4024 C 0.65027 0.81578 0.43239 0.0
C4025 C 0.68525 0.84461 0.45885 0.0
C4026 C 0.69254 0.83326 0.46424 0.0
C4027 C 0.68722 0.86108 0.46538 0.0
C4028 C 0.67903 0.87313 0.46042 0.0
C4029 C 0.65877 0.86451 0.45721 0.0
C4030 C 0.6512 0.87592 0.45242 0.0
C4031 C 0.6637 0.89601 0.45089 0.0
C4032 C 0.6838 0.90473 0.45417 0.0
C4033 C 0.69146 0.89337 0.45895 0.0
H4034 H 0.65781 0.90482 0.44718 0.0
H4035 H 0.73213 0.7948 0.49388 0.0
H4036 H 0.11891 0.83675 0.52278 0.0
H4037 H 0.12475 0.8281 0.5019 0.0
H4038 H 0.14061 0.88563 0.4889 0.0
H4039 H 0.13446 0.89427 0.5097 0.0
H4040 H 0.11768 0.85664 0.47159 0.0
H4041 H 0.17633 0.87624 0.49695 0.0
H4042 H 0.19474 0.87484 0.51534 0.0
H4043 H 0.17603 0.81485 0.50704 0.0
H4044 H 0.15725 0.81583 0.48868 0.0
H4045 H 0.17449 0.86364 0.41793 0.0
H4046 H 0.1618 0.86824 0.43774 0.0
H4047 H 0.15305 0.8128 0.45054 0.0
H4048 H 0.1661 0.80834 0.43085 0.0
H4049 H 0.17049 0.83904 0.46798 0.0
H4050 H 0.11453 0.82024 0.44121 0.0
H4051 H 0.09725 0.8221 0.42239 0.0
H4052 H 0.1098 0.87958 0.43313 0.0
H4053 H 0.12791 0.87844 0.45176 0.0
C4054 C 0.12332 0.84745 0.51543 0.0
C4055 C 0.12638 0.86626 0.51793 0.0
C4056 C 0.12676 0.84253 0.50352 0.0
C4057 C 0.13332 0.8563 0.49387 0.0
C4058 C 0.1356 0.8748 0.4962 0.0
C4059 C 0.13225 0.87976 0.50812 0.0
C4060 C 0.13896 0.85186 0.48158 0.0
C4061 C 0.12932 0.85293 0.47075 0.0
C4062 C 0.15386 0.84662 0.48054 0.0
C4063 C 0.16521 0.84605 0.49153 0.0
C4064 C 0.17601 0.86271 0.49911 0.0
C4065 C 0.18653 0.862 0.50951 0.0
C4066 C 0.18651 0.84476 0.51238 0.0
C4067 C 0.176 0.82819 0.50482 0.0
C4068 C 0.16543 0.82882 0.49441 0.0
C4069 C 0.16962 0.85233 0.42492 0.0
C4070 C 0.17131 0.83564 0.42285 0.0
C4071 C 0.16234 0.85496 0.43624 0.0
C4072 C 0.15627 0.84078 0.44562 0.0
C4073 C 0.15768 0.82397 0.44347 0.0
C4074 C 0.16515 0.82144 0.43222 0.0
C4075 C 0.14924 0.84381 0.45788 0.0
C4076 C 0.15868 0.84254 0.46874 0.0
C4077 C 0.1341 0.84878 0.45891 0.0
C4078 C 0.12278 0.84932 0.44785 0.0
C4079 C 0.11377 0.83336 0.43952 0.0
C4080 C 0.10383 0.83429 0.42887 0.0
C4081 C 0.10239 0.85093 0.42658 0.0
C4082 C 0.11094 0.8667 0.43492 0.0
C4083 C 0.1211 0.86595 0.44551 0.0
H4084 H 0.09465 0.85159 0.41834 0.0
H4085 H 0.19467 0.84424 0.52044 0.0
H4086 H 0.63031 0.82064 0.15447 0.0
H4087 H 0.64417 0.82847 0.17571 0.0
H4088 H 0.59192 0.77774 0.18956 0.0
H4089 H 0.57821 0.76955 0.16826 0.0
H4090 H 0.60845 0.81855 0.20294 0.0
H4091 H 0.62431 0.76947 0.18878 0.0
H4092 H 0.63772 0.75558 0.17362 0.0
H4093 H 0.69493 0.80764 0.17601 0.0
H4094 H 0.68175 0.82197 0.19105 0.0
H4095 H 0.64844 0.82852 0.26337 0.0
H4096 H 0.63078 0.81467 0.24402 0.0
H4097 H 0.68645 0.84041 0.22431 0.0
H4098 H 0.70441 0.85165 0.24385 0.0
H4099 H 0.66524 0.80923 0.21405 0.0
H4100 H 0.65098 0.86004 0.22656 0.0
H4101 H 0.63877 0.87638 0.24071 0.0
H4102 H 0.58076 0.8252 0.24045 0.0
H4103 H 0.59267 0.8085 0.22638 0.0
C4104 C 0.62178 0.81125 0.16207 0.0
C4105 C 0.60326 0.7945 0.1598 0.0
C4106 C 0.62969 0.81569 0.17414 0.0
C4107 C 0.61902 0.80364 0.18412 0.0
C4108 C 0.6003 0.78717 0.18194 0.0
C4109 C 0.59257 0.78249 0.16982 0.0
C4110 C 0.62777 0.80808 0.19677 0.0
C4111 C 0.62071 0.81633 0.2055 0.0
C4112 C 0.644 0.80554 0.19988 0.0
C4113 C 0.65199 0.79687 0.19093 0.0
C4114 C 0.6397 0.77803 0.18598 0.0
C4115 C 0.64727 0.77006 0.17743 0.0
C4116 C 0.66716 0.78074 0.17383 0.0
C4117 C 0.67953 0.79939 0.1788 0.0
C4118 C 0.67201 0.80744 0.18734 0.0
C4119 C 0.65714 0.83082 0.25506 0.0
C4120 C 0.67811 0.84153 0.25539 0.0
C4121 C 0.64685 0.82323 0.24384 0.0
C4122 C 0.65714 0.82704 0.23254 0.0
C4123 C 0.67802 0.83737 0.23284 0.0
C4124 C 0.68835 0.8442 0.24411 0.0
C4125 C 0.64638 0.82035 0.22038 0.0
C4126 C 0.65299 0.81154 0.21165 0.0
C4127 C 0.62998 0.82282 0.21719 0.0
C4128 C 0.62277 0.83297 0.22552 0.0
C4129 C 0.63565 0.85225 0.22956 0.0
C4130 C 0.62877 0.86158 0.23757 0.0
C4131 C 0.60902 0.85182 0.24151 0.0
C4132 C 0.59606 0.83274 0.2374 0.0
C4133 C 0.60286 0.82335 0.22941 0.0
H4134 H 0.60373 0.85904 0.24772 0.0
H4135 H 0.67299 0.77454 0.16721 0.0
H4136 H 0.23436 0.81416 0.16372 0.0
H4137 H 0.22919 0.82299 0.18476 0.0
H4138 H 0.16765 0.80245 0.1757 0.0
H4139 H 0.17281 0.7941 0.15465 0.0
H4140 H 0.18387 0.83672 0.18794 0.0
H4141 H 0.18167 0.77494 0.19291 0.0
H4142 H 0.19477 0.7523 0.1914 0.0
H4143 H 0.24447 0.79047 0.21469 0.0
H4144 H 0.23179 0.81348 0.2162 0.0
H4145 H 0.13681 0.82176 0.24559 0.0
H4146 H 0.1479 0.81627 0.22552 0.0
H4147 H 0.20766 0.84101 0.23997 0.0
H4148 H 0.19669 0.84683 0.26014 0.0
H4149 H 0.19633 0.80776 0.22548 0.0
H4150 H 0.1971 0.8683 0.22182 0.0
H4151 H 0.18366 0.89064 0.22355 0.0
H4152 H 0.13672 0.85486 0.19781 0.0
H4153 H 0.14971 0.83213 0.19607 0.0
C4154 C 0.21978 0.81171 0.16619 0.0
C4155 C 0.20396 0.8033 0.15753 0.0
C4156 C 0.21681 0.81661 0.17824 0.0
C4157 C 0.19797 0.81318 0.18186 0.0
C4158 C 0.18229 0.80517 0.17315 0.0
C4159 C 0.18523 0.80025 0.16114 0.0
C4160 C 0.19436 0.81782 0.19469 0.0
C4161 C 0.18646 0.83026 0.19613 0.0
C4162 C 0.19829 0.80987 0.20543 0.0
C4163 C 0.20591 0.79604 0.20454 0.0
C4164 C 0.19548 0.77858 0.19762 0.0
C4165 C 0.20281 0.76567 0.19678 0.0
C4166 C 0.22048 0.76997 0.20291 0.0
C4167 C 0.23082 0.78718 0.20992 0.0
C4168 C 0.22356 0.80016 0.21078 0.0
C4169 C 0.15234 0.82614 0.24451 0.0
C4170 C 0.16591 0.83499 0.25444 0.0
C4171 C 0.15865 0.82293 0.23303 0.0
C4172 C 0.17867 0.82853 0.23118 0.0
C4173 C 0.19215 0.83664 0.24119 0.0
C4174 C 0.18584 0.8399 0.25272 0.0
C4175 C 0.18541 0.82628 0.21866 0.0
C4176 C 0.19394 0.81436 0.21729 0.0
C4177 C 0.18208 0.83471 0.20796 0.0
C4178 C 0.1743 0.84843 0.20889 0.0
C4179 C 0.18383 0.86512 0.2166 0.0
C4180 C 0.17631 0.87786 0.21757 0.0
C4181 C 0.15933 0.87415 0.21081 0.0
C4182 C 0.14987 0.85771 0.20304 0.0
C4183 C 0.15731 0.8449 0.20205 0.0
H4184 H 0.15352 0.88404 0.21158 0.0
H4185 H 0.22613 0.75995 0.20225 0.0
H4186 H 0.22946 0.42601 0.164 0.0
H4187 H 0.22387 0.41253 0.18508 0.0
H4188 H 0.16245 0.37264 0.17571 0.0
H4189 H 0.16793 0.38589 0.15467 0.0
H4190 H 0.1652 0.38927 0.19788 0.0
H4191 H 0.19729 0.35768 0.17788 0.0
H4192 H 0.22405 0.35648 0.16634 0.0
H4193 H 0.26567 0.38935 0.19554 0.0
H4194 H 0.23919 0.39096 0.20717 0.0
H4195 H 0.13478 0.31883 0.2454 0.0
H4196 H 0.14417 0.33663 0.22579 0.0
H4197 H 0.20369 0.37359 0.23994 0.0
H4198 H 0.19446 0.35545 0.25957 0.0
H4199 H 0.20429 0.36149 0.21636 0.0
H4200 H 0.17176 0.39111 0.23709 0.0
H4201 H 0.14501 0.39226 0.24869 0.0
H4202 H 0.10444 0.36346 0.21825 0.0
H4203 H 0.13086 0.36187 0.20654 0.0
C4204 C 0.21481 0.41421 0.16637 0.0
C4205 C 0.19915 0.40712 0.15759 0.0
C4206 C 0.21162 0.40654 0.17846 0.0
C4207 C 0.19273 0.39147 0.18202 0.0
C4208 C 0.17712 0.38433 0.17325 0.0
C4209 C 0.18029 0.39198 0.1612 0.0
C4210 C 0.18901 0.38323 0.19488 0.0
C4211 C 0.17363 0.38302 0.20185 0.0
C4212 C 0.20039 0.37562 0.2003 0.0
C4213 C 0.21631 0.37463 0.19333 0.0
C4214 C 0.21218 0.36479 0.18179 0.0
C4215 C 0.22729 0.36401 0.17524 0.0
C4216 C 0.24656 0.37288 0.18019 0.0
C4217 C 0.25075 0.38251 0.19171 0.0
C4218 C 0.23569 0.38335 0.19829 0.0
C4219 C 0.1499 0.3307 0.24436 0.0
C4220 C 0.16388 0.33561 0.25409 0.0
C4221 C 0.15521 0.34101 0.23315 0.0
C4222 C 0.17461 0.3566 0.23137 0.0
C4223 C 0.18861 0.36165 0.24108 0.0
C4224 C 0.18328 0.35136 0.25235 0.0
C4225 C 0.18023 0.3672 0.21925 0.0
C4226 C 0.19597 0.36788 0.21242 0.0
C4227 C 0.1692 0.37528 0.21396 0.0
C4228 C 0.15327 0.37623 0.22097 0.0
C4229 C 0.1571 0.38488 0.23291 0.0
C4230 C 0.142 0.38564 0.2395 0.0
C4231 C 0.12304 0.3779 0.23422 0.0
C4232 C 0.11914 0.36943 0.22233 0.0
C4233 C 0.13417 0.36862 0.21571 0.0
H4234 H 0.11137 0.37849 0.23932 0.0
H4235 H 0.25824 0.37226 0.1751 0.0
H4236 H 0.7614 0.57508 0.84442 0.0
H4237 H 0.77042 0.58938 0.82366 0.0
H4238 H 0.83181 0.62309 0.83529 0.0
H4239 H 0.82279 0.60953 0.85621 0.0
H4240 H 0.82184 0.64534 0.82268 0.0
H4241 H 0.81367 0.58147 0.81611 0.0
H4242 H 0.79593 0.54545 0.81656 0.0
H4243 H 0.75018 0.54322 0.79277 0.0
H4244 H 0.76752 0.57924 0.79232 0.0
H4245 H 0.86764 0.6769 0.76446 0.0
H4246 H 0.85652 0.65975 0.78423 0.0
H4247 H 0.796 0.62978 0.77066 0.0
H4248 H 0.80709 0.64695 0.75073 0.0
H4249 H 0.80399 0.60534 0.78396 0.0
H4250 H 0.81232 0.66904 0.79024 0.0
H4251 H 0.83009 0.70504 0.78962 0.0
H4252 H 0.87536 0.70752 0.81398 0.0
H4253 H 0.858 0.6715 0.8146 0.0
C4254 C 0.77681 0.58564 0.84262 0.0
C4255 C 0.79134 0.5911 0.85207 0.0
C4256 C 0.782 0.59365 0.83066 0.0
C4257 C 0.80187 0.60718 0.8278 0.0
C4258 C 0.81639 0.61264 0.83721 0.0
C4259 C 0.81122 0.6047 0.84917 0.0
C4260 C 0.80752 0.61608 0.81515 0.0
C4261 C 0.81815 0.63654 0.81424 0.0
C4262 C 0.80222 0.60471 0.80405 0.0
C4263 C 0.79179 0.58305 0.80429 0.0
C4264 C 0.79974 0.5733 0.81106 0.0
C4265 C 0.78977 0.55288 0.8113 0.0
C4266 C 0.77191 0.54206 0.80473 0.0
C4267 C 0.76401 0.55162 0.79787 0.0
C4268 C 0.77391 0.57204 0.79761 0.0
C4269 C 0.85194 0.66669 0.76566 0.0
C4270 C 0.83823 0.66353 0.75604 0.0
C4271 C 0.8456 0.65687 0.77699 0.0
C4272 C 0.82535 0.64374 0.77907 0.0
C4273 C 0.81169 0.6399 0.76932 0.0
C4274 C 0.81806 0.6497 0.75791 0.0
C4275 C 0.81853 0.63454 0.79155 0.0
C4276 C 0.80764 0.61409 0.79241 0.0
C4277 C 0.82356 0.6459 0.80264 0.0
C4278 C 0.83394 0.66757 0.80238 0.0
C4279 C 0.82613 0.67726 0.7954 0.0
C4280 C 0.83612 0.69767 0.79506 0.0
C4281 C 0.85386 0.70856 0.80174 0.0
C4282 C 0.86162 0.69906 0.8088 0.0
C4283 C 0.85171 0.67865 0.80916 0.0
H4284 H 0.86158 0.72436 0.80146 0.0
H4285 H 0.76421 0.52625 0.80492 0.0
H4286 H 0.36544 0.20914 0.85719 0.0
H4287 H 0.35199 0.20217 0.83596 0.0
H4288 H 0.39599 0.18684 0.8253 0.0
H4289 H 0.40974 0.19408 0.84655 0.0
H4290 H 0.39225 0.21139 0.80834 0.0
H4291 H 0.34983 0.15149 0.82949 0.0
H4292 H 0.32753 0.131 0.84618 0.0
H4293 H 0.28645 0.15064 0.83725 0.0
H4294 H 0.30865 0.17149 0.82061 0.0
H4295 H 0.34435 0.16358 0.75095 0.0
H4296 H 0.36054 0.17236 0.7714 0.0
H4297 H 0.3177 0.18807 0.784 0.0
H4298 H 0.3018 0.18002 0.76345 0.0
H4299 H 0.32147 0.16275 0.79986 0.0
H4300 H 0.36331 0.22289 0.77926 0.0
H4301 H 0.38621 0.24569 0.76362 0.0
H4302 H 0.4283 0.22702 0.77176 0.0
H4303 H 0.40551 0.20385 0.78733 0.0
C4304 C 0.37231 0.20437 0.85031 0.0
C4305 C 0.38865 0.20216 0.85351 0.0
C4306 C 0.36453 0.20027 0.83822 0.0
C4307 C 0.37291 0.19386 0.8291 0.0
C4308 C 0.38929 0.19173 0.83223 0.0
C4309 C 0.39703 0.19573 0.84437 0.0
C4310 C 0.36462 0.18959 0.81628 0.0
C4311 C 0.37687 0.2005 0.80641 0.0
C4312 C 0.34442 0.17578 0.8139 0.0
C4313 C 0.331 0.16319 0.82387 0.0
C4314 C 0.33612 0.15157 0.83115 0.0
C4315 C 0.32348 0.13986 0.84059 0.0
C4316 C 0.30561 0.13955 0.84279 0.0
C4317 C 0.30031 0.15091 0.83554 0.0
C4318 C 0.3129 0.16266 0.82609 0.0
C4319 C 0.33859 0.1693 0.75796 0.0
C4320 C 0.32168 0.171 0.75554 0.0
C4321 C 0.34784 0.17423 0.76967 0.0
C4322 C 0.34031 0.18086 0.77919 0.0
C4323 C 0.32367 0.18288 0.77677 0.0
C4324 C 0.31452 0.17814 0.76504 0.0
C4325 C 0.34907 0.18462 0.79188 0.0
C4326 C 0.33689 0.17355 0.80173 0.0
C4327 C 0.36931 0.19835 0.79423 0.0
C4328 C 0.3826 0.21148 0.78439 0.0
C4329 C 0.37731 0.22341 0.77759 0.0
C4330 C 0.39032 0.23648 0.76878 0.0
C4331 C 0.40874 0.23787 0.76676 0.0
C4332 C 0.41406 0.22598 0.77339 0.0
C4333 C 0.4011 0.21287 0.7822 0.0
H4334 H 0.41889 0.2482 0.76006 0.0
H4335 H 0.29584 0.13048 0.85011 0.0
H4336 H 0.7656 0.18992 0.84526 0.0
H4337 H 0.77124 0.18224 0.82402 0.0
H4338 H 0.83409 0.20957 0.83179 0.0
H4339 H 0.8286 0.21686 0.85301 0.0
H4340 H 0.82621 0.22186 0.80964 0.0
H4341 H 0.80583 0.16082 0.83096 0.0
H4342 H 0.78295 0.13201 0.84324 0.0
H4343 H 0.7379 0.11521 0.81493 0.0
H4344 H 0.76044 0.1441 0.80256 0.0
H4345 H 0.86799 0.189 0.76462 0.0
H4346 H 0.85532 0.19569 0.78368 0.0
H4347 H 0.79571 0.16476 0.76859 0.0
H4348 H 0.80833 0.15772 0.74946 0.0
H4349 H 0.79741 0.1544 0.79286 0.0
H4350 H 0.81847 0.21306 0.77045 0.0
H4351 H 0.84089 0.24177 0.75794 0.0
H4352 H 0.88367 0.26324 0.78787 0.0
H4353 H 0.86163 0.23451 0.8005 0.0
C4354 C 0.78059 0.19409 0.8425 0.0
C4355 C 0.79666 0.20417 0.85085 0.0
C4356 C 0.78379 0.18975 0.83033 0.0
C4357 C 0.8031 0.19539 0.82631 0.0
C4358 C 0.81909 0.20526 0.83465 0.0
C4359 C 0.81591 0.20949 0.84678 0.0
C4360 C 0.80693 0.1913 0.8134 0.0
C4361 C 0.82001 0.2071 0.806 0.0
C4362 C 0.79827 0.17209 0.80848 0.0
C4363 C 0.78473 0.15475 0.81591 0.0
C4364 C 0.79098 0.15109 0.82741 0.0
C4365 C 0.77809 0.13472 0.83438 0.0
C4366 C 0.75896 0.12182 0.82989 0.0
C4367 C 0.7527 0.12524 0.81841 0.0
C4368 C 0.76553 0.1416 0.81142 0.0
C4369 C 0.85217 0.18355 0.76536 0.0
C4370 C 0.83916 0.17279 0.75555 0.0
C4371 C 0.84497 0.18753 0.77622 0.0
C4372 C 0.82459 0.18088 0.77753 0.0
C4373 C 0.8115 0.17008 0.76777 0.0
C4374 C 0.81874 0.16619 0.75682 0.0
C4375 C 0.81715 0.18495 0.78925 0.0
C4376 C 0.80339 0.16918 0.79642 0.0
C4377 C 0.82508 0.20421 0.79395 0.0
C4378 C 0.83844 0.22154 0.78639 0.0
C4379 C 0.83273 0.22382 0.77433 0.0
C4380 C 0.84536 0.24012 0.76722 0.0
C4381 C 0.86371 0.2543 0.7721 0.0
C4382 C 0.86945 0.25223 0.7841 0.0
C4383 C 0.85688 0.23595 0.79125 0.0
H4384 H 0.87346 0.26691 0.76658 0.0
H4385 H 0.749 0.10915 0.83529 0.0
H4386 H 0.29937 0.12463 0.48847 0.0
H4387 H 0.31211 0.13141 0.50984 0.0
H4388 H 0.26491 0.14224 0.52045 0.0
H4389 H 0.25219 0.13564 0.49897 0.0
H4390 H 0.2992 0.16906 0.53043 0.0
H4391 H 0.26342 0.09948 0.52829 0.0
H4392 H 0.25349 0.06692 0.51958 0.0
H4393 H 0.31303 0.07765 0.52458 0.0
H4394 H 0.32339 0.11041 0.53317 0.0
H4395 H 0.32223 0.17161 0.59484 0.0
H4396 H 0.30444 0.16214 0.57494 0.0
H4397 H 0.34819 0.14914 0.56021 0.0
H4398 H 0.36536 0.15736 0.58033 0.0
H4399 H 0.31235 0.12206 0.55315 0.0
H4400 H 0.34818 0.19311 0.55373 0.0
H4401 H 0.3573 0.22535 0.56271 0.0
H4402 H 0.29618 0.21095 0.56113 0.0
H4403 H 0.28669 0.17857 0.55223 0.0
C4404 C 0.29161 0.1283 0.49538 0.0
C4405 C 0.2747 0.12945 0.49208 0.0
C4406 C 0.2989 0.13217 0.50759 0.0
C4407 C 0.28926 0.137 0.5168 0.0
C4408 C 0.27254 0.13847 0.5135 0.0
C4409 C 0.26532 0.13474 0.50124 0.0
C4410 C 0.29686 0.14072 0.52982 0.0
C4411 C 0.30178 0.15865 0.53547 0.0
C4412 C 0.30041 0.12723 0.53637 0.0
C4413 C 0.29421 0.10747 0.53129 0.0
C4414 C 0.27443 0.09496 0.52746 0.0
C4415 C 0.26872 0.07646 0.52255 0.0
C4416 C 0.28263 0.07024 0.5215 0.0
C4417 C 0.30227 0.08249 0.52539 0.0
C4418 C 0.30807 0.10102 0.53029 0.0
C4419 C 0.32792 0.16643 0.58745 0.0
C4420 C 0.34532 0.16533 0.58921 0.0
C4421 C 0.31785 0.16127 0.57601 0.0
C4422 C 0.32517 0.15527 0.566 0.0
C4423 C 0.34232 0.15384 0.56778 0.0
C4424 C 0.35226 0.15877 0.57926 0.0
C4425 C 0.31513 0.15058 0.55363 0.0
C4426 C 0.30967 0.13242 0.54812 0.0
C4427 C 0.31097 0.16381 0.54726 0.0
C4428 C 0.31672 0.18339 0.55241 0.0
C4429 C 0.33669 0.19681 0.55534 0.0
C4430 C 0.34192 0.2151 0.56041 0.0
C4431 C 0.32732 0.22018 0.56251 0.0
C4432 C 0.30747 0.207 0.5595 0.0
C4433 C 0.30216 0.18869 0.55442 0.0
H4434 H 0.33139 0.23434 0.56645 0.0
H4435 H 0.27818 0.05591 0.5177 0.0
H4436 H 0.90353 0.15078 0.49652 0.0
H4437 H 0.89755 0.15923 0.51747 0.0
H4438 H 0.83535 0.13466 0.50844 0.0
H4439 H 0.84128 0.12664 0.48748 0.0
H4440 H 0.84953 0.16899 0.52055 0.0
H4441 H 0.85201 0.10954 0.52585 0.0
H4442 H 0.86738 0.08882 0.52443 0.0
H4443 H 0.91607 0.12951 0.54749 0.0
H4444 H 0.9011 0.15062 0.5489 0.0
H4445 H 0.80261 0.15262 0.5784 0.0
H4446 H 0.81417 0.14798 0.55826 0.0
H4447 H 0.87411 0.17467 0.57267 0.0
H4448 H 0.86263 0.1795 0.59294 0.0
H4449 H 0.8648 0.14249 0.55823 0.0
H4450 H 0.8611 0.2007 0.55428 0.0
H4451 H 0.84563 0.22131 0.55587 0.0
H4452 H 0.79959 0.18333 0.53027 0.0
H4453 H 0.81463 0.16232 0.52867 0.0
C4454 C 0.88862 0.14736 0.49897 0.0
C4455 C 0.87285 0.1379 0.49036 0.0
C4456 C 0.8852 0.15205 0.51098 0.0
C4457 C 0.86595 0.14738 0.51458 0.0
C4458 C 0.85031 0.13835 0.5059 0.0
C4459 C 0.8537 0.13362 0.49394 0.0
C4460 C 0.86188 0.15169 0.5274 0.0
C4461 C 0.85273 0.16306 0.52877 0.0
C4462 C 0.86659 0.14446 0.53818 0.0
C4463 C 0.87556 0.13176 0.53736 0.0
C4464 C 0.86608 0.11415 0.53053 0.0
C4465 C 0.8747 0.10232 0.52974 0.0
C4466 C 0.89272 0.10788 0.53583 0.0
C4467 C 0.90213 0.12525 0.54275 0.0
C4468 C 0.89358 0.13714 0.54356 0.0
C4469 C 0.81828 0.15761 0.57729 0.0
C4470 C 0.83173 0.16667 0.58725 0.0
C4471 C 0.82486 0.15491 0.56577 0.0
C4472 C 0.84507 0.1613 0.56387 0.0
C4473 C 0.85847 0.1697 0.5739 0.0
C4474 C 0.85187 0.1724 0.58549 0.0
C4475 C 0.85206 0.15942 0.55133 0.0
C4476 C 0.86178 0.14857 0.55001 0.0
C4477 C 0.84793 0.16716 0.54058 0.0
C4478 C 0.83891 0.17985 0.54144 0.0
C4479 C 0.8476 0.19667 0.54906 0.0
C4480 C 0.83892 0.20843 0.54995 0.0
C4481 C 0.82162 0.20361 0.54319 0.0
C4482 C 0.81299 0.18704 0.53551 0.0
C4483 C 0.8216 0.17521 0.53459 0.0
H4484 H 0.81492 0.21274 0.5439 0.0
H4485 H 0.89938 0.0987 0.53521 0.0
H4486 H 0.85873 0.7617 0.49947 0.0
H4487 H 0.85312 0.74751 0.5203 0.0
H4488 H 0.87591 0.71032 0.50837 0.0
H4489 H 0.88109 0.7241 0.48742 0.0
H4490 H 0.84181 0.68997 0.52101 0.0
H4491 H 0.90324 0.75015 0.52735 0.0
H4492 H 0.92554 0.78585 0.52683 0.0
H4493 H 0.88628 0.79384 0.55107 0.0
H4494 H 0.86359 0.75818 0.55159 0.0
H4495 H 0.84744 0.65263 0.57905 0.0
H4496 H 0.85719 0.6707 0.55951 0.0
H4497 H 0.8364 0.70875 0.57311 0.0
H4498 H 0.827 0.69088 0.59288 0.0
H4499 H 0.86926 0.72918 0.55976 0.0
H4500 H 0.80763 0.66975 0.55329 0.0
H4501 H 0.78466 0.63416 0.55385 0.0
H4502 H 0.82323 0.62496 0.52971 0.0
H4503 H 0.84658 0.6605 0.52915 0.0
C4504 C 0.8625 0.75046 0.50125 0.0
C4505 C 0.87035 0.74404 0.49172 0.0
C4506 C 0.85946 0.74249 0.51323 0.0
C4507 C 0.86425 0.72794 0.51598 0.0
C4508 C 0.87215 0.72156 0.5065 0.0
C4509 C 0.87525 0.72957 0.49454 0.0
C4510 C 0.86036 0.71887 0.52858 0.0
C4511 C 0.84807 0.69854 0.52946 0.0
C4512 C 0.86797 0.73006 0.53968 0.0
C4513 C 0.88162 0.7515 0.53941 0.0
C4514 C 0.89928 0.75952 0.53249 0.0
C4515 C 0.912 0.77975 0.53221 0.0
C4516 C 0.9073 0.79211 0.53889 0.0
C4517 C 0.88989 0.78425 0.54589 0.0
C4518 C 0.8771 0.76403 0.54618 0.0
C4519 C 0.84502 0.66491 0.5779 0.0
C4520 C 0.83613 0.67012 0.58743 0.0
C4521 C 0.85058 0.67522 0.56671 0.0
C4522 C 0.84705 0.69079 0.56465 0.0
C4523 C 0.83914 0.6967 0.57441 0.0
C4524 C 0.83377 0.68649 0.58571 0.0
C4525 C 0.85088 0.70025 0.55216 0.0
C4526 C 0.86305 0.72063 0.55131 0.0
C4527 C 0.84304 0.68914 0.54106 0.0
C4528 C 0.82893 0.66777 0.54127 0.0
C4529 C 0.81127 0.66013 0.54817 0.0
C4530 C 0.79818 0.63997 0.54848 0.0
C4531 C 0.80251 0.62731 0.54184 0.0
C4532 C 0.81991 0.63479 0.53485 0.0
C4533 C 0.83307 0.65494 0.53453 0.0
H4534 H 0.79236 0.6117 0.54209 0.0
H4535 H 0.91717 0.80777 0.53866 0.0
loop_
_geom_bond_atom_site_label_1
_geom_bond_atom_site_label_2
_geom_bond_distance
_geom_bond_site_symmetry_2
_ccdc_geom_bond_type
C0 C1 1.391 . S
C0 C4 1.391 . S
C0 H42 0.948 . S
C1 C0 1.391 . S
C1 C2 1.391 . S
C2 C1 1.391 . S
C2 H58 0.947 . S
C2 C59 1.392 . S
C3 C4 1.391 . S
C3 C7 1.397 . S
C3 C59 1.419 . S
C4 C0 1.391 . S
C4 C3 1.391 . S
C4 C5 1.399 . S
C5 C4 1.399 . S
C5 C8 1.396 . S
C5 C17 1.453 . S
C5 C18 1.684 . S
H6 C30 0.948 . S
C7 C3 1.397 . S
C7 C8 1.394 . S
C7 C26 1.723 . S
C8 C5 1.396 . S
C8 C7 1.394 . S
C8 C38 1.723 . S
H9 C32 0.947 . S
H10 C33 0.948 . S
H11 C39 0.982 . S
H12 C40 0.979 . S
H13 C40 0.980 . S
H14 C40 0.983 . S
H15 C39 0.979 . S
H16 C39 0.977 . S
C17 C5 1.453 . S
C17 H46 0.982 . S
C17 H47 0.979 . S
C17 H48 0.977 . S
C18 C5 1.684 . S
C18 H43 0.979 . S
C18 H44 0.980 . S
C18 H45 0.983 . S
C19 C20 1.391 . S
C19 C24 1.391 . S
C19 H49 0.948 . S
C20 C19 1.391 . S
C20 C21 1.391 . S
C21 C20 1.391 . S
C21 C22 1.392 . S
C21 H50 0.947 . S
C22 C21 1.392 . S
C22 C23 1.419 . S
C22 H51 0.948 . S
C23 C22 1.419 . S
C23 C24 1.391 . S
C23 C27 1.397 . S
C24 C19 1.391 . S
C24 C23 1.391 . S
C24 C25 1.399 . S
C25 C24 1.399 . S
C25 C26 1.396 . S
C25 C28 1.453 . S
C25 C29 1.684 . S
C26 C7 1.723 . S
C26 C25 1.396 . S
C26 C27 1.394 . S
C27 C23 1.397 . S
C27 C26 1.394 . S
C27 C37 1.723 . S
C28 C25 1.453 . S
C28 H52 0.982 . S
C28 H53 0.979 . S
C28 H54 0.977 . S
C29 C25 1.684 . S
C29 H55 0.979 . S
C29 H56 0.980 . S
C29 H57 0.983 . S
C30 H6 0.948 . S
C30 C31 1.391 . S
C30 C35 1.391 . S
C31 C30 1.391 . S
C31 C32 1.391 . S
C32 H9 0.947 . S
C32 C31 1.391 . S
C32 C33 1.392 . S
C33 H10 0.948 . S
C33 C32 1.392 . S
C33 C34 1.419 . S
C34 C33 1.419 . S
C34 C35 1.391 . S
C34 C38 1.397 . S
C35 C30 1.391 . S
C35 C34 1.391 . S
C35 C36 1.399 . S
C36 C35 1.399 . S
C36 C37 1.396 . S
C36 C39 1.453 . S
C36 C40 1.684 . S
C37 C27 1.723 . S
C37 C36 1.396 . S
C37 C38 1.394 . S
C38 C8 1.723 . S
C38 C34 1.397 . S
C38 C37 1.394 . S
C39 H11 0.982 . S
C39 H15 0.979 . S
C39 H16 0.977 . S
C39 C36 1.453 . S
C40 H12 0.979 . S
C40 H13 0.980 . S
C40 H14 0.983 . S
C40 C36 1.684 . S
H41 C59 0.948 . S
H42 C0 0.948 . S
H43 C18 0.979 . S
H44 C18 0.980 . S
H45 C18 0.983 . S
H46 C17 0.982 . S
H47 C17 0.979 . S
H48 C17 0.977 . S
H49 C19 0.948 . S
H50 C21 0.947 . S
H51 C22 0.948 . S
H52 C28 0.982 . S
H53 C28 0.979 . S
H54 C28 0.977 . S
H55 C29 0.979 . S
H56 C29 0.980 . S
H57 C29 0.983 . S
H58 C2 0.947 . S
C59 C2 1.392 . S
C59 C3 1.419 . S
C59 H41 0.948 . S
C60 C61 1.391 . S
C60 C64 1.391 . S
C60 H102 0.948 . S
C61 C60 1.391 . S
C61 C62 1.391 . S
C62 C61 1.391 . S
C62 H118 0.947 . S
C62 C119 1.392 . S
C63 C64 1.391 . S
C63 C67 1.397 . S
C63 C119 1.419 . S
C64 C60 1.391 . S
C64 C63 1.391 . S
C64 C65 1.399 . S
C65 C64 1.399 . S
C65 C68 1.396 . S
C65 C77 1.453 . S
C65 C78 1.684 . S
H66 C90 0.948 . S
C67 C63 1.397 . S
C67 C68 1.394 . S
C67 C86 1.723 . S
C68 C65 1.396 . S
C68 C67 1.394 . S
C68 C98 1.723 . S
H69 C92 0.947 . S
H70 C93 0.948 . S
H71 C99 0.982 . S
H72 C100 0.979 . S
H73 C100 0.980 . S
H74 C100 0.983 . S
H75 C99 0.979 . S
H76 C99 0.977 . S
C77 C65 1.453 . S
C77 H106 0.982 . S
C77 H107 0.979 . S
C77 H108 0.977 . S
C78 C65 1.684 . S
C78 H103 0.979 . S
C78 H104 0.980 . S
C78 H105 0.983 . S
C79 C80 1.391 . S
C79 C84 1.391 . S
C79 H109 0.948 . S
C80 C79 1.391 . S
C80 C81 1.391 . S
C81 C80 1.391 . S
C81 C82 1.392 . S
C81 H110 0.947 . S
C82 C81 1.392 . S
C82 C83 1.419 . S
C82 H111 0.948 . S
C83 C82 1.419 . S
C83 C84 1.391 . S
C83 C87 1.397 . S
C84 C79 1.391 . S
C84 C83 1.391 . S
C84 C85 1.399 . S
C85 C84 1.399 . S
C85 C86 1.396 . S
C85 C88 1.453 . S
C85 C89 1.684 . S
C86 C67 1.723 . S
C86 C85 1.396 . S
C86 C87 1.394 . S
C87 C83 1.397 . S
C87 C86 1.394 . S
C87 C97 1.723 . S
C88 C85 1.453 . S
C88 H112 0.982 . S
C88 H113 0.979 . S
C88 H114 0.977 . S
C89 C85 1.684 . S
C89 H115 0.979 . S
C89 H116 0.980 . S
C89 H117 0.983 . S
C90 H66 0.948 . S
C90 C91 1.391 . S
C90 C95 1.391 . S
C91 C90 1.391 . S
C91 C92 1.391 . S
C92 H69 0.947 . S
C92 C91 1.391 . S
C92 C93 1.392 . S
C93 H70 0.948 . S
C93 C92 1.392 . S
C93 C94 1.419 . S
C94 C93 1.419 . S
C94 C95 1.391 . S
C94 C98 1.397 . S
C95 C90 1.391 . S
C95 C94 1.391 . S
C95 C96 1.399 . S
C96 C95 1.399 . S
C96 C97 1.396 . S
C96 C99 1.453 . S
C96 C100 1.684 . S
C97 C87 1.723 . S
C97 C96 1.396 . S
C97 C98 1.394 . S
C98 C68 1.723 . S
C98 C94 1.397 . S
C98 C97 1.394 . S
C99 H71 0.982 . S
C99 H75 0.979 . S
C99 H76 0.977 . S
C99 C96 1.453 . S
C100 H72 0.979 . S
C100 H73 0.980 . S
C100 H74 0.983 . S
C100 C96 1.684 . S
H101 C119 0.948 . S
H102 C60 0.948 . S
H103 C78 0.979 . S
H104 C78 0.980 . S
H105 C78 0.983 . S
H106 C77 0.982 . S
H107 C77 0.979 . S
H108 C77 0.977 . S
H109 C79 0.948 . S
H110 C81 0.947 . S
H111 C82 0.948 . S
H112 C88 0.982 . S
H113 C88 0.979 . S
H114 C88 0.977 . S
H115 C89 0.979 . S
H116 C89 0.980 . S
H117 C89 0.983 . S
H118 C62 0.947 . S
C119 C62 1.392 . S
C119 C63 1.419 . S
C119 H101 0.948 . S
C120 C121 1.391 . S
C120 C124 1.391 . S
C120 H162 0.948 . S
C121 C120 1.391 . S
C121 C122 1.391 . S
C122 C121 1.391 . S
C122 H178 0.947 . S
C122 C179 1.392 . S
C123 C124 1.391 . S
C123 C127 1.397 . S
C123 C179 1.419 . S
C124 C120 1.391 . S
C124 C123 1.391 . S
C124 C125 1.399 . S
C125 C124 1.399 . S
C125 C128 1.396 . S
C125 C137 1.453 . S
C125 C138 1.684 . S
H126 C150 0.948 . S
C127 C123 1.397 . S
C127 C128 1.394 . S
C127 C146 1.723 . S
C128 C125 1.396 . S
C128 C127 1.394 . S
C128 C158 1.723 . S
H129 C152 0.947 . S
H130 C153 0.948 . S
H131 C159 0.982 . S
H132 C160 0.979 . S
H133 C160 0.980 . S
H134 C160 0.983 . S
H135 C159 0.979 . S
H136 C159 0.977 . S
C137 C125 1.453 . S
C137 H166 0.982 . S
C137 H167 0.979 . S
C137 H168 0.977 . S
C138 C125 1.684 . S
C138 H163 0.979 . S
C138 H164 0.980 . S
C138 H165 0.983 . S
C139 C140 1.391 . S
C139 C144 1.391 . S
C139 H169 0.948 . S
C140 C139 1.391 . S
C140 C141 1.391 . S
C141 C140 1.391 . S
C141 C142 1.392 . S
C141 H170 0.947 . S
C142 C141 1.392 . S
C142 C143 1.419 . S
C142 H171 0.948 . S
C143 C142 1.419 . S
C143 C144 1.391 . S
C143 C147 1.397 . S
C144 C139 1.391 . S
C144 C143 1.391 . S
C144 C145 1.399 . S
C145 C144 1.399 . S
C145 C146 1.396 . S
C145 C148 1.453 . S
C145 C149 1.684 . S
C146 C127 1.723 . S
C146 C145 1.396 . S
C146 C147 1.394 . S
C147 C143 1.397 . S
C147 C146 1.394 . S
C147 C157 1.723 . S
C148 C145 1.453 . S
C148 H172 0.982 . S
C148 H173 0.979 . S
C148 H174 0.977 . S
C149 C145 1.684 . S
C149 H175 0.979 . S
C149 H176 0.980 . S
C149 H177 0.983 . S
C150 H126 0.948 . S
C150 C151 1.391 . S
C150 C155 1.391 . S
C151 C150 1.391 . S
C151 C152 1.391 . S
C152 H129 0.947 . S
C152 C151 1.391 . S
C152 C153 1.392 . S
C153 H130 0.948 . S
C153 C152 1.392 . S
C153 C154 1.419 . S
C154 C153 1.419 . S
C154 C155 1.391 . S
C154 C158 1.397 . S
C155 C150 1.391 . S
C155 C154 1.391 . S
C155 C156 1.399 . S
C156 C155 1.399 . S
C156 C157 1.396 . S
C156 C159 1.453 . S
C156 C160 1.684 . S
C157 C147 1.723 . S
C157 C156 1.396 . S
C157 C158 1.394 . S
C158 C128 1.723 . S
C158 C154 1.397 . S
C158 C157 1.394 . S
C159 H131 0.982 . S
C159 H135 0.979 . S
C159 H136 0.977 . S
C159 C156 1.453 . S
C160 H132 0.979 . S
C160 H133 0.980 . S
C160 H134 0.983 . S
C160 C156 1.684 . S
H161 C179 0.948 . S
H162 C120 0.948 . S
H163 C138 0.979 . S
H164 C138 0.980 . S
H165 C138 0.983 . S
H166 C137 0.982 . S
H167 C137 0.979 . S
H168 C137 0.977 . S
H169 C139 0.948 . S
H170 C141 0.947 . S
H171 C142 0.948 . S
H172 C148 0.982 . S
H173 C148 0.979 . S
H174 C148 0.977 . S
H175 C149 0.979 . S
H176 C149 0.980 . S
H177 C149 0.983 . S
H178 C122 0.947 . S
C179 C122 1.392 . S
C179 C123 1.419 . S
C179 H161 0.948 . S
C180 C181 1.391 . S
C180 C184 1.391 . S
C180 H222 0.948 . S
C181 C180 1.391 . S
C181 C182 1.391 . S
C182 C181 1.391 . S
C182 H238 0.947 . S
C182 C239 1.392 . S
C183 C184 1.391 . S
C183 C187 1.397 . S
C183 C239 1.419 . S
C184 C180 1.391 . S
C184 C183 1.391 . S
C184 C185 1.399 . S
C185 C184 1.399 . S
C185 C188 1.396 . S
C185 C197 1.453 . S
C185 C198 1.684 . S
H186 C210 0.948 . S
C187 C183 1.397 . S
C187 C188 1.394 . S
C187 C206 1.723 . S
C188 C185 1.396 . S
C188 C187 1.394 . S
C188 C218 1.723 . S
H189 C212 0.947 . S
H190 C213 0.948 . S
H191 C219 0.982 . S
H192 C220 0.979 . S
H193 C220 0.980 . S
H194 C220 0.983 . S
H195 C219 0.979 . S
H196 C219 0.977 . S
C197 C185 1.453 . S
C197 H226 0.982 . S
C197 H227 0.979 . S
C197 H228 0.977 . S
C198 C185 1.684 . S
C198 H223 0.979 . S
C198 H224 0.980 . S
C198 H225 0.983 . S
C199 C200 1.391 . S
C199 C204 1.391 . S
C199 H229 0.948 . S
C200 C199 1.391 . S
C200 C201 1.391 . S
C201 C200 1.391 . S
C201 C202 1.392 . S
C201 H230 0.947 . S
C202 C201 1.392 . S
C202 C203 1.419 . S
C202 H231 0.948 . S
C203 C202 1.419 . S
C203 C204 1.391 . S
C203 C207 1.397 . S
C204 C199 1.391 . S
C204 C203 1.391 . S
C204 C205 1.399 . S
C205 C204 1.399 . S
C205 C206 1.396 . S
C205 C208 1.453 . S
C205 C209 1.684 . S
C206 C187 1.723 . S
C206 C205 1.396 . S
C206 C207 1.394 . S
C207 C203 1.397 . S
C207 C206 1.394 . S
C207 C217 1.723 . S
C208 C205 1.453 . S
C208 H232 0.982 . S
C208 H233 0.979 . S
C208 H234 0.977 . S
C209 C205 1.684 . S
C209 H235 0.979 . S
C209 H236 0.980 . S
C209 H237 0.983 . S
C210 H186 0.948 . S
C210 C211 1.391 . S
C210 C215 1.391 . S
C211 C210 1.391 . S
C211 C212 1.391 . S
C212 H189 0.947 . S
C212 C211 1.391 . S
C212 C213 1.392 . S
C213 H190 0.948 . S
C213 C212 1.392 . S
C213 C214 1.419 . S
C214 C213 1.419 . S
C214 C215 1.391 . S
C214 C218 1.397 . S
C215 C210 1.391 . S
C215 C214 1.391 . S
C215 C216 1.399 . S
C216 C215 1.399 . S
C216 C217 1.396 . S
C216 C219 1.453 . S
C216 C220 1.684 . S
C217 C207 1.723 . S
C217 C216 1.396 . S
C217 C218 1.394 . S
C218 C188 1.723 . S
C218 C214 1.397 . S
C218 C217 1.394 . S
C219 H191 0.982 . S
C219 H195 0.979 . S
C219 H196 0.977 . S
C219 C216 1.453 . S
C220 H192 0.979 . S
C220 H193 0.980 . S
C220 H194 0.983 . S
C220 C216 1.684 . S
H221 C239 0.948 . S
H222 C180 0.948 . S
H223 C198 0.979 . S
H224 C198 0.980 . S
H225 C198 0.983 . S
H226 C197 0.982 . S
H227 C197 0.979 . S
H228 C197 0.977 . S
H229 C199 0.948 . S
H230 C201 0.947 . S
H231 C202 0.948 . S
H232 C208 0.982 . S
H233 C208 0.979 . S
H234 C208 0.977 . S
H235 C209 0.979 . S
H236 C209 0.980 . S
H237 C209 0.983 . S
H238 C182 0.947 . S
C239 C182 1.392 . S
C239 C183 1.419 . S
C239 H221 0.948 . S
C240 C241 1.391 . S
C240 C244 1.391 . S
C240 H282 0.948 . S
C241 C240 1.391 . S
C241 C242 1.391 . S
C242 C241 1.391 . S
C242 H298 0.947 . S
C242 C299 1.392 . S
C243 C244 1.391 . S
C243 C247 1.397 . S
C243 C299 1.419 . S
C244 C240 1.391 . S
C244 C243 1.391 . S
C244 C245 1.399 . S
C245 C244 1.399 . S
C245 C248 1.396 . S
C245 C257 1.453 . S
C245 C258 1.684 . S
H246 C270 0.948 . S
C247 C243 1.397 . S
C247 C248 1.394 . S
C247 C266 1.723 . S
C248 C245 1.396 . S
C248 C247 1.394 . S
C248 C278 1.723 . S
H249 C272 0.947 . S
H250 C273 0.948 . S
H251 C279 0.982 . S
H252 C280 0.979 . S
H253 C280 0.980 . S
H254 C280 0.983 . S
H255 C279 0.979 . S
H256 C279 0.977 . S
C257 C245 1.453 . S
C257 H286 0.982 . S
C257 H287 0.979 . S
C257 H288 0.977 . S
C258 C245 1.684 . S
C258 H283 0.979 . S
C258 H284 0.980 . S
C258 H285 0.983 . S
C259 C260 1.391 . S
C259 C264 1.391 . S
C259 H289 0.948 . S
C260 C259 1.391 . S
C260 C261 1.391 . S
C261 C260 1.391 . S
C261 C262 1.392 . S
C261 H290 0.947 . S
C262 C261 1.392 . S
C262 C263 1.419 . S
C262 H291 0.948 . S
C263 C262 1.419 . S
C263 C264 1.391 . S
C263 C267 1.397 . S
C264 C259 1.391 . S
C264 C263 1.391 . S
C264 C265 1.399 . S
C265 C264 1.399 . S
C265 C266 1.396 . S
C265 C268 1.453 . S
C265 C269 1.684 . S
C266 C247 1.723 . S
C266 C265 1.396 . S
C266 C267 1.394 . S
C267 C263 1.397 . S
C267 C266 1.394 . S
C267 C277 1.723 . S
C268 C265 1.453 . S
C268 H292 0.982 . S
C268 H293 0.979 . S
C268 H294 0.977 . S
C269 C265 1.684 . S
C269 H295 0.979 . S
C269 H296 0.980 . S
C269 H297 0.983 . S
C270 H246 0.948 . S
C270 C271 1.391 . S
C270 C275 1.391 . S
C271 C270 1.391 . S
C271 C272 1.391 . S
C272 H249 0.947 . S
C272 C271 1.391 . S
C272 C273 1.392 . S
C273 H250 0.948 . S
C273 C272 1.392 . S
C273 C274 1.419 . S
C274 C273 1.419 . S
C274 C275 1.391 . S
C274 C278 1.397 . S
C275 C270 1.391 . S
C275 C274 1.391 . S
C275 C276 1.399 . S
C276 C275 1.399 . S
C276 C277 1.396 . S
C276 C279 1.453 . S
C276 C280 1.684 . S
C277 C267 1.723 . S
C277 C276 1.396 . S
C277 C278 1.394 . S
C278 C248 1.723 . S
C278 C274 1.397 . S
C278 C277 1.394 . S
C279 H251 0.982 . S
C279 H255 0.979 . S
C279 H256 0.977 . S
C279 C276 1.453 . S
C280 H252 0.979 . S
C280 H253 0.980 . S
C280 H254 0.983 . S
C280 C276 1.684 . S
H281 C299 0.948 . S
H282 C240 0.948 . S
H283 C258 0.979 . S
H284 C258 0.980 . S
H285 C258 0.983 . S
H286 C257 0.982 . S
H287 C257 0.979 . S
H288 C257 0.977 . S
H289 C259 0.948 . S
H290 C261 0.947 . S
H291 C262 0.948 . S
H292 C268 0.982 . S
H293 C268 0.979 . S
H294 C268 0.977 . S
H295 C269 0.979 . S
H296 C269 0.980 . S
H297 C269 0.983 . S
H298 C242 0.947 . S
C299 C242 1.392 . S
C299 C243 1.419 . S
C299 H281 0.948 . S
C300 C301 1.391 . S
C300 C304 1.391 . S
C300 H342 0.948 . S
C301 C300 1.391 . S
C301 C302 1.391 . S
C302 C301 1.391 . S
C302 H358 0.947 . S
C302 C359 1.392 . S
C303 C304 1.391 . S
C303 C307 1.397 . S
C303 C359 1.419 . S
C304 C300 1.391 . S
C304 C303 1.391 . S
C304 C305 1.399 . S
C305 C304 1.399 . S
C305 C308 1.396 . S
C305 C317 1.453 . S
C305 C318 1.684 . S
H306 C330 0.948 . S
C307 C303 1.397 . S
C307 C308 1.394 . S
C307 C326 1.723 . S
C308 C305 1.396 . S
C308 C307 1.394 . S
C308 C338 1.723 . S
H309 C332 0.947 . S
H310 C333 0.948 . S
H311 C339 0.982 . S
H312 C340 0.979 . S
H313 C340 0.980 . S
H314 C340 0.983 . S
H315 C339 0.979 . S
H316 C339 0.977 . S
C317 C305 1.453 . S
C317 H346 0.982 . S
C317 H347 0.979 . S
C317 H348 0.977 . S
C318 C305 1.684 . S
C318 H343 0.979 . S
C318 H344 0.980 . S
C318 H345 0.983 . S
C319 C320 1.391 . S
C319 C324 1.391 . S
C319 H349 0.948 . S
C320 C319 1.391 . S
C320 C321 1.391 . S
C321 C320 1.391 . S
C321 C322 1.392 . S
C321 H350 0.947 . S
C322 C321 1.392 . S
C322 C323 1.419 . S
C322 H351 0.948 . S
C323 C322 1.419 . S
C323 C324 1.391 . S
C323 C327 1.397 . S
C324 C319 1.391 . S
C324 C323 1.391 . S
C324 C325 1.399 . S
C325 C324 1.399 . S
C325 C326 1.396 . S
C325 C328 1.453 . S
C325 C329 1.684 . S
C326 C307 1.723 . S
C326 C325 1.396 . S
C326 C327 1.394 . S
C327 C323 1.397 . S
C327 C326 1.394 . S
C327 C337 1.723 . S
C328 C325 1.453 . S
C328 H352 0.982 . S
C328 H353 0.979 . S
C328 H354 0.977 . S
C329 C325 1.684 . S
C329 H355 0.979 . S
C329 H356 0.980 . S
C329 H357 0.983 . S
C330 H306 0.948 . S
C330 C331 1.391 . S
C330 C335 1.391 . S
C331 C330 1.391 . S
C331 C332 1.391 . S
C332 H309 0.947 . S
C332 C331 1.391 . S
C332 C333 1.392 . S
C333 H310 0.948 . S
C333 C332 1.392 . S
C333 C334 1.419 . S
C334 C333 1.419 . S
C334 C335 1.391 . S
C334 C338 1.397 . S
C335 C330 1.391 . S
C335 C334 1.391 . S
C335 C336 1.399 . S
C336 C335 1.399 . S
C336 C337 1.396 . S
C336 C339 1.453 . S
C336 C340 1.684 . S
C337 C327 1.723 . S
C337 C336 1.396 . S
C337 C338 1.394 . S
C338 C308 1.723 . S
C338 C334 1.397 . S
C338 C337 1.394 . S
C339 H311 0.982 . S
C339 H315 0.979 . S
C339 H316 0.977 . S
C339 C336 1.453 . S
C340 H312 0.979 . S
C340 H313 0.980 . S
C340 H314 0.983 . S
C340 C336 1.684 . S
H341 C359 0.948 . S
H342 C300 0.948 . S
H343 C318 0.979 . S
H344 C318 0.980 . S
H345 C318 0.983 . S
H346 C317 0.982 . S
H347 C317 0.979 . S
H348 C317 0.977 . S
H349 C319 0.948 . S
H350 C321 0.947 . S
H351 C322 0.948 . S
H352 C328 0.982 . S
H353 C328 0.979 . S
H354 C328 0.977 . S
H355 C329 0.979 . S
H356 C329 0.980 . S
H357 C329 0.983 . S
H358 C302 0.947 . S
C359 C302 1.392 . S
C359 C303 1.419 . S
C359 H341 0.948 . S
C360 C361 1.391 . S
C360 C364 1.391 . S
C360 H402 0.948 . S
C361 C360 1.391 . S
C361 C362 1.391 . S
C362 C361 1.391 . S
C362 H418 0.947 . S
C362 C419 1.392 . S
C363 C364 1.391 . S
C363 C367 1.397 . S
C363 C419 1.419 . S
C364 C360 1.391 . S
C364 C363 1.391 . S
C364 C365 1.399 . S
C365 C364 1.399 . S
C365 C368 1.396 . S
C365 C377 1.453 . S
C365 C378 1.684 . S
H366 C390 0.948 . S
C367 C363 1.397 . S
C367 C368 1.394 . S
C367 C386 1.723 . S
C368 C365 1.396 . S
C368 C367 1.394 . S
C368 C398 1.723 . S
H369 C392 0.947 . S
H370 C393 0.948 . S
H371 C399 0.982 . S
H372 C400 0.979 . S
H373 C400 0.980 . S
H374 C400 0.983 . S
H375 C399 0.979 . S
H376 C399 0.977 . S
C377 C365 1.453 . S
C377 H406 0.982 . S
C377 H407 0.979 . S
C377 H408 0.977 . S
C378 C365 1.684 . S
C378 H403 0.979 . S
C378 H404 0.980 . S
C378 H405 0.983 . S
C379 C380 1.391 . S
C379 C384 1.391 . S
C379 H409 0.948 . S
C380 C379 1.391 . S
C380 C381 1.391 . S
C381 C380 1.391 . S
C381 C382 1.392 . S
C381 H410 0.947 . S
C382 C381 1.392 . S
C382 C383 1.419 . S
C382 H411 0.948 . S
C383 C382 1.419 . S
C383 C384 1.391 . S
C383 C387 1.397 . S
C384 C379 1.391 . S
C384 C383 1.391 . S
C384 C385 1.399 . S
C385 C384 1.399 . S
C385 C386 1.396 . S
C385 C388 1.453 . S
C385 C389 1.684 . S
C386 C367 1.723 . S
C386 C385 1.396 . S
C386 C387 1.394 . S
C387 C383 1.397 . S
C387 C386 1.394 . S
C387 C397 1.723 . S
C388 C385 1.453 . S
C388 H412 0.982 . S
C388 H413 0.979 . S
C388 H414 0.977 . S
C389 C385 1.684 . S
C389 H415 0.979 . S
C389 H416 0.980 . S
C389 H417 0.983 . S
C390 H366 0.948 . S
C390 C391 1.391 . S
C390 C395 1.391 . S
C391 C390 1.391 . S
C391 C392 1.391 . S
C392 H369 0.947 . S
C392 C391 1.391 . S
C392 C393 1.392 . S
C393 H370 0.948 . S
C393 C392 1.392 . S
C393 C394 1.419 . S
C394 C393 1.419 . S
C394 C395 1.391 . S
C394 C398 1.397 . S
C395 C390 1.391 . S
C395 C394 1.391 . S
C395 C396 1.399 . S
C396 C395 1.399 . S
C396 C397 1.396 . S
C396 C399 1.453 . S
C396 C400 1.684 . S
C397 C387 1.723 . S
C397 C396 1.396 . S
C397 C398 1.394 . S
C398 C368 1.723 . S
C398 C394 1.397 . S
C398 C397 1.394 . S
C399 H371 0.982 . S
C399 H375 0.979 . S
C399 H376 0.977 . S
C399 C396 1.453 . S
C400 H372 0.979 . S
C400 H373 0.980 . S
C400 H374 0.983 . S
C400 C396 1.684 . S
H401 C419 0.948 . S
H402 C360 0.948 . S
H403 C378 0.979 . S
H404 C378 0.980 . S
H405 C378 0.983 . S
H406 C377 0.982 . S
H407 C377 0.979 . S
H408 C377 0.977 . S
H409 C379 0.948 . S
H410 C381 0.947 . S
H411 C382 0.948 . S
H412 C388 0.982 . S
H413 C388 0.979 . S
H414 C388 0.977 . S
H415 C389 0.979 . S
H416 C389 0.980 . S
H417 C389 0.983 . S
H418 C362 0.947 . S
C419 C362 1.392 . S
C419 C363 1.419 . S
C419 H401 0.948 . S
C420 C421 1.391 . S
C420 C424 1.391 . S
C420 H462 0.948 . S
C421 C420 1.391 . S
C421 C422 1.391 . S
C422 C421 1.391 . S
C422 H478 0.947 . S
C422 C479 1.392 . S
C423 C424 1.391 . S
C423 C427 1.397 . S
C423 C479 1.419 . S
C424 C420 1.391 . S
C424 C423 1.391 . S
C424 C425 1.399 . S
C425 C424 1.399 . S
C425 C428 1.396 . S
C425 C437 1.453 . S
C425 C438 1.684 . S
H426 C450 0.948 . S
C427 C423 1.397 . S
C427 C428 1.394 . S
C427 C446 1.723 . S
C428 C425 1.396 . S
C428 C427 1.394 . S
C428 C458 1.723 . S
H429 C452 0.947 . S
H430 C453 0.948 . S
H431 C459 0.982 . S
H432 C460 0.979 . S
H433 C460 0.980 . S
H434 C460 0.983 . S
H435 C459 0.979 . S
H436 C459 0.977 . S
C437 C425 1.453 . S
C437 H466 0.982 . S
C437 H467 0.979 . S
C437 H468 0.977 . S
C438 C425 1.684 . S
C438 H463 0.979 . S
C438 H464 0.980 . S
C438 H465 0.983 . S
C439 C440 1.391 . S
C439 C444 1.391 . S
C439 H469 0.948 . S
C440 C439 1.391 . S
C440 C441 1.391 . S
C441 C440 1.391 . S
C441 C442 1.392 . S
C441 H470 0.947 . S
C442 C441 1.392 . S
C442 C443 1.419 . S
C442 H471 0.948 . S
C443 C442 1.419 . S
C443 C444 1.391 . S
C443 C447 1.397 . S
C444 C439 1.391 . S
C444 C443 1.391 . S
C444 C445 1.399 . S
C445 C444 1.399 . S
C445 C446 1.396 . S
C445 C448 1.453 . S
C445 C449 1.684 . S
C446 C427 1.723 . S
C446 C445 1.396 . S
C446 C447 1.394 . S
C447 C443 1.397 . S
C447 C446 1.394 . S
C447 C457 1.723 . S
C448 C445 1.453 . S
C448 H472 0.982 . S
C448 H473 0.979 . S
C448 H474 0.977 . S
C449 C445 1.684 . S
C449 H475 0.979 . S
C449 H476 0.980 . S
C449 H477 0.983 . S
C450 H426 0.948 . S
C450 C451 1.391 . S
C450 C455 1.391 . S
C451 C450 1.391 . S
C451 C452 1.391 . S
C452 H429 0.947 . S
C452 C451 1.391 . S
C452 C453 1.392 . S
C453 H430 0.948 . S
C453 C452 1.392 . S
C453 C454 1.419 . S
C454 C453 1.419 . S
C454 C455 1.391 . S
C454 C458 1.397 . S
C455 C450 1.391 . S
C455 C454 1.391 . S
C455 C456 1.399 . S
C456 C455 1.399 . S
C456 C457 1.396 . S
C456 C459 1.453 . S
C456 C460 1.684 . S
C457 C447 1.723 . S
C457 C456 1.396 . S
C457 C458 1.394 . S
C458 C428 1.723 . S
C458 C454 1.397 . S
C458 C457 1.394 . S
C459 H431 0.982 . S
C459 H435 0.979 . S
C459 H436 0.977 . S
C459 C456 1.453 . S
C460 H432 0.979 . S
C460 H433 0.980 . S
C460 H434 0.983 . S
C460 C456 1.684 . S
H461 C479 0.948 . S
H462 C420 0.948 . S
H463 C438 0.979 . S
H464 C438 0.980 . S
H465 C438 0.983 . S
H466 C437 0.982 . S
H467 C437 0.979 . S
H468 C437 0.977 . S
H469 C439 0.948 . S
H470 C441 0.947 . S
H471 C442 0.948 . S
H472 C448 0.982 . S
H473 C448 0.979 . S
H474 C448 0.977 . S
H475 C449 0.979 . S
H476 C449 0.980 . S
H477 C449 0.983 . S
H478 C422 0.947 . S
C479 C422 1.392 . S
C479 C423 1.419 . S
C479 H461 0.948 . S
C480 C481 1.391 . S
C480 C484 1.391 . S
C480 H522 0.948 . S
C481 C480 1.391 . S
C481 C482 1.391 . S
C482 C481 1.391 . S
C482 H538 0.947 . S
C482 C539 1.392 . S
C483 C484 1.391 . S
C483 C487 1.397 . S
C483 C539 1.419 . S
C484 C480 1.391 . S
C484 C483 1.391 . S
C484 C485 1.399 . S
C485 C484 1.399 . S
C485 C488 1.396 . S
C485 C497 1.453 . S
C485 C498 1.684 . S
H486 C510 0.948 . S
C487 C483 1.397 . S
C487 C488 1.394 . S
C487 C506 1.723 . S
C488 C485 1.396 . S
C488 C487 1.394 . S
C488 C518 1.723 . S
H489 C512 0.947 . S
H490 C513 0.948 . S
H491 C519 0.982 . S
H492 C520 0.979 . S
H493 C520 0.980 . S
H494 C520 0.983 . S
H495 C519 0.979 . S
H496 C519 0.977 . S
C497 C485 1.453 . S
C497 H526 0.982 . S
C497 H527 0.979 . S
C497 H528 0.977 . S
C498 C485 1.684 . S
C498 H523 0.979 . S
C498 H524 0.980 . S
C498 H525 0.983 . S
C499 C500 1.391 . S
C499 C504 1.391 . S
C499 H529 0.948 . S
C500 C499 1.391 . S
C500 C501 1.391 . S
C501 C500 1.391 . S
C501 C502 1.392 . S
C501 H530 0.947 . S
C502 C501 1.392 . S
C502 C503 1.419 . S
C502 H531 0.948 . S
C503 C502 1.419 . S
C503 C504 1.391 . S
C503 C507 1.397 . S
C504 C499 1.391 . S
C504 C503 1.391 . S
C504 C505 1.399 . S
C505 C504 1.399 . S
C505 C506 1.396 . S
C505 C508 1.453 . S
C505 C509 1.684 . S
C506 C487 1.723 . S
C506 C505 1.396 . S
C506 C507 1.394 . S
C507 C503 1.397 . S
C507 C506 1.394 . S
C507 C517 1.723 . S
C508 C505 1.453 . S
C508 H532 0.982 . S
C508 H533 0.979 . S
C508 H534 0.977 . S
C509 C505 1.684 . S
C509 H535 0.979 . S
C509 H536 0.980 . S
C509 H537 0.983 . S
C510 H486 0.948 . S
C510 C511 1.391 . S
C510 C515 1.391 . S
C511 C510 1.391 . S
C511 C512 1.391 . S
C512 H489 0.947 . S
C512 C511 1.391 . S
C512 C513 1.392 . S
C513 H490 0.948 . S
C513 C512 1.392 . S
C513 C514 1.419 . S
C514 C513 1.419 . S
C514 C515 1.391 . S
C514 C518 1.397 . S
C515 C510 1.391 . S
C515 C514 1.391 . S
C515 C516 1.399 . S
C516 C515 1.399 . S
C516 C517 1.396 . S
C516 C519 1.453 . S
C516 C520 1.684 . S
C517 C507 1.723 . S
C517 C516 1.396 . S
C517 C518 1.394 . S
C518 C488 1.723 . S
C518 C514 1.397 . S
C518 C517 1.394 . S
C519 H491 0.982 . S
C519 H495 0.979 . S
C519 H496 0.977 . S
C519 C516 1.453 . S
C520 H492 0.979 . S
C520 H493 0.980 . S
C520 H494 0.983 . S
C520 C516 1.684 . S
H521 C539 0.948 . S
H522 C480 0.948 . S
H523 C498 0.979 . S
H524 C498 0.980 . S
H525 C498 0.983 . S
H526 C497 0.982 . S
H527 C497 0.979 . S
H528 C497 0.977 . S
H529 C499 0.948 . S
H530 C501 0.947 . S
H531 C502 0.948 . S
H532 C508 0.982 . S
H533 C508 0.979 . S
H534 C508 0.977 . S
H535 C509 0.979 . S
H536 C509 0.980 . S
H537 C509 0.983 . S
H538 C482 0.947 . S
C539 C482 1.392 . S
C539 C483 1.419 . S
C539 H521 0.948 . S
C540 C541 1.391 . S
C540 C544 1.391 . S
C540 H582 0.948 . S
C541 C540 1.391 . S
C541 C542 1.391 . S
C542 C541 1.391 . S
C542 H598 0.947 . S
C542 C599 1.392 . S
C543 C544 1.391 . S
C543 C547 1.397 . S
C543 C599 1.419 . S
C544 C540 1.391 . S
C544 C543 1.391 . S
C544 C545 1.399 . S
C545 C544 1.399 . S
C545 C548 1.396 . S
C545 C557 1.453 . S
C545 C558 1.684 . S
H546 C570 0.948 . S
C547 C543 1.397 . S
C547 C548 1.394 . S
C547 C566 1.723 . S
C548 C545 1.396 . S
C548 C547 1.394 . S
C548 C578 1.723 . S
H549 C572 0.947 . S
H550 C573 0.948 . S
H551 C579 0.982 . S
H552 C580 0.979 . S
H553 C580 0.980 . S
H554 C580 0.983 . S
H555 C579 0.979 . S
H556 C579 0.977 . S
C557 C545 1.453 . S
C557 H586 0.982 . S
C557 H587 0.979 . S
C557 H588 0.977 . S
C558 C545 1.684 . S
C558 H583 0.979 . S
C558 H584 0.980 . S
C558 H585 0.983 . S
C559 C560 1.391 . S
C559 C564 1.391 . S
C559 H589 0.948 . S
C560 C559 1.391 . S
C560 C561 1.391 . S
C561 C560 1.391 . S
C561 C562 1.392 . S
C561 H590 0.947 . S
C562 C561 1.392 . S
C562 C563 1.419 . S
C562 H591 0.948 . S
C563 C562 1.419 . S
C563 C564 1.391 . S
C563 C567 1.397 . S
C564 C559 1.391 . S
C564 C563 1.391 . S
C564 C565 1.399 . S
C565 C564 1.399 . S
C565 C566 1.396 . S
C565 C568 1.453 . S
C565 C569 1.684 . S
C566 C547 1.723 . S
C566 C565 1.396 . S
C566 C567 1.394 . S
C567 C563 1.397 . S
C567 C566 1.394 . S
C567 C577 1.723 . S
C568 C565 1.453 . S
C568 H592 0.982 . S
C568 H593 0.979 . S
C568 H594 0.977 . S
C569 C565 1.684 . S
C569 H595 0.979 . S
C569 H596 0.980 . S
C569 H597 0.983 . S
C570 H546 0.948 . S
C570 C571 1.391 . S
C570 C575 1.391 . S
C571 C570 1.391 . S
C571 C572 1.391 . S
C572 H549 0.947 . S
C572 C571 1.391 . S
C572 C573 1.392 . S
C573 H550 0.948 . S
C573 C572 1.392 . S
C573 C574 1.419 . S
C574 C573 1.419 . S
C574 C575 1.391 . S
C574 C578 1.397 . S
C575 C570 1.391 . S
C575 C574 1.391 . S
C575 C576 1.399 . S
C576 C575 1.399 . S
C576 C577 1.396 . S
C576 C579 1.453 . S
C576 C580 1.684 . S
C577 C567 1.723 . S
C577 C576 1.396 . S
C577 C578 1.394 . S
C578 C548 1.723 . S
C578 C574 1.397 . S
C578 C577 1.394 . S
C579 H551 0.982 . S
C579 H555 0.979 . S
C579 H556 0.977 . S
C579 C576 1.453 . S
C580 H552 0.979 . S
C580 H553 0.980 . S
C580 H554 0.983 . S
C580 C576 1.684 . S
H581 C599 0.948 . S
H582 C540 0.948 . S
H583 C558 0.979 . S
H584 C558 0.980 . S
H585 C558 0.983 . S
H586 C557 0.982 . S
H587 C557 0.979 . S
H588 C557 0.977 . S
H589 C559 0.948 . S
H590 C561 0.947 . S
H591 C562 0.948 . S
H592 C568 0.982 . S
H593 C568 0.979 . S
H594 C568 0.977 . S
H595 C569 0.979 . S
H596 C569 0.980 . S
H597 C569 0.983 . S
H598 C542 0.947 . S
C599 C542 1.392 . S
C599 C543 1.419 . S
C599 H581 0.948 . S
C600 C601 1.391 . S
C600 C604 1.391 . S
C600 H642 0.948 . S
C601 C600 1.391 . S
C601 C602 1.391 . S
C602 C601 1.391 . S
C602 H658 0.947 . S
C602 C659 1.392 . S
C603 C604 1.391 . S
C603 C607 1.397 . S
C603 C659 1.419 . S
C604 C600 1.391 . S
C604 C603 1.391 . S
C604 C605 1.399 . S
C605 C604 1.399 . S
C605 C608 1.396 . S
C605 C617 1.453 . S
C605 C618 1.684 . S
H606 C630 0.948 . S
C607 C603 1.397 . S
C607 C608 1.394 . S
C607 C626 1.723 . S
C608 C605 1.396 . S
C608 C607 1.394 . S
C608 C638 1.723 . S
H609 C632 0.947 . S
H610 C633 0.948 . S
H611 C639 0.982 . S
H612 C640 0.979 . S
H613 C640 0.980 . S
H614 C640 0.983 . S
H615 C639 0.979 . S
H616 C639 0.977 . S
C617 C605 1.453 . S
C617 H646 0.982 . S
C617 H647 0.979 . S
C617 H648 0.977 . S
C618 C605 1.684 . S
C618 H643 0.979 . S
C618 H644 0.980 . S
C618 H645 0.983 . S
C619 C620 1.391 . S
C619 C624 1.391 . S
C619 H649 0.948 . S
C620 C619 1.391 . S
C620 C621 1.391 . S
C621 C620 1.391 . S
C621 C622 1.392 . S
C621 H650 0.947 . S
C622 C621 1.392 . S
C622 C623 1.419 . S
C622 H651 0.948 . S
C623 C622 1.419 . S
C623 C624 1.391 . S
C623 C627 1.397 . S
C624 C619 1.391 . S
C624 C623 1.391 . S
C624 C625 1.399 . S
C625 C624 1.399 . S
C625 C626 1.396 . S
C625 C628 1.453 . S
C625 C629 1.684 . S
C626 C607 1.723 . S
C626 C625 1.396 . S
C626 C627 1.394 . S
C627 C623 1.397 . S
C627 C626 1.394 . S
C627 C637 1.723 . S
C628 C625 1.453 . S
C628 H652 0.982 . S
C628 H653 0.979 . S
C628 H654 0.977 . S
C629 C625 1.684 . S
C629 H655 0.979 . S
C629 H656 0.980 . S
C629 H657 0.983 . S
C630 H606 0.948 . S
C630 C631 1.391 . S
C630 C635 1.391 . S
C631 C630 1.391 . S
C631 C632 1.391 . S
C632 H609 0.947 . S
C632 C631 1.391 . S
C632 C633 1.392 . S
C633 H610 0.948 . S
C633 C632 1.392 . S
C633 C634 1.419 . S
C634 C633 1.419 . S
C634 C635 1.391 . S
C634 C638 1.397 . S
C635 C630 1.391 . S
C635 C634 1.391 . S
C635 C636 1.399 . S
C636 C635 1.399 . S
C636 C637 1.396 . S
C636 C639 1.453 . S
C636 C640 1.684 . S
C637 C627 1.723 . S
C637 C636 1.396 . S
C637 C638 1.394 . S
C638 C608 1.723 . S
C638 C634 1.397 . S
C638 C637 1.394 . S
C639 H611 0.982 . S
C639 H615 0.979 . S
C639 H616 0.977 . S
C639 C636 1.453 . S
C640 H612 0.979 . S
C640 H613 0.980 . S
C640 H614 0.983 . S
C640 C636 1.684 . S
H641 C659 0.948 . S
H642 C600 0.948 . S
H643 C618 0.979 . S
H644 C618 0.980 . S
H645 C618 0.983 . S
H646 C617 0.982 . S
H647 C617 0.979 . S
H648 C617 0.977 . S
H649 C619 0.948 . S
H650 C621 0.947 . S
H651 C622 0.948 . S
H652 C628 0.982 . S
H653 C628 0.979 . S
H654 C628 0.977 . S
H655 C629 0.979 . S
H656 C629 0.980 . S
H657 C629 0.983 . S
H658 C602 0.947 . S
C659 C602 1.392 . S
C659 C603 1.419 . S
C659 H641 0.948 . S
C660 C661 1.391 . S
C660 C664 1.391 . S
C660 H702 0.948 . S
C661 C660 1.391 . S
C661 C662 1.391 . S
C662 C661 1.391 . S
C662 H718 0.947 . S
C662 C719 1.392 . S
C663 C664 1.391 . S
C663 C667 1.397 . S
C663 C719 1.419 . S
C664 C660 1.391 . S
C664 C663 1.391 . S
C664 C665 1.399 . S
C665 C664 1.399 . S
C665 C668 1.396 . S
C665 C677 1.453 . S
C665 C678 1.684 . S
H666 C690 0.948 . S
C667 C663 1.397 . S
C667 C668 1.394 . S
C667 C686 1.723 . S
C668 C665 1.396 . S
C668 C667 1.394 . S
C668 C698 1.723 . S
H669 C692 0.947 . S
H670 C693 0.948 . S
H671 C699 0.982 . S
H672 C700 0.979 . S
H673 C700 0.980 . S
H674 C700 0.983 . S
H675 C699 0.979 . S
H676 C699 0.977 . S
C677 C665 1.453 . S
C677 H706 0.982 . S
C677 H707 0.979 . S
C677 H708 0.977 . S
C678 C665 1.684 . S
C678 H703 0.979 . S
C678 H704 0.980 . S
C678 H705 0.983 . S
C679 C680 1.391 . S
C679 C684 1.391 . S
C679 H709 0.948 . S
C680 C679 1.391 . S
C680 C681 1.391 . S
C681 C680 1.391 . S
C681 C682 1.392 . S
C681 H710 0.947 . S
C682 C681 1.392 . S
C682 C683 1.419 . S
C682 H711 0.948 . S
C683 C682 1.419 . S
C683 C684 1.391 . S
C683 C687 1.397 . S
C684 C679 1.391 . S
C684 C683 1.391 . S
C684 C685 1.399 . S
C685 C684 1.399 . S
C685 C686 1.396 . S
C685 C688 1.453 . S
C685 C689 1.684 . S
C686 C667 1.723 . S
C686 C685 1.396 . S
C686 C687 1.394 . S
C687 C683 1.397 . S
C687 C686 1.394 . S
C687 C697 1.723 . S
C688 C685 1.453 . S
C688 H712 0.982 . S
C688 H713 0.979 . S
C688 H714 0.977 . S
C689 C685 1.684 . S
C689 H715 0.979 . S
C689 H716 0.980 . S
C689 H717 0.983 . S
C690 H666 0.948 . S
C690 C691 1.391 . S
C690 C695 1.391 . S
C691 C690 1.391 . S
C691 C692 1.391 . S
C692 H669 0.947 . S
C692 C691 1.391 . S
C692 C693 1.392 . S
C693 H670 0.948 . S
C693 C692 1.392 . S
C693 C694 1.419 . S
C694 C693 1.419 . S
C694 C695 1.391 . S
C694 C698 1.397 . S
C695 C690 1.391 . S
C695 C694 1.391 . S
C695 C696 1.399 . S
C696 C695 1.399 . S
C696 C697 1.396 . S
C696 C699 1.453 . S
C696 C700 1.684 . S
C697 C687 1.723 . S
C697 C696 1.396 . S
C697 C698 1.394 . S
C698 C668 1.723 . S
C698 C694 1.397 . S
C698 C697 1.394 . S
C699 H671 0.982 . S
C699 H675 0.979 . S
C699 H676 0.977 . S
C699 C696 1.453 . S
C700 H672 0.979 . S
C700 H673 0.980 . S
C700 H674 0.983 . S
C700 C696 1.684 . S
H701 C719 0.948 . S
H702 C660 0.948 . S
H703 C678 0.979 . S
H704 C678 0.980 . S
H705 C678 0.983 . S
H706 C677 0.982 . S
H707 C677 0.979 . S
H708 C677 0.977 . S
H709 C679 0.948 . S
H710 C681 0.947 . S
H711 C682 0.948 . S
H712 C688 0.982 . S
H713 C688 0.979 . S
H714 C688 0.977 . S
H715 C689 0.979 . S
H716 C689 0.980 . S
H717 C689 0.983 . S
H718 C662 0.947 . S
C719 C662 1.392 . S
C719 C663 1.419 . S
C719 H701 0.948 . S
C720 C721 1.391 . S
C720 C724 1.391 . S
C720 H762 0.948 . S
C721 C720 1.391 . S
C721 C722 1.391 . S
C722 C721 1.391 . S
C722 H778 0.947 . S
C722 C779 1.392 . S
C723 C724 1.391 . S
C723 C727 1.397 . S
C723 C779 1.419 . S
C724 C720 1.391 . S
C724 C723 1.391 . S
C724 C725 1.399 . S
C725 C724 1.399 . S
C725 C728 1.396 . S
C725 C737 1.453 . S
C725 C738 1.684 . S
H726 C750 0.948 . S
C727 C723 1.397 . S
C727 C728 1.394 . S
C727 C746 1.723 . S
C728 C725 1.396 . S
C728 C727 1.394 . S
C728 C758 1.723 . S
H729 C752 0.947 . S
H730 C753 0.948 . S
H731 C759 0.982 . S
H732 C760 0.979 . S
H733 C760 0.980 . S
H734 C760 0.983 . S
H735 C759 0.979 . S
H736 C759 0.977 . S
C737 C725 1.453 . S
C737 H766 0.982 . S
C737 H767 0.979 . S
C737 H768 0.977 . S
C738 C725 1.684 . S
C738 H763 0.979 . S
C738 H764 0.980 . S
C738 H765 0.983 . S
C739 C740 1.391 . S
C739 C744 1.391 . S
C739 H769 0.948 . S
C740 C739 1.391 . S
C740 C741 1.391 . S
C741 C740 1.391 . S
C741 C742 1.392 . S
C741 H770 0.947 . S
C742 C741 1.392 . S
C742 C743 1.419 . S
C742 H771 0.948 . S
C743 C742 1.419 . S
C743 C744 1.391 . S
C743 C747 1.397 . S
C744 C739 1.391 . S
C744 C743 1.391 . S
C744 C745 1.399 . S
C745 C744 1.399 . S
C745 C746 1.396 . S
C745 C748 1.453 . S
C745 C749 1.684 . S
C746 C727 1.723 . S
C746 C745 1.396 . S
C746 C747 1.394 . S
C747 C743 1.397 . S
C747 C746 1.394 . S
C747 C757 1.723 . S
C748 C745 1.453 . S
C748 H772 0.982 . S
C748 H773 0.979 . S
C748 H774 0.977 . S
C749 C745 1.684 . S
C749 H775 0.979 . S
C749 H776 0.980 . S
C749 H777 0.983 . S
C750 H726 0.948 . S
C750 C751 1.391 . S
C750 C755 1.391 . S
C751 C750 1.391 . S
C751 C752 1.391 . S
C752 H729 0.947 . S
C752 C751 1.391 . S
C752 C753 1.392 . S
C753 H730 0.948 . S
C753 C752 1.392 . S
C753 C754 1.419 . S
C754 C753 1.419 . S
C754 C755 1.391 . S
C754 C758 1.397 . S
C755 C750 1.391 . S
C755 C754 1.391 . S
C755 C756 1.399 . S
C756 C755 1.399 . S
C756 C757 1.396 . S
C756 C759 1.453 . S
C756 C760 1.684 . S
C757 C747 1.723 . S
C757 C756 1.396 . S
C757 C758 1.394 . S
C758 C728 1.723 . S
C758 C754 1.397 . S
C758 C757 1.394 . S
C759 H731 0.982 . S
C759 H735 0.979 . S
C759 H736 0.977 . S
C759 C756 1.453 . S
C760 H732 0.979 . S
C760 H733 0.980 . S
C760 H734 0.983 . S
C760 C756 1.684 . S
H761 C779 0.948 . S
H762 C720 0.948 . S
H763 C738 0.979 . S
H764 C738 0.980 . S
H765 C738 0.983 . S
H766 C737 0.982 . S
H767 C737 0.979 . S
H768 C737 0.977 . S
H769 C739 0.948 . S
H770 C741 0.947 . S
H771 C742 0.948 . S
H772 C748 0.982 . S
H773 C748 0.979 . S
H774 C748 0.977 . S
H775 C749 0.979 . S
H776 C749 0.980 . S
H777 C749 0.983 . S
H778 C722 0.947 . S
C779 C722 1.392 . S
C779 C723 1.419 . S
C779 H761 0.948 . S
C780 C781 1.391 . S
C780 C784 1.391 . S
C780 H822 0.948 . S
C781 C780 1.391 . S
C781 C782 1.391 . S
C782 C781 1.391 . S
C782 H838 0.947 . S
C782 C839 1.392 . S
C783 C784 1.391 . S
C783 C787 1.397 . S
C783 C839 1.419 . S
C784 C780 1.391 . S
C784 C783 1.391 . S
C784 C785 1.399 . S
C785 C784 1.399 . S
C785 C788 1.396 . S
C785 C797 1.453 . S
C785 C798 1.684 . S
H786 C810 0.948 . S
C787 C783 1.397 . S
C787 C788 1.394 . S
C787 C806 1.723 . S
C788 C785 1.396 . S
C788 C787 1.394 . S
C788 C818 1.723 . S
H789 C812 0.947 . S
H790 C813 0.948 . S
H791 C819 0.982 . S
H792 C820 0.979 . S
H793 C820 0.980 . S
H794 C820 0.983 . S
H795 C819 0.979 . S
H796 C819 0.977 . S
C797 C785 1.453 . S
C797 H826 0.982 . S
C797 H827 0.979 . S
C797 H828 0.977 . S
C798 C785 1.684 . S
C798 H823 0.979 . S
C798 H824 0.980 . S
C798 H825 0.983 . S
C799 C800 1.391 . S
C799 C804 1.391 . S
C799 H829 0.948 . S
C800 C799 1.391 . S
C800 C801 1.391 . S
C801 C800 1.391 . S
C801 C802 1.392 . S
C801 H830 0.947 . S
C802 C801 1.392 . S
C802 C803 1.419 . S
C802 H831 0.948 . S
C803 C802 1.419 . S
C803 C804 1.391 . S
C803 C807 1.397 . S
C804 C799 1.391 . S
C804 C803 1.391 . S
C804 C805 1.399 . S
C805 C804 1.399 . S
C805 C806 1.396 . S
C805 C808 1.453 . S
C805 C809 1.684 . S
C806 C787 1.723 . S
C806 C805 1.396 . S
C806 C807 1.394 . S
C807 C803 1.397 . S
C807 C806 1.394 . S
C807 C817 1.723 . S
C808 C805 1.453 . S
C808 H832 0.982 . S
C808 H833 0.979 . S
C808 H834 0.977 . S
C809 C805 1.684 . S
C809 H835 0.979 . S
C809 H836 0.980 . S
C809 H837 0.983 . S
C810 H786 0.948 . S
C810 C811 1.391 . S
C810 C815 1.391 . S
C811 C810 1.391 . S
C811 C812 1.391 . S
C812 H789 0.947 . S
C812 C811 1.391 . S
C812 C813 1.392 . S
C813 H790 0.948 . S
C813 C812 1.392 . S
C813 C814 1.419 . S
C814 C813 1.419 . S
C814 C815 1.391 . S
C814 C818 1.397 . S
C815 C810 1.391 . S
C815 C814 1.391 . S
C815 C816 1.399 . S
C816 C815 1.399 . S
C816 C817 1.396 . S
C816 C819 1.453 . S
C816 C820 1.684 . S
C817 C807 1.723 . S
C817 C816 1.396 . S
C817 C818 1.394 . S
C818 C788 1.723 . S
C818 C814 1.397 . S
C818 C817 1.394 . S
C819 H791 0.982 . S
C819 H795 0.979 . S
C819 H796 0.977 . S
C819 C816 1.453 . S
C820 H792 0.979 . S
C820 H793 0.980 . S
C820 H794 0.983 . S
C820 C816 1.684 . S
H821 C839 0.948 . S
H822 C780 0.948 . S
H823 C798 0.979 . S
H824 C798 0.980 . S
H825 C798 0.983 . S
H826 C797 0.982 . S
H827 C797 0.979 . S
H828 C797 0.977 . S
H829 C799 0.948 . S
H830 C801 0.947 . S
H831 C802 0.948 . S
H832 C808 0.982 . S
H833 C808 0.979 . S
H834 C808 0.977 . S
H835 C809 0.979 . S
H836 C809 0.980 . S
H837 C809 0.983 . S
H838 C782 0.947 . S
C839 C782 1.392 . S
C839 C783 1.419 . S
C839 H821 0.948 . S
C840 C841 1.391 . S
C840 C844 1.391 . S
C840 H882 0.948 . S
C841 C840 1.391 . S
C841 C842 1.391 . S
C842 C841 1.391 . S
C842 H898 0.947 . S
C842 C899 1.392 . S
C843 C844 1.391 . S
C843 C847 1.397 . S
C843 C899 1.419 . S
C844 C840 1.391 . S
C844 C843 1.391 . S
C844 C845 1.399 . S
C845 C844 1.399 . S
C845 C848 1.396 . S
C845 C857 1.453 . S
C845 C858 1.684 . S
H846 C870 0.948 . S
C847 C843 1.397 . S
C847 C848 1.394 . S
C847 C866 1.723 . S
C848 C845 1.396 . S
C848 C847 1.394 . S
C848 C878 1.723 . S
H849 C872 0.947 . S
H850 C873 0.948 . S
H851 C879 0.982 . S
H852 C880 0.979 . S
H853 C880 0.980 . S
H854 C880 0.983 . S
H855 C879 0.979 . S
H856 C879 0.977 . S
C857 C845 1.453 . S
C857 H886 0.982 . S
C857 H887 0.979 . S
C857 H888 0.977 . S
C858 C845 1.684 . S
C858 H883 0.979 . S
C858 H884 0.980 . S
C858 H885 0.983 . S
C859 C860 1.391 . S
C859 C864 1.391 . S
C859 H889 0.948 . S
C860 C859 1.391 . S
C860 C861 1.391 . S
C861 C860 1.391 . S
C861 C862 1.392 . S
C861 H890 0.947 . S
C862 C861 1.392 . S
C862 C863 1.419 . S
C862 H891 0.948 . S
C863 C862 1.419 . S
C863 C864 1.391 . S
C863 C867 1.397 . S
C864 C859 1.391 . S
C864 C863 1.391 . S
C864 C865 1.399 . S
C865 C864 1.399 . S
C865 C866 1.396 . S
C865 C868 1.453 . S
C865 C869 1.684 . S
C866 C847 1.723 . S
C866 C865 1.396 . S
C866 C867 1.394 . S
C867 C863 1.397 . S
C867 C866 1.394 . S
C867 C877 1.723 . S
C868 C865 1.453 . S
C868 H892 0.982 . S
C868 H893 0.979 . S
C868 H894 0.977 . S
C869 C865 1.684 . S
C869 H895 0.979 . S
C869 H896 0.980 . S
C869 H897 0.983 . S
C870 H846 0.948 . S
C870 C871 1.391 . S
C870 C875 1.391 . S
C871 C870 1.391 . S
C871 C872 1.391 . S
C872 H849 0.947 . S
C872 C871 1.391 . S
C872 C873 1.392 . S
C873 H850 0.948 . S
C873 C872 1.392 . S
C873 C874 1.419 . S
C874 C873 1.419 . S
C874 C875 1.391 . S
C874 C878 1.397 . S
C875 C870 1.391 . S
C875 C874 1.391 . S
C875 C876 1.399 . S
C876 C875 1.399 . S
C876 C877 1.396 . S
C876 C879 1.453 . S
C876 C880 1.684 . S
C877 C867 1.723 . S
C877 C876 1.396 . S
C877 C878 1.394 . S
C878 C848 1.723 . S
C878 C874 1.397 . S
C878 C877 1.394 . S
C879 H851 0.982 . S
C879 H855 0.979 . S
C879 H856 0.977 . S
C879 C876 1.453 . S
C880 H852 0.979 . S
C880 H853 0.980 . S
C880 H854 0.983 . S
C880 C876 1.684 . S
H881 C899 0.948 . S
H882 C840 0.948 . S
H883 C858 0.979 . S
H884 C858 0.980 . S
H885 C858 0.983 . S
H886 C857 0.982 . S
H887 C857 0.979 . S
H888 C857 0.977 . S
H889 C859 0.948 . S
H890 C861 0.947 . S
H891 C862 0.948 . S
H892 C868 0.982 . S
H893 C868 0.979 . S
H894 C868 0.977 . S
H895 C869 0.979 . S
H896 C869 0.980 . S
H897 C869 0.983 . S
H898 C842 0.947 . S
C899 C842 1.392 . S
C899 C843 1.419 . S
C899 H881 0.948 . S
C900 C901 1.391 . S
C900 C904 1.391 . S
C900 H942 0.948 . S
C901 C900 1.391 . S
C901 C902 1.391 . S
C902 C901 1.391 . S
C902 H958 0.947 . S
C902 C959 1.392 . S
C903 C904 1.391 . S
C903 C907 1.397 . S
C903 C959 1.419 . S
C904 C900 1.391 . S
C904 C903 1.391 . S
C904 C905 1.399 . S
C905 C904 1.399 . S
C905 C908 1.396 . S
C905 C917 1.453 . S
C905 C918 1.684 . S
H906 C930 0.948 . S
C907 C903 1.397 . S
C907 C908 1.394 . S
C907 C926 1.723 . S
C908 C905 1.396 . S
C908 C907 1.394 . S
C908 C938 1.723 . S
H909 C932 0.947 . S
H910 C933 0.948 . S
H911 C939 0.982 . S
H912 C940 0.979 . S
H913 C940 0.980 . S
H914 C940 0.983 . S
H915 C939 0.979 . S
H916 C939 0.977 . S
C917 C905 1.453 . S
C917 H946 0.982 . S
C917 H947 0.979 . S
C917 H948 0.977 . S
C918 C905 1.684 . S
C918 H943 0.979 . S
C918 H944 0.980 . S
C918 H945 0.983 . S
C919 C920 1.391 . S
C919 C924 1.391 . S
C919 H949 0.948 . S
C920 C919 1.391 . S
C920 C921 1.391 . S
C921 C920 1.391 . S
C921 C922 1.392 . S
C921 H950 0.947 . S
C922 C921 1.392 . S
C922 C923 1.419 . S
C922 H951 0.948 . S
C923 C922 1.419 . S
C923 C924 1.391 . S
C923 C927 1.397 . S
C924 C919 1.391 . S
C924 C923 1.391 . S
C924 C925 1.399 . S
C925 C924 1.399 . S
C925 C926 1.396 . S
C925 C928 1.453 . S
C925 C929 1.684 . S
C926 C907 1.723 . S
C926 C925 1.396 . S
C926 C927 1.394 . S
C927 C923 1.397 . S
C927 C926 1.394 . S
C927 C937 1.723 . S
C928 C925 1.453 . S
C928 H952 0.982 . S
C928 H953 0.979 . S
C928 H954 0.977 . S
C929 C925 1.684 . S
C929 H955 0.979 . S
C929 H956 0.980 . S
C929 H957 0.983 . S
C930 H906 0.948 . S
C930 C931 1.391 . S
C930 C935 1.391 . S
C931 C930 1.391 . S
C931 C932 1.391 . S
C932 H909 0.947 . S
C932 C931 1.391 . S
C932 C933 1.392 . S
C933 H910 0.948 . S
C933 C932 1.392 . S
C933 C934 1.419 . S
C934 C933 1.419 . S
C934 C935 1.391 . S
C934 C938 1.397 . S
C935 C930 1.391 . S
C935 C934 1.391 . S
C935 C936 1.399 . S
C936 C935 1.399 . S
C936 C937 1.396 . S
C936 C939 1.453 . S
C936 C940 1.684 . S
C937 C927 1.723 . S
C937 C936 1.396 . S
C937 C938 1.394 . S
C938 C908 1.723 . S
C938 C934 1.397 . S
C938 C937 1.394 . S
C939 H911 0.982 . S
C939 H915 0.979 . S
C939 H916 0.977 . S
C939 C936 1.453 . S
C940 H912 0.979 . S
C940 H913 0.980 . S
C940 H914 0.983 . S
C940 C936 1.684 . S
H941 C959 0.948 . S
H942 C900 0.948 . S
H943 C918 0.979 . S
H944 C918 0.980 . S
H945 C918 0.983 . S
H946 C917 0.982 . S
H947 C917 0.979 . S
H948 C917 0.977 . S
H949 C919 0.948 . S
H950 C921 0.947 . S
H951 C922 0.948 . S
H952 C928 0.982 . S
H953 C928 0.979 . S
H954 C928 0.977 . S
H955 C929 0.979 . S
H956 C929 0.980 . S
H957 C929 0.983 . S
H958 C902 0.947 . S
C959 C902 1.392 . S
C959 C903 1.419 . S
C959 H941 0.948 . S
C960 C961 1.391 . S
C960 C964 1.391 . S
C960 H1002 0.948 . S
C961 C960 1.391 . S
C961 C962 1.391 . S
C962 C961 1.391 . S
C962 H1018 0.947 . S
C962 C1019 1.392 . S
C963 C964 1.391 . S
C963 C967 1.397 . S
C963 C1019 1.419 . S
C964 C960 1.391 . S
C964 C963 1.391 . S
C964 C965 1.399 . S
C965 C964 1.399 . S
C965 C968 1.396 . S
C965 C977 1.453 . S
C965 C978 1.684 . S
H966 C990 0.948 . S
C967 C963 1.397 . S
C967 C968 1.394 . S
C967 C986 1.723 . S
C968 C965 1.396 . S
C968 C967 1.394 . S
C968 C998 1.723 . S
H969 C992 0.947 . S
H970 C993 0.948 . S
H971 C999 0.982 . S
H972 C1000 0.979 . S
H973 C1000 0.980 . S
H974 C1000 0.983 . S
H975 C999 0.979 . S
H976 C999 0.977 . S
C977 C965 1.453 . S
C977 H1006 0.982 . S
C977 H1007 0.979 . S
C977 H1008 0.977 . S
C978 C965 1.684 . S
C978 H1003 0.979 . S
C978 H1004 0.980 . S
C978 H1005 0.983 . S
C979 C980 1.391 . S
C979 C984 1.391 . S
C979 H1009 0.948 . S
C980 C979 1.391 . S
C980 C981 1.391 . S
C981 C980 1.391 . S
C981 C982 1.392 . S
C981 H1010 0.947 . S
C982 C981 1.392 . S
C982 C983 1.419 . S
C982 H1011 0.948 . S
C983 C982 1.419 . S
C983 C984 1.391 . S
C983 C987 1.397 . S
C984 C979 1.391 . S
C984 C983 1.391 . S
C984 C985 1.399 . S
C985 C984 1.399 . S
C985 C986 1.396 . S
C985 C988 1.453 . S
C985 C989 1.684 . S
C986 C967 1.723 . S
C986 C985 1.396 . S
C986 C987 1.394 . S
C987 C983 1.397 . S
C987 C986 1.394 . S
C987 C997 1.723 . S
C988 C985 1.453 . S
C988 H1012 0.982 . S
C988 H1013 0.979 . S
C988 H1014 0.977 . S
C989 C985 1.684 . S
C989 H1015 0.979 . S
C989 H1016 0.980 . S
C989 H1017 0.983 . S
C990 H966 0.948 . S
C990 C991 1.391 . S
C990 C995 1.391 . S
C991 C990 1.391 . S
C991 C992 1.391 . S
C992 H969 0.947 . S
C992 C991 1.391 . S
C992 C993 1.392 . S
C993 H970 0.948 . S
C993 C992 1.392 . S
C993 C994 1.419 . S
C994 C993 1.419 . S
C994 C995 1.391 . S
C994 C998 1.397 . S
C995 C990 1.391 . S
C995 C994 1.391 . S
C995 C996 1.399 . S
C996 C995 1.399 . S
C996 C997 1.396 . S
C996 C999 1.453 . S
C996 C1000 1.684 . S
C997 C987 1.723 . S
C997 C996 1.396 . S
C997 C998 1.394 . S
C998 C968 1.723 . S
C998 C994 1.397 . S
C998 C997 1.394 . S
C999 H971 0.982 . S
C999 H975 0.979 . S
C999 H976 0.977 . S
C999 C996 1.453 . S
C1000 H972 0.979 . S
C1000 H973 0.980 . S
C1000 H974 0.983 . S
C1000 C996 1.684 . S
H1001 C1019 0.948 . S
H1002 C960 0.948 . S
H1003 C978 0.979 . S
H1004 C978 0.980 . S
H1005 C978 0.983 . S
H1006 C977 0.982 . S
H1007 C977 0.979 . S
H1008 C977 0.977 . S
H1009 C979 0.948 . S
H1010 C981 0.947 . S
H1011 C982 0.948 . S
H1012 C988 0.982 . S
H1013 C988 0.979 . S
H1014 C988 0.977 . S
H1015 C989 0.979 . S
H1016 C989 0.980 . S
H1017 C989 0.983 . S
H1018 C962 0.947 . S
C1019 C962 1.392 . S
C1019 C963 1.419 . S
C1019 H1001 0.948 . S
C1020 C1021 1.391 . S
C1020 C1024 1.391 . S
C1020 H1062 0.948 . S
C1021 C1020 1.391 . S
C1021 C1022 1.391 . S
C1022 C1021 1.391 . S
C1022 H1078 0.947 . S
C1022 C1079 1.392 . S
C1023 C1024 1.391 . S
C1023 C1027 1.397 . S
C1023 C1079 1.419 . S
C1024 C1020 1.391 . S
C1024 C1023 1.391 . S
C1024 C1025 1.399 . S
C1025 C1024 1.399 . S
C1025 C1028 1.396 . S
C1025 C1037 1.453 . S
C1025 C1038 1.684 . S
H1026 C1050 0.948 . S
C1027 C1023 1.397 . S
C1027 C1028 1.394 . S
C1027 C1046 1.723 . S
C1028 C1025 1.396 . S
C1028 C1027 1.394 . S
C1028 C1058 1.723 . S
H1029 C1052 0.947 . S
H1030 C1053 0.948 . S
H1031 C1059 0.982 . S
H1032 C1060 0.979 . S
H1033 C1060 0.980 . S
H1034 C1060 0.983 . S
H1035 C1059 0.979 . S
H1036 C1059 0.977 . S
C1037 C1025 1.453 . S
C1037 H1066 0.982 . S
C1037 H1067 0.979 . S
C1037 H1068 0.977 . S
C1038 C1025 1.684 . S
C1038 H1063 0.979 . S
C1038 H1064 0.980 . S
C1038 H1065 0.983 . S
C1039 C1040 1.391 . S
C1039 C1044 1.391 . S
C1039 H1069 0.948 . S
C1040 C1039 1.391 . S
C1040 C1041 1.391 . S
C1041 C1040 1.391 . S
C1041 C1042 1.392 . S
C1041 H1070 0.947 . S
C1042 C1041 1.392 . S
C1042 C1043 1.419 . S
C1042 H1071 0.948 . S
C1043 C1042 1.419 . S
C1043 C1044 1.391 . S
C1043 C1047 1.397 . S
C1044 C1039 1.391 . S
C1044 C1043 1.391 . S
C1044 C1045 1.399 . S
C1045 C1044 1.399 . S
C1045 C1046 1.396 . S
C1045 C1048 1.453 . S
C1045 C1049 1.684 . S
C1046 C1027 1.723 . S
C1046 C1045 1.396 . S
C1046 C1047 1.394 . S
C1047 C1043 1.397 . S
C1047 C1046 1.394 . S
C1047 C1057 1.723 . S
C1048 C1045 1.453 . S
C1048 H1072 0.982 . S
C1048 H1073 0.979 . S
C1048 H1074 0.977 . S
C1049 C1045 1.684 . S
C1049 H1075 0.979 . S
C1049 H1076 0.980 . S
C1049 H1077 0.983 . S
C1050 H1026 0.948 . S
C1050 C1051 1.391 . S
C1050 C1055 1.391 . S
C1051 C1050 1.391 . S
C1051 C1052 1.391 . S
C1052 H1029 0.947 . S
C1052 C1051 1.391 . S
C1052 C1053 1.392 . S
C1053 H1030 0.948 . S
C1053 C1052 1.392 . S
C1053 C1054 1.419 . S
C1054 C1053 1.419 . S
C1054 C1055 1.391 . S
C1054 C1058 1.397 . S
C1055 C1050 1.391 . S
C1055 C1054 1.391 . S
C1055 C1056 1.399 . S
C1056 C1055 1.399 . S
C1056 C1057 1.396 . S
C1056 C1059 1.453 . S
C1056 C1060 1.684 . S
C1057 C1047 1.723 . S
C1057 C1056 1.396 . S
C1057 C1058 1.394 . S
C1058 C1028 1.723 . S
C1058 C1054 1.397 . S
C1058 C1057 1.394 . S
C1059 H1031 0.982 . S
C1059 H1035 0.979 . S
C1059 H1036 0.977 . S
C1059 C1056 1.453 . S
C1060 H1032 0.979 . S
C1060 H1033 0.980 . S
C1060 H1034 0.983 . S
C1060 C1056 1.684 . S
H1061 C1079 0.948 . S
H1062 C1020 0.948 . S
H1063 C1038 0.979 . S
H1064 C1038 0.980 . S
H1065 C1038 0.983 . S
H1066 C1037 0.982 . S
H1067 C1037 0.979 . S
H1068 C1037 0.977 . S
H1069 C1039 0.948 . S
H1070 C1041 0.947 . S
H1071 C1042 0.948 . S
H1072 C1048 0.982 . S
H1073 C1048 0.979 . S
H1074 C1048 0.977 . S
H1075 C1049 0.979 . S
H1076 C1049 0.980 . S
H1077 C1049 0.983 . S
H1078 C1022 0.947 . S
C1079 C1022 1.392 . S
C1079 C1023 1.419 . S
C1079 H1061 0.948 . S
Tb1080 N1111 2.660 . S
Tb1080 N1118 2.600 . S
Tb1080 O1124 2.546 . S
Tb1080 O1125 2.652 1_565 S
Tb1080 O1127 2.320 1_565 S
Tb1080 O1128 2.552 1_565 S
Tb1080 O1129 2.413 . S
Tb1080 O1131 2.362 1_556 S
Tb1080 O1132 2.421 . S
Tb1080 C1144 2.833 . S
C1081 C1084 1.432 . S
C1081 C1085 1.414 . S
C1081 N1088 1.359 . S
C1082 C1084 1.417 . S
C1082 C1086 1.432 . S
C1082 C1094 1.410 . S
C1083 C1085 1.444 . S
C1083 C1086 1.317 . S
C1083 H1106 0.929 . S
C1084 C1081 1.432 . S
C1084 C1082 1.417 . S
C1084 N1092 1.360 . S
C1085 C1081 1.414 . S
C1085 C1083 1.444 . S
C1085 C1090 1.385 . S
C1086 C1082 1.432 . S
C1086 C1083 1.317 . S
C1086 H1098 0.930 . S
C1087 C1089 1.392 . S
C1087 C1090 1.370 . S
C1087 H1099 0.931 . S
N1088 C1081 1.359 . S
N1088 C1089 1.327 . S
N1088 Tb1091 2.600 . S
C1089 C1087 1.392 . S
C1089 N1088 1.327 . S
C1089 H1096 0.930 . S
C1090 C1085 1.385 . S
C1090 C1087 1.370 . S
C1090 H1109 0.930 . S
Tb1091 N1088 2.600 . S
Tb1091 N1092 2.660 . S
Tb1091 O1125 2.293 1_554 S
Tb1091 O1126 2.421 . S
Tb1091 O1130 2.546 . S
Tb1091 O1131 2.610 1_545 S
Tb1091 O1133 2.320 1_545 S
Tb1091 O1134 2.552 1_545 S
Tb1091 O1135 2.413 . S
Tb1091 C1155 2.833 . S
N1092 C1084 1.360 . S
N1092 Tb1091 2.660 . S
N1092 C1093 1.305 . S
C1093 N1092 1.305 . S
C1093 C1095 1.407 . S
C1093 H1100 0.930 . S
C1094 C1082 1.410 . S
C1094 C1095 1.345 . S
C1094 H1102 0.930 . S
C1095 C1093 1.407 . S
C1095 C1094 1.345 . S
C1095 H1097 0.930 . S
H1096 C1089 0.930 . S
H1097 C1095 0.930 . S
H1098 C1086 0.930 . S
H1099 C1087 0.931 . S
H1100 C1093 0.930 . S
H1101 C1115 0.930 . S
H1102 C1094 0.930 . S
H1103 C1121 0.930 . S
H1104 C1112 0.930 . S
H1105 C1119 0.931 . S
H1106 C1083 0.929 . S
H1107 C1113 0.930 . S
H1108 C1146 0.930 . S
H1109 C1090 0.930 . S
H1110 C1145 0.929 . S
N1111 Tb1080 2.660 . S
N1111 C1112 1.305 . S
N1111 C1116 1.360 . S
C1112 H1104 0.930 . S
C1112 N1111 1.305 . S
C1112 C1115 1.407 . S
C1113 H1107 0.930 . S
C1113 C1114 1.410 . S
C1113 C1115 1.345 . S
C1114 C1113 1.410 . S
C1114 C1116 1.417 . S
C1114 C1146 1.432 . S
C1115 H1101 0.930 . S
C1115 C1112 1.407 . S
C1115 C1113 1.345 . S
C1116 N1111 1.360 . S
C1116 C1114 1.417 . S
C1116 C1120 1.432 . S
H1117 C1122 0.930 . S
N1118 Tb1080 2.600 . S
N1118 C1120 1.359 . S
N1118 C1121 1.327 . S
C1119 H1105 0.931 . S
C1119 C1121 1.392 . S
C1119 C1122 1.370 . S
C1120 C1116 1.432 . S
C1120 N1118 1.359 . S
C1120 C1123 1.414 . S
C1121 H1103 0.930 . S
C1121 N1118 1.327 . S
C1121 C1119 1.392 . S
C1122 H1117 0.930 . S
C1122 C1119 1.370 . S
C1122 C1123 1.385 . S
C1123 C1120 1.414 . S
C1123 C1122 1.385 . S
C1123 C1145 1.444 . S
O1124 Tb1080 2.546 . S
O1124 C1144 1.251 . S
O1125 Tb1080 2.652 1_545 S
O1125 Tb1091 2.293 1_556 S
O1125 C1136 1.340 . S
O1126 Tb1091 2.421 . S
O1126 C1143 1.262 1_554 S
O1127 Tb1080 2.320 1_545 S
O1127 C1143 1.260 . S
O1128 Tb1080 2.552 1_545 S
O1128 C1136 1.243 . S
O1129 Tb1080 2.413 . S
O1129 C1144 1.256 . S
O1130 Tb1091 2.546 . S
O1130 C1155 1.251 . S
O1131 Tb1080 2.362 1_554 S
O1131 Tb1091 2.610 1_565 S
O1131 C1147 1.283 . S
O1132 Tb1080 2.421 . S
O1132 C1154 1.262 1_556 S
O1133 Tb1091 2.320 1_565 S
O1133 C1154 1.260 . S
O1134 Tb1091 2.552 1_565 S
O1134 C1147 1.243 . S
O1135 Tb1091 2.413 . S
O1135 C1155 1.256 . S
C1136 O1125 1.340 . S
C1136 O1128 1.243 . S
C1137 C1139 1.382 1_565 S
C1137 C1141 1.393 . S
C1137 C1144 1.500 . S
C1138 C1139 1.400 . S
C1138 C1140 1.384 1_545 S
C1139 C1137 1.382 1_545 S
C1139 C1138 1.400 . S
C1139 H1156 0.930 . S
C1140 C1138 1.384 1_565 S
C1140 C1142 1.392 . S
C1140 H1157 0.931 . S
C1141 C1137 1.393 . S
C1141 C1142 1.401 . S
C1141 H1158 0.930 . S
C1142 C1140 1.392 . S
C1142 C1141 1.401 . S
C1142 H1159 0.930 . S
C1143 O1126 1.262 1_556 S
C1143 O1127 1.260 . S
C1144 Tb1080 2.833 . S
C1144 O1124 1.251 . S
C1144 O1129 1.256 . S
C1144 C1137 1.500 . S
C1145 H1110 0.929 . S
C1145 C1123 1.444 . S
C1145 C1146 1.317 . S
C1146 H1108 0.930 . S
C1146 C1114 1.432 . S
C1146 C1145 1.317 . S
C1147 O1131 1.283 . S
C1147 O1134 1.243 . S
C1148 C1149 1.382 1_545 S
C1148 C1152 1.393 . S
C1148 C1155 1.500 . S
C1149 C1148 1.382 1_565 S
C1149 C1150 1.400 . S
C1149 H1160 0.930 . S
C1150 C1149 1.400 . S
C1150 C1151 1.384 1_565 S
C1151 C1150 1.384 1_545 S
C1151 C1153 1.392 . S
C1151 H1161 0.931 . S
C1152 C1148 1.393 . S
C1152 C1153 1.401 . S
C1152 H1162 0.930 . S
C1153 C1151 1.392 . S
C1153 C1152 1.401 . S
C1153 H1163 0.930 . S
C1154 O1132 1.262 1_554 S
C1154 O1133 1.260 . S
C1155 Tb1091 2.833 . S
C1155 O1130 1.251 . S
C1155 O1135 1.256 . S
C1155 C1148 1.500 . S
H1156 C1139 0.930 . S
H1157 C1140 0.931 . S
H1158 C1141 0.930 . S
H1159 C1142 0.930 . S
H1160 C1149 0.930 . S
H1161 C1151 0.931 . S
H1162 C1152 0.930 . S
H1163 C1153 0.930 . S
Tb1164 N1195 2.660 . S
Tb1164 N1202 2.600 . S
Tb1164 O1208 2.546 . S
Tb1164 O1209 2.610 1_455 S
Tb1164 O1211 2.320 1_455 S
Tb1164 O1212 2.552 1_455 S
Tb1164 O1213 2.413 . S
Tb1164 O1215 2.362 1_556 S
Tb1164 O1216 2.421 . S
Tb1164 C1228 2.833 . S
C1165 C1168 1.432 . S
C1165 C1169 1.414 . S
C1165 N1172 1.359 . S
C1166 C1168 1.417 . S
C1166 C1170 1.432 . S
C1166 C1178 1.410 . S
C1167 C1169 1.444 . S
C1167 C1170 1.317 . S
C1167 H1190 0.929 . S
C1168 C1165 1.432 . S
C1168 C1166 1.417 . S
C1168 N1176 1.360 . S
C1169 C1165 1.414 . S
C1169 C1167 1.444 . S
C1169 C1174 1.385 . S
C1170 C1166 1.432 . S
C1170 C1167 1.317 . S
C1170 H1182 0.930 . S
C1171 C1173 1.392 . S
C1171 C1174 1.370 . S
C1171 H1183 0.931 . S
N1172 C1165 1.359 . S
N1172 C1173 1.327 . S
N1172 Tb1175 2.600 . S
C1173 C1171 1.392 . S
C1173 N1172 1.327 . S
C1173 H1180 0.930 . S
C1174 C1169 1.385 . S
C1174 C1171 1.370 . S
C1174 H1193 0.930 . S
Tb1175 N1172 2.600 . S
Tb1175 N1176 2.660 . S
Tb1175 O1209 2.362 1_554 S
Tb1175 O1210 2.421 . S
Tb1175 O1214 2.546 . S
Tb1175 O1215 2.610 1_655 S
Tb1175 O1217 2.320 1_655 S
Tb1175 O1218 2.552 1_655 S
Tb1175 O1219 2.413 . S
Tb1175 C1239 2.833 . S
N1176 C1168 1.360 . S
N1176 Tb1175 2.660 . S
N1176 C1177 1.305 . S
C1177 N1176 1.305 . S
C1177 C1179 1.407 . S
C1177 H1184 0.930 . S
C1178 C1166 1.410 . S
C1178 C1179 1.345 . S
C1178 H1186 0.930 . S
C1179 C1177 1.407 . S
C1179 C1178 1.345 . S
C1179 H1181 0.930 . S
H1180 C1173 0.930 . S
H1181 C1179 0.930 . S
H1182 C1170 0.930 . S
H1183 C1171 0.931 . S
H1184 C1177 0.930 . S
H1185 C1199 0.930 . S
H1186 C1178 0.930 . S
H1187 C1205 0.930 . S
H1188 C1196 0.930 . S
H1189 C1203 0.931 . S
H1190 C1167 0.929 . S
H1191 C1197 0.930 . S
H1192 C1230 0.930 . S
H1193 C1174 0.930 . S
H1194 C1229 0.929 . S
N1195 Tb1164 2.660 . S
N1195 C1196 1.305 . S
N1195 C1200 1.360 . S
C1196 H1188 0.930 . S
C1196 N1195 1.305 . S
C1196 C1199 1.407 . S
C1197 H1191 0.930 . S
C1197 C1198 1.410 . S
C1197 C1199 1.345 . S
C1198 C1197 1.410 . S
C1198 C1200 1.417 . S
C1198 C1230 1.432 . S
C1199 H1185 0.930 . S
C1199 C1196 1.407 . S
C1199 C1197 1.345 . S
C1200 N1195 1.360 . S
C1200 C1198 1.417 . S
C1200 C1204 1.432 . S
H1201 C1206 0.930 . S
N1202 Tb1164 2.600 . S
N1202 C1204 1.359 . S
N1202 C1205 1.327 . S
C1203 H1189 0.931 . S
C1203 C1205 1.392 . S
C1203 C1206 1.370 . S
C1204 C1200 1.432 . S
C1204 N1202 1.359 . S
C1204 C1207 1.414 . S
C1205 H1187 0.930 . S
C1205 N1202 1.327 . S
C1205 C1203 1.392 . S
C1206 H1201 0.930 . S
C1206 C1203 1.370 . S
C1206 C1207 1.385 . S
C1207 C1204 1.414 . S
C1207 C1206 1.385 . S
C1207 C1229 1.444 . S
O1208 Tb1164 2.546 . S
O1208 C1228 1.251 . S
O1209 Tb1164 2.610 1_655 S
O1209 Tb1175 2.362 1_556 S
O1209 C1220 1.283 . S
O1210 Tb1175 2.421 . S
O1210 C1227 1.262 1_554 S
O1211 Tb1164 2.320 1_655 S
O1211 C1227 1.260 . S
O1212 Tb1164 2.552 1_655 S
O1212 C1220 1.243 . S
O1213 Tb1164 2.413 . S
O1213 C1228 1.256 . S
O1214 Tb1175 2.546 . S
O1214 C1239 1.251 . S
O1215 Tb1164 2.362 1_554 S
O1215 Tb1175 2.610 1_455 S
O1215 C1231 1.283 . S
O1216 Tb1164 2.421 . S
O1216 C1238 1.262 1_556 S
O1217 Tb1175 2.320 1_455 S
O1217 C1238 1.260 . S
O1218 Tb1175 2.552 1_455 S
O1218 C1231 1.243 . S
O1219 Tb1175 2.413 . S
O1219 C1239 1.256 . S
C1220 O1209 1.283 . S
C1220 O1212 1.243 . S
C1221 C1223 1.382 1_455 S
C1221 C1225 1.393 . S
C1221 C1228 1.500 . S
C1222 C1223 1.400 . S
C1222 C1224 1.384 1_655 S
C1223 C1221 1.382 1_655 S
C1223 C1222 1.400 . S
C1223 H1240 0.930 . S
C1224 C1222 1.384 1_455 S
C1224 C1226 1.392 . S
C1224 H1241 0.931 . S
C1225 C1221 1.393 . S
C1225 C1226 1.401 . S
C1225 H1242 0.930 . S
C1226 C1224 1.392 . S
C1226 C1225 1.401 . S
C1226 H1243 0.930 . S
C1227 O1210 1.262 1_556 S
C1227 O1211 1.260 . S
C1228 Tb1164 2.833 . S
C1228 O1208 1.251 . S
C1228 O1213 1.256 . S
C1228 C1221 1.500 . S
C1229 H1194 0.929 . S
C1229 C1207 1.444 . S
C1229 C1230 1.317 . S
C1230 H1192 0.930 . S
C1230 C1198 1.432 . S
C1230 C1229 1.317 . S
C1231 O1215 1.283 . S
C1231 O1218 1.243 . S
C1232 C1233 1.382 1_655 S
C1232 C1236 1.393 . S
C1232 C1239 1.500 . S
C1233 C1232 1.382 1_455 S
C1233 C1234 1.400 . S
C1233 H1244 0.930 . S
C1234 C1233 1.400 . S
C1234 C1235 1.384 1_455 S
C1235 C1234 1.384 1_655 S
C1235 C1237 1.392 . S
C1235 H1245 0.931 . S
C1236 C1232 1.393 . S
C1236 C1237 1.401 . S
C1236 H1246 0.930 . S
C1237 C1235 1.392 . S
C1237 C1236 1.401 . S
C1237 H1247 0.930 . S
C1238 O1216 1.262 1_554 S
C1238 O1217 1.260 . S
C1239 Tb1175 2.833 . S
C1239 O1214 1.251 . S
C1239 O1219 1.256 . S
C1239 C1232 1.500 . S
H1240 C1223 0.930 . S
H1241 C1224 0.931 . S
H1242 C1225 0.930 . S
H1243 C1226 0.930 . S
H1244 C1233 0.930 . S
H1245 C1235 0.931 . S
H1246 C1236 0.930 . S
H1247 C1237 0.930 . S
Tb1248 N1279 2.660 . S
Tb1248 N1286 2.600 . S
Tb1248 O1292 2.546 . S
Tb1248 O1293 2.610 . S
Tb1248 O1295 2.320 . S
Tb1248 O1296 2.552 . S
Tb1248 O1297 2.413 . S
Tb1248 O1299 2.362 1_554 S
Tb1248 O1300 2.421 . S
Tb1248 C1312 2.833 . S
C1249 C1252 1.432 . S
C1249 C1253 1.414 . S
C1249 N1256 1.359 . S
C1250 C1252 1.417 . S
C1250 C1254 1.432 . S
C1250 C1262 1.410 . S
C1251 C1253 1.444 . S
C1251 C1254 1.317 . S
C1251 H1274 0.929 . S
C1252 C1249 1.432 . S
C1252 C1250 1.417 . S
C1252 N1260 1.360 . S
C1253 C1249 1.414 . S
C1253 C1251 1.444 . S
C1253 C1258 1.385 . S
C1254 C1250 1.432 . S
C1254 C1251 1.317 . S
C1254 H1266 0.930 . S
C1255 C1257 1.392 . S
C1255 C1258 1.370 . S
C1255 H1267 0.931 . S
N1256 C1249 1.359 . S
N1256 C1257 1.327 . S
N1256 Tb1259 2.600 . S
C1257 C1255 1.392 . S
C1257 N1256 1.327 . S
C1257 H1264 0.930 . S
C1258 C1253 1.385 . S
C1258 C1255 1.370 . S
C1258 H1277 0.930 . S
Tb1259 N1256 2.600 . S
Tb1259 N1260 2.660 . S
Tb1259 O1293 2.362 1_556 S
Tb1259 O1294 2.421 . S
Tb1259 O1298 2.546 . S
Tb1259 O1299 2.610 . S
Tb1259 O1301 2.320 . S
Tb1259 O1302 2.552 . S
Tb1259 O1303 2.413 . S
Tb1259 C1323 2.833 . S
N1260 C1252 1.360 . S
N1260 Tb1259 2.660 . S
N1260 C1261 1.305 . S
C1261 N1260 1.305 . S
C1261 C1263 1.407 . S
C1261 H1268 0.930 . S
C1262 C1250 1.410 . S
C1262 C1263 1.345 . S
C1262 H1270 0.930 . S
C1263 C1261 1.407 . S
C1263 C1262 1.345 . S
C1263 H1265 0.930 . S
H1264 C1257 0.930 . S
H1265 C1263 0.930 . S
H1266 C1254 0.930 . S
H1267 C1255 0.931 . S
H1268 C1261 0.930 . S
H1269 C1283 0.930 . S
H1270 C1262 0.930 . S
H1271 C1289 0.930 . S
H1272 C1280 0.930 . S
H1273 C1287 0.931 . S
H1274 C1251 0.929 . S
H1275 C1281 0.930 . S
H1276 C1314 0.930 . S
H1277 C1258 0.930 . S
H1278 C1313 0.929 . S
N1279 Tb1248 2.660 . S
N1279 C1280 1.305 . S
N1279 C1284 1.360 . S
C1280 H1272 0.930 . S
C1280 N1279 1.305 . S
C1280 C1283 1.407 . S
C1281 H1275 0.930 . S
C1281 C1282 1.410 . S
C1281 C1283 1.345 . S
C1282 C1281 1.410 . S
C1282 C1284 1.417 . S
C1282 C1314 1.432 . S
C1283 H1269 0.930 . S
C1283 C1280 1.407 . S
C1283 C1281 1.345 . S
C1284 N1279 1.360 . S
C1284 C1282 1.417 . S
C1284 C1288 1.432 . S
H1285 C1290 0.930 . S
N1286 Tb1248 2.600 . S
N1286 C1288 1.359 . S
N1286 C1289 1.327 . S
C1287 H1273 0.931 . S
C1287 C1289 1.392 . S
C1287 C1290 1.370 . S
C1288 C1284 1.432 . S
C1288 N1286 1.359 . S
C1288 C1291 1.414 . S
C1289 H1271 0.930 . S
C1289 N1286 1.327 . S
C1289 C1287 1.392 . S
C1290 H1285 0.930 . S
C1290 C1287 1.370 . S
C1290 C1291 1.385 . S
C1291 C1288 1.414 . S
C1291 C1290 1.385 . S
C1291 C1313 1.444 . S
O1292 Tb1248 2.546 . S
O1292 C1312 1.251 . S
O1293 Tb1248 2.610 . S
O1293 Tb1259 2.362 1_554 S
O1293 C1304 1.283 . S
O1294 Tb1259 2.421 . S
O1294 C1311 1.262 1_556 S
O1295 Tb1248 2.320 . S
O1295 C1311 1.260 . S
O1296 Tb1248 2.552 . S
O1296 C1304 1.243 . S
O1297 Tb1248 2.413 . S
O1297 C1312 1.256 . S
O1298 Tb1259 2.546 . S
O1298 C1323 1.251 . S
O1299 Tb1248 2.362 1_556 S
O1299 Tb1259 2.610 . S
O1299 C1315 1.283 . S
O1300 Tb1248 2.421 . S
O1300 C1322 1.262 1_554 S
O1301 Tb1259 2.320 . S
O1301 C1322 1.260 . S
O1302 Tb1259 2.552 . S
O1302 C1315 1.243 . S
O1303 Tb1259 2.413 . S
O1303 C1323 1.256 . S
C1304 O1293 1.283 . S
C1304 O1296 1.243 . S
C1305 C1307 1.382 . S
C1305 C1309 1.393 . S
C1305 C1312 1.500 . S
C1306 C1307 1.400 . S
C1306 C1308 1.384 . S
C1307 C1305 1.382 . S
C1307 C1306 1.400 . S
C1307 H1324 0.930 . S
C1308 C1306 1.384 . S
C1308 C1310 1.392 . S
C1308 H1325 0.931 . S
C1309 C1305 1.393 . S
C1309 C1310 1.401 . S
C1309 H1326 0.930 . S
C1310 C1308 1.392 . S
C1310 C1309 1.401 . S
C1310 H1327 0.930 . S
C1311 O1294 1.262 1_554 S
C1311 O1295 1.260 . S
C1312 Tb1248 2.833 . S
C1312 O1292 1.251 . S
C1312 O1297 1.256 . S
C1312 C1305 1.500 . S
C1313 H1278 0.929 . S
C1313 C1291 1.444 . S
C1313 C1314 1.317 . S
C1314 H1276 0.930 . S
C1314 C1282 1.432 . S
C1314 C1313 1.317 . S
C1315 O1299 1.283 . S
C1315 O1302 1.243 . S
C1316 C1317 1.382 . S
C1316 C1320 1.393 . S
C1316 C1323 1.500 . S
C1317 C1316 1.382 . S
C1317 C1318 1.400 . S
C1317 H1328 0.930 . S
C1318 C1317 1.400 . S
C1318 C1319 1.384 . S
C1319 C1318 1.384 . S
C1319 C1321 1.392 . S
C1319 H1329 0.931 . S
C1320 C1316 1.393 . S
C1320 C1321 1.401 . S
C1320 H1330 0.930 . S
C1321 C1319 1.392 . S
C1321 C1320 1.401 . S
C1321 H1331 0.930 . S
C1322 O1300 1.262 1_556 S
C1322 O1301 1.260 . S
C1323 Tb1259 2.833 . S
C1323 O1298 1.251 . S
C1323 O1303 1.256 . S
C1323 C1316 1.500 . S
H1324 C1307 0.930 . S
H1325 C1308 0.931 . S
H1326 C1309 0.930 . S
H1327 C1310 0.930 . S
H1328 C1317 0.930 . S
H1329 C1319 0.931 . S
H1330 C1320 0.930 . S
H1331 C1321 0.930 . S
Tb1332 N1363 2.660 . S
Tb1332 N1370 2.600 . S
Tb1332 O1376 2.546 . S
Tb1332 O1377 2.610 . S
Tb1332 O1379 2.320 . S
Tb1332 O1380 2.552 . S
Tb1332 O1381 2.413 . S
Tb1332 O1383 2.362 . S
Tb1332 O1384 2.421 . S
Tb1332 C1396 2.833 . S
C1333 C1336 1.432 . S
C1333 C1337 1.414 . S
C1333 N1340 1.359 . S
C1334 C1336 1.417 . S
C1334 C1338 1.432 . S
C1334 C1346 1.410 . S
C1335 C1337 1.444 . S
C1335 C1338 1.317 . S
C1335 H1358 0.929 . S
C1336 C1333 1.432 . S
C1336 C1334 1.417 . S
C1336 N1344 1.360 . S
C1337 C1333 1.414 . S
C1337 C1335 1.444 . S
C1337 C1342 1.385 . S
C1338 C1334 1.432 . S
C1338 C1335 1.317 . S
C1338 H1350 0.930 . S
C1339 C1341 1.392 . S
C1339 C1342 1.370 . S
C1339 H1351 0.931 . S
N1340 C1333 1.359 . S
N1340 C1341 1.327 . S
N1340 Tb1343 2.600 . S
C1341 C1339 1.392 . S
C1341 N1340 1.327 . S
C1341 H1348 0.930 . S
C1342 C1337 1.385 . S
C1342 C1339 1.370 . S
C1342 H1361 0.930 . S
Tb1343 N1340 2.600 . S
Tb1343 N1344 2.660 . S
Tb1343 O1377 2.362 . S
Tb1343 O1378 2.421 . S
Tb1343 O1382 2.546 . S
Tb1343 O1383 2.610 . S
Tb1343 O1385 2.320 . S
Tb1343 O1386 2.552 . S
Tb1343 O1387 2.413 . S
Tb1343 C1407 2.833 . S
N1344 C1336 1.360 . S
N1344 Tb1343 2.660 . S
N1344 C1345 1.305 . S
C1345 N1344 1.305 . S
C1345 C1347 1.407 . S
C1345 H1352 0.930 . S
C1346 C1334 1.410 . S
C1346 C1347 1.345 . S
C1346 H1354 0.930 . S
C1347 C1345 1.407 . S
C1347 C1346 1.345 . S
C1347 H1349 0.930 . S
H1348 C1341 0.930 . S
H1349 C1347 0.930 . S
H1350 C1338 0.930 . S
H1351 C1339 0.931 . S
H1352 C1345 0.930 . S
H1353 C1367 0.930 . S
H1354 C1346 0.930 . S
H1355 C1373 0.930 . S
H1356 C1364 0.930 . S
H1357 C1371 0.931 . S
H1358 C1335 0.929 . S
H1359 C1365 0.930 . S
H1360 C1398 0.930 . S
H1361 C1342 0.930 . S
H1362 C1397 0.929 . S
N1363 Tb1332 2.660 . S
N1363 C1364 1.305 . S
N1363 C1368 1.360 . S
C1364 H1356 0.930 . S
C1364 N1363 1.305 . S
C1364 C1367 1.407 . S
C1365 H1359 0.930 . S
C1365 C1366 1.410 . S
C1365 C1367 1.345 . S
C1366 C1365 1.410 . S
C1366 C1368 1.417 . S
C1366 C1398 1.432 . S
C1367 H1353 0.930 . S
C1367 C1364 1.407 . S
C1367 C1365 1.345 . S
C1368 N1363 1.360 . S
C1368 C1366 1.417 . S
C1368 C1372 1.432 . S
H1369 C1374 0.930 . S
N1370 Tb1332 2.600 . S
N1370 C1372 1.359 . S
N1370 C1373 1.327 . S
C1371 H1357 0.931 . S
C1371 C1373 1.392 . S
C1371 C1374 1.370 . S
C1372 C1368 1.432 . S
C1372 N1370 1.359 . S
C1372 C1375 1.414 . S
C1373 H1355 0.930 . S
C1373 N1370 1.327 . S
C1373 C1371 1.392 . S
C1374 H1369 0.930 . S
C1374 C1371 1.370 . S
C1374 C1375 1.385 . S
C1375 C1372 1.414 . S
C1375 C1374 1.385 . S
C1375 C1397 1.444 . S
O1376 Tb1332 2.546 . S
O1376 C1396 1.251 . S
O1377 Tb1332 2.610 . S
O1377 Tb1343 2.362 . S
O1377 C1388 1.283 . S
O1378 Tb1343 2.421 . S
O1378 C1395 1.262 . S
O1379 Tb1332 2.320 . S
O1379 C1395 1.260 . S
O1380 Tb1332 2.552 . S
O1380 C1388 1.243 . S
O1381 Tb1332 2.413 . S
O1381 C1396 1.256 . S
O1382 Tb1343 2.546 . S
O1382 C1407 1.251 . S
O1383 Tb1332 2.362 . S
O1383 Tb1343 2.610 . S
O1383 C1399 1.283 . S
O1384 Tb1332 2.421 . S
O1384 C1406 1.262 . S
O1385 Tb1343 2.320 . S
O1385 C1406 1.260 . S
O1386 Tb1343 2.552 . S
O1386 C1399 1.243 . S
O1387 Tb1343 2.413 . S
O1387 C1407 1.256 . S
C1388 O1377 1.283 . S
C1388 O1380 1.243 . S
C1389 C1391 1.382 . S
C1389 C1393 1.393 . S
C1389 C1396 1.500 . S
C1390 C1391 1.400 . S
C1390 C1392 1.384 . S
C1391 C1389 1.382 . S
C1391 C1390 1.400 . S
C1391 H1408 0.930 . S
C1392 C1390 1.384 . S
C1392 C1394 1.392 . S
C1392 H1409 0.931 . S
C1393 C1389 1.393 . S
C1393 C1394 1.401 . S
C1393 H1410 0.930 . S
C1394 C1392 1.392 . S
C1394 C1393 1.401 . S
C1394 H1411 0.930 . S
C1395 O1378 1.262 . S
C1395 O1379 1.260 . S
C1396 Tb1332 2.833 . S
C1396 O1376 1.251 . S
C1396 O1381 1.256 . S
C1396 C1389 1.500 . S
C1397 H1362 0.929 . S
C1397 C1375 1.444 . S
C1397 C1398 1.317 . S
C1398 H1360 0.930 . S
C1398 C1366 1.432 . S
C1398 C1397 1.317 . S
C1399 O1383 1.283 . S
C1399 O1386 1.243 . S
C1400 C1401 1.382 . S
C1400 C1404 1.393 . S
C1400 C1407 1.500 . S
C1401 C1400 1.382 . S
C1401 C1402 1.400 . S
C1401 H1412 0.930 . S
C1402 C1401 1.400 . S
C1402 C1403 1.384 . S
C1403 C1402 1.384 . S
C1403 C1405 1.392 . S
C1403 H1413 0.931 . S
C1404 C1400 1.393 . S
C1404 C1405 1.401 . S
C1404 H1414 0.930 . S
C1405 C1403 1.392 . S
C1405 C1404 1.401 . S
C1405 H1415 0.930 . S
C1406 O1384 1.262 . S
C1406 O1385 1.260 . S
C1407 Tb1343 2.833 . S
C1407 O1382 1.251 . S
C1407 O1387 1.256 . S
C1407 C1400 1.500 . S
H1408 C1391 0.930 . S
H1409 C1392 0.931 . S
H1410 C1393 0.930 . S
H1411 C1394 0.930 . S
H1412 C1401 0.930 . S
H1413 C1403 0.931 . S
H1414 C1404 0.930 . S
H1415 C1405 0.930 . S
Tb1416 N1447 2.660 . S
Tb1416 N1454 2.600 . S
Tb1416 O1460 2.546 . S
Tb1416 O1461 2.610 . S
Tb1416 O1463 2.320 . S
Tb1416 O1464 2.552 . S
Tb1416 O1465 2.413 . S
Tb1416 O1467 2.362 . S
Tb1416 O1468 2.421 . S
Tb1416 C1480 2.833 . S
C1417 C1420 1.432 . S
C1417 C1421 1.414 . S
C1417 N1424 1.359 . S
C1418 C1420 1.417 . S
C1418 C1422 1.432 . S
C1418 C1430 1.410 . S
C1419 C1421 1.444 . S
C1419 C1422 1.317 . S
C1419 H1442 0.929 . S
C1420 C1417 1.432 . S
C1420 C1418 1.417 . S
C1420 N1428 1.360 . S
C1421 C1417 1.414 . S
C1421 C1419 1.444 . S
C1421 C1426 1.385 . S
C1422 C1418 1.432 . S
C1422 C1419 1.317 . S
C1422 H1434 0.930 . S
C1423 C1425 1.392 . S
C1423 C1426 1.370 . S
C1423 H1435 0.931 . S
N1424 C1417 1.359 . S
N1424 C1425 1.327 . S
N1424 Tb1427 2.600 . S
C1425 C1423 1.392 . S
C1425 N1424 1.327 . S
C1425 H1432 0.930 . S
C1426 C1421 1.385 . S
C1426 C1423 1.370 . S
C1426 H1445 0.930 . S
Tb1427 N1424 2.600 . S
Tb1427 N1428 2.660 . S
Tb1427 O1461 2.362 . S
Tb1427 O1462 2.421 . S
Tb1427 O1466 2.546 . S
Tb1427 O1467 2.610 . S
Tb1427 O1469 2.320 . S
Tb1427 O1470 2.552 . S
Tb1427 O1471 2.413 . S
Tb1427 C1491 2.833 . S
N1428 C1420 1.360 . S
N1428 Tb1427 2.660 . S
N1428 C1429 1.305 . S
C1429 N1428 1.305 . S
C1429 C1431 1.407 . S
C1429 H1436 0.930 . S
C1430 C1418 1.410 . S
C1430 C1431 1.345 . S
C1430 H1438 0.930 . S
C1431 C1429 1.407 . S
C1431 C1430 1.345 . S
C1431 H1433 0.930 . S
H1432 C1425 0.930 . S
H1433 C1431 0.930 . S
H1434 C1422 0.930 . S
H1435 C1423 0.931 . S
H1436 C1429 0.930 . S
H1437 C1451 0.930 . S
H1438 C1430 0.930 . S
H1439 C1457 0.930 . S
H1440 C1448 0.930 . S
H1441 C1455 0.931 . S
H1442 C1419 0.929 . S
H1443 C1449 0.930 . S
H1444 C1482 0.930 . S
H1445 C1426 0.930 . S
H1446 C1481 0.929 . S
N1447 Tb1416 2.660 . S
N1447 C1448 1.305 . S
N1447 C1452 1.360 . S
C1448 H1440 0.930 . S
C1448 N1447 1.305 . S
C1448 C1451 1.407 . S
C1449 H1443 0.930 . S
C1449 C1450 1.410 . S
C1449 C1451 1.345 . S
C1450 C1449 1.410 . S
C1450 C1452 1.417 . S
C1450 C1482 1.432 . S
C1451 H1437 0.930 . S
C1451 C1448 1.407 . S
C1451 C1449 1.345 . S
C1452 N1447 1.360 . S
C1452 C1450 1.417 . S
C1452 C1456 1.432 . S
H1453 C1458 0.930 . S
N1454 Tb1416 2.600 . S
N1454 C1456 1.359 . S
N1454 C1457 1.327 . S
C1455 H1441 0.931 . S
C1455 C1457 1.392 . S
C1455 C1458 1.370 . S
C1456 C1452 1.432 . S
C1456 N1454 1.359 . S
C1456 C1459 1.414 . S
C1457 H1439 0.930 . S
C1457 N1454 1.327 . S
C1457 C1455 1.392 . S
C1458 H1453 0.930 . S
C1458 C1455 1.370 . S
C1458 C1459 1.385 . S
C1459 C1456 1.414 . S
C1459 C1458 1.385 . S
C1459 C1481 1.444 . S
O1460 Tb1416 2.546 . S
O1460 C1480 1.251 . S
O1461 Tb1416 2.610 . S
O1461 Tb1427 2.362 . S
O1461 C1472 1.283 . S
O1462 Tb1427 2.421 . S
O1462 C1479 1.262 . S
O1463 Tb1416 2.320 . S
O1463 C1479 1.260 . S
O1464 Tb1416 2.552 . S
O1464 C1472 1.243 . S
O1465 Tb1416 2.413 . S
O1465 C1480 1.256 . S
O1466 Tb1427 2.546 . S
O1466 C1491 1.251 . S
O1467 Tb1416 2.362 . S
O1467 Tb1427 2.610 . S
O1467 C1483 1.283 . S
O1468 Tb1416 2.421 . S
O1468 C1490 1.262 . S
O1469 Tb1427 2.320 . S
O1469 C1490 1.260 . S
O1470 Tb1427 2.552 . S
O1470 C1483 1.243 . S
O1471 Tb1427 2.413 . S
O1471 C1491 1.256 . S
C1472 O1461 1.283 . S
C1472 O1464 1.243 . S
C1473 C1475 1.382 . S
C1473 C1477 1.393 . S
C1473 C1480 1.500 . S
C1474 C1475 1.400 . S
C1474 C1476 1.384 . S
C1475 C1473 1.382 . S
C1475 C1474 1.400 . S
C1475 H1492 0.930 . S
C1476 C1474 1.384 . S
C1476 C1478 1.392 . S
C1476 H1493 0.931 . S
C1477 C1473 1.393 . S
C1477 C1478 1.401 . S
C1477 H1494 0.930 . S
C1478 C1476 1.392 . S
C1478 C1477 1.401 . S
C1478 H1495 0.930 . S
C1479 O1462 1.262 . S
C1479 O1463 1.260 . S
C1480 Tb1416 2.833 . S
C1480 O1460 1.251 . S
C1480 O1465 1.256 . S
C1480 C1473 1.500 . S
C1481 H1446 0.929 . S
C1481 C1459 1.444 . S
C1481 C1482 1.317 . S
C1482 H1444 0.930 . S
C1482 C1450 1.432 . S
C1482 C1481 1.317 . S
C1483 O1467 1.283 . S
C1483 O1470 1.243 . S
C1484 C1485 1.382 . S
C1484 C1488 1.393 . S
C1484 C1491 1.500 . S
C1485 C1484 1.382 . S
C1485 C1486 1.400 . S
C1485 H1496 0.930 . S
C1486 C1485 1.400 . S
C1486 C1487 1.384 . S
C1487 C1486 1.384 . S
C1487 C1489 1.392 . S
C1487 H1497 0.931 . S
C1488 C1484 1.393 . S
C1488 C1489 1.401 . S
C1488 H1498 0.930 . S
C1489 C1487 1.392 . S
C1489 C1488 1.401 . S
C1489 H1499 0.930 . S
C1490 O1468 1.262 . S
C1490 O1469 1.260 . S
C1491 Tb1427 2.833 . S
C1491 O1466 1.251 . S
C1491 O1471 1.256 . S
C1491 C1484 1.500 . S
H1492 C1475 0.930 . S
H1493 C1476 0.931 . S
H1494 C1477 0.930 . S
H1495 C1478 0.930 . S
H1496 C1485 0.930 . S
H1497 C1487 0.931 . S
H1498 C1488 0.930 . S
H1499 C1489 0.930 . S
Tb1500 N1531 2.660 . S
Tb1500 N1538 2.600 . S
Tb1500 O1544 2.546 . S
Tb1500 O1545 2.610 . S
Tb1500 O1547 2.320 . S
Tb1500 O1548 2.552 . S
Tb1500 O1549 2.413 . S
Tb1500 O1551 2.362 . S
Tb1500 O1552 2.421 . S
Tb1500 C1564 2.833 . S
C1501 C1504 1.432 . S
C1501 C1505 1.414 . S
C1501 N1508 1.359 . S
C1502 C1504 1.417 . S
C1502 C1506 1.432 . S
C1502 C1514 1.410 . S
C1503 C1505 1.444 . S
C1503 C1506 1.317 . S
C1503 H1526 0.929 . S
C1504 C1501 1.432 . S
C1504 C1502 1.417 . S
C1504 N1512 1.360 . S
C1505 C1501 1.414 . S
C1505 C1503 1.444 . S
C1505 C1510 1.385 . S
C1506 C1502 1.432 . S
C1506 C1503 1.317 . S
C1506 H1518 0.930 . S
C1507 C1509 1.392 . S
C1507 C1510 1.370 . S
C1507 H1519 0.931 . S
N1508 C1501 1.359 . S
N1508 C1509 1.327 . S
N1508 Tb1511 2.600 . S
C1509 C1507 1.392 . S
C1509 N1508 1.327 . S
C1509 H1516 0.930 . S
C1510 C1505 1.385 . S
C1510 C1507 1.370 . S
C1510 H1529 0.930 . S
Tb1511 N1508 2.600 . S
Tb1511 N1512 2.660 . S
Tb1511 O1545 2.362 . S
Tb1511 O1546 2.421 . S
Tb1511 O1550 2.546 . S
Tb1511 O1551 2.610 . S
Tb1511 O1553 2.320 . S
Tb1511 O1554 2.552 . S
Tb1511 O1555 2.413 . S
Tb1511 C1575 2.833 . S
N1512 C1504 1.360 . S
N1512 Tb1511 2.660 . S
N1512 C1513 1.305 . S
C1513 N1512 1.305 . S
C1513 C1515 1.407 . S
C1513 H1520 0.930 . S
C1514 C1502 1.410 . S
C1514 C1515 1.345 . S
C1514 H1522 0.930 . S
C1515 C1513 1.407 . S
C1515 C1514 1.345 . S
C1515 H1517 0.930 . S
H1516 C1509 0.930 . S
H1517 C1515 0.930 . S
H1518 C1506 0.930 . S
H1519 C1507 0.931 . S
H1520 C1513 0.930 . S
H1521 C1535 0.930 . S
H1522 C1514 0.930 . S
H1523 C1541 0.930 . S
H1524 C1532 0.930 . S
H1525 C1539 0.931 . S
H1526 C1503 0.929 . S
H1527 C1533 0.930 . S
H1528 C1566 0.930 . S
H1529 C1510 0.930 . S
H1530 C1565 0.929 . S
N1531 Tb1500 2.660 . S
N1531 C1532 1.305 . S
N1531 C1536 1.360 . S
C1532 H1524 0.930 . S
C1532 N1531 1.305 . S
C1532 C1535 1.407 . S
C1533 H1527 0.930 . S
C1533 C1534 1.410 . S
C1533 C1535 1.345 . S
C1534 C1533 1.410 . S
C1534 C1536 1.417 . S
C1534 C1566 1.432 . S
C1535 H1521 0.930 . S
C1535 C1532 1.407 . S
C1535 C1533 1.345 . S
C1536 N1531 1.360 . S
C1536 C1534 1.417 . S
C1536 C1540 1.432 . S
H1537 C1542 0.930 . S
N1538 Tb1500 2.600 . S
N1538 C1540 1.359 . S
N1538 C1541 1.327 . S
C1539 H1525 0.931 . S
C1539 C1541 1.392 . S
C1539 C1542 1.370 . S
C1540 C1536 1.432 . S
C1540 N1538 1.359 . S
C1540 C1543 1.414 . S
C1541 H1523 0.930 . S
C1541 N1538 1.327 . S
C1541 C1539 1.392 . S
C1542 H1537 0.930 . S
C1542 C1539 1.370 . S
C1542 C1543 1.385 . S
C1543 C1540 1.414 . S
C1543 C1542 1.385 . S
C1543 C1565 1.444 . S
O1544 Tb1500 2.546 . S
O1544 C1564 1.251 . S
O1545 Tb1500 2.610 . S
O1545 Tb1511 2.362 . S
O1545 C1556 1.283 . S
O1546 Tb1511 2.421 . S
O1546 C1563 1.262 . S
O1547 Tb1500 2.320 . S
O1547 C1563 1.260 . S
O1548 Tb1500 2.552 . S
O1548 C1556 1.243 . S
O1549 Tb1500 2.413 . S
O1549 C1564 1.256 . S
O1550 Tb1511 2.546 . S
O1550 C1575 1.251 . S
O1551 Tb1500 2.362 . S
O1551 Tb1511 2.610 . S
O1551 C1567 1.283 . S
O1552 Tb1500 2.421 . S
O1552 C1574 1.262 . S
O1553 Tb1511 2.320 . S
O1553 C1574 1.260 . S
O1554 Tb1511 2.552 . S
O1554 C1567 1.243 . S
O1555 Tb1511 2.413 . S
O1555 C1575 1.256 . S
C1556 O1545 1.283 . S
C1556 O1548 1.243 . S
C1557 C1559 1.382 . S
C1557 C1561 1.393 . S
C1557 C1564 1.500 . S
C1558 C1559 1.400 . S
C1558 C1560 1.384 . S
C1559 C1557 1.382 . S
C1559 C1558 1.400 . S
C1559 H1576 0.930 . S
C1560 C1558 1.384 . S
C1560 C1562 1.392 . S
C1560 H1577 0.931 . S
C1561 C1557 1.393 . S
C1561 C1562 1.401 . S
C1561 H1578 0.930 . S
C1562 C1560 1.392 . S
C1562 C1561 1.401 . S
C1562 H1579 0.930 . S
C1563 O1546 1.262 . S
C1563 O1547 1.260 . S
C1564 Tb1500 2.833 . S
C1564 O1544 1.251 . S
C1564 O1549 1.256 . S
C1564 C1557 1.500 . S
C1565 H1530 0.929 . S
C1565 C1543 1.444 . S
C1565 C1566 1.317 . S
C1566 H1528 0.930 . S
C1566 C1534 1.432 . S
C1566 C1565 1.317 . S
C1567 O1551 1.283 . S
C1567 O1554 1.243 . S
C1568 C1569 1.382 . S
C1568 C1572 1.393 . S
C1568 C1575 1.500 . S
C1569 C1568 1.382 . S
C1569 C1570 1.400 . S
C1569 H1580 0.930 . S
C1570 C1569 1.400 . S
C1570 C1571 1.384 . S
C1571 C1570 1.384 . S
C1571 C1573 1.392 . S
C1571 H1581 0.931 . S
C1572 C1568 1.393 . S
C1572 C1573 1.401 . S
C1572 H1582 0.930 . S
C1573 C1571 1.392 . S
C1573 C1572 1.401 . S
C1573 H1583 0.930 . S
C1574 O1552 1.262 . S
C1574 O1553 1.260 . S
C1575 Tb1511 2.833 . S
C1575 O1550 1.251 . S
C1575 O1555 1.256 . S
C1575 C1568 1.500 . S
H1576 C1559 0.930 . S
H1577 C1560 0.931 . S
H1578 C1561 0.930 . S
H1579 C1562 0.930 . S
H1580 C1569 0.930 . S
H1581 C1571 0.931 . S
H1582 C1572 0.930 . S
H1583 C1573 0.930 . S
Tb1584 N1615 2.660 . S
Tb1584 N1622 2.600 . S
Tb1584 O1628 2.546 . S
Tb1584 O1629 2.610 . S
Tb1584 O1631 2.320 . S
Tb1584 O1632 2.552 . S
Tb1584 O1633 2.413 . S
Tb1584 O1635 2.362 . S
Tb1584 O1636 2.421 . S
Tb1584 C1648 2.833 . S
C1585 C1588 1.432 . S
C1585 C1589 1.414 . S
C1585 N1592 1.359 . S
C1586 C1588 1.417 . S
C1586 C1590 1.432 . S
C1586 C1598 1.410 . S
C1587 C1589 1.444 . S
C1587 C1590 1.317 . S
C1587 H1610 0.929 . S
C1588 C1585 1.432 . S
C1588 C1586 1.417 . S
C1588 N1596 1.360 . S
C1589 C1585 1.414 . S
C1589 C1587 1.444 . S
C1589 C1594 1.385 . S
C1590 C1586 1.432 . S
C1590 C1587 1.317 . S
C1590 H1602 0.930 . S
C1591 C1593 1.392 . S
C1591 C1594 1.370 . S
C1591 H1603 0.931 . S
N1592 C1585 1.359 . S
N1592 C1593 1.327 . S
N1592 Tb1595 2.600 . S
C1593 C1591 1.392 . S
C1593 N1592 1.327 . S
C1593 H1600 0.930 . S
C1594 C1589 1.385 . S
C1594 C1591 1.370 . S
C1594 H1613 0.930 . S
Tb1595 N1592 2.600 . S
Tb1595 N1596 2.660 . S
Tb1595 O1629 2.362 . S
Tb1595 O1630 2.421 . S
Tb1595 O1634 2.546 . S
Tb1595 O1635 2.610 . S
Tb1595 O1637 2.320 . S
Tb1595 O1638 2.552 . S
Tb1595 O1639 2.413 . S
Tb1595 C1659 2.833 . S
N1596 C1588 1.360 . S
N1596 Tb1595 2.660 . S
N1596 C1597 1.305 . S
C1597 N1596 1.305 . S
C1597 C1599 1.407 . S
C1597 H1604 0.930 . S
C1598 C1586 1.410 . S
C1598 C1599 1.345 . S
C1598 H1606 0.930 . S
C1599 C1597 1.407 . S
C1599 C1598 1.345 . S
C1599 H1601 0.930 . S
H1600 C1593 0.930 . S
H1601 C1599 0.930 . S
H1602 C1590 0.930 . S
H1603 C1591 0.931 . S
H1604 C1597 0.930 . S
H1605 C1619 0.930 . S
H1606 C1598 0.930 . S
H1607 C1625 0.930 . S
H1608 C1616 0.930 . S
H1609 C1623 0.931 . S
H1610 C1587 0.929 . S
H1611 C1617 0.930 . S
H1612 C1650 0.930 . S
H1613 C1594 0.930 . S
H1614 C1649 0.929 . S
N1615 Tb1584 2.660 . S
N1615 C1616 1.305 . S
N1615 C1620 1.360 . S
C1616 H1608 0.930 . S
C1616 N1615 1.305 . S
C1616 C1619 1.407 . S
C1617 H1611 0.930 . S
C1617 C1618 1.410 . S
C1617 C1619 1.345 . S
C1618 C1617 1.410 . S
C1618 C1620 1.417 . S
C1618 C1650 1.432 . S
C1619 H1605 0.930 . S
C1619 C1616 1.407 . S
C1619 C1617 1.345 . S
C1620 N1615 1.360 . S
C1620 C1618 1.417 . S
C1620 C1624 1.432 . S
H1621 C1626 0.930 . S
N1622 Tb1584 2.600 . S
N1622 C1624 1.359 . S
N1622 C1625 1.327 . S
C1623 H1609 0.931 . S
C1623 C1625 1.392 . S
C1623 C1626 1.370 . S
C1624 C1620 1.432 . S
C1624 N1622 1.359 . S
C1624 C1627 1.414 . S
C1625 H1607 0.930 . S
C1625 N1622 1.327 . S
C1625 C1623 1.392 . S
C1626 H1621 0.930 . S
C1626 C1623 1.370 . S
C1626 C1627 1.385 . S
C1627 C1624 1.414 . S
C1627 C1626 1.385 . S
C1627 C1649 1.444 . S
O1628 Tb1584 2.546 . S
O1628 C1648 1.251 . S
O1629 Tb1584 2.610 . S
O1629 Tb1595 2.362 . S
O1629 C1640 1.283 . S
O1630 Tb1595 2.421 . S
O1630 C1647 1.262 . S
O1631 Tb1584 2.320 . S
O1631 C1647 1.260 . S
O1632 Tb1584 2.552 . S
O1632 C1640 1.243 . S
O1633 Tb1584 2.413 . S
O1633 C1648 1.256 . S
O1634 Tb1595 2.546 . S
O1634 C1659 1.251 . S
O1635 Tb1584 2.362 . S
O1635 Tb1595 2.610 . S
O1635 C1651 1.283 . S
O1636 Tb1584 2.421 . S
O1636 C1658 1.262 . S
O1637 Tb1595 2.320 . S
O1637 C1658 1.260 . S
O1638 Tb1595 2.552 . S
O1638 C1651 1.243 . S
O1639 Tb1595 2.413 . S
O1639 C1659 1.256 . S
C1640 O1629 1.283 . S
C1640 O1632 1.243 . S
C1641 C1643 1.382 . S
C1641 C1645 1.393 . S
C1641 C1648 1.500 . S
C1642 C1643 1.400 . S
C1642 C1644 1.384 . S
C1643 C1641 1.382 . S
C1643 C1642 1.400 . S
C1643 H1660 0.930 . S
C1644 C1642 1.384 . S
C1644 C1646 1.392 . S
C1644 H1661 0.931 . S
C1645 C1641 1.393 . S
C1645 C1646 1.401 . S
C1645 H1662 0.930 . S
C1646 C1644 1.392 . S
C1646 C1645 1.401 . S
C1646 H1663 0.930 . S
C1647 O1630 1.262 . S
C1647 O1631 1.260 . S
C1648 Tb1584 2.833 . S
C1648 O1628 1.251 . S
C1648 O1633 1.256 . S
C1648 C1641 1.500 . S
C1649 H1614 0.929 . S
C1649 C1627 1.444 . S
C1649 C1650 1.317 . S
C1650 H1612 0.930 . S
C1650 C1618 1.432 . S
C1650 C1649 1.317 . S
C1651 O1635 1.283 . S
C1651 O1638 1.243 . S
C1652 C1653 1.382 . S
C1652 C1656 1.393 . S
C1652 C1659 1.500 . S
C1653 C1652 1.382 . S
C1653 C1654 1.400 . S
C1653 H1664 0.930 . S
C1654 C1653 1.400 . S
C1654 C1655 1.384 . S
C1655 C1654 1.384 . S
C1655 C1657 1.392 . S
C1655 H1665 0.931 . S
C1656 C1652 1.393 . S
C1656 C1657 1.401 . S
C1656 H1666 0.930 . S
C1657 C1655 1.392 . S
C1657 C1656 1.401 . S
C1657 H1667 0.930 . S
C1658 O1636 1.262 . S
C1658 O1637 1.260 . S
C1659 Tb1595 2.833 . S
C1659 O1634 1.251 . S
C1659 O1639 1.256 . S
C1659 C1652 1.500 . S
H1660 C1643 0.930 . S
H1661 C1644 0.931 . S
H1662 C1645 0.930 . S
H1663 C1646 0.930 . S
H1664 C1653 0.930 . S
H1665 C1655 0.931 . S
H1666 C1656 0.930 . S
H1667 C1657 0.930 . S
Tb1668 N1699 2.660 . S
Tb1668 N1706 2.600 . S
Tb1668 O1712 2.546 . S
Tb1668 O1713 2.610 . S
Tb1668 O1715 2.320 . S
Tb1668 O1716 2.552 . S
Tb1668 O1717 2.413 . S
Tb1668 O1719 2.362 . S
Tb1668 O1720 2.421 . S
Tb1668 C1732 2.833 . S
C1669 C1672 1.432 . S
C1669 C1673 1.414 . S
C1669 N1676 1.359 . S
C1670 C1672 1.417 . S
C1670 C1674 1.432 . S
C1670 C1682 1.410 . S
C1671 C1673 1.444 . S
C1671 C1674 1.317 . S
C1671 H1694 0.929 . S
C1672 C1669 1.432 . S
C1672 C1670 1.417 . S
C1672 N1680 1.360 . S
C1673 C1669 1.414 . S
C1673 C1671 1.444 . S
C1673 C1678 1.385 . S
C1674 C1670 1.432 . S
C1674 C1671 1.317 . S
C1674 H1686 0.930 . S
C1675 C1677 1.392 . S
C1675 C1678 1.370 . S
C1675 H1687 0.931 . S
N1676 C1669 1.359 . S
N1676 C1677 1.327 . S
N1676 Tb1679 2.600 . S
C1677 C1675 1.392 . S
C1677 N1676 1.327 . S
C1677 H1684 0.930 . S
C1678 C1673 1.385 . S
C1678 C1675 1.370 . S
C1678 H1697 0.930 . S
Tb1679 N1676 2.600 . S
Tb1679 N1680 2.660 . S
Tb1679 O1713 2.362 . S
Tb1679 O1714 2.421 . S
Tb1679 O1718 2.546 . S
Tb1679 O1719 2.610 . S
Tb1679 O1721 2.320 . S
Tb1679 O1722 2.552 . S
Tb1679 O1723 2.413 . S
Tb1679 C1743 2.833 . S
N1680 C1672 1.360 . S
N1680 Tb1679 2.660 . S
N1680 C1681 1.305 . S
C1681 N1680 1.305 . S
C1681 C1683 1.407 . S
C1681 H1688 0.930 . S
C1682 C1670 1.410 . S
C1682 C1683 1.345 . S
C1682 H1690 0.930 . S
C1683 C1681 1.407 . S
C1683 C1682 1.345 . S
C1683 H1685 0.930 . S
H1684 C1677 0.930 . S
H1685 C1683 0.930 . S
H1686 C1674 0.930 . S
H1687 C1675 0.931 . S
H1688 C1681 0.930 . S
H1689 C1703 0.930 . S
H1690 C1682 0.930 . S
H1691 C1709 0.930 . S
H1692 C1700 0.930 . S
H1693 C1707 0.931 . S
H1694 C1671 0.929 . S
H1695 C1701 0.930 . S
H1696 C1734 0.930 . S
H1697 C1678 0.930 . S
H1698 C1733 0.929 . S
N1699 Tb1668 2.660 . S
N1699 C1700 1.305 . S
N1699 C1704 1.360 . S
C1700 H1692 0.930 . S
C1700 N1699 1.305 . S
C1700 C1703 1.407 . S
C1701 H1695 0.930 . S
C1701 C1702 1.410 . S
C1701 C1703 1.345 . S
C1702 C1701 1.410 . S
C1702 C1704 1.417 . S
C1702 C1734 1.432 . S
C1703 H1689 0.930 . S
C1703 C1700 1.407 . S
C1703 C1701 1.345 . S
C1704 N1699 1.360 . S
C1704 C1702 1.417 . S
C1704 C1708 1.432 . S
H1705 C1710 0.930 . S
N1706 Tb1668 2.600 . S
N1706 C1708 1.359 . S
N1706 C1709 1.327 . S
C1707 H1693 0.931 . S
C1707 C1709 1.392 . S
C1707 C1710 1.370 . S
C1708 C1704 1.432 . S
C1708 N1706 1.359 . S
C1708 C1711 1.414 . S
C1709 H1691 0.930 . S
C1709 N1706 1.327 . S
C1709 C1707 1.392 . S
C1710 H1705 0.930 . S
C1710 C1707 1.370 . S
C1710 C1711 1.385 . S
C1711 C1708 1.414 . S
C1711 C1710 1.385 . S
C1711 C1733 1.444 . S
O1712 Tb1668 2.546 . S
O1712 C1732 1.251 . S
O1713 Tb1668 2.610 . S
O1713 Tb1679 2.362 . S
O1713 C1724 1.283 . S
O1714 Tb1679 2.421 . S
O1714 C1731 1.262 . S
O1715 Tb1668 2.320 . S
O1715 C1731 1.260 . S
O1716 Tb1668 2.552 . S
O1716 C1724 1.243 . S
O1717 Tb1668 2.413 . S
O1717 C1732 1.256 . S
O1718 Tb1679 2.546 . S
O1718 C1743 1.251 . S
O1719 Tb1668 2.362 . S
O1719 Tb1679 2.610 . S
O1719 C1735 1.283 . S
O1720 Tb1668 2.421 . S
O1720 C1742 1.262 . S
O1721 Tb1679 2.320 . S
O1721 C1742 1.260 . S
O1722 Tb1679 2.552 . S
O1722 C1735 1.243 . S
O1723 Tb1679 2.413 . S
O1723 C1743 1.256 . S
C1724 O1713 1.283 . S
C1724 O1716 1.243 . S
C1725 C1727 1.382 . S
C1725 C1729 1.393 . S
C1725 C1732 1.500 . S
C1726 C1727 1.400 . S
C1726 C1728 1.384 . S
C1727 C1725 1.382 . S
C1727 C1726 1.400 . S
C1727 H1744 0.930 . S
C1728 C1726 1.384 . S
C1728 C1730 1.392 . S
C1728 H1745 0.931 . S
C1729 C1725 1.393 . S
C1729 C1730 1.401 . S
C1729 H1746 0.930 . S
C1730 C1728 1.392 . S
C1730 C1729 1.401 . S
C1730 H1747 0.930 . S
C1731 O1714 1.262 . S
C1731 O1715 1.260 . S
C1732 Tb1668 2.833 . S
C1732 O1712 1.251 . S
C1732 O1717 1.256 . S
C1732 C1725 1.500 . S
C1733 H1698 0.929 . S
C1733 C1711 1.444 . S
C1733 C1734 1.317 . S
C1734 H1696 0.930 . S
C1734 C1702 1.432 . S
C1734 C1733 1.317 . S
C1735 O1719 1.283 . S
C1735 O1722 1.243 . S
C1736 C1737 1.382 . S
C1736 C1740 1.393 . S
C1736 C1743 1.500 . S
C1737 C1736 1.382 . S
C1737 C1738 1.400 . S
C1737 H1748 0.930 . S
C1738 C1737 1.400 . S
C1738 C1739 1.384 . S
C1739 C1738 1.384 . S
C1739 C1741 1.392 . S
C1739 H1749 0.931 . S
C1740 C1736 1.393 . S
C1740 C1741 1.401 . S
C1740 H1750 0.930 . S
C1741 C1739 1.392 . S
C1741 C1740 1.401 . S
C1741 H1751 0.930 . S
C1742 O1720 1.262 . S
C1742 O1721 1.260 . S
C1743 Tb1679 2.833 . S
C1743 O1718 1.251 . S
C1743 O1723 1.256 . S
C1743 C1736 1.500 . S
H1744 C1727 0.930 . S
H1745 C1728 0.931 . S
H1746 C1729 0.930 . S
H1747 C1730 0.930 . S
H1748 C1737 0.930 . S
H1749 C1739 0.931 . S
H1750 C1740 0.930 . S
H1751 C1741 0.930 . S
Tb1752 N1783 2.660 . S
Tb1752 N1790 2.600 . S
Tb1752 O1796 2.546 . S
Tb1752 O1797 2.610 . S
Tb1752 O1799 2.320 . S
Tb1752 O1800 2.552 . S
Tb1752 O1801 2.413 . S
Tb1752 O1803 2.362 . S
Tb1752 O1804 2.421 . S
Tb1752 C1816 2.833 . S
C1753 C1756 1.432 . S
C1753 C1757 1.414 . S
C1753 N1760 1.359 . S
C1754 C1756 1.417 . S
C1754 C1758 1.432 . S
C1754 C1766 1.410 . S
C1755 C1757 1.444 . S
C1755 C1758 1.317 . S
C1755 H1778 0.929 . S
C1756 C1753 1.432 . S
C1756 C1754 1.417 . S
C1756 N1764 1.360 . S
C1757 C1753 1.414 . S
C1757 C1755 1.444 . S
C1757 C1762 1.385 . S
C1758 C1754 1.432 . S
C1758 C1755 1.317 . S
C1758 H1770 0.930 . S
C1759 C1761 1.392 . S
C1759 C1762 1.370 . S
C1759 H1771 0.931 . S
N1760 C1753 1.359 . S
N1760 C1761 1.327 . S
N1760 Tb1763 2.600 . S
C1761 C1759 1.392 . S
C1761 N1760 1.327 . S
C1761 H1768 0.930 . S
C1762 C1757 1.385 . S
C1762 C1759 1.370 . S
C1762 H1781 0.930 . S
Tb1763 N1760 2.600 . S
Tb1763 N1764 2.660 . S
Tb1763 O1797 2.362 . S
Tb1763 O1798 2.421 . S
Tb1763 O1802 2.546 . S
Tb1763 O1803 2.610 . S
Tb1763 O1805 2.320 . S
Tb1763 O1806 2.552 . S
Tb1763 O1807 2.413 . S
Tb1763 C1827 2.833 . S
N1764 C1756 1.360 . S
N1764 Tb1763 2.660 . S
N1764 C1765 1.305 . S
C1765 N1764 1.305 . S
C1765 C1767 1.407 . S
C1765 H1772 0.930 . S
C1766 C1754 1.410 . S
C1766 C1767 1.345 . S
C1766 H1774 0.930 . S
C1767 C1765 1.407 . S
C1767 C1766 1.345 . S
C1767 H1769 0.930 . S
H1768 C1761 0.930 . S
H1769 C1767 0.930 . S
H1770 C1758 0.930 . S
H1771 C1759 0.931 . S
H1772 C1765 0.930 . S
H1773 C1787 0.930 . S
H1774 C1766 0.930 . S
H1775 C1793 0.930 . S
H1776 C1784 0.930 . S
H1777 C1791 0.931 . S
H1778 C1755 0.929 . S
H1779 C1785 0.930 . S
H1780 C1818 0.930 . S
H1781 C1762 0.930 . S
H1782 C1817 0.929 . S
N1783 Tb1752 2.660 . S
N1783 C1784 1.305 . S
N1783 C1788 1.360 . S
C1784 H1776 0.930 . S
C1784 N1783 1.305 . S
C1784 C1787 1.407 . S
C1785 H1779 0.930 . S
C1785 C1786 1.410 . S
C1785 C1787 1.345 . S
C1786 C1785 1.410 . S
C1786 C1788 1.417 . S
C1786 C1818 1.432 . S
C1787 H1773 0.930 . S
C1787 C1784 1.407 . S
C1787 C1785 1.345 . S
C1788 N1783 1.360 . S
C1788 C1786 1.417 . S
C1788 C1792 1.432 . S
H1789 C1794 0.930 . S
N1790 Tb1752 2.600 . S
N1790 C1792 1.359 . S
N1790 C1793 1.327 . S
C1791 H1777 0.931 . S
C1791 C1793 1.392 . S
C1791 C1794 1.370 . S
C1792 C1788 1.432 . S
C1792 N1790 1.359 . S
C1792 C1795 1.414 . S
C1793 H1775 0.930 . S
C1793 N1790 1.327 . S
C1793 C1791 1.392 . S
C1794 H1789 0.930 . S
C1794 C1791 1.370 . S
C1794 C1795 1.385 . S
C1795 C1792 1.414 . S
C1795 C1794 1.385 . S
C1795 C1817 1.444 . S
O1796 Tb1752 2.546 . S
O1796 C1816 1.251 . S
O1797 Tb1752 2.610 . S
O1797 Tb1763 2.362 . S
O1797 C1808 1.283 . S
O1798 Tb1763 2.421 . S
O1798 C1815 1.262 . S
O1799 Tb1752 2.320 . S
O1799 C1815 1.260 . S
O1800 Tb1752 2.552 . S
O1800 C1808 1.243 . S
O1801 Tb1752 2.413 . S
O1801 C1816 1.256 . S
O1802 Tb1763 2.546 . S
O1802 C1827 1.251 . S
O1803 Tb1752 2.362 . S
O1803 Tb1763 2.610 . S
O1803 C1819 1.283 . S
O1804 Tb1752 2.421 . S
O1804 C1826 1.262 . S
O1805 Tb1763 2.320 . S
O1805 C1826 1.260 . S
O1806 Tb1763 2.552 . S
O1806 C1819 1.243 . S
O1807 Tb1763 2.413 . S
O1807 C1827 1.256 . S
C1808 O1797 1.283 . S
C1808 O1800 1.243 . S
C1809 C1811 1.382 . S
C1809 C1813 1.393 . S
C1809 C1816 1.500 . S
C1810 C1811 1.400 . S
C1810 C1812 1.384 . S
C1811 C1809 1.382 . S
C1811 C1810 1.400 . S
C1811 H1828 0.930 . S
C1812 C1810 1.384 . S
C1812 C1814 1.392 . S
C1812 H1829 0.931 . S
C1813 C1809 1.393 . S
C1813 C1814 1.401 . S
C1813 H1830 0.930 . S
C1814 C1812 1.392 . S
C1814 C1813 1.401 . S
C1814 H1831 0.930 . S
C1815 O1798 1.262 . S
C1815 O1799 1.260 . S
C1816 Tb1752 2.833 . S
C1816 O1796 1.251 . S
C1816 O1801 1.256 . S
C1816 C1809 1.500 . S
C1817 H1782 0.929 . S
C1817 C1795 1.444 . S
C1817 C1818 1.317 . S
C1818 H1780 0.930 . S
C1818 C1786 1.432 . S
C1818 C1817 1.317 . S
C1819 O1803 1.283 . S
C1819 O1806 1.243 . S
C1820 C1821 1.382 . S
C1820 C1824 1.393 . S
C1820 C1827 1.500 . S
C1821 C1820 1.382 . S
C1821 C1822 1.400 . S
C1821 H1832 0.930 . S
C1822 C1821 1.400 . S
C1822 C1823 1.384 . S
C1823 C1822 1.384 . S
C1823 C1825 1.392 . S
C1823 H1833 0.931 . S
C1824 C1820 1.393 . S
C1824 C1825 1.401 . S
C1824 H1834 0.930 . S
C1825 C1823 1.392 . S
C1825 C1824 1.401 . S
C1825 H1835 0.930 . S
C1826 O1804 1.262 . S
C1826 O1805 1.260 . S
C1827 Tb1763 2.833 . S
C1827 O1802 1.251 . S
C1827 O1807 1.256 . S
C1827 C1820 1.500 . S
H1828 C1811 0.930 . S
H1829 C1812 0.931 . S
H1830 C1813 0.930 . S
H1831 C1814 0.930 . S
H1832 C1821 0.930 . S
H1833 C1823 0.931 . S
H1834 C1824 0.930 . S
H1835 C1825 0.930 . S
H1836 C1854 0.951 . S
H1837 C1856 0.951 . S
H1838 C1858 0.950 . S
H1839 C1859 0.950 . S
H1840 C1861 0.950 . S
H1841 C1864 0.950 . S
H1842 C1865 0.950 . S
H1843 C1867 0.950 . S
H1844 C1868 0.950 . S
H1845 C1869 0.951 . S
H1846 C1871 0.951 . S
H1847 C1873 0.950 . S
H1848 C1874 0.950 . S
H1849 C1876 0.950 . S
H1850 C1879 0.950 . S
H1851 C1880 0.950 . S
H1852 C1882 0.950 . S
H1853 C1883 0.950 . S
C1854 H1836 0.951 . S
C1854 C1855 1.366 . S
C1854 C1856 1.388 . S
C1855 C1854 1.366 . S
C1855 C1859 1.385 . S
C1856 H1837 0.951 . S
C1856 C1854 1.388 . S
C1856 C1857 1.366 . S
C1857 C1856 1.366 . S
C1857 C1858 1.414 . S
C1857 C1860 1.499 . S
C1858 H1838 0.950 . S
C1858 C1857 1.414 . S
C1858 C1859 1.374 . S
C1859 H1839 0.950 . S
C1859 C1855 1.385 . S
C1859 C1858 1.374 . S
C1860 C1857 1.499 . S
C1860 C1861 1.373 . S
C1860 C1862 1.389 . S
C1861 H1840 0.950 . S
C1861 C1860 1.373 . S
C1861 C1877 1.377 . S
C1862 C1860 1.389 . S
C1862 C1863 1.524 . S
C1862 C1876 1.377 . S
C1863 C1862 1.524 . S
C1863 C1864 1.397 . S
C1863 C1868 1.363 . S
C1864 H1841 0.950 . S
C1864 C1863 1.397 . S
C1864 C1865 1.334 . S
C1865 H1842 0.950 . S
C1865 C1864 1.334 . S
C1865 C1866 1.287 . S
C1866 C1865 1.287 . S
C1866 C1867 1.524 . S
C1866 H1885 0.913 . S
C1867 H1843 0.950 . S
C1867 C1866 1.524 . S
C1867 C1868 1.415 . S
C1868 H1844 0.950 . S
C1868 C1863 1.363 . S
C1868 C1867 1.415 . S
C1869 H1845 0.951 . S
C1869 C1870 1.366 . S
C1869 C1871 1.388 . S
C1870 C1869 1.366 . S
C1870 C1874 1.385 . S
C1871 H1846 0.951 . S
C1871 C1869 1.388 . S
C1871 C1872 1.366 . S
C1872 C1871 1.366 . S
C1872 C1873 1.414 . S
C1872 C1875 1.499 . S
C1873 H1847 0.950 . S
C1873 C1872 1.414 . S
C1873 C1874 1.374 . S
C1874 H1848 0.950 . S
C1874 C1870 1.385 . S
C1874 C1873 1.374 . S
C1875 C1872 1.499 . S
C1875 C1876 1.373 . S
C1875 C1877 1.389 . S
C1876 H1849 0.950 . S
C1876 C1862 1.377 . S
C1876 C1875 1.373 . S
C1877 C1861 1.377 . S
C1877 C1875 1.389 . S
C1877 C1878 1.524 . S
C1878 C1877 1.524 . S
C1878 C1879 1.397 . S
C1878 C1883 1.363 . S
C1879 H1850 0.950 . S
C1879 C1878 1.397 . S
C1879 C1880 1.334 1_554 S
C1880 H1851 0.950 . S
C1880 C1879 1.334 1_556 S
C1880 C1881 1.287 . S
C1881 C1880 1.287 . S
C1881 C1882 1.524 . S
C1881 H1884 0.999 . S
C1882 H1852 0.950 . S
C1882 C1881 1.524 . S
C1882 C1883 1.415 1_556 S
C1883 H1853 0.950 . S
C1883 C1878 1.363 . S
C1883 C1882 1.415 1_554 S
H1884 C1881 0.999 . S
H1885 C1866 0.913 . S
H1886 C1904 0.951 . S
H1887 C1906 0.951 . S
H1888 C1908 0.950 . S
H1889 C1909 0.950 . S
H1890 C1911 0.950 . S
H1891 C1914 0.950 . S
H1892 C1915 0.950 . S
H1893 C1917 0.950 . S
H1894 C1918 0.950 . S
H1895 C1919 0.951 . S
H1896 C1921 0.951 . S
H1897 C1923 0.950 . S
H1898 C1924 0.950 . S
H1899 C1926 0.950 . S
H1900 C1929 0.950 . S
H1901 C1930 0.950 . S
H1902 C1932 0.950 . S
H1903 C1933 0.950 . S
C1904 H1886 0.951 . S
C1904 C1905 1.366 . S
C1904 C1906 1.388 . S
C1905 C1904 1.366 . S
C1905 C1909 1.385 . S
C1906 H1887 0.951 . S
C1906 C1904 1.388 . S
C1906 C1907 1.366 . S
C1907 C1906 1.366 . S
C1907 C1908 1.414 . S
C1907 C1910 1.499 . S
C1908 H1888 0.950 . S
C1908 C1907 1.414 . S
C1908 C1909 1.374 . S
C1909 H1889 0.950 . S
C1909 C1905 1.385 . S
C1909 C1908 1.374 . S
C1910 C1907 1.499 . S
C1910 C1911 1.373 . S
C1910 C1912 1.389 . S
C1911 H1890 0.950 . S
C1911 C1910 1.373 . S
C1911 C1927 1.377 . S
C1912 C1910 1.389 . S
C1912 C1913 1.524 . S
C1912 C1926 1.377 . S
C1913 C1912 1.524 . S
C1913 C1914 1.397 . S
C1913 C1918 1.363 . S
C1914 H1891 0.950 . S
C1914 C1913 1.397 . S
C1914 C1915 1.334 . S
C1915 H1892 0.950 . S
C1915 C1914 1.334 . S
C1915 C1916 1.287 . S
C1916 C1915 1.287 . S
C1916 C1917 1.524 . S
C1916 H1935 0.913 . S
C1917 H1893 0.950 . S
C1917 C1916 1.524 . S
C1917 C1918 1.415 . S
C1918 H1894 0.950 . S
C1918 C1913 1.363 . S
C1918 C1917 1.415 . S
C1919 H1895 0.951 . S
C1919 C1920 1.366 . S
C1919 C1921 1.388 . S
C1920 C1919 1.366 . S
C1920 C1924 1.385 . S
C1921 H1896 0.951 . S
C1921 C1919 1.388 . S
C1921 C1922 1.366 . S
C1922 C1921 1.366 . S
C1922 C1923 1.414 . S
C1922 C1925 1.499 . S
C1923 H1897 0.950 . S
C1923 C1922 1.414 . S
C1923 C1924 1.374 . S
C1924 H1898 0.950 . S
C1924 C1920 1.385 . S
C1924 C1923 1.374 . S
C1925 C1922 1.499 . S
C1925 C1926 1.373 . S
C1925 C1927 1.389 . S
C1926 H1899 0.950 . S
C1926 C1912 1.377 . S
C1926 C1925 1.373 . S
C1927 C1911 1.377 . S
C1927 C1925 1.389 . S
C1927 C1928 1.524 . S
C1928 C1927 1.524 . S
C1928 C1929 1.397 . S
C1928 C1933 1.363 . S
C1929 H1900 0.950 . S
C1929 C1928 1.397 . S
C1929 C1930 1.334 . S
C1930 H1901 0.950 . S
C1930 C1929 1.334 . S
C1930 C1931 1.287 . S
C1931 C1930 1.287 . S
C1931 C1932 1.524 . S
C1931 H1934 0.999 . S
C1932 H1902 0.950 . S
C1932 C1931 1.524 . S
C1932 C1933 1.415 . S
C1933 H1903 0.950 . S
C1933 C1928 1.363 . S
C1933 C1932 1.415 . S
H1934 C1931 0.999 . S
H1935 C1916 0.913 . S
H1936 C1954 0.951 . S
H1937 C1956 0.951 . S
H1938 C1958 0.950 . S
H1939 C1959 0.950 . S
H1940 C1961 0.950 . S
H1941 C1964 0.950 . S
H1942 C1965 0.950 . S
H1943 C1967 0.950 . S
H1944 C1968 0.950 . S
H1945 C1969 0.951 . S
H1946 C1971 0.951 . S
H1947 C1973 0.950 . S
H1948 C1974 0.950 . S
H1949 C1976 0.950 . S
H1950 C1979 0.950 . S
H1951 C1980 0.950 . S
H1952 C1982 0.950 . S
H1953 C1983 0.950 . S
C1954 H1936 0.951 . S
C1954 C1955 1.366 . S
C1954 C1956 1.388 . S
C1955 C1954 1.366 . S
C1955 C1959 1.385 . S
C1956 H1937 0.951 . S
C1956 C1954 1.388 . S
C1956 C1957 1.366 . S
C1957 C1956 1.366 . S
C1957 C1958 1.414 . S
C1957 C1960 1.499 . S
C1958 H1938 0.950 . S
C1958 C1957 1.414 . S
C1958 C1959 1.374 . S
C1959 H1939 0.950 . S
C1959 C1955 1.385 . S
C1959 C1958 1.374 . S
C1960 C1957 1.499 . S
C1960 C1961 1.373 . S
C1960 C1962 1.389 . S
C1961 H1940 0.950 . S
C1961 C1960 1.373 . S
C1961 C1977 1.377 . S
C1962 C1960 1.389 . S
C1962 C1963 1.524 . S
C1962 C1976 1.377 . S
C1963 C1962 1.524 . S
C1963 C1964 1.397 . S
C1963 C1968 1.363 . S
C1964 H1941 0.950 . S
C1964 C1963 1.397 . S
C1964 C1965 1.334 . S
C1965 H1942 0.950 . S
C1965 C1964 1.334 . S
C1965 C1966 1.287 . S
C1966 C1965 1.287 . S
C1966 C1967 1.524 . S
C1966 H1985 0.913 . S
C1967 H1943 0.950 . S
C1967 C1966 1.524 . S
C1967 C1968 1.415 . S
C1968 H1944 0.950 . S
C1968 C1963 1.363 . S
C1968 C1967 1.415 . S
C1969 H1945 0.951 . S
C1969 C1970 1.366 . S
C1969 C1971 1.388 . S
C1970 C1969 1.366 . S
C1970 C1974 1.385 . S
C1971 H1946 0.951 . S
C1971 C1969 1.388 . S
C1971 C1972 1.366 . S
C1972 C1971 1.366 . S
C1972 C1973 1.414 . S
C1972 C1975 1.499 . S
C1973 H1947 0.950 . S
C1973 C1972 1.414 . S
C1973 C1974 1.374 . S
C1974 H1948 0.950 . S
C1974 C1970 1.385 . S
C1974 C1973 1.374 . S
C1975 C1972 1.499 . S
C1975 C1976 1.373 . S
C1975 C1977 1.389 . S
C1976 H1949 0.950 . S
C1976 C1962 1.377 . S
C1976 C1975 1.373 . S
C1977 C1961 1.377 . S
C1977 C1975 1.389 . S
C1977 C1978 1.524 . S
C1978 C1977 1.524 . S
C1978 C1979 1.397 . S
C1978 C1983 1.363 . S
C1979 H1950 0.950 . S
C1979 C1978 1.397 . S
C1979 C1980 1.334 1_554 S
C1980 H1951 0.950 . S
C1980 C1979 1.334 1_556 S
C1980 C1981 1.287 . S
C1981 C1980 1.287 . S
C1981 C1982 1.524 1_556 S
C1981 H1984 0.999 . S
C1982 H1952 0.950 . S
C1982 C1981 1.524 1_554 S
C1982 C1983 1.415 . S
C1983 H1953 0.950 . S
C1983 C1978 1.363 . S
C1983 C1982 1.415 . S
H1984 C1981 0.999 . S
H1985 C1966 0.913 . S
H1986 C2004 0.951 . S
H1987 C2006 0.951 . S
H1988 C2008 0.950 . S
H1989 C2009 0.950 . S
H1990 C2011 0.950 . S
H1991 C2014 0.950 . S
H1992 C2015 0.950 . S
H1993 C2017 0.950 . S
H1994 C2018 0.950 . S
H1995 C2019 0.951 . S
H1996 C2021 0.951 . S
H1997 C2023 0.950 . S
H1998 C2024 0.950 . S
H1999 C2026 0.950 . S
H2000 C2029 0.950 1_556 S
H2001 C2030 0.950 . S
H2002 C2032 0.950 . S
H2003 C2033 0.966 . S
C2004 H1986 0.951 . S
C2004 C2005 1.366 . S
C2004 C2006 1.388 . S
C2005 C2004 1.366 . S
C2005 C2009 1.385 . S
C2006 H1987 0.951 . S
C2006 C2004 1.388 . S
C2006 C2007 1.366 . S
C2007 C2006 1.366 . S
C2007 C2008 1.414 . S
C2007 C2010 1.499 . S
C2008 H1988 0.950 . S
C2008 C2007 1.414 . S
C2008 C2009 1.374 . S
C2009 H1989 0.950 . S
C2009 C2005 1.385 . S
C2009 C2008 1.374 . S
C2010 C2007 1.499 . S
C2010 C2011 1.373 . S
C2010 C2012 1.389 . S
C2011 H1990 0.950 . S
C2011 C2010 1.373 . S
C2011 C2027 1.377 . S
C2012 C2010 1.389 . S
C2012 C2013 1.524 . S
C2012 C2026 1.377 . S
C2013 C2012 1.524 . S
C2013 C2014 1.397 . S
C2013 C2018 1.363 . S
C2014 H1991 0.950 . S
C2014 C2013 1.397 . S
C2014 C2015 1.334 . S
C2015 H1992 0.950 . S
C2015 C2014 1.334 . S
C2015 C2016 1.287 . S
C2016 C2015 1.287 . S
C2016 C2017 1.524 . S
C2016 H2035 0.913 . S
C2017 H1993 0.950 . S
C2017 C2016 1.524 . S
C2017 C2018 1.415 . S
C2018 H1994 0.950 . S
C2018 C2013 1.363 . S
C2018 C2017 1.415 . S
C2019 H1995 0.951 . S
C2019 C2020 1.366 . S
C2019 C2021 1.388 . S
C2020 C2019 1.366 . S
C2020 C2024 1.385 . S
C2021 H1996 0.951 . S
C2021 C2019 1.388 . S
C2021 C2022 1.366 . S
C2022 C2021 1.366 . S
C2022 C2023 1.414 . S
C2022 C2025 1.499 . S
C2023 H1997 0.950 . S
C2023 C2022 1.414 . S
C2023 C2024 1.374 . S
C2024 H1998 0.950 . S
C2024 C2020 1.385 . S
C2024 C2023 1.374 . S
C2025 C2022 1.499 . S
C2025 C2026 1.373 . S
C2025 C2027 1.389 . S
C2026 H1999 0.950 . S
C2026 C2012 1.377 . S
C2026 C2025 1.373 . S
C2027 C2011 1.377 . S
C2027 C2025 1.389 . S
C2027 C2028 1.524 . S
C2028 C2027 1.524 . S
C2028 C2029 1.397 1_556 S
C2028 C2033 1.374 . S
C2029 H2000 0.950 1_554 S
C2029 C2028 1.397 1_554 S
C2029 C2030 1.334 . S
C2030 H2001 0.950 . S
C2030 C2029 1.334 . S
C2030 C2031 1.287 . S
C2031 C2030 1.287 . S
C2031 C2032 1.524 . S
C2031 H2034 0.999 . S
C2032 H2002 0.950 . S
C2032 C2031 1.524 . S
C2032 C2033 1.389 1_554 S
C2033 H2003 0.966 . S
C2033 C2028 1.374 . S
C2033 C2032 1.389 1_556 S
H2034 C2031 0.999 . S
H2035 C2016 0.913 . S
H2036 C2054 0.951 . S
H2037 C2056 0.951 . S
H2038 C2058 0.950 . S
H2039 C2059 0.950 . S
H2040 C2061 0.950 . S
H2041 C2064 0.950 . S
H2042 C2065 0.950 . S
H2043 C2067 0.950 . S
H2044 C2068 0.950 . S
H2045 C2069 0.951 . S
H2046 C2071 0.951 . S
H2047 C2073 0.950 . S
H2048 C2074 0.950 1_554 S
H2049 C2076 0.950 . S
H2050 C2079 0.950 . S
H2051 C2080 0.950 . S
H2052 C2082 0.950 . S
H2053 C2083 0.950 . S
C2054 H2036 0.951 . S
C2054 C2055 1.366 . S
C2054 C2056 1.388 . S
C2055 C2054 1.366 . S
C2055 C2059 1.385 . S
C2056 H2037 0.951 . S
C2056 C2054 1.388 . S
C2056 C2057 1.366 . S
C2057 C2056 1.366 . S
C2057 C2058 1.414 . S
C2057 C2060 1.499 . S
C2058 H2038 0.950 . S
C2058 C2057 1.414 . S
C2058 C2059 1.374 . S
C2059 H2039 0.950 . S
C2059 C2055 1.385 . S
C2059 C2058 1.374 . S
C2060 C2057 1.499 . S
C2060 C2061 1.373 . S
C2060 C2062 1.389 . S
C2061 H2040 0.950 . S
C2061 C2060 1.373 . S
C2061 C2077 1.377 . S
C2062 C2060 1.389 . S
C2062 C2063 1.524 . S
C2062 C2076 1.377 . S
C2063 C2062 1.524 . S
C2063 C2064 1.397 . S
C2063 C2068 1.363 . S
C2064 H2041 0.950 . S
C2064 C2063 1.397 . S
C2064 C2065 1.334 . S
C2065 H2042 0.950 . S
C2065 C2064 1.334 . S
C2065 C2066 1.287 . S
C2066 C2065 1.287 . S
C2066 C2067 1.524 1_556 S
C2066 H2085 0.913 1_556 S
C2067 H2043 0.950 . S
C2067 C2066 1.524 1_554 S
C2067 C2068 1.415 1_554 S
C2068 H2044 0.950 . S
C2068 C2063 1.363 . S
C2068 C2067 1.415 1_556 S
C2069 H2045 0.951 . S
C2069 C2070 1.366 . S
C2069 C2071 1.388 . S
C2070 C2069 1.366 . S
C2070 C2074 1.385 . S
C2071 H2046 0.951 . S
C2071 C2069 1.388 . S
C2071 C2072 1.366 . S
C2072 C2071 1.366 . S
C2072 C2073 1.414 . S
C2072 C2075 1.499 . S
C2073 H2047 0.950 . S
C2073 C2072 1.414 . S
C2073 C2074 1.374 . S
C2074 H2048 0.950 1_556 S
C2074 C2070 1.385 . S
C2074 C2073 1.374 . S
C2075 C2072 1.499 . S
C2075 C2076 1.373 . S
C2075 C2077 1.389 . S
C2076 H2049 0.950 . S
C2076 C2062 1.377 . S
C2076 C2075 1.373 . S
C2077 C2061 1.377 . S
C2077 C2075 1.389 . S
C2077 C2078 1.524 . S
C2078 C2077 1.524 . S
C2078 C2079 1.397 . S
C2078 C2083 1.363 . S
C2079 H2050 0.950 . S
C2079 C2078 1.397 . S
C2079 C2080 1.334 . S
C2080 H2051 0.950 . S
C2080 C2079 1.334 . S
C2080 C2081 1.287 . S
C2081 C2080 1.287 . S
C2081 C2082 1.524 . S
C2081 H2084 0.999 . S
C2082 H2052 0.950 . S
C2082 C2081 1.524 . S
C2082 C2083 1.415 . S
C2083 H2053 0.950 . S
C2083 C2078 1.363 . S
C2083 C2082 1.415 . S
H2084 C2081 0.999 . S
H2085 C2066 0.913 1_554 S
H2086 C2104 0.951 . S
H2087 C2106 0.951 . S
H2088 C2108 0.950 . S
H2089 C2109 0.950 . S
H2090 C2111 0.950 . S
H2091 C2114 0.950 . S
H2092 C2115 0.950 . S
H2093 C2117 0.950 . S
H2094 C2118 0.950 . S
H2095 C2119 0.951 . S
H2096 C2121 0.951 . S
H2097 C2123 0.950 . S
H2098 C2124 0.950 . S
H2099 C2126 0.950 . S
H2100 C2129 0.950 . S
H2101 C2130 0.950 . S
H2102 C2132 0.950 1_556 S
H2103 C2133 0.950 . S
C2104 H2086 0.951 . S
C2104 C2105 1.366 . S
C2104 C2106 1.388 . S
C2105 C2104 1.366 . S
C2105 C2109 1.385 . S
C2106 H2087 0.951 . S
C2106 C2104 1.388 . S
C2106 C2107 1.366 . S
C2107 C2106 1.366 . S
C2107 C2108 1.414 . S
C2107 C2110 1.499 . S
C2108 H2088 0.950 . S
C2108 C2107 1.414 . S
C2108 C2109 1.374 . S
C2109 H2089 0.950 . S
C2109 C2105 1.385 . S
C2109 C2108 1.374 . S
C2110 C2107 1.499 . S
C2110 C2111 1.373 . S
C2110 C2112 1.389 . S
C2111 H2090 0.950 . S
C2111 C2110 1.373 . S
C2111 C2127 1.377 . S
C2112 C2110 1.389 . S
C2112 C2113 1.524 . S
C2112 C2126 1.377 . S
C2113 C2112 1.524 . S
C2113 C2114 1.397 . S
C2113 C2118 1.363 . S
C2114 H2091 0.950 . S
C2114 C2113 1.397 . S
C2114 C2115 1.334 . S
C2115 H2092 0.950 . S
C2115 C2114 1.334 . S
C2115 C2116 1.287 . S
C2116 C2115 1.287 . S
C2116 C2117 1.524 . S
C2116 H2135 0.913 . S
C2117 H2093 0.950 . S
C2117 C2116 1.524 . S
C2117 C2118 1.415 . S
C2118 H2094 0.950 . S
C2118 C2113 1.363 . S
C2118 C2117 1.415 . S
C2119 H2095 0.951 . S
C2119 C2120 1.366 . S
C2119 C2121 1.388 . S
C2120 C2119 1.366 . S
C2120 C2124 1.385 . S
C2121 H2096 0.951 . S
C2121 C2119 1.388 . S
C2121 C2122 1.366 . S
C2122 C2121 1.366 . S
C2122 C2123 1.414 . S
C2122 C2125 1.499 . S
C2123 H2097 0.950 . S
C2123 C2122 1.414 . S
C2123 C2124 1.374 . S
C2124 H2098 0.950 . S
C2124 C2120 1.385 . S
C2124 C2123 1.374 . S
C2125 C2122 1.499 . S
C2125 C2126 1.373 . S
C2125 C2127 1.389 . S
C2126 H2099 0.950 . S
C2126 C2112 1.377 . S
C2126 C2125 1.373 . S
C2127 C2111 1.377 . S
C2127 C2125 1.389 . S
C2127 C2128 1.524 . S
C2128 C2127 1.524 . S
C2128 C2129 1.397 1_556 S
C2128 C2133 1.363 . S
C2129 H2100 0.950 . S
C2129 C2128 1.397 1_554 S
C2129 C2130 1.334 . S
C2130 H2101 0.950 . S
C2130 C2129 1.334 . S
C2130 C2131 1.287 . S
C2131 C2130 1.287 . S
C2131 C2132 1.519 . S
C2131 H2134 0.999 . S
C2132 H2102 0.950 1_554 S
C2132 C2131 1.519 . S
C2132 C2133 1.420 1_554 S
C2133 H2103 0.950 . S
C2133 C2128 1.363 . S
C2133 C2132 1.420 1_556 S
H2134 C2131 0.999 . S
H2135 C2116 0.913 . S
H2136 C2154 0.951 . S
H2137 C2156 0.951 . S
H2138 C2158 0.950 . S
H2139 C2159 0.950 . S
H2140 C2161 0.950 . S
H2141 C2164 0.950 . S
H2142 C2165 0.950 . S
H2143 C2167 0.950 . S
H2144 C2168 0.950 . S
H2145 C2169 0.951 . S
H2146 C2171 0.951 . S
H2147 C2173 0.950 . S
H2148 C2174 0.950 1_554 S
H2149 C2176 0.950 . S
H2150 C2179 0.950 . S
H2151 C2180 0.950 . S
H2152 C2182 0.950 . S
H2153 C2183 0.950 . S
C2154 H2136 0.951 . S
C2154 C2155 1.366 . S
C2154 C2156 1.388 . S
C2155 C2154 1.366 . S
C2155 C2159 1.385 . S
C2156 H2137 0.951 . S
C2156 C2154 1.388 . S
C2156 C2157 1.366 . S
C2157 C2156 1.366 . S
C2157 C2158 1.414 . S
C2157 C2160 1.499 . S
C2158 H2138 0.950 . S
C2158 C2157 1.414 . S
C2158 C2159 1.374 . S
C2159 H2139 0.950 . S
C2159 C2155 1.385 . S
C2159 C2158 1.374 . S
C2160 C2157 1.499 . S
C2160 C2161 1.373 . S
C2160 C2162 1.389 . S
C2161 H2140 0.950 . S
C2161 C2160 1.373 . S
C2161 C2177 1.377 . S
C2162 C2160 1.389 . S
C2162 C2163 1.524 . S
C2162 C2176 1.377 . S
C2163 C2162 1.524 . S
C2163 C2164 1.397 . S
C2163 C2168 1.363 . S
C2164 H2141 0.950 . S
C2164 C2163 1.397 . S
C2164 C2165 1.334 . S
C2165 H2142 0.950 . S
C2165 C2164 1.334 . S
C2165 C2166 1.236 1_556 S
C2166 C2165 1.236 1_554 S
C2166 C2167 1.543 . S
C2166 H2185 0.949 . S
C2167 H2143 0.950 . S
C2167 C2166 1.543 . S
C2167 C2168 1.415 1_554 S
C2168 H2144 0.950 . S
C2168 C2163 1.363 . S
C2168 C2167 1.415 1_556 S
C2169 H2145 0.951 . S
C2169 C2170 1.366 . S
C2169 C2171 1.388 . S
C2170 C2169 1.366 . S
C2170 C2174 1.385 . S
C2171 H2146 0.951 . S
C2171 C2169 1.388 . S
C2171 C2172 1.366 . S
C2172 C2171 1.366 . S
C2172 C2173 1.414 . S
C2172 C2175 1.499 . S
C2173 H2147 0.950 . S
C2173 C2172 1.414 . S
C2173 C2174 1.374 . S
C2174 H2148 0.950 1_556 S
C2174 C2170 1.385 . S
C2174 C2173 1.374 . S
C2175 C2172 1.499 . S
C2175 C2176 1.373 . S
C2175 C2177 1.389 . S
C2176 H2149 0.950 . S
C2176 C2162 1.377 . S
C2176 C2175 1.373 . S
C2177 C2161 1.377 . S
C2177 C2175 1.389 . S
C2177 C2178 1.524 . S
C2178 C2177 1.524 . S
C2178 C2179 1.397 . S
C2178 C2183 1.363 . S
C2179 H2150 0.950 . S
C2179 C2178 1.397 . S
C2179 C2180 1.334 . S
C2180 H2151 0.950 . S
C2180 C2179 1.334 . S
C2180 C2181 1.287 . S
C2181 C2180 1.287 . S
C2181 C2182 1.524 . S
C2181 H2184 0.999 . S
C2182 H2152 0.950 . S
C2182 C2181 1.524 . S
C2182 C2183 1.415 . S
C2183 H2153 0.950 . S
C2183 C2178 1.363 . S
C2183 C2182 1.415 . S
H2184 C2181 0.999 . S
H2185 C2166 0.949 . S
H2186 C2204 0.951 . S
H2187 C2206 0.951 . S
H2188 C2208 0.950 . S
H2189 C2209 0.950 . S
H2190 C2211 0.950 . S
H2191 C2214 0.950 . S
H2192 C2215 0.950 . S
H2193 C2217 0.950 . S
H2194 C2218 0.950 . S
H2195 C2219 0.951 . S
H2196 C2221 0.951 . S
H2197 C2223 0.950 . S
H2198 C2224 0.950 . S
H2199 C2226 0.950 . S
H2200 C2229 0.939 1_556 S
H2201 C2230 0.950 . S
H2202 C2232 0.950 . S
H2203 C2233 0.950 . S
C2204 H2186 0.951 . S
C2204 C2205 1.366 . S
C2204 C2206 1.388 . S
C2205 C2204 1.366 . S
C2205 C2209 1.385 . S
C2206 H2187 0.951 . S
C2206 C2204 1.388 . S
C2206 C2207 1.366 . S
C2207 C2206 1.366 . S
C2207 C2208 1.414 . S
C2207 C2210 1.499 . S
C2208 H2188 0.950 . S
C2208 C2207 1.414 . S
C2208 C2209 1.374 . S
C2209 H2189 0.950 . S
C2209 C2205 1.385 . S
C2209 C2208 1.374 . S
C2210 C2207 1.499 . S
C2210 C2211 1.373 . S
C2210 C2212 1.389 . S
C2211 H2190 0.950 . S
C2211 C2210 1.373 . S
C2211 C2227 1.377 . S
C2212 C2210 1.389 . S
C2212 C2213 1.524 . S
C2212 C2226 1.377 . S
C2213 C2212 1.524 . S
C2213 C2214 1.397 . S
C2213 C2218 1.363 . S
C2214 H2191 0.950 . S
C2214 C2213 1.397 . S
C2214 C2215 1.334 . S
C2215 H2192 0.950 . S
C2215 C2214 1.334 . S
C2215 C2216 1.287 . S
C2216 C2215 1.287 . S
C2216 C2217 1.524 . S
C2216 H2235 0.913 . S
C2217 H2193 0.950 . S
C2217 C2216 1.524 . S
C2217 C2218 1.415 . S
C2218 H2194 0.950 . S
C2218 C2213 1.363 . S
C2218 C2217 1.415 . S
C2219 H2195 0.951 . S
C2219 C2220 1.366 . S
C2219 C2221 1.388 . S
C2220 C2219 1.366 . S
C2220 C2224 1.385 . S
C2221 H2196 0.951 . S
C2221 C2219 1.388 . S
C2221 C2222 1.366 . S
C2222 C2221 1.366 . S
C2222 C2223 1.414 . S
C2222 C2225 1.499 . S
C2223 H2197 0.950 . S
C2223 C2222 1.414 . S
C2223 C2224 1.374 . S
C2224 H2198 0.950 . S
C2224 C2220 1.385 . S
C2224 C2223 1.374 . S
C2225 C2222 1.499 . S
C2225 C2226 1.373 . S
C2225 C2227 1.389 . S
C2226 H2199 0.950 . S
C2226 C2212 1.377 . S
C2226 C2225 1.373 . S
C2227 C2211 1.377 . S
C2227 C2225 1.389 . S
C2227 C2228 1.524 . S
C2228 C2227 1.524 . S
C2228 C2229 1.381 1_556 S
C2228 C2233 1.363 . S
C2229 H2200 0.939 1_554 S
C2229 C2228 1.381 1_554 S
C2229 C2230 1.360 . S
C2230 H2201 0.950 . S
C2230 C2229 1.360 . S
C2230 C2231 1.287 . S
C2231 C2230 1.287 . S
C2231 C2232 1.524 . S
C2231 H2234 0.999 . S
C2232 H2202 0.950 . S
C2232 C2231 1.524 . S
C2232 C2233 1.415 1_554 S
C2233 H2203 0.950 . S
C2233 C2228 1.363 . S
C2233 C2232 1.415 1_556 S
H2234 C2231 0.999 . S
H2235 C2216 0.913 . S
H2236 C2254 0.951 . S
H2237 C2256 0.951 . S
H2238 C2258 0.950 . S
H2239 C2259 0.950 . S
H2240 C2261 0.950 . S
H2241 C2264 0.950 . S
H2242 C2265 0.950 . S
H2243 C2267 0.950 . S
H2244 C2268 0.950 . S
H2245 C2269 0.951 1_554 S
H2246 C2271 0.951 . S
H2247 C2273 0.950 . S
H2248 C2274 0.950 . S
H2249 C2276 0.950 . S
H2250 C2279 0.950 . S
H2251 C2280 0.950 . S
H2252 C2282 0.950 . S
H2253 C2283 0.950 . S
C2254 H2236 0.951 . S
C2254 C2255 1.366 . S
C2254 C2256 1.388 . S
C2255 C2254 1.366 . S
C2255 C2259 1.385 . S
C2256 H2237 0.951 . S
C2256 C2254 1.388 . S
C2256 C2257 1.366 . S
C2257 C2256 1.366 . S
C2257 C2258 1.414 . S
C2257 C2260 1.499 . S
C2258 H2238 0.950 . S
C2258 C2257 1.414 . S
C2258 C2259 1.374 . S
C2259 H2239 0.950 . S
C2259 C2255 1.385 . S
C2259 C2258 1.374 . S
C2260 C2257 1.499 . S
C2260 C2261 1.373 . S
C2260 C2262 1.389 . S
C2261 H2240 0.950 . S
C2261 C2260 1.373 . S
C2261 C2277 1.377 . S
C2262 C2260 1.389 . S
C2262 C2263 1.524 . S
C2262 C2276 1.377 . S
C2263 C2262 1.524 . S
C2263 C2264 1.397 . S
C2263 C2268 1.363 . S
C2264 H2241 0.950 . S
C2264 C2263 1.397 . S
C2264 C2265 1.334 . S
C2265 H2242 0.950 . S
C2265 C2264 1.334 . S
C2265 C2266 1.287 . S
C2266 C2265 1.287 . S
C2266 C2267 1.524 . S
C2266 H2285 0.913 . S
C2267 H2243 0.950 . S
C2267 C2266 1.524 . S
C2267 C2268 1.415 . S
C2268 H2244 0.950 . S
C2268 C2263 1.363 . S
C2268 C2267 1.415 . S
C2269 H2245 0.951 1_556 S
C2269 C2270 1.366 . S
C2269 C2271 1.388 . S
C2270 C2269 1.366 . S
C2270 C2274 1.385 . S
C2271 H2246 0.951 . S
C2271 C2269 1.388 . S
C2271 C2272 1.366 . S
C2272 C2271 1.366 . S
C2272 C2273 1.414 . S
C2272 C2275 1.499 . S
C2273 H2247 0.950 . S
C2273 C2272 1.414 . S
C2273 C2274 1.374 . S
C2274 H2248 0.950 . S
C2274 C2270 1.385 . S
C2274 C2273 1.374 . S
C2275 C2272 1.499 . S
C2275 C2276 1.373 . S
C2275 C2277 1.389 . S
C2276 H2249 0.950 . S
C2276 C2262 1.377 . S
C2276 C2275 1.373 . S
C2277 C2261 1.377 . S
C2277 C2275 1.389 . S
C2277 C2278 1.524 . S
C2278 C2277 1.524 . S
C2278 C2279 1.397 . S
C2278 C2283 1.363 1_556 S
C2279 H2250 0.950 . S
C2279 C2278 1.397 . S
C2279 C2280 1.334 1_556 S
C2280 H2251 0.950 . S
C2280 C2279 1.334 1_554 S
C2280 C2281 1.287 . S
C2281 C2280 1.287 . S
C2281 C2282 1.524 . S
C2281 H2284 0.999 . S
C2282 H2252 0.950 . S
C2282 C2281 1.524 . S
C2282 C2283 1.415 . S
C2283 H2253 0.950 . S
C2283 C2278 1.363 1_554 S
C2283 C2282 1.415 . S
H2284 C2281 0.999 . S
H2285 C2266 0.913 . S
H2286 C2304 0.951 . S
H2287 C2306 0.951 . S
H2288 C2308 0.950 . S
H2289 C2309 0.950 . S
H2290 C2311 0.950 . S
H2291 C2314 0.950 . S
H2292 C2315 0.950 . S
H2293 C2317 0.932 1_556 S
H2294 C2318 0.950 . S
H2295 C2319 0.951 . S
H2296 C2321 0.951 . S
H2297 C2323 0.950 . S
H2298 C2324 0.950 . S
H2299 C2326 0.950 . S
H2300 C2329 0.950 . S
H2301 C2330 0.950 . S
H2302 C2332 0.950 . S
H2303 C2333 0.950 . S
C2304 H2286 0.951 . S
C2304 C2305 1.366 . S
C2304 C2306 1.388 . S
C2305 C2304 1.366 . S
C2305 C2309 1.385 . S
C2306 H2287 0.951 . S
C2306 C2304 1.388 . S
C2306 C2307 1.366 . S
C2307 C2306 1.366 . S
C2307 C2308 1.414 . S
C2307 C2310 1.499 . S
C2308 H2288 0.950 . S
C2308 C2307 1.414 . S
C2308 C2309 1.374 . S
C2309 H2289 0.950 . S
C2309 C2305 1.385 . S
C2309 C2308 1.374 . S
C2310 C2307 1.499 . S
C2310 C2311 1.373 . S
C2310 C2312 1.389 . S
C2311 H2290 0.950 . S
C2311 C2310 1.373 . S
C2311 C2327 1.377 . S
C2312 C2310 1.389 . S
C2312 C2313 1.524 . S
C2312 C2326 1.377 . S
C2313 C2312 1.524 . S
C2313 C2314 1.397 . S
C2313 C2318 1.363 . S
C2314 H2291 0.950 . S
C2314 C2313 1.397 . S
C2314 C2315 1.334 . S
C2315 H2292 0.950 . S
C2315 C2314 1.334 . S
C2315 C2316 1.287 . S
C2316 C2315 1.287 . S
C2316 C2317 1.527 . S
C2316 H2335 0.913 1_554 S
C2317 H2293 0.932 1_554 S
C2317 C2316 1.527 . S
C2317 C2318 1.432 . S
C2318 H2294 0.950 . S
C2318 C2313 1.363 . S
C2318 C2317 1.432 . S
C2319 H2295 0.951 . S
C2319 C2320 1.366 . S
C2319 C2321 1.388 . S
C2320 C2319 1.366 . S
C2320 C2324 1.385 . S
C2321 H2296 0.951 . S
C2321 C2319 1.388 . S
C2321 C2322 1.366 . S
C2322 C2321 1.366 . S
C2322 C2323 1.414 . S
C2322 C2325 1.499 . S
C2323 H2297 0.950 . S
C2323 C2322 1.414 . S
C2323 C2324 1.374 . S
C2324 H2298 0.950 . S
C2324 C2320 1.385 . S
C2324 C2323 1.374 . S
C2325 C2322 1.499 . S
C2325 C2326 1.373 . S
C2325 C2327 1.389 . S
C2326 H2299 0.950 . S
C2326 C2312 1.377 . S
C2326 C2325 1.373 . S
C2327 C2311 1.377 . S
C2327 C2325 1.389 . S
C2327 C2328 1.524 . S
C2328 C2327 1.524 . S
C2328 C2329 1.397 . S
C2328 C2333 1.363 . S
C2329 H2300 0.950 . S
C2329 C2328 1.397 . S
C2329 C2330 1.334 . S
C2330 H2301 0.950 . S
C2330 C2329 1.334 . S
C2330 C2331 1.287 . S
C2331 C2330 1.287 . S
C2331 C2332 1.524 . S
C2331 H2334 0.999 . S
C2332 H2302 0.950 . S
C2332 C2331 1.524 . S
C2332 C2333 1.415 . S
C2333 H2303 0.950 . S
C2333 C2328 1.363 . S
C2333 C2332 1.415 . S
H2334 C2331 0.999 . S
H2335 C2316 0.913 1_556 S
H2336 C2354 0.951 . S
H2337 C2356 0.951 . S
H2338 C2358 0.950 . S
H2339 C2359 0.950 . S
H2340 C2361 0.950 . S
H2341 C2364 0.950 . S
H2342 C2365 0.950 . S
H2343 C2367 0.950 . S
H2344 C2368 0.950 . S
H2345 C2369 0.951 . S
H2346 C2371 0.951 . S
H2347 C2373 0.950 . S
H2348 C2374 0.996 . S
H2349 C2376 0.950 . S
H2350 C2379 0.950 . S
H2351 C2380 0.950 . S
H2352 C2382 0.950 . S
H2353 C2383 0.950 . S
C2354 H2336 0.951 . S
C2354 C2355 1.366 . S
C2354 C2356 1.388 . S
C2355 C2354 1.366 . S
C2355 C2359 1.385 . S
C2356 H2337 0.951 . S
C2356 C2354 1.388 . S
C2356 C2357 1.366 . S
C2357 C2356 1.366 . S
C2357 C2358 1.414 . S
C2357 C2360 1.499 . S
C2358 H2338 0.950 . S
C2358 C2357 1.414 . S
C2358 C2359 1.374 . S
C2359 H2339 0.950 . S
C2359 C2355 1.385 . S
C2359 C2358 1.374 . S
C2360 C2357 1.499 . S
C2360 C2361 1.373 . S
C2360 C2362 1.389 . S
C2361 H2340 0.950 . S
C2361 C2360 1.373 . S
C2361 C2377 1.377 . S
C2362 C2360 1.389 . S
C2362 C2363 1.524 . S
C2362 C2376 1.377 . S
C2363 C2362 1.524 . S
C2363 C2364 1.397 . S
C2363 C2368 1.363 . S
C2364 H2341 0.950 . S
C2364 C2363 1.397 . S
C2364 C2365 1.334 . S
C2365 H2342 0.950 . S
C2365 C2364 1.334 . S
C2365 C2366 1.287 . S
C2366 C2365 1.287 . S
C2366 C2367 1.524 . S
C2366 H2385 0.913 . S
C2367 H2343 0.950 . S
C2367 C2366 1.524 . S
C2367 C2368 1.415 . S
C2368 H2344 0.950 . S
C2368 C2363 1.363 . S
C2368 C2367 1.415 . S
C2369 H2345 0.951 . S
C2369 C2370 1.366 . S
C2369 C2371 1.388 . S
C2370 C2369 1.366 . S
C2370 C2374 1.385 . S
C2371 H2346 0.951 . S
C2371 C2369 1.388 . S
C2371 C2372 1.366 . S
C2372 C2371 1.366 . S
C2372 C2373 1.414 . S
C2372 C2375 1.499 . S
C2373 H2347 0.950 . S
C2373 C2372 1.414 . S
C2373 C2374 1.374 . S
C2374 H2348 0.996 . S
C2374 C2370 1.385 . S
C2374 C2373 1.374 . S
C2375 C2372 1.499 . S
C2375 C2376 1.373 . S
C2375 C2377 1.389 . S
C2376 H2349 0.950 . S
C2376 C2362 1.377 . S
C2376 C2375 1.373 . S
C2377 C2361 1.377 . S
C2377 C2375 1.389 . S
C2377 C2378 1.524 . S
C2378 C2377 1.524 . S
C2378 C2379 1.397 . S
C2378 C2383 1.363 . S
C2379 H2350 0.950 . S
C2379 C2378 1.397 . S
C2379 C2380 1.334 . S
C2380 H2351 0.950 . S
C2380 C2379 1.334 . S
C2380 C2381 1.287 . S
C2381 C2380 1.287 . S
C2381 C2382 1.524 . S
C2381 H2384 0.999 . S
C2382 H2352 0.950 . S
C2382 C2381 1.524 . S
C2382 C2383 1.415 . S
C2383 H2353 0.950 . S
C2383 C2378 1.363 . S
C2383 C2382 1.415 . S
H2384 C2381 0.999 . S
H2385 C2366 0.913 . S
H2386 C2404 0.951 . S
H2387 C2406 0.951 . S
H2388 C2408 0.950 . S
H2389 C2409 0.950 . S
H2390 C2411 0.950 . S
H2391 C2414 0.950 . S
H2392 C2415 0.950 . S
H2393 C2417 0.950 . S
H2394 C2418 0.950 . S
H2395 C2419 0.951 . S
H2396 C2421 0.951 . S
H2397 C2423 0.950 . S
H2398 C2424 0.950 . S
H2399 C2426 0.950 . S
H2400 C2429 0.950 . S
H2401 C2430 0.950 . S
H2402 C2432 0.950 . S
H2403 C2433 0.950 . S
C2404 H2386 0.951 . S
C2404 C2405 1.366 . S
C2404 C2406 1.388 . S
C2405 C2404 1.366 . S
C2405 C2409 1.385 . S
C2406 H2387 0.951 . S
C2406 C2404 1.388 . S
C2406 C2407 1.366 . S
C2407 C2406 1.366 . S
C2407 C2408 1.414 . S
C2407 C2410 1.499 . S
C2408 H2388 0.950 . S
C2408 C2407 1.414 . S
C2408 C2409 1.374 . S
C2409 H2389 0.950 . S
C2409 C2405 1.385 . S
C2409 C2408 1.374 . S
C2410 C2407 1.499 . S
C2410 C2411 1.373 . S
C2410 C2412 1.389 . S
C2411 H2390 0.950 . S
C2411 C2410 1.373 . S
C2411 C2427 1.377 . S
C2412 C2410 1.389 . S
C2412 C2413 1.524 . S
C2412 C2426 1.377 . S
C2413 C2412 1.524 . S
C2413 C2414 1.397 . S
C2413 C2418 1.363 . S
C2414 H2391 0.950 . S
C2414 C2413 1.397 . S
C2414 C2415 1.334 . S
C2415 H2392 0.950 . S
C2415 C2414 1.334 . S
C2415 C2416 1.287 . S
C2416 C2415 1.287 . S
C2416 C2417 1.524 . S
C2416 H2435 0.913 . S
C2417 H2393 0.950 . S
C2417 C2416 1.524 . S
C2417 C2418 1.415 . S
C2418 H2394 0.950 . S
C2418 C2413 1.363 . S
C2418 C2417 1.415 . S
C2419 H2395 0.951 . S
C2419 C2420 1.366 . S
C2419 C2421 1.388 . S
C2420 C2419 1.366 . S
C2420 C2424 1.385 . S
C2421 H2396 0.951 . S
C2421 C2419 1.388 . S
C2421 C2422 1.366 . S
C2422 C2421 1.366 . S
C2422 C2423 1.414 . S
C2422 C2425 1.499 . S
C2423 H2397 0.950 . S
C2423 C2422 1.414 . S
C2423 C2424 1.374 . S
C2424 H2398 0.950 . S
C2424 C2420 1.385 . S
C2424 C2423 1.374 . S
C2425 C2422 1.499 . S
C2425 C2426 1.373 . S
C2425 C2427 1.389 . S
C2426 H2399 0.950 . S
C2426 C2412 1.377 . S
C2426 C2425 1.373 . S
C2427 C2411 1.377 . S
C2427 C2425 1.389 . S
C2427 C2428 1.524 . S
C2428 C2427 1.524 . S
C2428 C2429 1.397 . S
C2428 C2433 1.363 . S
C2429 H2400 0.950 . S
C2429 C2428 1.397 . S
C2429 C2430 1.334 1_554 S
C2430 H2401 0.950 . S
C2430 C2429 1.334 1_556 S
C2430 C2431 1.287 . S
C2431 C2430 1.287 . S
C2431 C2432 1.524 . S
C2431 H2434 0.999 . S
C2432 H2402 0.950 . S
C2432 C2431 1.524 . S
C2432 C2433 1.415 1_556 S
C2433 H2403 0.950 . S
C2433 C2428 1.363 . S
C2433 C2432 1.415 1_554 S
H2434 C2431 0.999 . S
H2435 C2416 0.913 . S
H2436 C2454 0.951 . S
H2437 C2456 0.951 . S
H2438 C2458 1.016 . S
H2439 C2459 0.950 . S
H2440 C2461 0.950 . S
H2441 C2464 0.950 1_455 S
H2442 C2465 0.950 . S
H2443 C2467 0.950 . S
H2444 C2468 0.950 . S
H2445 C2469 0.951 . S
H2446 C2471 0.951 . S
H2447 C2473 0.950 . S
H2448 C2474 0.950 . S
H2449 C2476 0.950 . S
H2450 C2479 0.950 . S
H2451 C2480 0.950 . S
H2452 C2482 0.950 . S
H2453 C2483 0.950 . S
C2454 H2436 0.951 . S
C2454 C2455 1.366 . S
C2454 C2456 1.388 . S
C2455 C2454 1.366 . S
C2455 C2459 1.385 . S
C2456 H2437 0.951 . S
C2456 C2454 1.388 . S
C2456 C2457 1.366 1_655 S
C2457 C2456 1.366 1_455 S
C2457 C2458 1.396 . S
C2457 C2460 1.499 . S
C2458 H2438 1.016 . S
C2458 C2457 1.396 . S
C2458 C2459 1.329 1_455 S
C2459 H2439 0.950 . S
C2459 C2455 1.385 . S
C2459 C2458 1.329 1_655 S
C2460 C2457 1.499 . S
C2460 C2461 1.373 . S
C2460 C2462 1.389 . S
C2461 H2440 0.950 . S
C2461 C2460 1.373 . S
C2461 C2477 1.377 . S
C2462 C2460 1.389 . S
C2462 C2463 1.524 . S
C2462 C2476 1.377 . S
C2463 C2462 1.524 . S
C2463 C2464 1.397 1_455 S
C2463 C2468 1.363 . S
C2464 H2441 0.950 1_655 S
C2464 C2463 1.397 1_655 S
C2464 C2465 1.334 . S
C2465 H2442 0.950 . S
C2465 C2464 1.334 . S
C2465 C2466 1.287 . S
C2466 C2465 1.287 . S
C2466 C2467 1.524 . S
C2466 H2485 0.913 . S
C2467 H2443 0.950 . S
C2467 C2466 1.524 . S
C2467 C2468 1.415 1_655 S
C2468 H2444 0.950 . S
C2468 C2463 1.363 . S
C2468 C2467 1.415 1_455 S
C2469 H2445 0.951 . S
C2469 C2470 1.366 . S
C2469 C2471 1.388 . S
C2470 C2469 1.366 . S
C2470 C2474 1.385 . S
C2471 H2446 0.951 . S
C2471 C2469 1.388 . S
C2471 C2472 1.366 . S
C2472 C2471 1.366 . S
C2472 C2473 1.414 . S
C2472 C2475 1.499 . S
C2473 H2447 0.950 . S
C2473 C2472 1.414 . S
C2473 C2474 1.374 . S
C2474 H2448 0.950 . S
C2474 C2470 1.385 . S
C2474 C2473 1.374 . S
C2475 C2472 1.499 . S
C2475 C2476 1.373 . S
C2475 C2477 1.389 . S
C2476 H2449 0.950 . S
C2476 C2462 1.377 . S
C2476 C2475 1.373 . S
C2477 C2461 1.377 . S
C2477 C2475 1.389 . S
C2477 C2478 1.524 . S
C2478 C2477 1.524 . S
C2478 C2479 1.397 . S
C2478 C2483 1.363 . S
C2479 H2450 0.950 . S
C2479 C2478 1.397 . S
C2479 C2480 1.334 . S
C2480 H2451 0.950 . S
C2480 C2479 1.334 . S
C2480 C2481 1.287 . S
C2481 C2480 1.287 . S
C2481 C2482 1.524 . S
C2481 H2484 0.999 . S
C2482 H2452 0.950 . S
C2482 C2481 1.524 . S
C2482 C2483 1.415 . S
C2483 H2453 0.950 . S
C2483 C2478 1.363 . S
C2483 C2482 1.415 . S
H2484 C2481 0.999 . S
H2485 C2466 0.913 . S
H2486 C2504 0.951 . S
H2487 C2506 0.951 . S
H2488 C2508 0.950 . S
H2489 C2509 0.950 . S
H2490 C2511 0.950 . S
H2491 C2514 0.950 . S
H2492 C2515 0.950 . S
H2493 C2517 0.950 . S
H2494 C2518 0.950 . S
H2495 C2519 0.951 . S
H2496 C2521 0.951 . S
H2497 C2523 0.950 . S
H2498 C2524 0.950 . S
H2499 C2526 0.950 . S
H2500 C2529 0.950 . S
H2501 C2530 0.950 . S
H2502 C2532 0.950 . S
H2503 C2533 0.950 . S
C2504 H2486 0.951 . S
C2504 C2505 1.366 . S
C2504 C2506 1.388 . S
C2505 C2504 1.366 . S
C2505 C2509 1.385 . S
C2506 H2487 0.951 . S
C2506 C2504 1.388 . S
C2506 C2507 1.366 . S
C2507 C2506 1.366 . S
C2507 C2508 1.414 . S
C2507 C2510 1.499 . S
C2508 H2488 0.950 . S
C2508 C2507 1.414 . S
C2508 C2509 1.374 . S
C2509 H2489 0.950 . S
C2509 C2505 1.385 . S
C2509 C2508 1.374 . S
C2510 C2507 1.499 . S
C2510 C2511 1.373 . S
C2510 C2512 1.389 . S
C2511 H2490 0.950 . S
C2511 C2510 1.373 . S
C2511 C2527 1.377 . S
C2512 C2510 1.389 . S
C2512 C2513 1.524 . S
C2512 C2526 1.377 . S
C2513 C2512 1.524 . S
C2513 C2514 1.397 . S
C2513 C2518 1.363 . S
C2514 H2491 0.950 . S
C2514 C2513 1.397 . S
C2514 C2515 1.334 . S
C2515 H2492 0.950 . S
C2515 C2514 1.334 . S
C2515 C2516 1.287 . S
C2516 C2515 1.287 . S
C2516 C2517 1.524 . S
C2516 H2535 0.913 . S
C2517 H2493 0.950 . S
C2517 C2516 1.524 . S
C2517 C2518 1.415 . S
C2518 H2494 0.950 . S
C2518 C2513 1.363 . S
C2518 C2517 1.415 . S
C2519 H2495 0.951 . S
C2519 C2520 1.366 . S
C2519 C2521 1.388 . S
C2520 C2519 1.366 . S
C2520 C2524 1.385 . S
C2521 H2496 0.951 . S
C2521 C2519 1.388 . S
C2521 C2522 1.366 . S
C2522 C2521 1.366 . S
C2522 C2523 1.414 . S
C2522 C2525 1.499 . S
C2523 H2497 0.950 . S
C2523 C2522 1.414 . S
C2523 C2524 1.374 . S
C2524 H2498 0.950 . S
C2524 C2520 1.385 . S
C2524 C2523 1.374 . S
C2525 C2522 1.499 . S
C2525 C2526 1.373 . S
C2525 C2527 1.389 . S
C2526 H2499 0.950 . S
C2526 C2512 1.377 . S
C2526 C2525 1.373 . S
C2527 C2511 1.377 . S
C2527 C2525 1.389 . S
C2527 C2528 1.524 . S
C2528 C2527 1.524 . S
C2528 C2529 1.397 . S
C2528 C2533 1.363 . S
C2529 H2500 0.950 . S
C2529 C2528 1.397 . S
C2529 C2530 1.334 . S
C2530 H2501 0.950 . S
C2530 C2529 1.334 . S
C2530 C2531 1.287 . S
C2531 C2530 1.287 . S
C2531 C2532 1.524 . S
C2531 H2534 0.999 . S
C2532 H2502 0.950 . S
C2532 C2531 1.524 . S
C2532 C2533 1.415 . S
C2533 H2503 0.950 . S
C2533 C2528 1.363 . S
C2533 C2532 1.415 . S
H2534 C2531 0.999 . S
H2535 C2516 0.913 . S
H2536 C2554 0.951 . S
H2537 C2556 0.951 . S
H2538 C2558 0.950 . S
H2539 C2559 0.950 . S
H2540 C2561 0.950 . S
H2541 C2564 0.950 . S
H2542 C2565 0.950 . S
H2543 C2567 0.950 . S
H2544 C2568 0.950 . S
H2545 C2569 0.951 . S
H2546 C2571 0.951 . S
H2547 C2573 0.950 . S
H2548 C2574 0.950 . S
H2549 C2576 0.950 . S
H2550 C2579 0.950 . S
H2551 C2580 0.950 . S
H2552 C2582 0.950 . S
H2553 C2583 0.950 . S
C2554 H2536 0.951 . S
C2554 C2555 1.366 . S
C2554 C2556 1.388 . S
C2555 C2554 1.366 . S
C2555 C2559 1.385 . S
C2556 H2537 0.951 . S
C2556 C2554 1.388 . S
C2556 C2557 1.366 . S
C2557 C2556 1.366 . S
C2557 C2558 1.414 . S
C2557 C2560 1.499 1_545 S
C2558 H2538 0.950 . S
C2558 C2557 1.414 . S
C2558 C2559 1.374 . S
C2559 H2539 0.950 . S
C2559 C2555 1.385 . S
C2559 C2558 1.374 . S
C2560 C2557 1.499 1_565 S
C2560 C2561 1.373 . S
C2560 C2562 1.389 . S
C2561 H2540 0.950 . S
C2561 C2560 1.373 . S
C2561 C2577 1.377 . S
C2562 C2560 1.389 . S
C2562 C2563 1.524 . S
C2562 C2576 1.377 . S
C2563 C2562 1.524 . S
C2563 C2564 1.397 . S
C2563 C2568 1.363 . S
C2564 H2541 0.950 . S
C2564 C2563 1.397 . S
C2564 C2565 1.334 . S
C2565 H2542 0.950 . S
C2565 C2564 1.334 . S
C2565 C2566 1.287 . S
C2566 C2565 1.287 . S
C2566 C2567 1.524 . S
C2566 H2585 0.913 . S
C2567 H2543 0.950 . S
C2567 C2566 1.524 . S
C2567 C2568 1.415 . S
C2568 H2544 0.950 . S
C2568 C2563 1.363 . S
C2568 C2567 1.415 . S
C2569 H2545 0.951 . S
C2569 C2570 1.366 . S
C2569 C2571 1.388 . S
C2570 C2569 1.366 . S
C2570 C2574 1.385 . S
C2571 H2546 0.951 . S
C2571 C2569 1.388 . S
C2571 C2572 1.366 . S
C2572 C2571 1.366 . S
C2572 C2573 1.414 . S
C2572 C2575 1.499 . S
C2573 H2547 0.950 . S
C2573 C2572 1.414 . S
C2573 C2574 1.374 . S
C2574 H2548 0.950 . S
C2574 C2570 1.385 . S
C2574 C2573 1.374 . S
C2575 C2572 1.499 . S
C2575 C2576 1.373 . S
C2575 C2577 1.389 . S
C2576 H2549 0.950 . S
C2576 C2562 1.377 . S
C2576 C2575 1.373 . S
C2577 C2561 1.377 . S
C2577 C2575 1.389 . S
C2577 C2578 1.524 . S
C2578 C2577 1.524 . S
C2578 C2579 1.397 . S
C2578 C2583 1.363 . S
C2579 H2550 0.950 . S
C2579 C2578 1.397 . S
C2579 C2580 1.334 . S
C2580 H2551 0.950 . S
C2580 C2579 1.334 . S
C2580 C2581 1.287 . S
C2581 C2580 1.287 . S
C2581 C2582 1.524 . S
C2581 H2584 0.999 . S
C2582 H2552 0.950 . S
C2582 C2581 1.524 . S
C2582 C2583 1.415 . S
C2583 H2553 0.950 . S
C2583 C2578 1.363 . S
C2583 C2582 1.415 . S
H2584 C2581 0.999 . S
H2585 C2566 0.913 . S
H2586 C2604 0.951 . S
H2587 C2606 0.951 . S
H2588 C2608 0.950 . S
H2589 C2609 0.950 . S
H2590 C2611 0.950 . S
H2591 C2614 0.950 . S
H2592 C2615 0.950 . S
H2593 C2617 0.950 . S
H2594 C2618 0.950 . S
H2595 C2619 0.951 . S
H2596 C2621 0.951 . S
H2597 C2623 0.950 . S
H2598 C2624 0.950 . S
H2599 C2626 0.950 . S
H2600 C2629 0.950 . S
H2601 C2630 0.950 . S
H2602 C2632 0.950 . S
H2603 C2633 0.950 . S
C2604 H2586 0.951 . S
C2604 C2605 1.366 . S
C2604 C2606 1.388 . S
C2605 C2604 1.366 . S
C2605 C2609 1.385 . S
C2606 H2587 0.951 . S
C2606 C2604 1.388 . S
C2606 C2607 1.366 . S
C2607 C2606 1.366 . S
C2607 C2608 1.414 . S
C2607 C2610 1.499 . S
C2608 H2588 0.950 . S
C2608 C2607 1.414 . S
C2608 C2609 1.374 . S
C2609 H2589 0.950 . S
C2609 C2605 1.385 . S
C2609 C2608 1.374 . S
C2610 C2607 1.499 . S
C2610 C2611 1.373 . S
C2610 C2612 1.389 . S
C2611 H2590 0.950 . S
C2611 C2610 1.373 . S
C2611 C2627 1.377 . S
C2612 C2610 1.389 . S
C2612 C2613 1.524 . S
C2612 C2626 1.377 . S
C2613 C2612 1.524 . S
C2613 C2614 1.397 . S
C2613 C2618 1.363 . S
C2614 H2591 0.950 . S
C2614 C2613 1.397 . S
C2614 C2615 1.334 . S
C2615 H2592 0.950 . S
C2615 C2614 1.334 . S
C2615 C2616 1.287 . S
C2616 C2615 1.287 . S
C2616 C2617 1.524 . S
C2616 H2635 0.913 . S
C2617 H2593 0.950 . S
C2617 C2616 1.524 . S
C2617 C2618 1.415 . S
C2618 H2594 0.950 . S
C2618 C2613 1.363 . S
C2618 C2617 1.415 . S
C2619 H2595 0.951 . S
C2619 C2620 1.366 . S
C2619 C2621 1.388 . S
C2620 C2619 1.366 . S
C2620 C2624 1.385 . S
C2621 H2596 0.951 . S
C2621 C2619 1.388 . S
C2621 C2622 1.366 . S
C2622 C2621 1.366 . S
C2622 C2623 1.414 . S
C2622 C2625 1.499 . S
C2623 H2597 0.950 . S
C2623 C2622 1.414 . S
C2623 C2624 1.374 . S
C2624 H2598 0.950 . S
C2624 C2620 1.385 . S
C2624 C2623 1.374 . S
C2625 C2622 1.499 . S
C2625 C2626 1.373 . S
C2625 C2627 1.389 . S
C2626 H2599 0.950 . S
C2626 C2612 1.377 . S
C2626 C2625 1.373 . S
C2627 C2611 1.377 . S
C2627 C2625 1.389 . S
C2627 C2628 1.524 . S
C2628 C2627 1.524 . S
C2628 C2629 1.397 . S
C2628 C2633 1.363 . S
C2629 H2600 0.950 . S
C2629 C2628 1.397 . S
C2629 C2630 1.334 . S
C2630 H2601 0.950 . S
C2630 C2629 1.334 . S
C2630 C2631 1.287 . S
C2631 C2630 1.287 . S
C2631 C2632 1.524 . S
C2631 H2634 0.999 . S
C2632 H2602 0.950 . S
C2632 C2631 1.524 . S
C2632 C2633 1.415 . S
C2633 H2603 0.950 . S
C2633 C2628 1.363 . S
C2633 C2632 1.415 . S
H2634 C2631 0.999 . S
H2635 C2616 0.913 . S
H2636 C2654 0.951 . S
H2637 C2656 0.951 . S
H2638 C2658 0.950 . S
H2639 C2659 0.950 . S
H2640 C2661 0.950 . S
H2641 C2664 0.950 . S
H2642 C2665 0.950 . S
H2643 C2667 0.950 . S
H2644 C2668 0.950 . S
H2645 C2669 0.951 . S
H2646 C2671 0.951 . S
H2647 C2673 0.950 . S
H2648 C2674 0.950 . S
H2649 C2676 0.950 . S
H2650 C2679 0.950 . S
H2651 C2680 0.950 . S
H2652 C2682 0.950 . S
H2653 C2683 0.950 . S
C2654 H2636 0.951 . S
C2654 C2655 1.366 . S
C2654 C2656 1.388 . S
C2655 C2654 1.366 . S
C2655 C2659 1.385 . S
C2656 H2637 0.951 . S
C2656 C2654 1.388 . S
C2656 C2657 1.366 . S
C2657 C2656 1.366 . S
C2657 C2658 1.414 . S
C2657 C2660 1.499 . S
C2658 H2638 0.950 . S
C2658 C2657 1.414 . S
C2658 C2659 1.374 . S
C2659 H2639 0.950 . S
C2659 C2655 1.385 . S
C2659 C2658 1.374 . S
C2660 C2657 1.499 . S
C2660 C2661 1.373 . S
C2660 C2662 1.389 . S
C2661 H2640 0.950 . S
C2661 C2660 1.373 . S
C2661 C2677 1.377 . S
C2662 C2660 1.389 . S
C2662 C2663 1.524 . S
C2662 C2676 1.377 . S
C2663 C2662 1.524 . S
C2663 C2664 1.397 . S
C2663 C2668 1.363 . S
C2664 H2641 0.950 . S
C2664 C2663 1.397 . S
C2664 C2665 1.334 . S
C2665 H2642 0.950 . S
C2665 C2664 1.334 . S
C2665 C2666 1.287 . S
C2666 C2665 1.287 . S
C2666 C2667 1.524 . S
C2666 H2685 0.913 . S
C2667 H2643 0.950 . S
C2667 C2666 1.524 . S
C2667 C2668 1.415 . S
C2668 H2644 0.950 . S
C2668 C2663 1.363 . S
C2668 C2667 1.415 . S
C2669 H2645 0.951 . S
C2669 C2670 1.366 . S
C2669 C2671 1.388 . S
C2670 C2669 1.366 . S
C2670 C2674 1.385 . S
C2671 H2646 0.951 . S
C2671 C2669 1.388 . S
C2671 C2672 1.366 . S
C2672 C2671 1.366 . S
C2672 C2673 1.414 . S
C2672 C2675 1.499 . S
C2673 H2647 0.950 . S
C2673 C2672 1.414 . S
C2673 C2674 1.374 . S
C2674 H2648 0.950 . S
C2674 C2670 1.385 . S
C2674 C2673 1.374 . S
C2675 C2672 1.499 . S
C2675 C2676 1.373 . S
C2675 C2677 1.389 . S
C2676 H2649 0.950 . S
C2676 C2662 1.377 . S
C2676 C2675 1.373 . S
C2677 C2661 1.377 . S
C2677 C2675 1.389 . S
C2677 C2678 1.524 . S
C2678 C2677 1.524 . S
C2678 C2679 1.397 . S
C2678 C2683 1.363 . S
C2679 H2650 0.950 . S
C2679 C2678 1.397 . S
C2679 C2680 1.334 . S
C2680 H2651 0.950 . S
C2680 C2679 1.334 . S
C2680 C2681 1.287 . S
C2681 C2680 1.287 . S
C2681 C2682 1.524 . S
C2681 H2684 0.999 . S
C2682 H2652 0.950 . S
C2682 C2681 1.524 . S
C2682 C2683 1.415 . S
C2683 H2653 0.950 . S
C2683 C2678 1.363 . S
C2683 C2682 1.415 . S
H2684 C2681 0.999 . S
H2685 C2666 0.913 . S
H2686 C2704 0.951 . S
H2687 C2706 0.951 . S
H2688 C2708 0.950 . S
H2689 C2709 0.950 . S
H2690 C2711 0.950 . S
H2691 C2714 0.950 . S
H2692 C2715 0.950 . S
H2693 C2717 0.950 . S
H2694 C2718 0.950 . S
H2695 C2719 0.951 . S
H2696 C2721 0.951 . S
H2697 C2723 0.950 . S
H2698 C2724 0.950 . S
H2699 C2726 0.950 . S
H2700 C2729 0.950 . S
H2701 C2730 0.950 . S
H2702 C2732 0.950 . S
H2703 C2733 0.950 . S
C2704 H2686 0.951 . S
C2704 C2705 1.366 . S
C2704 C2706 1.388 . S
C2705 C2704 1.366 . S
C2705 C2709 1.385 . S
C2706 H2687 0.951 . S
C2706 C2704 1.388 . S
C2706 C2707 1.366 . S
C2707 C2706 1.366 . S
C2707 C2708 1.414 . S
C2707 C2710 1.499 . S
C2708 H2688 0.950 . S
C2708 C2707 1.414 . S
C2708 C2709 1.374 . S
C2709 H2689 0.950 . S
C2709 C2705 1.385 . S
C2709 C2708 1.374 . S
C2710 C2707 1.499 . S
C2710 C2711 1.373 . S
C2710 C2712 1.389 . S
C2711 H2690 0.950 . S
C2711 C2710 1.373 . S
C2711 C2727 1.377 . S
C2712 C2710 1.389 . S
C2712 C2713 1.524 . S
C2712 C2726 1.377 . S
C2713 C2712 1.524 . S
C2713 C2714 1.397 . S
C2713 C2718 1.363 . S
C2714 H2691 0.950 . S
C2714 C2713 1.397 . S
C2714 C2715 1.334 . S
C2715 H2692 0.950 . S
C2715 C2714 1.334 . S
C2715 C2716 1.287 . S
C2716 C2715 1.287 . S
C2716 C2717 1.524 . S
C2716 H2735 0.913 . S
C2717 H2693 0.950 . S
C2717 C2716 1.524 . S
C2717 C2718 1.415 . S
C2718 H2694 0.950 . S
C2718 C2713 1.363 . S
C2718 C2717 1.415 . S
C2719 H2695 0.951 . S
C2719 C2720 1.366 . S
C2719 C2721 1.388 . S
C2720 C2719 1.366 . S
C2720 C2724 1.385 . S
C2721 H2696 0.951 . S
C2721 C2719 1.388 . S
C2721 C2722 1.366 . S
C2722 C2721 1.366 . S
C2722 C2723 1.414 . S
C2722 C2725 1.499 . S
C2723 H2697 0.950 . S
C2723 C2722 1.414 . S
C2723 C2724 1.374 . S
C2724 H2698 0.950 . S
C2724 C2720 1.385 . S
C2724 C2723 1.374 . S
C2725 C2722 1.499 . S
C2725 C2726 1.373 . S
C2725 C2727 1.389 . S
C2726 H2699 0.950 . S
C2726 C2712 1.377 . S
C2726 C2725 1.373 . S
C2727 C2711 1.377 . S
C2727 C2725 1.389 . S
C2727 C2728 1.524 . S
C2728 C2727 1.524 . S
C2728 C2729 1.397 . S
C2728 C2733 1.363 . S
C2729 H2700 0.950 . S
C2729 C2728 1.397 . S
C2729 C2730 1.334 . S
C2730 H2701 0.950 . S
C2730 C2729 1.334 . S
C2730 C2731 1.287 . S
C2731 C2730 1.287 . S
C2731 C2732 1.524 . S
C2731 H2734 0.999 . S
C2732 H2702 0.950 . S
C2732 C2731 1.524 . S
C2732 C2733 1.415 . S
C2733 H2703 0.950 . S
C2733 C2728 1.363 . S
C2733 C2732 1.415 . S
H2734 C2731 0.999 . S
H2735 C2716 0.913 . S
H2736 C2754 0.951 . S
H2737 C2756 0.951 . S
H2738 C2758 0.950 . S
H2739 C2759 0.950 . S
H2740 C2761 0.950 . S
H2741 C2764 0.950 . S
H2742 C2765 0.950 . S
H2743 C2767 0.950 . S
H2744 C2768 0.950 . S
H2745 C2769 0.951 . S
H2746 C2771 0.951 . S
H2747 C2773 0.950 . S
H2748 C2774 0.950 . S
H2749 C2776 0.950 . S
H2750 C2779 0.950 . S
H2751 C2780 0.950 . S
H2752 C2782 0.950 . S
H2753 C2783 0.950 . S
C2754 H2736 0.951 . S
C2754 C2755 1.366 . S
C2754 C2756 1.388 . S
C2755 C2754 1.366 . S
C2755 C2759 1.385 . S
C2756 H2737 0.951 . S
C2756 C2754 1.388 . S
C2756 C2757 1.366 . S
C2757 C2756 1.366 . S
C2757 C2758 1.414 . S
C2757 C2760 1.499 . S
C2758 H2738 0.950 . S
C2758 C2757 1.414 . S
C2758 C2759 1.374 . S
C2759 H2739 0.950 . S
C2759 C2755 1.385 . S
C2759 C2758 1.374 . S
C2760 C2757 1.499 . S
C2760 C2761 1.373 . S
C2760 C2762 1.389 . S
C2761 H2740 0.950 . S
C2761 C2760 1.373 . S
C2761 C2777 1.377 . S
C2762 C2760 1.389 . S
C2762 C2763 1.524 . S
C2762 C2776 1.377 . S
C2763 C2762 1.524 . S
C2763 C2764 1.397 . S
C2763 C2768 1.363 . S
C2764 H2741 0.950 . S
C2764 C2763 1.397 . S
C2764 C2765 1.334 . S
C2765 H2742 0.950 . S
C2765 C2764 1.334 . S
C2765 C2766 1.287 . S
C2766 C2765 1.287 . S
C2766 C2767 1.524 . S
C2766 H2785 0.913 . S
C2767 H2743 0.950 . S
C2767 C2766 1.524 . S
C2767 C2768 1.415 . S
C2768 H2744 0.950 . S
C2768 C2763 1.363 . S
C2768 C2767 1.415 . S
C2769 H2745 0.951 . S
C2769 C2770 1.366 . S
C2769 C2771 1.388 . S
C2770 C2769 1.366 . S
C2770 C2774 1.385 . S
C2771 H2746 0.951 . S
C2771 C2769 1.388 . S
C2771 C2772 1.366 . S
C2772 C2771 1.366 . S
C2772 C2773 1.414 . S
C2772 C2775 1.499 . S
C2773 H2747 0.950 . S
C2773 C2772 1.414 . S
C2773 C2774 1.374 . S
C2774 H2748 0.950 . S
C2774 C2770 1.385 . S
C2774 C2773 1.374 . S
C2775 C2772 1.499 . S
C2775 C2776 1.373 . S
C2775 C2777 1.389 . S
C2776 H2749 0.950 . S
C2776 C2762 1.377 . S
C2776 C2775 1.373 . S
C2777 C2761 1.377 . S
C2777 C2775 1.389 . S
C2777 C2778 1.524 . S
C2778 C2777 1.524 . S
C2778 C2779 1.397 . S
C2778 C2783 1.363 . S
C2779 H2750 0.950 . S
C2779 C2778 1.397 . S
C2779 C2780 1.334 . S
C2780 H2751 0.950 . S
C2780 C2779 1.334 . S
C2780 C2781 1.287 . S
C2781 C2780 1.287 . S
C2781 C2782 1.524 . S
C2781 H2784 0.999 . S
C2782 H2752 0.950 . S
C2782 C2781 1.524 . S
C2782 C2783 1.415 . S
C2783 H2753 0.950 . S
C2783 C2778 1.363 . S
C2783 C2782 1.415 . S
H2784 C2781 0.999 . S
H2785 C2766 0.913 . S
H2786 C2804 0.951 . S
H2787 C2806 0.951 . S
H2788 C2808 0.950 . S
H2789 C2809 0.950 . S
H2790 C2811 0.950 . S
H2791 C2814 0.950 . S
H2792 C2815 0.950 . S
H2793 C2817 0.950 . S
H2794 C2818 0.950 . S
H2795 C2819 0.951 . S
H2796 C2821 0.951 . S
H2797 C2823 0.950 . S
H2798 C2824 0.950 . S
H2799 C2826 0.950 . S
H2800 C2829 0.950 . S
H2801 C2830 0.950 . S
H2802 C2832 0.950 . S
H2803 C2833 0.950 . S
C2804 H2786 0.951 . S
C2804 C2805 1.366 . S
C2804 C2806 1.388 . S
C2805 C2804 1.366 . S
C2805 C2809 1.385 . S
C2806 H2787 0.951 . S
C2806 C2804 1.388 . S
C2806 C2807 1.366 . S
C2807 C2806 1.366 . S
C2807 C2808 1.414 . S
C2807 C2810 1.499 . S
C2808 H2788 0.950 . S
C2808 C2807 1.414 . S
C2808 C2809 1.374 . S
C2809 H2789 0.950 . S
C2809 C2805 1.385 . S
C2809 C2808 1.374 . S
C2810 C2807 1.499 . S
C2810 C2811 1.373 . S
C2810 C2812 1.389 . S
C2811 H2790 0.950 . S
C2811 C2810 1.373 . S
C2811 C2827 1.377 . S
C2812 C2810 1.389 . S
C2812 C2813 1.524 . S
C2812 C2826 1.377 . S
C2813 C2812 1.524 . S
C2813 C2814 1.397 . S
C2813 C2818 1.363 . S
C2814 H2791 0.950 . S
C2814 C2813 1.397 . S
C2814 C2815 1.334 . S
C2815 H2792 0.950 . S
C2815 C2814 1.334 . S
C2815 C2816 1.287 . S
C2816 C2815 1.287 . S
C2816 C2817 1.524 . S
C2816 H2835 0.913 . S
C2817 H2793 0.950 . S
C2817 C2816 1.524 . S
C2817 C2818 1.415 . S
C2818 H2794 0.950 . S
C2818 C2813 1.363 . S
C2818 C2817 1.415 . S
C2819 H2795 0.951 . S
C2819 C2820 1.366 . S
C2819 C2821 1.388 . S
C2820 C2819 1.366 . S
C2820 C2824 1.385 . S
C2821 H2796 0.951 . S
C2821 C2819 1.388 . S
C2821 C2822 1.366 . S
C2822 C2821 1.366 . S
C2822 C2823 1.414 . S
C2822 C2825 1.499 . S
C2823 H2797 0.950 . S
C2823 C2822 1.414 . S
C2823 C2824 1.374 . S
C2824 H2798 0.950 . S
C2824 C2820 1.385 . S
C2824 C2823 1.374 . S
C2825 C2822 1.499 . S
C2825 C2826 1.373 . S
C2825 C2827 1.389 . S
C2826 H2799 0.950 . S
C2826 C2812 1.377 . S
C2826 C2825 1.373 . S
C2827 C2811 1.377 . S
C2827 C2825 1.389 . S
C2827 C2828 1.524 . S
C2828 C2827 1.524 . S
C2828 C2829 1.397 . S
C2828 C2833 1.363 . S
C2829 H2800 0.950 . S
C2829 C2828 1.397 . S
C2829 C2830 1.334 . S
C2830 H2801 0.950 . S
C2830 C2829 1.334 . S
C2830 C2831 1.287 . S
C2831 C2830 1.287 . S
C2831 C2832 1.524 . S
C2831 H2834 0.999 . S
C2832 H2802 0.950 . S
C2832 C2831 1.524 . S
C2832 C2833 1.415 . S
C2833 H2803 0.950 . S
C2833 C2828 1.363 . S
C2833 C2832 1.415 . S
H2834 C2831 0.999 . S
H2835 C2816 0.913 . S
H2836 C2854 0.951 . S
H2837 C2856 0.951 . S
H2838 C2858 0.950 . S
H2839 C2859 0.950 . S
H2840 C2861 0.950 . S
H2841 C2864 0.950 . S
H2842 C2865 0.950 . S
H2843 C2867 0.950 . S
H2844 C2868 0.950 . S
H2845 C2869 0.951 . S
H2846 C2871 0.951 . S
H2847 C2873 0.950 . S
H2848 C2874 0.950 . S
H2849 C2876 0.950 . S
H2850 C2879 0.950 . S
H2851 C2880 0.950 . S
H2852 C2882 0.950 . S
H2853 C2883 0.950 . S
C2854 H2836 0.951 . S
C2854 C2855 1.366 . S
C2854 C2856 1.388 . S
C2855 C2854 1.366 . S
C2855 C2859 1.385 . S
C2856 H2837 0.951 . S
C2856 C2854 1.388 . S
C2856 C2857 1.366 . S
C2857 C2856 1.366 . S
C2857 C2858 1.414 . S
C2857 C2860 1.499 . S
C2858 H2838 0.950 . S
C2858 C2857 1.414 . S
C2858 C2859 1.374 . S
C2859 H2839 0.950 . S
C2859 C2855 1.385 . S
C2859 C2858 1.374 . S
C2860 C2857 1.499 . S
C2860 C2861 1.373 . S
C2860 C2862 1.389 . S
C2861 H2840 0.950 . S
C2861 C2860 1.373 . S
C2861 C2877 1.377 . S
C2862 C2860 1.389 . S
C2862 C2863 1.524 . S
C2862 C2876 1.377 . S
C2863 C2862 1.524 . S
C2863 C2864 1.397 . S
C2863 C2868 1.363 . S
C2864 H2841 0.950 . S
C2864 C2863 1.397 . S
C2864 C2865 1.334 . S
C2865 H2842 0.950 . S
C2865 C2864 1.334 . S
C2865 C2866 1.287 . S
C2866 C2865 1.287 . S
C2866 C2867 1.524 . S
C2866 H2885 0.913 . S
C2867 H2843 0.950 . S
C2867 C2866 1.524 . S
C2867 C2868 1.415 . S
C2868 H2844 0.950 . S
C2868 C2863 1.363 . S
C2868 C2867 1.415 . S
C2869 H2845 0.951 . S
C2869 C2870 1.366 . S
C2869 C2871 1.388 . S
C2870 C2869 1.366 . S
C2870 C2874 1.385 . S
C2871 H2846 0.951 . S
C2871 C2869 1.388 . S
C2871 C2872 1.366 . S
C2872 C2871 1.366 . S
C2872 C2873 1.414 . S
C2872 C2875 1.499 . S
C2873 H2847 0.950 . S
C2873 C2872 1.414 . S
C2873 C2874 1.374 . S
C2874 H2848 0.950 . S
C2874 C2870 1.385 . S
C2874 C2873 1.374 . S
C2875 C2872 1.499 . S
C2875 C2876 1.373 . S
C2875 C2877 1.389 . S
C2876 H2849 0.950 . S
C2876 C2862 1.377 . S
C2876 C2875 1.373 . S
C2877 C2861 1.377 . S
C2877 C2875 1.389 . S
C2877 C2878 1.524 . S
C2878 C2877 1.524 . S
C2878 C2879 1.397 . S
C2878 C2883 1.363 . S
C2879 H2850 0.950 . S
C2879 C2878 1.397 . S
C2879 C2880 1.334 . S
C2880 H2851 0.950 . S
C2880 C2879 1.334 . S
C2880 C2881 1.287 . S
C2881 C2880 1.287 . S
C2881 C2882 1.524 . S
C2881 H2884 0.999 . S
C2882 H2852 0.950 . S
C2882 C2881 1.524 . S
C2882 C2883 1.415 . S
C2883 H2853 0.950 . S
C2883 C2878 1.363 . S
C2883 C2882 1.415 . S
H2884 C2881 0.999 . S
H2885 C2866 0.913 . S
H2886 C2904 0.951 . S
H2887 C2906 0.951 . S
H2888 C2908 0.950 1_565 S
H2889 C2909 0.950 . S
H2890 C2911 0.950 . S
H2891 C2914 0.950 . S
H2892 C2915 0.950 1_545 S
H2893 C2917 0.945 . S
H2894 C2918 0.950 . S
H2895 C2919 0.951 . S
H2896 C2921 0.951 . S
H2897 C2923 0.950 . S
H2898 C2924 0.950 . S
H2899 C2926 0.950 . S
H2900 C2929 0.950 . S
H2901 C2930 0.950 . S
H2902 C2932 0.950 . S
H2903 C2933 0.950 . S
C2904 H2886 0.951 . S
C2904 C2905 1.366 . S
C2904 C2906 1.388 . S
C2905 C2904 1.366 . S
C2905 C2909 1.385 . S
C2906 H2887 0.951 . S
C2906 C2904 1.388 . S
C2906 C2907 1.413 . S
C2907 C2906 1.413 . S
C2907 C2908 1.402 . S
C2907 C2910 1.464 1_545 S
C2908 H2888 0.950 1_545 S
C2908 C2907 1.402 . S
C2908 C2909 1.374 . S
C2909 H2889 0.950 . S
C2909 C2905 1.385 . S
C2909 C2908 1.374 . S
C2910 C2907 1.464 1_565 S
C2910 C2911 1.373 . S
C2910 C2912 1.389 . S
C2911 H2890 0.950 . S
C2911 C2910 1.373 . S
C2911 C2927 1.377 . S
C2912 C2910 1.389 . S
C2912 C2913 1.524 . S
C2912 C2926 1.377 . S
C2913 C2912 1.524 . S
C2913 C2914 1.397 . S
C2913 C2918 1.363 . S
C2914 H2891 0.950 . S
C2914 C2913 1.397 . S
C2914 C2915 1.334 . S
C2915 H2892 0.950 1_565 S
C2915 C2914 1.334 . S
C2915 C2916 1.287 1_565 S
C2916 C2915 1.287 1_545 S
C2916 C2917 1.524 1_545 S
C2916 H2935 0.913 . S
C2917 H2893 0.945 . S
C2917 C2916 1.524 1_565 S
C2917 C2918 1.415 . S
C2918 H2894 0.950 . S
C2918 C2913 1.363 . S
C2918 C2917 1.415 . S
C2919 H2895 0.951 . S
C2919 C2920 1.366 . S
C2919 C2921 1.388 . S
C2920 C2919 1.366 . S
C2920 C2924 1.385 . S
C2921 H2896 0.951 . S
C2921 C2919 1.388 . S
C2921 C2922 1.366 . S
C2922 C2921 1.366 . S
C2922 C2923 1.414 . S
C2922 C2925 1.499 . S
C2923 H2897 0.950 . S
C2923 C2922 1.414 . S
C2923 C2924 1.374 . S
C2924 H2898 0.950 . S
C2924 C2920 1.385 . S
C2924 C2923 1.374 . S
C2925 C2922 1.499 . S
C2925 C2926 1.373 . S
C2925 C2927 1.389 . S
C2926 H2899 0.950 . S
C2926 C2912 1.377 . S
C2926 C2925 1.373 . S
C2927 C2911 1.377 . S
C2927 C2925 1.389 . S
C2927 C2928 1.524 . S
C2928 C2927 1.524 . S
C2928 C2929 1.397 . S
C2928 C2933 1.363 . S
C2929 H2900 0.950 . S
C2929 C2928 1.397 . S
C2929 C2930 1.334 . S
C2930 H2901 0.950 . S
C2930 C2929 1.334 . S
C2930 C2931 1.287 . S
C2931 C2930 1.287 . S
C2931 C2932 1.524 . S
C2931 H2934 0.999 . S
C2932 H2902 0.950 . S
C2932 C2931 1.524 . S
C2932 C2933 1.415 . S
C2933 H2903 0.950 . S
C2933 C2928 1.363 . S
C2933 C2932 1.415 . S
H2934 C2931 0.999 . S
H2935 C2916 0.913 . S
H2936 C2954 0.951 . S
H2937 C2956 0.951 . S
H2938 C2958 0.950 . S
H2939 C2959 0.950 . S
H2940 C2961 0.950 . S
H2941 C2964 0.950 . S
H2942 C2965 0.950 . S
H2943 C2967 0.950 . S
H2944 C2968 0.950 . S
H2945 C2969 0.951 . S
H2946 C2971 0.951 . S
H2947 C2973 0.950 . S
H2948 C2974 0.950 . S
H2949 C2976 0.950 . S
H2950 C2979 0.950 . S
H2951 C2980 0.950 . S
H2952 C2982 0.950 . S
H2953 C2983 0.950 . S
C2954 H2936 0.951 . S
C2954 C2955 1.366 . S
C2954 C2956 1.388 . S
C2955 C2954 1.366 . S
C2955 C2959 1.385 . S
C2956 H2937 0.951 . S
C2956 C2954 1.388 . S
C2956 C2957 1.366 1_655 S
C2957 C2956 1.366 1_455 S
C2957 C2958 1.414 . S
C2957 C2960 1.499 . S
C2958 H2938 0.950 . S
C2958 C2957 1.414 . S
C2958 C2959 1.374 1_455 S
C2959 H2939 0.950 . S
C2959 C2955 1.385 . S
C2959 C2958 1.374 1_655 S
C2960 C2957 1.499 . S
C2960 C2961 1.373 . S
C2960 C2962 1.389 . S
C2961 H2940 0.950 . S
C2961 C2960 1.373 . S
C2961 C2977 1.377 . S
C2962 C2960 1.389 . S
C2962 C2963 1.524 . S
C2962 C2976 1.377 . S
C2963 C2962 1.524 . S
C2963 C2964 1.397 . S
C2963 C2968 1.363 . S
C2964 H2941 0.950 . S
C2964 C2963 1.397 . S
C2964 C2965 1.334 . S
C2965 H2942 0.950 . S
C2965 C2964 1.334 . S
C2965 C2966 1.287 . S
C2966 C2965 1.287 . S
C2966 C2967 1.524 . S
C2966 H2985 0.913 . S
C2967 H2943 0.950 . S
C2967 C2966 1.524 . S
C2967 C2968 1.415 . S
C2968 H2944 0.950 . S
C2968 C2963 1.363 . S
C2968 C2967 1.415 . S
C2969 H2945 0.951 . S
C2969 C2970 1.366 . S
C2969 C2971 1.388 . S
C2970 C2969 1.366 . S
C2970 C2974 1.385 . S
C2971 H2946 0.951 . S
C2971 C2969 1.388 . S
C2971 C2972 1.366 . S
C2972 C2971 1.366 . S
C2972 C2973 1.414 . S
C2972 C2975 1.499 . S
C2973 H2947 0.950 . S
C2973 C2972 1.414 . S
C2973 C2974 1.374 . S
C2974 H2948 0.950 . S
C2974 C2970 1.385 . S
C2974 C2973 1.374 . S
C2975 C2972 1.499 . S
C2975 C2976 1.373 . S
C2975 C2977 1.389 . S
C2976 H2949 0.950 . S
C2976 C2962 1.377 . S
C2976 C2975 1.373 . S
C2977 C2961 1.377 . S
C2977 C2975 1.389 . S
C2977 C2978 1.524 . S
C2978 C2977 1.524 . S
C2978 C2979 1.397 . S
C2978 C2983 1.363 . S
C2979 H2950 0.950 . S
C2979 C2978 1.397 . S
C2979 C2980 1.334 . S
C2980 H2951 0.950 . S
C2980 C2979 1.334 . S
C2980 C2981 1.287 . S
C2981 C2980 1.287 . S
C2981 C2982 1.524 . S
C2981 H2984 0.999 . S
C2982 H2952 0.950 . S
C2982 C2981 1.524 . S
C2982 C2983 1.415 . S
C2983 H2953 0.950 . S
C2983 C2978 1.363 . S
C2983 C2982 1.415 . S
H2984 C2981 0.999 . S
H2985 C2966 0.913 . S
H2986 C3004 0.951 . S
H2987 C3006 0.951 . S
H2988 C3008 0.950 . S
H2989 C3009 0.950 . S
H2990 C3011 0.950 . S
H2991 C3014 0.950 . S
H2992 C3015 0.950 . S
H2993 C3017 0.950 . S
H2994 C3018 0.950 . S
H2995 C3019 0.951 . S
H2996 C3021 0.951 . S
H2997 C3023 0.950 . S
H2998 C3024 0.950 . S
H2999 C3026 0.950 . S
H3000 C3029 0.950 . S
H3001 C3030 0.950 . S
H3002 C3032 0.950 . S
H3003 C3033 0.950 . S
C3004 H2986 0.951 . S
C3004 C3005 1.366 . S
C3004 C3006 1.388 . S
C3005 C3004 1.366 . S
C3005 C3009 1.385 . S
C3006 H2987 0.951 . S
C3006 C3004 1.388 . S
C3006 C3007 1.366 . S
C3007 C3006 1.366 . S
C3007 C3008 1.414 . S
C3007 C3010 1.499 . S
C3008 H2988 0.950 . S
C3008 C3007 1.414 . S
C3008 C3009 1.374 . S
C3009 H2989 0.950 . S
C3009 C3005 1.385 . S
C3009 C3008 1.374 . S
C3010 C3007 1.499 . S
C3010 C3011 1.373 . S
C3010 C3012 1.389 . S
C3011 H2990 0.950 . S
C3011 C3010 1.373 . S
C3011 C3027 1.377 . S
C3012 C3010 1.389 . S
C3012 C3013 1.524 . S
C3012 C3026 1.377 . S
C3013 C3012 1.524 . S
C3013 C3014 1.397 . S
C3013 C3018 1.363 . S
C3014 H2991 0.950 . S
C3014 C3013 1.397 . S
C3014 C3015 1.334 . S
C3015 H2992 0.950 . S
C3015 C3014 1.334 . S
C3015 C3016 1.287 . S
C3016 C3015 1.287 . S
C3016 C3017 1.524 . S
C3016 H3035 0.913 . S
C3017 H2993 0.950 . S
C3017 C3016 1.524 . S
C3017 C3018 1.415 . S
C3018 H2994 0.950 . S
C3018 C3013 1.363 . S
C3018 C3017 1.415 . S
C3019 H2995 0.951 . S
C3019 C3020 1.366 . S
C3019 C3021 1.388 . S
C3020 C3019 1.366 . S
C3020 C3024 1.385 . S
C3021 H2996 0.951 . S
C3021 C3019 1.388 . S
C3021 C3022 1.366 . S
C3022 C3021 1.366 . S
C3022 C3023 1.414 . S
C3022 C3025 1.499 . S
C3023 H2997 0.950 . S
C3023 C3022 1.414 . S
C3023 C3024 1.374 . S
C3024 H2998 0.950 . S
C3024 C3020 1.385 . S
C3024 C3023 1.374 . S
C3025 C3022 1.499 . S
C3025 C3026 1.373 . S
C3025 C3027 1.389 . S
C3026 H2999 0.950 . S
C3026 C3012 1.377 . S
C3026 C3025 1.373 . S
C3027 C3011 1.377 . S
C3027 C3025 1.389 . S
C3027 C3028 1.524 . S
C3028 C3027 1.524 . S
C3028 C3029 1.397 . S
C3028 C3033 1.363 . S
C3029 H3000 0.950 . S
C3029 C3028 1.397 . S
C3029 C3030 1.334 . S
C3030 H3001 0.950 . S
C3030 C3029 1.334 . S
C3030 C3031 1.287 . S
C3031 C3030 1.287 . S
C3031 C3032 1.524 . S
C3031 H3034 0.999 . S
C3032 H3002 0.950 . S
C3032 C3031 1.524 . S
C3032 C3033 1.415 . S
C3033 H3003 0.950 . S
C3033 C3028 1.363 . S
C3033 C3032 1.415 . S
H3034 C3031 0.999 . S
H3035 C3016 0.913 . S
H3036 C3054 0.951 . S
H3037 C3056 0.951 . S
H3038 C3058 0.950 . S
H3039 C3059 0.950 . S
H3040 C3061 0.950 . S
H3041 C3064 0.950 . S
H3042 C3065 0.950 . S
H3043 C3067 0.950 . S
H3044 C3068 0.950 . S
H3045 C3069 0.951 . S
H3046 C3071 0.951 . S
H3047 C3073 0.950 . S
H3048 C3074 0.950 . S
H3049 C3076 0.950 . S
H3050 C3079 0.950 . S
H3051 C3080 0.950 . S
H3052 C3082 0.950 . S
H3053 C3083 0.950 . S
C3054 H3036 0.951 . S
C3054 C3055 1.366 . S
C3054 C3056 1.388 . S
C3055 C3054 1.366 . S
C3055 C3059 1.385 . S
C3056 H3037 0.951 . S
C3056 C3054 1.388 . S
C3056 C3057 1.366 . S
C3057 C3056 1.366 . S
C3057 C3058 1.414 . S
C3057 C3060 1.499 . S
C3058 H3038 0.950 . S
C3058 C3057 1.414 . S
C3058 C3059 1.374 . S
C3059 H3039 0.950 . S
C3059 C3055 1.385 . S
C3059 C3058 1.374 . S
C3060 C3057 1.499 . S
C3060 C3061 1.373 . S
C3060 C3062 1.389 . S
C3061 H3040 0.950 . S
C3061 C3060 1.373 . S
C3061 C3077 1.377 . S
C3062 C3060 1.389 . S
C3062 C3063 1.524 . S
C3062 C3076 1.377 . S
C3063 C3062 1.524 . S
C3063 C3064 1.397 . S
C3063 C3068 1.363 . S
C3064 H3041 0.950 . S
C3064 C3063 1.397 . S
C3064 C3065 1.334 . S
C3065 H3042 0.950 . S
C3065 C3064 1.334 . S
C3065 C3066 1.287 . S
C3066 C3065 1.287 . S
C3066 C3067 1.524 . S
C3066 H3085 0.913 . S
C3067 H3043 0.950 . S
C3067 C3066 1.524 . S
C3067 C3068 1.415 . S
C3068 H3044 0.950 . S
C3068 C3063 1.363 . S
C3068 C3067 1.415 . S
C3069 H3045 0.951 . S
C3069 C3070 1.366 . S
C3069 C3071 1.388 . S
C3070 C3069 1.366 . S
C3070 C3074 1.385 . S
C3071 H3046 0.951 . S
C3071 C3069 1.388 . S
C3071 C3072 1.366 . S
C3072 C3071 1.366 . S
C3072 C3073 1.414 . S
C3072 C3075 1.499 . S
C3073 H3047 0.950 . S
C3073 C3072 1.414 . S
C3073 C3074 1.374 . S
C3074 H3048 0.950 . S
C3074 C3070 1.385 . S
C3074 C3073 1.374 . S
C3075 C3072 1.499 . S
C3075 C3076 1.373 . S
C3075 C3077 1.389 . S
C3076 H3049 0.950 . S
C3076 C3062 1.377 . S
C3076 C3075 1.373 . S
C3077 C3061 1.377 . S
C3077 C3075 1.389 . S
C3077 C3078 1.524 . S
C3078 C3077 1.524 . S
C3078 C3079 1.397 . S
C3078 C3083 1.363 . S
C3079 H3050 0.950 . S
C3079 C3078 1.397 . S
C3079 C3080 1.334 . S
C3080 H3051 0.950 . S
C3080 C3079 1.334 . S
C3080 C3081 1.287 . S
C3081 C3080 1.287 . S
C3081 C3082 1.524 . S
C3081 H3084 0.999 . S
C3082 H3052 0.950 . S
C3082 C3081 1.524 . S
C3082 C3083 1.415 . S
C3083 H3053 0.950 . S
C3083 C3078 1.363 . S
C3083 C3082 1.415 . S
H3084 C3081 0.999 . S
H3085 C3066 0.913 . S
H3086 C3104 0.951 . S
H3087 C3106 0.951 . S
H3088 C3108 0.950 . S
H3089 C3109 0.950 . S
H3090 C3111 0.950 . S
H3091 C3114 0.950 . S
H3092 C3115 0.950 . S
H3093 C3117 0.950 . S
H3094 C3118 0.950 . S
H3095 C3119 0.951 . S
H3096 C3121 0.951 . S
H3097 C3123 0.950 . S
H3098 C3124 0.950 . S
H3099 C3126 0.950 . S
H3100 C3129 0.950 . S
H3101 C3130 0.950 . S
H3102 C3132 0.950 . S
H3103 C3133 0.950 . S
C3104 H3086 0.951 . S
C3104 C3105 1.366 . S
C3104 C3106 1.388 . S
C3105 C3104 1.366 . S
C3105 C3109 1.385 . S
C3106 H3087 0.951 . S
C3106 C3104 1.388 . S
C3106 C3107 1.366 . S
C3107 C3106 1.366 . S
C3107 C3108 1.414 . S
C3107 C3110 1.499 . S
C3108 H3088 0.950 . S
C3108 C3107 1.414 . S
C3108 C3109 1.374 . S
C3109 H3089 0.950 . S
C3109 C3105 1.385 . S
C3109 C3108 1.374 . S
C3110 C3107 1.499 . S
C3110 C3111 1.373 . S
C3110 C3112 1.389 . S
C3111 H3090 0.950 . S
C3111 C3110 1.373 . S
C3111 C3127 1.377 . S
C3112 C3110 1.389 . S
C3112 C3113 1.524 . S
C3112 C3126 1.377 . S
C3113 C3112 1.524 . S
C3113 C3114 1.397 . S
C3113 C3118 1.363 . S
C3114 H3091 0.950 . S
C3114 C3113 1.397 . S
C3114 C3115 1.334 . S
C3115 H3092 0.950 . S
C3115 C3114 1.334 . S
C3115 C3116 1.287 . S
C3116 C3115 1.287 . S
C3116 C3117 1.524 . S
C3116 H3135 0.913 . S
C3117 H3093 0.950 . S
C3117 C3116 1.524 . S
C3117 C3118 1.415 . S
C3118 H3094 0.950 . S
C3118 C3113 1.363 . S
C3118 C3117 1.415 . S
C3119 H3095 0.951 . S
C3119 C3120 1.366 . S
C3119 C3121 1.388 . S
C3120 C3119 1.366 . S
C3120 C3124 1.385 . S
C3121 H3096 0.951 . S
C3121 C3119 1.388 . S
C3121 C3122 1.366 . S
C3122 C3121 1.366 . S
C3122 C3123 1.414 . S
C3122 C3125 1.499 . S
C3123 H3097 0.950 . S
C3123 C3122 1.414 . S
C3123 C3124 1.374 . S
C3124 H3098 0.950 . S
C3124 C3120 1.385 . S
C3124 C3123 1.374 . S
C3125 C3122 1.499 . S
C3125 C3126 1.373 . S
C3125 C3127 1.389 . S
C3126 H3099 0.950 . S
C3126 C3112 1.377 . S
C3126 C3125 1.373 . S
C3127 C3111 1.377 . S
C3127 C3125 1.389 . S
C3127 C3128 1.524 . S
C3128 C3127 1.524 . S
C3128 C3129 1.397 . S
C3128 C3133 1.363 . S
C3129 H3100 0.950 . S
C3129 C3128 1.397 . S
C3129 C3130 1.334 . S
C3130 H3101 0.950 . S
C3130 C3129 1.334 . S
C3130 C3131 1.287 . S
C3131 C3130 1.287 . S
C3131 C3132 1.524 . S
C3131 H3134 0.999 . S
C3132 H3102 0.950 . S
C3132 C3131 1.524 . S
C3132 C3133 1.415 . S
C3133 H3103 0.950 . S
C3133 C3128 1.363 . S
C3133 C3132 1.415 . S
H3134 C3131 0.999 . S
H3135 C3116 0.913 . S
H3136 C3154 0.951 . S
H3137 C3156 0.951 . S
H3138 C3158 0.950 . S
H3139 C3159 0.950 . S
H3140 C3161 0.950 . S
H3141 C3164 0.950 . S
H3142 C3165 0.950 . S
H3143 C3167 0.950 . S
H3144 C3168 0.950 . S
H3145 C3169 0.951 . S
H3146 C3171 0.951 . S
H3147 C3173 0.950 . S
H3148 C3174 0.950 . S
H3149 C3176 0.950 . S
H3150 C3179 0.950 . S
H3151 C3180 0.950 . S
H3152 C3182 0.950 . S
H3153 C3183 0.950 . S
C3154 H3136 0.951 . S
C3154 C3155 1.366 . S
C3154 C3156 1.388 . S
C3155 C3154 1.366 . S
C3155 C3159 1.385 . S
C3156 H3137 0.951 . S
C3156 C3154 1.388 . S
C3156 C3157 1.366 . S
C3157 C3156 1.366 . S
C3157 C3158 1.414 . S
C3157 C3160 1.499 . S
C3158 H3138 0.950 . S
C3158 C3157 1.414 . S
C3158 C3159 1.374 . S
C3159 H3139 0.950 . S
C3159 C3155 1.385 . S
C3159 C3158 1.374 . S
C3160 C3157 1.499 . S
C3160 C3161 1.373 . S
C3160 C3162 1.389 . S
C3161 H3140 0.950 . S
C3161 C3160 1.373 . S
C3161 C3177 1.377 . S
C3162 C3160 1.389 . S
C3162 C3163 1.524 . S
C3162 C3176 1.377 . S
C3163 C3162 1.524 . S
C3163 C3164 1.397 . S
C3163 C3168 1.363 . S
C3164 H3141 0.950 . S
C3164 C3163 1.397 . S
C3164 C3165 1.334 . S
C3165 H3142 0.950 . S
C3165 C3164 1.334 . S
C3165 C3166 1.287 . S
C3166 C3165 1.287 . S
C3166 C3167 1.524 . S
C3166 H3185 0.913 . S
C3167 H3143 0.950 . S
C3167 C3166 1.524 . S
C3167 C3168 1.415 . S
C3168 H3144 0.950 . S
C3168 C3163 1.363 . S
C3168 C3167 1.415 . S
C3169 H3145 0.951 . S
C3169 C3170 1.366 . S
C3169 C3171 1.388 . S
C3170 C3169 1.366 . S
C3170 C3174 1.385 . S
C3171 H3146 0.951 . S
C3171 C3169 1.388 . S
C3171 C3172 1.366 . S
C3172 C3171 1.366 . S
C3172 C3173 1.414 . S
C3172 C3175 1.499 . S
C3173 H3147 0.950 . S
C3173 C3172 1.414 . S
C3173 C3174 1.374 . S
C3174 H3148 0.950 . S
C3174 C3170 1.385 . S
C3174 C3173 1.374 . S
C3175 C3172 1.499 . S
C3175 C3176 1.373 . S
C3175 C3177 1.389 . S
C3176 H3149 0.950 . S
C3176 C3162 1.377 . S
C3176 C3175 1.373 . S
C3177 C3161 1.377 . S
C3177 C3175 1.389 . S
C3177 C3178 1.524 . S
C3178 C3177 1.524 . S
C3178 C3179 1.397 . S
C3178 C3183 1.363 . S
C3179 H3150 0.950 . S
C3179 C3178 1.397 . S
C3179 C3180 1.334 . S
C3180 H3151 0.950 . S
C3180 C3179 1.334 . S
C3180 C3181 1.287 . S
C3181 C3180 1.287 . S
C3181 C3182 1.524 . S
C3181 H3184 0.999 . S
C3182 H3152 0.950 . S
C3182 C3181 1.524 . S
C3182 C3183 1.415 . S
C3183 H3153 0.950 . S
C3183 C3178 1.363 . S
C3183 C3182 1.415 . S
H3184 C3181 0.999 . S
H3185 C3166 0.913 . S
H3186 C3204 0.951 . S
H3187 C3206 0.951 . S
H3188 C3208 0.952 . S
H3189 C3209 0.950 . S
H3190 C3211 0.950 . S
H3191 C3214 0.950 . S
H3192 C3215 0.950 . S
H3193 C3217 0.950 . S
H3194 C3218 0.950 . S
H3195 C3219 0.951 . S
H3196 C3221 0.951 . S
H3197 C3223 0.950 . S
H3198 C3224 0.950 . S
H3199 C3226 0.950 . S
H3200 C3229 0.950 . S
H3201 C3230 0.950 . S
H3202 C3232 0.950 . S
H3203 C3233 0.950 . S
C3204 H3186 0.951 . S
C3204 C3205 1.366 . S
C3204 C3206 1.388 . S
C3205 C3204 1.366 . S
C3205 C3209 1.385 . S
C3206 H3187 0.951 . S
C3206 C3204 1.388 . S
C3206 C3207 1.366 1_565 S
C3207 C3206 1.366 1_545 S
C3207 C3208 1.414 1_545 S
C3207 C3210 1.499 . S
C3208 H3188 0.952 . S
C3208 C3207 1.414 1_565 S
C3208 C3209 1.374 . S
C3209 H3189 0.950 . S
C3209 C3205 1.385 . S
C3209 C3208 1.374 . S
C3210 C3207 1.499 . S
C3210 C3211 1.373 . S
C3210 C3212 1.389 . S
C3211 H3190 0.950 . S
C3211 C3210 1.373 . S
C3211 C3227 1.377 . S
C3212 C3210 1.389 . S
C3212 C3213 1.524 . S
C3212 C3226 1.377 . S
C3213 C3212 1.524 . S
C3213 C3214 1.397 1_545 S
C3213 C3218 1.363 . S
C3214 H3191 0.950 . S
C3214 C3213 1.397 1_565 S
C3214 C3215 1.334 . S
C3215 H3192 0.950 . S
C3215 C3214 1.334 . S
C3215 C3216 1.287 . S
C3216 C3215 1.287 . S
C3216 C3217 1.524 . S
C3216 H3235 0.913 . S
C3217 H3193 0.950 . S
C3217 C3216 1.524 . S
C3217 C3218 1.415 1_565 S
C3218 H3194 0.950 . S
C3218 C3213 1.363 . S
C3218 C3217 1.415 1_545 S
C3219 H3195 0.951 . S
C3219 C3220 1.366 . S
C3219 C3221 1.388 . S
C3220 C3219 1.366 . S
C3220 C3224 1.385 . S
C3221 H3196 0.951 . S
C3221 C3219 1.388 . S
C3221 C3222 1.366 . S
C3222 C3221 1.366 . S
C3222 C3223 1.414 . S
C3222 C3225 1.499 . S
C3223 H3197 0.950 . S
C3223 C3222 1.414 . S
C3223 C3224 1.374 . S
C3224 H3198 0.950 . S
C3224 C3220 1.385 . S
C3224 C3223 1.374 . S
C3225 C3222 1.499 . S
C3225 C3226 1.373 . S
C3225 C3227 1.389 . S
C3226 H3199 0.950 . S
C3226 C3212 1.377 . S
C3226 C3225 1.373 . S
C3227 C3211 1.377 . S
C3227 C3225 1.389 . S
C3227 C3228 1.524 . S
C3228 C3227 1.524 . S
C3228 C3229 1.397 . S
C3228 C3233 1.363 . S
C3229 H3200 0.950 . S
C3229 C3228 1.397 . S
C3229 C3230 1.334 . S
C3230 H3201 0.950 . S
C3230 C3229 1.334 . S
C3230 C3231 1.287 . S
C3231 C3230 1.287 . S
C3231 C3232 1.524 . S
C3231 H3234 0.999 . S
C3232 H3202 0.950 . S
C3232 C3231 1.524 . S
C3232 C3233 1.415 . S
C3233 H3203 0.950 . S
C3233 C3228 1.363 . S
C3233 C3232 1.415 . S
H3234 C3231 0.999 . S
H3235 C3216 0.913 . S
H3236 C3254 0.951 . S
H3237 C3256 0.951 . S
H3238 C3258 0.950 . S
H3239 C3259 0.950 . S
H3240 C3261 0.950 . S
H3241 C3264 0.950 . S
H3242 C3265 0.950 . S
H3243 C3267 0.950 . S
H3244 C3268 0.950 . S
H3245 C3269 0.951 . S
H3246 C3271 0.951 . S
H3247 C3273 0.950 . S
H3248 C3274 0.950 . S
H3249 C3276 0.950 . S
H3250 C3279 0.950 . S
H3251 C3280 0.950 . S
H3252 C3282 0.950 . S
H3253 C3283 0.950 . S
C3254 H3236 0.951 . S
C3254 C3255 1.366 . S
C3254 C3256 1.388 1_455 S
C3255 C3254 1.366 . S
C3255 C3259 1.385 . S
C3256 H3237 0.951 . S
C3256 C3254 1.388 1_655 S
C3256 C3257 1.366 . S
C3257 C3256 1.366 . S
C3257 C3258 1.414 1_655 S
C3257 C3260 1.499 . S
C3258 H3238 0.950 . S
C3258 C3257 1.414 1_455 S
C3258 C3259 1.374 . S
C3259 H3239 0.950 . S
C3259 C3255 1.385 . S
C3259 C3258 1.374 . S
C3260 C3257 1.499 . S
C3260 C3261 1.373 . S
C3260 C3262 1.389 . S
C3261 H3240 0.950 . S
C3261 C3260 1.373 . S
C3261 C3277 1.377 . S
C3262 C3260 1.389 . S
C3262 C3263 1.524 . S
C3262 C3276 1.377 . S
C3263 C3262 1.524 . S
C3263 C3264 1.397 . S
C3263 C3268 1.363 . S
C3264 H3241 0.950 . S
C3264 C3263 1.397 . S
C3264 C3265 1.334 . S
C3265 H3242 0.950 . S
C3265 C3264 1.334 . S
C3265 C3266 1.287 . S
C3266 C3265 1.287 . S
C3266 C3267 1.524 . S
C3266 H3285 0.913 . S
C3267 H3243 0.950 . S
C3267 C3266 1.524 . S
C3267 C3268 1.415 . S
C3268 H3244 0.950 . S
C3268 C3263 1.363 . S
C3268 C3267 1.415 . S
C3269 H3245 0.951 . S
C3269 C3270 1.366 . S
C3269 C3271 1.388 . S
C3270 C3269 1.366 . S
C3270 C3274 1.385 . S
C3271 H3246 0.951 . S
C3271 C3269 1.388 . S
C3271 C3272 1.366 . S
C3272 C3271 1.366 . S
C3272 C3273 1.414 . S
C3272 C3275 1.499 . S
C3273 H3247 0.950 . S
C3273 C3272 1.414 . S
C3273 C3274 1.374 . S
C3274 H3248 0.950 . S
C3274 C3270 1.385 . S
C3274 C3273 1.374 . S
C3275 C3272 1.499 . S
C3275 C3276 1.373 . S
C3275 C3277 1.389 . S
C3276 H3249 0.950 . S
C3276 C3262 1.377 . S
C3276 C3275 1.373 . S
C3277 C3261 1.377 . S
C3277 C3275 1.389 . S
C3277 C3278 1.524 . S
C3278 C3277 1.524 . S
C3278 C3279 1.397 . S
C3278 C3283 1.363 . S
C3279 H3250 0.950 . S
C3279 C3278 1.397 . S
C3279 C3280 1.334 . S
C3280 H3251 0.950 . S
C3280 C3279 1.334 . S
C3280 C3281 1.287 . S
C3281 C3280 1.287 . S
C3281 C3282 1.524 . S
C3281 H3284 0.999 . S
C3282 H3252 0.950 . S
C3282 C3281 1.524 . S
C3282 C3283 1.415 . S
C3283 H3253 0.950 . S
C3283 C3278 1.363 . S
C3283 C3282 1.415 . S
H3284 C3281 0.999 . S
H3285 C3266 0.913 . S
H3286 C3304 0.951 . S
H3287 C3306 0.951 . S
H3288 C3308 0.950 . S
H3289 C3309 0.950 . S
H3290 C3311 0.950 . S
H3291 C3314 0.950 . S
H3292 C3315 0.950 . S
H3293 C3317 0.950 . S
H3294 C3318 0.950 . S
H3295 C3319 0.951 . S
H3296 C3321 0.951 . S
H3297 C3323 0.950 . S
H3298 C3324 0.950 . S
H3299 C3326 0.950 . S
H3300 C3329 0.950 . S
H3301 C3330 0.950 . S
H3302 C3332 0.950 . S
H3303 C3333 0.950 . S
C3304 H3286 0.951 . S
C3304 C3305 1.366 . S
C3304 C3306 1.388 . S
C3305 C3304 1.366 . S
C3305 C3309 1.385 . S
C3306 H3287 0.951 . S
C3306 C3304 1.388 . S
C3306 C3307 1.366 . S
C3307 C3306 1.366 . S
C3307 C3308 1.414 . S
C3307 C3310 1.499 . S
C3308 H3288 0.950 . S
C3308 C3307 1.414 . S
C3308 C3309 1.374 . S
C3309 H3289 0.950 . S
C3309 C3305 1.385 . S
C3309 C3308 1.374 . S
C3310 C3307 1.499 . S
C3310 C3311 1.373 . S
C3310 C3312 1.389 . S
C3311 H3290 0.950 . S
C3311 C3310 1.373 . S
C3311 C3327 1.377 . S
C3312 C3310 1.389 . S
C3312 C3313 1.524 . S
C3312 C3326 1.377 . S
C3313 C3312 1.524 . S
C3313 C3314 1.397 . S
C3313 C3318 1.363 . S
C3314 H3291 0.950 . S
C3314 C3313 1.397 . S
C3314 C3315 1.334 . S
C3315 H3292 0.950 . S
C3315 C3314 1.334 . S
C3315 C3316 1.287 . S
C3316 C3315 1.287 . S
C3316 C3317 1.524 . S
C3316 H3335 0.913 . S
C3317 H3293 0.950 . S
C3317 C3316 1.524 . S
C3317 C3318 1.415 . S
C3318 H3294 0.950 . S
C3318 C3313 1.363 . S
C3318 C3317 1.415 . S
C3319 H3295 0.951 . S
C3319 C3320 1.366 . S
C3319 C3321 1.388 . S
C3320 C3319 1.366 . S
C3320 C3324 1.385 . S
C3321 H3296 0.951 . S
C3321 C3319 1.388 . S
C3321 C3322 1.366 . S
C3322 C3321 1.366 . S
C3322 C3323 1.414 . S
C3322 C3325 1.499 . S
C3323 H3297 0.950 . S
C3323 C3322 1.414 . S
C3323 C3324 1.374 . S
C3324 H3298 0.950 . S
C3324 C3320 1.385 . S
C3324 C3323 1.374 . S
C3325 C3322 1.499 . S
C3325 C3326 1.373 . S
C3325 C3327 1.389 . S
C3326 H3299 0.950 . S
C3326 C3312 1.377 . S
C3326 C3325 1.373 . S
C3327 C3311 1.377 . S
C3327 C3325 1.389 . S
C3327 C3328 1.524 . S
C3328 C3327 1.524 . S
C3328 C3329 1.397 . S
C3328 C3333 1.363 . S
C3329 H3300 0.950 . S
C3329 C3328 1.397 . S
C3329 C3330 1.334 . S
C3330 H3301 0.950 . S
C3330 C3329 1.334 . S
C3330 C3331 1.287 . S
C3331 C3330 1.287 . S
C3331 C3332 1.524 . S
C3331 H3334 0.999 . S
C3332 H3302 0.950 . S
C3332 C3331 1.524 . S
C3332 C3333 1.415 . S
C3333 H3303 0.950 . S
C3333 C3328 1.363 . S
C3333 C3332 1.415 . S
H3334 C3331 0.999 . S
H3335 C3316 0.913 . S
H3336 C3354 0.951 . S
H3337 C3356 0.951 1_655 S
H3338 C3358 0.950 . S
H3339 C3359 0.950 . S
H3340 C3361 0.950 . S
H3341 C3364 0.912 1_455 S
H3342 C3365 0.950 . S
H3343 C3367 0.950 . S
H3344 C3368 0.950 . S
H3345 C3369 0.951 . S
H3346 C3371 0.951 . S
H3347 C3373 0.950 . S
H3348 C3374 0.950 . S
H3349 C3376 0.950 . S
H3350 C3379 0.950 . S
H3351 C3380 0.950 . S
H3352 C3382 0.950 . S
H3353 C3383 0.950 . S
C3354 H3336 0.951 . S
C3354 C3355 1.366 . S
C3354 C3356 1.388 . S
C3355 C3354 1.366 . S
C3355 C3359 1.385 . S
C3356 H3337 0.951 1_455 S
C3356 C3354 1.388 . S
C3356 C3357 1.366 1_455 S
C3357 C3356 1.366 1_655 S
C3357 C3358 1.414 1_655 S
C3357 C3360 1.499 . S
C3358 H3338 0.950 . S
C3358 C3357 1.414 1_455 S
C3358 C3359 1.374 . S
C3359 H3339 0.950 . S
C3359 C3355 1.385 . S
C3359 C3358 1.374 . S
C3360 C3357 1.499 . S
C3360 C3361 1.373 . S
C3360 C3362 1.389 . S
C3361 H3340 0.950 . S
C3361 C3360 1.373 . S
C3361 C3377 1.377 . S
C3362 C3360 1.389 . S
C3362 C3363 1.524 . S
C3362 C3376 1.377 . S
C3363 C3362 1.524 . S
C3363 C3364 1.442 . S
C3363 C3368 1.363 . S
C3364 H3341 0.912 1_655 S
C3364 C3363 1.442 . S
C3364 C3365 1.327 1_655 S
C3365 H3342 0.950 . S
C3365 C3364 1.327 1_455 S
C3365 C3366 1.287 . S
C3366 C3365 1.287 . S
C3366 C3367 1.524 1_455 S
C3366 H3385 0.913 . S
C3367 H3343 0.950 . S
C3367 C3366 1.524 1_655 S
C3367 C3368 1.415 . S
C3368 H3344 0.950 . S
C3368 C3363 1.363 . S
C3368 C3367 1.415 . S
C3369 H3345 0.951 . S
C3369 C3370 1.366 . S
C3369 C3371 1.388 . S
C3370 C3369 1.366 . S
C3370 C3374 1.385 . S
C3371 H3346 0.951 . S
C3371 C3369 1.388 . S
C3371 C3372 1.366 . S
C3372 C3371 1.366 . S
C3372 C3373 1.414 . S
C3372 C3375 1.499 . S
C3373 H3347 0.950 . S
C3373 C3372 1.414 . S
C3373 C3374 1.374 . S
C3374 H3348 0.950 . S
C3374 C3370 1.385 . S
C3374 C3373 1.374 . S
C3375 C3372 1.499 . S
C3375 C3376 1.373 . S
C3375 C3377 1.389 . S
C3376 H3349 0.950 . S
C3376 C3362 1.377 . S
C3376 C3375 1.373 . S
C3377 C3361 1.377 . S
C3377 C3375 1.389 . S
C3377 C3378 1.524 . S
C3378 C3377 1.524 . S
C3378 C3379 1.397 . S
C3378 C3383 1.363 . S
C3379 H3350 0.950 . S
C3379 C3378 1.397 . S
C3379 C3380 1.334 . S
C3380 H3351 0.950 . S
C3380 C3379 1.334 . S
C3380 C3381 1.287 . S
C3381 C3380 1.287 . S
C3381 C3382 1.524 . S
C3381 H3384 0.999 . S
C3382 H3352 0.950 . S
C3382 C3381 1.524 . S
C3382 C3383 1.415 . S
C3383 H3353 0.950 . S
C3383 C3378 1.363 . S
C3383 C3382 1.415 . S
H3384 C3381 0.999 . S
H3385 C3366 0.913 . S
H3386 C3404 0.951 . S
H3387 C3406 0.951 . S
H3388 C3408 0.950 . S
H3389 C3409 0.950 . S
H3390 C3411 0.950 . S
H3391 C3414 0.950 . S
H3392 C3415 0.950 . S
H3393 C3417 0.950 . S
H3394 C3418 0.950 . S
H3395 C3419 0.951 . S
H3396 C3421 0.951 . S
H3397 C3423 0.950 . S
H3398 C3424 0.950 . S
H3399 C3426 0.950 . S
H3400 C3429 0.950 . S
H3401 C3430 0.950 . S
H3402 C3432 0.950 . S
H3403 C3433 0.950 . S
C3404 H3386 0.951 . S
C3404 C3405 1.366 . S
C3404 C3406 1.388 . S
C3405 C3404 1.366 . S
C3405 C3409 1.385 . S
C3406 H3387 0.951 . S
C3406 C3404 1.388 . S
C3406 C3407 1.366 . S
C3407 C3406 1.366 . S
C3407 C3408 1.414 . S
C3407 C3410 1.499 . S
C3408 H3388 0.950 . S
C3408 C3407 1.414 . S
C3408 C3409 1.374 . S
C3409 H3389 0.950 . S
C3409 C3405 1.385 . S
C3409 C3408 1.374 . S
C3410 C3407 1.499 . S
C3410 C3411 1.373 . S
C3410 C3412 1.389 . S
C3411 H3390 0.950 . S
C3411 C3410 1.373 . S
C3411 C3427 1.377 . S
C3412 C3410 1.389 . S
C3412 C3413 1.524 . S
C3412 C3426 1.377 . S
C3413 C3412 1.524 . S
C3413 C3414 1.397 . S
C3413 C3418 1.363 . S
C3414 H3391 0.950 . S
C3414 C3413 1.397 . S
C3414 C3415 1.334 . S
C3415 H3392 0.950 . S
C3415 C3414 1.334 . S
C3415 C3416 1.287 . S
C3416 C3415 1.287 . S
C3416 C3417 1.524 . S
C3416 H3435 0.913 . S
C3417 H3393 0.950 . S
C3417 C3416 1.524 . S
C3417 C3418 1.415 . S
C3418 H3394 0.950 . S
C3418 C3413 1.363 . S
C3418 C3417 1.415 . S
C3419 H3395 0.951 . S
C3419 C3420 1.366 . S
C3419 C3421 1.388 . S
C3420 C3419 1.366 . S
C3420 C3424 1.385 . S
C3421 H3396 0.951 . S
C3421 C3419 1.388 . S
C3421 C3422 1.366 . S
C3422 C3421 1.366 . S
C3422 C3423 1.414 . S
C3422 C3425 1.499 . S
C3423 H3397 0.950 . S
C3423 C3422 1.414 . S
C3423 C3424 1.374 . S
C3424 H3398 0.950 . S
C3424 C3420 1.385 . S
C3424 C3423 1.374 . S
C3425 C3422 1.499 . S
C3425 C3426 1.373 . S
C3425 C3427 1.389 . S
C3426 H3399 0.950 . S
C3426 C3412 1.377 . S
C3426 C3425 1.373 . S
C3427 C3411 1.377 . S
C3427 C3425 1.389 . S
C3427 C3428 1.524 . S
C3428 C3427 1.524 . S
C3428 C3429 1.397 . S
C3428 C3433 1.363 . S
C3429 H3400 0.950 . S
C3429 C3428 1.397 . S
C3429 C3430 1.334 . S
C3430 H3401 0.950 . S
C3430 C3429 1.334 . S
C3430 C3431 1.287 . S
C3431 C3430 1.287 . S
C3431 C3432 1.524 . S
C3431 H3434 0.999 . S
C3432 H3402 0.950 . S
C3432 C3431 1.524 . S
C3432 C3433 1.415 . S
C3433 H3403 0.950 . S
C3433 C3428 1.363 . S
C3433 C3432 1.415 . S
H3434 C3431 0.999 . S
H3435 C3416 0.913 . S
H3436 C3454 0.951 . S
H3437 C3456 0.951 . S
H3438 C3458 0.950 1_545 S
H3439 C3459 0.950 . S
H3440 C3461 0.950 . S
H3441 C3464 0.944 1_545 S
H3442 C3465 0.950 . S
H3443 C3467 0.950 . S
H3444 C3468 0.950 . S
H3445 C3469 0.951 . S
H3446 C3471 0.951 . S
H3447 C3473 0.950 . S
H3448 C3474 0.950 . S
H3449 C3476 0.950 . S
H3450 C3479 0.950 . S
H3451 C3480 0.950 . S
H3452 C3482 0.950 . S
H3453 C3483 0.950 . S
C3454 H3436 0.951 . S
C3454 C3455 1.366 . S
C3454 C3456 1.388 . S
C3455 C3454 1.366 . S
C3455 C3459 1.385 . S
C3456 H3437 0.951 . S
C3456 C3454 1.388 . S
C3456 C3457 1.404 . S
C3457 C3456 1.404 . S
C3457 C3458 1.423 . S
C3457 C3460 1.454 1_565 S
C3458 H3438 0.950 1_565 S
C3458 C3457 1.423 . S
C3458 C3459 1.374 . S
C3459 H3439 0.950 . S
C3459 C3455 1.385 . S
C3459 C3458 1.374 . S
C3460 C3457 1.454 1_545 S
C3460 C3461 1.373 . S
C3460 C3462 1.389 . S
C3461 H3440 0.950 . S
C3461 C3460 1.373 . S
C3461 C3477 1.377 . S
C3462 C3460 1.389 . S
C3462 C3463 1.524 . S
C3462 C3476 1.377 . S
C3463 C3462 1.524 . S
C3463 C3464 1.397 1_545 S
C3463 C3468 1.363 . S
C3464 H3441 0.944 1_565 S
C3464 C3463 1.397 1_565 S
C3464 C3465 1.334 . S
C3465 H3442 0.950 . S
C3465 C3464 1.334 . S
C3465 C3466 1.287 . S
C3466 C3465 1.287 . S
C3466 C3467 1.524 . S
C3466 H3485 0.913 . S
C3467 H3443 0.950 . S
C3467 C3466 1.524 . S
C3467 C3468 1.415 1_565 S
C3468 H3444 0.950 . S
C3468 C3463 1.363 . S
C3468 C3467 1.415 1_545 S
C3469 H3445 0.951 . S
C3469 C3470 1.366 . S
C3469 C3471 1.388 . S
C3470 C3469 1.366 . S
C3470 C3474 1.385 . S
C3471 H3446 0.951 . S
C3471 C3469 1.388 . S
C3471 C3472 1.366 . S
C3472 C3471 1.366 . S
C3472 C3473 1.414 . S
C3472 C3475 1.499 . S
C3473 H3447 0.950 . S
C3473 C3472 1.414 . S
C3473 C3474 1.374 . S
C3474 H3448 0.950 . S
C3474 C3470 1.385 . S
C3474 C3473 1.374 . S
C3475 C3472 1.499 . S
C3475 C3476 1.373 . S
C3475 C3477 1.389 . S
C3476 H3449 0.950 . S
C3476 C3462 1.377 . S
C3476 C3475 1.373 . S
C3477 C3461 1.377 . S
C3477 C3475 1.389 . S
C3477 C3478 1.524 . S
C3478 C3477 1.524 . S
C3478 C3479 1.397 . S
C3478 C3483 1.363 . S
C3479 H3450 0.950 . S
C3479 C3478 1.397 . S
C3479 C3480 1.334 . S
C3480 H3451 0.950 . S
C3480 C3479 1.334 . S
C3480 C3481 1.287 . S
C3481 C3480 1.287 . S
C3481 C3482 1.524 . S
C3481 H3484 0.999 . S
C3482 H3452 0.950 . S
C3482 C3481 1.524 . S
C3482 C3483 1.415 . S
C3483 H3453 0.950 . S
C3483 C3478 1.363 . S
C3483 C3482 1.415 . S
H3484 C3481 0.999 . S
H3485 C3466 0.913 . S
H3486 C3504 0.951 . S
H3487 C3506 0.951 . S
H3488 C3508 0.950 . S
H3489 C3509 0.950 . S
H3490 C3511 0.950 . S
H3491 C3514 0.950 . S
H3492 C3515 0.950 . S
H3493 C3517 0.950 . S
H3494 C3518 0.950 . S
H3495 C3519 0.951 . S
H3496 C3521 0.951 . S
H3497 C3523 0.950 . S
H3498 C3524 0.950 . S
H3499 C3526 0.950 . S
H3500 C3529 0.950 . S
H3501 C3530 0.950 . S
H3502 C3532 0.950 . S
H3503 C3533 0.950 . S
C3504 H3486 0.951 . S
C3504 C3505 1.366 . S
C3504 C3506 1.388 . S
C3505 C3504 1.366 . S
C3505 C3509 1.385 . S
C3506 H3487 0.951 . S
C3506 C3504 1.388 . S
C3506 C3507 1.366 . S
C3507 C3506 1.366 . S
C3507 C3508 1.414 . S
C3507 C3510 1.499 . S
C3508 H3488 0.950 . S
C3508 C3507 1.414 . S
C3508 C3509 1.374 . S
C3509 H3489 0.950 . S
C3509 C3505 1.385 . S
C3509 C3508 1.374 . S
C3510 C3507 1.499 . S
C3510 C3511 1.373 . S
C3510 C3512 1.389 . S
C3511 H3490 0.950 . S
C3511 C3510 1.373 . S
C3511 C3527 1.377 . S
C3512 C3510 1.389 . S
C3512 C3513 1.524 . S
C3512 C3526 1.377 . S
C3513 C3512 1.524 . S
C3513 C3514 1.397 . S
C3513 C3518 1.363 . S
C3514 H3491 0.950 . S
C3514 C3513 1.397 . S
C3514 C3515 1.334 . S
C3515 H3492 0.950 . S
C3515 C3514 1.334 . S
C3515 C3516 1.287 . S
C3516 C3515 1.287 . S
C3516 C3517 1.524 . S
C3516 H3535 0.913 . S
C3517 H3493 0.950 . S
C3517 C3516 1.524 . S
C3517 C3518 1.415 . S
C3518 H3494 0.950 . S
C3518 C3513 1.363 . S
C3518 C3517 1.415 . S
C3519 H3495 0.951 . S
C3519 C3520 1.366 . S
C3519 C3521 1.388 . S
C3520 C3519 1.366 . S
C3520 C3524 1.385 . S
C3521 H3496 0.951 . S
C3521 C3519 1.388 . S
C3521 C3522 1.366 . S
C3522 C3521 1.366 . S
C3522 C3523 1.414 . S
C3522 C3525 1.499 . S
C3523 H3497 0.950 . S
C3523 C3522 1.414 . S
C3523 C3524 1.374 . S
C3524 H3498 0.950 . S
C3524 C3520 1.385 . S
C3524 C3523 1.374 . S
C3525 C3522 1.499 . S
C3525 C3526 1.373 . S
C3525 C3527 1.389 . S
C3526 H3499 0.950 . S
C3526 C3512 1.377 . S
C3526 C3525 1.373 . S
C3527 C3511 1.377 . S
C3527 C3525 1.389 . S
C3527 C3528 1.524 . S
C3528 C3527 1.524 . S
C3528 C3529 1.397 . S
C3528 C3533 1.363 . S
C3529 H3500 0.950 . S
C3529 C3528 1.397 . S
C3529 C3530 1.334 . S
C3530 H3501 0.950 . S
C3530 C3529 1.334 . S
C3530 C3531 1.287 . S
C3531 C3530 1.287 . S
C3531 C3532 1.524 . S
C3531 H3534 0.999 . S
C3532 H3502 0.950 . S
C3532 C3531 1.524 . S
C3532 C3533 1.415 . S
C3533 H3503 0.950 . S
C3533 C3528 1.363 . S
C3533 C3532 1.415 . S
H3534 C3531 0.999 . S
H3535 C3516 0.913 . S
H3536 C3554 0.951 . S
H3537 C3556 0.951 . S
H3538 C3558 0.950 . S
H3539 C3559 0.950 . S
H3540 C3561 0.950 . S
H3541 C3564 0.950 . S
H3542 C3565 0.950 . S
H3543 C3567 0.950 . S
H3544 C3568 0.950 . S
H3545 C3569 0.951 . S
H3546 C3571 0.951 . S
H3547 C3573 0.950 . S
H3548 C3574 0.950 . S
H3549 C3576 0.950 . S
H3550 C3579 0.950 . S
H3551 C3580 0.950 . S
H3552 C3582 0.950 . S
H3553 C3583 0.950 . S
C3554 H3536 0.951 . S
C3554 C3555 1.366 . S
C3554 C3556 1.388 . S
C3555 C3554 1.366 . S
C3555 C3559 1.385 . S
C3556 H3537 0.951 . S
C3556 C3554 1.388 . S
C3556 C3557 1.366 . S
C3557 C3556 1.366 . S
C3557 C3558 1.414 . S
C3557 C3560 1.499 . S
C3558 H3538 0.950 . S
C3558 C3557 1.414 . S
C3558 C3559 1.374 . S
C3559 H3539 0.950 . S
C3559 C3555 1.385 . S
C3559 C3558 1.374 . S
C3560 C3557 1.499 . S
C3560 C3561 1.373 . S
C3560 C3562 1.389 . S
C3561 H3540 0.950 . S
C3561 C3560 1.373 . S
C3561 C3577 1.377 . S
C3562 C3560 1.389 . S
C3562 C3563 1.524 . S
C3562 C3576 1.377 . S
C3563 C3562 1.524 . S
C3563 C3564 1.397 . S
C3563 C3568 1.363 . S
C3564 H3541 0.950 . S
C3564 C3563 1.397 . S
C3564 C3565 1.334 . S
C3565 H3542 0.950 . S
C3565 C3564 1.334 . S
C3565 C3566 1.287 . S
C3566 C3565 1.287 . S
C3566 C3567 1.524 . S
C3566 H3585 0.913 . S
C3567 H3543 0.950 . S
C3567 C3566 1.524 . S
C3567 C3568 1.415 . S
C3568 H3544 0.950 . S
C3568 C3563 1.363 . S
C3568 C3567 1.415 . S
C3569 H3545 0.951 . S
C3569 C3570 1.366 . S
C3569 C3571 1.388 . S
C3570 C3569 1.366 . S
C3570 C3574 1.385 . S
C3571 H3546 0.951 . S
C3571 C3569 1.388 . S
C3571 C3572 1.366 . S
C3572 C3571 1.366 . S
C3572 C3573 1.414 . S
C3572 C3575 1.499 . S
C3573 H3547 0.950 . S
C3573 C3572 1.414 . S
C3573 C3574 1.374 . S
C3574 H3548 0.950 . S
C3574 C3570 1.385 . S
C3574 C3573 1.374 . S
C3575 C3572 1.499 . S
C3575 C3576 1.373 . S
C3575 C3577 1.389 . S
C3576 H3549 0.950 . S
C3576 C3562 1.377 . S
C3576 C3575 1.373 . S
C3577 C3561 1.377 . S
C3577 C3575 1.389 . S
C3577 C3578 1.524 . S
C3578 C3577 1.524 . S
C3578 C3579 1.397 . S
C3578 C3583 1.363 . S
C3579 H3550 0.950 . S
C3579 C3578 1.397 . S
C3579 C3580 1.334 . S
C3580 H3551 0.950 . S
C3580 C3579 1.334 . S
C3580 C3581 1.287 . S
C3581 C3580 1.287 . S
C3581 C3582 1.524 . S
C3581 H3584 0.999 . S
C3582 H3552 0.950 . S
C3582 C3581 1.524 . S
C3582 C3583 1.415 . S
C3583 H3553 0.950 . S
C3583 C3578 1.363 . S
C3583 C3582 1.415 . S
H3584 C3581 0.999 . S
H3585 C3566 0.913 . S
H3586 C3604 0.951 . S
H3587 C3606 0.951 . S
H3588 C3608 0.950 . S
H3589 C3609 0.950 . S
H3590 C3611 0.950 . S
H3591 C3614 0.950 . S
H3592 C3615 0.950 . S
H3593 C3617 0.950 . S
H3594 C3618 0.950 . S
H3595 C3619 0.951 . S
H3596 C3621 0.951 . S
H3597 C3623 0.950 . S
H3598 C3624 0.950 . S
H3599 C3626 0.950 . S
H3600 C3629 0.950 . S
H3601 C3630 0.950 . S
H3602 C3632 0.950 . S
H3603 C3633 0.950 . S
C3604 H3586 0.951 . S
C3604 C3605 1.366 . S
C3604 C3606 1.388 . S
C3605 C3604 1.366 . S
C3605 C3609 1.385 . S
C3606 H3587 0.951 . S
C3606 C3604 1.388 . S
C3606 C3607 1.366 . S
C3607 C3606 1.366 . S
C3607 C3608 1.414 . S
C3607 C3610 1.499 . S
C3608 H3588 0.950 . S
C3608 C3607 1.414 . S
C3608 C3609 1.374 . S
C3609 H3589 0.950 . S
C3609 C3605 1.385 . S
C3609 C3608 1.374 . S
C3610 C3607 1.499 . S
C3610 C3611 1.373 . S
C3610 C3612 1.389 . S
C3611 H3590 0.950 . S
C3611 C3610 1.373 . S
C3611 C3627 1.377 . S
C3612 C3610 1.389 . S
C3612 C3613 1.524 . S
C3612 C3626 1.377 . S
C3613 C3612 1.524 . S
C3613 C3614 1.397 . S
C3613 C3618 1.363 . S
C3614 H3591 0.950 . S
C3614 C3613 1.397 . S
C3614 C3615 1.334 . S
C3615 H3592 0.950 . S
C3615 C3614 1.334 . S
C3615 C3616 1.287 . S
C3616 C3615 1.287 . S
C3616 C3617 1.524 . S
C3616 H3635 0.913 . S
C3617 H3593 0.950 . S
C3617 C3616 1.524 . S
C3617 C3618 1.415 . S
C3618 H3594 0.950 . S
C3618 C3613 1.363 . S
C3618 C3617 1.415 . S
C3619 H3595 0.951 . S
C3619 C3620 1.366 . S
C3619 C3621 1.388 . S
C3620 C3619 1.366 . S
C3620 C3624 1.385 . S
C3621 H3596 0.951 . S
C3621 C3619 1.388 . S
C3621 C3622 1.366 . S
C3622 C3621 1.366 . S
C3622 C3623 1.414 . S
C3622 C3625 1.499 . S
C3623 H3597 0.950 . S
C3623 C3622 1.414 . S
C3623 C3624 1.374 . S
C3624 H3598 0.950 . S
C3624 C3620 1.385 . S
C3624 C3623 1.374 . S
C3625 C3622 1.499 . S
C3625 C3626 1.373 . S
C3625 C3627 1.389 . S
C3626 H3599 0.950 . S
C3626 C3612 1.377 . S
C3626 C3625 1.373 . S
C3627 C3611 1.377 . S
C3627 C3625 1.389 . S
C3627 C3628 1.524 . S
C3628 C3627 1.524 . S
C3628 C3629 1.397 . S
C3628 C3633 1.363 . S
C3629 H3600 0.950 . S
C3629 C3628 1.397 . S
C3629 C3630 1.334 . S
C3630 H3601 0.950 . S
C3630 C3629 1.334 . S
C3630 C3631 1.287 . S
C3631 C3630 1.287 . S
C3631 C3632 1.524 . S
C3631 H3634 0.999 . S
C3632 H3602 0.950 . S
C3632 C3631 1.524 . S
C3632 C3633 1.415 . S
C3633 H3603 0.950 . S
C3633 C3628 1.363 . S
C3633 C3632 1.415 . S
H3634 C3631 0.999 . S
H3635 C3616 0.913 . S
H3636 C3654 0.951 . S
H3637 C3656 0.951 . S
H3638 C3658 0.950 . S
H3639 C3659 0.950 . S
H3640 C3661 0.950 . S
H3641 C3664 0.950 . S
H3642 C3665 0.950 . S
H3643 C3667 0.950 . S
H3644 C3668 0.950 . S
H3645 C3669 0.951 . S
H3646 C3671 0.951 . S
H3647 C3673 0.950 . S
H3648 C3674 0.950 . S
H3649 C3676 0.950 . S
H3650 C3679 0.950 . S
H3651 C3680 0.950 . S
H3652 C3682 0.950 . S
H3653 C3683 0.950 . S
C3654 H3636 0.951 . S
C3654 C3655 1.366 . S
C3654 C3656 1.388 . S
C3655 C3654 1.366 . S
C3655 C3659 1.385 . S
C3656 H3637 0.951 . S
C3656 C3654 1.388 . S
C3656 C3657 1.366 . S
C3657 C3656 1.366 . S
C3657 C3658 1.414 . S
C3657 C3660 1.499 . S
C3658 H3638 0.950 . S
C3658 C3657 1.414 . S
C3658 C3659 1.374 . S
C3659 H3639 0.950 . S
C3659 C3655 1.385 . S
C3659 C3658 1.374 . S
C3660 C3657 1.499 . S
C3660 C3661 1.373 . S
C3660 C3662 1.389 . S
C3661 H3640 0.950 . S
C3661 C3660 1.373 . S
C3661 C3677 1.377 . S
C3662 C3660 1.389 . S
C3662 C3663 1.524 . S
C3662 C3676 1.377 . S
C3663 C3662 1.524 . S
C3663 C3664 1.397 . S
C3663 C3668 1.363 . S
C3664 H3641 0.950 . S
C3664 C3663 1.397 . S
C3664 C3665 1.334 . S
C3665 H3642 0.950 . S
C3665 C3664 1.334 . S
C3665 C3666 1.287 . S
C3666 C3665 1.287 . S
C3666 C3667 1.524 . S
C3666 H3685 0.913 . S
C3667 H3643 0.950 . S
C3667 C3666 1.524 . S
C3667 C3668 1.415 . S
C3668 H3644 0.950 . S
C3668 C3663 1.363 . S
C3668 C3667 1.415 . S
C3669 H3645 0.951 . S
C3669 C3670 1.366 . S
C3669 C3671 1.388 . S
C3670 C3669 1.366 . S
C3670 C3674 1.385 . S
C3671 H3646 0.951 . S
C3671 C3669 1.388 . S
C3671 C3672 1.366 . S
C3672 C3671 1.366 . S
C3672 C3673 1.414 . S
C3672 C3675 1.499 . S
C3673 H3647 0.950 . S
C3673 C3672 1.414 . S
C3673 C3674 1.374 . S
C3674 H3648 0.950 . S
C3674 C3670 1.385 . S
C3674 C3673 1.374 . S
C3675 C3672 1.499 . S
C3675 C3676 1.373 . S
C3675 C3677 1.389 . S
C3676 H3649 0.950 . S
C3676 C3662 1.377 . S
C3676 C3675 1.373 . S
C3677 C3661 1.377 . S
C3677 C3675 1.389 . S
C3677 C3678 1.524 . S
C3678 C3677 1.524 . S
C3678 C3679 1.397 . S
C3678 C3683 1.363 . S
C3679 H3650 0.950 . S
C3679 C3678 1.397 . S
C3679 C3680 1.334 . S
C3680 H3651 0.950 . S
C3680 C3679 1.334 . S
C3680 C3681 1.287 . S
C3681 C3680 1.287 . S
C3681 C3682 1.524 . S
C3681 H3684 0.999 . S
C3682 H3652 0.950 . S
C3682 C3681 1.524 . S
C3682 C3683 1.415 . S
C3683 H3653 0.950 . S
C3683 C3678 1.363 . S
C3683 C3682 1.415 . S
H3684 C3681 0.999 . S
H3685 C3666 0.913 . S
H3686 C3704 0.951 . S
H3687 C3706 0.951 . S
H3688 C3708 0.950 . S
H3689 C3709 0.950 . S
H3690 C3711 0.950 . S
H3691 C3714 0.950 . S
H3692 C3715 0.950 . S
H3693 C3717 0.950 . S
H3694 C3718 0.950 . S
H3695 C3719 0.951 . S
H3696 C3721 0.951 . S
H3697 C3723 0.950 . S
H3698 C3724 0.950 . S
H3699 C3726 0.950 . S
H3700 C3729 0.950 . S
H3701 C3730 0.950 . S
H3702 C3732 0.950 . S
H3703 C3733 0.950 . S
C3704 H3686 0.951 . S
C3704 C3705 1.366 . S
C3704 C3706 1.388 . S
C3705 C3704 1.366 . S
C3705 C3709 1.385 . S
C3706 H3687 0.951 . S
C3706 C3704 1.388 . S
C3706 C3707 1.366 . S
C3707 C3706 1.366 . S
C3707 C3708 1.414 . S
C3707 C3710 1.499 . S
C3708 H3688 0.950 . S
C3708 C3707 1.414 . S
C3708 C3709 1.374 . S
C3709 H3689 0.950 . S
C3709 C3705 1.385 . S
C3709 C3708 1.374 . S
C3710 C3707 1.499 . S
C3710 C3711 1.373 . S
C3710 C3712 1.389 . S
C3711 H3690 0.950 . S
C3711 C3710 1.373 . S
C3711 C3727 1.377 . S
C3712 C3710 1.389 . S
C3712 C3713 1.524 . S
C3712 C3726 1.377 . S
C3713 C3712 1.524 . S
C3713 C3714 1.397 . S
C3713 C3718 1.363 . S
C3714 H3691 0.950 . S
C3714 C3713 1.397 . S
C3714 C3715 1.334 . S
C3715 H3692 0.950 . S
C3715 C3714 1.334 . S
C3715 C3716 1.287 . S
C3716 C3715 1.287 . S
C3716 C3717 1.524 . S
C3716 H3735 0.913 . S
C3717 H3693 0.950 . S
C3717 C3716 1.524 . S
C3717 C3718 1.415 . S
C3718 H3694 0.950 . S
C3718 C3713 1.363 . S
C3718 C3717 1.415 . S
C3719 H3695 0.951 . S
C3719 C3720 1.366 . S
C3719 C3721 1.388 . S
C3720 C3719 1.366 . S
C3720 C3724 1.385 . S
C3721 H3696 0.951 . S
C3721 C3719 1.388 . S
C3721 C3722 1.366 . S
C3722 C3721 1.366 . S
C3722 C3723 1.414 . S
C3722 C3725 1.499 . S
C3723 H3697 0.950 . S
C3723 C3722 1.414 . S
C3723 C3724 1.374 . S
C3724 H3698 0.950 . S
C3724 C3720 1.385 . S
C3724 C3723 1.374 . S
C3725 C3722 1.499 . S
C3725 C3726 1.373 . S
C3725 C3727 1.389 . S
C3726 H3699 0.950 . S
C3726 C3712 1.377 . S
C3726 C3725 1.373 . S
C3727 C3711 1.377 . S
C3727 C3725 1.389 . S
C3727 C3728 1.524 . S
C3728 C3727 1.524 . S
C3728 C3729 1.397 1_455 S
C3728 C3733 1.363 . S
C3729 H3700 0.950 . S
C3729 C3728 1.397 1_655 S
C3729 C3730 1.334 . S
C3730 H3701 0.950 . S
C3730 C3729 1.334 . S
C3730 C3731 1.287 . S
C3731 C3730 1.287 . S
C3731 C3732 1.524 . S
C3731 H3734 0.999 . S
C3732 H3702 0.950 . S
C3732 C3731 1.524 . S
C3732 C3733 1.415 1_655 S
C3733 H3703 0.950 . S
C3733 C3728 1.363 . S
C3733 C3732 1.415 1_455 S
H3734 C3731 0.999 . S
H3735 C3716 0.913 . S
H3736 C3754 0.951 . S
H3737 C3756 0.951 . S
H3738 C3758 0.950 . S
H3739 C3759 0.950 . S
H3740 C3761 0.950 . S
H3741 C3764 0.950 . S
H3742 C3765 0.950 . S
H3743 C3767 0.950 . S
H3744 C3768 0.950 . S
H3745 C3769 0.951 . S
H3746 C3771 0.951 . S
H3747 C3773 0.950 . S
H3748 C3774 0.950 . S
H3749 C3776 0.950 . S
H3750 C3779 0.950 . S
H3751 C3780 0.950 . S
H3752 C3782 0.950 . S
H3753 C3783 0.950 . S
C3754 H3736 0.951 . S
C3754 C3755 1.366 . S
C3754 C3756 1.388 . S
C3755 C3754 1.366 . S
C3755 C3759 1.385 . S
C3756 H3737 0.951 . S
C3756 C3754 1.388 . S
C3756 C3757 1.366 . S
C3757 C3756 1.366 . S
C3757 C3758 1.414 . S
C3757 C3760 1.499 . S
C3758 H3738 0.950 . S
C3758 C3757 1.414 . S
C3758 C3759 1.374 . S
C3759 H3739 0.950 . S
C3759 C3755 1.385 . S
C3759 C3758 1.374 . S
C3760 C3757 1.499 . S
C3760 C3761 1.373 . S
C3760 C3762 1.389 . S
C3761 H3740 0.950 . S
C3761 C3760 1.373 . S
C3761 C3777 1.377 . S
C3762 C3760 1.389 . S
C3762 C3763 1.524 . S
C3762 C3776 1.377 . S
C3763 C3762 1.524 . S
C3763 C3764 1.397 . S
C3763 C3768 1.363 . S
C3764 H3741 0.950 . S
C3764 C3763 1.397 . S
C3764 C3765 1.334 . S
C3765 H3742 0.950 . S
C3765 C3764 1.334 . S
C3765 C3766 1.287 . S
C3766 C3765 1.287 . S
C3766 C3767 1.524 . S
C3766 H3785 0.913 . S
C3767 H3743 0.950 . S
C3767 C3766 1.524 . S
C3767 C3768 1.415 . S
C3768 H3744 0.950 . S
C3768 C3763 1.363 . S
C3768 C3767 1.415 . S
C3769 H3745 0.951 . S
C3769 C3770 1.366 . S
C3769 C3771 1.388 . S
C3770 C3769 1.366 . S
C3770 C3774 1.385 . S
C3771 H3746 0.951 . S
C3771 C3769 1.388 . S
C3771 C3772 1.366 . S
C3772 C3771 1.366 . S
C3772 C3773 1.414 . S
C3772 C3775 1.499 . S
C3773 H3747 0.950 . S
C3773 C3772 1.414 . S
C3773 C3774 1.374 . S
C3774 H3748 0.950 . S
C3774 C3770 1.385 . S
C3774 C3773 1.374 . S
C3775 C3772 1.499 . S
C3775 C3776 1.373 . S
C3775 C3777 1.389 . S
C3776 H3749 0.950 . S
C3776 C3762 1.377 . S
C3776 C3775 1.373 . S
C3777 C3761 1.377 . S
C3777 C3775 1.389 . S
C3777 C3778 1.524 . S
C3778 C3777 1.524 . S
C3778 C3779 1.397 . S
C3778 C3783 1.363 . S
C3779 H3750 0.950 . S
C3779 C3778 1.397 . S
C3779 C3780 1.334 . S
C3780 H3751 0.950 . S
C3780 C3779 1.334 . S
C3780 C3781 1.287 . S
C3781 C3780 1.287 . S
C3781 C3782 1.524 . S
C3781 H3784 0.999 . S
C3782 H3752 0.950 . S
C3782 C3781 1.524 . S
C3782 C3783 1.415 . S
C3783 H3753 0.950 . S
C3783 C3778 1.363 . S
C3783 C3782 1.415 . S
H3784 C3781 0.999 . S
H3785 C3766 0.913 . S
H3786 C3804 0.951 . S
H3787 C3806 0.951 . S
H3788 C3808 0.950 . S
H3789 C3809 0.950 . S
H3790 C3811 0.950 . S
H3791 C3814 0.950 . S
H3792 C3815 0.950 . S
H3793 C3817 0.950 . S
H3794 C3818 0.950 . S
H3795 C3819 0.951 . S
H3796 C3821 0.951 . S
H3797 C3823 0.950 . S
H3798 C3824 0.980 . S
H3799 C3826 0.950 . S
H3800 C3829 0.950 1_455 S
H3801 C3830 0.950 . S
H3802 C3832 0.950 . S
H3803 C3833 0.950 . S
C3804 H3786 0.951 . S
C3804 C3805 1.366 . S
C3804 C3806 1.388 . S
C3805 C3804 1.366 . S
C3805 C3809 1.385 . S
C3806 H3787 0.951 . S
C3806 C3804 1.388 . S
C3806 C3807 1.366 . S
C3807 C3806 1.366 . S
C3807 C3808 1.414 . S
C3807 C3810 1.499 . S
C3808 H3788 0.950 . S
C3808 C3807 1.414 . S
C3808 C3809 1.374 . S
C3809 H3789 0.950 . S
C3809 C3805 1.385 . S
C3809 C3808 1.374 . S
C3810 C3807 1.499 . S
C3810 C3811 1.373 . S
C3810 C3812 1.389 . S
C3811 H3790 0.950 . S
C3811 C3810 1.373 . S
C3811 C3827 1.377 . S
C3812 C3810 1.389 . S
C3812 C3813 1.524 . S
C3812 C3826 1.377 . S
C3813 C3812 1.524 . S
C3813 C3814 1.397 . S
C3813 C3818 1.363 . S
C3814 H3791 0.950 . S
C3814 C3813 1.397 . S
C3814 C3815 1.334 . S
C3815 H3792 0.950 . S
C3815 C3814 1.334 . S
C3815 C3816 1.287 . S
C3816 C3815 1.287 . S
C3816 C3817 1.524 . S
C3816 H3835 0.913 . S
C3817 H3793 0.950 . S
C3817 C3816 1.524 . S
C3817 C3818 1.415 . S
C3818 H3794 0.950 . S
C3818 C3813 1.363 . S
C3818 C3817 1.415 . S
C3819 H3795 0.951 . S
C3819 C3820 1.366 . S
C3819 C3821 1.388 . S
C3820 C3819 1.366 . S
C3820 C3824 1.385 . S
C3821 H3796 0.951 . S
C3821 C3819 1.388 . S
C3821 C3822 1.366 . S
C3822 C3821 1.366 . S
C3822 C3823 1.414 . S
C3822 C3825 1.499 . S
C3823 H3797 0.950 . S
C3823 C3822 1.414 . S
C3823 C3824 1.374 . S
C3824 H3798 0.980 . S
C3824 C3820 1.385 . S
C3824 C3823 1.374 . S
C3825 C3822 1.499 . S
C3825 C3826 1.373 . S
C3825 C3827 1.389 . S
C3826 H3799 0.950 . S
C3826 C3812 1.377 . S
C3826 C3825 1.373 . S
C3827 C3811 1.377 . S
C3827 C3825 1.389 . S
C3827 C3828 1.524 . S
C3828 C3827 1.524 . S
C3828 C3829 1.397 . S
C3828 C3833 1.363 . S
C3829 H3800 0.950 1_655 S
C3829 C3828 1.397 . S
C3829 C3830 1.334 1_655 S
C3830 H3801 0.950 . S
C3830 C3829 1.334 1_455 S
C3830 C3831 1.287 1_455 S
C3831 C3830 1.287 1_655 S
C3831 C3832 1.524 . S
C3831 H3834 0.999 1_655 S
C3832 H3802 0.950 . S
C3832 C3831 1.524 . S
C3832 C3833 1.415 . S
C3833 H3803 0.950 . S
C3833 C3828 1.363 . S
C3833 C3832 1.415 . S
H3834 C3831 0.999 1_455 S
H3835 C3816 0.913 . S
H3836 C3854 0.951 . S
H3837 C3856 0.951 . S
H3838 C3858 0.950 . S
H3839 C3859 0.950 . S
H3840 C3861 0.950 . S
H3841 C3864 0.950 . S
H3842 C3865 0.950 . S
H3843 C3867 0.950 . S
H3844 C3868 0.950 . S
H3845 C3869 0.951 . S
H3846 C3871 0.951 . S
H3847 C3873 0.950 . S
H3848 C3874 0.950 . S
H3849 C3876 0.950 . S
H3850 C3879 0.950 . S
H3851 C3880 0.950 . S
H3852 C3882 0.950 . S
H3853 C3883 0.950 . S
C3854 H3836 0.951 . S
C3854 C3855 1.366 . S
C3854 C3856 1.388 . S
C3855 C3854 1.366 . S
C3855 C3859 1.385 . S
C3856 H3837 0.951 . S
C3856 C3854 1.388 . S
C3856 C3857 1.366 . S
C3857 C3856 1.366 . S
C3857 C3858 1.414 . S
C3857 C3860 1.499 . S
C3858 H3838 0.950 . S
C3858 C3857 1.414 . S
C3858 C3859 1.374 . S
C3859 H3839 0.950 . S
C3859 C3855 1.385 . S
C3859 C3858 1.374 . S
C3860 C3857 1.499 . S
C3860 C3861 1.373 . S
C3860 C3862 1.389 . S
C3861 H3840 0.950 . S
C3861 C3860 1.373 . S
C3861 C3877 1.377 . S
C3862 C3860 1.389 . S
C3862 C3863 1.524 . S
C3862 C3876 1.377 . S
C3863 C3862 1.524 . S
C3863 C3864 1.397 . S
C3863 C3868 1.363 . S
C3864 H3841 0.950 . S
C3864 C3863 1.397 . S
C3864 C3865 1.334 . S
C3865 H3842 0.950 . S
C3865 C3864 1.334 . S
C3865 C3866 1.287 . S
C3866 C3865 1.287 . S
C3866 C3867 1.524 . S
C3866 H3885 0.913 . S
C3867 H3843 0.950 . S
C3867 C3866 1.524 . S
C3867 C3868 1.415 . S
C3868 H3844 0.950 . S
C3868 C3863 1.363 . S
C3868 C3867 1.415 . S
C3869 H3845 0.951 . S
C3869 C3870 1.366 . S
C3869 C3871 1.388 . S
C3870 C3869 1.366 . S
C3870 C3874 1.385 . S
C3871 H3846 0.951 . S
C3871 C3869 1.388 . S
C3871 C3872 1.366 . S
C3872 C3871 1.366 . S
C3872 C3873 1.414 . S
C3872 C3875 1.499 . S
C3873 H3847 0.950 . S
C3873 C3872 1.414 . S
C3873 C3874 1.374 . S
C3874 H3848 0.950 . S
C3874 C3870 1.385 . S
C3874 C3873 1.374 . S
C3875 C3872 1.499 . S
C3875 C3876 1.373 . S
C3875 C3877 1.389 . S
C3876 H3849 0.950 . S
C3876 C3862 1.377 . S
C3876 C3875 1.373 . S
C3877 C3861 1.377 . S
C3877 C3875 1.389 . S
C3877 C3878 1.524 . S
C3878 C3877 1.524 . S
C3878 C3879 1.397 . S
C3878 C3883 1.363 . S
C3879 H3850 0.950 . S
C3879 C3878 1.397 . S
C3879 C3880 1.334 . S
C3880 H3851 0.950 . S
C3880 C3879 1.334 . S
C3880 C3881 1.287 . S
C3881 C3880 1.287 . S
C3881 C3882 1.524 . S
C3881 H3884 0.999 . S
C3882 H3852 0.950 . S
C3882 C3881 1.524 . S
C3882 C3883 1.415 . S
C3883 H3853 0.950 . S
C3883 C3878 1.363 . S
C3883 C3882 1.415 . S
H3884 C3881 0.999 . S
H3885 C3866 0.913 . S
H3886 C3904 0.951 . S
H3887 C3906 0.951 . S
H3888 C3908 0.950 . S
H3889 C3909 0.950 . S
H3890 C3911 0.950 . S
H3891 C3914 0.950 . S
H3892 C3915 0.950 . S
H3893 C3917 0.950 1_565 S
H3894 C3918 0.950 . S
H3895 C3919 0.951 . S
H3896 C3921 0.951 . S
H3897 C3923 0.950 . S
H3898 C3924 0.950 1_565 S
H3899 C3926 0.950 . S
H3900 C3929 0.950 . S
H3901 C3930 0.950 . S
H3902 C3932 0.950 . S
H3903 C3933 0.950 . S
C3904 H3886 0.951 . S
C3904 C3905 1.366 . S
C3904 C3906 1.388 . S
C3905 C3904 1.366 . S
C3905 C3909 1.385 . S
C3906 H3887 0.951 . S
C3906 C3904 1.388 . S
C3906 C3907 1.366 . S
C3907 C3906 1.366 . S
C3907 C3908 1.414 . S
C3907 C3910 1.499 . S
C3908 H3888 0.950 . S
C3908 C3907 1.414 . S
C3908 C3909 1.374 . S
C3909 H3889 0.950 . S
C3909 C3905 1.385 . S
C3909 C3908 1.374 . S
C3910 C3907 1.499 . S
C3910 C3911 1.373 . S
C3910 C3912 1.389 . S
C3911 H3890 0.950 . S
C3911 C3910 1.373 . S
C3911 C3927 1.377 . S
C3912 C3910 1.389 . S
C3912 C3913 1.524 . S
C3912 C3926 1.377 . S
C3913 C3912 1.524 . S
C3913 C3914 1.397 . S
C3913 C3918 1.363 . S
C3914 H3891 0.950 . S
C3914 C3913 1.397 . S
C3914 C3915 1.334 . S
C3915 H3892 0.950 . S
C3915 C3914 1.334 . S
C3915 C3916 1.287 . S
C3916 C3915 1.287 . S
C3916 C3917 1.524 . S
C3916 H3935 0.913 . S
C3917 H3893 0.950 1_545 S
C3917 C3916 1.524 . S
C3917 C3918 1.415 . S
C3918 H3894 0.950 . S
C3918 C3913 1.363 . S
C3918 C3917 1.415 . S
C3919 H3895 0.951 . S
C3919 C3920 1.366 . S
C3919 C3921 1.388 . S
C3920 C3919 1.366 . S
C3920 C3924 1.385 . S
C3921 H3896 0.951 . S
C3921 C3919 1.388 . S
C3921 C3922 1.366 . S
C3922 C3921 1.366 . S
C3922 C3923 1.414 . S
C3922 C3925 1.499 . S
C3923 H3897 0.950 . S
C3923 C3922 1.414 . S
C3923 C3924 1.374 . S
C3924 H3898 0.950 1_545 S
C3924 C3920 1.385 . S
C3924 C3923 1.374 . S
C3925 C3922 1.499 . S
C3925 C3926 1.373 . S
C3925 C3927 1.389 . S
C3926 H3899 0.950 . S
C3926 C3912 1.377 . S
C3926 C3925 1.373 . S
C3927 C3911 1.377 . S
C3927 C3925 1.389 . S
C3927 C3928 1.524 . S
C3928 C3927 1.524 . S
C3928 C3929 1.397 . S
C3928 C3933 1.363 . S
C3929 H3900 0.950 . S
C3929 C3928 1.397 . S
C3929 C3930 1.334 . S
C3930 H3901 0.950 . S
C3930 C3929 1.334 . S
C3930 C3931 1.287 . S
C3931 C3930 1.287 . S
C3931 C3932 1.524 . S
C3931 H3934 0.999 . S
C3932 H3902 0.950 . S
C3932 C3931 1.524 . S
C3932 C3933 1.415 . S
C3933 H3903 0.950 . S
C3933 C3928 1.363 . S
C3933 C3932 1.415 . S
H3934 C3931 0.999 . S
H3935 C3916 0.913 . S
H3936 C3954 0.951 . S
H3937 C3956 0.951 . S
H3938 C3958 0.950 . S
H3939 C3959 0.950 . S
H3940 C3961 0.950 . S
H3941 C3964 0.950 . S
H3942 C3965 0.950 . S
H3943 C3967 0.950 . S
H3944 C3968 0.950 . S
H3945 C3969 0.951 . S
H3946 C3971 0.951 . S
H3947 C3973 0.950 . S
H3948 C3974 0.950 . S
H3949 C3976 0.950 . S
H3950 C3979 0.950 . S
H3951 C3980 0.950 . S
H3952 C3982 0.950 . S
H3953 C3983 0.950 . S
C3954 H3936 0.951 . S
C3954 C3955 1.366 . S
C3954 C3956 1.388 . S
C3955 C3954 1.366 . S
C3955 C3959 1.385 . S
C3956 H3937 0.951 . S
C3956 C3954 1.388 . S
C3956 C3957 1.366 . S
C3957 C3956 1.366 . S
C3957 C3958 1.414 . S
C3957 C3960 1.499 . S
C3958 H3938 0.950 . S
C3958 C3957 1.414 . S
C3958 C3959 1.374 . S
C3959 H3939 0.950 . S
C3959 C3955 1.385 . S
C3959 C3958 1.374 . S
C3960 C3957 1.499 . S
C3960 C3961 1.373 . S
C3960 C3962 1.389 . S
C3961 H3940 0.950 . S
C3961 C3960 1.373 . S
C3961 C3977 1.377 . S
C3962 C3960 1.389 . S
C3962 C3963 1.524 . S
C3962 C3976 1.377 . S
C3963 C3962 1.524 . S
C3963 C3964 1.397 . S
C3963 C3968 1.363 . S
C3964 H3941 0.950 . S
C3964 C3963 1.397 . S
C3964 C3965 1.334 . S
C3965 H3942 0.950 . S
C3965 C3964 1.334 . S
C3965 C3966 1.287 . S
C3966 C3965 1.287 . S
C3966 C3967 1.524 . S
C3966 H3985 0.913 . S
C3967 H3943 0.950 . S
C3967 C3966 1.524 . S
C3967 C3968 1.415 . S
C3968 H3944 0.950 . S
C3968 C3963 1.363 . S
C3968 C3967 1.415 . S
C3969 H3945 0.951 . S
C3969 C3970 1.366 . S
C3969 C3971 1.388 . S
C3970 C3969 1.366 . S
C3970 C3974 1.385 . S
C3971 H3946 0.951 . S
C3971 C3969 1.388 . S
C3971 C3972 1.366 . S
C3972 C3971 1.366 . S
C3972 C3973 1.414 . S
C3972 C3975 1.499 . S
C3973 H3947 0.950 . S
C3973 C3972 1.414 . S
C3973 C3974 1.374 . S
C3974 H3948 0.950 . S
C3974 C3970 1.385 . S
C3974 C3973 1.374 . S
C3975 C3972 1.499 . S
C3975 C3976 1.373 . S
C3975 C3977 1.389 . S
C3976 H3949 0.950 . S
C3976 C3962 1.377 . S
C3976 C3975 1.373 . S
C3977 C3961 1.377 . S
C3977 C3975 1.389 . S
C3977 C3978 1.524 . S
C3978 C3977 1.524 . S
C3978 C3979 1.397 . S
C3978 C3983 1.363 . S
C3979 H3950 0.950 . S
C3979 C3978 1.397 . S
C3979 C3980 1.334 . S
C3980 H3951 0.950 . S
C3980 C3979 1.334 . S
C3980 C3981 1.287 . S
C3981 C3980 1.287 . S
C3981 C3982 1.524 . S
C3981 H3984 0.999 . S
C3982 H3952 0.950 . S
C3982 C3981 1.524 . S
C3982 C3983 1.415 . S
C3983 H3953 0.950 . S
C3983 C3978 1.363 . S
C3983 C3982 1.415 . S
H3984 C3981 0.999 . S
H3985 C3966 0.913 . S
H3986 C4004 0.951 . S
H3987 C4006 0.951 . S
H3988 C4008 0.950 . S
H3989 C4009 0.950 . S
H3990 C4011 0.950 . S
H3991 C4014 0.950 . S
H3992 C4015 0.950 . S
H3993 C4017 0.950 . S
H3994 C4018 0.950 . S
H3995 C4019 0.951 . S
H3996 C4021 0.951 . S
H3997 C4023 0.950 . S
H3998 C4024 0.950 . S
H3999 C4026 0.950 . S
H4000 C4029 0.950 . S
H4001 C4030 0.950 . S
H4002 C4032 0.950 . S
H4003 C4033 0.950 . S
C4004 H3986 0.951 . S
C4004 C4005 1.366 . S
C4004 C4006 1.388 . S
C4005 C4004 1.366 . S
C4005 C4009 1.385 . S
C4006 H3987 0.951 . S
C4006 C4004 1.388 . S
C4006 C4007 1.366 . S
C4007 C4006 1.366 . S
C4007 C4008 1.414 . S
C4007 C4010 1.499 . S
C4008 H3988 0.950 . S
C4008 C4007 1.414 . S
C4008 C4009 1.374 . S
C4009 H3989 0.950 . S
C4009 C4005 1.385 . S
C4009 C4008 1.374 . S
C4010 C4007 1.499 . S
C4010 C4011 1.373 . S
C4010 C4012 1.389 . S
C4011 H3990 0.950 . S
C4011 C4010 1.373 . S
C4011 C4027 1.377 . S
C4012 C4010 1.389 . S
C4012 C4013 1.524 . S
C4012 C4026 1.377 . S
C4013 C4012 1.524 . S
C4013 C4014 1.397 . S
C4013 C4018 1.363 . S
C4014 H3991 0.950 . S
C4014 C4013 1.397 . S
C4014 C4015 1.334 . S
C4015 H3992 0.950 . S
C4015 C4014 1.334 . S
C4015 C4016 1.287 . S
C4016 C4015 1.287 . S
C4016 C4017 1.524 . S
C4016 H4035 0.913 . S
C4017 H3993 0.950 . S
C4017 C4016 1.524 . S
C4017 C4018 1.415 . S
C4018 H3994 0.950 . S
C4018 C4013 1.363 . S
C4018 C4017 1.415 . S
C4019 H3995 0.951 . S
C4019 C4020 1.366 . S
C4019 C4021 1.388 . S
C4020 C4019 1.366 . S
C4020 C4024 1.385 . S
C4021 H3996 0.951 . S
C4021 C4019 1.388 . S
C4021 C4022 1.366 . S
C4022 C4021 1.366 . S
C4022 C4023 1.414 . S
C4022 C4025 1.499 . S
C4023 H3997 0.950 . S
C4023 C4022 1.414 . S
C4023 C4024 1.374 . S
C4024 H3998 0.950 . S
C4024 C4020 1.385 . S
C4024 C4023 1.374 . S
C4025 C4022 1.499 . S
C4025 C4026 1.373 . S
C4025 C4027 1.389 . S
C4026 H3999 0.950 . S
C4026 C4012 1.377 . S
C4026 C4025 1.373 . S
C4027 C4011 1.377 . S
C4027 C4025 1.389 . S
C4027 C4028 1.524 . S
C4028 C4027 1.524 . S
C4028 C4029 1.397 . S
C4028 C4033 1.363 . S
C4029 H4000 0.950 . S
C4029 C4028 1.397 . S
C4029 C4030 1.334 . S
C4030 H4001 0.950 . S
C4030 C4029 1.334 . S
C4030 C4031 1.287 . S
C4031 C4030 1.287 . S
C4031 C4032 1.524 . S
C4031 H4034 0.999 . S
C4032 H4002 0.950 . S
C4032 C4031 1.524 . S
C4032 C4033 1.415 . S
C4033 H4003 0.950 . S
C4033 C4028 1.363 . S
C4033 C4032 1.415 . S
H4034 C4031 0.999 . S
H4035 C4016 0.913 . S
H4036 C4054 0.951 . S
H4037 C4056 0.951 . S
H4038 C4058 0.950 . S
H4039 C4059 0.950 . S
H4040 C4061 0.950 . S
H4041 C4064 0.950 . S
H4042 C4065 0.950 . S
H4043 C4067 0.950 . S
H4044 C4068 0.950 . S
H4045 C4069 0.951 . S
H4046 C4071 0.951 . S
H4047 C4073 0.950 . S
H4048 C4074 0.950 . S
H4049 C4076 0.950 . S
H4050 C4079 0.950 . S
H4051 C4080 0.950 . S
H4052 C4082 0.950 . S
H4053 C4083 0.950 . S
C4054 H4036 0.951 . S
C4054 C4055 1.366 . S
C4054 C4056 1.388 . S
C4055 C4054 1.366 . S
C4055 C4059 1.385 . S
C4056 H4037 0.951 . S
C4056 C4054 1.388 . S
C4056 C4057 1.366 . S
C4057 C4056 1.366 . S
C4057 C4058 1.414 . S
C4057 C4060 1.499 . S
C4058 H4038 0.950 . S
C4058 C4057 1.414 . S
C4058 C4059 1.374 . S
C4059 H4039 0.950 . S
C4059 C4055 1.385 . S
C4059 C4058 1.374 . S
C4060 C4057 1.499 . S
C4060 C4061 1.373 . S
C4060 C4062 1.389 . S
C4061 H4040 0.950 . S
C4061 C4060 1.373 . S
C4061 C4077 1.377 . S
C4062 C4060 1.389 . S
C4062 C4063 1.524 . S
C4062 C4076 1.377 . S
C4063 C4062 1.524 . S
C4063 C4064 1.397 . S
C4063 C4068 1.363 . S
C4064 H4041 0.950 . S
C4064 C4063 1.397 . S
C4064 C4065 1.334 . S
C4065 H4042 0.950 . S
C4065 C4064 1.334 . S
C4065 C4066 1.287 . S
C4066 C4065 1.287 . S
C4066 C4067 1.524 . S
C4066 H4085 0.913 . S
C4067 H4043 0.950 . S
C4067 C4066 1.524 . S
C4067 C4068 1.415 . S
C4068 H4044 0.950 . S
C4068 C4063 1.363 . S
C4068 C4067 1.415 . S
C4069 H4045 0.951 . S
C4069 C4070 1.366 . S
C4069 C4071 1.388 . S
C4070 C4069 1.366 . S
C4070 C4074 1.385 . S
C4071 H4046 0.951 . S
C4071 C4069 1.388 . S
C4071 C4072 1.366 . S
C4072 C4071 1.366 . S
C4072 C4073 1.414 . S
C4072 C4075 1.499 . S
C4073 H4047 0.950 . S
C4073 C4072 1.414 . S
C4073 C4074 1.374 . S
C4074 H4048 0.950 . S
C4074 C4070 1.385 . S
C4074 C4073 1.374 . S
C4075 C4072 1.499 . S
C4075 C4076 1.373 . S
C4075 C4077 1.389 . S
C4076 H4049 0.950 . S
C4076 C4062 1.377 . S
C4076 C4075 1.373 . S
C4077 C4061 1.377 . S
C4077 C4075 1.389 . S
C4077 C4078 1.524 . S
C4078 C4077 1.524 . S
C4078 C4079 1.397 . S
C4078 C4083 1.363 . S
C4079 H4050 0.950 . S
C4079 C4078 1.397 . S
C4079 C4080 1.334 . S
C4080 H4051 0.950 . S
C4080 C4079 1.334 . S
C4080 C4081 1.287 . S
C4081 C4080 1.287 . S
C4081 C4082 1.524 . S
C4081 H4084 0.999 . S
C4082 H4052 0.950 . S
C4082 C4081 1.524 . S
C4082 C4083 1.415 . S
C4083 H4053 0.950 . S
C4083 C4078 1.363 . S
C4083 C4082 1.415 . S
H4084 C4081 0.999 . S
H4085 C4066 0.913 . S
H4086 C4104 0.951 . S
H4087 C4106 0.951 . S
H4088 C4108 0.950 . S
H4089 C4109 0.950 . S
H4090 C4111 0.950 . S
H4091 C4114 0.950 . S
H4092 C4115 0.950 . S
H4093 C4117 0.950 . S
H4094 C4118 0.950 . S
H4095 C4119 0.951 . S
H4096 C4121 0.951 . S
H4097 C4123 0.950 . S
H4098 C4124 0.950 . S
H4099 C4126 0.950 . S
H4100 C4129 0.950 . S
H4101 C4130 0.950 . S
H4102 C4132 0.950 . S
H4103 C4133 0.950 . S
C4104 H4086 0.951 . S
C4104 C4105 1.366 . S
C4104 C4106 1.388 . S
C4105 C4104 1.366 . S
C4105 C4109 1.385 . S
C4106 H4087 0.951 . S
C4106 C4104 1.388 . S
C4106 C4107 1.366 . S
C4107 C4106 1.366 . S
C4107 C4108 1.414 . S
C4107 C4110 1.499 . S
C4108 H4088 0.950 . S
C4108 C4107 1.414 . S
C4108 C4109 1.374 . S
C4109 H4089 0.950 . S
C4109 C4105 1.385 . S
C4109 C4108 1.374 . S
C4110 C4107 1.499 . S
C4110 C4111 1.373 . S
C4110 C4112 1.389 . S
C4111 H4090 0.950 . S
C4111 C4110 1.373 . S
C4111 C4127 1.377 . S
C4112 C4110 1.389 . S
C4112 C4113 1.524 . S
C4112 C4126 1.377 . S
C4113 C4112 1.524 . S
C4113 C4114 1.397 . S
C4113 C4118 1.363 . S
C4114 H4091 0.950 . S
C4114 C4113 1.397 . S
C4114 C4115 1.334 . S
C4115 H4092 0.950 . S
C4115 C4114 1.334 . S
C4115 C4116 1.287 . S
C4116 C4115 1.287 . S
C4116 C4117 1.524 . S
C4116 H4135 0.913 . S
C4117 H4093 0.950 . S
C4117 C4116 1.524 . S
C4117 C4118 1.415 . S
C4118 H4094 0.950 . S
C4118 C4113 1.363 . S
C4118 C4117 1.415 . S
C4119 H4095 0.951 . S
C4119 C4120 1.366 . S
C4119 C4121 1.388 . S
C4120 C4119 1.366 . S
C4120 C4124 1.385 . S
C4121 H4096 0.951 . S
C4121 C4119 1.388 . S
C4121 C4122 1.366 . S
C4122 C4121 1.366 . S
C4122 C4123 1.414 . S
C4122 C4125 1.499 . S
C4123 H4097 0.950 . S
C4123 C4122 1.414 . S
C4123 C4124 1.374 . S
C4124 H4098 0.950 . S
C4124 C4120 1.385 . S
C4124 C4123 1.374 . S
C4125 C4122 1.499 . S
C4125 C4126 1.373 . S
C4125 C4127 1.389 . S
C4126 H4099 0.950 . S
C4126 C4112 1.377 . S
C4126 C4125 1.373 . S
C4127 C4111 1.377 . S
C4127 C4125 1.389 . S
C4127 C4128 1.524 . S
C4128 C4127 1.524 . S
C4128 C4129 1.397 . S
C4128 C4133 1.363 . S
C4129 H4100 0.950 . S
C4129 C4128 1.397 . S
C4129 C4130 1.334 . S
C4130 H4101 0.950 . S
C4130 C4129 1.334 . S
C4130 C4131 1.287 . S
C4131 C4130 1.287 . S
C4131 C4132 1.524 . S
C4131 H4134 0.999 . S
C4132 H4102 0.950 . S
C4132 C4131 1.524 . S
C4132 C4133 1.415 . S
C4133 H4103 0.950 . S
C4133 C4128 1.363 . S
C4133 C4132 1.415 . S
H4134 C4131 0.999 . S
H4135 C4116 0.913 . S
H4136 C4154 0.951 . S
H4137 C4156 0.951 . S
H4138 C4158 0.950 . S
H4139 C4159 0.950 . S
H4140 C4161 0.950 . S
H4141 C4164 0.950 . S
H4142 C4165 0.950 . S
H4143 C4167 0.950 . S
H4144 C4168 0.950 . S
H4145 C4169 0.951 . S
H4146 C4171 0.951 . S
H4147 C4173 0.950 . S
H4148 C4174 0.950 . S
H4149 C4176 0.950 . S
H4150 C4179 0.950 . S
H4151 C4180 0.950 . S
H4152 C4182 0.950 . S
H4153 C4183 0.950 . S
C4154 H4136 0.951 . S
C4154 C4155 1.366 . S
C4154 C4156 1.388 . S
C4155 C4154 1.366 . S
C4155 C4159 1.385 . S
C4156 H4137 0.951 . S
C4156 C4154 1.388 . S
C4156 C4157 1.366 . S
C4157 C4156 1.366 . S
C4157 C4158 1.414 . S
C4157 C4160 1.499 . S
C4158 H4138 0.950 . S
C4158 C4157 1.414 . S
C4158 C4159 1.374 . S
C4159 H4139 0.950 . S
C4159 C4155 1.385 . S
C4159 C4158 1.374 . S
C4160 C4157 1.499 . S
C4160 C4161 1.373 . S
C4160 C4162 1.389 . S
C4161 H4140 0.950 . S
C4161 C4160 1.373 . S
C4161 C4177 1.377 . S
C4162 C4160 1.389 . S
C4162 C4163 1.524 . S
C4162 C4176 1.377 . S
C4163 C4162 1.524 . S
C4163 C4164 1.397 . S
C4163 C4168 1.363 . S
C4164 H4141 0.950 . S
C4164 C4163 1.397 . S
C4164 C4165 1.334 . S
C4165 H4142 0.950 . S
C4165 C4164 1.334 . S
C4165 C4166 1.287 . S
C4166 C4165 1.287 . S
C4166 C4167 1.524 . S
C4166 H4185 0.913 . S
C4167 H4143 0.950 . S
C4167 C4166 1.524 . S
C4167 C4168 1.415 . S
C4168 H4144 0.950 . S
C4168 C4163 1.363 . S
C4168 C4167 1.415 . S
C4169 H4145 0.951 . S
C4169 C4170 1.366 . S
C4169 C4171 1.388 . S
C4170 C4169 1.366 . S
C4170 C4174 1.385 . S
C4171 H4146 0.951 . S
C4171 C4169 1.388 . S
C4171 C4172 1.366 . S
C4172 C4171 1.366 . S
C4172 C4173 1.414 . S
C4172 C4175 1.499 . S
C4173 H4147 0.950 . S
C4173 C4172 1.414 . S
C4173 C4174 1.374 . S
C4174 H4148 0.950 . S
C4174 C4170 1.385 . S
C4174 C4173 1.374 . S
C4175 C4172 1.499 . S
C4175 C4176 1.373 . S
C4175 C4177 1.389 . S
C4176 H4149 0.950 . S
C4176 C4162 1.377 . S
C4176 C4175 1.373 . S
C4177 C4161 1.377 . S
C4177 C4175 1.389 . S
C4177 C4178 1.524 . S
C4178 C4177 1.524 . S
C4178 C4179 1.397 . S
C4178 C4183 1.363 . S
C4179 H4150 0.950 . S
C4179 C4178 1.397 . S
C4179 C4180 1.334 . S
C4180 H4151 0.950 . S
C4180 C4179 1.334 . S
C4180 C4181 1.287 . S
C4181 C4180 1.287 . S
C4181 C4182 1.524 . S
C4181 H4184 0.999 . S
C4182 H4152 0.950 . S
C4182 C4181 1.524 . S
C4182 C4183 1.415 . S
C4183 H4153 0.950 . S
C4183 C4178 1.363 . S
C4183 C4182 1.415 . S
H4184 C4181 0.999 . S
H4185 C4166 0.913 . S
H4186 C4204 0.951 . S
H4187 C4206 0.951 . S
H4188 C4208 0.950 . S
H4189 C4209 0.950 . S
H4190 C4211 0.950 . S
H4191 C4214 0.950 . S
H4192 C4215 0.950 . S
H4193 C4217 0.950 . S
H4194 C4218 0.950 . S
H4195 C4219 0.951 . S
H4196 C4221 0.951 . S
H4197 C4223 0.950 . S
H4198 C4224 0.950 . S
H4199 C4226 0.950 . S
H4200 C4229 0.950 . S
H4201 C4230 0.950 . S
H4202 C4232 0.950 . S
H4203 C4233 0.950 . S
C4204 H4186 0.951 . S
C4204 C4205 1.366 . S
C4204 C4206 1.388 . S
C4205 C4204 1.366 . S
C4205 C4209 1.385 . S
C4206 H4187 0.951 . S
C4206 C4204 1.388 . S
C4206 C4207 1.366 . S
C4207 C4206 1.366 . S
C4207 C4208 1.414 . S
C4207 C4210 1.499 . S
C4208 H4188 0.950 . S
C4208 C4207 1.414 . S
C4208 C4209 1.374 . S
C4209 H4189 0.950 . S
C4209 C4205 1.385 . S
C4209 C4208 1.374 . S
C4210 C4207 1.499 . S
C4210 C4211 1.373 . S
C4210 C4212 1.389 . S
C4211 H4190 0.950 . S
C4211 C4210 1.373 . S
C4211 C4227 1.377 . S
C4212 C4210 1.389 . S
C4212 C4213 1.524 . S
C4212 C4226 1.377 . S
C4213 C4212 1.524 . S
C4213 C4214 1.397 . S
C4213 C4218 1.363 . S
C4214 H4191 0.950 . S
C4214 C4213 1.397 . S
C4214 C4215 1.334 . S
C4215 H4192 0.950 . S
C4215 C4214 1.334 . S
C4215 C4216 1.287 . S
C4216 C4215 1.287 . S
C4216 C4217 1.524 . S
C4216 H4235 0.913 . S
C4217 H4193 0.950 . S
C4217 C4216 1.524 . S
C4217 C4218 1.415 . S
C4218 H4194 0.950 . S
C4218 C4213 1.363 . S
C4218 C4217 1.415 . S
C4219 H4195 0.951 . S
C4219 C4220 1.366 . S
C4219 C4221 1.388 . S
C4220 C4219 1.366 . S
C4220 C4224 1.385 . S
C4221 H4196 0.951 . S
C4221 C4219 1.388 . S
C4221 C4222 1.366 . S
C4222 C4221 1.366 . S
C4222 C4223 1.414 . S
C4222 C4225 1.499 . S
C4223 H4197 0.950 . S
C4223 C4222 1.414 . S
C4223 C4224 1.374 . S
C4224 H4198 0.950 . S
C4224 C4220 1.385 . S
C4224 C4223 1.374 . S
C4225 C4222 1.499 . S
C4225 C4226 1.373 . S
C4225 C4227 1.389 . S
C4226 H4199 0.950 . S
C4226 C4212 1.377 . S
C4226 C4225 1.373 . S
C4227 C4211 1.377 . S
C4227 C4225 1.389 . S
C4227 C4228 1.524 . S
C4228 C4227 1.524 . S
C4228 C4229 1.397 . S
C4228 C4233 1.363 . S
C4229 H4200 0.950 . S
C4229 C4228 1.397 . S
C4229 C4230 1.334 . S
C4230 H4201 0.950 . S
C4230 C4229 1.334 . S
C4230 C4231 1.287 . S
C4231 C4230 1.287 . S
C4231 C4232 1.524 . S
C4231 H4234 0.999 . S
C4232 H4202 0.950 . S
C4232 C4231 1.524 . S
C4232 C4233 1.415 . S
C4233 H4203 0.950 . S
C4233 C4228 1.363 . S
C4233 C4232 1.415 . S
H4234 C4231 0.999 . S
H4235 C4216 0.913 . S
H4236 C4254 0.951 . S
H4237 C4256 0.951 . S
H4238 C4258 0.950 . S
H4239 C4259 0.950 . S
H4240 C4261 0.950 . S
H4241 C4264 0.950 . S
H4242 C4265 0.950 . S
H4243 C4267 0.950 . S
H4244 C4268 0.950 . S
H4245 C4269 0.951 . S
H4246 C4271 0.951 . S
H4247 C4273 0.950 . S
H4248 C4274 0.950 . S
H4249 C4276 0.950 . S
H4250 C4279 0.950 . S
H4251 C4280 0.950 . S
H4252 C4282 0.950 . S
H4253 C4283 0.950 . S
C4254 H4236 0.951 . S
C4254 C4255 1.366 . S
C4254 C4256 1.388 . S
C4255 C4254 1.366 . S
C4255 C4259 1.385 . S
C4256 H4237 0.951 . S
C4256 C4254 1.388 . S
C4256 C4257 1.366 . S
C4257 C4256 1.366 . S
C4257 C4258 1.414 . S
C4257 C4260 1.499 . S
C4258 H4238 0.950 . S
C4258 C4257 1.414 . S
C4258 C4259 1.374 . S
C4259 H4239 0.950 . S
C4259 C4255 1.385 . S
C4259 C4258 1.374 . S
C4260 C4257 1.499 . S
C4260 C4261 1.373 . S
C4260 C4262 1.389 . S
C4261 H4240 0.950 . S
C4261 C4260 1.373 . S
C4261 C4277 1.377 . S
C4262 C4260 1.389 . S
C4262 C4263 1.524 . S
C4262 C4276 1.377 . S
C4263 C4262 1.524 . S
C4263 C4264 1.397 . S
C4263 C4268 1.363 . S
C4264 H4241 0.950 . S
C4264 C4263 1.397 . S
C4264 C4265 1.334 . S
C4265 H4242 0.950 . S
C4265 C4264 1.334 . S
C4265 C4266 1.287 . S
C4266 C4265 1.287 . S
C4266 C4267 1.524 . S
C4266 H4285 0.913 . S
C4267 H4243 0.950 . S
C4267 C4266 1.524 . S
C4267 C4268 1.415 . S
C4268 H4244 0.950 . S
C4268 C4263 1.363 . S
C4268 C4267 1.415 . S
C4269 H4245 0.951 . S
C4269 C4270 1.366 . S
C4269 C4271 1.388 . S
C4270 C4269 1.366 . S
C4270 C4274 1.385 . S
C4271 H4246 0.951 . S
C4271 C4269 1.388 . S
C4271 C4272 1.366 . S
C4272 C4271 1.366 . S
C4272 C4273 1.414 . S
C4272 C4275 1.499 . S
C4273 H4247 0.950 . S
C4273 C4272 1.414 . S
C4273 C4274 1.374 . S
C4274 H4248 0.950 . S
C4274 C4270 1.385 . S
C4274 C4273 1.374 . S
C4275 C4272 1.499 . S
C4275 C4276 1.373 . S
C4275 C4277 1.389 . S
C4276 H4249 0.950 . S
C4276 C4262 1.377 . S
C4276 C4275 1.373 . S
C4277 C4261 1.377 . S
C4277 C4275 1.389 . S
C4277 C4278 1.524 . S
C4278 C4277 1.524 . S
C4278 C4279 1.397 . S
C4278 C4283 1.363 . S
C4279 H4250 0.950 . S
C4279 C4278 1.397 . S
C4279 C4280 1.334 . S
C4280 H4251 0.950 . S
C4280 C4279 1.334 . S
C4280 C4281 1.287 . S
C4281 C4280 1.287 . S
C4281 C4282 1.524 . S
C4281 H4284 0.999 . S
C4282 H4252 0.950 . S
C4282 C4281 1.524 . S
C4282 C4283 1.415 . S
C4283 H4253 0.950 . S
C4283 C4278 1.363 . S
C4283 C4282 1.415 . S
H4284 C4281 0.999 . S
H4285 C4266 0.913 . S
H4286 C4304 0.951 . S
H4287 C4306 0.951 . S
H4288 C4308 0.950 . S
H4289 C4309 0.950 . S
H4290 C4311 0.950 . S
H4291 C4314 0.950 . S
H4292 C4315 0.950 . S
H4293 C4317 0.950 . S
H4294 C4318 0.950 . S
H4295 C4319 0.951 . S
H4296 C4321 0.951 . S
H4297 C4323 0.950 . S
H4298 C4324 0.950 . S
H4299 C4326 0.950 . S
H4300 C4329 0.950 . S
H4301 C4330 0.950 . S
H4302 C4332 0.950 . S
H4303 C4333 0.950 . S
C4304 H4286 0.951 . S
C4304 C4305 1.366 . S
C4304 C4306 1.388 . S
C4305 C4304 1.366 . S
C4305 C4309 1.385 . S
C4306 H4287 0.951 . S
C4306 C4304 1.388 . S
C4306 C4307 1.366 . S
C4307 C4306 1.366 . S
C4307 C4308 1.414 . S
C4307 C4310 1.499 . S
C4308 H4288 0.950 . S
C4308 C4307 1.414 . S
C4308 C4309 1.374 . S
C4309 H4289 0.950 . S
C4309 C4305 1.385 . S
C4309 C4308 1.374 . S
C4310 C4307 1.499 . S
C4310 C4311 1.373 . S
C4310 C4312 1.389 . S
C4311 H4290 0.950 . S
C4311 C4310 1.373 . S
C4311 C4327 1.377 . S
C4312 C4310 1.389 . S
C4312 C4313 1.524 . S
C4312 C4326 1.377 . S
C4313 C4312 1.524 . S
C4313 C4314 1.397 . S
C4313 C4318 1.363 . S
C4314 H4291 0.950 . S
C4314 C4313 1.397 . S
C4314 C4315 1.334 . S
C4315 H4292 0.950 . S
C4315 C4314 1.334 . S
C4315 C4316 1.287 . S
C4316 C4315 1.287 . S
C4316 C4317 1.524 . S
C4316 H4335 0.913 . S
C4317 H4293 0.950 . S
C4317 C4316 1.524 . S
C4317 C4318 1.415 . S
C4318 H4294 0.950 . S
C4318 C4313 1.363 . S
C4318 C4317 1.415 . S
C4319 H4295 0.951 . S
C4319 C4320 1.366 . S
C4319 C4321 1.388 . S
C4320 C4319 1.366 . S
C4320 C4324 1.385 . S
C4321 H4296 0.951 . S
C4321 C4319 1.388 . S
C4321 C4322 1.366 . S
C4322 C4321 1.366 . S
C4322 C4323 1.414 . S
C4322 C4325 1.499 . S
C4323 H4297 0.950 . S
C4323 C4322 1.414 . S
C4323 C4324 1.374 . S
C4324 H4298 0.950 . S
C4324 C4320 1.385 . S
C4324 C4323 1.374 . S
C4325 C4322 1.499 . S
C4325 C4326 1.373 . S
C4325 C4327 1.389 . S
C4326 H4299 0.950 . S
C4326 C4312 1.377 . S
C4326 C4325 1.373 . S
C4327 C4311 1.377 . S
C4327 C4325 1.389 . S
C4327 C4328 1.524 . S
C4328 C4327 1.524 . S
C4328 C4329 1.397 . S
C4328 C4333 1.363 . S
C4329 H4300 0.950 . S
C4329 C4328 1.397 . S
C4329 C4330 1.334 . S
C4330 H4301 0.950 . S
C4330 C4329 1.334 . S
C4330 C4331 1.287 . S
C4331 C4330 1.287 . S
C4331 C4332 1.524 . S
C4331 H4334 0.999 . S
C4332 H4302 0.950 . S
C4332 C4331 1.524 . S
C4332 C4333 1.415 . S
C4333 H4303 0.950 . S
C4333 C4328 1.363 . S
C4333 C4332 1.415 . S
H4334 C4331 0.999 . S
H4335 C4316 0.913 . S
H4336 C4354 0.951 . S
H4337 C4356 0.951 . S
H4338 C4358 0.950 . S
H4339 C4359 0.950 . S
H4340 C4361 0.950 . S
H4341 C4364 0.950 . S
H4342 C4365 0.950 . S
H4343 C4367 0.950 . S
H4344 C4368 0.950 . S
H4345 C4369 0.951 . S
H4346 C4371 0.951 . S
H4347 C4373 0.950 . S
H4348 C4374 0.950 . S
H4349 C4376 0.950 . S
H4350 C4379 0.950 . S
H4351 C4380 0.950 . S
H4352 C4382 0.950 . S
H4353 C4383 0.950 . S
C4354 H4336 0.951 . S
C4354 C4355 1.366 . S
C4354 C4356 1.388 . S
C4355 C4354 1.366 . S
C4355 C4359 1.385 . S
C4356 H4337 0.951 . S
C4356 C4354 1.388 . S
C4356 C4357 1.366 . S
C4357 C4356 1.366 . S
C4357 C4358 1.414 . S
C4357 C4360 1.499 . S
C4358 H4338 0.950 . S
C4358 C4357 1.414 . S
C4358 C4359 1.374 . S
C4359 H4339 0.950 . S
C4359 C4355 1.385 . S
C4359 C4358 1.374 . S
C4360 C4357 1.499 . S
C4360 C4361 1.373 . S
C4360 C4362 1.389 . S
C4361 H4340 0.950 . S
C4361 C4360 1.373 . S
C4361 C4377 1.377 . S
C4362 C4360 1.389 . S
C4362 C4363 1.524 . S
C4362 C4376 1.377 . S
C4363 C4362 1.524 . S
C4363 C4364 1.397 . S
C4363 C4368 1.363 . S
C4364 H4341 0.950 . S
C4364 C4363 1.397 . S
C4364 C4365 1.334 . S
C4365 H4342 0.950 . S
C4365 C4364 1.334 . S
C4365 C4366 1.287 . S
C4366 C4365 1.287 . S
C4366 C4367 1.524 . S
C4366 H4385 0.913 . S
C4367 H4343 0.950 . S
C4367 C4366 1.524 . S
C4367 C4368 1.415 . S
C4368 H4344 0.950 . S
C4368 C4363 1.363 . S
C4368 C4367 1.415 . S
C4369 H4345 0.951 . S
C4369 C4370 1.366 . S
C4369 C4371 1.388 . S
C4370 C4369 1.366 . S
C4370 C4374 1.385 . S
C4371 H4346 0.951 . S
C4371 C4369 1.388 . S
C4371 C4372 1.366 . S
C4372 C4371 1.366 . S
C4372 C4373 1.414 . S
C4372 C4375 1.499 . S
C4373 H4347 0.950 . S
C4373 C4372 1.414 . S
C4373 C4374 1.374 . S
C4374 H4348 0.950 . S
C4374 C4370 1.385 . S
C4374 C4373 1.374 . S
C4375 C4372 1.499 . S
C4375 C4376 1.373 . S
C4375 C4377 1.389 . S
C4376 H4349 0.950 . S
C4376 C4362 1.377 . S
C4376 C4375 1.373 . S
C4377 C4361 1.377 . S
C4377 C4375 1.389 . S
C4377 C4378 1.524 . S
C4378 C4377 1.524 . S
C4378 C4379 1.397 . S
C4378 C4383 1.363 . S
C4379 H4350 0.950 . S
C4379 C4378 1.397 . S
C4379 C4380 1.334 . S
C4380 H4351 0.950 . S
C4380 C4379 1.334 . S
C4380 C4381 1.287 . S
C4381 C4380 1.287 . S
C4381 C4382 1.524 . S
C4381 H4384 0.999 . S
C4382 H4352 0.950 . S
C4382 C4381 1.524 . S
C4382 C4383 1.415 . S
C4383 H4353 0.950 . S
C4383 C4378 1.363 . S
C4383 C4382 1.415 . S
H4384 C4381 0.999 . S
H4385 C4366 0.913 . S
H4386 C4404 0.951 . S
H4387 C4406 0.951 . S
H4388 C4408 0.950 . S
H4389 C4409 0.950 . S
H4390 C4411 0.950 . S
H4391 C4414 0.950 . S
H4392 C4415 0.950 . S
H4393 C4417 0.950 . S
H4394 C4418 0.950 . S
H4395 C4419 0.951 . S
H4396 C4421 0.951 . S
H4397 C4423 0.950 . S
H4398 C4424 0.950 . S
H4399 C4426 0.950 . S
H4400 C4429 0.950 . S
H4401 C4430 0.950 . S
H4402 C4432 0.950 . S
H4403 C4433 0.950 . S
C4404 H4386 0.951 . S
C4404 C4405 1.366 . S
C4404 C4406 1.388 . S
C4405 C4404 1.366 . S
C4405 C4409 1.385 . S
C4406 H4387 0.951 . S
C4406 C4404 1.388 . S
C4406 C4407 1.366 . S
C4407 C4406 1.366 . S
C4407 C4408 1.414 . S
C4407 C4410 1.499 . S
C4408 H4388 0.950 . S
C4408 C4407 1.414 . S
C4408 C4409 1.374 . S
C4409 H4389 0.950 . S
C4409 C4405 1.385 . S
C4409 C4408 1.374 . S
C4410 C4407 1.499 . S
C4410 C4411 1.373 . S
C4410 C4412 1.389 . S
C4411 H4390 0.950 . S
C4411 C4410 1.373 . S
C4411 C4427 1.377 . S
C4412 C4410 1.389 . S
C4412 C4413 1.524 . S
C4412 C4426 1.377 . S
C4413 C4412 1.524 . S
C4413 C4414 1.397 . S
C4413 C4418 1.363 . S
C4414 H4391 0.950 . S
C4414 C4413 1.397 . S
C4414 C4415 1.334 . S
C4415 H4392 0.950 . S
C4415 C4414 1.334 . S
C4415 C4416 1.287 . S
C4416 C4415 1.287 . S
C4416 C4417 1.524 . S
C4416 H4435 0.913 . S
C4417 H4393 0.950 . S
C4417 C4416 1.524 . S
C4417 C4418 1.415 . S
C4418 H4394 0.950 . S
C4418 C4413 1.363 . S
C4418 C4417 1.415 . S
C4419 H4395 0.951 . S
C4419 C4420 1.366 . S
C4419 C4421 1.388 . S
C4420 C4419 1.366 . S
C4420 C4424 1.385 . S
C4421 H4396 0.951 . S
C4421 C4419 1.388 . S
C4421 C4422 1.366 . S
C4422 C4421 1.366 . S
C4422 C4423 1.414 . S
C4422 C4425 1.499 . S
C4423 H4397 0.950 . S
C4423 C4422 1.414 . S
C4423 C4424 1.374 . S
C4424 H4398 0.950 . S
C4424 C4420 1.385 . S
C4424 C4423 1.374 . S
C4425 C4422 1.499 . S
C4425 C4426 1.373 . S
C4425 C4427 1.389 . S
C4426 H4399 0.950 . S
C4426 C4412 1.377 . S
C4426 C4425 1.373 . S
C4427 C4411 1.377 . S
C4427 C4425 1.389 . S
C4427 C4428 1.524 . S
C4428 C4427 1.524 . S
C4428 C4429 1.397 . S
C4428 C4433 1.363 . S
C4429 H4400 0.950 . S
C4429 C4428 1.397 . S
C4429 C4430 1.334 . S
C4430 H4401 0.950 . S
C4430 C4429 1.334 . S
C4430 C4431 1.287 . S
C4431 C4430 1.287 . S
C4431 C4432 1.524 . S
C4431 H4434 0.999 . S
C4432 H4402 0.950 . S
C4432 C4431 1.524 . S
C4432 C4433 1.415 . S
C4433 H4403 0.950 . S
C4433 C4428 1.363 . S
C4433 C4432 1.415 . S
H4434 C4431 0.999 . S
H4435 C4416 0.913 . S
H4436 C4454 0.951 . S
H4437 C4456 0.951 . S
H4438 C4458 0.950 . S
H4439 C4459 0.950 . S
H4440 C4461 0.950 . S
H4441 C4464 0.950 . S
H4442 C4465 0.950 . S
H4443 C4467 0.950 . S
H4444 C4468 0.950 . S
H4445 C4469 0.951 . S
H4446 C4471 0.951 . S
H4447 C4473 0.950 . S
H4448 C4474 0.950 . S
H4449 C4476 0.950 . S
H4450 C4479 0.950 . S
H4451 C4480 0.950 . S
H4452 C4482 0.950 . S
H4453 C4483 0.950 . S
C4454 H4436 0.951 . S
C4454 C4455 1.366 . S
C4454 C4456 1.388 . S
C4455 C4454 1.366 . S
C4455 C4459 1.385 . S
C4456 H4437 0.951 . S
C4456 C4454 1.388 . S
C4456 C4457 1.366 . S
C4457 C4456 1.366 . S
C4457 C4458 1.414 . S
C4457 C4460 1.499 . S
C4458 H4438 0.950 . S
C4458 C4457 1.414 . S
C4458 C4459 1.374 . S
C4459 H4439 0.950 . S
C4459 C4455 1.385 . S
C4459 C4458 1.374 . S
C4460 C4457 1.499 . S
C4460 C4461 1.373 . S
C4460 C4462 1.389 . S
C4461 H4440 0.950 . S
C4461 C4460 1.373 . S
C4461 C4477 1.377 . S
C4462 C4460 1.389 . S
C4462 C4463 1.524 . S
C4462 C4476 1.377 . S
C4463 C4462 1.524 . S
C4463 C4464 1.397 . S
C4463 C4468 1.363 . S
C4464 H4441 0.950 . S
C4464 C4463 1.397 . S
C4464 C4465 1.334 . S
C4465 H4442 0.950 . S
C4465 C4464 1.334 . S
C4465 C4466 1.287 . S
C4466 C4465 1.287 . S
C4466 C4467 1.524 . S
C4466 H4485 0.913 . S
C4467 H4443 0.950 . S
C4467 C4466 1.524 . S
C4467 C4468 1.415 . S
C4468 H4444 0.950 . S
C4468 C4463 1.363 . S
C4468 C4467 1.415 . S
C4469 H4445 0.951 . S
C4469 C4470 1.366 . S
C4469 C4471 1.388 . S
C4470 C4469 1.366 . S
C4470 C4474 1.385 . S
C4471 H4446 0.951 . S
C4471 C4469 1.388 . S
C4471 C4472 1.366 . S
C4472 C4471 1.366 . S
C4472 C4473 1.414 . S
C4472 C4475 1.499 . S
C4473 H4447 0.950 . S
C4473 C4472 1.414 . S
C4473 C4474 1.374 . S
C4474 H4448 0.950 . S
C4474 C4470 1.385 . S
C4474 C4473 1.374 . S
C4475 C4472 1.499 . S
C4475 C4476 1.373 . S
C4475 C4477 1.389 . S
C4476 H4449 0.950 . S
C4476 C4462 1.377 . S
C4476 C4475 1.373 . S
C4477 C4461 1.377 . S
C4477 C4475 1.389 . S
C4477 C4478 1.524 . S
C4478 C4477 1.524 . S
C4478 C4479 1.397 . S
C4478 C4483 1.363 . S
C4479 H4450 0.950 . S
C4479 C4478 1.397 . S
C4479 C4480 1.334 . S
C4480 H4451 0.950 . S
C4480 C4479 1.334 . S
C4480 C4481 1.287 . S
C4481 C4480 1.287 . S
C4481 C4482 1.524 . S
C4481 H4484 0.999 . S
C4482 H4452 0.950 . S
C4482 C4481 1.524 . S
C4482 C4483 1.415 . S
C4483 H4453 0.950 . S
C4483 C4478 1.363 . S
C4483 C4482 1.415 . S
H4484 C4481 0.999 . S
H4485 C4466 0.913 . S
H4486 C4504 0.951 . S
H4487 C4506 0.951 . S
H4488 C4508 0.950 . S
H4489 C4509 0.950 . S
H4490 C4511 0.950 . S
H4491 C4514 0.950 . S
H4492 C4515 0.950 . S
H4493 C4517 0.950 . S
H4494 C4518 0.950 . S
H4495 C4519 0.951 . S
H4496 C4521 0.951 . S
H4497 C4523 0.950 . S
H4498 C4524 0.950 . S
H4499 C4526 0.950 . S
H4500 C4529 0.950 . S
H4501 C4530 0.950 . S
H4502 C4532 0.950 . S
H4503 C4533 0.950 . S
C4504 H4486 0.951 . S
C4504 C4505 1.366 . S
C4504 C4506 1.388 . S
C4505 C4504 1.366 . S
C4505 C4509 1.385 . S
C4506 H4487 0.951 . S
C4506 C4504 1.388 . S
C4506 C4507 1.366 . S
C4507 C4506 1.366 . S
C4507 C4508 1.414 . S
C4507 C4510 1.499 . S
C4508 H4488 0.950 . S
C4508 C4507 1.414 . S
C4508 C4509 1.374 . S
C4509 H4489 0.950 . S
C4509 C4505 1.385 . S
C4509 C4508 1.374 . S
C4510 C4507 1.499 . S
C4510 C4511 1.373 . S
C4510 C4512 1.389 . S
C4511 H4490 0.950 . S
C4511 C4510 1.373 . S
C4511 C4527 1.377 . S
C4512 C4510 1.389 . S
C4512 C4513 1.524 . S
C4512 C4526 1.377 . S
C4513 C4512 1.524 . S
C4513 C4514 1.397 . S
C4513 C4518 1.363 . S
C4514 H4491 0.950 . S
C4514 C4513 1.397 . S
C4514 C4515 1.334 . S
C4515 H4492 0.950 . S
C4515 C4514 1.334 . S
C4515 C4516 1.287 . S
C4516 C4515 1.287 . S
C4516 C4517 1.524 . S
C4516 H4535 0.913 . S
C4517 H4493 0.950 . S
C4517 C4516 1.524 . S
C4517 C4518 1.415 . S
C4518 H4494 0.950 . S
C4518 C4513 1.363 . S
C4518 C4517 1.415 . S
C4519 H4495 0.951 . S
C4519 C4520 1.366 . S
C4519 C4521 1.388 . S
C4520 C4519 1.366 . S
C4520 C4524 1.385 . S
C4521 H4496 0.951 . S
C4521 C4519 1.388 . S
C4521 C4522 1.366 . S
C4522 C4521 1.366 . S
C4522 C4523 1.414 . S
C4522 C4525 1.499 . S
C4523 H4497 0.950 . S
C4523 C4522 1.414 . S
C4523 C4524 1.374 . S
C4524 H4498 0.950 . S
C4524 C4520 1.385 . S
C4524 C4523 1.374 . S
C4525 C4522 1.499 . S
C4525 C4526 1.373 . S
C4525 C4527 1.389 . S
C4526 H4499 0.950 . S
C4526 C4512 1.377 . S
C4526 C4525 1.373 . S
C4527 C4511 1.377 . S
C4527 C4525 1.389 . S
C4527 C4528 1.524 . S
C4528 C4527 1.524 . S
C4528 C4529 1.397 . S
C4528 C4533 1.363 . S
C4529 H4500 0.950 . S
C4529 C4528 1.397 . S
C4529 C4530 1.334 . S
C4530 H4501 0.950 . S
C4530 C4529 1.334 . S
C4530 C4531 1.287 . S
C4531 C4530 1.287 . S
C4531 C4532 1.524 . S
C4531 H4534 0.999 . S
C4532 H4502 0.950 . S
C4532 C4531 1.524 . S
C4532 C4533 1.415 . S
C4533 H4503 0.950 . S
C4533 C4528 1.363 . S
C4533 C4532 1.415 . S
H4534 C4531 0.999 . S
H4535 C4516 0.913 . S
C1855 C781 1.395 . S
C1870 C1147 1.335 . S
C1905 C871 1.417 . S
C1920 C1231 1.371 . S
C1955 C751 1.420 . S
C1970 C1311 1.410 . S
C2005 C691 1.375 . S
C2020 C1227 1.366 . S
C2070 C1315 1.297 . S
C2055 C571 1.344 . S
C2105 C601 1.360 . S
C2120 C1143 1.339 . S
C2170 C1136 1.336 . S
C2155 C661 1.374 . S
C2220 C1220 1.370 . S
C2205 C541 1.409 . S
C2255 C631 1.444 . S
C2270 C1322 1.410 . S
C2305 C811 1.394 . S
C2320 C1238 1.365 . S
C2355 C841 1.338 . S
C2370 C1304 1.295 . S
C2420 C1154 1.339 . S
C2405 C721 1.337 . S
C2470 C1399 1.337 . S
C2455 C61 1.395 . S
C2505 C151 1.417 . S
C2520 C1483 1.370 . S
C2555 C31 1.420 . S
C2570 C1563 1.410 . S
C2605 C1051 1.375 . S
C2620 C1479 1.365 . S
C2655 C931 1.344 . S
C2670 C1567 1.295 . S
C2705 C961 1.360 . S
C2720 C1395 1.338 . S
C2755 C1021 1.375 . S
C2770 C1388 1.337 . S
C2805 C901 1.409 . S
C2820 C1472 1.371 . S
C2870 C1574 1.410 . S
C2855 C991 1.444 . S
C2905 C91 1.394 . S
C2920 C1490 1.365 . S
C2970 C1556 1.295 . S
C2955 C121 1.339 . S
C3005 C1 1.336 . S
C3020 C1406 1.338 . S
C3070 C1651 1.335 . S
C3055 C421 1.395 . S
C3105 C511 1.417 . S
C3120 C1735 1.370 . S
C3170 C1815 1.410 . S
C3155 C391 1.420 . S
C3220 C1731 1.365 . S
C3205 C331 1.375 . S
C3270 C1819 1.295 . S
C3255 C211 1.343 . S
C3305 C241 1.360 . S
C3320 C1647 1.339 . S
C3355 C301 1.375 . S
C3370 C1640 1.337 . S
C3405 C181 1.409 . S
C3420 C1724 1.371 . S
C3470 C1826 1.409 . S
C3455 C271 1.444 . S
C3505 C451 1.394 . S
C3520 C1742 1.365 . S
C3555 C481 1.339 . S
C3570 C1808 1.295 . S
C3605 C361 1.336 . S
C3620 C1658 1.339 . S
C3655 C920 1.396 . S
C3670 C1150 1.301 . S
C3720 C1234 1.352 . S
C3705 C980 1.479 . S
C3755 C1040 1.427 . S
C3770 C1306 1.320 . S
C3805 C380 1.468 . S
C3820 C1222 1.352 . S
C3855 C440 1.434 . S
C3870 C1318 1.321 . S
C3920 C1138 1.301 . S
C3905 C500 1.397 . S
C3955 C200 1.397 . S
C3970 C1402 1.300 . S
C4005 C260 1.479 . S
C4020 C1486 1.352 . S
C4055 C320 1.428 . S
C4070 C1558 1.321 . S
C4105 C740 1.468 . S
C4120 C1474 1.351 . S
C4170 C1570 1.322 . S
C4155 C800 1.434 . S
C4205 C860 1.397 . S
C4220 C1390 1.301 . S
C4255 C560 1.397 . S
C4270 C1654 1.302 . S
C4305 C620 1.479 . S
C4320 C1738 1.351 . S
C4370 C1810 1.320 . S
C4355 C680 1.427 . S
C4405 C20 1.468 . S
C4420 C1726 1.352 . S
C4455 C80 1.434 . S
C4470 C1822 1.322 . S
C4505 C140 1.397 . S
C4520 C1642 1.302 . S
