# Generated by pormake.
# Topology cml, (3,6)-cn, num edge types: 1
# Building blocks:
#     Node 0, Type 0, BuildingBlock: CUQRIR_clean_linker_1, # of connection points: 3
#     Node 1, Type 0, BuildingBlock: CUQRIR_clean_linker_1, # of connection points: 3
#     Node 2, Type 0, BuildingBlock: CUQRIR_clean_linker_1, # of connection points: 3
#     Node 3, Type 0, BuildingBlock: CUQRIR_clean_linker_1, # of connection points: 3
#     Node 4, Type 0, BuildingBlock: CUQRIR_clean_linker_1, # of connection points: 3
#     Node 5, Type 0, BuildingBlock: CUQRIR_clean_linker_1, # of connection points: 3
#     Node 6, Type 0, BuildingBlock: CUQRIR_clean_linker_1, # of connection points: 3
#     Node 7, Type 0, BuildingBlock: CUQRIR_clean_linker_1, # of connection points: 3
#     Node 8, Type 1, BuildingBlock: IZENUY_clean_sbu_0, # of connection points: 6
#     Node 9, Type 1, BuildingBlock: IZENUY_clean_sbu_0, # of connection points: 6
#     Node 10, Type 1, BuildingBlock: IZENUY_clean_sbu_0, # of connection points: 6
#     Node 11, Type 1, BuildingBlock: IZENUY_clean_sbu_0, # of connection points: 6
#     Edge 12, Type (0, 1), BuildingBlock: TEMPAE_clean_linker_10, # of connection points: 2
#     Edge 13, Type (0, 1), BuildingBlock: TEMPAE_clean_linker_10, # of connection points: 2
#     Edge 14, Type (0, 1), BuildingBlock: TEMPAE_clean_linker_10, # of connection points: 2
#     Edge 15, Type (0, 1), BuildingBlock: TEMPAE_clean_linker_10, # of connection points: 2
#     Edge 16, Type (0, 1), BuildingBlock: TEMPAE_clean_linker_10, # of connection points: 2
#     Edge 17, Type (0, 1), BuildingBlock: TEMPAE_clean_linker_10, # of connection points: 2
#     Edge 18, Type (0, 1), BuildingBlock: TEMPAE_clean_linker_10, # of connection points: 2
#     Edge 19, Type (0, 1), BuildingBlock: TEMPAE_clean_linker_10, # of connection points: 2
#     Edge 20, Type (0, 1), BuildingBlock: TEMPAE_clean_linker_10, # of connection points: 2
#     Edge 21, Type (0, 1), BuildingBlock: TEMPAE_clean_linker_10, # of connection points: 2
#     Edge 22, Type (0, 1), BuildingBlock: TEMPAE_clean_linker_10, # of connection points: 2
#     Edge 23, Type (0, 1), BuildingBlock: TEMPAE_clean_linker_10, # of connection points: 2
#     Edge 24, Type (0, 1), BuildingBlock: TEMPAE_clean_linker_10, # of connection points: 2
#     Edge 25, Type (0, 1), BuildingBlock: TEMPAE_clean_linker_10, # of connection points: 2
#     Edge 26, Type (0, 1), BuildingBlock: TEMPAE_clean_linker_10, # of connection points: 2
#     Edge 27, Type (0, 1), BuildingBlock: TEMPAE_clean_linker_10, # of connection points: 2
#     Edge 28, Type (0, 1), BuildingBlock: TEMPAE_clean_linker_10, # of connection points: 2
#     Edge 29, Type (0, 1), BuildingBlock: TEMPAE_clean_linker_10, # of connection points: 2
#     Edge 30, Type (0, 1), BuildingBlock: TEMPAE_clean_linker_10, # of connection points: 2
#     Edge 31, Type (0, 1), BuildingBlock: TEMPAE_clean_linker_10, # of connection points: 2
#     Edge 32, Type (0, 1), BuildingBlock: TEMPAE_clean_linker_10, # of connection points: 2
#     Edge 33, Type (0, 1), BuildingBlock: TEMPAE_clean_linker_10, # of connection points: 2
#     Edge 34, Type (0, 1), BuildingBlock: TEMPAE_clean_linker_10, # of connection points: 2
#     Edge 35, Type (0, 1), BuildingBlock: TEMPAE_clean_linker_10, # of connection points: 2
# Relax obj value: 0.001
# Max RMSD: 0.077
# Mean RMSD: 0.057
data_MOF--net-cml--node1-IZENUY_clean_sbu_0--node2-CUQRIR_clean_linker_1--edge1-TEMPAE_clean_linker_10
_symmetry_space_group_name_H-M    P1
_symmetry_Int_Tables_number       1
_symmetry_cell_setting            triclinic
loop_
_symmetry_equiv_pos_as_xyz
'x, y, z'
_cell_length_a     35.253526
_cell_length_b     39.021289
_cell_length_c     33.229138
_cell_angle_alpha  89.983897
_cell_angle_beta   89.942745
_cell_angle_gamma 89.896883
loop_
_atom_site_label
_atom_site_type_symbol
_atom_site_fract_x
_atom_site_fract_y
_atom_site_fract_z
_atom_type_partial_charge
C0 C 0.26613 0.33987 0.03551 0.0
N1 N 0.29048 0.36651 0.03909 0.0
N2 N 0.24767 0.34133 0.99983 0.0
C3 C 0.25863 0.31363 0.06769 0.0
C4 C 0.26153 0.3698 0.98186 0.0
N5 N 0.28732 0.38527 1.00587 0.0
C6 C 0.2524 0.38072 0.9395 0.0
H7 H 0.27878 0.29199 0.06392 0.0
H8 H 0.22934 0.30347 0.06532 0.0
H9 H 0.26283 0.32478 0.09808 0.0
H10 H 0.22924 0.4 0.9404 0.0
H11 H 0.24285 0.35865 0.92108 0.0
H12 H 0.27743 0.3926 0.92486 0.0
C13 C 0.74356 0.67167 0.53978 0.0
N14 N 0.71822 0.64553 0.54044 0.0
N15 N 0.75632 0.67717 0.50182 0.0
C16 C 0.75312 0.69399 0.57526 0.0
C17 C 0.73775 0.65363 0.47939 0.0
N18 N 0.71449 0.63461 0.50275 0.0
C19 C 0.74364 0.64814 0.43501 0.0
H20 H 0.76216 0.71988 0.56538 0.0
H21 H 0.77679 0.68205 0.59223 0.0
H22 H 0.72842 0.69654 0.59576 0.0
H23 H 0.77255 0.65611 0.42573 0.0
H24 H 0.72267 0.66379 0.4182 0.0
H25 H 0.7393 0.62084 0.42688 0.0
C26 C 0.74432 0.34085 0.0368 0.0
N27 N 0.71813 0.36626 0.03874 0.0
N28 N 0.75875 0.33833 0.99912 0.0
C29 C 0.75353 0.31669 0.07073 0.0
C30 C 0.74032 0.36303 0.97817 0.0
N31 N 0.71535 0.37985 1.00215 0.0
C32 C 0.74881 0.37227 0.93512 0.0
H33 H 0.77659 0.32793 0.08916 0.0
H34 H 0.76327 0.29151 0.05911 0.0
H35 H 0.72847 0.31274 0.09041 0.0
H36 H 0.72953 0.35771 0.91508 0.0
H37 H 0.77847 0.36553 0.92717 0.0
H38 H 0.74426 0.40005 0.92979 0.0
C39 C 0.25835 0.67006 0.53735 0.0
N40 N 0.28586 0.64588 0.54032 0.0
N41 N 0.24621 0.67279 0.49885 0.0
C42 C 0.2453 0.69274 0.57124 0.0
C43 C 0.2673 0.64965 0.47843 0.0
N44 N 0.29157 0.6334 0.50357 0.0
C45 C 0.26292 0.64201 0.43432 0.0
H46 H 0.22374 0.6788 0.58923 0.0
H47 H 0.23231 0.71672 0.55973 0.0
H48 H 0.26936 0.69918 0.59136 0.0
H49 H 0.2839 0.65736 0.41717 0.0
H50 H 0.23411 0.64895 0.42362 0.0
H51 H 0.26829 0.61448 0.42814 0.0
C52 C 0.77425 0.83348 0.02827 0.0
N53 N 0.79812 0.86036 0.03226 0.0
N54 N 0.75499 0.83562 0.9931 0.0
C55 C 0.76841 0.80612 0.05952 0.0
C56 C 0.76798 0.8648 0.97592 0.0
N57 N 0.79397 0.88002 0.99993 0.0
C58 C 0.75769 0.87676 0.93425 0.0
H59 H 0.78918 0.7852 0.05425 0.0
H60 H 0.7394 0.79527 0.05762 0.0
H61 H 0.77318 0.81644 0.09021 0.0
H62 H 0.73446 0.89588 0.93648 0.0
H63 H 0.74783 0.85512 0.91534 0.0
H64 H 0.78229 0.88914 0.91935 0.0
C65 C 0.24858 0.16725 0.53576 0.0
N66 N 0.22313 0.14132 0.53868 0.0
N67 N 0.26281 0.16912 0.49795 0.0
C68 C 0.2585 0.19155 0.56926 0.0
C69 C 0.24496 0.14376 0.47782 0.0
N70 N 0.2206 0.12705 0.50243 0.0
C71 C 0.25087 0.13576 0.43397 0.0
H72 H 0.2332 0.19704 0.5881 0.0
H73 H 0.27015 0.21596 0.55751 0.0
H74 H 0.28039 0.17948 0.58862 0.0
H75 H 0.27971 0.14319 0.42394 0.0
H76 H 0.22998 0.15053 0.41598 0.0
H77 H 0.24646 0.10807 0.42803 0.0
C78 C 0.24186 0.83937 0.03602 0.0
N79 N 0.21785 0.86634 0.03964 0.0
N80 N 0.26151 0.84135 1.00117 0.0
C81 C 0.24735 0.81176 0.06707 0.0
C82 C 0.24876 0.87043 0.98359 0.0
N83 N 0.2223 0.88587 1.00712 0.0
C84 C 0.25999 0.88203 0.94207 0.0
H85 H 0.27627 0.8006 0.06504 0.0
H86 H 0.22652 0.79102 0.06156 0.0
H87 H 0.24267 0.82197 0.09784 0.0
H88 H 0.23545 0.89359 0.92616 0.0
H89 H 0.27126 0.8604 0.92397 0.0
H90 H 0.28253 0.9017 0.94469 0.0
C91 C 0.76639 0.17646 0.53545 0.0
N92 N 0.79312 0.15149 0.53684 0.0
N93 N 0.75356 0.18068 0.49733 0.0
C94 C 0.75513 0.19866 0.57051 0.0
C95 C 0.77358 0.15753 0.47557 0.0
N96 N 0.79777 0.14003 0.49953 0.0
C97 C 0.76812 0.15077 0.43139 0.0
H98 H 0.73203 0.18581 0.58742 0.0
H99 H 0.74471 0.22402 0.56019 0.0
H100 H 0.77941 0.20247 0.59125 0.0
H101 H 0.7885 0.16666 0.41411 0.0
H102 H 0.73893 0.15757 0.42177 0.0
H103 H 0.7737 0.12346 0.42419 0.0
Fe104 Fe 1.0014 0.85248 0.3276 0.0
Fe105 Fe 0.00395 0.89025 0.40863 0.0
O106 O 0.0035 0.89129 0.35526 0.0
Fe107 Fe 0.00482 0.93117 0.32962 0.0
O108 O 0.97609 0.91688 0.28662 0.0
O109 O 0.95738 0.86512 0.30335 0.0
O110 O 0.97256 0.82953 0.36498 0.0
C111 C 0.95163 0.84031 0.39332 0.0
C112 C 0.05247 0.89347 0.2823 0.0
O113 O 0.95854 0.86851 0.41032 0.0
C114 C 0.05546 0.94085 0.39509 0.0
O115 O 0.04527 0.83706 0.34971 0.0
O116 O 0.03034 0.84981 0.4122 0.0
O117 O 0.04848 0.91986 0.30379 0.0
O118 O 0.0299 0.86839 0.2852 0.0
C119 C 0.95714 0.94773 0.39137 0.0
O120 O 0.04922 0.91204 0.41084 0.0
O121 O 0.03411 0.95266 0.36776 0.0
C122 C 0.05131 0.83451 0.387 0.0
O123 O 0.97808 0.93067 0.41495 0.0
O124 O 0.96113 0.94538 0.35369 0.0
C125 C 0.9539 0.89169 0.28201 0.0
Fe126 Fe 0.00581 0.12316 0.90783 0.0
Fe127 Fe 0.00659 0.08275 0.82825 0.0
O128 O 0.00624 0.12244 0.85439 0.0
Fe129 Fe 0.0061 0.16164 0.82734 0.0
O130 O 0.0503 0.17498 0.85041 0.0
O131 O 0.03316 0.16291 0.91228 0.0
O132 O 0.05035 0.09997 0.91068 0.0
C133 C 0.05634 0.07115 0.89459 0.0
C134 C 0.95546 0.17473 0.89205 0.0
O135 O 0.03565 0.06044 0.86603 0.0
C136 C 0.95679 0.1243 0.78134 0.0
O137 O 0.97864 0.08363 0.91357 0.0
O138 O 0.96267 0.06909 0.8521 0.0
O139 O 0.97755 0.18518 0.86458 0.0
O140 O 0.96101 0.14614 0.90877 0.0
C141 C 0.05567 0.1196 0.78115 0.0
O142 O 0.97774 0.09813 0.78582 0.0
O143 O 0.96207 0.15094 0.80213 0.0
C144 C 0.95751 0.06733 0.88964 0.0
O145 O 0.05046 0.09307 0.80214 0.0
O146 O 0.03443 0.14556 0.7851 0.0
C147 C 0.05534 0.17763 0.88784 0.0
Fe148 Fe 0.50236 0.35358 0.32797 0.0
Fe149 Fe 0.50144 0.39145 0.40887 0.0
O150 O 0.50204 0.39251 0.35548 0.0
Fe151 Fe 0.50265 0.43243 0.32995 0.0
O152 O 0.45889 0.42289 0.30344 0.0
O153 O 0.47459 0.37036 0.28565 0.0
O154 O 0.45784 0.34 0.3504 0.0
C155 C 0.45233 0.33695 0.38773 0.0
C156 C 0.55223 0.39099 0.28266 0.0
O157 O 0.47415 0.35156 0.41258 0.0
C158 C 0.55033 0.44728 0.39216 0.0
O159 O 0.53053 0.32982 0.36534 0.0
O160 O 0.5462 0.3686 0.41026 0.0
O161 O 0.53152 0.41726 0.2874 0.0
O162 O 0.54672 0.3643 0.30331 0.0
C163 C 0.45177 0.44355 0.39519 0.0
O164 O 0.52835 0.43115 0.41548 0.0
O165 O 0.54663 0.44503 0.35448 0.0
C166 C 0.55226 0.34028 0.39312 0.0
O167 O 0.45683 0.41451 0.41095 0.0
O168 O 0.47368 0.45469 0.36793 0.0
C169 C 0.45361 0.39652 0.28226 0.0
Fe170 Fe 0.50488 0.62318 0.90905 0.0
Fe171 Fe 0.50302 0.5821 0.82999 0.0
O172 O 0.50383 0.62207 0.85561 0.0
Fe173 Fe 0.50354 0.66093 0.82794 0.0
O174 O 0.5482 0.67441 0.84991 0.0
O175 O 0.53303 0.6625 0.9124 0.0
O176 O 0.54911 0.59934 0.91072 0.0
C177 C 0.55367 0.5702 0.89507 0.0
C178 C 0.45457 0.67506 0.89384 0.0
O179 O 0.53161 0.55941 0.86785 0.0
C180 C 0.45327 0.62361 0.7832 0.0
O181 O 0.47689 0.58412 0.91571 0.0
O182 O 0.45909 0.56974 0.85466 0.0
O183 O 0.47558 0.68499 0.86517 0.0
O184 O 0.46072 0.64695 0.9114 0.0
C185 C 0.55235 0.61788 0.78211 0.0
O186 O 0.47421 0.59744 0.78752 0.0
O187 O 0.45903 0.6503 0.8037 0.0
C188 C 0.45472 0.56827 0.89234 0.0
O189 O 0.54688 0.59148 0.80331 0.0
O190 O 0.53127 0.64402 0.7857 0.0
C191 C 0.55446 0.67705 0.88712 0.0
C192 C 0.23014 0.2828 0.97994 0.0
C193 C 0.22064 0.31746 0.9838 0.0
C194 C 0.20432 0.25935 0.96348 0.0
C195 C 0.16818 0.27102 0.95078 0.0
C196 C 0.15855 0.30612 0.95468 0.0
C197 C 0.18501 0.32895 0.97113 0.0
C198 C 0.21565 0.22217 0.9597 0.0
C199 C 0.12024 0.3195 0.94175 0.0
C200 C 0.11052 0.21731 0.87766 0.0
C201 C 0.08498 0.20089 0.90369 0.0
C202 C 0.13808 0.23994 0.89259 0.0
C203 C 0.14 0.24638 0.93448 0.0
C204 C 0.11456 0.22968 0.96091 0.0
C205 C 0.08747 0.2071 0.94523 0.0
C206 C 0.16493 0.25717 0.86355 0.0
C207 C 0.11567 0.23596 1.00575 0.0
H208 H 0.25799 0.27424 0.98942 0.0
H209 H 0.17792 0.35584 0.9744 0.0
H210 H 0.19598 0.20593 0.97744 0.0
H211 H 0.21348 0.21388 0.92785 0.0
H212 H 0.24506 0.21741 0.97033 0.0
H213 H 0.11747 0.3476 0.94626 0.0
H214 H 0.11541 0.31366 0.90949 0.0
H215 H 0.09754 0.30649 0.95911 0.0
H216 H 0.10895 0.21257 0.84557 0.0
H217 H 0.06794 0.19455 0.96565 0.0
H218 H 0.19471 0.25146 0.87201 0.0
H219 H 0.16125 0.28538 0.86512 0.0
H220 H 0.16031 0.24881 0.83198 0.0
H221 H 0.14417 0.22958 0.01776 0.0
H222 H 0.0942 0.2206 0.02226 0.0
H223 H 0.1105 0.2635 0.01206 0.0
C224 C 0.81933 0.70401 0.5048 0.0
C225 C 0.78295 0.70253 0.48814 0.0
C226 C 0.84623 0.72753 0.4904 0.0
C227 C 0.83631 0.75008 0.45864 0.0
C228 C 0.79922 0.74908 0.44233 0.0
C229 C 0.77298 0.72526 0.45732 0.0
C230 C 0.88548 0.72771 0.50851 0.0
C231 C 0.78748 0.77274 0.4086 0.0
C232 C 0.89791 0.8287 0.44117 0.0
C233 C 0.92122 0.81779 0.40935 0.0
C234 C 0.86994 0.80705 0.45734 0.0
C235 C 0.8652 0.7737 0.44139 0.0
C236 C 0.88833 0.76267 0.40902 0.0
C237 C 0.91594 0.78484 0.39336 0.0
C238 C 0.84566 0.81977 0.4917 0.0
C239 C 0.88416 0.72728 0.39117 0.0
H240 H 0.82687 0.68619 0.52851 0.0
H241 H 0.7446 0.72416 0.44488 0.0
H242 H 0.90668 0.72071 0.4852 0.0
H243 H 0.89265 0.7538 0.5193 0.0
H244 H 0.88816 0.7095 0.53406 0.0
H245 H 0.75714 0.76964 0.4004 0.0
H246 H 0.79241 0.7998 0.41737 0.0
H247 H 0.80506 0.7676 0.38155 0.0
H248 H 0.90163 0.85412 0.45367 0.0
H249 H 0.93371 0.77611 0.36876 0.0
H250 H 0.84979 0.80315 0.51844 0.0
H251 H 0.81524 0.81831 0.48339 0.0
H252 H 0.8524 0.84661 0.50019 0.0
H253 H 0.88938 0.70761 0.41466 0.0
H254 H 0.9041 0.72274 0.36582 0.0
H255 H 0.85476 0.72356 0.38013 0.0
C256 C 0.77761 0.29327 0.95127 0.0
C257 C 0.78624 0.3141 0.98429 0.0
C258 C 0.80423 0.26974 0.93617 0.0
C259 C 0.84035 0.2671 0.95458 0.0
C260 C 0.84904 0.28801 0.98819 0.0
C261 C 0.8218 0.31126 1.00267 0.0
C262 C 0.79378 0.24785 0.90042 0.0
C263 C 0.88726 0.28612 1.00853 0.0
C264 C 0.89992 0.18694 0.93737 0.0
C265 C 0.92531 0.19795 0.90748 0.0
C266 C 0.87195 0.20907 0.95278 0.0
C267 C 0.86936 0.24307 0.9381 0.0
C268 C 0.89468 0.25426 0.90776 0.0
C269 C 0.92223 0.23158 0.89276 0.0
C270 C 0.84529 0.19613 0.98494 0.0
C271 C 0.8929 0.29033 0.89136 0.0
H272 H 0.74987 0.29538 0.93747 0.0
H273 H 0.82832 0.32762 0.02807 0.0
H274 H 0.81341 0.25312 0.87505 0.0
H275 H 0.79682 0.22032 0.90817 0.0
H276 H 0.76426 0.25255 0.89011 0.0
H277 H 0.88925 0.30366 0.03477 0.0
H278 H 0.89285 0.25956 0.01891 0.0
H279 H 0.90992 0.29285 0.98673 0.0
H280 H 0.90193 0.161 0.94885 0.0
H281 H 0.94164 0.24041 0.86968 0.0
H282 H 0.81548 0.19882 0.97472 0.0
H283 H 0.84838 0.21179 0.0126 0.0
H284 H 0.85061 0.16884 0.99268 0.0
H285 H 0.86439 0.29544 0.87857 0.0
H286 H 0.91449 0.29498 0.86762 0.0
H287 H 0.8974 0.30901 0.91606 0.0
C288 C 0.2304 0.72255 0.45698 0.0
C289 C 0.21877 0.6962 0.48266 0.0
C290 C 0.20392 0.74553 0.4406 0.0
C291 C 0.16489 0.74142 0.44957 0.0
C292 C 0.1531 0.71443 0.47525 0.0
C293 C 0.18036 0.69231 0.49187 0.0
C294 C 0.21772 0.77436 0.41408 0.0
C295 C 0.11174 0.70883 0.48497 0.0
C296 C 0.09776 0.81713 0.43975 0.0
C297 C 0.08124 0.81121 0.40202 0.0
C298 C 0.12556 0.795 0.45518 0.0
C299 C 0.13646 0.76575 0.43277 0.0
C300 C 0.11991 0.75962 0.39461 0.0
C301 C 0.09281 0.7827 0.37944 0.0
C302 C 0.14321 0.80289 0.49552 0.0
C303 C 0.13029 0.72835 0.37019 0.0
H304 H 0.26032 0.72523 0.45018 0.0
H305 H 0.17179 0.67161 0.51162 0.0
H306 H 0.2045 0.77249 0.38389 0.0
H307 H 0.20907 0.79936 0.42712 0.0
H308 H 0.24905 0.77415 0.41044 0.0
H309 H 0.10721 0.68593 0.50424 0.0
H310 H 0.10009 0.73159 0.50073 0.0
H311 H 0.09531 0.70563 0.45675 0.0
H312 H 0.08915 0.83935 0.45712 0.0
H313 H 0.07993 0.77792 0.35036 0.0
H314 H 0.17452 0.8043 0.49253 0.0
H315 H 0.13683 0.782 0.51713 0.0
H316 H 0.13275 0.82744 0.50834 0.0
H317 H 0.16118 0.72817 0.36383 0.0
H318 H 0.11474 0.72724 0.34115 0.0
H319 H 0.12385 0.70482 0.38766 0.0
C320 C 0.69114 0.82474 0.96664 0.0
C321 C 0.72701 0.81247 0.97745 0.0
C322 C 0.66358 0.80265 0.95087 0.0
C323 C 0.67227 0.76746 0.94582 0.0
C324 C 0.70865 0.755 0.95657 0.0
C325 C 0.73563 0.77774 0.97235 0.0
C326 C 0.62507 0.81689 0.94001 0.0
C327 C 0.71899 0.71769 0.95156 0.0
C328 C 0.58971 0.70533 0.94328 0.0
C329 C 0.58524 0.69967 0.90182 0.0
C330 C 0.61811 0.72709 0.95794 0.0
C331 C 0.64282 0.74355 0.93055 0.0
C332 C 0.63885 0.73769 0.8887 0.0
C333 C 0.61006 0.71585 0.87481 0.0
C334 C 0.62138 0.73276 1.00278 0.0
C335 C 0.66483 0.75473 0.85862 0.0
H336 H 0.6847 0.85166 0.97091 0.0
H337 H 0.76363 0.76856 0.98042 0.0
H338 H 0.61868 0.81143 0.90796 0.0
H339 H 0.60285 0.80418 0.95834 0.0
H340 H 0.62319 0.84499 0.94495 0.0
H341 H 0.74876 0.71229 0.96054 0.0
H342 H 0.69983 0.70156 0.97006 0.0
H343 H 0.71514 0.70985 0.91973 0.0
H344 H 0.57077 0.69295 0.96446 0.0
H345 H 0.60697 0.71152 0.84276 0.0
H346 H 0.61715 0.7603 1.00981 0.0
H347 H 0.65023 0.72568 0.01321 0.0
H348 H 0.60031 0.71759 0.0201 0.0
H349 H 0.66193 0.78298 0.8608 0.0
H350 H 0.65863 0.74683 0.82719 0.0
H351 H 0.69481 0.74833 0.86552 0.0
C352 C 0.27735 0.22702 0.47355 0.0
C353 C 0.28918 0.19357 0.48194 0.0
C354 C 0.30267 0.25105 0.45722 0.0
C355 C 0.34062 0.24115 0.4491 0.0
C356 C 0.3525 0.20715 0.45741 0.0
C357 C 0.32653 0.18375 0.4738 0.0
C358 C 0.28893 0.28701 0.44888 0.0
C359 C 0.39265 0.19558 0.44921 0.0
C360 C 0.40035 0.29393 0.37647 0.0
C361 C 0.42265 0.31328 0.40302 0.0
C362 C 0.37324 0.2706 0.391 0.0
C363 C 0.36824 0.26657 0.43304 0.0
C364 C 0.39021 0.28641 0.45994 0.0
C365 C 0.41708 0.30948 0.44464 0.0
C366 C 0.35028 0.24991 0.36138 0.0
C367 C 0.38565 0.28297 0.50497 0.0
H368 H 0.24822 0.23419 0.4798 0.0
H369 H 0.33522 0.15768 0.48032 0.0
H370 H 0.30563 0.30561 0.46681 0.0
H371 H 0.29334 0.29342 0.41669 0.0
H372 H 0.2584 0.29038 0.45624 0.0
H373 H 0.39709 0.1681 0.45659 0.0
H374 H 0.39976 0.19969 0.41704 0.0
H375 H 0.41276 0.21111 0.46723 0.0
H376 H 0.40432 0.29672 0.34429 0.0
H377 H 0.43398 0.32438 0.46548 0.0
H378 H 0.31954 0.25406 0.36672 0.0
H379 H 0.35597 0.22219 0.36582 0.0
H380 H 0.35686 0.25666 0.32966 0.0
H381 H 0.35577 0.28802 0.51369 0.0
H382 H 0.40427 0.30086 0.52181 0.0
H383 H 0.39247 0.25638 0.51438 0.0
C384 C 0.2765 0.78507 0.9722 0.0
C385 C 0.28855 0.81721 0.98558 0.0
C386 C 0.30257 0.76128 0.95656 0.0
C387 C 0.34164 0.76974 0.95522 0.0
C388 C 0.35384 0.80223 0.96918 0.0
C389 C 0.32698 0.82576 0.98381 0.0
C390 C 0.28831 0.72726 0.94121 0.0
C391 C 0.39524 0.81201 0.96897 0.0
C392 C 0.41335 0.69689 0.9497 0.0
C393 C 0.42472 0.69836 0.90928 0.0
C394 C 0.38642 0.72003 0.96509 0.0
C395 C 0.36977 0.74466 0.93919 0.0
C396 C 0.38045 0.74566 0.89811 0.0
C397 C 0.40814 0.72278 0.88377 0.0
C398 C 0.37635 0.71858 1.00924 0.0
C399 C 0.3627 0.77096 0.86932 0.0
H400 H 0.24658 0.77888 0.97362 0.0
H401 H 0.33587 0.85075 0.99441 0.0
H402 H 0.29669 0.72386 0.90926 0.0
H403 H 0.30143 0.70603 0.95853 0.0
H404 H 0.25697 0.72501 0.94353 0.0
H405 H 0.4001 0.83791 0.98183 0.0
H406 H 0.41189 0.79307 0.98657 0.0
H407 H 0.40637 0.81158 0.93774 0.0
H408 H 0.42627 0.67821 0.96961 0.0
H409 H 0.4166 0.7238 0.85242 0.0
H410 H 0.34547 0.71421 0.01295 0.0
H411 H 0.38301 0.74349 0.0237 0.0
H412 H 0.39192 0.69797 0.02537 0.0
H413 H 0.33136 0.76832 0.86982 0.0
H414 H 0.3728 0.76734 0.83792 0.0
H415 H 0.36942 0.7975 0.87885 0.0
C416 C 0.68918 0.20489 0.50019 0.0
C417 C 0.72543 0.20447 0.48305 0.0
C418 C 0.66118 0.22745 0.486 0.0
C419 C 0.66982 0.25006 0.45391 0.0
C420 C 0.70662 0.24987 0.43676 0.0
C421 C 0.73402 0.22702 0.45161 0.0
C422 C 0.62227 0.22683 0.505 0.0
C423 C 0.71695 0.27362 0.40261 0.0
C424 C 0.58798 0.28472 0.39169 0.0
C425 C 0.58289 0.31752 0.40819 0.0
C426 C 0.61626 0.26258 0.40618 0.0
C427 C 0.64015 0.27351 0.43787 0.0
C428 C 0.63548 0.30668 0.4544 0.0
C429 C 0.60691 0.32829 0.43938 0.0
C430 C 0.6204 0.22739 0.38776 0.0
C431 C 0.66052 0.31926 0.48812 0.0
H432 H 0.68273 0.18716 0.52433 0.0
H433 H 0.76229 0.22674 0.43879 0.0
H434 H 0.61489 0.25265 0.51661 0.0
H435 H 0.60072 0.22003 0.48205 0.0
H436 H 0.62041 0.20815 0.53016 0.0
H437 H 0.74697 0.27056 0.39303 0.0
H438 H 0.69835 0.26861 0.37635 0.0
H439 H 0.71228 0.30064 0.41176 0.0
H440 H 0.56967 0.27614 0.36754 0.0
H441 H 0.60334 0.35361 0.45225 0.0
H442 H 0.61611 0.20748 0.41116 0.0
H443 H 0.64952 0.22401 0.37569 0.0
H444 H 0.5998 0.22292 0.36304 0.0
H445 H 0.65748 0.30228 0.51471 0.0
H446 H 0.65357 0.34592 0.4973 0.0
H447 H 0.69071 0.31827 0.47873 0.0
C448 C 0.35005 0.41016 0.99291 0.0
C449 C 0.31068 0.41399 0.99514 0.0
C450 C 0.37287 0.43661 0.97777 0.0
C451 C 0.35568 0.46753 0.96471 0.0
C452 C 0.31596 0.47192 0.96847 0.0
C453 C 0.2939 0.44497 0.98362 0.0
C454 C 0.41513 0.43099 0.97437 0.0
C455 C 0.29667 0.50465 0.9554 0.0
C456 C 0.42001 0.54455 0.95172 0.0
C457 C 0.42692 0.54414 0.91008 0.0
C458 C 0.39626 0.52021 0.96981 0.0
C459 C 0.37913 0.49471 0.94573 0.0
C460 C 0.38519 0.49461 0.90358 0.0
C461 C 0.4089 0.51944 0.8862 0.0
C462 C 0.39014 0.52134 0.0148 0.0
C463 C 0.36743 0.4677 0.87697 0.0
H464 H 0.36271 0.38593 1.00158 0.0
H465 H 0.26336 0.44766 0.98569 0.0
H466 H 0.42365 0.4314 0.94221 0.0
H467 H 0.43063 0.45199 0.98965 0.0
H468 H 0.42419 0.40618 0.9877 0.0
H469 H 0.2659 0.50472 0.96266 0.0
H470 H 0.31013 0.52702 0.97018 0.0
H471 H 0.30006 0.50805 0.92245 0.0
H472 H 0.43359 0.56369 0.97041 0.0
H473 H 0.4141 0.51888 0.85406 0.0
H474 H 0.40169 0.49772 0.0288 0.0
H475 H 0.35936 0.5222 0.02172 0.0
H476 H 0.40401 0.54386 0.02895 0.0
H477 H 0.37778 0.44193 0.8859 0.0
H478 H 0.37406 0.47176 0.84462 0.0
H479 H 0.33617 0.46778 0.88083 0.0
C480 C 0.6978 0.57352 0.50146 0.0
C481 C 0.69052 0.60718 0.48935 0.0
C482 C 0.67626 0.54624 0.48614 0.0
C483 C 0.64634 0.55314 0.45882 0.0
C484 C 0.63842 0.58739 0.4474 0.0
C485 C 0.66097 0.61399 0.4625 0.0
C486 C 0.68592 0.51006 0.49856 0.0
C487 C 0.60615 0.59594 0.41927 0.0
C488 C 0.60843 0.4842 0.38866 0.0
C489 C 0.57617 0.47316 0.40959 0.0
C490 C 0.63225 0.50951 0.40493 0.0
C491 C 0.62295 0.52469 0.44243 0.0
C492 C 0.5904 0.5136 0.46363 0.0
C493 C 0.56772 0.48768 0.44721 0.0
C494 C 0.66718 0.52024 0.38186 0.0
C495 C 0.57893 0.52974 0.50316 0.0
H496 H 0.72099 0.56864 0.52208 0.0
H497 H 0.65561 0.64025 0.45351 0.0
H498 H 0.66112 0.49795 0.51335 0.0
H499 H 0.69277 0.49451 0.47154 0.0
H500 H 0.71039 0.50905 0.51956 0.0
H501 H 0.60307 0.62398 0.41443 0.0
H502 H 0.61083 0.58346 0.38969 0.0
H503 H 0.5791 0.58586 0.43157 0.0
H504 H 0.61514 0.47291 0.3597 0.0
H505 H 0.54262 0.47948 0.46341 0.0
H506 H 0.69263 0.51799 0.40131 0.0
H507 H 0.66466 0.54752 0.37283 0.0
H508 H 0.67166 0.50453 0.35438 0.0
H509 H 0.60207 0.5269 0.5255 0.0
H510 H 0.55271 0.51819 0.5158 0.0
H511 H 0.57405 0.55762 0.49893 0.0
C512 C 0.69117 0.43866 0.01187 0.0
C513 C 0.69074 0.40771 0.99059 0.0
C514 C 0.66891 0.46662 0.99931 0.0
C515 C 0.64603 0.46348 0.96447 0.0
C516 C 0.64498 0.43191 0.94345 0.0
C517 C 0.66717 0.40437 0.95697 0.0
C518 C 0.67039 0.49965 0.02286 0.0
C519 C 0.62089 0.42739 0.90628 0.0
C520 C 0.56314 0.52338 0.9443 0.0
C521 C 0.57849 0.54533 0.91525 0.0
C522 C 0.58523 0.49737 0.96175 0.0
C523 C 0.62344 0.49314 0.94944 0.0
C524 C 0.63923 0.51593 0.9207 0.0
C525 C 0.61646 0.54185 0.90388 0.0
C526 C 0.56734 0.47377 0.99235 0.0
C527 C 0.67977 0.51217 0.9067 0.0
H528 H 0.70958 0.44115 0.03779 0.0
H529 H 0.66647 0.38015 0.94106 0.0
H530 H 0.68209 0.52036 1.00365 0.0
H531 H 0.64135 0.50754 0.03188 0.0
H532 H 0.68816 0.49737 0.05032 0.0
H533 H 0.62308 0.40111 0.89362 0.0
H534 H 0.59072 0.43273 0.91344 0.0
H535 H 0.62974 0.44599 0.88283 0.0
H536 H 0.53357 0.52619 0.95276 0.0
H537 H 0.62802 0.55885 0.88116 0.0
H538 H 0.58502 0.47255 0.01992 0.0
H539 H 0.56577 0.44741 0.97995 0.0
H540 H 0.53826 0.48208 1.00084 0.0
H541 H 0.69925 0.51206 0.9329 0.0
H542 H 0.68836 0.53308 0.88592 0.0
H543 H 0.68335 0.48729 0.89096 0.0
C544 C 0.34379 0.61054 0.46256 0.0
C545 C 0.31703 0.60597 0.49316 0.0
C546 C 0.36629 0.58313 0.44925 0.0
C547 C 0.36173 0.5504 0.46703 0.0
C548 C 0.33562 0.54601 0.49906 0.0
C549 C 0.31359 0.574 0.51183 0.0
C550 C 0.39419 0.58902 0.41545 0.0
C551 C 0.33004 0.51157 0.51883 0.0
C552 C 0.39101 0.47564 0.40063 0.0
C553 C 0.42703 0.46816 0.41575 0.0
C554 C 0.36876 0.50156 0.41813 0.0
C555 C 0.38338 0.52065 0.45095 0.0
C556 C 0.41963 0.51258 0.46668 0.0
C557 C 0.44099 0.48626 0.4489 0.0
C558 C 0.33011 0.50923 0.40075 0.0
C559 C 0.43642 0.53256 0.50125 0.0
H560 H 0.34655 0.63554 0.44868 0.0
H561 H 0.29268 0.57073 0.53545 0.0
H562 H 0.42295 0.58053 0.42465 0.0
H563 H 0.38594 0.57353 0.38887 0.0
H564 H 0.39559 0.61637 0.4063 0.0
H565 H 0.31025 0.51293 0.54483 0.0
H566 H 0.31854 0.49314 0.49655 0.0
H567 H 0.35762 0.50122 0.52938 0.0
H568 H 0.38058 0.4616 0.37475 0.0
H569 H 0.46916 0.48046 0.46013 0.0
H570 H 0.32996 0.53533 0.3875 0.0
H571 H 0.30834 0.5088 0.42489 0.0
H572 H 0.32189 0.4906 0.37705 0.0
H573 H 0.44064 0.55964 0.4921 0.0
H574 H 0.46414 0.52192 0.51117 0.0
H575 H 0.41665 0.53262 0.52723 0.0
C576 C 0.85597 0.90656 0.98758 0.0
C577 C 0.81651 0.9095 0.99001 0.0
C578 C 0.87804 0.93364 0.97269 0.0
C579 C 0.86001 0.96427 0.95997 0.0
C580 C 0.8202 0.96777 0.96394 0.0
C581 C 0.7989 0.94025 0.97896 0.0
C582 C 0.92044 0.92898 0.96918 0.0
C583 C 0.79999 1.00012 0.95115 0.0
C584 C 0.92244 0.04271 0.94826 0.0
C585 C 0.92987 0.04267 0.9067 0.0
C586 C 0.89908 0.01781 0.96587 0.0
C587 C 0.88276 0.99217 0.94139 0.0
C588 C 0.88915 0.99252 0.89928 0.0
C589 C 0.91256 0.01785 0.88239 0.0
C590 C 0.89267 0.01845 0.01082 0.0
C591 C 0.87213 0.96555 0.87222 0.0
H592 H 0.8693 0.88251 0.99576 0.0
H593 H 0.76831 0.94229 0.98117 0.0
H594 H 0.9289 0.92982 0.93703 0.0
H595 H 0.93536 0.95021 0.98468 0.0
H596 H 0.93018 0.90428 0.98225 0.0
H597 H 0.76923 0.99944 0.95837 0.0
H598 H 0.8128 0.02271 0.96614 0.0
H599 H 0.80332 1.00382 0.91823 0.0
H600 H 0.93541 0.06194 0.9673 0.0
H601 H 0.91811 0.01761 0.8503 0.0
H602 H 0.90485 0.995 0.02464 0.0
H603 H 0.86185 0.01852 0.01757 0.0
H604 H 0.90579 0.04118 0.02531 0.0
H605 H 0.88325 0.93993 0.88069 0.0
H606 H 0.87861 0.97019 0.83995 0.0
H607 H 0.84089 0.96484 0.87613 0.0
C608 C 0.1693 0.10417 0.46055 0.0
C609 C 0.19584 0.0994 0.49128 0.0
C610 C 0.14646 0.07706 0.44741 0.0
C611 C 0.15046 0.04437 0.46546 0.0
C612 C 0.17665 0.03969 0.49734 0.0
C613 C 0.19903 0.06743 0.50999 0.0
C614 C 0.1185 0.08328 0.41377 0.0
C615 C 0.18167 1.00525 0.51733 0.0
C616 C 0.06862 0.98298 0.4488 0.0
C617 C 0.08142 0.96446 0.41539 0.0
C618 C 0.09131 0.0084 0.46635 0.0
C619 C 0.12771 0.0151 0.45011 0.0
C620 C 0.14118 0.99547 0.41711 0.0
C621 C 0.11762 0.97049 0.39985 0.0
C622 C 0.07571 0.02903 0.5011 0.0
C623 C 0.17992 1.00169 0.39919 0.0
H624 H 0.16671 0.12921 0.44671 0.0
H625 H 0.2197 0.06407 0.53379 0.0
H626 H 0.12592 0.06709 0.38747 0.0
H627 H 0.08954 0.07591 0.42353 0.0
H628 H 0.11799 0.11051 0.404 0.0
H629 H 0.20217 1.00623 0.54267 0.0
H630 H 0.15404 0.99586 0.52888 0.0
H631 H 0.19192 0.98629 0.49493 0.0
H632 H 0.04033 0.97828 0.46038 0.0
H633 H 0.12716 0.95611 0.37381 0.0
H634 H 0.07213 0.05616 0.49179 0.0
H635 H 0.09591 0.02873 0.52667 0.0
H636 H 0.04786 0.01922 0.51168 0.0
H637 H 0.18084 0.02759 0.38542 0.0
H638 H 0.18729 0.9825 0.37575 0.0
H639 H 0.20188 1.00093 0.42307 0.0
C640 C 0.16004 0.91352 0.99752 0.0
C641 C 0.19968 0.91542 0.99671 0.0
C642 C 0.13765 0.94097 0.98399 0.0
C643 C 0.15542 0.97071 0.9684 0.0
C644 C 0.1955 0.97314 0.96874 0.0
C645 C 0.21712 0.94556 0.98333 0.0
C646 C 0.095 0.93758 0.98492 0.0
C647 C 0.21557 1.00423 0.95214 0.0
C648 C 0.09838 0.01968 0.8903 0.0
C649 C 0.08434 0.04736 0.91274 0.0
C650 C 0.1224 0.99516 0.90782 0.0
C651 C 0.13215 0.99802 0.94902 0.0
C652 C 0.11867 0.02625 0.9717 0.0
C653 C 0.09519 0.05079 0.95318 0.0
C654 C 0.13674 0.96578 0.88238 0.0
C655 C 0.12797 0.0299 0.01583 0.0
H656 H 0.1466 0.89006 1.00749 0.0
H657 H 0.2478 0.94711 0.98334 0.0
H658 H 0.08198 0.9606 0.99889 0.0
H659 H 0.08402 0.93575 0.95372 0.0
H660 H 0.08567 0.91454 1.00188 0.0
H661 H 0.24673 1.00302 0.9569 0.0
H662 H 0.21 1.00633 0.91937 0.0
H663 H 0.20447 0.02789 0.96644 0.0
H664 H 0.09031 0.01701 0.85898 0.0
H665 H 0.08421 0.07197 0.97081 0.0
H666 H 0.1253 0.94125 0.89407 0.0
H667 H 0.16812 0.96422 0.88412 0.0
H668 H 0.12839 0.96837 0.85029 0.0
H669 H 0.11581 0.00802 0.03279 0.0
H670 H 0.11668 0.0541 0.02879 0.0
H671 H 0.15913 0.02921 0.02038 0.0
C672 C 0.81401 0.07889 0.49956 0.0
C673 C 0.8221 0.11236 0.48742 0.0
C674 C 0.83517 0.05114 0.48462 0.0
C675 C 0.86555 0.05737 0.45763 0.0
C676 C 0.87446 0.09145 0.44639 0.0
C677 C 0.85223 0.11855 0.46108 0.0
C678 C 0.82444 0.01519 0.49685 0.0
C679 C 0.90724 0.09926 0.4186 0.0
C680 C 0.94149 0.98905 0.44616 0.0
C681 C 0.9325 0.97475 0.40859 0.0
C682 C 0.91999 0.01594 0.46242 0.0
C683 C 0.88807 0.02831 0.4411 0.0
C684 C 0.87828 0.01348 0.40358 0.0
C685 C 0.90095 0.98714 0.38748 0.0
C686 C 0.93196 0.03163 0.50198 0.0
C687 C 0.84398 0.02556 0.38037 0.0
H688 H 0.79031 0.0745 0.51971 0.0
H689 H 0.85812 0.14467 0.45195 0.0
H690 H 0.81698 1.00002 0.46975 0.0
H691 H 0.84889 1.00226 0.51138 0.0
H692 H 0.80001 0.01476 0.518 0.0
H693 H 0.91141 0.12724 0.41431 0.0
H694 H 0.93381 0.08808 0.43083 0.0
H695 H 0.90227 0.08735 0.38877 0.0
H696 H 0.9661 0.97984 0.46247 0.0
H697 H 0.89385 0.97606 0.35854 0.0
H698 H 0.90872 0.02941 0.52434 0.0
H699 H 0.93775 0.05935 0.49785 0.0
H700 H 0.95778 0.01925 0.51454 0.0
H701 H 0.8183 0.02399 0.39962 0.0
H702 H 0.83915 0.01024 0.35268 0.0
H703 H 0.84757 0.05282 0.3717 0.0
C704 C 0.33992 0.3491 0.08713 0.0
C705 C 0.31469 0.37397 0.07284 0.0
C706 C 0.36235 0.35525 0.1212 0.0
C707 C 0.35944 0.38713 0.14139 0.0
C708 C 0.33456 0.41267 0.12642 0.0
C709 C 0.31247 0.40576 0.0922 0.0
C710 C 0.38882 0.32746 0.13585 0.0
C711 C 0.33076 0.44698 0.14698 0.0
C712 C 0.39084 0.38574 0.2508 0.0
C713 C 0.42782 0.39829 0.24771 0.0
C714 C 0.36763 0.38327 0.21657 0.0
C715 C 0.3821 0.39327 0.1785 0.0
C716 C 0.41923 0.4069 0.17564 0.0
C717 C 0.4417 0.40919 0.21039 0.0
C718 C 0.32819 0.36872 0.22088 0.0
C719 C 0.43579 0.41766 0.13566 0.0
H720 H 0.34189 0.32476 0.07157 0.0
H721 H 0.29278 0.42485 0.08098 0.0
H722 H 0.4183 0.3373 0.13714 0.0
H723 H 0.3808 0.31965 0.16682 0.0
H724 H 0.38831 0.30443 0.1162 0.0
H725 H 0.31112 0.46446 0.13075 0.0
H726 H 0.32006 0.44331 0.1781 0.0
H727 H 0.3589 0.45949 0.14927 0.0
H728 H 0.38051 0.37698 0.27978 0.0
H729 H 0.47062 0.41848 0.20823 0.0
H730 H 0.32644 0.34388 0.20476 0.0
H731 H 0.30712 0.38622 0.20695 0.0
H732 H 0.32024 0.3645 0.25286 0.0
H733 H 0.43907 0.39488 0.11597 0.0
H734 H 0.46394 0.43008 0.13902 0.0
H735 H 0.41636 0.43569 0.1201 0.0
C736 C 0.65641 0.63369 0.57221 0.0
C737 C 0.69605 0.63425 0.57447 0.0
C738 C 0.63427 0.62646 0.60631 0.0
C739 C 0.65227 0.6204 0.64377 0.0
C740 C 0.6924 0.6195 0.64577 0.0
C741 C 0.71379 0.62615 0.61095 0.0
C742 C 0.5916 0.62713 0.60263 0.0
C743 C 0.71274 0.61338 0.68507 0.0
C744 C 0.59526 0.64869 0.73482 0.0
C745 C 0.58083 0.61757 0.74927 0.0
C746 C 0.61949 0.64972 0.70137 0.0
C747 C 0.62917 0.61889 0.68135 0.0
C748 C 0.61552 0.58723 0.69638 0.0
C749 C 0.59172 0.5869 0.73044 0.0
C750 C 0.63393 0.684 0.68682 0.0
C751 C 0.62489 0.55389 0.67559 0.0
H752 H 0.64267 0.64039 0.54415 0.0
H753 H 0.74449 0.62617 0.61242 0.0
H754 H 0.57901 0.60436 0.6175 0.0
H755 H 0.58027 0.65019 0.61806 0.0
H756 H 0.58219 0.62771 0.57074 0.0
H757 H 0.74379 0.61009 0.68084 0.0
H758 H 0.70788 0.63549 0.70545 0.0
H759 H 0.70133 0.5903 0.70031 0.0
H760 H 0.58724 0.67245 0.74949 0.0
H761 H 0.58046 0.56279 0.74134 0.0
H762 H 0.62241 0.68947 0.65642 0.0
H763 H 0.66531 0.68347 0.68424 0.0
H764 H 0.62571 0.70531 0.70722 0.0
H765 H 0.61218 0.55376 0.64505 0.0
H766 H 0.61412 0.53132 0.69246 0.0
H767 H 0.65602 0.55122 0.67179 0.0
C768 C 0.65538 0.37175 0.07062 0.0
C769 C 0.69484 0.3747 0.07296 0.0
C770 C 0.63259 0.3766 0.10486 0.0
C771 C 0.64985 0.38466 0.14219 0.0
C772 C 0.6897 0.38892 0.14421 0.0
C773 C 0.71173 0.38378 0.10951 0.0
C774 C 0.59024 0.37182 0.10139 0.0
C775 C 0.70916 0.39794 0.18323 0.0
C776 C 0.58641 0.4195 0.22545 0.0
C777 C 0.57954 0.38999 0.24856 0.0
C778 C 0.60974 0.41832 0.19116 0.0
C779 C 0.62644 0.38684 0.17948 0.0
C780 C 0.62026 0.35714 0.20308 0.0
C781 C 0.59707 0.35909 0.23739 0.0
C782 C 0.61599 0.45062 0.16702 0.0
C783 C 0.63746 0.32304 0.19154 0.0
H784 H 0.64258 0.36448 0.04225 0.0
H785 H 0.74231 0.38624 0.11092 0.0
H786 H 0.58134 0.3495 0.11979 0.0
H787 H 0.57515 0.39463 0.11333 0.0
H788 H 0.58111 0.36753 0.06981 0.0
H789 H 0.73999 0.40261 0.17911 0.0
H790 H 0.69604 0.42116 0.1966 0.0
H791 H 0.70548 0.37675 0.20516 0.0
H792 H 0.57314 0.44354 0.23383 0.0
H793 H 0.59194 0.33612 0.2549 0.0
H794 H 0.60433 0.44737 0.13626 0.0
H795 H 0.6468 0.45568 0.1638 0.0
H796 H 0.60234 0.47334 0.18107 0.0
H797 H 0.62699 0.31522 0.16144 0.0
H798 H 0.63051 0.3025 0.21348 0.0
H799 H 0.66877 0.32531 0.18942 0.0
C800 C 0.34814 0.6429 0.57335 0.0
C801 C 0.30879 0.63862 0.57515 0.0
C802 C 0.3707 0.63858 0.60776 0.0
C803 C 0.35337 0.62974 0.64483 0.0
C804 C 0.31365 0.62441 0.64645 0.0
C805 C 0.29181 0.62898 0.61151 0.0
C806 C 0.41292 0.6445 0.60469 0.0
C807 C 0.29416 0.6146 0.68523 0.0
C808 C 0.41846 0.59505 0.72655 0.0
C809 C 0.42518 0.62444 0.74988 0.0
C810 C 0.3944 0.59615 0.69288 0.0
C811 C 0.37671 0.62742 0.68211 0.0
C812 C 0.38251 0.65693 0.70611 0.0
C813 C 0.40653 0.65507 0.73975 0.0
C814 C 0.38866 0.56406 0.66825 0.0
C815 C 0.36423 0.69079 0.69557 0.0
H816 H 0.36103 0.65067 0.54518 0.0
H817 H 0.26136 0.62541 0.61253 0.0
H818 H 0.42107 0.66653 0.62391 0.0
H819 H 0.42859 0.62174 0.61588 0.0
H820 H 0.42212 0.64983 0.57332 0.0
H821 H 0.26341 0.60966 0.68094 0.0
H822 H 0.30755 0.59131 0.69811 0.0
H823 H 0.2975 0.63546 0.70761 0.0
H824 H 0.43253 0.5712 0.73417 0.0
H825 H 0.41142 0.67793 0.75752 0.0
H826 H 0.4004 0.56782 0.63758 0.0
H827 H 0.35794 0.55866 0.66489 0.0
H828 H 0.4026 0.54134 0.68198 0.0
H829 H 0.37464 0.69959 0.66579 0.0
H830 H 0.37037 0.711 0.71818 0.0
H831 H 0.33303 0.68775 0.69318 0.0
C832 C 0.8127 0.89559 0.09146 0.0
C833 C 0.82154 0.86787 0.0665 0.0
C834 C 0.83321 0.90143 0.12703 0.0
C835 C 0.86375 0.87939 0.13716 0.0
C836 C 0.87347 0.85199 0.11107 0.0
C837 C 0.85185 0.84631 0.07627 0.0
C838 C 0.82153 0.93051 0.15432 0.0
C839 C 0.90641 0.82847 0.12014 0.0
C840 C 0.93812 0.90971 0.21183 0.0
C841 C 0.92872 0.89077 0.24635 0.0
C842 C 0.91707 0.90648 0.17618 0.0
C843 C 0.8852 0.88449 0.17532 0.0
C844 C 0.8747 0.8663 0.21054 0.0
C845 C 0.89691 0.86929 0.24548 0.0
C846 C 0.92981 0.92562 0.13904 0.0
C847 C 0.84041 0.84318 0.21109 0.0
H848 H 0.78894 0.91193 0.08364 0.0
H849 H 0.8584 0.82497 0.05658 0.0
H850 H 0.81316 0.92022 0.18416 0.0
H851 H 0.84578 0.94807 0.15927 0.0
H852 H 0.79743 0.9455 0.14186 0.0
H853 H 0.91154 0.80967 0.09562 0.0
H854 H 0.93262 0.84367 0.12476 0.0
H855 H 0.90089 0.8142 0.14842 0.0
H856 H 0.96291 0.92609 0.21213 0.0
H857 H 0.88949 0.85469 0.27211 0.0
H858 H 0.90644 0.94192 0.12748 0.0
H859 H 0.93718 0.9071 0.11492 0.0
H860 H 0.95488 0.9421 0.14488 0.0
H861 H 0.81503 0.8574 0.20049 0.0
H862 H 0.83451 0.83279 0.24159 0.0
H863 H 0.84488 0.82139 0.19018 0.0
C864 C 0.2177 0.12663 0.61062 0.0
C865 C 0.20042 0.13266 0.57336 0.0
C866 C 0.19588 0.1215 0.64549 0.0
C867 C 0.15578 0.12178 0.64278 0.0
C868 C 0.13826 0.12609 0.60474 0.0
C869 C 0.16082 0.13186 0.57055 0.0
C870 C 0.2157 0.11724 0.68542 0.0
C871 C 0.09564 0.12602 0.60036 0.0
C872 C 0.09576 0.08873 0.73005 0.0
C873 C 0.08391 0.11947 0.74804 0.0
C874 C 0.11952 0.08894 0.69597 0.0
C875 C 0.13217 0.12061 0.68001 0.0
C876 C 0.12138 0.15161 0.69902 0.0
C877 C 0.09721 0.15066 0.73255 0.0
C878 C 0.13005 0.05541 0.67625 0.0
C879 C 0.13473 0.1859 0.68343 0.0
H880 H 0.24837 0.12669 0.61253 0.0
H881 H 0.14748 0.13687 0.54178 0.0
H882 H 0.20921 0.13953 0.705 0.0
H883 H 0.20523 0.09401 0.70111 0.0
H884 H 0.24698 0.11523 0.68202 0.0
H885 H 0.08666 0.12582 0.56831 0.0
H886 H 0.08331 0.10334 0.61564 0.0
H887 H 0.08361 0.14917 0.615 0.0
H888 H 0.08539 0.06454 0.74171 0.0
H889 H 0.08841 0.17451 0.7465 0.0
H890 H 0.16132 0.05322 0.67341 0.0
H891 H 0.11816 0.05453 0.64536 0.0
H892 H 0.11934 0.03294 0.69335 0.0
H893 H 0.16614 0.18624 0.68133 0.0
H894 H 0.12545 0.20748 0.70291 0.0
H895 H 0.12347 0.19022 0.65267 0.0
C896 C 0.16686 0.8486 0.08566 0.0
C897 C 0.19296 0.87335 0.07305 0.0
C898 C 0.14395 0.85408 0.11958 0.0
C899 C 0.14718 0.88518 0.14129 0.0
C900 C 0.17284 0.91069 0.12793 0.0
C901 C 0.19548 0.90443 0.09386 0.0
C902 C 0.11672 0.82635 0.13254 0.0
C903 C 0.17694 0.94423 0.15008 0.0
C904 C 0.06475 0.90672 0.21061 0.0
C905 C 0.07819 0.89465 0.24761 0.0
C906 C 0.08738 0.90485 0.17589 0.0
C907 C 0.12422 0.89046 0.17844 0.0
C908 C 0.13818 0.87906 0.21618 0.0
C909 C 0.11484 0.88119 0.2504 0.0
C910 C 0.07136 0.91714 0.13628 0.0
C911 C 0.17726 0.86356 0.22013 0.0
H912 H 0.16466 0.82485 0.06896 0.0
H913 H 0.2158 0.92344 0.0839 0.0
H914 H 0.12418 0.81729 0.16318 0.0
H915 H 0.08743 0.83673 0.13398 0.0
H916 H 0.11701 0.80404 0.11178 0.0
H917 H 0.197 0.96192 0.13483 0.0
H918 H 0.14895 0.95708 0.15271 0.0
H919 H 0.18728 0.93936 0.18109 0.0
H920 H 0.03613 0.91683 0.20871 0.0
H921 H 0.12485 0.87163 0.27915 0.0
H922 H 0.06839 0.89517 0.11535 0.0
H923 H 0.09103 0.93569 0.12199 0.0
H924 H 0.04316 0.92953 0.13988 0.0
H925 H 0.17875 0.83939 0.20261 0.0
H926 H 0.18472 0.85788 0.25192 0.0
H927 H 0.19884 0.8812 0.20746 0.0
C928 C 0.79831 0.13168 0.60698 0.0
C929 C 0.81575 0.14198 0.57113 0.0
C930 C 0.81975 0.12602 0.64196 0.0
C931 C 0.85954 0.13093 0.64091 0.0
C932 C 0.87739 0.14009 0.60421 0.0
C933 C 0.8552 0.14549 0.56972 0.0
C934 C 0.79969 0.1159 0.6803 0.0
C935 C 0.91971 0.14557 0.60176 0.0
C936 C 0.911 0.15593 0.73697 0.0
C937 C 0.92931 0.12523 0.74745 0.0
C938 C 0.88771 0.15792 0.70278 0.0
C939 C 0.8823 0.12847 0.67857 0.0
C940 C 0.89964 0.09713 0.68967 0.0
C941 C 0.92299 0.0959 0.72389 0.0
C942 C 0.86976 0.19186 0.69191 0.0
C943 C 0.89425 0.0651 0.66485 0.0
H944 H 0.76775 0.12879 0.60769 0.0
H945 H 0.86845 0.15383 0.54197 0.0
H946 H 0.81315 0.09276 0.69348 0.0
H947 H 0.80228 0.1368 0.70276 0.0
H948 H 0.76909 0.11062 0.67535 0.0
H949 H 0.9294 0.15055 0.57047 0.0
H950 H 0.9278 0.16772 0.62083 0.0
H951 H 0.93499 0.1228 0.61349 0.0
H952 H 0.91562 0.17875 0.75489 0.0
H953 H 0.93681 0.07199 0.73178 0.0
H954 H 0.83858 0.18895 0.68908 0.0
H955 H 0.8806 0.20058 0.66228 0.0
H956 H 0.87571 0.21206 0.71458 0.0
H957 H 0.86358 0.05978 0.66085 0.0
H958 H 0.90788 0.04232 0.67879 0.0
H959 H 0.90654 0.06889 0.63442 0.0
loop_
_geom_bond_atom_site_label_1
_geom_bond_atom_site_label_2
_geom_bond_distance
_geom_bond_site_symmetry_2
_ccdc_geom_bond_type
C0 N1 1.317 . S
C0 N2 1.348 1_554 S
C0 C3 1.485 . S
N1 C0 1.317 . S
N1 N5 1.359 1_554 S
N2 C0 1.348 1_556 S
N2 C4 1.346 . S
C3 C0 1.485 . S
C3 H7 0.960 . S
C3 H8 0.961 . S
C3 H9 0.960 . S
C4 N2 1.346 . S
C4 N5 1.315 . S
C4 C6 1.486 . S
N5 N1 1.359 1_556 S
N5 C4 1.315 . S
C6 C4 1.486 . S
C6 H10 0.960 . S
C6 H11 0.960 . S
C6 H12 0.959 . S
H7 C3 0.960 . S
H8 C3 0.961 . S
H9 C3 0.960 . S
H10 C6 0.960 . S
H11 C6 0.960 . S
H12 C6 0.959 . S
C13 N14 1.317 . S
C13 N15 1.348 . S
C13 C16 1.485 . S
N14 C13 1.317 . S
N14 N18 1.370 . S
N15 C13 1.348 . S
N15 C17 1.346 . S
C16 C13 1.485 . S
C16 H20 0.960 . S
C16 H21 0.961 . S
C16 H22 0.960 . S
C17 N15 1.346 . S
C17 N18 1.307 . S
C17 C19 1.486 . S
N18 N14 1.370 . S
N18 C17 1.307 . S
C19 C17 1.486 . S
C19 H23 0.960 . S
C19 H24 0.960 . S
C19 H25 0.959 . S
H20 C16 0.960 . S
H21 C16 0.961 . S
H22 C16 0.960 . S
H23 C19 0.960 . S
H24 C19 0.960 . S
H25 C19 0.959 . S
C26 N27 1.317 . S
C26 N28 1.348 1_554 S
C26 C29 1.485 . S
N27 C26 1.317 . S
N27 N31 1.370 1_554 S
N28 C26 1.348 1_556 S
N28 C30 1.346 . S
C29 C26 1.485 . S
C29 H33 0.960 . S
C29 H34 0.961 . S
C29 H35 0.960 . S
C30 N28 1.346 . S
C30 N31 1.307 . S
C30 C32 1.486 . S
N31 N27 1.370 1_556 S
N31 C30 1.307 . S
C32 C30 1.486 . S
C32 H36 0.960 . S
C32 H37 0.960 . S
C32 H38 0.959 . S
H33 C29 0.960 . S
H34 C29 0.961 . S
H35 C29 0.960 . S
H36 C32 0.960 . S
H37 C32 0.960 . S
H38 C32 0.959 . S
C39 N40 1.317 . S
C39 N41 1.348 . S
C39 C42 1.485 . S
N40 C39 1.317 . S
N40 N44 1.370 . S
N41 C39 1.348 . S
N41 C43 1.346 . S
C42 C39 1.485 . S
C42 H46 0.960 . S
C42 H47 0.961 . S
C42 H48 0.960 . S
C43 N41 1.346 . S
C43 N44 1.307 . S
C43 C45 1.486 . S
N44 N40 1.370 . S
N44 C43 1.307 . S
C45 C43 1.486 . S
C45 H49 0.960 . S
C45 H50 0.960 . S
C45 H51 0.959 . S
H46 C42 0.960 . S
H47 C42 0.961 . S
H48 C42 0.960 . S
H49 C45 0.960 . S
H50 C45 0.960 . S
H51 C45 0.959 . S
C52 N53 1.317 . S
C52 N54 1.348 1_554 S
C52 C55 1.485 . S
N53 C52 1.317 . S
N53 N57 1.359 1_554 S
N54 C52 1.348 1_556 S
N54 C56 1.346 . S
C55 C52 1.485 . S
C55 H59 0.960 . S
C55 H60 0.961 . S
C55 H61 0.960 . S
C56 N54 1.346 . S
C56 N57 1.314 . S
C56 C58 1.486 . S
N57 N53 1.359 1_556 S
N57 C56 1.314 . S
C58 C56 1.486 . S
C58 H62 0.960 . S
C58 H63 0.960 . S
C58 H64 0.959 . S
H59 C55 0.960 . S
H60 C55 0.961 . S
H61 C55 0.960 . S
H62 C58 0.960 . S
H63 C58 0.960 . S
H64 C58 0.959 . S
C65 N66 1.317 . S
C65 N67 1.348 . S
C65 C68 1.485 . S
N66 C65 1.317 . S
N66 N70 1.370 . S
N67 C65 1.348 . S
N67 C69 1.346 . S
C68 C65 1.485 . S
C68 H72 0.960 . S
C68 H73 0.961 . S
C68 H74 0.960 . S
C69 N67 1.346 . S
C69 N70 1.307 . S
C69 C71 1.486 . S
N70 N66 1.370 . S
N70 C69 1.307 . S
C71 C69 1.486 . S
C71 H75 0.960 . S
C71 H76 0.960 . S
C71 H77 0.959 . S
H72 C68 0.960 . S
H73 C68 0.961 . S
H74 C68 0.960 . S
H75 C71 0.960 . S
H76 C71 0.960 . S
H77 C71 0.959 . S
C78 N79 1.317 . S
C78 N80 1.348 1_554 S
C78 C81 1.485 . S
N79 C78 1.317 . S
N79 N83 1.370 1_554 S
N80 C78 1.348 1_556 S
N80 C82 1.346 . S
C81 C78 1.485 . S
C81 H85 0.960 . S
C81 H86 0.961 . S
C81 H87 0.960 . S
C82 N80 1.346 . S
C82 N83 1.307 . S
C82 C84 1.486 . S
N83 N79 1.370 1_556 S
N83 C82 1.307 . S
C84 C82 1.486 . S
C84 H88 0.960 . S
C84 H89 0.960 . S
C84 H90 0.959 . S
H85 C81 0.960 . S
H86 C81 0.961 . S
H87 C81 0.960 . S
H88 C84 0.960 . S
H89 C84 0.960 . S
H90 C84 0.959 . S
C91 N92 1.317 . S
C91 N93 1.348 . S
C91 C94 1.485 . S
N92 C91 1.317 . S
N92 N96 1.370 . S
N93 C91 1.348 . S
N93 C95 1.346 . S
C94 C91 1.485 . S
C94 H98 0.960 . S
C94 H99 0.961 . S
C94 H100 0.960 . S
C95 N93 1.346 . S
C95 N96 1.307 . S
C95 C97 1.486 . S
N96 N92 1.370 . S
N96 C95 1.307 . S
C97 C95 1.486 . S
C97 H101 0.960 . S
C97 H102 0.960 . S
C97 H103 0.959 . S
H98 C94 0.960 . S
H99 C94 0.961 . S
H100 C94 0.960 . S
H101 C97 0.960 . S
H102 C97 0.960 . S
H103 C97 0.959 . S
Fe104 O106 1.918 . S
Fe104 O109 1.997 1_455 S
Fe104 O110 2.002 1_455 S
Fe104 O115 1.976 . S
Fe104 O118 1.996 . S
Fe105 O106 1.918 . S
Fe105 O113 1.997 1_455 S
Fe105 O116 1.996 . S
Fe105 O120 1.976 . S
Fe105 O123 2.002 1_455 S
O106 Fe104 1.918 . S
O106 Fe105 1.918 . S
O106 Fe107 1.918 . S
Fe107 O106 1.918 . S
Fe107 O108 2.002 1_455 S
Fe107 O117 1.976 . S
Fe107 O121 1.996 . S
Fe107 O124 1.997 1_455 S
O108 Fe107 2.002 1_655 S
O108 C125 1.295 . S
O109 Fe104 1.997 1_655 S
O109 C125 1.235 . S
O110 Fe104 2.002 1_655 S
O110 C111 1.295 . S
C111 O110 1.295 . S
C111 O113 1.235 . S
C112 O117 1.287 . S
C112 O118 1.255 . S
O113 Fe105 1.997 1_655 S
O113 C111 1.235 . S
C114 O120 1.287 . S
C114 O121 1.255 . S
O115 Fe104 1.976 . S
O115 C122 1.287 . S
O116 Fe105 1.996 . S
O116 C122 1.255 . S
O117 Fe107 1.976 . S
O117 C112 1.287 . S
O118 Fe104 1.996 . S
O118 C112 1.255 . S
C119 O123 1.295 . S
C119 O124 1.235 . S
O120 Fe105 1.976 . S
O120 C114 1.287 . S
O121 Fe107 1.996 . S
O121 C114 1.255 . S
C122 O115 1.287 . S
C122 O116 1.255 . S
O123 Fe105 2.002 1_655 S
O123 C119 1.295 . S
O124 Fe107 1.997 1_655 S
O124 C119 1.235 . S
C125 O108 1.295 . S
C125 O109 1.235 . S
Fe126 O128 1.919 . S
Fe126 O131 1.982 1_655 S
Fe126 O132 1.988 1_655 S
Fe126 O137 1.990 . S
Fe126 O140 2.010 . S
Fe127 O128 1.919 . S
Fe127 O135 1.982 1_655 S
Fe127 O138 2.010 . S
Fe127 O142 1.991 . S
Fe127 O145 1.987 1_655 S
O128 Fe126 1.919 . S
O128 Fe127 1.919 . S
O128 Fe129 1.919 . S
Fe129 O128 1.919 . S
Fe129 O130 1.987 1_655 S
Fe129 O139 1.991 . S
Fe129 O143 2.011 . S
Fe129 O146 1.981 1_655 S
O130 Fe129 1.987 1_455 S
O130 C147 1.295 . S
O131 Fe126 1.982 1_455 S
O131 C147 1.235 . S
O132 Fe126 1.988 1_455 S
O132 C133 1.295 . S
C133 O132 1.295 . S
C133 O135 1.235 . S
C134 O139 1.287 . S
C134 O140 1.255 . S
O135 Fe127 1.982 1_455 S
O135 C133 1.235 . S
C136 O142 1.287 . S
C136 O143 1.255 . S
O137 Fe126 1.990 . S
O137 C144 1.287 . S
O138 Fe127 2.010 . S
O138 C144 1.255 . S
O139 Fe129 1.991 . S
O139 C134 1.287 . S
O140 Fe126 2.010 . S
O140 C134 1.255 . S
C141 O145 1.295 . S
C141 O146 1.235 . S
O142 Fe127 1.991 . S
O142 C136 1.287 . S
O143 Fe129 2.011 . S
O143 C136 1.255 . S
C144 O137 1.287 . S
C144 O138 1.255 . S
O145 Fe127 1.987 1_455 S
O145 C141 1.295 . S
O146 Fe129 1.981 1_455 S
O146 C141 1.235 . S
C147 O130 1.295 . S
C147 O131 1.235 . S
Fe148 O150 1.918 . S
Fe148 O153 1.997 . S
Fe148 O154 2.002 . S
Fe148 O159 1.976 . S
Fe148 O162 1.996 . S
Fe149 O150 1.918 . S
Fe149 O157 1.997 . S
Fe149 O160 1.996 . S
Fe149 O164 1.976 . S
Fe149 O167 2.002 . S
O150 Fe148 1.918 . S
O150 Fe149 1.918 . S
O150 Fe151 1.918 . S
Fe151 O150 1.918 . S
Fe151 O152 2.002 . S
Fe151 O161 1.976 . S
Fe151 O165 1.996 . S
Fe151 O168 1.997 . S
O152 Fe151 2.002 . S
O152 C169 1.295 . S
O153 Fe148 1.997 . S
O153 C169 1.235 . S
O154 Fe148 2.002 . S
O154 C155 1.295 . S
C155 O154 1.295 . S
C155 O157 1.235 . S
C156 O161 1.287 . S
C156 O162 1.255 . S
O157 Fe149 1.997 . S
O157 C155 1.235 . S
C158 O164 1.287 . S
C158 O165 1.255 . S
O159 Fe148 1.976 . S
O159 C166 1.287 . S
O160 Fe149 1.996 . S
O160 C166 1.255 . S
O161 Fe151 1.976 . S
O161 C156 1.287 . S
O162 Fe148 1.996 . S
O162 C156 1.255 . S
C163 O167 1.295 . S
C163 O168 1.235 . S
O164 Fe149 1.976 . S
O164 C158 1.287 . S
O165 Fe151 1.996 . S
O165 C158 1.255 . S
C166 O159 1.287 . S
C166 O160 1.255 . S
O167 Fe149 2.002 . S
O167 C163 1.295 . S
O168 Fe151 1.997 . S
O168 C163 1.235 . S
C169 O152 1.295 . S
C169 O153 1.235 . S
Fe170 O172 1.918 . S
Fe170 O175 1.997 . S
Fe170 O176 2.002 . S
Fe170 O181 1.976 . S
Fe170 O184 1.996 . S
Fe171 O172 1.918 . S
Fe171 O179 1.997 . S
Fe171 O182 1.996 . S
Fe171 O186 1.976 . S
Fe171 O189 2.002 . S
O172 Fe170 1.918 . S
O172 Fe171 1.918 . S
O172 Fe173 1.918 . S
Fe173 O172 1.918 . S
Fe173 O174 2.002 . S
Fe173 O183 1.976 . S
Fe173 O187 1.996 . S
Fe173 O190 1.997 . S
O174 Fe173 2.002 . S
O174 C191 1.295 . S
O175 Fe170 1.997 . S
O175 C191 1.235 . S
O176 Fe170 2.002 . S
O176 C177 1.295 . S
C177 O176 1.295 . S
C177 O179 1.235 . S
C178 O183 1.287 . S
C178 O184 1.255 . S
O179 Fe171 1.997 . S
O179 C177 1.235 . S
C180 O186 1.287 . S
C180 O187 1.255 . S
O181 Fe170 1.976 . S
O181 C188 1.287 . S
O182 Fe171 1.996 . S
O182 C188 1.255 . S
O183 Fe173 1.976 . S
O183 C178 1.287 . S
O184 Fe170 1.996 . S
O184 C178 1.255 . S
C185 O189 1.295 . S
C185 O190 1.235 . S
O186 Fe171 1.976 . S
O186 C180 1.287 . S
O187 Fe173 1.996 . S
O187 C180 1.255 . S
C188 O181 1.287 . S
C188 O182 1.255 . S
O189 Fe171 2.002 . S
O189 C185 1.295 . S
O190 Fe173 1.997 . S
O190 C185 1.235 . S
C191 O174 1.295 . S
C191 O175 1.235 . S
C192 C193 1.391 . S
C192 C194 1.394 . S
C192 H208 0.931 . S
C193 C192 1.391 . S
C193 C197 1.376 . S
C194 C192 1.394 . S
C194 C195 1.369 . S
C194 C198 1.531 . S
C195 C194 1.369 . S
C195 C196 1.410 . S
C195 C203 1.503 . S
C196 C195 1.410 . S
C196 C197 1.392 . S
C196 C199 1.511 . S
C197 C193 1.376 . S
C197 C196 1.392 . S
C197 H209 0.929 . S
C198 C194 1.531 . S
C198 H210 0.960 . S
C198 H211 0.962 . S
C198 H212 0.960 . S
C199 C196 1.511 . S
C199 H213 0.961 . S
C199 H214 0.961 . S
C199 H215 0.961 . S
C200 C201 1.370 . S
C200 C202 1.363 . S
C200 H216 0.931 . S
C201 C200 1.370 . S
C201 C205 1.408 . S
C202 C200 1.363 . S
C202 C203 1.370 . S
C202 C206 1.524 . S
C203 C195 1.503 . S
C203 C202 1.370 . S
C203 C204 1.403 . S
C204 C203 1.403 . S
C204 C205 1.404 . S
C204 C207 1.539 1_556 S
C205 C201 1.408 . S
C205 C204 1.404 . S
C205 H217 0.930 . S
C206 C202 1.524 . S
C206 H218 0.956 . S
C206 H219 0.961 . S
C206 H220 0.961 . S
C207 C204 1.539 1_554 S
C207 H221 0.958 . S
C207 H222 0.961 . S
C207 H223 0.960 . S
H208 C192 0.931 . S
H209 C197 0.929 . S
H210 C198 0.960 . S
H211 C198 0.962 . S
H212 C198 0.960 . S
H213 C199 0.961 . S
H214 C199 0.961 . S
H215 C199 0.961 . S
H216 C200 0.931 . S
H217 C205 0.930 . S
H218 C206 0.956 . S
H219 C206 0.961 . S
H220 C206 0.961 . S
H221 C207 0.958 . S
H222 C207 0.961 . S
H223 C207 0.960 . S
C224 C225 1.391 . S
C224 C226 1.394 . S
C224 H240 0.931 . S
C225 C224 1.391 . S
C225 C229 1.376 . S
C226 C224 1.394 . S
C226 C227 1.369 . S
C226 C230 1.531 . S
C227 C226 1.369 . S
C227 C228 1.410 . S
C227 C235 1.503 . S
C228 C227 1.410 . S
C228 C229 1.392 . S
C228 C231 1.511 . S
C229 C225 1.376 . S
C229 C228 1.392 . S
C229 H241 0.929 . S
C230 C226 1.531 . S
C230 H242 0.960 . S
C230 H243 0.962 . S
C230 H244 0.960 . S
C231 C228 1.511 . S
C231 H245 0.961 . S
C231 H246 0.961 . S
C231 H247 0.961 . S
C232 C233 1.370 . S
C232 C234 1.363 . S
C232 H248 0.931 . S
C233 C232 1.370 . S
C233 C237 1.408 . S
C234 C232 1.363 . S
C234 C235 1.370 . S
C234 C238 1.524 . S
C235 C227 1.503 . S
C235 C234 1.370 . S
C235 C236 1.403 . S
C236 C235 1.403 . S
C236 C237 1.404 . S
C236 C239 1.539 . S
C237 C233 1.408 . S
C237 C236 1.404 . S
C237 H249 0.930 . S
C238 C234 1.524 . S
C238 H250 0.956 . S
C238 H251 0.961 . S
C238 H252 0.961 . S
C239 C236 1.539 . S
C239 H253 0.958 . S
C239 H254 0.961 . S
C239 H255 0.960 . S
H240 C224 0.931 . S
H241 C229 0.929 . S
H242 C230 0.960 . S
H243 C230 0.962 . S
H244 C230 0.960 . S
H245 C231 0.961 . S
H246 C231 0.961 . S
H247 C231 0.961 . S
H248 C232 0.931 . S
H249 C237 0.930 . S
H250 C238 0.956 . S
H251 C238 0.961 . S
H252 C238 0.961 . S
H253 C239 0.958 . S
H254 C239 0.961 . S
H255 C239 0.960 . S
C256 C257 1.391 . S
C256 C258 1.394 . S
C256 H272 0.931 . S
C257 C256 1.391 . S
C257 C261 1.376 . S
C258 C256 1.394 . S
C258 C259 1.369 . S
C258 C262 1.531 . S
C259 C258 1.369 . S
C259 C260 1.410 . S
C259 C267 1.503 . S
C260 C259 1.410 . S
C260 C261 1.392 . S
C260 C263 1.511 1_556 S
C261 C257 1.376 . S
C261 C260 1.392 . S
C261 H273 0.929 1_556 S
C262 C258 1.531 . S
C262 H274 0.960 . S
C262 H275 0.962 . S
C262 H276 0.960 . S
C263 C260 1.511 1_554 S
C263 H277 0.961 . S
C263 H278 0.961 1_554 S
C263 H279 0.961 1_554 S
C264 C265 1.370 . S
C264 C266 1.363 . S
C264 H280 0.931 . S
C265 C264 1.370 . S
C265 C269 1.408 . S
C266 C264 1.363 . S
C266 C267 1.370 . S
C266 C270 1.524 . S
C267 C259 1.503 . S
C267 C266 1.370 . S
C267 C268 1.403 . S
C268 C267 1.403 . S
C268 C269 1.404 . S
C268 C271 1.539 . S
C269 C265 1.408 . S
C269 C268 1.404 . S
C269 H281 0.930 . S
C270 C266 1.524 . S
C270 H282 0.956 . S
C270 H283 0.961 . S
C270 H284 0.961 . S
C271 C268 1.539 . S
C271 H285 0.958 . S
C271 H286 0.961 . S
C271 H287 0.960 . S
H272 C256 0.931 . S
H273 C261 0.929 1_554 S
H274 C262 0.960 . S
H275 C262 0.962 . S
H276 C262 0.960 . S
H277 C263 0.961 . S
H278 C263 0.961 1_556 S
H279 C263 0.961 1_556 S
H280 C264 0.931 . S
H281 C269 0.930 . S
H282 C270 0.956 . S
H283 C270 0.961 . S
H284 C270 0.961 . S
H285 C271 0.958 . S
H286 C271 0.961 . S
H287 C271 0.960 . S
C288 C289 1.391 . S
C288 C290 1.394 . S
C288 H304 0.931 . S
C289 C288 1.391 . S
C289 C293 1.376 . S
C290 C288 1.394 . S
C290 C291 1.369 . S
C290 C294 1.531 . S
C291 C290 1.369 . S
C291 C292 1.410 . S
C291 C299 1.503 . S
C292 C291 1.410 . S
C292 C293 1.392 . S
C292 C295 1.511 . S
C293 C289 1.376 . S
C293 C292 1.392 . S
C293 H305 0.929 . S
C294 C290 1.531 . S
C294 H306 0.960 . S
C294 H307 0.962 . S
C294 H308 0.960 . S
C295 C292 1.511 . S
C295 H309 0.961 . S
C295 H310 0.961 . S
C295 H311 0.961 . S
C296 C297 1.370 . S
C296 C298 1.363 . S
C296 H312 0.931 . S
C297 C296 1.370 . S
C297 C301 1.408 . S
C298 C296 1.363 . S
C298 C299 1.370 . S
C298 C302 1.524 . S
C299 C291 1.503 . S
C299 C298 1.370 . S
C299 C300 1.403 . S
C300 C299 1.403 . S
C300 C301 1.404 . S
C300 C303 1.539 . S
C301 C297 1.408 . S
C301 C300 1.404 . S
C301 H313 0.930 . S
C302 C298 1.524 . S
C302 H314 0.956 . S
C302 H315 0.961 . S
C302 H316 0.961 . S
C303 C300 1.539 . S
C303 H317 0.958 . S
C303 H318 0.961 . S
C303 H319 0.960 . S
H304 C288 0.931 . S
H305 C293 0.929 . S
H306 C294 0.960 . S
H307 C294 0.962 . S
H308 C294 0.960 . S
H309 C295 0.961 . S
H310 C295 0.961 . S
H311 C295 0.961 . S
H312 C296 0.931 . S
H313 C301 0.930 . S
H314 C302 0.956 . S
H315 C302 0.961 . S
H316 C302 0.961 . S
H317 C303 0.958 . S
H318 C303 0.961 . S
H319 C303 0.960 . S
C320 C321 1.391 . S
C320 C322 1.394 . S
C320 H336 0.931 . S
C321 C320 1.391 . S
C321 C325 1.376 . S
C322 C320 1.394 . S
C322 C323 1.369 . S
C322 C326 1.531 . S
C323 C322 1.369 . S
C323 C324 1.410 . S
C323 C331 1.503 . S
C324 C323 1.410 . S
C324 C325 1.392 . S
C324 C327 1.511 . S
C325 C321 1.376 . S
C325 C324 1.392 . S
C325 H337 0.929 1_556 S
C326 C322 1.531 . S
C326 H338 0.960 . S
C326 H339 0.962 . S
C326 H340 0.960 . S
C327 C324 1.511 . S
C327 H341 0.961 1_556 S
C327 H342 0.961 . S
C327 H343 0.961 . S
C328 C329 1.370 . S
C328 C330 1.363 . S
C328 H344 0.931 . S
C329 C328 1.370 . S
C329 C333 1.408 . S
C330 C328 1.363 . S
C330 C331 1.370 . S
C330 C334 1.524 . S
C331 C323 1.503 . S
C331 C330 1.370 . S
C331 C332 1.403 . S
C332 C331 1.403 . S
C332 C333 1.404 . S
C332 C335 1.539 . S
C333 C329 1.408 . S
C333 C332 1.404 . S
C333 H345 0.930 . S
C334 C330 1.524 . S
C334 H346 0.956 . S
C334 H347 0.961 . S
C334 H348 0.961 . S
C335 C332 1.539 . S
C335 H349 0.958 . S
C335 H350 0.961 . S
C335 H351 0.960 . S
H336 C320 0.931 . S
H337 C325 0.929 1_554 S
H338 C326 0.960 . S
H339 C326 0.962 . S
H340 C326 0.960 . S
H341 C327 0.961 1_554 S
H342 C327 0.961 . S
H343 C327 0.961 . S
H344 C328 0.931 . S
H345 C333 0.930 . S
H346 C334 0.956 . S
H347 C334 0.961 . S
H348 C334 0.961 . S
H349 C335 0.958 . S
H350 C335 0.961 . S
H351 C335 0.960 . S
C352 C353 1.391 . S
C352 C354 1.394 . S
C352 H368 0.931 . S
C353 C352 1.391 . S
C353 C357 1.376 . S
C354 C352 1.394 . S
C354 C355 1.369 . S
C354 C358 1.531 . S
C355 C354 1.369 . S
C355 C356 1.410 . S
C355 C363 1.503 . S
C356 C355 1.410 . S
C356 C357 1.392 . S
C356 C359 1.511 . S
C357 C353 1.376 . S
C357 C356 1.392 . S
C357 H369 0.929 . S
C358 C354 1.531 . S
C358 H370 0.960 . S
C358 H371 0.962 . S
C358 H372 0.960 . S
C359 C356 1.511 . S
C359 H373 0.961 . S
C359 H374 0.961 . S
C359 H375 0.961 . S
C360 C361 1.370 . S
C360 C362 1.363 . S
C360 H376 0.931 . S
C361 C360 1.370 . S
C361 C365 1.408 . S
C362 C360 1.363 . S
C362 C363 1.370 . S
C362 C366 1.524 . S
C363 C355 1.503 . S
C363 C362 1.370 . S
C363 C364 1.403 . S
C364 C363 1.403 . S
C364 C365 1.404 . S
C364 C367 1.539 . S
C365 C361 1.408 . S
C365 C364 1.404 . S
C365 H377 0.930 . S
C366 C362 1.524 . S
C366 H378 0.956 . S
C366 H379 0.961 . S
C366 H380 0.961 . S
C367 C364 1.539 . S
C367 H381 0.958 . S
C367 H382 0.961 . S
C367 H383 0.960 . S
H368 C352 0.931 . S
H369 C357 0.929 . S
H370 C358 0.960 . S
H371 C358 0.962 . S
H372 C358 0.960 . S
H373 C359 0.961 . S
H374 C359 0.961 . S
H375 C359 0.961 . S
H376 C360 0.931 . S
H377 C365 0.930 . S
H378 C366 0.956 . S
H379 C366 0.961 . S
H380 C366 0.961 . S
H381 C367 0.958 . S
H382 C367 0.961 . S
H383 C367 0.960 . S
C384 C385 1.391 . S
C384 C386 1.394 . S
C384 H400 0.931 . S
C385 C384 1.391 . S
C385 C389 1.376 . S
C386 C384 1.394 . S
C386 C387 1.369 . S
C386 C390 1.531 . S
C387 C386 1.369 . S
C387 C388 1.410 . S
C387 C395 1.503 . S
C388 C387 1.410 . S
C388 C389 1.392 . S
C388 C391 1.511 . S
C389 C385 1.376 . S
C389 C388 1.392 . S
C389 H401 0.929 . S
C390 C386 1.531 . S
C390 H402 0.960 . S
C390 H403 0.962 . S
C390 H404 0.960 . S
C391 C388 1.511 . S
C391 H405 0.961 . S
C391 H406 0.961 . S
C391 H407 0.961 . S
C392 C393 1.370 . S
C392 C394 1.363 . S
C392 H408 0.931 . S
C393 C392 1.370 . S
C393 C397 1.408 . S
C394 C392 1.363 . S
C394 C395 1.370 . S
C394 C398 1.524 . S
C395 C387 1.503 . S
C395 C394 1.370 . S
C395 C396 1.403 . S
C396 C395 1.403 . S
C396 C397 1.404 . S
C396 C399 1.539 . S
C397 C393 1.408 . S
C397 C396 1.404 . S
C397 H409 0.930 . S
C398 C394 1.524 . S
C398 H410 0.956 1_556 S
C398 H411 0.961 . S
C398 H412 0.961 1_556 S
C399 C396 1.539 . S
C399 H413 0.958 . S
C399 H414 0.961 . S
C399 H415 0.960 . S
H400 C384 0.931 . S
H401 C389 0.929 . S
H402 C390 0.960 . S
H403 C390 0.962 . S
H404 C390 0.960 . S
H405 C391 0.961 . S
H406 C391 0.961 . S
H407 C391 0.961 . S
H408 C392 0.931 . S
H409 C397 0.930 . S
H410 C398 0.956 1_554 S
H411 C398 0.961 . S
H412 C398 0.961 1_554 S
H413 C399 0.958 . S
H414 C399 0.961 . S
H415 C399 0.960 . S
C416 C417 1.391 . S
C416 C418 1.394 . S
C416 H432 0.931 . S
C417 C416 1.391 . S
C417 C421 1.376 . S
C418 C416 1.394 . S
C418 C419 1.369 . S
C418 C422 1.531 . S
C419 C418 1.369 . S
C419 C420 1.410 . S
C419 C427 1.503 . S
C420 C419 1.410 . S
C420 C421 1.392 . S
C420 C423 1.511 . S
C421 C417 1.376 . S
C421 C420 1.392 . S
C421 H433 0.929 . S
C422 C418 1.531 . S
C422 H434 0.960 . S
C422 H435 0.962 . S
C422 H436 0.960 . S
C423 C420 1.511 . S
C423 H437 0.961 . S
C423 H438 0.961 . S
C423 H439 0.961 . S
C424 C425 1.370 . S
C424 C426 1.363 . S
C424 H440 0.931 . S
C425 C424 1.370 . S
C425 C429 1.408 . S
C426 C424 1.363 . S
C426 C427 1.370 . S
C426 C430 1.524 . S
C427 C419 1.503 . S
C427 C426 1.370 . S
C427 C428 1.403 . S
C428 C427 1.403 . S
C428 C429 1.404 . S
C428 C431 1.539 . S
C429 C425 1.408 . S
C429 C428 1.404 . S
C429 H441 0.930 . S
C430 C426 1.524 . S
C430 H442 0.956 . S
C430 H443 0.961 . S
C430 H444 0.961 . S
C431 C428 1.539 . S
C431 H445 0.958 . S
C431 H446 0.961 . S
C431 H447 0.960 . S
H432 C416 0.931 . S
H433 C421 0.929 . S
H434 C422 0.960 . S
H435 C422 0.962 . S
H436 C422 0.960 . S
H437 C423 0.961 . S
H438 C423 0.961 . S
H439 C423 0.961 . S
H440 C424 0.931 . S
H441 C429 0.930 . S
H442 C430 0.956 . S
H443 C430 0.961 . S
H444 C430 0.961 . S
H445 C431 0.958 . S
H446 C431 0.961 . S
H447 C431 0.960 . S
C448 C449 1.391 . S
C448 C450 1.394 . S
C448 H464 0.931 . S
C449 C448 1.391 . S
C449 C453 1.376 . S
C450 C448 1.394 . S
C450 C451 1.369 . S
C450 C454 1.531 . S
C451 C450 1.369 . S
C451 C452 1.410 . S
C451 C459 1.503 . S
C452 C451 1.410 . S
C452 C453 1.392 . S
C452 C455 1.511 . S
C453 C449 1.376 . S
C453 C452 1.392 . S
C453 H465 0.929 1_556 S
C454 C450 1.531 . S
C454 H466 0.960 . S
C454 H467 0.962 . S
C454 H468 0.960 . S
C455 C452 1.511 . S
C455 H469 0.974 . S
C455 H470 0.961 . S
C455 H471 0.961 . S
C456 C457 1.370 . S
C456 C458 1.363 . S
C456 H472 0.931 . S
C457 C456 1.370 . S
C457 C461 1.408 . S
C458 C456 1.363 . S
C458 C459 1.370 . S
C458 C462 1.524 . S
C459 C451 1.503 . S
C459 C458 1.370 . S
C459 C460 1.403 . S
C460 C459 1.403 . S
C460 C461 1.404 . S
C460 C463 1.539 . S
C461 C457 1.408 . S
C461 C460 1.404 . S
C461 H473 0.930 . S
C462 C458 1.524 . S
C462 H474 0.956 . S
C462 H475 0.961 1_556 S
C462 H476 0.950 1_556 S
C463 C460 1.539 . S
C463 H477 0.958 . S
C463 H478 0.961 . S
C463 H479 0.960 . S
H464 C448 0.931 . S
H465 C453 0.929 1_554 S
H466 C454 0.960 . S
H467 C454 0.962 . S
H468 C454 0.960 . S
H469 C455 0.974 . S
H470 C455 0.961 . S
H471 C455 0.961 . S
H472 C456 0.931 . S
H473 C461 0.930 . S
H474 C462 0.956 . S
H475 C462 0.961 1_554 S
H476 C462 0.950 1_554 S
H477 C463 0.958 . S
H478 C463 0.961 . S
H479 C463 0.960 . S
C480 C481 1.391 . S
C480 C482 1.394 . S
C480 H496 0.931 . S
C481 C480 1.391 . S
C481 C485 1.376 . S
C482 C480 1.394 . S
C482 C483 1.369 . S
C482 C486 1.531 . S
C483 C482 1.369 . S
C483 C484 1.410 . S
C483 C491 1.503 . S
C484 C483 1.410 . S
C484 C485 1.392 . S
C484 C487 1.511 . S
C485 C481 1.376 . S
C485 C484 1.392 . S
C485 H497 0.929 . S
C486 C482 1.531 . S
C486 H498 0.960 . S
C486 H499 0.962 . S
C486 H500 0.960 . S
C487 C484 1.511 . S
C487 H501 0.961 . S
C487 H502 0.961 . S
C487 H503 0.961 . S
C488 C489 1.370 . S
C488 C490 1.363 . S
C488 H504 0.931 . S
C489 C488 1.370 . S
C489 C493 1.408 . S
C490 C488 1.363 . S
C490 C491 1.370 . S
C490 C494 1.524 . S
C491 C483 1.503 . S
C491 C490 1.370 . S
C491 C492 1.403 . S
C492 C491 1.403 . S
C492 C493 1.404 . S
C492 C495 1.539 . S
C493 C489 1.408 . S
C493 C492 1.404 . S
C493 H505 0.930 . S
C494 C490 1.524 . S
C494 H506 0.956 . S
C494 H507 0.961 . S
C494 H508 0.961 . S
C495 C492 1.539 . S
C495 H509 0.958 . S
C495 H510 0.961 . S
C495 H511 0.960 . S
H496 C480 0.931 . S
H497 C485 0.929 . S
H498 C486 0.960 . S
H499 C486 0.962 . S
H500 C486 0.960 . S
H501 C487 0.961 . S
H502 C487 0.961 . S
H503 C487 0.961 . S
H504 C488 0.931 . S
H505 C493 0.930 . S
H506 C494 0.956 . S
H507 C494 0.961 . S
H508 C494 0.961 . S
H509 C495 0.958 . S
H510 C495 0.961 . S
H511 C495 0.960 . S
C512 C513 1.391 1_554 S
C512 C514 1.394 1_554 S
C512 H528 0.931 . S
C513 C512 1.391 1_556 S
C513 C517 1.376 . S
C514 C512 1.394 1_556 S
C514 C515 1.369 . S
C514 C518 1.531 1_556 S
C515 C514 1.369 . S
C515 C516 1.410 . S
C515 C523 1.503 . S
C516 C515 1.410 . S
C516 C517 1.392 . S
C516 C519 1.511 . S
C517 C513 1.376 . S
C517 C516 1.392 . S
C517 H529 0.929 . S
C518 C514 1.531 1_554 S
C518 H530 0.960 . S
C518 H531 0.962 . S
C518 H532 0.960 . S
C519 C516 1.511 . S
C519 H533 0.961 . S
C519 H534 0.961 . S
C519 H535 0.961 . S
C520 C521 1.370 . S
C520 C522 1.363 . S
C520 H536 0.931 . S
C521 C520 1.370 . S
C521 C525 1.408 . S
C522 C520 1.363 . S
C522 C523 1.370 . S
C522 C526 1.524 . S
C523 C515 1.503 . S
C523 C522 1.370 . S
C523 C524 1.403 . S
C524 C523 1.403 . S
C524 C525 1.404 . S
C524 C527 1.539 . S
C525 C521 1.408 . S
C525 C524 1.404 . S
C525 H537 0.930 . S
C526 C522 1.524 . S
C526 H538 0.956 . S
C526 H539 0.961 . S
C526 H540 0.961 . S
C527 C524 1.539 . S
C527 H541 0.958 . S
C527 H542 0.961 . S
C527 H543 0.960 . S
H528 C512 0.931 . S
H529 C517 0.929 . S
H530 C518 0.960 . S
H531 C518 0.962 . S
H532 C518 0.960 . S
H533 C519 0.961 . S
H534 C519 0.961 . S
H535 C519 0.961 . S
H536 C520 0.931 . S
H537 C525 0.930 . S
H538 C526 0.956 . S
H539 C526 0.961 . S
H540 C526 0.961 . S
H541 C527 0.958 . S
H542 C527 0.961 . S
H543 C527 0.960 . S
C544 C545 1.391 . S
C544 C546 1.394 . S
C544 H560 0.931 . S
C545 C544 1.391 . S
C545 C549 1.376 . S
C546 C544 1.394 . S
C546 C547 1.369 . S
C546 C550 1.531 . S
C547 C546 1.369 . S
C547 C548 1.410 . S
C547 C555 1.503 . S
C548 C547 1.410 . S
C548 C549 1.392 . S
C548 C551 1.511 . S
C549 C545 1.376 . S
C549 C548 1.392 . S
C549 H561 0.929 . S
C550 C546 1.531 . S
C550 H562 0.960 . S
C550 H563 0.962 . S
C550 H564 0.960 . S
C551 C548 1.511 . S
C551 H565 0.961 . S
C551 H566 0.961 . S
C551 H567 0.961 . S
C552 C553 1.370 . S
C552 C554 1.363 . S
C552 H568 0.931 . S
C553 C552 1.370 . S
C553 C557 1.408 . S
C554 C552 1.363 . S
C554 C555 1.370 . S
C554 C558 1.524 . S
C555 C547 1.503 . S
C555 C554 1.370 . S
C555 C556 1.403 . S
C556 C555 1.403 . S
C556 C557 1.404 . S
C556 C559 1.539 . S
C557 C553 1.408 . S
C557 C556 1.404 . S
C557 H569 0.930 . S
C558 C554 1.524 . S
C558 H570 0.956 . S
C558 H571 0.961 . S
C558 H572 0.961 . S
C559 C556 1.539 . S
C559 H573 0.958 . S
C559 H574 0.961 . S
C559 H575 0.960 . S
H560 C544 0.931 . S
H561 C549 0.929 . S
H562 C550 0.960 . S
H563 C550 0.962 . S
H564 C550 0.960 . S
H565 C551 0.961 . S
H566 C551 0.961 . S
H567 C551 0.961 . S
H568 C552 0.931 . S
H569 C557 0.930 . S
H570 C558 0.956 . S
H571 C558 0.961 . S
H572 C558 0.961 . S
H573 C559 0.958 . S
H574 C559 0.961 . S
H575 C559 0.960 . S
C576 C577 1.391 . S
C576 C578 1.394 . S
C576 H592 0.931 . S
C577 C576 1.391 . S
C577 C581 1.376 . S
C578 C576 1.394 . S
C578 C579 1.369 . S
C578 C582 1.531 . S
C579 C578 1.369 . S
C579 C580 1.410 . S
C579 C587 1.503 . S
C580 C579 1.410 . S
C580 C581 1.392 . S
C580 C583 1.511 1_565 S
C581 C577 1.376 . S
C581 C580 1.392 . S
C581 H593 0.929 . S
C582 C578 1.531 . S
C582 H594 0.960 . S
C582 H595 0.962 . S
C582 H596 0.960 . S
C583 C580 1.511 1_545 S
C583 H597 0.961 . S
C583 H598 0.961 . S
C583 H599 0.961 . S
C584 C585 1.370 . S
C584 C586 1.363 . S
C584 H600 0.931 . S
C585 C584 1.370 . S
C585 C589 1.408 . S
C586 C584 1.363 . S
C586 C587 1.370 1_545 S
C586 C590 1.524 . S
C587 C579 1.503 . S
C587 C586 1.370 1_565 S
C587 C588 1.403 . S
C588 C587 1.403 . S
C588 C589 1.404 1_565 S
C588 C591 1.539 . S
C589 C585 1.408 . S
C589 C588 1.404 1_545 S
C589 H601 0.930 . S
C590 C586 1.524 . S
C590 H602 0.956 1_546 S
C590 H603 0.961 . S
C590 H604 0.961 1_556 S
C591 C588 1.539 . S
C591 H605 0.958 . S
C591 H606 0.961 . S
C591 H607 0.960 . S
H592 C576 0.931 . S
H593 C581 0.929 . S
H594 C582 0.960 . S
H595 C582 0.962 . S
H596 C582 0.960 . S
H597 C583 0.961 . S
H598 C583 0.961 . S
H599 C583 0.961 . S
H600 C584 0.931 . S
H601 C589 0.930 . S
H602 C590 0.956 1_564 S
H603 C590 0.961 . S
H604 C590 0.961 1_554 S
H605 C591 0.958 . S
H606 C591 0.961 . S
H607 C591 0.960 . S
C608 C609 1.391 . S
C608 C610 1.394 . S
C608 H624 0.931 . S
C609 C608 1.391 . S
C609 C613 1.376 . S
C610 C608 1.394 . S
C610 C611 1.369 . S
C610 C614 1.531 . S
C611 C610 1.369 . S
C611 C612 1.410 . S
C611 C619 1.503 . S
C612 C611 1.410 . S
C612 C613 1.392 . S
C612 C615 1.511 . S
C613 C609 1.376 . S
C613 C612 1.392 . S
C613 H625 0.929 . S
C614 C610 1.531 . S
C614 H626 0.960 . S
C614 H627 0.962 . S
C614 H628 0.960 . S
C615 C612 1.511 . S
C615 H629 0.961 . S
C615 H630 0.961 1_545 S
C615 H631 0.961 1_545 S
C616 C617 1.370 . S
C616 C618 1.363 1_565 S
C616 H632 0.938 . S
C617 C616 1.370 . S
C617 C621 1.408 . S
C618 C616 1.363 1_545 S
C618 C619 1.370 . S
C618 C622 1.524 . S
C619 C611 1.503 . S
C619 C618 1.370 . S
C619 C620 1.403 1_545 S
C620 C619 1.403 1_565 S
C620 C621 1.404 . S
C620 C623 1.539 . S
C621 C617 1.408 . S
C621 C620 1.404 . S
C621 H633 0.930 . S
C622 C618 1.524 . S
C622 H634 0.956 . S
C622 H635 0.961 . S
C622 H636 0.961 . S
C623 C620 1.539 . S
C623 H637 0.958 . S
C623 H638 0.961 . S
C623 H639 0.960 . S
H624 C608 0.931 . S
H625 C613 0.929 . S
H626 C614 0.960 . S
H627 C614 0.962 . S
H628 C614 0.960 . S
H629 C615 0.961 . S
H630 C615 0.961 1_565 S
H631 C615 0.961 1_565 S
H632 C616 0.938 . S
H633 C621 0.930 . S
H634 C622 0.956 . S
H635 C622 0.961 . S
H636 C622 0.961 . S
H637 C623 0.958 . S
H638 C623 0.961 . S
H639 C623 0.960 . S
C640 C641 1.391 . S
C640 C642 1.394 . S
C640 H656 0.931 . S
C641 C640 1.391 . S
C641 C645 1.376 . S
C642 C640 1.394 . S
C642 C643 1.369 . S
C642 C646 1.531 . S
C643 C642 1.369 . S
C643 C644 1.410 . S
C643 C651 1.503 . S
C644 C643 1.410 . S
C644 C645 1.392 . S
C644 C647 1.511 1_565 S
C645 C641 1.376 . S
C645 C644 1.392 . S
C645 H657 0.929 1_556 S
C646 C642 1.531 . S
C646 H658 0.960 . S
C646 H659 0.962 . S
C646 H660 0.960 . S
C647 C644 1.511 1_545 S
C647 H661 0.961 1_556 S
C647 H662 0.961 . S
C647 H663 0.961 1_556 S
C648 C649 1.370 . S
C648 C650 1.363 . S
C648 H664 0.931 . S
C649 C648 1.370 . S
C649 C653 1.408 . S
C650 C648 1.363 . S
C650 C651 1.370 1_545 S
C650 C654 1.524 . S
C651 C643 1.503 . S
C651 C650 1.370 1_565 S
C651 C652 1.403 1_565 S
C652 C651 1.403 1_545 S
C652 C653 1.404 . S
C652 C655 1.539 1_545 S
C653 C649 1.408 . S
C653 C652 1.404 . S
C653 H665 0.930 . S
C654 C650 1.524 . S
C654 H666 0.956 1_545 S
C654 H667 0.961 . S
C654 H668 0.961 . S
C655 C652 1.539 1_565 S
C655 H669 0.958 . S
C655 H670 0.961 1_566 S
C655 H671 0.960 1_556 S
H656 C640 0.931 . S
H657 C645 0.929 1_554 S
H658 C646 0.960 . S
H659 C646 0.962 . S
H660 C646 0.960 . S
H661 C647 0.961 1_554 S
H662 C647 0.961 . S
H663 C647 0.961 1_554 S
H664 C648 0.931 . S
H665 C653 0.930 . S
H666 C654 0.956 1_565 S
H667 C654 0.961 . S
H668 C654 0.961 . S
H669 C655 0.958 . S
H670 C655 0.961 1_544 S
H671 C655 0.960 1_554 S
C672 C673 1.391 . S
C672 C674 1.394 . S
C672 H688 0.931 . S
C673 C672 1.391 . S
C673 C677 1.376 . S
C674 C672 1.394 . S
C674 C675 1.369 . S
C674 C678 1.531 1_545 S
C675 C674 1.369 . S
C675 C676 1.410 . S
C675 C683 1.503 . S
C676 C675 1.410 . S
C676 C677 1.392 . S
C676 C679 1.511 . S
C677 C673 1.376 . S
C677 C676 1.392 . S
C677 H689 0.929 . S
C678 C674 1.531 1_565 S
C678 H690 0.960 . S
C678 H691 0.962 . S
C678 H692 0.960 . S
C679 C676 1.511 . S
C679 H693 0.961 . S
C679 H694 0.961 . S
C679 H695 0.961 . S
C680 C681 1.370 . S
C680 C682 1.363 . S
C680 H696 0.931 . S
C681 C680 1.370 . S
C681 C685 1.408 . S
C682 C680 1.363 . S
C682 C683 1.370 1_565 S
C682 C686 1.531 . S
C683 C675 1.503 . S
C683 C682 1.370 1_545 S
C683 C684 1.403 1_545 S
C684 C683 1.403 1_565 S
C684 C685 1.404 . S
C684 C687 1.539 1_565 S
C685 C681 1.408 . S
C685 C684 1.404 . S
C685 H697 0.930 . S
C686 C682 1.531 . S
C686 H698 0.964 . S
C686 H699 0.937 1_565 S
C686 H700 0.971 . S
C687 C684 1.539 1_545 S
C687 H701 0.958 1_545 S
C687 H702 0.961 . S
C687 H703 0.960 . S
H688 C672 0.931 . S
H689 C677 0.929 . S
H690 C678 0.960 . S
H691 C678 0.962 . S
H692 C678 0.960 . S
H693 C679 0.961 . S
H694 C679 0.961 . S
H695 C679 0.961 . S
H696 C680 0.931 . S
H697 C685 0.930 . S
H698 C686 0.964 . S
H699 C686 0.937 1_545 S
H700 C686 0.971 . S
H701 C687 0.958 1_565 S
H702 C687 0.961 . S
H703 C687 0.960 . S
C704 C705 1.391 . S
C704 C706 1.394 . S
C704 H720 0.931 . S
C705 C704 1.391 . S
C705 C709 1.376 . S
C706 C704 1.394 . S
C706 C707 1.369 . S
C706 C710 1.531 . S
C707 C706 1.369 . S
C707 C708 1.410 . S
C707 C715 1.503 . S
C708 C707 1.410 . S
C708 C709 1.392 . S
C708 C711 1.511 . S
C709 C705 1.376 . S
C709 C708 1.392 . S
C709 H721 0.929 . S
C710 C706 1.531 . S
C710 H722 0.960 . S
C710 H723 0.962 . S
C710 H724 0.960 . S
C711 C708 1.511 . S
C711 H725 0.961 . S
C711 H726 0.961 . S
C711 H727 0.961 . S
C712 C713 1.370 . S
C712 C714 1.363 . S
C712 H728 0.931 . S
C713 C712 1.370 . S
C713 C717 1.408 . S
C714 C712 1.363 . S
C714 C715 1.370 . S
C714 C718 1.524 . S
C715 C707 1.503 . S
C715 C714 1.370 . S
C715 C716 1.403 . S
C716 C715 1.403 . S
C716 C717 1.404 . S
C716 C719 1.539 . S
C717 C713 1.408 . S
C717 C716 1.404 . S
C717 H729 0.930 . S
C718 C714 1.524 . S
C718 H730 0.956 . S
C718 H731 0.961 . S
C718 H732 0.961 . S
C719 C716 1.539 . S
C719 H733 0.958 . S
C719 H734 0.961 . S
C719 H735 0.960 . S
H720 C704 0.931 . S
H721 C709 0.929 . S
H722 C710 0.960 . S
H723 C710 0.962 . S
H724 C710 0.960 . S
H725 C711 0.961 . S
H726 C711 0.961 . S
H727 C711 0.961 . S
H728 C712 0.931 . S
H729 C717 0.930 . S
H730 C718 0.956 . S
H731 C718 0.961 . S
H732 C718 0.961 . S
H733 C719 0.958 . S
H734 C719 0.961 . S
H735 C719 0.960 . S
C736 C737 1.391 . S
C736 C738 1.394 . S
C736 H752 0.931 . S
C737 C736 1.391 . S
C737 C741 1.376 . S
C738 C736 1.394 . S
C738 C739 1.369 . S
C738 C742 1.531 . S
C739 C738 1.369 . S
C739 C740 1.410 . S
C739 C747 1.503 . S
C740 C739 1.410 . S
C740 C741 1.392 . S
C740 C743 1.511 . S
C741 C737 1.376 . S
C741 C740 1.392 . S
C741 H753 0.929 . S
C742 C738 1.531 . S
C742 H754 0.960 . S
C742 H755 0.962 . S
C742 H756 0.960 . S
C743 C740 1.511 . S
C743 H757 0.961 . S
C743 H758 0.961 . S
C743 H759 0.961 . S
C744 C745 1.370 . S
C744 C746 1.363 . S
C744 H760 0.931 . S
C745 C744 1.370 . S
C745 C749 1.408 . S
C746 C744 1.363 . S
C746 C747 1.370 . S
C746 C750 1.524 . S
C747 C739 1.503 . S
C747 C746 1.370 . S
C747 C748 1.403 . S
C748 C747 1.403 . S
C748 C749 1.404 . S
C748 C751 1.539 . S
C749 C745 1.408 . S
C749 C748 1.404 . S
C749 H761 0.930 . S
C750 C746 1.524 . S
C750 H762 0.956 . S
C750 H763 0.961 . S
C750 H764 0.961 . S
C751 C748 1.539 . S
C751 H765 0.958 . S
C751 H766 0.961 . S
C751 H767 0.960 . S
H752 C736 0.931 . S
H753 C741 0.929 . S
H754 C742 0.960 . S
H755 C742 0.962 . S
H756 C742 0.960 . S
H757 C743 0.961 . S
H758 C743 0.961 . S
H759 C743 0.961 . S
H760 C744 0.931 . S
H761 C749 0.930 . S
H762 C750 0.956 . S
H763 C750 0.961 . S
H764 C750 0.961 . S
H765 C751 0.958 . S
H766 C751 0.961 . S
H767 C751 0.960 . S
C768 C769 1.391 . S
C768 C770 1.394 . S
C768 H784 0.931 . S
C769 C768 1.391 . S
C769 C773 1.376 . S
C770 C768 1.394 . S
C770 C771 1.369 . S
C770 C774 1.531 . S
C771 C770 1.369 . S
C771 C772 1.410 . S
C771 C779 1.503 . S
C772 C771 1.410 . S
C772 C773 1.392 . S
C772 C775 1.511 . S
C773 C769 1.376 . S
C773 C772 1.392 . S
C773 H785 0.929 . S
C774 C770 1.531 . S
C774 H786 0.960 . S
C774 H787 0.962 . S
C774 H788 0.960 . S
C775 C772 1.511 . S
C775 H789 0.961 . S
C775 H790 0.961 . S
C775 H791 0.961 . S
C776 C777 1.370 . S
C776 C778 1.363 . S
C776 H792 0.931 . S
C777 C776 1.370 . S
C777 C781 1.408 . S
C778 C776 1.363 . S
C778 C779 1.370 . S
C778 C782 1.524 . S
C779 C771 1.503 . S
C779 C778 1.370 . S
C779 C780 1.403 . S
C780 C779 1.403 . S
C780 C781 1.404 . S
C780 C783 1.539 . S
C781 C777 1.408 . S
C781 C780 1.404 . S
C781 H793 0.930 . S
C782 C778 1.524 . S
C782 H794 0.956 . S
C782 H795 0.961 . S
C782 H796 0.961 . S
C783 C780 1.539 . S
C783 H797 0.958 . S
C783 H798 0.961 . S
C783 H799 0.960 . S
H784 C768 0.931 . S
H785 C773 0.929 . S
H786 C774 0.960 . S
H787 C774 0.962 . S
H788 C774 0.960 . S
H789 C775 0.961 . S
H790 C775 0.961 . S
H791 C775 0.961 . S
H792 C776 0.931 . S
H793 C781 0.930 . S
H794 C782 0.956 . S
H795 C782 0.961 . S
H796 C782 0.961 . S
H797 C783 0.958 . S
H798 C783 0.961 . S
H799 C783 0.960 . S
C800 C801 1.391 . S
C800 C802 1.394 . S
C800 H816 0.931 . S
C801 C800 1.391 . S
C801 C805 1.376 . S
C802 C800 1.394 . S
C802 C803 1.369 . S
C802 C806 1.531 . S
C803 C802 1.369 . S
C803 C804 1.410 . S
C803 C811 1.503 . S
C804 C803 1.410 . S
C804 C805 1.392 . S
C804 C807 1.511 . S
C805 C801 1.376 . S
C805 C804 1.392 . S
C805 H817 0.929 . S
C806 C802 1.531 . S
C806 H818 0.960 . S
C806 H819 0.962 . S
C806 H820 0.960 . S
C807 C804 1.511 . S
C807 H821 0.961 . S
C807 H822 0.961 . S
C807 H823 0.961 . S
C808 C809 1.370 . S
C808 C810 1.363 . S
C808 H824 0.931 . S
C809 C808 1.370 . S
C809 C813 1.408 . S
C810 C808 1.363 . S
C810 C811 1.370 . S
C810 C814 1.524 . S
C811 C803 1.503 . S
C811 C810 1.370 . S
C811 C812 1.403 . S
C812 C811 1.403 . S
C812 C813 1.404 . S
C812 C815 1.539 . S
C813 C809 1.408 . S
C813 C812 1.404 . S
C813 H825 0.930 . S
C814 C810 1.524 . S
C814 H826 0.956 . S
C814 H827 0.961 . S
C814 H828 0.961 . S
C815 C812 1.539 . S
C815 H829 0.958 . S
C815 H830 0.961 . S
C815 H831 0.960 . S
H816 C800 0.931 . S
H817 C805 0.929 . S
H818 C806 0.960 . S
H819 C806 0.962 . S
H820 C806 0.960 . S
H821 C807 0.961 . S
H822 C807 0.961 . S
H823 C807 0.961 . S
H824 C808 0.931 . S
H825 C813 0.930 . S
H826 C814 0.956 . S
H827 C814 0.961 . S
H828 C814 0.961 . S
H829 C815 0.958 . S
H830 C815 0.961 . S
H831 C815 0.960 . S
C832 C833 1.391 . S
C832 C834 1.394 . S
C832 H848 0.931 . S
C833 C832 1.391 . S
C833 C837 1.376 . S
C834 C832 1.394 . S
C834 C835 1.369 . S
C834 C838 1.531 . S
C835 C834 1.369 . S
C835 C836 1.410 . S
C835 C843 1.503 . S
C836 C835 1.410 . S
C836 C837 1.392 . S
C836 C839 1.511 . S
C837 C833 1.376 . S
C837 C836 1.392 . S
C837 H849 0.929 . S
C838 C834 1.531 . S
C838 H850 0.960 . S
C838 H851 0.962 . S
C838 H852 0.960 . S
C839 C836 1.511 . S
C839 H853 0.961 . S
C839 H854 0.961 . S
C839 H855 0.961 . S
C840 C841 1.370 . S
C840 C842 1.363 . S
C840 H856 0.931 . S
C841 C840 1.370 . S
C841 C845 1.408 . S
C842 C840 1.363 . S
C842 C843 1.370 . S
C842 C846 1.524 . S
C843 C835 1.503 . S
C843 C842 1.370 . S
C843 C844 1.403 . S
C844 C843 1.403 . S
C844 C845 1.404 . S
C844 C847 1.539 . S
C845 C841 1.408 . S
C845 C844 1.404 . S
C845 H857 0.930 . S
C846 C842 1.524 . S
C846 H858 0.956 . S
C846 H859 0.961 . S
C846 H860 0.961 . S
C847 C844 1.539 . S
C847 H861 0.958 . S
C847 H862 0.961 . S
C847 H863 0.960 . S
H848 C832 0.931 . S
H849 C837 0.929 . S
H850 C838 0.960 . S
H851 C838 0.962 . S
H852 C838 0.960 . S
H853 C839 0.961 . S
H854 C839 0.961 . S
H855 C839 0.961 . S
H856 C840 0.931 . S
H857 C845 0.930 . S
H858 C846 0.956 . S
H859 C846 0.961 . S
H860 C846 0.961 . S
H861 C847 0.958 . S
H862 C847 0.961 . S
H863 C847 0.960 . S
C864 C865 1.391 . S
C864 C866 1.394 . S
C864 H880 0.931 . S
C865 C864 1.391 . S
C865 C869 1.376 . S
C866 C864 1.394 . S
C866 C867 1.369 . S
C866 C870 1.531 . S
C867 C866 1.369 . S
C867 C868 1.410 . S
C867 C875 1.503 . S
C868 C867 1.410 . S
C868 C869 1.392 . S
C868 C871 1.511 . S
C869 C865 1.376 . S
C869 C868 1.392 . S
C869 H881 0.929 . S
C870 C866 1.531 . S
C870 H882 0.960 . S
C870 H883 0.962 . S
C870 H884 0.960 . S
C871 C868 1.511 . S
C871 H885 0.961 . S
C871 H886 0.961 . S
C871 H887 0.961 . S
C872 C873 1.370 . S
C872 C874 1.363 . S
C872 H888 0.931 . S
C873 C872 1.370 . S
C873 C877 1.408 . S
C874 C872 1.363 . S
C874 C875 1.370 . S
C874 C878 1.524 . S
C875 C867 1.503 . S
C875 C874 1.370 . S
C875 C876 1.403 . S
C876 C875 1.403 . S
C876 C877 1.404 . S
C876 C879 1.539 . S
C877 C873 1.408 . S
C877 C876 1.404 . S
C877 H889 0.930 . S
C878 C874 1.524 . S
C878 H890 0.956 . S
C878 H891 0.961 . S
C878 H892 0.961 . S
C879 C876 1.539 . S
C879 H893 0.958 . S
C879 H894 0.961 . S
C879 H895 0.960 . S
H880 C864 0.931 . S
H881 C869 0.929 . S
H882 C870 0.960 . S
H883 C870 0.962 . S
H884 C870 0.960 . S
H885 C871 0.961 . S
H886 C871 0.961 . S
H887 C871 0.961 . S
H888 C872 0.931 . S
H889 C877 0.930 . S
H890 C878 0.956 . S
H891 C878 0.961 . S
H892 C878 0.961 . S
H893 C879 0.958 . S
H894 C879 0.961 . S
H895 C879 0.960 . S
C896 C897 1.391 . S
C896 C898 1.394 . S
C896 H912 0.931 . S
C897 C896 1.391 . S
C897 C901 1.376 . S
C898 C896 1.394 . S
C898 C899 1.369 . S
C898 C902 1.531 . S
C899 C898 1.369 . S
C899 C900 1.410 . S
C899 C907 1.503 . S
C900 C899 1.410 . S
C900 C901 1.392 . S
C900 C903 1.511 . S
C901 C897 1.376 . S
C901 C900 1.392 . S
C901 H913 0.929 . S
C902 C898 1.531 . S
C902 H914 0.960 . S
C902 H915 0.962 . S
C902 H916 0.960 . S
C903 C900 1.511 . S
C903 H917 0.961 . S
C903 H918 0.961 . S
C903 H919 0.961 . S
C904 C905 1.370 . S
C904 C906 1.363 . S
C904 H920 0.931 . S
C905 C904 1.370 . S
C905 C909 1.408 . S
C906 C904 1.363 . S
C906 C907 1.370 . S
C906 C910 1.524 . S
C907 C899 1.503 . S
C907 C906 1.370 . S
C907 C908 1.403 . S
C908 C907 1.403 . S
C908 C909 1.404 . S
C908 C911 1.539 . S
C909 C905 1.408 . S
C909 C908 1.404 . S
C909 H921 0.930 . S
C910 C906 1.524 . S
C910 H922 0.956 . S
C910 H923 0.961 . S
C910 H924 0.961 . S
C911 C908 1.539 . S
C911 H925 0.958 . S
C911 H926 0.961 . S
C911 H927 0.960 . S
H912 C896 0.931 . S
H913 C901 0.929 . S
H914 C902 0.960 . S
H915 C902 0.962 . S
H916 C902 0.960 . S
H917 C903 0.961 . S
H918 C903 0.961 . S
H919 C903 0.961 . S
H920 C904 0.931 . S
H921 C909 0.930 . S
H922 C910 0.956 . S
H923 C910 0.961 . S
H924 C910 0.961 . S
H925 C911 0.958 . S
H926 C911 0.961 . S
H927 C911 0.960 . S
C928 C929 1.391 . S
C928 C930 1.394 . S
C928 H944 0.931 . S
C929 C928 1.391 . S
C929 C933 1.376 . S
C930 C928 1.394 . S
C930 C931 1.369 . S
C930 C934 1.531 . S
C931 C930 1.369 . S
C931 C932 1.410 . S
C931 C939 1.503 . S
C932 C931 1.410 . S
C932 C933 1.392 . S
C932 C935 1.511 . S
C933 C929 1.376 . S
C933 C932 1.392 . S
C933 H945 0.929 . S
C934 C930 1.531 . S
C934 H946 0.960 . S
C934 H947 0.962 . S
C934 H948 0.960 . S
C935 C932 1.511 . S
C935 H949 0.961 . S
C935 H950 0.961 . S
C935 H951 0.961 . S
C936 C937 1.370 . S
C936 C938 1.363 . S
C936 H952 0.931 . S
C937 C936 1.370 . S
C937 C941 1.408 . S
C938 C936 1.363 . S
C938 C939 1.370 . S
C938 C942 1.524 . S
C939 C931 1.503 . S
C939 C938 1.370 . S
C939 C940 1.403 . S
C940 C939 1.403 . S
C940 C941 1.404 . S
C940 C943 1.539 . S
C941 C937 1.408 . S
C941 C940 1.404 . S
C941 H953 0.930 . S
C942 C938 1.524 . S
C942 H954 0.956 . S
C942 H955 0.961 . S
C942 H956 0.961 . S
C943 C940 1.539 . S
C943 H957 0.958 . S
C943 H958 0.961 . S
C943 H959 0.960 . S
H944 C928 0.931 . S
H945 C933 0.929 . S
H946 C934 0.960 . S
H947 C934 0.962 . S
H948 C934 0.960 . S
H949 C935 0.961 . S
H950 C935 0.961 . S
H951 C935 0.961 . S
H952 C936 0.931 . S
H953 C941 0.930 . S
H954 C942 0.956 . S
H955 C942 0.961 . S
H956 C942 0.961 . S
H957 C943 0.958 . S
H958 C943 0.961 . S
H959 C943 0.960 . S
C193 N2 1.541 . S
C201 C147 1.529 . S
C233 C111 1.526 . S
C225 N15 1.547 . S
C265 C134 1.529 . S
C257 N28 1.531 . S
C297 C122 1.528 . S
C289 N41 1.532 . S
C329 C191 1.538 . S
C321 N54 1.535 . S
C361 C155 1.526 . S
C353 N67 1.545 . S
C385 N80 1.518 . S
C393 C178 1.532 . S
C425 C166 1.533 . S
C417 N93 1.509 . S
C449 N5 1.497 . S
C457 C188 1.510 . S
C489 C158 1.509 . S
C481 N18 1.510 . S
C513 N31 1.530 . S
C521 C177 1.530 . S
C545 N44 1.510 . S
C553 C163 1.521 . S
C585 C144 1.509 . S
C577 N57 1.492 . S
C609 N70 1.503 . S
C617 C114 1.511 . S
C649 C133 1.520 . S
C641 N83 1.526 . S
C681 C119 1.528 . S
C673 N96 1.513 . S
C713 C169 1.522 . S
C705 N1 1.534 . S
C745 C185 1.532 . S
C737 N14 1.536 . S
C769 N27 1.470 . S
C777 C156 1.504 . S
C809 C180 1.505 . S
C801 N40 1.477 . S
C841 C125 1.530 . S
C833 N53 1.522 . S
C865 N66 1.523 . S
C873 C141 1.528 . S
C897 N79 1.488 . S
C905 C112 1.506 . S
C929 N92 1.493 . S
C937 C136 1.502 . S
