# Generated by pormake.
# Topology tbo, (3,4)-cn, num edge types: 1
# Building blocks:
#     Node 0, Type 0, BuildingBlock: PAMTOO_clean_linker_0, # of connection points: 3
#     Node 1, Type 0, BuildingBlock: PAMTOO_clean_linker_0, # of connection points: 3
#     Node 2, Type 0, BuildingBlock: PAMTOO_clean_linker_0, # of connection points: 3
#     Node 3, Type 0, BuildingBlock: PAMTOO_clean_linker_0, # of connection points: 3
#     Node 4, Type 0, BuildingBlock: PAMTOO_clean_linker_0, # of connection points: 3
#     Node 5, Type 0, BuildingBlock: PAMTOO_clean_linker_0, # of connection points: 3
#     Node 6, Type 0, BuildingBlock: PAMTOO_clean_linker_0, # of connection points: 3
#     Node 7, Type 0, BuildingBlock: PAMTOO_clean_linker_0, # of connection points: 3
#     Node 8, Type 0, BuildingBlock: PAMTOO_clean_linker_0, # of connection points: 3
#     Node 9, Type 0, BuildingBlock: PAMTOO_clean_linker_0, # of connection points: 3
#     Node 10, Type 0, BuildingBlock: PAMTOO_clean_linker_0, # of connection points: 3
#     Node 11, Type 0, BuildingBlock: PAMTOO_clean_linker_0, # of connection points: 3
#     Node 12, Type 0, BuildingBlock: PAMTOO_clean_linker_0, # of connection points: 3
#     Node 13, Type 0, BuildingBlock: PAMTOO_clean_linker_0, # of connection points: 3
#     Node 14, Type 0, BuildingBlock: PAMTOO_clean_linker_0, # of connection points: 3
#     Node 15, Type 0, BuildingBlock: PAMTOO_clean_linker_0, # of connection points: 3
#     Node 16, Type 0, BuildingBlock: PAMTOO_clean_linker_0, # of connection points: 3
#     Node 17, Type 0, BuildingBlock: PAMTOO_clean_linker_0, # of connection points: 3
#     Node 18, Type 0, BuildingBlock: PAMTOO_clean_linker_0, # of connection points: 3
#     Node 19, Type 0, BuildingBlock: PAMTOO_clean_linker_0, # of connection points: 3
#     Node 20, Type 0, BuildingBlock: PAMTOO_clean_linker_0, # of connection points: 3
#     Node 21, Type 0, BuildingBlock: PAMTOO_clean_linker_0, # of connection points: 3
#     Node 22, Type 0, BuildingBlock: PAMTOO_clean_linker_0, # of connection points: 3
#     Node 23, Type 0, BuildingBlock: PAMTOO_clean_linker_0, # of connection points: 3
#     Node 24, Type 0, BuildingBlock: PAMTOO_clean_linker_0, # of connection points: 3
#     Node 25, Type 0, BuildingBlock: PAMTOO_clean_linker_0, # of connection points: 3
#     Node 26, Type 0, BuildingBlock: PAMTOO_clean_linker_0, # of connection points: 3
#     Node 27, Type 0, BuildingBlock: PAMTOO_clean_linker_0, # of connection points: 3
#     Node 28, Type 0, BuildingBlock: PAMTOO_clean_linker_0, # of connection points: 3
#     Node 29, Type 0, BuildingBlock: PAMTOO_clean_linker_0, # of connection points: 3
#     Node 30, Type 0, BuildingBlock: PAMTOO_clean_linker_0, # of connection points: 3
#     Node 31, Type 0, BuildingBlock: PAMTOO_clean_linker_0, # of connection points: 3
#     Node 32, Type 1, BuildingBlock: ESEHIV_clean_sbu_0, # of connection points: 4
#     Node 33, Type 1, BuildingBlock: ESEHIV_clean_sbu_0, # of connection points: 4
#     Node 34, Type 1, BuildingBlock: ESEHIV_clean_sbu_0, # of connection points: 4
#     Node 35, Type 1, BuildingBlock: ESEHIV_clean_sbu_0, # of connection points: 4
#     Node 36, Type 1, BuildingBlock: ESEHIV_clean_sbu_0, # of connection points: 4
#     Node 37, Type 1, BuildingBlock: ESEHIV_clean_sbu_0, # of connection points: 4
#     Node 38, Type 1, BuildingBlock: ESEHIV_clean_sbu_0, # of connection points: 4
#     Node 39, Type 1, BuildingBlock: ESEHIV_clean_sbu_0, # of connection points: 4
#     Node 40, Type 1, BuildingBlock: ESEHIV_clean_sbu_0, # of connection points: 4
#     Node 41, Type 1, BuildingBlock: ESEHIV_clean_sbu_0, # of connection points: 4
#     Node 42, Type 1, BuildingBlock: ESEHIV_clean_sbu_0, # of connection points: 4
#     Node 43, Type 1, BuildingBlock: ESEHIV_clean_sbu_0, # of connection points: 4
#     Node 44, Type 1, BuildingBlock: ESEHIV_clean_sbu_0, # of connection points: 4
#     Node 45, Type 1, BuildingBlock: ESEHIV_clean_sbu_0, # of connection points: 4
#     Node 46, Type 1, BuildingBlock: ESEHIV_clean_sbu_0, # of connection points: 4
#     Node 47, Type 1, BuildingBlock: ESEHIV_clean_sbu_0, # of connection points: 4
#     Node 48, Type 1, BuildingBlock: ESEHIV_clean_sbu_0, # of connection points: 4
#     Node 49, Type 1, BuildingBlock: ESEHIV_clean_sbu_0, # of connection points: 4
#     Node 50, Type 1, BuildingBlock: ESEHIV_clean_sbu_0, # of connection points: 4
#     Node 51, Type 1, BuildingBlock: ESEHIV_clean_sbu_0, # of connection points: 4
#     Node 52, Type 1, BuildingBlock: ESEHIV_clean_sbu_0, # of connection points: 4
#     Node 53, Type 1, BuildingBlock: ESEHIV_clean_sbu_0, # of connection points: 4
#     Node 54, Type 1, BuildingBlock: ESEHIV_clean_sbu_0, # of connection points: 4
#     Node 55, Type 1, BuildingBlock: ESEHIV_clean_sbu_0, # of connection points: 4
#     Edge 56, Type (0, 1), None
#     Edge 57, Type (0, 1), None
#     Edge 58, Type (0, 1), None
#     Edge 59, Type (0, 1), None
#     Edge 60, Type (0, 1), None
#     Edge 61, Type (0, 1), None
#     Edge 62, Type (0, 1), None
#     Edge 63, Type (0, 1), None
#     Edge 64, Type (0, 1), None
#     Edge 65, Type (0, 1), None
#     Edge 66, Type (0, 1), None
#     Edge 67, Type (0, 1), None
#     Edge 68, Type (0, 1), None
#     Edge 69, Type (0, 1), None
#     Edge 70, Type (0, 1), None
#     Edge 71, Type (0, 1), None
#     Edge 72, Type (0, 1), None
#     Edge 73, Type (0, 1), None
#     Edge 74, Type (0, 1), None
#     Edge 75, Type (0, 1), None
#     Edge 76, Type (0, 1), None
#     Edge 77, Type (0, 1), None
#     Edge 78, Type (0, 1), None
#     Edge 79, Type (0, 1), None
#     Edge 80, Type (0, 1), None
#     Edge 81, Type (0, 1), None
#     Edge 82, Type (0, 1), None
#     Edge 83, Type (0, 1), None
#     Edge 84, Type (0, 1), None
#     Edge 85, Type (0, 1), None
#     Edge 86, Type (0, 1), None
#     Edge 87, Type (0, 1), None
#     Edge 88, Type (0, 1), None
#     Edge 89, Type (0, 1), None
#     Edge 90, Type (0, 1), None
#     Edge 91, Type (0, 1), None
#     Edge 92, Type (0, 1), None
#     Edge 93, Type (0, 1), None
#     Edge 94, Type (0, 1), None
#     Edge 95, Type (0, 1), None
#     Edge 96, Type (0, 1), None
#     Edge 97, Type (0, 1), None
#     Edge 98, Type (0, 1), None
#     Edge 99, Type (0, 1), None
#     Edge 100, Type (0, 1), None
#     Edge 101, Type (0, 1), None
#     Edge 102, Type (0, 1), None
#     Edge 103, Type (0, 1), None
#     Edge 104, Type (0, 1), None
#     Edge 105, Type (0, 1), None
#     Edge 106, Type (0, 1), None
#     Edge 107, Type (0, 1), None
#     Edge 108, Type (0, 1), None
#     Edge 109, Type (0, 1), None
#     Edge 110, Type (0, 1), None
#     Edge 111, Type (0, 1), None
#     Edge 112, Type (0, 1), None
#     Edge 113, Type (0, 1), None
#     Edge 114, Type (0, 1), None
#     Edge 115, Type (0, 1), None
#     Edge 116, Type (0, 1), None
#     Edge 117, Type (0, 1), None
#     Edge 118, Type (0, 1), None
#     Edge 119, Type (0, 1), None
#     Edge 120, Type (0, 1), None
#     Edge 121, Type (0, 1), None
#     Edge 122, Type (0, 1), None
#     Edge 123, Type (0, 1), None
#     Edge 124, Type (0, 1), None
#     Edge 125, Type (0, 1), None
#     Edge 126, Type (0, 1), None
#     Edge 127, Type (0, 1), None
#     Edge 128, Type (0, 1), None
#     Edge 129, Type (0, 1), None
#     Edge 130, Type (0, 1), None
#     Edge 131, Type (0, 1), None
#     Edge 132, Type (0, 1), None
#     Edge 133, Type (0, 1), None
#     Edge 134, Type (0, 1), None
#     Edge 135, Type (0, 1), None
#     Edge 136, Type (0, 1), None
#     Edge 137, Type (0, 1), None
#     Edge 138, Type (0, 1), None
#     Edge 139, Type (0, 1), None
#     Edge 140, Type (0, 1), None
#     Edge 141, Type (0, 1), None
#     Edge 142, Type (0, 1), None
#     Edge 143, Type (0, 1), None
#     Edge 144, Type (0, 1), None
#     Edge 145, Type (0, 1), None
#     Edge 146, Type (0, 1), None
#     Edge 147, Type (0, 1), None
#     Edge 148, Type (0, 1), None
#     Edge 149, Type (0, 1), None
#     Edge 150, Type (0, 1), None
#     Edge 151, Type (0, 1), None
# Relax obj value: 0.024
# Max RMSD: 0.216
# Mean RMSD: 0.109
data_MOF--net-tbo--node1-ESEHIV_clean_sbu_0--node2-PAMTOO_clean_linker_0--edge1-none
_symmetry_space_group_name_H-M    P1
_symmetry_Int_Tables_number       1
_symmetry_cell_setting            triclinic
loop_
_symmetry_equiv_pos_as_xyz
'x, y, z'
_cell_length_a     30.610177
_cell_length_b     32.455317
_cell_length_c     31.989733
_cell_angle_alpha  91.357927
_cell_angle_beta   96.013612
_cell_angle_gamma 97.685266
loop_
_atom_site_label
_atom_site_type_symbol
_atom_site_fract_x
_atom_site_fract_y
_atom_site_fract_z
_atom_type_partial_charge
H0 H 0.17368 0.29851 0.27774 0.0
H1 H 0.17542 0.18757 0.34979 0.0
H2 H 0.23178 0.19493 0.23291 0.0
H3 H 0.18972 0.10892 0.24769 0.0
C4 C 0.18825 0.11312 0.28208 0.0
O5 O 0.21595 0.14871 0.29695 0.0
H6 H 0.15363 0.11567 0.28848 0.0
C7 C 0.18149 0.26728 0.28184 0.0
C8 C 0.20338 0.24938 0.25075 0.0
C9 C 0.1713 0.24567 0.31841 0.0
C10 C 0.18312 0.20541 0.32275 0.0
C11 C 0.20457 0.18728 0.29192 0.0
C12 C 0.21508 0.20935 0.25641 0.0
H13 H 0.9798 0.22662 0.34152 0.0
H14 H 0.90521 0.20971 0.21986 0.0
H15 H 0.98255 0.32805 0.25663 0.0
H16 H 0.88482 0.32313 0.21394 0.0
C17 C 0.88886 0.30055 0.18839 0.0
O18 O 0.92885 0.28527 0.1963 0.0
H19 H 0.86122 0.27436 0.1867 0.0
C20 C 0.96995 0.23895 0.31137 0.0
C21 C 0.98524 0.28063 0.30289 0.0
C22 C 0.94096 0.21298 0.28214 0.0
C23 C 0.92743 0.22909 0.24319 0.0
C24 C 0.94227 0.27046 0.23405 0.0
C25 C 0.97136 0.29617 0.26383 0.0
H26 H 0.90309 0.8367 0.16521 0.0
H27 H 0.82058 0.93067 0.13104 0.0
H28 H 0.9367 0.96305 0.21716 0.0
H29 H 0.80748 0.97255 0.2017 0.0
C30 C 0.829 1.00068 0.19277 0.0
O31 O 0.86744 0.99034 0.17807 0.0
H32 H 0.80992 1.01525 0.16705 0.0
C33 C 0.89694 0.8687 0.16725 0.0
C34 C 0.9264 0.8987 0.19329 0.0
C35 C 0.85796 0.87968 0.14554 0.0
C36 C 0.84976 0.92125 0.14838 0.0
C37 C 0.87714 0.95073 0.17515 0.0
C38 C 0.91522 0.93942 0.19757 0.0
H39 H 0.1034 0.86113 0.21743 0.0
H40 H 0.16803 0.80239 0.12333 0.0
H41 H 0.23766 0.90667 0.19716 0.0
H42 H 0.26716 0.91138 0.11938 0.0
C43 C 0.25403 0.87998 0.10516 0.0
O44 O 0.2427 0.85337 0.13675 0.0
H45 H 0.22432 0.88249 0.08261 0.0
C46 C 0.13212 0.85854 0.20138 0.0
C47 C 0.17079 0.88691 0.21213 0.0
C48 C 0.13089 0.8268 0.17049 0.0
C49 C 0.16812 0.82604 0.14782 0.0
C50 C 0.20634 0.85512 0.15731 0.0
C51 C 0.20777 0.88473 0.18992 0.0
H52 H 0.17326 0.94896 0.83518 0.0
H53 H 0.12533 0.84242 0.90297 0.0
H54 H 0.25185 0.90977 0.94431 0.0
H55 H 0.1984 0.79837 0.90921 0.0
C56 C 0.202 0.80352 0.94402 0.0
O57 O 0.19529 0.84374 0.955 0.0
H58 H 0.17671 0.78095 0.95685 0.0
C59 C 0.17741 0.92929 0.86168 0.0
C60 C 0.21598 0.93665 0.89149 0.0
C61 C 0.14496 0.89467 0.86506 0.0
C62 C 0.15005 0.86902 0.89948 0.0
C63 C 0.18913 0.87328 0.92643 0.0
C64 C 0.2219 0.90706 0.92273 0.0
H65 H 0.23161 0.30762 1.0266 0.0
H66 H 0.20685 0.24109 0.90655 0.0
H67 H 0.27989 0.19021 1.00994 0.0
H68 H 0.29111 0.20191 0.89179 0.0
C69 C 0.2619 0.17747 0.89173 0.0
O70 O 0.24509 0.17754 0.93043 0.0
H71 H 0.23589 0.18425 0.86692 0.0
C72 C 0.23655 0.28198 1.00613 0.0
C73 C 0.25918 0.24997 1.02325 0.0
C74 C 0.21747 0.27963 0.9639 0.0
C75 C 0.22158 0.24432 0.93885 0.0
C76 C 0.24505 0.21269 0.95468 0.0
C77 C 0.26412 0.21574 0.99695 0.0
H78 H 0.86769 0.22709 0.97853 0.0
H79 H 0.9676 0.30999 0.9251 0.0
H80 H 0.91799 0.19221 0.86408 0.0
H81 H 1.01726 0.23207 0.83043 0.0
C82 C 1.01482 0.24764 0.86123 0.0
O83 O 0.97305 0.2595 0.86119 0.0
H84 H 1.02088 0.22534 0.88644 0.0
C85 C 0.88949 0.23416 0.95439 0.0
C86 C 0.88942 0.20459 0.9217 0.0
C87 C 0.91761 0.27246 0.95618 0.0
C88 C 0.94649 0.28045 0.92498 0.0
C89 C 0.94688 0.25102 0.89236 0.0
C90 C 0.91827 0.21359 0.8906 0.0
H91 H 0.79023 0.9602 0.93977 0.0
H92 H 0.87595 0.86721 0.96014 0.0
H93 H 0.89965 0.95678 0.86531 0.0
H94 H 0.89543 0.84387 0.85737 0.0
C95 C 0.92006 0.8478 0.88584 0.0
O96 O 0.92561 0.88888 0.90128 0.0
H97 H 0.90729 0.82683 0.91011 0.0
C98 C 0.81892 0.94672 0.93196 0.0
C99 C 0.84453 0.96455 0.90112 0.0
C100 C 0.82907 0.91143 0.95297 0.0
C101 C 0.86623 0.8935 0.94313 0.0
C102 C 0.89083 0.90846 0.91065 0.0
C103 C 0.88001 0.94434 0.88954 0.0
H104 H 0.15192 0.79165 0.63943 0.0
H105 H 0.12399 0.71485 0.74443 0.0
H106 H 0.21546 0.68258 0.66067 0.0
H107 H 0.15942 0.61109 0.69043 0.0
C108 C 0.15592 0.62292 0.72266 0.0
O109 O 0.17919 0.66256 0.72915 0.0
H110 H 0.12009 0.62376 0.72534 0.0
C111 C 0.15587 0.76416 0.6571 0.0
C112 C 0.18538 0.7379 0.64469 0.0
C113 C 0.13317 0.75635 0.69299 0.0
C114 C 0.14074 0.72145 0.71669 0.0
C115 C 0.1702 0.6948 0.70481 0.0
C116 C 0.19224 0.70305 0.66892 0.0
H117 H 0.91984 0.77845 0.80205 0.0
H118 H 0.81642 0.70977 0.71683 0.0
H119 H 0.8984 0.81351 0.6738 0.0
H120 H 0.77836 0.78413 0.6614 0.0
C121 C 0.79078 0.76357 0.63827 0.0
O122 O 0.83218 0.75408 0.653 0.0
H123 H 0.76693 0.73449 0.63314 0.0
C124 C 0.89965 0.77534 0.77217 0.0
C125 C 0.91251 0.80139 0.73959 0.0
C126 C 0.86601 0.74117 0.76464 0.0
C127 C 0.84158 0.73629 0.72462 0.0
C128 C 0.85188 0.76345 0.69259 0.0
C129 C 0.88739 0.79591 0.70003 0.0
H130 H 0.96156 0.35729 0.76556 0.0
H131 H 0.87866 0.44202 0.70816 0.0
H132 H 0.96557 0.48147 0.81907 0.0
H133 H 0.84215 0.47641 0.78252 0.0
C134 C 0.85745 0.50358 0.76597 0.0
O135 O 0.90223 0.50165 0.76405 0.0
H136 H 0.8401 0.50263 0.73358 0.0
C137 C 0.95062 0.38761 0.76469 0.0
C138 C 0.96996 0.41909 0.79512 0.0
C139 C 0.91635 0.39483 0.73386 0.0
C140 C 0.90309 0.43463 0.73274 0.0
C141 C 0.91905 0.46495 0.76434 0.0
C142 C 0.9523 0.45715 0.79566 0.0
H143 H 0.22941 0.46989 0.79351 0.0
H144 H 0.18378 0.34412 0.74658 0.0
H145 H 0.28668 0.41677 0.69071 0.0
H146 H 0.2039 0.36664 0.63592 0.0
C147 C 0.20855 0.33717 0.65187 0.0
O148 O 0.23653 0.34538 0.68878 0.0
H149 H 0.17578 0.32157 0.6592 0.0
C150 C 0.23157 0.44425 0.77238 0.0
C151 C 0.26302 0.44861 0.74293 0.0
C152 C 0.20299 0.40632 0.77448 0.0
C153 C 0.20507 0.37352 0.74572 0.0
C154 C 0.23454 0.37787 0.71542 0.0
C155 C 0.26341 0.41492 0.71411 0.0
H156 H 0.19081 0.46763 0.38981 0.0
H157 H 0.2114 0.38509 0.49203 0.0
H158 H 0.3061 0.49198 0.48112 0.0
H159 H 0.355 0.43453 0.52521 0.0
C160 C 0.32651 0.40961 0.51746 0.0
O161 O 0.28785 0.42593 0.52281 0.0
H162 H 0.3269 0.39806 0.48441 0.0
C163 C 0.20981 0.45944 0.41816 0.0
C164 C 0.25016 0.48429 0.43319 0.0
C165 C 0.19441 0.42404 0.43981 0.0
C166 C 0.2212 0.41298 0.47546 0.0
C167 C 0.26119 0.43759 0.49008 0.0
C168 C 0.27458 0.4738 0.4699 0.0
H169 H 0.20141 0.78394 0.39814 0.0
H170 H 0.16382 0.70511 0.28659 0.0
H171 H 0.23631 0.65945 0.39282 0.0
H172 H 0.22842 0.66284 0.26571 0.0
C173 C 0.21739 0.63354 0.2813 0.0
O174 O 0.19627 0.64132 0.31638 0.0
H175 H 0.19351 0.61369 0.25821 0.0
C176 C 0.2014 0.75475 0.38125 0.0
C177 C 0.22179 0.72262 0.40131 0.0
C178 C 0.18009 0.74909 0.33977 0.0
C179 C 0.17989 0.71075 0.31832 0.0
C180 C 0.20054 0.67893 0.33701 0.0
C181 C 0.22181 0.68493 0.37825 0.0
H182 H 0.82861 0.69158 0.43593 0.0
H183 H 0.91494 0.79532 0.39413 0.0
H184 H 0.8981 0.67847 0.32674 0.0
H185 H 0.97772 0.71217 0.31539 0.0
C186 C 0.97936 0.74388 0.32992 0.0
O187 O 0.93699 0.75396 0.33 0.0
H188 H 0.99578 0.74487 0.36276 0.0
C189 C 0.85112 0.70457 0.4142 0.0
C190 C 0.86183 0.67907 0.38143 0.0
C191 C 0.87014 0.7469 0.41918 0.0
C192 C 0.90017 0.76302 0.3912 0.0
C193 C 0.90963 0.73816 0.35794 0.0
C194 C 0.89019 0.69681 0.35296 0.0
H195 H 0.77744 0.43038 0.53046 0.0
H196 H 0.90369 0.38365 0.53753 0.0
H197 H 0.87271 0.46925 0.44369 0.0
H198 H 0.92352 0.39979 0.41257 0.0
C199 C 0.93383 0.38965 0.44466 0.0
O200 O 0.93109 0.42144 0.47356 0.0
H201 H 0.91098 0.36135 0.45109 0.0
C202 C 0.80975 0.42991 0.51966 0.0
C203 C 0.82201 0.45452 0.48589 0.0
C204 C 0.839 0.40406 0.53858 0.0
C205 C 0.88062 0.40343 0.52371 0.0
C206 C 0.89246 0.42615 0.48937 0.0
C207 C 0.86345 0.45205 0.47073 0.0
H208 H 0.67974 0.30091 0.74088 0.0
H209 H 0.74896 0.23028 0.83351 0.0
H210 H 0.79002 0.24176 0.70994 0.0
H211 H 0.84799 0.17705 0.7554 0.0
C212 C 0.81388 0.17408 0.76492 0.0
O213 O 0.80769 0.21183 0.7835 0.0
H214 H 0.79029 0.16596 0.73611 0.0
C215 C 0.7052 0.28187 0.7503 0.0
C216 C 0.73309 0.27174 0.72036 0.0
C217 C 0.71048 0.26755 0.79199 0.0
C218 C 0.7441 0.2421 0.80227 0.0
C219 C 0.77276 0.23286 0.77262 0.0
C220 C 0.76746 0.2485 0.73238 0.0
H221 H 0.48011 0.20301 0.8445 0.0
H222 H 0.38798 0.17611 0.73301 0.0
H223 H 0.48955 0.28141 0.73817 0.0
H224 H 0.42423 0.3022 0.6853 0.0
C225 C 0.39985 0.27349 0.68481 0.0
O226 O 0.42227 0.2397 0.69208 0.0
H227 H 0.37748 0.27708 0.70957 0.0
C228 C 0.46862 0.21003 0.81265 0.0
C229 C 0.48914 0.24556 0.79415 0.0
C230 C 0.43208 0.18439 0.7912 0.0
C231 C 0.4161 0.19506 0.75042 0.0
C232 C 0.43717 0.2298 0.73138 0.0
C233 C 0.47382 0.25457 0.7531 0.0
H234 H 0.40318 0.83563 0.72003 0.0
H235 H 0.31753 0.91757 0.66114 0.0
H236 H 0.39901 0.9569 0.77573 0.0
H237 H 0.28007 0.95899 0.73896 0.0
C238 C 0.30124 0.98765 0.73077 0.0
O239 O 0.34054 0.97831 0.7172 0.0
H240 H 0.28253 1.00222 0.70481 0.0
C241 C 0.39018 0.86498 0.71941 0.0
C242 C 0.40562 0.8953 0.75184 0.0
C243 C 0.35835 0.87213 0.68626 0.0
C244 C 0.34097 0.91032 0.68668 0.0
C245 C 0.35476 0.94038 0.71939 0.0
C246 C 0.38697 0.93273 0.75184 0.0
H247 H 0.64419 0.94477 0.78367 0.0
H248 H 0.66158 0.86913 0.67549 0.0
H249 H 0.74788 0.98337 0.70675 0.0
H250 H 0.73717 0.97036 0.61965 0.0
C251 C 0.7255 0.93636 0.61628 0.0
O252 O 0.73069 0.91865 0.65503 0.0
H253 H 0.68982 0.93119 0.60372 0.0
C254 C 0.6607 0.93988 0.75602 0.0
C255 C 0.69679 0.96877 0.74814 0.0
C256 C 0.64781 0.90347 0.73053 0.0
C257 C 0.6705 0.89715 0.69531 0.0
C258 C 0.70643 0.92625 0.68672 0.0
C259 C 0.71955 0.96169 0.71324 0.0
H260 H 0.68681 0.97585 0.29092 0.0
H261 H 0.60932 0.88045 0.35188 0.0
H262 H 0.74031 0.92781 0.40675 0.0
H263 H 0.69109 0.82519 0.38488 0.0
C264 C 0.6814 0.83492 0.41584 0.0
O265 O 0.66975 0.8747 0.41461 0.0
H266 H 0.65254 0.81283 0.42321 0.0
C267 C 0.68397 0.95434 0.31602 0.0
C268 C 0.71914 0.95562 0.34857 0.0
C269 C 0.64418 0.92676 0.31606 0.0
C270 C 0.63998 0.90011 0.34968 0.0
C271 C 0.67492 0.89993 0.3818 0.0
C272 C 0.71413 0.92773 0.38129 0.0
H273 H 0.70764 0.30649 0.46827 0.0
H274 H 0.69106 0.23197 0.35329 0.0
H275 H 0.7675 0.19286 0.45984 0.0
H276 H 0.7855 0.20676 0.3487 0.0
C277 C 0.75937 0.17914 0.3451 0.0
O278 O 0.73731 0.17569 0.38089 0.0
H279 H 0.73544 0.18311 0.31735 0.0
C280 C 0.71408 0.27929 0.45105 0.0
C281 C 0.73884 0.24965 0.47116 0.0
C282 C 0.69798 0.27401 0.40799 0.0
C283 C 0.70468 0.23783 0.38587 0.0
C284 C 0.73035 0.20938 0.40416 0.0
C285 C 0.74779 0.21549 0.44645 0.0
H286 H 0.32498 0.13671 0.43248 0.0
H287 H 0.42472 0.24507 0.441 0.0
H288 H 0.41284 0.1571 0.33696 0.0
H289 H 0.49483 0.18067 0.35689 0.0
C290 C 0.49804 0.21244 0.37176 0.0
O291 O 0.45687 0.22583 0.3704 0.0
H292 H 0.51235 0.21108 0.40507 0.0
C293 C 0.35205 0.15577 0.42012 0.0
C294 C 0.36725 0.1422 0.38312 0.0
C295 C 0.37216 0.19297 0.44156 0.0
C296 C 0.408 0.21674 0.42481 0.0
C297 C 0.42252 0.20366 0.38696 0.0
C298 C 0.40149 0.16694 0.36607 0.0
H299 H 0.24947 0.90113 0.45654 0.0
H300 H 0.37918 0.86139 0.47684 0.0
H301 H 0.35104 0.93883 0.37519 0.0
H302 H 0.39503 0.86762 0.35477 0.0
C303 C 0.41521 0.86495 0.3854 0.0
O304 O 0.40937 0.89687 0.41266 0.0
H305 H 0.40379 0.83435 0.3984 0.0
C306 C 0.28292 0.90139 0.44827 0.0
C307 C 0.2967 0.92375 0.41331 0.0
C308 C 0.31228 0.87812 0.4714 0.0
C309 C 0.35564 0.87881 0.4599 0.0
C310 C 0.36897 0.89994 0.4251 0.0
C311 C 0.33977 0.92241 0.40203 0.0
H312 H 0.66579 0.79759 0.21002 0.0
H313 H 0.65334 0.68962 0.28638 0.0
H314 H 0.69502 0.68093 0.16277 0.0
H315 H 0.74548 0.64713 0.24 0.0
C316 C 0.71618 0.62237 0.23648 0.0
O317 O 0.67711 0.63959 0.23042 0.0
H318 H 0.71905 0.60282 0.20819 0.0
C319 C 0.66786 0.76498 0.21464 0.0
C320 C 0.68136 0.74165 0.18224 0.0
C321 C 0.65699 0.74687 0.25235 0.0
C322 C 0.66207 0.70473 0.25805 0.0
C323 C 0.6758 0.68092 0.22586 0.0
C324 C 0.68524 0.69945 0.18791 0.0
H325 H 0.45567 0.71113 0.30173 0.0
H326 H 0.38623 0.65489 0.18714 0.0
H327 H 0.45301 0.78051 0.1884 0.0
H328 H 0.34232 0.73621 0.14777 0.0
C329 C 0.35983 0.71927 0.12546 0.0
O330 O 0.4038 0.7194 0.1413 0.0
H331 H 0.34281 0.68676 0.12116 0.0
C332 C 0.4458 0.71324 0.26845 0.0
C333 C 0.45872 0.74991 0.24795 0.0
C334 C 0.4198 0.67905 0.24717 0.0
C335 C 0.40599 0.6814 0.20419 0.0
C336 C 0.41715 0.71811 0.18304 0.0
C337 C 0.44359 0.75254 0.20497 0.0
H338 H 0.32411 0.43618 0.22893 0.0
H339 H 0.41532 0.34542 0.24593 0.0
H340 H 0.41827 0.44408 0.33861 0.0
H341 H 0.49373 0.41611 0.36607 0.0
C342 C 0.49534 0.40454 0.33337 0.0
O343 O 0.45533 0.3802 0.31905 0.0
H344 H 0.50179 0.43182 0.31335 0.0
C345 C 0.35122 0.42401 0.24691 0.0
C346 C 0.36969 0.44491 0.28466 0.0
C347 C 0.36621 0.38724 0.23277 0.0
C348 C 0.40302 0.37337 0.25607 0.0
C349 C 0.42203 0.39446 0.29431 0.0
C350 C 0.40413 0.429 0.30875 0.0
H351 H 0.75464 0.46321 0.33906 0.0
H352 H 0.73133 0.42094 0.20817 0.0
H353 H 0.85003 0.49965 0.25235 0.0
H354 H 0.82527 0.51146 0.167 0.0
C355 C 0.80897 0.47961 0.15664 0.0
O356 O 0.80818 0.45388 0.19026 0.0
H357 H 0.77453 0.48129 0.14241 0.0
C358 C 0.76363 0.46378 0.30725 0.0
C359 C 0.8048 0.48596 0.29926 0.0
C360 C 0.73558 0.44051 0.27417 0.0
C361 C 0.75002 0.44026 0.23367 0.0
C362 C 0.79092 0.46161 0.22622 0.0
C363 C 0.81756 0.48478 0.25855 0.0
H364 H 0.67933 0.48791 0.86159 0.0
H365 H 0.64739 0.38147 0.93533 0.0
H366 H 0.77179 0.45929 0.96507 0.0
H367 H 0.74353 0.34979 0.94913 0.0
C368 C 0.73927 0.35735 0.98249 0.0
O369 O 0.72051 0.39354 0.98627 0.0
H370 H 0.7169 0.33113 0.99377 0.0
C371 C 0.68882 0.46818 0.88682 0.0
C372 C 0.72995 0.47829 0.9121 0.0
C373 C 0.65904 0.4332 0.89485 0.0
C374 C 0.67028 0.40821 0.92839 0.0
C375 C 0.71085 0.41752 0.95343 0.0
C376 C 0.74053 0.45248 0.94539 0.0
H377 H 0.68964 0.79194 0.96913 0.0
H378 H 0.62962 0.71779 0.85926 0.0
H379 H 0.72485 0.66985 0.94576 0.0
H380 H 0.68862 0.68133 0.8197 0.0
C381 C 0.68557 0.65105 0.8355 0.0
O382 O 0.67134 0.65499 0.87497 0.0
H383 H 0.66045 0.62902 0.8157 0.0
C384 C 0.68691 0.76414 0.94906 0.0
C385 C 0.71159 0.73182 0.96159 0.0
C386 C 0.65757 0.75994 0.91164 0.0
C387 C 0.65322 0.7228 0.88716 0.0
C388 C 0.67826 0.69105 0.8985 0.0
C389 C 0.70735 0.69545 0.93585 0.0
H390 H 0.33419 0.66433 0.88383 0.0
H391 H 0.42497 0.76889 0.85007 0.0
H392 H 0.38907 0.66415 0.7648 0.0
H393 H 0.48551 0.72571 0.74126 0.0
C394 C 0.47962 0.72821 0.77484 0.0
O395 O 0.4365 0.7358 0.77714 0.0
H396 H 0.48565 0.69836 0.78939 0.0
C397 C 0.35533 0.67937 0.86198 0.0
C398 C 0.35825 0.65905 0.82281 0.0
C399 C 0.37981 0.71924 0.87272 0.0
C400 C 0.40699 0.73801 0.84351 0.0
C401 C 0.41044 0.71769 0.80514 0.0
C402 C 0.38599 0.67885 0.79493 0.0
H403 H 0.2774 0.43523 0.98055 0.0
H404 H 0.39373 0.37776 1.01276 0.0
H405 H 0.37545 0.43456 0.89329 0.0
H406 H 0.41716 0.35055 0.89569 0.0
C407 C 0.43612 0.35642 0.92737 0.0
O408 O 0.42964 0.39512 0.94323 0.0
H409 H 0.42341 0.3321 0.94869 0.0
C410 C 0.30825 0.42686 0.97213 0.0
C411 C 0.32248 0.43798 0.93306 0.0
C412 C 0.33292 0.40501 1.00102 0.0
C413 C 0.37364 0.39402 0.99062 0.0
C414 C 0.38912 0.40444 0.95176 0.0
C415 C 0.36336 0.42641 0.92301 0.0
Cu416 Cu 0.30146 0.31172 0.13159 0.0
N417 N 0.29839 0.35593 0.0955 0.0
N418 N 0.31565 0.3935 0.04022 0.0
C419 C 0.32316 0.36028 0.06298 0.0
C420 C 0.28503 0.41099 0.05964 0.0
C421 C 0.27434 0.38771 0.09357 0.0
O422 O 0.30492 0.26798 0.08852 0.0
C423 C 0.33939 0.36372 0.1958 0.0
O424 O 0.30064 0.37512 0.18367 0.0
H425 H 0.34525 0.33847 0.05542 0.0
H426 H 0.25069 0.3936 0.11503 0.0
N427 N 0.25163 0.29753 0.16134 0.0
N428 N 0.21409 0.27182 0.21377 0.0
C429 C 0.25131 0.27232 0.19435 0.0
C430 C 0.21296 0.31327 0.1596 0.0
C431 C 0.18984 0.29758 0.19198 0.0
C432 C 0.26829 0.24926 0.06989 0.0
O433 O 0.23324 0.24595 0.09055 0.0
H434 H 0.27883 0.25607 0.20504 0.0
H435 H 0.20274 0.33544 0.13719 0.0
O436 O 0.35027 0.33244 0.17606 0.0
H437 H 0.27095 0.43858 0.05004 0.0
H438 H 0.15782 0.30475 0.1991 0.0
Cu439 Cu 0.84761 0.35271 0.07334 0.0
N440 N 0.85404 0.40831 0.09118 0.0
N441 N 0.83375 0.46188 0.12579 0.0
C442 C 0.82016 0.42518 0.10493 0.0
C443 C 0.87811 0.46856 0.12504 0.0
C444 C 0.8906 0.43549 0.10337 0.0
O445 O 0.85136 0.31934 0.12303 0.0
C446 C 0.78351 0.36211 1.00801 0.0
O447 O 0.81589 0.38904 0.99707 0.0
H448 H 0.78698 0.40847 0.10416 0.0
H449 H 0.92418 0.42983 0.10067 0.0
N450 N 0.88893 0.33973 0.03816 0.0
N451 N 0.91551 0.3035 0.98868 0.0
C452 C 0.88045 0.30766 1.00988 0.0
C453 C 0.93095 0.35675 0.03494 0.0
C454 C 0.94743 0.33449 1.00422 0.0
C455 C 0.88729 0.32247 0.14764 0.0
O456 O 0.92155 0.34879 0.13956 0.0
H457 H 0.84873 0.28805 1.00478 0.0
H458 H 0.94856 0.38306 0.05373 0.0
O459 O 0.78979 0.3416 0.04105 0.0
H460 H 0.90027 0.49326 0.14261 0.0
H461 H 0.98052 0.34026 0.99465 0.0
Cu462 Cu 0.7745 0.80125 0.05957 0.0
N463 N 0.77184 0.84812 1.02788 0.0
N464 N 0.80126 0.89362 0.9837 0.0
C465 C 0.79857 0.85452 0.99725 0.0
C466 C 0.77423 0.91251 1.00652 0.0
C467 C 0.75631 0.88437 0.03402 0.0
O468 O 0.77031 0.75902 1.01382 0.0
C469 C 0.82214 0.84898 0.12324 0.0
O470 O 0.78131 0.85694 0.12415 0.0
H471 H 0.81735 0.83109 0.98662 0.0
H472 H 0.73601 0.89079 0.05845 0.0
N473 N 0.72731 0.78819 0.09192 0.0
N474 N 0.69014 0.76116 0.14351 0.0
C475 C 0.7275 0.76252 0.12449 0.0
C476 C 0.68836 0.80332 0.09007 0.0
C477 C 0.66549 0.78694 0.12218 0.0
C478 C 0.73476 0.73355 1.00478 0.0
O479 O 0.71011 0.72237 0.03481 0.0
H480 H 0.75532 0.74662 0.13514 0.0
H481 H 0.67794 0.82553 0.06774 0.0
O482 O 0.82882 0.81968 0.09811 0.0
H483 H 0.76956 0.94493 1.00525 0.0
H484 H 0.63369 0.79414 0.12996 0.0
Cu485 Cu 0.31344 0.76961 1.01247 0.0
N486 N 0.31719 0.82052 0.04175 0.0
N487 N 0.28784 0.86433 0.08219 0.0
C488 C 0.28802 0.82452 0.0698 0.0
C489 C 0.31796 0.88664 0.06068 0.0
C490 C 0.3363 0.85942 0.03575 0.0
O491 O 0.32269 0.73092 0.05718 0.0
C492 C 0.24753 0.79615 0.9608 0.0
O493 O 0.28149 0.82316 0.95334 0.0
H494 H 0.26466 0.79884 0.07831 0.0
H495 H 0.35897 0.86766 1.01258 0.0
N496 N 0.35192 0.76433 0.97096 0.0
N497 N 0.37739 0.74094 0.91257 0.0
C498 C 0.34338 0.73795 0.93672 0.0
C499 C 0.39282 0.78451 0.96864 0.0
C500 C 0.40853 0.77029 0.93279 0.0
C501 C 0.35642 0.74062 0.08439 0.0
O502 O 0.38483 0.77369 0.07918 0.0
H503 H 0.31242 0.71752 0.92935 0.0
H504 H 0.41003 0.80786 0.99143 0.0
O505 O 0.25386 0.76572 0.98426 0.0
H506 H 0.32402 0.92028 0.06083 0.0
H507 H 0.4407 0.78066 0.92265 0.0
Cu508 Cu 0.07946 0.35395 0.38253 0.0
N509 N 0.11 0.30756 0.38207 0.0
N510 N 0.149 0.26431 0.35054 0.0
C511 C 0.12777 0.29809 0.34689 0.0
C512 C 0.14421 0.25198 0.3902 0.0
C513 C 0.12008 0.27871 0.40958 0.0
O514 O 0.12831 0.40029 0.39084 0.0
C515 C 1.0145 0.30626 0.33652 0.0
O516 O 1.01805 0.29094 0.37419 0.0
H517 H 0.12432 0.3158 0.31883 0.0
H518 H 0.11082 0.27726 0.44127 0.0
N519 N 1.04079 0.36081 0.42371 0.0
N520 N 0.97914 0.37885 0.44712 0.0
C521 C 1.00542 0.3813 0.41573 0.0
C522 C 1.03689 0.34481 0.46182 0.0
C523 C 0.99871 0.35584 0.47628 0.0
C524 C 0.15152 0.39739 0.42614 0.0
O525 O 0.13761 0.36792 0.45096 0.0
H526 H 0.99755 0.3955 0.38609 0.0
H527 H 0.05876 0.32479 0.47699 0.0
O528 O 1.03912 0.3404 0.33063 0.0
H529 H 0.15744 0.2258 0.40461 0.0
H530 H 0.98497 0.34565 0.50473 0.0
Cu531 Cu 0.81861 0.08324 0.29292 0.0
N532 N 0.87448 0.11501 0.30054 0.0
N533 N 0.92357 0.17137 0.29313 0.0
C534 C 0.88264 0.15115 0.28102 0.0
C535 C 0.94205 0.14658 0.32139 0.0
C536 C 0.91164 0.11174 0.32586 0.0
O537 O 0.77818 0.12351 0.3016 0.0
C538 C 0.839 0.03022 0.23035 0.0
O539 O 0.86953 1.02348 0.26046 0.0
H540 H 0.85794 0.16335 0.25987 0.0
H541 H 0.91585 0.0866 0.34688 0.0
N542 N 0.80499 0.03974 0.32875 0.0
N543 N 0.75854 0.9862 0.34903 0.0
C544 C 0.77061 1.00999 0.31697 0.0
C545 C 0.81612 0.03449 0.36986 0.0
C546 C 0.78764 1.00132 0.38243 0.0
C547 C 0.78177 0.14163 0.338 0.0
O548 O 0.81087 0.1315 0.36776 0.0
H549 H 0.75345 1.00761 0.28554 0.0
H550 H 0.84096 0.0549 0.38987 0.0
O551 O 0.81243 0.05624 0.23721 0.0
H552 H 0.97485 0.15344 0.3383 0.0
H553 H 0.78674 0.99112 0.41432 0.0
Cu554 Cu 0.05317 0.80621 0.24204 0.0
N555 N 1.02337 0.85303 0.23683 0.0
N556 N 0.96686 0.88799 0.2158 0.0
C557 C 0.9875 0.85453 0.2088 0.0
C558 C 0.99122 0.9084 0.24967 0.0
C559 C 1.02573 0.88667 0.26267 0.0
O560 O 1.01317 0.76583 0.26802 0.0
C561 C 0.09129 0.79466 0.1607 0.0
O562 O 0.08677 0.77329 0.12474 0.0
H563 H 0.97609 0.83056 0.18457 0.0
H564 H 0.04934 0.89381 0.29028 0.0
N565 N 0.10575 0.80933 0.27866 0.0
N566 N 0.15669 0.78086 0.32001 0.0
C567 C 0.12377 0.77465 0.28793 0.0
C568 C 0.1279 0.83905 0.30594 0.0
C569 C 0.1596 0.82165 0.33125 0.0
C570 C 1.00571 0.77471 0.3054 0.0
O571 O 1.02379 0.81047 0.32366 0.0
H572 H 0.11046 0.74471 0.27302 0.0
H573 H 0.12023 0.87044 0.30877 0.0
O574 O 0.06178 0.78562 0.18586 0.0
H575 H 0.98369 0.93606 0.26538 0.0
H576 H 0.18201 0.83766 0.3567 0.0
Cu577 Cu 0.25175 1.00688 0.31981 0.0
N578 N 0.30398 0.04553 0.34067 0.0
N579 N 0.34995 0.10204 0.3642 0.0
C580 C 0.30768 0.08293 0.36076 0.0
C581 C 0.37345 0.07563 0.34606 0.0
C582 C 0.34494 0.04081 0.33153 0.0
O583 O 0.22659 0.05316 0.28725 0.0
C584 C 0.26751 0.94916 0.38827 0.0
O585 O 0.23406 0.96279 0.40424 0.0
H586 H 0.28009 0.09646 0.37123 0.0
H587 H 0.35312 1.01423 0.31444 0.0
N588 N 0.20286 0.96644 0.29454 0.0
N589 N 0.1731 0.91758 0.24587 0.0
C590 C 0.21013 0.93458 0.26995 0.0
C591 C 0.15947 0.96979 0.28632 0.0
C592 C 0.14087 0.9393 0.25628 0.0
C593 C 0.20308 0.0767 0.30453 0.0
O594 O 0.1936 0.07009 0.34311 0.0
H595 H 0.24282 0.92603 0.26775 0.0
H596 H 0.14338 0.9945 0.29852 0.0
O597 O 0.27815 0.96156 0.35273 0.0
H598 H 0.40871 0.08121 0.34345 0.0
H599 H 0.10724 0.93549 0.24105 0.0
Cu600 Cu 1.03716 0.85238 0.78274 0.0
N601 N 0.06549 0.82316 0.74361 0.0
N602 N 0.10349 0.78452 0.70527 0.0
C603 C 0.09056 0.79173 0.74386 0.0
C604 C 0.08496 0.81167 0.68009 0.0
C605 C 0.0622 0.83529 0.70364 0.0
O606 O 0.08286 0.89657 0.80978 0.0
C607 C 0.96036 0.81664 0.74202 0.0
O608 O 0.98573 0.78711 0.74566 0.0
H609 H 0.0999 0.77521 0.77164 0.0
H610 H 0.04412 0.86002 0.69242 0.0
N611 N 1.01422 0.83156 0.83102 0.0
N612 N 0.96208 0.83552 0.87471 0.0
C613 C 0.9878 0.85583 0.84821 0.0
C614 C 1.00579 0.79417 0.84788 0.0
C615 C 0.97355 0.79665 0.87504 0.0
C616 C 0.11161 0.87699 0.82993 0.0
O617 O 0.10667 0.83638 0.82451 0.0
H618 H 0.98339 0.88643 0.83711 0.0
H619 H 1.01799 0.76625 0.83766 0.0
O620 O 0.97771 0.85421 0.75281 0.0
H621 H 0.08749 0.81449 0.64678 0.0
H622 H 0.9563 0.77068 0.89001 0.0
Cu623 Cu 0.29953 0.07367 0.82997 0.0
N624 N 0.35765 0.10044 0.83039 0.0
N625 N 0.41073 0.14868 0.81132 0.0
C626 C 0.36763 0.13206 0.80488 0.0
C627 C 0.42863 0.12628 0.84221 0.0
C628 C 0.39581 0.09649 0.85388 0.0
O629 O 0.26642 0.11871 0.8446 0.0
C630 C 0.31065 1.01705 0.76859 0.0
O631 O 0.34115 1.01012 0.79865 0.0
H632 H 0.34312 0.14351 0.78291 0.0
H633 H 0.39942 0.07408 0.87805 0.0
N634 N 0.28772 0.03043 0.86672 0.0
N635 N 0.24962 0.97262 0.88939 0.0
C636 C 0.25268 1.0003 0.85853 0.0
C637 C 0.30785 1.02192 0.90421 0.0
C638 C 0.28448 0.98643 0.91829 0.0
C639 C 0.27621 0.13612 0.8814 0.0
O640 O 0.30584 0.12185 0.90786 0.0
H641 H 0.22998 0.99902 0.83013 0.0
H642 H 0.33701 0.04039 0.9204 0.0
O643 O 0.28622 0.04525 0.77473 0.0
H644 H 0.46297 0.13107 0.8556 0.0
H645 H 0.29248 0.97254 0.94802 0.0
Cu646 Cu 0.11085 0.35004 0.85303 0.0
N647 N 0.06906 0.38734 0.85148 0.0
N648 N 1.0078 0.41263 0.82438 0.0
C649 C 1.03736 0.38619 0.81872 0.0
C650 C 1.02187 0.43158 0.86247 0.0
C651 C 0.05954 0.41568 0.87927 0.0
O652 O 0.07443 0.29684 0.84108 0.0
C653 C 0.17183 0.3994 0.80705 0.0
O654 O 0.1683 0.42921 0.83442 0.0
H655 H 1.03614 0.36591 0.79116 0.0
H656 H 0.07794 0.42353 0.90978 0.0
N657 N 0.14663 0.34416 0.90343 0.0
N658 N 0.19235 0.31166 0.94697 0.0
C659 C 0.16274 0.30828 0.91214 0.0
C660 C 0.1666 0.37168 0.9339 0.0
C661 C 0.19466 0.35168 0.96092 0.0
C662 C 0.04884 0.28524 0.86875 0.0
O663 O 0.0506 0.30814 0.90344 0.0
H664 H 0.1532 0.28034 0.89243 0.0
H665 H 0.16232 0.40419 0.93553 0.0
O666 O 0.14939 0.36361 0.80953 0.0
H667 H 1.00564 0.45456 0.87763 0.0
H668 H 0.21623 0.36602 0.98777 0.0
Cu669 Cu 0.81774 0.07139 0.84082 0.0
N670 N 0.82422 0.10639 0.88868 0.0
N671 N 0.85872 0.16652 0.91866 0.0
C672 C 0.86273 0.1318 0.89634 0.0
C673 C 0.81611 0.16175 0.92732 0.0
C674 C 0.79471 0.12461 0.9085 0.0
O675 O 0.83308 0.11113 0.79814 0.0
C676 C 0.83178 1.00398 0.88303 0.0
O677 O 0.79839 1.01927 0.8975 0.0
H678 H 0.89172 0.12708 0.88115 0.0
H679 H 0.75937 0.11469 0.90507 0.0
N680 N 0.76105 0.04654 0.82051 0.0
N681 N 0.71294 1.0028 0.77791 0.0
C682 C 0.75568 1.01864 0.78814 0.0
C683 C 0.72016 0.04897 0.83135 0.0
C684 C 0.69027 1.02173 0.80507 0.0
C685 C 0.80778 0.13968 0.79494 0.0
O686 O 0.77337 0.13736 0.81646 0.0
H687 H 0.78319 1.00893 0.77356 0.0
H688 H 0.71259 0.06844 0.85673 0.0
O689 O 0.85079 1.02418 0.85458 0.0
H690 H 0.80027 0.18544 0.94184 0.0
H691 H 0.65479 1.01591 0.8063 0.0
Cu692 Cu 0.25706 0.79614 0.55359 0.0
N693 N 0.30535 0.80683 0.59559 0.0
N694 N 0.34476 0.84137 0.65195 0.0
C695 C 0.30816 0.83874 0.62396 0.0
C696 C 0.3658 0.80939 0.64054 0.0
C697 C 0.34138 0.7881 0.60586 0.0
O698 O 0.20785 0.78074 0.58714 0.0
C699 C 0.29891 0.84924 0.50468 0.0
O700 O 0.32582 0.82233 0.51647 0.0
H701 H 0.28312 0.85929 0.62412 0.0
H702 H 0.34946 0.76115 0.58936 0.0
N703 N 0.25652 0.75424 0.51156 0.0
N704 N 0.24069 0.72781 0.44511 0.0
C705 C 0.23163 0.75536 0.47429 0.0
C706 C 0.28232 0.72448 0.50616 0.0
C707 C 0.27237 0.70791 0.46532 0.0
C708 C 0.21189 0.74849 0.60887 0.0
O709 O 0.24405 0.72684 0.60237 0.0
H710 H 0.20816 0.77726 0.46856 0.0
H711 H 0.30791 0.71672 0.52938 0.0
O712 O 0.2615 0.84608 0.51973 0.0
H713 H 0.39696 0.80203 0.65563 0.0
H714 H 0.2887 0.68436 0.4512 0.0
Cu715 Cu 0.76865 0.81499 0.52087 0.0
N716 N 0.81795 0.80498 0.49407 0.0
N717 N 0.8584 0.77387 0.45162 0.0
C718 C 0.81839 0.77337 0.46598 0.0
C719 C 0.88415 0.80704 0.47167 0.0
C720 C 0.85921 0.826 0.498 0.0
O721 O 0.71746 0.80923 0.47893 0.0
C722 C 0.79364 0.786 0.59823 0.0
O723 O 0.82593 0.81665 0.59613 0.0
H724 H 0.78953 0.75108 0.4555 0.0
H725 H 0.87036 0.85318 0.51847 0.0
N726 N 0.77156 0.868 0.54578 0.0
N727 N 0.75079 0.91663 0.587 0.0
C728 C 0.74422 0.8763 0.57428 0.0
C729 C 0.79625 0.90455 0.53996 0.0
C730 C 0.78343 0.93476 0.56557 0.0
C731 C 0.71988 0.83388 0.44858 0.0
O732 O 0.75663 0.85932 0.44636 0.0
H733 H 0.71944 0.8532 0.58509 0.0
H734 H 0.82106 0.90909 0.5182 0.0
O735 O 0.76369 0.77793 0.56722 0.0
H736 H 0.9186 0.81692 0.46761 0.0
H737 H 0.79648 0.96752 0.56777 0.0
Cu738 Cu 0.78599 0.32454 0.62384 0.0
N739 N 0.77446 0.28186 0.58149 0.0
N740 N 0.7551 0.25411 0.51582 0.0
C741 C 0.75479 0.28709 0.54247 0.0
C742 C 0.77554 0.22683 0.53972 0.0
C743 C 0.78765 0.24409 0.57988 0.0
O744 O 0.79275 0.37466 0.59109 0.0
C745 C 0.72706 0.28324 0.67572 0.0
O746 O 0.72417 0.25276 0.64744 0.0
H747 H 0.74214 0.31555 0.53364 0.0
H748 H 0.80573 0.2305 0.6057 0.0
N749 N 0.84017 0.32819 0.658 0.0
N750 N 0.8934 0.36209 0.70477 0.0
C751 C 0.85253 0.36161 0.68417 0.0
C752 C 0.87416 0.30568 0.66244 0.0
C753 C 0.90713 0.32657 0.69151 0.0
C754 C 0.82625 0.37378 0.5705 0.0
O755 O 0.84904 0.34238 0.57569 0.0
H756 H 0.83134 0.38531 0.68768 0.0
H757 H 0.87542 0.27688 0.64519 0.0
O758 O 0.74358 0.3195 0.66608 0.0
H759 H 0.78211 0.1966 0.52921 0.0
H760 H 0.93901 0.31685 0.70115 0.0
Cu761 Cu 0.33346 0.29134 0.56641 0.0
N762 N 0.27803 0.2885 0.58591 0.0
N763 N 0.22742 0.31014 0.62344 0.0
C764 C 0.27086 0.30887 0.62108 0.0
C765 C 0.20627 0.28972 0.5883 0.0
C766 C 0.23767 0.27624 0.56514 0.0
O767 O 0.3768 0.29526 0.61558 0.0
C768 C 0.33145 0.37509 0.54675 0.0
O769 O 0.32483 0.38004 0.58632 0.0
H770 H 0.29723 0.32546 0.64279 0.0
H771 H 0.23179 0.26159 0.53396 0.0
N772 N 0.33838 0.24508 0.53249 0.0
N773 N 0.35636 0.20567 0.48029 0.0
C774 C 0.35868 0.24464 0.49704 0.0
C775 C 0.32286 0.20523 0.53854 0.0
C776 C 0.33393 0.18087 0.50655 0.0
C777 C 0.3723 0.26783 0.64322 0.0
O778 O 0.33969 0.23692 0.63716 0.0
H779 H 0.37404 0.27243 0.48347 0.0
H780 H 0.30466 0.19465 0.56436 0.0
O781 O 0.33927 0.34011 0.53283 0.0
H782 H 0.17101 0.28739 0.5787 0.0
H783 H 0.32618 0.14736 0.50319 0.0
Cu784 Cu 0.79838 0.59712 0.82055 0.0
N785 N 0.83604 0.64761 0.82166 0.0
N786 N 0.86112 0.70857 0.7949 0.0
C787 C 0.82727 0.6772 0.79437 0.0
C788 C 0.8924 0.69826 0.8245 0.0
C789 C 0.87687 0.66062 0.8409 0.0
O790 O 0.73964 0.61242 0.80916 0.0
C791 C 0.85004 0.54195 0.78951 0.0
O792 O 0.87486 0.55359 0.82491 0.0
H793 H 0.79713 0.67442 0.77301 0.0
H794 H 0.89503 0.64293 0.86322 0.0
N795 N 0.79368 0.56651 0.86871 0.0
N796 N 0.76062 0.51435 0.90371 0.0
C797 C 0.76279 0.53274 0.86659 0.0
C798 C 0.81245 0.56997 0.90879 0.0
C799 C 0.79212 0.53753 0.93052 0.0
C800 C 0.72916 0.63499 0.8387 0.0
O801 O 0.75879 0.64731 0.8708 0.0
H802 H 0.74212 0.52204 0.83785 0.0
H803 H 0.83822 0.59452 0.9214 0.0
O804 O 0.81496 0.5585 0.7798 0.0
H805 H 0.92548 0.71491 0.8317 0.0
H806 H 0.79923 0.53217 0.96365 0.0
Cu807 Cu 0.27555 0.54281 0.81218 0.0
N808 N 0.27426 0.50588 0.85639 0.0
N809 N 0.29541 0.46157 0.90505 0.0
C810 C 0.30728 0.48505 0.87253 0.0
C811 C 0.25308 0.46799 0.90873 0.0
C812 C 0.24058 0.49553 0.87941 0.0
O813 O 0.3018 0.51888 0.76574 0.0
C814 C 0.33228 0.61793 0.80907 0.0
O815 O 0.32972 0.60512 0.7695 0.0
H816 H 0.33966 0.4881 0.86135 0.0
H817 H 0.20919 0.50747 0.8755 0.0
N818 N 0.22062 0.55832 0.79043 0.0
N819 N 0.17332 0.59428 0.75308 0.0
C820 C 0.21618 0.5911 0.76572 0.0
C821 C 0.17888 0.53994 0.79302 0.0
C822 C 0.14973 0.56201 0.76999 0.0
C823 C 0.29693 0.48641 0.74121 0.0
O824 O 0.32492 0.48624 0.71275 0.0
H825 H 0.24386 0.61165 0.75616 0.0
H826 H 0.17007 0.51176 0.80928 0.0
O827 O 0.31194 0.5947 0.83429 0.0
H828 H 0.23207 0.45426 0.93122 0.0
H829 H 0.11402 0.55423 0.76493 0.0
Cu830 Cu 0.31237 0.55349 0.30028 0.0
N831 N 0.30111 0.54613 0.35543 0.0
N832 N 0.26945 0.51717 0.40897 0.0
C833 C 0.27264 0.51467 0.36744 0.0
C834 C 0.29685 0.55179 0.42362 0.0
C835 C 0.31617 0.56986 0.39031 0.0
O836 O 0.32389 0.50023 0.27746 0.0
C837 C 0.25658 0.612 0.29356 0.0
O838 O 0.28672 0.62924 0.32331 0.0
H839 H 0.25622 0.48938 0.34639 0.0
H840 H 0.3398 0.5979 0.39146 0.0
N841 N 0.36228 0.59148 0.29566 0.0
N842 N 0.4063 0.64279 0.27009 0.0
C843 C 0.36641 0.61908 0.26515 0.0
C844 C 0.40096 0.59745 0.32052 0.0
C845 C 0.42824 0.6292 0.30483 0.0
C846 C 0.35364 0.4834 0.29931 0.0
O847 O 0.37185 0.50186 0.33509 0.0
H848 H 0.33999 0.62278 0.24083 0.0
H849 H 0.40851 0.58047 0.34844 0.0
O850 O 0.26165 0.57763 0.27562 0.0
H851 H 0.30351 0.56246 0.45628 0.0
H852 H 0.46135 0.64182 0.3184 0.0
Cu853 Cu 0.78825 0.5601 0.37562 0.0
N854 N 0.77138 0.52765 0.42004 0.0
N855 N 0.79204 0.48053 0.46551 0.0
C856 C 0.80419 0.51646 0.44693 0.0
C857 C 0.74904 0.46913 0.45079 0.0
C858 C 0.73646 0.49806 0.4223 0.0
O859 O 0.83606 0.53205 0.35899 0.0
C860 C 0.84389 0.63425 0.37504 0.0
O861 O 0.85724 0.61252 0.34482 0.0
H862 H 0.83811 0.53158 0.44853 0.0
H863 H 0.70618 0.49468 0.40113 0.0
N864 N 0.74559 0.56635 0.33038 0.0
N865 N 0.71698 0.59649 0.27345 0.0
C866 C 0.75113 0.59773 0.30375 0.0
C867 C 0.70619 0.54414 0.3162 0.0
C868 C 0.68863 0.56254 0.2807 0.0
C869 C 0.8399 0.50302 0.3328 0.0
O870 O 0.87933 0.49133 0.3322 0.0
H871 H 0.7803 0.62073 0.30574 0.0
H872 H 0.69173 0.51607 0.32984 0.0
O873 O 0.81377 0.61658 0.39572 0.0
H874 H 0.72978 0.43966 0.45629 0.0
H875 H 0.65826 0.55119 0.26103 0.0
Cu876 Cu 0.58129 0.33928 0.85099 0.0
N877 N 0.54561 0.34309 0.89579 0.0
N878 N 0.48364 0.3541 0.92445 0.0
C879 C 0.50347 0.35194 0.88879 0.0
C880 C 0.51447 0.34584 0.95537 0.0
C881 C 0.55272 0.33931 0.93771 0.0
O882 O 0.53901 0.31004 0.80733 0.0
C883 C 0.61502 0.42323 0.87035 0.0
O884 O 0.58078 0.42714 0.89087 0.0
H885 H 0.48718 0.3558 0.8577 0.0
H886 H 0.5831 0.3317 0.9542 0.0
N887 N 0.62861 0.30709 0.85289 0.0
N888 N 0.6827 0.27939 0.82355 0.0
C889 C 0.64428 0.29586 0.81688 0.0
C890 C 0.65819 0.2974 0.88395 0.0
C891 C 0.69131 0.28009 0.86601 0.0
C892 C 0.52543 0.27345 0.81872 0.0
O893 O 0.5423 0.26138 0.85515 0.0
H894 H 0.62819 0.3013 0.78617 0.0
H895 H 0.65712 0.30433 0.91703 0.0
O896 O 0.61074 0.39485 0.84136 0.0
H897 H 0.50921 0.34334 0.9882 0.0
H898 H 0.72062 0.27084 0.88309 0.0
Cu899 Cu 0.55611 0.84128 0.80685 0.0
N900 N 0.58641 0.82772 0.85771 0.0
N901 N 0.6309 0.79209 0.8988 0.0
C902 C 0.61302 0.79785 0.8593 0.0
C903 C 0.61535 0.82019 0.92318 0.0
C904 C 0.58783 0.84215 0.8977 0.0
O905 O 0.59758 0.87736 0.77822 0.0
C906 C 0.51064 0.76308 0.79692 0.0
O907 O 0.50882 0.77035 0.83719 0.0
H908 H 0.61877 0.78043 0.83161 0.0
H909 H 0.56975 0.86636 0.90776 0.0
N910 N 0.50574 0.86776 0.80966 0.0
N911 N 0.44222 0.88896 0.78254 0.0
C912 C 0.47436 0.86541 0.77658 0.0
C913 C 0.4933 0.89392 0.83801 0.0
C914 C 0.45403 0.9071 0.8213 0.0
C915 C 0.61306 0.87148 0.74351 0.0
O916 O 0.60041 0.83649 0.72144 0.0
H917 H 0.47641 0.84801 0.74775 0.0
H918 H 0.5119 0.90364 0.86803 0.0
O919 O 0.53295 0.78977 0.77622 0.0
H920 H 0.62214 0.82376 0.95705 0.0
H921 H 0.43604 0.92876 0.83631 0.0
Cu922 Cu 0.55036 0.84915 0.2981 0.0
N923 N 0.52086 0.85916 0.34509 0.0
N924 N 0.46198 0.86665 0.3789 0.0
C925 C 0.47818 0.8658 0.34142 0.0
C926 C 0.49569 0.86031 0.40758 0.0
C927 C 0.53213 0.85569 0.38662 0.0
O928 O 0.50588 0.81672 0.25742 0.0
C929 C 0.60729 0.92888 0.28187 0.0
O930 O 0.61016 0.96075 0.25724 0.0
H931 H 0.45848 0.86724 0.31146 0.0
H932 H 0.56363 0.84806 0.40056 0.0
N933 N 0.59452 0.81473 0.30615 0.0
N934 N 0.63738 0.77052 0.28255 0.0
C935 C 0.61508 0.80302 0.27375 0.0
C936 C 0.60393 0.78881 0.33703 0.0
C937 C 0.63073 0.76165 0.32266 0.0
C938 C 0.48908 0.78328 0.27293 0.0
O939 O 0.50186 0.77688 0.31248 0.0
H940 H 0.60985 0.81571 0.24295 0.0
H941 H 0.58967 0.78758 0.36655 0.0
O942 O 0.57285 0.9016 0.27451 0.0
H943 H 0.49327 0.85675 0.44086 0.0
H944 H 0.64232 0.7361 0.3397 0.0
Cu945 Cu 0.61052 0.34714 0.35322 0.0
N946 N 0.57607 0.2962 0.3378 0.0
N947 N 0.5279 0.24099 0.34956 0.0
C948 C 0.54968 0.27772 0.36495 0.0
C949 C 0.54066 0.23598 0.31083 0.0
C950 C 0.57075 0.27028 0.30361 0.0
O951 O 0.56457 0.38179 0.36253 0.0
C952 C 0.67509 0.305 0.3835 0.0
O953 O 0.67361 0.30221 0.34231 0.0
H954 H 0.54699 0.29083 0.39586 0.0
H955 H 0.58767 0.27569 0.27581 0.0
N956 N 0.64325 0.37288 0.31181 0.0
N957 N 0.69472 0.41449 0.28138 0.0
C958 C 0.68198 0.39902 0.31791 0.0
C959 C 0.63094 0.37204 0.27023 0.0
C960 C 0.6622 0.39757 0.25155 0.0
C961 C 0.53299 0.37966 0.33245 0.0
O962 O 0.53509 0.35755 0.29805 0.0
H963 H 0.70053 0.40611 0.3485 0.0
H964 H 0.60108 0.35438 0.25449 0.0
O965 O 0.65145 0.3298 0.39919 0.0
H966 H 0.52954 0.20924 0.28968 0.0
H967 H 0.66058 0.40327 0.21829 0.0
loop_
_geom_bond_atom_site_label_1
_geom_bond_atom_site_label_2
_geom_bond_distance
_geom_bond_site_symmetry_2
_ccdc_geom_bond_type
H0 C7 0.929 . S
H1 C10 0.930 . S
H2 C12 0.929 . S
H3 C4 0.969 . S
C4 H3 0.969 . S
C4 O5 1.550 . S
C4 H6 0.973 . S
O5 C4 1.550 . S
O5 C11 1.412 . S
H6 C4 0.973 . S
C7 H0 0.929 . S
C7 C8 1.400 . S
C7 C9 1.364 . S
C8 C7 1.400 . S
C8 C12 1.377 . S
C9 C7 1.364 . S
C9 C10 1.374 . S
C10 H1 0.930 . S
C10 C9 1.374 . S
C10 C11 1.383 . S
C11 O5 1.412 . S
C11 C10 1.383 . S
C11 C12 1.394 . S
C12 H2 0.929 . S
C12 C8 1.377 . S
C12 C11 1.394 . S
H13 C20 0.929 . S
H14 C23 0.930 . S
H15 C25 0.929 . S
H16 C17 0.969 . S
C17 H16 0.969 . S
C17 O18 1.550 . S
C17 H19 0.973 . S
O18 C17 1.550 . S
O18 C24 1.412 . S
H19 C17 0.973 . S
C20 H13 0.929 . S
C20 C21 1.400 . S
C20 C22 1.364 . S
C21 C20 1.400 . S
C21 C25 1.377 . S
C22 C20 1.364 . S
C22 C23 1.374 . S
C23 H14 0.930 . S
C23 C22 1.374 . S
C23 C24 1.383 . S
C24 O18 1.412 . S
C24 C23 1.383 . S
C24 C25 1.394 . S
C25 H15 0.929 . S
C25 C21 1.377 . S
C25 C24 1.394 . S
H26 C33 0.929 . S
H27 C36 0.930 . S
H28 C38 0.929 . S
H29 C30 0.969 . S
C30 H29 0.969 . S
C30 O31 1.550 . S
C30 H32 0.973 . S
O31 C30 1.550 . S
O31 C37 1.412 . S
H32 C30 0.973 . S
C33 H26 0.929 . S
C33 C34 1.400 . S
C33 C35 1.364 . S
C34 C33 1.400 . S
C34 C38 1.377 . S
C35 C33 1.364 . S
C35 C36 1.374 . S
C36 H27 0.930 . S
C36 C35 1.374 . S
C36 C37 1.383 . S
C37 O31 1.412 . S
C37 C36 1.383 . S
C37 C38 1.394 . S
C38 H28 0.929 . S
C38 C34 1.377 . S
C38 C37 1.394 . S
H39 C46 0.929 . S
H40 C49 0.930 . S
H41 C51 0.929 . S
H42 C43 0.969 . S
C43 H42 0.969 . S
C43 O44 1.550 . S
C43 H45 0.973 . S
O44 C43 1.550 . S
O44 C50 1.412 . S
H45 C43 0.973 . S
C46 H39 0.929 . S
C46 C47 1.400 . S
C46 C48 1.364 . S
C47 C46 1.400 . S
C47 C51 1.377 . S
C48 C46 1.364 . S
C48 C49 1.374 . S
C49 H40 0.930 . S
C49 C48 1.374 . S
C49 C50 1.383 . S
C50 O44 1.412 . S
C50 C49 1.383 . S
C50 C51 1.394 . S
C51 H41 0.929 . S
C51 C47 1.377 . S
C51 C50 1.394 . S
H52 C59 0.929 . S
H53 C62 0.930 . S
H54 C64 0.929 . S
H55 C56 0.969 . S
C56 H55 0.969 . S
C56 O57 1.550 . S
C56 H58 0.973 . S
O57 C56 1.550 . S
O57 C63 1.412 . S
H58 C56 0.973 . S
C59 H52 0.929 . S
C59 C60 1.400 . S
C59 C61 1.364 . S
C60 C59 1.400 . S
C60 C64 1.377 . S
C61 C59 1.364 . S
C61 C62 1.374 . S
C62 H53 0.930 . S
C62 C61 1.374 . S
C62 C63 1.383 . S
C63 O57 1.412 . S
C63 C62 1.383 . S
C63 C64 1.394 . S
C64 H54 0.929 . S
C64 C60 1.377 . S
C64 C63 1.394 . S
H65 C72 0.929 . S
H66 C75 0.930 . S
H67 C77 0.929 . S
H68 C69 0.969 . S
C69 H68 0.969 . S
C69 O70 1.550 . S
C69 H71 0.973 . S
O70 C69 1.550 . S
O70 C76 1.412 . S
H71 C69 0.973 . S
C72 H65 0.929 . S
C72 C73 1.400 . S
C72 C74 1.364 . S
C73 C72 1.400 . S
C73 C77 1.377 . S
C74 C72 1.364 . S
C74 C75 1.374 . S
C75 H66 0.930 . S
C75 C74 1.374 . S
C75 C76 1.383 . S
C76 O70 1.412 . S
C76 C75 1.383 . S
C76 C77 1.394 . S
C77 H67 0.929 . S
C77 C73 1.377 . S
C77 C76 1.394 . S
H78 C85 0.929 . S
H79 C88 0.930 . S
H80 C90 0.929 . S
H81 C82 0.969 . S
C82 H81 0.969 . S
C82 O83 1.550 . S
C82 H84 0.973 . S
O83 C82 1.550 . S
O83 C89 1.412 . S
H84 C82 0.973 . S
C85 H78 0.929 . S
C85 C86 1.400 . S
C85 C87 1.364 . S
C86 C85 1.400 . S
C86 C90 1.377 . S
C87 C85 1.364 . S
C87 C88 1.374 . S
C88 H79 0.930 . S
C88 C87 1.374 . S
C88 C89 1.383 . S
C89 O83 1.412 . S
C89 C88 1.383 . S
C89 C90 1.394 . S
C90 H80 0.929 . S
C90 C86 1.377 . S
C90 C89 1.394 . S
H91 C98 0.929 . S
H92 C101 0.930 . S
H93 C103 0.929 . S
H94 C95 0.969 . S
C95 H94 0.969 . S
C95 O96 1.550 . S
C95 H97 0.973 . S
O96 C95 1.550 . S
O96 C102 1.412 . S
H97 C95 0.973 . S
C98 H91 0.929 . S
C98 C99 1.400 . S
C98 C100 1.364 . S
C99 C98 1.400 . S
C99 C103 1.377 . S
C100 C98 1.364 . S
C100 C101 1.374 . S
C101 H92 0.930 . S
C101 C100 1.374 . S
C101 C102 1.383 . S
C102 O96 1.412 . S
C102 C101 1.383 . S
C102 C103 1.394 . S
C103 H93 0.929 . S
C103 C99 1.377 . S
C103 C102 1.394 . S
H104 C111 0.929 . S
H105 C114 0.930 . S
H106 C116 0.929 . S
H107 C108 0.969 . S
C108 H107 0.969 . S
C108 O109 1.550 . S
C108 H110 0.973 . S
O109 C108 1.550 . S
O109 C115 1.412 . S
H110 C108 0.973 . S
C111 H104 0.929 . S
C111 C112 1.400 . S
C111 C113 1.364 . S
C112 C111 1.400 . S
C112 C116 1.377 . S
C113 C111 1.364 . S
C113 C114 1.374 . S
C114 H105 0.930 . S
C114 C113 1.374 . S
C114 C115 1.383 . S
C115 O109 1.412 . S
C115 C114 1.383 . S
C115 C116 1.394 . S
C116 H106 0.929 . S
C116 C112 1.377 . S
C116 C115 1.394 . S
H117 C124 0.929 . S
H118 C127 0.930 . S
H119 C129 0.929 . S
H120 C121 0.969 . S
C121 H120 0.969 . S
C121 O122 1.550 . S
C121 H123 0.973 . S
O122 C121 1.550 . S
O122 C128 1.412 . S
H123 C121 0.973 . S
C124 H117 0.929 . S
C124 C125 1.400 . S
C124 C126 1.364 . S
C125 C124 1.400 . S
C125 C129 1.377 . S
C126 C124 1.364 . S
C126 C127 1.374 . S
C127 H118 0.930 . S
C127 C126 1.374 . S
C127 C128 1.383 . S
C128 O122 1.412 . S
C128 C127 1.383 . S
C128 C129 1.394 . S
C129 H119 0.929 . S
C129 C125 1.377 . S
C129 C128 1.394 . S
H130 C137 0.929 . S
H131 C140 0.930 . S
H132 C142 0.929 . S
H133 C134 0.969 . S
C134 H133 0.969 . S
C134 O135 1.550 . S
C134 H136 0.973 . S
O135 C134 1.550 . S
O135 C141 1.412 . S
H136 C134 0.973 . S
C137 H130 0.929 . S
C137 C138 1.400 . S
C137 C139 1.364 . S
C138 C137 1.400 . S
C138 C142 1.377 . S
C139 C137 1.364 . S
C139 C140 1.374 . S
C140 H131 0.930 . S
C140 C139 1.374 . S
C140 C141 1.383 . S
C141 O135 1.412 . S
C141 C140 1.383 . S
C141 C142 1.394 . S
C142 H132 0.929 . S
C142 C138 1.377 . S
C142 C141 1.394 . S
H143 C150 0.929 . S
H144 C153 0.930 . S
H145 C155 0.929 . S
H146 C147 0.969 . S
C147 H146 0.969 . S
C147 O148 1.550 . S
C147 H149 0.973 . S
O148 C147 1.550 . S
O148 C154 1.412 . S
H149 C147 0.973 . S
C150 H143 0.929 . S
C150 C151 1.400 . S
C150 C152 1.364 . S
C151 C150 1.400 . S
C151 C155 1.377 . S
C152 C150 1.364 . S
C152 C153 1.374 . S
C153 H144 0.930 . S
C153 C152 1.374 . S
C153 C154 1.383 . S
C154 O148 1.412 . S
C154 C153 1.383 . S
C154 C155 1.394 . S
C155 H145 0.929 . S
C155 C151 1.377 . S
C155 C154 1.394 . S
H156 C163 0.929 . S
H157 C166 0.930 . S
H158 C168 0.929 . S
H159 C160 0.969 . S
C160 H159 0.969 . S
C160 O161 1.550 . S
C160 H162 0.973 . S
O161 C160 1.550 . S
O161 C167 1.412 . S
H162 C160 0.973 . S
C163 H156 0.929 . S
C163 C164 1.400 . S
C163 C165 1.364 . S
C164 C163 1.400 . S
C164 C168 1.377 . S
C165 C163 1.364 . S
C165 C166 1.374 . S
C166 H157 0.930 . S
C166 C165 1.374 . S
C166 C167 1.383 . S
C167 O161 1.412 . S
C167 C166 1.383 . S
C167 C168 1.394 . S
C168 H158 0.929 . S
C168 C164 1.377 . S
C168 C167 1.394 . S
H169 C176 0.929 . S
H170 C179 0.930 . S
H171 C181 0.929 . S
H172 C173 0.969 . S
C173 H172 0.969 . S
C173 O174 1.550 . S
C173 H175 0.973 . S
O174 C173 1.550 . S
O174 C180 1.412 . S
H175 C173 0.973 . S
C176 H169 0.929 . S
C176 C177 1.400 . S
C176 C178 1.364 . S
C177 C176 1.400 . S
C177 C181 1.377 . S
C178 C176 1.364 . S
C178 C179 1.374 . S
C179 H170 0.930 . S
C179 C178 1.374 . S
C179 C180 1.383 . S
C180 O174 1.412 . S
C180 C179 1.383 . S
C180 C181 1.394 . S
C181 H171 0.929 . S
C181 C177 1.377 . S
C181 C180 1.394 . S
H182 C189 0.929 . S
H183 C192 0.930 . S
H184 C194 0.929 . S
H185 C186 0.969 . S
C186 H185 0.969 . S
C186 O187 1.550 . S
C186 H188 0.973 . S
O187 C186 1.550 . S
O187 C193 1.412 . S
H188 C186 0.973 . S
C189 H182 0.929 . S
C189 C190 1.400 . S
C189 C191 1.364 . S
C190 C189 1.400 . S
C190 C194 1.377 . S
C191 C189 1.364 . S
C191 C192 1.374 . S
C192 H183 0.930 . S
C192 C191 1.374 . S
C192 C193 1.383 . S
C193 O187 1.412 . S
C193 C192 1.383 . S
C193 C194 1.394 . S
C194 H184 0.929 . S
C194 C190 1.377 . S
C194 C193 1.394 . S
H195 C202 0.929 . S
H196 C205 0.930 . S
H197 C207 0.929 . S
H198 C199 0.969 . S
C199 H198 0.969 . S
C199 O200 1.550 . S
C199 H201 0.973 . S
O200 C199 1.550 . S
O200 C206 1.412 . S
H201 C199 0.973 . S
C202 H195 0.929 . S
C202 C203 1.400 . S
C202 C204 1.364 . S
C203 C202 1.400 . S
C203 C207 1.377 . S
C204 C202 1.364 . S
C204 C205 1.374 . S
C205 H196 0.930 . S
C205 C204 1.374 . S
C205 C206 1.383 . S
C206 O200 1.412 . S
C206 C205 1.383 . S
C206 C207 1.394 . S
C207 H197 0.929 . S
C207 C203 1.377 . S
C207 C206 1.394 . S
H208 C215 0.929 . S
H209 C218 0.930 . S
H210 C220 0.929 . S
H211 C212 0.969 . S
C212 H211 0.969 . S
C212 O213 1.550 . S
C212 H214 0.973 . S
O213 C212 1.550 . S
O213 C219 1.412 . S
H214 C212 0.973 . S
C215 H208 0.929 . S
C215 C216 1.400 . S
C215 C217 1.364 . S
C216 C215 1.400 . S
C216 C220 1.377 . S
C217 C215 1.364 . S
C217 C218 1.374 . S
C218 H209 0.930 . S
C218 C217 1.374 . S
C218 C219 1.383 . S
C219 O213 1.412 . S
C219 C218 1.383 . S
C219 C220 1.394 . S
C220 H210 0.929 . S
C220 C216 1.377 . S
C220 C219 1.394 . S
H221 C228 0.929 . S
H222 C231 0.930 . S
H223 C233 0.929 . S
H224 C225 0.969 . S
C225 H224 0.969 . S
C225 O226 1.550 . S
C225 H227 0.973 . S
O226 C225 1.550 . S
O226 C232 1.412 . S
H227 C225 0.973 . S
C228 H221 0.929 . S
C228 C229 1.400 . S
C228 C230 1.364 . S
C229 C228 1.400 . S
C229 C233 1.377 . S
C230 C228 1.364 . S
C230 C231 1.374 . S
C231 H222 0.930 . S
C231 C230 1.374 . S
C231 C232 1.383 . S
C232 O226 1.412 . S
C232 C231 1.383 . S
C232 C233 1.394 . S
C233 H223 0.929 . S
C233 C229 1.377 . S
C233 C232 1.394 . S
H234 C241 0.929 . S
H235 C244 0.930 . S
H236 C246 0.929 . S
H237 C238 0.969 . S
C238 H237 0.969 . S
C238 O239 1.550 . S
C238 H240 0.973 . S
O239 C238 1.550 . S
O239 C245 1.412 . S
H240 C238 0.973 . S
C241 H234 0.929 . S
C241 C242 1.400 . S
C241 C243 1.364 . S
C242 C241 1.400 . S
C242 C246 1.377 . S
C243 C241 1.364 . S
C243 C244 1.374 . S
C244 H235 0.930 . S
C244 C243 1.374 . S
C244 C245 1.383 . S
C245 O239 1.412 . S
C245 C244 1.383 . S
C245 C246 1.394 . S
C246 H236 0.929 . S
C246 C242 1.377 . S
C246 C245 1.394 . S
H247 C254 0.929 . S
H248 C257 0.930 . S
H249 C259 0.929 . S
H250 C251 0.969 . S
C251 H250 0.969 . S
C251 O252 1.550 . S
C251 H253 0.973 . S
O252 C251 1.550 . S
O252 C258 1.412 . S
H253 C251 0.973 . S
C254 H247 0.929 . S
C254 C255 1.400 . S
C254 C256 1.364 . S
C255 C254 1.400 . S
C255 C259 1.377 . S
C256 C254 1.364 . S
C256 C257 1.374 . S
C257 H248 0.930 . S
C257 C256 1.374 . S
C257 C258 1.383 . S
C258 O252 1.412 . S
C258 C257 1.383 . S
C258 C259 1.394 . S
C259 H249 0.929 . S
C259 C255 1.377 . S
C259 C258 1.394 . S
H260 C267 0.929 . S
H261 C270 0.930 . S
H262 C272 0.929 . S
H263 C264 0.969 . S
C264 H263 0.969 . S
C264 O265 1.550 . S
C264 H266 0.973 . S
O265 C264 1.550 . S
O265 C271 1.412 . S
H266 C264 0.973 . S
C267 H260 0.929 . S
C267 C268 1.400 . S
C267 C269 1.364 . S
C268 C267 1.400 . S
C268 C272 1.377 . S
C269 C267 1.364 . S
C269 C270 1.374 . S
C270 H261 0.930 . S
C270 C269 1.374 . S
C270 C271 1.383 . S
C271 O265 1.412 . S
C271 C270 1.383 . S
C271 C272 1.394 . S
C272 H262 0.929 . S
C272 C268 1.377 . S
C272 C271 1.394 . S
H273 C280 0.929 . S
H274 C283 0.930 . S
H275 C285 0.929 . S
H276 C277 0.969 . S
C277 H276 0.969 . S
C277 O278 1.550 . S
C277 H279 0.973 . S
O278 C277 1.550 . S
O278 C284 1.412 . S
H279 C277 0.973 . S
C280 H273 0.929 . S
C280 C281 1.400 . S
C280 C282 1.364 . S
C281 C280 1.400 . S
C281 C285 1.377 . S
C282 C280 1.364 . S
C282 C283 1.374 . S
C283 H274 0.930 . S
C283 C282 1.374 . S
C283 C284 1.383 . S
C284 O278 1.412 . S
C284 C283 1.383 . S
C284 C285 1.394 . S
C285 H275 0.929 . S
C285 C281 1.377 . S
C285 C284 1.394 . S
H286 C293 0.929 . S
H287 C296 0.930 . S
H288 C298 0.929 . S
H289 C290 0.969 . S
C290 H289 0.969 . S
C290 O291 1.550 . S
C290 H292 0.973 . S
O291 C290 1.550 . S
O291 C297 1.412 . S
H292 C290 0.973 . S
C293 H286 0.929 . S
C293 C294 1.400 . S
C293 C295 1.364 . S
C294 C293 1.400 . S
C294 C298 1.377 . S
C295 C293 1.364 . S
C295 C296 1.374 . S
C296 H287 0.930 . S
C296 C295 1.374 . S
C296 C297 1.383 . S
C297 O291 1.412 . S
C297 C296 1.383 . S
C297 C298 1.394 . S
C298 H288 0.929 . S
C298 C294 1.377 . S
C298 C297 1.394 . S
H299 C306 0.929 . S
H300 C309 0.930 . S
H301 C311 0.929 . S
H302 C303 0.969 . S
C303 H302 0.969 . S
C303 O304 1.550 . S
C303 H305 0.973 . S
O304 C303 1.550 . S
O304 C310 1.412 . S
H305 C303 0.973 . S
C306 H299 0.929 . S
C306 C307 1.400 . S
C306 C308 1.364 . S
C307 C306 1.400 . S
C307 C311 1.377 . S
C308 C306 1.364 . S
C308 C309 1.374 . S
C309 H300 0.930 . S
C309 C308 1.374 . S
C309 C310 1.383 . S
C310 O304 1.412 . S
C310 C309 1.383 . S
C310 C311 1.394 . S
C311 H301 0.929 . S
C311 C307 1.377 . S
C311 C310 1.394 . S
H312 C319 0.929 . S
H313 C322 0.930 . S
H314 C324 0.929 . S
H315 C316 0.969 . S
C316 H315 0.969 . S
C316 O317 1.550 . S
C316 H318 0.973 . S
O317 C316 1.550 . S
O317 C323 1.412 . S
H318 C316 0.973 . S
C319 H312 0.929 . S
C319 C320 1.400 . S
C319 C321 1.364 . S
C320 C319 1.400 . S
C320 C324 1.377 . S
C321 C319 1.364 . S
C321 C322 1.374 . S
C322 H313 0.930 . S
C322 C321 1.374 . S
C322 C323 1.383 . S
C323 O317 1.412 . S
C323 C322 1.383 . S
C323 C324 1.394 . S
C324 H314 0.929 . S
C324 C320 1.377 . S
C324 C323 1.394 . S
H325 C332 0.929 . S
H326 C335 0.930 . S
H327 C337 0.929 . S
H328 C329 0.969 . S
C329 H328 0.969 . S
C329 O330 1.550 . S
C329 H331 0.973 . S
O330 C329 1.550 . S
O330 C336 1.412 . S
H331 C329 0.973 . S
C332 H325 0.929 . S
C332 C333 1.400 . S
C332 C334 1.364 . S
C333 C332 1.400 . S
C333 C337 1.377 . S
C334 C332 1.364 . S
C334 C335 1.374 . S
C335 H326 0.930 . S
C335 C334 1.374 . S
C335 C336 1.383 . S
C336 O330 1.412 . S
C336 C335 1.383 . S
C336 C337 1.394 . S
C337 H327 0.929 . S
C337 C333 1.377 . S
C337 C336 1.394 . S
H338 C345 0.929 . S
H339 C348 0.930 . S
H340 C350 0.929 . S
H341 C342 0.969 . S
C342 H341 0.969 . S
C342 O343 1.550 . S
C342 H344 0.973 . S
O343 C342 1.550 . S
O343 C349 1.412 . S
H344 C342 0.973 . S
C345 H338 0.929 . S
C345 C346 1.400 . S
C345 C347 1.364 . S
C346 C345 1.400 . S
C346 C350 1.377 . S
C347 C345 1.364 . S
C347 C348 1.374 . S
C348 H339 0.930 . S
C348 C347 1.374 . S
C348 C349 1.383 . S
C349 O343 1.412 . S
C349 C348 1.383 . S
C349 C350 1.394 . S
C350 H340 0.929 . S
C350 C346 1.377 . S
C350 C349 1.394 . S
H351 C358 0.929 . S
H352 C361 0.930 . S
H353 C363 0.929 . S
H354 C355 0.969 . S
C355 H354 0.969 . S
C355 O356 1.550 . S
C355 H357 0.973 . S
O356 C355 1.550 . S
O356 C362 1.412 . S
H357 C355 0.973 . S
C358 H351 0.929 . S
C358 C359 1.400 . S
C358 C360 1.364 . S
C359 C358 1.400 . S
C359 C363 1.377 . S
C360 C358 1.364 . S
C360 C361 1.374 . S
C361 H352 0.930 . S
C361 C360 1.374 . S
C361 C362 1.383 . S
C362 O356 1.412 . S
C362 C361 1.383 . S
C362 C363 1.394 . S
C363 H353 0.929 . S
C363 C359 1.377 . S
C363 C362 1.394 . S
H364 C371 0.929 . S
H365 C374 0.930 . S
H366 C376 0.929 . S
H367 C368 0.969 . S
C368 H367 0.969 . S
C368 O369 1.550 . S
C368 H370 0.973 . S
O369 C368 1.550 . S
O369 C375 1.412 . S
H370 C368 0.973 . S
C371 H364 0.929 . S
C371 C372 1.400 . S
C371 C373 1.364 . S
C372 C371 1.400 . S
C372 C376 1.377 . S
C373 C371 1.364 . S
C373 C374 1.374 . S
C374 H365 0.930 . S
C374 C373 1.374 . S
C374 C375 1.383 . S
C375 O369 1.412 . S
C375 C374 1.383 . S
C375 C376 1.394 . S
C376 H366 0.929 . S
C376 C372 1.377 . S
C376 C375 1.394 . S
H377 C384 0.929 . S
H378 C387 0.930 . S
H379 C389 0.929 . S
H380 C381 0.969 . S
C381 H380 0.969 . S
C381 O382 1.550 . S
C381 H383 0.973 . S
O382 C381 1.550 . S
O382 C388 1.412 . S
H383 C381 0.973 . S
C384 H377 0.929 . S
C384 C385 1.400 . S
C384 C386 1.364 . S
C385 C384 1.400 . S
C385 C389 1.377 . S
C386 C384 1.364 . S
C386 C387 1.374 . S
C387 H378 0.930 . S
C387 C386 1.374 . S
C387 C388 1.383 . S
C388 O382 1.412 . S
C388 C387 1.383 . S
C388 C389 1.394 . S
C389 H379 0.929 . S
C389 C385 1.377 . S
C389 C388 1.394 . S
H390 C397 0.929 . S
H391 C400 0.930 . S
H392 C402 0.929 . S
H393 C394 0.969 . S
C394 H393 0.969 . S
C394 O395 1.550 . S
C394 H396 0.973 . S
O395 C394 1.550 . S
O395 C401 1.412 . S
H396 C394 0.973 . S
C397 H390 0.929 . S
C397 C398 1.400 . S
C397 C399 1.364 . S
C398 C397 1.400 . S
C398 C402 1.377 . S
C399 C397 1.364 . S
C399 C400 1.374 . S
C400 H391 0.930 . S
C400 C399 1.374 . S
C400 C401 1.383 . S
C401 O395 1.412 . S
C401 C400 1.383 . S
C401 C402 1.394 . S
C402 H392 0.929 . S
C402 C398 1.377 . S
C402 C401 1.394 . S
H403 C410 0.929 . S
H404 C413 0.930 . S
H405 C415 0.929 . S
H406 C407 0.969 . S
C407 H406 0.969 . S
C407 O408 1.550 . S
C407 H409 0.973 . S
O408 C407 1.550 . S
O408 C414 1.412 . S
H409 C407 0.973 . S
C410 H403 0.929 . S
C410 C411 1.400 . S
C410 C412 1.364 . S
C411 C410 1.400 . S
C411 C415 1.377 . S
C412 C410 1.364 . S
C412 C413 1.374 . S
C413 H404 0.930 . S
C413 C412 1.374 . S
C413 C414 1.383 . S
C414 O408 1.412 . S
C414 C413 1.383 . S
C414 C415 1.394 . S
C415 H405 0.929 . S
C415 C411 1.377 . S
C415 C414 1.394 . S
Cu416 N417 1.999 . S
Cu416 O422 1.974 . S
Cu416 N427 1.985 . S
Cu416 O436 1.959 . S
N417 Cu416 1.999 . S
N417 C419 1.263 . S
N417 C421 1.389 . S
N418 C419 1.358 1_556 S
N418 C420 1.400 1_556 S
C419 N417 1.263 . S
C419 N418 1.358 1_554 S
C419 H425 0.930 1_554 S
C420 N418 1.400 1_554 S
C420 C421 1.351 . S
C420 H437 0.930 . S
C421 N417 1.389 . S
C421 C420 1.351 . S
C421 H426 0.930 . S
O422 Cu416 1.974 . S
O422 C432 1.282 . S
C423 O424 1.261 . S
C423 O436 1.251 . S
O424 C423 1.261 . S
H425 C419 0.930 1_556 S
H426 C421 0.930 . S
N427 Cu416 1.985 . S
N427 C429 1.335 . S
N427 C430 1.390 . S
N428 C429 1.345 . S
N428 C431 1.336 . S
C429 N427 1.335 . S
C429 N428 1.345 . S
C429 H434 0.930 . S
C430 N427 1.390 . S
C430 C431 1.346 . S
C430 H435 0.930 . S
C431 N428 1.336 . S
C431 C430 1.346 . S
C431 H438 0.929 . S
C432 O422 1.282 . S
C432 O433 1.216 . S
O433 C432 1.216 . S
H434 C429 0.930 . S
H435 C430 0.930 . S
O436 Cu416 1.959 . S
O436 C423 1.251 . S
H437 C420 0.930 . S
H438 C431 0.929 . S
Cu439 N440 1.999 . S
Cu439 O445 1.974 . S
Cu439 N450 1.985 1_554 S
Cu439 O459 1.959 1_554 S
N440 Cu439 1.999 . S
N440 C442 1.263 . S
N440 C444 1.389 . S
N441 C442 1.358 . S
N441 C443 1.400 . S
C442 N440 1.263 . S
C442 N441 1.358 . S
C442 H448 0.930 . S
C443 N441 1.400 . S
C443 C444 1.351 . S
C443 H460 0.930 . S
C444 N440 1.389 . S
C444 C443 1.351 . S
C444 H449 0.930 . S
O445 Cu439 1.974 . S
O445 C455 1.282 . S
C446 O447 1.261 . S
C446 O459 1.251 . S
O447 C446 1.261 . S
H448 C442 0.930 . S
H449 C444 0.930 . S
N450 Cu439 1.985 1_556 S
N450 C452 1.335 . S
N450 C453 1.390 1_556 S
N451 C452 1.345 . S
N451 C454 1.336 . S
C452 N450 1.335 . S
C452 N451 1.345 . S
C452 H457 0.930 . S
C453 N450 1.390 1_554 S
C453 C454 1.346 1_554 S
C453 H458 0.930 . S
C454 N451 1.336 . S
C454 C453 1.346 1_556 S
C454 H461 0.929 . S
C455 O445 1.282 . S
C455 O456 1.216 . S
O456 C455 1.216 . S
H457 C452 0.930 . S
H458 C453 0.930 . S
O459 Cu439 1.959 1_556 S
O459 C446 1.251 . S
H460 C443 0.930 . S
H461 C454 0.929 . S
Cu462 N463 1.999 . S
Cu462 O468 1.974 1_554 S
Cu462 N473 1.985 . S
Cu462 O482 1.959 . S
N463 Cu462 1.999 . S
N463 C465 1.263 1_554 S
N463 C467 1.389 . S
N464 C465 1.358 . S
N464 C466 1.400 . S
C465 N463 1.263 1_556 S
C465 N464 1.358 . S
C465 H471 0.930 . S
C466 N464 1.400 . S
C466 C467 1.351 1_556 S
C466 H483 0.930 . S
C467 N463 1.389 . S
C467 C466 1.351 1_554 S
C467 H472 0.930 . S
O468 Cu462 1.974 1_556 S
O468 C478 1.282 . S
C469 O470 1.261 . S
C469 O482 1.251 . S
O470 C469 1.261 . S
H471 C465 0.930 . S
H472 C467 0.930 . S
N473 Cu462 1.985 . S
N473 C475 1.335 . S
N473 C476 1.390 . S
N474 C475 1.345 . S
N474 C477 1.336 . S
C475 N473 1.335 . S
C475 N474 1.345 . S
C475 H480 0.930 . S
C476 N473 1.390 . S
C476 C477 1.346 . S
C476 H481 0.930 . S
C477 N474 1.336 . S
C477 C476 1.346 . S
C477 H484 0.929 . S
C478 O468 1.282 . S
C478 O479 1.216 . S
O479 C478 1.216 . S
H480 C475 0.930 . S
H481 C476 0.930 . S
O482 Cu462 1.959 . S
O482 C469 1.251 . S
H483 C466 0.930 . S
H484 C477 0.929 . S
Cu485 N486 1.999 1_556 S
Cu485 O491 1.974 1_556 S
Cu485 N496 1.985 . S
Cu485 O505 1.959 . S
N486 Cu485 1.999 1_554 S
N486 C488 1.263 . S
N486 C490 1.389 . S
N487 C488 1.358 . S
N487 C489 1.400 . S
C488 N486 1.263 . S
C488 N487 1.358 . S
C488 H494 0.930 . S
C489 N487 1.400 . S
C489 C490 1.351 . S
C489 H506 0.930 . S
C490 N486 1.389 . S
C490 C489 1.351 . S
C490 H495 0.930 1_554 S
O491 Cu485 1.974 1_554 S
O491 C501 1.282 . S
C492 O493 1.261 . S
C492 O505 1.251 . S
O493 C492 1.261 . S
H494 C488 0.930 . S
H495 C490 0.930 1_556 S
N496 Cu485 1.985 . S
N496 C498 1.335 . S
N496 C499 1.390 . S
N497 C498 1.345 . S
N497 C500 1.336 . S
C498 N496 1.335 . S
C498 N497 1.345 . S
C498 H503 0.930 . S
C499 N496 1.390 . S
C499 C500 1.346 . S
C499 H504 0.930 1_556 S
C500 N497 1.336 . S
C500 C499 1.346 . S
C500 H507 0.929 . S
C501 O491 1.282 . S
C501 O502 1.216 . S
O502 C501 1.216 . S
H503 C498 0.930 . S
H504 C499 0.930 1_554 S
O505 Cu485 1.959 . S
O505 C492 1.251 . S
H506 C489 0.930 . S
H507 C500 0.929 . S
Cu508 N509 1.999 . S
Cu508 O514 1.974 . S
Cu508 N519 1.985 . S
Cu508 O528 1.959 1_455 S
N509 Cu508 1.999 . S
N509 C511 1.263 . S
N509 C513 1.389 . S
N510 C511 1.358 . S
N510 C512 1.400 . S
C511 N509 1.263 . S
C511 N510 1.358 . S
C511 H517 0.930 . S
C512 N510 1.400 . S
C512 C513 1.351 . S
C512 H529 0.930 . S
C513 N509 1.389 . S
C513 C512 1.351 . S
C513 H518 0.930 . S
O514 Cu508 1.974 . S
O514 C524 1.282 . S
C515 O516 1.261 . S
C515 O528 1.251 . S
O516 C515 1.261 . S
H517 C511 0.930 . S
H518 C513 0.930 . S
N519 Cu508 1.985 . S
N519 C521 1.335 1_455 S
N519 C522 1.390 . S
N520 C521 1.345 . S
N520 C523 1.336 . S
C521 N519 1.335 1_655 S
C521 N520 1.345 . S
C521 H526 0.930 . S
C522 N519 1.390 . S
C522 C523 1.346 1_455 S
C522 H527 0.930 . S
C523 N520 1.336 . S
C523 C522 1.346 1_655 S
C523 H530 0.929 . S
C524 O514 1.282 . S
C524 O525 1.216 . S
O525 C524 1.216 . S
H526 C521 0.930 . S
H527 C522 0.930 . S
O528 Cu508 1.959 1_655 S
O528 C515 1.251 . S
H529 C512 0.930 . S
H530 C523 0.929 . S
Cu531 N532 1.999 . S
Cu531 O537 1.974 . S
Cu531 N542 1.985 . S
Cu531 O551 1.959 . S
N532 Cu531 1.999 . S
N532 C534 1.263 . S
N532 C536 1.389 . S
N533 C534 1.358 . S
N533 C535 1.400 . S
C534 N532 1.263 . S
C534 N533 1.358 . S
C534 H540 0.930 . S
C535 N533 1.400 . S
C535 C536 1.351 . S
C535 H552 0.930 . S
C536 N532 1.389 . S
C536 C535 1.351 . S
C536 H541 0.930 . S
O537 Cu531 1.974 . S
O537 C547 1.282 . S
C538 O539 1.261 1_565 S
C538 O551 1.251 1_565 S
O539 C538 1.261 1_545 S
H540 C534 0.930 . S
H541 C536 0.930 . S
N542 Cu531 1.985 . S
N542 C544 1.335 1_545 S
N542 C545 1.390 . S
N543 C544 1.345 . S
N543 C546 1.336 . S
C544 N542 1.335 1_565 S
C544 N543 1.345 . S
C544 H549 0.930 . S
C545 N542 1.390 . S
C545 C546 1.346 1_545 S
C545 H550 0.930 . S
C546 N543 1.336 . S
C546 C545 1.346 1_565 S
C546 H553 0.929 . S
C547 O537 1.282 . S
C547 O548 1.216 . S
O548 C547 1.216 . S
H549 C544 0.930 . S
H550 C545 0.930 . S
O551 Cu531 1.959 . S
O551 C538 1.251 1_545 S
H552 C535 0.930 . S
H553 C546 0.929 . S
Cu554 N555 1.999 . S
Cu554 O560 1.974 . S
Cu554 N565 1.985 1_655 S
Cu554 O574 1.959 1_655 S
N555 Cu554 1.999 . S
N555 C557 1.263 . S
N555 C559 1.389 . S
N556 C557 1.358 . S
N556 C558 1.400 . S
C557 N555 1.263 . S
C557 N556 1.358 . S
C557 H563 0.930 . S
C558 N556 1.400 . S
C558 C559 1.351 . S
C558 H575 0.930 . S
C559 N555 1.389 . S
C559 C558 1.351 . S
C559 H564 0.930 . S
O560 Cu554 1.974 . S
O560 C570 1.282 . S
C561 O562 1.261 . S
C561 O574 1.251 . S
O562 C561 1.261 . S
H563 C557 0.930 . S
H564 C559 0.930 . S
N565 Cu554 1.985 1_455 S
N565 C567 1.335 . S
N565 C568 1.390 . S
N566 C567 1.345 . S
N566 C569 1.336 . S
C567 N565 1.335 . S
C567 N566 1.345 . S
C567 H572 0.930 . S
C568 N565 1.390 . S
C568 C569 1.346 . S
C568 H573 0.930 . S
C569 N566 1.336 . S
C569 C568 1.346 . S
C569 H576 0.929 . S
C570 O560 1.282 . S
C570 O571 1.216 . S
O571 C570 1.216 . S
H572 C567 0.930 . S
H573 C568 0.930 . S
O574 Cu554 1.959 1_455 S
O574 C561 1.251 . S
H575 C558 0.930 . S
H576 C569 0.929 . S
Cu577 N578 1.999 . S
Cu577 O583 1.974 . S
Cu577 N588 1.985 1_545 S
Cu577 O597 1.959 1_545 S
N578 Cu577 1.999 . S
N578 C580 1.263 . S
N578 C582 1.389 . S
N579 C580 1.358 . S
N579 C581 1.400 . S
C580 N578 1.263 . S
C580 N579 1.358 . S
C580 H586 0.930 . S
C581 N579 1.400 . S
C581 C582 1.351 . S
C581 H598 0.930 . S
C582 N578 1.389 . S
C582 C581 1.351 . S
C582 H587 0.930 . S
O583 Cu577 1.974 . S
O583 C593 1.282 . S
C584 O585 1.261 . S
C584 O597 1.251 . S
O585 C584 1.261 . S
H586 C580 0.930 . S
H587 C582 0.930 . S
N588 Cu577 1.985 1_565 S
N588 C590 1.335 . S
N588 C591 1.390 . S
N589 C590 1.345 . S
N589 C592 1.336 . S
C590 N588 1.335 . S
C590 N589 1.345 . S
C590 H595 0.930 . S
C591 N588 1.390 . S
C591 C592 1.346 . S
C591 H596 0.930 . S
C592 N589 1.336 . S
C592 C591 1.346 . S
C592 H599 0.929 . S
C593 O583 1.282 . S
C593 O594 1.216 . S
O594 C593 1.216 . S
H595 C590 0.930 . S
H596 C591 0.930 . S
O597 Cu577 1.959 1_565 S
O597 C584 1.251 . S
H598 C581 0.930 . S
H599 C592 0.929 . S
Cu600 N601 1.999 . S
Cu600 O606 1.974 . S
Cu600 N611 1.985 . S
Cu600 O620 1.959 1_455 S
N601 Cu600 1.999 . S
N601 C603 1.263 . S
N601 C605 1.389 . S
N602 C603 1.358 . S
N602 C604 1.400 . S
C603 N601 1.263 . S
C603 N602 1.358 . S
C603 H609 0.930 . S
C604 N602 1.400 . S
C604 C605 1.351 . S
C604 H621 0.930 . S
C605 N601 1.389 . S
C605 C604 1.351 . S
C605 H610 0.930 . S
O606 Cu600 1.974 . S
O606 C616 1.282 . S
C607 O608 1.261 . S
C607 O620 1.251 . S
O608 C607 1.261 . S
H609 C603 0.930 . S
H610 C605 0.930 . S
N611 Cu600 1.985 . S
N611 C613 1.335 1_455 S
N611 C614 1.390 . S
N612 C613 1.345 . S
N612 C615 1.336 . S
C613 N611 1.335 1_655 S
C613 N612 1.345 . S
C613 H618 0.930 . S
C614 N611 1.390 . S
C614 C615 1.346 1_455 S
C614 H619 0.930 . S
C615 N612 1.336 . S
C615 C614 1.346 1_655 S
C615 H622 0.929 . S
C616 O606 1.282 . S
C616 O617 1.216 . S
O617 C616 1.216 . S
H618 C613 0.930 . S
H619 C614 0.930 . S
O620 Cu600 1.959 1_655 S
O620 C607 1.251 . S
H621 C604 0.930 . S
H622 C615 0.929 . S
Cu623 N624 1.999 . S
Cu623 O629 1.974 . S
Cu623 N634 1.985 . S
Cu623 O643 1.959 . S
N624 Cu623 1.999 . S
N624 C626 1.263 . S
N624 C628 1.389 . S
N625 C626 1.358 . S
N625 C627 1.400 . S
C626 N624 1.263 . S
C626 N625 1.358 . S
C626 H632 0.930 . S
C627 N625 1.400 . S
C627 C628 1.351 . S
C627 H644 0.930 . S
C628 N624 1.389 . S
C628 C627 1.351 . S
C628 H633 0.930 . S
O629 Cu623 1.974 . S
O629 C639 1.282 . S
C630 O631 1.261 . S
C630 O643 1.251 . S
O631 C630 1.261 . S
H632 C626 0.930 . S
H633 C628 0.930 . S
N634 Cu623 1.985 . S
N634 C636 1.335 1_545 S
N634 C637 1.390 . S
N635 C636 1.345 . S
N635 C638 1.336 . S
C636 N634 1.335 1_565 S
C636 N635 1.345 . S
C636 H641 0.930 . S
C637 N634 1.390 . S
C637 C638 1.346 1_545 S
C637 H642 0.930 . S
C638 N635 1.336 . S
C638 C637 1.346 1_565 S
C638 H645 0.929 . S
C639 O629 1.282 . S
C639 O640 1.216 . S
O640 C639 1.216 . S
H641 C636 0.930 . S
H642 C637 0.930 . S
O643 Cu623 1.959 . S
O643 C630 1.251 . S
H644 C627 0.930 . S
H645 C638 0.929 . S
Cu646 N647 1.999 . S
Cu646 O652 1.974 . S
Cu646 N657 1.985 . S
Cu646 O666 1.959 . S
N647 Cu646 1.999 . S
N647 C649 1.263 1_455 S
N647 C651 1.389 . S
N648 C649 1.358 . S
N648 C650 1.400 . S
C649 N647 1.263 1_655 S
C649 N648 1.358 . S
C649 H655 0.930 . S
C650 N648 1.400 . S
C650 C651 1.351 1_655 S
C650 H667 0.930 . S
C651 N647 1.389 . S
C651 C650 1.351 1_455 S
C651 H656 0.930 . S
O652 Cu646 1.974 . S
O652 C662 1.282 1_455 S
C653 O654 1.261 . S
C653 O666 1.251 . S
O654 C653 1.261 . S
H655 C649 0.930 . S
H656 C651 0.930 . S
N657 Cu646 1.985 . S
N657 C659 1.335 . S
N657 C660 1.390 . S
N658 C659 1.345 . S
N658 C661 1.336 . S
C659 N657 1.335 . S
C659 N658 1.345 . S
C659 H664 0.930 . S
C660 N657 1.390 . S
C660 C661 1.346 . S
C660 H665 0.930 . S
C661 N658 1.336 . S
C661 C660 1.346 . S
C661 H668 0.929 . S
C662 O652 1.282 1_655 S
C662 O663 1.216 1_655 S
O663 C662 1.216 1_455 S
H664 C659 0.930 . S
H665 C660 0.930 . S
O666 Cu646 1.959 . S
O666 C653 1.251 . S
H667 C650 0.930 . S
H668 C661 0.929 . S
Cu669 N670 1.999 . S
Cu669 O675 1.974 . S
Cu669 N680 1.998 . S
Cu669 O689 1.959 . S
N670 Cu669 1.999 . S
N670 C672 1.263 . S
N670 C674 1.389 . S
N671 C672 1.358 . S
N671 C673 1.400 . S
C672 N670 1.263 . S
C672 N671 1.358 . S
C672 H678 0.930 . S
C673 N671 1.400 . S
C673 C674 1.351 . S
C673 H690 0.930 . S
C674 N670 1.389 . S
C674 C673 1.351 . S
C674 H679 0.930 . S
O675 Cu669 1.974 . S
O675 C685 1.282 . S
C676 O677 1.261 1_565 S
C676 O689 1.251 1_565 S
O677 C676 1.261 1_545 S
H678 C672 0.930 . S
H679 C674 0.930 . S
N680 Cu669 1.998 . S
N680 C682 1.314 1_545 S
N680 C683 1.396 . S
N681 C682 1.345 . S
N681 C684 1.336 . S
C682 N680 1.314 1_565 S
C682 N681 1.345 . S
C682 H687 0.930 . S
C683 N680 1.396 . S
C683 C684 1.346 1_545 S
C683 H688 0.930 . S
C684 N681 1.336 . S
C684 C683 1.346 1_565 S
C684 H691 0.929 . S
C685 O675 1.282 . S
C685 O686 1.216 . S
O686 C685 1.216 . S
H687 C682 0.930 . S
H688 C683 0.930 . S
O689 Cu669 1.959 . S
O689 C676 1.251 1_545 S
H690 C673 0.930 . S
H691 C684 0.929 . S
Cu692 N693 1.999 . S
Cu692 O698 1.974 . S
Cu692 N703 1.985 . S
Cu692 O712 1.959 . S
N693 Cu692 1.999 . S
N693 C695 1.263 . S
N693 C697 1.389 . S
N694 C695 1.358 . S
N694 C696 1.400 . S
C695 N693 1.263 . S
C695 N694 1.358 . S
C695 H701 0.930 . S
C696 N694 1.400 . S
C696 C697 1.351 . S
C696 H713 0.930 . S
C697 N693 1.389 . S
C697 C696 1.351 . S
C697 H702 0.930 . S
O698 Cu692 1.974 . S
O698 C708 1.282 . S
C699 O700 1.261 . S
C699 O712 1.251 . S
O700 C699 1.261 . S
H701 C695 0.930 . S
H702 C697 0.930 . S
N703 Cu692 1.985 . S
N703 C705 1.335 . S
N703 C706 1.390 . S
N704 C705 1.345 . S
N704 C707 1.336 . S
C705 N703 1.335 . S
C705 N704 1.345 . S
C705 H710 0.930 . S
C706 N703 1.390 . S
C706 C707 1.346 . S
C706 H711 0.930 . S
C707 N704 1.336 . S
C707 C706 1.346 . S
C707 H714 0.929 . S
C708 O698 1.282 . S
C708 O709 1.216 . S
O709 C708 1.216 . S
H710 C705 0.930 . S
H711 C706 0.930 . S
O712 Cu692 1.959 . S
O712 C699 1.251 . S
H713 C696 0.930 . S
H714 C707 0.929 . S
Cu715 N716 1.999 . S
Cu715 O721 1.974 . S
Cu715 N726 1.985 . S
Cu715 O735 1.959 . S
N716 Cu715 1.999 . S
N716 C718 1.263 . S
N716 C720 1.389 . S
N717 C718 1.358 . S
N717 C719 1.400 . S
C718 N716 1.263 . S
C718 N717 1.358 . S
C718 H724 0.930 . S
C719 N717 1.400 . S
C719 C720 1.351 . S
C719 H736 0.930 . S
C720 N716 1.389 . S
C720 C719 1.351 . S
C720 H725 0.930 . S
O721 Cu715 1.974 . S
O721 C731 1.282 . S
C722 O723 1.261 . S
C722 O735 1.251 . S
O723 C722 1.261 . S
H724 C718 0.930 . S
H725 C720 0.930 . S
N726 Cu715 1.985 . S
N726 C728 1.335 . S
N726 C729 1.390 . S
N727 C728 1.345 . S
N727 C730 1.336 . S
C728 N726 1.335 . S
C728 N727 1.345 . S
C728 H733 0.930 . S
C729 N726 1.390 . S
C729 C730 1.346 . S
C729 H734 0.930 . S
C730 N727 1.336 . S
C730 C729 1.346 . S
C730 H737 0.929 . S
C731 O721 1.282 . S
C731 O732 1.216 . S
O732 C731 1.216 . S
H733 C728 0.930 . S
H734 C729 0.930 . S
O735 Cu715 1.959 . S
O735 C722 1.251 . S
H736 C719 0.930 . S
H737 C730 0.929 . S
Cu738 N739 1.999 . S
Cu738 O744 1.974 . S
Cu738 N749 1.985 . S
Cu738 O758 1.959 . S
N739 Cu738 1.999 . S
N739 C741 1.263 . S
N739 C743 1.389 . S
N740 C741 1.358 . S
N740 C742 1.400 . S
C741 N739 1.263 . S
C741 N740 1.358 . S
C741 H747 0.930 . S
C742 N740 1.400 . S
C742 C743 1.351 . S
C742 H759 0.930 . S
C743 N739 1.389 . S
C743 C742 1.351 . S
C743 H748 0.930 . S
O744 Cu738 1.974 . S
O744 C754 1.282 . S
C745 O746 1.261 . S
C745 O758 1.251 . S
O746 C745 1.261 . S
H747 C741 0.930 . S
H748 C743 0.930 . S
N749 Cu738 1.985 . S
N749 C751 1.335 . S
N749 C752 1.390 . S
N750 C751 1.345 . S
N750 C753 1.336 . S
C751 N749 1.335 . S
C751 N750 1.345 . S
C751 H756 0.930 . S
C752 N749 1.390 . S
C752 C753 1.346 . S
C752 H757 0.930 . S
C753 N750 1.336 . S
C753 C752 1.346 . S
C753 H760 0.929 . S
C754 O744 1.282 . S
C754 O755 1.216 . S
O755 C754 1.216 . S
H756 C751 0.930 . S
H757 C752 0.930 . S
O758 Cu738 1.959 . S
O758 C745 1.251 . S
H759 C742 0.930 . S
H760 C753 0.929 . S
Cu761 N762 1.999 . S
Cu761 O767 1.974 . S
Cu761 N772 1.985 . S
Cu761 O781 1.959 . S
N762 Cu761 1.999 . S
N762 C764 1.263 . S
N762 C766 1.389 . S
N763 C764 1.358 . S
N763 C765 1.400 . S
C764 N762 1.263 . S
C764 N763 1.358 . S
C764 H770 0.930 . S
C765 N763 1.400 . S
C765 C766 1.351 . S
C765 H782 0.930 . S
C766 N762 1.389 . S
C766 C765 1.351 . S
C766 H771 0.930 . S
O767 Cu761 1.974 . S
O767 C777 1.282 . S
C768 O769 1.261 . S
C768 O781 1.251 . S
O769 C768 1.261 . S
H770 C764 0.930 . S
H771 C766 0.930 . S
N772 Cu761 1.985 . S
N772 C774 1.335 . S
N772 C775 1.390 . S
N773 C774 1.345 . S
N773 C776 1.336 . S
C774 N772 1.335 . S
C774 N773 1.345 . S
C774 H779 0.930 . S
C775 N772 1.390 . S
C775 C776 1.346 . S
C775 H780 0.930 . S
C776 N773 1.336 . S
C776 C775 1.346 . S
C776 H783 0.929 . S
C777 O767 1.282 . S
C777 O778 1.216 . S
O778 C777 1.216 . S
H779 C774 0.930 . S
H780 C775 0.930 . S
O781 Cu761 1.959 . S
O781 C768 1.251 . S
H782 C765 0.930 . S
H783 C776 0.929 . S
Cu784 N785 1.999 . S
Cu784 O790 1.974 . S
Cu784 N795 1.985 . S
Cu784 O804 1.959 . S
N785 Cu784 1.999 . S
N785 C787 1.263 . S
N785 C789 1.389 . S
N786 C787 1.358 . S
N786 C788 1.400 . S
C787 N785 1.263 . S
C787 N786 1.358 . S
C787 H793 0.930 . S
C788 N786 1.400 . S
C788 C789 1.351 . S
C788 H805 0.930 . S
C789 N785 1.389 . S
C789 C788 1.351 . S
C789 H794 0.930 . S
O790 Cu784 1.974 . S
O790 C800 1.282 . S
C791 O792 1.261 . S
C791 O804 1.251 . S
O792 C791 1.261 . S
H793 C787 0.930 . S
H794 C789 0.930 . S
N795 Cu784 1.985 . S
N795 C797 1.335 . S
N795 C798 1.390 . S
N796 C797 1.345 . S
N796 C799 1.336 . S
C797 N795 1.335 . S
C797 N796 1.345 . S
C797 H802 0.930 . S
C798 N795 1.390 . S
C798 C799 1.346 . S
C798 H803 0.930 . S
C799 N796 1.336 . S
C799 C798 1.346 . S
C799 H806 0.929 . S
C800 O790 1.282 . S
C800 O801 1.216 . S
O801 C800 1.216 . S
H802 C797 0.930 . S
H803 C798 0.930 . S
O804 Cu784 1.959 . S
O804 C791 1.251 . S
H805 C788 0.930 . S
H806 C799 0.929 . S
Cu807 N808 1.999 . S
Cu807 O813 1.974 . S
Cu807 N818 1.985 . S
Cu807 O827 1.959 . S
N808 Cu807 1.999 . S
N808 C810 1.263 . S
N808 C812 1.389 . S
N809 C810 1.358 . S
N809 C811 1.400 . S
C810 N808 1.263 . S
C810 N809 1.358 . S
C810 H816 0.930 . S
C811 N809 1.400 . S
C811 C812 1.351 . S
C811 H828 0.930 . S
C812 N808 1.389 . S
C812 C811 1.351 . S
C812 H817 0.930 . S
O813 Cu807 1.974 . S
O813 C823 1.282 . S
C814 O815 1.261 . S
C814 O827 1.251 . S
O815 C814 1.261 . S
H816 C810 0.930 . S
H817 C812 0.930 . S
N818 Cu807 1.985 . S
N818 C820 1.335 . S
N818 C821 1.390 . S
N819 C820 1.345 . S
N819 C822 1.336 . S
C820 N818 1.335 . S
C820 N819 1.345 . S
C820 H825 0.930 . S
C821 N818 1.390 . S
C821 C822 1.346 . S
C821 H826 0.930 . S
C822 N819 1.336 . S
C822 C821 1.346 . S
C822 H829 0.929 . S
C823 O813 1.282 . S
C823 O824 1.216 . S
O824 C823 1.216 . S
H825 C820 0.930 . S
H826 C821 0.930 . S
O827 Cu807 1.959 . S
O827 C814 1.251 . S
H828 C811 0.930 . S
H829 C822 0.929 . S
Cu830 N831 1.999 . S
Cu830 O836 1.974 . S
Cu830 N841 1.985 . S
Cu830 O850 1.959 . S
N831 Cu830 1.999 . S
N831 C833 1.263 . S
N831 C835 1.389 . S
N832 C833 1.358 . S
N832 C834 1.400 . S
C833 N831 1.263 . S
C833 N832 1.358 . S
C833 H839 0.930 . S
C834 N832 1.400 . S
C834 C835 1.351 . S
C834 H851 0.930 . S
C835 N831 1.389 . S
C835 C834 1.351 . S
C835 H840 0.930 . S
O836 Cu830 1.974 . S
O836 C846 1.282 . S
C837 O838 1.261 . S
C837 O850 1.251 . S
O838 C837 1.261 . S
H839 C833 0.930 . S
H840 C835 0.930 . S
N841 Cu830 1.985 . S
N841 C843 1.335 . S
N841 C844 1.390 . S
N842 C843 1.345 . S
N842 C845 1.336 . S
C843 N841 1.335 . S
C843 N842 1.345 . S
C843 H848 0.930 . S
C844 N841 1.390 . S
C844 C845 1.346 . S
C844 H849 0.930 . S
C845 N842 1.336 . S
C845 C844 1.346 . S
C845 H852 0.929 . S
C846 O836 1.282 . S
C846 O847 1.216 . S
O847 C846 1.216 . S
H848 C843 0.930 . S
H849 C844 0.930 . S
O850 Cu830 1.959 . S
O850 C837 1.251 . S
H851 C834 0.930 . S
H852 C845 0.929 . S
Cu853 N854 1.999 . S
Cu853 O859 1.974 . S
Cu853 N864 1.985 . S
Cu853 O873 1.959 . S
N854 Cu853 1.999 . S
N854 C856 1.263 . S
N854 C858 1.389 . S
N855 C856 1.358 . S
N855 C857 1.400 . S
C856 N854 1.263 . S
C856 N855 1.358 . S
C856 H862 0.930 . S
C857 N855 1.400 . S
C857 C858 1.351 . S
C857 H874 0.930 . S
C858 N854 1.389 . S
C858 C857 1.351 . S
C858 H863 0.930 . S
O859 Cu853 1.974 . S
O859 C869 1.282 . S
C860 O861 1.261 . S
C860 O873 1.251 . S
O861 C860 1.261 . S
H862 C856 0.930 . S
H863 C858 0.930 . S
N864 Cu853 1.985 . S
N864 C866 1.335 . S
N864 C867 1.390 . S
N865 C866 1.345 . S
N865 C868 1.336 . S
C866 N864 1.335 . S
C866 N865 1.345 . S
C866 H871 0.930 . S
C867 N864 1.390 . S
C867 C868 1.346 . S
C867 H872 0.930 . S
C868 N865 1.336 . S
C868 C867 1.346 . S
C868 H875 0.929 . S
C869 O859 1.282 . S
C869 O870 1.216 . S
O870 C869 1.216 . S
H871 C866 0.930 . S
H872 C867 0.930 . S
O873 Cu853 1.959 . S
O873 C860 1.251 . S
H874 C857 0.930 . S
H875 C868 0.929 . S
Cu876 N877 1.999 . S
Cu876 O882 1.974 . S
Cu876 N887 1.985 . S
Cu876 O896 1.959 . S
N877 Cu876 1.999 . S
N877 C879 1.263 . S
N877 C881 1.389 . S
N878 C879 1.358 . S
N878 C880 1.400 . S
C879 N877 1.263 . S
C879 N878 1.358 . S
C879 H885 0.930 . S
C880 N878 1.400 . S
C880 C881 1.351 . S
C880 H897 0.930 . S
C881 N877 1.389 . S
C881 C880 1.351 . S
C881 H886 0.930 . S
O882 Cu876 1.974 . S
O882 C892 1.282 . S
C883 O884 1.261 . S
C883 O896 1.251 . S
O884 C883 1.261 . S
H885 C879 0.930 . S
H886 C881 0.930 . S
N887 Cu876 1.985 . S
N887 C889 1.335 . S
N887 C890 1.390 . S
N888 C889 1.345 . S
N888 C891 1.336 . S
C889 N887 1.335 . S
C889 N888 1.345 . S
C889 H894 0.930 . S
C890 N887 1.390 . S
C890 C891 1.346 . S
C890 H895 0.930 . S
C891 N888 1.336 . S
C891 C890 1.346 . S
C891 H898 0.929 . S
C892 O882 1.282 . S
C892 O893 1.216 . S
O893 C892 1.216 . S
H894 C889 0.930 . S
H895 C890 0.930 . S
O896 Cu876 1.959 . S
O896 C883 1.251 . S
H897 C880 0.930 . S
H898 C891 0.929 . S
Cu899 N900 1.999 . S
Cu899 O905 1.974 . S
Cu899 N910 1.985 . S
Cu899 O919 1.959 . S
N900 Cu899 1.999 . S
N900 C902 1.263 . S
N900 C904 1.389 . S
N901 C902 1.358 . S
N901 C903 1.400 . S
C902 N900 1.263 . S
C902 N901 1.358 . S
C902 H908 0.930 . S
C903 N901 1.400 . S
C903 C904 1.351 . S
C903 H920 0.930 . S
C904 N900 1.389 . S
C904 C903 1.351 . S
C904 H909 0.930 . S
O905 Cu899 1.974 . S
O905 C915 1.282 . S
C906 O907 1.261 . S
C906 O919 1.251 . S
O907 C906 1.261 . S
H908 C902 0.930 . S
H909 C904 0.930 . S
N910 Cu899 1.985 . S
N910 C912 1.335 . S
N910 C913 1.390 . S
N911 C912 1.345 . S
N911 C914 1.336 . S
C912 N910 1.335 . S
C912 N911 1.345 . S
C912 H917 0.930 . S
C913 N910 1.390 . S
C913 C914 1.346 . S
C913 H918 0.930 . S
C914 N911 1.336 . S
C914 C913 1.346 . S
C914 H921 0.929 . S
C915 O905 1.282 . S
C915 O916 1.216 . S
O916 C915 1.216 . S
H917 C912 0.930 . S
H918 C913 0.930 . S
O919 Cu899 1.959 . S
O919 C906 1.251 . S
H920 C903 0.930 . S
H921 C914 0.929 . S
Cu922 N923 1.999 . S
Cu922 O928 1.974 . S
Cu922 N933 1.985 . S
Cu922 O942 1.959 . S
N923 Cu922 1.999 . S
N923 C925 1.263 . S
N923 C927 1.389 . S
N924 C925 1.358 . S
N924 C926 1.400 . S
C925 N923 1.263 . S
C925 N924 1.358 . S
C925 H931 0.930 . S
C926 N924 1.400 . S
C926 C927 1.351 . S
C926 H943 0.930 . S
C927 N923 1.389 . S
C927 C926 1.351 . S
C927 H932 0.930 . S
O928 Cu922 1.974 . S
O928 C938 1.282 . S
C929 O930 1.261 . S
C929 O942 1.251 . S
O930 C929 1.261 . S
H931 C925 0.930 . S
H932 C927 0.930 . S
N933 Cu922 1.985 . S
N933 C935 1.335 . S
N933 C936 1.390 . S
N934 C935 1.345 . S
N934 C937 1.336 . S
C935 N933 1.335 . S
C935 N934 1.345 . S
C935 H940 0.930 . S
C936 N933 1.390 . S
C936 C937 1.346 . S
C936 H941 0.930 . S
C937 N934 1.336 . S
C937 C936 1.346 . S
C937 H944 0.929 . S
C938 O928 1.282 . S
C938 O939 1.216 . S
O939 C938 1.216 . S
H940 C935 0.930 . S
H941 C936 0.930 . S
O942 Cu922 1.959 . S
O942 C929 1.251 . S
H943 C926 0.930 . S
H944 C937 0.929 . S
Cu945 N946 1.999 . S
Cu945 O951 1.974 . S
Cu945 N956 1.985 . S
Cu945 O965 1.959 . S
N946 Cu945 1.999 . S
N946 C948 1.263 . S
N946 C950 1.389 . S
N947 C948 1.358 . S
N947 C949 1.400 . S
C948 N946 1.263 . S
C948 N947 1.358 . S
C948 H954 0.930 . S
C949 N947 1.400 . S
C949 C950 1.351 . S
C949 H966 0.930 . S
C950 N946 1.389 . S
C950 C949 1.351 . S
C950 H955 0.930 . S
O951 Cu945 1.974 . S
O951 C961 1.282 . S
C952 O953 1.261 . S
C952 O965 1.251 . S
O953 C952 1.261 . S
H954 C948 0.930 . S
H955 C950 0.930 . S
N956 Cu945 1.985 . S
N956 C958 1.335 . S
N956 C959 1.390 . S
N957 C958 1.345 . S
N957 C960 1.336 . S
C958 N956 1.335 . S
C958 N957 1.345 . S
C958 H963 0.930 . S
C959 N956 1.390 . S
C959 C960 1.346 . S
C959 H964 0.930 . S
C960 N957 1.336 . S
C960 C959 1.346 . S
C960 H967 0.929 . S
C961 O951 1.282 . S
C961 O962 1.216 . S
O962 C961 1.216 . S
H963 C958 0.930 . S
H964 C959 0.930 . S
O965 Cu945 1.959 . S
O965 C952 1.251 . S
H966 C949 0.930 . S
H967 C960 0.929 . S
N428 C8 1.796 . S
C455 C17 1.215 . S
C35 C469 2.364 . S
N487 C43 1.486 . S
C56 C492 1.272 . S
C73 C432 1.994 1_556 S
C87 N451 1.479 . S
N464 C100 1.706 . S
N510 C9 1.787 . S
C22 N533 1.768 . S
C34 N556 1.925 . S
N589 C47 1.625 . S
C61 C616 1.484 . S
C639 C69 1.964 . S
C82 C662 1.214 . S
C676 C99 2.111 . S
C4 C593 2.082 . S
C60 N635 1.844 . S
N658 C74 1.724 . S
C86 N671 1.299 . S
N612 C95 2.154 . S
C538 C30 1.513 . S
C48 C561 1.141 . S
C515 C21 1.525 . S
C708 C112 1.982 . S
C121 C722 1.330 . S
C139 N750 1.722 . S
N763 C147 1.606 . S
C160 C768 1.240 . S
C177 N704 1.778 . S
C191 N717 1.691 . S
C204 C754 1.846 . S
N602 C113 2.095 . S
C126 N786 1.463 . S
N648 C138 1.658 . S
C151 C823 1.415 . S
C165 C524 1.620 . S
C837 C173 1.847 . S
C186 C570 1.330 . S
N855 C203 2.043 . S
C108 N819 1.750 . S
N832 C164 1.421 . S
C178 N566 1.933 . S
C860 C190 1.522 . S
C199 N520 1.938 . S
C134 C791 1.501 . S
C152 C653 1.375 . S
C125 C607 1.741 . S
C216 C745 2.067 . S
C777 C225 1.138 . S
C243 N694 2.342 . S
C251 N727 1.296 . S
C264 C731 1.256 . S
C281 N740 1.629 . S
N773 C295 1.420 . S
C308 C699 1.845 . S
N888 C217 1.827 . S
C230 N625 1.413 . S
N911 C242 1.686 . S
C255 N681 1.570 . S
C269 C929 1.495 . S
C277 C547 1.937 . S
N947 C290 1.151 . S
C307 C584 2.157 . S
C685 C212 2.021 . S
N543 C268 1.569 . S
C282 C952 1.913 . S
C294 N579 1.267 . S
N924 C303 2.425 . S
C630 C238 1.840 1_545 S
C915 C256 1.415 . S
C892 C229 1.574 . S
C320 N474 1.635 . S
C329 C501 1.235 . S
C423 C347 2.174 . S
N441 C355 1.641 . S
C446 C368 1.207 . S
C478 C385 1.828 . S
N497 C399 1.545 . S
C412 N418 1.714 . S
C321 N934 1.764 . S
N842 C334 1.603 . S
C961 C342 1.769 . S
C869 C359 1.533 . S
C373 C883 1.550 . S
C800 C381 1.873 . S
C906 C394 1.389 . S
C411 N809 2.153 . S
N865 C316 1.570 . S
N796 C372 1.778 . S
N901 C386 2.204 . S
C398 C814 1.356 . S
C407 N878 2.353 . S
C346 C846 1.965 . S
C360 N957 1.135 . S
C938 C333 1.617 . S
