# Generated by pormake.
# Topology ptr, (4,4)-cn, num edge types: 1
# Building blocks:
#     Node 0, Type 0, BuildingBlock: QUQFOY_clean_sbu_1, # of connection points: 4
#     Node 1, Type 0, BuildingBlock: QUQFOY_clean_sbu_1, # of connection points: 4
#     Node 2, Type 0, BuildingBlock: QUQFOY_clean_sbu_1, # of connection points: 4
#     Node 3, Type 0, BuildingBlock: QUQFOY_clean_sbu_1, # of connection points: 4
#     Node 4, Type 0, BuildingBlock: QUQFOY_clean_sbu_1, # of connection points: 4
#     Node 5, Type 0, BuildingBlock: QUQFOY_clean_sbu_1, # of connection points: 4
#     Node 6, Type 0, BuildingBlock: QUQFOY_clean_sbu_1, # of connection points: 4
#     Node 7, Type 0, BuildingBlock: QUQFOY_clean_sbu_1, # of connection points: 4
#     Node 8, Type 0, BuildingBlock: QUQFOY_clean_sbu_1, # of connection points: 4
#     Node 9, Type 0, BuildingBlock: QUQFOY_clean_sbu_1, # of connection points: 4
#     Node 10, Type 0, BuildingBlock: QUQFOY_clean_sbu_1, # of connection points: 4
#     Node 11, Type 0, BuildingBlock: QUQFOY_clean_sbu_1, # of connection points: 4
#     Node 12, Type 0, BuildingBlock: QUQFOY_clean_sbu_1, # of connection points: 4
#     Node 13, Type 0, BuildingBlock: QUQFOY_clean_sbu_1, # of connection points: 4
#     Node 14, Type 0, BuildingBlock: QUQFOY_clean_sbu_1, # of connection points: 4
#     Node 15, Type 0, BuildingBlock: QUQFOY_clean_sbu_1, # of connection points: 4
#     Node 16, Type 0, BuildingBlock: QUQFOY_clean_sbu_1, # of connection points: 4
#     Node 17, Type 0, BuildingBlock: QUQFOY_clean_sbu_1, # of connection points: 4
#     Node 18, Type 1, BuildingBlock: GIZVER_clean_linker_0, # of connection points: 4
#     Node 19, Type 1, BuildingBlock: GIZVER_clean_linker_0, # of connection points: 4
#     Node 20, Type 1, BuildingBlock: GIZVER_clean_linker_0, # of connection points: 4
#     Node 21, Type 1, BuildingBlock: GIZVER_clean_linker_0, # of connection points: 4
#     Node 22, Type 1, BuildingBlock: GIZVER_clean_linker_0, # of connection points: 4
#     Node 23, Type 1, BuildingBlock: GIZVER_clean_linker_0, # of connection points: 4
#     Node 24, Type 1, BuildingBlock: GIZVER_clean_linker_0, # of connection points: 4
#     Node 25, Type 1, BuildingBlock: GIZVER_clean_linker_0, # of connection points: 4
#     Node 26, Type 1, BuildingBlock: GIZVER_clean_linker_0, # of connection points: 4
#     Node 27, Type 1, BuildingBlock: GIZVER_clean_linker_0, # of connection points: 4
#     Node 28, Type 1, BuildingBlock: GIZVER_clean_linker_0, # of connection points: 4
#     Node 29, Type 1, BuildingBlock: GIZVER_clean_linker_0, # of connection points: 4
#     Node 30, Type 1, BuildingBlock: GIZVER_clean_linker_0, # of connection points: 4
#     Node 31, Type 1, BuildingBlock: GIZVER_clean_linker_0, # of connection points: 4
#     Node 32, Type 1, BuildingBlock: GIZVER_clean_linker_0, # of connection points: 4
#     Node 33, Type 1, BuildingBlock: GIZVER_clean_linker_0, # of connection points: 4
#     Node 34, Type 1, BuildingBlock: GIZVER_clean_linker_0, # of connection points: 4
#     Node 35, Type 1, BuildingBlock: GIZVER_clean_linker_0, # of connection points: 4
#     Edge 36, Type (0, 1), BuildingBlock: MIFKUJ_clean_linker_0, # of connection points: 2
#     Edge 37, Type (0, 1), BuildingBlock: MIFKUJ_clean_linker_0, # of connection points: 2
#     Edge 38, Type (0, 1), BuildingBlock: MIFKUJ_clean_linker_0, # of connection points: 2
#     Edge 39, Type (0, 1), BuildingBlock: MIFKUJ_clean_linker_0, # of connection points: 2
#     Edge 40, Type (0, 1), BuildingBlock: MIFKUJ_clean_linker_0, # of connection points: 2
#     Edge 41, Type (0, 1), BuildingBlock: MIFKUJ_clean_linker_0, # of connection points: 2
#     Edge 42, Type (0, 1), BuildingBlock: MIFKUJ_clean_linker_0, # of connection points: 2
#     Edge 43, Type (0, 1), BuildingBlock: MIFKUJ_clean_linker_0, # of connection points: 2
#     Edge 44, Type (0, 1), BuildingBlock: MIFKUJ_clean_linker_0, # of connection points: 2
#     Edge 45, Type (0, 1), BuildingBlock: MIFKUJ_clean_linker_0, # of connection points: 2
#     Edge 46, Type (0, 1), BuildingBlock: MIFKUJ_clean_linker_0, # of connection points: 2
#     Edge 47, Type (0, 1), BuildingBlock: MIFKUJ_clean_linker_0, # of connection points: 2
#     Edge 48, Type (0, 1), BuildingBlock: MIFKUJ_clean_linker_0, # of connection points: 2
#     Edge 49, Type (0, 1), BuildingBlock: MIFKUJ_clean_linker_0, # of connection points: 2
#     Edge 50, Type (0, 1), BuildingBlock: MIFKUJ_clean_linker_0, # of connection points: 2
#     Edge 51, Type (0, 1), BuildingBlock: MIFKUJ_clean_linker_0, # of connection points: 2
#     Edge 52, Type (0, 1), BuildingBlock: MIFKUJ_clean_linker_0, # of connection points: 2
#     Edge 53, Type (0, 1), BuildingBlock: MIFKUJ_clean_linker_0, # of connection points: 2
#     Edge 54, Type (0, 1), BuildingBlock: MIFKUJ_clean_linker_0, # of connection points: 2
#     Edge 55, Type (0, 1), BuildingBlock: MIFKUJ_clean_linker_0, # of connection points: 2
#     Edge 56, Type (0, 1), BuildingBlock: MIFKUJ_clean_linker_0, # of connection points: 2
#     Edge 57, Type (0, 1), BuildingBlock: MIFKUJ_clean_linker_0, # of connection points: 2
#     Edge 58, Type (0, 1), BuildingBlock: MIFKUJ_clean_linker_0, # of connection points: 2
#     Edge 59, Type (0, 1), BuildingBlock: MIFKUJ_clean_linker_0, # of connection points: 2
#     Edge 60, Type (0, 1), BuildingBlock: MIFKUJ_clean_linker_0, # of connection points: 2
#     Edge 61, Type (0, 1), BuildingBlock: MIFKUJ_clean_linker_0, # of connection points: 2
#     Edge 62, Type (0, 1), BuildingBlock: MIFKUJ_clean_linker_0, # of connection points: 2
#     Edge 63, Type (0, 1), BuildingBlock: MIFKUJ_clean_linker_0, # of connection points: 2
#     Edge 64, Type (0, 1), BuildingBlock: MIFKUJ_clean_linker_0, # of connection points: 2
#     Edge 65, Type (0, 1), BuildingBlock: MIFKUJ_clean_linker_0, # of connection points: 2
#     Edge 66, Type (0, 1), BuildingBlock: MIFKUJ_clean_linker_0, # of connection points: 2
#     Edge 67, Type (0, 1), BuildingBlock: MIFKUJ_clean_linker_0, # of connection points: 2
#     Edge 68, Type (0, 1), BuildingBlock: MIFKUJ_clean_linker_0, # of connection points: 2
#     Edge 69, Type (0, 1), BuildingBlock: MIFKUJ_clean_linker_0, # of connection points: 2
#     Edge 70, Type (0, 1), BuildingBlock: MIFKUJ_clean_linker_0, # of connection points: 2
#     Edge 71, Type (0, 1), BuildingBlock: MIFKUJ_clean_linker_0, # of connection points: 2
#     Edge 72, Type (0, 1), BuildingBlock: MIFKUJ_clean_linker_0, # of connection points: 2
#     Edge 73, Type (0, 1), BuildingBlock: MIFKUJ_clean_linker_0, # of connection points: 2
#     Edge 74, Type (0, 1), BuildingBlock: MIFKUJ_clean_linker_0, # of connection points: 2
#     Edge 75, Type (0, 1), BuildingBlock: MIFKUJ_clean_linker_0, # of connection points: 2
#     Edge 76, Type (0, 1), BuildingBlock: MIFKUJ_clean_linker_0, # of connection points: 2
#     Edge 77, Type (0, 1), BuildingBlock: MIFKUJ_clean_linker_0, # of connection points: 2
#     Edge 78, Type (0, 1), BuildingBlock: MIFKUJ_clean_linker_0, # of connection points: 2
#     Edge 79, Type (0, 1), BuildingBlock: MIFKUJ_clean_linker_0, # of connection points: 2
#     Edge 80, Type (0, 1), BuildingBlock: MIFKUJ_clean_linker_0, # of connection points: 2
#     Edge 81, Type (0, 1), BuildingBlock: MIFKUJ_clean_linker_0, # of connection points: 2
#     Edge 82, Type (0, 1), BuildingBlock: MIFKUJ_clean_linker_0, # of connection points: 2
#     Edge 83, Type (0, 1), BuildingBlock: MIFKUJ_clean_linker_0, # of connection points: 2
#     Edge 84, Type (0, 1), BuildingBlock: MIFKUJ_clean_linker_0, # of connection points: 2
#     Edge 85, Type (0, 1), BuildingBlock: MIFKUJ_clean_linker_0, # of connection points: 2
#     Edge 86, Type (0, 1), BuildingBlock: MIFKUJ_clean_linker_0, # of connection points: 2
#     Edge 87, Type (0, 1), BuildingBlock: MIFKUJ_clean_linker_0, # of connection points: 2
#     Edge 88, Type (0, 1), BuildingBlock: MIFKUJ_clean_linker_0, # of connection points: 2
#     Edge 89, Type (0, 1), BuildingBlock: MIFKUJ_clean_linker_0, # of connection points: 2
#     Edge 90, Type (0, 1), BuildingBlock: MIFKUJ_clean_linker_0, # of connection points: 2
#     Edge 91, Type (0, 1), BuildingBlock: MIFKUJ_clean_linker_0, # of connection points: 2
#     Edge 92, Type (0, 1), BuildingBlock: MIFKUJ_clean_linker_0, # of connection points: 2
#     Edge 93, Type (0, 1), BuildingBlock: MIFKUJ_clean_linker_0, # of connection points: 2
#     Edge 94, Type (0, 1), BuildingBlock: MIFKUJ_clean_linker_0, # of connection points: 2
#     Edge 95, Type (0, 1), BuildingBlock: MIFKUJ_clean_linker_0, # of connection points: 2
#     Edge 96, Type (0, 1), BuildingBlock: MIFKUJ_clean_linker_0, # of connection points: 2
#     Edge 97, Type (0, 1), BuildingBlock: MIFKUJ_clean_linker_0, # of connection points: 2
#     Edge 98, Type (0, 1), BuildingBlock: MIFKUJ_clean_linker_0, # of connection points: 2
#     Edge 99, Type (0, 1), BuildingBlock: MIFKUJ_clean_linker_0, # of connection points: 2
#     Edge 100, Type (0, 1), BuildingBlock: MIFKUJ_clean_linker_0, # of connection points: 2
#     Edge 101, Type (0, 1), BuildingBlock: MIFKUJ_clean_linker_0, # of connection points: 2
#     Edge 102, Type (0, 1), BuildingBlock: MIFKUJ_clean_linker_0, # of connection points: 2
#     Edge 103, Type (0, 1), BuildingBlock: MIFKUJ_clean_linker_0, # of connection points: 2
#     Edge 104, Type (0, 1), BuildingBlock: MIFKUJ_clean_linker_0, # of connection points: 2
#     Edge 105, Type (0, 1), BuildingBlock: MIFKUJ_clean_linker_0, # of connection points: 2
#     Edge 106, Type (0, 1), BuildingBlock: MIFKUJ_clean_linker_0, # of connection points: 2
#     Edge 107, Type (0, 1), BuildingBlock: MIFKUJ_clean_linker_0, # of connection points: 2
# Relax obj value: 0.021
# Max RMSD: 0.063
# Mean RMSD: 0.054
data_MOF--net-ptr--node1-QUQFOY_clean_sbu_1--node2-GIZVER_clean_linker_0--edge1-MIFKUJ_clean_linker_0
_symmetry_space_group_name_H-M    P1
_symmetry_Int_Tables_number       1
_symmetry_cell_setting            triclinic
loop_
_symmetry_equiv_pos_as_xyz
'x, y, z'
_cell_length_a     105.51278
_cell_length_b     105.46888
_cell_length_c     64.075056
_cell_angle_alpha  90.242436
_cell_angle_beta   90.193625
_cell_angle_gamma 119.98486
loop_
_atom_site_label
_atom_site_type_symbol
_atom_site_fract_x
_atom_site_fract_y
_atom_site_fract_z
_atom_type_partial_charge
O0 O 0.01157 0.38316 0.04278 0.0
Cd1 Cd 0.01859 0.37652 0.01714 0.0
Cd2 Cd 0.98871 0.36184 0.00824 0.0
O3 O 0.98786 0.37161 0.03598 0.0
O4 O 0.03934 0.3825 0.02412 0.0
O5 O 0.02243 0.35951 0.01822 0.0
C6 C 0.03583 0.36893 0.02296 0.0
C7 C 0.97155 0.33701 0.00208 0.0
C8 C 0.99868 0.38025 0.04742 0.0
C9 C 0.00899 0.3854 0.97829 0.0
O10 O 0.99599 0.37553 0.98261 0.0
O11 O 0.01966 0.38738 0.98986 0.0
O12 O 0.96796 0.34702 0.00119 0.0
O13 O 0.98497 0.34105 0.00676 0.0
O14 O 0.62027 0.62922 0.03792 0.0
Cd15 Cd 0.62795 0.64278 0.0123 0.0
Cd16 Cd 0.64153 0.62649 0.00439 0.0
O17 O 0.63129 0.61643 0.03208 0.0
O18 O 0.62369 0.65898 0.01786 0.0
O19 O 0.64615 0.6627 0.01491 0.0
C20 C 0.6376 0.66797 0.01825 0.0
C21 C 0.66624 0.63357 0.99895 0.0
C22 C 0.62279 0.61904 0.04303 0.0
C23 C 0.61902 0.62433 0.97308 0.0
O24 O 0.62819 0.62039 0.97819 0.0
O25 O 0.61751 0.63347 0.9843 0.0
O26 O 0.65607 0.62001 0.9985 0.0
O27 O 0.66244 0.64322 0.00295 0.0
O28 O 0.38397 0.00866 0.98238 0.0
Cd29 Cd 0.37719 0.0148 0.00885 0.0
Cd30 Cd 0.36257 0.98495 0.01605 0.0
O31 O 0.37335 0.98498 0.98897 0.0
O32 O 0.38267 0.03567 0.00422 0.0
O33 O 0.35979 0.01797 0.00789 0.0
C34 C 0.36897 0.03167 0.0048 0.0
C35 C 0.33751 0.96808 0.0201 0.0
C36 C 0.38159 0.99592 0.97766 0.0
C37 C 0.38525 0.00417 0.04774 0.0
O38 O 0.37524 0.99131 0.04282 0.0
O39 O 0.38774 0.01501 0.03633 0.0
O40 O 0.34723 0.96409 0.02084 0.0
O41 O 0.34198 0.98173 0.01657 0.0
O42 O 0.99169 0.61678 0.98698 0.0
Cd43 Cd 0.98675 0.62553 0.01258 0.0
Cd44 Cd 0.01661 0.63997 0.0175 0.0
O45 O 0.01576 0.62963 0.98964 0.0
O46 O 0.96611 0.62096 0.00804 0.0
O47 O 0.98478 0.64356 0.00964 0.0
C48 C 0.97089 0.63483 0.00709 0.0
C49 C 0.03433 0.66477 0.02243 0.0
C50 C 1.00428 0.61995 0.98034 0.0
C51 C 0.99835 0.61776 0.05024 0.0
O52 O 0.01103 0.62662 0.04331 0.0
O53 O 0.987 0.6163 0.04096 0.0
O54 O 0.03779 0.65467 0.02174 0.0
O55 O 0.02069 0.66086 0.01998 0.0
O56 O 0.38267 0.37389 0.98178 0.0
Cd57 Cd 0.37545 0.36125 0.00825 0.0
Cd58 Cd 0.36153 0.37745 0.0142 0.0
O59 O 0.37165 0.38683 0.98612 0.0
O60 O 0.38146 0.34621 0.00405 0.0
O61 O 0.35835 0.34047 0.00664 0.0
C62 C 0.36784 0.33629 0.00394 0.0
C63 C 0.33667 0.36981 0.01933 0.0
C64 C 0.38012 0.38387 0.97571 0.0
C65 C 0.38431 0.38114 0.046 0.0
O66 O 0.37488 0.38461 0.04039 0.0
O67 O 0.386 0.3718 0.03558 0.0
O68 O 0.34655 0.38347 0.01907 0.0
O69 O 0.34084 0.36034 0.01617 0.0
O70 O 0.62579 0.9948 0.04452 0.0
Cd71 Cd 0.63182 0.98797 0.01811 0.0
Cd72 Cd 0.64615 0.01834 0.01031 0.0
O73 O 0.63665 0.01857 0.0386 0.0
O74 O 0.62495 0.96692 0.02405 0.0
O75 O 0.64818 0.98311 0.01892 0.0
C76 C 0.63832 0.96982 0.02315 0.0
C77 C 0.67078 0.03588 0.00386 0.0
C78 C 0.62849 0.00755 0.04985 0.0
C79 C 0.62228 0.99807 0.98019 0.0
O80 O 0.63213 0.01109 0.98478 0.0
O81 O 0.62056 0.98735 0.99126 0.0
O82 O 0.66063 0.03928 0.00396 0.0
O83 O 0.66703 0.02245 0.00784 0.0
O84 O 0.68198 0.71849 0.37518 0.0
Cd85 Cd 0.6859 0.70917 0.34935 0.0
Cd86 Cd 0.65625 0.69539 0.34698 0.0
O87 O 0.65794 0.70473 0.37608 0.0
O88 O 0.70666 0.7138 0.35256 0.0
O89 O 0.68791 0.69121 0.35288 0.0
C90 C 0.70186 0.69997 0.35448 0.0
C91 C 0.64008 0.67044 0.34047 0.0
C92 C 0.66983 0.7149 0.38387 0.0
C93 C 0.67334 0.71749 0.31366 0.0
O94 O 0.66098 0.70951 0.32219 0.0
O95 O 0.68477 0.71791 0.32099 0.0
O96 O 0.63542 0.67954 0.34317 0.0
O97 O 0.65401 0.67545 0.34203 0.0
O98 O 0.28917 0.96547 0.37491 0.0
Cd99 Cd 0.29673 0.97874 0.34891 0.0
Cd100 Cd 0.31263 0.96446 0.3448 0.0
O101 O 0.30282 0.95506 0.37282 0.0
O102 O 0.29035 0.99353 0.35323 0.0
O103 O 0.31359 0.99958 0.3513 0.0
C104 C 0.30394 0.00358 0.35392 0.0
C105 C 0.33767 0.97298 0.33957 0.0
C106 C 0.29297 0.95659 0.38195 0.0
C107 C 0.2898 0.95889 0.3117 0.0
O108 O 0.2992 0.95587 0.319 0.0
O109 O 0.28763 0.96844 0.32064 0.0
O110 O 0.32825 0.95922 0.34064 0.0
O111 O 0.33294 0.98208 0.34198 0.0
O112 O 0.05474 0.34834 0.32086 0.0
Cd113 Cd 0.04632 0.35276 0.3473 0.0
Cd114 Cd 0.03161 0.3228 0.34974 0.0
O115 O 0.04158 0.32422 0.3214 0.0
O116 O 0.05129 0.37365 0.34471 0.0
O117 O 0.02854 0.35523 0.34516 0.0
C118 C 0.03747 0.36915 0.34374 0.0
C119 C 0.00652 0.30623 0.3542 0.0
C120 C 0.05131 0.33595 0.31292 0.0
C121 C 0.05391 0.33979 0.38351 0.0
O122 O 0.04504 0.32736 0.37555 0.0
O123 O 0.05543 0.35145 0.37535 0.0
O124 O 0.01593 0.30186 0.35283 0.0
O125 O 0.01132 0.32011 0.35262 0.0
O126 O 0.66047 0.95289 0.31796 0.0
Cd127 Cd 0.65518 0.96118 0.34368 0.0
Cd128 Cd 0.68527 0.97637 0.34795 0.0
O129 O 0.68454 0.96613 0.31999 0.0
O130 O 0.63428 0.95549 0.33858 0.0
O131 O 0.65198 0.97852 0.34123 0.0
C132 C 0.6383 0.9692 0.338 0.0
C133 C 0.70272 1.00123 0.35282 0.0
C134 C 0.67303 0.95632 0.3109 0.0
C135 C 0.66749 0.9542 0.38124 0.0
O136 O 0.68001 0.96327 0.37403 0.0
O137 O 0.65591 0.95217 0.37204 0.0
O138 O 0.70637 0.99127 0.35208 0.0
O139 O 0.68905 0.99714 0.35036 0.0
O140 O 0.0518 0.70819 0.31967 0.0
Cd141 Cd 0.04248 0.69464 0.34505 0.0
Cd142 Cd 0.02803 0.71042 0.34767 0.0
O143 O 0.0384 0.71892 0.31954 0.0
O144 O 0.04809 0.67915 0.34256 0.0
O145 O 0.02515 0.67422 0.3408 0.0
C146 C 0.03443 0.66962 0.34018 0.0
C147 C 1.00327 0.70357 0.3521 0.0
C148 C 0.04846 0.71715 0.31161 0.0
C149 C 0.04968 0.71465 0.382 0.0
O150 O 0.04128 0.7187 0.37385 0.0
O151 O 0.05093 0.70436 0.3737 0.0
O152 O 0.01342 0.7171 0.35111 0.0
O153 O 0.0071 0.69376 0.35 0.0
O154 O 0.28963 0.32697 0.36873 0.0
Cd155 Cd 0.29915 0.32254 0.34379 0.0
Cd156 Cd 0.31338 0.35311 0.34156 0.0
O157 O 0.30261 0.35113 0.36953 0.0
O158 O 0.29319 0.30145 0.34754 0.0
O159 O 0.31626 0.31909 0.34812 0.0
C160 C 0.30679 0.30533 0.3498 0.0
C161 C 0.338 0.37146 0.33728 0.0
C162 C 0.29257 0.33913 0.37699 0.0
C163 C 0.29214 0.33507 0.30669 0.0
O164 O 0.3004 0.34756 0.31496 0.0
O165 O 0.2908 0.32354 0.31503 0.0
O166 O 0.32759 0.37449 0.33789 0.0
O167 O 0.33452 0.35795 0.33977 0.0
O168 O 0.35076 0.05445 0.70098 0.0
Cd169 Cd 0.35443 0.04378 0.67676 0.0
Cd170 Cd 0.32432 0.02849 0.67644 0.0
O171 O 0.32698 0.03953 0.70446 0.0
O172 O 0.37545 0.04916 0.67944 0.0
O173 O 0.35718 0.02649 0.68274 0.0
C174 C 0.37111 0.0356 0.6832 0.0
C175 C 0.30658 0.00352 0.67353 0.0
C176 C 0.33885 0.05067 0.71047 0.0
C177 C 0.34009 0.04888 0.64023 0.0
O178 O 0.32811 0.04089 0.64968 0.0
O179 O 0.35205 0.05051 0.64753 0.0
O180 O 0.30301 0.01353 0.67493 0.0
O181 O 0.32035 0.00764 0.67424 0.0
O182 O 0.9567 0.29914 0.70795 0.0
Cd183 Cd 0.96471 0.31256 0.68219 0.0
Cd184 Cd 0.98 0.29725 0.67838 0.0
O185 O 0.96979 0.2881 0.70638 0.0
O186 O 0.95828 0.32728 0.68669 0.0
O187 O 0.98153 0.33344 0.68429 0.0
C188 C 0.97185 0.33738 0.68703 0.0
C189 C 0.00479 0.30433 0.67353 0.0
C190 C 0.96006 0.28998 0.71522 0.0
C191 C 0.95771 0.29298 0.64476 0.0
O192 O 0.96677 0.28951 0.65213 0.0
O193 O 0.95571 0.30257 0.65388 0.0
O194 O 0.99471 0.29077 0.67414 0.0
O195 O 1.00087 0.31404 0.67621 0.0
O196 O 0.721 0.68001 0.65096 0.0
Cd197 Cd 0.71384 0.68607 0.67711 0.0
Cd198 Cd 0.6992 0.656 0.6838 0.0
O199 O 0.70932 0.65612 0.65603 0.0
O200 O 0.71919 0.70688 0.67218 0.0
O201 O 0.69633 0.68905 0.67553 0.0
C202 C 0.70545 0.70275 0.67234 0.0
C203 C 0.67439 0.63865 0.68896 0.0
C204 C 0.71808 0.66723 0.64539 0.0
C205 C 0.72209 0.67536 0.71555 0.0
O206 O 0.7125 0.66247 0.70998 0.0
O207 O 0.72413 0.68635 0.70484 0.0
O208 O 0.68436 0.635 0.68887 0.0
O209 O 0.67845 0.65223 0.68567 0.0
O210 O 0.32648 0.2864 0.65611 0.0
Cd211 Cd 0.32137 0.29417 0.68267 0.0
Cd212 Cd 0.35149 0.30925 0.68669 0.0
O213 O 0.3506 0.2991 0.65855 0.0
O214 O 0.30026 0.28824 0.67928 0.0
O215 O 0.31785 0.31135 0.68088 0.0
C216 C 0.30409 0.3019 0.67884 0.0
C217 C 0.36836 0.33425 0.69186 0.0
C218 C 0.33903 0.28969 0.6491 0.0
C219 C 0.33403 0.28678 0.71962 0.0
O220 O 0.34651 0.29604 0.71257 0.0
O221 O 0.32243 0.28478 0.71053 0.0
O222 O 0.3724 0.32456 0.69149 0.0
O223 O 0.35466 0.32982 0.68871 0.0
O224 O 0.71967 0.04592 0.64851 0.0
Cd225 Cd 0.7105 0.03211 0.67375 0.0
Cd226 Cd 0.69606 0.04784 0.67638 0.0
O227 O 0.70565 0.05594 0.64774 0.0
O228 O 0.7167 0.01715 0.67005 0.0
O229 O 0.69353 0.01143 0.66982 0.0
C230 C 0.70312 0.00728 0.66816 0.0
C231 C 0.67117 0.03999 0.68162 0.0
C232 C 0.71595 0.05448 0.64006 0.0
C233 C 0.7179 0.05224 0.71048 0.0
O234 O 0.7099 0.05665 0.70194 0.0
O235 O 0.71869 0.04155 0.70266 0.0
O236 O 0.68081 0.05367 0.67995 0.0
O237 O 0.67561 0.03062 0.6799 0.0
O238 O 0.95988 0.66265 0.70929 0.0
Cd239 Cd 0.96641 0.65596 0.68319 0.0
Cd240 Cd 0.97973 0.68593 0.67489 0.0
O241 O 0.97003 0.68628 0.70287 0.0
O242 O 0.96104 0.63545 0.6904 0.0
O243 O 0.98368 0.65249 0.68321 0.0
C244 C 0.97461 0.63917 0.68853 0.0
C245 C 1.00408 0.70414 0.66833 0.0
C246 C 0.96207 0.67528 0.71424 0.0
C247 C 0.95611 0.66477 0.64504 0.0
O248 O 0.9657 0.67793 0.64943 0.0
O249 O 0.95473 0.65428 0.65638 0.0
O250 O 0.99349 0.7069 0.66786 0.0
O251 O 1.00093 0.69096 0.67292 0.0
H252 H 0.15102 0.32031 0.1567 0.0
H253 H 0.14838 0.32563 0.09038 0.0
H254 H 0.12938 0.3427 0.13334 0.0
H255 H 0.15392 0.30416 0.13013 0.0
H256 H 0.15558 0.30863 0.10314 0.0
H257 H 0.1744 0.32011 0.15535 0.0
H258 H 0.21721 0.34 0.12811 0.0
H259 H 0.17941 0.3243 0.08845 0.0
C260 C 0.14804 0.32484 0.14369 0.0
C261 C 0.14027 0.33224 0.14744 0.0
C262 C 0.15145 0.32279 0.12313 0.0
C263 C 0.14652 0.32782 0.10628 0.0
C264 C 0.13866 0.33514 0.10994 0.0
C265 C 0.13596 0.33759 0.13052 0.0
C266 C 0.15848 0.31351 0.11908 0.0
C267 C 0.17498 0.32195 0.12168 0.0
C268 C 0.18134 0.32407 0.14173 0.0
C269 C 0.19661 0.33074 0.14417 0.0
C270 C 0.20547 0.3354 0.12644 0.0
C271 C 0.19938 0.33304 0.10641 0.0
C272 C 0.18414 0.32643 0.104 0.0
H273 H 0.69282 0.83651 0.15783 0.0
H274 H 0.68197 0.82171 0.09382 0.0
H275 H 0.67823 0.79183 0.14199 0.0
H276 H 0.70405 0.85352 0.12614 0.0
H277 H 0.69573 0.84746 0.10118 0.0
H278 H 0.68768 0.85474 0.15635 0.0
H279 H 0.66361 0.87495 0.13458 0.0
H280 H 0.67968 0.85572 0.09045 0.0
C281 C 0.68842 0.82782 0.14627 0.0
C282 C 0.68501 0.81372 0.15229 0.0
C283 C 0.68712 0.83087 0.12518 0.0
C284 C 0.68239 0.81944 0.11021 0.0
C285 C 0.67938 0.80537 0.1162 0.0
C286 C 0.68048 0.80263 0.13728 0.0
C287 C 0.69334 0.84663 0.11817 0.0
C288 C 0.68372 0.85321 0.12297 0.0
C289 C 0.68237 0.85703 0.14365 0.0
C290 C 0.67487 0.86462 0.14795 0.0
C291 C 0.66875 0.86844 0.13143 0.0
C292 C 0.67058 0.86545 0.11071 0.0
C293 C 0.67794 0.8577 0.10651 0.0
H294 H 0.16331 0.81997 0.16101 0.0
H295 H 0.161 0.81042 0.09519 0.0
H296 H 0.12182 0.79187 0.13183 0.0
H297 H 0.18461 0.82105 0.14023 0.0
H298 H 0.18411 0.82132 0.11253 0.0
H299 H 0.18617 0.84224 0.16125 0.0
H300 H 0.21235 0.88371 0.1317 0.0
H301 H 0.19364 0.84423 0.09494 0.0
C302 C 0.15692 0.81518 0.14696 0.0
C303 C 0.14164 0.80632 0.14841 0.0
C304 C 0.16402 0.81712 0.12765 0.0
C305 C 0.15559 0.80971 0.10985 0.0
C306 C 0.14031 0.80063 0.1112 0.0
C307 C 0.13347 0.79941 0.13041 0.0
C308 C 0.18059 0.82475 0.1268 0.0
C309 C 0.18805 0.84133 0.12773 0.0
C310 C 0.19036 0.84855 0.14711 0.0
C311 C 0.19893 0.86388 0.14853 0.0
C312 C 0.20504 0.87199 0.13038 0.0
C313 C 0.20339 0.86504 0.11104 0.0
C314 C 0.19466 0.8497 0.10973 0.0
H315 H 0.3458 0.18168 0.86838 0.0
H316 H 0.35025 0.19134 0.93429 0.0
H317 H 0.32997 0.20869 0.89411 0.0
H318 H 0.36575 0.18172 0.89152 0.0
H319 H 0.36391 0.18137 0.91906 0.0
H320 H 0.34865 0.1601 0.86954 0.0
H321 H 0.3331 0.11896 0.90043 0.0
H322 H 0.34983 0.15846 0.93672 0.0
C323 C 0.34341 0.18628 0.88194 0.0
C324 C 0.33655 0.19466 0.87924 0.0
C325 C 0.34802 0.18464 0.90191 0.0
C326 C 0.34599 0.19184 0.91909 0.0
C327 C 0.33944 0.20055 0.91645 0.0
C328 C 0.33435 0.20144 0.89658 0.0
C329 C 0.35752 0.17769 0.90424 0.0
C330 C 0.34906 0.1611 0.9033 0.0
C331 C 0.34576 0.15382 0.88381 0.0
C332 C 0.3402 0.13863 0.88274 0.0
C333 C 0.33711 0.13064 0.90127 0.0
C334 C 0.34064 0.13765 0.92075 0.0
C335 C 0.34653 0.15291 0.92174 0.0
H336 H 0.85757 0.17209 0.86723 0.0
H337 H 0.85889 0.18087 0.93329 0.0
H338 H 0.87972 0.21638 0.88998 0.0
H339 H 0.85307 0.15306 0.89397 0.0
H340 H 0.85176 0.15641 0.92089 0.0
H341 H 0.83266 0.14956 0.86886 0.0
H342 H 0.7901 0.12637 0.89698 0.0
H343 H 0.82818 0.14861 0.93588 0.0
C344 C 0.8604 0.17976 0.88009 0.0
C345 C 0.86866 0.19486 0.87623 0.0
C346 C 0.85634 0.17457 0.90063 0.0
C347 C 0.86118 0.18473 0.91734 0.0
C348 C 0.86952 0.19985 0.91352 0.0
C349 C 0.87282 0.20476 0.89293 0.0
C350 C 0.84886 0.15828 0.90493 0.0
C351 C 0.83234 0.15059 0.90257 0.0
C352 C 0.8258 0.14646 0.88257 0.0
C353 C 0.81049 0.13781 0.88033 0.0
C354 C 0.80183 0.13359 0.89831 0.0
C355 C 0.80807 0.13746 0.91823 0.0
C356 C 0.82333 0.146 0.9204 0.0
H357 H 0.8454 0.66048 0.86403 0.0
H358 H 0.84907 0.65765 0.93066 0.0
H359 H 0.88759 0.67716 0.89243 0.0
H360 H 0.82451 0.64215 0.88608 0.0
H361 H 0.82575 0.64339 0.91378 0.0
H362 H 0.82593 0.6649 0.86626 0.0
H363 H 0.79596 0.67613 0.89428 0.0
H364 H 0.81239 0.6531 0.93005 0.0
C365 C 0.85204 0.66326 0.87806 0.0
C366 C 0.86731 0.6701 0.87626 0.0
C367 C 0.84532 0.65921 0.89778 0.0
C368 C 0.85416 0.66155 0.9156 0.0
C369 C 0.86947 0.66803 0.91383 0.0
C370 C 0.8759 0.67272 0.89417 0.0
C371 C 0.82877 0.65007 0.89933 0.0
C372 C 0.82102 0.65894 0.89872 0.0
C373 C 0.82025 0.66547 0.87994 0.0
C374 C 0.81143 0.67193 0.87836 0.0
C375 C 0.80346 0.67195 0.89581 0.0
C376 C 0.80365 0.66516 0.91443 0.0
C377 C 0.81254 0.65875 0.91589 0.0
H378 H 0.8202 0.65261 0.49079 0.0
H379 H 0.81211 0.65419 0.42498 0.0
H380 H 0.79292 0.66964 0.46995 0.0
H381 H 0.82067 0.63474 0.46232 0.0
H382 H 0.82332 0.64062 0.43598 0.0
H383 H 0.84031 0.64685 0.48864 0.0
H384 H 0.88396 0.6703 0.4642 0.0
H385 H 0.84737 0.65952 0.42387 0.0
C386 C 0.81566 0.65592 0.47816 0.0
C387 C 0.80688 0.66212 0.48279 0.0
C388 C 0.818 0.65337 0.45724 0.0
C389 C 0.81113 0.65683 0.44104 0.0
C390 C 0.80208 0.66268 0.4457 0.0
C391 C 0.80031 0.66556 0.46645 0.0
C392 C 0.82555 0.64468 0.45239 0.0
C393 C 0.84195 0.65309 0.45619 0.0
C394 C 0.84769 0.65266 0.47595 0.0
C395 C 0.86284 0.65859 0.47883 0.0
C396 C 0.87225 0.66569 0.46213 0.0
C397 C 0.86681 0.666 0.44234 0.0
C398 C 0.85164 0.65974 0.43936 0.0
H399 H 0.3517 0.1652 0.49063 0.0
H400 H 0.34584 0.15923 0.42393 0.0
H401 H 0.32878 0.12191 0.46417 0.0
H402 H 0.36769 0.1849 0.46556 0.0
H403 H 0.36358 0.18284 0.43838 0.0
H404 H 0.35156 0.18911 0.4907 0.0
H405 H 0.33371 0.21428 0.46418 0.0
H406 H 0.34865 0.19197 0.42383 0.0
C407 C 0.34696 0.15809 0.47716 0.0
C408 C 0.33952 0.14282 0.47982 0.0
C409 C 0.3489 0.16418 0.45705 0.0
C410 C 0.34365 0.15473 0.43954 0.0
C411 C 0.33621 0.13946 0.44213 0.0
C412 C 0.3339 0.13367 0.46227 0.0
C413 C 0.35849 0.18055 0.45411 0.0
C414 C 0.35034 0.18889 0.45696 0.0
C415 C 0.34808 0.19274 0.47717 0.0
C416 C 0.34192 0.20178 0.47991 0.0
C417 C 0.33791 0.20682 0.46228 0.0
C418 C 0.34035 0.20339 0.44214 0.0
C419 C 0.34644 0.19431 0.43944 0.0
H420 H 0.83129 0.15789 0.49093 0.0
H421 H 0.8287 0.14694 0.42558 0.0
H422 H 0.7897 0.12922 0.46244 0.0
H423 H 0.85241 0.15786 0.46995 0.0
H424 H 0.85191 0.15855 0.4423 0.0
H425 H 0.85448 0.17884 0.49183 0.0
H426 H 0.88052 0.2207 0.46338 0.0
H427 H 0.86151 0.18176 0.42537 0.0
C428 C 0.82486 0.15281 0.47702 0.0
C429 C 0.80957 0.14406 0.47865 0.0
C430 C 0.83188 0.1543 0.45775 0.0
C431 C 0.82337 0.14655 0.44018 0.0
C432 C 0.80809 0.13755 0.44173 0.0
C433 C 0.80135 0.13674 0.46086 0.0
C434 C 0.84845 0.16183 0.45677 0.0
C435 C 0.85605 0.1784 0.45819 0.0
C436 C 0.85854 0.18534 0.47783 0.0
C437 C 0.86712 0.20063 0.47965 0.0
C438 C 0.87317 0.209 0.46171 0.0
C439 C 0.87144 0.20235 0.44211 0.0
C440 C 0.86263 0.18702 0.44037 0.0
H441 H 0.00665 0.51137 0.19991 0.0
H442 H 0.01713 0.52735 0.26328 0.0
H443 H 0.99415 0.54168 0.22319 0.0
H444 H 0.02864 0.51343 0.22153 0.0
H445 H 0.02795 0.51427 0.24912 0.0
H446 H 0.01018 0.491 0.20174 0.0
H447 H 0.99553 0.45115 0.23578 0.0
H448 H 0.01483 0.49218 0.26871 0.0
C449 C 0.00555 0.51731 0.21295 0.0
C450 C 0.999 0.52591 0.20966 0.0
C451 C 0.01162 0.51724 0.23257 0.0
C452 C 0.01147 0.52637 0.2487 0.0
C453 C 0.00542 0.53543 0.24521 0.0
C454 C 0.99859 0.53451 0.22605 0.0
C455 C 0.02094 0.51006 0.23489 0.0
C456 C 0.01231 0.49344 0.23533 0.0
C457 C 0.00795 0.48533 0.21649 0.0
C458 C 1.00207 0.47006 0.21655 0.0
C459 C 0.99991 0.4629 0.23569 0.0
C460 C 0.00467 0.47073 0.25451 0.0
C461 C 0.01072 0.48601 0.2543 0.0
H462 H 0.52121 0.50509 0.20055 0.0
H463 H 0.52913 0.51536 0.26631 0.0
H464 H 0.54908 0.5495 0.22102 0.0
H465 H 0.52012 0.48685 0.22885 0.0
H466 H 0.51813 0.49047 0.25535 0.0
H467 H 0.49996 0.47941 0.20335 0.0
H468 H 0.45696 0.45971 0.2299 0.0
H469 H 0.4945 0.48572 0.26865 0.0
C470 C 0.52582 0.51306 0.21311 0.0
C471 C 0.53485 0.52796 0.20835 0.0
C472 C 0.52333 0.50838 0.23408 0.0
C473 C 0.53026 0.51885 0.25021 0.0
C474 C 0.53958 0.53366 0.24542 0.0
C475 C 0.54152 0.5381 0.22462 0.0
C476 C 0.51561 0.49218 0.23907 0.0
C477 C 0.49914 0.4844 0.23599 0.0
C478 C 0.49292 0.47805 0.21644 0.0
C479 C 0.4777 0.46887 0.21429 0.0
C480 C 0.46871 0.46682 0.23145 0.0
C481 C 0.47462 0.47275 0.25102 0.0
C482 C 0.48986 0.48158 0.25332 0.0
H483 H 0.51152 0.99433 0.19956 0.0
H484 H 0.5164 0.99446 0.26641 0.0
H485 H 0.55393 0.00999 0.22643 0.0
H486 H 0.49095 0.97711 0.22334 0.0
H487 H 0.49272 0.97983 0.25081 0.0
H488 H 0.49077 0.9973 0.20039 0.0
H489 H 0.46337 0.01218 0.22748 0.0
H490 H 0.48191 0.9925 0.2664 0.0
C491 C 0.51841 0.9974 0.21335 0.0
C492 C 0.53356 0.00342 0.21103 0.0
C493 C 0.51211 0.99445 0.23338 0.0
C494 C 0.52124 0.99735 0.25104 0.0
C495 C 0.53642 0.003 0.24879 0.0
C496 C 0.54242 0.00631 0.22868 0.0
C497 C 0.4956 0.98573 0.23568 0.0
C498 C 0.48815 0.99482 0.23386 0.0
C499 C 0.48617 0.99945 0.21411 0.0
C500 C 0.47747 0.006 0.21183 0.0
C501 C 0.47084 0.00801 0.22947 0.0
C502 C 0.47224 0.0031 0.24916 0.0
C503 C 0.48109 0.99668 0.25133 0.0
H504 H 0.48688 0.98549 0.82401 0.0
H505 H 0.48128 0.99238 0.75904 0.0
H506 H 0.46081 0.00458 0.80666 0.0
H507 H 0.48801 0.9698 0.79345 0.0
H508 H 0.49088 0.97693 0.76781 0.0
H509 H 0.50763 0.98193 0.8211 0.0
H510 H 0.55099 1.00094 0.7959 0.0
H511 H 0.51526 0.99361 0.75596 0.0
C512 C 0.48302 0.98999 0.81206 0.0
C513 C 0.4742 0.99593 0.81776 0.0
C514 C 0.48605 0.98904 0.79085 0.0
C515 C 0.47982 0.99386 0.77543 0.0
C516 C 0.47057 0.99932 0.78113 0.0
C517 C 0.46821 1.00068 0.80227 0.0
C518 C 0.49321 0.98021 0.78453 0.0
C519 C 0.50961 0.98783 0.78843 0.0
C520 C 0.5151 0.98704 0.80825 0.0
C521 C 0.53001 0.99159 0.81098 0.0
C522 C 0.53948 0.99747 0.79399 0.0
C523 C 0.53428 0.99818 0.77422 0.0
C524 C 0.51938 0.99357 0.77146 0.0
H525 H 0.02722 0.50017 0.82068 0.0
H526 H 0.01424 0.4936 0.75582 0.0
H527 H 1.00329 0.45668 0.79497 0.0
H528 H 0.03911 0.52019 0.79487 0.0
H529 H 0.03277 0.51754 0.76855 0.0
H530 H 0.0204 0.51899 0.8237 0.0
H531 H 1.00246 0.5459 0.80561 0.0
H532 H 0.02055 0.53021 0.75898 0.0
C533 C 0.02126 0.49288 0.80782 0.0
C534 C 0.01523 0.4777 0.81022 0.0
C535 C 0.02063 0.49876 0.78832 0.0
C536 C 0.01401 0.4892 0.77116 0.0
C537 C 0.0077 0.474 0.77361 0.0
C538 C 0.00797 0.46841 0.79325 0.0
C539 C 0.02904 0.51519 0.78502 0.0
C540 C 0.02036 0.52267 0.79046 0.0
C541 C 0.01723 0.52395 0.8115 0.0
C542 C 0.01064 0.53222 0.81694 0.0
C543 C 0.00727 0.53927 0.80127 0.0
C544 C 0.01119 0.53905 0.78044 0.0
C545 C 0.01731 0.53032 0.77498 0.0
H546 H 0.49698 0.48545 0.82497 0.0
H547 H 0.49278 0.48188 0.75793 0.0
H548 H 0.45472 0.45989 0.79683 0.0
H549 H 0.51788 0.48992 0.80236 0.0
H550 H 0.51618 0.48948 0.77469 0.0
H551 H 0.51594 0.51117 0.82201 0.0
H552 H 0.54507 0.55216 0.79301 0.0
H553 H 0.52882 0.51227 0.75792 0.0
C554 C 0.49021 0.48194 0.81103 0.0
C555 C 0.47501 0.47296 0.81293 0.0
C556 C 0.49674 0.48558 0.79115 0.0
C557 C 0.48779 0.47981 0.77321 0.0
C558 C 0.47255 0.47057 0.77506 0.0
C559 C 0.46632 0.46757 0.79502 0.0
C560 C 0.51326 0.49323 0.78922 0.0
C561 C 0.52065 0.50981 0.7895 0.0
C562 C 0.52145 0.5173 0.80819 0.0
C563 C 0.53005 0.53264 0.80942 0.0
C564 C 0.53771 0.54044 0.79174 0.0
C565 C 0.53741 0.53326 0.77316 0.0
C566 C 0.52875 0.51792 0.77205 0.0
H567 H 0.68042 0.85259 0.53454 0.0
H568 H 0.68434 0.86103 0.6008 0.0
H569 H 0.66449 0.8792 0.5613 0.0
H570 H 0.69975 0.85149 0.55767 0.0
H571 H 0.69772 0.8508 0.58522 0.0
H572 H 0.6807 0.83043 0.53511 0.0
H573 H 0.66551 0.78863 0.56362 0.0
H574 H 0.68476 0.82751 0.60165 0.0
C575 C 0.67791 0.85691 0.54829 0.0
C576 C 0.67117 0.8654 0.54591 0.0
C577 C 0.68225 0.85477 0.5682 0.0
C578 C 0.68019 0.86178 0.58563 0.0
C579 C 0.67374 0.8706 0.58329 0.0
C580 C 0.66882 0.87188 0.56348 0.0
C581 C 0.69144 0.84745 0.57029 0.0
C582 C 0.6827 0.83087 0.56877 0.0
C583 C 0.67838 0.82393 0.54909 0.0
C584 C 0.67193 0.80865 0.54723 0.0
C585 C 0.66968 0.8003 0.56522 0.0
C586 C 0.67443 0.80697 0.58485 0.0
C587 C 0.68074 0.82226 0.5866 0.0
H588 H 0.18914 0.83974 0.53441 0.0
H589 H 0.19561 0.84982 0.60033 0.0
H590 H 0.21573 0.88413 0.55508 0.0
H591 H 0.18679 0.82117 0.56364 0.0
H592 H 0.1836 0.82487 0.58959 0.0
H593 H 0.16843 0.81661 0.53494 0.0
H594 H 0.12403 0.79699 0.55565 0.0
H595 H 0.15914 0.81822 0.60016 0.0
C596 C 0.19336 0.84764 0.54706 0.0
C597 C 0.2023 0.86253 0.54242 0.0
C598 C 0.19036 0.84294 0.56798 0.0
C599 C 0.19708 0.85338 0.58423 0.0
C600 C 0.20659 0.86823 0.57963 0.0
C601 C 0.20854 0.87267 0.55875 0.0
C602 C 0.18202 0.82669 0.57292 0.0
C603 C 0.16578 0.81929 0.56792 0.0
C604 C 0.16072 0.81463 0.54734 0.0
C605 C 0.14566 0.80685 0.54284 0.0
C606 C 0.13565 0.80361 0.55901 0.0
C607 C 0.14035 0.80744 0.57971 0.0
C608 C 0.15545 0.81545 0.58412 0.0
H609 H 0.18102 0.32424 0.53411 0.0
H610 H 0.17971 0.3225 0.6012 0.0
H611 H 0.22095 0.34182 0.56968 0.0
H612 H 0.15853 0.30747 0.55271 0.0
H613 H 0.15799 0.30717 0.58042 0.0
H614 H 0.15809 0.32819 0.53323 0.0
H615 H 0.13053 0.34212 0.5626 0.0
H616 H 0.14761 0.31966 0.59849 0.0
C617 C 0.18674 0.3273 0.54897 0.0
C618 C 0.20207 0.33352 0.54956 0.0
C619 C 0.17859 0.32372 0.56761 0.0
C620 C 0.18596 0.32623 0.58692 0.0
C621 C 0.20127 0.3326 0.58773 0.0
C622 C 0.20916 0.33694 0.56906 0.0
C623 C 0.16202 0.31466 0.5668 0.0
C624 C 0.15458 0.32378 0.56626 0.0
C625 C 0.15316 0.3296 0.54722 0.0
C626 C 0.14459 0.33636 0.54588 0.0
C627 C 0.13776 0.33761 0.56386 0.0
C628 C 0.13864 0.33153 0.58284 0.0
C629 C 0.14722 0.32475 0.58403 0.0
H630 H 0.97293 0.37739 0.06219 0.0
H631 H 0.97007 0.39266 0.08862 0.0
H632 H 0.01678 0.41659 0.09845 0.0
H633 H 0.01976 0.40148 0.07226 0.0
H634 H 0.97769 0.39781 0.13037 0.0
H635 H 0.02772 0.45264 0.10409 0.0
H636 H 0.04095 0.464 0.07162 0.0
H637 H 1.00216 0.43676 0.03569 0.0
H638 H 0.98863 0.4254 0.06795 0.0
H639 H 0.01057 0.45009 0.20922 0.0
H640 H 0.00582 0.43453 0.17872 0.0
H641 H 0.9851 0.45578 0.14797 0.0
H642 H 0.98938 0.4712 0.17923 0.0
H643 H 0.00545 0.45186 0.12275 0.0
H644 H 0.96387 0.42391 0.16484 0.0
H645 H 0.95016 0.41238 0.19689 0.0
H646 H 0.97 0.38546 0.19997 0.0
H647 H 0.98419 0.39713 0.16831 0.0
C648 C 0.98258 0.3858 0.07014 0.0
C649 C 0.99659 0.38822 0.06501 0.0
C650 C 0.98092 0.39453 0.0852 0.0
C651 C 0.99324 0.40594 0.09519 0.0
C652 C 0.00715 0.40803 0.09063 0.0
C653 C 0.00882 0.39929 0.07574 0.0
C654 C 0.99172 0.41572 0.11047 0.0
C655 C 0.98365 0.40962 0.12867 0.0
C656 C 0.99921 0.43112 0.10794 0.0
C657 C 0.00719 0.4381 0.08846 0.0
C658 C 0.02199 0.44914 0.08928 0.0
C659 C 0.02955 0.45556 0.0709 0.0
C660 C 0.02241 0.45108 0.0516 0.0
C661 C 0.00769 0.44019 0.05064 0.0
C662 C 1.00007 0.43374 0.06897 0.0
C663 C 0.00476 0.45131 0.19617 0.0
C664 C 0.99996 0.46158 0.19692 0.0
C665 C 1.00213 0.44246 0.17867 0.0
C666 C 0.99484 0.44379 0.16126 0.0
C667 C 0.99061 0.4545 0.16139 0.0
C668 C 0.9931 0.46331 0.17917 0.0
C669 C 0.99197 0.43396 0.14306 0.0
C670 C 0.99925 0.44005 0.12431 0.0
C671 C 0.98367 0.41854 0.14504 0.0
C672 C 0.97519 0.4115 0.16421 0.0
C673 C 0.96545 0.41565 0.17247 0.0
C674 C 0.95758 0.40908 0.19058 0.0
C675 C 0.95923 0.39821 0.20048 0.0
C676 C 0.96873 0.39387 0.19227 0.0
C677 C 0.97672 0.40049 0.17426 0.0
H678 H 0.95312 0.39314 0.2145 0.0
H679 H 0.02829 0.45606 0.03739 0.0
H680 H 0.6211 0.59314 0.05428 0.0
H681 H 0.60556 0.57604 0.08114 0.0
H682 H 0.59042 0.60573 0.09858 0.0
H683 H 0.60592 0.6229 0.07188 0.0
H684 H 0.59592 0.59374 0.13273 0.0
H685 H 0.56986 0.57687 0.06724 0.0
H686 H 0.56675 0.56873 0.0305 0.0
H687 H 0.57263 0.53271 0.04787 0.0
H688 H 0.57598 0.54077 0.0847 0.0
H689 H 0.53338 0.5501 0.18918 0.0
H690 H 0.54738 0.56367 0.15868 0.0
H691 H 0.56125 0.53196 0.14889 0.0
H692 H 0.54714 0.51829 0.17948 0.0
H693 H 0.55725 0.5439 0.11108 0.0
H694 H 0.58207 0.5599 0.17677 0.0
H695 H 0.5845 0.56754 0.21367 0.0
H696 H 0.58133 0.60511 0.19617 0.0
H697 H 0.5785 0.59749 0.15918 0.0
C698 C 0.61462 0.59613 0.064 0.0
C699 C 0.61472 0.60939 0.06082 0.0
C700 C 0.60566 0.58629 0.07927 0.0
C701 C 0.59667 0.58951 0.09168 0.0
C702 C 0.59723 0.60299 0.08914 0.0
C703 C 0.6061 0.61279 0.07382 0.0
C704 C 0.58633 0.57871 0.10691 0.0
C705 C 0.5874 0.5829 0.12795 0.0
C706 C 0.57541 0.56441 0.10078 0.0
C707 C 0.57333 0.55951 0.07868 0.0
C708 C 0.57061 0.56728 0.0632 0.0
C709 C 0.56878 0.56267 0.04237 0.0
C710 C 0.56953 0.55024 0.03685 0.0
C711 C 0.57207 0.54236 0.05216 0.0
C712 C 0.57393 0.54693 0.07302 0.0
C713 C 0.53898 0.54575 0.18006 0.0
C714 C 0.53925 0.53321 0.18671 0.0
C715 C 0.54705 0.55354 0.16273 0.0
C716 C 0.55561 0.54899 0.15183 0.0
C717 C 0.55476 0.53568 0.15716 0.0
C718 C 0.54663 0.52783 0.17455 0.0
C719 C 0.56672 0.55905 0.13675 0.0
C720 C 0.56583 0.55472 0.11583 0.0
C721 C 0.57787 0.57321 0.14299 0.0
C722 C 0.57993 0.57804 0.16519 0.0
C723 C 0.58177 0.56973 0.18079 0.0
C724 C 0.58323 0.57406 0.20173 0.0
C725 C 0.58305 0.58679 0.20726 0.0
C726 C 0.58145 0.59524 0.19186 0.0
C727 C 0.57991 0.59092 0.1709 0.0
H728 H 0.58418 0.59013 0.22348 0.0
H729 H 0.56811 0.54668 0.02071 0.0
H730 H 0.41315 0.02656 0.05438 0.0
H731 H 0.43039 0.02822 0.08141 0.0
H732 H 0.39682 0.98814 0.10858 0.0
H733 H 0.37958 0.9862 0.08131 0.0
H734 H 0.4146 0.01125 0.13835 0.0
H735 H 0.41832 0.98396 0.0814 0.0
H736 H 0.42134 0.9788 0.04477 0.0
H737 H 0.46382 0.01739 0.04347 0.0
H738 H 0.46096 0.0229 0.08009 0.0
H739 H 0.46726 0.98728 0.17845 0.0
H740 H 0.45356 0.9888 0.14858 0.0
H741 H 0.46322 0.03179 0.16881 0.0
H742 H 0.47694 0.03033 0.19869 0.0
H743 H 0.45703 0.00666 0.11529 0.0
H744 H 0.43062 0.0321 0.16734 0.0
H745 H 0.42623 0.03406 0.20472 0.0
H746 H 0.42648 0.99419 0.21692 0.0
H747 H 0.43052 0.99181 0.17957 0.0
C748 C 0.40935 0.01822 0.0663 0.0
C749 C 0.395 0.00623 0.06569 0.0
C750 C 0.41924 0.01916 0.08166 0.0
C751 C 0.41488 0.00826 0.09689 0.0
C752 C 0.40038 0.99666 0.09695 0.0
C753 C 0.39056 0.99556 0.08135 0.0
C754 C 0.42568 0.00856 0.11204 0.0
C755 C 0.42393 0.01036 0.13333 0.0
C756 C 0.43764 0.00703 0.10548 0.0
C757 C 0.43935 0.00393 0.08339 0.0
C758 C 0.42824 0.99144 0.07323 0.0
C759 C 0.42993 0.98843 0.0525 0.0
C760 C 0.44276 0.99777 0.0418 0.0
C761 C 0.45389 0.01017 0.0518 0.0
C762 C 0.45224 0.01324 0.07254 0.0
C763 C 0.46696 0.99728 0.17608 0.0
C764 C 0.47305 0.00863 0.19099 0.0
C765 C 0.45905 0.99811 0.15906 0.0
C766 C 0.45711 0.01027 0.15677 0.0
C767 C 0.46438 0.0222 0.17051 0.0
C768 C 0.47226 0.02138 0.18751 0.0
C769 C 0.44619 0.00975 0.1416 0.0
C770 C 0.44784 0.00781 0.12031 0.0
C771 C 0.43393 0.0108 0.14824 0.0
C772 C 0.43106 0.01189 0.17067 0.0
C773 C 0.42965 0.02371 0.17798 0.0
C774 C 0.42722 0.02489 0.19916 0.0
C775 C 0.42613 0.01428 0.2132 0.0
C776 C 0.42737 1.00242 0.20605 0.0
C777 C 0.42972 1.00115 0.18487 0.0
H778 H 0.42429 0.01524 0.2296 0.0
H779 H 0.44408 0.99534 0.02582 0.0
H780 H 0.38971 0.97521 0.97343 0.0
H781 H 0.40645 0.97457 0.94756 0.0
H782 H 0.40897 0.01203 0.91685 0.0
H783 H 0.39261 0.01307 0.94307 0.0
H784 H 0.40536 0.98639 0.88969 0.0
H785 H 0.43489 0.0212 0.94302 0.0
H786 H 0.44298 0.02966 0.97909 0.0
H787 H 0.45365 0.99569 0.98745 0.0
H788 H 0.44534 0.98684 0.9515 0.0
H789 H 0.48004 0.01863 0.84382 0.0
H790 H 0.46541 0.01765 0.87411 0.0
H791 H 0.44062 0.9706 0.86889 0.0
H792 H 0.45548 0.97155 0.83892 0.0
H793 H 0.45568 1.00141 0.91423 0.0
H794 H 0.4046 0.96388 0.86553 0.0
H795 H 0.3979 0.95711 0.82853 0.0
H796 H 0.43185 0.99967 0.80968 0.0
H797 H 0.43851 0.00678 0.84654 0.0
C798 C 0.39362 0.98316 0.96096 0.0
C799 C 0.38984 0.9942 0.96027 0.0
C800 C 0.40322 0.98281 0.94627 0.0
C801 C 0.40896 0.99329 0.93039 0.0
C802 C 0.40463 0.00385 0.929 0.0
C803 C 0.3953 0.00443 0.94398 0.0
C804 C 0.42014 0.99372 0.916 0.0
C805 C 0.41632 0.9896 0.89507 0.0
C806 C 0.4345 0.99811 0.92298 0.0
C807 C 0.4393 0.00324 0.94468 0.0
C808 C 0.43876 0.0154 0.95264 0.0
C809 C 0.44343 0.0203 0.97305 0.0
C810 C 0.44878 0.01319 0.98558 0.0
C811 C 0.44946 1.00116 0.97774 0.0
C812 C 0.44477 0.9962 0.95736 0.0
C813 C 0.47194 0.00807 0.84983 0.0
C814 C 0.46896 0.99515 0.8393 0.0
C815 C 0.46356 0.00752 0.86704 0.0
C816 C 0.45187 0.99406 0.87358 0.0
C817 C 0.44961 0.98107 0.86407 0.0
C818 C 0.45816 0.98161 0.84708 0.0
C819 C 0.44081 0.9938 0.88805 0.0
C820 C 0.44466 0.99802 0.90893 0.0
C821 C 0.42654 0.98971 0.88095 0.0
C822 C 0.42216 0.98578 0.85878 0.0
C823 C 0.41056 0.97182 0.85349 0.0
C824 C 0.40677 0.96792 0.83254 0.0
C825 C 0.41448 0.97793 0.81676 0.0
C826 C 0.42591 0.99191 0.82191 0.0
C827 C 0.42969 0.99587 0.84282 0.0
H828 H 0.41159 0.97488 0.80056 0.0
H829 H 0.45248 0.01707 0.00132 0.0
H830 H 0.99043 0.38177 0.94598 0.0
H831 H 0.9937 0.39946 0.91903 0.0
H832 H 0.03596 0.43014 0.94509 0.0
H833 H 0.033 0.41228 0.97154 0.0
H834 H 0.99573 0.42475 0.92098 0.0
H835 H 0.05822 0.45312 0.90802 0.0
H836 H 0.07816 0.44734 0.90954 0.0
H837 H 0.04739 0.402 0.89746 0.0
H838 H 0.02731 0.40755 0.89562 0.0
H839 H 0.0124 0.48364 0.85144 0.0
H840 H 0.01409 0.47082 0.88239 0.0
H841 H 0.02467 0.44419 0.84286 0.0
H842 H 0.0238 0.45737 0.81245 0.0
H843 H 0.03961 0.44956 0.87612 0.0
H844 H 0.98865 0.43294 0.86093 0.0
H845 H 0.96716 0.43603 0.85585 0.0
H846 H 0.97218 0.45301 0.91823 0.0
H847 H 0.99382 0.45017 0.92358 0.0
C848 C 1.00051 0.39221 0.94579 0.0
C849 C 0.01149 0.39556 0.96083 0.0
C850 C 1.00233 0.40237 0.93045 0.0
C851 C 0.0151 0.41616 0.92991 0.0
C852 C 0.02612 0.41951 0.94488 0.0
C853 C 0.0244 0.40926 0.96003 0.0
C854 C 0.01673 0.42705 0.91385 0.0
C855 C 0.00536 0.4302 0.91122 0.0
C856 C 0.02925 0.43418 0.90101 0.0
C857 C 0.04125 0.43073 0.90194 0.0
C858 C 0.05573 0.44193 0.90565 0.0
C859 C 0.06705 0.43869 0.90657 0.0
C860 C 0.06404 0.4243 0.90368 0.0
C861 C 0.0497 0.41313 0.89978 0.0
C862 C 0.03834 0.41631 0.89883 0.0
C863 C 0.01534 0.47523 0.84949 0.0
C864 C 0.01761 0.47127 0.82946 0.0
C865 C 0.01619 0.46782 0.86714 0.0
C866 C 0.0192 0.45629 0.86496 0.0
C867 C 0.02224 0.45295 0.84505 0.0
C868 C 0.02156 0.4604 0.82759 0.0
C869 C 0.01848 0.44702 0.88292 0.0
C870 C 0.03006 0.44425 0.88605 0.0
C871 C 0.00595 0.43985 0.89573 0.0
C872 C 0.99293 0.4415 0.89256 0.0
C873 C 0.98522 0.43742 0.87351 0.0
C874 C 0.97301 0.43911 0.87059 0.0
C875 C 0.96834 0.44475 0.88669 0.0
C876 C 0.97584 0.44867 0.90576 0.0
C877 C 0.98806 0.44702 0.90875 0.0
H878 H 0.95888 0.44606 0.8844 0.0
H879 H 0.07282 0.42182 0.90441 0.0
H880 H 0.62249 0.60931 0.94075 0.0
H881 H 0.60466 0.59505 0.91339 0.0
H882 H 0.57489 0.60812 0.93792 0.0
H883 H 0.59273 0.62262 0.96512 0.0
H884 H 0.56235 0.57732 0.93186 0.0
H885 H 0.59024 0.62221 0.89495 0.0
H886 H 0.61231 0.64328 0.88055 0.0
H887 H 0.62077 0.61427 0.84366 0.0
H888 H 0.59892 0.59298 0.85816 0.0
H889 H 0.53071 0.55846 0.81712 0.0
H890 H 0.54261 0.57498 0.84672 0.0
H891 H 0.54891 0.54197 0.87664 0.0
H892 H 0.53723 0.52547 0.84689 0.0
H893 H 0.57128 0.58458 0.85575 0.0
H894 H 0.55155 0.54883 0.93007 0.0
H895 H 0.52895 0.528 0.94382 0.0
H896 H 0.50308 0.5396 0.90504 0.0
H897 H 0.52551 0.56061 0.89129 0.0
C898 C 0.61223 0.60933 0.94015 0.0
C899 C 0.60904 0.61711 0.95511 0.0
C900 C 0.60207 0.60118 0.92451 0.0
C901 C 0.58845 0.60052 0.92369 0.0
C902 C 0.58533 0.60849 0.93833 0.0
C903 C 0.59558 0.61684 0.95376 0.0
C904 C 0.57727 0.59098 0.9081 0.0
C905 C 0.56426 0.57892 0.91521 0.0
C906 C 0.57972 0.59318 0.88639 0.0
C907 C 0.59302 0.60597 0.87788 0.0
C908 C 0.59691 0.6203 0.88399 0.0
C909 C 0.60937 0.63229 0.87576 0.0
C910 C 0.61797 0.63011 0.86126 0.0
C911 C 0.61412 0.61594 0.85494 0.0
C912 C 0.6017 0.6039 0.86317 0.0
C913 C 0.53428 0.55458 0.83027 0.0
C914 C 0.53316 0.54071 0.82959 0.0
C915 C 0.54111 0.56404 0.84713 0.0
C916 C 0.54675 0.55975 0.86378 0.0
C917 C 0.54454 0.54546 0.864 0.0
C918 C 0.53778 0.536 0.84704 0.0
C919 C 0.55647 0.57074 0.87949 0.0
C920 C 0.56929 0.58303 0.8724 0.0
C921 C 0.55381 0.56875 0.90117 0.0
C922 C 0.54024 0.55623 0.90951 0.0
C923 C 0.54104 0.54697 0.92454 0.0
C924 C 0.52826 0.53513 0.93233 0.0
C925 C 0.51459 0.53245 0.92526 0.0
C926 C 0.51368 0.54165 0.91044 0.0
C927 C 0.52643 0.55351 0.90262 0.0
H928 H 0.50471 0.52327 0.9313 0.0
H929 H 0.62759 0.63942 0.85488 0.0
H930 H 0.02895 0.62011 0.96678 0.0
H931 H 0.03048 0.6035 0.94162 0.0
H932 H 0.98406 0.58315 0.92985 0.0
H933 H 0.98237 0.59949 0.95542 0.0
H934 H 0.99144 0.56284 0.93498 0.0
H935 H 0.01003 0.60675 0.8944 0.0
H936 H 0.02613 0.63292 0.88669 0.0
H937 H 0.0638 0.62753 0.8906 0.0
H938 H 0.04793 0.60134 0.8986 0.0
H939 H 0.98632 0.5291 0.83632 0.0
H940 H 0.98591 0.54197 0.86791 0.0
H941 H 0.0318 0.55739 0.878 0.0
H942 H 0.03224 0.54456 0.84625 0.0
H943 H 0.02609 0.57968 0.87575 0.0
H944 H 0.00673 0.53486 0.9131 0.0
H945 H 0.99017 0.50862 0.9198 0.0
H946 H 0.95342 0.51558 0.92091 0.0
H947 H 0.96972 0.54183 0.91391 0.0
C948 C 0.01908 0.61225 0.95864 0.0
C949 C 0.00553 0.61118 0.96312 0.0
C950 C 0.01998 0.60273 0.94423 0.0
C951 C 0.0074 0.59209 0.93373 0.0
C952 C 0.99392 0.59122 0.93781 0.0
C953 C 0.99299 0.60065 0.95234 0.0
C954 C 0.0082 0.58162 0.91888 0.0
C955 C 0.99891 0.56653 0.92189 0.0
C956 C 0.01825 0.58638 0.90215 0.0
C957 C 0.0278 0.60212 0.89732 0.0
C958 C 0.02176 0.61117 0.89378 0.0
C959 C 0.03084 0.626 0.88932 0.0
C960 C 0.04598 0.63189 0.88822 0.0
C961 C 0.05207 0.62295 0.8915 0.0
C962 C 0.04304 0.60811 0.89598 0.0
C963 C 0.99617 0.53477 0.84575 0.0
C964 C 0.0093 0.53581 0.83891 0.0
C965 C 0.99594 0.54214 0.86378 0.0
C966 C 0.00885 0.55071 0.8753 0.0
C967 C 0.02173 0.55086 0.86934 0.0
C968 C 0.02193 0.54339 0.85135 0.0
C969 C 0.00924 0.5609 0.89172 0.0
C970 C 0.01874 0.57597 0.88897 0.0
C971 C 0.99931 0.55611 0.90857 0.0
C972 C 0.98945 0.54031 0.91281 0.0
C973 C 0.9951 0.53078 0.9146 0.0
C974 C 0.98576 0.5159 0.91848 0.0
C975 C 0.97075 0.51043 0.92074 0.0
C976 C 0.96505 0.51983 0.91915 0.0
C977 C 0.97434 0.53472 0.91525 0.0
H978 H 0.96354 0.49891 0.92375 0.0
H979 H 0.05299 0.64338 0.88476 0.0
H980 H 0.38197 0.40946 0.96227 0.0
H981 H 0.39828 0.42605 0.93553 0.0
H982 H 0.41331 0.39571 0.92168 0.0
H983 H 0.39726 0.37921 0.94847 0.0
H984 H 0.43588 0.42272 0.92741 0.0
H985 H 0.39059 0.4009 0.88808 0.0
H986 H 0.36485 0.39393 0.88155 0.0
H987 H 0.37631 0.43911 0.88461 0.0
H988 H 0.40209 0.44633 0.89142 0.0
H989 H 0.47371 0.44981 0.83255 0.0
H990 H 0.45784 0.43617 0.86162 0.0
H991 H 0.44405 0.46829 0.86714 0.0
H992 H 0.45958 0.48161 0.83735 0.0
H993 H 0.42122 0.44232 0.86758 0.0
H994 H 0.46663 0.46453 0.90485 0.0
H995 H 0.49242 0.47181 0.91159 0.0
H996 H 0.48099 0.42663 0.91327 0.0
H997 H 0.45516 0.41907 0.90626 0.0
C998 C 0.38856 0.4062 0.9533 0.0
C999 C 0.38832 0.393 0.9576 0.0
C1000 C 0.39789 0.41571 0.938 0.0
C1001 C 0.40705 0.41215 0.92659 0.0
C1002 C 0.40643 0.39875 0.93036 0.0
C1003 C 0.39717 0.38928 0.94565 0.0
C1004 C 0.41783 0.4226 0.91143 0.0
C1005 C 0.43266 0.42689 0.91419 0.0
C1006 C 0.41372 0.42847 0.89463 0.0
C1007 C 0.39824 0.42413 0.89048 0.0
C1008 C 0.3876 0.40933 0.88753 0.0
C1009 C 0.37301 0.40534 0.88374 0.0
C1010 C 0.36894 0.41606 0.88273 0.0
C1011 C 0.37947 0.43081 0.88543 0.0
C1012 C 0.39407 0.43486 0.88924 0.0
C1013 C 0.46764 0.45417 0.84046 0.0
C1014 C 0.4681 0.46691 0.8332 0.0
C1015 C 0.45854 0.44637 0.85704 0.0
C1016 C 0.44987 0.45129 0.86687 0.0
C1017 C 0.45067 0.4643 0.85992 0.0
C1018 C 0.45965 0.472 0.84311 0.0
C1019 C 0.43929 0.44229 0.88336 0.0
C1020 C 0.4245 0.43828 0.88089 0.0
C1021 C 0.44344 0.43673 0.90054 0.0
C1022 C 0.45897 0.44124 0.90488 0.0
C1023 C 0.46963 0.45615 0.90652 0.0
C1024 C 0.48426 0.46033 0.91041 0.0
C1025 C 0.48835 0.44969 0.91282 0.0
C1026 C 0.47781 0.43486 0.91139 0.0
C1027 C 0.46317 0.43062 0.9075 0.0
H1028 H 0.49968 0.45295 0.91582 0.0
H1029 H 0.35764 0.41295 0.87979 0.0
H1030 H 0.59414 0.9757 0.976 0.0
H1031 H 0.57613 0.97296 0.94969 0.0
H1032 H 0.6089 0.01192 0.91892 0.0
H1033 H 0.62671 0.01515 0.94596 0.0
H1034 H 0.58562 0.01307 0.91923 0.0
H1035 H 0.59582 0.97492 0.90037 0.0
H1036 H 0.59812 0.95302 0.90597 0.0
H1037 H 0.55258 0.92812 0.92167 0.0
H1038 H 0.55005 0.94992 0.91639 0.0
H1039 H 0.54704 0.97918 0.81509 0.0
H1040 H 0.56009 0.97846 0.84597 0.0
H1041 H 0.53892 0.99682 0.88282 0.0
H1042 H 0.5262 0.99816 0.85137 0.0
H1043 H 0.55458 0.96627 0.8816 0.0
H1044 H 0.56306 0.01941 0.9202 0.0
H1045 H 0.56362 0.04232 0.91056 0.0
H1046 H 0.5768 0.03893 0.84841 0.0
H1047 H 0.5765 0.01612 0.85777 0.0
C1048 C 0.59755 0.98359 0.96348 0.0
C1049 C 0.61188 0.99559 0.96296 0.0
C1050 C 0.58723 0.982 0.94839 0.0
C1051 C 0.59113 0.99212 0.93206 0.0
C1052 C 0.60554 0.00398 0.93136 0.0
C1053 C 0.61576 0.00577 0.94674 0.0
C1054 C 0.5802 0.99055 0.91589 0.0
C1055 C 0.57883 0.0028 0.91107 0.0
C1056 C 0.57131 0.97721 0.90506 0.0
C1057 C 0.57279 0.96408 0.9082 0.0
C1058 C 0.58632 0.96479 0.90515 0.0
C1059 C 0.58766 0.9524 0.90825 0.0
C1060 C 0.57551 0.9392 0.91424 0.0
C1061 C 0.56198 0.93836 0.91707 0.0
C1062 C 0.56059 0.95072 0.91401 0.0
C1063 C 0.54512 0.98305 0.82978 0.0
C1064 C 0.53586 0.98906 0.83072 0.0
C1065 C 0.5525 0.9825 0.8475 0.0
C1066 C 0.55074 0.98782 0.86672 0.0
C1067 C 0.5407 0.99291 0.86808 0.0
C1068 C 0.53333 0.99356 0.85017 0.0
C1069 C 0.56023 0.98885 0.88469 0.0
C1070 C 0.56127 0.97648 0.88995 0.0
C1071 C 0.56923 1.00221 0.89536 0.0
C1072 C 0.56957 0.01598 0.88963 0.0
C1073 C 0.5661 0.02358 0.9045 0.0
C1074 C 0.56638 0.03654 0.89909 0.0
C1075 C 0.57018 0.04204 0.87887 0.0
C1076 C 0.57379 0.03463 0.86404 0.0
C1077 C 0.57357 0.02168 0.86939 0.0
H1078 H 0.57037 0.05207 0.8747 0.0
H1079 H 0.57657 0.92962 0.91663 0.0
H1080 H 0.61124 0.98651 0.07779 0.0
H1081 H 0.59519 0.98778 0.10394 0.0
H1082 H 0.61136 0.03313 0.08912 0.0
H1083 H 0.62761 0.03201 0.0628 0.0
H1084 H 0.60693 0.02726 0.1322 0.0
H1085 H 0.58016 0.00849 0.06796 0.0
H1086 H 0.57128 0.99207 0.03727 0.0
H1087 H 0.54938 0.95482 0.0774 0.0
H1088 H 0.55832 0.97101 0.10835 0.0
H1089 H 0.54959 0.02799 0.18804 0.0
H1090 H 0.56532 0.03053 0.1583 0.0
H1091 H 0.54963 0.98409 0.15999 0.0
H1092 H 0.53353 0.98155 0.18903 0.0
H1093 H 0.55392 0.99263 0.12131 0.0
H1094 H 0.58149 0.0104 0.18525 0.0
H1095 H 0.59054 0.02607 0.2167 0.0
H1096 H 0.61133 0.06434 0.17827 0.0
H1097 H 0.60212 0.04889 0.14661 0.0
C1098 C 0.61159 0.99684 0.08023 0.0
C1099 C 0.62063 0.00912 0.06799 0.0
C1100 C 0.60234 0.99752 0.09517 0.0
C1101 C 0.60186 0.01046 0.09818 0.0
C1102 C 0.6115 0.02301 0.08694 0.0
C1103 C 0.62079 0.02234 0.07192 0.0
C1104 C 0.59071 0.01052 0.11222 0.0
C1105 C 0.59532 0.01988 0.12966 0.0
C1106 C 0.57558 1.00071 0.10907 0.0
C1107 C 0.57 0.99096 0.09047 0.0
C1108 C 0.57353 0.99679 0.07024 0.0
C1109 C 0.56847 0.98753 0.0528 0.0
C1110 C 0.55979 0.97241 0.05538 0.0
C1111 C 0.55611 0.96653 0.07542 0.0
C1112 C 0.56116 0.97575 0.09291 0.0
C1113 C 0.54917 0.0183 0.18147 0.0
C1114 C 0.54024 0.00455 0.19045 0.0
C1115 C 0.55828 0.01976 0.16471 0.0
C1116 C 0.5589 0.00754 0.15714 0.0
C1117 C 0.54936 0.99368 0.16548 0.0
C1118 C 0.54011 0.9922 0.18199 0.0
C1119 C 0.57009 0.00919 0.14159 0.0
C1120 C 0.5655 1.00015 0.1238 0.0
C1121 C 0.58524 0.0192 0.14457 0.0
C1122 C 0.59098 0.02849 0.16358 0.0
C1123 C 0.58792 0.02215 0.18353 0.0
C1124 C 0.59308 0.03099 0.20139 0.0
C1125 C 0.6015 0.04619 0.19948 0.0
C1126 C 0.60479 0.05257 0.17972 0.0
C1127 C 0.59959 0.04377 0.16182 0.0
H1128 H 0.60549 0.05302 0.21332 0.0
H1129 H 0.5559 0.96525 0.04186 0.0
H1130 H 0.01981 0.61405 0.06808 0.0
H1131 H 0.01692 0.5955 0.09321 0.0
H1132 H 0.97073 0.58026 0.09699 0.0
H1133 H 0.97344 0.59875 0.0715 0.0
H1134 H 0.98565 0.5831 0.13675 0.0
H1135 H 0.97933 0.56108 0.06876 0.0
H1136 H 0.98625 0.56023 0.03229 0.0
H1137 H 0.02632 0.56306 0.05314 0.0
H1138 H 0.01973 0.56417 0.08974 0.0
H1139 H 0.97307 0.52287 0.19618 0.0
H1140 H 0.96976 0.53508 0.16594 0.0
H1141 H 0.01389 0.54896 0.14645 0.0
H1142 H 0.017 0.53634 0.17626 0.0
H1143 H 0.99737 0.54522 0.11322 0.0
H1144 H 0.00629 0.57024 0.17924 0.0
H1145 H 1.00152 0.57279 0.21624 0.0
H1146 H 0.95913 0.5662 0.19991 0.0
H1147 H 0.9636 0.56347 0.16281 0.0
C1148 C 0.00904 0.60692 0.07441 0.0
C1149 C 0.99683 0.60787 0.06766 0.0
C1150 C 0.00741 0.59625 0.08871 0.0
C1151 C 0.99358 0.5864 0.09671 0.0
C1152 C 0.98148 0.58774 0.09087 0.0
C1153 C 0.98306 0.59831 0.07633 0.0
C1154 C 0.99183 0.57447 0.11071 0.0
C1155 C 0.98791 0.57463 0.13153 0.0
C1156 C 0.99518 0.56368 0.10398 0.0
C1157 C 0.99908 0.56282 0.08199 0.0
C1158 C 0.98966 0.56163 0.06556 0.0
C1159 C 0.99352 0.56109 0.04486 0.0
C1160 C 0.00673 0.56162 0.04039 0.0
C1161 C 0.01609 0.56266 0.05662 0.0
C1162 C 0.01229 0.56323 0.07735 0.0
C1163 C 0.98181 0.52799 0.1849 0.0
C1164 C 0.99528 0.52869 0.18851 0.0
C1165 C 0.97999 0.53511 0.16777 0.0
C1166 C 0.99174 0.54333 0.15428 0.0
C1167 C 0.0047 0.54278 0.15671 0.0
C1168 C 0.00644 0.53548 0.17368 0.0
C1169 C 0.99123 0.55385 0.13937 0.0
C1170 C 0.99484 0.55351 0.11839 0.0
C1171 C 0.98785 0.56467 0.14604 0.0
C1172 C 0.98521 0.56649 0.16829 0.0
C1173 C 0.99592 0.56925 0.18356 0.0
C1174 C 0.99327 0.57073 0.20454 0.0
C1175 C 0.98001 0.5696 0.21043 0.0
C1176 C 0.96939 0.56704 0.19533 0.0
C1177 C 0.97197 0.56554 0.17432 0.0
H1178 H 0.97798 0.57074 0.22669 0.0
H1179 H 0.0097 0.5612 0.02436 0.0
H1180 H 0.41193 0.38593 0.05236 0.0
H1181 H 0.42941 0.40107 0.07935 0.0
H1182 H 0.39675 0.40911 0.10684 0.0
H1183 H 0.37951 0.39465 0.07907 0.0
H1184 H 0.42041 0.43298 0.10746 0.0
H1185 H 0.40807 0.38464 0.12815 0.0
H1186 H 0.40468 0.35987 0.12411 0.0
H1187 H 0.45037 0.37832 0.11063 0.0
H1188 H 0.45399 0.40322 0.11435 0.0
H1189 H 0.45886 0.43966 0.21247 0.0
H1190 H 0.44483 0.42505 0.18258 0.0
H1191 H 0.46744 0.46274 0.14282 0.0
H1192 H 0.48127 0.47768 0.17323 0.0
H1193 H 0.44983 0.41651 0.14744 0.0
H1194 H 0.44303 0.46146 0.10615 0.0
H1195 H 0.44317 0.48433 0.11502 0.0
H1196 H 0.4301 0.46921 0.17765 0.0
H1197 H 0.42971 0.4462 0.16907 0.0
C1198 C 0.40842 0.39079 0.0643 0.0
C1199 C 0.39431 0.38902 0.06367 0.0
C1200 C 0.41844 0.39944 0.07979 0.0
C1201 C 0.41441 0.40614 0.09541 0.0
C1202 C 0.4002 0.40415 0.09497 0.0
C1203 C 0.3903 0.39579 0.07918 0.0
C1204 C 0.42506 0.41544 0.11193 0.0
C1205 C 0.42685 0.42934 0.11613 0.0
C1206 C 0.4334 0.41074 0.12355 0.0
C1207 C 0.43126 0.39579 0.12131 0.0
C1208 C 0.41737 0.38341 0.12417 0.0
C1209 C 0.41541 0.36935 0.12197 0.0
C1210 C 0.4273 0.36752 0.11706 0.0
C1211 C 0.44117 0.37976 0.1144 0.0
C1212 C 0.44319 0.39385 0.11657 0.0
C1213 C 0.46089 0.44486 0.19735 0.0
C1214 C 0.47094 0.45989 0.19524 0.0
C1215 C 0.45294 0.43644 0.18021 0.0
C1216 C 0.4549 0.4428 0.16046 0.0
C1217 C 0.46557 0.45764 0.15799 0.0
C1218 C 0.47354 0.46615 0.17529 0.0
C1219 C 0.44508 0.43394 0.14298 0.0
C1220 C 0.44349 0.42016 0.13856 0.0
C1221 C 0.43646 0.43847 0.1318 0.0
C1222 C 0.43653 0.45221 0.13702 0.0
C1223 C 0.44016 0.46302 0.12179 0.0
C1224 C 0.44028 0.476 0.12677 0.0
C1225 C 0.4367 0.47825 0.14691 0.0
C1226 C 0.43293 0.46749 0.16209 0.0
C1227 C 0.43277 0.45448 0.15718 0.0
H1228 H 0.43682 0.48831 0.15073 0.0
H1229 H 0.42576 0.35663 0.11535 0.0
H1230 H 0.69265 0.73981 0.40036 0.0
H1231 H 0.69181 0.75582 0.4271 0.0
H1232 H 0.6456 0.7261 0.43507 0.0
H1233 H 0.64625 0.71017 0.40768 0.0
H1234 H 0.65047 0.75298 0.43358 0.0
H1235 H 0.67155 0.72943 0.47198 0.0
H1236 H 0.68867 0.72049 0.4794 0.0
H1237 H 0.72477 0.76459 0.47882 0.0
H1238 H 0.70788 0.77379 0.47112 0.0
H1239 H 0.64752 0.78423 0.53274 0.0
H1240 H 0.64612 0.76892 0.50294 0.0
H1241 H 0.69038 0.80069 0.4863 0.0
H1242 H 0.6918 0.81605 0.51603 0.0
H1243 H 0.68583 0.77246 0.49255 0.0
H1244 H 0.66351 0.79554 0.45465 0.0
H1245 H 0.64553 0.80359 0.44862 0.0
H1246 H 0.61054 0.75896 0.45039 0.0
H1247 H 0.6283 0.75066 0.45674 0.0
C1248 C 0.68232 0.73654 0.40794 0.0
C1249 C 0.66952 0.72365 0.40187 0.0
C1250 C 0.68187 0.74572 0.42332 0.0
C1251 C 0.66867 0.74213 0.43332 0.0
C1252 C 0.65591 0.72913 0.42759 0.0
C1253 C 0.65632 0.71998 0.41201 0.0
C1254 C 0.6682 0.75222 0.44922 0.0
C1255 C 0.65806 0.75705 0.44666 0.0
C1256 C 0.67826 0.75778 0.46612 0.0
C1257 C 0.68846 0.75229 0.47078 0.0
C1258 C 0.68315 0.73722 0.47328 0.0
C1259 C 0.69281 0.7321 0.47756 0.0
C1260 C 0.7078 0.74196 0.47953 0.0
C1261 C 0.71316 0.75696 0.47727 0.0
C1262 C 0.70354 0.76214 0.47297 0.0
C1263 C 0.65677 0.78814 0.52232 0.0
C1264 C 0.66975 0.80134 0.52663 0.0
C1265 C 0.65597 0.77939 0.50534 0.0
C1266 C 0.66817 0.78365 0.49247 0.0
C1267 C 0.68085 0.79722 0.49606 0.0
C1268 C 0.6816 0.80605 0.5129 0.0
C1269 C 0.66823 0.7733 0.47675 0.0
C1270 C 0.67826 0.76838 0.47944 0.0
C1271 C 0.65794 0.76752 0.46021 0.0
C1272 C 0.64724 0.77249 0.45638 0.0
C1273 C 0.65197 0.78745 0.45395 0.0
C1274 C 0.64182 0.79206 0.45043 0.0
C1275 C 0.6269 0.7818 0.44918 0.0
C1276 C 0.6221 0.7669 0.45139 0.0
C1277 C 0.63221 0.76224 0.45493 0.0
H1278 H 0.61905 0.78539 0.44644 0.0
H1279 H 0.71526 0.73798 0.48285 0.0
H1280 H 0.29294 0.93185 0.39501 0.0
H1281 H 0.27682 0.91412 0.42084 0.0
H1282 H 0.25792 0.94126 0.43409 0.0
H1283 H 0.27394 0.95902 0.40831 0.0
H1284 H 0.26349 0.93001 0.46982 0.0
H1285 H 0.2404 0.91254 0.40234 0.0
H1286 H 0.2394 0.90471 0.36576 0.0
H1287 H 0.24682 0.87011 0.38563 0.0
H1288 H 0.24806 0.87787 0.42233 0.0
H1289 H 0.2001 0.88401 0.52244 0.0
H1290 H 0.21464 0.89805 0.49259 0.0
H1291 H 0.23069 0.86791 0.4848 0.0
H1292 H 0.21604 0.85375 0.51474 0.0
H1293 H 0.22746 0.8796 0.44639 0.0
H1294 H 0.25021 0.89609 0.51311 0.0
H1295 H 0.25196 0.90362 0.54994 0.0
H1296 H 0.2465 0.93978 0.53195 0.0
H1297 H 0.24447 0.93232 0.49502 0.0
C1298 C 0.28551 0.93417 0.40364 0.0
C1299 C 0.2847 0.94685 0.39952 0.0
C1300 C 0.27623 0.92396 0.41828 0.0
C1301 C 0.26602 0.92627 0.42916 0.0
C1302 C 0.26566 0.93923 0.4258 0.0
C1303 C 0.27484 0.94937 0.41104 0.0
C1304 C 0.25544 0.91508 0.4437 0.0
C1305 C 0.25553 0.91905 0.46463 0.0
C1306 C 0.24534 0.90062 0.43708 0.0
C1307 C 0.24448 0.89588 0.41505 0.0
C1308 C 0.24193 0.90333 0.39889 0.0
C1309 C 0.2413 0.8989 0.37814 0.0
C1310 C 0.24309 0.88695 0.37337 0.0
C1311 C 0.24546 0.87938 0.38935 0.0
C1312 C 0.24612 0.88378 0.41012 0.0
C1313 C 0.2063 0.88007 0.51385 0.0
C1314 C 0.20701 0.86785 0.5209 0.0
C1315 C 0.21466 0.88814 0.4969 0.0
C1316 C 0.22398 0.8842 0.48679 0.0
C1317 C 0.22361 0.87116 0.49245 0.0
C1318 C 0.21518 0.86303 0.50946 0.0
C1319 C 0.23534 0.89467 0.47235 0.0
C1320 C 0.23546 0.89056 0.45154 0.0
C1321 C 0.24578 0.90898 0.4791 0.0
C1322 C 0.24702 0.91355 0.50131 0.0
C1323 C 0.24922 0.90556 0.51703 0.0
C1324 C 0.25025 0.9098 0.53794 0.0
C1325 C 0.2492 0.92209 0.54334 0.0
C1326 C 0.2472 0.9302 0.5278 0.0
C1327 C 0.24613 0.92598 0.50686 0.0
H1328 H 0.25003 0.92536 0.55954 0.0
H1329 H 0.2426 0.88353 0.35729 0.0
H1330 H 0.05735 0.31772 0.39952 0.0
H1331 H 0.07508 0.3196 0.42569 0.0
H1332 H 0.09035 0.36567 0.43324 0.0
H1333 H 0.07267 0.36395 0.40685 0.0
H1334 H 0.10576 0.33733 0.42377 0.0
H1335 H 0.10035 0.37356 0.48616 0.0
H1336 H 0.08197 0.37941 0.49964 0.0
H1337 H 0.04745 0.33685 0.48092 0.0
H1338 H 0.06562 0.33068 0.4676 0.0
H1339 H 0.14561 0.36178 0.53444 0.0
H1340 H 0.13332 0.36528 0.50437 0.0
H1341 H 0.12056 0.32173 0.48246 0.0
H1342 H 0.13324 0.31845 0.51205 0.0
H1343 H 0.10573 0.35156 0.49762 0.0
H1344 H 0.11229 0.31704 0.4316 0.0
H1345 H 0.13122 0.31208 0.41795 0.0
H1346 H 0.16487 0.3529 0.44346 0.0
H1347 H 0.14616 0.35822 0.45701 0.0
C1348 C 0.06434 0.32824 0.40688 0.0
C1349 C 0.06356 0.34069 0.40106 0.0
C1350 C 0.07455 0.3293 0.42174 0.0
C1351 C 0.08406 0.34277 0.43134 0.0
C1352 C 0.08308 0.35516 0.42604 0.0
C1353 C 0.07295 0.35414 0.41098 0.0
C1354 C 0.09514 0.3438 0.44664 0.0
C1355 C 0.10572 0.34033 0.43998 0.0
C1356 C 0.09539 0.34823 0.46756 0.0
C1357 C 0.08435 0.35175 0.47564 0.0
C1358 C 0.08884 0.36545 0.48496 0.0
C1359 C 0.07846 0.36882 0.49258 0.0
C1360 C 0.06355 0.35853 0.49106 0.0
C1361 C 0.05899 0.34483 0.482 0.0
C1362 C 0.06933 0.34141 0.47437 0.0
C1363 C 0.1406 0.35317 0.52277 0.0
C1364 C 0.14046 0.33989 0.52547 0.0
C1365 C 0.13348 0.35513 0.50569 0.0
C1366 C 0.12597 0.34379 0.49105 0.0
C1367 C 0.12649 0.33079 0.4932 0.0
C1368 C 0.13378 0.32891 0.51014 0.0
C1369 C 0.11637 0.34491 0.47492 0.0
C1370 C 0.106 0.34876 0.48138 0.0
C1371 C 0.11644 0.341 0.45375 0.0
C1372 C 0.12779 0.33796 0.44548 0.0
C1373 C 0.12373 0.32499 0.43422 0.0
C1374 C 0.13442 0.32211 0.42651 0.0
C1375 C 0.14924 0.33215 0.42989 0.0
C1376 C 0.15339 0.34511 0.44092 0.0
C1377 C 0.14274 0.34805 0.44865 0.0
H1378 H 0.1575 0.32989 0.42392 0.0
H1379 H 0.05553 0.36116 0.49696 0.0
H1380 H 0.07265 0.35871 0.29076 0.0
H1381 H 0.08833 0.35762 0.26375 0.0
H1382 H 0.06511 0.3105 0.26736 0.0
H1383 H 0.04942 0.31148 0.29462 0.0
H1384 H 0.09454 0.32158 0.2678 0.0
H1385 H 0.06008 0.32742 0.22597 0.0
H1386 H 0.04571 0.33886 0.21499 0.0
H1387 H 0.08533 0.37919 0.20299 0.0
H1388 H 0.09996 0.36804 0.21417 0.0
H1389 H 0.12376 0.30952 0.17344 0.0
H1390 H 0.10962 0.30994 0.20339 0.0
H1391 H 0.12978 0.35687 0.19822 0.0
H1392 H 0.1436 0.35638 0.16794 0.0
H1393 H 0.10151 0.34525 0.19882 0.0
H1394 H 0.13612 0.33948 0.24055 0.0
H1395 H 0.15051 0.32807 0.25156 0.0
H1396 H 0.1109 0.28777 0.26378 0.0
H1397 H 0.09626 0.29888 0.25256 0.0
C1398 C 0.07073 0.34809 0.28567 0.0
C1399 C 0.05973 0.33518 0.29488 0.0
C1400 C 0.07972 0.34748 0.27019 0.0
C1401 C 0.07788 0.33397 0.26346 0.0
C1402 C 0.06676 0.32105 0.27234 0.0
C1403 C 0.05773 0.32163 0.28782 0.0
C1404 C 0.08781 0.3334 0.24752 0.0
C1405 C 0.09594 0.32658 0.25259 0.0
C1406 C 0.08988 0.34021 0.22788 0.0
C1407 C 0.08111 0.34693 0.2211 0.0
C1408 C 0.06573 0.33876 0.22115 0.0
C1409 C 0.05754 0.34519 0.21486 0.0
C1410 C 0.0646 0.35975 0.20834 0.0
C1411 C 0.07988 0.36791 0.20806 0.0
C1412 C 0.08812 0.36154 0.21436 0.0
C1413 C 0.12553 0.31996 0.17918 0.0
C1414 C 0.1348 0.33292 0.16845 0.0
C1415 C 0.1174 0.3202 0.19626 0.0
C1416 C 0.11858 0.33345 0.2031 0.0
C1417 C 0.12859 0.34651 0.19319 0.0
C1418 C 0.13657 0.34624 0.176 0.0
C1419 C 0.10845 0.33359 0.21913 0.0
C1420 C 0.1002 0.34028 0.21404 0.0
C1421 C 0.10631 0.32668 0.23874 0.0
C1422 C 0.11509 0.31998 0.24552 0.0
C1423 C 0.13047 0.32815 0.24542 0.0
C1424 C 0.13868 0.32174 0.25173 0.0
C1425 C 0.13162 0.30719 0.25831 0.0
C1426 C 0.11635 0.29903 0.25865 0.0
C1427 C 0.10809 0.30539 0.25234 0.0
H1428 H 0.138 0.30225 0.2632 0.0
H1429 H 0.05824 0.3647 0.20347 0.0
H1430 H 0.69701 0.73397 0.28867 0.0
H1431 H 0.69984 0.7525 0.26339 0.0
H1432 H 0.65576 0.74295 0.27573 0.0
H1433 H 0.65267 0.72406 0.30036 0.0
H1434 H 0.66045 0.74747 0.23653 0.0
H1435 H 0.68688 0.77335 0.2977 0.0
H1436 H 0.70485 0.7803 0.32637 0.0
H1437 H 0.73974 0.79535 0.28196 0.0
H1438 H 0.72195 0.78831 0.253 0.0
H1439 H 0.66716 0.80881 0.18547 0.0
H1440 H 0.66655 0.79565 0.21735 0.0
H1441 H 0.70626 0.79665 0.19852 0.0
H1442 H 0.70687 0.80982 0.16682 0.0
H1443 H 0.7034 0.79757 0.24268 0.0
H1444 H 0.67512 0.77115 0.1814 0.0
H1445 H 0.65663 0.76702 0.15464 0.0
H1446 H 0.62361 0.75315 0.20181 0.0
H1447 H 0.64214 0.75822 0.22908 0.0
C1448 C 0.68786 0.73569 0.28581 0.0
C1449 C 0.67463 0.72756 0.29663 0.0
C1450 C 0.68953 0.74639 0.27148 0.0
C1451 C 0.67814 0.74941 0.26799 0.0
C1452 C 0.66475 0.74091 0.27819 0.0
C1453 C 0.663 0.73008 0.29229 0.0
C1454 C 0.68016 0.76149 0.25392 0.0
C1455 C 0.66974 0.75845 0.23813 0.0
C1456 C 0.69233 0.77587 0.25582 0.0
C1457 C 0.70307 0.78017 0.27318 0.0
C1458 C 0.69838 0.77805 0.29405 0.0
C1459 C 0.70853 0.78202 0.31035 0.0
C1460 C 0.72342 0.78823 0.30599 0.0
C1461 C 0.7282 0.79052 0.28531 0.0
C1462 C 0.71809 0.78655 0.26895 0.0
C1463 C 0.67608 0.80679 0.1887 0.0
C1464 C 0.68708 0.81029 0.17388 0.0
C1465 C 0.67571 0.79923 0.20681 0.0
C1466 C 0.68624 0.79498 0.2101 0.0
C1467 C 0.69804 0.79982 0.1963 0.0
C1468 C 0.69839 0.80733 0.17822 0.0
C1469 C 0.68371 0.78348 0.22549 0.0
C1470 C 0.69406 0.78659 0.24134 0.0
C1471 C 0.67137 0.76922 0.22387 0.0
C1472 C 0.66008 0.76527 0.20734 0.0
C1473 C 0.66395 0.76736 0.18612 0.0
C1474 C 0.65347 0.76491 0.17086 0.0
C1475 C 0.63894 0.75975 0.17649 0.0
C1476 C 0.63488 0.75715 0.19746 0.0
C1477 C 0.64539 0.75993 0.21285 0.0
H1478 H 0.63082 0.75777 0.16462 0.0
H1479 H 0.73127 0.7913 0.31863 0.0
H1480 H 0.28845 0.9348 0.29357 0.0
H1481 H 0.27151 0.9189 0.26682 0.0
H1482 H 0.25281 0.94701 0.26238 0.0
H1483 H 0.26952 0.96283 0.2899 0.0
H1484 H 0.23171 0.9197 0.26252 0.0
H1485 H 0.2756 0.94598 0.22375 0.0
H1486 H 0.30177 0.95652 0.2156 0.0
H1487 H 0.29651 0.91345 0.21345 0.0
H1488 H 0.27034 0.90265 0.22186 0.0
H1489 H 0.19805 0.88803 0.16207 0.0
H1490 H 0.21157 0.90386 0.1918 0.0
H1491 H 0.22551 0.87336 0.2098 0.0
H1492 H 0.21187 0.85744 0.1803 0.0
H1493 H 0.24854 0.90276 0.20187 0.0
H1494 H 0.2038 0.87702 0.24087 0.0
H1495 H 0.17758 0.86751 0.24746 0.0
H1496 H 0.18456 0.91126 0.24666 0.0
H1497 H 0.2108 0.92102 0.23976 0.0
C1498 C 0.28088 0.93775 0.28679 0.0
C1499 C 0.28043 0.95017 0.29386 0.0
C1500 C 0.27118 0.92863 0.27139 0.0
C1501 C 0.26098 0.93182 0.26231 0.0
C1502 C 0.26059 0.94431 0.26912 0.0
C1503 C 0.27021 0.9534 0.28476 0.0
C1504 C 0.25051 0.92184 0.24617 0.0
C1505 C 0.23543 0.91619 0.24908 0.0
C1506 C 0.25528 0.91707 0.22871 0.0
C1507 C 0.27103 0.92352 0.22361 0.0
C1508 C 0.28005 0.93876 0.22169 0.0
C1509 C 0.29488 0.94478 0.217 0.0
C1510 C 0.30081 0.93566 0.21406 0.0
C1511 C 0.29191 0.9205 0.21575 0.0
C1512 C 0.27707 0.91442 0.22046 0.0
C1513 C 0.20361 0.88451 0.17279 0.0
C1514 C 0.20387 0.87149 0.16897 0.0
C1515 C 0.21135 0.89355 0.18971 0.0
C1516 C 0.21959 0.8898 0.20291 0.0
C1517 C 0.2192 0.87643 0.19978 0.0
C1518 C 0.2113 0.86728 0.18306 0.0
C1519 C 0.22983 0.90049 0.21847 0.0
C1520 C 0.24488 0.90632 0.21532 0.0
C1521 C 0.22502 0.90559 0.23543 0.0
C1522 C 0.20925 0.89973 0.23957 0.0
C1523 C 0.19973 0.8846 0.24189 0.0
C1524 C 0.18486 0.87917 0.24573 0.0
C1525 C 0.1794 0.88877 0.24741 0.0
C1526 C 0.1888 0.90383 0.24532 0.0
C1527 C 0.20367 0.90932 0.24146 0.0
H1528 H 0.16789 0.88454 0.2504 0.0
H1529 H 0.31229 0.94035 0.21043 0.0
H1530 H 0.65073 0.93428 0.28849 0.0
H1531 H 0.65242 0.9181 0.26275 0.0
H1532 H 0.69948 0.94221 0.26805 0.0
H1533 H 0.69792 0.95861 0.29378 0.0
H1534 H 0.69065 0.93491 0.22771 0.0
H1535 H 0.68049 0.9102 0.29295 0.0
H1536 H 0.66742 0.90041 0.32603 0.0
H1537 H 0.62793 0.87212 0.29215 0.0
H1538 H 0.64072 0.88189 0.25883 0.0
H1539 H 0.69853 0.88096 0.17305 0.0
H1540 H 0.69949 0.89558 0.20351 0.0
H1541 H 0.65267 0.877 0.20011 0.0
H1542 H 0.65168 0.86236 0.16971 0.0
H1543 H 0.66333 0.88147 0.24131 0.0
H1544 H 0.67344 0.90789 0.17629 0.0
H1545 H 0.68675 0.91768 0.14336 0.0
H1546 H 0.7269 0.94286 0.17757 0.0
H1547 H 0.71384 0.93301 0.21071 0.0
C1548 C 0.66147 0.93629 0.28405 0.0
C1549 C 0.67419 0.94772 0.29335 0.0
C1550 C 0.6624 0.92694 0.26941 0.0
C1551 C 0.67606 0.92875 0.26379 0.0
C1552 C 0.68882 0.94055 0.27227 0.0
C1553 C 0.6879 0.94993 0.28696 0.0
C1554 C 0.67691 0.91811 0.24941 0.0
C1555 C 0.68489 0.92326 0.23088 0.0
C1556 C 0.66926 0.90287 0.2534 0.0
C1557 C 0.66154 0.89687 0.27339 0.0
C1558 C 0.66899 0.90196 0.29255 0.0
C1559 C 0.66164 0.89641 0.31135 0.0
C1560 C 0.64684 0.88567 0.3112 0.0
C1561 C 0.63938 0.88044 0.29224 0.0
C1562 C 0.64669 0.88597 0.27339 0.0
C1563 C 0.6884 0.87963 0.17926 0.0
C1564 C 0.67503 0.87057 0.16903 0.0
C1565 C 0.68897 0.88808 0.19653 0.0
C1566 C 0.67617 0.88753 0.20386 0.0
C1567 C 0.66268 0.87761 0.19468 0.0
C1568 C 0.66212 0.86927 0.17733 0.0
C1569 C 0.67693 0.89827 0.21959 0.0
C1570 C 0.66923 0.89314 0.23832 0.0
C1571 C 0.68488 0.91353 0.21584 0.0
C1572 C 0.6927 0.91959 0.19595 0.0
C1573 C 0.68513 0.91542 0.17678 0.0
C1574 C 0.69262 0.92099 0.15808 0.0
C1575 C 0.70767 0.93085 0.15837 0.0
C1576 C 0.71525 0.9352 0.17737 0.0
C1577 C 0.70781 0.92963 0.19611 0.0
H1578 H 0.71346 0.93516 0.14387 0.0
H1579 H 0.64117 0.88139 0.32577 0.0
H1580 H 0.04321 0.73558 0.28759 0.0
H1581 H 0.05925 0.75281 0.26115 0.0
H1582 H 0.0901 0.7378 0.27027 0.0
H1583 H 0.07415 0.72049 0.29651 0.0
H1584 H 0.10305 0.76856 0.27106 0.0
H1585 H 0.06977 0.72735 0.22815 0.0
H1586 H 0.04549 0.70862 0.21506 0.0
H1587 H 0.03677 0.7423 0.19486 0.0
H1588 H 0.06093 0.76124 0.2081 0.0
H1589 H 0.14876 0.79535 0.18201 0.0
H1590 H 0.13318 0.78274 0.21179 0.0
H1591 H 0.10164 0.79456 0.19041 0.0
H1592 H 0.11708 0.80682 0.16025 0.0
H1593 H 0.08836 0.76686 0.19705 0.0
H1594 H 0.1219 0.8083 0.23717 0.0
H1595 H 0.14589 0.82748 0.25046 0.0
H1596 H 0.15386 0.79466 0.27651 0.0
H1597 H 0.13001 0.77525 0.26311 0.0
C1598 C 0.05333 0.73582 0.28381 0.0
C1599 C 0.05736 0.72661 0.29416 0.0
C1600 C 0.06249 0.7457 0.26873 0.0
C1601 C 0.07589 0.74661 0.26382 0.0
C1602 C 0.07984 0.73732 0.27391 0.0
C1603 C 0.07064 0.72734 0.2888 0.0
C1604 C 0.08589 0.75734 0.2483 0.0
C1605 C 0.09992 0.76815 0.25481 0.0
C1606 C 0.0816 0.75707 0.22731 0.0
C1607 C 0.06708 0.7457 0.21934 0.0
C1608 C 0.06262 0.73076 0.22109 0.0
C1609 C 0.04889 0.72011 0.21361 0.0
C1610 C 0.03957 0.72427 0.20419 0.0
C1611 C 0.04398 0.73909 0.20219 0.0
C1612 C 0.0577 0.74979 0.20967 0.0
C1613 C 0.13875 0.79569 0.18407 0.0
C1614 C 0.13414 0.8021 0.16887 0.0
C1615 C 0.1298 0.78844 0.2011 0.0
C1616 C 0.11618 0.78768 0.20344 0.0
C1617 C 0.11203 0.79491 0.18893 0.0
C1618 C 0.12089 0.802 0.17179 0.0
C1619 C 0.10569 0.77815 0.21968 0.0
C1620 C 0.09152 0.76749 0.21331 0.0
C1621 C 0.10983 0.77867 0.24086 0.0
C1622 C 0.1242 0.7903 0.24897 0.0
C1623 C 0.12881 0.80516 0.24559 0.0
C1624 C 0.14238 0.81608 0.25317 0.0
C1625 C 0.15141 0.81229 0.26428 0.0
C1626 C 0.14687 0.79757 0.26788 0.0
C1627 C 0.13331 0.78661 0.26032 0.0
H1628 H 0.16191 0.82076 0.27014 0.0
H1629 H 0.02895 0.71601 0.1984 0.0
H1630 H 0.26867 0.31035 0.29049 0.0
H1631 H 0.25129 0.30897 0.26406 0.0
H1632 H 0.2769 0.3557 0.25549 0.0
H1633 H 0.29411 0.35722 0.28231 0.0
H1634 H 0.24933 0.34801 0.25929 0.0
H1635 H 0.27555 0.33038 0.21856 0.0
H1636 H 0.28592 0.31458 0.21028 0.0
H1637 H 0.24293 0.27668 0.21125 0.0
H1638 H 0.23231 0.29225 0.21981 0.0
H1639 H 0.22019 0.35428 0.16191 0.0
H1640 H 0.23479 0.35414 0.19154 0.0
H1641 H 0.20392 0.30844 0.20157 0.0
H1642 H 0.18925 0.30853 0.1718 0.0
H1643 H 0.23256 0.31433 0.19826 0.0
H1644 H 0.2064 0.3327 0.23683 0.0
H1645 H 0.19643 0.34899 0.24412 0.0
H1646 H 0.23994 0.38609 0.24612 0.0
H1647 H 0.25017 0.37005 0.23854 0.0
C1648 C 0.27075 0.32031 0.28275 0.0
C1649 C 0.2828 0.3339 0.28856 0.0
C1650 C 0.26078 0.3195 0.2676 0.0
C1651 C 0.26277 0.33223 0.25768 0.0
C1652 C 0.27506 0.34574 0.26298 0.0
C1653 C 0.28496 0.34657 0.27825 0.0
C1654 C 0.25176 0.3316 0.24248 0.0
C1655 C 0.24582 0.34077 0.2458 0.0
C1656 C 0.2468 0.32185 0.2252 0.0
C1657 C 0.25316 0.31247 0.22005 0.0
C1658 C 0.26832 0.31867 0.21718 0.0
C1659 C 0.27424 0.30975 0.2124 0.0
C1660 C 0.2651 0.29463 0.2103 0.0
C1661 C 0.25 0.28839 0.21292 0.0
C1662 C 0.24403 0.29726 0.21772 0.0
C1663 C 0.21632 0.3443 0.17078 0.0
C1664 C 0.20356 0.33143 0.16463 0.0
C1665 C 0.22467 0.34423 0.18769 0.0
C1666 C 0.22045 0.33128 0.19877 0.0
C1667 C 0.20736 0.31855 0.19324 0.0
C1668 C 0.19892 0.31865 0.1764 0.0
C1669 C 0.23031 0.33084 0.21498 0.0
C1670 C 0.23603 0.32149 0.21184 0.0
C1671 C 0.23515 0.34049 0.23233 0.0
C1672 C 0.22904 0.35018 0.23694 0.0
C1673 C 0.21384 0.34435 0.23865 0.0
C1674 C 0.20814 0.35353 0.24287 0.0
C1675 C 0.21754 0.36857 0.24554 0.0
C1676 C 0.23267 0.37444 0.24404 0.0
C1677 C 0.23842 0.36531 0.2398 0.0
H1678 H 0.21311 0.37566 0.24881 0.0
H1679 H 0.2697 0.28775 0.20659 0.0
H1680 H 0.29857 0.36104 0.40556 0.0
H1681 H 0.28276 0.36063 0.4339 0.0
H1682 H 0.24944 0.31731 0.41467 0.0
H1683 H 0.26533 0.31737 0.38723 0.0
H1684 H 0.25748 0.35904 0.43676 0.0
H1685 H 0.23032 0.29686 0.45432 0.0
H1686 H 0.23651 0.27719 0.45309 0.0
H1687 H 0.28216 0.30901 0.45923 0.0
H1688 H 0.27623 0.32884 0.46076 0.0
H1689 H 0.19881 0.34084 0.50905 0.0
H1690 H 0.21318 0.34198 0.4783 0.0
H1691 H 0.23947 0.33031 0.51661 0.0
H1692 H 0.22453 0.32776 0.54638 0.0
H1693 H 0.23475 0.31638 0.48412 0.0
H1694 H 0.25069 0.3671 0.49804 0.0
H1695 H 0.2477 0.38867 0.50296 0.0
H1696 H 0.23021 0.38318 0.44085 0.0
H1697 H 0.23295 0.36147 0.43565 0.0
C1698 C 0.28792 0.35139 0.40754 0.0
C1699 C 0.28333 0.33914 0.39438 0.0
C1700 C 0.27884 0.3512 0.42364 0.0
C1701 C 0.26496 0.33883 0.42671 0.0
C1702 C 0.26023 0.32683 0.41308 0.0
C1703 C 0.26936 0.32689 0.39734 0.0
C1704 C 0.2555 0.33824 0.44435 0.0
C1705 C 0.25254 0.34973 0.44717 0.0
C1706 C 0.24916 0.32621 0.45816 0.0
C1707 C 0.25282 0.31434 0.45742 0.0
C1708 C 0.24167 0.29965 0.45547 0.0
C1709 C 0.24513 0.28847 0.45471 0.0
C1710 C 0.25972 0.29185 0.45601 0.0
C1711 C 0.27087 0.30641 0.45814 0.0
C1712 C 0.26746 0.31762 0.45894 0.0
C1713 C 0.20758 0.3384 0.51082 0.0
C1714 C 0.21066 0.33457 0.53045 0.0
C1715 C 0.21592 0.33923 0.49327 0.0
C1716 C 0.22765 0.33649 0.49509 0.0
C1717 C 0.23057 0.33254 0.51462 0.0
C1718 C 0.2221 0.33136 0.53188 0.0
C1719 C 0.23685 0.3373 0.4769 0.0
C1720 C 0.23967 0.32574 0.47379 0.0
C1721 C 0.24352 0.34955 0.46346 0.0
C1722 C 0.24187 0.36258 0.46655 0.0
C1723 C 0.24611 0.37044 0.48549 0.0
C1724 C 0.24448 0.38269 0.48832 0.0
C1725 C 0.23873 0.38727 0.47225 0.0
C1726 C 0.23464 0.37961 0.4533 0.0
C1727 C 0.23623 0.36734 0.4504 0.0
H1728 H 0.23748 0.39676 0.47447 0.0
H1729 H 0.26238 0.28319 0.4554 0.0
H1730 H 0.69004 0.95449 0.40277 0.0
H1731 H 0.68861 0.93733 0.42931 0.0
H1732 H 0.6415 0.9155 0.427 0.0
H1733 H 0.64279 0.93268 0.40029 0.0
H1734 H 0.6529 0.91923 0.46779 0.0
H1735 H 0.65765 0.90043 0.40169 0.0
H1736 H 0.66888 0.90199 0.36742 0.0
H1737 H 0.70947 0.91254 0.39743 0.0
H1738 H 0.69853 0.91123 0.4319 0.0
H1739 H 0.6455 0.86075 0.52876 0.0
H1740 H 0.64269 0.87316 0.49831 0.0
H1741 H 0.68918 0.89411 0.48737 0.0
H1742 H 0.6918 0.8811 0.51711 0.0
H1743 H 0.67591 0.88923 0.45169 0.0
H1744 H 0.67235 0.91 0.5172 0.0
H1745 H 0.66188 0.90926 0.55185 0.0
H1746 H 0.62019 0.89636 0.52359 0.0
H1747 H 0.63032 0.89673 0.48879 0.0
C1748 C 0.67935 0.94617 0.40802 0.0
C1749 C 0.66652 0.94493 0.39924 0.0
C1750 C 0.67856 0.93631 0.42315 0.0
C1751 C 0.66495 0.92499 0.42986 0.0
C1752 C 0.65211 0.92411 0.42193 0.0
C1753 C 0.65288 0.93395 0.40668 0.0
C1754 C 0.66422 0.91385 0.44467 0.0
C1755 C 0.65771 0.91249 0.46417 0.0
C1756 C 0.67075 0.90527 0.44006 0.0
C1757 C 0.6773 0.90584 0.41937 0.0
C1758 C 0.669 0.90317 0.40098 0.0
C1759 C 0.67531 0.904 0.38151 0.0
C1760 C 0.68989 0.90739 0.38024 0.0
C1761 C 0.69818 0.90992 0.39844 0.0
C1762 C 0.69192 0.90911 0.41795 0.0
C1763 C 0.65499 0.86762 0.51935 0.0
C1764 C 0.66884 0.86993 0.5251 0.0
C1765 C 0.65343 0.87486 0.50214 0.0
C1766 C 0.66579 0.88493 0.49086 0.0
C1767 C 0.67948 0.88647 0.49582 0.0
C1768 C 0.68098 0.87898 0.51276 0.0
C1769 C 0.66474 0.89469 0.47504 0.0
C1770 C 0.67096 0.89584 0.4553 0.0
C1771 C 0.65807 0.9032 0.47954 0.0
C1772 C 0.65206 0.90325 0.50042 0.0
C1773 C 0.66094 0.90693 0.51839 0.0
C1774 C 0.65507 0.90658 0.53805 0.0
C1775 C 0.64039 0.90275 0.53992 0.0
C1776 C 0.63156 0.8993 0.52212 0.0
C1777 C 0.63735 0.89957 0.50243 0.0
H1778 H 0.63587 0.90248 0.55516 0.0
H1779 H 0.69475 0.90804 0.36516 0.0
H1780 H 0.0702 0.71033 0.40215 0.0
H1781 H 0.08819 0.72631 0.42817 0.0
H1782 H 0.06925 0.75429 0.42789 0.0
H1783 H 0.05132 0.73848 0.40179 0.0
H1784 H 0.0986 0.76999 0.42389 0.0
H1785 H 0.06439 0.73207 0.46892 0.0
H1786 H 0.0491 0.70675 0.48128 0.0
H1787 H 0.08742 0.70288 0.48955 0.0
H1788 H 0.10293 0.72812 0.47697 0.0
H1789 H 0.12659 0.81044 0.51842 0.0
H1790 H 0.11267 0.79528 0.4885 0.0
H1791 H 0.13694 0.77238 0.49148 0.0
H1792 H 0.151 0.78768 0.52137 0.0
H1793 H 0.10685 0.75385 0.49267 0.0
H1794 H 0.14125 0.79271 0.45029 0.0
H1795 H 0.15635 0.81819 0.4385 0.0
H1796 H 0.11758 0.82048 0.42563 0.0
H1797 H 0.10223 0.79507 0.43765 0.0
C1798 C 0.06971 0.71976 0.40784 0.0
C1799 C 0.0593 0.72311 0.39981 0.0
C1800 C 0.08002 0.72889 0.42273 0.0
C1801 C 0.0801 0.74152 0.42996 0.0
C1802 C 0.06946 0.74465 0.42244 0.0
C1803 C 0.05914 0.73553 0.4076 0.0
C1804 C 0.09156 0.75177 0.4448 0.0
C1805 C 0.1003 0.76649 0.43902 0.0
C1806 C 0.0941 0.74712 0.46427 0.0
C1807 C 0.0848 0.73193 0.47177 0.0
C1808 C 0.06954 0.72577 0.47319 0.0
C1809 C 0.06084 0.71145 0.48028 0.0
C1810 C 0.06728 0.70319 0.48613 0.0
C1811 C 0.08244 0.70927 0.48497 0.0
C1812 C 0.0912 0.72359 0.47788 0.0
C1813 C 0.12926 0.80249 0.51222 0.0
C1814 C 0.13992 0.80028 0.52203 0.0
C1815 C 0.12129 0.79381 0.49519 0.0
C1816 C 0.12375 0.78268 0.48778 0.0
C1817 C 0.13488 0.78092 0.49694 0.0
C1818 C 0.143 0.78974 0.51384 0.0
C1819 C 0.11374 0.7721 0.47186 0.0
C1820 C 0.10526 0.75731 0.47744 0.0
C1821 C 0.1114 0.7767 0.45224 0.0
C1822 C 0.12058 0.79201 0.44505 0.0
C1823 C 0.13593 0.79868 0.44513 0.0
C1824 C 0.14454 0.81311 0.43836 0.0
C1825 C 0.13793 0.82096 0.43136 0.0
C1826 C 0.12269 0.81438 0.43108 0.0
C1827 C 0.11403 0.79996 0.43784 0.0
H1828 H 0.14461 0.83212 0.42613 0.0
H1829 H 0.06052 0.69211 0.49162 0.0
H1830 H 0.3211 0.04289 0.74482 0.0
H1831 H 0.32085 0.0592 0.77198 0.0
H1832 H 0.35501 0.09644 0.73971 0.0
H1833 H 0.35598 0.08011 0.7136 0.0
H1834 H 0.36123 0.10094 0.77672 0.0
H1835 H 0.31629 0.08622 0.74056 0.0
H1836 H 0.29217 0.06897 0.72531 0.0
H1837 H 0.27614 0.05102 0.78593 0.0
H1838 H 0.30022 0.06803 0.80151 0.0
H1839 H 0.3279 0.13926 0.84492 0.0
H1840 H 0.32718 0.12604 0.81265 0.0
H1841 H 0.35089 0.10809 0.84403 0.0
H1842 H 0.3521 0.12153 0.87558 0.0
H1843 H 0.3154 0.09683 0.80405 0.0
H1844 H 0.37458 0.10624 0.81243 0.0
H1845 H 0.39879 0.12558 0.82486 0.0
H1846 H 0.38648 0.1581 0.81372 0.0
H1847 H 0.36229 0.13901 0.80093 0.0
C1848 C 0.32859 0.05456 0.74368 0.0
C1849 C 0.33863 0.06023 0.72723 0.0
C1850 C 0.32834 0.06392 0.75906 0.0
C1851 C 0.33773 0.07917 0.7578 0.0
C1852 C 0.34768 0.08477 0.74121 0.0
C1853 C 0.34824 0.07541 0.72627 0.0
C1854 C 0.33768 0.08933 0.77407 0.0
C1855 C 0.35117 0.10003 0.78251 0.0
C1856 C 0.32463 0.08851 0.78147 0.0
C1857 C 0.3101 0.07833 0.77217 0.0
C1858 C 0.30764 0.07854 0.75062 0.0
C1859 C 0.29397 0.06881 0.74192 0.0
C1860 C 0.28264 0.05889 0.75463 0.0
C1861 C 0.28493 0.0587 0.77609 0.0
C1862 C 0.29858 0.0684 0.78487 0.0
C1863 C 0.33303 0.13256 0.84475 0.0
C1864 C 0.33988 0.13124 0.8628 0.0
C1865 C 0.33253 0.12496 0.82643 0.0
C1866 C 0.33906 0.11614 0.8259 0.0
C1867 C 0.34592 0.11493 0.84394 0.0
C1868 C 0.34645 0.12249 0.86206 0.0
C1869 C 0.33887 0.10809 0.80672 0.0
C1870 C 0.3254 0.09778 0.79789 0.0
C1871 C 0.35195 0.10958 0.7984 0.0
C1872 C 0.36657 0.12116 0.80586 0.0
C1873 C 0.37706 0.11753 0.81252 0.0
C1874 C 0.39078 0.12845 0.81966 0.0
C1875 C 0.39416 0.14305 0.82013 0.0
C1876 C 0.38383 0.14678 0.81341 0.0
C1877 C 0.37011 0.13591 0.80624 0.0
H1878 H 0.40478 0.15149 0.82567 0.0
H1879 H 0.27206 0.05136 0.74786 0.0
H1880 H 0.93593 0.28825 0.73361 0.0
H1881 H 0.9202 0.27089 0.75975 0.0
H1882 H 0.9487 0.2526 0.76303 0.0
H1883 H 0.96436 0.26974 0.73624 0.0
H1884 H 0.92112 0.23132 0.76138 0.0
H1885 H 0.94757 0.27497 0.8026 0.0
H1886 H 0.95747 0.301 0.81166 0.0
H1887 H 0.9139 0.29435 0.81447 0.0
H1888 H 0.90374 0.26831 0.80515 0.0
H1889 H 0.88884 0.1911 0.85522 0.0
H1890 H 0.90399 0.20598 0.82627 0.0
H1891 H 0.8781 0.22719 0.8222 0.0
H1892 H 0.86342 0.21275 0.85179 0.0
H1893 H 0.90521 0.24681 0.8245 0.0
H1894 H 0.87875 0.20293 0.78296 0.0
H1895 H 0.86908 0.1769 0.77407 0.0
H1896 H 0.91278 0.18386 0.77224 0.0
H1897 H 0.9227 0.20989 0.78139 0.0
C1898 C 0.93901 0.28068 0.74003 0.0
C1899 C 0.95149 0.28047 0.73284 0.0
C1900 C 0.92997 0.27074 0.75506 0.0
C1901 C 0.93331 0.26051 0.7636 0.0
C1902 C 0.94589 0.26039 0.7567 0.0
C1903 C 0.95489 0.27026 0.74147 0.0
C1904 C 0.92342 0.24971 0.77924 0.0
C1905 C 0.91779 0.2347 0.77535 0.0
C1906 C 0.91882 0.25407 0.79727 0.0
C1907 C 0.9249 0.26971 0.80301 0.0
C1908 C 0.9401 0.27908 0.80501 0.0
C1909 C 0.94576 0.29383 0.81022 0.0
C1910 C 0.93632 0.29933 0.8136 0.0
C1911 C 0.9212 0.29008 0.81183 0.0
C1912 C 0.91549 0.27532 0.80662 0.0
C1913 C 0.8861 0.19858 0.84761 0.0
C1914 C 0.87489 0.20069 0.85548 0.0
C1915 C 0.89478 0.20712 0.83108 0.0
C1916 C 0.89221 0.21773 0.8219 0.0
C1917 C 0.88037 0.21914 0.82901 0.0
C1918 C 0.87188 0.2108 0.84575 0.0
C1919 C 0.90263 0.22835 0.80649 0.0
C1920 C 0.90846 0.24337 0.81051 0.0
C1921 C 0.90742 0.22397 0.78864 0.0
C1922 C 0.90146 0.20833 0.78304 0.0
C1923 C 0.88629 0.19888 0.78081 0.0
C1924 C 0.88077 0.18414 0.7757 0.0
C1925 C 0.89031 0.17872 0.77264 0.0
C1926 C 0.9054 0.18806 0.77463 0.0
C1927 C 0.91098 0.20282 0.77976 0.0
H1928 H 0.88601 0.1673 0.76869 0.0
H1929 H 0.94072 0.31076 0.81762 0.0
H1930 H 0.74842 0.69951 0.72537 0.0
H1931 H 0.76596 0.70152 0.75216 0.0
H1932 H 0.73566 0.65777 0.77274 0.0
H1933 H 0.71812 0.6556 0.74594 0.0
H1934 H 0.7496 0.67747 0.80577 0.0
H1935 H 0.76168 0.66223 0.74136 0.0
H1936 H 0.76803 0.66426 0.70405 0.0
H1937 H 0.80672 0.70568 0.71576 0.0
H1938 H 0.80047 0.704 0.75311 0.0
H1939 H 0.80492 0.65722 0.84109 0.0
H1940 H 0.79278 0.66107 0.81118 0.0
H1941 H 0.79786 0.70033 0.84013 0.0
H1942 H 0.81022 0.69669 0.86994 0.0
H1943 H 0.79708 0.68354 0.78208 0.0
H1944 H 0.76281 0.69581 0.8396 0.0
H1945 H 0.75643 0.69261 0.87699 0.0
H1946 H 0.76127 0.65456 0.87878 0.0
H1947 H 0.76731 0.65731 0.84132 0.0
C1948 C 0.74538 0.6904 0.73581 0.0
C1949 C 0.73188 0.67736 0.73345 0.0
C1950 C 0.75546 0.69155 0.75102 0.0
C1951 C 0.75216 0.67974 0.76428 0.0
C1952 C 0.73843 0.667 0.76264 0.0
C1953 C 0.72842 0.66577 0.74728 0.0
C1954 C 0.76323 0.68036 0.77922 0.0
C1955 C 0.76001 0.67891 0.8006 0.0
C1956 C 0.77675 0.68205 0.77243 0.0
C1957 C 0.78052 0.68306 0.74999 0.0
C1958 C 0.77147 0.67183 0.73595 0.0
C1959 C 0.77506 0.67291 0.7148 0.0
C1960 C 0.78776 0.6851 0.70753 0.0
C1961 C 0.79688 0.69624 0.72141 0.0
C1962 C 0.79332 0.69523 0.74256 0.0
C1963 C 0.80404 0.66702 0.84068 0.0
C1964 C 0.80834 0.67655 0.85799 0.0
C1965 C 0.79704 0.66917 0.8236 0.0
C1966 C 0.79418 0.68081 0.82367 0.0
C1967 C 0.79981 0.69117 0.83992 0.0
C1968 C 0.80686 0.68907 0.85692 0.0
C1969 C 0.78352 0.68088 0.80859 0.0
C1970 C 0.78676 0.68235 0.78724 0.0
C1971 C 0.76993 0.67904 0.81536 0.0
C1972 C 0.76569 0.67689 0.83771 0.0
C1973 C 0.76241 0.6867 0.84794 0.0
C1974 C 0.75885 0.68496 0.86915 0.0
C1975 C 0.7585 0.67342 0.88027 0.0
C1976 C 0.76159 0.66352 0.87016 0.0
C1977 C 0.76507 0.66516 0.84894 0.0
H1978 H 0.75581 0.67214 0.8967 0.0
H1979 H 0.79055 0.68591 0.69117 0.0
H1980 H 0.71973 0.64295 0.63432 0.0
H1981 H 0.73559 0.6413 0.60796 0.0
H1982 H 0.75077 0.686 0.59024 0.0
H1983 H 0.73499 0.68777 0.61652 0.0
H1984 H 0.74572 0.66796 0.55616 0.0
H1985 H 0.77084 0.67862 0.62223 0.0
H1986 H 0.77355 0.67446 0.65939 0.0
H1987 H 0.76912 0.63274 0.64423 0.0
H1988 H 0.76607 0.63651 0.60697 0.0
H1989 H 0.80881 0.68617 0.50154 0.0
H1990 H 0.79484 0.68631 0.53182 0.0
H1991 H 0.78039 0.64074 0.54241 0.0
H1992 H 0.79443 0.64058 0.51201 0.0
H1993 H 0.78448 0.65767 0.5801 0.0
H1994 H 0.76007 0.64744 0.51366 0.0
H1995 H 0.75813 0.65213 0.47645 0.0
H1996 H 0.7613 0.69321 0.49234 0.0
H1997 H 0.76364 0.68894 0.52964 0.0
C1998 C 0.72627 0.65237 0.62461 0.0
C1999 C 0.72613 0.66553 0.62763 0.0
C2000 C 0.7354 0.65143 0.60963 0.0
C2001 C 0.74452 0.66359 0.59733 0.0
C2002 C 0.74387 0.67649 0.59961 0.0
C2003 C 0.73484 0.67749 0.61467 0.0
C2004 C 0.75514 0.66311 0.58265 0.0
C2005 C 0.75425 0.66583 0.56143 0.0
C2006 C 0.76612 0.66003 0.58946 0.0
C2007 C 0.76806 0.65778 0.61183 0.0
C2008 C 0.77031 0.6685 0.62683 0.0
C2009 C 0.77193 0.66622 0.64792 0.0
C2010 C 0.77149 0.65334 0.65418 0.0
C2011 C 0.76944 0.6427 0.63936 0.0
C2012 C 0.76776 0.64491 0.61825 0.0
C2013 C 0.8031 0.67634 0.5108 0.0
C2014 C 0.80261 0.66334 0.5044 0.0
C2015 C 0.79507 0.67641 0.52802 0.0
C2016 C 0.78634 0.66346 0.53905 0.0
C2017 C 0.78702 0.65083 0.53403 0.0
C2018 C 0.7951 0.65077 0.51675 0.0
C2019 C 0.77513 0.6627 0.55373 0.0
C2020 C 0.77588 0.65971 0.57486 0.0
C2021 C 0.76399 0.66551 0.54685 0.0
C2022 C 0.76217 0.66793 0.52446 0.0
C2023 C 0.76046 0.65752 0.50922 0.0
C2024 C 0.75929 0.6601 0.48811 0.0
C2025 C 0.75962 0.67297 0.48203 0.0
C2026 C 0.76107 0.68325 0.49707 0.0
C2027 C 0.76233 0.68076 0.5182 0.0
H2028 H 0.75872 0.67495 0.46568 0.0
H2029 H 0.77277 0.6516 0.67051 0.0
H2030 H 0.31666 0.04707 0.61901 0.0
H2031 H 0.31695 0.06363 0.59224 0.0
H2032 H 0.36413 0.08744 0.59378 0.0
H2033 H 0.36396 0.07094 0.62064 0.0
H2034 H 0.35265 0.10569 0.59653 0.0
H2035 H 0.34644 0.06602 0.55263 0.0
H2036 H 0.33497 0.04034 0.54071 0.0
H2037 H 0.29429 0.03947 0.53058 0.0
H2038 H 0.30547 0.06508 0.54272 0.0
H2039 H 0.36266 0.14853 0.50499 0.0
H2040 H 0.3629 0.1333 0.53356 0.0
H2041 H 0.31598 0.1061 0.52847 0.0
H2042 H 0.31582 0.12109 0.49954 0.0
H2043 H 0.32785 0.0897 0.52769 0.0
H2044 H 0.33364 0.12915 0.57168 0.0
H2045 H 0.3448 0.15473 0.58388 0.0
H2046 H 0.38567 0.15607 0.59429 0.0
H2047 H 0.37481 0.13054 0.58188 0.0
C2048 C 0.32712 0.05568 0.61346 0.0
C2049 C 0.34029 0.05764 0.62201 0.0
C2050 C 0.32726 0.06515 0.59813 0.0
C2051 C 0.34056 0.07678 0.59099 0.0
C2052 C 0.35373 0.07856 0.5991 0.0
C2053 C 0.35361 0.06904 0.61435 0.0
C2054 C 0.34068 0.08739 0.57567 0.0
C2055 C 0.34741 0.10225 0.58134 0.0
C2056 C 0.33351 0.08283 0.5561 0.0
C2057 C 0.32676 0.06743 0.54878 0.0
C2058 C 0.33502 0.06031 0.54803 0.0
C2059 C 0.32857 0.04578 0.5412 0.0
C2060 C 0.3139 0.03827 0.53494 0.0
C2061 C 0.30565 0.04529 0.53546 0.0
C2062 C 0.31204 0.05982 0.54229 0.0
C2063 C 0.35237 0.13959 0.51047 0.0
C2064 C 0.33921 0.13602 0.50016 0.0
C2065 C 0.3525 0.13085 0.52675 0.0
C2066 C 0.33945 0.11851 0.53323 0.0
C2067 C 0.3262 0.11548 0.52371 0.0
C2068 C 0.32609 0.12412 0.50731 0.0
C2069 C 0.33969 0.10806 0.54859 0.0
C2070 C 0.33307 0.0932 0.54289 0.0
C2071 C 0.34689 0.11262 0.56817 0.0
C2072 C 0.35345 0.12797 0.57565 0.0
C2073 C 0.34504 0.13493 0.57641 0.0
C2074 C 0.35131 0.14942 0.58339 0.0
C2075 C 0.36595 0.15703 0.5898 0.0
C2076 C 0.37434 0.15016 0.5893 0.0
C2077 C 0.36813 0.13568 0.58231 0.0
H2078 H 0.37078 0.16825 0.59521 0.0
H2079 H 0.30893 0.02701 0.52965 0.0
H2080 H 0.958 0.27075 0.6231 0.0
H2081 H 0.94123 0.25552 0.59563 0.0
H2082 H 0.91969 0.28113 0.5974 0.0
H2083 H 0.9363 0.29631 0.62537 0.0
H2084 H 0.89994 0.25297 0.5966 0.0
H2085 H 0.94177 0.28377 0.55639 0.0
H2086 H 0.96773 0.29678 0.54615 0.0
H2087 H 0.96635 0.25574 0.53719 0.0
H2088 H 0.94042 0.24247 0.54767 0.0
H2089 H 0.86541 0.22393 0.49496 0.0
H2090 H 0.879 0.2394 0.52498 0.0
H2091 H 0.89498 0.20998 0.53952 0.0
H2092 H 0.88118 0.19434 0.50985 0.0
H2093 H 0.91691 0.24107 0.53118 0.0
H2094 H 0.87411 0.21077 0.57243 0.0
H2095 H 0.84791 0.19896 0.58109 0.0
H2096 H 0.85103 0.24106 0.58567 0.0
H2097 H 0.87722 0.25312 0.57671 0.0
C2098 C 0.94981 0.2733 0.61753 0.0
C2099 C 0.94853 0.2848 0.62647 0.0
C2100 C 0.94024 0.26457 0.60173 0.0
C2101 C 0.92925 0.26723 0.59429 0.0
C2102 C 0.92808 0.27886 0.6029 0.0
C2103 C 0.93764 0.2876 0.61881 0.0
C2104 C 0.91874 0.25749 0.57805 0.0
C2105 C 0.90366 0.25056 0.58214 0.0
C2106 C 0.92355 0.2542 0.55925 0.0
C2107 C 0.93918 0.26212 0.55301 0.0
C2108 C 0.94703 0.27751 0.55242 0.0
C2109 C 0.96173 0.28494 0.54653 0.0
C2110 C 0.96869 0.27709 0.54107 0.0
C2111 C 0.96095 0.2618 0.54145 0.0
C2112 C 0.94624 0.25432 0.54734 0.0
C2113 C 0.87143 0.22054 0.50503 0.0
C2114 C 0.87219 0.20791 0.50024 0.0
C2115 C 0.8792 0.22938 0.52208 0.0
C2116 C 0.88802 0.22584 0.53435 0.0
C2117 C 0.8882 0.21285 0.53022 0.0
C2118 C 0.88022 0.20387 0.51342 0.0
C2119 C 0.89824 0.23641 0.54998 0.0
C2120 C 0.91325 0.24354 0.54565 0.0
C2121 C 0.89334 0.24007 0.56831 0.0
C2122 C 0.87759 0.23284 0.57365 0.0
C2123 C 0.86918 0.2175 0.57505 0.0
C2124 C 0.85433 0.21077 0.58007 0.0
C2125 C 0.84779 0.21925 0.58386 0.0
C2126 C 0.8561 0.2345 0.58269 0.0
C2127 C 0.87095 0.24129 0.57766 0.0
H2128 H 0.8363 0.21401 0.58776 0.0
H2129 H 0.98007 0.28286 0.53651 0.0
H2130 H 0.36322 0.2891 0.63494 0.0
H2131 H 0.36422 0.27339 0.60765 0.0
H2132 H 0.31826 0.25591 0.59479 0.0
H2133 H 0.31708 0.27129 0.62246 0.0
H2134 H 0.32378 0.23443 0.59699 0.0
H2135 H 0.34596 0.28056 0.56149 0.0
H2136 H 0.36357 0.3068 0.55658 0.0
H2137 H 0.39922 0.29815 0.5591 0.0
H2138 H 0.38183 0.27187 0.56429 0.0
H2139 H 0.31876 0.20289 0.49667 0.0
H2140 H 0.31894 0.21676 0.52745 0.0
H2141 H 0.36359 0.22831 0.54049 0.0
H2142 H 0.36348 0.21448 0.50952 0.0
H2143 H 0.35987 0.25231 0.5395 0.0
H2144 H 0.33696 0.20559 0.57264 0.0
H2145 H 0.31891 0.17938 0.57653 0.0
H2146 H 0.28405 0.18923 0.57734 0.0
H2147 H 0.30188 0.2155 0.57316 0.0
C2148 C 0.35336 0.28207 0.62612 0.0
C2149 C 0.34007 0.28148 0.63091 0.0
C2150 C 0.35395 0.27308 0.61047 0.0
C2151 C 0.34133 0.26349 0.59901 0.0
C2152 C 0.32814 0.26315 0.60344 0.0
C2153 C 0.3275 0.27203 0.61921 0.0
C2154 C 0.34171 0.25344 0.58292 0.0
C2155 C 0.33157 0.23839 0.58428 0.0
C2156 C 0.35213 0.25848 0.56664 0.0
C2157 C 0.3626 0.27427 0.5635 0.0
C2158 C 0.35756 0.28427 0.56117 0.0
C2159 C 0.3675 0.29915 0.5583 0.0
C2160 C 0.38251 0.30415 0.55759 0.0
C2161 C 0.3876 0.29427 0.55969 0.0
C2162 C 0.37771 0.27938 0.56257 0.0
C2163 C 0.3285 0.20811 0.50638 0.0
C2164 C 0.34109 0.20757 0.50073 0.0
C2165 C 0.32859 0.21603 0.52398 0.0
C2166 C 0.34128 0.22357 0.5363 0.0
C2167 C 0.35368 0.22256 0.5312 0.0
C2168 C 0.35356 0.21453 0.51365 0.0
C2169 C 0.34185 0.23337 0.55348 0.0
C2170 C 0.35216 0.24837 0.55231 0.0
C2171 C 0.33152 0.2283 0.56984 0.0
C2172 C 0.32076 0.21251 0.57242 0.0
C2173 C 0.32544 0.20216 0.57348 0.0
C2174 C 0.31525 0.18729 0.57577 0.0
C2175 C 0.30034 0.18264 0.57714 0.0
C2176 C 0.2956 0.19285 0.57626 0.0
C2177 C 0.30575 0.20773 0.57396 0.0
H2178 H 0.29246 0.17113 0.57891 0.0
H2179 H 0.39018 0.31567 0.55537 0.0
H2180 H 0.74314 0.06052 0.6279 0.0
H2181 H 0.75885 0.07816 0.60182 0.0
H2182 H 0.72464 0.08761 0.58647 0.0
H2183 H 0.70884 0.07014 0.61298 0.0
H2184 H 0.74015 0.0834 0.55081 0.0
H2185 H 0.74882 0.11142 0.6134 0.0
H2186 H 0.75416 0.11714 0.65083 0.0
H2187 H 0.79546 0.11894 0.64359 0.0
H2188 H 0.79027 0.113 0.60611 0.0
H2189 H 0.78446 0.14392 0.48911 0.0
H2190 H 0.76865 0.13133 0.51878 0.0
H2191 H 0.8015 0.12257 0.54368 0.0
H2192 H 0.81737 0.13515 0.51401 0.0
H2193 H 0.78576 0.12744 0.57499 0.0
H2194 H 0.7765 0.0983 0.51266 0.0
H2195 H 0.77147 0.09329 0.47501 0.0
H2196 H 0.7311 0.09349 0.48177 0.0
H2197 H 0.73605 0.09883 0.51942 0.0
C2198 C 0.73884 0.06619 0.61884 0.0
C2199 C 0.72472 0.06392 0.62255 0.0
C2200 C 0.74788 0.07633 0.60401 0.0
C2201 C 0.74294 0.08425 0.59237 0.0
C2202 C 0.72865 0.08161 0.59536 0.0
C2203 C 0.71966 0.07164 0.6105 0.0
C2204 C 0.75294 0.09556 0.57752 0.0
C2205 C 0.74999 0.09316 0.55608 0.0
C2206 C 0.7659 0.10813 0.58445 0.0
C2207 C 0.76908 0.11162 0.60698 0.0
C2208 C 0.75897 0.11287 0.61982 0.0
C2209 C 0.76199 0.11619 0.64103 0.0
C2210 C 0.77513 0.11838 0.64958 0.0
C2211 C 0.78528 0.11723 0.63694 0.0
C2212 C 0.78231 0.1139 0.6157 0.0
C2213 C 0.78848 0.13969 0.50125 0.0
C2214 C 0.80208 0.14038 0.49915 0.0
C2215 C 0.77943 0.13247 0.51814 0.0
C2216 C 0.78378 0.12574 0.53317 0.0
C2217 C 0.79792 0.12764 0.53221 0.0
C2218 C 0.80701 0.1349 0.51529 0.0
C2219 C 0.773 0.11528 0.54824 0.0
C2220 C 0.77584 0.11777 0.56971 0.0
C2221 C 0.75993 0.10276 0.54133 0.0
C2222 C 0.75672 0.09912 0.51882 0.0
C2223 C 0.76659 0.09737 0.5061 0.0
C2224 C 0.76376 0.09447 0.48476 0.0
C2225 C 0.75099 0.0931 0.476 0.0
C2226 C 0.741 0.09458 0.48858 0.0
C2227 C 0.74381 0.09754 0.50992 0.0
H2228 H 0.74882 0.09087 0.45947 0.0
H2229 H 0.77746 0.12102 0.66599 0.0
H2230 H 0.95892 0.68252 0.61228 0.0
H2231 H 0.94029 0.67892 0.5865 0.0
H2232 H 0.91025 0.63737 0.61422 0.0
H2233 H 0.92908 0.64061 0.63945 0.0
H2234 H 0.90639 0.63456 0.57508 0.0
H2235 H 0.90847 0.66949 0.62374 0.0
H2236 H 0.91987 0.69182 0.64558 0.0
H2237 H 0.93469 0.7184 0.59063 0.0
H2238 H 0.92355 0.69622 0.56846 0.0
H2239 H 0.85704 0.66223 0.51969 0.0
H2240 H 0.86923 0.66008 0.55122 0.0
H2241 H 0.89511 0.64794 0.51293 0.0
H2242 H 0.88268 0.64944 0.48191 0.0
H2243 H 0.89658 0.67529 0.56271 0.0
H2244 H 0.9049 0.62661 0.53689 0.0
H2245 H 0.89105 0.60301 0.51828 0.0
H2246 H 0.85068 0.60143 0.53344 0.0
H2247 H 0.86425 0.6249 0.55241 0.0
C2248 C 0.94841 0.67253 0.61272 0.0
C2249 C 0.94547 0.66188 0.62797 0.0
C2250 C 0.9377 0.67054 0.59809 0.0
C2251 C 0.92368 0.65805 0.59873 0.0
C2252 C 0.92092 0.64714 0.61345 0.0
C2253 C 0.93173 0.649 0.62785 0.0
C2254 C 0.91194 0.65644 0.58411 0.0
C2255 C 0.90421 0.64345 0.57245 0.0
C2256 C 0.90861 0.66779 0.58119 0.0
C2257 C 0.91525 0.68118 0.59445 0.0
C2258 C 0.91423 0.6801 0.61632 0.0
C2259 C 0.92064 0.69273 0.62876 0.0
C2260 C 0.92802 0.70652 0.6195 0.0
C2261 C 0.92897 0.70771 0.59778 0.0
C2262 C 0.92259 0.69511 0.58527 0.0
C2263 C 0.86514 0.65883 0.51815 0.0
C2264 C 0.86904 0.6562 0.49832 0.0
C2265 C 0.87215 0.65769 0.53611 0.0
C2266 C 0.88303 0.65373 0.53451 0.0
C2267 C 0.8866 0.65075 0.51472 0.0
C2268 C 0.8796 0.65182 0.49691 0.0
C2269 C 0.8915 0.65365 0.55309 0.0
C2270 C 0.89861 0.66632 0.56553 0.0
C2271 C 0.89388 0.64181 0.55721 0.0
C2272 C 0.88563 0.62759 0.54597 0.0
C2273 C 0.89307 0.62119 0.53637 0.0
C2274 C 0.88526 0.60784 0.52572 0.0
C2275 C 0.87 0.60074 0.52464 0.0
C2276 C 0.8625 0.60696 0.53424 0.0
C2277 C 0.87025 0.6203 0.54491 0.0
H2278 H 0.86398 0.59041 0.51638 0.0
H2279 H 0.93298 0.71629 0.62916 0.0
H2280 H 0.96262 0.70011 0.72903 0.0
H2281 H 0.94638 0.70145 0.75515 0.0
H2282 H 0.92625 0.65496 0.76512 0.0
H2283 H 0.94237 0.65349 0.73929 0.0
H2284 H 0.90608 0.66429 0.75736 0.0
H2285 H 0.94893 0.67813 0.80094 0.0
H2286 H 0.975 0.69348 0.81038 0.0
H2287 H 0.97005 0.73146 0.8131 0.0
H2288 H 0.94398 0.71636 0.80341 0.0
H2289 H 0.86455 0.64919 0.84909 0.0
H2290 H 0.88039 0.65225 0.8196 0.0
H2291 H 0.90235 0.69918 0.82795 0.0
H2292 H 0.887 0.69593 0.85842 0.0
H2293 H 0.92178 0.69245 0.82373 0.0
H2294 H 0.87908 0.67953 0.78346 0.0
H2295 H 0.85313 0.66532 0.77291 0.0
H2296 H 0.85751 0.62753 0.76174 0.0
H2297 H 0.88344 0.64144 0.7725 0.0
C2298 C 0.9549 0.69021 0.73702 0.0
C2299 C 0.95381 0.67668 0.73198 0.0
C2300 C 0.94561 0.691 0.75191 0.0
C2301 C 0.93505 0.67828 0.76197 0.0
C2302 C 0.93425 0.66489 0.75743 0.0
C2303 C 0.94356 0.6641 0.74272 0.0
C2304 C 0.92444 0.6787 0.77673 0.0
C2305 C 0.90946 0.67035 0.77197 0.0
C2306 C 0.92891 0.68711 0.79532 0.0
C2307 C 0.94456 0.69615 0.80123 0.0
C2308 C 0.95343 0.68978 0.80338 0.0
C2309 C 0.9682 0.69843 0.80881 0.0
C2310 C 0.97419 0.71344 0.81227 0.0
C2311 C 0.96541 0.71983 0.81037 0.0
C2312 C 0.95063 0.71123 0.80493 0.0
C2313 C 0.87247 0.66015 0.84418 0.0
C2314 C 0.87444 0.67234 0.85572 0.0
C2315 C 0.88154 0.66194 0.82728 0.0
C2316 C 0.89252 0.67599 0.8212 0.0
C2317 C 0.894 0.68823 0.83224 0.0
C2318 C 0.88514 0.68641 0.84948 0.0
C2319 C 0.90322 0.67775 0.80467 0.0
C2320 C 0.91827 0.68652 0.80903 0.0
C2321 C 0.8988 0.66993 0.7855 0.0
C2322 C 0.8832 0.66152 0.77893 0.0
C2323 C 0.87449 0.66816 0.77888 0.0
C2324 C 0.85978 0.66016 0.77285 0.0
C2325 C 0.85367 0.64553 0.76669 0.0
C2326 C 0.86226 0.63887 0.76652 0.0
C2327 C 0.87697 0.64681 0.77255 0.0
H2328 H 0.84228 0.63935 0.76203 0.0
H2329 H 0.98563 0.72012 0.81648 0.0
H2330 H 0.35658 0.28589 0.73935 0.0
H2331 H 0.35505 0.26812 0.76493 0.0
H2332 H 0.30804 0.24797 0.76522 0.0
H2333 H 0.30942 0.26572 0.73943 0.0
H2334 H 0.32108 0.25132 0.80566 0.0
H2335 H 0.32204 0.23222 0.73747 0.0
H2336 H 0.33205 0.23365 0.70229 0.0
H2337 H 0.37269 0.24144 0.72912 0.0
H2338 H 0.36299 0.24027 0.76448 0.0
H2339 H 0.31098 0.1909 0.86302 0.0
H2340 H 0.30843 0.20386 0.83309 0.0
H2341 H 0.35437 0.22224 0.81975 0.0
H2342 H 0.35674 0.20878 0.84911 0.0
H2343 H 0.34013 0.21862 0.78467 0.0
H2344 H 0.34132 0.23985 0.85152 0.0
H2345 H 0.3331 0.23974 0.88755 0.0
H2346 H 0.29091 0.23011 0.86459 0.0
H2347 H 0.29879 0.22987 0.82843 0.0
C2348 C 0.3459 0.27782 0.74499 0.0
C2349 C 0.33311 0.2772 0.73718 0.0
C2350 C 0.34505 0.26762 0.75956 0.0
C2351 C 0.33142 0.2566 0.76671 0.0
C2352 C 0.31866 0.25635 0.7598 0.0
C2353 C 0.31948 0.26651 0.74506 0.0
C2354 C 0.33055 0.24507 0.78082 0.0
C2355 C 0.32499 0.24399 0.80098 0.0
C2356 C 0.33605 0.23579 0.77487 0.0
C2357 C 0.34182 0.23627 0.75362 0.0
C2358 C 0.33314 0.23433 0.73587 0.0
C2359 C 0.33876 0.23508 0.71589 0.0
C2360 C 0.35301 0.23766 0.71347 0.0
C2361 C 0.36166 0.23945 0.73102 0.0
C2362 C 0.3561 0.23873 0.75103 0.0
C2363 C 0.32037 0.19727 0.85316 0.0
C2364 C 0.33404 0.19885 0.85828 0.0
C2365 C 0.31897 0.2048 0.83623 0.0
C2366 C 0.33131 0.21439 0.82454 0.0
C2367 C 0.3447 0.21499 0.82859 0.0
C2368 C 0.34604 0.20724 0.8453 0.0
C2369 C 0.33067 0.22485 0.80962 0.0
C2370 C 0.33603 0.2258 0.78933 0.0
C2371 C 0.32525 0.23423 0.81559 0.0
C2372 C 0.32059 0.23469 0.83728 0.0
C2373 C 0.33026 0.23763 0.85416 0.0
C2374 C 0.32567 0.23762 0.87461 0.0
C2375 C 0.31148 0.23489 0.87835 0.0
C2376 C 0.30188 0.2322 0.86166 0.0
C2377 C 0.30641 0.23213 0.84119 0.0
H2378 H 0.30794 0.23488 0.89419 0.0
H2379 H 0.35734 0.23825 0.69799 0.0
H2380 H 0.72605 0.08007 0.72294 0.0
H2381 H 0.74343 0.09454 0.75054 0.0
H2382 H 0.74868 0.05774 0.76638 0.0
H2383 H 0.7315 0.04321 0.7384 0.0
H2384 H 0.74462 0.07258 0.80142 0.0
H2385 H 0.77473 0.08207 0.74192 0.0
H2386 H 0.78272 0.08876 0.70553 0.0
H2387 H 0.78759 0.13124 0.71566 0.0
H2388 H 0.77942 0.12473 0.75208 0.0
H2389 H 0.81975 0.12671 0.84869 0.0
H2390 H 0.80542 0.1123 0.81843 0.0
H2391 H 0.77016 0.11958 0.83606 0.0
H2392 H 0.78458 0.13449 0.86567 0.0
H2393 H 0.79101 0.11772 0.78399 0.0
H2394 H 0.73856 0.08426 0.8336 0.0
H2395 H 0.73155 0.07514 0.86952 0.0
H2396 H 0.7732 0.078 0.87906 0.0
H2397 H 0.78034 0.08683 0.8431 0.0
C2398 C 0.73078 0.07498 0.73239 0.0
C2399 C 0.72737 0.06047 0.72848 0.0
C2400 C 0.74078 0.08331 0.74807 0.0
C2401 C 0.74741 0.07724 0.76036 0.0
C2402 C 0.7437 0.06262 0.75699 0.0
C2403 C 0.73389 0.05435 0.74103 0.0
C2404 C 0.75824 0.08626 0.77666 0.0
C2405 C 0.75475 0.08246 0.79764 0.0
C2406 C 0.77162 0.09893 0.77163 0.0
C2407 C 0.77632 0.10285 0.74967 0.0
C2408 C 0.77734 0.09278 0.73633 0.0
C2409 C 0.78194 0.09655 0.71572 0.0
C2410 C 0.78565 0.11041 0.70829 0.0
C2411 C 0.78471 0.12051 0.72145 0.0
C2412 C 0.78011 0.11679 0.74208 0.0
C2413 C 0.80916 0.12567 0.84575 0.0
C2414 C 0.80327 0.13164 0.85979 0.0
C2415 C 0.80093 0.11732 0.82854 0.0
C2416 C 0.78663 0.11465 0.82528 0.0
C2417 C 0.78109 0.12132 0.8385 0.0
C2418 C 0.78936 0.12983 0.85544 0.0
C2419 C 0.77714 0.10431 0.80879 0.0
C2420 C 0.78086 0.10787 0.78778 0.0
C2421 C 0.76407 0.09126 0.8138 0.0
C2422 C 0.76004 0.08636 0.83568 0.0
C2423 C 0.74621 0.08292 0.84335 0.0
C2424 C 0.74219 0.07774 0.86369 0.0
C2425 C 0.75189 0.07592 0.87652 0.0
C2426 C 0.76568 0.07939 0.86909 0.0
C2427 C 0.76974 0.08452 0.84874 0.0
H2428 H 0.74876 0.07192 0.89227 0.0
H2429 H 0.78932 0.11333 0.69238 0.0
H2430 H 0.03308 0.34171 0.01839 0.0
H2431 H 0.05136 0.33459 0.02671 0.0
H2432 H 0.08161 0.37886 0.04646 0.0
H2433 H 0.06365 0.3861 0.03762 0.0
H2434 H 0.09591 0.36886 0.02565 0.0
H2435 H 0.06067 0.35025 0.08153 0.0
H2436 H 0.03612 0.33574 0.09686 0.0
H2437 H 0.03253 0.29636 0.07134 0.0
H2438 H 0.05701 0.31067 0.05564 0.0
H2439 H 0.14075 0.36143 0.1018 0.0
H2440 H 0.12424 0.36576 0.07997 0.0
H2441 H 0.10282 0.32083 0.05888 0.0
H2442 H 0.11942 0.31649 0.08077 0.0
H2443 H 0.08363 0.32849 0.07539 0.0
H2444 H 0.12131 0.34772 0.0244 0.0
H2445 H 0.14638 0.36289 0.01112 0.0
H2446 H 0.14596 0.40189 0.02939 0.0
H2447 H 0.12096 0.38696 0.04306 0.0
C2448 C 0.04365 0.34993 0.02442 0.0
C2449 C 0.04687 0.36446 0.02742 0.0
C2450 C 0.05409 0.34583 0.02925 0.0
C2451 C 0.06786 0.35614 0.03748 0.0
C2452 C 0.07112 0.37069 0.0401 0.0
C2453 C 0.06078 0.37481 0.03511 0.0
C2454 C 0.0788 0.35186 0.04394 0.0
C2455 C 0.09323 0.36007 0.03661 0.0
C2456 C 0.07529 0.34014 0.05781 0.0
C2457 C 0.06057 0.33154 0.0672 0.0
C2458 C 0.05459 0.33851 0.07905 0.0
C2459 C 0.0407 0.33032 0.08783 0.0
C2460 C 0.03275 0.31514 0.08502 0.0
C2461 C 0.03869 0.30812 0.07347 0.0
C2462 C 0.05257 0.31626 0.06463 0.0
C2463 C 0.13284 0.35263 0.09195 0.0
C2464 C 0.13142 0.33866 0.09285 0.0
C2465 C 0.12339 0.35509 0.07949 0.0
C2466 C 0.11227 0.34362 0.06776 0.0
C2467 C 0.11133 0.32985 0.06777 0.0
C2468 C 0.12091 0.32742 0.08009 0.0
C2469 C 0.10078 0.3457 0.05746 0.0
C2470 C 0.08625 0.33709 0.06411 0.0
C2471 C 0.10425 0.35716 0.04318 0.0
C2472 C 0.11927 0.3662 0.03488 0.0
C2473 C 0.1266 0.35953 0.02573 0.0
C2474 C 0.14079 0.36809 0.0181 0.0
C2475 C 0.14777 0.38334 0.01944 0.0
C2476 C 0.14054 0.39007 0.02837 0.0
C2477 C 0.12635 0.38156 0.03603 0.0
H2478 H 0.15876 0.38994 0.01353 0.0
H2479 H 0.022 0.30883 0.09183 0.0
H2480 H 0.62302 0.68326 0.01681 0.0
H2481 H 0.63175 0.70842 0.02855 0.0
H2482 H 0.67378 0.71321 0.04368 0.0
H2483 H 0.66519 0.68809 0.0316 0.0
H2484 H 0.66011 0.71981 0.07684 0.0
H2485 H 0.67226 0.73202 0.00488 0.0
H2486 H 0.66757 0.73019 0.96696 0.0
H2487 H 0.63457 0.74215 0.97583 0.0
H2488 H 0.6389 0.74384 0.01386 0.0
H2489 H 0.69566 0.79246 0.11027 0.0
H2490 H 0.68944 0.77054 0.08973 0.0
H2491 H 0.65012 0.76926 0.06775 0.0
H2492 H 0.65657 0.79158 0.0882 0.0
H2493 H 0.66248 0.76114 0.03687 0.0
H2494 H 0.64443 0.74163 0.10606 0.0
H2495 H 0.64516 0.74015 0.1444 0.0
H2496 H 0.68631 0.7412 0.14087 0.0
H2497 H 0.6854 0.74192 0.10235 0.0
C2498 C 0.6342 0.68974 0.02234 0.0
C2499 C 0.6434 0.68366 0.02335 0.0
C2500 C 0.63919 0.70414 0.02894 0.0
C2501 C 0.65343 0.71271 0.03692 0.0
C2502 C 0.66277 0.7068 0.03749 0.0
C2503 C 0.65786 0.69246 0.03056 0.0
C2504 C 0.65805 0.72726 0.04647 0.0
C2505 C 0.66092 0.72893 0.06797 0.0
C2506 C 0.65846 0.73896 0.03511 0.0
C2507 C 0.6558 0.73791 0.01226 0.0
C2508 C 0.66389 0.73412 0.99878 0.0
C2509 C 0.66133 0.73314 0.97725 0.0
C2510 C 0.65075 0.73601 0.969 0.0
C2511 C 0.64275 0.73991 0.98225 0.0
C2512 C 0.64526 0.74089 0.00379 0.0
C2513 C 0.68581 0.78764 0.10077 0.0
C2514 C 0.67656 0.79366 0.10084 0.0
C2515 C 0.68218 0.77503 0.0892 0.0
C2516 C 0.66911 0.76799 0.07761 0.0
C2517 C 0.66021 0.77443 0.0767 0.0
C2518 C 0.66391 0.78719 0.08827 0.0
C2519 C 0.66468 0.75369 0.06719 0.0
C2520 C 0.66179 0.75205 0.04563 0.0
C2521 C 0.66394 0.74183 0.07846 0.0
C2522 C 0.66495 0.74204 0.10148 0.0
C2523 C 0.65367 0.74165 0.11352 0.0
C2524 C 0.65407 0.74086 0.13524 0.0
C2525 C 0.66589 0.74083 0.14512 0.0
C2526 C 0.6772 0.74131 0.13322 0.0
C2527 C 0.67668 0.74175 0.11144 0.0
H2528 H 0.66623 0.74033 0.16197 0.0
H2529 H 0.64879 0.73525 0.95233 0.0
H2530 H 0.31459 0.9733 0.02421 0.0
H2531 H 0.28927 0.9557 0.03368 0.0
H2532 H 0.29982 0.92113 0.03486 0.0
H2533 H 0.32502 0.93855 0.02527 0.0
H2534 H 0.27298 0.91172 0.01722 0.0
H2535 H 0.29913 0.93799 0.07957 0.0
H2536 H 0.31386 0.96005 0.10115 0.0
H2537 H 0.28032 0.97162 0.0959 0.0
H2538 H 0.26547 0.94971 0.07405 0.0
H2539 H 0.22175 0.85954 0.08783 0.0
H2540 H 0.24189 0.87693 0.06607 0.0
H2541 H 0.2273 0.90828 0.07375 0.0
H2542 H 0.20729 0.89096 0.0959 0.0
H2543 H 0.25469 0.92048 0.08382 0.0
H2544 H 0.22699 0.89246 0.0251 0.0
H2545 H 0.21214 0.87025 0.00389 0.0
H2546 H 0.24795 0.86183 0.00202 0.0
H2547 H 0.26296 0.88388 0.02347 0.0
C2548 C 0.31147 0.96192 0.02626 0.0
C2549 C 0.32187 0.95737 0.02412 0.0
C2550 C 0.29701 0.95187 0.03174 0.0
C2551 C 0.29266 0.93709 0.03521 0.0
C2552 C 0.30289 0.93245 0.03227 0.0
C2553 C 0.31733 0.94246 0.02687 0.0
C2554 C 0.27776 0.92659 0.04305 0.0
C2555 C 0.26898 0.91358 0.03183 0.0
C2556 C 0.27236 0.92917 0.06183 0.0
C2557 C 0.28128 0.94232 0.07497 0.0
C2558 C 0.29495 0.94531 0.08288 0.0
C2559 C 0.30331 0.95777 0.09518 0.0
C2560 C 0.29805 0.96726 0.09983 0.0
C2561 C 0.2844 0.96428 0.09224 0.0
C2562 C 0.276 0.95184 0.07991 0.0
C2563 C 0.22251 0.86992 0.08423 0.0
C2564 C 0.21293 0.87388 0.09356 0.0
C2565 C 0.23408 0.87991 0.07181 0.0
C2566 C 0.23618 0.89398 0.0682 0.0
C2567 C 0.22599 0.89755 0.07635 0.0
C2568 C 0.2145 0.88761 0.0889 0.0
C2569 C 0.24984 0.90545 0.0581 0.0
C2570 C 0.25848 0.91866 0.06899 0.0
C2571 C 0.25505 0.90304 0.039 0.0
C2572 C 0.24607 0.88978 0.02604 0.0
C2573 C 0.23167 0.88581 0.0203 0.0
C2574 C 0.22322 0.87326 0.00821 0.0
C2575 C 0.22908 0.86462 0.00165 0.0
C2576 C 0.24342 0.86853 0.00713 0.0
C2577 C 0.25191 0.88107 0.01923 0.0
H2578 H 0.22253 0.8549 0.99229 0.0
H2579 H 0.30454 0.97689 0.10937 0.0
H2580 H 0.386 0.06138 0.0025 0.0
H2581 H 0.37836 0.07922 0.99487 0.0
H2582 H 0.33335 0.04455 0.9916 0.0
H2583 H 0.34095 0.02653 -0.00077 0.0
H2584 H 0.34103 0.0627 0.95807 0.0
H2585 H 0.34496 0.06844 0.03218 0.0
H2586 H 0.35674 0.07224 0.06671 0.0
H2587 H 0.39157 0.11419 0.0474 0.0
H2588 H 0.38011 0.11055 0.01263 0.0
H2589 H 0.31786 0.11248 0.93603 0.0
H2590 H 0.3199 0.09446 0.95759 0.0
H2591 H 0.366 0.12473 0.96634 0.0
H2592 H 0.36387 0.14289 0.94525 0.0
H2593 H 0.35502 0.10749 8e-05 0.0
H2594 H 0.35394 0.10033 0.92543 0.0
H2595 H 0.34353 0.09692 0.88996 0.0
H2596 H 0.30469 0.05817 0.90964 0.0
H2597 H 0.31487 0.06136 0.94528 0.0
C2598 C 0.37445 0.05752 0.00035 0.0
C2599 C 0.36409 0.0425 0.00145 0.0
C2600 C 0.37009 0.06777 0.99611 0.0
C2601 C 0.35526 0.06327 0.99286 0.0
C2602 C 0.34485 0.04829 0.99415 0.0
C2603 C 0.3492 0.03801 0.99854 0.0
C2604 C 0.35085 0.07414 0.98679 0.0
C2605 C 0.34379 0.07231 0.96751 0.0
C2606 C 0.35481 0.08691 0.99881 0.0
C2607 C 0.36172 0.08917 0.01973 0.0
C2608 C 0.35519 0.07843 0.03523 0.0
C2609 C 0.3618 0.08056 0.05486 0.0
C2610 C 0.37491 0.09344 0.05923 0.0
C2611 C 0.38142 0.10422 0.04399 0.0
C2612 C 0.37486 0.10213 0.02432 0.0
C2613 C 0.32828 0.11548 0.94331 0.0
C2614 C 0.34071 0.12906 0.93897 0.0
C2615 C 0.32948 0.10514 0.95545 0.0
C2616 C 0.34319 0.10808 0.96309 0.0
C2617 C 0.35532 0.12217 0.96052 0.0
C2618 C 0.35408 0.13259 0.94857 0.0
C2619 C 0.34529 0.09605 0.97134 0.0
C2620 C 0.35201 0.09772 0.99089 0.0
C2621 C 0.34118 0.08317 0.95948 0.0
C2622 C 0.33509 0.08117 0.93805 0.0
C2623 C 0.34314 0.09113 0.92222 0.0
C2624 C 0.33729 0.08924 0.90209 0.0
C2625 C 0.32342 0.0774 0.89758 0.0
C2626 C 0.31542 0.06737 0.91317 0.0
C2627 C 0.32123 0.06919 0.93333 0.0
H2628 H 0.31891 0.07598 0.88199 0.0
H2629 H 0.38001 0.09507 0.07444 0.0
H2630 H 0.97471 0.31272 0.00508 0.0
H2631 H 0.95662 0.28734 0.9961 0.0
H2632 H 0.9257 0.30097 0.97881 0.0
H2633 H 0.9435 0.32615 0.98827 0.0
H2634 H 0.91189 0.27628 0.99882 0.0
H2635 H 0.94641 0.29423 0.94217 0.0
H2636 H 0.97078 0.30497 0.92601 0.0
H2637 H 0.97562 0.26938 0.94878 0.0
H2638 H 0.95133 0.25852 0.96529 0.0
H2639 H 0.86717 0.22394 0.92163 0.0
H2640 H 0.88361 0.245 0.94345 0.0
H2641 H 0.90559 0.22206 0.96411 0.0
H2642 H 0.88898 0.20087 0.94242 0.0
H2643 H 0.92437 0.24935 0.9468 0.0
H2644 H 0.88751 0.22976 0.99899 0.0
H2645 H 0.86258 0.21916 0.01314 0.0
H2646 H 0.86154 0.25807 0.99678 0.0
H2647 H 0.88639 0.26883 0.98224 0.0
C2648 C 0.96403 0.31028 -0.00054 0.0
C2649 C 0.96059 0.32149 0.99731 0.0
C2650 C 0.9537 0.29577 0.99425 0.0
C2651 C 0.9398 0.2922 0.9865 0.0
C2652 C 0.9363 0.30337 0.98477 0.0
C2653 C 0.94654 0.31782 0.99012 0.0
C2654 C 0.92897 0.277 0.97963 0.0
C2655 C 0.91462 0.27044 0.98736 0.0
C2656 C 0.93254 0.26914 0.96505 0.0
C2657 C 0.94715 0.27567 0.95518 0.0
C2658 C 0.95272 0.28876 0.94387 0.0
C2659 C 0.96651 0.29486 0.93462 0.0
C2660 C 0.97476 0.28789 0.93643 0.0
C2661 C 0.96923 0.27478 0.94744 0.0
C2662 C 0.95545 0.26865 0.95673 0.0
C2663 C 0.87517 0.22322 0.93143 0.0
C2664 C 0.87672 0.21075 0.93055 0.0
C2665 C 0.88459 0.23525 0.94383 0.0
C2666 C 0.89585 0.23512 0.95542 0.0
C2667 C 0.89696 0.22238 0.95534 0.0
C2668 C 0.88739 0.21024 0.94315 0.0
C2669 C 0.90726 0.24879 0.96571 0.0
C2670 C 0.92172 0.25508 0.95855 0.0
C2671 C 0.90373 0.25646 0.9806 0.0
C2672 C 0.88879 0.25006 0.98939 0.0
C2673 C 0.88193 0.23601 0.99826 0.0
C2674 C 0.86781 0.22999 0.00637 0.0
C2675 C 0.86047 0.23793 0.00582 0.0
C2676 C 0.86724 0.25193 0.99719 0.0
C2677 C 0.88135 0.25801 0.98903 0.0
H2678 H 0.84954 0.23324 0.01212 0.0
H2679 H 0.98543 0.29262 0.92925 0.0
H2680 H 0.69014 0.66121 0.9958 0.0
H2681 H 0.71516 0.66785 0.98612 0.0
H2682 H 0.70215 0.62211 0.98155 0.0
H2683 H 0.67725 0.61542 0.9914 0.0
H2684 H 0.72843 0.63723 0.0002 0.0
H2685 H 0.70541 0.64229 0.93826 0.0
H2686 H 0.6925 0.6517 0.91677 0.0
H2687 H 0.72786 0.69566 0.92602 0.0
H2688 H 0.74088 0.68652 0.94783 0.0
H2689 H 0.78333 0.6396 0.93241 0.0
H2690 H 0.7617 0.63548 0.9519 0.0
H2691 H 0.77733 0.68191 0.95175 0.0
H2692 H 0.79882 0.68598 0.93193 0.0
H2693 H 0.7506 0.66785 0.93765 0.0
H2694 H 0.77459 0.66251 0.9976 0.0
H2695 H 0.78762 0.65281 0.01816 0.0
H2696 H 0.75083 0.60932 0.01214 0.0
H2697 H 0.73764 0.61872 0.99129 0.0
C2698 C 0.69263 0.65257 0.99288 0.0
C2699 C 0.68165 0.63778 0.99428 0.0
C2700 C 0.70693 0.65638 0.98727 0.0
C2701 C 0.71053 0.64548 0.98287 0.0
C2702 C 0.69967 0.63073 0.98485 0.0
C2703 C 0.6854 0.62692 0.99042 0.0
C2704 C 0.72544 0.64934 0.97558 0.0
C2705 C 0.73325 0.64385 0.98644 0.0
C2706 C 0.7319 0.65823 0.95787 0.0
C2707 C 0.72402 0.66374 0.94491 0.0
C2708 C 0.71036 0.65398 0.93589 0.0
C2709 C 0.70304 0.65926 0.92362 0.0
C2710 C 0.70933 0.67427 0.9201 0.0
C2711 C 0.72298 0.68403 0.9288 0.0
C2712 C 0.73033 0.67881 0.94112 0.0
C2713 C 0.7824 0.64896 0.9372 0.0
C2714 C 0.79278 0.66312 0.93071 0.0
C2715 C 0.76999 0.64661 0.9483 0.0
C2716 C 0.76782 0.65838 0.95335 0.0
C2717 C 0.77868 0.67262 0.94798 0.0
C2718 C 0.79101 0.67496 0.93679 0.0
C2719 C 0.75367 0.65576 0.96227 0.0
C2720 C 0.74592 0.66141 0.95161 0.0
C2721 C 0.7473 0.64701 0.98012 0.0
C2722 C 0.75517 0.64131 0.99273 0.0
C2723 C 0.76932 0.65086 0.00052 0.0
C2724 C 0.77672 0.64542 0.01226 0.0
C2725 C 0.77007 0.63045 0.01642 0.0
C2726 C 0.75598 0.6209 0.0089 0.0
C2727 C 0.74852 0.62629 0.99714 0.0
H2728 H 0.77583 0.62626 0.0255 0.0
H2729 H 0.70366 0.67834 0.91057 0.0
H2730 H 0.94109 0.61906 0.00429 0.0
H2731 H 0.92438 0.62764 0.99393 0.0
H2732 H 0.96076 0.67166 0.9889 0.0
H2733 H 0.97763 0.66311 -0.00082 0.0
H2734 H 0.91748 0.64757 0.00952 0.0
H2735 H 0.95413 0.68751 0.9463 0.0
H2736 H 0.97444 0.69149 0.92316 0.0
H2737 H 0.95989 0.64551 0.92418 0.0
H2738 H 0.9394 0.64124 0.94707 0.0
H2739 H 0.89638 0.69 0.9267 0.0
H2740 H 0.91397 0.68747 0.94874 0.0
H2741 H 0.88142 0.64265 0.96132 0.0
H2742 H 0.86382 0.64517 0.93942 0.0
H2743 H 0.92428 0.67007 0.93966 0.0
H2744 H 0.88915 0.63085 0.0061 0.0
H2745 H 0.86861 0.62681 0.02872 0.0
H2746 H 0.87968 0.6716 0.02096 0.0
H2747 H 0.90041 0.67598 0.99855 0.0
C2748 C 0.94556 0.6306 0.00115 0.0
C2749 C 0.96073 0.64038 0.00242 0.0
C2750 C 0.93596 0.6355 0.99532 0.0
C2751 C 0.9413 0.65027 0.99044 0.0
C2752 C 0.9564 0.66018 0.99237 0.0
C2753 C 0.96602 0.65528 0.9983 0.0
C2754 C 0.93111 0.65502 0.98227 0.0
C2755 C 0.91891 0.65243 0.99421 0.0
C2756 C 0.93315 0.6617 0.96251 0.0
C2757 C 0.94536 0.6641 0.94862 0.0
C2758 C 0.95526 0.67826 0.94155 0.0
C2759 C 0.9668 0.68056 0.92847 0.0
C2760 C 0.96849 0.66877 0.92228 0.0
C2761 C 0.95861 0.65464 0.92907 0.0
C2762 C 0.94704 0.65228 0.94211 0.0
C2763 C 0.89286 0.67973 0.93465 0.0
C2764 C 0.87871 0.66777 0.93127 0.0
C2765 C 0.90294 0.67828 0.94719 0.0
C2766 C 0.89908 0.66486 0.95668 0.0
C2767 C 0.88465 0.65319 0.95445 0.0
C2768 C 0.87454 0.65466 0.94195 0.0
C2769 C 0.9105 0.66252 0.96681 0.0
C2770 C 0.92293 0.66547 0.95515 0.0
C2771 C 0.90864 0.6562 0.98683 0.0
C2772 C 0.89627 0.6537 0.00048 0.0
C2773 C 0.88725 0.63986 0.00929 0.0
C2774 C 0.87556 0.6375 0.02207 0.0
C2775 C 0.87282 0.64892 0.02622 0.0
C2776 C 0.88178 0.66274 0.01766 0.0
C2777 C 0.89349 0.66516 0.00489 0.0
H2778 H 0.86376 0.64707 0.03611 0.0
H2779 H 0.97743 0.67058 0.91217 0.0
H2780 H 0.38521 0.32402 0.00508 0.0
H2781 H 0.37882 0.29914 0.99535 0.0
H2782 H 0.33431 0.2885 0.98332 0.0
H2783 H 0.34058 0.31342 0.99366 0.0
H2784 H 0.33486 0.26553 0.00072 0.0
H2785 H 0.35858 0.29749 0.94336 0.0
H2786 H 0.37794 0.31922 0.9256 0.0
H2787 H 0.40923 0.30593 0.94088 0.0
H2788 H 0.39009 0.28421 0.959 0.0
H2789 H 0.31821 0.20702 0.9277 0.0
H2790 H 0.32172 0.22826 0.94795 0.0
H2791 H 0.36596 0.23904 0.96241 0.0
H2792 H 0.36265 0.21806 0.94175 0.0
H2793 H 0.36497 0.26155 0.94456 0.0
H2794 H 0.33988 0.22828 0.00052 0.0
H2795 H 0.31968 0.20637 0.01676 0.0
H2796 H 0.28992 0.22171 0.00209 0.0
H2797 H 0.3099 0.24363 0.98548 0.0
C2798 C 0.37401 0.31637 0.00056 0.0
C2799 C 0.36344 0.32076 -8e-05 0.0
C2800 C 0.37038 0.30213 0.99494 0.0
C2801 C 0.35615 0.29201 0.98815 0.0
C2802 C 0.34538 0.29613 0.98841 0.0
C2803 C 0.34898 0.31039 0.99427 0.0
C2804 C 0.35286 0.27747 0.97974 0.0
C2805 C 0.34134 0.26464 0.98829 0.0
C2806 C 0.3614 0.27627 0.96366 0.0
C2807 C 0.37293 0.2893 0.95271 0.0
C2808 C 0.36961 0.29926 0.94307 0.0
C2809 C 0.38055 0.31156 0.93292 0.0
C2810 C 0.39482 0.31397 0.93216 0.0
C2811 C 0.39818 0.30406 0.94151 0.0
C2812 C 0.38729 0.29174 0.95171 0.0
C2813 C 0.32857 0.21371 0.93563 0.0
C2814 C 0.34017 0.21086 0.93302 0.0
C2815 C 0.33054 0.22582 0.94728 0.0
C2816 C 0.34412 0.23529 0.95668 0.0
C2817 C 0.35539 0.2319 0.95528 0.0
C2818 C 0.35343 0.21979 0.94364 0.0
C2819 C 0.34714 0.24955 0.96577 0.0
C2820 C 0.35856 0.26238 0.95714 0.0
C2821 C 0.33839 0.25069 0.98154 0.0
C2822 C 0.32637 0.23754 0.99159 0.0
C2823 C 0.329 0.22693 0.0006 0.0
C2824 C 0.3176 0.21452 0.0099 0.0
C2825 C 0.30352 0.21263 0.01041 0.0
C2826 C 0.30082 0.22317 0.00166 0.0
C2827 C 0.31219 0.23561 0.99233 0.0
H2828 H 0.2947 0.20301 0.01762 0.0
H2829 H 0.40326 0.32351 0.92429 0.0
H2830 H 0.69503 0.03256 0.00216 0.0
H2831 H 0.71996 0.05091 0.99206 0.0
H2832 H 0.70609 0.08272 0.98377 0.0
H2833 H 0.68124 0.0645 0.99364 0.0
H2834 H 0.72191 0.08266 0.95114 0.0
H2835 H 0.72678 0.08408 0.02606 0.0
H2836 H 0.72521 0.07362 0.06095 0.0
H2837 H 0.75493 0.05912 0.04212 0.0
H2838 H 0.75653 0.06932 0.00701 0.0
H2839 H 0.78875 0.14483 0.93389 0.0
H2840 H 0.76694 0.12879 0.95423 0.0
H2841 H 0.78221 0.09793 0.96091 0.0
H2842 H 0.80424 0.11424 0.94108 0.0
H2843 H 0.76608 0.09719 0.9948 0.0
H2844 H 0.76181 0.09622 0.92026 0.0
H2845 H 0.7641 0.10728 0.88567 0.0
H2846 H 0.73285 0.12011 0.90299 0.0
H2847 H 0.73079 0.10966 0.93802 0.0
C2848 C 0.69731 0.04349 0.99831 0.0
C2849 C 0.68611 0.04704 0.99872 0.0
C2850 C 0.71159 0.05399 0.99261 0.0
C2851 C 0.71496 0.06826 0.98725 0.0
C2852 C 0.7038 0.07181 0.9878 0.0
C2853 C 0.68957 0.06136 0.99352 0.0
C2854 C 0.72994 0.07941 0.98041 0.0
C2855 C 0.73153 0.08597 0.96083 0.0
C2856 C 0.74259 0.08345 0.99275 0.0
C2857 C 0.74165 0.07733 0.01385 0.0
C2858 C 0.73289 0.07855 0.02931 0.0
C2859 C 0.73201 0.07269 0.04913 0.0
C2860 C 0.73993 0.06567 0.05373 0.0
C2861 C 0.74878 0.06454 0.03853 0.0
C2862 C 0.74969 0.07037 0.01867 0.0
C2863 C 0.78777 0.13497 0.94063 0.0
C2864 C 0.7982 0.13081 0.93618 0.0
C2865 C 0.77524 0.12572 0.95202 0.0
C2866 C 0.77276 0.11198 0.95865 0.0
C2867 C 0.78385 0.10845 0.95591 0.0
C2868 C 0.79648 0.1178 0.94471 0.0
C2869 C 0.75796 0.10061 0.96575 0.0
C2870 C 0.75643 0.09392 0.9852 0.0
C2871 C 0.74533 0.09634 0.95322 0.0
C2872 C 0.74626 0.10228 0.9319 0.0
C2873 C 0.75551 0.10151 0.91679 0.0
C2874 C 0.7568 0.1077 0.89711 0.0
C2875 C 0.74862 0.11437 0.89213 0.0
C2876 C 0.73918 0.11493 0.90687 0.0
C2877 C 0.73799 0.10893 0.92668 0.0
H2878 H 0.7496 0.1191 0.87685 0.0
H2879 H 0.73924 0.06115 0.06909 0.0
H2880 H 0.61962 0.94134 0.03315 0.0
H2881 H 0.62563 0.92271 0.04335 0.0
H2882 H 0.67145 0.95327 0.03396 0.0
H2883 H 0.6655 0.97211 0.0236 0.0
H2884 H 0.66266 0.92448 0.01945 0.0
H2885 H 0.65933 0.94815 0.08162 0.0
H2886 H 0.64785 0.95762 0.10583 0.0
H2887 H 0.6111 0.9143 0.11291 0.0
H2888 H 0.62227 0.9046 0.08849 0.0
H2889 H 0.68888 0.88639 0.08372 0.0
H2890 H 0.68358 0.903 0.06385 0.0
H2891 H 0.63812 0.87761 0.08118 0.0
H2892 H 0.64359 0.86138 0.10169 0.0
H2893 H 0.64771 0.90455 0.09076 0.0
H2894 H 0.65117 0.88056 0.02895 0.0
H2895 H 0.66265 0.87113 0.0047 0.0
H2896 H 0.69903 0.91458 0.99684 0.0
H2897 H 0.68785 0.92425 0.02127 0.0
C2898 C 0.63098 0.94412 0.03306 0.0
C2899 C 0.64209 0.95829 0.02771 0.0
C2900 C 0.6344 0.93343 0.03892 0.0
C2901 C 0.649 0.93663 0.03965 0.0
C2902 C 0.66011 0.95057 0.03352 0.0
C2903 C 0.6567 0.96134 0.02768 0.0
C2904 C 0.65256 0.92562 0.04798 0.0
C2905 C 0.65956 0.92021 0.03512 0.0
C2906 C 0.64829 0.91988 0.06829 0.0
C2907 C 0.64157 0.92567 0.08307 0.0
C2908 C 0.64874 0.94066 0.08821 0.0
C2909 C 0.6423 0.94607 0.10199 0.0
C2910 C 0.62874 0.93657 0.11086 0.0
C2911 C 0.6216 0.92164 0.10601 0.0
C2912 C 0.62799 0.91618 0.09221 0.0
C2913 C 0.67767 0.88406 0.08258 0.0
C2914 C 0.6666 0.87254 0.09403 0.0
C2915 C 0.67463 0.89359 0.07127 0.0
C2916 C 0.66042 0.89161 0.07094 0.0
C2917 C 0.64918 0.87944 0.08122 0.0
C2918 C 0.65226 0.87007 0.09277 0.0
C2919 C 0.65754 0.90302 0.06211 0.0
C2920 C 0.65076 0.90866 0.07501 0.0
C2921 C 0.66201 0.9089 0.04184 0.0
C2922 C 0.66873 0.90311 0.0271 0.0
C2923 C 0.66167 0.88809 0.02218 0.0
C2924 C 0.66812 0.8827 0.00838 0.0
C2925 C 0.68158 0.89224 -0.00072 0.0
C2926 C 0.68861 0.9072 0.00392 0.0
C2927 C 0.68221 0.91264 0.01773 0.0
H2928 H 0.68655 0.88805 0.98859 0.0
H2929 H 0.62377 0.94078 0.12153 0.0
H2930 H 0.0639 0.67625 0.02373 0.0
H2931 H 0.08262 0.70104 0.03349 0.0
H2932 H 0.0494 0.71311 0.04113 0.0
H2933 H 0.03053 0.68825 0.03089 0.0
H2934 H 0.07383 0.7353 0.02368 0.0
H2935 H 0.06302 0.70444 0.08325 0.0
H2936 H 0.05949 0.68289 0.10295 0.0
H2937 H 0.10415 0.69469 0.09167 0.0
H2938 H 0.10788 0.71622 0.07164 0.0
H2939 H 0.11346 0.79453 0.09633 0.0
H2940 H 0.09652 0.77323 0.0754 0.0
H2941 H 0.13008 0.76172 0.0671 0.0
H2942 H 0.14697 0.78285 0.08835 0.0
H2943 H 0.1057 0.7396 0.08355 0.0
H2944 H 0.11661 0.77195 0.02565 0.0
H2945 H 0.11953 0.79374 0.00728 0.0
H2946 H 0.07415 0.77962 0.01706 0.0
H2947 H 0.07099 0.75783 0.03575 0.0
C2948 C 0.06055 0.68418 0.02731 0.0
C2949 C 0.04568 0.68021 0.02673 0.0
C2950 C 0.07128 0.69838 0.03294 0.0
C2951 C 0.06742 0.7089 0.03843 0.0
C2952 C 0.05265 0.70517 0.03703 0.0
C2953 C 0.04187 0.69095 0.03124 0.0
C2954 C 0.07874 0.72349 0.04663 0.0
C2955 C 0.08071 0.73627 0.0369 0.0
C2956 C 0.08788 0.72478 0.0637 0.0
C2957 C 0.08568 0.71185 0.07576 0.0
C2958 C 0.07205 0.70238 0.08483 0.0
C2959 C 0.07002 0.69018 0.09608 0.0
C2960 C 0.08158 0.6874 0.09851 0.0
C2961 C 0.0952 0.69684 0.08974 0.0
C2962 C 0.09728 0.70905 0.07845 0.0
C2963 C 0.11735 0.78768 0.08953 0.0
C2964 C 0.13154 0.79035 0.09406 0.0
C2965 C 0.10766 0.77552 0.07751 0.0
C2966 C 0.11199 0.76581 0.0697 0.0
C2967 C 0.12648 0.76904 0.07298 0.0
C2968 C 0.13619 0.78122 0.08495 0.0
C2969 C 0.10098 0.75147 0.06047 0.0
C2970 C 0.09896 0.73869 0.07017 0.0
C2971 C 0.09174 0.75024 0.04356 0.0
C2972 C 0.0936 0.76331 0.03227 0.0
C2973 C 0.10728 0.77355 0.02404 0.0
C2974 C 0.10897 0.78589 0.01354 0.0
C2975 C 0.09705 0.78808 0.01105 0.0
C2976 C 0.08339 0.77791 0.01902 0.0
C2977 C 0.08163 0.76556 0.02954 0.0
H2978 H 0.09838 0.79764 0.00291 0.0
H2979 H 0.07998 0.67795 0.10723 0.0
H2980 H 0.31316 0.34194 0.02311 0.0
H2981 H 0.28808 0.33492 0.03313 0.0
H2982 H 0.30015 0.38045 0.03614 0.0
H2983 H 0.32514 0.38753 0.02639 0.0
H2984 H 0.28565 0.36611 0.07054 0.0
H2985 H 0.2789 0.35773 0.99592 0.0
H2986 H 0.28006 0.34667 0.96252 0.0
H2987 H 0.25225 0.30371 0.98717 0.0
H2988 H 0.25107 0.31452 0.02083 0.0
H2989 H 0.21818 0.35943 0.08955 0.0
H2990 H 0.23979 0.36507 0.06872 0.0
H2991 H 0.22567 0.31903 0.06478 0.0
H2992 H 0.20379 0.31341 0.08498 0.0
H2993 H 0.24078 0.33281 0.03027 0.0
H2994 H 0.24775 0.33956 0.10403 0.0
H2995 H 0.24605 0.34908 0.1385 0.0
H2996 H 0.27353 0.39312 0.11731 0.0
H2997 H 0.27518 0.38385 0.08258 0.0
C2998 C 0.31043 0.35045 0.02572 0.0
C2999 C 0.32119 0.3653 0.02397 0.0
C3000 C 0.29607 0.34642 0.03138 0.0
C3001 C 0.29218 0.35716 0.0353 0.0
C3002 C 0.30286 0.37196 0.03324 0.0
C3003 C 0.31717 0.37599 0.0276 0.0
C3004 C 0.27722 0.35313 0.04251 0.0
C3005 C 0.27588 0.35901 0.06154 0.0
C3006 C 0.26437 0.34342 0.03122 0.0
C3007 C 0.26501 0.33693 0.01095 0.0
C3008 C 0.27312 0.34592 0.99427 0.0
C3009 C 0.27377 0.3397 0.97528 0.0
C3010 C 0.26627 0.3245 0.97274 0.0
C3011 C 0.25807 0.31548 0.98917 0.0
C3012 C 0.25739 0.32165 0.00819 0.0
C3013 C 0.21938 0.35052 0.08335 0.0
C3014 C 0.2093 0.336 0.08859 0.0
C3015 C 0.2318 0.35372 0.07168 0.0
C3016 C 0.23456 0.34249 0.06562 0.0
C3017 C 0.22382 0.32788 0.0693 0.0
C3018 C 0.21128 0.32466 0.08074 0.0
C3019 C 0.2493 0.34608 0.058 0.0
C3020 C 0.25059 0.34001 0.03913 0.0
C3021 C 0.26214 0.3554 0.06961 0.0
C3022 C 0.26148 0.36101 0.09064 0.0
C3023 C 0.25337 0.35127 0.10669 0.0
C3024 C 0.25242 0.35662 0.12627 0.0
C3025 C 0.25965 0.3717 0.13007 0.0
C3026 C 0.26792 0.38145 0.11433 0.0
C3027 C 0.26887 0.37615 0.09469 0.0
H3028 H 0.25889 0.37582 0.14524 0.0
H3029 H 0.26679 0.3197 0.95803 0.0
H3030 H 0.69517 0.67269 0.36799 0.0
H3031 H 0.71226 0.66472 0.37948 0.0
H3032 H 0.74869 0.70702 0.36394 0.0
H3033 H 0.73171 0.71509 0.35256 0.0
H3034 H 0.75326 0.68402 0.35231 0.0
H3035 H 0.73838 0.70052 0.41252 0.0
H3036 H 0.72091 0.70128 0.43723 0.0
H3037 H 0.70416 0.65596 0.45169 0.0
H3038 H 0.72138 0.65486 0.42679 0.0
H3039 H 0.80931 0.68481 0.41786 0.0
H3040 H 0.79211 0.68939 0.39776 0.0
H3041 H 0.75619 0.64845 0.41923 0.0
H3042 H 0.77334 0.64404 0.4394 0.0
H3043 H 0.75098 0.66998 0.42657 0.0
H3044 H 0.76676 0.65369 0.36762 0.0
H3045 H 0.78453 0.65308 0.34334 0.0
H3046 H 0.79991 0.69786 0.32689 0.0
H3047 H 0.78237 0.6988 0.3513 0.0
C3048 C 0.70681 0.68023 0.36678 0.0
C3049 C 0.71207 0.69455 0.35947 0.0
C3050 C 0.71657 0.67568 0.37341 0.0
C3051 C 0.73176 0.68532 0.37273 0.0
C3052 C 0.73703 0.6994 0.3646 0.0
C3053 C 0.72729 0.704 0.35818 0.0
C3054 C 0.74214 0.68105 0.38155 0.0
C3055 C 0.75286 0.68105 0.36859 0.0
C3056 C 0.74147 0.67695 0.4027 0.0
C3057 C 0.73103 0.67756 0.41756 0.0
C3058 C 0.73086 0.69067 0.42079 0.0
C3059 C 0.72102 0.69117 0.43487 0.0
C3060 C 0.71139 0.67866 0.44597 0.0
C3061 C 0.7116 0.66563 0.44304 0.0
C3062 C 0.72139 0.66506 0.42894 0.0
C3063 C 0.7978 0.67662 0.41763 0.0
C3064 C 0.79261 0.66398 0.42981 0.0
C3065 C 0.78796 0.67923 0.40623 0.0
C3066 C 0.77282 0.66924 0.40691 0.0
C3067 C 0.76779 0.65631 0.41842 0.0
C3068 C 0.77758 0.65373 0.42977 0.0
C3069 C 0.7621 0.67281 0.39734 0.0
C3070 C 0.75135 0.67278 0.41023 0.0
C3071 C 0.76277 0.67687 0.37616 0.0
C3072 C 0.77334 0.67635 0.36146 0.0
C3073 C 0.77402 0.66345 0.35897 0.0
C3074 C 0.78403 0.66304 0.34515 0.0
C3075 C 0.79337 0.67544 0.33362 0.0
C3076 C 0.79268 0.68826 0.33585 0.0
C3077 C 0.7827 0.68874 0.34966 0.0
H3078 H 0.80111 0.67509 0.32292 0.0
H3079 H 0.7038 0.67908 0.45688 0.0
H3080 H 0.28582 0.01458 0.36142 0.0
H3081 H 0.29251 0.03961 0.37058 0.0
H3082 H 0.33823 0.05285 0.36556 0.0
H3083 H 0.33158 0.0276 0.35675 0.0
H3084 H 0.33372 0.06385 0.4 0.0
H3085 H 0.32064 0.06277 0.32846 0.0
H3086 H 0.3053 0.0532 0.29681 0.0
H3087 H 0.27123 0.05757 0.32646 0.0
H3088 H 0.28629 0.06699 0.35841 0.0
H3089 H 0.35539 0.13816 0.41531 0.0
H3090 H 0.35087 0.11696 0.39384 0.0
H3091 H 0.30496 0.09589 0.40865 0.0
H3092 H 0.30952 0.11695 0.43044 0.0
H3093 H 0.31161 0.0905 0.36606 0.0
H3094 H 0.32367 0.08868 0.43855 0.0
H3095 H 0.33909 0.0988 0.47003 0.0
H3096 H 0.37532 0.10004 0.43784 0.0
H3097 H 0.36017 0.0902 0.406 0.0
C3098 C 0.29732 0.02281 0.36208 0.0
C3099 C 0.30817 0.01906 0.3583 0.0
C3100 C 0.30113 0.03719 0.36722 0.0
C3101 C 0.31588 0.04823 0.36849 0.0
C3102 C 0.32677 0.04455 0.3646 0.0
C3103 C 0.32295 0.03012 0.35951 0.0
C3104 C 0.31985 0.06341 0.37488 0.0
C3105 C 0.32912 0.06977 0.39224 0.0
C3106 C 0.31365 0.07111 0.3651 0.0
C3107 C 0.30456 0.06548 0.3459 0.0
C3108 C 0.30983 0.06159 0.32829 0.0
C3109 C 0.30119 0.05621 0.31029 0.0
C3110 C 0.28729 0.05475 0.30964 0.0
C3111 C 0.282 0.0587 0.32699 0.0
C3112 C 0.2906 0.06408 0.34504 0.0
C3113 C 0.34425 0.12927 0.41324 0.0
C3114 C 0.33277 0.1292 0.42436 0.0
C3115 C 0.3417 0.11712 0.40112 0.0
C3116 C 0.3276 0.10481 0.39981 0.0
C3117 C 0.3159 0.1053 0.40939 0.0
C3118 C 0.3185 0.11733 0.42176 0.0
C3119 C 0.32536 0.09076 0.39108 0.0
C3120 C 0.31638 0.08462 0.37346 0.0
C3121 C 0.33181 0.08324 0.40058 0.0
C3122 C 0.34085 0.08888 0.41982 0.0
C3123 C 0.33496 0.09123 0.43812 0.0
C3124 C 0.34364 0.0969 0.45604 0.0
C3125 C 0.35819 0.1001 0.45592 0.0
C3126 C 0.36406 0.09759 0.4379 0.0
C3127 C 0.35543 0.09197 0.41991 0.0
H3128 H 0.36489 0.10448 0.4698 0.0
H3129 H 0.28062 0.05058 0.29568 0.0
H3130 H 0.9841 0.31187 0.36097 0.0
H3131 H 0.95872 0.2943 0.37017 0.0
H3132 H 0.96823 0.25906 0.36622 0.0
H3133 H 0.99347 0.27647 0.35682 0.0
H3134 H 0.9416 0.2508 0.34962 0.0
H3135 H 0.9679 0.27425 0.41312 0.0
H3136 H 0.98295 0.29522 0.43638 0.0
H3137 H 0.95016 0.30797 0.43434 0.0
H3138 H 0.93499 0.28716 0.41083 0.0
H3139 H 0.88948 0.19691 0.41796 0.0
H3140 H 0.90986 0.21462 0.39683 0.0
H3141 H 0.89607 0.24638 0.40692 0.0
H3142 H 0.87577 0.22872 0.42831 0.0
H3143 H 0.92351 0.25757 0.41772 0.0
H3144 H 0.89572 0.23211 0.35747 0.0
H3145 H 0.88061 0.21077 0.33485 0.0
H3146 H 0.91576 0.20145 0.33097 0.0
H3147 H 0.93102 0.22262 0.35381 0.0
C3148 C 0.98075 0.30036 0.36187 0.0
C3149 C 0.99086 0.29561 0.3583 0.0
C3150 C 0.96624 0.29033 0.36719 0.0
C3151 C 0.96158 0.27535 0.36913 0.0
C3152 C 0.97154 0.27054 0.36483 0.0
C3153 C 0.98601 0.28054 0.35954 0.0
C3154 C 0.94661 0.26474 0.37665 0.0
C3155 C 0.93765 0.25222 0.36456 0.0
C3156 C 0.94129 0.26674 0.39591 0.0
C3157 C 0.9504 0.27926 0.41002 0.0
C3158 C 0.96396 0.2816 0.41749 0.0
C3159 C 0.9725 0.29344 0.43074 0.0
C3160 C 0.96754 0.30295 0.43678 0.0
C3161 C 0.954 0.30061 0.42961 0.0
C3162 C 0.94543 0.28879 0.41633 0.0
C3163 C 0.89045 0.20747 0.415 0.0
C3164 C 0.88102 0.21142 0.42481 0.0
C3165 C 0.90217 0.21764 0.40295 0.0
C3166 C 0.90458 0.23191 0.40027 0.0
C3167 C 0.89452 0.2355 0.40883 0.0
C3168 C 0.88287 0.22537 0.42095 0.0
C3169 C 0.91843 0.2435 0.39078 0.0
C3170 C 0.92727 0.25621 0.40259 0.0
C3171 C 0.92361 0.24163 0.37129 0.0
C3172 C 0.91448 0.2289 0.3575 0.0
C3173 C 0.90019 0.22545 0.35193 0.0
C3174 C 0.89161 0.21339 0.33904 0.0
C3175 C 0.89721 0.20474 0.33151 0.0
C3176 C 0.91143 0.20815 0.33682 0.0
C3177 C 0.92006 0.22019 0.34972 0.0
H3178 H 0.89054 0.19541 0.32153 0.0
H3179 H 0.97416 0.31211 0.44705 0.0
H3180 H 0.05351 0.39901 0.34484 0.0
H3181 H 0.04543 0.41642 0.3364 0.0
H3182 H 1.00154 0.38071 0.32602 0.0
H3183 H 0.00958 0.36315 0.33447 0.0
H3184 H 0.01125 0.4 0.29373 0.0
H3185 H 0.00917 0.40304 0.36803 0.0
H3186 H 0.01835 0.40618 0.4042 0.0
H3187 H 0.05296 0.44953 0.39001 0.0
H3188 H 0.04411 0.44658 0.35366 0.0
H3189 H 0.98297 0.44532 0.27107 0.0
H3190 H 0.98642 0.42848 0.29331 0.0
H3191 H 0.03197 0.46084 0.30127 0.0
H3192 H 0.02857 0.47775 0.27895 0.0
H3193 H 0.01945 0.44256 0.33719 0.0
H3194 H 0.02603 0.43771 0.26351 0.0
H3195 H 0.01914 0.43572 0.22635 0.0
H3196 H 0.97792 0.39731 0.23921 0.0
H3197 H 0.98477 0.39892 0.27644 0.0
C3198 C 0.04209 0.39483 0.341 0.0
C3199 C 0.0322 0.37966 0.34028 0.0
C3200 C 0.03747 0.40483 0.3363 0.0
C3201 C 0.02284 0.3999 0.33074 0.0
C3202 C 0.01287 0.38477 0.33035 0.0
C3203 C 0.01747 0.37475 0.33522 0.0
C3204 C 0.0183 0.41052 0.3238 0.0
C3205 C 0.01272 0.40908 0.30348 0.0
C3206 C 0.02069 0.42271 0.33619 0.0
C3207 C 0.02604 0.42453 0.35806 0.0
C3208 C 0.01881 0.4132 0.37257 0.0
C3209 C 0.02394 0.41495 0.39312 0.0
C3210 C 0.03625 0.42803 0.39939 0.0
C3211 C 0.04343 0.4394 0.38513 0.0
C3212 C 0.03835 0.4377 0.36455 0.0
C3213 C 0.99359 0.44905 0.2782 0.0
C3214 C 0.00552 0.46282 0.27315 0.0
C3215 C 0.99556 0.43939 0.29083 0.0
C3216 C 0.00951 0.44331 0.29862 0.0
C3217 C 0.02111 0.45759 0.29541 0.0
C3218 C 0.01914 0.46729 0.28274 0.0
C3219 C 0.01237 0.4319 0.30729 0.0
C3220 C 0.01772 0.43327 0.32773 0.0
C3221 C 0.00999 0.41972 0.29501 0.0
C3222 C 0.00584 0.41851 0.27269 0.0
C3223 C 0.01548 0.42887 0.25838 0.0
C3224 C 0.01159 0.42781 0.23732 0.0
C3225 C 0.99803 0.4165 0.23043 0.0
C3226 C 0.98841 0.4061 0.24456 0.0
C3227 C 0.99232 0.40702 0.26563 0.0
H3228 H 0.99503 0.41578 0.21413 0.0
H3229 H 0.0402 0.42937 0.41531 0.0
H3230 H 0.64654 0.64993 0.32555 0.0
H3231 H 0.62931 0.6251 0.31313 0.0
H3232 H 0.59309 0.63109 0.32988 0.0
H3233 H 0.61021 0.65592 0.34218 0.0
H3234 H 0.58842 0.60323 0.34031 0.0
H3235 H 0.6033 0.63545 0.28127 0.0
H3236 H 0.62084 0.65396 0.25705 0.0
H3237 H 0.63734 0.62538 0.2407 0.0
H3238 H 0.62005 0.60678 0.2651 0.0
H3239 H 0.53226 0.54806 0.27435 0.0
H3240 H 0.54938 0.56981 0.29476 0.0
H3241 H 0.58556 0.56586 0.27129 0.0
H3242 H 0.5685 0.54438 0.25077 0.0
H3243 H 0.59045 0.59242 0.26538 0.0
H3244 H 0.57514 0.5597 0.32326 0.0
H3245 H 0.55758 0.54099 0.34724 0.0
H3246 H 0.54193 0.56991 0.36563 0.0
H3247 H 0.55927 0.58873 0.34154 0.0
C3248 C 0.63491 0.6459 0.32681 0.0
C3249 C 0.62975 0.65494 0.33474 0.0
C3250 C 0.62507 0.63173 0.31965 0.0
C3251 C 0.6099 0.62628 0.32042 0.0
C3252 C 0.60473 0.63505 0.32913 0.0
C3253 C 0.61455 0.64927 0.33608 0.0
C3254 C 0.59944 0.61175 0.31115 0.0
C3255 C 0.58877 0.60088 0.32389 0.0
C3256 C 0.60005 0.6086 0.28981 0.0
C3257 C 0.61052 0.6198 0.27523 0.0
C3258 C 0.61078 0.63317 0.27268 0.0
C3259 C 0.62065 0.64367 0.25888 0.0
C3260 C 0.63023 0.64087 0.2474 0.0
C3261 C 0.62994 0.62755 0.24965 0.0
C3262 C 0.6201 0.61703 0.26346 0.0
C3263 C 0.54382 0.55162 0.27416 0.0
C3264 C 0.5491 0.5445 0.2613 0.0
C3265 C 0.55362 0.56405 0.28574 0.0
C3266 C 0.5688 0.56949 0.28463 0.0
C3267 C 0.57394 0.56192 0.27243 0.0
C3268 C 0.56419 0.54958 0.26086 0.0
C3269 C 0.57945 0.58373 0.29455 0.0
C3270 C 0.59014 0.59465 0.28186 0.0
C3271 C 0.57886 0.58686 0.31593 0.0
C3272 C 0.56841 0.57557 0.33043 0.0
C3273 C 0.56787 0.56202 0.33228 0.0
C3274 C 0.55797 0.55141 0.34592 0.0
C3275 C 0.54861 0.55424 0.35791 0.0
C3276 C 0.54917 0.56772 0.35632 0.0
C3277 C 0.55904 0.57837 0.34268 0.0
H3278 H 0.54096 0.54601 0.36847 0.0
H3279 H 0.63786 0.64901 0.23671 0.0
H3280 H 0.35974 1.00085 0.33083 0.0
H3281 H 0.38489 0.00846 0.32042 0.0
H3282 H 0.37587 0.96403 0.3269 0.0
H3283 H 0.35085 0.95639 0.33738 0.0
H3284 H 0.40277 0.98331 0.34231 0.0
H3285 H 0.37487 0.97759 0.27972 0.0
H3286 H 0.35931 0.98227 0.25586 0.0
H3287 H 0.3922 0.02773 0.25319 0.0
H3288 H 0.40788 0.02335 0.27732 0.0
H3289 H 0.45433 0.97998 0.27387 0.0
H3290 H 0.43392 0.97752 0.29486 0.0
H3291 H 0.447 0.02263 0.28286 0.0
H3292 H 0.46741 0.02511 0.2618 0.0
H3293 H 0.41932 0.00541 0.27245 0.0
H3294 H 0.44835 0.01066 0.33252 0.0
H3295 H 0.46411 0.00565 0.35548 0.0
H3296 H 0.42958 0.96114 0.36236 0.0
H3297 H 0.41367 0.96582 0.33918 0.0
C3298 C 0.36316 0.99274 0.33023 0.0
C3299 C 0.35324 0.97799 0.33483 0.0
C3300 C 0.37752 0.99709 0.32421 0.0
C3301 C 0.38224 0.98679 0.32267 0.0
C3302 C 0.3725 0.97218 0.32797 0.0
C3303 C 0.35816 0.96782 0.33389 0.0
C3304 C 0.39707 0.99099 0.31471 0.0
C3305 C 0.40638 0.98808 0.32699 0.0
C3306 C 0.40194 0.99752 0.29491 0.0
C3307 C 0.39245 1.00018 0.28058 0.0
C3308 C 0.37872 0.98861 0.27424 0.0
C3309 C 0.36989 0.9912 0.26063 0.0
C3310 C 0.37474 0.0053 0.25308 0.0
C3311 C 0.38844 0.01682 0.2591 0.0
C3312 C 0.3973 0.0143 0.27275 0.0
C3313 C 0.4532 0.98953 0.27637 0.0
C3314 C 0.46247 1.00274 0.26615 0.0
C3315 C 0.44146 0.98809 0.28831 0.0
C3316 C 0.43886 0.99988 0.29043 0.0
C3317 C 0.44872 0.01336 0.28139 0.0
C3318 C 0.46042 0.01479 0.26943 0.0
C3319 C 0.42506 0.9977 0.30001 0.0
C3320 C 0.41588 1.00089 0.28794 0.0
C3321 C 0.42034 0.99143 0.31998 0.0
C3322 C 0.42985 0.98857 0.33397 0.0
C3323 C 0.44415 0.99977 0.33879 0.0
C3324 C 0.4531 0.99699 0.35187 0.0
C3325 C 0.44786 0.98307 0.36034 0.0
C3326 C 0.43363 0.97191 0.35578 0.0
C3327 C 0.42464 0.97462 0.34269 0.0
H3328 H 0.45481 0.98095 0.37047 0.0
H3329 H 0.36789 0.00728 0.24252 0.0
H3330 H 0.64137 0.99657 0.34237 0.0
H3331 H 0.62364 0.00417 0.33234 0.0
H3332 H 0.59351 0.96021 0.31146 0.0
H3333 H 0.61093 0.95249 0.32172 0.0
H3334 H 0.59868 0.98252 0.2819 0.0
H3335 H 0.58603 0.97033 0.35438 0.0
H3336 H 0.5911 0.97222 0.3922 0.0
H3337 H 0.60451 0.01794 0.39108 0.0
H3338 H 0.59972 0.01636 0.35316 0.0
H3339 H 0.52944 0.98263 0.27971 0.0
H3340 H 0.54671 0.97945 0.30147 0.0
H3341 H 0.58223 0.01986 0.27826 0.0
H3342 H 0.565 0.0236 0.25729 0.0
H3343 H 0.57432 0.99997 0.33111 0.0
H3344 H 0.60218 0.0052 0.25367 0.0
H3345 H 0.59667 0.00342 0.21592 0.0
H3346 H 0.55202 0.97081 0.22766 0.0
H3347 H 0.5574 0.97207 0.26534 0.0
C3348 C 0.63092 0.98852 0.33578 0.0
C3349 C 0.62756 0.97392 0.33286 0.0
C3350 C 0.62081 0.99286 0.3301 0.0
C3351 C 0.60726 0.98274 0.32116 0.0
C3352 C 0.60389 0.96819 0.31831 0.0
C3353 C 0.61386 0.9638 0.32427 0.0
C3354 C 0.59671 0.98728 0.31408 0.0
C3355 C 0.59341 0.98636 0.2927 0.0
C3356 C 0.5898 0.9923 0.32812 0.0
C3357 C 0.59268 0.99326 0.3509 0.0
C3358 C 0.5902 0.98082 0.36216 0.0
C3359 C 0.59299 0.98183 0.38362 0.0
C3360 C 0.59817 0.9952 0.39403 0.0
C3361 C 0.60053 0.00759 0.38299 0.0
C3362 C 0.59776 0.00664 0.36152 0.0
C3363 C 0.54079 0.99124 0.27999 0.0
C3364 C 0.54584 0.00325 0.2664 0.0
C3365 C 0.55067 0.98936 0.29243 0.0
C3366 C 0.56574 0.99933 0.29124 0.0
C3367 C 0.57064 0.01203 0.27932 0.0
C3368 C 0.56076 0.01406 0.26722 0.0
C3369 C 0.57639 0.99518 0.29904 0.0
C3370 C 0.57972 0.99622 0.32041 0.0
C3371 C 0.58333 0.9902 0.28504 0.0
C3372 C 0.58015 0.98888 0.26232 0.0
C3373 C 0.59122 0.99759 0.24815 0.0
C3374 C 0.58812 0.99665 0.22677 0.0
C3375 C 0.57398 0.98706 0.21941 0.0
C3376 C 0.56295 0.97828 0.23339 0.0
C3377 C 0.56602 0.97909 0.25475 0.0
H3378 H 0.57158 0.98636 0.20287 0.0
H3379 H 0.60032 0.99596 0.41065 0.0
H3380 H 0.01018 0.64913 0.31889 0.0
H3381 H 0.00446 0.62444 0.30857 0.0
H3382 H 0.04235 0.63017 0.34271 0.0
H3383 H 0.04851 0.6551 0.35193 0.0
H3384 H 0.0429 0.61982 0.30831 0.0
H3385 H 0.00454 0.60548 0.35768 0.0
H3386 H 0.98331 0.60495 0.37457 0.0
H3387 H 0.95828 0.58847 0.31798 0.0
H3388 H 0.97941 0.58907 0.30066 0.0
H3389 H 1.00034 0.53489 0.28763 0.0
H3390 H 0.00466 0.55584 0.31001 0.0
H3391 H 0.02132 0.58447 0.2569 0.0
H3392 H 0.01737 0.56393 0.23494 0.0
H3393 H 0.99376 0.57528 0.30732 0.0
H3394 H 0.05001 0.61619 0.27098 0.0
H3395 H 0.07149 0.61586 0.25657 0.0
H3396 H 0.06147 0.57795 0.29305 0.0
H3397 H 0.04007 0.57818 0.30792 0.0
C3398 C 0.01715 0.64501 0.32441 0.0
C3399 C 0.02982 0.65406 0.33612 0.0
C3400 C 0.01383 0.63083 0.31862 0.0
C3401 C 0.02288 0.62525 0.32498 0.0
C3402 C 0.03521 0.63415 0.33745 0.0
C3403 C 0.03871 0.64841 0.34278 0.0
C3404 C 0.02031 0.61076 0.3172 0.0
C3405 C 0.03215 0.6101 0.30835 0.0
C3406 C 0.00637 0.59786 0.31746 0.0
C3407 C 0.99361 0.59742 0.32784 0.0
C3408 C 0.99454 0.60183 0.3488 0.0
C3409 C 0.98251 0.6015 0.35846 0.0
C3410 C 0.96947 0.5967 0.34735 0.0
C3411 C 0.9684 0.59219 0.32657 0.0
C3412 C 0.98039 0.5925 0.31683 0.0
C3413 C 0.00502 0.5457 0.28089 0.0
C3414 C 0.00839 0.54776 0.25953 0.0
C3415 C 0.00738 0.55761 0.2936 0.0
C3416 C 0.01337 0.57174 0.28514 0.0
C3417 C 0.01681 0.57373 0.26385 0.0
C3418 C 0.01444 0.56194 0.25127 0.0
C3419 C 0.01626 0.58464 0.29816 0.0
C3420 C 0.00451 0.58501 0.30777 0.0
C3421 C 0.03035 0.59721 0.2991 0.0
C3422 C 0.04337 0.59716 0.29047 0.0
C3423 C 0.05244 0.60784 0.27603 0.0
C3424 C 0.06459 0.60765 0.26776 0.0
C3425 C 0.06782 0.59687 0.27385 0.0
C3426 C 0.05893 0.58627 0.28829 0.0
C3427 C 0.04678 0.58641 0.29663 0.0
H3428 H 0.07723 0.59674 0.26741 0.0
H3429 H 0.96017 0.59646 0.35485 0.0
H3430 H 0.36318 0.36975 0.3388 0.0
H3431 H 0.38801 0.3888 0.32925 0.0
H3432 H 0.37203 0.41834 0.31561 0.0
H3433 H 0.34734 0.39953 0.32527 0.0
H3434 H 0.38884 0.41627 0.28358 0.0
H3435 H 0.39177 0.42373 0.35829 0.0
H3436 H 0.39005 0.41612 0.39499 0.0
H3437 H 0.42265 0.40385 0.38434 0.0
H3438 H 0.42442 0.4112 0.34748 0.0
H3439 H 0.45336 0.47916 0.26047 0.0
H3440 H 0.43151 0.4638 0.28111 0.0
H3441 H 0.45018 0.43745 0.30029 0.0
H3442 H 0.47227 0.45315 0.28018 0.0
H3443 H 0.43234 0.43759 0.33035 0.0
H3444 H 0.42918 0.42829 0.2569 0.0
H3445 H 0.4313 0.43461 0.21957 0.0
H3446 H 0.39946 0.44829 0.22674 0.0
H3447 H 0.39724 0.44217 0.26419 0.0
C3448 C 0.36499 0.38035 0.33395 0.0
C3449 C 0.35325 0.3831 0.3328 0.0
C3450 C 0.37919 0.39124 0.32855 0.0
C3451 C 0.38189 0.40502 0.32176 0.0
C3452 C 0.37022 0.4078 0.32081 0.0
C3453 C 0.3561 0.39702 0.32641 0.0
C3454 C 0.39669 0.41636 0.31468 0.0
C3455 C 0.3983 0.42108 0.29391 0.0
C3456 C 0.40915 0.42227 0.32792 0.0
C3457 C 0.40811 0.41787 0.35007 0.0
C3458 C 0.39847 0.41929 0.36372 0.0
C3459 C 0.39751 0.41505 0.38457 0.0
C3460 C 0.4062 0.40947 0.39198 0.0
C3461 C 0.41591 0.40815 0.37857 0.0
C3462 C 0.41691 0.41237 0.35771 0.0
C3463 C 0.45308 0.47055 0.26997 0.0
C3464 C 0.46452 0.46741 0.26895 0.0
C3465 C 0.44052 0.46164 0.28152 0.0
C3466 C 0.43902 0.4492 0.29179 0.0
C3467 C 0.45104 0.44692 0.29244 0.0
C3468 C 0.46371 0.45596 0.28109 0.0
C3469 C 0.42442 0.4377 0.29938 0.0
C3470 C 0.42286 0.43285 0.32009 0.0
C3471 C 0.412 0.43141 0.28598 0.0
C3472 C 0.41314 0.4349 0.26339 0.0
C3473 C 0.42268 0.43272 0.25054 0.0
C3474 C 0.4239 0.43626 0.22936 0.0
C3475 C 0.41557 0.4419 0.22081 0.0
C3476 C 0.40593 0.44394 0.2334 0.0
C3477 C 0.40467 0.44042 0.2546 0.0
H3478 H 0.41654 0.44466 0.20443 0.0
H3479 H 0.40545 0.40619 0.40812 0.0
H3480 H 0.3344 0.30979 0.35757 0.0
H3481 H 0.341 0.29158 0.36866 0.0
H3482 H 0.29562 0.25782 0.36506 0.0
H3483 H 0.28896 0.27587 0.3542 0.0
H3484 H 0.30777 0.25684 0.4015 0.0
H3485 H 0.32073 0.26042 0.32859 0.0
H3486 H 0.33365 0.27342 0.29672 0.0
H3487 H 0.37502 0.28829 0.32736 0.0
H3488 H 0.36234 0.27553 0.3595 0.0
H3489 H 0.3147 0.19611 0.42251 0.0
H3490 H 0.30976 0.21241 0.4011 0.0
H3491 H 0.35563 0.24501 0.40309 0.0
H3492 H 0.36058 0.22846 0.42386 0.0
H3493 H 0.34385 0.2468 0.36681 0.0
H3494 H 0.33234 0.24496 0.43922 0.0
H3495 H 0.3207 0.23276 0.47216 0.0
H3496 H 0.27821 0.21646 0.44435 0.0
H3497 H 0.28962 0.22833 0.41109 0.0
C3498 C 0.32586 0.29846 0.35894 0.0
C3499 C 0.31115 0.29431 0.35503 0.0
C3500 C 0.32965 0.28805 0.36522 0.0
C3501 C 0.31881 0.27328 0.36762 0.0
C3502 C 0.30418 0.26912 0.36337 0.0
C3503 C 0.30039 0.27949 0.3571 0.0
C3504 C 0.32249 0.26224 0.37556 0.0
C3505 C 0.31549 0.2545 0.39369 0.0
C3506 C 0.33296 0.25952 0.36586 0.0
C3507 C 0.34058 0.26713 0.34651 0.0
C3508 C 0.33258 0.26656 0.32858 0.0
C3509 C 0.33986 0.27387 0.31046 0.0
C3510 C 0.35514 0.28171 0.31003 0.0
C3511 C 0.36318 0.28223 0.32771 0.0
C3512 C 0.35595 0.27495 0.34588 0.0
C3513 C 0.32377 0.2065 0.41756 0.0
C3514 C 0.33802 0.21101 0.42454 0.0
C3515 C 0.32095 0.21588 0.40555 0.0
C3516 C 0.33229 0.23009 0.40088 0.0
C3517 C 0.34671 0.23414 0.40649 0.0
C3518 C 0.34955 0.22467 0.41828 0.0
C3519 C 0.3289 0.24123 0.39246 0.0
C3520 C 0.33604 0.24907 0.37446 0.0
C3521 C 0.31874 0.24427 0.40247 0.0
C3522 C 0.31183 0.23742 0.4226 0.0
C3523 C 0.32051 0.23871 0.44009 0.0
C3524 C 0.31396 0.23185 0.45882 0.0
C3525 C 0.29872 0.22382 0.46033 0.0
C3526 C 0.29001 0.22267 0.44314 0.0
C3527 C 0.29652 0.22946 0.42434 0.0
H3528 H 0.29367 0.21851 0.47484 0.0
H3529 H 0.36076 0.28736 0.29599 0.0
H3530 H 0.73231 0.01298 0.35472 0.0
H3531 H 0.75073 0.03779 0.36489 0.0
H3532 H 0.71712 0.04939 0.37161 0.0
H3533 H 0.69853 0.0245 0.36101 0.0
H3534 H 0.74179 0.07178 0.3545 0.0
H3535 H 0.73019 0.0409 0.41411 0.0
H3536 H 0.72639 0.01933 0.43403 0.0
H3537 H 0.77121 0.03119 0.4243 0.0
H3538 H 0.77523 0.05272 0.40405 0.0
H3539 H 0.78117 0.13129 0.42697 0.0
H3540 H 0.76413 0.1098 0.40645 0.0
H3541 H 0.79756 0.09806 0.39865 0.0
H3542 H 0.81456 0.11938 0.41951 0.0
H3543 H 0.77294 0.07609 0.41534 0.0
H3544 H 0.78451 0.10831 0.35699 0.0
H3545 H 0.78766 0.1301 0.33836 0.0
H3546 H 0.74226 0.11619 0.34736 0.0
H3547 H 0.73887 0.09441 0.36632 0.0
C3548 C 0.7288 0.02081 0.35817 0.0
C3549 C 0.71391 0.0167 0.35725 0.0
C3550 C 0.73937 0.03501 0.36404 0.0
C3551 C 0.7353 0.0454 0.36938 0.0
C3552 C 0.72052 0.04154 0.36762 0.0
C3553 C 0.7099 0.0273 0.36162 0.0
C3554 C 0.74642 0.05998 0.3778 0.0
C3555 C 0.74851 0.07275 0.36793 0.0
C3556 C 0.75533 0.06127 0.39518 0.0
C3557 C 0.75297 0.04834 0.40738 0.0
C3558 C 0.73921 0.03884 0.41607 0.0
C3559 C 0.73702 0.02663 0.42745 0.0
C3560 C 0.74854 0.02387 0.43038 0.0
C3561 C 0.76229 0.03333 0.42199 0.0
C3562 C 0.76453 0.04554 0.41057 0.0
C3563 C 0.78501 0.12434 0.42039 0.0
C3564 C 0.79921 0.12702 0.4249 0.0
C3565 C 0.77526 0.11208 0.40861 0.0
C3566 C 0.77954 0.10228 0.40102 0.0
C3567 C 0.79402 0.10547 0.40435 0.0
C3568 C 0.80378 0.11775 0.41609 0.0
C3569 C 0.76852 0.08794 0.39185 0.0
C3570 C 0.76635 0.07517 0.40176 0.0
C3571 C 0.75947 0.08672 0.37469 0.0
C3572 C 0.76147 0.09979 0.36324 0.0
C3573 C 0.77522 0.10996 0.35516 0.0
C3574 C 0.77705 0.1223 0.3445 0.0
C3575 C 0.76518 0.12455 0.34172 0.0
C3576 C 0.75145 0.11444 0.34955 0.0
C3577 C 0.74956 0.10209 0.36023 0.0
H3578 H 0.76661 0.13411 0.33347 0.0
H3579 H 0.74683 0.01441 0.4392 0.0
H3580 H 0.99305 0.72209 0.3615 0.0
H3581 H 0.96834 0.71579 0.37174 0.0
H3582 H 0.95386 0.66996 0.36322 0.0
H3583 H 0.97873 0.67618 0.35303 0.0
H3584 H 0.9335 0.67891 0.34792 0.0
H3585 H 0.96078 0.68194 0.40997 0.0
H3586 H 0.98183 0.6936 0.43418 0.0
H3587 H 0.97466 0.72994 0.44261 0.0
H3588 H 0.95369 0.71859 0.41819 0.0
H3589 H 0.86971 0.6493 0.41262 0.0
H3590 H 0.89158 0.65621 0.39176 0.0
H3591 H 0.90998 0.70095 0.41288 0.0
H3592 H 0.88833 0.69382 0.4344 0.0
H3593 H 0.92834 0.69251 0.4203 0.0
H3594 H 0.90035 0.68935 0.35966 0.0
H3595 H 0.87943 0.67808 0.3352 0.0
H3596 H 0.88767 0.64272 0.32356 0.0
H3597 H 0.90852 0.65368 0.34818 0.0
C3598 C 0.98462 0.71066 0.36158 0.0
C3599 C 0.98792 0.69963 0.35657 0.0
C3600 C 0.97048 0.70708 0.36745 0.0
C3601 C 0.95928 0.69241 0.36838 0.0
C3602 C 0.96234 0.68136 0.36257 0.0
C3603 C 0.97657 0.68493 0.35685 0.0
C3604 C 0.9447 0.68869 0.37677 0.0
C3605 C 0.93228 0.68172 0.3638 0.0
C3606 C 0.9432 0.69267 0.39733 0.0
C3607 C 0.95577 0.69949 0.41209 0.0
C3608 C 0.96378 0.69248 0.41685 0.0
C3609 C 0.97568 0.69902 0.43063 0.0
C3610 C 0.97961 0.71252 0.43988 0.0
C3611 C 0.97162 0.71949 0.43541 0.0
C3612 C 0.95972 0.713 0.42161 0.0
C3613 C 0.87817 0.66071 0.41204 0.0
C3614 C 0.87728 0.67109 0.42482 0.0
C3615 C 0.89072 0.66468 0.40017 0.0
C3616 C 0.90253 0.67915 0.40065 0.0
C3617 C 0.9011 0.68972 0.41225 0.0
C3618 C 0.88865 0.6857 0.42435 0.0
C3619 C 0.91695 0.68287 0.3914 0.0
C3620 C 0.92943 0.68978 0.40431 0.0
C3621 C 0.91845 0.67888 0.37077 0.0
C3622 C 0.90593 0.67227 0.35592 0.0
C3623 C 0.89763 0.67911 0.35202 0.0
C3624 C 0.8858 0.67279 0.3381 0.0
C3625 C 0.8822 0.65967 0.32787 0.0
C3626 C 0.89046 0.65287 0.33151 0.0
C3627 C 0.9023 0.65914 0.34543 0.0
H3628 H 0.87304 0.6548 0.3171 0.0
H3629 H 0.98882 0.71757 0.45055 0.0
H3630 H 0.3657 0.00965 0.7006 0.0
H3631 H 0.38369 0.00318 0.71312 0.0
H3632 H 0.41867 0.04433 0.69063 0.0
H3633 H 0.4008 0.05105 0.67878 0.0
H3634 H 0.40395 0.99887 0.69691 0.0
H3635 H 0.44829 0.05735 0.72211 0.0
H3636 H 0.4501 0.08045 0.73416 0.0
H3637 H 0.40627 0.0567 0.75772 0.0
H3638 H 0.40428 0.03345 0.74606 0.0
H3639 H 0.4796 0.0202 0.7506 0.0
H3640 H 0.46388 0.026 0.72878 0.0
H3641 H 0.42554 0.98979 0.75582 0.0
H3642 H 0.44113 0.98413 0.77755 0.0
H3643 H 0.44356 0.03346 0.7444 0.0
H3644 H 0.39821 0.97558 0.719 0.0
H3645 H 0.39569 0.95174 0.70947 0.0
H3646 H 0.4405 0.97324 0.68977 0.0
H3647 H 0.44323 0.99722 0.69889 0.0
C3648 C 0.37722 0.01727 0.6982 0.0
C3649 C 0.38181 0.03093 0.68888 0.0
C3650 C 0.38751 0.01355 0.70534 0.0
C3651 C 0.4026 0.02337 0.70322 0.0
C3652 C 0.40714 0.0367 0.69296 0.0
C3653 C 0.39689 0.04051 0.68608 0.0
C3654 C 0.41354 0.01988 0.71231 0.0
C3655 C 0.41253 0.0064 0.70742 0.0
C3656 C 0.42497 0.02978 0.72575 0.0
C3657 C 0.42609 0.04369 0.73297 0.0
C3658 C 0.43906 0.05706 0.7299 0.0
C3659 C 0.44011 0.07018 0.73667 0.0
C3660 C 0.42828 0.07005 0.74663 0.0
C3661 C 0.4154 0.05679 0.74992 0.0
C3662 C 0.4143 0.04364 0.74322 0.0
C3663 C 0.46782 0.01334 0.75145 0.0
C3664 C 0.46154 1.00169 0.76558 0.0
C3665 C 0.45886 0.01669 0.73913 0.0
C3666 C 0.44352 0.00826 0.74056 0.0
C3667 C 0.43731 0.99632 0.7542 0.0
C3668 C 0.44622 0.9931 0.76662 0.0
C3669 C 0.4339 0.01246 0.72908 0.0
C3670 C 0.43511 0.02604 0.73363 0.0
C3671 C 0.42253 1.00255 0.71563 0.0
C3672 C 0.42094 0.98819 0.7098 0.0
C3673 C 0.4075 0.97523 0.71254 0.0
C3674 C 0.40604 0.96169 0.70723 0.0
C3675 C 0.41794 0.96097 0.69908 0.0
C3676 C 0.43131 0.9738 0.69616 0.0
C3677 C 0.43282 0.98737 0.70143 0.0
H3678 H 0.41679 0.95048 0.69499 0.0
H3679 H 0.42912 0.08022 0.75184 0.0
H3680 H 0.99867 0.36208 0.68177 0.0
H3681 H 0.00537 0.38748 0.68939 0.0
H3682 H 0.96127 0.37291 0.70977 0.0
H3683 H 0.95442 0.34771 0.70136 0.0
H3684 H 0.97013 0.3968 0.68961 0.0
H3685 H 0.99123 0.38187 0.74439 0.0
H3686 H 0.00654 0.37249 0.75923 0.0
H3687 H 0.04475 0.40813 0.73176 0.0
H3688 H 0.02963 0.41763 0.71654 0.0
H3689 H 0.98077 0.45025 0.76691 0.0
H3690 H 0.97519 0.42929 0.74433 0.0
H3691 H 0.01869 0.45281 0.71881 0.0
H3692 H 0.02422 0.47387 0.74131 0.0
H3693 H 0.01223 0.42646 0.73675 0.0
H3694 H 0.99016 0.44319 0.68706 0.0
H3695 H 0.97396 0.4523 0.67506 0.0
H3696 H 0.93642 0.41286 0.69616 0.0
H3697 H 0.95241 0.40358 0.70857 0.0
C3698 C 0.9904 0.36433 0.68778 0.0
C3699 C 0.97603 0.35286 0.69106 0.0
C3700 C 0.99425 0.37885 0.69221 0.0
C3701 C 0.98389 0.38217 0.7005 0.0
C3702 C 0.96948 0.37072 0.70337 0.0
C3703 C 0.96558 0.35627 0.69863 0.0
C3704 C 0.98803 0.39742 0.70681 0.0
C3705 C 0.9793 0.40324 0.70002 0.0
C3706 C 1.00018 0.40605 0.72002 0.0
C3707 C 0.00928 0.40035 0.72911 0.0
C3708 C 1.00288 0.38764 0.74138 0.0
C3709 C 0.01152 0.38232 0.74988 0.0
C3710 C 0.0266 0.38968 0.74638 0.0
C3711 C 0.03307 0.40242 0.73442 0.0
C3712 C 0.02447 0.40778 0.72586 0.0
C3713 C 0.98889 0.45117 0.75578 0.0
C3714 C 1.00286 0.46371 0.75565 0.0
C3715 C 0.98573 0.43917 0.74295 0.0
C3716 C 0.99654 0.43945 0.7299 0.0
C3717 C 0.01018 0.45236 0.72872 0.0
C3718 C 0.01328 0.46445 0.74139 0.0
C3719 C 0.99419 0.4257 0.71984 0.0
C3720 C 1.00324 0.42013 0.72603 0.0
C3721 C 0.98218 0.41722 0.70641 0.0
C3722 C 0.97251 0.42273 0.69887 0.0
C3723 C 0.97846 0.4365 0.68929 0.0
C3724 C 0.96931 0.44169 0.68238 0.0
C3725 C 0.95418 0.43318 0.68488 0.0
C3726 C 0.94815 0.41944 0.69424 0.0
C3727 C 0.95725 0.4142 0.70118 0.0
H3728 H 0.94711 0.43722 0.67952 0.0
H3729 H 0.03327 0.38555 0.75298 0.0
H3730 H 0.66258 0.60909 0.69263 0.0
H3731 H 0.63758 0.59097 0.70205 0.0
H3732 H 0.62612 0.62486 0.70517 0.0
H3733 H 0.65124 0.64316 0.69576 0.0
H3734 H 0.61677 0.60713 0.7394 0.0
H3735 H 0.61377 0.60052 0.66519 0.0
H3736 H 0.62135 0.59639 0.63064 0.0
H3737 H 0.61531 0.55501 0.65105 0.0
H3738 H 0.60789 0.55899 0.68582 0.0
H3739 H 0.54228 0.55904 0.75631 0.0
H3740 H 0.56393 0.57652 0.73694 0.0
H3741 H 0.57864 0.54507 0.73398 0.0
H3742 H 0.557 0.52754 0.75347 0.0
H3743 H 0.58557 0.56204 0.69812 0.0
H3744 H 0.59028 0.56893 0.77231 0.0
H3745 H 0.58316 0.57263 0.80744 0.0
H3746 H 0.58679 0.6132 0.78792 0.0
H3747 H 0.59364 0.60959 0.75251 0.0
C3748 C 0.65473 0.61271 0.69514 0.0
C3749 C 0.65893 0.6276 0.69342 0.0
C3750 C 0.6404 0.6023 0.70045 0.0
C3751 C 0.62991 0.60651 0.70416 0.0
C3752 C 0.63402 0.62135 0.70232 0.0
C3753 C 0.64837 0.63179 0.69688 0.0
C3754 C 0.61487 0.59547 0.71083 0.0
C3755 C 0.60984 0.59743 0.73017 0.0
C3756 C 0.60597 0.58256 0.69909 0.0
C3757 C 0.61039 0.58012 0.67818 0.0
C3758 C 0.61417 0.59059 0.66237 0.0
C3759 C 0.61842 0.58827 0.64273 0.0
C3760 C 0.61884 0.57546 0.63867 0.0
C3761 C 0.61499 0.56493 0.65422 0.0
C3762 C 0.61074 0.56721 0.67389 0.0
C3763 C 0.54993 0.55571 0.75102 0.0
C3764 C 0.54801 0.54196 0.75656 0.0
C3765 C 0.56232 0.56573 0.74004 0.0
C3766 C 0.57306 0.56222 0.73443 0.0
C3767 C 0.57052 0.54803 0.73825 0.0
C3768 C 0.5581 0.53798 0.74927 0.0
C3769 C 0.5875 0.57377 0.7266 0.0
C3770 C 0.59244 0.57185 0.70718 0.0
C3771 C 0.5964 0.58668 0.73835 0.0
C3772 C 0.5923 0.5889 0.75966 0.0
C3773 C 0.58942 0.57857 0.77544 0.0
C3774 C 0.58545 0.58066 0.79541 0.0
C3775 C 0.58449 0.59312 0.7999 0.0
C3776 C 0.58751 0.60353 0.78441 0.0
C3777 C 0.59143 0.60147 0.76438 0.0
H3778 H 0.58145 0.59474 0.81539 0.0
H3779 H 0.62213 0.57368 0.62346 0.0
H3780 H 0.6773 0.69736 0.66717 0.0
H3781 H 0.6695 0.71501 0.65818 0.0
H3782 H 0.71448 0.74987 0.65926 0.0
H3783 H 0.72233 0.73238 0.66833 0.0
H3784 H 0.69655 0.75852 0.6772 0.0
H3785 H 0.69775 0.73425 0.6136 0.0
H3786 H 0.69104 0.71291 0.59076 0.0
H3787 H 0.64573 0.70072 0.59465 0.0
H3788 H 0.65216 0.7219 0.61775 0.0
H3789 H 0.69795 0.81229 0.60894 0.0
H3790 H 0.70057 0.79452 0.63015 0.0
H3791 H 0.65486 0.76309 0.62046 0.0
H3792 H 0.65231 0.78079 0.59887 0.0
H3793 H 0.67047 0.75143 0.60986 0.0
H3794 H 0.66954 0.77759 0.66995 0.0
H3795 H 0.67632 0.79911 0.69241 0.0
H3796 H 0.72066 0.80793 0.69537 0.0
H3797 H 0.71421 0.78657 0.67268 0.0
C3798 C 0.68551 0.7088 0.66568 0.0
C3799 C 0.70045 0.71343 0.66833 0.0
C3800 C 0.68104 0.71888 0.66049 0.0
C3801 C 0.69142 0.73377 0.65785 0.0
C3802 C 0.70627 0.73846 0.66122 0.0
C3803 C 0.71074 0.72841 0.66632 0.0
C3804 C 0.68699 0.74438 0.65049 0.0
C3805 C 0.6909 0.75703 0.66244 0.0
C3806 C 0.67929 0.74227 0.63148 0.0
C3807 C 0.67542 0.72955 0.6176 0.0
C3808 C 0.68635 0.72695 0.60973 0.0
C3809 C 0.68259 0.7149 0.59671 0.0
C3810 C 0.66796 0.70543 0.59131 0.0
C3811 C 0.65705 0.70803 0.59888 0.0
C3812 C 0.66075 0.72006 0.61193 0.0
C3813 C 0.68834 0.8018 0.61201 0.0
C3814 C 0.67492 0.79793 0.60226 0.0
C3815 C 0.68984 0.79159 0.62411 0.0
C3816 C 0.67792 0.77739 0.62694 0.0
C3817 C 0.66425 0.77392 0.61845 0.0
C3818 C 0.66277 0.78407 0.60623 0.0
C3819 C 0.68011 0.76573 0.63647 0.0
C3820 C 0.67586 0.75288 0.62484 0.0
C3821 C 0.68747 0.76768 0.65578 0.0
C3822 C 0.69141 0.78053 0.66947 0.0
C3823 C 0.68077 0.78418 0.67525 0.0
C3824 C 0.68455 0.79634 0.68805 0.0
C3825 C 0.69892 0.8049 0.69528 0.0
C3826 C 0.70953 0.80129 0.68975 0.0
C3827 C 0.70582 0.78914 0.67694 0.0
H3828 H 0.70182 0.81431 0.70519 0.0
H3829 H 0.66508 0.69611 0.58122 0.0
H3830 H 0.27694 0.99167 0.67527 0.0
H3831 H 0.25805 0.96665 0.66678 0.0
H3832 H 0.29132 0.9552 0.65494 0.0
H3833 H 0.31032 0.9802 0.66389 0.0
H3834 H 0.25299 0.95344 0.63101 0.0
H3835 H 0.27777 0.91867 0.6616 0.0
H3836 H 0.29294 0.91871 0.691 0.0
H3837 H 0.27881 0.94316 0.72841 0.0
H3838 H 0.26341 0.9431 0.69934 0.0
H3839 H 0.23566 0.88786 0.57781 0.0
H3840 H 0.25005 0.90876 0.60074 0.0
H3841 H 0.21323 0.89422 0.64195 0.0
H3842 H 0.19832 0.87346 0.61822 0.0
H3843 H 0.2496 0.9075 0.65654 0.0
H3844 H 0.21208 0.91601 0.62592 0.0
H3845 H 0.19677 0.91579 0.5966 0.0
H3846 H 0.23533 0.94455 0.56209 0.0
H3847 H 0.25087 0.94445 0.59087 0.0
C3848 C 0.28026 0.98379 0.67114 0.0
C3849 C 0.29517 0.98797 0.6702 0.0
C3850 C 0.26942 0.96946 0.66626 0.0
C3851 C 0.27319 0.95895 0.6603 0.0
C3852 C 0.28807 0.96299 0.65984 0.0
C3853 C 0.29895 0.97733 0.66486 0.0
C3854 C 0.26163 0.94418 0.65294 0.0
C3855 C 0.25214 0.94342 0.63692 0.0
C3856 C 0.2604 0.93101 0.66056 0.0
C3857 C 0.26952 0.93098 0.67821 0.0
C3858 C 0.27785 0.92399 0.67613 0.0
C3859 C 0.2865 0.92403 0.69273 0.0
C3860 C 0.28687 0.93097 0.71154 0.0
C3861 C 0.27856 0.93784 0.71381 0.0
C3862 C 0.26988 0.93783 0.69726 0.0
C3863 C 0.23056 0.88908 0.59172 0.0
C3864 C 0.21571 0.87924 0.59587 0.0
C3865 C 0.23887 0.90096 0.60492 0.0
C3866 C 0.23265 0.90311 0.62286 0.0
C3867 C 0.21817 0.89274 0.62805 0.0
C3868 C 0.2097 0.88089 0.61456 0.0
C3869 C 0.24114 0.91695 0.6348 0.0
C3870 C 0.25025 0.91756 0.65124 0.0
C3871 C 0.24192 0.93001 0.62782 0.0
C3872 C 0.23263 0.93 0.6104 0.0
C3873 C 0.21729 0.92205 0.61191 0.0
C3874 C 0.20858 0.92199 0.59539 0.0
C3875 C 0.21508 0.93004 0.57739 0.0
C3876 C 0.23031 0.93819 0.57593 0.0
C3877 C 0.23908 0.93817 0.59233 0.0
H3878 H 0.20832 0.93003 0.56465 0.0
H3879 H 0.29358 0.93099 0.72437 0.0
H3880 H 0.02882 0.33191 0.67048 0.0
H3881 H 0.05377 0.33837 0.66067 0.0
H3882 H 0.0404 0.29255 0.65596 0.0
H3883 H 0.01563 0.28605 0.66612 0.0
H3884 H 0.06682 0.30724 0.67353 0.0
H3885 H 0.04331 0.3133 0.61249 0.0
H3886 H 0.03042 0.32343 0.59247 0.0
H3887 H 0.06628 0.36698 0.60282 0.0
H3888 H 0.0793 0.35711 0.62313 0.0
H3889 H 0.11849 0.30683 0.60264 0.0
H3890 H 0.09798 0.304 0.62372 0.0
H3891 H 0.11518 0.35069 0.62196 0.0
H3892 H 0.13547 0.35344 0.60028 0.0
H3893 H 0.0882 0.3377 0.61062 0.0
H3894 H 0.11305 0.3313 0.66849 0.0
H3895 H 0.12596 0.32093 0.68785 0.0
H3896 H 0.08799 0.27809 0.6834 0.0
H3897 H 0.07491 0.28816 0.66376 0.0
C3898 C 0.03123 0.32322 0.66753 0.0
C3899 C 0.02018 0.30846 0.66897 0.0
C3900 C 0.0455 0.32692 0.66184 0.0
C3901 C 0.04896 0.31595 0.65728 0.0
C3902 C 0.03804 0.30123 0.65938 0.0
C3903 C 0.02383 0.29753 0.66513 0.0
C3904 C 0.06372 0.31966 0.64948 0.0
C3905 C 0.07148 0.31384 0.65971 0.0
C3906 C 0.07001 0.32856 0.63174 0.0
C3907 C 0.06219 0.33449 0.61952 0.0
C3908 C 0.04839 0.32505 0.61063 0.0
C3909 C 0.04107 0.33074 0.59921 0.0
C3910 C 0.04751 0.34584 0.59643 0.0
C3911 C 0.06129 0.35529 0.60502 0.0
C3912 C 0.06865 0.34965 0.61648 0.0
C3913 C 0.11816 0.31654 0.60738 0.0
C3914 C 0.12861 0.33037 0.5999 0.0
C3915 C 0.10639 0.31492 0.61943 0.0
C3916 C 0.10497 0.32714 0.62457 0.0
C3917 C 0.11595 0.34108 0.61817 0.0
C3918 C 0.1276 0.34267 0.60592 0.0
C3919 C 0.09136 0.32523 0.63457 0.0
C3920 C 0.08374 0.33131 0.62467 0.0
C3921 C 0.08523 0.31657 0.65259 0.0
C3922 C 0.09304 0.31049 0.66451 0.0
C3923 C 0.10749 0.31965 0.67151 0.0
C3924 C 0.11483 0.31383 0.68256 0.0
C3925 C 0.10781 0.29886 0.68682 0.0
C3926 C 0.09342 0.28968 0.68008 0.0
C3927 C 0.08602 0.29545 0.66902 0.0
H3928 H 0.11352 0.29437 0.69537 0.0
H3929 H 0.04183 0.35022 0.58758 0.0
H3930 H 0.27442 0.28472 0.68053 0.0
H3931 H 0.25596 0.29132 0.67174 0.0
H3932 H 0.28991 0.33567 0.65974 0.0
H3933 H 0.30854 0.3292 0.6691 0.0
H3934 H 0.26664 0.33535 0.67813 0.0
H3935 H 0.27402 0.31123 0.61974 0.0
H3936 H 0.27584 0.29158 0.60149 0.0
H3937 H 0.2313 0.26085 0.61721 0.0
H3938 H 0.22928 0.2803 0.63581 0.0
H3939 H 0.22753 0.35392 0.60389 0.0
H3940 H 0.24374 0.34979 0.6266 0.0
H3941 H 0.20911 0.30549 0.63705 0.0
H3942 H 0.19304 0.30942 0.61377 0.0
H3943 H 0.23228 0.30576 0.6214 0.0
H3944 H 0.2246 0.33135 0.67736 0.0
H3945 H 0.22336 0.35177 0.69413 0.0
H3946 H 0.26886 0.38066 0.68134 0.0
H3947 H 0.27034 0.36045 0.66422 0.0
C3948 C 0.278 0.29593 0.67622 0.0
C3949 C 0.29298 0.30639 0.67528 0.0
C3950 C 0.2674 0.29968 0.67116 0.0
C3951 C 0.27152 0.31392 0.66467 0.0
C3952 C 0.28645 0.32459 0.66463 0.0
C3953 C 0.29709 0.32087 0.66992 0.0
C3954 C 0.26027 0.31734 0.65671 0.0
C3955 C 0.25919 0.32897 0.66561 0.0
C3956 C 0.25039 0.3089 0.64058 0.0
C3957 C 0.25155 0.29719 0.62935 0.0
C3958 C 0.26465 0.30026 0.61944 0.0
C3959 C 0.26571 0.28916 0.60901 0.0
C3960 C 0.2537 0.27496 0.60824 0.0
C3961 C 0.2406 0.27185 0.61785 0.0
C3962 C 0.23949 0.28291 0.62833 0.0
C3963 C 0.22321 0.34345 0.6116 0.0
C3964 C 0.20903 0.33195 0.60682 0.0
C3965 C 0.2325 0.34111 0.62466 0.0
C3966 C 0.22772 0.32727 0.63345 0.0
C3967 C 0.21309 0.31624 0.63037 0.0
C3968 C 0.20382 0.31856 0.61723 0.0
C3969 C 0.23844 0.32367 0.64297 0.0
C3970 C 0.23954 0.31204 0.63416 0.0
C3971 C 0.24839 0.33223 0.65899 0.0
C3972 C 0.24755 0.3444 0.66935 0.0
C3973 C 0.23432 0.34208 0.67797 0.0
C3974 C 0.23358 0.35362 0.68757 0.0
C3975 C 0.24602 0.36751 0.68876 0.0
C3976 C 0.25923 0.36989 0.68039 0.0
C3977 C 0.26003 0.35839 0.67076 0.0
H3978 H 0.24542 0.37643 0.6962 0.0
H3979 H 0.25454 0.26639 0.60016 0.0
H3980 H 0.67552 0.98364 0.66197 0.0
H3981 H 0.66907 0.95859 0.65221 0.0
H3982 H 0.7147 0.971 0.65408 0.0
H3983 H 0.72121 0.99595 0.6636 0.0
H3984 H 0.70212 0.95648 0.61896 0.0
H3985 H 0.69082 0.94959 0.6921 0.0
H3986 H 0.6788 0.95055 0.72452 0.0
H3987 H 0.63664 0.9225 0.69683 0.0
H3988 H 0.64841 0.92153 0.66412 0.0
H3989 H 0.69734 0.88873 0.60736 0.0
H3990 H 0.70071 0.91005 0.62723 0.0
H3991 H 0.65561 0.89749 0.61601 0.0
H3992 H 0.65214 0.87605 0.59616 0.0
H3993 H 0.6669 0.91141 0.65632 0.0
H3994 H 0.67794 0.91874 0.58333 0.0
H3995 H 0.68965 0.91713 0.55094 0.0
H3996 H 0.73207 0.94457 0.57829 0.0
H3997 H 0.72059 0.94604 0.61103 0.0
C3998 C 0.68416 0.98099 0.66047 0.0
C3999 C 0.69889 0.99183 0.66353 0.0
C4000 C 0.68045 0.96664 0.65496 0.0
C4001 C 0.6914 0.96286 0.65249 0.0
C4002 C 0.70606 0.97363 0.65585 0.0
C4003 C 0.70976 0.98792 0.66135 0.0
C4004 C 0.68777 0.94793 0.64542 0.0
C4005 C 0.69457 0.94667 0.62735 0.0
C4006 C 0.6776 0.93504 0.65595 0.0
C4007 C 0.67049 0.93562 0.67559 0.0
C4008 C 0.67898 0.94373 0.69286 0.0
C4009 C 0.67221 0.94426 0.7113 0.0
C4010 C 0.65696 0.93663 0.71272 0.0
C4011 C 0.64845 0.92842 0.6957 0.0
C4012 C 0.65516 0.92787 0.67721 0.0
C4013 C 0.68797 0.89015 0.60985 0.0
C4014 C 0.67449 0.88074 0.6001 0.0
C4015 C 0.68994 0.90241 0.62108 0.0
C4016 C 0.67847 0.90547 0.62283 0.0
C4017 C 0.66461 0.89535 0.61484 0.0
C4018 C 0.66266 0.88313 0.60347 0.0
C4019 C 0.68149 0.92011 0.6302 0.0
C4020 C 0.6745 0.92127 0.6481 0.0
C4021 C 0.69145 0.93297 0.6195 0.0
C4022 C 0.6984 0.93236 0.5997 0.0
C4023 C 0.68976 0.92433 0.58248 0.0
C4024 C 0.69635 0.92345 0.56406 0.0
C4025 C 0.71159 0.93073 0.56257 0.0
C4026 C 0.72026 0.93892 0.57948 0.0
C4027 C 0.71372 0.93977 0.59798 0.0
H4028 H 0.71668 0.93005 0.5483 0.0
H4029 H 0.65174 0.93704 0.72701 0.0
H4030 H 0.01286 0.73148 0.65354 0.0
H4031 H 0.03734 0.75012 0.64286 0.0
H4032 H 0.05419 0.7219 0.66036 0.0
H4033 H 0.02955 0.70301 0.67104 0.0
H4034 H 0.0727 0.75224 0.6725 0.0
H4035 H 0.04853 0.72341 0.61173 0.0
H4036 H 0.02843 0.71113 0.58612 0.0
H4037 H 0.03259 0.75249 0.56987 0.0
H4038 H 0.05258 0.765 0.59563 0.0
H4039 H 0.13835 0.78891 0.61067 0.0
H4040 H 0.11636 0.77279 0.63064 0.0
H4041 H 0.0947 0.79485 0.60518 0.0
H4042 H 0.11653 0.81066 0.58484 0.0
H4043 H 0.0789 0.76689 0.59812 0.0
H4044 H 0.10341 0.79601 0.6585 0.0
H4045 H 0.12349 0.80834 0.68412 0.0
H4046 H 0.11898 0.76696 0.70116 0.0
H4047 H 0.099 0.75439 0.67542 0.0
C4048 C 0.02176 0.72922 0.65529 0.0
C4049 C 0.0192 0.71569 0.66305 0.0
C4050 C 0.03576 0.73992 0.64915 0.0
C4051 C 0.04758 0.73738 0.65069 0.0
C4052 C 0.04522 0.72409 0.65907 0.0
C4053 C 0.03113 0.71328 0.66507 0.0
C4054 C 0.06215 0.74837 0.64247 0.0
C4055 C 0.07415 0.75534 0.6562 0.0
C4056 C 0.06396 0.7526 0.62129 0.0
C4057 C 0.05195 0.74512 0.60577 0.0
C4058 C 0.04507 0.72987 0.60284 0.0
C4059 C 0.03371 0.72287 0.58827 0.0
C4060 C 0.02921 0.73102 0.57642 0.0
C4061 C 0.03608 0.74619 0.57908 0.0
C4062 C 0.04743 0.75324 0.59366 0.0
C4063 C 0.12909 0.79067 0.61003 0.0
C4064 C 0.12915 0.80107 0.59632 0.0
C4065 C 0.11648 0.78141 0.62138 0.0
C4066 C 0.10378 0.78252 0.61939 0.0
C4067 C 0.10428 0.79368 0.6069 0.0
C4068 C 0.1168 0.80282 0.59543 0.0
C4069 C 0.08954 0.77111 0.6282 0.0
C4070 C 0.07755 0.76392 0.61449 0.0
C4071 C 0.0878 0.76675 0.64938 0.0
C4072 C 0.0998 0.77427 0.66488 0.0
C4073 C 0.10678 0.78955 0.66758 0.0
C4074 C 0.11813 0.79658 0.68215 0.0
C4075 C 0.12254 0.78844 0.69422 0.0
C4076 C 0.11557 0.77325 0.69178 0.0
C4077 C 0.10422 0.76616 0.67722 0.0
H4078 H 0.13132 0.79391 0.70549 0.0
H4079 H 0.02042 0.72558 0.56514 0.0
H4080 H 0.96098 0.61512 0.713 0.0
H4081 H 0.96922 0.59806 0.7224 0.0
H4082 H 0.00703 0.62139 0.683 0.0
H4083 H 0.9992 0.63913 0.67462 0.0
H4084 H 0.97287 0.57908 0.70484 0.0
H4085 H 0.03522 0.61751 0.70026 0.0
H4086 H 0.05357 0.64379 0.70334 0.0
H4087 H 0.02476 0.65044 0.74324 0.0
H4088 H 0.00633 0.62419 0.74056 0.0
H4089 H 1.00163 0.53415 0.73931 0.0
H4090 H 0.99803 0.55086 0.7166 0.0
H4091 H 0.01447 0.58351 0.76564 0.0
H4092 H 0.01897 0.56747 0.78746 0.0
H4093 H 0.02304 0.59703 0.73216 0.0
H4094 H 0.976 0.55793 0.75558 0.0
H4095 H 0.95635 0.53221 0.75895 0.0
H4096 H 0.95226 0.52801 0.69222 0.0
H4097 H 0.972 0.55368 0.68848 0.0
C4098 C 0.97107 0.61663 0.70633 0.0
C4099 C 0.97951 0.62854 0.6932 0.0
C4100 C 0.97575 0.6068 0.71163 0.0
C4101 C 0.98887 0.60842 0.70364 0.0
C4102 C 0.99706 0.62003 0.68985 0.0
C4103 C 0.99256 0.63014 0.68497 0.0
C4104 C 0.99398 0.59817 0.71048 0.0
C4105 C 0.98389 0.58305 0.71069 0.0
C4106 C 0.00834 0.60318 0.71819 0.0
C4107 C 0.01934 0.61895 0.71996 0.0
C4108 C 0.03283 0.6246 0.7097 0.0
C4109 C 0.04323 0.63947 0.71138 0.0
C4110 C 0.04031 0.64879 0.72341 0.0
C4111 C 0.02699 0.64323 0.73385 0.0
C4112 C 0.01655 0.62836 0.73225 0.0
C4113 C 0.00471 0.545 0.74501 0.0
C4114 C 0.0102 0.5493 0.76541 0.0
C4115 C 1.00253 0.55451 0.73211 0.0
C4116 C 0.00564 0.56839 0.73951 0.0
C4117 C 0.01188 0.5729 0.75945 0.0
C4118 C 0.01425 0.56357 0.7721 0.0
C4119 C 1.00172 0.57806 0.72747 0.0
C4120 C 0.01209 0.59305 0.72601 0.0
C4121 C 0.98743 0.57303 0.71954 0.0
C4122 C 0.97558 0.55763 0.72175 0.0
C4123 C 0.97096 0.55148 0.74164 0.0
C4124 C 0.95981 0.53693 0.74361 0.0
C4125 C 0.9531 0.52847 0.72581 0.0
C4126 C 0.95749 0.53457 0.706 0.0
C4127 C 0.96866 0.54911 0.70393 0.0
H4128 H 0.94446 0.5172 0.72737 0.0
H4129 H 0.04837 0.6603 0.72467 0.0
H4130 H 0.36581 0.3586 0.68491 0.0
H4131 H 0.38371 0.38417 0.69382 0.0
H4132 H 0.41276 0.3704 0.71914 0.0
H4133 H 0.39522 0.34502 0.70987 0.0
H4134 H 0.40679 0.38961 0.74602 0.0
H4135 H 0.42184 0.38529 0.67597 0.0
H4136 H 0.41783 0.38009 0.63822 0.0
H4137 H 0.40616 0.41347 0.63156 0.0
H4138 H 0.4099 0.41872 0.66936 0.0
H4139 H 0.47877 0.45589 0.74516 0.0
H4140 H 0.46082 0.43533 0.724 0.0
H4141 H 0.42693 0.44387 0.7445 0.0
H4142 H 0.44488 0.46475 0.76515 0.0
H4143 H 0.43484 0.42799 0.6935 0.0
H4144 H 0.40367 0.41136 0.76942 0.0
H4145 H 0.40801 0.41803 0.80681 0.0
H4146 H 0.45227 0.42695 0.80132 0.0
H4147 H 0.44807 0.41999 0.76406 0.0
C4148 C 0.37604 0.36105 0.69227 0.0
C4149 C 0.37911 0.34979 0.69664 0.0
C4150 C 0.38625 0.37565 0.69732 0.0
C4151 C 0.39954 0.37915 0.70715 0.0
C4152 C 0.40256 0.36792 0.71158 0.0
C4153 C 0.39254 0.35342 0.70619 0.0
C4154 C 0.41029 0.39445 0.7132 0.0
C4155 C 0.41286 0.39798 0.73452 0.0
C4156 C 0.4182 0.40541 0.69821 0.0
C4157 C 0.41598 0.40227 0.67552 0.0
C4158 C 0.41827 0.39142 0.66649 0.0
C4159 C 0.41608 0.38848 0.64508 0.0
C4160 C 0.41169 0.39641 0.63251 0.0
C4161 C 0.40953 0.40732 0.64132 0.0
C4162 C 0.41169 0.41028 0.66273 0.0
C4163 C 0.46767 0.45391 0.74432 0.0
C4164 C 0.4632 0.4618 0.75714 0.0
C4165 C 0.4574 0.4421 0.73224 0.0
C4166 C 0.44254 0.43797 0.73297 0.0
C4167 C 0.43835 0.44685 0.74382 0.0
C4168 C 0.44862 0.45874 0.75568 0.0
C4169 C 0.43126 0.42305 0.72623 0.0
C4170 C 0.42863 0.41961 0.70493 0.0
C4171 C 0.42324 0.41213 0.7412 0.0
C4172 C 0.42558 0.4153 0.76392 0.0
C4173 C 0.41428 0.4146 0.77626 0.0
C4174 C 0.41672 0.41844 0.79742 0.0
C4175 C 0.43042 0.42296 0.80642 0.0
C4176 C 0.44167 0.42348 0.79433 0.0
C4177 C 0.43925 0.41957 0.7732 0.0
H4178 H 0.43233 0.42604 0.82276 0.0
H4179 H 0.41001 0.39413 0.61593 0.0
H4180 H 0.6585 0.05711 0.68246 0.0
H4181 H 0.63355 0.05012 0.69241 0.0
H4182 H 0.62376 0.00564 0.70159 0.0
H4183 H 0.64871 0.01252 0.69119 0.0
H4184 H 0.60086 0.00616 0.68363 0.0
H4185 H 0.63237 0.02953 0.74291 0.0
H4186 H 0.65354 0.04937 0.76155 0.0
H4187 H 0.63775 0.07895 0.74824 0.0
H4188 H 0.61658 0.05931 0.72928 0.0
H4189 H 0.54292 0.98058 0.75651 0.0
H4190 H 0.56438 0.98799 0.73468 0.0
H4191 H 0.57086 0.03171 0.73135 0.0
H4192 H 0.54946 0.02427 0.75386 0.0
H4193 H 0.59496 0.03281 0.74335 0.0
H4194 H 0.56168 0.0082 0.68714 0.0
H4195 H 0.54038 0.98791 0.66938 0.0
H4196 H 0.55908 0.96025 0.67743 0.0
H4197 H 0.5804 0.9803 0.6955 0.0
C4198 C 0.65103 0.04581 0.68643 0.0
C4199 C 0.65566 0.0354 0.68619 0.0
C4200 C 0.63675 0.04183 0.69219 0.0
C4201 C 0.6268 0.0274 0.69812 0.0
C4202 C 0.63122 0.01685 0.69715 0.0
C4203 C 0.64551 0.02081 0.69125 0.0
C4204 C 0.61205 0.02348 0.70619 0.0
C4205 C 0.59955 0.01191 0.69678 0.0
C4206 C 0.61029 0.0312 0.72303 0.0
C4207 C 0.62298 0.043 0.73448 0.0
C4208 C 0.63348 0.0403 0.74382 0.0
C4209 C 0.64546 0.0515 0.75447 0.0
C4210 C 0.64701 0.06542 0.75602 0.0
C4211 C 0.63655 0.06816 0.74699 0.0
C4212 C 0.62455 0.057 0.7363 0.0
C4213 C 0.54862 0.99162 0.75043 0.0
C4214 C 0.54444 1.00181 0.7565 0.0
C4215 C 0.56091 0.99587 0.73794 0.0
C4216 C 0.56925 0.0104 0.73113 0.0
C4217 C 0.56459 0.02042 0.73632 0.0
C4218 C 0.55229 0.01616 0.74896 0.0
C4219 C 0.58366 0.01542 0.72086 0.0
C4220 C 0.59617 0.02718 0.72995 0.0
C4221 C 0.58538 0.00782 0.70379 0.0
C4222 C 0.57261 0.99575 0.6928 0.0
C4223 C 0.56121 0.99776 0.68525 0.0
C4224 C 0.54913 0.98631 0.67511 0.0
C4225 C 0.54837 0.97279 0.67231 0.0
C4226 C 0.55969 0.97072 0.67961 0.0
C4227 C 0.57178 0.98214 0.68977 0.0
H4228 H 0.53901 0.96394 0.66446 0.0
H4229 H 0.6563 0.07408 0.76427 0.0
loop_
_geom_bond_atom_site_label_1
_geom_bond_atom_site_label_2
_geom_bond_distance
_geom_bond_site_symmetry_2
_ccdc_geom_bond_type
O0 Cd1 2.223 . S
O0 C8 1.315 . S
Cd1 O0 2.223 . S
Cd1 O4 2.297 . S
Cd1 O5 2.439 . S
Cd1 O11 2.240 1_554 S
Cd2 O3 2.240 . S
Cd2 O10 2.223 1_554 S
Cd2 O12 2.297 1_554 S
Cd2 O13 2.443 . S
O3 Cd2 2.240 . S
O3 C8 1.279 1_655 S
O4 Cd1 2.297 . S
O4 C6 1.247 . S
O5 Cd1 2.439 . S
O5 C6 1.208 . S
C6 O4 1.247 . S
C6 O5 1.208 . S
C7 O12 1.247 . S
C7 O13 1.204 1_556 S
C8 O0 1.315 . S
C8 O3 1.279 1_455 S
C9 O10 1.315 . S
C9 O11 1.279 1_655 S
O10 Cd2 2.223 1_556 S
O10 C9 1.315 . S
O11 Cd1 2.240 1_556 S
O11 C9 1.279 1_455 S
O12 Cd2 2.297 1_556 S
O12 C7 1.247 . S
O13 Cd2 2.443 . S
O13 C7 1.204 1_554 S
O14 Cd15 2.223 . S
O14 C22 1.315 . S
Cd15 O14 2.223 . S
Cd15 O18 2.297 . S
Cd15 O19 2.439 . S
Cd15 O25 2.240 1_554 S
Cd16 O17 2.240 . S
Cd16 O24 2.223 1_554 S
Cd16 O26 2.297 1_554 S
Cd16 O27 2.443 . S
O17 Cd16 2.240 . S
O17 C22 1.279 . S
O18 Cd15 2.297 . S
O18 C20 1.247 . S
O19 Cd15 2.439 . S
O19 C20 1.208 . S
C20 O18 1.247 . S
C20 O19 1.208 . S
C21 O26 1.247 . S
C21 O27 1.204 1_556 S
C22 O14 1.315 . S
C22 O17 1.279 . S
C23 O24 1.315 . S
C23 O25 1.279 . S
O24 Cd16 2.223 1_556 S
O24 C23 1.315 . S
O25 Cd15 2.240 1_556 S
O25 C23 1.279 . S
O26 Cd16 2.297 1_556 S
O26 C21 1.247 . S
O27 Cd16 2.443 . S
O27 C21 1.204 1_554 S
O28 Cd29 2.223 1_556 S
O28 C36 1.315 . S
Cd29 O28 2.223 1_554 S
Cd29 O32 2.297 1_554 S
Cd29 O33 2.447 . S
Cd29 O39 2.240 . S
Cd30 O31 2.240 1_554 S
Cd30 O38 2.223 . S
Cd30 O40 2.297 . S
Cd30 O41 2.439 . S
O31 Cd30 2.240 1_556 S
O31 C36 1.279 1_565 S
O32 Cd29 2.297 1_556 S
O32 C34 1.247 . S
O33 Cd29 2.447 . S
O33 C34 1.199 1_554 S
C34 O32 1.247 . S
C34 O33 1.199 1_556 S
C35 O40 1.247 . S
C35 O41 1.208 . S
C36 O28 1.315 . S
C36 O31 1.279 1_545 S
C37 O38 1.315 . S
C37 O39 1.279 1_565 S
O38 Cd30 2.223 . S
O38 C37 1.315 . S
O39 Cd29 2.240 . S
O39 C37 1.279 1_545 S
O40 Cd30 2.297 . S
O40 C35 1.247 . S
O41 Cd30 2.439 . S
O41 C35 1.208 . S
O42 Cd43 2.223 1_556 S
O42 C50 1.315 . S
Cd43 O42 2.223 1_554 S
Cd43 O46 2.297 1_554 S
Cd43 O47 2.418 1_554 S
Cd43 O53 2.240 . S
Cd44 O45 2.240 1_554 S
Cd44 O52 2.223 . S
Cd44 O54 2.297 . S
Cd44 O55 2.439 . S
O45 Cd44 2.240 1_556 S
O45 C50 1.279 1_455 S
O46 Cd43 2.297 1_556 S
O46 C48 1.247 . S
O47 Cd43 2.418 1_556 S
O47 C48 1.234 . S
C48 O46 1.247 . S
C48 O47 1.234 . S
C49 O54 1.247 . S
C49 O55 1.208 . S
C50 O42 1.315 . S
C50 O45 1.279 1_655 S
C51 O52 1.315 . S
C51 O53 1.279 1_455 S
O52 Cd44 2.223 . S
O52 C51 1.315 . S
O53 Cd43 2.240 . S
O53 C51 1.279 1_655 S
O54 Cd44 2.297 . S
O54 C49 1.247 . S
O55 Cd44 2.439 . S
O55 C49 1.208 . S
O56 Cd57 2.223 1_556 S
O56 C64 1.315 . S
Cd57 O56 2.223 1_554 S
Cd57 O60 2.297 1_554 S
Cd57 O61 2.420 1_554 S
Cd57 O67 2.240 . S
Cd58 O59 2.240 1_554 S
Cd58 O66 2.223 . S
Cd58 O68 2.297 . S
Cd58 O69 2.439 . S
O59 Cd58 2.240 1_556 S
O59 C64 1.279 . S
O60 Cd57 2.297 1_556 S
O60 C62 1.247 . S
O61 Cd57 2.420 1_556 S
O61 C62 1.232 . S
C62 O60 1.247 . S
C62 O61 1.232 . S
C63 O68 1.247 . S
C63 O69 1.208 . S
C64 O56 1.315 . S
C64 O59 1.279 . S
C65 O66 1.315 . S
C65 O67 1.279 . S
O66 Cd58 2.223 . S
O66 C65 1.315 . S
O67 Cd57 2.240 . S
O67 C65 1.279 . S
O68 Cd58 2.297 . S
O68 C63 1.247 . S
O69 Cd58 2.439 . S
O69 C63 1.208 . S
O70 Cd71 2.223 . S
O70 C78 1.315 . S
Cd71 O70 2.223 . S
Cd71 O74 2.297 . S
Cd71 O75 2.439 . S
Cd71 O81 2.240 1_554 S
Cd72 O73 2.240 . S
Cd72 O80 2.223 1_554 S
Cd72 O82 2.297 1_554 S
Cd72 O83 2.426 1_554 S
O73 Cd72 2.240 . S
O73 C78 1.279 1_545 S
O74 Cd71 2.297 . S
O74 C76 1.247 . S
O75 Cd71 2.439 . S
O75 C76 1.208 . S
C76 O74 1.247 . S
C76 O75 1.208 . S
C77 O82 1.247 . S
C77 O83 1.224 . S
C78 O70 1.315 . S
C78 O73 1.279 1_565 S
C79 O80 1.315 . S
C79 O81 1.279 1_545 S
O80 Cd72 2.223 1_556 S
O80 C79 1.315 . S
O81 Cd71 2.240 1_556 S
O81 C79 1.279 1_565 S
O82 Cd72 2.297 1_556 S
O82 C77 1.247 . S
O83 Cd72 2.426 1_556 S
O83 C77 1.224 . S
O84 Cd85 2.223 . S
O84 C92 1.315 . S
Cd85 O84 2.223 . S
Cd85 O88 2.297 . S
Cd85 O89 2.439 . S
Cd85 O95 2.240 . S
Cd86 O87 2.240 . S
Cd86 O94 2.223 . S
Cd86 O96 2.297 . S
Cd86 O97 2.439 . S
O87 Cd86 2.240 . S
O87 C92 1.279 . S
O88 Cd85 2.297 . S
O88 C90 1.247 . S
O89 Cd85 2.439 . S
O89 C90 1.208 . S
C90 O88 1.247 . S
C90 O89 1.208 . S
C91 O96 1.247 . S
C91 O97 1.208 . S
C92 O84 1.315 . S
C92 O87 1.279 . S
C93 O94 1.315 . S
C93 O95 1.279 . S
O94 Cd86 2.223 . S
O94 C93 1.315 . S
O95 Cd85 2.240 . S
O95 C93 1.279 . S
O96 Cd86 2.297 . S
O96 C91 1.247 . S
O97 Cd86 2.439 . S
O97 C91 1.208 . S
O98 Cd99 2.223 . S
O98 C106 1.315 . S
Cd99 O98 2.223 . S
Cd99 O102 2.297 1_565 S
Cd99 O103 2.439 1_565 S
Cd99 O109 2.240 . S
Cd100 O101 2.240 . S
Cd100 O108 2.223 . S
Cd100 O110 2.297 . S
Cd100 O111 2.439 . S
O101 Cd100 2.240 . S
O101 C106 1.279 . S
O102 Cd99 2.297 1_545 S
O102 C104 1.247 . S
O103 Cd99 2.439 1_545 S
O103 C104 1.208 . S
C104 O102 1.247 . S
C104 O103 1.208 . S
C105 O110 1.247 . S
C105 O111 1.208 . S
C106 O98 1.315 . S
C106 O101 1.279 . S
C107 O108 1.315 . S
C107 O109 1.279 . S
O108 Cd100 2.223 . S
O108 C107 1.315 . S
O109 Cd99 2.240 . S
O109 C107 1.279 . S
O110 Cd100 2.297 . S
O110 C105 1.247 . S
O111 Cd100 2.439 . S
O111 C105 1.208 . S
O112 Cd113 2.223 . S
O112 C120 1.315 . S
Cd113 O112 2.223 . S
Cd113 O116 2.297 . S
Cd113 O117 2.439 . S
Cd113 O123 2.240 . S
Cd114 O115 2.240 . S
Cd114 O122 2.223 . S
Cd114 O124 2.297 1_455 S
Cd114 O125 2.439 1_455 S
O115 Cd114 2.240 . S
O115 C120 1.279 . S
O116 Cd113 2.297 . S
O116 C118 1.247 . S
O117 Cd113 2.439 . S
O117 C118 1.208 . S
C118 O116 1.247 . S
C118 O117 1.208 . S
C119 O124 1.247 . S
C119 O125 1.208 . S
C120 O112 1.315 . S
C120 O115 1.279 . S
C121 O122 1.315 . S
C121 O123 1.279 . S
O122 Cd114 2.223 . S
O122 C121 1.315 . S
O123 Cd113 2.240 . S
O123 C121 1.279 . S
O124 Cd114 2.297 1_655 S
O124 C119 1.247 . S
O125 Cd114 2.439 1_655 S
O125 C119 1.208 . S
O126 Cd127 2.223 . S
O126 C134 1.315 . S
Cd127 O126 2.223 . S
Cd127 O130 2.297 . S
Cd127 O131 2.439 . S
Cd127 O137 2.240 . S
Cd128 O129 2.240 . S
Cd128 O136 2.223 . S
Cd128 O138 2.297 1_565 S
Cd128 O139 2.439 1_565 S
O129 Cd128 2.240 . S
O129 C134 1.279 . S
O130 Cd127 2.297 . S
O130 C132 1.247 . S
O131 Cd127 2.439 . S
O131 C132 1.208 . S
C132 O130 1.247 . S
C132 O131 1.208 . S
C133 O138 1.247 . S
C133 O139 1.208 . S
C134 O126 1.315 . S
C134 O129 1.279 . S
C135 O136 1.315 . S
C135 O137 1.279 . S
O136 Cd128 2.223 . S
O136 C135 1.315 . S
O137 Cd127 2.240 . S
O137 C135 1.279 . S
O138 Cd128 2.297 1_545 S
O138 C133 1.247 . S
O139 Cd128 2.439 1_545 S
O139 C133 1.208 . S
O140 Cd141 2.223 . S
O140 C148 1.315 . S
Cd141 O140 2.223 . S
Cd141 O144 2.297 . S
Cd141 O145 2.439 . S
Cd141 O151 2.240 . S
Cd142 O143 2.240 . S
Cd142 O150 2.223 . S
Cd142 O152 2.297 1_455 S
Cd142 O153 2.439 1_455 S
O143 Cd142 2.240 . S
O143 C148 1.279 . S
O144 Cd141 2.297 . S
O144 C146 1.247 . S
O145 Cd141 2.439 . S
O145 C146 1.208 . S
C146 O144 1.247 . S
C146 O145 1.208 . S
C147 O152 1.247 . S
C147 O153 1.208 . S
C148 O140 1.315 . S
C148 O143 1.279 . S
C149 O150 1.315 . S
C149 O151 1.279 . S
O150 Cd142 2.223 . S
O150 C149 1.315 . S
O151 Cd141 2.240 . S
O151 C149 1.279 . S
O152 Cd142 2.297 1_655 S
O152 C147 1.247 . S
O153 Cd142 2.439 1_655 S
O153 C147 1.208 . S
O154 Cd155 2.223 . S
O154 C162 1.315 . S
Cd155 O154 2.223 . S
Cd155 O158 2.297 . S
Cd155 O159 2.439 . S
Cd155 O165 2.240 . S
Cd156 O157 2.240 . S
Cd156 O164 2.223 . S
Cd156 O166 2.297 . S
Cd156 O167 2.439 . S
O157 Cd156 2.240 . S
O157 C162 1.279 . S
O158 Cd155 2.297 . S
O158 C160 1.247 . S
O159 Cd155 2.439 . S
O159 C160 1.208 . S
C160 O158 1.247 . S
C160 O159 1.208 . S
C161 O166 1.247 . S
C161 O167 1.208 . S
C162 O154 1.315 . S
C162 O157 1.279 . S
C163 O164 1.315 . S
C163 O165 1.279 . S
O164 Cd156 2.223 . S
O164 C163 1.315 . S
O165 Cd155 2.240 . S
O165 C163 1.279 . S
O166 Cd156 2.297 . S
O166 C161 1.247 . S
O167 Cd156 2.439 . S
O167 C161 1.208 . S
O168 Cd169 2.223 . S
O168 C176 1.315 . S
Cd169 O168 2.223 . S
Cd169 O172 2.297 . S
Cd169 O173 2.439 . S
Cd169 O179 2.240 . S
Cd170 O171 2.240 . S
Cd170 O178 2.223 . S
Cd170 O180 2.297 1_545 S
Cd170 O181 2.439 1_545 S
O171 Cd170 2.240 . S
O171 C176 1.279 . S
O172 Cd169 2.297 . S
O172 C174 1.247 . S
O173 Cd169 2.439 . S
O173 C174 1.208 . S
C174 O172 1.247 . S
C174 O173 1.208 . S
C175 O180 1.247 . S
C175 O181 1.208 . S
C176 O168 1.315 . S
C176 O171 1.279 . S
C177 O178 1.315 . S
C177 O179 1.279 . S
O178 Cd170 2.223 . S
O178 C177 1.315 . S
O179 Cd169 2.240 . S
O179 C177 1.279 . S
O180 Cd170 2.297 1_565 S
O180 C175 1.247 . S
O181 Cd170 2.439 1_565 S
O181 C175 1.208 . S
O182 Cd183 2.223 . S
O182 C190 1.315 . S
Cd183 O182 2.223 . S
Cd183 O186 2.297 . S
Cd183 O187 2.439 . S
Cd183 O193 2.240 . S
Cd184 O185 2.240 . S
Cd184 O192 2.223 . S
Cd184 O194 2.297 1_655 S
Cd184 O195 2.439 1_655 S
O185 Cd184 2.240 . S
O185 C190 1.279 . S
O186 Cd183 2.297 . S
O186 C188 1.247 . S
O187 Cd183 2.439 . S
O187 C188 1.208 . S
C188 O186 1.247 . S
C188 O187 1.208 . S
C189 O194 1.247 . S
C189 O195 1.208 . S
C190 O182 1.315 . S
C190 O185 1.279 . S
C191 O192 1.315 . S
C191 O193 1.279 . S
O192 Cd184 2.223 . S
O192 C191 1.315 . S
O193 Cd183 2.240 . S
O193 C191 1.279 . S
O194 Cd184 2.297 1_455 S
O194 C189 1.247 . S
O195 Cd184 2.439 1_455 S
O195 C189 1.208 . S
O196 Cd197 2.223 . S
O196 C204 1.315 . S
Cd197 O196 2.223 . S
Cd197 O200 2.297 . S
Cd197 O201 2.439 . S
Cd197 O207 2.240 . S
Cd198 O199 2.240 . S
Cd198 O206 2.223 . S
Cd198 O208 2.297 . S
Cd198 O209 2.439 . S
O199 Cd198 2.240 . S
O199 C204 1.279 . S
O200 Cd197 2.297 . S
O200 C202 1.247 . S
O201 Cd197 2.439 . S
O201 C202 1.208 . S
C202 O200 1.247 . S
C202 O201 1.208 . S
C203 O208 1.247 . S
C203 O209 1.208 . S
C204 O196 1.315 . S
C204 O199 1.279 . S
C205 O206 1.315 . S
C205 O207 1.279 . S
O206 Cd198 2.223 . S
O206 C205 1.315 . S
O207 Cd197 2.240 . S
O207 C205 1.279 . S
O208 Cd198 2.297 . S
O208 C203 1.247 . S
O209 Cd198 2.439 . S
O209 C203 1.208 . S
O210 Cd211 2.223 . S
O210 C218 1.315 . S
Cd211 O210 2.223 . S
Cd211 O214 2.297 . S
Cd211 O215 2.439 . S
Cd211 O221 2.240 . S
Cd212 O213 2.240 . S
Cd212 O220 2.223 . S
Cd212 O222 2.297 . S
Cd212 O223 2.439 . S
O213 Cd212 2.240 . S
O213 C218 1.279 . S
O214 Cd211 2.297 . S
O214 C216 1.247 . S
O215 Cd211 2.439 . S
O215 C216 1.208 . S
C216 O214 1.247 . S
C216 O215 1.208 . S
C217 O222 1.247 . S
C217 O223 1.208 . S
C218 O210 1.315 . S
C218 O213 1.279 . S
C219 O220 1.315 . S
C219 O221 1.279 . S
O220 Cd212 2.223 . S
O220 C219 1.315 . S
O221 Cd211 2.240 . S
O221 C219 1.279 . S
O222 Cd212 2.297 . S
O222 C217 1.247 . S
O223 Cd212 2.439 . S
O223 C217 1.208 . S
O224 Cd225 2.223 . S
O224 C232 1.315 . S
Cd225 O224 2.223 . S
Cd225 O228 2.297 1_545 S
Cd225 O229 2.439 1_545 S
Cd225 O235 2.240 . S
Cd226 O227 2.240 . S
Cd226 O234 2.223 . S
Cd226 O236 2.297 . S
Cd226 O237 2.439 . S
O227 Cd226 2.240 . S
O227 C232 1.279 . S
O228 Cd225 2.297 1_565 S
O228 C230 1.247 . S
O229 Cd225 2.439 1_565 S
O229 C230 1.208 . S
C230 O228 1.247 . S
C230 O229 1.208 . S
C231 O236 1.247 . S
C231 O237 1.208 . S
C232 O224 1.315 . S
C232 O227 1.279 . S
C233 O234 1.315 . S
C233 O235 1.279 . S
O234 Cd226 2.223 . S
O234 C233 1.315 . S
O235 Cd225 2.240 . S
O235 C233 1.279 . S
O236 Cd226 2.297 . S
O236 C231 1.247 . S
O237 Cd226 2.439 . S
O237 C231 1.208 . S
O238 Cd239 2.223 . S
O238 C246 1.315 . S
Cd239 O238 2.223 . S
Cd239 O242 2.297 . S
Cd239 O243 2.439 . S
Cd239 O249 2.240 . S
Cd240 O241 2.240 . S
Cd240 O248 2.223 . S
Cd240 O250 2.297 1_655 S
Cd240 O251 2.439 1_655 S
O241 Cd240 2.240 . S
O241 C246 1.279 . S
O242 Cd239 2.297 . S
O242 C244 1.247 . S
O243 Cd239 2.439 . S
O243 C244 1.208 . S
C244 O242 1.247 . S
C244 O243 1.208 . S
C245 O250 1.247 . S
C245 O251 1.208 . S
C246 O238 1.315 . S
C246 O241 1.279 . S
C247 O248 1.315 . S
C247 O249 1.279 . S
O248 Cd240 2.223 . S
O248 C247 1.315 . S
O249 Cd239 2.240 . S
O249 C247 1.279 . S
O250 Cd240 2.297 1_455 S
O250 C245 1.247 . S
O251 Cd240 2.439 1_455 S
O251 C245 1.208 . S
H252 C260 0.930 . S
H253 C263 0.930 . S
H254 C265 0.930 . S
H255 C266 0.970 . S
H256 C266 0.970 . S
H257 C268 0.930 . S
H258 C270 0.930 . S
H259 C272 0.930 . S
C260 H252 0.930 . S
C260 C261 1.382 . S
C260 C262 1.426 . S
C261 C260 1.382 . S
C261 C265 1.389 . S
C262 C260 1.426 . S
C262 C263 1.375 . S
C262 C266 1.532 . S
C263 H253 0.930 . S
C263 C262 1.375 . S
C263 C264 1.416 . S
C264 C263 1.416 . S
C264 C265 1.371 . S
C265 H254 0.930 . S
C265 C261 1.389 . S
C265 C264 1.371 . S
C266 H255 0.970 . S
C266 H256 0.970 . S
C266 C262 1.532 . S
C266 C267 1.499 . S
C267 C266 1.499 . S
C267 C268 1.370 . S
C267 C272 1.415 . S
C268 H257 0.930 . S
C268 C267 1.370 . S
C268 C269 1.407 . S
C269 C268 1.407 . S
C269 C270 1.365 . S
C270 H258 0.930 . S
C270 C269 1.365 . S
C270 C271 1.393 . S
C271 C270 1.393 . S
C271 C272 1.387 . S
C272 H259 0.930 . S
C272 C267 1.415 . S
C272 C271 1.387 . S
H273 C281 0.930 . S
H274 C284 0.930 . S
H275 C286 0.930 . S
H276 C287 0.970 . S
H277 C287 0.970 . S
H278 C289 0.930 . S
H279 C291 0.930 . S
H280 C293 0.930 . S
C281 H273 0.930 . S
C281 C282 1.382 . S
C281 C283 1.426 . S
C282 C281 1.382 . S
C282 C286 1.389 . S
C283 C281 1.426 . S
C283 C284 1.375 . S
C283 C287 1.532 . S
C284 H274 0.930 . S
C284 C283 1.375 . S
C284 C285 1.416 . S
C285 C284 1.416 . S
C285 C286 1.371 . S
C286 H275 0.930 . S
C286 C282 1.389 . S
C286 C285 1.371 . S
C287 H276 0.970 . S
C287 H277 0.970 . S
C287 C283 1.532 . S
C287 C288 1.499 . S
C288 C287 1.499 . S
C288 C289 1.370 . S
C288 C293 1.415 . S
C289 H278 0.930 . S
C289 C288 1.370 . S
C289 C290 1.407 . S
C290 C289 1.407 . S
C290 C291 1.365 . S
C291 H279 0.930 . S
C291 C290 1.365 . S
C291 C292 1.393 . S
C292 C291 1.393 . S
C292 C293 1.387 . S
C293 H280 0.930 . S
C293 C288 1.415 . S
C293 C292 1.387 . S
H294 C302 0.930 . S
H295 C305 0.930 . S
H296 C307 0.930 . S
H297 C308 0.970 . S
H298 C308 0.970 . S
H299 C310 0.930 . S
H300 C312 0.930 . S
H301 C314 0.930 . S
C302 H294 0.930 . S
C302 C303 1.382 . S
C302 C304 1.426 . S
C303 C302 1.382 . S
C303 C307 1.389 . S
C304 C302 1.426 . S
C304 C305 1.375 . S
C304 C308 1.532 . S
C305 H295 0.930 . S
C305 C304 1.375 . S
C305 C306 1.416 . S
C306 C305 1.416 . S
C306 C307 1.371 . S
C307 H296 0.930 . S
C307 C303 1.389 . S
C307 C306 1.371 . S
C308 H297 0.970 . S
C308 H298 0.970 . S
C308 C304 1.532 . S
C308 C309 1.499 . S
C309 C308 1.499 . S
C309 C310 1.370 . S
C309 C314 1.415 . S
C310 H299 0.930 . S
C310 C309 1.370 . S
C310 C311 1.407 . S
C311 C310 1.407 . S
C311 C312 1.365 . S
C312 H300 0.930 . S
C312 C311 1.365 . S
C312 C313 1.393 . S
C313 C312 1.393 . S
C313 C314 1.387 . S
C314 H301 0.930 . S
C314 C309 1.415 . S
C314 C313 1.387 . S
H315 C323 0.930 . S
H316 C326 0.930 . S
H317 C328 0.930 . S
H318 C329 0.970 . S
H319 C329 0.970 . S
H320 C331 0.930 . S
H321 C333 0.930 . S
H322 C335 0.930 . S
C323 H315 0.930 . S
C323 C324 1.382 . S
C323 C325 1.426 . S
C324 C323 1.382 . S
C324 C328 1.389 . S
C325 C323 1.426 . S
C325 C326 1.375 . S
C325 C329 1.532 . S
C326 H316 0.930 . S
C326 C325 1.375 . S
C326 C327 1.416 . S
C327 C326 1.416 . S
C327 C328 1.371 . S
C328 H317 0.930 . S
C328 C324 1.389 . S
C328 C327 1.371 . S
C329 H318 0.970 . S
C329 H319 0.970 . S
C329 C325 1.532 . S
C329 C330 1.499 . S
C330 C329 1.499 . S
C330 C331 1.370 . S
C330 C335 1.415 . S
C331 H320 0.930 . S
C331 C330 1.370 . S
C331 C332 1.407 . S
C332 C331 1.407 . S
C332 C333 1.365 . S
C333 H321 0.930 . S
C333 C332 1.365 . S
C333 C334 1.393 . S
C334 C333 1.393 . S
C334 C335 1.387 . S
C335 H322 0.930 . S
C335 C330 1.415 . S
C335 C334 1.387 . S
H336 C344 0.930 . S
H337 C347 0.930 . S
H338 C349 0.930 . S
H339 C350 0.970 . S
H340 C350 0.970 . S
H341 C352 0.930 . S
H342 C354 0.930 . S
H343 C356 0.930 . S
C344 H336 0.930 . S
C344 C345 1.382 . S
C344 C346 1.426 . S
C345 C344 1.382 . S
C345 C349 1.389 . S
C346 C344 1.426 . S
C346 C347 1.375 . S
C346 C350 1.532 . S
C347 H337 0.930 . S
C347 C346 1.375 . S
C347 C348 1.416 . S
C348 C347 1.416 . S
C348 C349 1.371 . S
C349 H338 0.930 . S
C349 C345 1.389 . S
C349 C348 1.371 . S
C350 H339 0.970 . S
C350 H340 0.970 . S
C350 C346 1.532 . S
C350 C351 1.499 . S
C351 C350 1.499 . S
C351 C352 1.370 . S
C351 C356 1.415 . S
C352 H341 0.930 . S
C352 C351 1.370 . S
C352 C353 1.407 . S
C353 C352 1.407 . S
C353 C354 1.365 . S
C354 H342 0.930 . S
C354 C353 1.365 . S
C354 C355 1.393 . S
C355 C354 1.393 . S
C355 C356 1.387 . S
C356 H343 0.930 . S
C356 C351 1.415 . S
C356 C355 1.387 . S
H357 C365 0.930 . S
H358 C368 0.930 . S
H359 C370 0.930 . S
H360 C371 0.970 . S
H361 C371 0.970 . S
H362 C373 0.930 . S
H363 C375 0.930 . S
H364 C377 0.930 . S
C365 H357 0.930 . S
C365 C366 1.382 . S
C365 C367 1.426 . S
C366 C365 1.382 . S
C366 C370 1.389 . S
C367 C365 1.426 . S
C367 C368 1.375 . S
C367 C371 1.532 . S
C368 H358 0.930 . S
C368 C367 1.375 . S
C368 C369 1.416 . S
C369 C368 1.416 . S
C369 C370 1.371 . S
C370 H359 0.930 . S
C370 C366 1.389 . S
C370 C369 1.371 . S
C371 H360 0.970 . S
C371 H361 0.970 . S
C371 C367 1.532 . S
C371 C372 1.499 . S
C372 C371 1.499 . S
C372 C373 1.370 . S
C372 C377 1.415 . S
C373 H362 0.930 . S
C373 C372 1.370 . S
C373 C374 1.407 . S
C374 C373 1.407 . S
C374 C375 1.365 . S
C375 H363 0.930 . S
C375 C374 1.365 . S
C375 C376 1.393 . S
C376 C375 1.393 . S
C376 C377 1.387 . S
C377 H364 0.930 . S
C377 C372 1.415 . S
C377 C376 1.387 . S
H378 C386 0.930 . S
H379 C389 0.930 . S
H380 C391 0.930 . S
H381 C392 0.970 . S
H382 C392 0.970 . S
H383 C394 0.930 . S
H384 C396 0.930 . S
H385 C398 0.930 . S
C386 H378 0.930 . S
C386 C387 1.382 . S
C386 C388 1.426 . S
C387 C386 1.382 . S
C387 C391 1.389 . S
C388 C386 1.426 . S
C388 C389 1.375 . S
C388 C392 1.532 . S
C389 H379 0.930 . S
C389 C388 1.375 . S
C389 C390 1.416 . S
C390 C389 1.416 . S
C390 C391 1.371 . S
C391 H380 0.930 . S
C391 C387 1.389 . S
C391 C390 1.371 . S
C392 H381 0.970 . S
C392 H382 0.970 . S
C392 C388 1.532 . S
C392 C393 1.499 . S
C393 C392 1.499 . S
C393 C394 1.370 . S
C393 C398 1.415 . S
C394 H383 0.930 . S
C394 C393 1.370 . S
C394 C395 1.407 . S
C395 C394 1.407 . S
C395 C396 1.365 . S
C396 H384 0.930 . S
C396 C395 1.365 . S
C396 C397 1.393 . S
C397 C396 1.393 . S
C397 C398 1.387 . S
C398 H385 0.930 . S
C398 C393 1.415 . S
C398 C397 1.387 . S
H399 C407 0.930 . S
H400 C410 0.930 . S
H401 C412 0.930 . S
H402 C413 0.970 . S
H403 C413 0.970 . S
H404 C415 0.930 . S
H405 C417 0.930 . S
H406 C419 0.930 . S
C407 H399 0.930 . S
C407 C408 1.382 . S
C407 C409 1.426 . S
C408 C407 1.382 . S
C408 C412 1.389 . S
C409 C407 1.426 . S
C409 C410 1.375 . S
C409 C413 1.532 . S
C410 H400 0.930 . S
C410 C409 1.375 . S
C410 C411 1.416 . S
C411 C410 1.416 . S
C411 C412 1.371 . S
C412 H401 0.930 . S
C412 C408 1.389 . S
C412 C411 1.371 . S
C413 H402 0.970 . S
C413 H403 0.970 . S
C413 C409 1.532 . S
C413 C414 1.499 . S
C414 C413 1.499 . S
C414 C415 1.370 . S
C414 C419 1.415 . S
C415 H404 0.930 . S
C415 C414 1.370 . S
C415 C416 1.407 . S
C416 C415 1.407 . S
C416 C417 1.365 . S
C417 H405 0.930 . S
C417 C416 1.365 . S
C417 C418 1.393 . S
C418 C417 1.393 . S
C418 C419 1.387 . S
C419 H406 0.930 . S
C419 C414 1.415 . S
C419 C418 1.387 . S
H420 C428 0.930 . S
H421 C431 0.930 . S
H422 C433 0.930 . S
H423 C434 0.970 . S
H424 C434 0.970 . S
H425 C436 0.930 . S
H426 C438 0.930 . S
H427 C440 0.930 . S
C428 H420 0.930 . S
C428 C429 1.382 . S
C428 C430 1.426 . S
C429 C428 1.382 . S
C429 C433 1.389 . S
C430 C428 1.426 . S
C430 C431 1.375 . S
C430 C434 1.532 . S
C431 H421 0.930 . S
C431 C430 1.375 . S
C431 C432 1.416 . S
C432 C431 1.416 . S
C432 C433 1.371 . S
C433 H422 0.930 . S
C433 C429 1.389 . S
C433 C432 1.371 . S
C434 H423 0.970 . S
C434 H424 0.970 . S
C434 C430 1.532 . S
C434 C435 1.499 . S
C435 C434 1.499 . S
C435 C436 1.370 . S
C435 C440 1.415 . S
C436 H425 0.930 . S
C436 C435 1.370 . S
C436 C437 1.407 . S
C437 C436 1.407 . S
C437 C438 1.365 . S
C438 H426 0.930 . S
C438 C437 1.365 . S
C438 C439 1.393 . S
C439 C438 1.393 . S
C439 C440 1.387 . S
C440 H427 0.930 . S
C440 C435 1.415 . S
C440 C439 1.387 . S
H441 C449 0.930 . S
H442 C452 0.930 . S
H443 C454 0.930 . S
H444 C455 0.970 . S
H445 C455 0.970 . S
H446 C457 0.930 . S
H447 C459 0.930 . S
H448 C461 0.930 . S
C449 H441 0.930 . S
C449 C450 1.382 . S
C449 C451 1.426 . S
C450 C449 1.382 . S
C450 C454 1.389 1_455 S
C451 C449 1.426 . S
C451 C452 1.375 . S
C451 C455 1.532 . S
C452 H442 0.930 . S
C452 C451 1.375 . S
C452 C453 1.416 . S
C453 C452 1.416 . S
C453 C454 1.371 1_455 S
C454 H443 0.930 . S
C454 C450 1.389 1_655 S
C454 C453 1.371 1_655 S
C455 H444 0.970 . S
C455 H445 0.970 . S
C455 C451 1.532 . S
C455 C456 1.499 . S
C456 C455 1.499 . S
C456 C457 1.370 . S
C456 C461 1.415 . S
C457 H446 0.930 . S
C457 C456 1.370 . S
C457 C458 1.412 . S
C458 C457 1.412 . S
C458 C459 1.370 1_455 S
C459 H447 0.930 . S
C459 C458 1.370 1_655 S
C459 C460 1.393 1_655 S
C460 C459 1.393 1_455 S
C460 C461 1.387 . S
C461 H448 0.930 . S
C461 C456 1.415 . S
C461 C460 1.387 . S
H462 C470 0.930 . S
H463 C473 0.930 . S
H464 C475 0.930 . S
H465 C476 0.970 . S
H466 C476 0.970 . S
H467 C478 0.930 . S
H468 C480 0.930 . S
H469 C482 0.930 . S
C470 H462 0.930 . S
C470 C471 1.382 . S
C470 C472 1.426 . S
C471 C470 1.382 . S
C471 C475 1.389 . S
C472 C470 1.426 . S
C472 C473 1.375 . S
C472 C476 1.532 . S
C473 H463 0.930 . S
C473 C472 1.375 . S
C473 C474 1.416 . S
C474 C473 1.416 . S
C474 C475 1.371 . S
C475 H464 0.930 . S
C475 C471 1.389 . S
C475 C474 1.371 . S
C476 H465 0.970 . S
C476 H466 0.970 . S
C476 C472 1.532 . S
C476 C477 1.499 . S
C477 C476 1.499 . S
C477 C478 1.370 . S
C477 C482 1.415 . S
C478 H467 0.930 . S
C478 C477 1.370 . S
C478 C479 1.407 . S
C479 C478 1.407 . S
C479 C480 1.365 . S
C480 H468 0.930 . S
C480 C479 1.365 . S
C480 C481 1.393 . S
C481 C480 1.393 . S
C481 C482 1.387 . S
C482 H469 0.930 . S
C482 C477 1.415 . S
C482 C481 1.387 . S
H483 C491 0.930 . S
H484 C494 0.930 . S
H485 C496 0.930 . S
H486 C497 0.970 . S
H487 C497 0.970 . S
H488 C499 0.930 . S
H489 C501 0.930 . S
H490 C503 0.930 . S
C491 H483 0.930 . S
C491 C492 1.382 . S
C491 C493 1.426 . S
C492 C491 1.382 . S
C492 C496 1.389 1_565 S
C493 C491 1.426 . S
C493 C494 1.375 . S
C493 C497 1.532 . S
C494 H484 0.930 . S
C494 C493 1.375 . S
C494 C495 1.416 . S
C495 C494 1.416 . S
C495 C496 1.371 1_565 S
C496 H485 0.930 . S
C496 C492 1.389 1_545 S
C496 C495 1.371 1_545 S
C497 H486 0.970 . S
C497 H487 0.970 . S
C497 C493 1.532 . S
C497 C498 1.499 . S
C498 C497 1.499 . S
C498 C499 1.370 . S
C498 C503 1.415 . S
C499 H488 0.930 . S
C499 C498 1.370 . S
C499 C500 1.459 . S
C500 C499 1.459 . S
C500 C501 1.344 1_565 S
C501 H489 0.930 . S
C501 C500 1.344 1_545 S
C501 C502 1.393 1_545 S
C502 C501 1.393 1_565 S
C502 C503 1.387 . S
C503 H490 0.930 . S
C503 C498 1.415 . S
C503 C502 1.387 . S
H504 C512 0.930 . S
H505 C515 0.930 . S
H506 C517 0.930 . S
H507 C518 0.970 . S
H508 C518 0.970 . S
H509 C520 0.930 . S
H510 C522 0.930 . S
H511 C524 0.930 . S
C512 H504 0.930 . S
C512 C513 1.382 . S
C512 C514 1.426 . S
C513 C512 1.382 . S
C513 C517 1.389 1_565 S
C514 C512 1.426 . S
C514 C515 1.375 . S
C514 C518 1.532 . S
C515 H505 0.930 . S
C515 C514 1.375 . S
C515 C516 1.416 . S
C516 C515 1.416 . S
C516 C517 1.371 1_565 S
C517 H506 0.930 . S
C517 C513 1.389 1_545 S
C517 C516 1.371 1_545 S
C518 H507 0.970 . S
C518 H508 0.970 . S
C518 C514 1.532 . S
C518 C519 1.499 . S
C519 C518 1.499 . S
C519 C520 1.370 . S
C519 C524 1.415 . S
C520 H509 0.930 . S
C520 C519 1.370 . S
C520 C521 1.407 . S
C521 C520 1.407 . S
C521 C522 1.365 1_565 S
C522 H510 0.930 . S
C522 C521 1.365 1_545 S
C522 C523 1.393 1_545 S
C523 C522 1.393 1_565 S
C523 C524 1.387 . S
C524 H511 0.930 . S
C524 C519 1.415 . S
C524 C523 1.387 . S
H525 C533 0.930 . S
H526 C536 0.930 . S
H527 C538 0.930 . S
H528 C539 0.970 . S
H529 C539 0.970 . S
H530 C541 0.930 . S
H531 C543 0.930 . S
H532 C545 0.930 . S
C533 H525 0.930 . S
C533 C534 1.382 . S
C533 C535 1.426 . S
C534 C533 1.382 . S
C534 C538 1.389 1_455 S
C535 C533 1.426 . S
C535 C536 1.375 . S
C535 C539 1.532 . S
C536 H526 0.930 . S
C536 C535 1.375 . S
C536 C537 1.416 . S
C537 C536 1.416 . S
C537 C538 1.371 1_455 S
C538 H527 0.930 . S
C538 C534 1.389 1_655 S
C538 C537 1.371 1_655 S
C539 H528 0.970 . S
C539 H529 0.970 . S
C539 C535 1.532 . S
C539 C540 1.499 . S
C540 C539 1.499 . S
C540 C541 1.370 . S
C540 C545 1.415 . S
C541 H530 0.930 . S
C541 C540 1.370 . S
C541 C542 1.407 . S
C542 C541 1.407 . S
C542 C543 1.365 1_455 S
C543 H531 0.930 . S
C543 C542 1.365 1_655 S
C543 C544 1.393 1_655 S
C544 C543 1.393 1_455 S
C544 C545 1.387 . S
C545 H532 0.930 . S
C545 C540 1.415 . S
C545 C544 1.387 . S
H546 C554 0.930 . S
H547 C557 0.930 . S
H548 C559 0.930 . S
H549 C560 0.970 . S
H550 C560 0.970 . S
H551 C562 0.930 . S
H552 C564 0.930 . S
H553 C566 0.930 . S
C554 H546 0.930 . S
C554 C555 1.382 . S
C554 C556 1.426 . S
C555 C554 1.382 . S
C555 C559 1.389 . S
C556 C554 1.426 . S
C556 C557 1.375 . S
C556 C560 1.532 . S
C557 H547 0.930 . S
C557 C556 1.375 . S
C557 C558 1.416 . S
C558 C557 1.416 . S
C558 C559 1.371 . S
C559 H548 0.930 . S
C559 C555 1.389 . S
C559 C558 1.371 . S
C560 H549 0.970 . S
C560 H550 0.970 . S
C560 C556 1.532 . S
C560 C561 1.499 . S
C561 C560 1.499 . S
C561 C562 1.370 . S
C561 C566 1.415 . S
C562 H551 0.930 . S
C562 C561 1.370 . S
C562 C563 1.407 . S
C563 C562 1.407 . S
C563 C564 1.365 . S
C564 H552 0.930 . S
C564 C563 1.365 . S
C564 C565 1.393 . S
C565 C564 1.393 . S
C565 C566 1.387 . S
C566 H553 0.930 . S
C566 C561 1.415 . S
C566 C565 1.387 . S
H567 C575 0.930 . S
H568 C578 0.930 . S
H569 C580 0.930 . S
H570 C581 0.970 . S
H571 C581 0.970 . S
H572 C583 0.930 . S
H573 C585 0.930 . S
H574 C587 0.930 . S
C575 H567 0.930 . S
C575 C576 1.382 . S
C575 C577 1.426 . S
C576 C575 1.382 . S
C576 C580 1.389 . S
C577 C575 1.426 . S
C577 C578 1.375 . S
C577 C581 1.532 . S
C578 H568 0.930 . S
C578 C577 1.375 . S
C578 C579 1.416 . S
C579 C578 1.416 . S
C579 C580 1.371 . S
C580 H569 0.930 . S
C580 C576 1.389 . S
C580 C579 1.371 . S
C581 H570 0.970 . S
C581 H571 0.970 . S
C581 C577 1.532 . S
C581 C582 1.499 . S
C582 C581 1.499 . S
C582 C583 1.370 . S
C582 C587 1.415 . S
C583 H572 0.930 . S
C583 C582 1.370 . S
C583 C584 1.407 . S
C584 C583 1.407 . S
C584 C585 1.365 . S
C585 H573 0.930 . S
C585 C584 1.365 . S
C585 C586 1.393 . S
C586 C585 1.393 . S
C586 C587 1.387 . S
C587 H574 0.930 . S
C587 C582 1.415 . S
C587 C586 1.387 . S
H588 C596 0.930 . S
H589 C599 0.930 . S
H590 C601 0.930 . S
H591 C602 0.970 . S
H592 C602 0.970 . S
H593 C604 0.930 . S
H594 C606 0.930 . S
H595 C608 0.930 . S
C596 H588 0.930 . S
C596 C597 1.382 . S
C596 C598 1.426 . S
C597 C596 1.382 . S
C597 C601 1.389 . S
C598 C596 1.426 . S
C598 C599 1.375 . S
C598 C602 1.532 . S
C599 H589 0.930 . S
C599 C598 1.375 . S
C599 C600 1.416 . S
C600 C599 1.416 . S
C600 C601 1.371 . S
C601 H590 0.930 . S
C601 C597 1.389 . S
C601 C600 1.371 . S
C602 H591 0.970 . S
C602 H592 0.970 . S
C602 C598 1.532 . S
C602 C603 1.499 . S
C603 C602 1.499 . S
C603 C604 1.370 . S
C603 C608 1.415 . S
C604 H593 0.930 . S
C604 C603 1.370 . S
C604 C605 1.407 . S
C605 C604 1.407 . S
C605 C606 1.365 . S
C606 H594 0.930 . S
C606 C605 1.365 . S
C606 C607 1.393 . S
C607 C606 1.393 . S
C607 C608 1.387 . S
C608 H595 0.930 . S
C608 C603 1.415 . S
C608 C607 1.387 . S
H609 C617 0.930 . S
H610 C620 0.930 . S
H611 C622 0.930 . S
H612 C623 0.970 . S
H613 C623 0.970 . S
H614 C625 0.930 . S
H615 C627 0.930 . S
H616 C629 0.930 . S
C617 H609 0.930 . S
C617 C618 1.382 . S
C617 C619 1.426 . S
C618 C617 1.382 . S
C618 C622 1.389 . S
C619 C617 1.426 . S
C619 C620 1.375 . S
C619 C623 1.532 . S
C620 H610 0.930 . S
C620 C619 1.375 . S
C620 C621 1.416 . S
C621 C620 1.416 . S
C621 C622 1.371 . S
C622 H611 0.930 . S
C622 C618 1.389 . S
C622 C621 1.371 . S
C623 H612 0.970 . S
C623 H613 0.970 . S
C623 C619 1.532 . S
C623 C624 1.499 . S
C624 C623 1.499 . S
C624 C625 1.370 . S
C624 C629 1.415 . S
C625 H614 0.930 . S
C625 C624 1.370 . S
C625 C626 1.407 . S
C626 C625 1.407 . S
C626 C627 1.365 . S
C627 H615 0.930 . S
C627 C626 1.365 . S
C627 C628 1.393 . S
C628 C627 1.393 . S
C628 C629 1.387 . S
C629 H616 0.930 . S
C629 C624 1.415 . S
C629 C628 1.387 . S
H630 C648 0.951 . S
H631 C650 0.951 . S
H632 C652 0.950 . S
H633 C653 0.950 . S
H634 C655 0.950 . S
H635 C658 0.950 . S
H636 C659 0.950 . S
H637 C661 0.950 . S
H638 C662 0.950 . S
H639 C663 0.951 . S
H640 C665 0.951 . S
H641 C667 0.950 . S
H642 C668 0.950 . S
H643 C670 0.950 . S
H644 C673 0.950 . S
H645 C674 0.950 . S
H646 C676 0.950 . S
H647 C677 0.950 . S
C648 H630 0.951 . S
C648 C649 1.317 1_655 S
C648 C650 1.388 . S
C649 C648 1.317 1_455 S
C649 C653 1.408 . S
C650 H631 0.951 . S
C650 C648 1.388 . S
C650 C651 1.346 1_655 S
C651 C650 1.346 1_455 S
C651 C652 1.464 . S
C651 C654 1.491 . S
C652 H632 0.950 . S
C652 C651 1.464 . S
C652 C653 1.374 . S
C653 H633 0.950 . S
C653 C649 1.408 . S
C653 C652 1.374 . S
C654 C651 1.491 . S
C654 C655 1.357 1_455 S
C654 C656 1.383 . S
C655 H634 0.950 . S
C655 C654 1.357 1_655 S
C655 C671 1.377 . S
C656 C654 1.383 . S
C656 C657 1.524 . S
C656 C670 1.377 . S
C657 C656 1.524 . S
C657 C658 1.397 . S
C657 C662 1.363 . S
C658 H635 0.950 . S
C658 C657 1.397 . S
C658 C659 1.334 . S
C659 H636 0.950 . S
C659 C658 1.334 . S
C659 C660 1.287 . S
C660 C659 1.287 . S
C660 C661 1.524 . S
C660 H679 0.913 . S
C661 H637 0.950 . S
C661 C660 1.524 . S
C661 C662 1.415 . S
C662 H638 0.950 . S
C662 C657 1.363 . S
C662 C661 1.415 . S
C663 H639 0.951 . S
C663 C664 1.366 1_455 S
C663 C665 1.388 . S
C664 C663 1.366 1_655 S
C664 C668 1.385 . S
C665 H640 0.951 . S
C665 C663 1.388 . S
C665 C666 1.366 1_455 S
C666 C665 1.366 1_655 S
C666 C667 1.414 . S
C666 C669 1.499 . S
C667 H641 0.950 . S
C667 C666 1.414 . S
C667 C668 1.374 . S
C668 H642 0.950 . S
C668 C664 1.385 . S
C668 C667 1.374 . S
C669 C666 1.499 . S
C669 C670 1.373 1_655 S
C669 C671 1.389 . S
C670 H643 0.950 . S
C670 C656 1.377 . S
C670 C669 1.373 1_455 S
C671 C655 1.377 . S
C671 C669 1.389 . S
C671 C672 1.524 . S
C672 C671 1.524 . S
C672 C673 1.397 . S
C672 C677 1.363 . S
C673 H644 0.950 . S
C673 C672 1.397 . S
C673 C674 1.334 . S
C674 H645 0.950 . S
C674 C673 1.334 . S
C674 C675 1.287 . S
C675 C674 1.287 . S
C675 C676 1.524 . S
C675 H678 0.999 . S
C676 H646 0.950 . S
C676 C675 1.524 . S
C676 C677 1.415 . S
C677 H647 0.950 . S
C677 C672 1.363 . S
C677 C676 1.415 . S
H678 C675 0.999 . S
H679 C660 0.913 . S
H680 C698 0.951 . S
H681 C700 0.951 . S
H682 C702 0.950 . S
H683 C703 0.950 . S
H684 C705 0.950 . S
H685 C708 0.950 . S
H686 C709 0.950 . S
H687 C711 0.950 . S
H688 C712 0.950 . S
H689 C713 0.951 . S
H690 C715 0.951 . S
H691 C717 0.950 . S
H692 C718 0.950 . S
H693 C720 0.950 . S
H694 C723 0.950 . S
H695 C724 0.950 . S
H696 C726 0.950 . S
H697 C727 0.950 . S
C698 H680 0.951 . S
C698 C699 1.366 . S
C698 C700 1.388 . S
C699 C698 1.366 . S
C699 C703 1.385 . S
C700 H681 0.951 . S
C700 C698 1.388 . S
C700 C701 1.366 . S
C701 C700 1.366 . S
C701 C702 1.414 . S
C701 C704 1.499 . S
C702 H682 0.950 . S
C702 C701 1.414 . S
C702 C703 1.374 . S
C703 H683 0.950 . S
C703 C699 1.385 . S
C703 C702 1.374 . S
C704 C701 1.499 . S
C704 C705 1.373 . S
C704 C706 1.389 . S
C705 H684 0.950 . S
C705 C704 1.373 . S
C705 C721 1.377 . S
C706 C704 1.389 . S
C706 C707 1.524 . S
C706 C720 1.377 . S
C707 C706 1.524 . S
C707 C708 1.397 . S
C707 C712 1.363 . S
C708 H685 0.950 . S
C708 C707 1.397 . S
C708 C709 1.334 . S
C709 H686 0.950 . S
C709 C708 1.334 . S
C709 C710 1.287 . S
C710 C709 1.287 . S
C710 C711 1.524 . S
C710 H729 0.913 . S
C711 H687 0.950 . S
C711 C710 1.524 . S
C711 C712 1.415 . S
C712 H688 0.950 . S
C712 C707 1.363 . S
C712 C711 1.415 . S
C713 H689 0.951 . S
C713 C714 1.366 . S
C713 C715 1.388 . S
C714 C713 1.366 . S
C714 C718 1.385 . S
C715 H690 0.951 . S
C715 C713 1.388 . S
C715 C716 1.366 . S
C716 C715 1.366 . S
C716 C717 1.414 . S
C716 C719 1.499 . S
C717 H691 0.950 . S
C717 C716 1.414 . S
C717 C718 1.374 . S
C718 H692 0.950 . S
C718 C714 1.385 . S
C718 C717 1.374 . S
C719 C716 1.499 . S
C719 C720 1.373 . S
C719 C721 1.389 . S
C720 H693 0.950 . S
C720 C706 1.377 . S
C720 C719 1.373 . S
C721 C705 1.377 . S
C721 C719 1.389 . S
C721 C722 1.524 . S
C722 C721 1.524 . S
C722 C723 1.397 . S
C722 C727 1.363 . S
C723 H694 0.950 . S
C723 C722 1.397 . S
C723 C724 1.334 . S
C724 H695 0.950 . S
C724 C723 1.334 . S
C724 C725 1.287 . S
C725 C724 1.287 . S
C725 C726 1.524 . S
C725 H728 0.999 . S
C726 H696 0.950 . S
C726 C725 1.524 . S
C726 C727 1.415 . S
C727 H697 0.950 . S
C727 C722 1.363 . S
C727 C726 1.415 . S
H728 C725 0.999 . S
H729 C710 0.913 . S
H730 C748 0.952 . S
H731 C750 0.963 . S
H732 C752 0.950 . S
H733 C753 0.919 . S
H734 C755 0.950 . S
H735 C758 0.950 . S
H736 C759 0.950 . S
H737 C761 0.950 . S
H738 C762 0.950 . S
H739 C763 0.951 . S
H740 C765 0.951 . S
H741 C767 0.950 . S
H742 C768 0.950 . S
H743 C770 0.950 . S
H744 C773 0.950 . S
H745 C774 0.950 . S
H746 C776 0.950 . S
H747 C777 0.950 . S
C748 H730 0.952 . S
C748 C749 1.380 . S
C748 C750 1.387 . S
C749 C748 1.380 . S
C749 C753 1.386 . S
C750 H731 0.963 . S
C750 C748 1.387 . S
C750 C751 1.367 . S
C751 C750 1.367 . S
C751 C752 1.415 . S
C751 C754 1.511 . S
C752 H732 0.950 . S
C752 C751 1.415 . S
C752 C753 1.379 . S
C753 H733 0.919 . S
C753 C749 1.386 . S
C753 C752 1.379 . S
C754 C751 1.511 . S
C754 C755 1.357 1_565 S
C754 C756 1.416 . S
C755 H734 0.950 . S
C755 C754 1.357 1_545 S
C755 C771 1.377 . S
C756 C754 1.416 . S
C756 C757 1.524 . S
C756 C770 1.377 . S
C757 C756 1.524 . S
C757 C758 1.397 . S
C757 C762 1.363 . S
C758 H735 0.950 . S
C758 C757 1.397 . S
C758 C759 1.334 . S
C759 H736 0.950 . S
C759 C758 1.334 . S
C759 C760 1.287 . S
C760 C759 1.287 . S
C760 C761 1.524 . S
C760 H779 0.913 . S
C761 H737 0.950 . S
C761 C760 1.524 . S
C761 C762 1.415 . S
C762 H738 0.950 . S
C762 C757 1.363 . S
C762 C761 1.415 . S
C763 H739 0.951 . S
C763 C764 1.366 . S
C763 C765 1.388 . S
C764 C763 1.366 . S
C764 C768 1.385 . S
C765 H740 0.951 . S
C765 C763 1.388 . S
C765 C766 1.366 . S
C766 C765 1.366 . S
C766 C767 1.414 . S
C766 C769 1.499 . S
C767 H741 0.950 . S
C767 C766 1.414 . S
C767 C768 1.374 . S
C768 H742 0.950 . S
C768 C764 1.385 . S
C768 C767 1.374 . S
C769 C766 1.499 . S
C769 C770 1.373 1_545 S
C769 C771 1.389 . S
C770 H743 0.950 . S
C770 C756 1.377 . S
C770 C769 1.373 1_565 S
C771 C755 1.377 . S
C771 C769 1.389 . S
C771 C772 1.524 . S
C772 C771 1.524 . S
C772 C773 1.397 . S
C772 C777 1.363 . S
C773 H744 0.950 . S
C773 C772 1.397 . S
C773 C774 1.334 . S
C774 H745 0.950 . S
C774 C773 1.334 . S
C774 C775 1.287 . S
C775 C774 1.287 . S
C775 C776 1.524 . S
C775 H778 0.999 . S
C776 H746 0.950 . S
C776 C775 1.524 . S
C776 C777 1.415 . S
C777 H747 0.950 . S
C777 C772 1.363 . S
C777 C776 1.415 . S
H778 C775 0.999 . S
H779 C760 0.913 . S
H780 C798 0.951 . S
H781 C800 0.951 . S
H782 C802 0.950 . S
H783 C803 0.950 . S
H784 C805 0.950 . S
H785 C808 0.950 . S
H786 C809 0.950 . S
H787 C811 1.011 1_554 S
H788 C812 0.950 . S
H789 C813 0.951 . S
H790 C815 0.951 . S
H791 C817 0.950 . S
H792 C818 0.950 . S
H793 C820 0.964 . S
H794 C823 0.950 . S
H795 C824 0.950 . S
H796 C826 0.883 1_545 S
H797 C827 0.950 . S
C798 H780 0.951 . S
C798 C799 1.320 1_565 S
C798 C800 1.388 . S
C799 C798 1.320 1_545 S
C799 C803 1.411 . S
C800 H781 0.951 . S
C800 C798 1.388 . S
C800 C801 1.347 1_565 S
C801 C800 1.347 1_545 S
C801 C802 1.448 . S
C801 C804 1.497 . S
C802 H782 0.950 . S
C802 C801 1.448 . S
C802 C803 1.374 . S
C803 H783 0.950 . S
C803 C799 1.411 . S
C803 C802 1.374 . S
C804 C801 1.497 . S
C804 C805 1.373 1_545 S
C804 C806 1.416 . S
C805 H784 0.950 . S
C805 C804 1.373 1_565 S
C805 C821 1.377 . S
C806 C804 1.416 . S
C806 C807 1.532 . S
C806 C820 1.323 1_545 S
C807 C806 1.532 . S
C807 C808 1.397 . S
C807 C812 1.363 1_545 S
C808 H785 0.950 . S
C808 C807 1.397 . S
C808 C809 1.334 . S
C809 H786 0.950 . S
C809 C808 1.334 . S
C809 C810 1.287 1_556 S
C810 C809 1.287 1_554 S
C810 C811 1.451 1_544 S
C810 H829 0.913 . S
C811 H787 1.011 1_556 S
C811 C810 1.451 1_566 S
C811 C812 1.421 . S
C812 H788 0.950 . S
C812 C807 1.363 1_565 S
C812 C811 1.421 . S
C813 H789 0.951 . S
C813 C814 1.366 1_545 S
C813 C815 1.388 . S
C814 C813 1.366 1_565 S
C814 C818 1.385 . S
C815 H790 0.951 . S
C815 C813 1.388 . S
C815 C816 1.366 1_545 S
C816 C815 1.366 1_565 S
C816 C817 1.414 . S
C816 C819 1.499 . S
C817 H791 0.950 . S
C817 C816 1.414 . S
C817 C818 1.374 . S
C818 H792 0.950 . S
C818 C814 1.385 . S
C818 C817 1.374 . S
C819 C816 1.499 . S
C819 C820 1.374 . S
C819 C821 1.389 . S
C820 H793 0.964 . S
C820 C806 1.323 1_565 S
C820 C819 1.374 . S
C821 C805 1.377 . S
C821 C819 1.389 . S
C821 C822 1.524 . S
C822 C821 1.524 . S
C822 C823 1.397 . S
C822 C827 1.363 1_565 S
C823 H794 0.950 . S
C823 C822 1.397 . S
C823 C824 1.334 . S
C824 H795 0.950 . S
C824 C823 1.334 . S
C824 C825 1.287 . S
C825 C824 1.287 . S
C825 C826 1.608 . S
C825 H828 0.999 . S
C826 H796 0.883 1_565 S
C826 C825 1.608 . S
C826 C827 1.413 1_565 S
C827 H797 0.950 . S
C827 C822 1.363 1_545 S
C827 C826 1.413 1_545 S
H828 C825 0.999 . S
H829 C810 0.913 . S
H830 C848 0.951 . S
H831 C850 0.951 . S
H832 C852 0.950 . S
H833 C853 0.950 . S
H834 C855 0.950 . S
H835 C858 0.950 . S
H836 C859 0.950 . S
H837 C861 0.950 . S
H838 C862 0.950 . S
H839 C863 0.951 . S
H840 C865 0.951 . S
H841 C867 0.950 . S
H842 C868 0.950 . S
H843 C870 0.950 . S
H844 C873 0.950 . S
H845 C874 0.950 . S
H846 C876 0.950 . S
H847 C877 0.951 . S
C848 H830 0.951 . S
C848 C849 1.380 . S
C848 C850 1.388 . S
C849 C848 1.380 . S
C849 C853 1.390 1_655 S
C850 H831 0.951 . S
C850 C848 1.388 . S
C850 C851 1.375 1_655 S
C851 C850 1.375 1_455 S
C851 C852 1.438 . S
C851 C854 1.469 . S
C852 H832 0.950 . S
C852 C851 1.438 . S
C852 C853 1.374 . S
C853 H833 0.950 . S
C853 C849 1.390 1_455 S
C853 C852 1.374 . S
C854 C851 1.469 . S
C854 C855 1.373 1_455 S
C854 C856 1.389 . S
C855 H834 0.950 . S
C855 C854 1.373 1_655 S
C855 C871 1.377 . S
C856 C854 1.389 . S
C856 C857 1.524 . S
C856 C870 1.377 . S
C857 C856 1.524 . S
C857 C858 1.397 . S
C857 C862 1.363 . S
C858 H835 0.950 . S
C858 C857 1.397 . S
C858 C859 1.334 . S
C859 H836 0.950 . S
C859 C858 1.334 . S
C859 C860 1.287 . S
C860 C859 1.287 . S
C860 C861 1.524 . S
C860 H879 0.913 . S
C861 H837 0.950 . S
C861 C860 1.524 . S
C861 C862 1.415 . S
C862 H838 0.950 . S
C862 C857 1.363 . S
C862 C861 1.415 . S
C863 H839 0.951 . S
C863 C864 1.366 . S
C863 C865 1.388 . S
C864 C863 1.366 . S
C864 C868 1.385 1_455 S
C865 H840 0.951 . S
C865 C863 1.388 . S
C865 C866 1.366 . S
C866 C865 1.366 . S
C866 C867 1.414 1_455 S
C866 C869 1.489 . S
C867 H841 0.950 . S
C867 C866 1.414 1_655 S
C867 C868 1.374 . S
C868 H842 0.950 . S
C868 C864 1.385 1_655 S
C868 C867 1.374 . S
C869 C866 1.489 . S
C869 C870 1.394 . S
C869 C871 1.381 1_455 S
C870 H843 0.950 . S
C870 C856 1.377 . S
C870 C869 1.394 . S
C871 C855 1.377 . S
C871 C869 1.381 1_655 S
C871 C872 1.524 . S
C872 C871 1.524 . S
C872 C873 1.397 . S
C872 C877 1.363 . S
C873 H844 0.950 . S
C873 C872 1.397 . S
C873 C874 1.334 . S
C874 H845 0.950 . S
C874 C873 1.334 . S
C874 C875 1.287 . S
C875 C874 1.287 . S
C875 C876 1.524 . S
C875 H878 0.999 . S
C876 H846 0.950 . S
C876 C875 1.524 . S
C876 C877 1.415 . S
C877 H847 0.951 . S
C877 C872 1.363 . S
C877 C876 1.415 . S
H878 C875 0.999 . S
H879 C860 0.913 . S
H880 C898 0.951 . S
H881 C900 0.951 . S
H882 C902 0.950 . S
H883 C903 0.950 . S
H884 C905 0.950 . S
H885 C908 0.950 . S
H886 C909 0.950 . S
H887 C911 0.950 . S
H888 C912 0.950 . S
H889 C913 0.951 . S
H890 C915 0.951 . S
H891 C917 0.950 . S
H892 C918 0.950 . S
H893 C920 0.950 . S
H894 C923 0.950 . S
H895 C924 0.950 . S
H896 C926 0.950 . S
H897 C927 0.950 . S
C898 H880 0.951 . S
C898 C899 1.366 . S
C898 C900 1.388 . S
C899 C898 1.366 . S
C899 C903 1.385 . S
C900 H881 0.951 . S
C900 C898 1.388 . S
C900 C901 1.366 . S
C901 C900 1.366 . S
C901 C902 1.414 . S
C901 C904 1.499 . S
C902 H882 0.950 . S
C902 C901 1.414 . S
C902 C903 1.374 . S
C903 H883 0.950 . S
C903 C899 1.385 . S
C903 C902 1.374 . S
C904 C901 1.499 . S
C904 C905 1.373 . S
C904 C906 1.389 . S
C905 H884 0.950 . S
C905 C904 1.373 . S
C905 C921 1.377 . S
C906 C904 1.389 . S
C906 C907 1.524 . S
C906 C920 1.377 . S
C907 C906 1.524 . S
C907 C908 1.397 . S
C907 C912 1.363 . S
C908 H885 0.950 . S
C908 C907 1.397 . S
C908 C909 1.334 . S
C909 H886 0.950 . S
C909 C908 1.334 . S
C909 C910 1.287 . S
C910 C909 1.287 . S
C910 C911 1.524 . S
C910 H929 0.913 . S
C911 H887 0.950 . S
C911 C910 1.524 . S
C911 C912 1.415 . S
C912 H888 0.950 . S
C912 C907 1.363 . S
C912 C911 1.415 . S
C913 H889 0.951 . S
C913 C914 1.366 . S
C913 C915 1.388 . S
C914 C913 1.366 . S
C914 C918 1.385 . S
C915 H890 0.951 . S
C915 C913 1.388 . S
C915 C916 1.366 . S
C916 C915 1.366 . S
C916 C917 1.414 . S
C916 C919 1.499 . S
C917 H891 0.950 . S
C917 C916 1.414 . S
C917 C918 1.374 . S
C918 H892 0.950 . S
C918 C914 1.385 . S
C918 C917 1.374 . S
C919 C916 1.499 . S
C919 C920 1.373 . S
C919 C921 1.389 . S
C920 H893 0.950 . S
C920 C906 1.377 . S
C920 C919 1.373 . S
C921 C905 1.377 . S
C921 C919 1.389 . S
C921 C922 1.524 . S
C922 C921 1.524 . S
C922 C923 1.397 . S
C922 C927 1.363 . S
C923 H894 0.950 . S
C923 C922 1.397 . S
C923 C924 1.334 . S
C924 H895 0.950 . S
C924 C923 1.334 . S
C924 C925 1.287 . S
C925 C924 1.287 . S
C925 C926 1.524 . S
C925 H928 0.999 . S
C926 H896 0.950 . S
C926 C925 1.524 . S
C926 C927 1.415 . S
C927 H897 0.950 . S
C927 C922 1.363 . S
C927 C926 1.415 . S
H928 C925 0.999 . S
H929 C910 0.913 . S
H930 C948 0.951 . S
H931 C950 0.951 . S
H932 C952 0.950 . S
H933 C953 0.950 . S
H934 C955 0.950 . S
H935 C958 0.950 . S
H936 C959 0.950 . S
H937 C961 0.950 . S
H938 C962 0.950 . S
H939 C963 0.951 . S
H940 C965 0.951 . S
H941 C967 0.950 . S
H942 C968 0.950 . S
H943 C970 0.950 . S
H944 C973 0.950 . S
H945 C974 0.950 . S
H946 C976 0.950 . S
H947 C977 0.950 . S
C948 H930 0.951 . S
C948 C949 1.299 1_455 S
C948 C950 1.388 . S
C949 C948 1.299 1_655 S
C949 C953 1.425 . S
C950 H931 0.951 . S
C950 C948 1.388 . S
C950 C951 1.362 1_455 S
C951 C950 1.362 1_655 S
C951 C952 1.421 . S
C951 C954 1.509 . S
C952 H932 0.950 . S
C952 C951 1.421 . S
C952 C953 1.374 . S
C953 H933 0.950 . S
C953 C949 1.425 . S
C953 C952 1.374 . S
C954 C951 1.509 . S
C954 C955 1.386 . S
C954 C956 1.363 1_655 S
C955 H934 0.950 . S
C955 C954 1.386 . S
C955 C971 1.377 . S
C956 C954 1.363 1_455 S
C956 C957 1.524 . S
C956 C970 1.377 . S
C957 C956 1.524 . S
C957 C958 1.397 . S
C957 C962 1.363 . S
C958 H935 0.950 . S
C958 C957 1.397 . S
C958 C959 1.334 . S
C959 H936 0.950 . S
C959 C958 1.334 . S
C959 C960 1.287 . S
C960 C959 1.287 . S
C960 C961 1.524 . S
C960 H979 0.913 . S
C961 H937 0.950 . S
C961 C960 1.524 . S
C961 C962 1.415 . S
C962 H938 0.950 . S
C962 C957 1.363 . S
C962 C961 1.415 . S
C963 H939 0.951 . S
C963 C964 1.348 1_655 S
C963 C965 1.388 . S
C964 C963 1.348 1_455 S
C964 C968 1.395 . S
C965 H940 0.951 . S
C965 C963 1.388 . S
C965 C966 1.378 . S
C966 C965 1.378 . S
C966 C967 1.393 1_655 S
C966 C969 1.509 . S
C967 H941 0.950 . S
C967 C966 1.393 1_455 S
C967 C968 1.374 . S
C968 H942 0.950 . S
C968 C964 1.395 . S
C968 C967 1.374 . S
C969 C966 1.509 . S
C969 C970 1.375 1_655 S
C969 C971 1.386 . S
C970 H943 0.950 . S
C970 C956 1.377 . S
C970 C969 1.375 1_455 S
C971 C955 1.377 . S
C971 C969 1.386 . S
C971 C972 1.524 . S
C972 C971 1.524 . S
C972 C973 1.397 . S
C972 C977 1.363 . S
C973 H944 0.950 . S
C973 C972 1.397 . S
C973 C974 1.334 . S
C974 H945 0.950 . S
C974 C973 1.334 . S
C974 C975 1.287 . S
C975 C974 1.287 . S
C975 C976 1.524 . S
C975 H978 0.999 . S
C976 H946 0.950 . S
C976 C975 1.524 . S
C976 C977 1.415 . S
C977 H947 0.950 . S
C977 C972 1.363 . S
C977 C976 1.415 . S
H978 C975 0.999 . S
H979 C960 0.913 . S
H980 C998 0.951 . S
H981 C1000 0.951 . S
H982 C1002 0.950 . S
H983 C1003 0.950 . S
H984 C1005 0.950 . S
H985 C1008 0.950 . S
H986 C1009 0.950 . S
H987 C1011 0.950 . S
H988 C1012 0.950 . S
H989 C1013 0.951 . S
H990 C1015 0.951 . S
H991 C1017 0.950 . S
H992 C1018 0.950 . S
H993 C1020 0.950 . S
H994 C1023 0.950 . S
H995 C1024 0.950 . S
H996 C1026 0.950 . S
H997 C1027 0.950 . S
C998 H980 0.951 . S
C998 C999 1.366 . S
C998 C1000 1.388 . S
C999 C998 1.366 . S
C999 C1003 1.385 . S
C1000 H981 0.951 . S
C1000 C998 1.388 . S
C1000 C1001 1.366 . S
C1001 C1000 1.366 . S
C1001 C1002 1.414 . S
C1001 C1004 1.499 . S
C1002 H982 0.950 . S
C1002 C1001 1.414 . S
C1002 C1003 1.374 . S
C1003 H983 0.950 . S
C1003 C999 1.385 . S
C1003 C1002 1.374 . S
C1004 C1001 1.499 . S
C1004 C1005 1.373 . S
C1004 C1006 1.389 . S
C1005 H984 0.950 . S
C1005 C1004 1.373 . S
C1005 C1021 1.377 . S
C1006 C1004 1.389 . S
C1006 C1007 1.524 . S
C1006 C1020 1.377 . S
C1007 C1006 1.524 . S
C1007 C1008 1.397 . S
C1007 C1012 1.363 . S
C1008 H985 0.950 . S
C1008 C1007 1.397 . S
C1008 C1009 1.334 . S
C1009 H986 0.950 . S
C1009 C1008 1.334 . S
C1009 C1010 1.287 . S
C1010 C1009 1.287 . S
C1010 C1011 1.524 . S
C1010 H1029 0.913 . S
C1011 H987 0.950 . S
C1011 C1010 1.524 . S
C1011 C1012 1.415 . S
C1012 H988 0.950 . S
C1012 C1007 1.363 . S
C1012 C1011 1.415 . S
C1013 H989 0.951 . S
C1013 C1014 1.366 . S
C1013 C1015 1.388 . S
C1014 C1013 1.366 . S
C1014 C1018 1.385 . S
C1015 H990 0.951 . S
C1015 C1013 1.388 . S
C1015 C1016 1.366 . S
C1016 C1015 1.366 . S
C1016 C1017 1.414 . S
C1016 C1019 1.499 . S
C1017 H991 0.950 . S
C1017 C1016 1.414 . S
C1017 C1018 1.374 . S
C1018 H992 0.950 . S
C1018 C1014 1.385 . S
C1018 C1017 1.374 . S
C1019 C1016 1.499 . S
C1019 C1020 1.373 . S
C1019 C1021 1.389 . S
C1020 H993 0.950 . S
C1020 C1006 1.377 . S
C1020 C1019 1.373 . S
C1021 C1005 1.377 . S
C1021 C1019 1.389 . S
C1021 C1022 1.524 . S
C1022 C1021 1.524 . S
C1022 C1023 1.397 . S
C1022 C1027 1.363 . S
C1023 H994 0.950 . S
C1023 C1022 1.397 . S
C1023 C1024 1.334 . S
C1024 H995 0.950 . S
C1024 C1023 1.334 . S
C1024 C1025 1.287 . S
C1025 C1024 1.287 . S
C1025 C1026 1.524 . S
C1025 H1028 0.999 . S
C1026 H996 0.950 . S
C1026 C1025 1.524 . S
C1026 C1027 1.415 . S
C1027 H997 0.950 . S
C1027 C1022 1.363 . S
C1027 C1026 1.415 . S
H1028 C1025 0.999 . S
H1029 C1010 0.913 . S
H1030 C1048 0.951 . S
H1031 C1050 0.951 . S
H1032 C1052 0.950 . S
H1033 C1053 0.950 . S
H1034 C1055 0.950 . S
H1035 C1058 0.950 . S
H1036 C1059 0.950 . S
H1037 C1061 0.950 . S
H1038 C1062 0.950 . S
H1039 C1063 0.951 . S
H1040 C1065 0.951 . S
H1041 C1067 0.950 . S
H1042 C1068 0.950 . S
H1043 C1070 0.950 . S
H1044 C1073 0.950 . S
H1045 C1074 0.950 . S
H1046 C1076 0.950 . S
H1047 C1077 0.950 . S
C1048 H1030 0.951 . S
C1048 C1049 1.393 1_565 S
C1048 C1050 1.388 . S
C1049 C1048 1.393 1_545 S
C1049 C1053 1.391 . S
C1050 H1031 0.951 . S
C1050 C1048 1.388 . S
C1050 C1051 1.366 . S
C1051 C1050 1.366 . S
C1051 C1052 1.416 1_565 S
C1051 C1054 1.503 . S
C1052 H1032 0.950 . S
C1052 C1051 1.416 1_545 S
C1052 C1053 1.374 . S
C1053 H1033 0.950 . S
C1053 C1049 1.391 . S
C1053 C1052 1.374 . S
C1054 C1051 1.503 . S
C1054 C1055 1.360 1_565 S
C1054 C1056 1.394 . S
C1055 H1034 0.950 . S
C1055 C1054 1.360 1_545 S
C1055 C1071 1.377 . S
C1056 C1054 1.394 . S
C1056 C1057 1.524 . S
C1056 C1070 1.377 . S
C1057 C1056 1.524 . S
C1057 C1058 1.397 . S
C1057 C1062 1.363 . S
C1058 H1035 0.950 . S
C1058 C1057 1.397 . S
C1058 C1059 1.334 . S
C1059 H1036 0.950 . S
C1059 C1058 1.334 . S
C1059 C1060 1.287 . S
C1060 C1059 1.287 . S
C1060 C1061 1.524 . S
C1060 H1079 0.913 . S
C1061 H1037 0.950 . S
C1061 C1060 1.524 . S
C1061 C1062 1.415 . S
C1062 H1038 0.950 . S
C1062 C1057 1.363 . S
C1062 C1061 1.415 . S
C1063 H1039 0.951 . S
C1063 C1064 1.365 1_545 S
C1063 C1065 1.388 . S
C1064 C1063 1.365 1_565 S
C1064 C1068 1.384 . S
C1065 H1040 0.951 . S
C1065 C1063 1.388 . S
C1065 C1066 1.373 . S
C1066 C1065 1.373 . S
C1066 C1067 1.443 1_545 S
C1066 C1069 1.467 . S
C1067 H1041 0.950 . S
C1067 C1066 1.443 1_565 S
C1067 C1068 1.374 . S
C1068 H1042 0.950 . S
C1068 C1064 1.384 . S
C1068 C1067 1.374 . S
C1069 C1066 1.467 . S
C1069 C1070 1.373 1_545 S
C1069 C1071 1.389 . S
C1070 H1043 0.950 . S
C1070 C1056 1.377 . S
C1070 C1069 1.373 1_565 S
C1071 C1055 1.377 . S
C1071 C1069 1.389 . S
C1071 C1072 1.524 . S
C1072 C1071 1.524 . S
C1072 C1073 1.397 . S
C1072 C1077 1.363 . S
C1073 H1044 0.950 . S
C1073 C1072 1.397 . S
C1073 C1074 1.334 . S
C1074 H1045 0.950 . S
C1074 C1073 1.334 . S
C1074 C1075 1.287 . S
C1075 C1074 1.287 . S
C1075 C1076 1.524 . S
C1075 H1078 0.999 . S
C1076 H1046 0.950 . S
C1076 C1075 1.524 . S
C1076 C1077 1.415 . S
C1077 H1047 0.950 . S
C1077 C1072 1.363 . S
C1077 C1076 1.415 . S
H1078 C1075 0.999 . S
H1079 C1060 0.913 . S
H1080 C1098 0.936 . S
H1081 C1100 0.955 . S
H1082 C1102 0.950 . S
H1083 C1103 0.950 . S
H1084 C1105 0.950 . S
H1085 C1108 0.950 . S
H1086 C1109 0.950 . S
H1087 C1111 0.950 . S
H1088 C1112 0.950 . S
H1089 C1113 0.927 . S
H1090 C1115 0.951 . S
H1091 C1117 0.950 . S
H1092 C1118 0.950 . S
H1093 C1120 0.950 . S
H1094 C1123 0.950 . S
H1095 C1124 0.950 . S
H1096 C1126 0.950 . S
H1097 C1127 0.950 . S
C1098 H1080 0.936 . S
C1098 C1099 1.369 1_545 S
C1098 C1100 1.398 . S
C1099 C1098 1.369 1_565 S
C1099 C1103 1.368 . S
C1100 H1081 0.955 . S
C1100 C1098 1.398 . S
C1100 C1101 1.371 1_545 S
C1101 C1100 1.371 1_565 S
C1101 C1102 1.414 . S
C1101 C1104 1.499 . S
C1102 H1082 0.950 . S
C1102 C1101 1.414 . S
C1102 C1103 1.374 . S
C1103 H1083 0.950 . S
C1103 C1099 1.368 . S
C1103 C1102 1.374 . S
C1104 C1101 1.499 . S
C1104 C1105 1.373 1_565 S
C1104 C1106 1.389 . S
C1105 H1084 0.950 . S
C1105 C1104 1.373 1_545 S
C1105 C1121 1.377 . S
C1106 C1104 1.389 . S
C1106 C1107 1.524 . S
C1106 C1120 1.377 . S
C1107 C1106 1.524 . S
C1107 C1108 1.397 . S
C1107 C1112 1.363 . S
C1108 H1085 0.950 . S
C1108 C1107 1.397 . S
C1108 C1109 1.334 . S
C1109 H1086 0.950 . S
C1109 C1108 1.334 . S
C1109 C1110 1.287 . S
C1110 C1109 1.287 . S
C1110 C1111 1.524 . S
C1110 H1129 0.913 . S
C1111 H1087 0.950 . S
C1111 C1110 1.524 . S
C1111 C1112 1.415 . S
C1112 H1088 0.950 . S
C1112 C1107 1.363 . S
C1112 C1111 1.415 . S
C1113 H1089 0.927 . S
C1113 C1114 1.369 1_565 S
C1113 C1115 1.398 . S
C1114 C1113 1.369 1_545 S
C1114 C1118 1.378 . S
C1115 H1090 0.951 . S
C1115 C1113 1.398 . S
C1115 C1116 1.417 1_565 S
C1116 C1115 1.417 1_545 S
C1116 C1117 1.415 . S
C1116 C1119 1.498 . S
C1117 H1091 0.950 . S
C1117 C1116 1.415 . S
C1117 C1118 1.374 . S
C1118 H1092 0.950 . S
C1118 C1114 1.378 . S
C1118 C1117 1.374 . S
C1119 C1116 1.498 . S
C1119 C1120 1.300 1_545 S
C1119 C1121 1.428 . S
C1120 H1093 0.950 . S
C1120 C1106 1.377 . S
C1120 C1119 1.300 1_565 S
C1121 C1105 1.377 . S
C1121 C1119 1.428 . S
C1121 C1122 1.524 . S
C1122 C1121 1.524 . S
C1122 C1123 1.397 . S
C1122 C1127 1.363 . S
C1123 H1094 0.950 . S
C1123 C1122 1.397 . S
C1123 C1124 1.334 . S
C1124 H1095 0.950 . S
C1124 C1123 1.334 . S
C1124 C1125 1.287 . S
C1125 C1124 1.287 . S
C1125 C1126 1.524 . S
C1125 H1128 0.999 . S
C1126 H1096 0.950 . S
C1126 C1125 1.524 . S
C1126 C1127 1.415 . S
C1127 H1097 0.950 . S
C1127 C1122 1.363 . S
C1127 C1126 1.415 . S
H1128 C1125 0.999 . S
H1129 C1110 0.913 . S
H1130 C1148 0.951 . S
H1131 C1150 0.951 . S
H1132 C1152 0.950 . S
H1133 C1153 0.950 . S
H1134 C1155 0.950 . S
H1135 C1158 0.950 . S
H1136 C1159 0.950 . S
H1137 C1161 0.950 . S
H1138 C1162 0.950 . S
H1139 C1163 0.951 . S
H1140 C1165 0.951 . S
H1141 C1167 0.950 . S
H1142 C1168 0.950 . S
H1143 C1170 0.950 . S
H1144 C1173 0.950 . S
H1145 C1174 0.950 . S
H1146 C1176 0.950 . S
H1147 C1177 0.950 . S
C1148 H1130 0.951 . S
C1148 C1149 1.408 . S
C1148 C1150 1.388 . S
C1149 C1148 1.408 . S
C1149 C1153 1.380 1_455 S
C1150 H1131 0.951 . S
C1150 C1148 1.388 . S
C1150 C1151 1.366 . S
C1151 C1150 1.366 . S
C1151 C1152 1.414 1_455 S
C1151 C1154 1.470 . S
C1152 H1132 0.950 . S
C1152 C1151 1.414 1_655 S
C1152 C1153 1.374 . S
C1153 H1133 0.950 . S
C1153 C1149 1.380 1_655 S
C1153 C1152 1.374 . S
C1154 C1151 1.470 . S
C1154 C1155 1.329 1_455 S
C1154 C1156 1.464 . S
C1155 H1134 0.950 . S
C1155 C1154 1.329 1_655 S
C1155 C1171 1.377 . S
C1156 C1154 1.464 . S
C1156 C1157 1.524 . S
C1156 C1170 1.377 . S
C1157 C1156 1.524 . S
C1157 C1158 1.397 . S
C1157 C1162 1.363 . S
C1158 H1135 0.950 . S
C1158 C1157 1.397 . S
C1158 C1159 1.334 . S
C1159 H1136 0.950 . S
C1159 C1158 1.334 . S
C1159 C1160 1.287 . S
C1160 C1159 1.287 . S
C1160 C1161 1.524 . S
C1160 H1179 0.913 . S
C1161 H1137 0.950 . S
C1161 C1160 1.524 . S
C1161 C1162 1.415 . S
C1162 H1138 0.950 . S
C1162 C1157 1.363 . S
C1162 C1161 1.415 . S
C1163 H1139 0.951 . S
C1163 C1164 1.364 . S
C1163 C1165 1.388 . S
C1164 C1163 1.364 . S
C1164 C1168 1.385 1_655 S
C1165 H1140 0.951 . S
C1165 C1163 1.388 . S
C1165 C1166 1.368 . S
C1166 C1165 1.368 . S
C1166 C1167 1.397 1_655 S
C1166 C1169 1.514 . S
C1167 H1141 0.950 . S
C1167 C1166 1.397 1_455 S
C1167 C1168 1.374 . S
C1168 H1142 0.950 . S
C1168 C1164 1.385 1_455 S
C1168 C1167 1.374 . S
C1169 C1166 1.514 . S
C1169 C1170 1.377 1_655 S
C1169 C1171 1.384 . S
C1170 H1143 0.950 . S
C1170 C1156 1.377 . S
C1170 C1169 1.377 1_455 S
C1171 C1155 1.377 . S
C1171 C1169 1.384 . S
C1171 C1172 1.524 . S
C1172 C1171 1.524 . S
C1172 C1173 1.397 . S
C1172 C1177 1.363 . S
C1173 H1144 0.950 . S
C1173 C1172 1.397 . S
C1173 C1174 1.334 . S
C1174 H1145 0.950 . S
C1174 C1173 1.334 . S
C1174 C1175 1.287 . S
C1175 C1174 1.287 . S
C1175 C1176 1.524 . S
C1175 H1178 0.999 . S
C1176 H1146 0.950 . S
C1176 C1175 1.524 . S
C1176 C1177 1.415 . S
C1177 H1147 0.950 . S
C1177 C1172 1.363 . S
C1177 C1176 1.415 . S
H1178 C1175 0.999 . S
H1179 C1160 0.913 . S
H1180 C1198 0.951 . S
H1181 C1200 0.951 . S
H1182 C1202 0.950 . S
H1183 C1203 0.950 . S
H1184 C1205 0.950 . S
H1185 C1208 0.950 . S
H1186 C1209 0.950 . S
H1187 C1211 0.950 . S
H1188 C1212 0.950 . S
H1189 C1213 0.951 . S
H1190 C1215 0.951 . S
H1191 C1217 0.950 . S
H1192 C1218 0.950 . S
H1193 C1220 0.950 . S
H1194 C1223 0.950 . S
H1195 C1224 0.950 . S
H1196 C1226 0.950 . S
H1197 C1227 0.950 . S
C1198 H1180 0.951 . S
C1198 C1199 1.366 . S
C1198 C1200 1.388 . S
C1199 C1198 1.366 . S
C1199 C1203 1.385 . S
C1200 H1181 0.951 . S
C1200 C1198 1.388 . S
C1200 C1201 1.366 . S
C1201 C1200 1.366 . S
C1201 C1202 1.414 . S
C1201 C1204 1.499 . S
C1202 H1182 0.950 . S
C1202 C1201 1.414 . S
C1202 C1203 1.374 . S
C1203 H1183 0.950 . S
C1203 C1199 1.385 . S
C1203 C1202 1.374 . S
C1204 C1201 1.499 . S
C1204 C1205 1.373 . S
C1204 C1206 1.389 . S
C1205 H1184 0.950 . S
C1205 C1204 1.373 . S
C1205 C1221 1.377 . S
C1206 C1204 1.389 . S
C1206 C1207 1.524 . S
C1206 C1220 1.377 . S
C1207 C1206 1.524 . S
C1207 C1208 1.397 . S
C1207 C1212 1.363 . S
C1208 H1185 0.950 . S
C1208 C1207 1.397 . S
C1208 C1209 1.334 . S
C1209 H1186 0.950 . S
C1209 C1208 1.334 . S
C1209 C1210 1.287 . S
C1210 C1209 1.287 . S
C1210 C1211 1.524 . S
C1210 H1229 0.913 . S
C1211 H1187 0.950 . S
C1211 C1210 1.524 . S
C1211 C1212 1.415 . S
C1212 H1188 0.950 . S
C1212 C1207 1.363 . S
C1212 C1211 1.415 . S
C1213 H1189 0.951 . S
C1213 C1214 1.366 . S
C1213 C1215 1.388 . S
C1214 C1213 1.366 . S
C1214 C1218 1.385 . S
C1215 H1190 0.951 . S
C1215 C1213 1.388 . S
C1215 C1216 1.366 . S
C1216 C1215 1.366 . S
C1216 C1217 1.414 . S
C1216 C1219 1.499 . S
C1217 H1191 0.950 . S
C1217 C1216 1.414 . S
C1217 C1218 1.374 . S
C1218 H1192 0.950 . S
C1218 C1214 1.385 . S
C1218 C1217 1.374 . S
C1219 C1216 1.499 . S
C1219 C1220 1.373 . S
C1219 C1221 1.389 . S
C1220 H1193 0.950 . S
C1220 C1206 1.377 . S
C1220 C1219 1.373 . S
C1221 C1205 1.377 . S
C1221 C1219 1.389 . S
C1221 C1222 1.524 . S
C1222 C1221 1.524 . S
C1222 C1223 1.397 . S
C1222 C1227 1.363 . S
C1223 H1194 0.950 . S
C1223 C1222 1.397 . S
C1223 C1224 1.334 . S
C1224 H1195 0.950 . S
C1224 C1223 1.334 . S
C1224 C1225 1.287 . S
C1225 C1224 1.287 . S
C1225 C1226 1.524 . S
C1225 H1228 0.999 . S
C1226 H1196 0.950 . S
C1226 C1225 1.524 . S
C1226 C1227 1.415 . S
C1227 H1197 0.950 . S
C1227 C1222 1.363 . S
C1227 C1226 1.415 . S
H1228 C1225 0.999 . S
H1229 C1210 0.913 . S
H1230 C1248 0.951 . S
H1231 C1250 0.951 . S
H1232 C1252 0.950 . S
H1233 C1253 0.950 . S
H1234 C1255 0.950 . S
H1235 C1258 0.950 . S
H1236 C1259 0.950 . S
H1237 C1261 0.950 . S
H1238 C1262 0.950 . S
H1239 C1263 0.951 . S
H1240 C1265 0.951 . S
H1241 C1267 0.950 . S
H1242 C1268 0.950 . S
H1243 C1270 0.950 . S
H1244 C1273 0.950 . S
H1245 C1274 0.950 . S
H1246 C1276 0.950 . S
H1247 C1277 0.950 . S
C1248 H1230 0.951 . S
C1248 C1249 1.366 . S
C1248 C1250 1.388 . S
C1249 C1248 1.366 . S
C1249 C1253 1.385 . S
C1250 H1231 0.951 . S
C1250 C1248 1.388 . S
C1250 C1251 1.366 . S
C1251 C1250 1.366 . S
C1251 C1252 1.414 . S
C1251 C1254 1.499 . S
C1252 H1232 0.950 . S
C1252 C1251 1.414 . S
C1252 C1253 1.374 . S
C1253 H1233 0.950 . S
C1253 C1249 1.385 . S
C1253 C1252 1.374 . S
C1254 C1251 1.499 . S
C1254 C1255 1.373 . S
C1254 C1256 1.389 . S
C1255 H1234 0.950 . S
C1255 C1254 1.373 . S
C1255 C1271 1.377 . S
C1256 C1254 1.389 . S
C1256 C1257 1.524 . S
C1256 C1270 1.377 . S
C1257 C1256 1.524 . S
C1257 C1258 1.397 . S
C1257 C1262 1.363 . S
C1258 H1235 0.950 . S
C1258 C1257 1.397 . S
C1258 C1259 1.334 . S
C1259 H1236 0.950 . S
C1259 C1258 1.334 . S
C1259 C1260 1.287 . S
C1260 C1259 1.287 . S
C1260 C1261 1.524 . S
C1260 H1279 0.913 . S
C1261 H1237 0.950 . S
C1261 C1260 1.524 . S
C1261 C1262 1.415 . S
C1262 H1238 0.950 . S
C1262 C1257 1.363 . S
C1262 C1261 1.415 . S
C1263 H1239 0.951 . S
C1263 C1264 1.366 . S
C1263 C1265 1.388 . S
C1264 C1263 1.366 . S
C1264 C1268 1.385 . S
C1265 H1240 0.951 . S
C1265 C1263 1.388 . S
C1265 C1266 1.366 . S
C1266 C1265 1.366 . S
C1266 C1267 1.414 . S
C1266 C1269 1.499 . S
C1267 H1241 0.950 . S
C1267 C1266 1.414 . S
C1267 C1268 1.374 . S
C1268 H1242 0.950 . S
C1268 C1264 1.385 . S
C1268 C1267 1.374 . S
C1269 C1266 1.499 . S
C1269 C1270 1.373 . S
C1269 C1271 1.389 . S
C1270 H1243 0.950 . S
C1270 C1256 1.377 . S
C1270 C1269 1.373 . S
C1271 C1255 1.377 . S
C1271 C1269 1.389 . S
C1271 C1272 1.524 . S
C1272 C1271 1.524 . S
C1272 C1273 1.397 . S
C1272 C1277 1.363 . S
C1273 H1244 0.950 . S
C1273 C1272 1.397 . S
C1273 C1274 1.334 . S
C1274 H1245 0.950 . S
C1274 C1273 1.334 . S
C1274 C1275 1.287 . S
C1275 C1274 1.287 . S
C1275 C1276 1.524 . S
C1275 H1278 0.999 . S
C1276 H1246 0.950 . S
C1276 C1275 1.524 . S
C1276 C1277 1.415 . S
C1277 H1247 0.950 . S
C1277 C1272 1.363 . S
C1277 C1276 1.415 . S
H1278 C1275 0.999 . S
H1279 C1260 0.913 . S
H1280 C1298 0.951 . S
H1281 C1300 0.951 . S
H1282 C1302 0.950 . S
H1283 C1303 0.950 . S
H1284 C1305 0.950 . S
H1285 C1308 0.950 . S
H1286 C1309 0.950 . S
H1287 C1311 0.950 . S
H1288 C1312 0.950 . S
H1289 C1313 0.951 . S
H1290 C1315 0.951 . S
H1291 C1317 0.950 . S
H1292 C1318 0.950 . S
H1293 C1320 0.950 . S
H1294 C1323 0.950 . S
H1295 C1324 0.950 . S
H1296 C1326 0.950 . S
H1297 C1327 0.950 . S
C1298 H1280 0.951 . S
C1298 C1299 1.366 . S
C1298 C1300 1.388 . S
C1299 C1298 1.366 . S
C1299 C1303 1.385 . S
C1300 H1281 0.951 . S
C1300 C1298 1.388 . S
C1300 C1301 1.366 . S
C1301 C1300 1.366 . S
C1301 C1302 1.414 . S
C1301 C1304 1.499 . S
C1302 H1282 0.950 . S
C1302 C1301 1.414 . S
C1302 C1303 1.374 . S
C1303 H1283 0.950 . S
C1303 C1299 1.385 . S
C1303 C1302 1.374 . S
C1304 C1301 1.499 . S
C1304 C1305 1.373 . S
C1304 C1306 1.389 . S
C1305 H1284 0.950 . S
C1305 C1304 1.373 . S
C1305 C1321 1.377 . S
C1306 C1304 1.389 . S
C1306 C1307 1.524 . S
C1306 C1320 1.377 . S
C1307 C1306 1.524 . S
C1307 C1308 1.397 . S
C1307 C1312 1.363 . S
C1308 H1285 0.950 . S
C1308 C1307 1.397 . S
C1308 C1309 1.334 . S
C1309 H1286 0.950 . S
C1309 C1308 1.334 . S
C1309 C1310 1.287 . S
C1310 C1309 1.287 . S
C1310 C1311 1.524 . S
C1310 H1329 0.913 . S
C1311 H1287 0.950 . S
C1311 C1310 1.524 . S
C1311 C1312 1.415 . S
C1312 H1288 0.950 . S
C1312 C1307 1.363 . S
C1312 C1311 1.415 . S
C1313 H1289 0.951 . S
C1313 C1314 1.366 . S
C1313 C1315 1.388 . S
C1314 C1313 1.366 . S
C1314 C1318 1.385 . S
C1315 H1290 0.951 . S
C1315 C1313 1.388 . S
C1315 C1316 1.366 . S
C1316 C1315 1.366 . S
C1316 C1317 1.414 . S
C1316 C1319 1.499 . S
C1317 H1291 0.950 . S
C1317 C1316 1.414 . S
C1317 C1318 1.374 . S
C1318 H1292 0.950 . S
C1318 C1314 1.385 . S
C1318 C1317 1.374 . S
C1319 C1316 1.499 . S
C1319 C1320 1.373 . S
C1319 C1321 1.389 . S
C1320 H1293 0.950 . S
C1320 C1306 1.377 . S
C1320 C1319 1.373 . S
C1321 C1305 1.377 . S
C1321 C1319 1.389 . S
C1321 C1322 1.524 . S
C1322 C1321 1.524 . S
C1322 C1323 1.397 . S
C1322 C1327 1.363 . S
C1323 H1294 0.950 . S
C1323 C1322 1.397 . S
C1323 C1324 1.334 . S
C1324 H1295 0.950 . S
C1324 C1323 1.334 . S
C1324 C1325 1.287 . S
C1325 C1324 1.287 . S
C1325 C1326 1.524 . S
C1325 H1328 0.999 . S
C1326 H1296 0.950 . S
C1326 C1325 1.524 . S
C1326 C1327 1.415 . S
C1327 H1297 0.950 . S
C1327 C1322 1.363 . S
C1327 C1326 1.415 . S
H1328 C1325 0.999 . S
H1329 C1310 0.913 . S
H1330 C1348 0.951 . S
H1331 C1350 0.951 . S
H1332 C1352 0.950 . S
H1333 C1353 0.950 . S
H1334 C1355 0.950 . S
H1335 C1358 0.950 . S
H1336 C1359 0.950 . S
H1337 C1361 0.950 . S
H1338 C1362 0.950 . S
H1339 C1363 0.951 . S
H1340 C1365 0.951 . S
H1341 C1367 0.950 . S
H1342 C1368 0.950 . S
H1343 C1370 0.950 . S
H1344 C1373 0.950 . S
H1345 C1374 0.950 . S
H1346 C1376 0.950 . S
H1347 C1377 0.950 . S
C1348 H1330 0.951 . S
C1348 C1349 1.366 . S
C1348 C1350 1.388 . S
C1349 C1348 1.366 . S
C1349 C1353 1.385 . S
C1350 H1331 0.951 . S
C1350 C1348 1.388 . S
C1350 C1351 1.366 . S
C1351 C1350 1.366 . S
C1351 C1352 1.414 . S
C1351 C1354 1.499 . S
C1352 H1332 0.950 . S
C1352 C1351 1.414 . S
C1352 C1353 1.374 . S
C1353 H1333 0.950 . S
C1353 C1349 1.385 . S
C1353 C1352 1.374 . S
C1354 C1351 1.499 . S
C1354 C1355 1.373 . S
C1354 C1356 1.389 . S
C1355 H1334 0.950 . S
C1355 C1354 1.373 . S
C1355 C1371 1.377 . S
C1356 C1354 1.389 . S
C1356 C1357 1.524 . S
C1356 C1370 1.377 . S
C1357 C1356 1.524 . S
C1357 C1358 1.397 . S
C1357 C1362 1.363 . S
C1358 H1335 0.950 . S
C1358 C1357 1.397 . S
C1358 C1359 1.334 . S
C1359 H1336 0.950 . S
C1359 C1358 1.334 . S
C1359 C1360 1.287 . S
C1360 C1359 1.287 . S
C1360 C1361 1.524 . S
C1360 H1379 0.913 . S
C1361 H1337 0.950 . S
C1361 C1360 1.524 . S
C1361 C1362 1.415 . S
C1362 H1338 0.950 . S
C1362 C1357 1.363 . S
C1362 C1361 1.415 . S
C1363 H1339 0.951 . S
C1363 C1364 1.366 . S
C1363 C1365 1.388 . S
C1364 C1363 1.366 . S
C1364 C1368 1.385 . S
C1365 H1340 0.951 . S
C1365 C1363 1.388 . S
C1365 C1366 1.366 . S
C1366 C1365 1.366 . S
C1366 C1367 1.414 . S
C1366 C1369 1.499 . S
C1367 H1341 0.950 . S
C1367 C1366 1.414 . S
C1367 C1368 1.374 . S
C1368 H1342 0.950 . S
C1368 C1364 1.385 . S
C1368 C1367 1.374 . S
C1369 C1366 1.499 . S
C1369 C1370 1.373 . S
C1369 C1371 1.389 . S
C1370 H1343 0.950 . S
C1370 C1356 1.377 . S
C1370 C1369 1.373 . S
C1371 C1355 1.377 . S
C1371 C1369 1.389 . S
C1371 C1372 1.524 . S
C1372 C1371 1.524 . S
C1372 C1373 1.397 . S
C1372 C1377 1.363 . S
C1373 H1344 0.950 . S
C1373 C1372 1.397 . S
C1373 C1374 1.334 . S
C1374 H1345 0.950 . S
C1374 C1373 1.334 . S
C1374 C1375 1.287 . S
C1375 C1374 1.287 . S
C1375 C1376 1.524 . S
C1375 H1378 0.999 . S
C1376 H1346 0.950 . S
C1376 C1375 1.524 . S
C1376 C1377 1.415 . S
C1377 H1347 0.950 . S
C1377 C1372 1.363 . S
C1377 C1376 1.415 . S
H1378 C1375 0.999 . S
H1379 C1360 0.913 . S
H1380 C1398 0.951 . S
H1381 C1400 0.951 . S
H1382 C1402 0.950 . S
H1383 C1403 0.950 . S
H1384 C1405 0.950 . S
H1385 C1408 0.950 . S
H1386 C1409 0.950 . S
H1387 C1411 0.950 . S
H1388 C1412 0.950 . S
H1389 C1413 0.951 . S
H1390 C1415 0.951 . S
H1391 C1417 0.950 . S
H1392 C1418 0.950 . S
H1393 C1420 0.950 . S
H1394 C1423 0.950 . S
H1395 C1424 0.950 . S
H1396 C1426 0.950 . S
H1397 C1427 0.950 . S
C1398 H1380 0.951 . S
C1398 C1399 1.366 . S
C1398 C1400 1.388 . S
C1399 C1398 1.366 . S
C1399 C1403 1.385 . S
C1400 H1381 0.951 . S
C1400 C1398 1.388 . S
C1400 C1401 1.366 . S
C1401 C1400 1.366 . S
C1401 C1402 1.414 . S
C1401 C1404 1.499 . S
C1402 H1382 0.950 . S
C1402 C1401 1.414 . S
C1402 C1403 1.374 . S
C1403 H1383 0.950 . S
C1403 C1399 1.385 . S
C1403 C1402 1.374 . S
C1404 C1401 1.499 . S
C1404 C1405 1.373 . S
C1404 C1406 1.389 . S
C1405 H1384 0.950 . S
C1405 C1404 1.373 . S
C1405 C1421 1.377 . S
C1406 C1404 1.389 . S
C1406 C1407 1.524 . S
C1406 C1420 1.377 . S
C1407 C1406 1.524 . S
C1407 C1408 1.397 . S
C1407 C1412 1.363 . S
C1408 H1385 0.950 . S
C1408 C1407 1.397 . S
C1408 C1409 1.334 . S
C1409 H1386 0.950 . S
C1409 C1408 1.334 . S
C1409 C1410 1.287 . S
C1410 C1409 1.287 . S
C1410 C1411 1.524 . S
C1410 H1429 0.913 . S
C1411 H1387 0.950 . S
C1411 C1410 1.524 . S
C1411 C1412 1.415 . S
C1412 H1388 0.950 . S
C1412 C1407 1.363 . S
C1412 C1411 1.415 . S
C1413 H1389 0.951 . S
C1413 C1414 1.366 . S
C1413 C1415 1.388 . S
C1414 C1413 1.366 . S
C1414 C1418 1.385 . S
C1415 H1390 0.951 . S
C1415 C1413 1.388 . S
C1415 C1416 1.366 . S
C1416 C1415 1.366 . S
C1416 C1417 1.414 . S
C1416 C1419 1.499 . S
C1417 H1391 0.950 . S
C1417 C1416 1.414 . S
C1417 C1418 1.374 . S
C1418 H1392 0.950 . S
C1418 C1414 1.385 . S
C1418 C1417 1.374 . S
C1419 C1416 1.499 . S
C1419 C1420 1.373 . S
C1419 C1421 1.389 . S
C1420 H1393 0.950 . S
C1420 C1406 1.377 . S
C1420 C1419 1.373 . S
C1421 C1405 1.377 . S
C1421 C1419 1.389 . S
C1421 C1422 1.524 . S
C1422 C1421 1.524 . S
C1422 C1423 1.397 . S
C1422 C1427 1.363 . S
C1423 H1394 0.950 . S
C1423 C1422 1.397 . S
C1423 C1424 1.334 . S
C1424 H1395 0.950 . S
C1424 C1423 1.334 . S
C1424 C1425 1.287 . S
C1425 C1424 1.287 . S
C1425 C1426 1.524 . S
C1425 H1428 0.999 . S
C1426 H1396 0.950 . S
C1426 C1425 1.524 . S
C1426 C1427 1.415 . S
C1427 H1397 0.950 . S
C1427 C1422 1.363 . S
C1427 C1426 1.415 . S
H1428 C1425 0.999 . S
H1429 C1410 0.913 . S
H1430 C1448 0.951 . S
H1431 C1450 0.951 . S
H1432 C1452 0.950 . S
H1433 C1453 0.950 . S
H1434 C1455 0.950 . S
H1435 C1458 0.950 . S
H1436 C1459 0.950 . S
H1437 C1461 0.950 . S
H1438 C1462 0.950 . S
H1439 C1463 0.951 . S
H1440 C1465 0.951 . S
H1441 C1467 0.950 . S
H1442 C1468 0.950 . S
H1443 C1470 0.950 . S
H1444 C1473 0.950 . S
H1445 C1474 0.950 . S
H1446 C1476 0.950 . S
H1447 C1477 0.950 . S
C1448 H1430 0.951 . S
C1448 C1449 1.366 . S
C1448 C1450 1.388 . S
C1449 C1448 1.366 . S
C1449 C1453 1.385 . S
C1450 H1431 0.951 . S
C1450 C1448 1.388 . S
C1450 C1451 1.366 . S
C1451 C1450 1.366 . S
C1451 C1452 1.414 . S
C1451 C1454 1.499 . S
C1452 H1432 0.950 . S
C1452 C1451 1.414 . S
C1452 C1453 1.374 . S
C1453 H1433 0.950 . S
C1453 C1449 1.385 . S
C1453 C1452 1.374 . S
C1454 C1451 1.499 . S
C1454 C1455 1.373 . S
C1454 C1456 1.389 . S
C1455 H1434 0.950 . S
C1455 C1454 1.373 . S
C1455 C1471 1.377 . S
C1456 C1454 1.389 . S
C1456 C1457 1.524 . S
C1456 C1470 1.377 . S
C1457 C1456 1.524 . S
C1457 C1458 1.397 . S
C1457 C1462 1.363 . S
C1458 H1435 0.950 . S
C1458 C1457 1.397 . S
C1458 C1459 1.334 . S
C1459 H1436 0.950 . S
C1459 C1458 1.334 . S
C1459 C1460 1.287 . S
C1460 C1459 1.287 . S
C1460 C1461 1.524 . S
C1460 H1479 0.913 . S
C1461 H1437 0.950 . S
C1461 C1460 1.524 . S
C1461 C1462 1.415 . S
C1462 H1438 0.950 . S
C1462 C1457 1.363 . S
C1462 C1461 1.415 . S
C1463 H1439 0.951 . S
C1463 C1464 1.366 . S
C1463 C1465 1.388 . S
C1464 C1463 1.366 . S
C1464 C1468 1.385 . S
C1465 H1440 0.951 . S
C1465 C1463 1.388 . S
C1465 C1466 1.366 . S
C1466 C1465 1.366 . S
C1466 C1467 1.414 . S
C1466 C1469 1.499 . S
C1467 H1441 0.950 . S
C1467 C1466 1.414 . S
C1467 C1468 1.374 . S
C1468 H1442 0.950 . S
C1468 C1464 1.385 . S
C1468 C1467 1.374 . S
C1469 C1466 1.499 . S
C1469 C1470 1.373 . S
C1469 C1471 1.389 . S
C1470 H1443 0.950 . S
C1470 C1456 1.377 . S
C1470 C1469 1.373 . S
C1471 C1455 1.377 . S
C1471 C1469 1.389 . S
C1471 C1472 1.524 . S
C1472 C1471 1.524 . S
C1472 C1473 1.397 . S
C1472 C1477 1.363 . S
C1473 H1444 0.950 . S
C1473 C1472 1.397 . S
C1473 C1474 1.334 . S
C1474 H1445 0.950 . S
C1474 C1473 1.334 . S
C1474 C1475 1.287 . S
C1475 C1474 1.287 . S
C1475 C1476 1.524 . S
C1475 H1478 0.999 . S
C1476 H1446 0.950 . S
C1476 C1475 1.524 . S
C1476 C1477 1.415 . S
C1477 H1447 0.950 . S
C1477 C1472 1.363 . S
C1477 C1476 1.415 . S
H1478 C1475 0.999 . S
H1479 C1460 0.913 . S
H1480 C1498 0.951 . S
H1481 C1500 0.951 . S
H1482 C1502 0.950 . S
H1483 C1503 0.950 . S
H1484 C1505 0.950 . S
H1485 C1508 0.950 . S
H1486 C1509 0.950 . S
H1487 C1511 0.950 . S
H1488 C1512 0.950 . S
H1489 C1513 0.951 . S
H1490 C1515 0.951 . S
H1491 C1517 0.950 . S
H1492 C1518 0.950 . S
H1493 C1520 0.950 . S
H1494 C1523 0.950 . S
H1495 C1524 0.950 . S
H1496 C1526 0.950 . S
H1497 C1527 0.950 . S
C1498 H1480 0.951 . S
C1498 C1499 1.366 . S
C1498 C1500 1.388 . S
C1499 C1498 1.366 . S
C1499 C1503 1.385 . S
C1500 H1481 0.951 . S
C1500 C1498 1.388 . S
C1500 C1501 1.366 . S
C1501 C1500 1.366 . S
C1501 C1502 1.414 . S
C1501 C1504 1.499 . S
C1502 H1482 0.950 . S
C1502 C1501 1.414 . S
C1502 C1503 1.374 . S
C1503 H1483 0.950 . S
C1503 C1499 1.385 . S
C1503 C1502 1.374 . S
C1504 C1501 1.499 . S
C1504 C1505 1.373 . S
C1504 C1506 1.389 . S
C1505 H1484 0.950 . S
C1505 C1504 1.373 . S
C1505 C1521 1.377 . S
C1506 C1504 1.389 . S
C1506 C1507 1.524 . S
C1506 C1520 1.377 . S
C1507 C1506 1.524 . S
C1507 C1508 1.397 . S
C1507 C1512 1.363 . S
C1508 H1485 0.950 . S
C1508 C1507 1.397 . S
C1508 C1509 1.334 . S
C1509 H1486 0.950 . S
C1509 C1508 1.334 . S
C1509 C1510 1.287 . S
C1510 C1509 1.287 . S
C1510 C1511 1.524 . S
C1510 H1529 0.913 . S
C1511 H1487 0.950 . S
C1511 C1510 1.524 . S
C1511 C1512 1.415 . S
C1512 H1488 0.950 . S
C1512 C1507 1.363 . S
C1512 C1511 1.415 . S
C1513 H1489 0.951 . S
C1513 C1514 1.366 . S
C1513 C1515 1.388 . S
C1514 C1513 1.366 . S
C1514 C1518 1.385 . S
C1515 H1490 0.951 . S
C1515 C1513 1.388 . S
C1515 C1516 1.366 . S
C1516 C1515 1.366 . S
C1516 C1517 1.414 . S
C1516 C1519 1.499 . S
C1517 H1491 0.950 . S
C1517 C1516 1.414 . S
C1517 C1518 1.374 . S
C1518 H1492 0.950 . S
C1518 C1514 1.385 . S
C1518 C1517 1.374 . S
C1519 C1516 1.499 . S
C1519 C1520 1.373 . S
C1519 C1521 1.389 . S
C1520 H1493 0.950 . S
C1520 C1506 1.377 . S
C1520 C1519 1.373 . S
C1521 C1505 1.377 . S
C1521 C1519 1.389 . S
C1521 C1522 1.524 . S
C1522 C1521 1.524 . S
C1522 C1523 1.397 . S
C1522 C1527 1.363 . S
C1523 H1494 0.950 . S
C1523 C1522 1.397 . S
C1523 C1524 1.334 . S
C1524 H1495 0.950 . S
C1524 C1523 1.334 . S
C1524 C1525 1.287 . S
C1525 C1524 1.287 . S
C1525 C1526 1.524 . S
C1525 H1528 0.999 . S
C1526 H1496 0.950 . S
C1526 C1525 1.524 . S
C1526 C1527 1.415 . S
C1527 H1497 0.950 . S
C1527 C1522 1.363 . S
C1527 C1526 1.415 . S
H1528 C1525 0.999 . S
H1529 C1510 0.913 . S
H1530 C1548 0.951 . S
H1531 C1550 0.951 . S
H1532 C1552 0.950 . S
H1533 C1553 0.950 . S
H1534 C1555 0.950 . S
H1535 C1558 0.950 . S
H1536 C1559 0.950 . S
H1537 C1561 0.950 . S
H1538 C1562 0.950 . S
H1539 C1563 0.951 . S
H1540 C1565 0.951 . S
H1541 C1567 0.950 . S
H1542 C1568 0.950 . S
H1543 C1570 0.950 . S
H1544 C1573 0.950 . S
H1545 C1574 0.950 . S
H1546 C1576 0.950 . S
H1547 C1577 0.950 . S
C1548 H1530 0.951 . S
C1548 C1549 1.366 . S
C1548 C1550 1.388 . S
C1549 C1548 1.366 . S
C1549 C1553 1.385 . S
C1550 H1531 0.951 . S
C1550 C1548 1.388 . S
C1550 C1551 1.366 . S
C1551 C1550 1.366 . S
C1551 C1552 1.414 . S
C1551 C1554 1.499 . S
C1552 H1532 0.950 . S
C1552 C1551 1.414 . S
C1552 C1553 1.374 . S
C1553 H1533 0.950 . S
C1553 C1549 1.385 . S
C1553 C1552 1.374 . S
C1554 C1551 1.499 . S
C1554 C1555 1.373 . S
C1554 C1556 1.389 . S
C1555 H1534 0.950 . S
C1555 C1554 1.373 . S
C1555 C1571 1.377 . S
C1556 C1554 1.389 . S
C1556 C1557 1.524 . S
C1556 C1570 1.377 . S
C1557 C1556 1.524 . S
C1557 C1558 1.397 . S
C1557 C1562 1.363 . S
C1558 H1535 0.950 . S
C1558 C1557 1.397 . S
C1558 C1559 1.334 . S
C1559 H1536 0.950 . S
C1559 C1558 1.334 . S
C1559 C1560 1.287 . S
C1560 C1559 1.287 . S
C1560 C1561 1.524 . S
C1560 H1579 0.913 . S
C1561 H1537 0.950 . S
C1561 C1560 1.524 . S
C1561 C1562 1.415 . S
C1562 H1538 0.950 . S
C1562 C1557 1.363 . S
C1562 C1561 1.415 . S
C1563 H1539 0.951 . S
C1563 C1564 1.366 . S
C1563 C1565 1.388 . S
C1564 C1563 1.366 . S
C1564 C1568 1.385 . S
C1565 H1540 0.951 . S
C1565 C1563 1.388 . S
C1565 C1566 1.366 . S
C1566 C1565 1.366 . S
C1566 C1567 1.414 . S
C1566 C1569 1.499 . S
C1567 H1541 0.950 . S
C1567 C1566 1.414 . S
C1567 C1568 1.374 . S
C1568 H1542 0.950 . S
C1568 C1564 1.385 . S
C1568 C1567 1.374 . S
C1569 C1566 1.499 . S
C1569 C1570 1.373 . S
C1569 C1571 1.389 . S
C1570 H1543 0.950 . S
C1570 C1556 1.377 . S
C1570 C1569 1.373 . S
C1571 C1555 1.377 . S
C1571 C1569 1.389 . S
C1571 C1572 1.524 . S
C1572 C1571 1.524 . S
C1572 C1573 1.397 . S
C1572 C1577 1.363 . S
C1573 H1544 0.950 . S
C1573 C1572 1.397 . S
C1573 C1574 1.334 . S
C1574 H1545 0.950 . S
C1574 C1573 1.334 . S
C1574 C1575 1.287 . S
C1575 C1574 1.287 . S
C1575 C1576 1.524 . S
C1575 H1578 0.999 . S
C1576 H1546 0.950 . S
C1576 C1575 1.524 . S
C1576 C1577 1.415 . S
C1577 H1547 0.950 . S
C1577 C1572 1.363 . S
C1577 C1576 1.415 . S
H1578 C1575 0.999 . S
H1579 C1560 0.913 . S
H1580 C1598 0.951 . S
H1581 C1600 0.951 . S
H1582 C1602 0.950 . S
H1583 C1603 0.950 . S
H1584 C1605 0.950 . S
H1585 C1608 0.950 . S
H1586 C1609 0.950 . S
H1587 C1611 0.950 . S
H1588 C1612 0.950 . S
H1589 C1613 0.951 . S
H1590 C1615 0.951 . S
H1591 C1617 0.950 . S
H1592 C1618 0.950 . S
H1593 C1620 0.950 . S
H1594 C1623 0.950 . S
H1595 C1624 0.950 . S
H1596 C1626 0.950 . S
H1597 C1627 0.950 . S
C1598 H1580 0.951 . S
C1598 C1599 1.366 . S
C1598 C1600 1.388 . S
C1599 C1598 1.366 . S
C1599 C1603 1.385 . S
C1600 H1581 0.951 . S
C1600 C1598 1.388 . S
C1600 C1601 1.366 . S
C1601 C1600 1.366 . S
C1601 C1602 1.414 . S
C1601 C1604 1.499 . S
C1602 H1582 0.950 . S
C1602 C1601 1.414 . S
C1602 C1603 1.374 . S
C1603 H1583 0.950 . S
C1603 C1599 1.385 . S
C1603 C1602 1.374 . S
C1604 C1601 1.499 . S
C1604 C1605 1.373 . S
C1604 C1606 1.389 . S
C1605 H1584 0.950 . S
C1605 C1604 1.373 . S
C1605 C1621 1.377 . S
C1606 C1604 1.389 . S
C1606 C1607 1.524 . S
C1606 C1620 1.377 . S
C1607 C1606 1.524 . S
C1607 C1608 1.397 . S
C1607 C1612 1.363 . S
C1608 H1585 0.950 . S
C1608 C1607 1.397 . S
C1608 C1609 1.334 . S
C1609 H1586 0.950 . S
C1609 C1608 1.334 . S
C1609 C1610 1.287 . S
C1610 C1609 1.287 . S
C1610 C1611 1.524 . S
C1610 H1629 0.913 . S
C1611 H1587 0.950 . S
C1611 C1610 1.524 . S
C1611 C1612 1.415 . S
C1612 H1588 0.950 . S
C1612 C1607 1.363 . S
C1612 C1611 1.415 . S
C1613 H1589 0.951 . S
C1613 C1614 1.366 . S
C1613 C1615 1.388 . S
C1614 C1613 1.366 . S
C1614 C1618 1.385 . S
C1615 H1590 0.951 . S
C1615 C1613 1.388 . S
C1615 C1616 1.366 . S
C1616 C1615 1.366 . S
C1616 C1617 1.414 . S
C1616 C1619 1.499 . S
C1617 H1591 0.950 . S
C1617 C1616 1.414 . S
C1617 C1618 1.374 . S
C1618 H1592 0.950 . S
C1618 C1614 1.385 . S
C1618 C1617 1.374 . S
C1619 C1616 1.499 . S
C1619 C1620 1.373 . S
C1619 C1621 1.389 . S
C1620 H1593 0.950 . S
C1620 C1606 1.377 . S
C1620 C1619 1.373 . S
C1621 C1605 1.377 . S
C1621 C1619 1.389 . S
C1621 C1622 1.524 . S
C1622 C1621 1.524 . S
C1622 C1623 1.397 . S
C1622 C1627 1.363 . S
C1623 H1594 0.950 . S
C1623 C1622 1.397 . S
C1623 C1624 1.334 . S
C1624 H1595 0.950 . S
C1624 C1623 1.334 . S
C1624 C1625 1.287 . S
C1625 C1624 1.287 . S
C1625 C1626 1.524 . S
C1625 H1628 0.999 . S
C1626 H1596 0.950 . S
C1626 C1625 1.524 . S
C1626 C1627 1.415 . S
C1627 H1597 0.950 . S
C1627 C1622 1.363 . S
C1627 C1626 1.415 . S
H1628 C1625 0.999 . S
H1629 C1610 0.913 . S
H1630 C1648 0.951 . S
H1631 C1650 0.951 . S
H1632 C1652 0.950 . S
H1633 C1653 0.950 . S
H1634 C1655 0.950 . S
H1635 C1658 0.950 . S
H1636 C1659 0.950 . S
H1637 C1661 0.950 . S
H1638 C1662 0.950 . S
H1639 C1663 0.951 . S
H1640 C1665 0.951 . S
H1641 C1667 0.950 . S
H1642 C1668 0.950 . S
H1643 C1670 0.950 . S
H1644 C1673 0.950 . S
H1645 C1674 0.950 . S
H1646 C1676 0.950 . S
H1647 C1677 0.950 . S
C1648 H1630 0.951 . S
C1648 C1649 1.366 . S
C1648 C1650 1.388 . S
C1649 C1648 1.366 . S
C1649 C1653 1.385 . S
C1650 H1631 0.951 . S
C1650 C1648 1.388 . S
C1650 C1651 1.366 . S
C1651 C1650 1.366 . S
C1651 C1652 1.414 . S
C1651 C1654 1.499 . S
C1652 H1632 0.950 . S
C1652 C1651 1.414 . S
C1652 C1653 1.374 . S
C1653 H1633 0.950 . S
C1653 C1649 1.385 . S
C1653 C1652 1.374 . S
C1654 C1651 1.499 . S
C1654 C1655 1.373 . S
C1654 C1656 1.389 . S
C1655 H1634 0.950 . S
C1655 C1654 1.373 . S
C1655 C1671 1.377 . S
C1656 C1654 1.389 . S
C1656 C1657 1.524 . S
C1656 C1670 1.377 . S
C1657 C1656 1.524 . S
C1657 C1658 1.397 . S
C1657 C1662 1.363 . S
C1658 H1635 0.950 . S
C1658 C1657 1.397 . S
C1658 C1659 1.334 . S
C1659 H1636 0.950 . S
C1659 C1658 1.334 . S
C1659 C1660 1.287 . S
C1660 C1659 1.287 . S
C1660 C1661 1.524 . S
C1660 H1679 0.913 . S
C1661 H1637 0.950 . S
C1661 C1660 1.524 . S
C1661 C1662 1.415 . S
C1662 H1638 0.950 . S
C1662 C1657 1.363 . S
C1662 C1661 1.415 . S
C1663 H1639 0.951 . S
C1663 C1664 1.366 . S
C1663 C1665 1.388 . S
C1664 C1663 1.366 . S
C1664 C1668 1.385 . S
C1665 H1640 0.951 . S
C1665 C1663 1.388 . S
C1665 C1666 1.366 . S
C1666 C1665 1.366 . S
C1666 C1667 1.414 . S
C1666 C1669 1.499 . S
C1667 H1641 0.950 . S
C1667 C1666 1.414 . S
C1667 C1668 1.374 . S
C1668 H1642 0.950 . S
C1668 C1664 1.385 . S
C1668 C1667 1.374 . S
C1669 C1666 1.499 . S
C1669 C1670 1.373 . S
C1669 C1671 1.389 . S
C1670 H1643 0.950 . S
C1670 C1656 1.377 . S
C1670 C1669 1.373 . S
C1671 C1655 1.377 . S
C1671 C1669 1.389 . S
C1671 C1672 1.524 . S
C1672 C1671 1.524 . S
C1672 C1673 1.397 . S
C1672 C1677 1.363 . S
C1673 H1644 0.950 . S
C1673 C1672 1.397 . S
C1673 C1674 1.334 . S
C1674 H1645 0.950 . S
C1674 C1673 1.334 . S
C1674 C1675 1.287 . S
C1675 C1674 1.287 . S
C1675 C1676 1.524 . S
C1675 H1678 0.999 . S
C1676 H1646 0.950 . S
C1676 C1675 1.524 . S
C1676 C1677 1.415 . S
C1677 H1647 0.950 . S
C1677 C1672 1.363 . S
C1677 C1676 1.415 . S
H1678 C1675 0.999 . S
H1679 C1660 0.913 . S
H1680 C1698 0.951 . S
H1681 C1700 0.951 . S
H1682 C1702 0.950 . S
H1683 C1703 0.950 . S
H1684 C1705 0.950 . S
H1685 C1708 0.950 . S
H1686 C1709 0.950 . S
H1687 C1711 0.950 . S
H1688 C1712 0.950 . S
H1689 C1713 0.951 . S
H1690 C1715 0.951 . S
H1691 C1717 0.950 . S
H1692 C1718 0.950 . S
H1693 C1720 0.950 . S
H1694 C1723 0.950 . S
H1695 C1724 0.950 . S
H1696 C1726 0.950 . S
H1697 C1727 0.950 . S
C1698 H1680 0.951 . S
C1698 C1699 1.366 . S
C1698 C1700 1.388 . S
C1699 C1698 1.366 . S
C1699 C1703 1.385 . S
C1700 H1681 0.951 . S
C1700 C1698 1.388 . S
C1700 C1701 1.366 . S
C1701 C1700 1.366 . S
C1701 C1702 1.414 . S
C1701 C1704 1.499 . S
C1702 H1682 0.950 . S
C1702 C1701 1.414 . S
C1702 C1703 1.374 . S
C1703 H1683 0.950 . S
C1703 C1699 1.385 . S
C1703 C1702 1.374 . S
C1704 C1701 1.499 . S
C1704 C1705 1.373 . S
C1704 C1706 1.389 . S
C1705 H1684 0.950 . S
C1705 C1704 1.373 . S
C1705 C1721 1.377 . S
C1706 C1704 1.389 . S
C1706 C1707 1.524 . S
C1706 C1720 1.377 . S
C1707 C1706 1.524 . S
C1707 C1708 1.397 . S
C1707 C1712 1.363 . S
C1708 H1685 0.950 . S
C1708 C1707 1.397 . S
C1708 C1709 1.334 . S
C1709 H1686 0.950 . S
C1709 C1708 1.334 . S
C1709 C1710 1.287 . S
C1710 C1709 1.287 . S
C1710 C1711 1.524 . S
C1710 H1729 0.913 . S
C1711 H1687 0.950 . S
C1711 C1710 1.524 . S
C1711 C1712 1.415 . S
C1712 H1688 0.950 . S
C1712 C1707 1.363 . S
C1712 C1711 1.415 . S
C1713 H1689 0.951 . S
C1713 C1714 1.366 . S
C1713 C1715 1.388 . S
C1714 C1713 1.366 . S
C1714 C1718 1.385 . S
C1715 H1690 0.951 . S
C1715 C1713 1.388 . S
C1715 C1716 1.366 . S
C1716 C1715 1.366 . S
C1716 C1717 1.414 . S
C1716 C1719 1.499 . S
C1717 H1691 0.950 . S
C1717 C1716 1.414 . S
C1717 C1718 1.374 . S
C1718 H1692 0.950 . S
C1718 C1714 1.385 . S
C1718 C1717 1.374 . S
C1719 C1716 1.499 . S
C1719 C1720 1.373 . S
C1719 C1721 1.389 . S
C1720 H1693 0.950 . S
C1720 C1706 1.377 . S
C1720 C1719 1.373 . S
C1721 C1705 1.377 . S
C1721 C1719 1.389 . S
C1721 C1722 1.524 . S
C1722 C1721 1.524 . S
C1722 C1723 1.397 . S
C1722 C1727 1.363 . S
C1723 H1694 0.950 . S
C1723 C1722 1.397 . S
C1723 C1724 1.334 . S
C1724 H1695 0.950 . S
C1724 C1723 1.334 . S
C1724 C1725 1.287 . S
C1725 C1724 1.287 . S
C1725 C1726 1.524 . S
C1725 H1728 0.999 . S
C1726 H1696 0.950 . S
C1726 C1725 1.524 . S
C1726 C1727 1.415 . S
C1727 H1697 0.950 . S
C1727 C1722 1.363 . S
C1727 C1726 1.415 . S
H1728 C1725 0.999 . S
H1729 C1710 0.913 . S
H1730 C1748 0.951 . S
H1731 C1750 0.951 . S
H1732 C1752 0.950 . S
H1733 C1753 0.950 . S
H1734 C1755 0.950 . S
H1735 C1758 0.950 . S
H1736 C1759 0.950 . S
H1737 C1761 0.950 . S
H1738 C1762 0.950 . S
H1739 C1763 0.951 . S
H1740 C1765 0.951 . S
H1741 C1767 0.950 . S
H1742 C1768 0.950 . S
H1743 C1770 0.950 . S
H1744 C1773 0.950 . S
H1745 C1774 0.950 . S
H1746 C1776 0.950 . S
H1747 C1777 0.950 . S
C1748 H1730 0.951 . S
C1748 C1749 1.366 . S
C1748 C1750 1.388 . S
C1749 C1748 1.366 . S
C1749 C1753 1.385 . S
C1750 H1731 0.951 . S
C1750 C1748 1.388 . S
C1750 C1751 1.366 . S
C1751 C1750 1.366 . S
C1751 C1752 1.414 . S
C1751 C1754 1.499 . S
C1752 H1732 0.950 . S
C1752 C1751 1.414 . S
C1752 C1753 1.374 . S
C1753 H1733 0.950 . S
C1753 C1749 1.385 . S
C1753 C1752 1.374 . S
C1754 C1751 1.499 . S
C1754 C1755 1.373 . S
C1754 C1756 1.389 . S
C1755 H1734 0.950 . S
C1755 C1754 1.373 . S
C1755 C1771 1.377 . S
C1756 C1754 1.389 . S
C1756 C1757 1.524 . S
C1756 C1770 1.377 . S
C1757 C1756 1.524 . S
C1757 C1758 1.397 . S
C1757 C1762 1.363 . S
C1758 H1735 0.950 . S
C1758 C1757 1.397 . S
C1758 C1759 1.334 . S
C1759 H1736 0.950 . S
C1759 C1758 1.334 . S
C1759 C1760 1.287 . S
C1760 C1759 1.287 . S
C1760 C1761 1.524 . S
C1760 H1779 0.913 . S
C1761 H1737 0.950 . S
C1761 C1760 1.524 . S
C1761 C1762 1.415 . S
C1762 H1738 0.950 . S
C1762 C1757 1.363 . S
C1762 C1761 1.415 . S
C1763 H1739 0.951 . S
C1763 C1764 1.366 . S
C1763 C1765 1.388 . S
C1764 C1763 1.366 . S
C1764 C1768 1.385 . S
C1765 H1740 0.951 . S
C1765 C1763 1.388 . S
C1765 C1766 1.366 . S
C1766 C1765 1.366 . S
C1766 C1767 1.414 . S
C1766 C1769 1.499 . S
C1767 H1741 0.950 . S
C1767 C1766 1.414 . S
C1767 C1768 1.374 . S
C1768 H1742 0.950 . S
C1768 C1764 1.385 . S
C1768 C1767 1.374 . S
C1769 C1766 1.499 . S
C1769 C1770 1.373 . S
C1769 C1771 1.389 . S
C1770 H1743 0.950 . S
C1770 C1756 1.377 . S
C1770 C1769 1.373 . S
C1771 C1755 1.377 . S
C1771 C1769 1.389 . S
C1771 C1772 1.524 . S
C1772 C1771 1.524 . S
C1772 C1773 1.397 . S
C1772 C1777 1.363 . S
C1773 H1744 0.950 . S
C1773 C1772 1.397 . S
C1773 C1774 1.334 . S
C1774 H1745 0.950 . S
C1774 C1773 1.334 . S
C1774 C1775 1.287 . S
C1775 C1774 1.287 . S
C1775 C1776 1.524 . S
C1775 H1778 0.999 . S
C1776 H1746 0.950 . S
C1776 C1775 1.524 . S
C1776 C1777 1.415 . S
C1777 H1747 0.950 . S
C1777 C1772 1.363 . S
C1777 C1776 1.415 . S
H1778 C1775 0.999 . S
H1779 C1760 0.913 . S
H1780 C1798 0.951 . S
H1781 C1800 0.951 . S
H1782 C1802 0.950 . S
H1783 C1803 0.950 . S
H1784 C1805 0.950 . S
H1785 C1808 0.950 . S
H1786 C1809 0.950 . S
H1787 C1811 0.950 . S
H1788 C1812 0.950 . S
H1789 C1813 0.951 . S
H1790 C1815 0.951 . S
H1791 C1817 0.950 . S
H1792 C1818 0.950 . S
H1793 C1820 0.950 . S
H1794 C1823 0.950 . S
H1795 C1824 0.950 . S
H1796 C1826 0.950 . S
H1797 C1827 0.950 . S
C1798 H1780 0.951 . S
C1798 C1799 1.366 . S
C1798 C1800 1.388 . S
C1799 C1798 1.366 . S
C1799 C1803 1.385 . S
C1800 H1781 0.951 . S
C1800 C1798 1.388 . S
C1800 C1801 1.366 . S
C1801 C1800 1.366 . S
C1801 C1802 1.414 . S
C1801 C1804 1.499 . S
C1802 H1782 0.950 . S
C1802 C1801 1.414 . S
C1802 C1803 1.374 . S
C1803 H1783 0.950 . S
C1803 C1799 1.385 . S
C1803 C1802 1.374 . S
C1804 C1801 1.499 . S
C1804 C1805 1.373 . S
C1804 C1806 1.389 . S
C1805 H1784 0.950 . S
C1805 C1804 1.373 . S
C1805 C1821 1.377 . S
C1806 C1804 1.389 . S
C1806 C1807 1.524 . S
C1806 C1820 1.377 . S
C1807 C1806 1.524 . S
C1807 C1808 1.397 . S
C1807 C1812 1.363 . S
C1808 H1785 0.950 . S
C1808 C1807 1.397 . S
C1808 C1809 1.334 . S
C1809 H1786 0.950 . S
C1809 C1808 1.334 . S
C1809 C1810 1.287 . S
C1810 C1809 1.287 . S
C1810 C1811 1.524 . S
C1810 H1829 0.913 . S
C1811 H1787 0.950 . S
C1811 C1810 1.524 . S
C1811 C1812 1.415 . S
C1812 H1788 0.950 . S
C1812 C1807 1.363 . S
C1812 C1811 1.415 . S
C1813 H1789 0.951 . S
C1813 C1814 1.366 . S
C1813 C1815 1.388 . S
C1814 C1813 1.366 . S
C1814 C1818 1.385 . S
C1815 H1790 0.951 . S
C1815 C1813 1.388 . S
C1815 C1816 1.366 . S
C1816 C1815 1.366 . S
C1816 C1817 1.414 . S
C1816 C1819 1.499 . S
C1817 H1791 0.950 . S
C1817 C1816 1.414 . S
C1817 C1818 1.374 . S
C1818 H1792 0.950 . S
C1818 C1814 1.385 . S
C1818 C1817 1.374 . S
C1819 C1816 1.499 . S
C1819 C1820 1.373 . S
C1819 C1821 1.389 . S
C1820 H1793 0.950 . S
C1820 C1806 1.377 . S
C1820 C1819 1.373 . S
C1821 C1805 1.377 . S
C1821 C1819 1.389 . S
C1821 C1822 1.524 . S
C1822 C1821 1.524 . S
C1822 C1823 1.397 . S
C1822 C1827 1.363 . S
C1823 H1794 0.950 . S
C1823 C1822 1.397 . S
C1823 C1824 1.334 . S
C1824 H1795 0.950 . S
C1824 C1823 1.334 . S
C1824 C1825 1.287 . S
C1825 C1824 1.287 . S
C1825 C1826 1.524 . S
C1825 H1828 0.999 . S
C1826 H1796 0.950 . S
C1826 C1825 1.524 . S
C1826 C1827 1.415 . S
C1827 H1797 0.950 . S
C1827 C1822 1.363 . S
C1827 C1826 1.415 . S
H1828 C1825 0.999 . S
H1829 C1810 0.913 . S
H1830 C1848 0.951 . S
H1831 C1850 0.951 . S
H1832 C1852 0.950 . S
H1833 C1853 0.950 . S
H1834 C1855 0.950 . S
H1835 C1858 0.950 . S
H1836 C1859 0.950 . S
H1837 C1861 0.950 . S
H1838 C1862 0.950 . S
H1839 C1863 0.951 . S
H1840 C1865 0.951 . S
H1841 C1867 0.950 . S
H1842 C1868 0.950 . S
H1843 C1870 0.950 . S
H1844 C1873 0.950 . S
H1845 C1874 0.950 . S
H1846 C1876 0.950 . S
H1847 C1877 0.950 . S
C1848 H1830 0.951 . S
C1848 C1849 1.366 . S
C1848 C1850 1.388 . S
C1849 C1848 1.366 . S
C1849 C1853 1.385 . S
C1850 H1831 0.951 . S
C1850 C1848 1.388 . S
C1850 C1851 1.366 . S
C1851 C1850 1.366 . S
C1851 C1852 1.414 . S
C1851 C1854 1.499 . S
C1852 H1832 0.950 . S
C1852 C1851 1.414 . S
C1852 C1853 1.374 . S
C1853 H1833 0.950 . S
C1853 C1849 1.385 . S
C1853 C1852 1.374 . S
C1854 C1851 1.499 . S
C1854 C1855 1.373 . S
C1854 C1856 1.389 . S
C1855 H1834 0.950 . S
C1855 C1854 1.373 . S
C1855 C1871 1.377 . S
C1856 C1854 1.389 . S
C1856 C1857 1.524 . S
C1856 C1870 1.377 . S
C1857 C1856 1.524 . S
C1857 C1858 1.397 . S
C1857 C1862 1.363 . S
C1858 H1835 0.950 . S
C1858 C1857 1.397 . S
C1858 C1859 1.334 . S
C1859 H1836 0.950 . S
C1859 C1858 1.334 . S
C1859 C1860 1.287 . S
C1860 C1859 1.287 . S
C1860 C1861 1.524 . S
C1860 H1879 0.913 . S
C1861 H1837 0.950 . S
C1861 C1860 1.524 . S
C1861 C1862 1.415 . S
C1862 H1838 0.950 . S
C1862 C1857 1.363 . S
C1862 C1861 1.415 . S
C1863 H1839 0.951 . S
C1863 C1864 1.366 . S
C1863 C1865 1.388 . S
C1864 C1863 1.366 . S
C1864 C1868 1.385 . S
C1865 H1840 0.951 . S
C1865 C1863 1.388 . S
C1865 C1866 1.366 . S
C1866 C1865 1.366 . S
C1866 C1867 1.414 . S
C1866 C1869 1.499 . S
C1867 H1841 0.950 . S
C1867 C1866 1.414 . S
C1867 C1868 1.374 . S
C1868 H1842 0.950 . S
C1868 C1864 1.385 . S
C1868 C1867 1.374 . S
C1869 C1866 1.499 . S
C1869 C1870 1.373 . S
C1869 C1871 1.389 . S
C1870 H1843 0.950 . S
C1870 C1856 1.377 . S
C1870 C1869 1.373 . S
C1871 C1855 1.377 . S
C1871 C1869 1.389 . S
C1871 C1872 1.524 . S
C1872 C1871 1.524 . S
C1872 C1873 1.397 . S
C1872 C1877 1.363 . S
C1873 H1844 0.950 . S
C1873 C1872 1.397 . S
C1873 C1874 1.334 . S
C1874 H1845 0.950 . S
C1874 C1873 1.334 . S
C1874 C1875 1.287 . S
C1875 C1874 1.287 . S
C1875 C1876 1.524 . S
C1875 H1878 0.999 . S
C1876 H1846 0.950 . S
C1876 C1875 1.524 . S
C1876 C1877 1.415 . S
C1877 H1847 0.950 . S
C1877 C1872 1.363 . S
C1877 C1876 1.415 . S
H1878 C1875 0.999 . S
H1879 C1860 0.913 . S
H1880 C1898 0.951 . S
H1881 C1900 0.951 . S
H1882 C1902 0.950 . S
H1883 C1903 0.950 . S
H1884 C1905 0.950 . S
H1885 C1908 0.950 . S
H1886 C1909 0.950 . S
H1887 C1911 0.950 . S
H1888 C1912 0.950 . S
H1889 C1913 0.951 . S
H1890 C1915 0.951 . S
H1891 C1917 0.950 . S
H1892 C1918 0.950 . S
H1893 C1920 0.950 . S
H1894 C1923 0.950 . S
H1895 C1924 0.950 . S
H1896 C1926 0.950 . S
H1897 C1927 0.950 . S
C1898 H1880 0.951 . S
C1898 C1899 1.366 . S
C1898 C1900 1.388 . S
C1899 C1898 1.366 . S
C1899 C1903 1.385 . S
C1900 H1881 0.951 . S
C1900 C1898 1.388 . S
C1900 C1901 1.366 . S
C1901 C1900 1.366 . S
C1901 C1902 1.414 . S
C1901 C1904 1.499 . S
C1902 H1882 0.950 . S
C1902 C1901 1.414 . S
C1902 C1903 1.374 . S
C1903 H1883 0.950 . S
C1903 C1899 1.385 . S
C1903 C1902 1.374 . S
C1904 C1901 1.499 . S
C1904 C1905 1.373 . S
C1904 C1906 1.389 . S
C1905 H1884 0.950 . S
C1905 C1904 1.373 . S
C1905 C1921 1.377 . S
C1906 C1904 1.389 . S
C1906 C1907 1.524 . S
C1906 C1920 1.377 . S
C1907 C1906 1.524 . S
C1907 C1908 1.397 . S
C1907 C1912 1.363 . S
C1908 H1885 0.950 . S
C1908 C1907 1.397 . S
C1908 C1909 1.334 . S
C1909 H1886 0.950 . S
C1909 C1908 1.334 . S
C1909 C1910 1.287 . S
C1910 C1909 1.287 . S
C1910 C1911 1.524 . S
C1910 H1929 0.913 . S
C1911 H1887 0.950 . S
C1911 C1910 1.524 . S
C1911 C1912 1.415 . S
C1912 H1888 0.950 . S
C1912 C1907 1.363 . S
C1912 C1911 1.415 . S
C1913 H1889 0.951 . S
C1913 C1914 1.366 . S
C1913 C1915 1.388 . S
C1914 C1913 1.366 . S
C1914 C1918 1.385 . S
C1915 H1890 0.951 . S
C1915 C1913 1.388 . S
C1915 C1916 1.366 . S
C1916 C1915 1.366 . S
C1916 C1917 1.414 . S
C1916 C1919 1.499 . S
C1917 H1891 0.950 . S
C1917 C1916 1.414 . S
C1917 C1918 1.374 . S
C1918 H1892 0.950 . S
C1918 C1914 1.385 . S
C1918 C1917 1.374 . S
C1919 C1916 1.499 . S
C1919 C1920 1.373 . S
C1919 C1921 1.389 . S
C1920 H1893 0.950 . S
C1920 C1906 1.377 . S
C1920 C1919 1.373 . S
C1921 C1905 1.377 . S
C1921 C1919 1.389 . S
C1921 C1922 1.524 . S
C1922 C1921 1.524 . S
C1922 C1923 1.397 . S
C1922 C1927 1.363 . S
C1923 H1894 0.950 . S
C1923 C1922 1.397 . S
C1923 C1924 1.334 . S
C1924 H1895 0.950 . S
C1924 C1923 1.334 . S
C1924 C1925 1.287 . S
C1925 C1924 1.287 . S
C1925 C1926 1.524 . S
C1925 H1928 0.999 . S
C1926 H1896 0.950 . S
C1926 C1925 1.524 . S
C1926 C1927 1.415 . S
C1927 H1897 0.950 . S
C1927 C1922 1.363 . S
C1927 C1926 1.415 . S
H1928 C1925 0.999 . S
H1929 C1910 0.913 . S
H1930 C1948 0.951 . S
H1931 C1950 0.951 . S
H1932 C1952 0.950 . S
H1933 C1953 0.950 . S
H1934 C1955 0.950 . S
H1935 C1958 0.950 . S
H1936 C1959 0.950 . S
H1937 C1961 0.950 . S
H1938 C1962 0.950 . S
H1939 C1963 0.951 . S
H1940 C1965 0.951 . S
H1941 C1967 0.950 . S
H1942 C1968 0.950 . S
H1943 C1970 0.950 . S
H1944 C1973 0.950 . S
H1945 C1974 0.950 . S
H1946 C1976 0.950 . S
H1947 C1977 0.950 . S
C1948 H1930 0.951 . S
C1948 C1949 1.366 . S
C1948 C1950 1.388 . S
C1949 C1948 1.366 . S
C1949 C1953 1.385 . S
C1950 H1931 0.951 . S
C1950 C1948 1.388 . S
C1950 C1951 1.366 . S
C1951 C1950 1.366 . S
C1951 C1952 1.414 . S
C1951 C1954 1.499 . S
C1952 H1932 0.950 . S
C1952 C1951 1.414 . S
C1952 C1953 1.374 . S
C1953 H1933 0.950 . S
C1953 C1949 1.385 . S
C1953 C1952 1.374 . S
C1954 C1951 1.499 . S
C1954 C1955 1.373 . S
C1954 C1956 1.389 . S
C1955 H1934 0.950 . S
C1955 C1954 1.373 . S
C1955 C1971 1.377 . S
C1956 C1954 1.389 . S
C1956 C1957 1.524 . S
C1956 C1970 1.377 . S
C1957 C1956 1.524 . S
C1957 C1958 1.397 . S
C1957 C1962 1.363 . S
C1958 H1935 0.950 . S
C1958 C1957 1.397 . S
C1958 C1959 1.334 . S
C1959 H1936 0.950 . S
C1959 C1958 1.334 . S
C1959 C1960 1.287 . S
C1960 C1959 1.287 . S
C1960 C1961 1.524 . S
C1960 H1979 0.913 . S
C1961 H1937 0.950 . S
C1961 C1960 1.524 . S
C1961 C1962 1.415 . S
C1962 H1938 0.950 . S
C1962 C1957 1.363 . S
C1962 C1961 1.415 . S
C1963 H1939 0.951 . S
C1963 C1964 1.366 . S
C1963 C1965 1.388 . S
C1964 C1963 1.366 . S
C1964 C1968 1.385 . S
C1965 H1940 0.951 . S
C1965 C1963 1.388 . S
C1965 C1966 1.366 . S
C1966 C1965 1.366 . S
C1966 C1967 1.414 . S
C1966 C1969 1.499 . S
C1967 H1941 0.950 . S
C1967 C1966 1.414 . S
C1967 C1968 1.374 . S
C1968 H1942 0.950 . S
C1968 C1964 1.385 . S
C1968 C1967 1.374 . S
C1969 C1966 1.499 . S
C1969 C1970 1.373 . S
C1969 C1971 1.389 . S
C1970 H1943 0.950 . S
C1970 C1956 1.377 . S
C1970 C1969 1.373 . S
C1971 C1955 1.377 . S
C1971 C1969 1.389 . S
C1971 C1972 1.524 . S
C1972 C1971 1.524 . S
C1972 C1973 1.397 . S
C1972 C1977 1.363 . S
C1973 H1944 0.950 . S
C1973 C1972 1.397 . S
C1973 C1974 1.334 . S
C1974 H1945 0.950 . S
C1974 C1973 1.334 . S
C1974 C1975 1.287 . S
C1975 C1974 1.287 . S
C1975 C1976 1.524 . S
C1975 H1978 0.999 . S
C1976 H1946 0.950 . S
C1976 C1975 1.524 . S
C1976 C1977 1.415 . S
C1977 H1947 0.950 . S
C1977 C1972 1.363 . S
C1977 C1976 1.415 . S
H1978 C1975 0.999 . S
H1979 C1960 0.913 . S
H1980 C1998 0.951 . S
H1981 C2000 0.951 . S
H1982 C2002 0.950 . S
H1983 C2003 0.950 . S
H1984 C2005 0.950 . S
H1985 C2008 0.950 . S
H1986 C2009 0.950 . S
H1987 C2011 0.950 . S
H1988 C2012 0.950 . S
H1989 C2013 0.951 . S
H1990 C2015 0.951 . S
H1991 C2017 0.950 . S
H1992 C2018 0.950 . S
H1993 C2020 0.950 . S
H1994 C2023 0.950 . S
H1995 C2024 0.950 . S
H1996 C2026 0.950 . S
H1997 C2027 0.950 . S
C1998 H1980 0.951 . S
C1998 C1999 1.366 . S
C1998 C2000 1.388 . S
C1999 C1998 1.366 . S
C1999 C2003 1.385 . S
C2000 H1981 0.951 . S
C2000 C1998 1.388 . S
C2000 C2001 1.366 . S
C2001 C2000 1.366 . S
C2001 C2002 1.414 . S
C2001 C2004 1.499 . S
C2002 H1982 0.950 . S
C2002 C2001 1.414 . S
C2002 C2003 1.374 . S
C2003 H1983 0.950 . S
C2003 C1999 1.385 . S
C2003 C2002 1.374 . S
C2004 C2001 1.499 . S
C2004 C2005 1.373 . S
C2004 C2006 1.389 . S
C2005 H1984 0.950 . S
C2005 C2004 1.373 . S
C2005 C2021 1.377 . S
C2006 C2004 1.389 . S
C2006 C2007 1.524 . S
C2006 C2020 1.377 . S
C2007 C2006 1.524 . S
C2007 C2008 1.397 . S
C2007 C2012 1.363 . S
C2008 H1985 0.950 . S
C2008 C2007 1.397 . S
C2008 C2009 1.334 . S
C2009 H1986 0.950 . S
C2009 C2008 1.334 . S
C2009 C2010 1.287 . S
C2010 C2009 1.287 . S
C2010 C2011 1.524 . S
C2010 H2029 0.913 . S
C2011 H1987 0.950 . S
C2011 C2010 1.524 . S
C2011 C2012 1.415 . S
C2012 H1988 0.950 . S
C2012 C2007 1.363 . S
C2012 C2011 1.415 . S
C2013 H1989 0.951 . S
C2013 C2014 1.366 . S
C2013 C2015 1.388 . S
C2014 C2013 1.366 . S
C2014 C2018 1.385 . S
C2015 H1990 0.951 . S
C2015 C2013 1.388 . S
C2015 C2016 1.366 . S
C2016 C2015 1.366 . S
C2016 C2017 1.414 . S
C2016 C2019 1.499 . S
C2017 H1991 0.950 . S
C2017 C2016 1.414 . S
C2017 C2018 1.374 . S
C2018 H1992 0.950 . S
C2018 C2014 1.385 . S
C2018 C2017 1.374 . S
C2019 C2016 1.499 . S
C2019 C2020 1.373 . S
C2019 C2021 1.389 . S
C2020 H1993 0.950 . S
C2020 C2006 1.377 . S
C2020 C2019 1.373 . S
C2021 C2005 1.377 . S
C2021 C2019 1.389 . S
C2021 C2022 1.524 . S
C2022 C2021 1.524 . S
C2022 C2023 1.397 . S
C2022 C2027 1.363 . S
C2023 H1994 0.950 . S
C2023 C2022 1.397 . S
C2023 C2024 1.334 . S
C2024 H1995 0.950 . S
C2024 C2023 1.334 . S
C2024 C2025 1.287 . S
C2025 C2024 1.287 . S
C2025 C2026 1.524 . S
C2025 H2028 0.999 . S
C2026 H1996 0.950 . S
C2026 C2025 1.524 . S
C2026 C2027 1.415 . S
C2027 H1997 0.950 . S
C2027 C2022 1.363 . S
C2027 C2026 1.415 . S
H2028 C2025 0.999 . S
H2029 C2010 0.913 . S
H2030 C2048 0.951 . S
H2031 C2050 0.951 . S
H2032 C2052 0.950 . S
H2033 C2053 0.950 . S
H2034 C2055 0.950 . S
H2035 C2058 0.950 . S
H2036 C2059 0.950 . S
H2037 C2061 0.950 . S
H2038 C2062 0.950 . S
H2039 C2063 0.951 . S
H2040 C2065 0.951 . S
H2041 C2067 0.950 . S
H2042 C2068 0.950 . S
H2043 C2070 0.950 . S
H2044 C2073 0.950 . S
H2045 C2074 0.950 . S
H2046 C2076 0.950 . S
H2047 C2077 0.950 . S
C2048 H2030 0.951 . S
C2048 C2049 1.366 . S
C2048 C2050 1.388 . S
C2049 C2048 1.366 . S
C2049 C2053 1.385 . S
C2050 H2031 0.951 . S
C2050 C2048 1.388 . S
C2050 C2051 1.366 . S
C2051 C2050 1.366 . S
C2051 C2052 1.414 . S
C2051 C2054 1.499 . S
C2052 H2032 0.950 . S
C2052 C2051 1.414 . S
C2052 C2053 1.374 . S
C2053 H2033 0.950 . S
C2053 C2049 1.385 . S
C2053 C2052 1.374 . S
C2054 C2051 1.499 . S
C2054 C2055 1.373 . S
C2054 C2056 1.389 . S
C2055 H2034 0.950 . S
C2055 C2054 1.373 . S
C2055 C2071 1.377 . S
C2056 C2054 1.389 . S
C2056 C2057 1.524 . S
C2056 C2070 1.377 . S
C2057 C2056 1.524 . S
C2057 C2058 1.397 . S
C2057 C2062 1.363 . S
C2058 H2035 0.950 . S
C2058 C2057 1.397 . S
C2058 C2059 1.334 . S
C2059 H2036 0.950 . S
C2059 C2058 1.334 . S
C2059 C2060 1.287 . S
C2060 C2059 1.287 . S
C2060 C2061 1.524 . S
C2060 H2079 0.913 . S
C2061 H2037 0.950 . S
C2061 C2060 1.524 . S
C2061 C2062 1.415 . S
C2062 H2038 0.950 . S
C2062 C2057 1.363 . S
C2062 C2061 1.415 . S
C2063 H2039 0.951 . S
C2063 C2064 1.366 . S
C2063 C2065 1.388 . S
C2064 C2063 1.366 . S
C2064 C2068 1.385 . S
C2065 H2040 0.951 . S
C2065 C2063 1.388 . S
C2065 C2066 1.366 . S
C2066 C2065 1.366 . S
C2066 C2067 1.414 . S
C2066 C2069 1.499 . S
C2067 H2041 0.950 . S
C2067 C2066 1.414 . S
C2067 C2068 1.374 . S
C2068 H2042 0.950 . S
C2068 C2064 1.385 . S
C2068 C2067 1.374 . S
C2069 C2066 1.499 . S
C2069 C2070 1.373 . S
C2069 C2071 1.389 . S
C2070 H2043 0.950 . S
C2070 C2056 1.377 . S
C2070 C2069 1.373 . S
C2071 C2055 1.377 . S
C2071 C2069 1.389 . S
C2071 C2072 1.524 . S
C2072 C2071 1.524 . S
C2072 C2073 1.397 . S
C2072 C2077 1.363 . S
C2073 H2044 0.950 . S
C2073 C2072 1.397 . S
C2073 C2074 1.334 . S
C2074 H2045 0.950 . S
C2074 C2073 1.334 . S
C2074 C2075 1.287 . S
C2075 C2074 1.287 . S
C2075 C2076 1.524 . S
C2075 H2078 0.999 . S
C2076 H2046 0.950 . S
C2076 C2075 1.524 . S
C2076 C2077 1.415 . S
C2077 H2047 0.950 . S
C2077 C2072 1.363 . S
C2077 C2076 1.415 . S
H2078 C2075 0.999 . S
H2079 C2060 0.913 . S
H2080 C2098 0.951 . S
H2081 C2100 0.951 . S
H2082 C2102 0.950 . S
H2083 C2103 0.950 . S
H2084 C2105 0.950 . S
H2085 C2108 0.950 . S
H2086 C2109 0.950 . S
H2087 C2111 0.950 . S
H2088 C2112 0.950 . S
H2089 C2113 0.951 . S
H2090 C2115 0.951 . S
H2091 C2117 0.950 . S
H2092 C2118 0.950 . S
H2093 C2120 0.950 . S
H2094 C2123 0.950 . S
H2095 C2124 0.950 . S
H2096 C2126 0.950 . S
H2097 C2127 0.950 . S
C2098 H2080 0.951 . S
C2098 C2099 1.366 . S
C2098 C2100 1.388 . S
C2099 C2098 1.366 . S
C2099 C2103 1.385 . S
C2100 H2081 0.951 . S
C2100 C2098 1.388 . S
C2100 C2101 1.366 . S
C2101 C2100 1.366 . S
C2101 C2102 1.414 . S
C2101 C2104 1.499 . S
C2102 H2082 0.950 . S
C2102 C2101 1.414 . S
C2102 C2103 1.374 . S
C2103 H2083 0.950 . S
C2103 C2099 1.385 . S
C2103 C2102 1.374 . S
C2104 C2101 1.499 . S
C2104 C2105 1.373 . S
C2104 C2106 1.389 . S
C2105 H2084 0.950 . S
C2105 C2104 1.373 . S
C2105 C2121 1.377 . S
C2106 C2104 1.389 . S
C2106 C2107 1.524 . S
C2106 C2120 1.377 . S
C2107 C2106 1.524 . S
C2107 C2108 1.397 . S
C2107 C2112 1.363 . S
C2108 H2085 0.950 . S
C2108 C2107 1.397 . S
C2108 C2109 1.334 . S
C2109 H2086 0.950 . S
C2109 C2108 1.334 . S
C2109 C2110 1.287 . S
C2110 C2109 1.287 . S
C2110 C2111 1.524 . S
C2110 H2129 0.913 . S
C2111 H2087 0.950 . S
C2111 C2110 1.524 . S
C2111 C2112 1.415 . S
C2112 H2088 0.950 . S
C2112 C2107 1.363 . S
C2112 C2111 1.415 . S
C2113 H2089 0.951 . S
C2113 C2114 1.366 . S
C2113 C2115 1.388 . S
C2114 C2113 1.366 . S
C2114 C2118 1.385 . S
C2115 H2090 0.951 . S
C2115 C2113 1.388 . S
C2115 C2116 1.366 . S
C2116 C2115 1.366 . S
C2116 C2117 1.414 . S
C2116 C2119 1.499 . S
C2117 H2091 0.950 . S
C2117 C2116 1.414 . S
C2117 C2118 1.374 . S
C2118 H2092 0.950 . S
C2118 C2114 1.385 . S
C2118 C2117 1.374 . S
C2119 C2116 1.499 . S
C2119 C2120 1.373 . S
C2119 C2121 1.389 . S
C2120 H2093 0.950 . S
C2120 C2106 1.377 . S
C2120 C2119 1.373 . S
C2121 C2105 1.377 . S
C2121 C2119 1.389 . S
C2121 C2122 1.524 . S
C2122 C2121 1.524 . S
C2122 C2123 1.397 . S
C2122 C2127 1.363 . S
C2123 H2094 0.950 . S
C2123 C2122 1.397 . S
C2123 C2124 1.334 . S
C2124 H2095 0.950 . S
C2124 C2123 1.334 . S
C2124 C2125 1.287 . S
C2125 C2124 1.287 . S
C2125 C2126 1.524 . S
C2125 H2128 0.999 . S
C2126 H2096 0.950 . S
C2126 C2125 1.524 . S
C2126 C2127 1.415 . S
C2127 H2097 0.950 . S
C2127 C2122 1.363 . S
C2127 C2126 1.415 . S
H2128 C2125 0.999 . S
H2129 C2110 0.913 . S
H2130 C2148 0.951 . S
H2131 C2150 0.951 . S
H2132 C2152 0.950 . S
H2133 C2153 0.950 . S
H2134 C2155 0.950 . S
H2135 C2158 0.950 . S
H2136 C2159 0.950 . S
H2137 C2161 0.950 . S
H2138 C2162 0.950 . S
H2139 C2163 0.951 . S
H2140 C2165 0.951 . S
H2141 C2167 0.950 . S
H2142 C2168 0.950 . S
H2143 C2170 0.950 . S
H2144 C2173 0.950 . S
H2145 C2174 0.950 . S
H2146 C2176 0.950 . S
H2147 C2177 0.950 . S
C2148 H2130 0.951 . S
C2148 C2149 1.366 . S
C2148 C2150 1.388 . S
C2149 C2148 1.366 . S
C2149 C2153 1.385 . S
C2150 H2131 0.951 . S
C2150 C2148 1.388 . S
C2150 C2151 1.366 . S
C2151 C2150 1.366 . S
C2151 C2152 1.414 . S
C2151 C2154 1.499 . S
C2152 H2132 0.950 . S
C2152 C2151 1.414 . S
C2152 C2153 1.374 . S
C2153 H2133 0.950 . S
C2153 C2149 1.385 . S
C2153 C2152 1.374 . S
C2154 C2151 1.499 . S
C2154 C2155 1.373 . S
C2154 C2156 1.389 . S
C2155 H2134 0.950 . S
C2155 C2154 1.373 . S
C2155 C2171 1.377 . S
C2156 C2154 1.389 . S
C2156 C2157 1.524 . S
C2156 C2170 1.377 . S
C2157 C2156 1.524 . S
C2157 C2158 1.397 . S
C2157 C2162 1.363 . S
C2158 H2135 0.950 . S
C2158 C2157 1.397 . S
C2158 C2159 1.334 . S
C2159 H2136 0.950 . S
C2159 C2158 1.334 . S
C2159 C2160 1.287 . S
C2160 C2159 1.287 . S
C2160 C2161 1.524 . S
C2160 H2179 0.913 . S
C2161 H2137 0.950 . S
C2161 C2160 1.524 . S
C2161 C2162 1.415 . S
C2162 H2138 0.950 . S
C2162 C2157 1.363 . S
C2162 C2161 1.415 . S
C2163 H2139 0.951 . S
C2163 C2164 1.366 . S
C2163 C2165 1.388 . S
C2164 C2163 1.366 . S
C2164 C2168 1.385 . S
C2165 H2140 0.951 . S
C2165 C2163 1.388 . S
C2165 C2166 1.366 . S
C2166 C2165 1.366 . S
C2166 C2167 1.414 . S
C2166 C2169 1.499 . S
C2167 H2141 0.950 . S
C2167 C2166 1.414 . S
C2167 C2168 1.374 . S
C2168 H2142 0.950 . S
C2168 C2164 1.385 . S
C2168 C2167 1.374 . S
C2169 C2166 1.499 . S
C2169 C2170 1.373 . S
C2169 C2171 1.389 . S
C2170 H2143 0.950 . S
C2170 C2156 1.377 . S
C2170 C2169 1.373 . S
C2171 C2155 1.377 . S
C2171 C2169 1.389 . S
C2171 C2172 1.524 . S
C2172 C2171 1.524 . S
C2172 C2173 1.397 . S
C2172 C2177 1.363 . S
C2173 H2144 0.950 . S
C2173 C2172 1.397 . S
C2173 C2174 1.334 . S
C2174 H2145 0.950 . S
C2174 C2173 1.334 . S
C2174 C2175 1.287 . S
C2175 C2174 1.287 . S
C2175 C2176 1.524 . S
C2175 H2178 0.999 . S
C2176 H2146 0.950 . S
C2176 C2175 1.524 . S
C2176 C2177 1.415 . S
C2177 H2147 0.950 . S
C2177 C2172 1.363 . S
C2177 C2176 1.415 . S
H2178 C2175 0.999 . S
H2179 C2160 0.913 . S
H2180 C2198 0.951 . S
H2181 C2200 0.951 . S
H2182 C2202 0.950 . S
H2183 C2203 0.950 . S
H2184 C2205 0.950 . S
H2185 C2208 0.950 . S
H2186 C2209 0.950 . S
H2187 C2211 0.950 . S
H2188 C2212 0.950 . S
H2189 C2213 0.951 . S
H2190 C2215 0.951 . S
H2191 C2217 0.950 . S
H2192 C2218 0.950 . S
H2193 C2220 0.950 . S
H2194 C2223 0.950 . S
H2195 C2224 0.950 . S
H2196 C2226 0.950 . S
H2197 C2227 0.950 . S
C2198 H2180 0.951 . S
C2198 C2199 1.366 . S
C2198 C2200 1.388 . S
C2199 C2198 1.366 . S
C2199 C2203 1.385 . S
C2200 H2181 0.951 . S
C2200 C2198 1.388 . S
C2200 C2201 1.366 . S
C2201 C2200 1.366 . S
C2201 C2202 1.414 . S
C2201 C2204 1.499 . S
C2202 H2182 0.950 . S
C2202 C2201 1.414 . S
C2202 C2203 1.374 . S
C2203 H2183 0.950 . S
C2203 C2199 1.385 . S
C2203 C2202 1.374 . S
C2204 C2201 1.499 . S
C2204 C2205 1.373 . S
C2204 C2206 1.389 . S
C2205 H2184 0.950 . S
C2205 C2204 1.373 . S
C2205 C2221 1.377 . S
C2206 C2204 1.389 . S
C2206 C2207 1.524 . S
C2206 C2220 1.377 . S
C2207 C2206 1.524 . S
C2207 C2208 1.397 . S
C2207 C2212 1.363 . S
C2208 H2185 0.950 . S
C2208 C2207 1.397 . S
C2208 C2209 1.334 . S
C2209 H2186 0.950 . S
C2209 C2208 1.334 . S
C2209 C2210 1.287 . S
C2210 C2209 1.287 . S
C2210 C2211 1.524 . S
C2210 H2229 0.913 . S
C2211 H2187 0.950 . S
C2211 C2210 1.524 . S
C2211 C2212 1.415 . S
C2212 H2188 0.950 . S
C2212 C2207 1.363 . S
C2212 C2211 1.415 . S
C2213 H2189 0.951 . S
C2213 C2214 1.366 . S
C2213 C2215 1.388 . S
C2214 C2213 1.366 . S
C2214 C2218 1.385 . S
C2215 H2190 0.951 . S
C2215 C2213 1.388 . S
C2215 C2216 1.366 . S
C2216 C2215 1.366 . S
C2216 C2217 1.414 . S
C2216 C2219 1.499 . S
C2217 H2191 0.950 . S
C2217 C2216 1.414 . S
C2217 C2218 1.374 . S
C2218 H2192 0.950 . S
C2218 C2214 1.385 . S
C2218 C2217 1.374 . S
C2219 C2216 1.499 . S
C2219 C2220 1.373 . S
C2219 C2221 1.389 . S
C2220 H2193 0.950 . S
C2220 C2206 1.377 . S
C2220 C2219 1.373 . S
C2221 C2205 1.377 . S
C2221 C2219 1.389 . S
C2221 C2222 1.524 . S
C2222 C2221 1.524 . S
C2222 C2223 1.397 . S
C2222 C2227 1.363 . S
C2223 H2194 0.950 . S
C2223 C2222 1.397 . S
C2223 C2224 1.334 . S
C2224 H2195 0.950 . S
C2224 C2223 1.334 . S
C2224 C2225 1.287 . S
C2225 C2224 1.287 . S
C2225 C2226 1.524 . S
C2225 H2228 0.999 . S
C2226 H2196 0.950 . S
C2226 C2225 1.524 . S
C2226 C2227 1.415 . S
C2227 H2197 0.950 . S
C2227 C2222 1.363 . S
C2227 C2226 1.415 . S
H2228 C2225 0.999 . S
H2229 C2210 0.913 . S
H2230 C2248 0.951 . S
H2231 C2250 0.951 . S
H2232 C2252 0.950 . S
H2233 C2253 0.950 . S
H2234 C2255 0.950 . S
H2235 C2258 0.950 . S
H2236 C2259 0.950 . S
H2237 C2261 0.950 . S
H2238 C2262 0.950 . S
H2239 C2263 0.951 . S
H2240 C2265 0.951 . S
H2241 C2267 0.950 . S
H2242 C2268 0.950 . S
H2243 C2270 0.950 . S
H2244 C2273 0.950 . S
H2245 C2274 0.950 . S
H2246 C2276 0.950 . S
H2247 C2277 0.950 . S
C2248 H2230 0.951 . S
C2248 C2249 1.366 . S
C2248 C2250 1.388 . S
C2249 C2248 1.366 . S
C2249 C2253 1.385 . S
C2250 H2231 0.951 . S
C2250 C2248 1.388 . S
C2250 C2251 1.366 . S
C2251 C2250 1.366 . S
C2251 C2252 1.414 . S
C2251 C2254 1.499 . S
C2252 H2232 0.950 . S
C2252 C2251 1.414 . S
C2252 C2253 1.374 . S
C2253 H2233 0.950 . S
C2253 C2249 1.385 . S
C2253 C2252 1.374 . S
C2254 C2251 1.499 . S
C2254 C2255 1.373 . S
C2254 C2256 1.389 . S
C2255 H2234 0.950 . S
C2255 C2254 1.373 . S
C2255 C2271 1.377 . S
C2256 C2254 1.389 . S
C2256 C2257 1.524 . S
C2256 C2270 1.377 . S
C2257 C2256 1.524 . S
C2257 C2258 1.397 . S
C2257 C2262 1.363 . S
C2258 H2235 0.950 . S
C2258 C2257 1.397 . S
C2258 C2259 1.334 . S
C2259 H2236 0.950 . S
C2259 C2258 1.334 . S
C2259 C2260 1.287 . S
C2260 C2259 1.287 . S
C2260 C2261 1.524 . S
C2260 H2279 0.913 . S
C2261 H2237 0.950 . S
C2261 C2260 1.524 . S
C2261 C2262 1.415 . S
C2262 H2238 0.950 . S
C2262 C2257 1.363 . S
C2262 C2261 1.415 . S
C2263 H2239 0.951 . S
C2263 C2264 1.366 . S
C2263 C2265 1.388 . S
C2264 C2263 1.366 . S
C2264 C2268 1.385 . S
C2265 H2240 0.951 . S
C2265 C2263 1.388 . S
C2265 C2266 1.366 . S
C2266 C2265 1.366 . S
C2266 C2267 1.414 . S
C2266 C2269 1.499 . S
C2267 H2241 0.950 . S
C2267 C2266 1.414 . S
C2267 C2268 1.374 . S
C2268 H2242 0.950 . S
C2268 C2264 1.385 . S
C2268 C2267 1.374 . S
C2269 C2266 1.499 . S
C2269 C2270 1.373 . S
C2269 C2271 1.389 . S
C2270 H2243 0.950 . S
C2270 C2256 1.377 . S
C2270 C2269 1.373 . S
C2271 C2255 1.377 . S
C2271 C2269 1.389 . S
C2271 C2272 1.524 . S
C2272 C2271 1.524 . S
C2272 C2273 1.397 . S
C2272 C2277 1.363 . S
C2273 H2244 0.950 . S
C2273 C2272 1.397 . S
C2273 C2274 1.334 . S
C2274 H2245 0.950 . S
C2274 C2273 1.334 . S
C2274 C2275 1.287 . S
C2275 C2274 1.287 . S
C2275 C2276 1.524 . S
C2275 H2278 0.999 . S
C2276 H2246 0.950 . S
C2276 C2275 1.524 . S
C2276 C2277 1.415 . S
C2277 H2247 0.950 . S
C2277 C2272 1.363 . S
C2277 C2276 1.415 . S
H2278 C2275 0.999 . S
H2279 C2260 0.913 . S
H2280 C2298 0.951 . S
H2281 C2300 0.951 . S
H2282 C2302 0.950 . S
H2283 C2303 0.950 . S
H2284 C2305 0.950 . S
H2285 C2308 0.950 . S
H2286 C2309 0.950 . S
H2287 C2311 0.950 . S
H2288 C2312 0.950 . S
H2289 C2313 0.951 . S
H2290 C2315 0.951 . S
H2291 C2317 0.950 . S
H2292 C2318 0.950 . S
H2293 C2320 0.950 . S
H2294 C2323 0.950 . S
H2295 C2324 0.950 . S
H2296 C2326 0.950 . S
H2297 C2327 0.950 . S
C2298 H2280 0.951 . S
C2298 C2299 1.366 . S
C2298 C2300 1.388 . S
C2299 C2298 1.366 . S
C2299 C2303 1.385 . S
C2300 H2281 0.951 . S
C2300 C2298 1.388 . S
C2300 C2301 1.366 . S
C2301 C2300 1.366 . S
C2301 C2302 1.414 . S
C2301 C2304 1.499 . S
C2302 H2282 0.950 . S
C2302 C2301 1.414 . S
C2302 C2303 1.374 . S
C2303 H2283 0.950 . S
C2303 C2299 1.385 . S
C2303 C2302 1.374 . S
C2304 C2301 1.499 . S
C2304 C2305 1.373 . S
C2304 C2306 1.389 . S
C2305 H2284 0.950 . S
C2305 C2304 1.373 . S
C2305 C2321 1.377 . S
C2306 C2304 1.389 . S
C2306 C2307 1.524 . S
C2306 C2320 1.377 . S
C2307 C2306 1.524 . S
C2307 C2308 1.397 . S
C2307 C2312 1.363 . S
C2308 H2285 0.950 . S
C2308 C2307 1.397 . S
C2308 C2309 1.334 . S
C2309 H2286 0.950 . S
C2309 C2308 1.334 . S
C2309 C2310 1.287 . S
C2310 C2309 1.287 . S
C2310 C2311 1.524 . S
C2310 H2329 0.913 . S
C2311 H2287 0.950 . S
C2311 C2310 1.524 . S
C2311 C2312 1.415 . S
C2312 H2288 0.950 . S
C2312 C2307 1.363 . S
C2312 C2311 1.415 . S
C2313 H2289 0.951 . S
C2313 C2314 1.366 . S
C2313 C2315 1.388 . S
C2314 C2313 1.366 . S
C2314 C2318 1.385 . S
C2315 H2290 0.951 . S
C2315 C2313 1.388 . S
C2315 C2316 1.366 . S
C2316 C2315 1.366 . S
C2316 C2317 1.414 . S
C2316 C2319 1.499 . S
C2317 H2291 0.950 . S
C2317 C2316 1.414 . S
C2317 C2318 1.374 . S
C2318 H2292 0.950 . S
C2318 C2314 1.385 . S
C2318 C2317 1.374 . S
C2319 C2316 1.499 . S
C2319 C2320 1.373 . S
C2319 C2321 1.389 . S
C2320 H2293 0.950 . S
C2320 C2306 1.377 . S
C2320 C2319 1.373 . S
C2321 C2305 1.377 . S
C2321 C2319 1.389 . S
C2321 C2322 1.524 . S
C2322 C2321 1.524 . S
C2322 C2323 1.397 . S
C2322 C2327 1.363 . S
C2323 H2294 0.950 . S
C2323 C2322 1.397 . S
C2323 C2324 1.334 . S
C2324 H2295 0.950 . S
C2324 C2323 1.334 . S
C2324 C2325 1.287 . S
C2325 C2324 1.287 . S
C2325 C2326 1.524 . S
C2325 H2328 0.999 . S
C2326 H2296 0.950 . S
C2326 C2325 1.524 . S
C2326 C2327 1.415 . S
C2327 H2297 0.950 . S
C2327 C2322 1.363 . S
C2327 C2326 1.415 . S
H2328 C2325 0.999 . S
H2329 C2310 0.913 . S
H2330 C2348 0.951 . S
H2331 C2350 0.951 . S
H2332 C2352 0.950 . S
H2333 C2353 0.950 . S
H2334 C2355 0.950 . S
H2335 C2358 0.950 . S
H2336 C2359 0.950 . S
H2337 C2361 0.950 . S
H2338 C2362 0.950 . S
H2339 C2363 0.951 . S
H2340 C2365 0.951 . S
H2341 C2367 0.950 . S
H2342 C2368 0.950 . S
H2343 C2370 0.950 . S
H2344 C2373 0.950 . S
H2345 C2374 0.950 . S
H2346 C2376 0.950 . S
H2347 C2377 0.950 . S
C2348 H2330 0.951 . S
C2348 C2349 1.366 . S
C2348 C2350 1.388 . S
C2349 C2348 1.366 . S
C2349 C2353 1.385 . S
C2350 H2331 0.951 . S
C2350 C2348 1.388 . S
C2350 C2351 1.366 . S
C2351 C2350 1.366 . S
C2351 C2352 1.414 . S
C2351 C2354 1.499 . S
C2352 H2332 0.950 . S
C2352 C2351 1.414 . S
C2352 C2353 1.374 . S
C2353 H2333 0.950 . S
C2353 C2349 1.385 . S
C2353 C2352 1.374 . S
C2354 C2351 1.499 . S
C2354 C2355 1.373 . S
C2354 C2356 1.389 . S
C2355 H2334 0.950 . S
C2355 C2354 1.373 . S
C2355 C2371 1.377 . S
C2356 C2354 1.389 . S
C2356 C2357 1.524 . S
C2356 C2370 1.377 . S
C2357 C2356 1.524 . S
C2357 C2358 1.397 . S
C2357 C2362 1.363 . S
C2358 H2335 0.950 . S
C2358 C2357 1.397 . S
C2358 C2359 1.334 . S
C2359 H2336 0.950 . S
C2359 C2358 1.334 . S
C2359 C2360 1.287 . S
C2360 C2359 1.287 . S
C2360 C2361 1.524 . S
C2360 H2379 0.913 . S
C2361 H2337 0.950 . S
C2361 C2360 1.524 . S
C2361 C2362 1.415 . S
C2362 H2338 0.950 . S
C2362 C2357 1.363 . S
C2362 C2361 1.415 . S
C2363 H2339 0.951 . S
C2363 C2364 1.366 . S
C2363 C2365 1.388 . S
C2364 C2363 1.366 . S
C2364 C2368 1.385 . S
C2365 H2340 0.951 . S
C2365 C2363 1.388 . S
C2365 C2366 1.366 . S
C2366 C2365 1.366 . S
C2366 C2367 1.414 . S
C2366 C2369 1.499 . S
C2367 H2341 0.950 . S
C2367 C2366 1.414 . S
C2367 C2368 1.374 . S
C2368 H2342 0.950 . S
C2368 C2364 1.385 . S
C2368 C2367 1.374 . S
C2369 C2366 1.499 . S
C2369 C2370 1.373 . S
C2369 C2371 1.389 . S
C2370 H2343 0.950 . S
C2370 C2356 1.377 . S
C2370 C2369 1.373 . S
C2371 C2355 1.377 . S
C2371 C2369 1.389 . S
C2371 C2372 1.524 . S
C2372 C2371 1.524 . S
C2372 C2373 1.397 . S
C2372 C2377 1.363 . S
C2373 H2344 0.950 . S
C2373 C2372 1.397 . S
C2373 C2374 1.334 . S
C2374 H2345 0.950 . S
C2374 C2373 1.334 . S
C2374 C2375 1.287 . S
C2375 C2374 1.287 . S
C2375 C2376 1.524 . S
C2375 H2378 0.999 . S
C2376 H2346 0.950 . S
C2376 C2375 1.524 . S
C2376 C2377 1.415 . S
C2377 H2347 0.950 . S
C2377 C2372 1.363 . S
C2377 C2376 1.415 . S
H2378 C2375 0.999 . S
H2379 C2360 0.913 . S
H2380 C2398 0.951 . S
H2381 C2400 0.951 . S
H2382 C2402 0.950 . S
H2383 C2403 0.950 . S
H2384 C2405 0.950 . S
H2385 C2408 0.950 . S
H2386 C2409 0.950 . S
H2387 C2411 0.950 . S
H2388 C2412 0.950 . S
H2389 C2413 0.951 . S
H2390 C2415 0.951 . S
H2391 C2417 0.950 . S
H2392 C2418 0.950 . S
H2393 C2420 0.950 . S
H2394 C2423 0.950 . S
H2395 C2424 0.950 . S
H2396 C2426 0.950 . S
H2397 C2427 0.950 . S
C2398 H2380 0.951 . S
C2398 C2399 1.366 . S
C2398 C2400 1.388 . S
C2399 C2398 1.366 . S
C2399 C2403 1.385 . S
C2400 H2381 0.951 . S
C2400 C2398 1.388 . S
C2400 C2401 1.366 . S
C2401 C2400 1.366 . S
C2401 C2402 1.414 . S
C2401 C2404 1.499 . S
C2402 H2382 0.950 . S
C2402 C2401 1.414 . S
C2402 C2403 1.374 . S
C2403 H2383 0.950 . S
C2403 C2399 1.385 . S
C2403 C2402 1.374 . S
C2404 C2401 1.499 . S
C2404 C2405 1.373 . S
C2404 C2406 1.389 . S
C2405 H2384 0.950 . S
C2405 C2404 1.373 . S
C2405 C2421 1.377 . S
C2406 C2404 1.389 . S
C2406 C2407 1.524 . S
C2406 C2420 1.377 . S
C2407 C2406 1.524 . S
C2407 C2408 1.397 . S
C2407 C2412 1.363 . S
C2408 H2385 0.950 . S
C2408 C2407 1.397 . S
C2408 C2409 1.334 . S
C2409 H2386 0.950 . S
C2409 C2408 1.334 . S
C2409 C2410 1.287 . S
C2410 C2409 1.287 . S
C2410 C2411 1.524 . S
C2410 H2429 0.913 . S
C2411 H2387 0.950 . S
C2411 C2410 1.524 . S
C2411 C2412 1.415 . S
C2412 H2388 0.950 . S
C2412 C2407 1.363 . S
C2412 C2411 1.415 . S
C2413 H2389 0.951 . S
C2413 C2414 1.366 . S
C2413 C2415 1.388 . S
C2414 C2413 1.366 . S
C2414 C2418 1.385 . S
C2415 H2390 0.951 . S
C2415 C2413 1.388 . S
C2415 C2416 1.366 . S
C2416 C2415 1.366 . S
C2416 C2417 1.414 . S
C2416 C2419 1.499 . S
C2417 H2391 0.950 . S
C2417 C2416 1.414 . S
C2417 C2418 1.374 . S
C2418 H2392 0.950 . S
C2418 C2414 1.385 . S
C2418 C2417 1.374 . S
C2419 C2416 1.499 . S
C2419 C2420 1.373 . S
C2419 C2421 1.389 . S
C2420 H2393 0.950 . S
C2420 C2406 1.377 . S
C2420 C2419 1.373 . S
C2421 C2405 1.377 . S
C2421 C2419 1.389 . S
C2421 C2422 1.524 . S
C2422 C2421 1.524 . S
C2422 C2423 1.397 . S
C2422 C2427 1.363 . S
C2423 H2394 0.950 . S
C2423 C2422 1.397 . S
C2423 C2424 1.334 . S
C2424 H2395 0.950 . S
C2424 C2423 1.334 . S
C2424 C2425 1.287 . S
C2425 C2424 1.287 . S
C2425 C2426 1.524 . S
C2425 H2428 0.999 . S
C2426 H2396 0.950 . S
C2426 C2425 1.524 . S
C2426 C2427 1.415 . S
C2427 H2397 0.950 . S
C2427 C2422 1.363 . S
C2427 C2426 1.415 . S
H2428 C2425 0.999 . S
H2429 C2410 0.913 . S
H2430 C2448 0.951 . S
H2431 C2450 0.951 . S
H2432 C2452 0.950 . S
H2433 C2453 0.950 . S
H2434 C2455 0.950 . S
H2435 C2458 0.950 . S
H2436 C2459 0.950 . S
H2437 C2461 0.950 . S
H2438 C2462 0.950 . S
H2439 C2463 0.951 . S
H2440 C2465 0.951 . S
H2441 C2467 0.950 . S
H2442 C2468 0.950 . S
H2443 C2470 0.950 . S
H2444 C2473 0.950 . S
H2445 C2474 0.950 . S
H2446 C2476 0.950 . S
H2447 C2477 0.950 . S
C2448 H2430 0.951 . S
C2448 C2449 1.366 . S
C2448 C2450 1.388 . S
C2449 C2448 1.366 . S
C2449 C2453 1.385 . S
C2450 H2431 0.951 . S
C2450 C2448 1.388 . S
C2450 C2451 1.366 . S
C2451 C2450 1.366 . S
C2451 C2452 1.414 . S
C2451 C2454 1.499 . S
C2452 H2432 0.950 . S
C2452 C2451 1.414 . S
C2452 C2453 1.374 . S
C2453 H2433 0.950 . S
C2453 C2449 1.385 . S
C2453 C2452 1.374 . S
C2454 C2451 1.499 . S
C2454 C2455 1.373 . S
C2454 C2456 1.389 . S
C2455 H2434 0.950 . S
C2455 C2454 1.373 . S
C2455 C2471 1.377 . S
C2456 C2454 1.389 . S
C2456 C2457 1.524 . S
C2456 C2470 1.377 . S
C2457 C2456 1.524 . S
C2457 C2458 1.397 . S
C2457 C2462 1.363 . S
C2458 H2435 0.950 . S
C2458 C2457 1.397 . S
C2458 C2459 1.334 . S
C2459 H2436 0.950 . S
C2459 C2458 1.334 . S
C2459 C2460 1.287 . S
C2460 C2459 1.287 . S
C2460 C2461 1.524 . S
C2460 H2479 0.913 . S
C2461 H2437 0.950 . S
C2461 C2460 1.524 . S
C2461 C2462 1.415 . S
C2462 H2438 0.950 . S
C2462 C2457 1.363 . S
C2462 C2461 1.415 . S
C2463 H2439 0.951 . S
C2463 C2464 1.366 . S
C2463 C2465 1.388 . S
C2464 C2463 1.366 . S
C2464 C2468 1.385 . S
C2465 H2440 0.951 . S
C2465 C2463 1.388 . S
C2465 C2466 1.366 . S
C2466 C2465 1.366 . S
C2466 C2467 1.414 . S
C2466 C2469 1.499 . S
C2467 H2441 0.950 . S
C2467 C2466 1.414 . S
C2467 C2468 1.374 . S
C2468 H2442 0.950 . S
C2468 C2464 1.385 . S
C2468 C2467 1.374 . S
C2469 C2466 1.499 . S
C2469 C2470 1.373 . S
C2469 C2471 1.389 . S
C2470 H2443 0.950 . S
C2470 C2456 1.377 . S
C2470 C2469 1.373 . S
C2471 C2455 1.377 . S
C2471 C2469 1.389 . S
C2471 C2472 1.524 . S
C2472 C2471 1.524 . S
C2472 C2473 1.397 . S
C2472 C2477 1.363 . S
C2473 H2444 0.950 . S
C2473 C2472 1.397 . S
C2473 C2474 1.334 . S
C2474 H2445 0.950 . S
C2474 C2473 1.334 . S
C2474 C2475 1.287 . S
C2475 C2474 1.287 . S
C2475 C2476 1.524 . S
C2475 H2478 0.999 . S
C2476 H2446 0.950 . S
C2476 C2475 1.524 . S
C2476 C2477 1.415 . S
C2477 H2447 0.950 . S
C2477 C2472 1.363 . S
C2477 C2476 1.415 . S
H2478 C2475 0.999 . S
H2479 C2460 0.913 . S
H2480 C2498 0.951 . S
H2481 C2500 0.951 . S
H2482 C2502 0.950 . S
H2483 C2503 0.950 . S
H2484 C2505 0.950 . S
H2485 C2508 0.950 . S
H2486 C2509 0.950 . S
H2487 C2511 0.969 . S
H2488 C2512 0.950 . S
H2489 C2513 0.951 . S
H2490 C2515 0.951 . S
H2491 C2517 0.950 . S
H2492 C2518 0.950 . S
H2493 C2520 0.950 . S
H2494 C2523 0.950 . S
H2495 C2524 0.950 . S
H2496 C2526 0.950 . S
H2497 C2527 0.950 . S
C2498 H2480 0.951 . S
C2498 C2499 1.366 . S
C2498 C2500 1.388 . S
C2499 C2498 1.366 . S
C2499 C2503 1.385 . S
C2500 H2481 0.951 . S
C2500 C2498 1.388 . S
C2500 C2501 1.366 . S
C2501 C2500 1.366 . S
C2501 C2502 1.414 . S
C2501 C2504 1.499 . S
C2502 H2482 0.950 . S
C2502 C2501 1.414 . S
C2502 C2503 1.374 . S
C2503 H2483 0.950 . S
C2503 C2499 1.385 . S
C2503 C2502 1.374 . S
C2504 C2501 1.499 . S
C2504 C2505 1.373 . S
C2504 C2506 1.389 . S
C2505 H2484 0.950 . S
C2505 C2504 1.373 . S
C2505 C2521 1.377 . S
C2506 C2504 1.389 . S
C2506 C2507 1.524 . S
C2506 C2520 1.377 . S
C2507 C2506 1.524 . S
C2507 C2508 1.397 . S
C2507 C2512 1.363 . S
C2508 H2485 0.950 . S
C2508 C2507 1.397 . S
C2508 C2509 1.334 . S
C2509 H2486 0.950 . S
C2509 C2508 1.334 . S
C2509 C2510 1.287 . S
C2510 C2509 1.287 . S
C2510 C2511 1.524 . S
C2510 H2529 0.913 1_554 S
C2511 H2487 0.969 . S
C2511 C2510 1.524 . S
C2511 C2512 1.415 . S
C2512 H2488 0.950 . S
C2512 C2507 1.363 . S
C2512 C2511 1.415 . S
C2513 H2489 0.951 . S
C2513 C2514 1.366 . S
C2513 C2515 1.388 . S
C2514 C2513 1.366 . S
C2514 C2518 1.385 . S
C2515 H2490 0.951 . S
C2515 C2513 1.388 . S
C2515 C2516 1.366 . S
C2516 C2515 1.366 . S
C2516 C2517 1.414 . S
C2516 C2519 1.499 . S
C2517 H2491 0.950 . S
C2517 C2516 1.414 . S
C2517 C2518 1.374 . S
C2518 H2492 0.950 . S
C2518 C2514 1.385 . S
C2518 C2517 1.374 . S
C2519 C2516 1.499 . S
C2519 C2520 1.373 . S
C2519 C2521 1.389 . S
C2520 H2493 0.950 . S
C2520 C2506 1.377 . S
C2520 C2519 1.373 . S
C2521 C2505 1.377 . S
C2521 C2519 1.389 . S
C2521 C2522 1.524 . S
C2522 C2521 1.524 . S
C2522 C2523 1.397 . S
C2522 C2527 1.363 . S
C2523 H2494 0.950 . S
C2523 C2522 1.397 . S
C2523 C2524 1.334 . S
C2524 H2495 0.950 . S
C2524 C2523 1.334 . S
C2524 C2525 1.287 . S
C2525 C2524 1.287 . S
C2525 C2526 1.524 . S
C2525 H2528 0.999 . S
C2526 H2496 0.950 . S
C2526 C2525 1.524 . S
C2526 C2527 1.415 . S
C2527 H2497 0.950 . S
C2527 C2522 1.363 . S
C2527 C2526 1.415 . S
H2528 C2525 0.999 . S
H2529 C2510 0.913 1_556 S
H2530 C2548 0.951 . S
H2531 C2550 0.951 . S
H2532 C2552 0.950 . S
H2533 C2553 0.950 . S
H2534 C2555 0.950 . S
H2535 C2558 0.950 . S
H2536 C2559 0.950 . S
H2537 C2561 0.950 . S
H2538 C2562 0.950 . S
H2539 C2563 0.951 . S
H2540 C2565 0.951 . S
H2541 C2567 0.950 . S
H2542 C2568 0.950 . S
H2543 C2570 0.950 . S
H2544 C2573 0.950 . S
H2545 C2574 0.950 . S
H2546 C2576 0.950 . S
H2547 C2577 0.950 . S
C2548 H2530 0.951 . S
C2548 C2549 1.366 . S
C2548 C2550 1.388 . S
C2549 C2548 1.366 . S
C2549 C2553 1.385 . S
C2550 H2531 0.951 . S
C2550 C2548 1.388 . S
C2550 C2551 1.366 . S
C2551 C2550 1.366 . S
C2551 C2552 1.414 . S
C2551 C2554 1.499 . S
C2552 H2532 0.950 . S
C2552 C2551 1.414 . S
C2552 C2553 1.374 . S
C2553 H2533 0.950 . S
C2553 C2549 1.385 . S
C2553 C2552 1.374 . S
C2554 C2551 1.499 . S
C2554 C2555 1.373 . S
C2554 C2556 1.389 . S
C2555 H2534 0.950 . S
C2555 C2554 1.373 . S
C2555 C2571 1.377 . S
C2556 C2554 1.389 . S
C2556 C2557 1.524 . S
C2556 C2570 1.377 . S
C2557 C2556 1.524 . S
C2557 C2558 1.397 . S
C2557 C2562 1.363 . S
C2558 H2535 0.950 . S
C2558 C2557 1.397 . S
C2558 C2559 1.334 . S
C2559 H2536 0.950 . S
C2559 C2558 1.334 . S
C2559 C2560 1.287 . S
C2560 C2559 1.287 . S
C2560 C2561 1.524 . S
C2560 H2579 0.913 . S
C2561 H2537 0.950 . S
C2561 C2560 1.524 . S
C2561 C2562 1.415 . S
C2562 H2538 0.950 . S
C2562 C2557 1.363 . S
C2562 C2561 1.415 . S
C2563 H2539 0.951 . S
C2563 C2564 1.366 . S
C2563 C2565 1.388 . S
C2564 C2563 1.366 . S
C2564 C2568 1.385 . S
C2565 H2540 0.951 . S
C2565 C2563 1.388 . S
C2565 C2566 1.366 . S
C2566 C2565 1.366 . S
C2566 C2567 1.414 . S
C2566 C2569 1.499 . S
C2567 H2541 0.950 . S
C2567 C2566 1.414 . S
C2567 C2568 1.374 . S
C2568 H2542 0.950 . S
C2568 C2564 1.385 . S
C2568 C2567 1.374 . S
C2569 C2566 1.499 . S
C2569 C2570 1.373 . S
C2569 C2571 1.389 . S
C2570 H2543 0.950 . S
C2570 C2556 1.377 . S
C2570 C2569 1.373 . S
C2571 C2555 1.377 . S
C2571 C2569 1.389 . S
C2571 C2572 1.524 . S
C2572 C2571 1.524 . S
C2572 C2573 1.397 . S
C2572 C2577 1.363 . S
C2573 H2544 0.950 . S
C2573 C2572 1.397 . S
C2573 C2574 1.334 . S
C2574 H2545 0.950 . S
C2574 C2573 1.334 . S
C2574 C2575 1.287 . S
C2575 C2574 1.287 . S
C2575 C2576 1.524 . S
C2575 H2578 0.999 . S
C2576 H2546 0.950 . S
C2576 C2575 1.524 . S
C2576 C2577 1.415 . S
C2577 H2547 0.950 . S
C2577 C2572 1.363 . S
C2577 C2576 1.415 . S
H2578 C2575 0.999 . S
H2579 C2560 0.913 . S
H2580 C2598 0.951 . S
H2581 C2600 0.951 . S
H2582 C2602 0.950 . S
H2583 C2603 0.950 . S
H2584 C2605 0.950 . S
H2585 C2608 0.950 . S
H2586 C2609 0.950 . S
H2587 C2611 0.950 . S
H2588 C2612 0.950 . S
H2589 C2613 0.951 . S
H2590 C2615 0.951 . S
H2591 C2617 0.950 . S
H2592 C2618 0.950 . S
H2593 C2620 0.950 . S
H2594 C2623 0.950 . S
H2595 C2624 0.950 . S
H2596 C2626 0.950 . S
H2597 C2627 0.950 . S
C2598 H2580 0.951 . S
C2598 C2599 1.366 . S
C2598 C2600 1.388 . S
C2599 C2598 1.366 . S
C2599 C2603 1.385 . S
C2600 H2581 0.951 . S
C2600 C2598 1.388 . S
C2600 C2601 1.366 . S
C2601 C2600 1.366 . S
C2601 C2602 1.414 . S
C2601 C2604 1.499 . S
C2602 H2582 0.950 . S
C2602 C2601 1.414 . S
C2602 C2603 1.374 . S
C2603 H2583 0.950 . S
C2603 C2599 1.385 . S
C2603 C2602 1.374 . S
C2604 C2601 1.499 . S
C2604 C2605 1.373 . S
C2604 C2606 1.389 . S
C2605 H2584 0.950 . S
C2605 C2604 1.373 . S
C2605 C2621 1.377 . S
C2606 C2604 1.389 . S
C2606 C2607 1.524 . S
C2606 C2620 1.377 . S
C2607 C2606 1.524 . S
C2607 C2608 1.397 . S
C2607 C2612 1.363 . S
C2608 H2585 0.950 . S
C2608 C2607 1.397 . S
C2608 C2609 1.334 1_556 S
C2609 H2586 0.950 . S
C2609 C2608 1.334 1_554 S
C2609 C2610 1.287 1_554 S
C2610 C2609 1.287 1_556 S
C2610 C2611 1.524 . S
C2610 H2629 0.913 1_556 S
C2611 H2587 0.950 . S
C2611 C2610 1.524 . S
C2611 C2612 1.415 . S
C2612 H2588 0.950 . S
C2612 C2607 1.363 . S
C2612 C2611 1.415 . S
C2613 H2589 0.951 . S
C2613 C2614 1.366 . S
C2613 C2615 1.388 . S
C2614 C2613 1.366 . S
C2614 C2618 1.385 . S
C2615 H2590 0.951 . S
C2615 C2613 1.388 . S
C2615 C2616 1.366 . S
C2616 C2615 1.366 . S
C2616 C2617 1.414 . S
C2616 C2619 1.499 . S
C2617 H2591 0.950 . S
C2617 C2616 1.414 . S
C2617 C2618 1.374 . S
C2618 H2592 0.950 . S
C2618 C2614 1.385 . S
C2618 C2617 1.374 . S
C2619 C2616 1.499 . S
C2619 C2620 1.373 . S
C2619 C2621 1.389 . S
C2620 H2593 0.950 . S
C2620 C2606 1.377 . S
C2620 C2619 1.373 . S
C2621 C2605 1.377 . S
C2621 C2619 1.389 . S
C2621 C2622 1.524 . S
C2622 C2621 1.524 . S
C2622 C2623 1.397 . S
C2622 C2627 1.363 . S
C2623 H2594 0.950 . S
C2623 C2622 1.397 . S
C2623 C2624 1.334 . S
C2624 H2595 0.950 . S
C2624 C2623 1.334 . S
C2624 C2625 1.287 . S
C2625 C2624 1.287 . S
C2625 C2626 1.524 . S
C2625 H2628 0.999 . S
C2626 H2596 0.950 . S
C2626 C2625 1.524 . S
C2626 C2627 1.415 . S
C2627 H2597 0.950 . S
C2627 C2622 1.363 . S
C2627 C2626 1.415 . S
H2628 C2625 0.999 . S
H2629 C2610 0.913 1_554 S
H2630 C2648 0.951 . S
H2631 C2650 0.951 . S
H2632 C2652 0.950 . S
H2633 C2653 0.950 . S
H2634 C2655 0.950 . S
H2635 C2658 0.950 . S
H2636 C2659 0.950 . S
H2637 C2661 0.950 . S
H2638 C2662 0.950 . S
H2639 C2663 0.951 . S
H2640 C2665 0.951 . S
H2641 C2667 0.950 . S
H2642 C2668 0.950 . S
H2643 C2670 0.950 . S
H2644 C2673 0.950 . S
H2645 C2674 0.950 . S
H2646 C2676 0.950 1_554 S
H2647 C2677 0.950 . S
C2648 H2630 0.951 . S
C2648 C2649 1.366 . S
C2648 C2650 1.388 . S
C2649 C2648 1.366 . S
C2649 C2653 1.385 . S
C2650 H2631 0.951 . S
C2650 C2648 1.388 . S
C2650 C2651 1.366 . S
C2651 C2650 1.366 . S
C2651 C2652 1.414 . S
C2651 C2654 1.499 . S
C2652 H2632 0.950 . S
C2652 C2651 1.414 . S
C2652 C2653 1.374 . S
C2653 H2633 0.950 . S
C2653 C2649 1.385 . S
C2653 C2652 1.374 . S
C2654 C2651 1.499 . S
C2654 C2655 1.373 . S
C2654 C2656 1.389 . S
C2655 H2634 0.950 . S
C2655 C2654 1.373 . S
C2655 C2671 1.377 . S
C2656 C2654 1.389 . S
C2656 C2657 1.524 . S
C2656 C2670 1.377 . S
C2657 C2656 1.524 . S
C2657 C2658 1.397 . S
C2657 C2662 1.363 . S
C2658 H2635 0.950 . S
C2658 C2657 1.397 . S
C2658 C2659 1.334 . S
C2659 H2636 0.950 . S
C2659 C2658 1.334 . S
C2659 C2660 1.287 . S
C2660 C2659 1.287 . S
C2660 C2661 1.524 . S
C2660 H2679 0.913 . S
C2661 H2637 0.950 . S
C2661 C2660 1.524 . S
C2661 C2662 1.415 . S
C2662 H2638 0.950 . S
C2662 C2657 1.363 . S
C2662 C2661 1.415 . S
C2663 H2639 0.951 . S
C2663 C2664 1.366 . S
C2663 C2665 1.388 . S
C2664 C2663 1.366 . S
C2664 C2668 1.385 . S
C2665 H2640 0.951 . S
C2665 C2663 1.388 . S
C2665 C2666 1.366 . S
C2666 C2665 1.366 . S
C2666 C2667 1.414 . S
C2666 C2669 1.499 . S
C2667 H2641 0.950 . S
C2667 C2666 1.414 . S
C2667 C2668 1.374 . S
C2668 H2642 0.950 . S
C2668 C2664 1.385 . S
C2668 C2667 1.374 . S
C2669 C2666 1.499 . S
C2669 C2670 1.373 . S
C2669 C2671 1.389 . S
C2670 H2643 0.950 . S
C2670 C2656 1.377 . S
C2670 C2669 1.373 . S
C2671 C2655 1.377 . S
C2671 C2669 1.389 . S
C2671 C2672 1.524 . S
C2672 C2671 1.524 . S
C2672 C2673 1.397 . S
C2672 C2677 1.363 . S
C2673 H2644 0.950 . S
C2673 C2672 1.397 . S
C2673 C2674 1.334 . S
C2674 H2645 0.950 . S
C2674 C2673 1.334 . S
C2674 C2675 1.287 . S
C2675 C2674 1.287 . S
C2675 C2676 1.524 . S
C2675 H2678 0.972 1_556 S
C2676 H2646 0.950 1_556 S
C2676 C2675 1.524 . S
C2676 C2677 1.415 . S
C2677 H2647 0.950 . S
C2677 C2672 1.363 . S
C2677 C2676 1.415 . S
H2678 C2675 0.972 1_554 S
H2679 C2660 0.913 . S
H2680 C2698 0.951 1_554 S
H2681 C2700 0.951 . S
H2682 C2702 0.950 . S
H2683 C2703 0.950 . S
H2684 C2705 0.950 . S
H2685 C2708 0.950 . S
H2686 C2709 0.950 . S
H2687 C2711 0.950 . S
H2688 C2712 0.950 . S
H2689 C2713 0.951 . S
H2690 C2715 0.951 . S
H2691 C2717 0.950 . S
H2692 C2718 0.950 . S
H2693 C2720 0.950 . S
H2694 C2723 0.950 . S
H2695 C2724 0.950 . S
H2696 C2726 0.950 . S
H2697 C2727 0.950 . S
C2698 H2680 0.951 1_556 S
C2698 C2699 1.366 . S
C2698 C2700 1.388 . S
C2699 C2698 1.366 . S
C2699 C2703 1.385 . S
C2700 H2681 0.951 . S
C2700 C2698 1.388 . S
C2700 C2701 1.366 . S
C2701 C2700 1.366 . S
C2701 C2702 1.414 . S
C2701 C2704 1.499 . S
C2702 H2682 0.950 . S
C2702 C2701 1.414 . S
C2702 C2703 1.374 . S
C2703 H2683 0.950 . S
C2703 C2699 1.385 . S
C2703 C2702 1.374 . S
C2704 C2701 1.499 . S
C2704 C2705 1.373 . S
C2704 C2706 1.389 . S
C2705 H2684 0.950 . S
C2705 C2704 1.373 . S
C2705 C2721 1.377 . S
C2706 C2704 1.389 . S
C2706 C2707 1.524 . S
C2706 C2720 1.377 . S
C2707 C2706 1.524 . S
C2707 C2708 1.397 . S
C2707 C2712 1.363 . S
C2708 H2685 0.950 . S
C2708 C2707 1.397 . S
C2708 C2709 1.334 . S
C2709 H2686 0.950 . S
C2709 C2708 1.334 . S
C2709 C2710 1.287 . S
C2710 C2709 1.287 . S
C2710 C2711 1.524 . S
C2710 H2729 0.913 . S
C2711 H2687 0.950 . S
C2711 C2710 1.524 . S
C2711 C2712 1.415 . S
C2712 H2688 0.950 . S
C2712 C2707 1.363 . S
C2712 C2711 1.415 . S
C2713 H2689 0.951 . S
C2713 C2714 1.366 . S
C2713 C2715 1.388 . S
C2714 C2713 1.366 . S
C2714 C2718 1.385 . S
C2715 H2690 0.951 . S
C2715 C2713 1.388 . S
C2715 C2716 1.366 . S
C2716 C2715 1.366 . S
C2716 C2717 1.414 . S
C2716 C2719 1.499 . S
C2717 H2691 0.950 . S
C2717 C2716 1.414 . S
C2717 C2718 1.374 . S
C2718 H2692 0.950 . S
C2718 C2714 1.385 . S
C2718 C2717 1.374 . S
C2719 C2716 1.499 . S
C2719 C2720 1.373 . S
C2719 C2721 1.389 . S
C2720 H2693 0.950 . S
C2720 C2706 1.377 . S
C2720 C2719 1.373 . S
C2721 C2705 1.377 . S
C2721 C2719 1.389 . S
C2721 C2722 1.524 . S
C2722 C2721 1.524 . S
C2722 C2723 1.397 . S
C2722 C2727 1.363 . S
C2723 H2694 0.950 . S
C2723 C2722 1.397 . S
C2723 C2724 1.334 . S
C2724 H2695 0.950 . S
C2724 C2723 1.334 . S
C2724 C2725 1.287 . S
C2725 C2724 1.287 . S
C2725 C2726 1.524 . S
C2725 H2728 0.999 . S
C2726 H2696 0.950 . S
C2726 C2725 1.524 . S
C2726 C2727 1.415 . S
C2727 H2697 0.950 . S
C2727 C2722 1.363 . S
C2727 C2726 1.415 . S
H2728 C2725 0.999 . S
H2729 C2710 0.913 . S
H2730 C2748 0.951 . S
H2731 C2750 0.951 . S
H2732 C2752 0.950 . S
H2733 C2753 0.945 . S
H2734 C2755 0.950 . S
H2735 C2758 0.950 . S
H2736 C2759 0.950 . S
H2737 C2761 0.950 . S
H2738 C2762 0.950 . S
H2739 C2763 0.951 . S
H2740 C2765 0.951 . S
H2741 C2767 0.950 . S
H2742 C2768 0.950 . S
H2743 C2770 0.950 . S
H2744 C2773 0.950 . S
H2745 C2774 0.950 . S
H2746 C2776 0.950 1_554 S
H2747 C2777 0.950 . S
C2748 H2730 0.951 . S
C2748 C2749 1.366 . S
C2748 C2750 1.388 . S
C2749 C2748 1.366 . S
C2749 C2753 1.385 . S
C2750 H2731 0.951 . S
C2750 C2748 1.388 . S
C2750 C2751 1.366 . S
C2751 C2750 1.366 . S
C2751 C2752 1.414 . S
C2751 C2754 1.499 . S
C2752 H2732 0.950 . S
C2752 C2751 1.414 . S
C2752 C2753 1.374 . S
C2753 H2733 0.945 . S
C2753 C2749 1.385 . S
C2753 C2752 1.374 . S
C2754 C2751 1.499 . S
C2754 C2755 1.373 . S
C2754 C2756 1.389 . S
C2755 H2734 0.950 . S
C2755 C2754 1.373 . S
C2755 C2771 1.377 . S
C2756 C2754 1.389 . S
C2756 C2757 1.524 . S
C2756 C2770 1.377 . S
C2757 C2756 1.524 . S
C2757 C2758 1.397 . S
C2757 C2762 1.363 . S
C2758 H2735 0.950 . S
C2758 C2757 1.397 . S
C2758 C2759 1.334 . S
C2759 H2736 0.950 . S
C2759 C2758 1.334 . S
C2759 C2760 1.287 . S
C2760 C2759 1.287 . S
C2760 C2761 1.524 . S
C2760 H2779 0.913 . S
C2761 H2737 0.950 . S
C2761 C2760 1.524 . S
C2761 C2762 1.415 . S
C2762 H2738 0.950 . S
C2762 C2757 1.363 . S
C2762 C2761 1.415 . S
C2763 H2739 0.951 . S
C2763 C2764 1.366 . S
C2763 C2765 1.388 . S
C2764 C2763 1.366 . S
C2764 C2768 1.385 . S
C2765 H2740 0.951 . S
C2765 C2763 1.388 . S
C2765 C2766 1.366 . S
C2766 C2765 1.366 . S
C2766 C2767 1.414 . S
C2766 C2769 1.499 . S
C2767 H2741 0.950 . S
C2767 C2766 1.414 . S
C2767 C2768 1.374 . S
C2768 H2742 0.950 . S
C2768 C2764 1.385 . S
C2768 C2767 1.374 . S
C2769 C2766 1.499 . S
C2769 C2770 1.373 . S
C2769 C2771 1.389 . S
C2770 H2743 0.950 . S
C2770 C2756 1.377 . S
C2770 C2769 1.373 . S
C2771 C2755 1.377 . S
C2771 C2769 1.389 . S
C2771 C2772 1.524 . S
C2772 C2771 1.524 . S
C2772 C2773 1.397 . S
C2772 C2777 1.363 . S
C2773 H2744 0.950 . S
C2773 C2772 1.397 . S
C2773 C2774 1.334 . S
C2774 H2745 0.950 . S
C2774 C2773 1.334 . S
C2774 C2775 1.287 . S
C2775 C2774 1.287 . S
C2775 C2776 1.524 . S
C2775 H2778 0.999 . S
C2776 H2746 0.950 1_556 S
C2776 C2775 1.524 . S
C2776 C2777 1.415 . S
C2777 H2747 0.950 . S
C2777 C2772 1.363 . S
C2777 C2776 1.415 . S
H2778 C2775 0.999 . S
H2779 C2760 0.913 . S
H2780 C2798 0.951 . S
H2781 C2800 0.951 . S
H2782 C2802 0.950 . S
H2783 C2803 0.950 . S
H2784 C2805 0.950 . S
H2785 C2808 0.950 . S
H2786 C2809 0.950 . S
H2787 C2811 0.950 . S
H2788 C2812 0.950 . S
H2789 C2813 0.951 . S
H2790 C2815 0.951 . S
H2791 C2817 0.950 . S
H2792 C2818 0.950 . S
H2793 C2820 0.950 . S
H2794 C2823 0.950 . S
H2795 C2824 0.950 . S
H2796 C2826 0.950 . S
H2797 C2827 0.950 . S
C2798 H2780 0.951 . S
C2798 C2799 1.366 . S
C2798 C2800 1.388 . S
C2799 C2798 1.366 . S
C2799 C2803 1.385 . S
C2800 H2781 0.951 . S
C2800 C2798 1.388 . S
C2800 C2801 1.366 . S
C2801 C2800 1.366 . S
C2801 C2802 1.414 . S
C2801 C2804 1.499 . S
C2802 H2782 0.950 . S
C2802 C2801 1.414 . S
C2802 C2803 1.374 . S
C2803 H2783 0.950 . S
C2803 C2799 1.385 . S
C2803 C2802 1.374 . S
C2804 C2801 1.499 . S
C2804 C2805 1.373 . S
C2804 C2806 1.389 . S
C2805 H2784 0.950 . S
C2805 C2804 1.373 . S
C2805 C2821 1.377 . S
C2806 C2804 1.389 . S
C2806 C2807 1.524 . S
C2806 C2820 1.377 . S
C2807 C2806 1.524 . S
C2807 C2808 1.397 . S
C2807 C2812 1.363 . S
C2808 H2785 0.950 . S
C2808 C2807 1.397 . S
C2808 C2809 1.334 . S
C2809 H2786 0.950 . S
C2809 C2808 1.334 . S
C2809 C2810 1.287 . S
C2810 C2809 1.287 . S
C2810 C2811 1.524 . S
C2810 H2829 0.913 . S
C2811 H2787 0.950 . S
C2811 C2810 1.524 . S
C2811 C2812 1.415 . S
C2812 H2788 0.950 . S
C2812 C2807 1.363 . S
C2812 C2811 1.415 . S
C2813 H2789 0.951 . S
C2813 C2814 1.366 . S
C2813 C2815 1.388 . S
C2814 C2813 1.366 . S
C2814 C2818 1.385 . S
C2815 H2790 0.951 . S
C2815 C2813 1.388 . S
C2815 C2816 1.366 . S
C2816 C2815 1.366 . S
C2816 C2817 1.414 . S
C2816 C2819 1.499 . S
C2817 H2791 0.950 . S
C2817 C2816 1.414 . S
C2817 C2818 1.374 . S
C2818 H2792 0.950 . S
C2818 C2814 1.385 . S
C2818 C2817 1.374 . S
C2819 C2816 1.499 . S
C2819 C2820 1.373 . S
C2819 C2821 1.389 . S
C2820 H2793 0.950 . S
C2820 C2806 1.377 . S
C2820 C2819 1.373 . S
C2821 C2805 1.377 . S
C2821 C2819 1.389 . S
C2821 C2822 1.524 . S
C2822 C2821 1.524 . S
C2822 C2823 1.397 . S
C2822 C2827 1.363 . S
C2823 H2794 0.950 . S
C2823 C2822 1.397 . S
C2823 C2824 1.334 . S
C2824 H2795 0.950 . S
C2824 C2823 1.334 . S
C2824 C2825 1.287 . S
C2825 C2824 1.287 . S
C2825 C2826 1.524 . S
C2825 H2828 0.999 . S
C2826 H2796 0.950 . S
C2826 C2825 1.524 . S
C2826 C2827 1.415 . S
C2827 H2797 0.950 . S
C2827 C2822 1.363 . S
C2827 C2826 1.415 . S
H2828 C2825 0.999 . S
H2829 C2810 0.913 . S
H2830 C2848 0.951 . S
H2831 C2850 0.951 . S
H2832 C2852 0.950 . S
H2833 C2853 0.950 . S
H2834 C2855 0.950 . S
H2835 C2858 0.950 . S
H2836 C2859 0.950 . S
H2837 C2861 0.950 . S
H2838 C2862 0.950 . S
H2839 C2863 0.951 . S
H2840 C2865 0.951 . S
H2841 C2867 0.950 . S
H2842 C2868 0.950 . S
H2843 C2870 0.950 . S
H2844 C2873 0.950 . S
H2845 C2874 0.950 . S
H2846 C2876 0.950 . S
H2847 C2877 0.950 . S
C2848 H2830 0.951 . S
C2848 C2849 1.366 . S
C2848 C2850 1.388 . S
C2849 C2848 1.366 . S
C2849 C2853 1.385 . S
C2850 H2831 0.951 . S
C2850 C2848 1.388 . S
C2850 C2851 1.366 . S
C2851 C2850 1.366 . S
C2851 C2852 1.414 . S
C2851 C2854 1.499 . S
C2852 H2832 0.950 . S
C2852 C2851 1.414 . S
C2852 C2853 1.374 . S
C2853 H2833 0.950 . S
C2853 C2849 1.385 . S
C2853 C2852 1.374 . S
C2854 C2851 1.499 . S
C2854 C2855 1.373 . S
C2854 C2856 1.389 . S
C2855 H2834 0.950 . S
C2855 C2854 1.373 . S
C2855 C2871 1.377 . S
C2856 C2854 1.389 . S
C2856 C2857 1.524 . S
C2856 C2870 1.377 . S
C2857 C2856 1.524 . S
C2857 C2858 1.397 . S
C2857 C2862 1.363 . S
C2858 H2835 0.950 . S
C2858 C2857 1.397 . S
C2858 C2859 1.334 1_556 S
C2859 H2836 0.950 . S
C2859 C2858 1.334 1_554 S
C2859 C2860 1.287 1_554 S
C2860 C2859 1.287 1_556 S
C2860 C2861 1.524 . S
C2860 H2879 0.913 1_556 S
C2861 H2837 0.950 . S
C2861 C2860 1.524 . S
C2861 C2862 1.415 . S
C2862 H2838 0.950 . S
C2862 C2857 1.363 . S
C2862 C2861 1.415 . S
C2863 H2839 0.951 . S
C2863 C2864 1.366 . S
C2863 C2865 1.388 . S
C2864 C2863 1.366 . S
C2864 C2868 1.385 . S
C2865 H2840 0.951 . S
C2865 C2863 1.388 . S
C2865 C2866 1.366 . S
C2866 C2865 1.366 . S
C2866 C2867 1.414 . S
C2866 C2869 1.499 . S
C2867 H2841 0.950 . S
C2867 C2866 1.414 . S
C2867 C2868 1.374 . S
C2868 H2842 0.950 . S
C2868 C2864 1.385 . S
C2868 C2867 1.374 . S
C2869 C2866 1.499 . S
C2869 C2870 1.373 . S
C2869 C2871 1.389 . S
C2870 H2843 0.950 . S
C2870 C2856 1.377 . S
C2870 C2869 1.373 . S
C2871 C2855 1.377 . S
C2871 C2869 1.389 . S
C2871 C2872 1.524 . S
C2872 C2871 1.524 . S
C2872 C2873 1.397 . S
C2872 C2877 1.363 . S
C2873 H2844 0.950 . S
C2873 C2872 1.397 . S
C2873 C2874 1.334 . S
C2874 H2845 0.950 . S
C2874 C2873 1.334 . S
C2874 C2875 1.287 . S
C2875 C2874 1.287 . S
C2875 C2876 1.524 . S
C2875 H2878 0.999 . S
C2876 H2846 0.950 . S
C2876 C2875 1.524 . S
C2876 C2877 1.415 . S
C2877 H2847 0.950 . S
C2877 C2872 1.363 . S
C2877 C2876 1.415 . S
H2878 C2875 0.999 . S
H2879 C2860 0.913 1_554 S
H2880 C2898 0.951 . S
H2881 C2900 0.951 . S
H2882 C2902 0.950 . S
H2883 C2903 0.950 . S
H2884 C2905 0.950 . S
H2885 C2908 0.950 . S
H2886 C2909 0.950 . S
H2887 C2911 0.950 . S
H2888 C2912 0.950 . S
H2889 C2913 0.951 . S
H2890 C2915 0.951 . S
H2891 C2917 0.950 . S
H2892 C2918 0.950 . S
H2893 C2920 0.950 . S
H2894 C2923 0.950 . S
H2895 C2924 0.950 . S
H2896 C2926 0.950 . S
H2897 C2927 0.950 . S
C2898 H2880 0.951 . S
C2898 C2899 1.366 . S
C2898 C2900 1.388 . S
C2899 C2898 1.366 . S
C2899 C2903 1.385 . S
C2900 H2881 0.951 . S
C2900 C2898 1.388 . S
C2900 C2901 1.366 . S
C2901 C2900 1.366 . S
C2901 C2902 1.414 . S
C2901 C2904 1.499 . S
C2902 H2882 0.950 . S
C2902 C2901 1.414 . S
C2902 C2903 1.374 . S
C2903 H2883 0.950 . S
C2903 C2899 1.385 . S
C2903 C2902 1.374 . S
C2904 C2901 1.499 . S
C2904 C2905 1.373 . S
C2904 C2906 1.389 . S
C2905 H2884 0.950 . S
C2905 C2904 1.373 . S
C2905 C2921 1.377 . S
C2906 C2904 1.389 . S
C2906 C2907 1.524 . S
C2906 C2920 1.377 . S
C2907 C2906 1.524 . S
C2907 C2908 1.397 . S
C2907 C2912 1.363 . S
C2908 H2885 0.950 . S
C2908 C2907 1.397 . S
C2908 C2909 1.334 . S
C2909 H2886 0.950 . S
C2909 C2908 1.334 . S
C2909 C2910 1.287 . S
C2910 C2909 1.287 . S
C2910 C2911 1.524 . S
C2910 H2929 0.913 . S
C2911 H2887 0.950 . S
C2911 C2910 1.524 . S
C2911 C2912 1.415 . S
C2912 H2888 0.950 . S
C2912 C2907 1.363 . S
C2912 C2911 1.415 . S
C2913 H2889 0.951 . S
C2913 C2914 1.366 . S
C2913 C2915 1.388 . S
C2914 C2913 1.366 . S
C2914 C2918 1.385 . S
C2915 H2890 0.951 . S
C2915 C2913 1.388 . S
C2915 C2916 1.366 . S
C2916 C2915 1.366 . S
C2916 C2917 1.414 . S
C2916 C2919 1.499 . S
C2917 H2891 0.950 . S
C2917 C2916 1.414 . S
C2917 C2918 1.374 . S
C2918 H2892 0.950 . S
C2918 C2914 1.385 . S
C2918 C2917 1.374 . S
C2919 C2916 1.499 . S
C2919 C2920 1.373 . S
C2919 C2921 1.389 . S
C2920 H2893 0.950 . S
C2920 C2906 1.377 . S
C2920 C2919 1.373 . S
C2921 C2905 1.377 . S
C2921 C2919 1.389 . S
C2921 C2922 1.524 . S
C2922 C2921 1.524 . S
C2922 C2923 1.397 . S
C2922 C2927 1.363 . S
C2923 H2894 0.950 . S
C2923 C2922 1.397 . S
C2923 C2924 1.334 . S
C2924 H2895 0.950 . S
C2924 C2923 1.334 . S
C2924 C2925 1.287 . S
C2925 C2924 1.287 . S
C2925 C2926 1.524 . S
C2925 H2928 0.999 . S
C2926 H2896 0.950 . S
C2926 C2925 1.524 . S
C2926 C2927 1.415 . S
C2927 H2897 0.950 . S
C2927 C2922 1.363 . S
C2927 C2926 1.415 . S
H2928 C2925 0.999 . S
H2929 C2910 0.913 . S
H2930 C2948 0.951 . S
H2931 C2950 0.951 . S
H2932 C2952 0.950 . S
H2933 C2953 0.950 . S
H2934 C2955 0.950 . S
H2935 C2958 0.950 . S
H2936 C2959 0.950 . S
H2937 C2961 0.950 . S
H2938 C2962 0.950 . S
H2939 C2963 0.951 . S
H2940 C2965 0.951 . S
H2941 C2967 0.950 . S
H2942 C2968 0.950 . S
H2943 C2970 0.950 . S
H2944 C2973 0.950 . S
H2945 C2974 0.950 . S
H2946 C2976 0.950 . S
H2947 C2977 0.950 . S
C2948 H2930 0.951 . S
C2948 C2949 1.366 . S
C2948 C2950 1.388 . S
C2949 C2948 1.366 . S
C2949 C2953 1.385 . S
C2950 H2931 0.951 . S
C2950 C2948 1.388 . S
C2950 C2951 1.366 . S
C2951 C2950 1.366 . S
C2951 C2952 1.414 . S
C2951 C2954 1.499 . S
C2952 H2932 0.950 . S
C2952 C2951 1.414 . S
C2952 C2953 1.374 . S
C2953 H2933 0.950 . S
C2953 C2949 1.385 . S
C2953 C2952 1.374 . S
C2954 C2951 1.499 . S
C2954 C2955 1.373 . S
C2954 C2956 1.389 . S
C2955 H2934 0.950 . S
C2955 C2954 1.373 . S
C2955 C2971 1.377 . S
C2956 C2954 1.389 . S
C2956 C2957 1.524 . S
C2956 C2970 1.377 . S
C2957 C2956 1.524 . S
C2957 C2958 1.397 . S
C2957 C2962 1.363 . S
C2958 H2935 0.950 . S
C2958 C2957 1.397 . S
C2958 C2959 1.334 . S
C2959 H2936 0.950 . S
C2959 C2958 1.334 . S
C2959 C2960 1.287 . S
C2960 C2959 1.287 . S
C2960 C2961 1.524 . S
C2960 H2979 0.913 . S
C2961 H2937 0.950 . S
C2961 C2960 1.524 . S
C2961 C2962 1.415 . S
C2962 H2938 0.950 . S
C2962 C2957 1.363 . S
C2962 C2961 1.415 . S
C2963 H2939 0.951 . S
C2963 C2964 1.366 . S
C2963 C2965 1.388 . S
C2964 C2963 1.366 . S
C2964 C2968 1.385 . S
C2965 H2940 0.951 . S
C2965 C2963 1.388 . S
C2965 C2966 1.366 . S
C2966 C2965 1.366 . S
C2966 C2967 1.414 . S
C2966 C2969 1.499 . S
C2967 H2941 0.950 . S
C2967 C2966 1.414 . S
C2967 C2968 1.374 . S
C2968 H2942 0.950 . S
C2968 C2964 1.385 . S
C2968 C2967 1.374 . S
C2969 C2966 1.499 . S
C2969 C2970 1.373 . S
C2969 C2971 1.389 . S
C2970 H2943 0.950 . S
C2970 C2956 1.377 . S
C2970 C2969 1.373 . S
C2971 C2955 1.377 . S
C2971 C2969 1.389 . S
C2971 C2972 1.524 . S
C2972 C2971 1.524 . S
C2972 C2973 1.397 . S
C2972 C2977 1.363 . S
C2973 H2944 0.950 . S
C2973 C2972 1.397 . S
C2973 C2974 1.334 . S
C2974 H2945 0.950 . S
C2974 C2973 1.334 . S
C2974 C2975 1.287 . S
C2975 C2974 1.287 . S
C2975 C2976 1.524 . S
C2975 H2978 0.999 . S
C2976 H2946 0.950 . S
C2976 C2975 1.524 . S
C2976 C2977 1.415 . S
C2977 H2947 0.950 . S
C2977 C2972 1.363 . S
C2977 C2976 1.415 . S
H2978 C2975 0.999 . S
H2979 C2960 0.913 . S
H2980 C2998 0.951 . S
H2981 C3000 0.951 . S
H2982 C3002 0.950 . S
H2983 C3003 0.950 . S
H2984 C3005 0.950 . S
H2985 C3008 0.950 . S
H2986 C3009 0.950 . S
H2987 C3011 0.950 . S
H2988 C3012 0.950 . S
H2989 C3013 0.951 . S
H2990 C3015 0.951 . S
H2991 C3017 0.950 . S
H2992 C3018 0.950 . S
H2993 C3020 0.950 . S
H2994 C3023 0.950 . S
H2995 C3024 0.950 . S
H2996 C3026 0.950 . S
H2997 C3027 0.950 . S
C2998 H2980 0.951 . S
C2998 C2999 1.366 . S
C2998 C3000 1.388 . S
C2999 C2998 1.366 . S
C2999 C3003 1.385 . S
C3000 H2981 0.951 . S
C3000 C2998 1.388 . S
C3000 C3001 1.366 . S
C3001 C3000 1.366 . S
C3001 C3002 1.414 . S
C3001 C3004 1.499 . S
C3002 H2982 0.950 . S
C3002 C3001 1.414 . S
C3002 C3003 1.374 . S
C3003 H2983 0.950 . S
C3003 C2999 1.385 . S
C3003 C3002 1.374 . S
C3004 C3001 1.499 . S
C3004 C3005 1.373 . S
C3004 C3006 1.389 . S
C3005 H2984 0.950 . S
C3005 C3004 1.373 . S
C3005 C3021 1.377 . S
C3006 C3004 1.389 . S
C3006 C3007 1.524 . S
C3006 C3020 1.377 . S
C3007 C3006 1.524 . S
C3007 C3008 1.397 . S
C3007 C3012 1.363 . S
C3008 H2985 0.950 . S
C3008 C3007 1.397 . S
C3008 C3009 1.334 . S
C3009 H2986 0.950 . S
C3009 C3008 1.334 . S
C3009 C3010 1.287 . S
C3010 C3009 1.287 . S
C3010 C3011 1.524 . S
C3010 H3029 0.913 . S
C3011 H2987 0.950 . S
C3011 C3010 1.524 . S
C3011 C3012 1.415 . S
C3012 H2988 0.950 . S
C3012 C3007 1.363 . S
C3012 C3011 1.415 . S
C3013 H2989 0.951 . S
C3013 C3014 1.366 . S
C3013 C3015 1.388 . S
C3014 C3013 1.366 . S
C3014 C3018 1.385 . S
C3015 H2990 0.951 . S
C3015 C3013 1.388 . S
C3015 C3016 1.366 . S
C3016 C3015 1.366 . S
C3016 C3017 1.414 . S
C3016 C3019 1.499 . S
C3017 H2991 0.950 . S
C3017 C3016 1.414 . S
C3017 C3018 1.374 . S
C3018 H2992 0.950 . S
C3018 C3014 1.385 . S
C3018 C3017 1.374 . S
C3019 C3016 1.499 . S
C3019 C3020 1.373 . S
C3019 C3021 1.389 . S
C3020 H2993 0.950 . S
C3020 C3006 1.377 . S
C3020 C3019 1.373 . S
C3021 C3005 1.377 . S
C3021 C3019 1.389 . S
C3021 C3022 1.524 . S
C3022 C3021 1.524 . S
C3022 C3023 1.397 . S
C3022 C3027 1.363 . S
C3023 H2994 0.950 . S
C3023 C3022 1.397 . S
C3023 C3024 1.334 . S
C3024 H2995 0.950 . S
C3024 C3023 1.334 . S
C3024 C3025 1.287 . S
C3025 C3024 1.287 . S
C3025 C3026 1.524 . S
C3025 H3028 0.999 . S
C3026 H2996 0.950 . S
C3026 C3025 1.524 . S
C3026 C3027 1.415 . S
C3027 H2997 0.950 . S
C3027 C3022 1.363 . S
C3027 C3026 1.415 . S
H3028 C3025 0.999 . S
H3029 C3010 0.913 . S
H3030 C3048 0.951 . S
H3031 C3050 0.951 . S
H3032 C3052 0.950 . S
H3033 C3053 0.950 . S
H3034 C3055 0.950 . S
H3035 C3058 0.950 . S
H3036 C3059 0.950 . S
H3037 C3061 0.950 . S
H3038 C3062 0.950 . S
H3039 C3063 0.951 . S
H3040 C3065 0.951 . S
H3041 C3067 0.950 . S
H3042 C3068 0.950 . S
H3043 C3070 0.950 . S
H3044 C3073 0.950 . S
H3045 C3074 0.950 . S
H3046 C3076 0.950 . S
H3047 C3077 0.950 . S
C3048 H3030 0.951 . S
C3048 C3049 1.366 . S
C3048 C3050 1.388 . S
C3049 C3048 1.366 . S
C3049 C3053 1.385 . S
C3050 H3031 0.951 . S
C3050 C3048 1.388 . S
C3050 C3051 1.366 . S
C3051 C3050 1.366 . S
C3051 C3052 1.414 . S
C3051 C3054 1.499 . S
C3052 H3032 0.950 . S
C3052 C3051 1.414 . S
C3052 C3053 1.374 . S
C3053 H3033 0.950 . S
C3053 C3049 1.385 . S
C3053 C3052 1.374 . S
C3054 C3051 1.499 . S
C3054 C3055 1.373 . S
C3054 C3056 1.389 . S
C3055 H3034 0.950 . S
C3055 C3054 1.373 . S
C3055 C3071 1.377 . S
C3056 C3054 1.389 . S
C3056 C3057 1.524 . S
C3056 C3070 1.377 . S
C3057 C3056 1.524 . S
C3057 C3058 1.397 . S
C3057 C3062 1.363 . S
C3058 H3035 0.950 . S
C3058 C3057 1.397 . S
C3058 C3059 1.334 . S
C3059 H3036 0.950 . S
C3059 C3058 1.334 . S
C3059 C3060 1.287 . S
C3060 C3059 1.287 . S
C3060 C3061 1.524 . S
C3060 H3079 0.913 . S
C3061 H3037 0.950 . S
C3061 C3060 1.524 . S
C3061 C3062 1.415 . S
C3062 H3038 0.950 . S
C3062 C3057 1.363 . S
C3062 C3061 1.415 . S
C3063 H3039 0.951 . S
C3063 C3064 1.366 . S
C3063 C3065 1.388 . S
C3064 C3063 1.366 . S
C3064 C3068 1.385 . S
C3065 H3040 0.951 . S
C3065 C3063 1.388 . S
C3065 C3066 1.366 . S
C3066 C3065 1.366 . S
C3066 C3067 1.414 . S
C3066 C3069 1.499 . S
C3067 H3041 0.950 . S
C3067 C3066 1.414 . S
C3067 C3068 1.374 . S
C3068 H3042 0.950 . S
C3068 C3064 1.385 . S
C3068 C3067 1.374 . S
C3069 C3066 1.499 . S
C3069 C3070 1.373 . S
C3069 C3071 1.389 . S
C3070 H3043 0.950 . S
C3070 C3056 1.377 . S
C3070 C3069 1.373 . S
C3071 C3055 1.377 . S
C3071 C3069 1.389 . S
C3071 C3072 1.524 . S
C3072 C3071 1.524 . S
C3072 C3073 1.397 . S
C3072 C3077 1.363 . S
C3073 H3044 0.950 . S
C3073 C3072 1.397 . S
C3073 C3074 1.334 . S
C3074 H3045 0.950 . S
C3074 C3073 1.334 . S
C3074 C3075 1.287 . S
C3075 C3074 1.287 . S
C3075 C3076 1.524 . S
C3075 H3078 0.999 . S
C3076 H3046 0.950 . S
C3076 C3075 1.524 . S
C3076 C3077 1.415 . S
C3077 H3047 0.950 . S
C3077 C3072 1.363 . S
C3077 C3076 1.415 . S
H3078 C3075 0.999 . S
H3079 C3060 0.913 . S
H3080 C3098 0.951 . S
H3081 C3100 0.951 . S
H3082 C3102 0.950 . S
H3083 C3103 0.950 . S
H3084 C3105 0.950 . S
H3085 C3108 0.950 . S
H3086 C3109 0.950 . S
H3087 C3111 0.950 . S
H3088 C3112 0.950 . S
H3089 C3113 0.951 . S
H3090 C3115 0.951 . S
H3091 C3117 0.950 . S
H3092 C3118 0.950 . S
H3093 C3120 0.950 . S
H3094 C3123 0.950 . S
H3095 C3124 0.950 . S
H3096 C3126 0.950 . S
H3097 C3127 0.950 . S
C3098 H3080 0.951 . S
C3098 C3099 1.366 . S
C3098 C3100 1.388 . S
C3099 C3098 1.366 . S
C3099 C3103 1.385 . S
C3100 H3081 0.951 . S
C3100 C3098 1.388 . S
C3100 C3101 1.366 . S
C3101 C3100 1.366 . S
C3101 C3102 1.414 . S
C3101 C3104 1.499 . S
C3102 H3082 0.950 . S
C3102 C3101 1.414 . S
C3102 C3103 1.374 . S
C3103 H3083 0.950 . S
C3103 C3099 1.385 . S
C3103 C3102 1.374 . S
C3104 C3101 1.499 . S
C3104 C3105 1.373 . S
C3104 C3106 1.389 . S
C3105 H3084 0.950 . S
C3105 C3104 1.373 . S
C3105 C3121 1.377 . S
C3106 C3104 1.389 . S
C3106 C3107 1.524 . S
C3106 C3120 1.377 . S
C3107 C3106 1.524 . S
C3107 C3108 1.397 . S
C3107 C3112 1.363 . S
C3108 H3085 0.950 . S
C3108 C3107 1.397 . S
C3108 C3109 1.334 . S
C3109 H3086 0.950 . S
C3109 C3108 1.334 . S
C3109 C3110 1.287 . S
C3110 C3109 1.287 . S
C3110 C3111 1.524 . S
C3110 H3129 0.913 . S
C3111 H3087 0.950 . S
C3111 C3110 1.524 . S
C3111 C3112 1.415 . S
C3112 H3088 0.950 . S
C3112 C3107 1.363 . S
C3112 C3111 1.415 . S
C3113 H3089 0.951 . S
C3113 C3114 1.366 . S
C3113 C3115 1.388 . S
C3114 C3113 1.366 . S
C3114 C3118 1.385 . S
C3115 H3090 0.951 . S
C3115 C3113 1.388 . S
C3115 C3116 1.366 . S
C3116 C3115 1.366 . S
C3116 C3117 1.414 . S
C3116 C3119 1.499 . S
C3117 H3091 0.950 . S
C3117 C3116 1.414 . S
C3117 C3118 1.374 . S
C3118 H3092 0.950 . S
C3118 C3114 1.385 . S
C3118 C3117 1.374 . S
C3119 C3116 1.499 . S
C3119 C3120 1.373 . S
C3119 C3121 1.389 . S
C3120 H3093 0.950 . S
C3120 C3106 1.377 . S
C3120 C3119 1.373 . S
C3121 C3105 1.377 . S
C3121 C3119 1.389 . S
C3121 C3122 1.524 . S
C3122 C3121 1.524 . S
C3122 C3123 1.397 . S
C3122 C3127 1.363 . S
C3123 H3094 0.950 . S
C3123 C3122 1.397 . S
C3123 C3124 1.334 . S
C3124 H3095 0.950 . S
C3124 C3123 1.334 . S
C3124 C3125 1.287 . S
C3125 C3124 1.287 . S
C3125 C3126 1.524 . S
C3125 H3128 0.999 . S
C3126 H3096 0.950 . S
C3126 C3125 1.524 . S
C3126 C3127 1.415 . S
C3127 H3097 0.950 . S
C3127 C3122 1.363 . S
C3127 C3126 1.415 . S
H3128 C3125 0.999 . S
H3129 C3110 0.913 . S
H3130 C3148 0.951 . S
H3131 C3150 0.951 . S
H3132 C3152 0.950 . S
H3133 C3153 0.950 . S
H3134 C3155 0.950 . S
H3135 C3158 0.950 . S
H3136 C3159 0.950 . S
H3137 C3161 0.950 . S
H3138 C3162 0.950 . S
H3139 C3163 0.951 . S
H3140 C3165 0.951 . S
H3141 C3167 0.950 . S
H3142 C3168 0.950 . S
H3143 C3170 0.950 . S
H3144 C3173 0.950 . S
H3145 C3174 0.950 . S
H3146 C3176 0.950 . S
H3147 C3177 0.950 . S
C3148 H3130 0.951 . S
C3148 C3149 1.366 . S
C3148 C3150 1.388 . S
C3149 C3148 1.366 . S
C3149 C3153 1.385 . S
C3150 H3131 0.951 . S
C3150 C3148 1.388 . S
C3150 C3151 1.366 . S
C3151 C3150 1.366 . S
C3151 C3152 1.414 . S
C3151 C3154 1.499 . S
C3152 H3132 0.950 . S
C3152 C3151 1.414 . S
C3152 C3153 1.374 . S
C3153 H3133 0.950 . S
C3153 C3149 1.385 . S
C3153 C3152 1.374 . S
C3154 C3151 1.499 . S
C3154 C3155 1.373 . S
C3154 C3156 1.389 . S
C3155 H3134 0.950 . S
C3155 C3154 1.373 . S
C3155 C3171 1.377 . S
C3156 C3154 1.389 . S
C3156 C3157 1.524 . S
C3156 C3170 1.377 . S
C3157 C3156 1.524 . S
C3157 C3158 1.397 . S
C3157 C3162 1.363 . S
C3158 H3135 0.950 . S
C3158 C3157 1.397 . S
C3158 C3159 1.334 . S
C3159 H3136 0.950 . S
C3159 C3158 1.334 . S
C3159 C3160 1.287 . S
C3160 C3159 1.287 . S
C3160 C3161 1.524 . S
C3160 H3179 0.913 . S
C3161 H3137 0.950 . S
C3161 C3160 1.524 . S
C3161 C3162 1.415 . S
C3162 H3138 0.950 . S
C3162 C3157 1.363 . S
C3162 C3161 1.415 . S
C3163 H3139 0.951 . S
C3163 C3164 1.366 . S
C3163 C3165 1.388 . S
C3164 C3163 1.366 . S
C3164 C3168 1.385 . S
C3165 H3140 0.951 . S
C3165 C3163 1.388 . S
C3165 C3166 1.366 . S
C3166 C3165 1.366 . S
C3166 C3167 1.414 . S
C3166 C3169 1.499 . S
C3167 H3141 0.950 . S
C3167 C3166 1.414 . S
C3167 C3168 1.374 . S
C3168 H3142 0.950 . S
C3168 C3164 1.385 . S
C3168 C3167 1.374 . S
C3169 C3166 1.499 . S
C3169 C3170 1.373 . S
C3169 C3171 1.389 . S
C3170 H3143 0.950 . S
C3170 C3156 1.377 . S
C3170 C3169 1.373 . S
C3171 C3155 1.377 . S
C3171 C3169 1.389 . S
C3171 C3172 1.524 . S
C3172 C3171 1.524 . S
C3172 C3173 1.397 . S
C3172 C3177 1.363 . S
C3173 H3144 0.950 . S
C3173 C3172 1.397 . S
C3173 C3174 1.334 . S
C3174 H3145 0.950 . S
C3174 C3173 1.334 . S
C3174 C3175 1.287 . S
C3175 C3174 1.287 . S
C3175 C3176 1.524 . S
C3175 H3178 0.999 . S
C3176 H3146 0.950 . S
C3176 C3175 1.524 . S
C3176 C3177 1.415 . S
C3177 H3147 0.950 . S
C3177 C3172 1.363 . S
C3177 C3176 1.415 . S
H3178 C3175 0.999 . S
H3179 C3160 0.913 . S
H3180 C3198 0.951 . S
H3181 C3200 0.951 . S
H3182 C3202 0.950 . S
H3183 C3203 0.950 . S
H3184 C3205 0.950 . S
H3185 C3208 0.950 . S
H3186 C3209 0.950 . S
H3187 C3211 0.950 . S
H3188 C3212 0.950 . S
H3189 C3213 0.951 . S
H3190 C3215 0.951 . S
H3191 C3217 0.950 . S
H3192 C3218 0.950 . S
H3193 C3220 0.950 . S
H3194 C3223 0.950 . S
H3195 C3224 0.950 1_455 S
H3196 C3226 0.950 . S
H3197 C3227 0.950 . S
C3198 H3180 0.951 . S
C3198 C3199 1.366 . S
C3198 C3200 1.388 . S
C3199 C3198 1.366 . S
C3199 C3203 1.385 1_455 S
C3200 H3181 0.951 . S
C3200 C3198 1.388 . S
C3200 C3201 1.366 . S
C3201 C3200 1.366 . S
C3201 C3202 1.414 1_455 S
C3201 C3204 1.499 . S
C3202 H3182 0.950 . S
C3202 C3201 1.414 1_655 S
C3202 C3203 1.374 . S
C3203 H3183 0.950 . S
C3203 C3199 1.385 1_655 S
C3203 C3202 1.374 . S
C3204 C3201 1.499 . S
C3204 C3205 1.373 1_455 S
C3204 C3206 1.389 . S
C3205 H3184 0.950 . S
C3205 C3204 1.373 1_655 S
C3205 C3221 1.369 . S
C3206 C3204 1.389 . S
C3206 C3207 1.524 . S
C3206 C3220 1.377 . S
C3207 C3206 1.524 . S
C3207 C3208 1.397 . S
C3207 C3212 1.363 . S
C3208 H3185 0.950 . S
C3208 C3207 1.397 . S
C3208 C3209 1.334 . S
C3209 H3186 0.950 . S
C3209 C3208 1.334 . S
C3209 C3210 1.287 . S
C3210 C3209 1.287 . S
C3210 C3211 1.524 . S
C3210 H3229 0.913 . S
C3211 H3187 0.950 . S
C3211 C3210 1.524 . S
C3211 C3212 1.415 . S
C3212 H3188 0.950 . S
C3212 C3207 1.363 . S
C3212 C3211 1.415 . S
C3213 H3189 0.951 . S
C3213 C3214 1.366 1_655 S
C3213 C3215 1.388 . S
C3214 C3213 1.366 1_455 S
C3214 C3218 1.385 . S
C3215 H3190 0.951 . S
C3215 C3213 1.388 . S
C3215 C3216 1.366 1_655 S
C3216 C3215 1.366 1_455 S
C3216 C3217 1.414 . S
C3216 C3219 1.499 . S
C3217 H3191 0.950 . S
C3217 C3216 1.414 . S
C3217 C3218 1.374 . S
C3218 H3192 0.950 . S
C3218 C3214 1.385 . S
C3218 C3217 1.374 . S
C3219 C3216 1.499 . S
C3219 C3220 1.373 . S
C3219 C3221 1.390 1_455 S
C3220 H3193 0.950 . S
C3220 C3206 1.377 . S
C3220 C3219 1.373 . S
C3221 C3205 1.369 . S
C3221 C3219 1.390 1_655 S
C3221 C3222 1.530 . S
C3222 C3221 1.530 . S
C3222 C3223 1.397 1_655 S
C3222 C3227 1.363 . S
C3223 H3194 0.950 . S
C3223 C3222 1.397 1_455 S
C3223 C3224 1.334 1_455 S
C3224 H3195 0.950 1_655 S
C3224 C3223 1.334 1_655 S
C3224 C3225 1.287 . S
C3225 C3224 1.287 . S
C3225 C3226 1.524 . S
C3225 H3228 0.999 . S
C3226 H3196 0.950 . S
C3226 C3225 1.524 . S
C3226 C3227 1.415 . S
C3227 H3197 0.950 . S
C3227 C3222 1.363 . S
C3227 C3226 1.415 . S
H3228 C3225 0.999 . S
H3229 C3210 0.913 . S
H3230 C3248 0.951 . S
H3231 C3250 0.951 . S
H3232 C3252 0.950 . S
H3233 C3253 0.950 . S
H3234 C3255 0.950 . S
H3235 C3258 0.950 . S
H3236 C3259 0.950 . S
H3237 C3261 0.950 . S
H3238 C3262 0.950 . S
H3239 C3263 0.951 . S
H3240 C3265 0.951 . S
H3241 C3267 0.950 . S
H3242 C3268 0.950 . S
H3243 C3270 0.950 . S
H3244 C3273 0.950 . S
H3245 C3274 0.950 . S
H3246 C3276 0.950 . S
H3247 C3277 0.950 . S
C3248 H3230 0.951 . S
C3248 C3249 1.366 . S
C3248 C3250 1.388 . S
C3249 C3248 1.366 . S
C3249 C3253 1.385 . S
C3250 H3231 0.951 . S
C3250 C3248 1.388 . S
C3250 C3251 1.366 . S
C3251 C3250 1.366 . S
C3251 C3252 1.414 . S
C3251 C3254 1.499 . S
C3252 H3232 0.950 . S
C3252 C3251 1.414 . S
C3252 C3253 1.374 . S
C3253 H3233 0.950 . S
C3253 C3249 1.385 . S
C3253 C3252 1.374 . S
C3254 C3251 1.499 . S
C3254 C3255 1.373 . S
C3254 C3256 1.389 . S
C3255 H3234 0.950 . S
C3255 C3254 1.373 . S
C3255 C3271 1.377 . S
C3256 C3254 1.389 . S
C3256 C3257 1.524 . S
C3256 C3270 1.377 . S
C3257 C3256 1.524 . S
C3257 C3258 1.397 . S
C3257 C3262 1.363 . S
C3258 H3235 0.950 . S
C3258 C3257 1.397 . S
C3258 C3259 1.334 . S
C3259 H3236 0.950 . S
C3259 C3258 1.334 . S
C3259 C3260 1.287 . S
C3260 C3259 1.287 . S
C3260 C3261 1.524 . S
C3260 H3279 0.913 . S
C3261 H3237 0.950 . S
C3261 C3260 1.524 . S
C3261 C3262 1.415 . S
C3262 H3238 0.950 . S
C3262 C3257 1.363 . S
C3262 C3261 1.415 . S
C3263 H3239 0.951 . S
C3263 C3264 1.366 . S
C3263 C3265 1.388 . S
C3264 C3263 1.366 . S
C3264 C3268 1.385 . S
C3265 H3240 0.951 . S
C3265 C3263 1.388 . S
C3265 C3266 1.366 . S
C3266 C3265 1.366 . S
C3266 C3267 1.414 . S
C3266 C3269 1.499 . S
C3267 H3241 0.950 . S
C3267 C3266 1.414 . S
C3267 C3268 1.374 . S
C3268 H3242 0.950 . S
C3268 C3264 1.385 . S
C3268 C3267 1.374 . S
C3269 C3266 1.499 . S
C3269 C3270 1.373 . S
C3269 C3271 1.389 . S
C3270 H3243 0.950 . S
C3270 C3256 1.377 . S
C3270 C3269 1.373 . S
C3271 C3255 1.377 . S
C3271 C3269 1.389 . S
C3271 C3272 1.524 . S
C3272 C3271 1.524 . S
C3272 C3273 1.397 . S
C3272 C3277 1.363 . S
C3273 H3244 0.950 . S
C3273 C3272 1.397 . S
C3273 C3274 1.334 . S
C3274 H3245 0.950 . S
C3274 C3273 1.334 . S
C3274 C3275 1.287 . S
C3275 C3274 1.287 . S
C3275 C3276 1.524 . S
C3275 H3278 0.999 . S
C3276 H3246 0.950 . S
C3276 C3275 1.524 . S
C3276 C3277 1.415 . S
C3277 H3247 0.950 . S
C3277 C3272 1.363 . S
C3277 C3276 1.415 . S
H3278 C3275 0.999 . S
H3279 C3260 0.913 . S
H3280 C3298 0.936 1_545 S
H3281 C3300 0.951 1_545 S
H3282 C3302 0.950 . S
H3283 C3303 0.950 . S
H3284 C3305 0.948 . S
H3285 C3308 0.950 . S
H3286 C3309 0.950 . S
H3287 C3311 0.950 . S
H3288 C3312 0.950 . S
H3289 C3313 0.951 . S
H3290 C3315 0.951 . S
H3291 C3317 0.950 . S
H3292 C3318 0.950 . S
H3293 C3320 0.950 . S
H3294 C3323 0.950 . S
H3295 C3324 0.950 . S
H3296 C3326 0.950 . S
H3297 C3327 0.950 1_565 S
C3298 H3280 0.936 1_565 S
C3298 C3299 1.366 . S
C3298 C3300 1.388 . S
C3299 C3298 1.366 . S
C3299 C3303 1.385 . S
C3300 H3281 0.951 1_565 S
C3300 C3298 1.388 . S
C3300 C3301 1.366 . S
C3301 C3300 1.366 . S
C3301 C3302 1.414 . S
C3301 C3304 1.499 . S
C3302 H3282 0.950 . S
C3302 C3301 1.414 . S
C3302 C3303 1.374 . S
C3303 H3283 0.950 . S
C3303 C3299 1.385 . S
C3303 C3302 1.374 . S
C3304 C3301 1.499 . S
C3304 C3305 1.373 . S
C3304 C3306 1.389 . S
C3305 H3284 0.948 . S
C3305 C3304 1.373 . S
C3305 C3321 1.354 . S
C3306 C3304 1.389 . S
C3306 C3307 1.524 . S
C3306 C3320 1.377 . S
C3307 C3306 1.524 . S
C3307 C3308 1.397 . S
C3307 C3312 1.363 . S
C3308 H3285 0.950 . S
C3308 C3307 1.397 . S
C3308 C3309 1.334 . S
C3309 H3286 0.950 . S
C3309 C3308 1.334 . S
C3309 C3310 1.287 . S
C3310 C3309 1.287 . S
C3310 C3311 1.524 . S
C3310 H3329 0.913 . S
C3311 H3287 0.950 . S
C3311 C3310 1.524 . S
C3311 C3312 1.415 . S
C3312 H3288 0.950 . S
C3312 C3307 1.363 . S
C3312 C3311 1.415 . S
C3313 H3289 0.951 . S
C3313 C3314 1.366 . S
C3313 C3315 1.388 . S
C3314 C3313 1.366 . S
C3314 C3318 1.385 1_565 S
C3315 H3290 0.951 . S
C3315 C3313 1.388 . S
C3315 C3316 1.366 . S
C3316 C3315 1.366 . S
C3316 C3317 1.414 1_565 S
C3316 C3319 1.499 . S
C3317 H3291 0.950 . S
C3317 C3316 1.414 1_545 S
C3317 C3318 1.374 . S
C3318 H3292 0.950 . S
C3318 C3314 1.385 1_545 S
C3318 C3317 1.374 . S
C3319 C3316 1.499 . S
C3319 C3320 1.373 . S
C3319 C3321 1.412 . S
C3320 H3293 0.950 . S
C3320 C3306 1.377 . S
C3320 C3319 1.373 . S
C3321 C3305 1.354 . S
C3321 C3319 1.412 . S
C3321 C3322 1.524 1_565 S
C3322 C3321 1.524 1_545 S
C3322 C3323 1.397 . S
C3322 C3327 1.363 . S
C3323 H3294 0.950 . S
C3323 C3322 1.397 . S
C3323 C3324 1.334 . S
C3324 H3295 0.950 . S
C3324 C3323 1.334 . S
C3324 C3325 1.287 . S
C3325 C3324 1.287 . S
C3325 C3326 1.524 . S
C3325 H3328 0.999 . S
C3326 H3296 0.950 . S
C3326 C3325 1.524 . S
C3326 C3327 1.415 . S
C3327 H3297 0.950 1_545 S
C3327 C3322 1.363 . S
C3327 C3326 1.415 . S
H3328 C3325 0.999 . S
H3329 C3310 0.913 . S
H3330 C3348 0.943 1_545 S
H3331 C3350 0.989 . S
H3332 C3352 0.950 . S
H3333 C3353 0.950 . S
H3334 C3355 0.950 . S
H3335 C3358 0.950 . S
H3336 C3359 0.950 . S
H3337 C3361 0.947 . S
H3338 C3362 0.950 1_545 S
H3339 C3363 0.951 . S
H3340 C3365 0.951 . S
H3341 C3367 0.950 . S
H3342 C3368 0.950 . S
H3343 C3370 0.950 . S
H3344 C3373 0.950 . S
H3345 C3374 0.950 . S
H3346 C3376 0.950 . S
H3347 C3377 0.950 . S
C3348 H3330 0.943 1_565 S
C3348 C3349 1.384 . S
C3348 C3350 1.357 1_565 S
C3349 C3348 1.384 . S
C3349 C3353 1.385 . S
C3350 H3331 0.989 . S
C3350 C3348 1.357 1_545 S
C3350 C3351 1.350 1_545 S
C3351 C3350 1.350 1_565 S
C3351 C3352 1.414 . S
C3351 C3354 1.499 . S
C3352 H3332 0.950 . S
C3352 C3351 1.414 . S
C3352 C3353 1.374 . S
C3353 H3333 0.950 . S
C3353 C3349 1.385 . S
C3353 C3352 1.374 . S
C3354 C3351 1.499 . S
C3354 C3355 1.373 . S
C3354 C3356 1.389 . S
C3355 H3334 0.950 . S
C3355 C3354 1.373 . S
C3355 C3371 1.377 . S
C3356 C3354 1.389 . S
C3356 C3357 1.524 . S
C3356 C3370 1.377 . S
C3357 C3356 1.524 . S
C3357 C3358 1.397 . S
C3357 C3362 1.363 . S
C3358 H3335 0.950 . S
C3358 C3357 1.397 . S
C3358 C3359 1.334 . S
C3359 H3336 0.950 . S
C3359 C3358 1.334 . S
C3359 C3360 1.287 . S
C3360 C3359 1.287 . S
C3360 C3361 1.524 . S
C3360 H3379 0.913 . S
C3361 H3337 0.947 . S
C3361 C3360 1.524 . S
C3361 C3362 1.415 . S
C3362 H3338 0.950 1_565 S
C3362 C3357 1.363 . S
C3362 C3361 1.415 . S
C3363 H3339 0.951 . S
C3363 C3364 1.438 . S
C3363 C3365 1.388 . S
C3364 C3363 1.438 . S
C3364 C3368 1.355 1_565 S
C3365 H3340 0.951 . S
C3365 C3363 1.388 . S
C3365 C3366 1.366 . S
C3366 C3365 1.366 . S
C3366 C3367 1.414 1_565 S
C3366 C3369 1.499 . S
C3367 H3341 0.950 . S
C3367 C3366 1.414 1_545 S
C3367 C3368 1.374 . S
C3368 H3342 0.950 . S
C3368 C3364 1.355 1_545 S
C3368 C3367 1.374 . S
C3369 C3366 1.499 . S
C3369 C3370 1.373 . S
C3369 C3371 1.389 . S
C3370 H3343 0.950 . S
C3370 C3356 1.377 . S
C3370 C3369 1.373 . S
C3371 C3355 1.377 . S
C3371 C3369 1.389 . S
C3371 C3372 1.521 1_565 S
C3372 C3371 1.521 1_545 S
C3372 C3373 1.415 . S
C3372 C3377 1.348 1_545 S
C3373 H3344 0.950 . S
C3373 C3372 1.415 . S
C3373 C3374 1.334 . S
C3374 H3345 0.950 . S
C3374 C3373 1.334 . S
C3374 C3375 1.287 . S
C3375 C3374 1.287 . S
C3375 C3376 1.524 1_545 S
C3375 H3378 0.999 . S
C3376 H3346 0.950 . S
C3376 C3375 1.524 1_565 S
C3376 C3377 1.415 . S
C3377 H3347 0.950 . S
C3377 C3372 1.348 1_565 S
C3377 C3376 1.415 . S
H3378 C3375 0.999 . S
H3379 C3360 0.913 . S
H3380 C3398 0.951 . S
H3381 C3400 0.951 . S
H3382 C3402 0.950 . S
H3383 C3403 0.950 . S
H3384 C3405 0.950 . S
H3385 C3408 0.950 . S
H3386 C3409 0.950 . S
H3387 C3411 0.950 . S
H3388 C3412 0.950 . S
H3389 C3413 0.988 1_655 S
H3390 C3415 0.951 . S
H3391 C3417 0.950 . S
H3392 C3418 0.950 . S
H3393 C3420 0.950 . S
H3394 C3423 0.950 . S
H3395 C3424 0.950 . S
H3396 C3426 0.950 . S
H3397 C3427 0.950 . S
C3398 H3380 0.951 . S
C3398 C3399 1.366 . S
C3398 C3400 1.388 . S
C3399 C3398 1.366 . S
C3399 C3403 1.385 . S
C3400 H3381 0.951 . S
C3400 C3398 1.388 . S
C3400 C3401 1.366 . S
C3401 C3400 1.366 . S
C3401 C3402 1.414 . S
C3401 C3404 1.499 . S
C3402 H3382 0.950 . S
C3402 C3401 1.414 . S
C3402 C3403 1.374 . S
C3403 H3383 0.950 . S
C3403 C3399 1.385 . S
C3403 C3402 1.374 . S
C3404 C3401 1.499 . S
C3404 C3405 1.373 . S
C3404 C3406 1.389 1_455 S
C3405 H3384 0.950 . S
C3405 C3404 1.373 . S
C3405 C3421 1.377 . S
C3406 C3404 1.389 1_655 S
C3406 C3407 1.524 . S
C3406 C3420 1.377 . S
C3407 C3406 1.524 . S
C3407 C3408 1.397 . S
C3407 C3412 1.363 . S
C3408 H3385 0.950 . S
C3408 C3407 1.397 . S
C3408 C3409 1.334 . S
C3409 H3386 0.950 . S
C3409 C3408 1.334 . S
C3409 C3410 1.287 . S
C3410 C3409 1.287 . S
C3410 C3411 1.524 . S
C3410 H3429 0.913 . S
C3411 H3387 0.950 . S
C3411 C3410 1.524 . S
C3411 C3412 1.415 . S
C3412 H3388 0.950 . S
C3412 C3407 1.363 . S
C3412 C3411 1.415 . S
C3413 H3389 0.988 1_455 S
C3413 C3414 1.364 . S
C3413 C3415 1.371 . S
C3414 C3413 1.364 . S
C3414 C3418 1.362 . S
C3415 H3390 0.951 . S
C3415 C3413 1.371 . S
C3415 C3416 1.366 . S
C3416 C3415 1.366 . S
C3416 C3417 1.414 . S
C3416 C3419 1.499 . S
C3417 H3391 0.950 . S
C3417 C3416 1.414 . S
C3417 C3418 1.374 . S
C3418 H3392 0.950 . S
C3418 C3414 1.362 . S
C3418 C3417 1.374 . S
C3419 C3416 1.499 . S
C3419 C3420 1.373 1_455 S
C3419 C3421 1.389 . S
C3420 H3393 0.950 . S
C3420 C3406 1.377 . S
C3420 C3419 1.373 1_655 S
C3421 C3405 1.377 . S
C3421 C3419 1.389 . S
C3421 C3422 1.524 . S
C3422 C3421 1.524 . S
C3422 C3423 1.397 . S
C3422 C3427 1.363 . S
C3423 H3394 0.950 . S
C3423 C3422 1.397 . S
C3423 C3424 1.334 . S
C3424 H3395 0.950 . S
C3424 C3423 1.334 . S
C3424 C3425 1.287 . S
C3425 C3424 1.287 . S
C3425 C3426 1.524 . S
C3425 H3428 0.999 . S
C3426 H3396 0.950 . S
C3426 C3425 1.524 . S
C3426 C3427 1.415 . S
C3427 H3397 0.950 . S
C3427 C3422 1.363 . S
C3427 C3426 1.415 . S
H3428 C3425 0.999 . S
H3429 C3410 0.913 . S
H3430 C3448 0.951 . S
H3431 C3450 0.951 . S
H3432 C3452 0.950 . S
H3433 C3453 0.950 . S
H3434 C3455 0.950 . S
H3435 C3458 0.950 . S
H3436 C3459 0.950 . S
H3437 C3461 0.950 . S
H3438 C3462 0.950 . S
H3439 C3463 0.951 . S
H3440 C3465 0.951 . S
H3441 C3467 0.950 . S
H3442 C3468 0.950 . S
H3443 C3470 0.950 . S
H3444 C3473 0.950 . S
H3445 C3474 0.950 . S
H3446 C3476 0.950 . S
H3447 C3477 0.950 . S
C3448 H3430 0.951 . S
C3448 C3449 1.366 . S
C3448 C3450 1.388 . S
C3449 C3448 1.366 . S
C3449 C3453 1.385 . S
C3450 H3431 0.951 . S
C3450 C3448 1.388 . S
C3450 C3451 1.366 . S
C3451 C3450 1.366 . S
C3451 C3452 1.414 . S
C3451 C3454 1.499 . S
C3452 H3432 0.950 . S
C3452 C3451 1.414 . S
C3452 C3453 1.374 . S
C3453 H3433 0.950 . S
C3453 C3449 1.385 . S
C3453 C3452 1.374 . S
C3454 C3451 1.499 . S
C3454 C3455 1.373 . S
C3454 C3456 1.389 . S
C3455 H3434 0.950 . S
C3455 C3454 1.373 . S
C3455 C3471 1.377 . S
C3456 C3454 1.389 . S
C3456 C3457 1.524 . S
C3456 C3470 1.377 . S
C3457 C3456 1.524 . S
C3457 C3458 1.397 . S
C3457 C3462 1.363 . S
C3458 H3435 0.950 . S
C3458 C3457 1.397 . S
C3458 C3459 1.334 . S
C3459 H3436 0.950 . S
C3459 C3458 1.334 . S
C3459 C3460 1.287 . S
C3460 C3459 1.287 . S
C3460 C3461 1.524 . S
C3460 H3479 0.913 . S
C3461 H3437 0.950 . S
C3461 C3460 1.524 . S
C3461 C3462 1.415 . S
C3462 H3438 0.950 . S
C3462 C3457 1.363 . S
C3462 C3461 1.415 . S
C3463 H3439 0.951 . S
C3463 C3464 1.366 . S
C3463 C3465 1.388 . S
C3464 C3463 1.366 . S
C3464 C3468 1.385 . S
C3465 H3440 0.951 . S
C3465 C3463 1.388 . S
C3465 C3466 1.366 . S
C3466 C3465 1.366 . S
C3466 C3467 1.414 . S
C3466 C3469 1.499 . S
C3467 H3441 0.950 . S
C3467 C3466 1.414 . S
C3467 C3468 1.374 . S
C3468 H3442 0.950 . S
C3468 C3464 1.385 . S
C3468 C3467 1.374 . S
C3469 C3466 1.499 . S
C3469 C3470 1.373 . S
C3469 C3471 1.389 . S
C3470 H3443 0.950 . S
C3470 C3456 1.377 . S
C3470 C3469 1.373 . S
C3471 C3455 1.377 . S
C3471 C3469 1.389 . S
C3471 C3472 1.524 . S
C3472 C3471 1.524 . S
C3472 C3473 1.397 . S
C3472 C3477 1.363 . S
C3473 H3444 0.950 . S
C3473 C3472 1.397 . S
C3473 C3474 1.334 . S
C3474 H3445 0.950 . S
C3474 C3473 1.334 . S
C3474 C3475 1.287 . S
C3475 C3474 1.287 . S
C3475 C3476 1.524 . S
C3475 H3478 0.999 . S
C3476 H3446 0.950 . S
C3476 C3475 1.524 . S
C3476 C3477 1.415 . S
C3477 H3447 0.950 . S
C3477 C3472 1.363 . S
C3477 C3476 1.415 . S
H3478 C3475 0.999 . S
H3479 C3460 0.913 . S
H3480 C3498 0.951 . S
H3481 C3500 0.951 . S
H3482 C3502 0.950 . S
H3483 C3503 0.950 . S
H3484 C3505 0.950 . S
H3485 C3508 0.950 . S
H3486 C3509 0.950 . S
H3487 C3511 0.950 . S
H3488 C3512 0.950 . S
H3489 C3513 0.951 . S
H3490 C3515 0.951 . S
H3491 C3517 0.950 . S
H3492 C3518 0.950 . S
H3493 C3520 0.950 . S
H3494 C3523 0.950 . S
H3495 C3524 0.950 . S
H3496 C3526 0.950 . S
H3497 C3527 0.950 . S
C3498 H3480 0.951 . S
C3498 C3499 1.366 . S
C3498 C3500 1.388 . S
C3499 C3498 1.366 . S
C3499 C3503 1.385 . S
C3500 H3481 0.951 . S
C3500 C3498 1.388 . S
C3500 C3501 1.366 . S
C3501 C3500 1.366 . S
C3501 C3502 1.414 . S
C3501 C3504 1.499 . S
C3502 H3482 0.950 . S
C3502 C3501 1.414 . S
C3502 C3503 1.374 . S
C3503 H3483 0.950 . S
C3503 C3499 1.385 . S
C3503 C3502 1.374 . S
C3504 C3501 1.499 . S
C3504 C3505 1.373 . S
C3504 C3506 1.389 . S
C3505 H3484 0.950 . S
C3505 C3504 1.373 . S
C3505 C3521 1.377 . S
C3506 C3504 1.389 . S
C3506 C3507 1.524 . S
C3506 C3520 1.377 . S
C3507 C3506 1.524 . S
C3507 C3508 1.397 . S
C3507 C3512 1.363 . S
C3508 H3485 0.950 . S
C3508 C3507 1.397 . S
C3508 C3509 1.334 . S
C3509 H3486 0.950 . S
C3509 C3508 1.334 . S
C3509 C3510 1.287 . S
C3510 C3509 1.287 . S
C3510 C3511 1.524 . S
C3510 H3529 0.913 . S
C3511 H3487 0.950 . S
C3511 C3510 1.524 . S
C3511 C3512 1.415 . S
C3512 H3488 0.950 . S
C3512 C3507 1.363 . S
C3512 C3511 1.415 . S
C3513 H3489 0.951 . S
C3513 C3514 1.366 . S
C3513 C3515 1.388 . S
C3514 C3513 1.366 . S
C3514 C3518 1.385 . S
C3515 H3490 0.951 . S
C3515 C3513 1.388 . S
C3515 C3516 1.366 . S
C3516 C3515 1.366 . S
C3516 C3517 1.414 . S
C3516 C3519 1.499 . S
C3517 H3491 0.950 . S
C3517 C3516 1.414 . S
C3517 C3518 1.374 . S
C3518 H3492 0.950 . S
C3518 C3514 1.385 . S
C3518 C3517 1.374 . S
C3519 C3516 1.499 . S
C3519 C3520 1.373 . S
C3519 C3521 1.389 . S
C3520 H3493 0.950 . S
C3520 C3506 1.377 . S
C3520 C3519 1.373 . S
C3521 C3505 1.377 . S
C3521 C3519 1.389 . S
C3521 C3522 1.524 . S
C3522 C3521 1.524 . S
C3522 C3523 1.397 . S
C3522 C3527 1.363 . S
C3523 H3494 0.950 . S
C3523 C3522 1.397 . S
C3523 C3524 1.334 . S
C3524 H3495 0.950 . S
C3524 C3523 1.334 . S
C3524 C3525 1.287 . S
C3525 C3524 1.287 . S
C3525 C3526 1.524 . S
C3525 H3528 0.999 . S
C3526 H3496 0.950 . S
C3526 C3525 1.524 . S
C3526 C3527 1.415 . S
C3527 H3497 0.950 . S
C3527 C3522 1.363 . S
C3527 C3526 1.415 . S
H3528 C3525 0.999 . S
H3529 C3510 0.913 . S
H3530 C3548 0.951 . S
H3531 C3550 0.951 . S
H3532 C3552 0.950 . S
H3533 C3553 0.950 . S
H3534 C3555 0.950 . S
H3535 C3558 0.950 . S
H3536 C3559 0.950 . S
H3537 C3561 0.950 . S
H3538 C3562 0.950 . S
H3539 C3563 0.951 . S
H3540 C3565 0.951 . S
H3541 C3567 0.950 . S
H3542 C3568 0.950 . S
H3543 C3570 0.950 . S
H3544 C3573 0.950 . S
H3545 C3574 0.950 . S
H3546 C3576 0.950 . S
H3547 C3577 0.950 . S
C3548 H3530 0.951 . S
C3548 C3549 1.366 . S
C3548 C3550 1.388 . S
C3549 C3548 1.366 . S
C3549 C3553 1.385 . S
C3550 H3531 0.951 . S
C3550 C3548 1.388 . S
C3550 C3551 1.366 . S
C3551 C3550 1.366 . S
C3551 C3552 1.414 . S
C3551 C3554 1.499 . S
C3552 H3532 0.950 . S
C3552 C3551 1.414 . S
C3552 C3553 1.374 . S
C3553 H3533 0.950 . S
C3553 C3549 1.385 . S
C3553 C3552 1.374 . S
C3554 C3551 1.499 . S
C3554 C3555 1.373 . S
C3554 C3556 1.389 . S
C3555 H3534 0.950 . S
C3555 C3554 1.373 . S
C3555 C3571 1.377 . S
C3556 C3554 1.389 . S
C3556 C3557 1.524 . S
C3556 C3570 1.377 . S
C3557 C3556 1.524 . S
C3557 C3558 1.397 . S
C3557 C3562 1.363 . S
C3558 H3535 0.950 . S
C3558 C3557 1.397 . S
C3558 C3559 1.334 . S
C3559 H3536 0.950 . S
C3559 C3558 1.334 . S
C3559 C3560 1.287 . S
C3560 C3559 1.287 . S
C3560 C3561 1.524 . S
C3560 H3579 0.913 . S
C3561 H3537 0.950 . S
C3561 C3560 1.524 . S
C3561 C3562 1.415 . S
C3562 H3538 0.950 . S
C3562 C3557 1.363 . S
C3562 C3561 1.415 . S
C3563 H3539 0.951 . S
C3563 C3564 1.366 . S
C3563 C3565 1.388 . S
C3564 C3563 1.366 . S
C3564 C3568 1.385 . S
C3565 H3540 0.951 . S
C3565 C3563 1.388 . S
C3565 C3566 1.366 . S
C3566 C3565 1.366 . S
C3566 C3567 1.414 . S
C3566 C3569 1.499 . S
C3567 H3541 0.950 . S
C3567 C3566 1.414 . S
C3567 C3568 1.374 . S
C3568 H3542 0.950 . S
C3568 C3564 1.385 . S
C3568 C3567 1.374 . S
C3569 C3566 1.499 . S
C3569 C3570 1.373 . S
C3569 C3571 1.389 . S
C3570 H3543 0.950 . S
C3570 C3556 1.377 . S
C3570 C3569 1.373 . S
C3571 C3555 1.377 . S
C3571 C3569 1.389 . S
C3571 C3572 1.524 . S
C3572 C3571 1.524 . S
C3572 C3573 1.397 . S
C3572 C3577 1.363 . S
C3573 H3544 0.950 . S
C3573 C3572 1.397 . S
C3573 C3574 1.334 . S
C3574 H3545 0.950 . S
C3574 C3573 1.334 . S
C3574 C3575 1.287 . S
C3575 C3574 1.287 . S
C3575 C3576 1.524 . S
C3575 H3578 0.999 . S
C3576 H3546 0.950 . S
C3576 C3575 1.524 . S
C3576 C3577 1.415 . S
C3577 H3547 0.950 . S
C3577 C3572 1.363 . S
C3577 C3576 1.415 . S
H3578 C3575 0.999 . S
H3579 C3560 0.913 . S
H3580 C3598 0.951 . S
H3581 C3600 0.951 . S
H3582 C3602 0.950 . S
H3583 C3603 0.950 . S
H3584 C3605 0.950 . S
H3585 C3608 0.950 . S
H3586 C3609 0.950 . S
H3587 C3611 0.950 . S
H3588 C3612 0.950 . S
H3589 C3613 0.951 . S
H3590 C3615 0.951 . S
H3591 C3617 0.950 . S
H3592 C3618 0.950 . S
H3593 C3620 0.950 . S
H3594 C3623 0.950 . S
H3595 C3624 0.950 . S
H3596 C3626 0.950 . S
H3597 C3627 0.950 . S
C3598 H3580 0.951 . S
C3598 C3599 1.366 . S
C3598 C3600 1.388 . S
C3599 C3598 1.366 . S
C3599 C3603 1.385 . S
C3600 H3581 0.951 . S
C3600 C3598 1.388 . S
C3600 C3601 1.366 . S
C3601 C3600 1.366 . S
C3601 C3602 1.414 . S
C3601 C3604 1.499 . S
C3602 H3582 0.950 . S
C3602 C3601 1.414 . S
C3602 C3603 1.374 . S
C3603 H3583 0.950 . S
C3603 C3599 1.385 . S
C3603 C3602 1.374 . S
C3604 C3601 1.499 . S
C3604 C3605 1.373 . S
C3604 C3606 1.389 . S
C3605 H3584 0.950 . S
C3605 C3604 1.373 . S
C3605 C3621 1.377 . S
C3606 C3604 1.389 . S
C3606 C3607 1.524 . S
C3606 C3620 1.377 . S
C3607 C3606 1.524 . S
C3607 C3608 1.397 . S
C3607 C3612 1.363 . S
C3608 H3585 0.950 . S
C3608 C3607 1.397 . S
C3608 C3609 1.334 . S
C3609 H3586 0.950 . S
C3609 C3608 1.334 . S
C3609 C3610 1.287 . S
C3610 C3609 1.287 . S
C3610 C3611 1.524 . S
C3610 H3629 0.913 . S
C3611 H3587 0.950 . S
C3611 C3610 1.524 . S
C3611 C3612 1.415 . S
C3612 H3588 0.950 . S
C3612 C3607 1.363 . S
C3612 C3611 1.415 . S
C3613 H3589 0.951 . S
C3613 C3614 1.366 . S
C3613 C3615 1.388 . S
C3614 C3613 1.366 . S
C3614 C3618 1.385 . S
C3615 H3590 0.951 . S
C3615 C3613 1.388 . S
C3615 C3616 1.366 . S
C3616 C3615 1.366 . S
C3616 C3617 1.414 . S
C3616 C3619 1.499 . S
C3617 H3591 0.950 . S
C3617 C3616 1.414 . S
C3617 C3618 1.374 . S
C3618 H3592 0.950 . S
C3618 C3614 1.385 . S
C3618 C3617 1.374 . S
C3619 C3616 1.499 . S
C3619 C3620 1.373 . S
C3619 C3621 1.389 . S
C3620 H3593 0.950 . S
C3620 C3606 1.377 . S
C3620 C3619 1.373 . S
C3621 C3605 1.377 . S
C3621 C3619 1.389 . S
C3621 C3622 1.524 . S
C3622 C3621 1.524 . S
C3622 C3623 1.397 . S
C3622 C3627 1.363 . S
C3623 H3594 0.950 . S
C3623 C3622 1.397 . S
C3623 C3624 1.334 . S
C3624 H3595 0.950 . S
C3624 C3623 1.334 . S
C3624 C3625 1.287 . S
C3625 C3624 1.287 . S
C3625 C3626 1.524 . S
C3625 H3628 0.999 . S
C3626 H3596 0.950 . S
C3626 C3625 1.524 . S
C3626 C3627 1.415 . S
C3627 H3597 0.950 . S
C3627 C3622 1.363 . S
C3627 C3626 1.415 . S
H3628 C3625 0.999 . S
H3629 C3610 0.913 . S
H3630 C3648 0.951 . S
H3631 C3650 0.951 . S
H3632 C3652 0.950 . S
H3633 C3653 0.950 . S
H3634 C3655 0.950 . S
H3635 C3658 0.950 . S
H3636 C3659 0.950 . S
H3637 C3661 0.950 . S
H3638 C3662 0.950 . S
H3639 C3663 0.961 . S
H3640 C3665 0.949 1_565 S
H3641 C3667 0.950 . S
H3642 C3668 0.950 . S
H3643 C3670 0.950 . S
H3644 C3673 0.950 . S
H3645 C3674 0.950 . S
H3646 C3676 0.950 . S
H3647 C3677 0.950 . S
C3648 H3630 0.951 . S
C3648 C3649 1.366 . S
C3648 C3650 1.388 . S
C3649 C3648 1.366 . S
C3649 C3653 1.385 . S
C3650 H3631 0.951 . S
C3650 C3648 1.388 . S
C3650 C3651 1.366 . S
C3651 C3650 1.366 . S
C3651 C3652 1.414 . S
C3651 C3654 1.499 . S
C3652 H3632 0.950 . S
C3652 C3651 1.414 . S
C3652 C3653 1.374 . S
C3653 H3633 0.950 . S
C3653 C3649 1.385 . S
C3653 C3652 1.374 . S
C3654 C3651 1.499 . S
C3654 C3655 1.373 1_545 S
C3654 C3656 1.389 . S
C3655 H3634 0.950 . S
C3655 C3654 1.373 1_565 S
C3655 C3671 1.377 . S
C3656 C3654 1.389 . S
C3656 C3657 1.524 . S
C3656 C3670 1.377 . S
C3657 C3656 1.524 . S
C3657 C3658 1.397 . S
C3657 C3662 1.363 . S
C3658 H3635 0.950 . S
C3658 C3657 1.397 . S
C3658 C3659 1.334 . S
C3659 H3636 0.950 . S
C3659 C3658 1.334 . S
C3659 C3660 1.287 . S
C3660 C3659 1.287 . S
C3660 C3661 1.524 . S
C3660 H3679 0.913 . S
C3661 H3637 0.950 . S
C3661 C3660 1.524 . S
C3661 C3662 1.415 . S
C3662 H3638 0.950 . S
C3662 C3657 1.363 . S
C3662 C3661 1.415 . S
C3663 H3639 0.961 . S
C3663 C3664 1.364 1_565 S
C3663 C3665 1.373 1_565 S
C3664 C3663 1.364 1_545 S
C3664 C3668 1.385 . S
C3665 H3640 0.949 1_545 S
C3665 C3663 1.373 1_545 S
C3665 C3666 1.375 . S
C3666 C3665 1.375 . S
C3666 C3667 1.414 . S
C3666 C3669 1.499 . S
C3667 H3641 0.950 . S
C3667 C3666 1.414 . S
C3667 C3668 1.374 . S
C3668 H3642 0.950 . S
C3668 C3664 1.385 . S
C3668 C3667 1.374 . S
C3669 C3666 1.499 . S
C3669 C3670 1.373 . S
C3669 C3671 1.389 1_545 S
C3670 H3643 0.950 . S
C3670 C3656 1.377 . S
C3670 C3669 1.373 . S
C3671 C3655 1.377 . S
C3671 C3669 1.389 1_565 S
C3671 C3672 1.524 . S
C3672 C3671 1.524 . S
C3672 C3673 1.397 . S
C3672 C3677 1.363 . S
C3673 H3644 0.950 . S
C3673 C3672 1.397 . S
C3673 C3674 1.334 . S
C3674 H3645 0.950 . S
C3674 C3673 1.334 . S
C3674 C3675 1.287 . S
C3675 C3674 1.287 . S
C3675 C3676 1.524 . S
C3675 H3678 0.999 . S
C3676 H3646 0.950 . S
C3676 C3675 1.524 . S
C3676 C3677 1.415 . S
C3677 H3647 0.950 . S
C3677 C3672 1.363 . S
C3677 C3676 1.415 . S
H3678 C3675 0.999 . S
H3679 C3660 0.913 . S
H3680 C3698 0.964 . S
H3681 C3700 0.951 . S
H3682 C3702 0.950 . S
H3683 C3703 0.950 . S
H3684 C3705 0.950 . S
H3685 C3708 0.950 . S
H3686 C3709 0.950 . S
H3687 C3711 0.950 . S
H3688 C3712 0.950 . S
H3689 C3713 0.951 . S
H3690 C3715 0.951 . S
H3691 C3717 0.950 . S
H3692 C3718 0.950 . S
H3693 C3720 0.950 . S
H3694 C3723 0.950 . S
H3695 C3724 0.950 . S
H3696 C3726 0.950 . S
H3697 C3727 0.950 . S
C3698 H3680 0.964 . S
C3698 C3699 1.361 1_455 S
C3698 C3700 1.380 . S
C3699 C3698 1.361 1_655 S
C3699 C3703 1.385 . S
C3700 H3681 0.951 . S
C3700 C3698 1.380 . S
C3700 C3701 1.366 1_455 S
C3701 C3700 1.366 1_655 S
C3701 C3702 1.414 . S
C3701 C3704 1.499 . S
C3702 H3682 0.950 . S
C3702 C3701 1.414 . S
C3702 C3703 1.374 . S
C3703 H3683 0.950 . S
C3703 C3699 1.385 . S
C3703 C3702 1.374 . S
C3704 C3701 1.499 . S
C3704 C3705 1.373 . S
C3704 C3706 1.389 1_655 S
C3705 H3684 0.950 . S
C3705 C3704 1.373 . S
C3705 C3721 1.377 . S
C3706 C3704 1.389 1_455 S
C3706 C3707 1.524 . S
C3706 C3720 1.377 . S
C3707 C3706 1.524 . S
C3707 C3708 1.397 . S
C3707 C3712 1.363 . S
C3708 H3685 0.950 . S
C3708 C3707 1.397 . S
C3708 C3709 1.334 . S
C3709 H3686 0.950 . S
C3709 C3708 1.334 . S
C3709 C3710 1.287 . S
C3710 C3709 1.287 . S
C3710 C3711 1.524 . S
C3710 H3729 0.913 . S
C3711 H3687 0.950 . S
C3711 C3710 1.524 . S
C3711 C3712 1.415 . S
C3712 H3688 0.950 . S
C3712 C3707 1.363 . S
C3712 C3711 1.415 . S
C3713 H3689 0.951 . S
C3713 C3714 1.366 . S
C3713 C3715 1.388 . S
C3714 C3713 1.366 . S
C3714 C3718 1.385 1_655 S
C3715 H3690 0.951 . S
C3715 C3713 1.388 . S
C3715 C3716 1.366 . S
C3716 C3715 1.366 . S
C3716 C3717 1.414 1_655 S
C3716 C3719 1.499 . S
C3717 H3691 0.950 . S
C3717 C3716 1.414 1_455 S
C3717 C3718 1.374 . S
C3718 H3692 0.950 . S
C3718 C3714 1.385 1_455 S
C3718 C3717 1.374 . S
C3719 C3716 1.499 . S
C3719 C3720 1.373 1_655 S
C3719 C3721 1.389 . S
C3720 H3693 0.950 . S
C3720 C3706 1.377 . S
C3720 C3719 1.373 1_455 S
C3721 C3705 1.377 . S
C3721 C3719 1.389 . S
C3721 C3722 1.524 . S
C3722 C3721 1.524 . S
C3722 C3723 1.397 . S
C3722 C3727 1.363 . S
C3723 H3694 0.950 . S
C3723 C3722 1.397 . S
C3723 C3724 1.334 . S
C3724 H3695 0.950 . S
C3724 C3723 1.334 . S
C3724 C3725 1.287 . S
C3725 C3724 1.287 . S
C3725 C3726 1.524 . S
C3725 H3728 0.999 . S
C3726 H3696 0.950 . S
C3726 C3725 1.524 . S
C3726 C3727 1.415 . S
C3727 H3697 0.950 . S
C3727 C3722 1.363 . S
C3727 C3726 1.415 . S
H3728 C3725 0.999 . S
H3729 C3710 0.913 . S
H3730 C3748 0.951 . S
H3731 C3750 0.951 . S
H3732 C3752 0.950 . S
H3733 C3753 0.950 . S
H3734 C3755 0.950 . S
H3735 C3758 0.950 . S
H3736 C3759 0.950 . S
H3737 C3761 0.950 . S
H3738 C3762 0.950 . S
H3739 C3763 0.951 . S
H3740 C3765 0.951 . S
H3741 C3767 0.950 . S
H3742 C3768 0.950 . S
H3743 C3770 0.950 . S
H3744 C3773 0.950 . S
H3745 C3774 0.950 . S
H3746 C3776 0.950 . S
H3747 C3777 0.950 . S
C3748 H3730 0.951 . S
C3748 C3749 1.366 . S
C3748 C3750 1.388 . S
C3749 C3748 1.366 . S
C3749 C3753 1.385 . S
C3750 H3731 0.951 . S
C3750 C3748 1.388 . S
C3750 C3751 1.366 . S
C3751 C3750 1.366 . S
C3751 C3752 1.414 . S
C3751 C3754 1.499 . S
C3752 H3732 0.950 . S
C3752 C3751 1.414 . S
C3752 C3753 1.374 . S
C3753 H3733 0.950 . S
C3753 C3749 1.385 . S
C3753 C3752 1.374 . S
C3754 C3751 1.499 . S
C3754 C3755 1.373 . S
C3754 C3756 1.389 . S
C3755 H3734 0.950 . S
C3755 C3754 1.373 . S
C3755 C3771 1.377 . S
C3756 C3754 1.389 . S
C3756 C3757 1.524 . S
C3756 C3770 1.377 . S
C3757 C3756 1.524 . S
C3757 C3758 1.397 . S
C3757 C3762 1.363 . S
C3758 H3735 0.950 . S
C3758 C3757 1.397 . S
C3758 C3759 1.334 . S
C3759 H3736 0.950 . S
C3759 C3758 1.334 . S
C3759 C3760 1.287 . S
C3760 C3759 1.287 . S
C3760 C3761 1.524 . S
C3760 H3779 0.913 . S
C3761 H3737 0.950 . S
C3761 C3760 1.524 . S
C3761 C3762 1.415 . S
C3762 H3738 0.950 . S
C3762 C3757 1.363 . S
C3762 C3761 1.415 . S
C3763 H3739 0.951 . S
C3763 C3764 1.366 . S
C3763 C3765 1.388 . S
C3764 C3763 1.366 . S
C3764 C3768 1.385 . S
C3765 H3740 0.951 . S
C3765 C3763 1.388 . S
C3765 C3766 1.366 . S
C3766 C3765 1.366 . S
C3766 C3767 1.414 . S
C3766 C3769 1.499 . S
C3767 H3741 0.950 . S
C3767 C3766 1.414 . S
C3767 C3768 1.374 . S
C3768 H3742 0.950 . S
C3768 C3764 1.385 . S
C3768 C3767 1.374 . S
C3769 C3766 1.499 . S
C3769 C3770 1.373 . S
C3769 C3771 1.389 . S
C3770 H3743 0.950 . S
C3770 C3756 1.377 . S
C3770 C3769 1.373 . S
C3771 C3755 1.377 . S
C3771 C3769 1.389 . S
C3771 C3772 1.524 . S
C3772 C3771 1.524 . S
C3772 C3773 1.397 . S
C3772 C3777 1.363 . S
C3773 H3744 0.950 . S
C3773 C3772 1.397 . S
C3773 C3774 1.334 . S
C3774 H3745 0.950 . S
C3774 C3773 1.334 . S
C3774 C3775 1.287 . S
C3775 C3774 1.287 . S
C3775 C3776 1.524 . S
C3775 H3778 0.999 . S
C3776 H3746 0.950 . S
C3776 C3775 1.524 . S
C3776 C3777 1.415 . S
C3777 H3747 0.950 . S
C3777 C3772 1.363 . S
C3777 C3776 1.415 . S
H3778 C3775 0.999 . S
H3779 C3760 0.913 . S
H3780 C3798 0.951 . S
H3781 C3800 0.951 . S
H3782 C3802 0.950 . S
H3783 C3803 0.950 . S
H3784 C3805 0.950 . S
H3785 C3808 0.950 . S
H3786 C3809 0.950 . S
H3787 C3811 0.950 . S
H3788 C3812 0.950 . S
H3789 C3813 0.951 . S
H3790 C3815 0.951 . S
H3791 C3817 0.950 . S
H3792 C3818 0.950 . S
H3793 C3820 0.950 . S
H3794 C3823 0.950 . S
H3795 C3824 0.950 . S
H3796 C3826 0.950 . S
H3797 C3827 0.950 . S
C3798 H3780 0.951 . S
C3798 C3799 1.366 . S
C3798 C3800 1.388 . S
C3799 C3798 1.366 . S
C3799 C3803 1.385 . S
C3800 H3781 0.951 . S
C3800 C3798 1.388 . S
C3800 C3801 1.366 . S
C3801 C3800 1.366 . S
C3801 C3802 1.414 . S
C3801 C3804 1.499 . S
C3802 H3782 0.950 . S
C3802 C3801 1.414 . S
C3802 C3803 1.374 . S
C3803 H3783 0.950 . S
C3803 C3799 1.385 . S
C3803 C3802 1.374 . S
C3804 C3801 1.499 . S
C3804 C3805 1.373 . S
C3804 C3806 1.389 . S
C3805 H3784 0.950 . S
C3805 C3804 1.373 . S
C3805 C3821 1.377 . S
C3806 C3804 1.389 . S
C3806 C3807 1.524 . S
C3806 C3820 1.377 . S
C3807 C3806 1.524 . S
C3807 C3808 1.397 . S
C3807 C3812 1.363 . S
C3808 H3785 0.950 . S
C3808 C3807 1.397 . S
C3808 C3809 1.334 . S
C3809 H3786 0.950 . S
C3809 C3808 1.334 . S
C3809 C3810 1.287 . S
C3810 C3809 1.287 . S
C3810 C3811 1.524 . S
C3810 H3829 0.913 . S
C3811 H3787 0.950 . S
C3811 C3810 1.524 . S
C3811 C3812 1.415 . S
C3812 H3788 0.950 . S
C3812 C3807 1.363 . S
C3812 C3811 1.415 . S
C3813 H3789 0.951 . S
C3813 C3814 1.366 . S
C3813 C3815 1.388 . S
C3814 C3813 1.366 . S
C3814 C3818 1.385 . S
C3815 H3790 0.951 . S
C3815 C3813 1.388 . S
C3815 C3816 1.366 . S
C3816 C3815 1.366 . S
C3816 C3817 1.414 . S
C3816 C3819 1.499 . S
C3817 H3791 0.950 . S
C3817 C3816 1.414 . S
C3817 C3818 1.374 . S
C3818 H3792 0.950 . S
C3818 C3814 1.385 . S
C3818 C3817 1.374 . S
C3819 C3816 1.499 . S
C3819 C3820 1.373 . S
C3819 C3821 1.389 . S
C3820 H3793 0.950 . S
C3820 C3806 1.377 . S
C3820 C3819 1.373 . S
C3821 C3805 1.377 . S
C3821 C3819 1.389 . S
C3821 C3822 1.524 . S
C3822 C3821 1.524 . S
C3822 C3823 1.397 . S
C3822 C3827 1.363 . S
C3823 H3794 0.950 . S
C3823 C3822 1.397 . S
C3823 C3824 1.334 . S
C3824 H3795 0.950 . S
C3824 C3823 1.334 . S
C3824 C3825 1.287 . S
C3825 C3824 1.287 . S
C3825 C3826 1.524 . S
C3825 H3828 0.999 . S
C3826 H3796 0.950 . S
C3826 C3825 1.524 . S
C3826 C3827 1.415 . S
C3827 H3797 0.950 . S
C3827 C3822 1.363 . S
C3827 C3826 1.415 . S
H3828 C3825 0.999 . S
H3829 C3810 0.913 . S
H3830 C3848 0.951 . S
H3831 C3850 0.951 . S
H3832 C3852 0.950 . S
H3833 C3853 0.950 . S
H3834 C3855 0.950 . S
H3835 C3858 0.950 . S
H3836 C3859 0.950 . S
H3837 C3861 0.950 . S
H3838 C3862 0.950 . S
H3839 C3863 0.951 . S
H3840 C3865 0.951 . S
H3841 C3867 0.950 . S
H3842 C3868 0.950 . S
H3843 C3870 0.950 . S
H3844 C3873 0.950 . S
H3845 C3874 0.950 . S
H3846 C3876 0.950 . S
H3847 C3877 0.950 . S
C3848 H3830 0.951 . S
C3848 C3849 1.366 . S
C3848 C3850 1.388 . S
C3849 C3848 1.366 . S
C3849 C3853 1.385 . S
C3850 H3831 0.951 . S
C3850 C3848 1.388 . S
C3850 C3851 1.366 . S
C3851 C3850 1.366 . S
C3851 C3852 1.414 . S
C3851 C3854 1.499 . S
C3852 H3832 0.950 . S
C3852 C3851 1.414 . S
C3852 C3853 1.374 . S
C3853 H3833 0.950 . S
C3853 C3849 1.385 . S
C3853 C3852 1.374 . S
C3854 C3851 1.499 . S
C3854 C3855 1.373 . S
C3854 C3856 1.389 . S
C3855 H3834 0.950 . S
C3855 C3854 1.373 . S
C3855 C3871 1.377 . S
C3856 C3854 1.389 . S
C3856 C3857 1.524 . S
C3856 C3870 1.377 . S
C3857 C3856 1.524 . S
C3857 C3858 1.397 . S
C3857 C3862 1.363 . S
C3858 H3835 0.950 . S
C3858 C3857 1.397 . S
C3858 C3859 1.334 . S
C3859 H3836 0.950 . S
C3859 C3858 1.334 . S
C3859 C3860 1.287 . S
C3860 C3859 1.287 . S
C3860 C3861 1.524 . S
C3860 H3879 0.913 . S
C3861 H3837 0.950 . S
C3861 C3860 1.524 . S
C3861 C3862 1.415 . S
C3862 H3838 0.950 . S
C3862 C3857 1.363 . S
C3862 C3861 1.415 . S
C3863 H3839 0.951 . S
C3863 C3864 1.366 . S
C3863 C3865 1.388 . S
C3864 C3863 1.366 . S
C3864 C3868 1.385 . S
C3865 H3840 0.951 . S
C3865 C3863 1.388 . S
C3865 C3866 1.366 . S
C3866 C3865 1.366 . S
C3866 C3867 1.414 . S
C3866 C3869 1.499 . S
C3867 H3841 0.950 . S
C3867 C3866 1.414 . S
C3867 C3868 1.374 . S
C3868 H3842 0.950 . S
C3868 C3864 1.385 . S
C3868 C3867 1.374 . S
C3869 C3866 1.499 . S
C3869 C3870 1.373 . S
C3869 C3871 1.389 . S
C3870 H3843 0.950 . S
C3870 C3856 1.377 . S
C3870 C3869 1.373 . S
C3871 C3855 1.377 . S
C3871 C3869 1.389 . S
C3871 C3872 1.524 . S
C3872 C3871 1.524 . S
C3872 C3873 1.397 . S
C3872 C3877 1.363 . S
C3873 H3844 0.950 . S
C3873 C3872 1.397 . S
C3873 C3874 1.334 . S
C3874 H3845 0.950 . S
C3874 C3873 1.334 . S
C3874 C3875 1.287 . S
C3875 C3874 1.287 . S
C3875 C3876 1.524 . S
C3875 H3878 0.999 . S
C3876 H3846 0.950 . S
C3876 C3875 1.524 . S
C3876 C3877 1.415 . S
C3877 H3847 0.950 . S
C3877 C3872 1.363 . S
C3877 C3876 1.415 . S
H3878 C3875 0.999 . S
H3879 C3860 0.913 . S
H3880 C3898 0.951 . S
H3881 C3900 0.951 . S
H3882 C3902 0.950 . S
H3883 C3903 0.950 . S
H3884 C3905 0.950 . S
H3885 C3908 0.950 . S
H3886 C3909 0.950 . S
H3887 C3911 0.950 . S
H3888 C3912 0.950 . S
H3889 C3913 0.951 . S
H3890 C3915 0.951 . S
H3891 C3917 0.950 . S
H3892 C3918 0.950 . S
H3893 C3920 0.950 . S
H3894 C3923 0.950 . S
H3895 C3924 0.950 . S
H3896 C3926 0.950 . S
H3897 C3927 0.950 . S
C3898 H3880 0.951 . S
C3898 C3899 1.366 . S
C3898 C3900 1.388 . S
C3899 C3898 1.366 . S
C3899 C3903 1.385 . S
C3900 H3881 0.951 . S
C3900 C3898 1.388 . S
C3900 C3901 1.366 . S
C3901 C3900 1.366 . S
C3901 C3902 1.414 . S
C3901 C3904 1.499 . S
C3902 H3882 0.950 . S
C3902 C3901 1.414 . S
C3902 C3903 1.374 . S
C3903 H3883 0.950 . S
C3903 C3899 1.385 . S
C3903 C3902 1.374 . S
C3904 C3901 1.499 . S
C3904 C3905 1.373 . S
C3904 C3906 1.389 . S
C3905 H3884 0.950 . S
C3905 C3904 1.373 . S
C3905 C3921 1.377 . S
C3906 C3904 1.389 . S
C3906 C3907 1.524 . S
C3906 C3920 1.377 . S
C3907 C3906 1.524 . S
C3907 C3908 1.397 . S
C3907 C3912 1.363 . S
C3908 H3885 0.950 . S
C3908 C3907 1.397 . S
C3908 C3909 1.334 . S
C3909 H3886 0.950 . S
C3909 C3908 1.334 . S
C3909 C3910 1.287 . S
C3910 C3909 1.287 . S
C3910 C3911 1.524 . S
C3910 H3929 0.913 . S
C3911 H3887 0.950 . S
C3911 C3910 1.524 . S
C3911 C3912 1.415 . S
C3912 H3888 0.950 . S
C3912 C3907 1.363 . S
C3912 C3911 1.415 . S
C3913 H3889 0.951 . S
C3913 C3914 1.366 . S
C3913 C3915 1.388 . S
C3914 C3913 1.366 . S
C3914 C3918 1.385 . S
C3915 H3890 0.951 . S
C3915 C3913 1.388 . S
C3915 C3916 1.366 . S
C3916 C3915 1.366 . S
C3916 C3917 1.414 . S
C3916 C3919 1.499 . S
C3917 H3891 0.950 . S
C3917 C3916 1.414 . S
C3917 C3918 1.374 . S
C3918 H3892 0.950 . S
C3918 C3914 1.385 . S
C3918 C3917 1.374 . S
C3919 C3916 1.499 . S
C3919 C3920 1.373 . S
C3919 C3921 1.389 . S
C3920 H3893 0.950 . S
C3920 C3906 1.377 . S
C3920 C3919 1.373 . S
C3921 C3905 1.377 . S
C3921 C3919 1.389 . S
C3921 C3922 1.524 . S
C3922 C3921 1.524 . S
C3922 C3923 1.397 . S
C3922 C3927 1.363 . S
C3923 H3894 0.950 . S
C3923 C3922 1.397 . S
C3923 C3924 1.334 . S
C3924 H3895 0.950 . S
C3924 C3923 1.334 . S
C3924 C3925 1.287 . S
C3925 C3924 1.287 . S
C3925 C3926 1.524 . S
C3925 H3928 0.999 . S
C3926 H3896 0.950 . S
C3926 C3925 1.524 . S
C3926 C3927 1.415 . S
C3927 H3897 0.950 . S
C3927 C3922 1.363 . S
C3927 C3926 1.415 . S
H3928 C3925 0.999 . S
H3929 C3910 0.913 . S
H3930 C3948 0.951 . S
H3931 C3950 0.951 . S
H3932 C3952 0.950 . S
H3933 C3953 0.950 . S
H3934 C3955 0.950 . S
H3935 C3958 0.950 . S
H3936 C3959 0.950 . S
H3937 C3961 0.950 . S
H3938 C3962 0.950 . S
H3939 C3963 0.951 . S
H3940 C3965 0.951 . S
H3941 C3967 0.950 . S
H3942 C3968 0.950 . S
H3943 C3970 0.950 . S
H3944 C3973 0.950 . S
H3945 C3974 0.950 . S
H3946 C3976 0.950 . S
H3947 C3977 0.950 . S
C3948 H3930 0.951 . S
C3948 C3949 1.366 . S
C3948 C3950 1.388 . S
C3949 C3948 1.366 . S
C3949 C3953 1.385 . S
C3950 H3931 0.951 . S
C3950 C3948 1.388 . S
C3950 C3951 1.366 . S
C3951 C3950 1.366 . S
C3951 C3952 1.414 . S
C3951 C3954 1.499 . S
C3952 H3932 0.950 . S
C3952 C3951 1.414 . S
C3952 C3953 1.374 . S
C3953 H3933 0.950 . S
C3953 C3949 1.385 . S
C3953 C3952 1.374 . S
C3954 C3951 1.499 . S
C3954 C3955 1.373 . S
C3954 C3956 1.389 . S
C3955 H3934 0.950 . S
C3955 C3954 1.373 . S
C3955 C3971 1.377 . S
C3956 C3954 1.389 . S
C3956 C3957 1.524 . S
C3956 C3970 1.377 . S
C3957 C3956 1.524 . S
C3957 C3958 1.397 . S
C3957 C3962 1.363 . S
C3958 H3935 0.950 . S
C3958 C3957 1.397 . S
C3958 C3959 1.334 . S
C3959 H3936 0.950 . S
C3959 C3958 1.334 . S
C3959 C3960 1.287 . S
C3960 C3959 1.287 . S
C3960 C3961 1.524 . S
C3960 H3979 0.913 . S
C3961 H3937 0.950 . S
C3961 C3960 1.524 . S
C3961 C3962 1.415 . S
C3962 H3938 0.950 . S
C3962 C3957 1.363 . S
C3962 C3961 1.415 . S
C3963 H3939 0.951 . S
C3963 C3964 1.366 . S
C3963 C3965 1.388 . S
C3964 C3963 1.366 . S
C3964 C3968 1.385 . S
C3965 H3940 0.951 . S
C3965 C3963 1.388 . S
C3965 C3966 1.366 . S
C3966 C3965 1.366 . S
C3966 C3967 1.414 . S
C3966 C3969 1.499 . S
C3967 H3941 0.950 . S
C3967 C3966 1.414 . S
C3967 C3968 1.374 . S
C3968 H3942 0.950 . S
C3968 C3964 1.385 . S
C3968 C3967 1.374 . S
C3969 C3966 1.499 . S
C3969 C3970 1.373 . S
C3969 C3971 1.389 . S
C3970 H3943 0.950 . S
C3970 C3956 1.377 . S
C3970 C3969 1.373 . S
C3971 C3955 1.377 . S
C3971 C3969 1.389 . S
C3971 C3972 1.524 . S
C3972 C3971 1.524 . S
C3972 C3973 1.397 . S
C3972 C3977 1.363 . S
C3973 H3944 0.950 . S
C3973 C3972 1.397 . S
C3973 C3974 1.334 . S
C3974 H3945 0.950 . S
C3974 C3973 1.334 . S
C3974 C3975 1.287 . S
C3975 C3974 1.287 . S
C3975 C3976 1.524 . S
C3975 H3978 0.999 . S
C3976 H3946 0.950 . S
C3976 C3975 1.524 . S
C3976 C3977 1.415 . S
C3977 H3947 0.950 . S
C3977 C3972 1.363 . S
C3977 C3976 1.415 . S
H3978 C3975 0.999 . S
H3979 C3960 0.913 . S
H3980 C3998 0.951 . S
H3981 C4000 0.951 . S
H3982 C4002 0.950 . S
H3983 C4003 0.950 . S
H3984 C4005 0.950 . S
H3985 C4008 0.950 . S
H3986 C4009 0.950 . S
H3987 C4011 0.950 . S
H3988 C4012 0.950 . S
H3989 C4013 0.951 . S
H3990 C4015 0.951 . S
H3991 C4017 0.950 . S
H3992 C4018 0.950 . S
H3993 C4020 0.950 . S
H3994 C4023 0.950 . S
H3995 C4024 0.950 . S
H3996 C4026 0.950 . S
H3997 C4027 0.950 . S
C3998 H3980 0.951 . S
C3998 C3999 1.366 . S
C3998 C4000 1.388 . S
C3999 C3998 1.366 . S
C3999 C4003 1.385 . S
C4000 H3981 0.951 . S
C4000 C3998 1.388 . S
C4000 C4001 1.366 . S
C4001 C4000 1.366 . S
C4001 C4002 1.414 . S
C4001 C4004 1.499 . S
C4002 H3982 0.950 . S
C4002 C4001 1.414 . S
C4002 C4003 1.374 . S
C4003 H3983 0.950 . S
C4003 C3999 1.385 . S
C4003 C4002 1.374 . S
C4004 C4001 1.499 . S
C4004 C4005 1.373 . S
C4004 C4006 1.389 . S
C4005 H3984 0.950 . S
C4005 C4004 1.373 . S
C4005 C4021 1.377 . S
C4006 C4004 1.389 . S
C4006 C4007 1.524 . S
C4006 C4020 1.377 . S
C4007 C4006 1.524 . S
C4007 C4008 1.397 . S
C4007 C4012 1.363 . S
C4008 H3985 0.950 . S
C4008 C4007 1.397 . S
C4008 C4009 1.334 . S
C4009 H3986 0.950 . S
C4009 C4008 1.334 . S
C4009 C4010 1.287 . S
C4010 C4009 1.287 . S
C4010 C4011 1.524 . S
C4010 H4029 0.913 . S
C4011 H3987 0.950 . S
C4011 C4010 1.524 . S
C4011 C4012 1.415 . S
C4012 H3988 0.950 . S
C4012 C4007 1.363 . S
C4012 C4011 1.415 . S
C4013 H3989 0.951 . S
C4013 C4014 1.366 . S
C4013 C4015 1.388 . S
C4014 C4013 1.366 . S
C4014 C4018 1.385 . S
C4015 H3990 0.951 . S
C4015 C4013 1.388 . S
C4015 C4016 1.366 . S
C4016 C4015 1.366 . S
C4016 C4017 1.414 . S
C4016 C4019 1.499 . S
C4017 H3991 0.950 . S
C4017 C4016 1.414 . S
C4017 C4018 1.374 . S
C4018 H3992 0.950 . S
C4018 C4014 1.385 . S
C4018 C4017 1.374 . S
C4019 C4016 1.499 . S
C4019 C4020 1.373 . S
C4019 C4021 1.389 . S
C4020 H3993 0.950 . S
C4020 C4006 1.377 . S
C4020 C4019 1.373 . S
C4021 C4005 1.377 . S
C4021 C4019 1.389 . S
C4021 C4022 1.524 . S
C4022 C4021 1.524 . S
C4022 C4023 1.397 . S
C4022 C4027 1.363 . S
C4023 H3994 0.950 . S
C4023 C4022 1.397 . S
C4023 C4024 1.334 . S
C4024 H3995 0.950 . S
C4024 C4023 1.334 . S
C4024 C4025 1.287 . S
C4025 C4024 1.287 . S
C4025 C4026 1.524 . S
C4025 H4028 0.999 . S
C4026 H3996 0.950 . S
C4026 C4025 1.524 . S
C4026 C4027 1.415 . S
C4027 H3997 0.950 . S
C4027 C4022 1.363 . S
C4027 C4026 1.415 . S
H4028 C4025 0.999 . S
H4029 C4010 0.913 . S
H4030 C4048 0.951 . S
H4031 C4050 0.951 . S
H4032 C4052 0.950 . S
H4033 C4053 0.950 . S
H4034 C4055 0.950 . S
H4035 C4058 0.950 . S
H4036 C4059 0.950 . S
H4037 C4061 0.950 . S
H4038 C4062 0.950 . S
H4039 C4063 0.951 . S
H4040 C4065 0.951 . S
H4041 C4067 0.950 . S
H4042 C4068 0.950 . S
H4043 C4070 0.950 . S
H4044 C4073 0.950 . S
H4045 C4074 0.950 . S
H4046 C4076 0.950 . S
H4047 C4077 0.950 . S
C4048 H4030 0.951 . S
C4048 C4049 1.366 . S
C4048 C4050 1.388 . S
C4049 C4048 1.366 . S
C4049 C4053 1.385 . S
C4050 H4031 0.951 . S
C4050 C4048 1.388 . S
C4050 C4051 1.366 . S
C4051 C4050 1.366 . S
C4051 C4052 1.414 . S
C4051 C4054 1.499 . S
C4052 H4032 0.950 . S
C4052 C4051 1.414 . S
C4052 C4053 1.374 . S
C4053 H4033 0.950 . S
C4053 C4049 1.385 . S
C4053 C4052 1.374 . S
C4054 C4051 1.499 . S
C4054 C4055 1.373 . S
C4054 C4056 1.389 . S
C4055 H4034 0.950 . S
C4055 C4054 1.373 . S
C4055 C4071 1.377 . S
C4056 C4054 1.389 . S
C4056 C4057 1.524 . S
C4056 C4070 1.377 . S
C4057 C4056 1.524 . S
C4057 C4058 1.397 . S
C4057 C4062 1.363 . S
C4058 H4035 0.950 . S
C4058 C4057 1.397 . S
C4058 C4059 1.334 . S
C4059 H4036 0.950 . S
C4059 C4058 1.334 . S
C4059 C4060 1.287 . S
C4060 C4059 1.287 . S
C4060 C4061 1.524 . S
C4060 H4079 0.913 . S
C4061 H4037 0.950 . S
C4061 C4060 1.524 . S
C4061 C4062 1.415 . S
C4062 H4038 0.950 . S
C4062 C4057 1.363 . S
C4062 C4061 1.415 . S
C4063 H4039 0.951 . S
C4063 C4064 1.366 . S
C4063 C4065 1.388 . S
C4064 C4063 1.366 . S
C4064 C4068 1.385 . S
C4065 H4040 0.951 . S
C4065 C4063 1.388 . S
C4065 C4066 1.366 . S
C4066 C4065 1.366 . S
C4066 C4067 1.414 . S
C4066 C4069 1.499 . S
C4067 H4041 0.950 . S
C4067 C4066 1.414 . S
C4067 C4068 1.374 . S
C4068 H4042 0.950 . S
C4068 C4064 1.385 . S
C4068 C4067 1.374 . S
C4069 C4066 1.499 . S
C4069 C4070 1.373 . S
C4069 C4071 1.389 . S
C4070 H4043 0.950 . S
C4070 C4056 1.377 . S
C4070 C4069 1.373 . S
C4071 C4055 1.377 . S
C4071 C4069 1.389 . S
C4071 C4072 1.524 . S
C4072 C4071 1.524 . S
C4072 C4073 1.397 . S
C4072 C4077 1.363 . S
C4073 H4044 0.950 . S
C4073 C4072 1.397 . S
C4073 C4074 1.334 . S
C4074 H4045 0.950 . S
C4074 C4073 1.334 . S
C4074 C4075 1.287 . S
C4075 C4074 1.287 . S
C4075 C4076 1.524 . S
C4075 H4078 0.999 . S
C4076 H4046 0.950 . S
C4076 C4075 1.524 . S
C4076 C4077 1.415 . S
C4077 H4047 0.950 . S
C4077 C4072 1.363 . S
C4077 C4076 1.415 . S
H4078 C4075 0.999 . S
H4079 C4060 0.913 . S
H4080 C4098 0.951 . S
H4081 C4100 0.951 . S
H4082 C4102 0.950 . S
H4083 C4103 0.950 . S
H4084 C4105 0.950 . S
H4085 C4108 0.950 . S
H4086 C4109 0.950 . S
H4087 C4111 0.950 . S
H4088 C4112 0.950 . S
H4089 C4113 0.966 . S
H4090 C4115 0.951 . S
H4091 C4117 0.950 . S
H4092 C4118 0.950 . S
H4093 C4120 0.950 . S
H4094 C4123 0.950 . S
H4095 C4124 0.950 . S
H4096 C4126 0.950 . S
H4097 C4127 0.950 . S
C4098 H4080 0.951 . S
C4098 C4099 1.366 . S
C4098 C4100 1.388 . S
C4099 C4098 1.366 . S
C4099 C4103 1.385 . S
C4100 H4081 0.951 . S
C4100 C4098 1.388 . S
C4100 C4101 1.366 . S
C4101 C4100 1.366 . S
C4101 C4102 1.414 . S
C4101 C4104 1.499 . S
C4102 H4082 0.950 . S
C4102 C4101 1.414 . S
C4102 C4103 1.374 . S
C4103 H4083 0.950 . S
C4103 C4099 1.385 . S
C4103 C4102 1.374 . S
C4104 C4101 1.499 . S
C4104 C4105 1.373 . S
C4104 C4106 1.389 1_655 S
C4105 H4084 0.950 . S
C4105 C4104 1.373 . S
C4105 C4121 1.377 . S
C4106 C4104 1.389 1_455 S
C4106 C4107 1.524 . S
C4106 C4120 1.377 . S
C4107 C4106 1.524 . S
C4107 C4108 1.397 . S
C4107 C4112 1.363 . S
C4108 H4085 0.950 . S
C4108 C4107 1.397 . S
C4108 C4109 1.334 . S
C4109 H4086 0.950 . S
C4109 C4108 1.334 . S
C4109 C4110 1.287 . S
C4110 C4109 1.287 . S
C4110 C4111 1.524 . S
C4110 H4129 0.913 . S
C4111 H4087 0.950 . S
C4111 C4110 1.524 . S
C4111 C4112 1.415 . S
C4112 H4088 0.950 . S
C4112 C4107 1.363 . S
C4112 C4111 1.415 . S
C4113 H4089 0.966 . S
C4113 C4114 1.373 . S
C4113 C4115 1.388 . S
C4114 C4113 1.373 . S
C4114 C4118 1.433 . S
C4115 H4090 0.951 . S
C4115 C4113 1.388 . S
C4115 C4116 1.366 . S
C4116 C4115 1.366 . S
C4116 C4117 1.414 . S
C4116 C4119 1.499 . S
C4117 H4091 0.950 . S
C4117 C4116 1.414 . S
C4117 C4118 1.374 . S
C4118 H4092 0.950 . S
C4118 C4114 1.433 . S
C4118 C4117 1.374 . S
C4119 C4116 1.499 . S
C4119 C4120 1.373 1_655 S
C4119 C4121 1.389 . S
C4120 H4093 0.950 . S
C4120 C4106 1.377 . S
C4120 C4119 1.373 1_455 S
C4121 C4105 1.377 . S
C4121 C4119 1.389 . S
C4121 C4122 1.524 . S
C4122 C4121 1.524 . S
C4122 C4123 1.397 . S
C4122 C4127 1.363 . S
C4123 H4094 0.950 . S
C4123 C4122 1.397 . S
C4123 C4124 1.334 . S
C4124 H4095 0.950 . S
C4124 C4123 1.334 . S
C4124 C4125 1.287 . S
C4125 C4124 1.287 . S
C4125 C4126 1.524 . S
C4125 H4128 0.999 . S
C4126 H4096 0.950 . S
C4126 C4125 1.524 . S
C4126 C4127 1.415 . S
C4127 H4097 0.950 . S
C4127 C4122 1.363 . S
C4127 C4126 1.415 . S
H4128 C4125 0.999 . S
H4129 C4110 0.913 . S
H4130 C4148 0.951 . S
H4131 C4150 0.951 . S
H4132 C4152 0.950 . S
H4133 C4153 0.950 . S
H4134 C4155 0.950 . S
H4135 C4158 0.950 . S
H4136 C4159 0.950 . S
H4137 C4161 0.950 . S
H4138 C4162 0.950 . S
H4139 C4163 0.951 . S
H4140 C4165 0.951 . S
H4141 C4167 0.950 . S
H4142 C4168 0.950 . S
H4143 C4170 0.950 . S
H4144 C4173 0.950 . S
H4145 C4174 0.950 . S
H4146 C4176 0.950 . S
H4147 C4177 0.950 . S
C4148 H4130 0.951 . S
C4148 C4149 1.366 . S
C4148 C4150 1.388 . S
C4149 C4148 1.366 . S
C4149 C4153 1.385 . S
C4150 H4131 0.951 . S
C4150 C4148 1.388 . S
C4150 C4151 1.366 . S
C4151 C4150 1.366 . S
C4151 C4152 1.414 . S
C4151 C4154 1.499 . S
C4152 H4132 0.950 . S
C4152 C4151 1.414 . S
C4152 C4153 1.374 . S
C4153 H4133 0.950 . S
C4153 C4149 1.385 . S
C4153 C4152 1.374 . S
C4154 C4151 1.499 . S
C4154 C4155 1.373 . S
C4154 C4156 1.389 . S
C4155 H4134 0.950 . S
C4155 C4154 1.373 . S
C4155 C4171 1.377 . S
C4156 C4154 1.389 . S
C4156 C4157 1.524 . S
C4156 C4170 1.377 . S
C4157 C4156 1.524 . S
C4157 C4158 1.397 . S
C4157 C4162 1.363 . S
C4158 H4135 0.950 . S
C4158 C4157 1.397 . S
C4158 C4159 1.334 . S
C4159 H4136 0.950 . S
C4159 C4158 1.334 . S
C4159 C4160 1.287 . S
C4160 C4159 1.287 . S
C4160 C4161 1.524 . S
C4160 H4179 0.913 . S
C4161 H4137 0.950 . S
C4161 C4160 1.524 . S
C4161 C4162 1.415 . S
C4162 H4138 0.950 . S
C4162 C4157 1.363 . S
C4162 C4161 1.415 . S
C4163 H4139 0.951 . S
C4163 C4164 1.366 . S
C4163 C4165 1.388 . S
C4164 C4163 1.366 . S
C4164 C4168 1.385 . S
C4165 H4140 0.951 . S
C4165 C4163 1.388 . S
C4165 C4166 1.366 . S
C4166 C4165 1.366 . S
C4166 C4167 1.414 . S
C4166 C4169 1.499 . S
C4167 H4141 0.950 . S
C4167 C4166 1.414 . S
C4167 C4168 1.374 . S
C4168 H4142 0.950 . S
C4168 C4164 1.385 . S
C4168 C4167 1.374 . S
C4169 C4166 1.499 . S
C4169 C4170 1.373 . S
C4169 C4171 1.389 . S
C4170 H4143 0.950 . S
C4170 C4156 1.377 . S
C4170 C4169 1.373 . S
C4171 C4155 1.377 . S
C4171 C4169 1.389 . S
C4171 C4172 1.524 . S
C4172 C4171 1.524 . S
C4172 C4173 1.397 . S
C4172 C4177 1.363 . S
C4173 H4144 0.950 . S
C4173 C4172 1.397 . S
C4173 C4174 1.334 . S
C4174 H4145 0.950 . S
C4174 C4173 1.334 . S
C4174 C4175 1.287 . S
C4175 C4174 1.287 . S
C4175 C4176 1.524 . S
C4175 H4178 0.999 . S
C4176 H4146 0.950 . S
C4176 C4175 1.524 . S
C4176 C4177 1.415 . S
C4177 H4147 0.950 . S
C4177 C4172 1.363 . S
C4177 C4176 1.415 . S
H4178 C4175 0.999 . S
H4179 C4160 0.913 . S
H4180 C4198 0.951 . S
H4181 C4200 0.951 . S
H4182 C4202 0.950 . S
H4183 C4203 0.950 . S
H4184 C4205 0.950 . S
H4185 C4208 0.950 . S
H4186 C4209 0.950 . S
H4187 C4211 0.950 . S
H4188 C4212 0.950 . S
H4189 C4213 0.951 . S
H4190 C4215 0.951 . S
H4191 C4217 0.950 . S
H4192 C4218 0.950 . S
H4193 C4220 0.950 . S
H4194 C4223 0.950 . S
H4195 C4224 0.950 . S
H4196 C4226 0.950 . S
H4197 C4227 0.950 . S
C4198 H4180 0.951 . S
C4198 C4199 1.366 . S
C4198 C4200 1.388 . S
C4199 C4198 1.366 . S
C4199 C4203 1.385 . S
C4200 H4181 0.951 . S
C4200 C4198 1.388 . S
C4200 C4201 1.366 . S
C4201 C4200 1.366 . S
C4201 C4202 1.414 . S
C4201 C4204 1.499 . S
C4202 H4182 0.950 . S
C4202 C4201 1.414 . S
C4202 C4203 1.374 . S
C4203 H4183 0.950 . S
C4203 C4199 1.385 . S
C4203 C4202 1.374 . S
C4204 C4201 1.499 . S
C4204 C4205 1.373 1_545 S
C4204 C4206 1.389 . S
C4205 H4184 0.950 . S
C4205 C4204 1.373 1_565 S
C4205 C4221 1.377 . S
C4206 C4204 1.389 . S
C4206 C4207 1.524 . S
C4206 C4220 1.377 . S
C4207 C4206 1.524 . S
C4207 C4208 1.397 . S
C4207 C4212 1.363 . S
C4208 H4185 0.950 . S
C4208 C4207 1.397 . S
C4208 C4209 1.334 . S
C4209 H4186 0.950 . S
C4209 C4208 1.334 . S
C4209 C4210 1.287 . S
C4210 C4209 1.287 . S
C4210 C4211 1.524 . S
C4210 H4229 0.913 . S
C4211 H4187 0.950 . S
C4211 C4210 1.524 . S
C4211 C4212 1.415 . S
C4212 H4188 0.950 . S
C4212 C4207 1.363 . S
C4212 C4211 1.415 . S
C4213 H4189 0.951 . S
C4213 C4214 1.316 1_565 S
C4213 C4215 1.388 . S
C4214 C4213 1.316 1_545 S
C4214 C4218 1.404 . S
C4215 H4190 0.951 . S
C4215 C4213 1.388 . S
C4215 C4216 1.366 1_565 S
C4216 C4215 1.366 1_545 S
C4216 C4217 1.414 . S
C4216 C4219 1.499 . S
C4217 H4191 0.950 . S
C4217 C4216 1.414 . S
C4217 C4218 1.374 . S
C4218 H4192 0.950 . S
C4218 C4214 1.404 . S
C4218 C4217 1.374 . S
C4219 C4216 1.499 . S
C4219 C4220 1.373 . S
C4219 C4221 1.389 1_545 S
C4220 H4193 0.950 . S
C4220 C4206 1.377 . S
C4220 C4219 1.373 . S
C4221 C4205 1.377 . S
C4221 C4219 1.389 1_565 S
C4221 C4222 1.524 . S
C4222 C4221 1.524 . S
C4222 C4223 1.397 . S
C4222 C4227 1.363 . S
C4223 H4194 0.950 . S
C4223 C4222 1.397 . S
C4223 C4224 1.334 . S
C4224 H4195 0.950 . S
C4224 C4223 1.334 . S
C4224 C4225 1.287 . S
C4225 C4224 1.287 . S
C4225 C4226 1.524 . S
C4225 H4228 0.999 . S
C4226 H4196 0.950 . S
C4226 C4225 1.524 . S
C4226 C4227 1.415 . S
C4227 H4197 0.950 . S
C4227 C4222 1.363 . S
C4227 C4226 1.415 . S
H4228 C4225 0.999 . S
H4229 C4210 0.913 . S
C649 C8 1.597 . S
C664 C458 1.507 1_655 S
C699 C22 1.556 . S
C714 C471 1.523 . S
C764 C500 1.463 1_545 S
C749 C37 1.543 . S
C799 C36 1.573 . S
C814 C513 1.511 . S
C849 C9 1.545 . S
C864 C534 1.526 . S
C899 C23 1.557 . S
C914 C563 1.494 . S
C949 C50 1.587 . S
C964 C542 1.506 . S
C1014 C555 1.501 . S
C999 C64 1.546 . S
C1064 C521 1.500 . S
C1049 C79 1.525 . S
C1099 C78 1.561 . S
C1114 C492 1.492 1_545 S
C1164 C450 1.504 1_655 S
C1149 C51 1.531 . S
C1199 C65 1.547 . S
C1214 C479 1.505 . S
C1249 C92 1.565 . S
C1264 C584 1.501 . S
C1299 C106 1.559 . S
C1314 C597 1.526 . S
C1364 C626 1.492 . S
C1349 C121 1.554 . S
C1399 C120 1.548 . S
C1414 C261 1.515 . S
C1449 C93 1.559 . S
C1464 C282 1.526 . S
C1499 C107 1.558 . S
C1514 C311 1.494 . S
C1549 C134 1.553 . S
C1564 C290 1.510 . S
C1599 C148 1.548 . S
C1614 C303 1.501 . S
C1664 C269 1.501 . S
C1649 C163 1.544 . S
C1714 C618 1.497 . S
C1699 C162 1.543 . S
C1764 C576 1.504 . S
C1749 C135 1.551 . S
C1814 C605 1.508 . S
C1799 C149 1.551 . S
C1849 C176 1.561 . S
C1864 C332 1.499 . S
C1899 C190 1.557 . S
C1914 C345 1.524 . S
C1949 C205 1.554 . S
C1964 C374 1.492 . S
C1999 C204 1.551 . S
C2014 C387 1.519 . S
C2064 C408 1.527 . S
C2049 C177 1.561 . S
C2114 C437 1.497 . S
C2099 C191 1.560 . S
C2164 C416 1.512 . S
C2149 C218 1.556 . S
C2214 C429 1.504 . S
C2199 C232 1.550 . S
C2249 C247 1.546 . S
C2264 C395 1.503 . S
C2314 C366 1.494 . S
C2299 C246 1.539 . S
C2349 C219 1.551 . S
C2364 C324 1.504 . S
C2414 C353 1.506 . S
C2399 C233 1.549 . S
C2464 C264 1.418 . S
C2449 C6 1.489 . S
C2499 C20 1.482 . S
C2514 C285 1.407 . S
C2564 C313 1.431 . S
C2549 C35 1.483 . S
C2614 C334 1.425 . S
C2599 C34 1.472 . S
C2664 C348 1.412 . S
C2649 C7 1.489 . S
C2714 C376 1.432 . S
C2699 C21 1.483 . S
C2749 C48 1.501 . S
C2764 C369 1.417 . S
C2799 C62 1.489 . S
C2814 C327 1.397 . S
C2849 C77 1.489 . S
C2864 C355 1.442 . S
C2899 C76 1.482 . S
C2914 C292 1.443 . S
C2964 C306 1.402 . S
C2949 C49 1.492 . S
C2999 C63 1.489 . S
C3014 C271 1.443 . S
C3064 C390 1.419 . S
C3049 C90 1.495 . S
C3099 C104 1.488 . S
C3114 C411 1.413 . S
C3149 C119 1.486 . S
C3164 C439 1.434 . S
C3214 C460 1.425 . S
C3199 C118 1.467 . S
C3249 C91 1.488 . S
C3264 C474 1.413 . S
C3299 C105 1.484 . S
C3314 C502 1.438 . S
C3349 C132 1.499 . S
C3364 C495 1.391 . S
C3399 C146 1.489 . S
C3414 C453 1.444 . S
C3464 C481 1.445 . S
C3449 C161 1.490 . S
C3499 C160 1.481 . S
C3514 C418 1.436 . S
C3549 C133 1.497 . S
C3564 C432 1.405 . S
C3614 C397 1.448 . S
C3599 C147 1.494 . S
C3664 C516 1.417 1_545 S
C3649 C174 1.487 . S
C3699 C188 1.483 . S
C3714 C537 1.408 1_655 S
C3749 C203 1.484 . S
C3764 C565 1.432 . S
C3814 C586 1.424 . S
C3799 C202 1.475 . S
C3864 C600 1.415 . S
C3849 C175 1.490 . S
C3899 C189 1.487 . S
C3914 C628 1.437 . S
C3949 C216 1.502 . S
C3964 C621 1.410 . S
C3999 C230 1.494 . S
C4014 C579 1.404 . S
C4064 C607 1.445 . S
C4049 C245 1.491 . S
C4114 C544 1.386 1_655 S
C4099 C244 1.472 . S
C4164 C558 1.404 . S
C4149 C217 1.495 . S
C4199 C231 1.490 . S
C4214 C523 1.465 1_545 S
