# Generated by pormake.
# Topology apo, (3,6)-cn, num edge types: 1
# Building blocks:
#     Node 0, Type 0, BuildingBlock: BETDAH_clean_linker_0, # of connection points: 3
#     Node 1, Type 0, BuildingBlock: BETDAH_clean_linker_0, # of connection points: 3
#     Node 2, Type 0, BuildingBlock: BETDAH_clean_linker_0, # of connection points: 3
#     Node 3, Type 0, BuildingBlock: BETDAH_clean_linker_0, # of connection points: 3
#     Node 4, Type 0, BuildingBlock: BETDAH_clean_linker_0, # of connection points: 3
#     Node 5, Type 0, BuildingBlock: BETDAH_clean_linker_0, # of connection points: 3
#     Node 6, Type 0, BuildingBlock: BETDAH_clean_linker_0, # of connection points: 3
#     Node 7, Type 0, BuildingBlock: BETDAH_clean_linker_0, # of connection points: 3
#     Node 8, Type 1, BuildingBlock: MIDCAF_clean_sbu_0, # of connection points: 6
#     Node 9, Type 1, BuildingBlock: MIDCAF_clean_sbu_0, # of connection points: 6
#     Node 10, Type 1, BuildingBlock: MIDCAF_clean_sbu_0, # of connection points: 6
#     Node 11, Type 1, BuildingBlock: MIDCAF_clean_sbu_0, # of connection points: 6
#     Edge 12, Type (0, 1), BuildingBlock: XUDNAN_clean_linker_2, # of connection points: 2
#     Edge 13, Type (0, 1), BuildingBlock: XUDNAN_clean_linker_2, # of connection points: 2
#     Edge 14, Type (0, 1), BuildingBlock: XUDNAN_clean_linker_2, # of connection points: 2
#     Edge 15, Type (0, 1), BuildingBlock: XUDNAN_clean_linker_2, # of connection points: 2
#     Edge 16, Type (0, 1), BuildingBlock: XUDNAN_clean_linker_2, # of connection points: 2
#     Edge 17, Type (0, 1), BuildingBlock: XUDNAN_clean_linker_2, # of connection points: 2
#     Edge 18, Type (0, 1), BuildingBlock: XUDNAN_clean_linker_2, # of connection points: 2
#     Edge 19, Type (0, 1), BuildingBlock: XUDNAN_clean_linker_2, # of connection points: 2
#     Edge 20, Type (0, 1), BuildingBlock: XUDNAN_clean_linker_2, # of connection points: 2
#     Edge 21, Type (0, 1), BuildingBlock: XUDNAN_clean_linker_2, # of connection points: 2
#     Edge 22, Type (0, 1), BuildingBlock: XUDNAN_clean_linker_2, # of connection points: 2
#     Edge 23, Type (0, 1), BuildingBlock: XUDNAN_clean_linker_2, # of connection points: 2
#     Edge 24, Type (0, 1), BuildingBlock: XUDNAN_clean_linker_2, # of connection points: 2
#     Edge 25, Type (0, 1), BuildingBlock: XUDNAN_clean_linker_2, # of connection points: 2
#     Edge 26, Type (0, 1), BuildingBlock: XUDNAN_clean_linker_2, # of connection points: 2
#     Edge 27, Type (0, 1), BuildingBlock: XUDNAN_clean_linker_2, # of connection points: 2
#     Edge 28, Type (0, 1), BuildingBlock: XUDNAN_clean_linker_2, # of connection points: 2
#     Edge 29, Type (0, 1), BuildingBlock: XUDNAN_clean_linker_2, # of connection points: 2
#     Edge 30, Type (0, 1), BuildingBlock: XUDNAN_clean_linker_2, # of connection points: 2
#     Edge 31, Type (0, 1), BuildingBlock: XUDNAN_clean_linker_2, # of connection points: 2
#     Edge 32, Type (0, 1), BuildingBlock: XUDNAN_clean_linker_2, # of connection points: 2
#     Edge 33, Type (0, 1), BuildingBlock: XUDNAN_clean_linker_2, # of connection points: 2
#     Edge 34, Type (0, 1), BuildingBlock: XUDNAN_clean_linker_2, # of connection points: 2
#     Edge 35, Type (0, 1), BuildingBlock: XUDNAN_clean_linker_2, # of connection points: 2
# Relax obj value: 0.013
# Max RMSD: 0.063
# Mean RMSD: 0.053
data_MOF--net-apo--node1-MIDCAF_clean_sbu_0--node2-BETDAH_clean_linker_0--edge1-XUDNAN_clean_linker_2
_symmetry_space_group_name_H-M    P1
_symmetry_Int_Tables_number       1
_symmetry_cell_setting            triclinic
loop_
_symmetry_equiv_pos_as_xyz
'x, y, z'
_cell_length_a     36.553483
_cell_length_b     41.427382
_cell_length_c     34.323481
_cell_angle_alpha  89.266124
_cell_angle_beta   90.032489
_cell_angle_gamma 90.172451
loop_
_atom_site_label
_atom_site_type_symbol
_atom_site_fract_x
_atom_site_fract_y
_atom_site_fract_z
_atom_type_partial_charge
H0 H 0.39946 0.35849 0.43236 0.0
H1 H 0.3795 0.30775 0.32572 0.0
H2 H 0.35681 0.26144 0.43494 0.0
C3 C 0.38995 0.33731 0.4174 0.0
C4 C 0.37845 0.31011 0.43941 0.0
C5 C 0.39031 0.33723 0.37627 0.0
C6 C 0.3782 0.30931 0.35715 0.0
C7 C 0.36588 0.28238 0.37841 0.0
C8 C 0.36605 0.28277 0.41922 0.0
N9 N 0.35752 0.25341 0.3589 0.0
C10 C 0.32376 0.24795 0.34156 0.0
H11 H 0.14506 0.13241 0.9457 0.0
H12 H 0.1721 0.17837 0.83555 0.0
H13 H 0.19059 0.22773 0.94296 0.0
C14 C 0.15686 0.15212 0.92886 0.0
C15 C 0.1697 0.17919 0.94887 0.0
C16 C 0.15686 0.15138 0.88776 0.0
C17 C 0.17136 0.17816 0.86709 0.0
C18 C 0.18351 0.2056 0.88701 0.0
C19 C 0.18206 0.20621 0.92776 0.0
N20 N 0.19354 0.23403 0.86635 0.0
C21 C 0.22441 0.23596 0.84286 0.0
H22 H 0.89689 0.14921 0.59148 0.0
H23 H 0.87831 0.19734 0.70036 0.0
H24 H 0.8604 0.24786 0.59284 0.0
C25 C 0.88868 0.17027 0.60748 0.0
C26 C 0.87891 0.19856 0.58668 0.0
C27 C 0.88877 0.16916 0.64864 0.0
C28 C 0.87766 0.19685 0.66885 0.0
C29 C 0.86741 0.22493 0.64855 0.0
C30 C 0.86838 0.22582 0.60784 0.0
N31 N 0.85823 0.25328 0.66883 0.0
C32 C 0.82834 0.2545 0.69369 0.0
H33 H 0.62224 0.36206 0.09782 0.0
H34 H 0.6283 0.31227 0.20834 0.0
H35 H 0.67843 0.2711 0.10799 0.0
C36 C 0.63172 0.34198 0.11541 0.0
C37 C 0.65086 0.31668 0.09738 0.0
C38 C 0.62358 0.34119 0.15553 0.0
C39 C 0.63543 0.31448 0.1778 0.0
C40 C 0.65593 0.28985 0.16093 0.0
C41 C 0.66362 0.2909 0.12085 0.0
N42 N 0.66459 0.26218 0.1837 0.0
C43 C 0.69998 0.25499 0.19574 0.0
H44 H 0.62998 0.63392 0.57972 0.0
H45 H 0.66575 0.68343 0.68322 0.0
H46 H 0.6639 0.73281 0.57238 0.0
C47 C 0.64115 0.65495 0.59398 0.0
C48 C 0.64788 0.68275 0.57141 0.0
C49 C 0.64692 0.65475 0.63466 0.0
C50 C 0.6607 0.68295 0.65214 0.0
C51 C 0.66675 0.7111 0.62965 0.0
C52 C 0.65968 0.71096 0.58955 0.0
N53 N 0.67759 0.74053 0.64687 0.0
C54 C 0.7048 0.74301 0.67499 0.0
H55 H 0.86282 0.87514 0.0925 0.0
H56 H 0.82682 0.77632 0.09542 0.0
H57 H 0.86551 0.82011 0.20009 0.0
C58 C 0.85749 0.85316 0.10899 0.0
C59 C 0.86603 0.85147 0.14901 0.0
C60 C 0.84395 0.82613 0.08928 0.0
C61 C 0.83662 0.79755 0.11036 0.0
C62 C 0.8431 0.79606 0.15064 0.0
C63 C 0.85845 0.82261 0.16956 0.0
N64 N 0.83821 0.76675 0.17157 0.0
C65 C 0.80424 0.7572 0.18576 0.0
H66 H 0.12012 0.85383 0.44521 0.0
H67 H 0.19818 0.85542 0.35089 0.0
H68 H 0.22801 0.81573 0.46236 0.0
C69 C 0.1468 0.84809 0.43357 0.0
C70 C 0.17275 0.83368 0.45841 0.0
C71 C 0.15569 0.85731 0.395 0.0
C72 C 0.19015 0.84834 0.38013 0.0
C73 C 0.21586 0.83272 0.4043 0.0
C74 C 0.20744 0.82645 0.44352 0.0
N75 N 0.25188 0.82642 0.39124 0.0
C76 C 0.26007 0.811 0.35657 0.0
H77 H 0.39461 0.64184 0.92053 0.0
H78 H 0.33943 0.73257 0.90574 0.0
H79 H 0.36865 0.67784 0.80527 0.0
C80 C 0.38195 0.65954 0.90135 0.0
C81 C 0.38309 0.65561 0.86066 0.0
C82 C 0.36578 0.68688 0.91781 0.0
C83 C 0.35079 0.71085 0.89338 0.0
C84 C 0.35226 0.70744 0.85274 0.0
C85 C 0.36815 0.67997 0.83668 0.0
N86 N 0.34162 0.73297 0.82752 0.0
C87 C 0.30523 0.74037 0.82042 0.0
Zn88 Zn 0.03436 0.11363 0.33352 0.0
Zn89 Zn 0.98547 0.11864 0.19313 0.0
Zn90 Zn 0.0105 0.1185 0.26427 0.0
C91 C 0.05369 0.14708 0.18829 0.0
C92 C 0.98321 0.05497 0.21692 0.0
O93 O 0.97172 0.14498 0.30316 0.0
O94 O 0.9948 0.13449 0.36159 0.0
C95 C 0.08801 0.14748 0.29207 0.0
O96 O 0.0527 0.14152 0.22537 0.0
O97 O 0.02724 0.13895 0.16694 0.0
O98 O 0.97648 0.07172 0.1868 0.0
O99 O 0.99662 0.06839 0.24752 0.0
O100 O 0.08037 0.13759 0.32602 0.0
O101 O 0.06533 0.14264 0.26391 0.0
O102 O 0.01864 0.066 0.28094 0.0
O103 O 0.0393 0.06716 0.34128 0.0
C104 C 0.03067 0.05116 0.31169 0.0
O105 O 0.95812 0.14666 0.26461 0.0
O106 O 0.94308 0.1467 0.20219 0.0
C107 C 0.97044 0.14728 0.34061 0.0
C108 C 0.93658 0.15541 0.23658 0.0
Zn109 Zn 0.55021 0.37934 0.70121 0.0
Zn110 Zn 0.49477 0.38125 0.82806 0.0
Zn111 Zn 0.52255 0.38041 0.76472 0.0
C112 C 0.48328 0.4422 0.79931 0.0
C113 C 0.45434 0.33676 0.78895 0.0
O114 O 0.57455 0.3533 0.77097 0.0
O115 O 0.5822 0.34115 0.70921 0.0
C116 C 0.56102 0.44166 0.72443 0.0
O117 O 0.50802 0.4318 0.77578 0.0
O118 O 0.46951 0.42305 0.82413 0.0
O119 O 0.46368 0.34209 0.82369 0.0
O120 O 0.47108 0.35162 0.76088 0.0
O121 O 0.57471 0.42177 0.70111 0.0
O122 O 0.53664 0.43179 0.74912 0.0
O123 O 0.48421 0.35624 0.72274 0.0
O124 O 0.50698 0.37482 0.6673 0.0
C125 C 0.48192 0.3601 0.68543 0.0
O126 O 0.56099 0.35831 0.80883 0.0
O127 O 0.53802 0.37901 0.86235 0.0
C128 C 0.59175 0.33776 0.74437 0.0
C129 C 0.56319 0.36372 0.84571 0.0
Zn130 Zn 0.02224 0.88555 0.83853 0.0
Zn131 Zn 0.97211 0.89191 0.70244 0.0
Zn132 Zn 0.99837 0.88842 0.77094 0.0
C133 C 0.97195 0.95448 0.72796 0.0
C134 C 0.92471 0.85194 0.74356 0.0
O135 O 0.04975 0.85886 0.76893 0.0
O136 O 0.05961 0.85262 0.832 0.0
C137 C 0.03336 0.94911 0.81645 0.0
O138 O 0.98871 0.94032 0.75653 0.0
O139 O 0.96056 0.93838 0.69945 0.0
O140 O 0.93203 0.86054 0.70907 0.0
O141 O 0.94472 0.86197 0.77201 0.0
O142 O 0.04139 0.92963 0.84362 0.0
O143 O 0.01413 0.93907 0.78738 0.0
O144 O 0.95535 0.8665 0.8107 0.0
O145 O 0.9796 0.8728 0.8692 0.0
C146 C 0.9532 0.86405 0.84823 0.0
O147 O 0.03826 0.8646 0.73021 0.0
O148 O 0.01378 0.87636 0.67283 0.0
C149 C 0.06842 0.84654 0.79738 0.0
C150 C 0.03929 0.86393 0.69258 0.0
Zn151 Zn 0.52737 0.61091 0.18208 0.0
Zn152 Zn 0.46115 0.61563 0.31575 0.0
Zn153 Zn 0.49498 0.61838 0.2488 0.0
C154 C 0.52726 0.64842 0.32814 0.0
C155 C 0.46723 0.553 0.29675 0.0
O156 O 0.46086 0.64448 0.20428 0.0
O157 O 0.49403 0.63812 0.15108 0.0
C158 C 0.57653 0.64359 0.23115 0.0
O159 O 0.53196 0.64175 0.29187 0.0
O160 O 0.49783 0.64061 0.34507 0.0
O161 O 0.45739 0.56864 0.32619 0.0
O162 O 0.48084 0.56788 0.26681 0.0
O163 O 0.57424 0.63049 0.19822 0.0
O164 O 0.54922 0.64231 0.25491 0.0
O165 O 0.50419 0.56647 0.23429 0.0
O166 O 0.52664 0.56361 0.17467 0.0
C167 C 0.51621 0.54966 0.20559 0.0
O168 O 0.44414 0.64756 0.24138 0.0
O169 O 0.41688 0.63875 0.29803 0.0
C170 C 0.4662 0.64962 0.16756 0.0
C171 C 0.41689 0.65188 0.26462 0.0
H172 H 0.11142 0.90438 0.42457 0.0
H173 H 0.14459 0.86264 0.31471 0.0
H174 H 0.10817 0.90406 0.27956 0.0
H175 H 0.01655 0.925 0.39385 0.0
H176 H 0.01743 0.96106 0.42268 0.0
H177 H 0.04285 0.92598 0.43827 0.0
H178 H 0.10211 0.96048 0.4411 0.0
H179 H 0.07703 0.99549 0.42552 0.0
H180 H 0.11652 0.9828 0.39833 0.0
H181 H 0.07375 0.95563 0.25699 0.0
H182 H 0.04736 0.0106 0.25074 0.0
H183 H 0.033 0.0131 0.37594 0.0
C184 C 0.11005 0.90265 0.39319 0.0
C185 C 0.13082 0.87962 0.37273 0.0
C186 C 0.12925 0.87998 0.33137 0.0
C187 C 0.10826 0.90326 0.31108 0.0
C188 C 0.08836 0.92566 0.33249 0.0
C189 C 0.08885 0.92506 0.37274 0.0
C190 C 0.06762 0.95279 0.38956 0.0
C191 C 0.03412 0.94046 0.41244 0.0
C192 C 0.0923 0.97413 0.41509 0.0
C193 C 0.05629 0.9701 0.35257 0.0
C194 C 0.06799 0.95414 0.31973 0.0
C195 C 0.06375 0.96784 0.28253 0.0
C196 C 0.04846 0.999 0.27916 0.0
C197 C 0.03777 0.01597 0.31283 0.0
C198 C 0.04051 0.0006 0.34961 0.0
H199 H 0.38372 0.59353 0.89019 0.0
H200 H 0.42237 0.65139 0.79197 0.0
H201 H 0.45016 0.60291 0.76357 0.0
H202 H 0.46556 0.54674 0.89951 0.0
H203 H 0.44141 0.51053 0.91399 0.0
H204 H 0.42252 0.54945 0.92488 0.0
H205 H 0.36257 0.53395 0.88914 0.0
H206 H 0.38137 0.49503 0.87797 0.0
H207 H 0.36463 0.52087 0.8393 0.0
H208 H 0.47274 0.54653 0.74512 0.0
H209 H 0.49188 0.48921 0.74186 0.0
H210 H 0.44467 0.47176 0.85616 0.0
C211 C 0.39831 0.59633 0.86292 0.0
C212 C 0.4004 0.6265 0.84335 0.0
C213 C 0.41942 0.62854 0.80729 0.0
C214 C 0.43561 0.60113 0.79097 0.0
C215 C 0.43303 0.57187 0.81122 0.0
C216 C 0.41518 0.56949 0.84665 0.0
C217 C 0.41751 0.53575 0.86361 0.0
C218 C 0.43798 0.53562 0.90281 0.0
C219 C 0.37925 0.52051 0.86773 0.0
C220 C 0.43953 0.51948 0.83227 0.0
C221 C 0.44788 0.54042 0.80194 0.0
C222 C 0.46694 0.53011 0.76912 0.0
C223 C 0.47809 0.49765 0.76767 0.0
C224 C 0.47111 0.47629 0.79932 0.0
C225 C 0.45112 0.4875 0.83166 0.0
H226 H 0.6524 0.59086 0.61452 0.0
H227 H 0.61674 0.6524 0.70858 0.0
H228 H 0.59411 0.60437 0.74464 0.0
H229 H 0.57368 0.54191 0.61536 0.0
H230 H 0.5978 0.50554 0.60308 0.0
H231 H 0.61541 0.54418 0.58746 0.0
H232 H 0.67726 0.53167 0.62141 0.0
H233 H 0.65986 0.4929 0.63704 0.0
H234 H 0.67777 0.52061 0.67239 0.0
H235 H 0.57282 0.54813 0.76936 0.0
H236 H 0.5538 0.49087 0.77811 0.0
H237 H 0.59742 0.46956 0.66383 0.0
C238 C 0.6399 0.59448 0.6427 0.0
C239 C 0.63652 0.62567 0.65851 0.0
C240 C 0.62041 0.62884 0.69592 0.0
C241 C 0.60717 0.60165 0.71659 0.0
C242 C 0.61 0.57142 0.69944 0.0
C243 C 0.62596 0.56786 0.66324 0.0
C244 C 0.62354 0.5334 0.6496 0.0
C245 C 0.60128 0.53115 0.61164 0.0
C246 C 0.66189 0.51879 0.64485 0.0
C247 C 0.60337 0.51808 0.68353 0.0
C248 C 0.59615 0.54008 0.71239 0.0
C249 C 0.57805 0.53085 0.74666 0.0
C250 C 0.56692 0.49839 0.75123 0.0
C251 C 0.57296 0.4759 0.7212 0.0
C252 C 0.59186 0.48609 0.68727 0.0
H253 H 0.91562 0.89467 0.11712 0.0
H254 H 0.85911 0.87131 0.22531 0.0
H255 H 0.89065 0.91661 0.25709 0.0
H256 H 1.00091 0.92401 0.15811 0.0
H257 H 0.00493 0.95637 0.12277 0.0
H258 H 0.98205 0.9194 0.10995 0.0
H259 H 0.92404 0.95159 0.09014 0.0
H260 H 0.94691 0.98858 0.1024 0.0
H261 H 0.90362 0.97857 0.12467 0.0
H262 H 0.92645 0.96645 0.27635 0.0
H263 H 0.95606 0.02021 0.27866 0.0
H264 H 0.98369 0.01324 0.15627 0.0
C265 C 0.90944 0.89898 0.14742 0.0
C266 C 0.88478 0.879 0.16856 0.0
C267 C 0.87839 0.88561 0.20847 0.0
C268 C 0.89615 0.9114 0.22684 0.0
C269 C 0.92004 0.93061 0.20494 0.0
C270 C 0.92624 0.92493 0.16594 0.0
C271 C 0.95014 0.95089 0.14773 0.0
C272 C 0.98667 0.93681 0.13383 0.0
C273 C 0.92996 0.96845 0.11428 0.0
C274 C 0.95567 0.9726 0.18232 0.0
C275 C 0.939 0.96008 0.21538 0.0
C276 C 0.93971 0.97639 0.25068 0.0
C277 C 0.95677 0.00679 0.2518 0.0
C278 C 0.97217 0.0207 0.21766 0.0
C279 C 0.97225 0.00302 0.18281 0.0
H280 H 0.9401 0.12406 0.62576 0.0
H281 H 0.86593 0.14602 0.7208 0.0
H282 H 0.88666 0.09722 0.75583 0.0
H283 H 0.91831 0.04141 0.62516 0.0
H284 H 0.96373 0.02882 0.61186 0.0
H285 H 0.94765 0.06818 0.59746 0.0
H286 H 1.0038 0.0942 0.63121 0.0
H287 H 0.01981 0.05481 0.64607 0.0
H288 H 0.01254 0.08551 0.68197 0.0
H289 H 0.91399 0.04415 0.77972 0.0
H290 H 0.93782 0.98819 0.78511 0.0
H291 H 0.98667 0.99828 0.67069 0.0
C292 C 0.92777 0.11881 0.65377 0.0
C293 C 0.90138 0.13954 0.67031 0.0
C294 C 0.88687 0.13138 0.70757 0.0
C295 C 0.89839 0.1035 0.72779 0.0
C296 C 0.92411 0.08362 0.71031 0.0
C297 C 0.93812 0.0907 0.67382 0.0
C298 C 0.96218 0.06373 0.65933 0.0
C299 C 0.94705 0.0497 0.62122 0.0
C300 C 1.00194 0.07526 0.65436 0.0
C301 C 0.95875 0.03992 0.69291 0.0
C302 C 0.93769 0.05221 0.72267 0.0
C303 C 0.93053 0.03433 0.7566 0.0
C304 C 0.94424 0.00271 0.75954 0.0
C305 C 0.96394 0.98924 0.7283 0.0
C306 C 0.97175 0.00825 0.69497 0.0
H307 H 0.57037 0.38032 0.12196 0.0
H308 H 0.62915 0.36414 0.23064 0.0
H309 H 0.5974 0.41043 0.25915 0.0
H310 H 0.58464 0.4628 0.12124 0.0
H311 H 0.54145 0.47283 0.09886 0.0
H312 H 0.56203 0.43428 0.09004 0.0
H313 H 0.50292 0.40568 0.11433 0.0
H314 H 0.48228 0.4443 0.12357 0.0
H315 H 0.48532 0.41445 0.16209 0.0
H316 H 0.56422 0.46203 0.274 0.0
H317 H 0.54024 0.5177 0.27054 0.0
H318 H 0.5093 0.50348 0.15008 0.0
C319 C 0.57683 0.38622 0.15179 0.0
C320 C 0.60247 0.36802 0.17385 0.0
C321 C 0.60909 0.37683 0.21309 0.0
C322 C 0.59119 0.40329 0.22965 0.0
C323 C 0.56692 0.42106 0.20664 0.0
C324 C 0.5601 0.41307 0.16837 0.0
C325 C 0.53722 0.43859 0.14798 0.0
C326 C 0.55756 0.45297 0.11246 0.0
C327 C 0.4997 0.42493 0.13631 0.0
C328 C 0.53352 0.4629 0.18027 0.0
C329 C 0.54964 0.45183 0.21434 0.0
C330 C 0.5512 0.47078 0.2476 0.0
C331 C 0.53728 0.50229 0.24547 0.0
C332 C 0.5226 0.51465 0.21016 0.0
C333 C 0.51995 0.4944 0.17754 0.0
H334 H 0.44307 0.38196 0.39764 0.0
H335 H 0.36826 0.35889 0.30333 0.0
H336 H 0.38873 0.40754 0.26769 0.0
H337 H 0.41986 0.463 0.39903 0.0
H338 H 0.46496 0.47709 0.41177 0.0
H339 H 0.45066 0.43708 0.42589 0.0
H340 H 0.50715 0.41326 0.39074 0.0
H341 H 0.52146 0.45335 0.37634 0.0
H342 H 0.51484 0.42286 0.34001 0.0
H343 H 0.41419 0.46118 0.24403 0.0
H344 H 0.43459 0.51825 0.23957 0.0
H345 H 0.48476 0.50933 0.35352 0.0
C346 C 0.43065 0.38686 0.3696 0.0
C347 C 0.40394 0.366 0.35357 0.0
C348 C 0.3894 0.37367 0.3162 0.0
C349 C 0.4008 0.40144 0.29562 0.0
C350 C 0.42647 0.42169 0.31283 0.0
C351 C 0.4408 0.41492 0.34925 0.0
C352 C 0.46402 0.44259 0.36382 0.0
C353 C 0.44896 0.45571 0.40239 0.0
C354 C 0.50426 0.43239 0.36797 0.0
C355 C 0.45925 0.46657 0.33063 0.0
C356 C 0.43876 0.45362 0.30074 0.0
C357 C 0.4303 0.47152 0.26723 0.0
C358 C 0.44202 0.5038 0.26488 0.0
C359 C 0.46098 0.51791 0.2963 0.0
C360 C 0.47027 0.49891 0.32917 0.0
H361 H 0.1542 0.08731 0.91069 0.0
H362 H 0.11836 0.15252 0.81821 0.0
H363 H 0.08482 0.10773 0.7877 0.0
H364 H 0.16167 0.01464 0.85439 0.0
H365 H 0.14342 0.98947 0.89298 0.0
H366 H 0.16816 0.02577 0.90453 0.0
H367 H 0.11273 0.04578 0.9446 0.0
H368 H 0.08775 0.00966 0.93296 0.0
H369 H 0.06845 0.04866 0.92167 0.0
H370 H 0.05375 0.0545 0.76781 0.0
H371 H 0.02715 0.99974 0.76291 0.0
H372 H 0.07662 0.97355 0.87364 0.0
C373 C 0.13931 0.09249 0.88409 0.0
C374 C 0.13928 0.12376 0.86705 0.0
C375 C 0.11976 0.1288 0.83168 0.0
C376 C 0.10022 0.1035 0.8142 0.0
C377 C 0.10003 0.07331 0.83259 0.0
C378 C 0.11899 0.06787 0.86688 0.0
C379 C 0.11265 0.03404 0.88247 0.0
C380 C 0.14861 0.01485 0.88364 0.0
C381 C 0.09429 0.03459 0.9228 0.0
C382 C 0.08691 0.02128 0.85178 0.0
C383 C 0.08029 0.04395 0.82283 0.0
C384 C 0.0583 0.03681 0.79076 0.0
C385 C 0.04276 0.00573 0.78842 0.0
C386 C 0.04836 0.98251 0.81844 0.0
C387 C 0.07091 0.99072 0.85039 0.0
H388 H 0.12272 0.21441 0.99197 0.0
H389 H 0.2087 0.1433 1.00138 0.0
H390 H 0.19751 0.13819 0.07241 0.0
H391 H 0.13206 0.25001 0.09365 0.0
H392 H 0.08306 0.2531 0.09805 0.0
H393 H 0.10452 0.25787 0.05101 0.0
H394 H 0.06332 0.21245 0.02343 0.0
H395 H 0.04167 0.20793 0.07002 0.0
H396 H 0.06265 0.17352 0.04754 0.0
H397 H 0.16993 0.13383 0.13926 0.0
H398 H 0.12395 0.12503 0.19137 0.0
H399 H 0.05423 0.19699 0.13756 0.0
C400 C 0.14014 0.19888 1.00949 0.0
C401 C 0.16712 0.17984 0.9918 0.0
C402 C 0.18839 0.15851 0.01487 0.0
C403 C 0.18234 0.15565 0.05518 0.0
C404 C 0.15476 0.17418 0.07187 0.0
C405 C 0.13391 0.19534 0.04958 0.0
C406 C 0.10174 0.20795 0.07249 0.0
C407 C 0.1056 0.2444 0.0792 0.0
C408 C 0.06523 0.19995 0.05218 0.0
C409 C 0.10634 0.1891 0.11025 0.0
C410 C 0.13787 0.17072 0.11007 0.0
C411 C 0.14564 0.14868 0.14013 0.0
C412 C 0.11957 0.14396 0.16981 0.0
C413 C 0.086 0.16072 0.16852 0.0
C414 C 0.08023 0.1846 0.13954 0.0
H415 H 0.37344 0.36142 0.49034 0.0
H416 H 0.39358 0.25809 0.48827 0.0
H417 H 0.40778 0.25883 0.55815 0.0
H418 H 0.4509 0.37792 0.54143 0.0
H419 H 0.43226 0.41115 0.56832 0.0
H420 H 0.41342 0.40114 0.52171 0.0
H421 H 0.34914 0.39538 0.55304 0.0
H422 H 0.36805 0.40509 0.60001 0.0
H423 H 0.3426 0.36817 0.59386 0.0
H424 H 0.4295 0.27175 0.62588 0.0
H425 H 0.46376 0.29646 0.68031 0.0
H426 H 0.43703 0.39152 0.63536 0.0
C427 C 0.38046 0.33874 0.50432 0.0
C428 C 0.3821 0.30968 0.48304 0.0
C429 C 0.39099 0.28069 0.50345 0.0
C430 C 0.39931 0.28083 0.54343 0.0
C431 C 0.39897 0.31015 0.56292 0.0
C432 C 0.39 0.33862 0.54383 0.0
C433 C 0.39786 0.3676 0.56901 0.0
C434 C 0.42524 0.39078 0.54893 0.0
C435 C 0.36228 0.38508 0.57961 0.0
C436 C 0.41446 0.35112 0.60444 0.0
C437 C 0.4135 0.31789 0.60116 0.0
C438 C 0.4298 0.2977 0.62906 0.0
C439 C 0.44901 0.31186 0.66002 0.0
C440 C 0.45236 0.34578 0.66214 0.0
C441 C 0.43392 0.36552 0.63477 0.0
H442 H 0.6598 0.36823 0.04647 0.0
H443 H 0.64646 0.26408 0.04899 0.0
H444 H 0.63798 0.26467 0.97785 0.0
H445 H 0.58651 0.38126 0.98982 0.0
H446 H 0.60453 0.41568 0.9634 0.0
H447 H 0.62136 0.40629 1.01127 0.0
H448 H 0.68755 0.40404 0.98425 0.0
H449 H 0.67071 0.41333 0.936 0.0
H450 H 0.69793 0.3777 0.94437 0.0
H451 H 0.61856 0.27732 0.90878 0.0
H452 H 0.58497 0.3009 0.85252 0.0
H453 H 0.6043 0.39662 0.8971 0.0
C454 C 0.65584 0.34537 0.03214 0.0
C455 C 0.65378 0.31613 0.05382 0.0
C456 C 0.64896 0.28685 0.03339 0.0
C457 C 0.64396 0.28694 0.99275 0.0
C458 C 0.64383 0.31646 0.97271 0.0
C459 C 0.6497 0.34518 0.99189 0.0
C460 C 0.64152 0.37399 0.96576 0.0
C461 C 0.61171 0.39552 0.98362 0.0
C462 C 0.67652 0.3934 0.95708 0.0
C463 C 0.62795 0.35708 0.92965 0.0
C464 C 0.63087 0.3239 0.93348 0.0
C465 C 0.61689 0.30326 0.90516 0.0
C466 C 0.59802 0.31679 0.87317 0.0
C467 C 0.59266 0.35051 0.87043 0.0
C468 C 0.60893 0.37081 0.89823 0.0
H469 H 0.8658 0.1499 0.53406 0.0
H470 H 0.89984 0.25023 0.54024 0.0
H471 H 0.911 0.25091 0.46967 0.0
H472 H 0.93658 0.12713 0.47742 0.0
H473 H 0.91162 0.0976 0.44977 0.0
H474 H 0.89665 0.10766 0.49783 0.0
H475 H 0.8326 0.12211 0.4701 0.0
H476 H 0.84786 0.11255 0.42164 0.0
H477 H 0.82872 0.15168 0.43133 0.0
H478 H 0.92975 0.23839 0.40158 0.0
H479 H 0.96074 0.21209 0.34634 0.0
H480 H 0.9185 0.11955 0.38492 0.0
C481 C 0.87506 0.17224 0.52065 0.0
C482 C 0.88161 0.20005 0.54316 0.0
C483 C 0.8936 0.22872 0.52393 0.0
C484 C 0.90009 0.22938 0.48361 0.0
C485 C 0.89452 0.20122 0.46261 0.0
C486 C 0.88236 0.17311 0.4806 0.0
C487 C 0.88453 0.14475 0.45333 0.0
C488 C 0.9088 0.11773 0.4706 0.0
C489 C 0.84613 0.13203 0.44352 0.0
C490 C 0.90205 0.16082 0.41807 0.0
C491 C 0.90629 0.19367 0.42332 0.0
C492 C 0.92569 0.21289 0.39664 0.0
C493 C 0.94295 0.19787 0.36512 0.0
C494 C 0.94101 0.16405 0.36106 0.0
C495 C 0.91902 0.14563 0.38677 0.0
H496 H 0.88162 0.78835 0.0395 0.0
H497 H 0.80601 0.86838 0.04271 0.0
H498 H 0.81527 0.878 0.97211 0.0
H499 H 0.94472 0.82631 0.98668 0.0
H500 H 0.95994 0.79242 0.95858 0.0
H501 H 0.93919 0.78567 1.00528 0.0
H502 H 0.89081 0.74823 0.97388 0.0
H503 H 0.91157 0.75495 0.92679 0.0
H504 H 0.86359 0.763 0.93366 0.0
H505 H 0.84277 0.88658 0.90638 0.0
H506 H 0.8882 0.89516 0.85385 0.0
H507 H 0.94706 0.81043 0.89292 0.0
C508 C 0.86559 0.80674 0.02474 0.0
C509 C 0.84242 0.82712 0.04611 0.0
C510 C 0.82329 0.85213 0.02652 0.0
C511 C 0.82834 0.85766 0.98642 0.0
C512 C 0.85267 0.838 0.96633 0.0
C513 C 0.87086 0.81287 0.98487 0.0
C514 C 0.90034 0.79907 0.95895 0.0
C515 C 0.93825 0.80103 0.97853 0.0
C516 C 0.891 0.76424 0.94765 0.0
C517 C 0.89759 0.82167 0.92402 0.0
C518 C 0.86911 0.84329 0.92819 0.0
C519 C 0.86428 0.8691 0.9021 0.0
C520 C 0.89002 0.87371 0.87213 0.0
C521 C 0.92011 0.85265 0.86854 0.0
C522 C 0.9232 0.82584 0.89404 0.0
H523 H 0.58921 0.70779 0.53317 0.0
H524 H 0.6898 0.65531 0.51527 0.0
H525 H 0.67498 0.65018 0.44503 0.0
H526 H 0.53587 0.6587 0.47684 0.0
H527 H 0.50656 0.69013 0.45796 0.0
H528 H 0.52883 0.69505 0.50414 0.0
H529 H 0.55768 0.74875 0.47925 0.0
H530 H 0.53565 0.74374 0.43269 0.0
H531 H 0.58455 0.74908 0.43522 0.0
H532 H 0.64523 0.64514 0.37861 0.0
H533 H 0.60076 0.63518 0.32554 0.0
H534 H 0.51911 0.68971 0.38783 0.0
C535 C 0.60853 0.69614 0.51404 0.0
C536 C 0.64089 0.68246 0.52903 0.0
C537 C 0.66511 0.66631 0.50384 0.0
C538 C 0.65698 0.66347 0.46399 0.0
C539 C 0.62446 0.67686 0.44996 0.0
C540 C 0.60056 0.69278 0.47438 0.0
C541 C 0.56523 0.70109 0.45367 0.0
C542 C 0.5322 0.68529 0.47437 0.0
C543 C 0.56052 0.73786 0.44999 0.0
C544 C 0.57225 0.68622 0.41432 0.0
C545 C 0.60693 0.67314 0.41221 0.0
C546 C 0.61827 0.6558 0.3797 0.0
C547 C 0.59297 0.65046 0.3495 0.0
C548 C 0.55672 0.662 0.35248 0.0
C549 C 0.54688 0.6811 0.38458 0.0
H550 H 0.42341 0.70989 0.9581 0.0
H551 H 0.31467 0.67036 0.9728 0.0
H552 H 0.3242 0.66736 0.04441 0.0
H553 H 0.46538 0.65944 0.02071 0.0
H554 H 0.49798 0.688 0.0396 0.0
H555 H 0.4791 0.69408 0.99185 0.0
H556 H 0.45673 0.75095 1.01152 0.0
H557 H 0.47555 0.74491 0.05963 0.0
H558 H 0.42798 0.75525 0.05379 0.0
H559 H 0.35033 0.65963 0.11281 0.0
H560 H 0.39101 0.64506 0.1682 0.0
H561 H 0.4822 0.69002 0.10797 0.0
C562 C 0.40113 0.70197 0.97673 0.0
C563 C 0.36805 0.6911 0.96044 0.0
C564 C 0.33986 0.67953 0.98514 0.0
C565 C 0.34509 0.67779 0.02576 0.0
C566 C 0.37858 0.68794 0.04108 0.0
C567 C 0.406 0.70009 0.01715 0.0
C568 C 0.44117 0.70515 0.03948 0.0
C569 C 0.47272 0.68548 0.02188 0.0
C570 C 0.45092 0.74122 0.04121 0.0
C571 C 0.43008 0.69223 0.07918 0.0
C572 C 0.39365 0.68317 0.08009 0.0
C573 C 0.37863 0.66736 0.11267 0.0
C574 C 0.40181 0.65935 0.14417 0.0
C575 C 0.43957 0.66673 0.14238 0.0
C576 C 0.45326 0.68462 0.11028 0.0
H577 H 0.11011 0.80907 0.49083 0.0
H578 H 0.21533 0.85015 0.52109 0.0
H579 H 0.19639 0.8522 0.59018 0.0
H580 H 0.05932 0.85865 0.54574 0.0
H581 H 0.02522 0.82931 0.56009 0.0
H582 H 0.05014 0.82422 0.5156 0.0
H583 H 0.07101 0.76743 0.53905 0.0
H584 H 0.04608 0.77242 0.58388 0.0
H585 H 0.09417 0.76296 0.58519 0.0
H586 H 0.16127 0.85956 0.65355 0.0
H587 H 0.11358 0.87201 0.70265 0.0
H588 H 0.03226 0.82567 0.63055 0.0
C589 C 0.12955 0.81761 0.5122 0.0
C590 C 0.16423 0.82928 0.50059 0.0
C591 C 0.18882 0.84054 0.52937 0.0
C592 C 0.17825 0.84185 0.56873 0.0
C593 C 0.1432 0.83135 0.57898 0.0
C594 C 0.11942 0.81905 0.55144 0.0
C595 C 0.08186 0.81305 0.56847 0.0
C596 C 0.05244 0.83248 0.54617 0.0
C597 C 0.07276 0.77681 0.56919 0.0
C598 C 0.08748 0.82557 0.60924 0.0
C599 C 0.12318 0.8354 0.6153 0.0
C600 C 0.13349 0.85113 0.64948 0.0
C601 C 0.10636 0.85799 0.67734 0.0
C602 C 0.06952 0.84926 0.67055 0.0
C603 C 0.06046 0.8319 0.63677 0.0
H604 H 0.28535 0.19626 0.36475 0.0
H605 H 0.285 0.27622 0.28239 0.0
H606 H 0.22574 0.25683 0.25533 0.0
H607 H 0.24553 0.13648 0.3006 0.0
H608 H 0.21942 0.11764 0.33923 0.0
H609 H 0.26226 0.13721 0.35 0.0
H610 H 0.22994 0.17328 0.40068 0.0
H611 H 0.18718 0.15361 0.39032 0.0
H612 H 0.19085 0.1969 0.38591 0.0
H613 H 0.16422 0.22839 0.23947 0.0
H614 H 0.10633 0.19663 0.23995 0.0
H615 H 0.14971 0.13607 0.33282 0.0
C616 C 0.27277 0.20955 0.34089 0.0
C617 C 0.28925 0.23759 0.32549 0.0
C618 C 0.27238 0.25461 0.29442 0.0
C619 C 0.23893 0.24368 0.27885 0.0
C620 C 0.22316 0.21567 0.29469 0.0
C621 C 0.23967 0.19898 0.32514 0.0
C622 C 0.21692 0.17046 0.3384 0.0
C623 C 0.23725 0.13857 0.33164 0.0
C624 C 0.20554 0.17378 0.38135 0.0
C625 C 0.18457 0.17392 0.31133 0.0
C626 C 0.18855 0.19979 0.28587 0.0
C627 C 0.16104 0.20795 0.25915 0.0
C628 C 0.12838 0.18969 0.25936 0.0
C629 C 0.12363 0.16391 0.28635 0.0
C630 C 0.15252 0.15569 0.31185 0.0
H631 H 0.293 0.23 0.86995 0.0
H632 H 0.22964 0.26028 0.76955 0.0
H633 H 0.28585 0.28208 0.73826 0.0
H634 H 0.34464 0.29751 0.8761 0.0
H635 H 0.38658 0.27822 0.8911 0.0
H636 H 0.34346 0.2591 0.90139 0.0
H637 H 0.3646 0.20775 0.86548 0.0
H638 H 0.40804 0.22674 0.85519 0.0
H639 H 0.38073 0.21105 0.81596 0.0
H640 H 0.34684 0.30875 0.72358 0.0
H641 H 0.40584 0.33797 0.72753 0.0
H642 H 0.42937 0.28914 0.83704 0.0
C643 C 0.29142 0.24006 0.8407 0.0
C644 C 0.25755 0.24301 0.82158 0.0
C645 C 0.25576 0.25733 0.78408 0.0
C646 C 0.28751 0.26972 0.76618 0.0
C647 C 0.32066 0.26733 0.78623 0.0
C648 C 0.32282 0.25251 0.82256 0.0
C649 C 0.36049 0.25638 0.84016 0.0
C650 C 0.35865 0.27385 0.87948 0.0
C651 C 0.37959 0.22352 0.84443 0.0
C652 C 0.37867 0.27709 0.8091 0.0
C653 C 0.35565 0.28268 0.77779 0.0
C654 C 0.36545 0.30379 0.74744 0.0
C655 C 0.39918 0.32013 0.7497 0.0
C656 C 0.4225 0.31538 0.78217 0.0
C657 C 0.41234 0.29292 0.81155 0.0
H658 H 0.76032 0.24068 0.66995 0.0
H659 H 0.82234 0.28159 0.76473 0.0
H660 H 0.7647 0.29902 0.79616 0.0
H661 H 0.70128 0.30223 0.65917 0.0
H662 H 0.66138 0.27855 0.64754 0.0
H663 H 0.70613 0.26296 0.63773 0.0
H664 H 0.6916 0.21187 0.67936 0.0
H665 H 0.64654 0.22736 0.68926 0.0
H666 H 0.67638 0.21613 0.72898 0.0
H667 H 0.70168 0.32051 0.81032 0.0
H668 H 0.64027 0.34499 0.80484 0.0
H669 H 0.61931 0.28912 0.70131 0.0
C670 C 0.76145 0.25213 0.69813 0.0
C671 C 0.79525 0.25936 0.71556 0.0
C672 C 0.79635 0.2754 0.75157 0.0
C673 C 0.76379 0.28529 0.76956 0.0
C674 C 0.73059 0.27867 0.75111 0.0
C675 C 0.72925 0.26214 0.7163 0.0
C676 C 0.69094 0.26174 0.69966 0.0
C677 C 0.6899 0.27731 0.65864 0.0
C678 C 0.67545 0.22722 0.69932 0.0
C679 C 0.67133 0.28219 0.72923 0.0
C680 C 0.69432 0.29113 0.75924 0.0
C681 C 0.68315 0.31289 0.7876 0.0
C682 C 0.64808 0.32653 0.78449 0.0
C683 C 0.62481 0.31851 0.7531 0.0
C684 C 0.63632 0.2953 0.72599 0.0
H685 H 0.7653 0.25311 0.15841 0.0
H686 H 0.71193 0.23272 0.26858 0.0
H687 H 0.76981 0.21029 0.29504 0.0
H688 H 0.81608 0.18252 0.1547 0.0
H689 H 0.85627 0.20065 0.13316 0.0
H690 H 0.81216 0.21858 0.12503 0.0
H691 H 0.8362 0.27293 0.15173 0.0
H692 H 0.88048 0.25507 0.16002 0.0
H693 H 0.85662 0.27403 0.19952 0.0
H694 H 0.83193 0.18438 0.30657 0.0
H695 H 0.89185 0.15698 0.30131 0.0
H696 H 0.90487 0.19635 0.18458 0.0
C697 C 0.76621 0.24454 0.18835 0.0
C698 C 0.73465 0.24475 0.21176 0.0
C699 C 0.73623 0.23289 0.25051 0.0
C700 C 0.76893 0.22021 0.26574 0.0
C701 C 0.79975 0.21986 0.24182 0.0
C702 C 0.79868 0.23193 0.20399 0.0
C703 C 0.83469 0.2267 0.18337 0.0
C704 C 0.82947 0.20586 0.14694 0.0
C705 C 0.85308 0.25911 0.17306 0.0
C706 C 0.8557 0.2088 0.2149 0.0
C707 C 0.83541 0.2054 0.24864 0.0
C708 C 0.8484 0.18757 0.28061 0.0
C709 C 0.88267 0.17237 0.27764 0.0
C710 C 0.90343 0.17512 0.24299 0.0
C711 C 0.88986 0.19411 0.21168 0.0
H712 H 0.7757 0.73724 0.65675 0.0
H713 H 0.70206 0.7698 0.74653 0.0
H714 H 0.75434 0.79421 0.78185 0.0
H715 H 0.8586 0.72317 0.72153 0.0
H716 H 0.88883 0.73813 0.68392 0.0
H717 H 0.84726 0.71731 0.67099 0.0
H718 H 0.82778 0.76633 0.62821 0.0
H719 H 0.86898 0.78729 0.64114 0.0
H720 H 0.82517 0.80572 0.64981 0.0
H721 H 0.8129 0.82336 0.80045 0.0
H722 H 0.87103 0.85436 0.79954 0.0
H723 H 0.90602 0.80201 0.69806 0.0
C724 C 0.771 0.74829 0.68473 0.0
C725 C 0.73536 0.75114 0.69963 0.0
C726 C 0.72954 0.76686 0.73535 0.0
C727 C 0.75905 0.78076 0.7555 0.0
C728 C 0.79405 0.7785 0.73947 0.0
C729 C 0.80012 0.7623 0.70501 0.0
C730 C 0.83908 0.7667 0.69108 0.0
C731 C 0.85966 0.7344 0.69195 0.0
C732 C 0.84028 0.78246 0.65017 0.0
C733 C 0.85352 0.78923 0.72185 0.0
C734 C 0.82755 0.7953 0.75007 0.0
C735 C 0.83379 0.81798 0.77919 0.0
C736 C 0.867 0.8353 0.77883 0.0
C737 C 0.89326 0.82996 0.74947 0.0
C738 C 0.88661 0.80611 0.72131 0.0
H739 H 0.77592 0.69838 0.17344 0.0
H740 H 0.7565 0.78823 0.23283 0.0
H741 H 0.69803 0.76621 0.2592 0.0
H742 H 0.68548 0.68504 0.14373 0.0
H743 H 0.6873 0.64182 0.1502 0.0
H744 H 0.72845 0.66411 0.13967 0.0
H745 H 0.75858 0.6398 0.20187 0.0
H746 H 0.71719 0.61776 0.21284 0.0
H747 H 0.7365 0.64455 0.24839 0.0
H748 H 0.63927 0.73453 0.27536 0.0
H749 H 0.58467 0.6987 0.27468 0.0
H750 H 0.64437 0.63018 0.20487 0.0
C751 C 0.7594 0.71321 0.1923 0.0
C752 C 0.77026 0.74481 0.20132 0.0
C753 C 0.74825 0.76385 0.22578 0.0
C754 C 0.71524 0.75147 0.241 0.0
C755 C 0.70507 0.71999 0.23159 0.0
C756 C 0.72659 0.70121 0.20768 0.0
C757 C 0.70876 0.66904 0.19968 0.0
C758 C 0.70209 0.66478 0.15573 0.0
C759 C 0.73162 0.64114 0.21672 0.0
C760 C 0.6733 0.6729 0.22173 0.0
C761 C 0.67172 0.70212 0.24062 0.0
C762 C 0.64045 0.71145 0.26101 0.0
C763 C 0.60964 0.6909 0.26075 0.0
C764 C 0.61042 0.66169 0.23986 0.0
C765 C 0.64308 0.65231 0.22129 0.0
H766 H 0.25548 0.74671 0.35142 0.0
H767 H 0.30055 0.83176 0.29493 0.0
H768 H 0.33727 0.79715 0.25145 0.0
H769 H 0.33386 0.70672 0.35936 0.0
H770 H 0.31606 0.66673 0.35132 0.0
H771 H 0.28659 0.69746 0.36973 0.0
H772 H 0.24168 0.68838 0.31239 0.0
H773 H 0.27126 0.65745 0.2937 0.0
H774 H 0.25816 0.69107 0.26295 0.0
H775 H 0.37821 0.75372 0.22433 0.0
H776 H 0.42044 0.7073 0.21961 0.0
H777 H 0.34809 0.65061 0.29346 0.0
C778 C 0.27175 0.75785 0.32852 0.0
C779 C 0.27469 0.79164 0.32557 0.0
C780 C 0.29739 0.80577 0.29674 0.0
C781 C 0.31828 0.78627 0.27197 0.0
C782 C 0.31588 0.75275 0.2764 0.0
C783 C 0.29278 0.73869 0.30381 0.0
C784 C 0.29917 0.70271 0.30733 0.0
C785 C 0.30956 0.69287 0.34939 0.0
C786 C 0.26556 0.68379 0.29324 0.0
C787 C 0.33103 0.69895 0.27962 0.0
C788 C 0.33973 0.7278 0.2611 0.0
C789 C 0.37103 0.73084 0.23787 0.0
C790 C 0.39483 0.70428 0.23511 0.0
C791 C 0.38739 0.67534 0.256 0.0
C792 C 0.35417 0.67232 0.27674 0.0
H793 H 0.26036 0.77612 0.86427 0.0
H794 H 0.26886 0.72775 0.75364 0.0
H795 H 0.2077 0.74869 0.73443 0.0
H796 H 0.16254 0.76339 0.87827 0.0
H797 H 0.1562 0.80236 0.89997 0.0
H798 H 0.19937 0.78189 0.90497 0.0
H799 H 0.23261 0.83191 0.87543 0.0
H800 H 0.18954 0.85242 0.8701 0.0
H801 H 0.21874 0.84733 0.82834 0.0
H802 H 0.14516 0.777 0.72747 0.0
H803 H 0.08805 0.80888 0.73432 0.0
H804 H 0.12403 0.83945 0.84849 0.0
C805 C 0.24898 0.76964 0.83626 0.0
C806 C 0.26865 0.75025 0.81045 0.0
C807 C 0.2536 0.74245 0.7738 0.0
C808 C 0.21905 0.75426 0.76269 0.0
C809 C 0.20023 0.77379 0.7887 0.0
C810 C 0.21473 0.78125 0.82481 0.0
C811 C 0.18983 0.8033 0.84714 0.0
C812 C 0.17618 0.78674 0.8848 0.0
C813 C 0.20882 0.83565 0.85573 0.0
C814 C 0.15926 0.80748 0.81791 0.0
C815 C 0.16536 0.79026 0.78439 0.0
C816 C 0.14029 0.79071 0.75357 0.0
C817 C 0.10817 0.80918 0.7574 0.0
C818 C 0.10187 0.82715 0.79149 0.0
C819 C 0.1279 0.82603 0.82193 0.0
loop_
_geom_bond_atom_site_label_1
_geom_bond_atom_site_label_2
_geom_bond_distance
_geom_bond_site_symmetry_2
_ccdc_geom_bond_type
H0 C3 0.929 . S
H1 C6 0.929 . S
H2 C8 0.930 . S
C3 H0 0.929 . S
C3 C4 1.398 . S
C3 C5 1.396 . S
C4 C3 1.398 . S
C4 C8 1.407 . S
C5 C3 1.396 . S
C5 C6 1.394 . S
C6 H1 0.929 . S
C6 C5 1.394 . S
C6 C7 1.382 . S
C7 C6 1.382 . S
C7 C8 1.392 . S
C7 N9 1.420 . S
C8 H2 0.930 . S
C8 C4 1.407 . S
C8 C7 1.392 . S
N9 C7 1.420 . S
N9 C10 1.244 . S
C10 N9 1.244 . S
H11 C14 0.929 . S
H12 C17 0.929 . S
H13 C19 0.930 . S
C14 H11 0.929 . S
C14 C15 1.398 . S
C14 C16 1.396 . S
C15 C14 1.398 . S
C15 C19 1.407 . S
C16 C14 1.396 . S
C16 C17 1.394 . S
C17 H12 0.929 . S
C17 C16 1.394 . S
C17 C18 1.382 . S
C18 C17 1.382 . S
C18 C19 1.392 . S
C18 N20 1.420 . S
C19 H13 0.930 . S
C19 C15 1.407 . S
C19 C18 1.392 . S
N20 C18 1.420 . S
N20 C21 1.244 . S
C21 N20 1.244 . S
H22 C25 0.929 . S
H23 C28 0.929 . S
H24 C30 0.930 . S
C25 H22 0.929 . S
C25 C26 1.398 . S
C25 C27 1.396 . S
C26 C25 1.398 . S
C26 C30 1.407 . S
C27 C25 1.396 . S
C27 C28 1.394 . S
C28 H23 0.929 . S
C28 C27 1.394 . S
C28 C29 1.382 . S
C29 C28 1.382 . S
C29 C30 1.392 . S
C29 N31 1.420 . S
C30 H24 0.930 . S
C30 C26 1.407 . S
C30 C29 1.392 . S
N31 C29 1.420 . S
N31 C32 1.244 . S
C32 N31 1.244 . S
H33 C36 0.929 . S
H34 C39 0.929 . S
H35 C41 0.930 . S
C36 H33 0.929 . S
C36 C37 1.398 . S
C36 C38 1.396 . S
C37 C36 1.398 . S
C37 C41 1.407 . S
C38 C36 1.396 . S
C38 C39 1.394 . S
C39 H34 0.929 . S
C39 C38 1.394 . S
C39 C40 1.382 . S
C40 C39 1.382 . S
C40 C41 1.392 . S
C40 N42 1.420 . S
C41 H35 0.930 . S
C41 C37 1.407 . S
C41 C40 1.392 . S
N42 C40 1.420 . S
N42 C43 1.244 . S
C43 N42 1.244 . S
H44 C47 0.929 . S
H45 C50 0.929 . S
H46 C52 0.930 . S
C47 H44 0.929 . S
C47 C48 1.398 . S
C47 C49 1.396 . S
C48 C47 1.398 . S
C48 C52 1.407 . S
C49 C47 1.396 . S
C49 C50 1.394 . S
C50 H45 0.929 . S
C50 C49 1.394 . S
C50 C51 1.382 . S
C51 C50 1.382 . S
C51 C52 1.392 . S
C51 N53 1.420 . S
C52 H46 0.930 . S
C52 C48 1.407 . S
C52 C51 1.392 . S
N53 C51 1.420 . S
N53 C54 1.244 . S
C54 N53 1.244 . S
H55 C58 0.929 . S
H56 C61 0.929 . S
H57 C63 0.930 . S
C58 H55 0.929 . S
C58 C59 1.398 . S
C58 C60 1.396 . S
C59 C58 1.398 . S
C59 C63 1.407 . S
C60 C58 1.396 . S
C60 C61 1.394 . S
C61 H56 0.929 . S
C61 C60 1.394 . S
C61 C62 1.382 . S
C62 C61 1.382 . S
C62 C63 1.392 . S
C62 N64 1.420 . S
C63 H57 0.930 . S
C63 C59 1.407 . S
C63 C62 1.392 . S
N64 C62 1.420 . S
N64 C65 1.244 . S
C65 N64 1.244 . S
H66 C69 0.929 . S
H67 C72 0.929 . S
H68 C74 0.930 . S
C69 H66 0.929 . S
C69 C70 1.398 . S
C69 C71 1.396 . S
C70 C69 1.398 . S
C70 C74 1.407 . S
C71 C69 1.396 . S
C71 C72 1.394 . S
C72 H67 0.929 . S
C72 C71 1.394 . S
C72 C73 1.382 . S
C73 C72 1.382 . S
C73 C74 1.392 . S
C73 N75 1.420 . S
C74 H68 0.930 . S
C74 C70 1.407 . S
C74 C73 1.392 . S
N75 C73 1.420 . S
N75 C76 1.244 . S
C76 N75 1.244 . S
H77 C80 0.929 . S
H78 C83 0.929 . S
H79 C85 0.930 . S
C80 H77 0.929 . S
C80 C81 1.398 . S
C80 C82 1.396 . S
C81 C80 1.398 . S
C81 C85 1.407 . S
C82 C80 1.396 . S
C82 C83 1.394 . S
C83 H78 0.929 . S
C83 C82 1.394 . S
C83 C84 1.382 . S
C84 C83 1.382 . S
C84 C85 1.392 . S
C84 N86 1.420 . S
C85 H79 0.930 . S
C85 C81 1.407 . S
C85 C84 1.392 . S
N86 C84 1.420 . S
N86 C87 1.244 . S
C87 N86 1.244 . S
Zn88 O94 1.920 . S
Zn88 O100 1.898 . S
Zn88 O103 1.905 . S
Zn89 O97 1.905 1_655 S
Zn89 O98 1.898 . S
Zn89 O106 1.920 . S
Zn90 O93 2.080 1_455 S
Zn90 O96 2.114 . S
Zn90 O99 2.120 1_455 S
Zn90 O101 2.120 . S
Zn90 O102 2.114 . S
Zn90 O105 2.080 1_455 S
C91 O96 1.166 . S
C91 O97 1.182 . S
C92 O98 1.167 . S
C92 O99 1.299 . S
O93 Zn90 2.080 1_655 S
O93 C107 1.305 . S
O94 Zn88 1.920 . S
O94 C107 1.234 1_455 S
C95 O100 1.167 . S
C95 O101 1.299 . S
O96 Zn90 2.114 . S
O96 C91 1.166 . S
O97 Zn89 1.905 1_455 S
O97 C91 1.182 . S
O98 Zn89 1.898 . S
O98 C92 1.167 . S
O99 Zn90 2.120 1_655 S
O99 C92 1.299 . S
O100 Zn88 1.898 . S
O100 C95 1.167 . S
O101 Zn90 2.120 . S
O101 C95 1.299 . S
O102 Zn90 2.114 . S
O102 C104 1.166 . S
O103 Zn88 1.905 . S
O103 C104 1.182 . S
C104 O102 1.166 . S
C104 O103 1.182 . S
O105 Zn90 2.080 1_655 S
O105 C108 1.305 . S
O106 Zn89 1.920 . S
O106 C108 1.234 . S
C107 O93 1.305 . S
C107 O94 1.234 1_655 S
C108 O105 1.305 . S
C108 O106 1.234 . S
Zn109 O115 1.920 . S
Zn109 O121 1.898 . S
Zn109 O124 1.905 . S
Zn110 O118 1.905 . S
Zn110 O119 1.898 . S
Zn110 O127 1.920 . S
Zn111 O114 2.080 . S
Zn111 O117 2.114 . S
Zn111 O120 2.120 . S
Zn111 O122 2.120 . S
Zn111 O123 2.114 . S
Zn111 O126 2.080 . S
C112 O117 1.166 . S
C112 O118 1.182 . S
C113 O119 1.167 . S
C113 O120 1.299 . S
O114 Zn111 2.080 . S
O114 C128 1.305 . S
O115 Zn109 1.920 . S
O115 C128 1.234 . S
C116 O121 1.167 . S
C116 O122 1.299 . S
O117 Zn111 2.114 . S
O117 C112 1.166 . S
O118 Zn110 1.905 . S
O118 C112 1.182 . S
O119 Zn110 1.898 . S
O119 C113 1.167 . S
O120 Zn111 2.120 . S
O120 C113 1.299 . S
O121 Zn109 1.898 . S
O121 C116 1.167 . S
O122 Zn111 2.120 . S
O122 C116 1.299 . S
O123 Zn111 2.114 . S
O123 C125 1.166 . S
O124 Zn109 1.905 . S
O124 C125 1.182 . S
C125 O123 1.166 . S
C125 O124 1.182 . S
O126 Zn111 2.080 . S
O126 C129 1.305 . S
O127 Zn110 1.920 . S
O127 C129 1.234 . S
C128 O114 1.305 . S
C128 O115 1.234 . S
C129 O126 1.305 . S
C129 O127 1.234 . S
Zn130 O136 1.920 . S
Zn130 O142 1.898 . S
Zn130 O145 1.905 1_455 S
Zn131 O139 1.905 . S
Zn131 O140 1.898 . S
Zn131 O148 1.920 1_655 S
Zn132 O135 2.080 . S
Zn132 O138 2.114 1_455 S
Zn132 O141 2.120 1_455 S
Zn132 O143 2.120 . S
Zn132 O144 2.114 1_455 S
Zn132 O147 2.080 . S
C133 O138 1.166 . S
C133 O139 1.182 . S
C134 O140 1.167 . S
C134 O141 1.299 . S
O135 Zn132 2.080 . S
O135 C149 1.305 . S
O136 Zn130 1.920 . S
O136 C149 1.234 . S
C137 O142 1.167 . S
C137 O143 1.299 . S
O138 Zn132 2.114 1_655 S
O138 C133 1.166 . S
O139 Zn131 1.905 . S
O139 C133 1.182 . S
O140 Zn131 1.898 . S
O140 C134 1.167 . S
O141 Zn132 2.120 1_655 S
O141 C134 1.299 . S
O142 Zn130 1.898 . S
O142 C137 1.167 . S
O143 Zn132 2.120 . S
O143 C137 1.299 . S
O144 Zn132 2.114 1_655 S
O144 C146 1.166 . S
O145 Zn130 1.905 1_655 S
O145 C146 1.182 . S
C146 O144 1.166 . S
C146 O145 1.182 . S
O147 Zn132 2.080 . S
O147 C150 1.305 . S
O148 Zn131 1.920 1_455 S
O148 C150 1.234 . S
C149 O135 1.305 . S
C149 O136 1.234 . S
C150 O147 1.305 . S
C150 O148 1.234 . S
Zn151 O157 1.920 . S
Zn151 O163 1.898 . S
Zn151 O166 1.905 . S
Zn152 O160 1.905 . S
Zn152 O161 1.898 . S
Zn152 O169 1.920 . S
Zn153 O156 2.080 . S
Zn153 O159 2.114 . S
Zn153 O162 2.120 . S
Zn153 O164 2.120 . S
Zn153 O165 2.114 . S
Zn153 O168 2.080 . S
C154 O159 1.166 . S
C154 O160 1.182 . S
C155 O161 1.167 . S
C155 O162 1.299 . S
O156 Zn153 2.080 . S
O156 C170 1.305 . S
O157 Zn151 1.920 . S
O157 C170 1.234 . S
C158 O163 1.167 . S
C158 O164 1.299 . S
O159 Zn153 2.114 . S
O159 C154 1.166 . S
O160 Zn152 1.905 . S
O160 C154 1.182 . S
O161 Zn152 1.898 . S
O161 C155 1.167 . S
O162 Zn153 2.120 . S
O162 C155 1.299 . S
O163 Zn151 1.898 . S
O163 C158 1.167 . S
O164 Zn153 2.120 . S
O164 C158 1.299 . S
O165 Zn153 2.114 . S
O165 C167 1.166 . S
O166 Zn151 1.905 . S
O166 C167 1.182 . S
C167 O165 1.166 . S
C167 O166 1.182 . S
O168 Zn153 2.080 . S
O168 C171 1.305 . S
O169 Zn152 1.920 . S
O169 C171 1.234 . S
C170 O156 1.305 . S
C170 O157 1.234 . S
C171 O168 1.305 . S
C171 O169 1.234 . S
H172 C184 0.930 . S
H173 C186 0.930 . S
H174 C187 0.930 . S
H175 C191 0.959 . S
H176 C191 0.959 . S
H177 C191 0.961 . S
H178 C192 0.960 . S
H179 C192 0.961 . S
H180 C192 0.959 . S
H181 C195 0.929 . S
H182 C196 0.931 . S
H183 C198 0.930 . S
C184 H172 0.930 . S
C184 C185 1.399 . S
C184 C189 1.399 . S
C185 C184 1.399 . S
C185 C186 1.376 . S
C186 H173 0.930 . S
C186 C185 1.376 . S
C186 C187 1.388 . S
C187 H174 0.930 . S
C187 C186 1.388 . S
C187 C188 1.390 . S
C188 C187 1.390 . S
C188 C189 1.394 . S
C188 C194 1.465 . S
C189 C184 1.399 . S
C189 C188 1.394 . S
C189 C190 1.516 . S
C190 C189 1.516 . S
C190 C191 1.502 . S
C190 C192 1.561 . S
C190 C193 1.526 . S
C191 H175 0.959 . S
C191 H176 0.959 . S
C191 H177 0.961 . S
C191 C190 1.502 . S
C192 H178 0.960 . S
C192 H179 0.961 . S
C192 H180 0.959 . S
C192 C190 1.561 . S
C193 C190 1.526 . S
C193 C194 1.396 . S
C193 C198 1.390 1_565 S
C194 C188 1.465 . S
C194 C193 1.396 . S
C194 C195 1.399 . S
C195 H181 0.929 . S
C195 C194 1.399 . S
C195 C196 1.385 1_565 S
C196 H182 0.931 . S
C196 C195 1.385 1_545 S
C196 C197 1.389 . S
C197 C196 1.389 . S
C197 C198 1.387 . S
C198 H183 0.930 . S
C198 C193 1.390 1_545 S
C198 C197 1.387 . S
H199 C211 0.930 . S
H200 C213 0.930 . S
H201 C214 0.930 . S
H202 C218 0.959 . S
H203 C218 0.959 . S
H204 C218 0.961 . S
H205 C219 0.960 . S
H206 C219 0.961 . S
H207 C219 0.959 . S
H208 C222 0.929 . S
H209 C223 0.931 . S
H210 C225 0.930 . S
C211 H199 0.930 . S
C211 C212 1.399 . S
C211 C216 1.399 . S
C212 C211 1.399 . S
C212 C213 1.376 . S
C213 H200 0.930 . S
C213 C212 1.376 . S
C213 C214 1.388 . S
C214 H201 0.930 . S
C214 C213 1.388 . S
C214 C215 1.390 . S
C215 C214 1.390 . S
C215 C216 1.394 . S
C215 C221 1.465 . S
C216 C211 1.399 . S
C216 C215 1.394 . S
C216 C217 1.516 . S
C217 C216 1.516 . S
C217 C218 1.502 . S
C217 C219 1.561 . S
C217 C220 1.526 . S
C218 H202 0.959 . S
C218 H203 0.959 . S
C218 H204 0.961 . S
C218 C217 1.502 . S
C219 H205 0.960 . S
C219 H206 0.961 . S
C219 H207 0.959 . S
C219 C217 1.561 . S
C220 C217 1.526 . S
C220 C221 1.396 . S
C220 C225 1.390 . S
C221 C215 1.465 . S
C221 C220 1.396 . S
C221 C222 1.399 . S
C222 H208 0.929 . S
C222 C221 1.399 . S
C222 C223 1.385 . S
C223 H209 0.931 . S
C223 C222 1.385 . S
C223 C224 1.389 . S
C224 C223 1.389 . S
C224 C225 1.387 . S
C225 H210 0.930 . S
C225 C220 1.390 . S
C225 C224 1.387 . S
H226 C238 0.930 . S
H227 C240 0.930 . S
H228 C241 0.930 . S
H229 C245 0.959 . S
H230 C245 0.959 . S
H231 C245 0.961 . S
H232 C246 0.960 . S
H233 C246 0.961 . S
H234 C246 0.959 . S
H235 C249 0.929 . S
H236 C250 0.931 . S
H237 C252 0.930 . S
C238 H226 0.930 . S
C238 C239 1.399 . S
C238 C243 1.399 . S
C239 C238 1.399 . S
C239 C240 1.376 . S
C240 H227 0.930 . S
C240 C239 1.376 . S
C240 C241 1.388 . S
C241 H228 0.930 . S
C241 C240 1.388 . S
C241 C242 1.390 . S
C242 C241 1.390 . S
C242 C243 1.394 . S
C242 C248 1.465 . S
C243 C238 1.399 . S
C243 C242 1.394 . S
C243 C244 1.516 . S
C244 C243 1.516 . S
C244 C245 1.502 . S
C244 C246 1.561 . S
C244 C247 1.526 . S
C245 H229 0.959 . S
C245 H230 0.959 . S
C245 H231 0.961 . S
C245 C244 1.502 . S
C246 H232 0.960 . S
C246 H233 0.961 . S
C246 H234 0.959 . S
C246 C244 1.561 . S
C247 C244 1.526 . S
C247 C248 1.396 . S
C247 C252 1.390 . S
C248 C242 1.465 . S
C248 C247 1.396 . S
C248 C249 1.399 . S
C249 H235 0.929 . S
C249 C248 1.399 . S
C249 C250 1.385 . S
C250 H236 0.931 . S
C250 C249 1.385 . S
C250 C251 1.389 . S
C251 C250 1.389 . S
C251 C252 1.387 . S
C252 H237 0.930 . S
C252 C247 1.390 . S
C252 C251 1.387 . S
H253 C265 0.930 . S
H254 C267 0.930 . S
H255 C268 0.930 . S
H256 C272 0.959 . S
H257 C272 0.959 . S
H258 C272 0.961 . S
H259 C273 0.960 . S
H260 C273 0.961 1_545 S
H261 C273 0.959 1_545 S
H262 C276 0.929 . S
H263 C277 0.931 . S
H264 C279 0.930 . S
C265 H253 0.930 . S
C265 C266 1.399 . S
C265 C270 1.399 . S
C266 C265 1.399 . S
C266 C267 1.376 . S
C267 H254 0.930 . S
C267 C266 1.376 . S
C267 C268 1.388 . S
C268 H255 0.930 . S
C268 C267 1.388 . S
C268 C269 1.390 . S
C269 C268 1.390 . S
C269 C270 1.394 . S
C269 C275 1.465 . S
C270 C265 1.399 . S
C270 C269 1.394 . S
C270 C271 1.516 . S
C271 C270 1.516 . S
C271 C272 1.502 . S
C271 C273 1.561 . S
C271 C274 1.526 . S
C272 H256 0.959 . S
C272 H257 0.959 . S
C272 H258 0.961 . S
C272 C271 1.502 . S
C273 H259 0.960 . S
C273 H260 0.961 1_565 S
C273 H261 0.959 1_565 S
C273 C271 1.561 . S
C274 C271 1.526 . S
C274 C275 1.396 . S
C274 C279 1.390 1_565 S
C275 C269 1.465 . S
C275 C274 1.396 . S
C275 C276 1.399 . S
C276 H262 0.929 . S
C276 C275 1.399 . S
C276 C277 1.385 1_565 S
C277 H263 0.931 . S
C277 C276 1.385 1_545 S
C277 C278 1.389 . S
C278 C277 1.389 . S
C278 C279 1.387 . S
C279 H264 0.930 . S
C279 C274 1.390 1_545 S
C279 C278 1.387 . S
H280 C292 0.930 . S
H281 C294 0.930 . S
H282 C295 0.930 . S
H283 C299 0.959 . S
H284 C299 0.959 . S
H285 C299 0.961 . S
H286 C300 0.960 . S
H287 C300 0.961 . S
H288 C300 0.959 . S
H289 C303 0.929 . S
H290 C304 0.931 . S
H291 C306 0.930 . S
C292 H280 0.930 . S
C292 C293 1.399 . S
C292 C297 1.399 . S
C293 C292 1.399 . S
C293 C294 1.376 . S
C294 H281 0.930 . S
C294 C293 1.376 . S
C294 C295 1.388 . S
C295 H282 0.930 . S
C295 C294 1.388 . S
C295 C296 1.390 . S
C296 C295 1.390 . S
C296 C297 1.394 . S
C296 C302 1.465 . S
C297 C292 1.399 . S
C297 C296 1.394 . S
C297 C298 1.516 . S
C298 C297 1.516 . S
C298 C299 1.502 . S
C298 C300 1.561 . S
C298 C301 1.526 . S
C299 H283 0.959 . S
C299 H284 0.959 . S
C299 H285 0.961 . S
C299 C298 1.502 . S
C300 H286 0.960 . S
C300 H287 0.961 . S
C300 H288 0.959 . S
C300 C298 1.561 . S
C301 C298 1.526 . S
C301 C302 1.396 . S
C301 C306 1.390 . S
C302 C296 1.465 . S
C302 C301 1.396 . S
C302 C303 1.399 1_545 S
C303 H289 0.929 . S
C303 C302 1.399 1_565 S
C303 C304 1.385 . S
C304 H290 0.931 . S
C304 C303 1.385 . S
C304 C305 1.389 . S
C305 C304 1.389 . S
C305 C306 1.387 1_565 S
C306 H291 0.930 . S
C306 C301 1.390 . S
C306 C305 1.387 1_545 S
H307 C319 0.930 . S
H308 C321 0.930 . S
H309 C322 0.930 . S
H310 C326 0.959 . S
H311 C326 0.959 . S
H312 C326 0.961 . S
H313 C327 0.960 . S
H314 C327 0.961 . S
H315 C327 0.959 . S
H316 C330 0.929 . S
H317 C331 0.931 . S
H318 C333 0.930 . S
C319 H307 0.930 . S
C319 C320 1.399 . S
C319 C324 1.399 . S
C320 C319 1.399 . S
C320 C321 1.376 . S
C321 H308 0.930 . S
C321 C320 1.376 . S
C321 C322 1.388 . S
C322 H309 0.930 . S
C322 C321 1.388 . S
C322 C323 1.390 . S
C323 C322 1.390 . S
C323 C324 1.394 . S
C323 C329 1.465 . S
C324 C319 1.399 . S
C324 C323 1.394 . S
C324 C325 1.516 . S
C325 C324 1.516 . S
C325 C326 1.502 . S
C325 C327 1.561 . S
C325 C328 1.526 . S
C326 H310 0.959 . S
C326 H311 0.959 . S
C326 H312 0.961 . S
C326 C325 1.502 . S
C327 H313 0.960 . S
C327 H314 0.961 . S
C327 H315 0.959 . S
C327 C325 1.561 . S
C328 C325 1.526 . S
C328 C329 1.396 . S
C328 C333 1.390 . S
C329 C323 1.465 . S
C329 C328 1.396 . S
C329 C330 1.399 . S
C330 H316 0.929 . S
C330 C329 1.399 . S
C330 C331 1.385 . S
C331 H317 0.931 . S
C331 C330 1.385 . S
C331 C332 1.389 . S
C332 C331 1.389 . S
C332 C333 1.387 . S
C333 H318 0.930 . S
C333 C328 1.390 . S
C333 C332 1.387 . S
H334 C346 0.930 . S
H335 C348 0.930 . S
H336 C349 0.930 . S
H337 C353 0.959 . S
H338 C353 0.959 . S
H339 C353 0.961 . S
H340 C354 0.960 . S
H341 C354 0.961 . S
H342 C354 0.959 . S
H343 C357 0.929 . S
H344 C358 0.931 . S
H345 C360 0.930 . S
C346 H334 0.930 . S
C346 C347 1.399 . S
C346 C351 1.399 . S
C347 C346 1.399 . S
C347 C348 1.376 . S
C348 H335 0.930 . S
C348 C347 1.376 . S
C348 C349 1.388 . S
C349 H336 0.930 . S
C349 C348 1.388 . S
C349 C350 1.390 . S
C350 C349 1.390 . S
C350 C351 1.394 . S
C350 C356 1.465 . S
C351 C346 1.399 . S
C351 C350 1.394 . S
C351 C352 1.516 . S
C352 C351 1.516 . S
C352 C353 1.502 . S
C352 C354 1.561 . S
C352 C355 1.526 . S
C353 H337 0.959 . S
C353 H338 0.959 . S
C353 H339 0.961 . S
C353 C352 1.502 . S
C354 H340 0.960 . S
C354 H341 0.961 . S
C354 H342 0.959 . S
C354 C352 1.561 . S
C355 C352 1.526 . S
C355 C356 1.396 . S
C355 C360 1.390 . S
C356 C350 1.465 . S
C356 C355 1.396 . S
C356 C357 1.399 . S
C357 H343 0.929 . S
C357 C356 1.399 . S
C357 C358 1.385 . S
C358 H344 0.931 . S
C358 C357 1.385 . S
C358 C359 1.389 . S
C359 C358 1.389 . S
C359 C360 1.387 . S
C360 H345 0.930 . S
C360 C355 1.390 . S
C360 C359 1.387 . S
H361 C373 0.930 . S
H362 C375 0.930 . S
H363 C376 0.930 . S
H364 C380 0.959 . S
H365 C380 0.959 1_565 S
H366 C380 0.961 . S
H367 C381 0.960 . S
H368 C381 0.961 1_565 S
H369 C381 0.959 . S
H370 C384 0.929 . S
H371 C385 0.928 1_565 S
H372 C387 0.930 . S
C373 H361 0.930 . S
C373 C374 1.399 . S
C373 C378 1.399 . S
C374 C373 1.399 . S
C374 C375 1.376 . S
C375 H362 0.930 . S
C375 C374 1.376 . S
C375 C376 1.388 . S
C376 H363 0.930 . S
C376 C375 1.388 . S
C376 C377 1.390 . S
C377 C376 1.390 . S
C377 C378 1.394 . S
C377 C383 1.465 . S
C378 C373 1.399 . S
C378 C377 1.394 . S
C378 C379 1.516 . S
C379 C378 1.516 . S
C379 C380 1.502 . S
C379 C381 1.561 . S
C379 C382 1.526 . S
C380 H364 0.959 . S
C380 H365 0.959 1_545 S
C380 H366 0.961 . S
C380 C379 1.502 . S
C381 H367 0.960 . S
C381 H368 0.961 1_545 S
C381 H369 0.959 . S
C381 C379 1.561 . S
C382 C379 1.526 . S
C382 C383 1.396 . S
C382 C387 1.390 1_545 S
C383 C377 1.465 . S
C383 C382 1.396 . S
C383 C384 1.399 . S
C384 H370 0.929 . S
C384 C383 1.399 . S
C384 C385 1.385 . S
C385 H371 0.928 1_545 S
C385 C384 1.385 . S
C385 C386 1.389 1_545 S
C386 C385 1.389 1_565 S
C386 C387 1.387 . S
C387 H372 0.930 . S
C387 C382 1.390 1_565 S
C387 C386 1.387 . S
H388 C400 0.930 . S
H389 C402 0.930 . S
H390 C403 0.929 1_556 S
H391 C407 0.959 . S
H392 C407 0.959 . S
H393 C407 0.961 . S
H394 C408 0.960 . S
H395 C408 0.961 . S
H396 C408 0.959 . S
H397 C411 0.929 . S
H398 C412 0.931 . S
H399 C414 0.930 . S
C400 H388 0.930 . S
C400 C401 1.399 1_554 S
C400 C405 1.399 . S
C401 C400 1.399 1_556 S
C401 C402 1.376 . S
C402 H389 0.930 . S
C402 C401 1.376 . S
C402 C403 1.379 1_556 S
C403 H390 0.929 1_554 S
C403 C402 1.379 1_554 S
C403 C404 1.400 . S
C404 C403 1.400 . S
C404 C405 1.394 . S
C404 C410 1.465 . S
C405 C400 1.399 . S
C405 C404 1.394 . S
C405 C406 1.516 . S
C406 C405 1.516 . S
C406 C407 1.502 . S
C406 C408 1.561 . S
C406 C409 1.526 . S
C407 H391 0.959 . S
C407 H392 0.959 . S
C407 H393 0.961 . S
C407 C406 1.502 . S
C408 H394 0.960 . S
C408 H395 0.961 . S
C408 H396 0.959 . S
C408 C406 1.561 . S
C409 C406 1.526 . S
C409 C410 1.396 . S
C409 C414 1.390 . S
C410 C404 1.465 . S
C410 C409 1.396 . S
C410 C411 1.399 . S
C411 H397 0.929 . S
C411 C410 1.399 . S
C411 C412 1.385 . S
C412 H398 0.931 . S
C412 C411 1.385 . S
C412 C413 1.389 . S
C413 C412 1.389 . S
C413 C414 1.387 . S
C414 H399 0.930 . S
C414 C409 1.390 . S
C414 C413 1.387 . S
H415 C427 0.930 . S
H416 C429 0.930 . S
H417 C430 0.930 . S
H418 C434 0.959 . S
H419 C434 0.959 . S
H420 C434 0.961 . S
H421 C435 0.960 . S
H422 C435 0.961 . S
H423 C435 0.959 . S
H424 C438 0.929 . S
H425 C439 0.931 . S
H426 C441 0.930 . S
C427 H415 0.930 . S
C427 C428 1.399 . S
C427 C432 1.399 . S
C428 C427 1.399 . S
C428 C429 1.376 . S
C429 H416 0.930 . S
C429 C428 1.376 . S
C429 C430 1.388 . S
C430 H417 0.930 . S
C430 C429 1.388 . S
C430 C431 1.390 . S
C431 C430 1.390 . S
C431 C432 1.394 . S
C431 C437 1.465 . S
C432 C427 1.399 . S
C432 C431 1.394 . S
C432 C433 1.516 . S
C433 C432 1.516 . S
C433 C434 1.502 . S
C433 C435 1.561 . S
C433 C436 1.526 . S
C434 H418 0.959 . S
C434 H419 0.959 . S
C434 H420 0.961 . S
C434 C433 1.502 . S
C435 H421 0.960 . S
C435 H422 0.961 . S
C435 H423 0.959 . S
C435 C433 1.561 . S
C436 C433 1.526 . S
C436 C437 1.396 . S
C436 C441 1.390 . S
C437 C431 1.465 . S
C437 C436 1.396 . S
C437 C438 1.399 . S
C438 H424 0.929 . S
C438 C437 1.399 . S
C438 C439 1.385 . S
C439 H425 0.931 . S
C439 C438 1.385 . S
C439 C440 1.389 . S
C440 C439 1.389 . S
C440 C441 1.387 . S
C441 H426 0.930 . S
C441 C436 1.390 . S
C441 C440 1.387 . S
H442 C454 0.930 . S
H443 C456 0.930 . S
H444 C457 0.930 . S
H445 C461 0.959 . S
H446 C461 0.959 . S
H447 C461 0.961 . S
H448 C462 0.960 . S
H449 C462 0.961 . S
H450 C462 0.959 . S
H451 C465 0.929 . S
H452 C466 0.931 . S
H453 C468 0.930 . S
C454 H442 0.930 . S
C454 C455 1.399 . S
C454 C459 1.399 1_554 S
C455 C454 1.399 . S
C455 C456 1.376 . S
C456 H443 0.930 . S
C456 C455 1.376 . S
C456 C457 1.388 1_554 S
C457 H444 0.930 . S
C457 C456 1.388 1_556 S
C457 C458 1.390 . S
C458 C457 1.390 . S
C458 C459 1.394 . S
C458 C464 1.465 . S
C459 C454 1.399 1_556 S
C459 C458 1.394 . S
C459 C460 1.516 . S
C460 C459 1.516 . S
C460 C461 1.502 . S
C460 C462 1.561 . S
C460 C463 1.526 . S
C461 H445 0.959 . S
C461 H446 0.959 . S
C461 H447 0.961 . S
C461 C460 1.502 . S
C462 H448 0.960 . S
C462 H449 0.961 . S
C462 H450 0.959 . S
C462 C460 1.561 . S
C463 C460 1.526 . S
C463 C464 1.396 . S
C463 C468 1.390 . S
C464 C458 1.465 . S
C464 C463 1.396 . S
C464 C465 1.399 . S
C465 H451 0.929 . S
C465 C464 1.399 . S
C465 C466 1.385 . S
C466 H452 0.931 . S
C466 C465 1.385 . S
C466 C467 1.389 . S
C467 C466 1.389 . S
C467 C468 1.387 . S
C468 H453 0.930 . S
C468 C463 1.390 . S
C468 C467 1.387 . S
H469 C481 0.930 . S
H470 C483 0.930 . S
H471 C484 0.930 . S
H472 C488 0.959 . S
H473 C488 0.959 . S
H474 C488 0.961 . S
H475 C489 0.960 . S
H476 C489 0.961 . S
H477 C489 0.959 . S
H478 C492 0.929 . S
H479 C493 0.931 . S
H480 C495 0.930 . S
C481 H469 0.930 . S
C481 C482 1.399 . S
C481 C486 1.399 . S
C482 C481 1.399 . S
C482 C483 1.376 . S
C483 H470 0.930 . S
C483 C482 1.376 . S
C483 C484 1.388 . S
C484 H471 0.930 . S
C484 C483 1.388 . S
C484 C485 1.390 . S
C485 C484 1.390 . S
C485 C486 1.394 . S
C485 C491 1.465 . S
C486 C481 1.399 . S
C486 C485 1.394 . S
C486 C487 1.516 . S
C487 C486 1.516 . S
C487 C488 1.502 . S
C487 C489 1.561 . S
C487 C490 1.526 . S
C488 H472 0.959 . S
C488 H473 0.959 . S
C488 H474 0.961 . S
C488 C487 1.502 . S
C489 H475 0.960 . S
C489 H476 0.961 . S
C489 H477 0.959 . S
C489 C487 1.561 . S
C490 C487 1.526 . S
C490 C491 1.396 . S
C490 C495 1.390 . S
C491 C485 1.465 . S
C491 C490 1.396 . S
C491 C492 1.399 . S
C492 H478 0.929 . S
C492 C491 1.399 . S
C492 C493 1.385 . S
C493 H479 0.931 . S
C493 C492 1.385 . S
C493 C494 1.389 . S
C494 C493 1.389 . S
C494 C495 1.387 . S
C495 H480 0.930 . S
C495 C490 1.390 . S
C495 C494 1.387 . S
H496 C508 0.930 . S
H497 C510 0.930 . S
H498 C511 0.930 . S
H499 C515 0.959 . S
H500 C515 0.959 . S
H501 C515 0.961 . S
H502 C516 0.960 . S
H503 C516 0.961 . S
H504 C516 0.959 . S
H505 C519 0.929 . S
H506 C520 0.931 . S
H507 C522 0.930 . S
C508 H496 0.930 . S
C508 C509 1.399 . S
C508 C513 1.399 1_554 S
C509 C508 1.399 . S
C509 C510 1.376 . S
C510 H497 0.930 . S
C510 C509 1.376 . S
C510 C511 1.388 1_554 S
C511 H498 0.930 . S
C511 C510 1.388 1_556 S
C511 C512 1.390 . S
C512 C511 1.390 . S
C512 C513 1.394 . S
C512 C518 1.465 . S
C513 C508 1.399 1_556 S
C513 C512 1.394 . S
C513 C514 1.516 . S
C514 C513 1.516 . S
C514 C515 1.502 . S
C514 C516 1.561 . S
C514 C517 1.526 . S
C515 H499 0.959 . S
C515 H500 0.959 . S
C515 H501 0.961 . S
C515 C514 1.502 . S
C516 H502 0.960 . S
C516 H503 0.961 . S
C516 H504 0.959 . S
C516 C514 1.561 . S
C517 C514 1.526 . S
C517 C518 1.396 . S
C517 C522 1.390 . S
C518 C512 1.465 . S
C518 C517 1.396 . S
C518 C519 1.399 . S
C519 H505 0.929 . S
C519 C518 1.399 . S
C519 C520 1.385 . S
C520 H506 0.931 . S
C520 C519 1.385 . S
C520 C521 1.389 . S
C521 C520 1.389 . S
C521 C522 1.387 . S
C522 H507 0.930 . S
C522 C517 1.390 . S
C522 C521 1.387 . S
H523 C535 0.930 . S
H524 C537 0.930 . S
H525 C538 0.930 . S
H526 C542 0.959 . S
H527 C542 0.959 . S
H528 C542 0.961 . S
H529 C543 0.960 . S
H530 C543 0.961 . S
H531 C543 0.959 . S
H532 C546 0.929 . S
H533 C547 0.931 . S
H534 C549 0.930 . S
C535 H523 0.930 . S
C535 C536 1.399 . S
C535 C540 1.399 . S
C536 C535 1.399 . S
C536 C537 1.376 . S
C537 H524 0.930 . S
C537 C536 1.376 . S
C537 C538 1.388 . S
C538 H525 0.930 . S
C538 C537 1.388 . S
C538 C539 1.390 . S
C539 C538 1.390 . S
C539 C540 1.394 . S
C539 C545 1.465 . S
C540 C535 1.399 . S
C540 C539 1.394 . S
C540 C541 1.516 . S
C541 C540 1.516 . S
C541 C542 1.502 . S
C541 C543 1.561 . S
C541 C544 1.526 . S
C542 H526 0.959 . S
C542 H527 0.959 . S
C542 H528 0.961 . S
C542 C541 1.502 . S
C543 H529 0.960 . S
C543 H530 0.961 . S
C543 H531 0.959 . S
C543 C541 1.561 . S
C544 C541 1.526 . S
C544 C545 1.396 . S
C544 C549 1.390 . S
C545 C539 1.465 . S
C545 C544 1.396 . S
C545 C546 1.399 . S
C546 H532 0.929 . S
C546 C545 1.399 . S
C546 C547 1.385 . S
C547 H533 0.931 . S
C547 C546 1.385 . S
C547 C548 1.389 . S
C548 C547 1.389 . S
C548 C549 1.387 . S
C549 H534 0.930 . S
C549 C544 1.390 . S
C549 C548 1.387 . S
H550 C562 0.930 . S
H551 C564 0.930 . S
H552 C565 0.930 . S
H553 C569 0.959 . S
H554 C569 0.959 . S
H555 C569 0.961 . S
H556 C570 0.960 . S
H557 C570 0.961 . S
H558 C570 0.959 . S
H559 C573 0.929 . S
H560 C574 0.931 . S
H561 C576 0.930 . S
C562 H550 0.930 . S
C562 C563 1.399 . S
C562 C567 1.399 1_556 S
C563 C562 1.399 . S
C563 C564 1.376 . S
C564 H551 0.930 . S
C564 C563 1.376 . S
C564 C565 1.388 1_556 S
C565 H552 0.930 . S
C565 C564 1.388 1_554 S
C565 C566 1.390 . S
C566 C565 1.390 . S
C566 C567 1.394 . S
C566 C572 1.465 . S
C567 C562 1.399 1_554 S
C567 C566 1.394 . S
C567 C568 1.516 . S
C568 C567 1.516 . S
C568 C569 1.502 . S
C568 C570 1.561 . S
C568 C571 1.526 . S
C569 H553 0.959 . S
C569 H554 0.959 . S
C569 H555 0.961 . S
C569 C568 1.502 . S
C570 H556 0.960 . S
C570 H557 0.961 . S
C570 H558 0.959 . S
C570 C568 1.561 . S
C571 C568 1.526 . S
C571 C572 1.396 . S
C571 C576 1.390 . S
C572 C566 1.465 . S
C572 C571 1.396 . S
C572 C573 1.399 . S
C573 H559 0.929 . S
C573 C572 1.399 . S
C573 C574 1.385 . S
C574 H560 0.931 . S
C574 C573 1.385 . S
C574 C575 1.389 . S
C575 C574 1.389 . S
C575 C576 1.387 . S
C576 H561 0.930 . S
C576 C571 1.390 . S
C576 C575 1.387 . S
H577 C589 0.930 . S
H578 C591 0.930 . S
H579 C592 0.930 . S
H580 C596 0.959 . S
H581 C596 0.959 . S
H582 C596 0.961 . S
H583 C597 0.960 . S
H584 C597 0.961 . S
H585 C597 0.959 . S
H586 C600 0.929 . S
H587 C601 0.931 . S
H588 C603 0.930 . S
C589 H577 0.930 . S
C589 C590 1.399 . S
C589 C594 1.399 . S
C590 C589 1.399 . S
C590 C591 1.376 . S
C591 H578 0.930 . S
C591 C590 1.376 . S
C591 C592 1.388 . S
C592 H579 0.930 . S
C592 C591 1.388 . S
C592 C593 1.390 . S
C593 C592 1.390 . S
C593 C594 1.394 . S
C593 C599 1.465 . S
C594 C589 1.399 . S
C594 C593 1.394 . S
C594 C595 1.516 . S
C595 C594 1.516 . S
C595 C596 1.502 . S
C595 C597 1.561 . S
C595 C598 1.526 . S
C596 H580 0.959 . S
C596 H581 0.959 . S
C596 H582 0.961 . S
C596 C595 1.502 . S
C597 H583 0.960 . S
C597 H584 0.961 . S
C597 H585 0.959 . S
C597 C595 1.561 . S
C598 C595 1.526 . S
C598 C599 1.396 . S
C598 C603 1.390 . S
C599 C593 1.465 . S
C599 C598 1.396 . S
C599 C600 1.399 . S
C600 H586 0.929 . S
C600 C599 1.399 . S
C600 C601 1.385 . S
C601 H587 0.931 . S
C601 C600 1.385 . S
C601 C602 1.389 . S
C602 C601 1.389 . S
C602 C603 1.387 . S
C603 H588 0.930 . S
C603 C598 1.390 . S
C603 C602 1.387 . S
H604 C616 0.930 . S
H605 C618 0.930 . S
H606 C619 0.930 . S
H607 C623 0.959 . S
H608 C623 0.959 . S
H609 C623 0.961 . S
H610 C624 0.960 . S
H611 C624 0.961 . S
H612 C624 0.959 . S
H613 C627 0.929 . S
H614 C628 0.931 . S
H615 C630 0.930 . S
C616 H604 0.930 . S
C616 C617 1.399 . S
C616 C621 1.399 . S
C617 C616 1.399 . S
C617 C618 1.376 . S
C618 H605 0.930 . S
C618 C617 1.376 . S
C618 C619 1.388 . S
C619 H606 0.930 . S
C619 C618 1.388 . S
C619 C620 1.390 . S
C620 C619 1.390 . S
C620 C621 1.394 . S
C620 C626 1.465 . S
C621 C616 1.399 . S
C621 C620 1.394 . S
C621 C622 1.516 . S
C622 C621 1.516 . S
C622 C623 1.502 . S
C622 C624 1.561 . S
C622 C625 1.526 . S
C623 H607 0.959 . S
C623 H608 0.959 . S
C623 H609 0.961 . S
C623 C622 1.502 . S
C624 H610 0.960 . S
C624 H611 0.961 . S
C624 H612 0.959 . S
C624 C622 1.561 . S
C625 C622 1.526 . S
C625 C626 1.396 . S
C625 C630 1.390 . S
C626 C620 1.465 . S
C626 C625 1.396 . S
C626 C627 1.399 . S
C627 H613 0.929 . S
C627 C626 1.399 . S
C627 C628 1.385 . S
C628 H614 0.931 . S
C628 C627 1.385 . S
C628 C629 1.389 . S
C629 C628 1.389 . S
C629 C630 1.387 . S
C630 H615 0.930 . S
C630 C625 1.390 . S
C630 C629 1.387 . S
H631 C643 0.930 . S
H632 C645 0.930 . S
H633 C646 0.930 . S
H634 C650 0.959 . S
H635 C650 0.959 . S
H636 C650 0.961 . S
H637 C651 0.960 . S
H638 C651 0.961 . S
H639 C651 0.959 . S
H640 C654 0.929 . S
H641 C655 0.931 . S
H642 C657 0.930 . S
C643 H631 0.930 . S
C643 C644 1.399 . S
C643 C648 1.399 . S
C644 C643 1.399 . S
C644 C645 1.376 . S
C645 H632 0.930 . S
C645 C644 1.376 . S
C645 C646 1.388 . S
C646 H633 0.930 . S
C646 C645 1.388 . S
C646 C647 1.390 . S
C647 C646 1.390 . S
C647 C648 1.394 . S
C647 C653 1.465 . S
C648 C643 1.399 . S
C648 C647 1.394 . S
C648 C649 1.516 . S
C649 C648 1.516 . S
C649 C650 1.502 . S
C649 C651 1.561 . S
C649 C652 1.526 . S
C650 H634 0.959 . S
C650 H635 0.959 . S
C650 H636 0.961 . S
C650 C649 1.502 . S
C651 H637 0.960 . S
C651 H638 0.961 . S
C651 H639 0.959 . S
C651 C649 1.561 . S
C652 C649 1.526 . S
C652 C653 1.396 . S
C652 C657 1.390 . S
C653 C647 1.465 . S
C653 C652 1.396 . S
C653 C654 1.399 . S
C654 H640 0.929 . S
C654 C653 1.399 . S
C654 C655 1.385 . S
C655 H641 0.931 . S
C655 C654 1.385 . S
C655 C656 1.389 . S
C656 C655 1.389 . S
C656 C657 1.387 . S
C657 H642 0.930 . S
C657 C652 1.390 . S
C657 C656 1.387 . S
H658 C670 0.930 . S
H659 C672 0.930 . S
H660 C673 0.930 . S
H661 C677 0.959 . S
H662 C677 0.959 . S
H663 C677 0.961 . S
H664 C678 0.960 . S
H665 C678 0.961 . S
H666 C678 0.959 . S
H667 C681 0.929 . S
H668 C682 0.931 . S
H669 C684 0.930 . S
C670 H658 0.930 . S
C670 C671 1.399 . S
C670 C675 1.399 . S
C671 C670 1.399 . S
C671 C672 1.376 . S
C672 H659 0.930 . S
C672 C671 1.376 . S
C672 C673 1.388 . S
C673 H660 0.930 . S
C673 C672 1.388 . S
C673 C674 1.390 . S
C674 C673 1.390 . S
C674 C675 1.394 . S
C674 C680 1.465 . S
C675 C670 1.399 . S
C675 C674 1.394 . S
C675 C676 1.516 . S
C676 C675 1.516 . S
C676 C677 1.502 . S
C676 C678 1.561 . S
C676 C679 1.526 . S
C677 H661 0.959 . S
C677 H662 0.959 . S
C677 H663 0.961 . S
C677 C676 1.502 . S
C678 H664 0.960 . S
C678 H665 0.961 . S
C678 H666 0.959 . S
C678 C676 1.561 . S
C679 C676 1.526 . S
C679 C680 1.396 . S
C679 C684 1.390 . S
C680 C674 1.465 . S
C680 C679 1.396 . S
C680 C681 1.399 . S
C681 H667 0.929 . S
C681 C680 1.399 . S
C681 C682 1.385 . S
C682 H668 0.931 . S
C682 C681 1.385 . S
C682 C683 1.389 . S
C683 C682 1.389 . S
C683 C684 1.387 . S
C684 H669 0.930 . S
C684 C679 1.390 . S
C684 C683 1.387 . S
H685 C697 0.930 . S
H686 C699 0.930 . S
H687 C700 0.930 . S
H688 C704 0.959 . S
H689 C704 0.959 . S
H690 C704 0.961 . S
H691 C705 0.960 . S
H692 C705 0.961 . S
H693 C705 0.959 . S
H694 C708 0.929 . S
H695 C709 0.931 . S
H696 C711 0.930 . S
C697 H685 0.930 . S
C697 C698 1.399 . S
C697 C702 1.399 . S
C698 C697 1.399 . S
C698 C699 1.376 . S
C699 H686 0.930 . S
C699 C698 1.376 . S
C699 C700 1.388 . S
C700 H687 0.930 . S
C700 C699 1.388 . S
C700 C701 1.390 . S
C701 C700 1.390 . S
C701 C702 1.394 . S
C701 C707 1.465 . S
C702 C697 1.399 . S
C702 C701 1.394 . S
C702 C703 1.516 . S
C703 C702 1.516 . S
C703 C704 1.502 . S
C703 C705 1.561 . S
C703 C706 1.526 . S
C704 H688 0.959 . S
C704 H689 0.959 . S
C704 H690 0.961 . S
C704 C703 1.502 . S
C705 H691 0.960 . S
C705 H692 0.961 . S
C705 H693 0.959 . S
C705 C703 1.561 . S
C706 C703 1.526 . S
C706 C707 1.396 . S
C706 C711 1.390 . S
C707 C701 1.465 . S
C707 C706 1.396 . S
C707 C708 1.399 . S
C708 H694 0.929 . S
C708 C707 1.399 . S
C708 C709 1.385 . S
C709 H695 0.931 . S
C709 C708 1.385 . S
C709 C710 1.389 . S
C710 C709 1.389 . S
C710 C711 1.387 . S
C711 H696 0.930 . S
C711 C706 1.390 . S
C711 C710 1.387 . S
H712 C724 0.930 . S
H713 C726 0.930 . S
H714 C727 0.930 . S
H715 C731 0.959 . S
H716 C731 0.959 . S
H717 C731 0.961 . S
H718 C732 0.960 . S
H719 C732 0.961 . S
H720 C732 0.959 . S
H721 C735 0.929 . S
H722 C736 0.931 . S
H723 C738 0.930 . S
C724 H712 0.930 . S
C724 C725 1.399 . S
C724 C729 1.399 . S
C725 C724 1.399 . S
C725 C726 1.376 . S
C726 H713 0.930 . S
C726 C725 1.376 . S
C726 C727 1.388 . S
C727 H714 0.930 . S
C727 C726 1.388 . S
C727 C728 1.390 . S
C728 C727 1.390 . S
C728 C729 1.394 . S
C728 C734 1.465 . S
C729 C724 1.399 . S
C729 C728 1.394 . S
C729 C730 1.516 . S
C730 C729 1.516 . S
C730 C731 1.502 . S
C730 C732 1.561 . S
C730 C733 1.526 . S
C731 H715 0.959 . S
C731 H716 0.959 . S
C731 H717 0.961 . S
C731 C730 1.502 . S
C732 H718 0.960 . S
C732 H719 0.961 . S
C732 H720 0.959 . S
C732 C730 1.561 . S
C733 C730 1.526 . S
C733 C734 1.396 . S
C733 C738 1.390 . S
C734 C728 1.465 . S
C734 C733 1.396 . S
C734 C735 1.399 . S
C735 H721 0.929 . S
C735 C734 1.399 . S
C735 C736 1.385 . S
C736 H722 0.931 . S
C736 C735 1.385 . S
C736 C737 1.389 . S
C737 C736 1.389 . S
C737 C738 1.387 . S
C738 H723 0.930 . S
C738 C733 1.390 . S
C738 C737 1.387 . S
H739 C751 0.930 . S
H740 C753 0.930 . S
H741 C754 0.930 . S
H742 C758 0.959 . S
H743 C758 0.959 . S
H744 C758 0.961 . S
H745 C759 0.960 . S
H746 C759 0.961 . S
H747 C759 0.959 . S
H748 C762 0.929 . S
H749 C763 0.931 . S
H750 C765 0.930 . S
C751 H739 0.930 . S
C751 C752 1.399 . S
C751 C756 1.399 . S
C752 C751 1.399 . S
C752 C753 1.376 . S
C753 H740 0.930 . S
C753 C752 1.376 . S
C753 C754 1.388 . S
C754 H741 0.930 . S
C754 C753 1.388 . S
C754 C755 1.390 . S
C755 C754 1.390 . S
C755 C756 1.394 . S
C755 C761 1.465 . S
C756 C751 1.399 . S
C756 C755 1.394 . S
C756 C757 1.516 . S
C757 C756 1.516 . S
C757 C758 1.502 . S
C757 C759 1.561 . S
C757 C760 1.526 . S
C758 H742 0.959 . S
C758 H743 0.959 . S
C758 H744 0.961 . S
C758 C757 1.502 . S
C759 H745 0.960 . S
C759 H746 0.961 . S
C759 H747 0.959 . S
C759 C757 1.561 . S
C760 C757 1.526 . S
C760 C761 1.396 . S
C760 C765 1.390 . S
C761 C755 1.465 . S
C761 C760 1.396 . S
C761 C762 1.399 . S
C762 H748 0.929 . S
C762 C761 1.399 . S
C762 C763 1.385 . S
C763 H749 0.931 . S
C763 C762 1.385 . S
C763 C764 1.389 . S
C764 C763 1.389 . S
C764 C765 1.387 . S
C765 H750 0.930 . S
C765 C760 1.390 . S
C765 C764 1.387 . S
H766 C778 0.930 . S
H767 C780 0.930 . S
H768 C781 0.930 . S
H769 C785 0.959 . S
H770 C785 0.959 . S
H771 C785 0.961 . S
H772 C786 0.960 . S
H773 C786 0.961 . S
H774 C786 0.959 . S
H775 C789 0.929 . S
H776 C790 0.931 . S
H777 C792 0.930 . S
C778 H766 0.930 . S
C778 C779 1.399 . S
C778 C783 1.399 . S
C779 C778 1.399 . S
C779 C780 1.376 . S
C780 H767 0.930 . S
C780 C779 1.376 . S
C780 C781 1.388 . S
C781 H768 0.930 . S
C781 C780 1.388 . S
C781 C782 1.390 . S
C782 C781 1.390 . S
C782 C783 1.394 . S
C782 C788 1.465 . S
C783 C778 1.399 . S
C783 C782 1.394 . S
C783 C784 1.516 . S
C784 C783 1.516 . S
C784 C785 1.502 . S
C784 C786 1.561 . S
C784 C787 1.526 . S
C785 H769 0.959 . S
C785 H770 0.959 . S
C785 H771 0.961 . S
C785 C784 1.502 . S
C786 H772 0.960 . S
C786 H773 0.961 . S
C786 H774 0.959 . S
C786 C784 1.561 . S
C787 C784 1.526 . S
C787 C788 1.396 . S
C787 C792 1.390 . S
C788 C782 1.465 . S
C788 C787 1.396 . S
C788 C789 1.399 . S
C789 H775 0.929 . S
C789 C788 1.399 . S
C789 C790 1.385 . S
C790 H776 0.931 . S
C790 C789 1.385 . S
C790 C791 1.389 . S
C791 C790 1.389 . S
C791 C792 1.387 . S
C792 H777 0.930 . S
C792 C787 1.390 . S
C792 C791 1.387 . S
H793 C805 0.930 . S
H794 C807 0.930 . S
H795 C808 0.930 . S
H796 C812 0.959 . S
H797 C812 0.959 . S
H798 C812 0.961 . S
H799 C813 0.960 . S
H800 C813 0.961 . S
H801 C813 0.959 . S
H802 C816 0.929 . S
H803 C817 0.931 . S
H804 C819 0.930 . S
C805 H793 0.930 . S
C805 C806 1.399 . S
C805 C810 1.399 . S
C806 C805 1.399 . S
C806 C807 1.376 . S
C807 H794 0.930 . S
C807 C806 1.376 . S
C807 C808 1.388 . S
C808 H795 0.930 . S
C808 C807 1.388 . S
C808 C809 1.390 . S
C809 C808 1.390 . S
C809 C810 1.394 . S
C809 C815 1.465 . S
C810 C805 1.399 . S
C810 C809 1.394 . S
C810 C811 1.516 . S
C811 C810 1.516 . S
C811 C812 1.502 . S
C811 C813 1.561 . S
C811 C814 1.526 . S
C812 H796 0.959 . S
C812 H797 0.959 . S
C812 H798 0.961 . S
C812 C811 1.502 . S
C813 H799 0.960 . S
C813 H800 0.961 . S
C813 H801 0.959 . S
C813 C811 1.561 . S
C814 C811 1.526 . S
C814 C815 1.396 . S
C814 C819 1.390 . S
C815 C809 1.465 . S
C815 C814 1.396 . S
C815 C816 1.399 . S
C816 H802 0.929 . S
C816 C815 1.399 . S
C816 C817 1.385 . S
C817 H803 0.931 . S
C817 C816 1.385 . S
C817 C818 1.389 . S
C818 C817 1.389 . S
C818 C819 1.387 . S
C819 H804 0.930 . S
C819 C814 1.390 . S
C819 C818 1.387 . S
C185 C71 1.448 . S
C197 C104 1.385 . S
C224 C112 1.330 . S
C212 C81 1.379 . S
C251 C116 1.404 . S
C239 C49 1.458 . S
C266 C59 1.376 . S
C278 C92 1.303 . S
C305 C133 1.293 . S
C293 C27 1.401 . S
C332 C167 1.334 . S
C320 C38 1.432 . S
C347 C5 1.382 . S
C359 C155 1.282 . S
C374 C16 1.436 . S
C386 C137 1.422 . S
C413 C91 1.233 . S
C401 C15 1.408 . S
C440 C125 1.357 . S
C428 C4 1.459 . S
C467 C129 1.314 . S
C455 C37 1.434 . S
C494 C107 1.351 . S
C482 C26 1.458 . S
C521 C146 1.398 . S
C509 C60 1.484 . S
C536 C48 1.478 . S
C548 C154 1.363 . S
C575 C170 1.389 . S
C563 C82 1.482 . S
C590 C70 1.487 . S
C602 C150 1.394 . S
C629 C95 1.336 . S
C617 C10 1.468 . S
C656 C113 1.361 . S
C644 C21 1.538 . S
C671 C32 1.460 . S
C683 C128 1.387 . S
C710 C108 1.435 . S
C698 C43 1.518 . S
C737 C134 1.448 . S
C725 C54 1.558 . S
C752 C65 1.499 . S
C764 C158 1.287 . S
C779 C76 1.554 . S
C791 C171 1.443 . S
C806 C87 1.513 . S
C818 C149 1.402 . S
