# Generated by pormake.
# Topology pyr, (3,6)-cn, num edge types: 1
# Building blocks:
#     Node 0, Type 0, BuildingBlock: BETDAH_clean_linker_0, # of connection points: 3
#     Node 1, Type 0, BuildingBlock: BETDAH_clean_linker_0, # of connection points: 3
#     Node 2, Type 0, BuildingBlock: BETDAH_clean_linker_0, # of connection points: 3
#     Node 3, Type 0, BuildingBlock: BETDAH_clean_linker_0, # of connection points: 3
#     Node 4, Type 0, BuildingBlock: BETDAH_clean_linker_0, # of connection points: 3
#     Node 5, Type 0, BuildingBlock: BETDAH_clean_linker_0, # of connection points: 3
#     Node 6, Type 0, BuildingBlock: BETDAH_clean_linker_0, # of connection points: 3
#     Node 7, Type 0, BuildingBlock: BETDAH_clean_linker_0, # of connection points: 3
#     Node 8, Type 1, BuildingBlock: BETDAH_clean_sbu_0, # of connection points: 6
#     Node 9, Type 1, BuildingBlock: BETDAH_clean_sbu_0, # of connection points: 6
#     Node 10, Type 1, BuildingBlock: BETDAH_clean_sbu_0, # of connection points: 6
#     Node 11, Type 1, BuildingBlock: BETDAH_clean_sbu_0, # of connection points: 6
#     Edge 12, Type (0, 1), BuildingBlock: XIVTED_clean_linker_0, # of connection points: 2
#     Edge 13, Type (0, 1), BuildingBlock: XIVTED_clean_linker_0, # of connection points: 2
#     Edge 14, Type (0, 1), BuildingBlock: XIVTED_clean_linker_0, # of connection points: 2
#     Edge 15, Type (0, 1), BuildingBlock: XIVTED_clean_linker_0, # of connection points: 2
#     Edge 16, Type (0, 1), BuildingBlock: XIVTED_clean_linker_0, # of connection points: 2
#     Edge 17, Type (0, 1), BuildingBlock: XIVTED_clean_linker_0, # of connection points: 2
#     Edge 18, Type (0, 1), BuildingBlock: XIVTED_clean_linker_0, # of connection points: 2
#     Edge 19, Type (0, 1), BuildingBlock: XIVTED_clean_linker_0, # of connection points: 2
#     Edge 20, Type (0, 1), BuildingBlock: XIVTED_clean_linker_0, # of connection points: 2
#     Edge 21, Type (0, 1), BuildingBlock: XIVTED_clean_linker_0, # of connection points: 2
#     Edge 22, Type (0, 1), BuildingBlock: XIVTED_clean_linker_0, # of connection points: 2
#     Edge 23, Type (0, 1), BuildingBlock: XIVTED_clean_linker_0, # of connection points: 2
#     Edge 24, Type (0, 1), BuildingBlock: XIVTED_clean_linker_0, # of connection points: 2
#     Edge 25, Type (0, 1), BuildingBlock: XIVTED_clean_linker_0, # of connection points: 2
#     Edge 26, Type (0, 1), BuildingBlock: XIVTED_clean_linker_0, # of connection points: 2
#     Edge 27, Type (0, 1), BuildingBlock: XIVTED_clean_linker_0, # of connection points: 2
#     Edge 28, Type (0, 1), BuildingBlock: XIVTED_clean_linker_0, # of connection points: 2
#     Edge 29, Type (0, 1), BuildingBlock: XIVTED_clean_linker_0, # of connection points: 2
#     Edge 30, Type (0, 1), BuildingBlock: XIVTED_clean_linker_0, # of connection points: 2
#     Edge 31, Type (0, 1), BuildingBlock: XIVTED_clean_linker_0, # of connection points: 2
#     Edge 32, Type (0, 1), BuildingBlock: XIVTED_clean_linker_0, # of connection points: 2
#     Edge 33, Type (0, 1), BuildingBlock: XIVTED_clean_linker_0, # of connection points: 2
#     Edge 34, Type (0, 1), BuildingBlock: XIVTED_clean_linker_0, # of connection points: 2
#     Edge 35, Type (0, 1), BuildingBlock: XIVTED_clean_linker_0, # of connection points: 2
# Relax obj value: 0.145
# Max RMSD: 0.192
# Mean RMSD: 0.141
data_MOF--net-pyr--node1-BETDAH_clean_sbu_0--node2-BETDAH_clean_linker_0--edge1-XIVTED_clean_linker_0
_symmetry_space_group_name_H-M    P1
_symmetry_Int_Tables_number       1
_symmetry_cell_setting            triclinic
loop_
_symmetry_equiv_pos_as_xyz
'x, y, z'
_cell_length_a     37.698516
_cell_length_b     40.622228
_cell_length_c     38.405746
_cell_angle_alpha  92.101803
_cell_angle_beta   89.44504
_cell_angle_gamma 106.68743
loop_
_atom_site_label
_atom_site_type_symbol
_atom_site_fract_x
_atom_site_fract_y
_atom_site_fract_z
_atom_type_partial_charge
H0 H 0.35825 0.24656 0.27071 0.0
H1 H 0.41602 0.31512 0.19243 0.0
H2 H 0.33196 0.34099 0.25493 0.0
C3 C 0.36346 0.27062 0.2575 0.0
C4 C 0.34248 0.29316 0.26634 0.0
C5 C 0.38979 0.278 0.23064 0.0
C6 C 0.39629 0.30925 0.21364 0.0
C7 C 0.37524 0.33183 0.22187 0.0
C8 C 0.34833 0.32366 0.2483 0.0
N9 N 0.38022 0.36164 0.20203 0.0
C10 C 0.35187 0.37669 0.19766 0.0
H11 H 0.36266 0.92568 0.69821 0.0
H12 H 0.24912 0.92008 0.67909 0.0
H13 H 0.30318 0.86117 0.61369 0.0
C14 C 0.33778 0.91592 0.68263 0.0
C15 C 0.33717 0.89253 0.65464 0.0
C16 C 0.30596 0.92552 0.69183 0.0
C17 C 0.27373 0.91276 0.67185 0.0
C18 C 0.27307 0.8901 0.64308 0.0
C19 C 0.30451 0.87967 0.63505 0.0
N20 N 0.24103 0.87735 0.62204 0.0
C21 C 0.21532 0.89559 0.61948 0.0
H22 H 0.70085 0.35578 0.95707 0.0
H23 H 0.70091 0.43151 0.88027 0.0
H24 H 0.61635 0.3346 0.87876 0.0
C25 C 0.68857 0.36396 0.9349 0.0
C26 C 0.65591 0.34128 0.92061 0.0
C27 C 0.7055 0.3969 0.92121 0.0
C28 C 0.68894 0.40665 0.89135 0.0
C29 C 0.65648 0.38398 0.8761 0.0
C30 C 0.64077 0.35183 0.89102 0.0
N31 N 0.63794 0.39082 0.84572 0.0
C32 C 0.64304 0.41979 0.8251 0.0
H33 H 0.82096 0.75057 0.4584 0.0
H34 H 0.89087 0.7752 0.36821 0.0
H35 H 0.80731 0.67787 0.37138 0.0
C36 C 0.83025 0.74303 0.43339 0.0
C37 C 0.81123 0.71075 0.41793 0.0
C38 C 0.85927 0.76671 0.41611 0.0
C39 C 0.86938 0.75722 0.38252 0.0
C40 C 0.85153 0.72496 0.36651 0.0
C41 C 0.82226 0.70195 0.38429 0.0
N42 N 0.85749 0.71989 0.33011 0.0
C43 C 0.87363 0.69604 0.31416 0.0
H44 H 0.74985 0.78738 0.86131 0.0
H45 H 0.67152 0.75344 0.9438 0.0
H46 H 0.65074 0.81944 0.86605 0.0
C47 C 0.72342 0.78627 0.87339 0.0
C48 C 0.7009 0.80454 0.85931 0.0
C49 C 0.71339 0.76821 0.90403 0.0
C50 C 0.67936 0.76697 0.91984 0.0
C51 C 0.65694 0.78583 0.90658 0.0
C52 C 0.66788 0.80475 0.87634 0.0
N53 N 0.62459 0.78697 0.92511 0.0
C54 C 0.61331 0.81665 0.92753 0.0
H55 H 0.82176 0.21754 0.40772 0.0
H56 H 0.88972 0.29317 0.47905 0.0
H57 H 0.82323 0.32343 0.40294 0.0
C58 C 0.83205 0.24402 0.41728 0.0
C59 C 0.81973 0.26952 0.40193 0.0
C60 C 0.85723 0.25226 0.44504 0.0
C61 C 0.87043 0.28651 0.45741 0.0
C62 C 0.85795 0.31216 0.44267 0.0
C63 C 0.83283 0.30366 0.41461 0.0
N64 N 0.8696 0.34599 0.45748 0.0
C65 C 0.8448 0.36527 0.46151 0.0
H66 H 0.33404 0.77022 0.18989 0.0
H67 H 0.3382 0.6942 0.26477 0.0
H68 H 0.42651 0.78852 0.25955 0.0
C69 C 0.34791 0.76192 0.21097 0.0
C70 C 0.38206 0.78393 0.22301 0.0
C71 C 0.33124 0.7295 0.22565 0.0
C72 C 0.35018 0.71882 0.25317 0.0
C73 C 0.38467 0.74041 0.26565 0.0
C74 C 0.39988 0.77249 0.25026 0.0
N75 N 0.4065 0.73173 0.29253 0.0
C76 C 0.39912 0.70504 0.31639 0.0
H77 H 0.20802 0.3767 0.68216 0.0
H78 H 0.2236 0.44711 0.77133 0.0
H79 H 0.1368 0.35168 0.77138 0.0
C80 C 0.19889 0.38393 0.70737 0.0
C81 C 0.16899 0.36056 0.72386 0.0
C82 C 0.2189 0.41539 0.72383 0.0
C83 C 0.20796 0.4237 0.7577 0.0
C84 C 0.17784 0.40094 0.77472 0.0
C85 C 0.15903 0.36949 0.75769 0.0
N86 N 0.17136 0.40512 0.81116 0.0
C87 C 0.15825 0.43059 0.82801 0.0
Ho88 Ho 0.02678 0.08013 0.53214 0.0
Ho89 Ho 0.99004 0.05315 0.60146 0.0
C90 C 0.048 0.13055 0.59928 0.0
C91 C 0.04478 0.10197 0.47027 0.0
C92 C 0.07616 0.12722 0.45401 0.0
C93 C 0.06969 0.15423 0.43575 0.0
C94 C 0.09883 0.17789 0.41932 0.0
C95 C 0.13503 0.17483 0.42057 0.0
C96 C 0.14146 0.14793 0.43925 0.0
C97 C 0.11239 0.12447 0.45589 0.0
C98 C 0.06884 0.05567 0.57482 0.0
C99 C 0.9705 1.00174 0.53482 0.0
C100 C 0.97024 0.03218 0.66315 0.0
C101 C 0.9366 1.00868 0.67797 0.0
C102 C 0.93947 0.98051 0.69659 0.0
C103 C 0.90789 0.9577 0.71045 0.0
C104 C 0.87287 0.96282 0.70619 0.0
C105 C 0.87 0.99109 0.68764 0.0
C106 C 0.90154 1.01372 0.67347 0.0
C107 C 0.94795 0.07633 0.55785 0.0
O108 O 0.04559 0.12904 0.56485 0.0
O109 O 0.0335 0.10297 0.61794 0.0
O110 O 0.05118 0.07439 0.48209 0.0
O111 O 0.02392 0.11453 0.49118 0.0
O112 O 0.08211 0.08108 0.55441 0.0
O113 O 0.03465 0.04344 0.56967 0.0
O114 O 0.97217 1.00388 0.56929 0.0
O115 O 0.985 0.02907 0.51575 0.0
O116 O 0.96708 0.06111 0.65161 0.0
O117 O 0.98996 1.01797 0.64254 0.0
O118 O 0.93421 0.05249 0.57977 0.0
O119 O 0.98191 0.08894 0.56344 0.0
H120 H 0.04199 0.15692 0.43403 0.0
H121 H 0.09293 0.19854 0.40561 0.0
H122 H 0.16882 0.14439 0.44032 0.0
H123 H 0.11832 0.10395 0.46983 0.0
H124 H 0.96618 0.97615 0.70041 0.0
H125 H 0.91097 0.93636 0.72504 0.0
H126 H 0.84332 0.99548 0.68378 0.0
H127 H 0.89838 0.03508 0.65897 0.0
Ho128 Ho 0.55552 0.06935 0.08724 0.0
Ho129 Ho 0.47931 0.04932 0.05022 0.0
C130 C 0.49395 0.10065 0.11704 0.0
C131 C 0.62349 0.09362 0.10752 0.0
C132 C 0.6405 0.11558 0.13749 0.0
C133 C 0.67908 0.12801 0.1402 0.0
C134 C 0.69527 0.14935 0.1686 0.0
C135 C 0.67301 0.15851 0.19468 0.0
C136 C 0.63427 0.1462 0.19155 0.0
C137 C 0.61815 0.12494 0.16316 0.0
C138 C 0.50232 1.01687 0.11667 0.0
C139 C 0.54254 1.01916 1.0174 0.0
C140 C 0.41181 1.02051 0.03075 0.0
C141 C 0.39339 1.01882 0.99705 0.0
C142 C 0.35471 1.00767 0.99456 0.0
C143 C 0.3375 1.0049 0.96202 0.0
C144 C 0.35883 1.01322 0.93157 0.0
C145 C 0.39765 1.02516 0.93454 0.0
C146 C 0.41471 1.02804 0.96697 0.0
C147 C 0.52334 0.10897 0.02244 0.0
O148 O 0.52982 0.10765 0.11133 0.0
O149 O 0.4701 0.07364 0.10187 0.0
O150 O 0.60274 0.06288 0.11474 0.0
O151 O 0.60807 0.1085 0.08494 0.0
O152 O 0.52697 0.04064 0.13404 0.0
O153 O 0.50769 1.02209 0.08447 0.0
O154 O 0.50769 1.01959 1.01546 0.0
O155 O 0.56588 0.03719 0.04141 0.0
O156 O 0.42266 0.05104 0.04601 0.0
O157 O 0.43708 1.00422 0.03155 0.0
O158 O 0.49008 0.09289 1.01215 0.0
O159 O 0.53109 0.09132 0.04605 0.0
H160 H 0.69665 0.12109 0.12045 0.0
H161 H 0.72518 0.15806 0.17052 0.0
H162 H 0.6164 0.15312 0.21099 0.0
H163 H 0.58824 0.11576 0.16122 0.0
H164 H 0.33789 1.00071 1.01767 0.0
H165 H 0.30756 0.99595 0.96068 0.0
H166 H 0.41505 0.03114 0.91169 0.0
H167 H 0.44468 0.03677 0.96848 0.0
Ho168 Ho 0.51377 0.53104 0.55054 0.0
Ho169 Ho 0.52069 0.59029 0.59485 0.0
C170 C 0.55015 0.53336 0.62749 0.0
C171 C 0.52515 0.4803 0.51381 0.0
C172 C 0.55673 0.4662 0.51105 0.0
C173 C 0.59028 0.48357 0.52748 0.0
C174 C 0.62122 0.47158 0.523 0.0
C175 C 0.61914 0.44209 0.50187 0.0
C176 C 0.5852 0.42441 0.48596 0.0
C177 C 0.55418 0.43641 0.49055 0.0
C178 C 0.45032 0.52722 0.58691 0.0
C179 C 0.48454 0.58922 0.51689 0.0
C180 C 0.51246 0.64179 0.63218 0.0
C181 C 0.50814 0.67599 0.62641 0.0
C182 C 0.48094 0.68035 0.60379 0.0
C183 C 0.47474 0.71245 0.6016 0.0
C184 C 0.49578 0.74081 0.6218 0.0
C185 C 0.52454 0.73675 0.64274 0.0
C186 C 0.5305 0.70455 0.64514 0.0
C187 C 0.58394 0.59383 0.55804 0.0
O188 O 0.55206 0.52392 0.59423 0.0
O189 O 0.53281 0.55652 0.63553 0.0
O190 O 0.50763 0.47648 0.54352 0.0
O191 O 0.53148 0.51136 0.50259 0.0
O192 O 0.45166 0.51793 0.55443 0.0
O193 O 0.48293 0.53776 0.59887 0.0
O194 O 0.49086 0.60448 0.54832 0.0
O195 O 0.49303 0.56025 0.51034 0.0
O196 O 0.54474 0.63769 0.62454 0.0
O197 O 0.48497 0.61524 0.62256 0.0
O198 O 0.58281 0.6027 0.59064 0.0
O199 O 0.55123 0.58353 0.54635 0.0
H200 H 0.59282 0.5069 0.54306 0.0
H201 H 0.64706 0.48604 0.53519 0.0
H202 H 0.5827 0.4014 0.46985 0.0
H203 H 0.52843 0.42279 0.47768 0.0
H204 H 0.46352 0.65875 0.58875 0.0
H205 H 0.45208 0.71448 0.58551 0.0
H206 H 0.54166 0.75819 0.65815 0.0
H207 H 0.55191 0.70175 0.66244 0.0
Ho208 Ho 0.01699 0.53142 0.09092 0.0
Ho209 Ho 0.02001 0.59418 0.05603 0.0
C210 C 0.08887 0.59867 0.10478 0.0
C211 C 0.03107 0.47794 0.11537 0.0
C212 C 0.06476 0.46987 0.1264 0.0
C213 C 0.0995 0.48712 0.11268 0.0
C214 C 0.13121 0.47868 0.12284 0.0
C215 C 0.12877 0.4529 0.14701 0.0
C216 C 0.09392 0.43619 0.16115 0.0
C217 C 0.06222 0.44459 0.15088 0.0
C218 C 0.97838 0.56978 0.12562 0.0
C219 C 0.94757 0.52721 0.04255 0.0
C220 C 1.00684 0.64816 0.03182 0.0
C221 C 0.97445 0.65666 1.01809 0.0
C222 C 0.93841 0.63921 0.02873 0.0
C223 C 0.90813 0.6491 1.01698 0.0
C224 C 0.91343 0.67657 0.99436 0.0
C225 C 0.94954 0.69315 0.98294 0.0
C226 C 0.97975 0.68332 0.99479 0.0
C227 C 0.05829 0.55539 0.02135 0.0
O228 O 0.07588 0.56465 0.10422 0.0
O229 O 0.06986 0.61703 0.08994 0.0
O230 O 0.02098 0.50067 0.13485 0.0
O231 O 0.02852 0.4827 0.08214 0.0
O232 O 0.96742 0.53656 0.12156 0.0
O233 O 0.00976 0.58107 0.11129 0.0
O234 O 0.96185 0.56099 0.04098 0.0
O235 O 0.96532 0.50872 0.05907 0.0
O236 O 0.01959 0.62687 1.01272 0.0
O237 O 1.00572 0.64155 0.06489 0.0
O238 O 0.06971 0.5886 0.02564 0.0
O239 O 0.02688 0.54444 0.03566 0.0
H240 H 0.10206 0.50683 0.09378 0.0
H241 H 0.15747 0.4918 0.11112 0.0
H242 H 0.09111 0.41665 0.18026 0.0
H243 H 0.03566 0.43123 0.16195 0.0
H244 H 0.93375 0.61842 0.04667 0.0
H245 H 0.88075 0.63594 0.02643 0.0
H246 H 0.95452 0.7139 0.96495 0.0
H247 H 1.00735 0.69686 0.9861 0.0
H248 H 0.27081 0.29495 0.26081 0.0
H249 H 0.20783 0.20175 0.44045 0.0
H250 H 0.34599 0.26816 0.33097 0.0
H251 H 0.13245 0.2021 0.35656 0.0
H252 H 0.25882 0.23617 0.40576 0.0
H253 H 0.21999 0.27175 0.30136 0.0
C254 C 0.2767 0.28472 0.28505 0.0
C255 C 0.31254 0.2832 0.29251 0.0
C256 C 0.23104 0.2289 0.39512 0.0
C257 C 0.25465 0.25645 0.33874 0.0
C258 C 0.20192 0.20908 0.4148 0.0
C259 C 0.16574 0.19858 0.4013 0.0
C260 C 0.22399 0.23851 0.36175 0.0
C261 C 0.15974 0.20973 0.36824 0.0
C262 C 0.24768 0.27127 0.30802 0.0
C263 C 0.31863 0.26939 0.3241 0.0
N264 N 0.18858 0.2289 0.34953 0.0
N265 N 0.28992 0.25639 0.346 0.0
H266 H 0.35594 0.98609 0.71268 0.0
H267 H 0.30004 0.95953 0.90916 0.0
H268 H 0.25612 0.91107 0.74502 0.0
H269 H 0.37802 0.05239 0.87374 0.0
H270 H 0.27921 0.94447 0.84927 0.0
H271 H 0.36114 1.01391 0.77074 0.0
C272 C 0.3348 0.97589 0.73191 0.0
C273 C 0.30578 0.94614 0.72431 0.0
C274 C 0.30043 0.96845 0.85466 0.0
C275 C 0.31175 0.97734 0.79078 0.0
C276 C 0.31225 0.97719 0.88896 0.0
C277 C 0.34139 1.00697 0.8965 0.0
C278 C 0.31823 0.98937 0.82765 0.0
C279 C 0.35627 1.02864 0.86904 0.0
C280 C 0.33767 0.99178 0.76498 0.0
C281 C 0.2789 0.93401 0.74993 0.0
N282 N 0.345 1.01911 0.83577 0.0
N283 N 0.2829 0.94929 0.78228 0.0
H284 H 0.61276 0.47359 0.83074 0.0
H285 H 0.58933 0.48479 0.6225 0.0
H286 H 0.65512 0.41351 0.7554 0.0
H287 H 0.54982 0.54659 0.69856 0.0
H288 H 0.6153 0.45988 0.67009 0.0
H289 H 0.59222 0.50241 0.78277 0.0
C290 C 0.61854 0.46701 0.80411 0.0
C291 C 0.63649 0.44155 0.79725 0.0
C292 C 0.60104 0.47897 0.67641 0.0
C293 C 0.61181 0.47384 0.74162 0.0
C294 C 0.58611 0.49326 0.6491 0.0
C295 C 0.5671 0.51801 0.65612 0.0
C296 C 0.59711 0.48926 0.71139 0.0
C297 C 0.56409 0.5277 0.69147 0.0
C298 C 0.60645 0.48327 0.7766 0.0
C299 C 0.64211 0.43345 0.76204 0.0
N300 N 0.57871 0.51338 0.71747 0.0
N301 N 0.62979 0.44933 0.73574 0.0
H302 H 0.9407 0.71837 0.28297 0.0
H303 H 0.91408 0.54615 0.16248 0.0
H304 H 0.84516 0.63 0.28843 0.0
H305 H 1.00651 0.63672 0.15188 0.0
H306 H 0.88952 0.57578 0.2094 0.0
H307 H 0.96659 0.68831 0.23701 0.0
C308 C 0.92545 0.69237 0.27486 0.0
C309 C 0.89097 0.67648 0.28994 0.0
C310 C 0.91514 0.5893 0.19686 0.0
C311 C 0.92014 0.64193 0.23659 0.0
C312 C 0.92922 0.57236 0.16991 0.0
C313 C 0.96253 0.58884 0.15301 0.0
C314 C 0.93443 0.6232 0.20746 0.0
C315 C 0.98075 0.62291 0.16399 0.0
C316 C 0.94012 0.67528 0.24838 0.0
C317 C 0.87207 0.64303 0.27789 0.0
N318 N 0.96658 0.63883 0.19045 0.0
N319 N 0.88682 0.62695 0.25202 0.0
H320 H 0.46249 0.28645 0.21193 0.0
H321 H 0.42311 0.09215 0.14017 0.0
H322 H 0.35707 0.2092 0.22013 0.0
H323 H 0.53257 0.16412 0.14402 0.0
H324 H 0.39915 0.13452 0.17145 0.0
H325 H 0.48947 0.24211 0.18826 0.0
C326 C 0.44511 0.26017 0.20891 0.0
C327 C 0.40753 0.2515 0.21814 0.0
C328 C 0.42848 0.14099 0.16572 0.0
C329 C 0.43807 0.20076 0.19112 0.0
C330 C 0.44219 0.11676 0.14785 0.0
C331 C 0.47987 0.12464 0.13924 0.0
C332 C 0.45251 0.17354 0.17481 0.0
C333 C 0.50329 0.15694 0.15003 0.0
C334 C 0.46052 0.23486 0.19557 0.0
C335 C 0.38629 0.21701 0.21389 0.0
N336 N 0.48917 0.18034 0.16696 0.0
N337 N 0.40179 0.19301 0.20053 0.0
H338 H 0.14121 0.88207 0.6285 0.0
H339 H 0.14421 0.07203 0.57801 0.0
H340 H 0.24085 0.96247 0.60697 0.0
H341 H 0.04462 0.99346 0.60474 0.0
H342 H 0.18075 0.034 0.59415 0.0
H343 H 0.10542 0.92371 0.62441 0.0
C344 C 0.15537 0.90857 0.62291 0.0
C345 C 0.1936 0.91918 0.61758 0.0
C346 C 0.15093 1.0252 0.59688 0.0
C347 C 0.15354 0.96664 0.6131 0.0
C348 C 0.13013 0.04695 0.58778 0.0
C349 C 0.09144 0.03563 0.58969 0.0
C350 C 0.13278 0.99188 0.6077 0.0
C351 C 0.07446 1.00303 0.60266 0.0
C352 C 0.13513 0.93232 0.62073 0.0
C353 C 0.21116 0.95357 0.61081 0.0
N354 N 0.09523 0.98209 0.61079 0.0
N355 N 0.19094 0.97615 0.60855 0.0
H356 H 0.7656 0.44607 0.89229 0.0
H357 H 0.89768 0.46517 0.05738 0.0
H358 H 0.726 0.40208 0.99102 0.0
H359 H 0.9141 0.54862 0.98719 0.0
H360 H 0.83886 0.43618 0.02805 0.0
H361 H 0.82337 0.47948 0.92134 0.0
C362 C 0.76862 0.44334 0.91994 0.0
C363 C 0.74038 0.42015 0.93864 0.0
C364 C 0.85528 0.46086 1.01904 0.0
C365 C 0.80763 0.45804 0.97201 0.0
C366 C 0.88903 0.47744 0.03577 0.0
C367 C 0.91112 0.50959 0.02499 0.0
C368 C 0.84353 0.47586 0.9905 0.0
C369 C 0.89806 0.52403 0.99666 0.0
C370 C 0.8019 0.46241 0.93649 0.0
C371 C 0.74689 0.41816 0.97463 0.0
N372 N 0.86548 0.50698 0.98023 0.0
N373 N 0.77963 0.43625 0.98976 0.0
H374 H 0.74285 0.67292 0.39131 0.0
H375 H 0.65513 0.62117 0.58053 0.0
H376 H 0.80424 0.69662 0.48764 0.0
H377 H 0.59079 0.59514 0.4861 0.0
H378 H 0.7105 0.64566 0.54587 0.0
H379 H 0.68806 0.64108 0.42401 0.0
C380 C 0.74508 0.67108 0.41922 0.0
C381 C 0.77847 0.68786 0.4366 0.0
C382 C 0.6844 0.63449 0.53254 0.0
C383 C 0.71532 0.65159 0.47445 0.0
C384 C 0.65265 0.62041 0.55241 0.0
C385 C 0.61806 0.60616 0.53633 0.0
C386 C 0.68193 0.63463 0.49601 0.0
C387 C 0.6168 0.60588 0.49969 0.0
C388 C 0.7136 0.65306 0.43795 0.0
C389 C 0.77918 0.68471 0.47298 0.0
N390 N 0.64813 0.62006 0.48082 0.0
N391 N 0.74828 0.66724 0.49051 0.0
H392 H 0.28114 0.33803 0.19874 0.0
H393 H 0.1998 0.49451 0.1582 0.0
H394 H 0.35006 0.44152 0.18531 0.0
H395 H 0.13418 0.38814 0.15766 0.0
H396 H 0.2546 0.47671 0.17209 0.0
H397 H 0.22621 0.35703 0.18828 0.0
C398 C 0.2845 0.36483 0.19365 0.0
C399 C 0.31974 0.38836 0.19271 0.0
C400 C 0.22817 0.45731 0.16901 0.0
C401 C 0.2575 0.41034 0.1807 0.0
C402 C 0.19688 0.46742 0.16091 0.0
C403 C 0.16222 0.4428 0.15668 0.0
C404 C 0.22483 0.42232 0.173 0.0
C405 C 0.16011 0.40812 0.16114 0.0
C406 C 0.25328 0.37568 0.18765 0.0
C407 C 0.32308 0.42275 0.18615 0.0
N408 N 0.19094 0.39895 0.16898 0.0
N409 N 0.29224 0.43279 0.18031 0.0
H410 H 0.58105 0.3067 0.92408 0.0
H411 H 0.59763 0.14645 0.0341 0.0
H412 H 0.68711 0.29638 0.95477 0.0
H413 H 0.49951 0.14982 0.97955 0.0
H414 H 0.63088 0.20272 1.01024 0.0
H415 H 0.55099 0.25124 0.94874 0.0
C416 C 0.59831 0.29285 0.93565 0.0
C417 C 0.63713 0.30685 0.93665 0.0
C418 C 0.60206 0.19107 1.00354 0.0
C419 C 0.60195 0.2424 0.96636 0.0
C420 C 0.58302 0.15892 1.01728 0.0
C421 C 0.54555 0.14311 1.00897 0.0
C422 C 0.58343 0.20785 0.98162 0.0
C423 C 0.5283 0.16072 0.98678 0.0
C424 C 0.58088 0.261 0.9501 0.0
C425 C 0.65722 0.28735 0.95338 0.0
N426 N 0.54714 0.19184 0.97417 0.0
N427 N 0.63951 0.25638 0.96746 0.0
H428 H 0.88384 0.82984 0.38481 0.0
H429 H 0.94156 0.93919 0.56487 0.0
H430 H 0.87591 0.78454 0.48553 0.0
H431 H 0.96003 0.98506 0.46428 0.0
H432 H 0.91566 0.88287 0.536 0.0
H433 H 0.91073 0.88663 0.41284 0.0
C434 C 0.88799 0.83159 0.41274 0.0
C435 C 0.87731 0.80185 0.43262 0.0
C436 C 0.9253 0.9052 0.52015 0.0
C437 C 0.90778 0.86758 0.4652 0.0
C438 C 0.94007 0.93758 0.53668 0.0
C439 C 0.95313 0.96731 0.51715 0.0
C440 C 0.92327 0.90208 0.48357 0.0
C441 C 0.95038 0.9631 0.48059 0.0
C442 C 0.90316 0.86425 0.4288 0.0
C443 C 0.88298 0.80642 0.46892 0.0
N444 N 0.93581 0.93126 0.46508 0.0
N445 N 0.89763 0.83842 0.48388 0.0
H446 H 0.3657 0.87883 0.59135 0.0
H447 H 0.49446 0.78124 0.68002 0.0
H448 H 0.38204 0.87576 0.7022 0.0
H449 H 0.47068 0.77337 0.56971 0.0
H450 H 0.46525 0.82713 0.68626 0.0
H451 H 0.41404 0.85024 0.5812 0.0
C452 C 0.37965 0.87244 0.61352 0.0
C453 C 0.36946 0.87934 0.64768 0.0
C454 C 0.46683 0.81573 0.66057 0.0
C455 C 0.42495 0.84706 0.63626 0.0
C456 C 0.48392 0.78967 0.65688 0.0
C457 C 0.48455 0.77295 0.62433 0.0
C458 C 0.44983 0.82495 0.63163 0.0
C459 C 0.46995 0.78491 0.59546 0.0
C460 C 0.40738 0.85634 0.6077 0.0
C461 C 0.38904 0.87119 0.67541 0.0
N462 N 0.45263 0.80984 0.59988 0.0
N463 N 0.41553 0.85518 0.66907 0.0
H464 H 0.72834 0.78514 0.79852 0.0
H465 H 0.81764 0.97906 0.74365 0.0
H466 H 0.70513 0.87225 0.8512 0.0
H467 H 0.85271 0.8926 0.70426 0.0
H468 H 0.76641 0.93938 0.77411 0.0
H469 H 0.76307 0.82312 0.75434 0.0
C470 C 0.73005 0.81223 0.80037 0.0
C471 C 0.7144 0.82573 0.82876 0.0
C472 C 0.78507 0.92909 0.75846 0.0
C473 C 0.75445 0.8694 0.77866 0.0
C474 C 0.8142 0.95168 0.741 0.0
C475 C 0.83969 0.93906 0.72183 0.0
C476 C 0.78139 0.89367 0.75656 0.0
C477 C 0.83408 0.90341 0.71934 0.0
C478 C 0.74992 0.83391 0.77524 0.0
C479 C 0.71689 0.86088 0.82973 0.0
N480 N 0.80571 0.882 0.73672 0.0
N481 N 0.73716 0.88167 0.80533 0.0
H482 H 0.82493 0.29815 0.338 0.0
H483 H 0.65173 0.14919 0.2627 0.0
H484 H 0.75463 0.21849 0.39951 0.0
H485 H 0.73334 0.21577 0.19743 0.0
H486 H 0.68262 0.18163 0.31397 0.0
H487 H 0.78499 0.27563 0.28729 0.0
C488 C 0.8007 0.27632 0.3409 0.0
C489 C 0.79318 0.25982 0.37269 0.0
C490 C 0.69365 0.18933 0.28843 0.0
C491 C 0.74777 0.23391 0.31518 0.0
C492 C 0.67589 0.17094 0.25912 0.0
C493 C 0.69015 0.17963 0.22574 0.0
C494 C 0.72596 0.21665 0.28442 0.0
C495 C 0.7218 0.20784 0.22273 0.0
C496 C 0.7781 0.26336 0.312 0.0
C497 C 0.7616 0.23157 0.37523 0.0
N498 N 0.7388 0.22525 0.25173 0.0
N499 N 0.7402 0.21935 0.34678 0.0
H500 H 0.41303 0.64225 0.31386 0.0
H501 H 0.46269 0.64906 0.51907 0.0
H502 H 0.40034 0.72181 0.38577 0.0
H503 H 0.47023 0.56664 0.44809 0.0
H504 H 0.43851 0.67511 0.47134 0.0
H505 H 0.43169 0.61312 0.36271 0.0
C506 C 0.41336 0.65322 0.34004 0.0
C507 C 0.40429 0.68422 0.34568 0.0
C508 C 0.44532 0.65126 0.46616 0.0
C509 C 0.42692 0.65142 0.4021 0.0
C510 C 0.45923 0.63627 0.49356 0.0
C511 C 0.46873 0.60536 0.48804 0.0
C512 C 0.44078 0.63553 0.43249 0.0
C513 C 0.46343 0.59037 0.45401 0.0
C514 C 0.42437 0.63671 0.36799 0.0
C515 C 0.40635 0.69764 0.38018 0.0
N516 N 0.45005 0.60551 0.42781 0.0
N517 N 0.41749 0.68136 0.40684 0.0
H518 H 0.18927 0.49677 0.85262 0.0
H519 H 0.02911 0.48846 0.99631 0.0
H520 H 0.09286 0.4098 0.86217 0.0
H521 H 0.12136 0.57846 0.98211 0.0
H522 H 0.05253 0.45897 0.94817 0.0
H523 H 0.1652 0.52719 0.89979 0.0
C524 C 0.16276 0.4843 0.8643 0.0
C525 C 0.14278 0.4509 0.8531 0.0
C526 C 0.06773 0.48516 0.95557 0.0
C527 C 0.11529 0.48522 0.90784 0.0
C528 C 0.05439 0.502 0.98323 0.0
C529 C 0.07318 0.53611 0.99343 0.0
C530 C 0.10031 0.50237 0.9378 0.0
C531 C 0.10584 0.55222 0.97527 0.0
C532 C 0.14909 0.50157 0.89142 0.0
C533 C 0.10893 0.4357 0.86968 0.0
N534 N 0.11826 0.53533 0.94851 0.0
N535 N 0.09636 0.45284 0.89613 0.0
H536 H 0.66122 0.87814 0.94371 0.0
H537 H 0.50027 0.96876 0.97325 0.0
H538 H 0.5459 0.82752 0.92349 0.0
H539 H 0.61246 1.01202 1.01023 0.0
H540 H 0.51874 0.92169 0.94439 0.0
H541 H 0.64581 0.93175 0.95815 0.0
C542 C 0.63268 0.87859 0.94199 0.0
C543 C 0.60465 0.84875 0.9327 0.0
C544 C 0.53939 0.94172 0.95848 0.0
C545 C 0.58673 0.90945 0.94918 0.0
C546 C 0.52894 0.96876 0.97484 0.0
C547 C 0.55473 0.99422 0.99466 0.0
C548 C 0.57592 0.94015 0.96185 0.0
C549 C 0.59149 0.99279 0.99561 0.0
C550 C 0.62388 0.90906 0.95023 0.0
C551 C 0.56814 0.85024 0.9307 0.0
N552 N 0.60088 0.96603 0.97976 0.0
N553 N 0.56012 0.88013 0.93913 0.0
H554 H 0.85756 0.2398 0.51439 0.0
H555 H 0.95185 0.08917 0.4893 0.0
H556 H 0.88154 0.20166 0.41322 0.0
H557 H 0.89727 0.10624 0.5844 0.0
H558 H 0.92666 0.13044 0.46064 0.0
H559 H 0.87388 0.19223 0.54109 0.0
C560 C 0.86652 0.2215 0.49789 0.0
C561 C 0.86846 0.22462 0.46165 0.0
C562 C 0.91967 0.12482 0.48762 0.0
C563 C 0.88669 0.1702 0.49177 0.0
C564 C 0.93406 0.10138 0.50388 0.0
C565 C 0.92658 0.09474 0.53904 0.0
C566 C 0.89832 0.14211 0.50704 0.0
C567 C 0.90325 0.11071 0.55705 0.0
C568 C 0.87539 0.1942 0.51304 0.0
C569 C 0.87962 0.20002 0.44128 0.0
N570 N 0.89029 0.13417 0.54095 0.0
N571 N 0.88856 0.17393 0.45666 0.0
H572 H 0.30532 0.65837 0.21316 0.0
H573 H 0.11983 0.66814 0.11641 0.0
H574 H 0.27148 0.75062 0.20537 0.0
H575 H 0.14031 0.57126 0.13563 0.0
H576 H 0.1769 0.69799 0.14725 0.0
H577 H 0.24677 0.62543 0.18481 0.0
C578 C 0.28564 0.67176 0.20587 0.0
C579 C 0.29411 0.7077 0.21148 0.0
C580 C 0.16909 0.67019 0.14483 0.0
C581 C 0.22676 0.66991 0.17832 0.0
C582 C 0.13632 0.65298 0.12697 0.0
C583 C 0.12479 0.61688 0.12312 0.0
C584 C 0.1913 0.65152 0.15913 0.0
C585 C 0.1478 0.59905 0.13779 0.0
C586 C 0.2522 0.65289 0.1894 0.0
C587 C 0.26712 0.72328 0.20104 0.0
N588 N 0.17983 0.61646 0.15497 0.0
N589 N 0.23521 0.70451 0.18497 0.0
H590 H 0.28785 0.45012 0.75151 0.0
H591 H 0.37925 0.50165 0.56369 0.0
H592 H 0.22721 0.43146 0.65468 0.0
H593 H 0.44256 0.52566 0.65883 0.0
H594 H 0.3231 0.47855 0.5977 0.0
H595 H 0.34388 0.48073 0.71968 0.0
C596 C 0.28606 0.45284 0.72369 0.0
C597 C 0.2525 0.43779 0.70588 0.0
C598 C 0.34914 0.48898 0.61133 0.0
C599 C 0.31703 0.47259 0.66902 0.0
C600 C 0.38135 0.50225 0.59183 0.0
C601 C 0.41586 0.51555 0.6083 0.0
C602 C 0.35106 0.48867 0.64788 0.0
C603 C 0.41661 0.51566 0.64496 0.0
C604 C 0.31823 0.47014 0.70546 0.0
C605 C 0.25236 0.442 0.66964 0.0
N606 N 0.38482 0.50224 0.66346 0.0
N607 N 0.28391 0.45869 0.65258 0.0
H608 H 0.78423 0.80275 0.92021 0.0
H609 H 0.84244 0.63836 0.97653 0.0
H610 H 0.7049 0.70275 0.92661 0.0
H611 H 0.91212 0.74299 0.98832 0.0
H612 H 0.79153 0.66009 0.95792 0.0
H613 H 0.83142 0.78015 0.94459 0.0
C614 C 0.77682 0.77593 0.92686 0.0
C615 C 0.74083 0.75444 0.92111 0.0
C616 C 0.81796 0.67821 0.96473 0.0
C617 C 0.79478 0.72822 0.94909 0.0
C618 C 0.847 0.66586 0.97542 0.0
C619 C 0.8818 0.68887 0.98364 0.0
C620 C 0.82385 0.71378 0.96217 0.0
C621 C 0.88614 0.72422 0.98148 0.0
C622 C 0.80372 0.76304 0.9409 0.0
C623 C 0.73244 0.72005 0.93065 0.0
N624 N 0.85764 0.73551 0.97083 0.0
N625 N 0.7594 0.70783 0.94391 0.0
H626 H 0.42156 0.84534 0.25582 0.0
H627 H 0.46005 0.95738 0.08267 0.0
H628 H 0.38167 0.80316 0.15408 0.0
H629 H 0.49798 0.9984 0.18511 0.0
H630 H 0.43021 0.90129 0.10794 0.0
H631 H 0.4491 0.90121 0.23024 0.0
C632 C 0.41867 0.84755 0.22806 0.0
C633 C 0.39905 0.81883 0.20734 0.0
C634 C 0.44493 0.92257 0.12495 0.0
C635 C 0.43067 0.88394 0.17752 0.0
C636 C 0.46193 0.95474 0.1105 0.0
C637 C 0.48169 0.98294 0.13168 0.0
C638 C 0.44759 0.91823 0.16101 0.0
C639 C 0.48314 0.97761 0.16762 0.0
C640 C 0.43431 0.87978 0.21343 0.0
C641 C 0.39598 0.82422 0.17149 0.0
N642 N 0.46656 0.94614 0.18099 0.0
N643 N 0.41157 0.85583 0.15786 0.0
H644 H 0.14173 0.29671 0.75313 0.0
H645 H 0.07877 0.19359 0.57054 0.0
H646 H 0.15234 0.34535 0.65401 0.0
H647 H 0.05995 0.14521 0.66986 0.0
H648 H 0.10726 0.24885 0.6007 0.0
H649 H 0.11258 0.24123 0.72349 0.0
C650 C 0.1377 0.29597 0.72521 0.0
C651 C 0.14976 0.32624 0.70628 0.0
C652 C 0.09696 0.22618 0.61596 0.0
C653 C 0.11664 0.26198 0.67181 0.0
C654 C 0.08069 0.19443 0.59869 0.0
C655 C 0.06677 0.16434 0.61751 0.0
C656 C 0.09961 0.22825 0.65254 0.0
C657 C 0.07019 0.1675 0.65408 0.0
C658 C 0.12124 0.26405 0.70821 0.0
C659 C 0.14418 0.32296 0.66991 0.0
N660 N 0.08618 0.19871 0.67029 0.0
N661 N 0.1282 0.29164 0.65402 0.0
H662 H 0.82488 0.38977 0.52233 0.0
H663 H 0.64277 0.41995 0.44014 0.0
H664 H 0.79724 0.37402 0.41324 0.0
H665 H 0.67211 0.43887 0.54892 0.0
H666 H 0.69939 0.40335 0.42968 0.0
H667 H 0.7699 0.4096 0.53247 0.0
C668 C 0.80738 0.39105 0.5005 0.0
C669 C 0.81532 0.38071 0.46695 0.0
C670 C 0.69347 0.41114 0.45585 0.0
C671 C 0.75243 0.40248 0.47817 0.0
C672 C 0.66098 0.42033 0.46189 0.0
C673 C 0.65269 0.43074 0.49547 0.0
C674 C 0.71783 0.41231 0.4836 0.0
C675 C 0.67762 0.43134 0.52255 0.0
C676 C 0.77598 0.40213 0.50624 0.0
C677 C 0.79188 0.38214 0.43944 0.0
N678 N 0.70905 0.42221 0.51603 0.0
N679 N 0.76129 0.39273 0.44567 0.0
loop_
_geom_bond_atom_site_label_1
_geom_bond_atom_site_label_2
_geom_bond_distance
_geom_bond_site_symmetry_2
_ccdc_geom_bond_type
H0 C3 0.929 . S
H1 C6 0.929 . S
H2 C8 0.930 . S
C3 H0 0.929 . S
C3 C4 1.398 . S
C3 C5 1.396 . S
C4 C3 1.398 . S
C4 C8 1.407 . S
C5 C3 1.396 . S
C5 C6 1.394 . S
C6 H1 0.929 . S
C6 C5 1.394 . S
C6 C7 1.382 . S
C7 C6 1.382 . S
C7 C8 1.392 . S
C7 N9 1.420 . S
C8 H2 0.930 . S
C8 C4 1.407 . S
C8 C7 1.392 . S
N9 C7 1.420 . S
N9 C10 1.244 . S
C10 N9 1.244 . S
H11 C14 0.929 . S
H12 C17 0.929 . S
H13 C19 0.930 . S
C14 H11 0.929 . S
C14 C15 1.398 . S
C14 C16 1.396 . S
C15 C14 1.398 . S
C15 C19 1.407 . S
C16 C14 1.396 . S
C16 C17 1.394 . S
C17 H12 0.929 . S
C17 C16 1.394 . S
C17 C18 1.382 . S
C18 C17 1.382 . S
C18 C19 1.392 . S
C18 N20 1.420 . S
C19 H13 0.930 . S
C19 C15 1.407 . S
C19 C18 1.392 . S
N20 C18 1.420 . S
N20 C21 1.244 . S
C21 N20 1.244 . S
H22 C25 0.929 . S
H23 C28 0.929 . S
H24 C30 0.930 . S
C25 H22 0.929 . S
C25 C26 1.398 . S
C25 C27 1.396 . S
C26 C25 1.398 . S
C26 C30 1.407 . S
C27 C25 1.396 . S
C27 C28 1.394 . S
C28 H23 0.929 . S
C28 C27 1.394 . S
C28 C29 1.382 . S
C29 C28 1.382 . S
C29 C30 1.392 . S
C29 N31 1.420 . S
C30 H24 0.930 . S
C30 C26 1.407 . S
C30 C29 1.392 . S
N31 C29 1.420 . S
N31 C32 1.244 . S
C32 N31 1.244 . S
H33 C36 0.929 . S
H34 C39 0.929 . S
H35 C41 0.930 . S
C36 H33 0.929 . S
C36 C37 1.398 . S
C36 C38 1.396 . S
C37 C36 1.398 . S
C37 C41 1.407 . S
C38 C36 1.396 . S
C38 C39 1.394 . S
C39 H34 0.929 . S
C39 C38 1.394 . S
C39 C40 1.382 . S
C40 C39 1.382 . S
C40 C41 1.392 . S
C40 N42 1.420 . S
C41 H35 0.930 . S
C41 C37 1.407 . S
C41 C40 1.392 . S
N42 C40 1.420 . S
N42 C43 1.244 . S
C43 N42 1.244 . S
H44 C47 0.929 . S
H45 C50 0.929 . S
H46 C52 0.930 . S
C47 H44 0.929 . S
C47 C48 1.398 . S
C47 C49 1.396 . S
C48 C47 1.398 . S
C48 C52 1.407 . S
C49 C47 1.396 . S
C49 C50 1.394 . S
C50 H45 0.929 . S
C50 C49 1.394 . S
C50 C51 1.382 . S
C51 C50 1.382 . S
C51 C52 1.392 . S
C51 N53 1.420 . S
C52 H46 0.930 . S
C52 C48 1.407 . S
C52 C51 1.392 . S
N53 C51 1.420 . S
N53 C54 1.244 . S
C54 N53 1.244 . S
H55 C58 0.929 . S
H56 C61 0.929 . S
H57 C63 0.930 . S
C58 H55 0.929 . S
C58 C59 1.398 . S
C58 C60 1.396 . S
C59 C58 1.398 . S
C59 C63 1.407 . S
C60 C58 1.396 . S
C60 C61 1.394 . S
C61 H56 0.929 . S
C61 C60 1.394 . S
C61 C62 1.382 . S
C62 C61 1.382 . S
C62 C63 1.392 . S
C62 N64 1.420 . S
C63 H57 0.930 . S
C63 C59 1.407 . S
C63 C62 1.392 . S
N64 C62 1.420 . S
N64 C65 1.244 . S
C65 N64 1.244 . S
H66 C69 0.929 . S
H67 C72 0.929 . S
H68 C74 0.930 . S
C69 H66 0.929 . S
C69 C70 1.398 . S
C69 C71 1.396 . S
C70 C69 1.398 . S
C70 C74 1.407 . S
C71 C69 1.396 . S
C71 C72 1.394 . S
C72 H67 0.929 . S
C72 C71 1.394 . S
C72 C73 1.382 . S
C73 C72 1.382 . S
C73 C74 1.392 . S
C73 N75 1.420 . S
C74 H68 0.930 . S
C74 C70 1.407 . S
C74 C73 1.392 . S
N75 C73 1.420 . S
N75 C76 1.244 . S
C76 N75 1.244 . S
H77 C80 0.929 . S
H78 C83 0.929 . S
H79 C85 0.930 . S
C80 H77 0.929 . S
C80 C81 1.398 . S
C80 C82 1.396 . S
C81 C80 1.398 . S
C81 C85 1.407 . S
C82 C80 1.396 . S
C82 C83 1.394 . S
C83 H78 0.929 . S
C83 C82 1.394 . S
C83 C84 1.382 . S
C84 C83 1.382 . S
C84 C85 1.392 . S
C84 N86 1.420 . S
C85 H79 0.930 . S
C85 C81 1.407 . S
C85 C84 1.392 . S
N86 C84 1.420 . S
N86 C87 1.244 . S
C87 N86 1.244 . S
Ho88 C91 2.811 . S
Ho88 O108 2.322 . S
Ho88 O110 2.378 . S
Ho88 O111 2.524 . S
Ho88 O112 2.381 . S
Ho88 O113 2.669 . S
Ho88 O115 2.346 1_445 S
Ho88 O119 2.305 1_455 S
Ho89 C100 2.811 1_545 S
Ho89 O109 2.346 1_655 S
Ho89 O113 2.305 1_655 S
Ho89 O114 2.322 1_545 S
Ho89 O116 2.378 1_545 S
Ho89 O117 2.524 1_545 S
Ho89 O118 2.381 . S
Ho89 O119 2.669 . S
C90 O108 1.259 . S
C90 O109 1.268 . S
C91 Ho88 2.811 . S
C91 C92 1.488 . S
C91 O110 1.215 . S
C91 O111 1.289 . S
C92 C91 1.488 . S
C92 C93 1.348 . S
C92 C97 1.413 . S
C93 C92 1.348 . S
C93 C94 1.442 . S
C93 H120 0.930 . S
C94 C93 1.442 . S
C94 C95 1.381 . S
C94 H121 0.931 . S
C95 C94 1.381 . S
C95 C96 1.321 . S
C96 C95 1.321 . S
C96 C97 1.403 . S
C96 H122 0.934 . S
C97 C92 1.413 . S
C97 C96 1.403 . S
C97 H123 0.930 . S
C98 O112 1.275 1_565 S
C98 O113 1.256 1_565 S
C99 O114 1.259 . S
C99 O115 1.268 . S
C100 Ho89 2.811 1_565 S
C100 C101 1.488 . S
C100 O116 1.215 . S
C100 O117 1.289 . S
C101 C100 1.488 . S
C101 C102 1.348 . S
C101 C106 1.413 . S
C102 C101 1.348 . S
C102 C103 1.442 . S
C102 H124 0.930 . S
C103 C102 1.442 . S
C103 C104 1.381 . S
C103 H125 0.931 . S
C104 C103 1.381 . S
C104 C105 1.321 . S
C105 C104 1.321 . S
C105 C106 1.403 . S
C105 H126 0.934 . S
C106 C101 1.413 . S
C106 C105 1.403 . S
C106 H127 0.930 . S
C107 O118 1.275 . S
C107 O119 1.256 . S
O108 Ho88 2.322 . S
O108 C90 1.259 . S
O109 Ho89 2.346 1_455 S
O109 C90 1.268 . S
O110 Ho88 2.378 . S
O110 C91 1.215 . S
O111 Ho88 2.524 . S
O111 C91 1.289 . S
O112 Ho88 2.381 . S
O112 C98 1.275 1_545 S
O113 Ho88 2.669 . S
O113 Ho89 2.305 1_455 S
O113 C98 1.256 1_545 S
O114 Ho89 2.322 1_565 S
O114 C99 1.259 . S
O115 Ho88 2.346 1_665 S
O115 C99 1.268 . S
O116 Ho89 2.378 1_565 S
O116 C100 1.215 . S
O117 Ho89 2.524 1_565 S
O117 C100 1.289 . S
O118 Ho89 2.381 . S
O118 C107 1.275 . S
O119 Ho88 2.305 1_655 S
O119 Ho89 2.669 . S
O119 C107 1.256 . S
H120 C93 0.930 . S
H121 C94 0.931 . S
H122 C96 0.934 . S
H123 C97 0.930 . S
H124 C102 0.930 . S
H125 C103 0.931 . S
H126 C105 0.934 . S
H127 C106 0.930 . S
Ho128 C131 2.811 . S
Ho128 O148 2.322 . S
Ho128 O150 2.378 . S
Ho128 O151 2.524 . S
Ho128 O152 2.381 1_545 S
Ho128 O153 2.669 1_545 S
Ho128 O155 2.346 1_545 S
Ho128 O159 2.305 . S
Ho129 C140 2.811 1_544 S
Ho129 O149 2.346 . S
Ho129 O153 2.305 1_545 S
Ho129 O154 2.322 . S
Ho129 O156 2.378 1_554 S
Ho129 O157 2.524 1_544 S
Ho129 O158 2.381 . S
Ho129 O159 2.669 . S
C130 O148 1.259 . S
C130 O149 1.268 . S
C131 Ho128 2.811 . S
C131 C132 1.488 . S
C131 O150 1.215 . S
C131 O151 1.289 . S
C132 C131 1.488 . S
C132 C133 1.348 . S
C132 C137 1.413 . S
C133 C132 1.348 . S
C133 C134 1.442 . S
C133 H160 0.930 . S
C134 C133 1.442 . S
C134 C135 1.381 . S
C134 H161 0.931 . S
C135 C134 1.381 . S
C135 C136 1.321 . S
C136 C135 1.321 . S
C136 C137 1.403 . S
C136 H162 0.934 . S
C137 C132 1.413 . S
C137 C136 1.403 . S
C137 H163 0.930 . S
C138 O152 1.275 . S
C138 O153 1.256 . S
C139 O154 1.259 1_565 S
C139 O155 1.268 . S
C140 Ho129 2.811 1_566 S
C140 C141 1.488 . S
C140 O156 1.215 1_565 S
C140 O157 1.289 . S
C141 C140 1.488 . S
C141 C142 1.348 . S
C141 C146 1.413 . S
C142 C141 1.348 . S
C142 C143 1.442 . S
C142 H164 0.930 . S
C143 C142 1.442 . S
C143 C144 1.381 . S
C143 H165 0.931 . S
C144 C143 1.381 . S
C144 C145 1.321 . S
C145 C144 1.321 . S
C145 C146 1.403 . S
C145 H166 0.934 . S
C146 C141 1.413 . S
C146 C145 1.403 . S
C146 H167 0.959 . S
C147 O158 1.275 . S
C147 O159 1.256 . S
O148 Ho128 2.322 . S
O148 C130 1.259 . S
O149 Ho129 2.346 . S
O149 C130 1.268 . S
O150 Ho128 2.378 . S
O150 C131 1.215 . S
O151 Ho128 2.524 . S
O151 C131 1.289 . S
O152 Ho128 2.381 1_565 S
O152 C138 1.275 . S
O153 Ho128 2.669 1_565 S
O153 Ho129 2.305 1_565 S
O153 C138 1.256 . S
O154 Ho129 2.322 . S
O154 C139 1.259 1_545 S
O155 Ho128 2.346 1_565 S
O155 C139 1.268 . S
O156 Ho129 2.378 1_556 S
O156 C140 1.215 1_545 S
O157 Ho129 2.524 1_566 S
O157 C140 1.289 . S
O158 Ho129 2.381 . S
O158 C147 1.275 . S
O159 Ho128 2.305 . S
O159 Ho129 2.669 . S
O159 C147 1.256 . S
H160 C133 0.930 . S
H161 C134 0.931 . S
H162 C136 0.934 . S
H163 C137 0.930 . S
H164 C142 0.930 . S
H165 C143 0.931 . S
H166 C145 0.934 . S
H167 C146 0.959 . S
Ho168 C171 2.811 . S
Ho168 O188 2.322 . S
Ho168 O190 2.378 . S
Ho168 O191 2.524 . S
Ho168 O192 2.381 . S
Ho168 O193 2.669 . S
Ho168 O195 2.346 . S
Ho168 O199 2.305 . S
Ho169 C180 2.811 . S
Ho169 O189 2.346 . S
Ho169 O193 2.305 . S
Ho169 O194 2.322 . S
Ho169 O196 2.378 . S
Ho169 O197 2.524 . S
Ho169 O198 2.381 . S
Ho169 O199 2.669 . S
C170 O188 1.259 . S
C170 O189 1.268 . S
C171 Ho168 2.811 . S
C171 C172 1.488 . S
C171 O190 1.215 . S
C171 O191 1.289 . S
C172 C171 1.488 . S
C172 C173 1.348 . S
C172 C177 1.413 . S
C173 C172 1.348 . S
C173 C174 1.442 . S
C173 H200 0.930 . S
C174 C173 1.442 . S
C174 C175 1.381 . S
C174 H201 0.931 . S
C175 C174 1.381 . S
C175 C176 1.321 . S
C176 C175 1.321 . S
C176 C177 1.403 . S
C176 H202 0.934 . S
C177 C172 1.413 . S
C177 C176 1.403 . S
C177 H203 0.930 . S
C178 O192 1.275 . S
C178 O193 1.256 . S
C179 O194 1.259 . S
C179 O195 1.268 . S
C180 Ho169 2.811 . S
C180 C181 1.488 . S
C180 O196 1.215 . S
C180 O197 1.289 . S
C181 C180 1.488 . S
C181 C182 1.348 . S
C181 C186 1.413 . S
C182 C181 1.348 . S
C182 C183 1.442 . S
C182 H204 0.930 . S
C183 C182 1.442 . S
C183 C184 1.381 . S
C183 H205 0.931 . S
C184 C183 1.381 . S
C184 C185 1.321 . S
C185 C184 1.321 . S
C185 C186 1.403 . S
C185 H206 0.934 . S
C186 C181 1.413 . S
C186 C185 1.403 . S
C186 H207 0.930 . S
C187 O198 1.275 . S
C187 O199 1.256 . S
O188 Ho168 2.322 . S
O188 C170 1.259 . S
O189 Ho169 2.346 . S
O189 C170 1.268 . S
O190 Ho168 2.378 . S
O190 C171 1.215 . S
O191 Ho168 2.524 . S
O191 C171 1.289 . S
O192 Ho168 2.381 . S
O192 C178 1.275 . S
O193 Ho168 2.669 . S
O193 Ho169 2.305 . S
O193 C178 1.256 . S
O194 Ho169 2.322 . S
O194 C179 1.259 . S
O195 Ho168 2.346 . S
O195 C179 1.268 . S
O196 Ho169 2.378 . S
O196 C180 1.215 . S
O197 Ho169 2.524 . S
O197 C180 1.289 . S
O198 Ho169 2.381 . S
O198 C187 1.275 . S
O199 Ho168 2.305 . S
O199 Ho169 2.669 . S
O199 C187 1.256 . S
H200 C173 0.930 . S
H201 C174 0.931 . S
H202 C176 0.934 . S
H203 C177 0.930 . S
H204 C182 0.930 . S
H205 C183 0.931 . S
H206 C185 0.934 . S
H207 C186 0.930 . S
Ho208 C211 2.811 . S
Ho208 O228 2.322 . S
Ho208 O230 2.378 . S
Ho208 O231 2.524 . S
Ho208 O232 2.381 . S
Ho208 O233 2.669 . S
Ho208 O235 2.346 1_455 S
Ho208 O239 2.305 1_554 S
Ho209 C220 2.809 1_455 S
Ho209 O229 2.348 1_556 S
Ho209 O233 2.308 1_556 S
Ho209 O234 2.321 1_455 S
Ho209 O236 2.358 1_455 S
Ho209 O237 2.524 1_456 S
Ho209 O238 2.378 . S
Ho209 O239 2.669 . S
C210 O228 1.259 . S
C210 O229 1.268 . S
C211 Ho208 2.811 . S
C211 C212 1.488 . S
C211 O230 1.215 . S
C211 O231 1.289 . S
C212 C211 1.488 . S
C212 C213 1.348 . S
C212 C217 1.413 . S
C213 C212 1.348 . S
C213 C214 1.442 . S
C213 H240 0.930 . S
C214 C213 1.442 . S
C214 C215 1.381 . S
C214 H241 0.931 . S
C215 C214 1.381 . S
C215 C216 1.321 . S
C216 C215 1.321 . S
C216 C217 1.403 . S
C216 H242 0.934 . S
C217 C212 1.413 . S
C217 C216 1.403 . S
C217 H243 0.930 . S
C218 O232 1.275 1_655 S
C218 O233 1.256 1_655 S
C219 O234 1.259 . S
C219 O235 1.268 1_556 S
C220 Ho209 2.809 1_655 S
C220 C221 1.488 . S
C220 O236 1.244 . S
C220 O237 1.288 1_556 S
C221 C220 1.488 . S
C221 C222 1.348 . S
C221 C226 1.413 . S
C222 C221 1.348 . S
C222 C223 1.442 . S
C222 H244 0.930 . S
C223 C222 1.442 . S
C223 C224 1.381 . S
C223 H245 0.931 . S
C224 C223 1.381 . S
C224 C225 1.321 . S
C225 C224 1.321 . S
C225 C226 1.403 . S
C225 H246 0.934 . S
C226 C221 1.413 . S
C226 C225 1.403 . S
C226 H247 0.930 . S
C227 O238 1.275 . S
C227 O239 1.256 . S
O228 Ho208 2.322 . S
O228 C210 1.259 . S
O229 Ho209 2.348 1_554 S
O229 C210 1.268 . S
O230 Ho208 2.378 . S
O230 C211 1.215 . S
O231 Ho208 2.524 . S
O231 C211 1.289 . S
O232 Ho208 2.381 . S
O232 C218 1.275 1_455 S
O233 Ho208 2.669 . S
O233 Ho209 2.308 1_554 S
O233 C218 1.256 1_455 S
O234 Ho209 2.321 1_655 S
O234 C219 1.259 . S
O235 Ho208 2.346 1_655 S
O235 C219 1.268 1_554 S
O236 Ho209 2.358 1_655 S
O236 C220 1.244 . S
O237 Ho209 2.524 1_654 S
O237 C220 1.288 1_554 S
O238 Ho209 2.378 . S
O238 C227 1.275 . S
O239 Ho208 2.305 1_556 S
O239 Ho209 2.669 . S
O239 C227 1.256 . S
H240 C213 0.930 . S
H241 C214 0.931 . S
H242 C216 0.934 . S
H243 C217 0.930 . S
H244 C222 0.930 . S
H245 C223 0.931 . S
H246 C225 0.934 . S
H247 C226 0.930 . S
H248 C254 0.930 . S
H249 C258 0.930 . S
H250 C263 0.929 . S
H251 C261 0.929 . S
H252 C256 0.929 . S
H253 C262 0.929 . S
C254 H248 0.930 . S
C254 C255 1.367 . S
C254 C262 1.378 . S
C255 C254 1.367 . S
C255 C263 1.433 . S
C256 H252 0.929 . S
C256 C258 1.378 . S
C256 C260 1.350 . S
C257 C260 1.463 . S
C257 C262 1.350 . S
C257 N265 1.427 . S
C258 H249 0.930 . S
C258 C256 1.378 . S
C258 C259 1.367 . S
C259 C258 1.367 . S
C259 C261 1.433 . S
C260 C256 1.350 . S
C260 C257 1.463 . S
C260 N264 1.427 . S
C261 H251 0.929 . S
C261 C259 1.433 . S
C261 N264 1.384 . S
C262 H253 0.929 . S
C262 C254 1.378 . S
C262 C257 1.350 . S
C263 H250 0.929 . S
C263 C255 1.433 . S
C263 N265 1.384 . S
N264 C260 1.427 . S
N264 C261 1.384 . S
N265 C257 1.427 . S
N265 C263 1.384 . S
H266 C272 0.930 . S
H267 C276 0.930 . S
H268 C281 0.929 . S
H269 C279 0.929 . S
H270 C274 0.929 . S
H271 C280 0.929 . S
C272 H266 0.930 . S
C272 C273 1.367 . S
C272 C280 1.378 . S
C273 C272 1.367 . S
C273 C281 1.433 . S
C274 H270 0.929 . S
C274 C276 1.378 . S
C274 C278 1.350 . S
C275 C278 1.463 . S
C275 C280 1.350 . S
C275 N283 1.427 . S
C276 H267 0.930 . S
C276 C274 1.378 . S
C276 C277 1.367 . S
C277 C276 1.367 . S
C277 C279 1.433 . S
C278 C274 1.350 . S
C278 C275 1.463 . S
C278 N282 1.427 . S
C279 H269 0.929 . S
C279 C277 1.433 . S
C279 N282 1.384 . S
C280 H271 0.929 . S
C280 C272 1.378 . S
C280 C275 1.350 . S
C281 H268 0.929 . S
C281 C273 1.433 . S
C281 N283 1.384 . S
N282 C278 1.427 . S
N282 C279 1.384 . S
N283 C275 1.427 . S
N283 C281 1.384 . S
H284 C290 0.930 . S
H285 C294 0.930 . S
H286 C299 0.929 . S
H287 C297 0.929 . S
H288 C292 0.929 . S
H289 C298 0.929 . S
C290 H284 0.930 . S
C290 C291 1.367 . S
C290 C298 1.378 . S
C291 C290 1.367 . S
C291 C299 1.433 . S
C292 H288 0.929 . S
C292 C294 1.378 . S
C292 C296 1.350 . S
C293 C296 1.463 . S
C293 C298 1.350 . S
C293 N301 1.427 . S
C294 H285 0.930 . S
C294 C292 1.378 . S
C294 C295 1.367 . S
C295 C294 1.367 . S
C295 C297 1.433 . S
C296 C292 1.350 . S
C296 C293 1.463 . S
C296 N300 1.427 . S
C297 H287 0.929 . S
C297 C295 1.433 . S
C297 N300 1.384 . S
C298 H289 0.929 . S
C298 C290 1.378 . S
C298 C293 1.350 . S
C299 H286 0.929 . S
C299 C291 1.433 . S
C299 N301 1.384 . S
N300 C296 1.427 . S
N300 C297 1.384 . S
N301 C293 1.427 . S
N301 C299 1.384 . S
H302 C308 0.930 . S
H303 C312 0.930 . S
H304 C317 0.929 . S
H305 C315 0.929 . S
H306 C310 0.929 . S
H307 C316 0.929 . S
C308 H302 0.930 . S
C308 C309 1.367 . S
C308 C316 1.378 . S
C309 C308 1.367 . S
C309 C317 1.433 . S
C310 H306 0.929 . S
C310 C312 1.378 . S
C310 C314 1.350 . S
C311 C314 1.463 . S
C311 C316 1.350 . S
C311 N319 1.427 . S
C312 H303 0.930 . S
C312 C310 1.378 . S
C312 C313 1.367 . S
C313 C312 1.367 . S
C313 C315 1.433 . S
C314 C310 1.350 . S
C314 C311 1.463 . S
C314 N318 1.427 . S
C315 H305 0.929 . S
C315 C313 1.433 . S
C315 N318 1.384 . S
C316 H307 0.929 . S
C316 C308 1.378 . S
C316 C311 1.350 . S
C317 H304 0.929 . S
C317 C309 1.433 . S
C317 N319 1.384 . S
N318 C314 1.427 . S
N318 C315 1.384 . S
N319 C311 1.427 . S
N319 C317 1.384 . S
H320 C326 0.930 . S
H321 C330 0.930 . S
H322 C335 0.929 . S
H323 C333 0.929 . S
H324 C328 0.929 . S
H325 C334 0.929 . S
C326 H320 0.930 . S
C326 C327 1.367 . S
C326 C334 1.378 . S
C327 C326 1.367 . S
C327 C335 1.433 . S
C328 H324 0.929 . S
C328 C330 1.378 . S
C328 C332 1.350 . S
C329 C332 1.463 . S
C329 C334 1.350 . S
C329 N337 1.427 . S
C330 H321 0.930 . S
C330 C328 1.378 . S
C330 C331 1.367 . S
C331 C330 1.367 . S
C331 C333 1.433 . S
C332 C328 1.350 . S
C332 C329 1.463 . S
C332 N336 1.427 . S
C333 H323 0.929 . S
C333 C331 1.433 . S
C333 N336 1.384 . S
C334 H325 0.929 . S
C334 C326 1.378 . S
C334 C329 1.350 . S
C335 H322 0.929 . S
C335 C327 1.433 . S
C335 N337 1.384 . S
N336 C332 1.427 . S
N336 C333 1.384 . S
N337 C329 1.427 . S
N337 C335 1.384 . S
H338 C344 0.930 . S
H339 C348 0.930 . S
H340 C353 0.929 . S
H341 C351 0.929 . S
H342 C346 0.929 . S
H343 C352 0.929 . S
C344 H338 0.930 . S
C344 C345 1.367 . S
C344 C352 1.378 . S
C345 C344 1.367 . S
C345 C353 1.433 . S
C346 H342 0.929 . S
C346 C348 1.378 . S
C346 C350 1.350 . S
C347 C350 1.463 . S
C347 C352 1.350 . S
C347 N355 1.427 . S
C348 H339 0.930 . S
C348 C346 1.378 . S
C348 C349 1.367 . S
C349 C348 1.367 . S
C349 C351 1.433 . S
C350 C346 1.350 . S
C350 C347 1.463 . S
C350 N354 1.427 . S
C351 H341 0.929 . S
C351 C349 1.433 . S
C351 N354 1.384 . S
C352 H343 0.929 . S
C352 C344 1.378 . S
C352 C347 1.350 . S
C353 H340 0.929 . S
C353 C345 1.433 . S
C353 N355 1.384 . S
N354 C350 1.427 . S
N354 C351 1.384 . S
N355 C347 1.427 . S
N355 C353 1.384 . S
H356 C362 0.930 . S
H357 C366 0.930 . S
H358 C371 0.929 . S
H359 C369 0.929 . S
H360 C364 0.912 1_554 S
H361 C370 0.929 . S
C362 H356 0.930 . S
C362 C363 1.367 . S
C362 C370 1.378 . S
C363 C362 1.367 . S
C363 C371 1.433 . S
C364 H360 0.912 1_556 S
C364 C366 1.378 1_556 S
C364 C368 1.350 . S
C365 C368 1.463 . S
C365 C370 1.350 . S
C365 N373 1.427 . S
C366 H357 0.930 . S
C366 C364 1.378 1_554 S
C366 C367 1.367 1_554 S
C367 C366 1.367 1_556 S
C367 C369 1.433 . S
C368 C364 1.350 . S
C368 C365 1.463 . S
C368 N372 1.427 . S
C369 H359 0.929 . S
C369 C367 1.433 . S
C369 N372 1.384 . S
C370 H361 0.929 . S
C370 C362 1.378 . S
C370 C365 1.350 . S
C371 H358 0.929 . S
C371 C363 1.433 . S
C371 N373 1.384 . S
N372 C368 1.427 . S
N372 C369 1.384 . S
N373 C365 1.427 . S
N373 C371 1.384 . S
H374 C380 0.930 . S
H375 C384 0.930 . S
H376 C389 0.929 . S
H377 C387 0.929 . S
H378 C382 0.929 . S
H379 C388 0.929 . S
C380 H374 0.930 . S
C380 C381 1.367 . S
C380 C388 1.378 . S
C381 C380 1.367 . S
C381 C389 1.433 . S
C382 H378 0.929 . S
C382 C384 1.378 . S
C382 C386 1.350 . S
C383 C386 1.463 . S
C383 C388 1.350 . S
C383 N391 1.427 . S
C384 H375 0.930 . S
C384 C382 1.378 . S
C384 C385 1.367 . S
C385 C384 1.367 . S
C385 C387 1.433 . S
C386 C382 1.350 . S
C386 C383 1.463 . S
C386 N390 1.427 . S
C387 H377 0.929 . S
C387 C385 1.433 . S
C387 N390 1.384 . S
C388 H379 0.929 . S
C388 C380 1.378 . S
C388 C383 1.350 . S
C389 H376 0.929 . S
C389 C381 1.433 . S
C389 N391 1.384 . S
N390 C386 1.427 . S
N390 C387 1.384 . S
N391 C383 1.427 . S
N391 C389 1.384 . S
H392 C398 0.930 . S
H393 C402 0.930 . S
H394 C407 0.929 . S
H395 C405 0.929 . S
H396 C400 0.929 . S
H397 C406 0.929 . S
C398 H392 0.930 . S
C398 C399 1.367 . S
C398 C406 1.378 . S
C399 C398 1.367 . S
C399 C407 1.433 . S
C400 H396 0.929 . S
C400 C402 1.378 . S
C400 C404 1.350 . S
C401 C404 1.463 . S
C401 C406 1.350 . S
C401 N409 1.427 . S
C402 H393 0.930 . S
C402 C400 1.378 . S
C402 C403 1.367 . S
C403 C402 1.367 . S
C403 C405 1.433 . S
C404 C400 1.350 . S
C404 C401 1.463 . S
C404 N408 1.427 . S
C405 H395 0.929 . S
C405 C403 1.433 . S
C405 N408 1.384 . S
C406 H397 0.929 . S
C406 C398 1.378 . S
C406 C401 1.350 . S
C407 H394 0.929 . S
C407 C399 1.433 . S
C407 N409 1.384 . S
N408 C404 1.427 . S
N408 C405 1.384 . S
N409 C401 1.427 . S
N409 C407 1.384 . S
H410 C416 0.930 . S
H411 C420 0.930 . S
H412 C425 0.929 . S
H413 C423 0.929 . S
H414 C418 0.929 . S
H415 C424 0.929 . S
C416 H410 0.930 . S
C416 C417 1.367 . S
C416 C424 1.378 . S
C417 C416 1.367 . S
C417 C425 1.433 . S
C418 H414 0.929 . S
C418 C420 1.378 . S
C418 C422 1.350 . S
C419 C422 1.463 . S
C419 C424 1.350 . S
C419 N427 1.427 . S
C420 H411 0.930 . S
C420 C418 1.378 . S
C420 C421 1.363 1_556 S
C421 C420 1.363 1_554 S
C421 C423 1.435 . S
C422 C418 1.350 . S
C422 C419 1.463 . S
C422 N426 1.427 . S
C423 H413 0.929 . S
C423 C421 1.435 . S
C423 N426 1.384 1_554 S
C424 H415 0.929 . S
C424 C416 1.378 . S
C424 C419 1.350 . S
C425 H412 0.929 . S
C425 C417 1.433 . S
C425 N427 1.384 . S
N426 C422 1.427 . S
N426 C423 1.384 1_556 S
N427 C419 1.427 . S
N427 C425 1.384 . S
H428 C434 0.930 . S
H429 C438 0.930 . S
H430 C443 0.929 . S
H431 C441 0.929 . S
H432 C436 0.929 . S
H433 C442 0.929 . S
C434 H428 0.930 . S
C434 C435 1.367 . S
C434 C442 1.378 . S
C435 C434 1.367 . S
C435 C443 1.433 . S
C436 H432 0.929 . S
C436 C438 1.378 . S
C436 C440 1.350 . S
C437 C440 1.463 . S
C437 C442 1.350 . S
C437 N445 1.427 . S
C438 H429 0.930 . S
C438 C436 1.378 . S
C438 C439 1.367 . S
C439 C438 1.367 . S
C439 C441 1.433 . S
C440 C436 1.350 . S
C440 C437 1.463 . S
C440 N444 1.427 . S
C441 H431 0.929 . S
C441 C439 1.433 . S
C441 N444 1.384 . S
C442 H433 0.929 . S
C442 C434 1.378 . S
C442 C437 1.350 . S
C443 H430 0.929 . S
C443 C435 1.433 . S
C443 N445 1.384 . S
N444 C440 1.427 . S
N444 C441 1.384 . S
N445 C437 1.427 . S
N445 C443 1.384 . S
H446 C452 0.930 . S
H447 C456 0.930 . S
H448 C461 0.929 . S
H449 C459 0.929 . S
H450 C454 0.929 . S
H451 C460 0.929 . S
C452 H446 0.930 . S
C452 C453 1.367 . S
C452 C460 1.378 . S
C453 C452 1.367 . S
C453 C461 1.433 . S
C454 H450 0.929 . S
C454 C456 1.378 . S
C454 C458 1.350 . S
C455 C458 1.463 . S
C455 C460 1.350 . S
C455 N463 1.427 . S
C456 H447 0.930 . S
C456 C454 1.378 . S
C456 C457 1.367 . S
C457 C456 1.367 . S
C457 C459 1.433 . S
C458 C454 1.350 . S
C458 C455 1.463 . S
C458 N462 1.427 . S
C459 H449 0.929 . S
C459 C457 1.433 . S
C459 N462 1.384 . S
C460 H451 0.929 . S
C460 C452 1.378 . S
C460 C455 1.350 . S
C461 H448 0.929 . S
C461 C453 1.433 . S
C461 N463 1.384 . S
N462 C458 1.427 . S
N462 C459 1.384 . S
N463 C455 1.427 . S
N463 C461 1.384 . S
H464 C470 0.930 . S
H465 C474 0.930 . S
H466 C479 0.929 . S
H467 C477 0.929 . S
H468 C472 0.929 . S
H469 C478 0.929 . S
C470 H464 0.930 . S
C470 C471 1.367 . S
C470 C478 1.378 . S
C471 C470 1.367 . S
C471 C479 1.433 . S
C472 H468 0.929 . S
C472 C474 1.378 . S
C472 C476 1.350 . S
C473 C476 1.463 . S
C473 C478 1.350 . S
C473 N481 1.427 . S
C474 H465 0.930 . S
C474 C472 1.378 . S
C474 C475 1.367 . S
C475 C474 1.367 . S
C475 C477 1.433 . S
C476 C472 1.350 . S
C476 C473 1.463 . S
C476 N480 1.427 . S
C477 H467 0.929 . S
C477 C475 1.433 . S
C477 N480 1.384 . S
C478 H469 0.929 . S
C478 C470 1.378 . S
C478 C473 1.350 . S
C479 H466 0.929 . S
C479 C471 1.433 . S
C479 N481 1.384 . S
N480 C476 1.427 . S
N480 C477 1.384 . S
N481 C473 1.427 . S
N481 C479 1.384 . S
H482 C488 0.930 . S
H483 C492 0.930 . S
H484 C497 0.929 . S
H485 C495 0.929 . S
H486 C490 0.929 . S
H487 C496 0.929 . S
C488 H482 0.930 . S
C488 C489 1.367 . S
C488 C496 1.378 . S
C489 C488 1.367 . S
C489 C497 1.433 . S
C490 H486 0.929 . S
C490 C492 1.378 . S
C490 C494 1.350 . S
C491 C494 1.463 . S
C491 C496 1.350 . S
C491 N499 1.427 . S
C492 H483 0.930 . S
C492 C490 1.378 . S
C492 C493 1.367 . S
C493 C492 1.367 . S
C493 C495 1.433 . S
C494 C490 1.350 . S
C494 C491 1.463 . S
C494 N498 1.427 . S
C495 H485 0.929 . S
C495 C493 1.433 . S
C495 N498 1.384 . S
C496 H487 0.929 . S
C496 C488 1.378 . S
C496 C491 1.350 . S
C497 H484 0.929 . S
C497 C489 1.433 . S
C497 N499 1.384 . S
N498 C494 1.427 . S
N498 C495 1.384 . S
N499 C491 1.427 . S
N499 C497 1.384 . S
H500 C506 0.930 . S
H501 C510 0.930 . S
H502 C515 0.929 . S
H503 C513 0.929 . S
H504 C508 0.929 . S
H505 C514 0.929 . S
C506 H500 0.930 . S
C506 C507 1.367 . S
C506 C514 1.378 . S
C507 C506 1.367 . S
C507 C515 1.433 . S
C508 H504 0.929 . S
C508 C510 1.378 . S
C508 C512 1.350 . S
C509 C512 1.463 . S
C509 C514 1.350 . S
C509 N517 1.427 . S
C510 H501 0.930 . S
C510 C508 1.378 . S
C510 C511 1.367 . S
C511 C510 1.367 . S
C511 C513 1.433 . S
C512 C508 1.350 . S
C512 C509 1.463 . S
C512 N516 1.427 . S
C513 H503 0.929 . S
C513 C511 1.433 . S
C513 N516 1.384 . S
C514 H505 0.929 . S
C514 C506 1.378 . S
C514 C509 1.350 . S
C515 H502 0.929 . S
C515 C507 1.433 . S
C515 N517 1.384 . S
N516 C512 1.427 . S
N516 C513 1.384 . S
N517 C509 1.427 . S
N517 C515 1.384 . S
H518 C524 0.930 . S
H519 C528 0.930 . S
H520 C533 0.929 . S
H521 C531 0.929 . S
H522 C526 0.929 . S
H523 C532 0.929 . S
C524 H518 0.930 . S
C524 C525 1.367 . S
C524 C532 1.378 . S
C525 C524 1.367 . S
C525 C533 1.433 . S
C526 H522 0.929 . S
C526 C528 1.378 . S
C526 C530 1.350 . S
C527 C530 1.463 . S
C527 C532 1.350 . S
C527 N535 1.427 . S
C528 H519 0.930 . S
C528 C526 1.378 . S
C528 C529 1.367 . S
C529 C528 1.367 . S
C529 C531 1.433 . S
C530 C526 1.350 . S
C530 C527 1.463 . S
C530 N534 1.427 . S
C531 H521 0.929 . S
C531 C529 1.433 . S
C531 N534 1.384 . S
C532 H523 0.929 . S
C532 C524 1.378 . S
C532 C527 1.350 . S
C533 H520 0.929 . S
C533 C525 1.433 . S
C533 N535 1.384 . S
N534 C530 1.427 . S
N534 C531 1.384 . S
N535 C527 1.427 . S
N535 C533 1.384 . S
H536 C542 0.930 . S
H537 C546 0.930 . S
H538 C551 0.929 . S
H539 C549 0.958 . S
H540 C544 0.929 . S
H541 C550 0.929 . S
C542 H536 0.930 . S
C542 C543 1.367 . S
C542 C550 1.378 . S
C543 C542 1.367 . S
C543 C551 1.433 . S
C544 H540 0.929 . S
C544 C546 1.378 . S
C544 C548 1.350 . S
C545 C548 1.463 . S
C545 C550 1.350 . S
C545 N553 1.427 . S
C546 H537 0.930 . S
C546 C544 1.378 . S
C546 C547 1.367 . S
C547 C546 1.367 . S
C547 C549 1.419 1_556 S
C548 C544 1.350 . S
C548 C545 1.463 . S
C548 N552 1.427 . S
C549 H539 0.958 . S
C549 C547 1.419 1_554 S
C549 N552 1.368 1_554 S
C550 H541 0.929 . S
C550 C542 1.378 . S
C550 C545 1.350 . S
C551 H538 0.929 . S
C551 C543 1.433 . S
C551 N553 1.384 . S
N552 C548 1.427 . S
N552 C549 1.368 1_556 S
N553 C545 1.427 . S
N553 C551 1.384 . S
H554 C560 0.930 . S
H555 C564 0.930 . S
H556 C569 0.929 . S
H557 C567 0.929 . S
H558 C562 0.929 . S
H559 C568 0.929 . S
C560 H554 0.930 . S
C560 C561 1.367 . S
C560 C568 1.378 . S
C561 C560 1.367 . S
C561 C569 1.433 . S
C562 H558 0.929 . S
C562 C564 1.378 . S
C562 C566 1.350 . S
C563 C566 1.463 . S
C563 C568 1.350 . S
C563 N571 1.427 . S
C564 H555 0.930 . S
C564 C562 1.378 . S
C564 C565 1.367 . S
C565 C564 1.367 . S
C565 C567 1.433 . S
C566 C562 1.350 . S
C566 C563 1.463 . S
C566 N570 1.427 . S
C567 H557 0.929 . S
C567 C565 1.433 . S
C567 N570 1.384 . S
C568 H559 0.929 . S
C568 C560 1.378 . S
C568 C563 1.350 . S
C569 H556 0.929 . S
C569 C561 1.433 . S
C569 N571 1.384 . S
N570 C566 1.427 . S
N570 C567 1.384 . S
N571 C563 1.427 . S
N571 C569 1.384 . S
H572 C578 0.930 . S
H573 C582 0.930 . S
H574 C587 0.929 . S
H575 C585 0.929 . S
H576 C580 0.929 . S
H577 C586 0.929 . S
C578 H572 0.930 . S
C578 C579 1.367 . S
C578 C586 1.378 . S
C579 C578 1.367 . S
C579 C587 1.433 . S
C580 H576 0.929 . S
C580 C582 1.378 . S
C580 C584 1.350 . S
C581 C584 1.463 . S
C581 C586 1.350 . S
C581 N589 1.427 . S
C582 H573 0.930 . S
C582 C580 1.378 . S
C582 C583 1.367 . S
C583 C582 1.367 . S
C583 C585 1.433 . S
C584 C580 1.350 . S
C584 C581 1.463 . S
C584 N588 1.427 . S
C585 H575 0.929 . S
C585 C583 1.433 . S
C585 N588 1.384 . S
C586 H577 0.929 . S
C586 C578 1.378 . S
C586 C581 1.350 . S
C587 H574 0.929 . S
C587 C579 1.433 . S
C587 N589 1.384 . S
N588 C584 1.427 . S
N588 C585 1.384 . S
N589 C581 1.427 . S
N589 C587 1.384 . S
H590 C596 0.930 . S
H591 C600 0.930 . S
H592 C605 0.929 . S
H593 C603 0.929 . S
H594 C598 0.929 . S
H595 C604 0.929 . S
C596 H590 0.930 . S
C596 C597 1.367 . S
C596 C604 1.378 . S
C597 C596 1.367 . S
C597 C605 1.433 . S
C598 H594 0.929 . S
C598 C600 1.378 . S
C598 C602 1.350 . S
C599 C602 1.463 . S
C599 C604 1.350 . S
C599 N607 1.427 . S
C600 H591 0.930 . S
C600 C598 1.378 . S
C600 C601 1.367 . S
C601 C600 1.367 . S
C601 C603 1.433 . S
C602 C598 1.350 . S
C602 C599 1.463 . S
C602 N606 1.427 . S
C603 H593 0.929 . S
C603 C601 1.433 . S
C603 N606 1.384 . S
C604 H595 0.929 . S
C604 C596 1.378 . S
C604 C599 1.350 . S
C605 H592 0.929 . S
C605 C597 1.433 . S
C605 N607 1.384 . S
N606 C602 1.427 . S
N606 C603 1.384 . S
N607 C599 1.427 . S
N607 C605 1.384 . S
H608 C614 0.930 . S
H609 C618 0.930 . S
H610 C623 0.929 . S
H611 C621 0.929 . S
H612 C616 0.929 . S
H613 C622 0.929 . S
C614 H608 0.930 . S
C614 C615 1.367 . S
C614 C622 1.378 . S
C615 C614 1.367 . S
C615 C623 1.433 . S
C616 H612 0.929 . S
C616 C618 1.378 . S
C616 C620 1.350 . S
C617 C620 1.463 . S
C617 C622 1.350 . S
C617 N625 1.427 . S
C618 H609 0.930 . S
C618 C616 1.378 . S
C618 C619 1.367 . S
C619 C618 1.367 . S
C619 C621 1.433 . S
C620 C616 1.350 . S
C620 C617 1.463 . S
C620 N624 1.427 . S
C621 H611 0.929 . S
C621 C619 1.433 . S
C621 N624 1.384 . S
C622 H613 0.929 . S
C622 C614 1.378 . S
C622 C617 1.350 . S
C623 H610 0.929 . S
C623 C615 1.433 . S
C623 N625 1.384 . S
N624 C620 1.427 . S
N624 C621 1.384 . S
N625 C617 1.427 . S
N625 C623 1.384 . S
H626 C632 0.930 . S
H627 C636 0.930 . S
H628 C641 0.929 . S
H629 C639 0.929 . S
H630 C634 0.929 . S
H631 C640 0.929 . S
C632 H626 0.930 . S
C632 C633 1.367 . S
C632 C640 1.378 . S
C633 C632 1.367 . S
C633 C641 1.433 . S
C634 H630 0.929 . S
C634 C636 1.378 . S
C634 C638 1.350 . S
C635 C638 1.463 . S
C635 C640 1.350 . S
C635 N643 1.427 . S
C636 H627 0.930 . S
C636 C634 1.378 . S
C636 C637 1.367 . S
C637 C636 1.367 . S
C637 C639 1.433 . S
C638 C634 1.350 . S
C638 C635 1.463 . S
C638 N642 1.427 . S
C639 H629 0.929 . S
C639 C637 1.433 . S
C639 N642 1.384 . S
C640 H631 0.929 . S
C640 C632 1.378 . S
C640 C635 1.350 . S
C641 H628 0.929 . S
C641 C633 1.433 . S
C641 N643 1.384 . S
N642 C638 1.427 . S
N642 C639 1.384 . S
N643 C635 1.427 . S
N643 C641 1.384 . S
H644 C650 0.930 . S
H645 C654 0.930 . S
H646 C659 0.929 . S
H647 C657 0.929 . S
H648 C652 0.929 . S
H649 C658 0.929 . S
C650 H644 0.930 . S
C650 C651 1.367 . S
C650 C658 1.378 . S
C651 C650 1.367 . S
C651 C659 1.433 . S
C652 H648 0.929 . S
C652 C654 1.378 . S
C652 C656 1.350 . S
C653 C656 1.463 . S
C653 C658 1.350 . S
C653 N661 1.427 . S
C654 H645 0.930 . S
C654 C652 1.378 . S
C654 C655 1.367 . S
C655 C654 1.367 . S
C655 C657 1.433 . S
C656 C652 1.350 . S
C656 C653 1.463 . S
C656 N660 1.427 . S
C657 H647 0.929 . S
C657 C655 1.433 . S
C657 N660 1.384 . S
C658 H649 0.929 . S
C658 C650 1.378 . S
C658 C653 1.350 . S
C659 H646 0.929 . S
C659 C651 1.433 . S
C659 N661 1.384 . S
N660 C656 1.427 . S
N660 C657 1.384 . S
N661 C653 1.427 . S
N661 C659 1.384 . S
H662 C668 0.930 . S
H663 C672 0.930 . S
H664 C677 0.929 . S
H665 C675 0.929 . S
H666 C670 0.929 . S
H667 C676 0.929 . S
C668 H662 0.930 . S
C668 C669 1.367 . S
C668 C676 1.378 . S
C669 C668 1.367 . S
C669 C677 1.433 . S
C670 H666 0.929 . S
C670 C672 1.378 . S
C670 C674 1.350 . S
C671 C674 1.463 . S
C671 C676 1.350 . S
C671 N679 1.427 . S
C672 H663 0.930 . S
C672 C670 1.378 . S
C672 C673 1.367 . S
C673 C672 1.367 . S
C673 C675 1.433 . S
C674 C670 1.350 . S
C674 C671 1.463 . S
C674 N678 1.427 . S
C675 H665 0.929 . S
C675 C673 1.433 . S
C675 N678 1.384 . S
C676 H667 0.929 . S
C676 C668 1.378 . S
C676 C671 1.350 . S
C677 H664 0.929 . S
C677 C669 1.433 . S
C677 N679 1.384 . S
N678 C674 1.427 . S
N678 C675 1.384 . S
N679 C671 1.427 . S
N679 C677 1.384 . S
C255 C4 1.090 . S
C259 C95 1.122 . S
C273 C16 1.255 . S
C277 C144 1.263 . S
C295 C170 2.053 . S
C291 C32 2.078 . S
C309 C43 2.274 . S
C313 C218 2.226 . S
C331 C130 2.649 . S
C327 C5 2.545 . S
C349 C98 0.462 . S
C345 C21 0.462 . S
C367 C219 1.885 . S
C363 C27 1.924 . S
C385 C187 1.583 . S
C381 C37 1.585 . S
C399 C10 1.460 . S
C403 C215 1.486 . S
C421 C147 2.522 . S
C417 C26 2.594 . S
C435 C38 2.088 . S
C439 C99 2.087 . S
C453 C15 1.041 . S
C457 C184 1.046 . S
C475 C104 1.275 . S
C471 C48 1.267 . S
C489 C59 1.053 . S
C493 C135 1.053 . S
C507 C76 2.467 . S
C511 C179 2.429 . S
C525 C87 2.111 . S
C529 C227 2.099 . S
C543 C54 1.921 . S
C547 C139 2.013 1_556 S
C565 C107 1.418 . S
C561 C60 1.450 . S
C583 C210 1.756 . S
C579 C71 1.791 . S
C601 C178 1.553 . S
C597 C82 1.598 . S
C615 C49 1.710 . S
C619 C224 1.803 . S
C637 C138 1.987 . S
C633 C70 2.052 . S
C655 C90 2.533 . S
C651 C81 2.542 . S
C669 C65 0.886 . S
C673 C175 0.882 . S
