# Generated by pormake.
# Topology pth, (4,4)-cn, num edge types: 1
# Building blocks:
#     Node 0, Type 0, BuildingBlock: QUQFOY_clean_sbu_1, # of connection points: 4
#     Node 1, Type 0, BuildingBlock: QUQFOY_clean_sbu_1, # of connection points: 4
#     Node 2, Type 0, BuildingBlock: QUQFOY_clean_sbu_1, # of connection points: 4
#     Node 3, Type 1, BuildingBlock: AZAVOO_clean_linker_0, # of connection points: 4
#     Node 4, Type 1, BuildingBlock: AZAVOO_clean_linker_0, # of connection points: 4
#     Node 5, Type 1, BuildingBlock: AZAVOO_clean_linker_0, # of connection points: 4
#     Edge 6, Type (0, 1), BuildingBlock: ZUJKAS_clean_linker_0, # of connection points: 2
#     Edge 7, Type (0, 1), BuildingBlock: ZUJKAS_clean_linker_0, # of connection points: 2
#     Edge 8, Type (0, 1), BuildingBlock: ZUJKAS_clean_linker_0, # of connection points: 2
#     Edge 9, Type (0, 1), BuildingBlock: ZUJKAS_clean_linker_0, # of connection points: 2
#     Edge 10, Type (0, 1), BuildingBlock: ZUJKAS_clean_linker_0, # of connection points: 2
#     Edge 11, Type (0, 1), BuildingBlock: ZUJKAS_clean_linker_0, # of connection points: 2
#     Edge 12, Type (0, 1), BuildingBlock: ZUJKAS_clean_linker_0, # of connection points: 2
#     Edge 13, Type (0, 1), BuildingBlock: ZUJKAS_clean_linker_0, # of connection points: 2
#     Edge 14, Type (0, 1), BuildingBlock: ZUJKAS_clean_linker_0, # of connection points: 2
#     Edge 15, Type (0, 1), BuildingBlock: ZUJKAS_clean_linker_0, # of connection points: 2
#     Edge 16, Type (0, 1), BuildingBlock: ZUJKAS_clean_linker_0, # of connection points: 2
#     Edge 17, Type (0, 1), BuildingBlock: ZUJKAS_clean_linker_0, # of connection points: 2
# Relax obj value: 0.108
# Max RMSD: 0.231
# Mean RMSD: 0.169
data_MOF--net-pth--node1-QUQFOY_clean_sbu_1--node2-AZAVOO_clean_linker_0--edge1-ZUJKAS_clean_linker_0
_symmetry_space_group_name_H-M    P1
_symmetry_Int_Tables_number       1
_symmetry_cell_setting            triclinic
loop_
_symmetry_equiv_pos_as_xyz
'x, y, z'
_cell_length_a     31.546957
_cell_length_b     34.692341
_cell_length_c     91.441631
_cell_angle_alpha  92.348376
_cell_angle_beta   89.019239
_cell_angle_gamma 120.3638
loop_
_atom_site_label
_atom_site_type_symbol
_atom_site_fract_x
_atom_site_fract_y
_atom_site_fract_z
_atom_type_partial_charge
O0 O 0.10753 0.12035 0.02152 0.0
Cd1 Cd 0.04365 0.07167 0.0308 0.0
Cd2 Cd 0.08945 0.02467 0.02795 0.0
O3 O 0.14763 0.08351 0.02085 0.0
O4 O 0.01199 0.1033 0.04042 0.0
O5 O 0.04004 0.06697 0.05262 0.0
C6 C 0.01972 0.09126 0.05279 0.0
C7 C 0.0981 0.98745 0.04721 0.0
C8 C 0.14605 0.11863 0.01852 0.0
C9 C 0.99708 0.99138 0.01042 0.0
O10 O 0.0339 0.98718 0.01311 0.0
O11 O 0.99244 0.02219 0.01688 0.0
O12 O 0.11484 0.98582 0.03436 0.0
O13 O 0.07751 0.01132 0.04917 0.0
O14 O 0.98109 0.06149 0.36669 0.0
Cd15 Cd 0.03873 0.07849 0.35245 0.0
Cd16 Cd 0.00855 0.99015 0.35412 0.0
O17 O 0.95257 0.98887 0.36643 0.0
O18 O 0.05539 0.13804 0.34546 0.0
O19 O 0.02808 0.07795 0.33075 0.0
C20 C 0.04255 0.11998 0.3325 0.0
C21 C 0.99144 0.93315 0.33667 0.0
C22 C 0.94977 0.02272 0.37084 0.0
C23 C 0.10936 0.05676 0.36585 0.0
O24 O 0.07565 0.0161 0.3643 0.0
O25 O 0.10309 0.08761 0.36127 0.0
O26 O 0.98765 0.92608 0.35048 0.0
O27 O 0.00336 0.97266 0.33266 0.0
O28 O 0.97328 0.01544 0.67989 0.0
Cd29 Cd 0.02022 0.00998 0.69406 0.0
Cd30 Cd 0.0703 0.09879 0.69202 0.0
O31 O 0.0085 0.08887 0.68131 0.0
O32 O 0.98108 0.94967 0.70226 0.0
O33 O 0.00914 0.01238 0.71571 0.0
C34 C 0.98435 0.9692 0.71484 0.0
C35 C 0.10697 0.15193 0.71102 0.0
C36 C 0.97399 0.05105 0.67664 0.0
C37 C 0.11858 0.04881 0.68011 0.0
O38 O 0.11817 0.08525 0.68054 0.0
O39 O 0.08381 0.01429 0.68582 0.0
O40 O 0.10988 0.16346 0.69765 0.0
O41 O 0.08081 0.10993 0.71371 0.0
H42 H 0.96984 0.45975 0.09395 0.0
H43 H 0.11078 0.81122 0.21946 0.0
H44 H 0.93335 0.42285 0.17306 0.0
H45 H 0.92052 0.35284 0.16157 0.0
H46 H 0.06976 0.39066 0.17251 0.0
H47 H 0.08175 0.46024 0.18427 0.0
H48 H 0.94953 0.50564 0.15493 0.0
H49 H 0.94488 0.48576 0.12878 0.0
H50 H 0.08504 0.49221 0.13169 0.0
H51 H 0.08945 0.51256 0.15779 0.0
H52 H 0.96397 0.59024 0.17234 0.0
H53 H 0.97534 0.64812 0.15565 0.0
H54 H 0.11985 0.67069 0.14471 0.0
H55 H 0.10775 0.61231 0.1613 0.0
H56 H 0.96276 0.59263 0.20553 0.0
H57 H 0.97467 0.66424 0.21524 0.0
H58 H 0.12775 0.72854 0.20288 0.0
H59 H 0.11543 0.65653 0.1934 0.0
H60 H 0.95153 0.51784 0.22299 0.0
H61 H 0.95013 0.56044 0.24479 0.0
H62 H 0.10768 0.64572 0.2422 0.0
H63 H 0.1086 0.60309 0.22035 0.0
H64 H 0.94404 0.42156 0.20655 0.0
H65 H 0.94398 0.36779 0.22314 0.0
H66 H 0.09659 0.46059 0.23353 0.0
H67 H 0.09624 0.514 0.21695 0.0
O68 O 0.9725 0.46781 0.10429 0.0
O69 O 0.04451 0.4713 0.10639 0.0
O70 O 0.02597 0.74787 0.22169 0.0
O71 O 0.10486 0.78264 0.21547 0.0
C72 C 0.01776 0.49126 0.18455 0.0
C73 C 0.02228 0.52217 0.17412 0.0
C74 C 0.02935 0.56424 0.17881 0.0
C75 C 0.03165 0.57537 0.19388 0.0
C76 C 0.02827 0.54491 0.20432 0.0
C77 C 0.02155 0.50287 0.19968 0.0
C78 C 0.00851 0.44657 0.17941 0.0
C79 C 0.96292 0.41556 0.17318 0.0
C80 C 0.95581 0.37578 0.16656 0.0
C81 C 0.9943 0.3664 0.16598 0.0
C82 C 0.03924 0.39666 0.17288 0.0
C83 C 0.04626 0.43646 0.17956 0.0
C84 C 0.01978 0.51048 0.15823 0.0
C85 C 0.97926 0.50292 0.14987 0.0
C86 C 0.97667 0.49147 0.13495 0.0
C87 C 0.01457 0.48734 0.12814 0.0
C88 C 0.0552 0.49506 0.13659 0.0
C89 C 0.05778 0.50661 0.1515 0.0
C90 C 0.03505 0.5972 0.16799 0.0
C91 C 0.99792 0.60757 0.16625 0.0
C92 C 0.00463 0.64079 0.1568 0.0
C93 C 0.04863 0.66419 0.14892 0.0
C94 C 0.08536 0.65299 0.1505 0.0
C95 C 0.07861 0.61977 0.15997 0.0
C96 C 0.03828 0.61945 0.19882 0.0
C97 C -0.00122 0.62227 0.20489 0.0
C98 C 0.00569 0.6632 0.21042 0.0
C99 C 0.05222 0.70212 0.20986 0.0
C100 C 0.09149 0.69923 0.2035 0.0
C101 C 0.08454 0.65822 0.19802 0.0
C102 C 0.03009 0.55769 0.22005 0.0
C103 C 0.98598 0.54426 0.22758 0.0
C104 C 0.98524 0.56884 0.23999 0.0
C105 C 0.02869 0.60706 0.24497 0.0
C106 C 0.07355 0.61693 0.23842 0.0
C107 C 0.07425 0.59228 0.22607 0.0
C108 C 0.02014 0.47166 0.21055 0.0
C109 C 0.97733 0.43029 0.21248 0.0
C110 C 0.97745 0.39958 0.22189 0.0
C111 C 0.02033 0.40989 0.22961 0.0
C112 C 0.06282 0.45183 0.22787 0.0
C113 C 0.06272 0.48238 0.21841 0.0
C114 C 0.01162 0.47502 0.1123 0.0
C115 C 0.06 0.74549 0.21602 0.0
H116 H 0.60054 0.00662 0.43103 0.0
H117 H 0.32247 0.15284 0.54152 0.0
H118 H 0.56227 0.97411 0.50855 0.0
H119 H 0.62001 0.96353 0.49332 0.0
H120 H 0.73323 0.09974 0.5038 0.0
H121 H 0.67451 0.11019 0.51882 0.0
H122 H 0.50277 0.99407 0.48709 0.0
H123 H 0.53049 0.98788 0.46237 0.0
H124 H 0.65966 0.11862 0.46885 0.0
H125 H 0.63122 0.12451 0.49345 0.0
H126 H 0.41936 0.01361 0.50171 0.0
H127 H 0.37672 0.02257 0.48118 0.0
H128 H 0.5055 0.15018 0.47269 0.0
H129 H 0.54725 0.14141 0.49354 0.0
H130 H 0.40817 0.01199 0.53571 0.0
H131 H 0.34156 0.02622 0.54215 0.0
H132 H 0.43315 0.16381 0.53018 0.0
H133 H 0.49964 0.1492 0.52394 0.0
H134 H 0.47219 0.99216 0.55359 0.0
H135 H 0.43703 0.99049 0.57772 0.0
H136 H 0.50985 0.13498 0.57915 0.0
H137 H 0.54262 0.13581 0.55465 0.0
H138 H 0.56699 0.98244 0.54112 0.0
H139 H 0.61688 0.97781 0.56049 0.0
H140 H 0.67375 0.11754 0.57213 0.0
H141 H 0.62524 0.12209 0.55246 0.0
O142 O 0.58932 0.01035 0.44061 0.0
O143 O 0.65422 0.07832 0.44433 0.0
O144 O 0.30271 0.07531 0.54515 0.0
O145 O 0.34819 0.1463 0.53906 0.0
C146 C 0.57566 0.05366 0.51878 0.0
C147 C 0.55092 0.06134 0.50753 0.0
C148 C 0.51284 0.0701 0.511 0.0
C149 C 0.4993 0.07104 0.52574 0.0
C150 C 0.52473 0.06416 0.537 0.0
C151 C 0.56343 0.0561 0.53354 0.0
C152 C 0.61422 0.04298 0.51465 0.0
C153 C 0.60016 0.00097 0.50809 0.0
C154 C 0.63324 0.99506 0.49935 0.0
C155 C 0.68089 0.03112 0.49712 0.0
C156 C 0.69644 0.07163 0.50511 0.0
C157 C 0.66323 0.07751 0.51386 0.0
C158 C 0.56504 0.05969 0.49202 0.0
C159 C 0.53665 0.02157 0.48304 0.0
C160 C 0.55274 0.01803 0.46898 0.0
C161 C 0.59748 0.05264 0.46367 0.0
C162 C 0.62512 0.09131 0.4726 0.0
C163 C 0.60893 0.09482 0.48663 0.0
C164 C 0.48628 0.07687 0.49908 0.0
C165 C 0.43806 0.04369 0.4955 0.0
C166 C 0.41402 0.04869 0.4837 0.0
C167 C 0.4379 0.08695 0.47524 0.0
C168 C 0.48598 0.12053 0.47906 0.0
C169 C 0.50995 0.1155 0.49089 0.0
C170 C 0.45871 0.07961 0.52942 0.0
C171 C 0.41379 0.0452 0.53455 0.0
C172 C 0.3758 0.05341 0.53818 0.0
C173 C 0.38205 0.0962 0.5367 0.0
C174 C 0.42712 0.13051 0.53147 0.0
C175 C 0.46511 0.12226 0.52787 0.0
C176 C 0.50951 0.06405 0.5524 0.0
C177 C 0.48098 0.0234 0.55925 0.0
C178 C 0.46122 0.02262 0.57308 0.0
C179 C 0.47023 0.06261 0.58038 0.0
C180 C 0.50123 0.10348 0.57374 0.0
C181 C 0.52035 0.10414 0.55981 0.0
C182 C 0.59267 0.05262 0.54538 0.0
C183 C 0.59043 0.012 0.54784 0.0
C184 C 0.61861 0.00937 0.55897 0.0
C185 C 0.6494 0.04735 0.56784 0.0
C186 C 0.65105 0.08785 0.56537 0.0
C187 C 0.62308 0.09045 0.55422 0.0
C188 C 0.61549 0.04809 0.44896 0.0
C189 C 0.34183 0.10511 0.54057 0.0
H190 H 0.58136 0.65168 0.95895 0.0
H191 H 0.34941 0.26123 0.84143 0.0
H192 H 0.56867 0.65869 0.87982 0.0
H193 H 0.62489 0.72575 0.89433 0.0
H194 H 0.74158 0.69688 0.88622 0.0
H195 H 0.68514 0.63022 0.8715 0.0
H196 H 0.50344 0.57942 0.90028 0.0
H197 H 0.52279 0.60892 0.92558 0.0
H198 H 0.66022 0.60976 0.92257 0.0
H199 H 0.64005 0.57966 0.89737 0.0
H200 H 0.42791 0.4824 0.88535 0.0
H201 H 0.38496 0.43154 0.90515 0.0
H202 H 0.51894 0.43376 0.91623 0.0
H203 H 0.56088 0.48317 0.89604 0.0
H204 H 0.42252 0.4777 0.85136 0.0
H205 H 0.3604 0.40238 0.84283 0.0
H206 H 0.45329 0.35214 0.85669 0.0
H207 H 0.51549 0.42782 0.86496 0.0
H208 H 0.49058 0.55903 0.83342 0.0
H209 H 0.44441 0.51673 0.81152 0.0
H210 H 0.50917 0.43315 0.81359 0.0
H211 H 0.55524 0.4757 0.83549 0.0
H212 H 0.57884 0.65526 0.84757 0.0
H213 H 0.63393 0.70936 0.8299 0.0
H214 H 0.69784 0.62659 0.82012 0.0
H215 H 0.6424 0.57267 0.83769 0.0
O216 O 0.57396 0.63917 0.94904 0.0
O217 O 0.64454 0.63965 0.94683 0.0
O218 O 0.32711 0.31894 0.83774 0.0
O219 O 0.37298 0.2912 0.84494 0.0
C220 C 0.58591 0.59307 0.87029 0.0
C221 C 0.56001 0.56253 0.88136 0.0
C222 C 0.52383 0.51819 0.87758 0.0
C223 C 0.51283 0.50452 0.86273 0.0
C224 C 0.53941 0.53488 0.85161 0.0
C225 C 0.57639 0.57909 0.8554 0.0
C226 C 0.62289 0.63962 0.87472 0.0
C227 C 0.6069 0.66793 0.88069 0.0
C228 C 0.63888 0.70587 0.8891 0.0
C229 C 0.68731 0.71599 0.89166 0.0
C230 C 0.70453 0.69002 0.88441 0.0
C231 C 0.67243 0.65202 0.87596 0.0
C232 C 0.57041 0.57757 0.89701 0.0
C233 C 0.53745 0.58559 0.90517 0.0
C234 C 0.54872 0.60262 0.91959 0.0
C235 C 0.59318 0.61192 0.92608 0.0
C236 C 0.62574 0.6031 0.9179 0.0
C237 C 0.61433 0.58591 0.90351 0.0
C238 C 0.49738 0.48629 0.88927 0.0
C239 C 0.44772 0.47147 0.89198 0.0
C240 C 0.42346 0.44283 0.90338 0.0
C241 C 0.4486 0.42876 0.91232 0.0
C242 C 0.49835 0.44352 0.90946 0.0
C243 C 0.52247 0.47194 0.898 0.0
C244 C 0.47351 0.45818 0.85872 0.0
C245 C 0.42926 0.45033 0.85259 0.0
C246 C 0.39388 0.4073 0.84773 0.0
C247 C 0.40197 0.37124 0.84903 0.0
C248 C 0.44594 0.37914 0.8555 0.0
C249 C 0.48141 0.42227 0.8603 0.0
C250 C 0.52579 0.52009 0.8361 0.0
C251 C 0.49644 0.53288 0.82876 0.0
C252 C 0.46991 0.50852 0.8163 0.0
C253 C 0.47244 0.47106 0.81105 0.0
C254 C 0.50587 0.46136 0.81757 0.0
C255 C 0.53258 0.48589 0.82996 0.0
C256 C 0.60672 0.61012 0.8439 0.0
C257 C 0.60457 0.64877 0.84152 0.0
C258 C 0.63622 0.67971 0.8315 0.0
C259 C 0.67043 0.67237 0.82366 0.0
C260 C 0.67157 0.633 0.82585 0.0
C261 C 0.64001 0.60219 0.83589 0.0
C262 C 0.6056 0.63103 0.94127 0.0
C263 C 0.36497 0.32564 0.84357 0.0
H264 H 0.97449 0.14031 0.05638 0.0
H265 H 0.96336 0.17341 0.07914 0.0
H266 H 0.02748 0.11155 0.1035 0.0
H267 H 0.03921 0.07842 0.08069 0.0
H268 H 0.91366 0.13429 0.10606 0.0
H269 H 0.11567 0.24755 0.11304 0.0
H270 H 0.08879 0.21766 0.09596 0.0
H271 H 0.09348 0.18858 0.11107 0.0
C272 C 0.98583 0.13333 0.06658 0.0
C273 C 0.0082 0.10712 0.06672 0.0
C274 C 0.9793 0.15219 0.07958 0.0
C275 C 0.99519 0.14537 0.09295 0.0
C276 C 0.01561 0.11766 0.09324 0.0
H277 H 0.02693 0.30909 0.17256 0.0
H278 H 0.02316 0.24832 0.15687 0.0
C279 C 0.02209 0.09866 0.08022 0.0
C280 C 0.99275 0.16962 0.10633 0.0
H281 H 0.06446 0.25801 0.12955 0.0
C282 C 0.94658 0.16094 0.11135 0.0
C283 C 0.03579 0.20417 0.11323 0.0
C284 C 0.08635 0.21546 0.10806 0.0
C285 C 0.94233 0.18697 0.1228 0.0
C286 C 0.98541 0.2231 0.12915 0.0
C287 C 0.03151 0.23029 0.12464 0.0
C288 C 0.9838 0.25672 0.1393 0.0
C289 C 0.89177 0.176 0.12781 0.0
C290 C 0.9632 0.28167 0.13458 0.0
C291 C 0.96556 0.31641 0.14343 0.0
C292 C 0.98883 0.32715 0.15719 0.0
C293 C 0.00899 0.30177 0.16199 0.0
C294 C 0.00662 0.26693 0.15309 0.0
H295 H 0.86443 0.14008 0.12566 0.0
H296 H 0.89151 0.1841 0.13968 0.0
H297 H 0.87995 0.1959 0.12166 0.0
H298 H 0.94678 0.27532 0.12379 0.0
H299 H 0.95075 0.33594 0.13922 0.0
H300 H 0.93064 0.08686 0.38182 0.0
H301 H 0.87888 0.08138 0.40275 0.0
H302 H 0.83464 0.94251 0.40635 0.0
H303 H 0.88641 0.94752 0.38543 0.0
H304 H 0.77376 0.01935 0.40831 0.0
H305 H 0.90065 0.00554 0.44655 0.0
H306 H 0.91861 0.02542 0.42827 0.0
H307 H 0.87865 0.96688 0.43101 0.0
C308 C 0.90942 0.05495 0.38692 0.0
C309 C 0.91307 0.01774 0.38204 0.0
C310 C 0.87987 0.05191 0.39887 0.0
C311 C 0.8537 0.01177 0.40618 0.0
C312 C 0.85519 0.97394 0.40093 0.0
H313 H 0.69602 0.96178 0.48922 0.0
H314 H 0.73596 0.95427 0.46691 0.0
C315 C 0.88459 0.97686 0.38893 0.0
C316 C 0.82702 0.0104 0.41977 0.0
H317 H 0.83164 0.0052 0.45686 0.0
C318 C 0.78616 0.01602 0.41893 0.0
C319 C 0.84339 0.00592 0.43356 0.0
C320 C 0.88791 0.00088 0.43502 0.0
C321 C 0.76122 0.01751 0.4316 0.0
C322 C 0.7785 0.01441 0.44544 0.0
C323 C 0.81867 0.00772 0.44623 0.0
C324 C 0.75639 0.0196 0.45923 0.0
C325 C 0.71649 0.0222 0.43003 0.0
C326 C 0.75616 0.05933 0.46249 0.0
C327 C 0.73341 0.06367 0.47515 0.0
C328 C 0.71088 0.02848 0.48489 0.0
C329 C 0.71287 0.98934 0.48188 0.0
C330 C 0.73564 0.98502 0.46917 0.0
H331 H 0.69961 0.01054 0.41899 0.0
H332 H 0.68835 0.00304 0.43837 0.0
H333 H 0.72753 0.05797 0.43155 0.0
H334 H 0.77289 0.08677 0.4551 0.0
H335 H 0.73181 0.09394 0.47699 0.0
H336 H 0.93306 0.87846 0.71622 0.0
H337 H 0.8857 0.83392 0.73675 0.0
H338 H 0.92984 0.95434 0.76307 0.0
H339 H 0.97721 -0.00052 0.74246 0.0
H340 H 0.91631 0.83193 0.76566 0.0
H341 H 0.77793 0.8864 0.76467 0.0
H342 H 0.81954 0.89537 0.74968 0.0
H343 H 0.84123 0.93004 0.7661 0.0
C344 C 0.93294 0.89559 0.72638 0.0
C345 C 0.95863 0.94255 0.72768 0.0
C346 C 0.90589 0.87004 0.73811 0.0
C347 C 0.90375 0.89085 0.75134 0.0
C348 C 0.93042 0.93769 0.75285 0.0
H349 H 0.72164 0.76353 0.82766 0.0
H350 H 0.78094 0.81871 0.81103 0.0
C351 C 0.95765 0.96339 0.7411 0.0
C352 C 0.87271 0.86307 0.76336 0.0
H353 H 0.76713 0.83448 0.78223 0.0
C354 C 0.88386 0.83265 0.76937 0.0
C355 C 0.83052 0.86425 0.76818 0.0
C356 C 0.81615 0.89548 0.76179 0.0
C357 C 0.85355 0.8029 0.77995 0.0
C358 C 0.81047 0.80305 0.78441 0.0
C359 C 0.80011 0.83439 0.77874 0.0
C360 C 0.77463 0.7697 0.79448 0.0
C361 C 0.86792 0.77159 0.78626 0.0
C362 C 0.75077 0.72397 0.79053 0.0
C363 C 0.71671 0.69242 0.79995 0.0
C364 C 0.70559 0.70603 0.81346 0.0
C365 C 0.729 0.75197 0.81727 0.0
C366 C 0.7631 0.78353 0.80784 0.0
H367 H 0.90787 0.78423 0.785 0.0
H368 H 0.85848 0.76671 0.79805 0.0
H369 H 0.84772 0.73857 0.78037 0.0
H370 H 0.75821 0.71268 0.7801 0.0
H371 H 0.6987 0.65737 0.79658 0.0
H372 H 0.06284 0.98111 0.07509 0.0
H373 H 0.06016 0.93196 0.09399 0.0
H374 H 0.1337 0.88355 0.06498 0.0
H375 H 0.13713 0.93286 0.04612 0.0
H376 H 0.01264 0.83961 0.09113 0.0
H377 H 0.21045 0.90954 0.10309 0.0
H378 H 0.18771 0.94007 0.09356 0.0
H379 H 0.19568 0.89789 0.08395 0.0
C380 C 0.07912 0.9605 0.07281 0.0
C381 C 0.10021 0.96086 0.05911 0.0
C382 C 0.07751 0.93244 0.08362 0.0
C383 C 0.09726 0.90455 0.08095 0.0
C384 C 0.11919 0.9055 0.06739 0.0
H385 H 0.09035 0.68186 0.1217 0.0
H386 H 0.10264 0.74181 0.10582 0.0
C387 C 0.12083 0.93352 0.05658 0.0
C388 C 0.09155 0.87189 0.09186 0.0
H389 H 0.15536 0.83677 0.11182 0.0
C390 C 0.04383 0.83926 0.09579 0.0
C391 C 0.13234 0.87148 0.09786 0.0
C392 C 0.18446 0.90687 0.09452 0.0
C393 C 0.03571 0.80536 0.10524 0.0
C394 C 0.07647 0.80454 0.11105 0.0
C395 C 0.12423 0.83749 0.10729 0.0
C396 C 0.07015 0.7692 0.12088 0.0
C397 C 0.98359 0.76989 0.10857 0.0
C398 C 0.04846 0.76527 0.13467 0.0
C399 C 0.04155 0.73122 0.14377 0.0
C400 C 0.0564 0.70058 0.13927 0.0
C401 C 0.07886 0.70512 0.12553 0.0
C402 C 0.08577 0.73922 0.11643 0.0
H403 H 0.95689 0.7696 0.10074 0.0
H404 H 0.97974 0.73622 0.10825 0.0
H405 H 0.97385 0.77651 0.11973 0.0
H406 H 0.03702 0.78865 0.1384 0.0
H407 H 0.02506 0.72919 0.15441 0.0
H408 H 0.13717 0.9992 0.37533 0.0
H409 H 0.20545 0.01641 0.39161 0.0
H410 H 0.25193 0.15656 0.39146 0.0
H411 H 0.18327 0.13971 0.37519 0.0
H412 H 0.31073 0.07674 0.38935 0.0
H413 H 0.2237 0.12248 0.43516 0.0
H414 H 0.19022 0.09236 0.4188 0.0
H415 H 0.23373 0.15116 0.41838 0.0
C416 C 0.16216 0.03379 0.3786 0.0
C417 C 0.1544 0.06804 0.3741 0.0
C418 C 0.20125 0.04354 0.38787 0.0
C419 C 0.23318 0.08762 0.39287 0.0
C420 C 0.22718 0.12224 0.38785 0.0
H421 H 0.4373 0.16142 0.46662 0.0
H422 H 0.39478 0.16767 0.44547 0.0
C423 C 0.18807 0.11254 0.37851 0.0
C424 C 0.2705 0.0964 0.40409 0.0
H425 H 0.29547 0.12143 0.44053 0.0
C426 C 0.30786 0.08704 0.40051 0.0
C427 C 0.26657 0.10994 0.41861 0.0
C428 C 0.2263 0.11935 0.42308 0.0
C429 C 0.34083 0.08985 0.41119 0.0
C430 C 0.33548 0.10138 0.42584 0.0
C431 C 0.2994 0.11255 0.42928 0.0
C432 C 0.36422 0.09869 0.43798 0.0
C433 C 0.38077 0.08006 0.40669 0.0
C434 C 0.36079 0.05777 0.44082 0.0
C435 C 0.38512 0.05415 0.45282 0.0
C436 C 0.41301 0.09129 0.46231 0.0
C437 C 0.41656 0.13234 0.45941 0.0
C438 C 0.39218 0.13593 0.44738 0.0
H439 H 0.39002 0.08635 0.39492 0.0
H440 H 0.41464 0.10066 0.41331 0.0
H441 H 0.36778 0.04428 0.40837 0.0
H442 H 0.33848 0.02834 0.43391 0.0
H443 H 0.38208 0.0222 0.45465 0.0
H444 H 0.15998 0.24258 0.70891 0.0
H445 H 0.21885 0.29722 0.72669 0.0
H446 H 0.18113 0.19253 0.75691 0.0
H447 H 0.12209 0.13742 0.73917 0.0
H448 H 0.2079 0.31846 0.75753 0.0
H449 H 0.33217 0.2494 0.74891 0.0
H450 H 0.28309 0.23739 0.73635 0.0
H451 H 0.26954 0.20988 0.75344 0.0
C452 C 0.16363 0.2312 0.71942 0.0
C453 C 0.13667 0.18559 0.72259 0.0
C454 C 0.19727 0.2625 0.72955 0.0
C455 C 0.20479 0.24871 0.74297 0.0
C456 C 0.17621 0.20363 0.7465 0.0
H457 H 0.41854 0.38056 0.81245 0.0
H458 H 0.35356 0.32764 0.79581 0.0
C459 C 0.14233 0.17227 0.73639 0.0
C460 C 0.24445 0.28118 0.75289 0.0
H461 H 0.35641 0.30812 0.76663 0.0
C462 C 0.24042 0.31632 0.75955 0.0
C463 C 0.28679 0.27822 0.7554 0.0
C464 C 0.29363 0.24194 0.74809 0.0
C465 C 0.27737 0.34825 0.76893 0.0
C466 C 0.31989 0.34542 0.7714 0.0
C467 C 0.32384 0.31025 0.7647 0.0
C468 C 0.36025 0.37791 0.78118 0.0
C469 C 0.26999 0.38403 0.77639 0.0
C470 C 0.38631 0.42368 0.77831 0.0
C471 C 0.42363 0.45408 0.78781 0.0
C472 C 0.43596 0.43906 0.80021 0.0
C473 C 0.41055 0.39306 0.80283 0.0
C474 C 0.37314 0.36281 0.7934 0.0
H475 H 0.23071 0.37469 0.7764 0.0
H476 H 0.28344 0.39059 0.78788 0.0
H477 H 0.29101 0.4155 0.77045 0.0
H478 H 0.37773 0.4359 0.76875 0.0
H479 H 0.44279 0.4893 0.7855 0.0
H480 H 0.8939 0.976 0.66502 0.0
H481 H 0.83453 0.97234 0.64729 0.0
H482 H 0.90841 0.1162 0.64801 0.0
H483 H 0.96798 0.12047 0.66575 0.0
H484 H 0.78 0.03734 0.65059 0.0
H485 H 0.8978 0.04669 0.60311 0.0
H486 H 0.89683 0.01905 0.61954 0.0
H487 H 0.92558 0.07872 0.61981 0.0
C488 C 0.89733 0.00691 0.66153 0.0
C489 C 0.93585 0.04856 0.66677 0.0
C490 C 0.86334 0.00468 0.65142 0.0
C491 C 0.86739 0.044 0.6464 0.0
C492 C 0.90488 0.08556 0.65183 0.0
H493 H 0.74441 0.10925 0.57501 0.0
H494 H 0.79465 0.10666 0.59453 0.0
C495 C 0.93883 0.08787 0.66195 0.0
C496 C 0.83384 0.04183 0.63494 0.0
H497 H 0.8242 0.04525 0.598 0.0
C498 C 0.78931 0.03881 0.63907 0.0
C499 C 0.84659 0.044 0.62001 0.0
C500 C 0.89423 0.04723 0.61521 0.0
C501 C 0.75728 0.03865 0.62855 0.0
C502 C 0.77 0.04081 0.61356 0.0
C503 C 0.81449 0.04347 0.60949 0.0
C504 C 0.73867 0.04206 0.60193 0.0
C505 C 0.7109 0.03754 0.6336 0.0
C506 C 0.69065 0.00635 0.59952 0.0
C507 C 0.66159 0.00792 0.58844 0.0
C508 C 0.6802 0.04512 0.57951 0.0
C509 C 0.72861 0.08048 0.58185 0.0
C510 C 0.75752 0.07893 0.59293 0.0
H511 H 0.71247 0.04686 0.64543 0.0
H512 H 0.70411 0.06056 0.62727 0.0
H513 H 0.67923 0.00318 0.63183 0.0
H514 H 0.67572 0.97719 0.60616 0.0
H515 H 0.62438 0.98025 0.58698 0.0
H516 H 0.91567 0.99234 0.00093 0.0
H517 H 0.85938 0.94616 0.98113 0.0
H518 H 0.94155 0.87855 0.97419 0.0
H519 H 0.99753 0.92394 0.99402 0.0
H520 H 0.88345 0.9406 0.95174 0.0
H521 H 0.79963 0.77546 0.97716 0.0
H522 H 0.83396 0.82751 0.98759 0.0
H523 H 0.86558 0.80498 0.97702 0.0
C524 C 0.92146 0.9673 0.99531 0.0
C525 C 0.96102 0.96174 -0.00089 0.0
C526 C 0.88936 0.94107 0.98397 0.0
C527 C 0.89605 0.90867 0.97632 0.0
C528 C 0.93523 0.90282 0.98015 0.0
H529 H 0.78561 0.77892 0.89122 0.0
H530 H 0.83573 0.82808 0.91166 0.0
C531 C 0.9673 0.92895 0.99146 0.0
C532 C 0.86321 0.88203 0.96398 0.0
H533 H 0.78462 0.77503 0.95172 0.0
C534 C 0.86155 0.90441 0.95175 0.0
C535 C 0.83443 0.8349 0.96411 0.0
C536 C 0.83301 0.80925 0.97722 0.0
C537 C 0.83258 0.88075 0.93947 0.0
C538 C 0.80516 0.83354 0.93941 0.0
C539 C 0.80606 0.81125 0.95176 0.0
C540 C 0.7748 0.80638 0.92671 0.0
C541 C 0.83112 0.90643 0.92675 0.0
C542 C 0.72417 0.77772 0.92847 0.0
C543 C 0.69567 0.74954 0.91689 0.0
C544 C 0.7173 0.74935 0.90332 0.0
C545 C 0.76798 0.77849 0.90153 0.0
C546 C 0.79652 0.80679 0.91314 0.0
H547 H 0.84399 0.9419 0.92997 0.0
H548 H 0.85556 0.90593 0.91797 0.0
H549 H 0.79336 0.89095 0.92219 0.0
H550 H 0.70683 0.77661 0.9389 0.0
H551 H 0.65696 0.72669 0.91875 0.0
H552 H 0.0208 0.94206 0.30806 0.0
H553 H 0.02232 0.88483 0.29173 0.0
H554 H 0.95246 0.78759 0.32499 0.0
H555 H 0.95107 0.84439 0.34138 0.0
H556 H 0.07194 0.83571 0.30135 0.0
H557 H 0.87576 0.72471 0.2856 0.0
H558 H 0.90056 0.78263 0.2914 0.0
H559 H 0.88849 0.74159 0.30465 0.0
C560 C 0.00485 0.90827 0.31177 0.0
C561 C 0.98596 0.89773 0.32601 0.0
C562 C 0.00588 0.87571 0.30246 0.0
C563 C 0.98727 0.83206 0.30717 0.0
C564 C 0.96649 0.821 0.32112 0.0
H565 H 0.97611 0.59155 0.27048 0.0
H566 H 0.96745 0.64649 0.28607 0.0
C567 C 0.96591 0.85355 0.33048 0.0
C568 C 0.99361 0.79909 0.2981 0.0
H569 H 0.93073 0.69946 0.27895 0.0
C570 C 0.04118 0.80604 0.29635 0.0
C571 C 0.95325 0.76021 0.29184 0.0
C572 C 0.90156 0.7517 0.29334 0.0
C573 C 0.04951 0.77473 0.28862 0.0
C574 C 0.00922 0.73604 0.28214 0.0
C575 C 0.96155 0.72909 0.28393 0.0
C576 C 0.01592 0.70303 0.27311 0.0
C577 C 0.10124 0.7829 0.28781 0.0
C578 C 0.04585 0.71657 0.26066 0.0
C579 C 0.05128 0.6855 0.2519 0.0
C580 C 0.02626 0.64003 0.25526 0.0
C581 C 0.99602 0.62639 0.26769 0.0
C582 C 0.99099 0.65768 0.27656 0.0
H583 H 0.12442 0.80563 0.29693 0.0
H584 H 0.10161 0.75112 0.28817 0.0
H585 H 0.11821 0.79899 0.27739 0.0
H586 H 0.06424 0.75109 0.25752 0.0
H587 H 0.07377 0.69688 0.24218 0.0
H588 H 0.18927 0.1114 0.66293 0.0
H589 H 0.25539 0.10766 0.65006 0.0
H590 H 0.20853 0.97919 0.66805 0.0
H591 H 0.14097 0.98202 0.68069 0.0
H592 H 0.33265 0.10151 0.65987 0.0
H593 H 0.20966 0.95202 0.62467 0.0
H594 H 0.18684 0.98196 0.63565 0.0
H595 H 0.20218 0.94463 0.64405 0.0
C596 C 0.1929 0.08228 0.66418 0.0
C597 C 0.15954 0.04679 0.67273 0.0
C598 C 0.23086 0.08027 0.65684 0.0
C599 C 0.23651 0.0429 0.65794 0.0
C600 C 0.20418 0.00791 0.6668 0.0
H601 H 0.44711 0.00577 0.60319 0.0
H602 H 0.39525 0.99869 0.62436 0.0
C603 C 0.16573 0.00966 0.67405 0.0
C604 C 0.27569 0.04081 0.64941 0.0
H605 H 0.29434 0.98618 0.62035 0.0
C606 C 0.32436 0.07594 0.65137 0.0
C607 C 0.26483 0.00728 0.63835 0.0
C608 C 0.21306 0.96948 0.63542 0.0
C609 C 0.362 0.07958 0.64211 0.0
C610 C 0.35061 0.04731 0.63065 0.0
C611 C 0.30272 0.01074 0.62922 0.0
C612 C 0.38597 0.05399 0.61887 0.0
C613 C 0.41338 0.11871 0.64428 0.0
C614 C 0.39771 0.08742 0.60885 0.0
C615 C 0.42631 0.09101 0.59663 0.0
C616 C 0.4441 0.06138 0.59421 0.0
C617 C 0.43352 0.02876 0.60458 0.0
C618 C 0.40427 0.02485 0.61675 0.0
H619 H 0.4188 0.13414 0.65549 0.0
H620 H 0.44101 0.10824 0.6423 0.0
H621 H 0.42009 0.14452 0.63633 0.0
H622 H 0.38307 0.10966 0.61019 0.0
H623 H 0.43259 0.11584 0.58876 0.0
H624 H 0.22836 0.12194 0.00694 0.0
H625 H 0.28967 0.17911 0.9913 0.0
H626 H 0.21776 0.25636 0.99698 0.0
H627 H 0.15646 0.19965 0.01267 0.0
H628 H 0.26118 0.20066 0.96506 0.0
H629 H 0.36495 0.35081 0.00175 0.0
H630 H 0.32961 0.29501 0.00852 0.0
H631 H 0.29929 0.32435 0.00321 0.0
C632 C 0.22616 0.15154 0.00513 0.0
C633 C 0.18729 0.15608 0.01098 0.0
C634 C 0.26122 0.18413 0.99619 0.0
C635 C 0.25838 0.22202 0.99309 0.0
C636 C 0.22105 0.2277 -0.00055 0.0
H637 H 0.38321 0.43231 0.93159 0.0
H638 H 0.33931 0.38171 0.95135 0.0
C639 C 0.18586 0.19508 0.00834 0.0
C640 C 0.29072 0.25287 0.9819 0.0
H641 H 0.3746 0.3622 0.97607 0.0
C642 C 0.28648 0.23589 0.96747 0.0
C643 C 0.32317 0.29879 0.98511 0.0
C644 C 0.32998 0.31838 0.00051 0.0
C645 C 0.3128 0.2639 0.95605 0.0
C646 C 0.34508 0.30994 0.95922 0.0
C647 C 0.34985 0.32685 0.97369 0.0
C648 C 0.37305 0.34125 0.94757 0.0
C649 C 0.30437 0.24422 0.94061 0.0
C650 C 0.40699 0.33554 0.93903 0.0
C651 C 0.4316 0.36397 0.92761 0.0
C652 C 0.42307 0.39894 0.92461 0.0
C653 C 0.3899 0.40519 0.93343 0.0
C654 C 0.36516 0.37661 0.94481 0.0
H655 H 0.26978 0.21138 0.93962 0.0
H656 H 0.30279 0.26711 0.93278 0.0
H657 H 0.33522 0.23899 0.93738 0.0
H658 H 0.41418 0.30887 0.94115 0.0
H659 H 0.45667 0.35807 0.92097 0.0
H660 H 0.0061 0.09079 0.30465 0.0
H661 H 0.00363 0.13579 0.28499 0.0
H662 H 0.07699 0.25425 0.31313 0.0
H663 H 0.07979 0.20993 0.33271 0.0
H664 H 0.95819 0.18967 0.28674 0.0
H665 H 0.15734 0.29073 0.27496 0.0
H666 H 0.13086 0.23919 0.28459 0.0
H667 H 0.14284 0.2902 0.29406 0.0
C668 C 0.02218 0.1265 0.30658 0.0
C669 C 0.04323 0.14681 0.32023 0.0
C670 C 0.02065 0.1521 0.29536 0.0
C671 C 0.0407 0.19839 0.29756 0.0
C672 C 0.06212 0.21871 0.31112 0.0
H673 H 0.06198 0.42503 0.25678 0.0
H674 H 0.0653 0.37087 0.27231 0.0
C675 C 0.06343 0.19323 0.32233 0.0
C676 C 0.03721 0.22555 0.28607 0.0
H677 H 0.10669 0.31756 0.26596 0.0
C678 C 0.99056 0.21726 0.28201 0.0
C679 C 0.07956 0.26152 0.27998 0.0
C680 C 0.1305 0.27079 0.2835 0.0
C681 C 0.98517 0.24531 0.2725 0.0
C682 C 0.02762 0.28208 0.26673 0.0
C683 C 0.07422 0.2895 0.27046 0.0
C684 C 0.02472 0.31434 0.25725 0.0
C685 C 0.93425 0.23651 0.26922 0.0
C686 C 0.00104 0.30055 0.24359 0.0
C687 C -0.00093 0.33145 0.23468 0.0
C688 C 0.02115 0.37678 0.23923 0.0
C689 C 0.04501 0.39045 0.2529 0.0
C690 C 0.04682 0.35954 0.26181 0.0
H691 H 0.90669 0.21353 0.27709 0.0
H692 H 0.93349 0.26819 0.26951 0.0
H693 H 0.9231 0.22082 0.25808 0.0
H694 H 0.98467 0.26602 0.23972 0.0
H695 H 0.98119 0.32003 0.2241 0.0
loop_
_geom_bond_atom_site_label_1
_geom_bond_atom_site_label_2
_geom_bond_distance
_geom_bond_site_symmetry_2
_ccdc_geom_bond_type
O0 Cd1 2.223 . S
O0 C8 1.315 . S
Cd1 O0 2.223 . S
Cd1 O4 2.297 . S
Cd1 O5 2.439 . S
Cd1 O11 2.240 . S
Cd2 O3 2.240 . S
Cd2 O10 2.223 1_545 S
Cd2 O12 2.297 1_545 S
Cd2 O13 2.439 1_545 S
O3 Cd2 2.240 . S
O3 C8 1.279 . S
O4 Cd1 2.297 . S
O4 C6 1.247 . S
O5 Cd1 2.439 . S
O5 C6 1.208 . S
C6 O4 1.247 . S
C6 O5 1.208 . S
C7 O12 1.247 . S
C7 O13 1.208 . S
C8 O0 1.315 . S
C8 O3 1.279 . S
C9 O10 1.315 . S
C9 O11 1.279 1_565 S
O10 Cd2 2.223 1_565 S
O10 C9 1.315 . S
O11 Cd1 2.240 . S
O11 C9 1.279 1_545 S
O12 Cd2 2.297 1_565 S
O12 C7 1.247 . S
O13 Cd2 2.439 1_565 S
O13 C7 1.208 . S
O14 Cd15 2.223 . S
O14 C22 1.315 1_455 S
Cd15 O14 2.223 . S
Cd15 O18 2.297 . S
Cd15 O19 2.439 . S
Cd15 O25 2.240 . S
Cd16 O17 2.240 1_565 S
Cd16 O24 2.223 1_655 S
Cd16 O26 2.297 1_655 S
Cd16 O27 2.439 1_655 S
O17 Cd16 2.240 1_545 S
O17 C22 1.279 . S
O18 Cd15 2.297 . S
O18 C20 1.247 . S
O19 Cd15 2.439 . S
O19 C20 1.208 . S
C20 O18 1.247 . S
C20 O19 1.208 . S
C21 O26 1.247 . S
C21 O27 1.208 . S
C22 O14 1.315 1_655 S
C22 O17 1.279 . S
C23 O24 1.315 1_545 S
C23 O25 1.279 . S
O24 Cd16 2.223 1_455 S
O24 C23 1.315 1_565 S
O25 Cd15 2.240 . S
O25 C23 1.279 . S
O26 Cd16 2.297 1_455 S
O26 C21 1.247 . S
O27 Cd16 2.439 1_455 S
O27 C21 1.208 . S
O28 Cd29 2.223 . S
O28 C36 1.315 . S
Cd29 O28 2.223 . S
Cd29 O32 2.297 1_445 S
Cd29 O33 2.439 . S
Cd29 O39 2.240 . S
Cd30 O31 2.240 . S
Cd30 O38 2.223 . S
Cd30 O40 2.297 . S
Cd30 O41 2.439 . S
O31 Cd30 2.240 . S
O31 C36 1.279 . S
O32 Cd29 2.297 1_665 S
O32 C34 1.247 . S
O33 Cd29 2.439 . S
O33 C34 1.208 1_445 S
C34 O32 1.247 . S
C34 O33 1.208 1_665 S
C35 O40 1.247 . S
C35 O41 1.208 . S
C36 O28 1.315 . S
C36 O31 1.279 . S
C37 O38 1.315 . S
C37 O39 1.279 . S
O38 Cd30 2.223 . S
O38 C37 1.315 . S
O39 Cd29 2.240 . S
O39 C37 1.279 . S
O40 Cd30 2.297 . S
O40 C35 1.247 . S
O41 Cd30 2.439 . S
O41 C35 1.208 . S
H42 O68 0.856 . S
H43 O71 0.854 . S
H44 C79 0.930 . S
H45 C80 0.930 . S
H46 C82 0.930 . S
H47 C83 0.930 . S
H48 C85 0.931 1_655 S
H49 C86 0.930 1_655 S
H50 C88 0.930 . S
H51 C89 0.929 . S
H52 C91 0.930 1_655 S
H53 C92 0.931 1_655 S
H54 C94 0.930 . S
H55 C95 0.929 . S
H56 C97 0.932 1_655 S
H57 C98 0.930 1_655 S
H58 C100 0.930 . S
H59 C101 0.932 . S
H60 C103 0.930 . S
H61 C104 0.929 . S
H62 C106 0.931 . S
H63 C107 0.930 . S
H64 C109 0.929 . S
H65 C110 0.931 . S
H66 C112 0.930 . S
H67 C113 0.929 . S
O68 H42 0.856 . S
O68 C114 1.300 . S
O69 C114 1.209 . S
O70 C115 1.199 . S
O71 H43 0.854 . S
O71 C115 1.297 . S
C72 C73 1.404 . S
C72 C77 1.397 . S
C72 C78 1.492 . S
C73 C72 1.404 . S
C73 C74 1.396 . S
C73 C84 1.492 . S
C74 C73 1.396 . S
C74 C75 1.397 . S
C74 C90 1.509 . S
C75 C74 1.397 . S
C75 C76 1.412 . S
C75 C96 1.485 . S
C76 C75 1.412 . S
C76 C77 1.388 . S
C76 C102 1.490 . S
C77 C72 1.397 . S
C77 C76 1.388 . S
C77 C108 1.519 . S
C78 C72 1.492 . S
C78 C79 1.363 1_455 S
C78 C83 1.390 . S
C79 H44 0.930 . S
C79 C78 1.363 1_655 S
C79 C80 1.372 . S
C80 H45 0.930 . S
C80 C79 1.372 . S
C80 C81 1.383 1_655 S
C81 C80 1.383 1_455 S
C81 C82 1.395 . S
C82 H46 0.930 . S
C82 C81 1.395 . S
C82 C83 1.362 . S
C83 H47 0.930 . S
C83 C78 1.390 . S
C83 C82 1.362 . S
C84 C73 1.492 . S
C84 C85 1.377 . S
C84 C89 1.397 . S
C85 H48 0.931 1_455 S
C85 C84 1.377 . S
C85 C86 1.376 . S
C86 H49 0.930 1_455 S
C86 C85 1.376 . S
C86 C87 1.376 . S
C87 C86 1.376 . S
C87 C88 1.378 . S
C87 C114 1.486 . S
C88 H50 0.930 . S
C88 C87 1.378 . S
C88 C89 1.376 . S
C89 H51 0.929 . S
C89 C84 1.397 . S
C89 C88 1.376 . S
C90 C74 1.509 . S
C90 C91 1.391 . S
C90 C95 1.386 . S
C91 H52 0.930 1_455 S
C91 C90 1.391 . S
C91 C92 1.375 . S
C92 H53 0.931 1_455 S
C92 C91 1.375 . S
C92 C93 1.375 . S
C93 C92 1.375 . S
C93 C94 1.361 . S
C94 H54 0.930 . S
C94 C93 1.361 . S
C94 C95 1.399 . S
C95 H55 0.929 . S
C95 C90 1.386 . S
C95 C94 1.399 . S
C96 C75 1.485 . S
C96 C97 1.393 . S
C96 C101 1.360 . S
C97 H56 0.932 1_455 S
C97 C96 1.393 . S
C97 C98 1.372 . S
C98 H57 0.930 1_455 S
C98 C97 1.372 . S
C98 C99 1.397 . S
C99 C98 1.397 . S
C99 C100 1.390 . S
C99 C115 1.476 . S
C100 H58 0.930 . S
C100 C99 1.390 . S
C100 C101 1.366 . S
C101 H59 0.932 . S
C101 C96 1.360 . S
C101 C100 1.366 . S
C102 C76 1.490 . S
C102 C103 1.380 1_455 S
C102 C107 1.386 . S
C103 H60 0.930 . S
C103 C102 1.380 1_655 S
C103 C104 1.381 . S
C104 H61 0.929 . S
C104 C103 1.381 . S
C104 C105 1.371 1_655 S
C105 C104 1.371 1_455 S
C105 C106 1.380 . S
C106 H62 0.931 . S
C106 C105 1.380 . S
C106 C107 1.387 . S
C107 H63 0.930 . S
C107 C102 1.386 . S
C107 C106 1.387 . S
C108 C77 1.519 . S
C108 C109 1.377 1_455 S
C108 C113 1.361 . S
C109 H64 0.929 . S
C109 C108 1.377 1_655 S
C109 C110 1.386 . S
C110 H65 0.931 . S
C110 C109 1.386 . S
C110 C111 1.363 1_655 S
C111 C110 1.363 1_455 S
C111 C112 1.385 . S
C112 H66 0.930 . S
C112 C111 1.385 . S
C112 C113 1.396 . S
C113 H67 0.929 . S
C113 C108 1.361 . S
C113 C112 1.396 . S
C114 O68 1.300 . S
C114 O69 1.209 . S
C114 C87 1.486 . S
C115 O70 1.199 . S
C115 O71 1.297 . S
C115 C99 1.476 . S
H116 O142 0.856 . S
H117 O145 0.854 . S
H118 C153 0.930 1_565 S
H119 C154 0.930 1_565 S
H120 C156 0.930 . S
H121 C157 0.930 . S
H122 C159 0.933 . S
H123 C160 0.925 1_565 S
H124 C162 0.930 . S
H125 C163 0.929 . S
H126 C165 0.927 . S
H127 C166 0.931 . S
H128 C168 0.930 . S
H129 C169 0.929 . S
H130 C171 0.931 . S
H131 C172 0.930 . S
H132 C174 0.930 . S
H133 C175 0.932 . S
H134 C177 0.930 1_565 S
H135 C178 0.929 1_565 S
H136 C180 0.931 . S
H137 C181 0.930 . S
H138 C183 0.929 1_565 S
H139 C184 0.931 . S
H140 C186 0.930 . S
H141 C187 0.929 . S
O142 H116 0.856 . S
O142 C188 1.300 . S
O143 C188 1.209 . S
O144 C189 1.199 . S
O145 H117 0.854 . S
O145 C189 1.297 . S
C146 C147 1.404 . S
C146 C151 1.397 . S
C146 C152 1.492 . S
C147 C146 1.404 . S
C147 C148 1.396 . S
C147 C158 1.492 . S
C148 C147 1.396 . S
C148 C149 1.397 . S
C148 C164 1.509 . S
C149 C148 1.397 . S
C149 C150 1.412 . S
C149 C170 1.485 . S
C150 C149 1.412 . S
C150 C151 1.388 . S
C150 C176 1.490 . S
C151 C146 1.397 . S
C151 C150 1.388 . S
C151 C182 1.519 . S
C152 C146 1.492 . S
C152 C153 1.363 . S
C152 C157 1.390 . S
C153 H118 0.930 1_545 S
C153 C152 1.363 . S
C153 C154 1.372 . S
C154 H119 0.930 1_545 S
C154 C153 1.372 . S
C154 C155 1.383 . S
C155 C154 1.383 . S
C155 C156 1.395 . S
C156 H120 0.930 . S
C156 C155 1.395 . S
C156 C157 1.362 . S
C157 H121 0.930 . S
C157 C152 1.390 . S
C157 C156 1.362 . S
C158 C147 1.492 . S
C158 C159 1.377 . S
C158 C163 1.397 . S
C159 H122 0.933 . S
C159 C158 1.377 . S
C159 C160 1.376 . S
C160 H123 0.925 1_545 S
C160 C159 1.376 . S
C160 C161 1.376 . S
C161 C160 1.376 . S
C161 C162 1.378 . S
C161 C188 1.486 . S
C162 H124 0.930 . S
C162 C161 1.378 . S
C162 C163 1.376 . S
C163 H125 0.929 . S
C163 C158 1.397 . S
C163 C162 1.376 . S
C164 C148 1.509 . S
C164 C165 1.391 . S
C164 C169 1.386 . S
C165 H126 0.927 . S
C165 C164 1.391 . S
C165 C166 1.375 . S
C166 H127 0.931 . S
C166 C165 1.375 . S
C166 C167 1.375 . S
C167 C166 1.375 . S
C167 C168 1.361 . S
C168 H128 0.930 . S
C168 C167 1.361 . S
C168 C169 1.399 . S
C169 H129 0.929 . S
C169 C164 1.386 . S
C169 C168 1.399 . S
C170 C149 1.485 . S
C170 C171 1.394 . S
C170 C175 1.360 . S
C171 H130 0.931 . S
C171 C170 1.394 . S
C171 C172 1.372 . S
C172 H131 0.930 . S
C172 C171 1.372 . S
C172 C173 1.397 . S
C173 C172 1.397 . S
C173 C174 1.390 . S
C173 C189 1.476 . S
C174 H132 0.930 . S
C174 C173 1.390 . S
C174 C175 1.366 . S
C175 H133 0.932 . S
C175 C170 1.360 . S
C175 C174 1.366 . S
C176 C150 1.490 . S
C176 C177 1.380 . S
C176 C181 1.386 . S
C177 H134 0.930 1_545 S
C177 C176 1.380 . S
C177 C178 1.381 . S
C178 H135 0.929 1_545 S
C178 C177 1.381 . S
C178 C179 1.371 . S
C179 C178 1.371 . S
C179 C180 1.380 . S
C180 H136 0.931 . S
C180 C179 1.380 . S
C180 C181 1.387 . S
C181 H137 0.930 . S
C181 C176 1.386 . S
C181 C180 1.387 . S
C182 C151 1.519 . S
C182 C183 1.377 . S
C182 C187 1.361 . S
C183 H138 0.929 1_545 S
C183 C182 1.377 . S
C183 C184 1.386 . S
C184 H139 0.931 . S
C184 C183 1.386 . S
C184 C185 1.363 . S
C185 C184 1.363 . S
C185 C186 1.385 . S
C186 H140 0.930 . S
C186 C185 1.385 . S
C186 C187 1.396 . S
C187 H141 0.929 . S
C187 C182 1.361 . S
C187 C186 1.396 . S
C188 O142 1.300 . S
C188 O143 1.209 . S
C188 C161 1.486 . S
C189 O144 1.199 . S
C189 O145 1.297 . S
C189 C173 1.476 . S
H190 O216 0.856 . S
H191 O219 0.854 . S
H192 C227 0.930 . S
H193 C228 0.930 . S
H194 C230 0.930 . S
H195 C231 0.930 . S
H196 C233 0.931 . S
H197 C234 0.930 . S
H198 C236 0.930 . S
H199 C237 0.929 . S
H200 C239 0.930 . S
H201 C240 0.931 . S
H202 C242 0.930 . S
H203 C243 0.929 . S
H204 C245 0.931 . S
H205 C246 0.930 . S
H206 C248 0.930 . S
H207 C249 0.932 . S
H208 C251 0.930 . S
H209 C252 0.929 . S
H210 C254 0.931 . S
H211 C255 0.930 . S
H212 C257 0.929 . S
H213 C258 0.931 . S
H214 C260 0.930 . S
H215 C261 0.929 . S
O216 H190 0.856 . S
O216 C262 1.300 . S
O217 C262 1.209 . S
O218 C263 1.199 . S
O219 H191 0.854 . S
O219 C263 1.297 . S
C220 C221 1.404 . S
C220 C225 1.397 . S
C220 C226 1.492 . S
C221 C220 1.404 . S
C221 C222 1.396 . S
C221 C232 1.492 . S
C222 C221 1.396 . S
C222 C223 1.397 . S
C222 C238 1.509 . S
C223 C222 1.397 . S
C223 C224 1.412 . S
C223 C244 1.485 . S
C224 C223 1.412 . S
C224 C225 1.388 . S
C224 C250 1.490 . S
C225 C220 1.397 . S
C225 C224 1.388 . S
C225 C256 1.519 . S
C226 C220 1.492 . S
C226 C227 1.363 . S
C226 C231 1.390 . S
C227 H192 0.930 . S
C227 C226 1.363 . S
C227 C228 1.372 . S
C228 H193 0.930 . S
C228 C227 1.372 . S
C228 C229 1.383 . S
C229 C228 1.383 . S
C229 C230 1.395 . S
C230 H194 0.930 . S
C230 C229 1.395 . S
C230 C231 1.362 . S
C231 H195 0.930 . S
C231 C226 1.390 . S
C231 C230 1.362 . S
C232 C221 1.492 . S
C232 C233 1.377 . S
C232 C237 1.397 . S
C233 H196 0.931 . S
C233 C232 1.377 . S
C233 C234 1.376 . S
C234 H197 0.930 . S
C234 C233 1.376 . S
C234 C235 1.376 . S
C235 C234 1.376 . S
C235 C236 1.378 . S
C235 C262 1.486 . S
C236 H198 0.930 . S
C236 C235 1.378 . S
C236 C237 1.376 . S
C237 H199 0.929 . S
C237 C232 1.397 . S
C237 C236 1.376 . S
C238 C222 1.509 . S
C238 C239 1.391 . S
C238 C243 1.386 . S
C239 H200 0.930 . S
C239 C238 1.391 . S
C239 C240 1.375 . S
C240 H201 0.931 . S
C240 C239 1.375 . S
C240 C241 1.375 . S
C241 C240 1.375 . S
C241 C242 1.361 . S
C242 H202 0.930 . S
C242 C241 1.361 . S
C242 C243 1.399 . S
C243 H203 0.929 . S
C243 C238 1.386 . S
C243 C242 1.399 . S
C244 C223 1.485 . S
C244 C245 1.394 . S
C244 C249 1.360 . S
C245 H204 0.931 . S
C245 C244 1.394 . S
C245 C246 1.372 . S
C246 H205 0.930 . S
C246 C245 1.372 . S
C246 C247 1.397 . S
C247 C246 1.397 . S
C247 C248 1.390 . S
C247 C263 1.476 . S
C248 H206 0.930 . S
C248 C247 1.390 . S
C248 C249 1.366 . S
C249 H207 0.932 . S
C249 C244 1.360 . S
C249 C248 1.366 . S
C250 C224 1.490 . S
C250 C251 1.380 . S
C250 C255 1.386 . S
C251 H208 0.930 . S
C251 C250 1.380 . S
C251 C252 1.381 . S
C252 H209 0.929 . S
C252 C251 1.381 . S
C252 C253 1.371 . S
C253 C252 1.371 . S
C253 C254 1.380 . S
C254 H210 0.931 . S
C254 C253 1.380 . S
C254 C255 1.387 . S
C255 H211 0.930 . S
C255 C250 1.386 . S
C255 C254 1.387 . S
C256 C225 1.519 . S
C256 C257 1.377 . S
C256 C261 1.361 . S
C257 H212 0.929 . S
C257 C256 1.377 . S
C257 C258 1.386 . S
C258 H213 0.931 . S
C258 C257 1.386 . S
C258 C259 1.363 . S
C259 C258 1.363 . S
C259 C260 1.385 . S
C260 H214 0.930 . S
C260 C259 1.385 . S
C260 C261 1.396 . S
C261 H215 0.929 . S
C261 C256 1.361 . S
C261 C260 1.396 . S
C262 O216 1.300 . S
C262 O217 1.209 . S
C262 C235 1.486 . S
C263 O218 1.199 . S
C263 O219 1.297 . S
C263 C247 1.476 . S
H264 C272 0.929 . S
H265 C274 0.930 . S
H266 C276 0.930 . S
H267 C279 0.929 . S
H268 C282 0.930 . S
H269 C284 0.960 . S
H270 C284 0.960 . S
H271 C284 0.960 . S
C272 H264 0.929 . S
C272 C273 1.377 . S
C272 C274 1.384 . S
C273 C272 1.377 . S
C273 C279 1.390 . S
C274 H265 0.930 . S
C274 C272 1.384 . S
C274 C275 1.372 . S
C275 C274 1.372 . S
C275 C276 1.400 . S
C275 C280 1.490 . S
C276 H266 0.930 . S
C276 C275 1.400 . S
C276 C279 1.386 . S
H277 C293 0.930 . S
H278 C294 0.931 . S
C279 H267 0.929 . S
C279 C273 1.390 . S
C279 C276 1.386 . S
C280 C275 1.490 . S
C280 C282 1.395 1_455 S
C280 C283 1.403 . S
H281 C287 0.930 . S
C282 H268 0.930 . S
C282 C280 1.395 1_655 S
C282 C285 1.403 . S
C283 C280 1.403 . S
C283 C284 1.524 . S
C283 C287 1.400 . S
C284 H269 0.960 . S
C284 H270 0.960 . S
C284 H271 0.960 . S
C284 C283 1.524 . S
C285 C282 1.403 . S
C285 C286 1.392 1_655 S
C285 C289 1.495 . S
C286 C285 1.392 1_455 S
C286 C287 1.385 . S
C286 C288 1.478 . S
C287 H281 0.930 . S
C287 C283 1.400 . S
C287 C286 1.385 . S
C288 C286 1.478 . S
C288 C290 1.381 . S
C288 C294 1.383 . S
C289 C285 1.495 . S
C289 H295 0.959 . S
C289 H296 0.961 . S
C289 H297 0.960 . S
C290 C288 1.381 . S
C290 C291 1.394 . S
C290 H298 0.930 . S
C291 C290 1.394 . S
C291 C292 1.383 . S
C291 H299 0.929 . S
C292 C291 1.383 . S
C292 C293 1.377 . S
C293 H277 0.930 . S
C293 C292 1.377 . S
C293 C294 1.379 . S
C294 H278 0.931 . S
C294 C288 1.383 . S
C294 C293 1.379 . S
H295 C289 0.959 . S
H296 C289 0.961 . S
H297 C289 0.960 . S
H298 C290 0.930 . S
H299 C291 0.929 . S
H300 C308 0.929 . S
H301 C310 0.930 . S
H302 C312 0.930 1_565 S
H303 C315 0.929 1_565 S
H304 C318 0.930 . S
H305 C320 0.960 . S
H306 C320 0.960 . S
H307 C320 0.960 . S
C308 H300 0.929 . S
C308 C309 1.377 . S
C308 C310 1.384 . S
C309 C308 1.377 . S
C309 C315 1.390 . S
C310 H301 0.930 . S
C310 C308 1.384 . S
C310 C311 1.372 . S
C311 C310 1.372 . S
C311 C312 1.400 . S
C311 C316 1.490 . S
C312 H302 0.930 1_545 S
C312 C311 1.400 . S
C312 C315 1.386 . S
H313 C329 0.930 . S
H314 C330 0.931 . S
C315 H303 0.929 1_545 S
C315 C309 1.390 . S
C315 C312 1.386 . S
C316 C311 1.490 . S
C316 C318 1.395 . S
C316 C319 1.403 . S
H317 C323 0.930 . S
C318 H304 0.930 . S
C318 C316 1.395 . S
C318 C321 1.403 . S
C319 C316 1.403 . S
C319 C320 1.524 . S
C319 C323 1.400 . S
C320 H305 0.960 . S
C320 H306 0.960 . S
C320 H307 0.960 . S
C320 C319 1.524 . S
C321 C318 1.403 . S
C321 C322 1.392 . S
C321 C325 1.495 . S
C322 C321 1.392 . S
C322 C323 1.385 . S
C322 C324 1.478 . S
C323 H317 0.930 . S
C323 C319 1.400 . S
C323 C322 1.385 . S
C324 C322 1.478 . S
C324 C326 1.381 . S
C324 C330 1.383 1_545 S
C325 C321 1.495 . S
C325 H331 0.958 1_545 S
C325 H332 0.961 1_545 S
C325 H333 0.960 . S
C326 C324 1.381 . S
C326 C327 1.394 . S
C326 H334 0.930 . S
C327 C326 1.394 . S
C327 C328 1.383 . S
C327 H335 0.929 . S
C328 C327 1.383 . S
C328 C329 1.376 1_545 S
C329 H313 0.930 . S
C329 C328 1.376 1_565 S
C329 C330 1.380 . S
C330 H314 0.931 . S
C330 C324 1.383 1_565 S
C330 C329 1.380 . S
H331 C325 0.958 1_565 S
H332 C325 0.961 1_565 S
H333 C325 0.960 . S
H334 C326 0.930 . S
H335 C327 0.929 . S
H336 C344 0.929 . S
H337 C346 0.930 . S
H338 C348 0.930 . S
H339 C351 0.929 . S
H340 C354 0.930 . S
H341 C356 0.960 . S
H342 C356 0.960 . S
H343 C356 0.960 . S
C344 H336 0.929 . S
C344 C345 1.377 . S
C344 C346 1.384 . S
C345 C344 1.377 . S
C345 C351 1.390 . S
C346 H337 0.930 . S
C346 C344 1.384 . S
C346 C347 1.372 . S
C347 C346 1.372 . S
C347 C348 1.400 . S
C347 C352 1.490 . S
C348 H338 0.930 . S
C348 C347 1.400 . S
C348 C351 1.386 . S
H349 C365 0.930 . S
H350 C366 0.931 . S
C351 H339 0.929 . S
C351 C345 1.390 . S
C351 C348 1.386 . S
C352 C347 1.490 . S
C352 C354 1.395 . S
C352 C355 1.403 . S
H353 C359 0.930 . S
C354 H340 0.930 . S
C354 C352 1.395 . S
C354 C357 1.403 . S
C355 C352 1.403 . S
C355 C356 1.524 . S
C355 C359 1.400 . S
C356 H341 0.960 . S
C356 H342 0.960 . S
C356 H343 0.960 . S
C356 C355 1.524 . S
C357 C354 1.403 . S
C357 C358 1.392 . S
C357 C361 1.495 . S
C358 C357 1.392 . S
C358 C359 1.385 . S
C358 C360 1.478 . S
C359 H353 0.930 . S
C359 C355 1.400 . S
C359 C358 1.385 . S
C360 C358 1.478 . S
C360 C362 1.381 . S
C360 C366 1.383 . S
C361 C357 1.495 . S
C361 H367 0.959 . S
C361 H368 0.961 . S
C361 H369 0.960 . S
C362 C360 1.381 . S
C362 C363 1.394 . S
C362 H370 0.930 . S
C363 C362 1.394 . S
C363 C364 1.383 . S
C363 H371 0.929 . S
C364 C363 1.383 . S
C364 C365 1.377 . S
C365 H349 0.930 . S
C365 C364 1.377 . S
C365 C366 1.379 . S
C366 H350 0.931 . S
C366 C360 1.383 . S
C366 C365 1.379 . S
H367 C361 0.959 . S
H368 C361 0.961 . S
H369 C361 0.960 . S
H370 C362 0.930 . S
H371 C363 0.929 . S
H372 C380 0.929 . S
H373 C382 0.930 . S
H374 C384 0.930 . S
H375 C387 0.929 . S
H376 C390 0.930 1_655 S
H377 C392 0.960 . S
H378 C392 0.960 . S
H379 C392 0.960 . S
C380 H372 0.929 . S
C380 C381 1.377 . S
C380 C382 1.384 . S
C381 C380 1.377 . S
C381 C387 1.390 . S
C382 H373 0.930 . S
C382 C380 1.384 . S
C382 C383 1.372 . S
C383 C382 1.372 . S
C383 C384 1.400 . S
C383 C388 1.490 . S
C384 H374 0.930 . S
C384 C383 1.400 . S
C384 C387 1.386 . S
H385 C401 0.930 . S
H386 C402 0.931 . S
C387 H375 0.929 . S
C387 C381 1.390 . S
C387 C384 1.386 . S
C388 C383 1.490 . S
C388 C390 1.395 . S
C388 C391 1.403 . S
H389 C395 0.930 . S
C390 H376 0.930 1_455 S
C390 C388 1.395 . S
C390 C393 1.403 . S
C391 C388 1.403 . S
C391 C392 1.524 . S
C391 C395 1.400 . S
C392 H377 0.960 . S
C392 H378 0.960 . S
C392 H379 0.960 . S
C392 C391 1.524 . S
C393 C390 1.403 . S
C393 C394 1.392 . S
C393 C397 1.495 1_455 S
C394 C393 1.392 . S
C394 C395 1.385 . S
C394 C396 1.478 . S
C395 H389 0.930 . S
C395 C391 1.400 . S
C395 C394 1.385 . S
C396 C394 1.478 . S
C396 C398 1.381 . S
C396 C402 1.383 . S
C397 C393 1.495 1_655 S
C397 H403 0.959 . S
C397 H404 0.961 . S
C397 H405 0.960 . S
C398 C396 1.381 . S
C398 C399 1.394 . S
C398 H406 0.930 . S
C399 C398 1.394 . S
C399 C400 1.383 . S
C399 H407 0.929 . S
C400 C399 1.383 . S
C400 C401 1.377 . S
C401 H385 0.930 . S
C401 C400 1.377 . S
C401 C402 1.379 . S
C402 H386 0.931 . S
C402 C396 1.383 . S
C402 C401 1.379 . S
H403 C397 0.959 . S
H404 C397 0.961 . S
H405 C397 0.960 . S
H406 C398 0.930 . S
H407 C399 0.929 . S
H408 C416 0.929 . S
H409 C418 0.930 . S
H410 C420 0.930 . S
H411 C423 0.929 . S
H412 C426 0.930 . S
H413 C428 0.960 . S
H414 C428 0.960 . S
H415 C428 0.960 . S
C416 H408 0.929 . S
C416 C417 1.377 1_565 S
C416 C418 1.384 . S
C417 C416 1.377 1_545 S
C417 C423 1.390 . S
C418 H409 0.930 . S
C418 C416 1.384 . S
C418 C419 1.372 1_565 S
C419 C418 1.372 1_545 S
C419 C420 1.400 . S
C419 C424 1.490 . S
C420 H410 0.930 . S
C420 C419 1.400 . S
C420 C423 1.386 . S
H421 C437 0.930 . S
H422 C438 0.931 . S
C423 H411 0.929 . S
C423 C417 1.390 . S
C423 C420 1.386 . S
C424 C419 1.490 . S
C424 C426 1.395 . S
C424 C427 1.403 . S
H425 C431 0.930 . S
C426 H412 0.930 . S
C426 C424 1.395 . S
C426 C429 1.403 . S
C427 C424 1.403 . S
C427 C428 1.524 . S
C427 C431 1.400 . S
C428 H413 0.960 . S
C428 H414 0.960 . S
C428 H415 0.960 . S
C428 C427 1.524 . S
C429 C426 1.403 . S
C429 C430 1.392 . S
C429 C433 1.495 . S
C430 C429 1.392 . S
C430 C431 1.385 . S
C430 C432 1.478 . S
C431 H425 0.930 . S
C431 C427 1.400 . S
C431 C430 1.385 . S
C432 C430 1.478 . S
C432 C434 1.381 . S
C432 C438 1.383 . S
C433 C429 1.495 . S
C433 H439 0.959 . S
C433 H440 0.961 . S
C433 H441 0.960 . S
C434 C432 1.381 . S
C434 C435 1.394 . S
C434 H442 0.930 1_545 S
C435 C434 1.394 . S
C435 C436 1.383 . S
C435 H443 0.929 . S
C436 C435 1.383 . S
C436 C437 1.377 . S
C437 H421 0.930 . S
C437 C436 1.377 . S
C437 C438 1.379 . S
C438 H422 0.931 . S
C438 C432 1.383 . S
C438 C437 1.379 . S
H439 C433 0.959 . S
H440 C433 0.961 . S
H441 C433 0.960 . S
H442 C434 0.930 1_565 S
H443 C435 0.929 . S
H444 C452 0.929 . S
H445 C454 0.930 . S
H446 C456 0.930 . S
H447 C459 0.929 . S
H448 C462 0.930 . S
H449 C464 0.960 . S
H450 C464 0.960 . S
H451 C464 0.960 . S
C452 H444 0.929 . S
C452 C453 1.377 . S
C452 C454 1.384 . S
C453 C452 1.377 . S
C453 C459 1.390 . S
C454 H445 0.930 . S
C454 C452 1.384 . S
C454 C455 1.372 . S
C455 C454 1.372 . S
C455 C456 1.400 . S
C455 C460 1.490 . S
C456 H446 0.930 . S
C456 C455 1.400 . S
C456 C459 1.386 . S
H457 C473 0.930 . S
H458 C474 0.931 . S
C459 H447 0.929 . S
C459 C453 1.390 . S
C459 C456 1.386 . S
C460 C455 1.490 . S
C460 C462 1.395 . S
C460 C463 1.403 . S
H461 C467 0.930 . S
C462 H448 0.930 . S
C462 C460 1.395 . S
C462 C465 1.403 . S
C463 C460 1.403 . S
C463 C464 1.524 . S
C463 C467 1.400 . S
C464 H449 0.960 . S
C464 H450 0.960 . S
C464 H451 0.960 . S
C464 C463 1.524 . S
C465 C462 1.403 . S
C465 C466 1.392 . S
C465 C469 1.495 . S
C466 C465 1.392 . S
C466 C467 1.385 . S
C466 C468 1.478 . S
C467 H461 0.930 . S
C467 C463 1.400 . S
C467 C466 1.385 . S
C468 C466 1.478 . S
C468 C470 1.381 . S
C468 C474 1.383 . S
C469 C465 1.495 . S
C469 H475 0.959 . S
C469 H476 0.961 . S
C469 H477 0.960 . S
C470 C468 1.381 . S
C470 C471 1.394 . S
C470 H478 0.930 . S
C471 C470 1.394 . S
C471 C472 1.383 . S
C471 H479 0.929 . S
C472 C471 1.383 . S
C472 C473 1.377 . S
C473 H457 0.930 . S
C473 C472 1.377 . S
C473 C474 1.379 . S
C474 H458 0.931 . S
C474 C468 1.383 . S
C474 C473 1.379 . S
H475 C469 0.959 . S
H476 C469 0.961 . S
H477 C469 0.960 . S
H478 C470 0.930 . S
H479 C471 0.929 . S
H480 C488 0.929 1_565 S
H481 C490 0.930 1_565 S
H482 C492 0.930 . S
H483 C495 0.929 1_455 S
H484 C498 0.930 . S
H485 C500 0.960 . S
H486 C500 0.960 . S
H487 C500 0.960 . S
C488 H480 0.929 1_545 S
C488 C489 1.377 . S
C488 C490 1.384 . S
C489 C488 1.377 . S
C489 C495 1.390 . S
C490 H481 0.930 1_545 S
C490 C488 1.384 . S
C490 C491 1.372 . S
C491 C490 1.372 . S
C491 C492 1.400 . S
C491 C496 1.490 . S
C492 H482 0.930 . S
C492 C491 1.400 . S
C492 C495 1.386 . S
H493 C509 0.930 . S
H494 C510 0.931 . S
C495 H483 0.929 1_655 S
C495 C489 1.390 . S
C495 C492 1.386 . S
C496 C491 1.490 . S
C496 C498 1.395 . S
C496 C499 1.403 . S
H497 C503 0.930 . S
C498 H484 0.930 . S
C498 C496 1.395 . S
C498 C501 1.403 . S
C499 C496 1.403 . S
C499 C500 1.524 . S
C499 C503 1.400 . S
C500 H485 0.960 . S
C500 H486 0.960 . S
C500 H487 0.960 . S
C500 C499 1.524 . S
C501 C498 1.403 . S
C501 C502 1.392 . S
C501 C505 1.495 . S
C502 C501 1.392 . S
C502 C503 1.385 . S
C502 C504 1.478 . S
C503 H497 0.930 . S
C503 C499 1.400 . S
C503 C502 1.385 . S
C504 C502 1.478 . S
C504 C506 1.381 . S
C504 C510 1.383 . S
C505 C501 1.495 . S
C505 H511 0.959 . S
C505 H512 0.961 . S
C505 H513 0.960 1_545 S
C506 C504 1.381 . S
C506 C507 1.394 . S
C506 H514 0.930 1_545 S
C507 C506 1.394 . S
C507 C508 1.383 . S
C507 H515 0.929 . S
C508 C507 1.383 . S
C508 C509 1.377 . S
C509 H493 0.930 . S
C509 C508 1.377 . S
C509 C510 1.379 . S
C510 H494 0.931 . S
C510 C504 1.383 . S
C510 C509 1.379 . S
H511 C505 0.959 . S
H512 C505 0.961 . S
H513 C505 0.960 1_565 S
H514 C506 0.930 1_565 S
H515 C507 0.929 . S
H516 C524 0.929 . S
H517 C526 0.930 . S
H518 C528 0.930 . S
H519 C531 0.929 1_455 S
H520 C534 0.930 . S
H521 C536 0.960 . S
H522 C536 0.960 . S
H523 C536 0.960 . S
C524 H516 0.929 . S
C524 C525 1.365 1_554 S
C524 C526 1.384 1_554 S
C525 C524 1.365 1_556 S
C525 C531 1.463 . S
C526 H517 0.930 . S
C526 C524 1.384 1_556 S
C526 C527 1.372 . S
C527 C526 1.372 . S
C527 C528 1.400 . S
C527 C532 1.490 . S
C528 H518 0.930 . S
C528 C527 1.400 . S
C528 C531 1.386 . S
H529 C545 0.930 . S
H530 C546 0.931 . S
C531 H519 0.929 1_655 S
C531 C525 1.463 . S
C531 C528 1.386 . S
C532 C527 1.490 . S
C532 C534 1.395 . S
C532 C535 1.403 . S
H533 C539 0.930 . S
C534 H520 0.930 . S
C534 C532 1.395 . S
C534 C537 1.403 . S
C535 C532 1.403 . S
C535 C536 1.524 . S
C535 C539 1.400 . S
C536 H521 0.960 . S
C536 H522 0.960 . S
C536 H523 0.960 . S
C536 C535 1.524 . S
C537 C534 1.403 . S
C537 C538 1.392 . S
C537 C541 1.495 . S
C538 C537 1.392 . S
C538 C539 1.385 . S
C538 C540 1.478 . S
C539 H533 0.930 . S
C539 C535 1.400 . S
C539 C538 1.385 . S
C540 C538 1.478 . S
C540 C542 1.381 . S
C540 C546 1.383 . S
C541 C537 1.495 . S
C541 H547 0.959 . S
C541 H548 0.961 . S
C541 H549 0.960 . S
C542 C540 1.381 . S
C542 C543 1.394 . S
C542 H550 0.930 . S
C543 C542 1.394 . S
C543 C544 1.383 . S
C543 H551 0.929 . S
C544 C543 1.383 . S
C544 C545 1.377 . S
C545 H529 0.930 . S
C545 C544 1.377 . S
C545 C546 1.379 . S
C546 H530 0.931 . S
C546 C540 1.383 . S
C546 C545 1.379 . S
H547 C541 0.959 . S
H548 C541 0.961 . S
H549 C541 0.960 . S
H550 C542 0.930 . S
H551 C543 0.929 . S
H552 C560 0.929 . S
H553 C562 0.930 . S
H554 C564 0.930 . S
H555 C567 0.929 . S
H556 C570 0.930 . S
H557 C572 0.960 . S
H558 C572 0.960 . S
H559 C572 0.960 . S
C560 H552 0.929 . S
C560 C561 1.377 . S
C560 C562 1.384 . S
C561 C560 1.377 . S
C561 C567 1.390 . S
C562 H553 0.930 . S
C562 C560 1.384 . S
C562 C563 1.372 . S
C563 C562 1.372 . S
C563 C564 1.400 . S
C563 C568 1.490 . S
C564 H554 0.930 . S
C564 C563 1.400 . S
C564 C567 1.386 . S
H565 C581 0.933 1_655 S
H566 C582 0.931 . S
C567 H555 0.929 . S
C567 C561 1.390 . S
C567 C564 1.386 . S
C568 C563 1.490 . S
C568 C570 1.395 . S
C568 C571 1.403 1_455 S
H569 C575 0.930 . S
C570 H556 0.930 . S
C570 C568 1.395 . S
C570 C573 1.403 . S
C571 C568 1.403 1_655 S
C571 C572 1.524 . S
C571 C575 1.400 . S
C572 H557 0.960 . S
C572 H558 0.960 . S
C572 H559 0.960 . S
C572 C571 1.524 . S
C573 C570 1.403 . S
C573 C574 1.392 . S
C573 C577 1.495 . S
C574 C573 1.392 . S
C574 C575 1.385 1_455 S
C574 C576 1.478 . S
C575 H569 0.930 . S
C575 C571 1.400 . S
C575 C574 1.385 1_655 S
C576 C574 1.478 . S
C576 C578 1.381 . S
C576 C582 1.383 . S
C577 C573 1.495 . S
C577 H583 0.959 . S
C577 H584 0.961 . S
C577 H585 0.960 . S
C578 C576 1.381 . S
C578 C579 1.394 . S
C578 H586 0.930 . S
C579 C578 1.394 . S
C579 C580 1.383 . S
C579 H587 0.929 . S
C580 C579 1.383 . S
C580 C581 1.377 . S
C581 H565 0.933 1_455 S
C581 C580 1.377 . S
C581 C582 1.379 . S
C582 H566 0.931 . S
C582 C576 1.383 . S
C582 C581 1.379 . S
H583 C577 0.959 . S
H584 C577 0.961 . S
H585 C577 0.960 . S
H586 C578 0.930 . S
H587 C579 0.929 . S
H588 C596 0.929 . S
H589 C598 0.930 . S
H590 C600 0.930 . S
H591 C603 0.929 . S
H592 C606 0.930 . S
H593 C608 0.960 . S
H594 C608 0.960 . S
H595 C608 0.960 . S
C596 H588 0.929 . S
C596 C597 1.377 . S
C596 C598 1.384 . S
C597 C596 1.377 . S
C597 C603 1.390 . S
C598 H589 0.930 . S
C598 C596 1.384 . S
C598 C599 1.372 . S
C599 C598 1.372 . S
C599 C600 1.400 . S
C599 C604 1.490 . S
C600 H590 0.930 . S
C600 C599 1.400 . S
C600 C603 1.386 . S
H601 C617 0.930 . S
H602 C618 0.931 . S
C603 H591 0.929 . S
C603 C597 1.390 . S
C603 C600 1.386 . S
C604 C599 1.490 . S
C604 C606 1.395 . S
C604 C607 1.403 . S
H605 C611 0.930 1_565 S
C606 H592 0.930 . S
C606 C604 1.395 . S
C606 C609 1.403 . S
C607 C604 1.403 . S
C607 C608 1.524 1_545 S
C607 C611 1.400 . S
C608 H593 0.960 . S
C608 H594 0.960 . S
C608 H595 0.960 . S
C608 C607 1.524 1_565 S
C609 C606 1.403 . S
C609 C610 1.392 . S
C609 C613 1.495 . S
C610 C609 1.392 . S
C610 C611 1.385 . S
C610 C612 1.478 . S
C611 H605 0.930 1_545 S
C611 C607 1.400 . S
C611 C610 1.385 . S
C612 C610 1.478 . S
C612 C614 1.381 . S
C612 C618 1.383 . S
C613 C609 1.495 . S
C613 H619 0.959 . S
C613 H620 0.961 . S
C613 H621 0.960 . S
C614 C612 1.381 . S
C614 C615 1.394 . S
C614 H622 0.930 . S
C615 C614 1.394 . S
C615 C616 1.383 . S
C615 H623 0.929 . S
C616 C615 1.383 . S
C616 C617 1.377 . S
C617 H601 0.930 . S
C617 C616 1.377 . S
C617 C618 1.379 . S
C618 H602 0.931 . S
C618 C612 1.383 . S
C618 C617 1.379 . S
H619 C613 0.959 . S
H620 C613 0.961 . S
H621 C613 0.960 . S
H622 C614 0.930 . S
H623 C615 0.929 . S
H624 C632 0.929 . S
H625 C634 0.930 . S
H626 C636 0.930 . S
H627 C639 0.929 . S
H628 C642 0.930 . S
H629 C644 0.960 . S
H630 C644 0.960 1_554 S
H631 C644 0.960 1_554 S
C632 H624 0.929 . S
C632 C633 1.377 1_556 S
C632 C634 1.384 . S
C633 C632 1.377 1_554 S
C633 C639 1.390 . S
C634 H625 0.930 . S
C634 C632 1.384 . S
C634 C635 1.372 . S
C635 C634 1.372 . S
C635 C636 1.400 . S
C635 C640 1.490 . S
C636 H626 0.930 . S
C636 C635 1.400 . S
C636 C639 1.386 1_556 S
H637 C653 0.930 . S
H638 C654 0.931 . S
C639 H627 0.929 . S
C639 C633 1.390 . S
C639 C636 1.386 1_554 S
C640 C635 1.490 . S
C640 C642 1.395 . S
C640 C643 1.403 . S
H641 C647 0.930 . S
C642 H628 0.930 . S
C642 C640 1.395 . S
C642 C645 1.403 . S
C643 C640 1.403 . S
C643 C644 1.524 . S
C643 C647 1.400 . S
C644 H629 0.960 . S
C644 H630 0.960 1_556 S
C644 H631 0.960 1_556 S
C644 C643 1.524 . S
C645 C642 1.403 . S
C645 C646 1.392 . S
C645 C649 1.495 . S
C646 C645 1.392 . S
C646 C647 1.385 . S
C646 C648 1.478 . S
C647 H641 0.930 . S
C647 C643 1.400 . S
C647 C646 1.385 . S
C648 C646 1.478 . S
C648 C650 1.381 . S
C648 C654 1.383 . S
C649 C645 1.495 . S
C649 H655 0.959 . S
C649 H656 0.961 . S
C649 H657 0.960 . S
C650 C648 1.381 . S
C650 C651 1.394 . S
C650 H658 0.930 . S
C651 C650 1.394 . S
C651 C652 1.383 . S
C651 H659 0.929 . S
C652 C651 1.383 . S
C652 C653 1.377 . S
C653 H637 0.930 . S
C653 C652 1.377 . S
C653 C654 1.379 . S
C654 H638 0.931 . S
C654 C648 1.383 . S
C654 C653 1.379 . S
H655 C649 0.959 . S
H656 C649 0.961 . S
H657 C649 0.960 . S
H658 C650 0.930 . S
H659 C651 0.929 . S
H660 C668 0.929 . S
H661 C670 0.930 . S
H662 C672 0.930 . S
H663 C675 0.929 . S
H664 C678 0.930 . S
H665 C680 0.960 . S
H666 C680 0.960 . S
H667 C680 0.960 . S
C668 H660 0.929 . S
C668 C669 1.377 . S
C668 C670 1.384 . S
C669 C668 1.377 . S
C669 C675 1.390 . S
C670 H661 0.930 . S
C670 C668 1.384 . S
C670 C671 1.372 . S
C671 C670 1.372 . S
C671 C672 1.400 . S
C671 C676 1.490 . S
C672 H662 0.930 . S
C672 C671 1.400 . S
C672 C675 1.386 . S
H673 C689 0.930 . S
H674 C690 0.931 . S
C675 H663 0.929 . S
C675 C669 1.390 . S
C675 C672 1.386 . S
C676 C671 1.490 . S
C676 C678 1.395 1_455 S
C676 C679 1.403 . S
H677 C683 0.930 . S
C678 H664 0.930 . S
C678 C676 1.395 1_655 S
C678 C681 1.403 . S
C679 C676 1.403 . S
C679 C680 1.524 . S
C679 C683 1.400 . S
C680 H665 0.960 . S
C680 H666 0.960 . S
C680 H667 0.960 . S
C680 C679 1.524 . S
C681 C678 1.403 . S
C681 C682 1.392 1_655 S
C681 C685 1.495 . S
C682 C681 1.392 1_455 S
C682 C683 1.385 . S
C682 C684 1.478 . S
C683 H677 0.930 . S
C683 C679 1.400 . S
C683 C682 1.385 . S
C684 C682 1.478 . S
C684 C686 1.381 . S
C684 C690 1.383 . S
C685 C681 1.495 . S
C685 H691 0.959 . S
C685 H692 0.961 . S
C685 H693 0.960 . S
C686 C684 1.381 . S
C686 C687 1.394 . S
C686 H694 0.930 . S
C687 C686 1.394 . S
C687 C688 1.383 . S
C687 H695 0.929 . S
C688 C687 1.383 . S
C688 C689 1.377 . S
C689 H673 0.930 . S
C689 C688 1.377 . S
C689 C690 1.379 . S
C690 H674 0.931 . S
C690 C684 1.383 . S
C690 C689 1.379 . S
H691 C685 0.959 . S
H692 C685 0.961 . S
H693 C685 0.960 . S
H694 C686 0.930 . S
H695 C687 0.929 . S
C292 C81 1.385 . S
C273 C6 1.437 . S
C309 C22 1.500 . S
C328 C155 1.414 . S
C345 C34 1.955 . S
C364 C259 1.976 . S
C381 C7 0.720 . S
C400 C93 0.708 . S
C436 C167 0.812 . S
C417 C23 0.806 . S
C453 C35 1.155 . S
C472 C253 1.130 . S
C508 C185 2.267 . S
C489 C36 2.266 1_655 S
C525 C9 1.745 1_656 S
C544 C229 1.738 . S
C580 C105 1.386 . S
C561 C21 1.469 . S
C616 C179 1.394 . S
C597 C37 1.467 . S
C652 C241 1.038 . S
C633 C8 1.041 . S
C669 C20 2.269 . S
C688 C111 2.289 . S
