# Generated by pormake.
# Topology nom, (4,4)-cn, num edge types: 1
# Building blocks:
#     Node 0, Type 0, BuildingBlock: AZAVOO_clean_linker_0, # of connection points: 4
#     Node 1, Type 0, BuildingBlock: AZAVOO_clean_linker_0, # of connection points: 4
#     Node 2, Type 0, BuildingBlock: AZAVOO_clean_linker_0, # of connection points: 4
#     Node 3, Type 0, BuildingBlock: AZAVOO_clean_linker_0, # of connection points: 4
#     Node 4, Type 0, BuildingBlock: AZAVOO_clean_linker_0, # of connection points: 4
#     Node 5, Type 0, BuildingBlock: AZAVOO_clean_linker_0, # of connection points: 4
#     Node 6, Type 1, BuildingBlock: NAHDIM_clean_sbu_0, # of connection points: 4
#     Node 7, Type 1, BuildingBlock: NAHDIM_clean_sbu_0, # of connection points: 4
#     Node 8, Type 1, BuildingBlock: NAHDIM_clean_sbu_0, # of connection points: 4
#     Node 9, Type 1, BuildingBlock: NAHDIM_clean_sbu_0, # of connection points: 4
#     Node 10, Type 1, BuildingBlock: NAHDIM_clean_sbu_0, # of connection points: 4
#     Node 11, Type 1, BuildingBlock: NAHDIM_clean_sbu_0, # of connection points: 4
#     Edge 12, Type (0, 1), BuildingBlock: KIFKEQ_clean_linker_1, # of connection points: 2
#     Edge 13, Type (0, 1), BuildingBlock: KIFKEQ_clean_linker_1, # of connection points: 2
#     Edge 14, Type (0, 1), BuildingBlock: KIFKEQ_clean_linker_1, # of connection points: 2
#     Edge 15, Type (0, 1), BuildingBlock: KIFKEQ_clean_linker_1, # of connection points: 2
#     Edge 16, Type (0, 1), BuildingBlock: KIFKEQ_clean_linker_1, # of connection points: 2
#     Edge 17, Type (0, 1), BuildingBlock: KIFKEQ_clean_linker_1, # of connection points: 2
#     Edge 18, Type (0, 1), BuildingBlock: KIFKEQ_clean_linker_1, # of connection points: 2
#     Edge 19, Type (0, 1), BuildingBlock: KIFKEQ_clean_linker_1, # of connection points: 2
#     Edge 20, Type (0, 1), BuildingBlock: KIFKEQ_clean_linker_1, # of connection points: 2
#     Edge 21, Type (0, 1), BuildingBlock: KIFKEQ_clean_linker_1, # of connection points: 2
#     Edge 22, Type (0, 1), BuildingBlock: KIFKEQ_clean_linker_1, # of connection points: 2
#     Edge 23, Type (0, 1), BuildingBlock: KIFKEQ_clean_linker_1, # of connection points: 2
#     Edge 24, Type (0, 1), BuildingBlock: KIFKEQ_clean_linker_1, # of connection points: 2
#     Edge 25, Type (0, 1), BuildingBlock: KIFKEQ_clean_linker_1, # of connection points: 2
#     Edge 26, Type (0, 1), BuildingBlock: KIFKEQ_clean_linker_1, # of connection points: 2
#     Edge 27, Type (0, 1), BuildingBlock: KIFKEQ_clean_linker_1, # of connection points: 2
#     Edge 28, Type (0, 1), BuildingBlock: KIFKEQ_clean_linker_1, # of connection points: 2
#     Edge 29, Type (0, 1), BuildingBlock: KIFKEQ_clean_linker_1, # of connection points: 2
#     Edge 30, Type (0, 1), BuildingBlock: KIFKEQ_clean_linker_1, # of connection points: 2
#     Edge 31, Type (0, 1), BuildingBlock: KIFKEQ_clean_linker_1, # of connection points: 2
#     Edge 32, Type (0, 1), BuildingBlock: KIFKEQ_clean_linker_1, # of connection points: 2
#     Edge 33, Type (0, 1), BuildingBlock: KIFKEQ_clean_linker_1, # of connection points: 2
#     Edge 34, Type (0, 1), BuildingBlock: KIFKEQ_clean_linker_1, # of connection points: 2
#     Edge 35, Type (0, 1), BuildingBlock: KIFKEQ_clean_linker_1, # of connection points: 2
# Relax obj value: 0.157
# Max RMSD: 0.224
# Mean RMSD: 0.169
data_MOF--net-nom--node1-NAHDIM_clean_sbu_0--node2-AZAVOO_clean_linker_0--edge1-KIFKEQ_clean_linker_1
_symmetry_space_group_name_H-M    P1
_symmetry_Int_Tables_number       1
_symmetry_cell_setting            triclinic
loop_
_symmetry_equiv_pos_as_xyz
'x, y, z'
_cell_length_a     47.891591
_cell_length_b     50.964156
_cell_length_c     60.61957
_cell_angle_alpha  90.017965
_cell_angle_beta   90.388638
_cell_angle_gamma 122.31825
loop_
_atom_site_label
_atom_site_type_symbol
_atom_site_fract_x
_atom_site_fract_y
_atom_site_fract_z
_atom_type_partial_charge
H0 H 0.06782 0.46126 0.1595 0.0
H1 H 0.25546 0.65892 0.3608 0.0
H2 H 0.0077 0.45013 0.27 0.0
H3 H 0.96815 0.42263 0.23996 0.0
H4 H 0.94915 0.49633 0.23614 0.0
H5 H 0.98929 0.52406 0.26606 0.0
H6 H 0.0824 0.4841 0.25472 0.0
H7 H 0.08057 0.46952 0.21601 0.0
H8 H 0.04266 0.52686 0.19778 0.0
H9 H 0.04515 0.54164 0.23648 0.0
H10 H 0.14454 0.53115 0.28776 0.0
H11 H 0.2005 0.56523 0.2733 0.0
H12 H 0.16801 0.61854 0.23873 0.0
H13 H 0.11258 0.58486 0.25346 0.0
H14 H 0.11675 0.52369 0.33729 0.0
H15 H 0.16827 0.55338 0.35847 0.0
H16 H 0.19 0.6371 0.32493 0.0
H17 H 0.13815 0.60722 0.30415 0.0
H18 H 0.03863 0.49108 0.34975 0.0
H19 H 0.04921 0.50071 0.38939 0.0
H20 H 0.09759 0.59938 0.37787 0.0
H21 H 0.08544 0.5893 0.33853 0.0
H22 H 0.97433 0.46166 0.31346 0.0
H23 H 0.92295 0.45382 0.3284 0.0
H24 H 0.96972 0.55328 0.33484 0.0
H25 H 0.01995 0.56079 0.31885 0.0
O26 O 0.06893 0.46779 0.17465 0.0
O27 O 0.04895 0.49717 0.16622 0.0
O28 O 0.22235 0.60301 0.3697 0.0
O29 O 0.2349 0.64662 0.35269 0.0
C30 C 0.03237 0.5094 0.28281 0.0
C31 C 0.06296 0.52095 0.27208 0.0
C32 C 0.09283 0.53958 0.28375 0.0
C33 C 0.09229 0.54515 0.30651 0.0
C34 C 0.0618 0.5341 0.31718 0.0
C35 C 0.03184 0.51741 0.30507 0.0
C36 C 0.00146 0.48914 0.27011 0.0
C37 C 0.99412 0.45981 0.26322 0.0
C38 C 0.97181 0.44429 0.24596 0.0
C39 C 0.95608 0.45765 0.23556 0.0
C40 C 0.96096 0.48555 0.24393 0.0
C41 C 0.98367 0.50131 0.26109 0.0
C42 C 0.0637 0.51373 0.2484 0.0
C43 C 0.074 0.49369 0.2423 0.0
C44 C 0.07279 0.48531 0.22019 0.0
C45 C 0.06129 0.49688 0.20381 0.0
C46 C 0.05153 0.51743 0.20998 0.0
C47 C 0.05289 0.52588 0.23207 0.0
C48 C 0.12464 0.55573 0.27179 0.0
C49 C 0.14943 0.54981 0.27669 0.0
C50 C 0.18129 0.56928 0.26849 0.0
C51 C 0.18858 0.59461 0.25502 0.0
C52 C 0.16305 0.59903 0.24888 0.0
C53 C 0.13137 0.57982 0.25728 0.0
C54 C 0.1238 0.56329 0.31915 0.0
C55 C 0.13266 0.54845 0.33458 0.0
C56 C 0.16211 0.56545 0.34663 0.0
C57 C 0.18329 0.59762 0.34336 0.0
C58 C 0.17429 0.61238 0.32784 0.0
C59 C 0.14475 0.59537 0.3159 0.0
C60 C 0.06166 0.53951 0.34126 0.0
C61 C 0.05057 0.51467 0.35593 0.0
C62 C 0.05704 0.52028 0.37853 0.0
C63 C 0.07487 0.55088 0.38681 0.0
C64 C 0.08368 0.57552 0.37217 0.0
C65 C 0.07692 0.56984 0.34963 0.0
C66 C 0.00086 0.51179 0.315 0.0
C67 C 0.97331 0.48168 0.318 0.0
C68 C 0.9441 0.47728 0.32673 0.0
C69 C 0.94211 0.50295 0.33274 0.0
C70 C 0.97007 0.533 0.33002 0.0
C71 C -0.00102 0.53734 0.32111 0.0
C72 C 0.05933 0.48739 0.18041 0.0
C73 C 0.21464 0.61579 0.35608 0.0
H74 H 0.57055 0.08663 0.35414 0.0
H75 H 0.50021 0.19641 0.56963 0.0
H76 H 0.53165 0.01207 0.46364 0.0
H77 H 0.53059 0.9771 0.43557 0.0
H78 H 0.42481 0.9333 0.42896 0.0
H79 H 0.42615 0.96826 0.45736 0.0
H80 H 0.55676 0.08037 0.45013 0.0
H81 H 0.57244 0.08842 0.41123 0.0
H82 H 0.46919 0.03407 0.39237 0.0
H83 H 0.45387 0.02653 0.43134 0.0
H84 H 0.56064 0.12373 0.48825 0.0
H85 H 0.58348 0.17595 0.47356 0.0
H86 H 0.49378 0.14314 0.43568 0.0
H87 H 0.47073 0.09117 0.45115 0.0
H88 H 0.53917 0.09567 0.53496 0.0
H89 H 0.54891 0.13736 0.5601 0.0
H90 H 0.47014 0.14107 0.52805 0.0
H91 H 0.46028 0.09896 0.50326 0.0
H92 H 0.50944 0.02435 0.54277 0.0
H93 H 0.5123 0.03481 0.58238 0.0
H94 H 0.43521 0.05407 0.57501 0.0
H95 H 0.43204 0.04299 0.53544 0.0
H96 H 0.49341 0.97308 0.50412 0.0
H97 H 0.46198 0.91938 0.51698 0.0
H98 H 0.37728 0.92687 0.52768 0.0
H99 H 0.40834 0.97985 0.5136 0.0
O100 O 0.5638 0.08333 0.36943 0.0
O101 O 0.51038 0.05507 0.36061 0.0
O102 O 0.53679 0.17668 0.57601 0.0
O103 O 0.49713 0.18014 0.55973 0.0
C104 C 0.48113 0.01765 0.47634 0.0
C105 C 0.49478 0.04757 0.46716 0.0
C106 C 0.49978 0.07244 0.48047 0.0
C107 C 0.49178 0.06759 0.50305 0.0
C108 C 0.47717 0.03745 0.51212 0.0
C109 C 0.47118 0.01228 0.49865 0.0
C110 C 0.47899 0.99269 0.46244 0.0
C111 C 0.50817 0.99443 0.45646 0.0
C112 C 0.50755 0.97464 0.44031 0.0
C113 C 0.47769 0.95272 0.42984 0.0
C114 C 0.44817 0.94981 0.43682 0.0
C115 C 0.44884 0.96971 0.45302 0.0
C116 C 0.5042 0.05291 0.44352 0.0
C117 C 0.53759 0.0704 0.43756 0.0
C118 C 0.54646 0.07487 0.41533 0.0
C119 C 0.52207 0.06185 0.39868 0.0
C120 C 0.4886 0.04439 0.40477 0.0
C121 C 0.47977 0.04002 0.427 0.0
C122 C 0.51401 0.10379 0.47084 0.0
C123 C 0.54595 0.1279 0.47681 0.0
C124 C 0.55903 0.15761 0.46824 0.0
C125 C 0.54045 0.16371 0.45341 0.0
C126 C 0.50855 0.13931 0.44727 0.0
C127 C 0.49544 0.1096 0.45593 0.0
C128 C 0.49895 0.09425 0.51736 0.0
C129 C 0.52409 0.10557 0.53338 0.0
C130 C 0.5296 0.12938 0.54771 0.0
C131 C 0.51023 0.14251 0.54612 0.0
C132 C 0.48546 0.13146 0.52975 0.0
C133 C 0.47985 0.10751 0.5155 0.0
C134 C 0.47089 0.03337 0.53621 0.0
C135 C 0.4921 0.02938 0.54987 0.0
C136 C 0.49378 0.03548 0.57247 0.0
C137 C 0.47439 0.04579 0.58162 0.0
C138 C 0.4507 0.04652 0.56828 0.0
C139 C 0.44873 0.04003 0.54575 0.0
C140 C 0.45306 0.98028 0.50767 0.0
C141 C 0.468 0.96301 0.50911 0.0
C142 C 0.45007 0.93242 0.51673 0.0
C143 C 0.41697 0.91866 0.52333 0.0
C144 C 0.40245 0.93643 0.52237 0.0
C145 C 0.42027 0.96685 0.51453 0.0
C146 C 0.53159 0.06647 0.37508 0.0
C147 C 0.51564 0.16747 0.56154 0.0
H148 H 0.6007 0.55546 0.77968 0.0
H149 H 0.5703 0.39848 0.55252 0.0
H150 H 0.57428 0.60236 0.65791 0.0
H151 H 0.57107 0.63486 0.68616 0.0
H152 H 0.47506 0.55741 0.70517 0.0
H153 H 0.478 0.52571 0.67613 0.0
H154 H 0.60123 0.56275 0.68333 0.0
H155 H 0.61078 0.56658 0.72327 0.0
H156 H 0.50868 0.49335 0.73297 0.0
H157 H 0.49955 0.48982 0.69298 0.0
H158 H 0.61126 0.51219 0.65378 0.0
H159 H 0.62211 0.47408 0.66953 0.0
H160 H 0.51746 0.41171 0.68101 0.0
H161 H 0.50725 0.45021 0.66593 0.0
H162 H 0.60535 0.53017 0.6015 0.0
H163 H 0.62064 0.50285 0.57589 0.0
H164 H 0.5307 0.41621 0.59183 0.0
H165 H 0.5155 0.44394 0.61714 0.0
H166 H 0.57773 0.57103 0.58945 0.0
H167 H 0.59017 0.56753 0.55096 0.0
H168 H 0.506 0.47314 0.54787 0.0
H169 H 0.49408 0.47678 0.58653 0.0
H170 H 0.53478 0.5964 0.62221 0.0
H171 H 0.49281 0.60737 0.61046 0.0
H172 H 0.42269 0.50909 0.60096 0.0
H173 H 0.46406 0.49839 0.61341 0.0
O174 O 0.59641 0.55351 0.76394 0.0
O175 O 0.54371 0.51582 0.76803 0.0
O176 O 0.61084 0.45498 0.55506 0.0
O177 O 0.56521 0.40974 0.56291 0.0
C178 C 0.53169 0.54104 0.6512 0.0
C179 C 0.54409 0.52422 0.66122 0.0
C180 C 0.55115 0.50562 0.64823 0.0
C181 C 0.54889 0.50614 0.6251 0.0
C182 C 0.53598 0.52259 0.61512 0.0
C183 C 0.52551 0.53852 0.62826 0.0
C184 C 0.52631 0.56182 0.665 0.0
C185 C 0.55213 0.59282 0.66774 0.0
C186 C 0.55041 0.61119 0.68406 0.0
C187 C 0.52303 0.59865 0.69817 0.0
C188 C 0.49636 0.56798 0.69448 0.0
C189 C 0.49797 0.54975 0.67795 0.0
C190 C 0.54974 0.52607 0.68538 0.0
C191 C 0.58102 0.54755 0.69415 0.0
C192 C 0.58637 0.54969 0.71695 0.0
C193 C 0.56048 0.53029 0.73132 0.0
C194 C 0.52914 0.50866 0.72237 0.0
C195 C 0.52385 0.50657 0.69957 0.0
C196 C 0.55854 0.48388 0.65887 0.0
C197 C 0.59087 0.49041 0.65998 0.0
C198 C 0.59692 0.46855 0.66883 0.0
C199 C 0.57064 0.43981 0.67656 0.0
C200 C 0.53835 0.43375 0.67563 0.0
C201 C 0.53241 0.45563 0.66692 0.0
C202 C 0.55942 0.48899 0.6112 0.0
C203 C 0.58915 0.50525 0.59957 0.0
C204 C 0.59777 0.4896 0.58492 0.0
C205 C 0.57684 0.45733 0.58177 0.0
C206 C 0.54736 0.44105 0.59385 0.0
C207 C 0.53871 0.45677 0.60842 0.0
C208 C 0.53525 0.52406 0.59077 0.0
C209 C 0.5611 0.55011 0.58015 0.0
C210 C 0.56825 0.54801 0.55817 0.0
C211 C 0.5495 0.5198 0.54658 0.0
C212 C 0.52127 0.49495 0.55656 0.0
C213 C 0.51416 0.49709 0.57853 0.0
C214 C 0.50238 0.54658 0.61885 0.0
C215 C 0.51037 0.57733 0.61754 0.0
C216 C 0.48645 0.58354 0.61069 0.0
C217 C 0.45428 0.55904 0.60506 0.0
C218 C 0.44697 0.52843 0.60561 0.0
C219 C 0.47072 0.5223 0.61249 0.0
C220 C 0.56622 0.53267 0.75554 0.0
C221 C 0.58546 0.44073 0.56579 0.0
H222 H 0.06652 0.43972 0.96449 0.0
H223 H 0.22501 0.49298 0.73701 0.0
H224 H 0.0051 0.45482 0.85497 0.0
H225 H 0.96577 0.4405 0.88479 0.0
H226 H 0.92314 0.34343 0.86914 0.0
H227 H 0.96367 0.35826 0.83959 0.0
H228 H 0.07371 0.47254 0.87135 0.0
H229 H 0.07584 0.46817 0.91144 0.0
H230 H 0.02505 0.36833 0.90498 0.0
H231 H 0.02346 0.37312 0.86487 0.0
H232 H 0.12495 0.49678 0.83732 0.0
H233 H 0.17789 0.51363 0.85532 0.0
H234 H 0.14963 0.41796 0.86111 0.0
H235 H 0.0965 0.40128 0.84304 0.0
H236 H 0.10468 0.49916 0.78668 0.0
H237 H 0.15357 0.52333 0.76321 0.0
H238 H 0.16054 0.44265 0.77101 0.0
H239 H 0.11125 0.41852 0.79414 0.0
H240 H 0.02886 0.47151 0.77556 0.0
H241 H 0.04375 0.49232 0.7381 0.0
H242 H 0.07213 0.42686 0.72337 0.0
H243 H 0.0564 0.40561 0.76065 0.0
H244 H 0.97124 0.43879 0.80913 0.0
H245 H 0.91467 0.41205 0.79446 0.0
H246 H 0.92656 0.33992 0.76779 0.0
H247 H 0.98306 0.367 0.78227 0.0
O248 O 0.06568 0.44094 0.94859 0.0
O249 O 0.03939 0.38972 0.94438 0.0
O250 O 0.20069 0.52471 0.74256 0.0
O251 O 0.20582 0.48408 0.74642 0.0
C252 C 0.01599 0.41682 0.83087 0.0
C253 C 0.04652 0.42585 0.84097 0.0
C254 C 0.07516 0.43794 0.8281 0.0
C255 C 0.07358 0.44179 0.8052 0.0
C256 C 0.04277 0.43167 0.79488 0.0
C257 C 0.01382 0.41858 0.80771 0.0
C258 C 0.98719 0.40758 0.84517 0.0
C259 C 0.98668 0.43049 0.85762 0.0
C260 C 0.96408 0.4222 0.87465 0.0
C261 C 0.94138 0.39076 0.87952 0.0
C262 C 0.94063 0.36784 0.86605 0.0
C263 C 0.96343 0.37621 0.849 0.0
C264 C 0.04856 0.42316 0.86526 0.0
C265 C 0.06332 0.44979 0.87863 0.0
C266 C 0.06438 0.4472 0.90153 0.0
C267 C 0.05059 0.41789 0.91143 0.0
C268 C 0.0359 0.39125 0.8979 0.0
C269 C 0.03495 0.3939 0.875 0.0
C270 C 0.10714 0.4479 0.83887 0.0
C271 C 0.13023 0.47952 0.84251 0.0
C272 C 0.16023 0.48902 0.85293 0.0
C273 C 0.16766 0.46703 0.85973 0.0
C274 C 0.14447 0.43532 0.85598 0.0
C275 C 0.11426 0.42581 0.84573 0.0
C276 C 0.10442 0.45709 0.79205 0.0
C277 C 0.11685 0.48679 0.78332 0.0
C278 C 0.14477 0.50053 0.76993 0.0
C279 C 0.16093 0.48488 0.76519 0.0
C280 C 0.14868 0.45532 0.7743 0.0
C281 C 0.12064 0.44153 0.7876 0.0
C282 C 0.04188 0.43728 0.7709 0.0
C283 C 0.0369 0.46075 0.76395 0.0
C284 C 0.0456 0.47273 0.74261 0.0
C285 C 0.05963 0.46153 0.72804 0.0
C286 C 0.06176 0.43614 0.73441 0.0
C287 C 0.05258 0.42386 0.7556 0.0
C288 C 0.98108 0.40468 0.79687 0.0
C289 C 0.96166 0.41739 0.79991 0.0
C290 C 0.92937 0.40202 0.79161 0.0
C291 C 0.91604 0.37372 0.7801 0.0
C292 C 0.93615 0.3618 0.77636 0.0
C293 C 0.96839 0.37717 0.78467 0.0
C294 C 0.05149 0.4152 0.93577 0.0
C295 C 0.19033 0.4992 0.75072 0.0
H296 H 0.37894 0.96292 0.8451 0.0
H297 H 0.36222 0.78056 0.04663 0.0
H298 H 0.42964 0.02514 0.95325 0.0
H299 H 0.45693 0.06454 0.92482 0.0
H300 H 0.54911 0.07145 0.93987 0.0
H301 H 0.52084 0.03011 0.96679 0.0
H302 H 0.37669 0.951 0.94117 0.0
H303 H 0.36778 0.95261 0.90152 0.0
H304 H 0.47056 0.98598 0.88999 0.0
H305 H 0.47898 0.98376 0.92959 0.0
H306 H 0.35606 0.88604 0.9711 0.0
H307 H 0.33893 0.83665 0.95241 0.0
H308 H 0.43802 0.8773 0.92744 0.0
H309 H 0.45478 0.92556 0.94623 0.0
H310 H 0.37061 0.91278 0.02388 0.0
H311 H 0.34416 0.86309 0.04331 0.0
H312 H 0.41365 0.84399 0.01406 0.0
H313 H 0.44006 0.89385 0.99497 0.0
H314 H 0.42271 0.983 0.04335 0.0
H315 H 0.43231 0.97862 0.08272 0.0
H316 H 0.48918 0.93864 0.06517 0.0
H317 H 0.47957 0.94316 0.02613 0.0
H318 H 0.46469 0.04786 0.00736 0.0
H319 H 0.51264 0.09523 0.02283 0.0
H320 H 0.5654 0.04818 0.0279 0.0
H321 H 0.51829 0.00182 0.01152 0.0
O322 O 0.38296 0.96227 0.86071 0.0
O323 O 0.43606 0.97963 0.85571 0.0
O324 O 0.33726 0.81138 0.05392 0.0
O325 O 0.37224 0.80035 0.03919 0.0
C326 C 0.45468 0.99484 0.97436 0.0
C327 C 0.43376 0.96698 0.96248 0.0
C328 C 0.41929 0.93807 0.97324 0.0
C329 C 0.423 0.93702 0.99629 0.0
C330 C 0.44371 0.96475 0.00821 0.0
C331 C 0.46067 0.99353 0.9971 0.0
C332 C 0.47313 0.02456 0.96204 0.0
C333 C 0.45591 0.03573 0.95074 0.0
C334 C 0.47167 0.05842 0.93452 0.0
C335 C 0.50519 0.07084 0.92965 0.0
C336 C 0.52308 0.06179 0.94266 0.0
C337 C 0.5071 0.03856 0.95846 0.0
C338 C 0.42856 0.96768 0.93829 0.0
C339 C 0.39722 0.9586 0.93004 0.0
C340 C 0.39222 0.95959 0.90739 0.0
C341 C 0.4185 0.96958 0.89259 0.0
C342 C 0.44982 0.97831 0.90093 0.0
C343 C 0.45474 0.9772 0.92356 0.0
C344 C 0.40659 0.90945 0.95984 0.0
C345 C 0.37374 0.88428 0.96121 0.0
C346 C 0.36406 0.8562 0.95058 0.0
C347 C 0.38704 0.85323 0.93825 0.0
C348 C 0.41947 0.87899 0.9363 0.0
C349 C 0.42914 0.90666 0.94708 0.0
C350 C 0.40698 0.90672 0.00786 0.0
C351 C 0.38002 0.89778 0.02169 0.0
C352 C 0.36499 0.86941 0.03275 0.0
C353 C 0.37673 0.84951 0.03017 0.0
C354 C 0.40391 0.85869 0.01636 0.0
C355 C 0.41898 0.8871 0.00538 0.0
C356 C 0.45028 0.96321 0.03198 0.0
C357 C 0.43735 0.97346 0.0481 0.0
C358 C 0.44278 0.97088 0.07049 0.0
C359 C 0.46161 0.95842 0.07697 0.0
C360 C 0.47498 0.94873 0.06068 0.0
C361 C 0.46928 0.95103 0.0384 0.0
C362 C 0.48791 0.02134 0.00851 0.0
C363 C 0.48653 0.04782 0.01204 0.0
C364 C 0.51385 0.07474 0.02097 0.0
C365 C 0.54289 0.07549 0.02651 0.0
C366 C 0.54364 0.04854 0.02354 0.0
C367 C 0.51654 0.02186 0.01449 0.0
C368 C 0.41318 0.97083 0.86856 0.0
C369 C 0.3608 0.81931 0.04184 0.0
H370 H 0.53823 0.49519 0.98985 0.0
H371 H 0.65663 0.47711 0.22673 0.0
H372 H 0.51395 0.55376 0.09548 0.0
H373 H 0.50497 0.57801 0.06365 0.0
H374 H 0.606 0.65556 0.06871 0.0
H375 H 0.61461 0.63132 0.10089 0.0
H376 H 0.53051 0.49942 0.08593 0.0
H377 H 0.52533 0.48905 0.0462 0.0
H378 H 0.61565 0.57786 0.03568 0.0
H379 H 0.62078 0.58768 0.07547 0.0
H380 H 0.55436 0.47094 0.12558 0.0
H381 H 0.57495 0.43807 0.11426 0.0
H382 H 0.6621 0.51849 0.08742 0.0
H383 H 0.64173 0.55118 0.09915 0.0
H384 H 0.54408 0.48804 0.16907 0.0
H385 H 0.55735 0.46194 0.19728 0.0
H386 H 0.66139 0.52432 0.18394 0.0
H387 H 0.64771 0.55031 0.15584 0.0
H388 H 0.52955 0.53344 0.18198 0.0
H389 H 0.53428 0.52493 0.22127 0.0
H390 H 0.64009 0.58828 0.21788 0.0
H391 H 0.63512 0.59639 0.17879 0.0
H392 H 0.51731 0.57891 0.13792 0.0
H393 H 0.50854 0.61858 0.1524 0.0
H394 H 0.60977 0.67116 0.17596 0.0
H395 H 0.61882 0.63241 0.15988 0.0
O396 O 0.54089 0.49967 0.00551 0.0
O397 O 0.58722 0.5457 0.00096 0.0
O398 O 0.59686 0.45484 0.22131 0.0
O399 O 0.65066 0.48641 0.2152 0.0
C400 C 0.57223 0.57306 0.11604 0.0
C401 C 0.57834 0.55071 0.1076 0.0
C402 C 0.58632 0.53401 0.12209 0.0
C403 C 0.5869 0.53873 0.14502 0.0
C404 C 0.58079 0.56105 0.15345 0.0
C405 C 0.57394 0.57862 0.13899 0.0
C406 C 0.56486 0.59088 0.10042 0.0
C407 C 0.53374 0.57649 0.09018 0.0
C408 C 0.52871 0.59033 0.07204 0.0
C409 C 0.55489 0.61853 0.06373 0.0
C410 C 0.58551 0.63375 0.07481 0.0
C411 C 0.59037 0.62011 0.09321 0.0
C412 C 0.57586 0.54438 0.08352 0.0
C413 C 0.5492 0.51653 0.075 0.0
C414 C 0.54627 0.51071 0.05231 0.0
C415 C 0.57001 0.53268 0.03775 0.0
C416 C 0.59688 0.56049 0.04642 0.0
C417 C 0.59982 0.56621 0.06912 0.0
C418 C 0.59665 0.51341 0.11325 0.0
C419 C 0.57777 0.48134 0.11712 0.0
C420 C 0.58953 0.46267 0.11068 0.0
C421 C 0.62011 0.4758 0.1 0.0
C422 C 0.63829 0.50773 0.0954 0.0
C423 C 0.62673 0.5264 0.10209 0.0
C424 C 0.59495 0.52103 0.16048 0.0
C425 C 0.56969 0.49581 0.17214 0.0
C426 C 0.57736 0.48102 0.18827 0.0
C427 C 0.61047 0.49118 0.19296 0.0
C428 C 0.63566 0.51599 0.1808 0.0
C429 C 0.62794 0.53077 0.16467 0.0
C430 C 0.582 0.56549 0.17763 0.0
C431 C 0.5535 0.54664 0.19004 0.0
C432 C 0.55628 0.54155 0.21237 0.0
C433 C 0.58758 0.55561 0.2225 0.0
C434 C 0.61563 0.57731 0.21057 0.0
C435 C 0.61285 0.58211 0.18825 0.0
C436 C 0.56866 0.60273 0.14789 0.0
C437 C 0.53765 0.59918 0.146 0.0
C438 C 0.53262 0.62174 0.15458 0.0
C439 C 0.55836 0.64807 0.1656 0.0
C440 C 0.58945 0.65147 0.1674 0.0
C441 C 0.59459 0.62914 0.15846 0.0
C442 C 0.56669 0.52653 0.01363 0.0
C443 C 0.61878 0.47627 0.21065 0.0
C444 C 0.64081 0.38638 0.40714 0.0
O445 O 0.66809 0.40763 0.41719 0.0
O446 O 0.70228 0.45089 0.38021 0.0
Zn447 Zn 0.65587 0.44036 0.38527 0.0
O448 O 0.65237 0.46293 0.41153 0.0
C449 C 0.65813 0.47586 0.34835 0.0
O450 O 0.68845 0.49401 0.35583 0.0
O451 O 0.62894 0.39473 0.39184 0.0
C452 C 0.63733 0.47724 0.41001 0.0
O453 O 0.62572 0.47894 0.39075 0.0
C454 C 0.72898 0.47549 0.38608 0.0
O455 O 0.72782 0.4975 0.39649 0.0
O456 O 0.63901 0.4502 0.35797 0.0
C457 C 0.28755 0.68966 0.5566 0.0
O458 O 0.29804 0.67349 0.54687 0.0
O459 O 0.27379 0.6191 0.57068 0.0
Zn460 Zn 0.23812 0.62861 0.56805 0.0
O461 O 0.21269 0.61179 0.53949 0.0
C462 C 0.18107 0.58293 0.59282 0.0
O463 O 0.17206 0.56875 0.57361 0.0
O464 O 0.26082 0.67536 0.56749 0.0
C465 C 0.18905 0.61564 0.53535 0.0
O466 O 0.18165 0.63002 0.54994 0.0
C467 C 0.26879 0.59202 0.56962 0.0
O468 O 0.23862 0.56814 0.56625 0.0
O469 O 0.20796 0.60929 0.59436 0.0
C470 C 0.59695 0.2637 0.72213 0.0
O471 O 0.60821 0.25258 0.70754 0.0
O472 O 0.65385 0.24683 0.75049 0.0
Zn473 Zn 0.6044 0.22242 0.74845 0.0
O474 O 0.5877 0.19109 0.72358 0.0
C475 C 0.58753 0.17872 0.78313 0.0
O476 O 0.59972 0.16779 0.76912 0.0
O477 O 0.59202 0.25345 0.74174 0.0
C478 C 0.55933 0.16612 0.72361 0.0
O479 O 0.54028 0.15933 0.7409 0.0
C480 C 0.67293 0.23823 0.74405 0.0
O481 O 0.6603 0.21068 0.735 0.0
O482 O 0.58633 0.20219 0.77778 0.0
C483 C 0.42814 0.68837 0.90431 0.0
O484 O 0.43332 0.67522 0.92113 0.0
O485 O 0.41629 0.6144 0.88064 0.0
Zn486 Zn 0.4551 0.65832 0.88122 0.0
O487 O 0.48473 0.6647 0.90701 0.0
C488 C 0.50387 0.6679 0.84792 0.0
O489 O 0.52036 0.66559 0.86439 0.0
O490 O 0.43647 0.68516 0.88512 0.0
C491 C 0.4922 0.64501 0.91207 0.0
O492 O 0.48232 0.62078 0.8992 0.0
C493 C 0.40175 0.59886 0.8978 0.0
O494 O 0.41348 0.61108 0.91736 0.0
O495 O 0.47719 0.66675 0.85172 0.0
C496 C 0.73802 0.36392 0.07467 0.0
O497 O 0.72943 0.33865 0.08587 0.0
O498 O 0.74668 0.30556 0.05787 0.0
Zn499 Zn 0.78376 0.35012 0.05922 0.0
O500 O 0.81136 0.35882 0.08663 0.0
C501 C 0.83059 0.35324 0.02746 0.0
O502 O 0.83761 0.33996 0.04325 0.0
O503 O 0.76228 0.37465 0.06154 0.0
C504 C 0.83987 0.38337 0.08855 0.0
O505 O 0.85248 0.40229 0.07169 0.0
C506 C 0.74801 0.2819 0.06221 0.0
O507 O 0.7763 0.28549 0.06812 0.0
O508 O 0.80938 0.36047 0.03096 0.0
C509 C 0.50285 0.80138 0.21962 0.0
O510 O 0.48036 0.80283 0.20811 0.0
O511 O 0.43595 0.79141 0.24572 0.0
Zn512 Zn 0.48169 0.82996 0.24671 0.0
O513 O 0.48652 0.86027 0.22342 0.0
C514 C 0.46499 0.84492 0.28752 0.0
O515 O 0.43591 0.82921 0.2778 0.0
O516 O 0.51096 0.81424 0.23856 0.0
C517 C 0.47444 0.87721 0.22411 0.0
O518 O 0.4578 0.87628 0.24154 0.0
C519 C 0.41262 0.78603 0.23263 0.0
O520 O 0.417 0.80728 0.21837 0.0
O521 O 0.4901 0.84885 0.27731 0.0
H522 H 0.24162 0.62131 0.28272 0.0
H523 H 0.21315 0.62265 0.2152 0.0
H524 H 0.29665 0.66577 0.27554 0.0
H525 H 0.26869 0.66699 0.20775 0.0
H526 H 0.35363 0.77016 0.21358 0.0
H527 H 0.30064 0.72124 0.21722 0.0
H528 H 0.34741 0.68455 0.25685 0.0
H529 H 0.39999 0.73372 0.25386 0.0
C530 C 0.24747 0.6306 0.26615 0.0
C531 C 0.22316 0.61852 0.2495 0.0
C532 C 0.27903 0.65614 0.26201 0.0
C533 C 0.28708 0.67008 0.24107 0.0
C534 C 0.26312 0.65715 0.22416 0.0
C535 C 0.23142 0.63168 0.22836 0.0
C536 C 0.35257 0.75157 0.22297 0.0
C537 C 0.38086 0.75591 0.23365 0.0
C538 C 0.32227 0.72344 0.22492 0.0
C539 C 0.31973 0.69899 0.23742 0.0
C540 C 0.34834 0.70308 0.24745 0.0
C541 C 0.37851 0.73125 0.24568 0.0
H542 H 0.60355 0.20497 0.43977 0.0
H543 H 0.50846 0.19451 0.4475 0.0
H544 H 0.62702 0.25834 0.42772 0.0
H545 H 0.53194 0.24786 0.43513 0.0
H546 H 0.58191 0.33663 0.39215 0.0
H547 H 0.55691 0.282 0.40201 0.0
H548 H 0.6392 0.30713 0.44571 0.0
H549 H 0.66424 0.36142 0.43585 0.0
C550 C 0.58767 0.21407 0.43894 0.0
C551 C 0.55419 0.19555 0.44476 0.0
C552 C 0.6011 0.24461 0.432 0.0
C553 C 0.58135 0.25731 0.43062 0.0
C554 C 0.54767 0.23858 0.43584 0.0
C555 C 0.53424 0.20803 0.44289 0.0
C556 C 0.59462 0.33045 0.40386 0.0
C557 C 0.62507 0.35334 0.41319 0.0
C558 C 0.58026 0.29923 0.40955 0.0
C559 C 0.59621 0.29032 0.42453 0.0
C560 C 0.62657 0.31324 0.43388 0.0
C561 C 0.64079 0.34439 0.42832 0.0
H562 H 0.45837 0.60474 0.57863 0.0
H563 H 0.3904 0.52668 0.61893 0.0
H564 H 0.41396 0.61293 0.56877 0.0
H565 H 0.34627 0.53481 0.60915 0.0
H566 H 0.26686 0.53738 0.57005 0.0
H567 H 0.31232 0.53003 0.57754 0.0
H568 H 0.37899 0.62916 0.58522 0.0
H569 H 0.33374 0.6366 0.57731 0.0
C570 C 0.43404 0.58949 0.58549 0.0
C571 C 0.42784 0.5649 0.59939 0.0
C572 C 0.4086 0.59414 0.57983 0.0
C573 C 0.37648 0.57433 0.58801 0.0
C574 C 0.3705 0.55005 0.60215 0.0
C575 C 0.39584 0.54542 0.60778 0.0
C576 C 0.29124 0.55762 0.57321 0.0
C577 C 0.2966 0.58754 0.57319 0.0
C578 C 0.31727 0.5534 0.57762 0.0
C579 C 0.34925 0.579 0.58212 0.0
C580 C 0.35475 0.60898 0.58163 0.0
C581 C 0.32872 0.6132 0.57722 0.0
H582 H 0.88914 0.34175 0.7414 0.0
H583 H 0.86304 0.36434 0.80352 0.0
H584 H 0.83065 0.30963 0.73131 0.0
H585 H 0.80485 0.33246 0.79344 0.0
H586 H 0.7061 0.2972 0.76055 0.0
H587 H 0.76504 0.3311 0.7676 0.0
H588 H 0.78066 0.26055 0.74266 0.0
H589 H 0.72147 0.22662 0.73518 0.0
C590 C 0.87094 0.33987 0.75288 0.0
C591 C 0.88074 0.3557 0.77323 0.0
C592 C 0.83747 0.32145 0.74712 0.0
C593 C 0.81313 0.31853 0.76156 0.0
C594 C 0.823 0.33464 0.78178 0.0
C595 C 0.85639 0.35299 0.78754 0.0
C596 C 0.72205 0.28888 0.75647 0.0
C597 C 0.70903 0.25909 0.74743 0.0
C598 C 0.75585 0.30831 0.76062 0.0
C599 C 0.7775 0.29844 0.75586 0.0
C600 C 0.76464 0.26892 0.74634 0.0
C601 C 0.73072 0.24942 0.74217 0.0
H602 H 0.35385 0.79699 0.95888 0.0
H603 H 0.40343 0.8411 0.89819 0.0
H604 H 0.35409 0.75085 0.94865 0.0
H605 H 0.40554 0.79599 0.88854 0.0
H606 H 0.40408 0.71022 0.87313 0.0
H607 H 0.38241 0.74342 0.87898 0.0
H608 H 0.39829 0.74262 0.94923 0.0
H609 H 0.41853 0.70855 0.94342 0.0
C610 C 0.36396 0.79649 0.94307 0.0
C611 C 0.37918 0.82284 0.92951 0.0
C612 C 0.36457 0.77024 0.93735 0.0
C613 C 0.38066 0.76999 0.91807 0.0
C614 C 0.39293 0.79522 0.90352 0.0
C615 C 0.39201 0.82128 0.90913 0.0
C616 C 0.40259 0.71693 0.88982 0.0
C617 C 0.41339 0.70711 0.9078 0.0
C618 C 0.39018 0.73596 0.89318 0.0
C619 C 0.38867 0.74585 0.91457 0.0
C620 C 0.39845 0.73507 0.93256 0.0
C621 C 0.41048 0.71579 0.92922 0.0
H622 H 0.64849 0.47393 0.06161 0.0
H623 H 0.62405 0.43547 0.1272 0.0
H624 H 0.67536 0.44544 0.05434 0.0
H625 H 0.65155 0.40765 0.12027 0.0
H626 H 0.67919 0.34118 0.09536 0.0
H627 H 0.6483 0.36618 0.09996 0.0
H628 H 0.72423 0.44667 0.06502 0.0
H629 H 0.75457 0.42109 0.05973 0.0
C630 C 0.64887 0.45933 0.07444 0.0
C631 C 0.63417 0.45681 0.09493 0.0
C632 C 0.66439 0.44316 0.07034 0.0
C633 C 0.66577 0.42437 0.08675 0.0
C634 C 0.6505 0.42149 0.10713 0.0
C635 C 0.63475 0.43743 0.11113 0.0
C636 C 0.68927 0.36419 0.08861 0.0
C637 C 0.71937 0.37923 0.07725 0.0
C638 C 0.67161 0.37859 0.09133 0.0
C639 C 0.68382 0.40849 0.08294 0.0
C640 C 0.71385 0.42343 0.07141 0.0
C641 C 0.73137 0.40889 0.06851 0.0
H642 H 0.43782 0.88729 0.54837 0.0
H643 H 0.35169 0.87514 0.51478 0.0
H644 H 0.4064 0.83252 0.55847 0.0
H645 H 0.32021 0.82069 0.52548 0.0
H646 H 0.26724 0.72976 0.56531 0.0
H647 H 0.29836 0.78601 0.55936 0.0
H648 H 0.38168 0.78264 0.53673 0.0
H649 H 0.35081 0.72676 0.54256 0.0
C650 C 0.41224 0.87302 0.54312 0.0
C651 C 0.39741 0.8857 0.53063 0.0
C652 C 0.39422 0.84169 0.54903 0.0
C653 C 0.36087 0.82238 0.54277 0.0
C654 C 0.34575 0.83514 0.5308 0.0
C655 C 0.36384 0.86639 0.5247 0.0
C656 C 0.29228 0.74112 0.55923 0.0
C657 C 0.30652 0.72383 0.55432 0.0
C658 C 0.31001 0.77324 0.55574 0.0
C659 C 0.34243 0.78866 0.5476 0.0
C660 C 0.35687 0.77144 0.54323 0.0
C661 C 0.33907 0.73939 0.54643 0.0
H662 H 0.54098 0.40015 0.71128 0.0
H663 H 0.61315 0.4244 0.6601 0.0
H664 H 0.54657 0.35729 0.72233 0.0
H665 H 0.62029 0.38277 0.67205 0.0
H666 H 0.59645 0.28452 0.68084 0.0
H667 H 0.59073 0.32759 0.67066 0.0
H668 H 0.58248 0.34435 0.73953 0.0
H669 H 0.58699 0.30046 0.74963 0.0
C670 C 0.55822 0.39648 0.70248 0.0
C671 C 0.57642 0.41559 0.68468 0.0
C672 C 0.56173 0.37211 0.709 0.0
C673 C 0.58374 0.36642 0.698 0.0
C674 C 0.60267 0.38613 0.68063 0.0
C675 C 0.59897 0.41034 0.674 0.0
C676 C 0.59327 0.29732 0.6938 0.0
C677 C 0.59217 0.2891 0.71603 0.0
C678 C 0.59028 0.3222 0.68798 0.0
C679 C 0.58644 0.33966 0.70428 0.0
C680 C 0.58503 0.33122 0.72653 0.0
C681 C 0.58772 0.30611 0.73233 0.0
H682 H 0.19836 0.5093 0.89283 0.0
H683 H 0.21023 0.44881 0.84942 0.0
H684 H 0.25532 0.53309 0.90541 0.0
H685 H 0.26729 0.47226 0.86234 0.0
H686 H 0.37315 0.56503 0.86039 0.0
H687 H 0.31524 0.52499 0.85489 0.0
H688 H 0.29768 0.5274 0.92446 0.0
H689 H 0.3558 0.5679 0.92998 0.0
C690 C 0.21304 0.50072 0.88632 0.0
C691 C 0.20015 0.47759 0.86994 0.0
C692 C 0.24553 0.51405 0.89371 0.0
C693 C 0.26582 0.50461 0.88478 0.0
C694 C 0.25225 0.48011 0.86938 0.0
C695 C 0.21961 0.46661 0.86208 0.0
C696 C 0.35714 0.55654 0.87462 0.0
C697 C 0.36886 0.57007 0.89553 0.0
C698 C 0.32397 0.53337 0.8715 0.0
C699 C 0.30185 0.52334 0.88921 0.0
C700 C 0.31414 0.53502 0.91047 0.0
C701 C 0.34743 0.55812 0.91362 0.0
H702 H 0.6067 0.09849 0.01445 0.0
H703 H 0.54712 0.11854 0.05579 0.0
H704 H 0.65604 0.147 0.02593 0.0
H705 H 0.59672 0.16744 0.06715 0.0
H706 H 0.68524 0.26779 0.05508 0.0
H707 H 0.63572 0.21692 0.04884 0.0
H708 H 0.69224 0.17423 0.05816 0.0
H709 H 0.74224 0.22544 0.06416 0.0
C710 C 0.60418 0.11301 0.02628 0.0
C711 C 0.57295 0.10462 0.03424 0.0
C712 C 0.63251 0.14082 0.03287 0.0
C713 C 0.63027 0.16099 0.04747 0.0
C714 C 0.59914 0.15247 0.05569 0.0
C715 C 0.57075 0.12455 0.04915 0.0
C716 C 0.68717 0.24758 0.05593 0.0
C717 C 0.71775 0.25067 0.05993 0.0
C718 C 0.65868 0.21839 0.05254 0.0
C719 C 0.6601 0.1916 0.05299 0.0
C720 C 0.69051 0.19455 0.05751 0.0
C721 C 0.71907 0.22383 0.06103 0.0
H722 H 0.60158 0.7115 0.16774 0.0
H723 H 0.50231 0.63852 0.18529 0.0
H724 H 0.59103 0.75018 0.18221 0.0
H725 H 0.4916 0.67743 0.19853 0.0
H726 H 0.4767 0.75931 0.18626 0.0
H727 H 0.49233 0.72326 0.17461 0.0
H728 H 0.57131 0.76217 0.22281 0.0
H729 H 0.55522 0.79829 0.23507 0.0
C730 C 0.57768 0.7036 0.17485 0.0
C731 C 0.55269 0.67178 0.17512 0.0
C732 C 0.5717 0.7258 0.18306 0.0
C733 C 0.54052 0.71664 0.19132 0.0
C734 C 0.51578 0.68498 0.19202 0.0
C735 C 0.52187 0.66277 0.18422 0.0
C736 C 0.49758 0.76048 0.19435 0.0
C737 C 0.51469 0.78161 0.21166 0.0
C738 C 0.50636 0.73971 0.18771 0.0
C739 C 0.53279 0.73992 0.19795 0.0
C740 C 0.5508 0.76169 0.21472 0.0
C741 C 0.54158 0.78222 0.22171 0.0
H742 H 0.91556 0.53796 0.32402 0.0
H743 H 0.89801 0.45823 0.36127 0.0
H744 H 0.86527 0.53179 0.33881 0.0
H745 H 0.84709 0.45166 0.37559 0.0
H746 H 0.7398 0.431 0.37171 0.0
H747 H 0.79182 0.43771 0.36002 0.0
H748 H 0.84256 0.53555 0.37535 0.0
H749 H 0.79038 0.52892 0.38708 0.0
C750 C 0.90119 0.51929 0.33553 0.0
C751 C 0.911 0.49867 0.34153 0.0
C752 C 0.87234 0.51577 0.34398 0.0
C753 C 0.85238 0.49136 0.35843 0.0
C754 C 0.86192 0.47057 0.36434 0.0
C755 C 0.891 0.47426 0.35605 0.0
C756 C 0.76206 0.45395 0.3727 0.0
C757 C 0.76096 0.47949 0.38021 0.0
C758 C 0.79187 0.45771 0.36614 0.0
C759 C 0.82119 0.48715 0.36673 0.0
C760 C 0.82024 0.51264 0.37455 0.0
C761 C 0.79043 0.50881 0.38136 0.0
H762 H 0.0799 0.59555 0.41497 0.0
H763 H 0.09823 0.52134 0.4112 0.0
H764 H 0.10626 0.61001 0.45122 0.0
H765 H 0.12269 0.53458 0.44791 0.0
H766 H 0.20264 0.59177 0.49957 0.0
H767 H 0.1726 0.57457 0.46468 0.0
H768 H 0.10194 0.59545 0.48908 0.0
H769 H 0.13269 0.61364 0.52374 0.0
C770 C 0.08917 0.58208 0.42196 0.0
C771 C 0.08702 0.55736 0.41006 0.0
C772 C 0.10398 0.59015 0.44289 0.0
C773 C 0.11685 0.57361 0.45247 0.0
C774 C 0.11359 0.54818 0.4409 0.0
C775 C 0.099 0.54025 0.41995 0.0
C776 C 0.18065 0.59262 0.49752 0.0
C777 C 0.17014 0.60418 0.51441 0.0
C778 C 0.16325 0.58254 0.47754 0.0
C779 C 0.13474 0.58353 0.47403 0.0
C780 C 0.12403 0.59475 0.49107 0.0
C781 C 0.14158 0.60504 0.511 0.0
H782 H 0.48296 0.02302 0.62038 0.0
H783 H 0.48591 0.10235 0.59235 0.0
H784 H 0.50297 0.05075 0.65578 0.0
H785 H 0.506 0.12992 0.62743 0.0
H786 H 0.58417 0.18119 0.68202 0.0
H787 H 0.56143 0.1501 0.64849 0.0
H788 H 0.48366 0.07515 0.6863 0.0
H789 H 0.50615 0.10643 0.72001 0.0
C790 C 0.48748 0.04617 0.62191 0.0
C791 C 0.48264 0.06046 0.60374 0.0
C792 C 0.49884 0.06195 0.64209 0.0
C793 C 0.50619 0.09249 0.64421 0.0
C794 C 0.50073 0.10648 0.62616 0.0
C795 C 0.4889 0.09057 0.60618 0.0
C796 C 0.56237 0.15801 0.68326 0.0
C797 C 0.54686 0.1463 0.70365 0.0
C798 C 0.54927 0.14031 0.66405 0.0
C799 C 0.52069 0.11037 0.66485 0.0
C800 C 0.50575 0.09818 0.68529 0.0
C801 C 0.51856 0.11611 0.70452 0.0
H802 H 0.57569 0.63619 0.72519 0.0
H803 H 0.47172 0.60057 0.71617 0.0
H804 H 0.57569 0.66061 0.7596 0.0
H805 H 0.47124 0.62329 0.75133 0.0
H806 H 0.47983 0.67882 0.8104 0.0
H807 H 0.48831 0.66889 0.77248 0.0
H808 H 0.55552 0.64252 0.7956 0.0
H809 H 0.54795 0.65354 0.83332 0.0
C810 C 0.55291 0.63395 0.73034 0.0
C811 C 0.52363 0.61627 0.7179 0.0
C812 C 0.55283 0.64761 0.75028 0.0
C813 C 0.52342 0.64368 0.75841 0.0
C814 C 0.49445 0.6271 0.74552 0.0
C815 C 0.49459 0.61366 0.72547 0.0
C816 C 0.49688 0.67144 0.80731 0.0
C817 C 0.51295 0.66663 0.82487 0.0
C818 C 0.50157 0.66555 0.78559 0.0
C819 C 0.52221 0.65446 0.78097 0.0
C820 C 0.53968 0.65132 0.79847 0.0
C821 C 0.53523 0.65751 0.82017 0.0
H822 H 0.9103 0.41853 0.89633 0.0
H823 H 0.9266 0.34423 0.9088 0.0
H824 H 0.88343 0.40928 0.93187 0.0
H825 H 0.89782 0.33364 0.94372 0.0
H826 H 0.88275 0.34847 0.01579 0.0
H827 H 0.90724 0.35602 0.97943 0.0
H828 H 0.83613 0.37535 0.95277 0.0
H829 H 0.81257 0.369 0.98928 0.0
C830 C 0.90779 0.39995 0.90653 0.0
C831 C 0.92085 0.38228 0.89972 0.0
C832 C 0.89202 0.3944 0.92685 0.0
C833 C 0.88862 0.37084 0.94082 0.0
C834 C 0.90052 0.35237 0.93361 0.0
C835 C 0.91654 0.35809 0.91336 0.0
C836 C 0.87243 0.35442 0.00216 0.0
C837 C 0.84581 0.35825 0.00545 0.0
C838 C 0.88627 0.35849 0.98125 0.0
C839 C 0.8736 0.36617 0.96306 0.0
C840 C 0.84688 0.3699 0.9664 0.0
C841 C 0.83327 0.36614 0.98735 0.0
H842 H 0.51869 0.97265 0.09788 0.0
H843 H 0.41488 0.93389 0.10919 0.0
H844 H 0.5249 0.95882 0.13531 0.0
H845 H 0.42088 0.91961 0.14655 0.0
H846 H 0.4453 0.91055 0.21739 0.0
H847 H 0.44501 0.93637 0.18347 0.0
H848 H 0.50703 0.90952 0.15236 0.0
H849 H 0.50788 0.88443 0.18613 0.0
C850 C 0.49727 0.96139 0.10847 0.0
C851 C 0.46623 0.95402 0.10057 0.0
C852 C 0.50079 0.95342 0.12987 0.0
C853 C 0.4733 0.93774 0.14382 0.0
C854 C 0.44262 0.93192 0.13631 0.0
C855 C 0.43914 0.94004 0.1149 0.0
C856 C 0.45922 0.91055 0.20339 0.0
C857 C 0.47646 0.89529 0.20443 0.0
C858 C 0.45891 0.9252 0.18394 0.0
C859 C 0.47595 0.92497 0.16521 0.0
C860 C 0.49404 0.91056 0.16656 0.0
C861 C 0.49431 0.89593 0.18591 0.0
H862 H 0.62612 0.58934 0.25778 0.0
H863 H 0.56009 0.49542 0.23456 0.0
H864 H 0.64085 0.56965 0.28962 0.0
H865 H 0.57521 0.47576 0.26598 0.0
H866 H 0.59432 0.44926 0.3337 0.0
H867 H 0.57364 0.46897 0.30549 0.0
H868 H 0.67314 0.54642 0.29433 0.0
H869 H 0.69364 0.52721 0.32282 0.0
C870 C 0.61441 0.56449 0.25969 0.0
C871 C 0.59193 0.54392 0.24376 0.0
C872 C 0.62301 0.5532 0.27779 0.0
C873 C 0.60951 0.52115 0.28018 0.0
C874 C 0.58579 0.50053 0.26478 0.0
C875 C 0.57703 0.51181 0.24679 0.0
C876 C 0.61176 0.47044 0.32516 0.0
C877 C 0.64562 0.48667 0.33047 0.0
C878 C 0.59991 0.48173 0.30901 0.0
C879 C 0.62169 0.50941 0.29779 0.0
C880 C 0.65558 0.52541 0.30299 0.0
C881 C 0.66739 0.51422 0.31917 0.0
H882 H 0.5211 0.97405 0.39569 0.0
H883 H 0.43422 0.89115 0.4202 0.0
H884 H 0.51941 0.94609 0.36267 0.0
H885 H 0.43259 0.863 0.38708 0.0
H886 H 0.41549 0.83933 0.31295 0.0
H887 H 0.42001 0.8635 0.3484 0.0
H888 H 0.52577 0.90502 0.34816 0.0
H889 H 0.52132 0.8812 0.31222 0.0
C890 C 0.50201 0.94965 0.39423 0.0
C891 C 0.47778 0.93479 0.41057 0.0
C892 C 0.50106 0.9336 0.37528 0.0
C893 C 0.47584 0.90232 0.3722 0.0
C894 C 0.45208 0.88722 0.38881 0.0
C895 C 0.45299 0.90331 0.40777 0.0
C896 C 0.43975 0.85348 0.32045 0.0
C897 C 0.46809 0.85849 0.30967 0.0
C898 C 0.44229 0.86714 0.34091 0.0
C899 C 0.47323 0.88616 0.35115 0.0
C900 C 0.50158 0.89073 0.34059 0.0
C901 C 0.49904 0.877 0.32005 0.0
H902 H 0.55263 0.46985 0.53523 0.0
H903 H 0.57606 0.5592 0.51124 0.0
H904 H 0.57664 0.46268 0.50238 0.0
H905 H 0.6012 0.55242 0.47848 0.0
H906 H 0.60518 0.50807 0.41221 0.0
H907 H 0.58511 0.52017 0.44507 0.0
H908 H 0.63091 0.4838 0.48596 0.0
H909 H 0.6505 0.47113 0.45306 0.0
C910 C 0.56255 0.48782 0.52278 0.0
C911 C 0.56206 0.51493 0.52569 0.0
C912 C 0.57686 0.48395 0.50413 0.0
C913 C 0.5911 0.50711 0.48792 0.0
C914 C 0.59029 0.5341 0.49065 0.0
C915 C 0.57601 0.53803 0.50941 0.0
C916 C 0.61129 0.50295 0.42821 0.0
C917 C 0.62911 0.4883 0.43001 0.0
C918 C 0.5999 0.51003 0.44705 0.0
C919 C 0.60607 0.50258 0.46808 0.0
C920 C 0.62522 0.48927 0.46993 0.0
C921 C 0.63665 0.48222 0.45109 0.0
H922 H 0.12205 0.48233 0.71479 0.0
H923 H 0.03387 0.48018 0.69559 0.0
H924 H 0.15035 0.51309 0.6822 0.0
H925 H 0.06227 0.511 0.66275 0.0
H926 H 0.1178 0.53267 0.59455 0.0
H927 H 0.08714 0.50372 0.62721 0.0
H928 H 0.16958 0.56781 0.66862 0.0
H929 H 0.20023 0.59698 0.63604 0.0
C930 C 0.10862 0.48814 0.70341 0.0
C931 C 0.07568 0.47864 0.70754 0.0
C932 C 0.12492 0.50604 0.68492 0.0
C933 C 0.10853 0.51453 0.67003 0.0
C934 C 0.07541 0.50466 0.67396 0.0
C935 C 0.05922 0.48713 0.6927 0.0
C936 C 0.12927 0.54077 0.61064 0.0
C937 C 0.1615 0.56704 0.61271 0.0
C938 C 0.11165 0.52426 0.62932 0.0
C939 C 0.12609 0.53342 0.6504 0.0
C940 C 0.15801 0.56008 0.65252 0.0
C941 C 0.17545 0.57686 0.63388 0.0
H942 H 0.49454 0.11453 0.91171 0.0
H943 H 0.54952 0.07043 0.90164 0.0
H944 H 0.51399 0.14075 0.87643 0.0
H945 H 0.57105 0.09854 0.86754 0.0
H946 H 0.57178 0.12111 0.79565 0.0
H947 H 0.55275 0.09683 0.83148 0.0
H948 H 0.55912 0.17956 0.85609 0.0
H949 H 0.57664 0.20321 0.81978 0.0
C950 C 0.51107 0.11069 0.90217 0.0
C951 C 0.52027 0.09019 0.90962 0.0
C952 C 0.52259 0.12607 0.88202 0.0
C953 C 0.54389 0.12158 0.86894 0.0
C954 C 0.55411 0.10208 0.87686 0.0
C955 C 0.54224 0.08639 0.89677 0.0
C956 C 0.56906 0.13408 0.80871 0.0
C957 C 0.57574 0.16406 0.80492 0.0
C958 C 0.5584 0.12027 0.82935 0.0
C959 C 0.55469 0.13631 0.84685 0.0
C960 C 0.56129 0.16633 0.84298 0.0
C961 C 0.57149 0.17997 0.82219 0.0
H962 H 0.59495 0.63436 0.0282 0.0
H963 H 0.50567 0.62703 0.0506 0.0
H964 H 0.58479 0.64601 0.99093 0.0
H965 H 0.49548 0.63869 0.01334 0.0
H966 H 0.50012 0.68231 0.94698 0.0
H967 H 0.51992 0.68139 0.98402 0.0
H968 H 0.53919 0.61162 0.96301 0.0
H969 H 0.51923 0.61232 0.92597 0.0
C970 C 0.5736 0.636 0.02523 0.0
C971 C 0.5511 0.62992 0.04221 0.0
C972 C 0.56765 0.64237 0.00392 0.0
C973 C 0.53935 0.64316 -0.0007 0.0
C974 C 0.51766 0.63849 0.01652 0.0
C975 C 0.52336 0.63169 0.03777 0.0
C976 C 0.50906 0.66712 0.95015 0.0
C977 C 0.50794 0.64723 0.9336 0.0
C978 C 0.52022 0.66652 0.97138 0.0
C979 C 0.53094 0.64638 0.97635 0.0
C980 C 0.53129 0.62756 0.95955 0.0
C981 C 0.51971 0.62784 0.9384 0.0
H982 H 0.97748 0.44206 0.19952 0.0
H983 H 0.89442 0.4444 0.22405 0.0
H984 H 0.94929 0.42247 0.16402 0.0
H985 H 0.86605 0.42468 0.18841 0.0
H986 H 0.81439 0.35833 0.12888 0.0
H987 H 0.84199 0.37507 0.16481 0.0
H988 H 0.93192 0.44474 0.13302 0.0
H989 H 0.90436 0.42823 0.09708 0.0
C990 C 0.95298 0.43797 0.19737 0.0
C991 C 0.93792 0.44443 0.21454 0.0
C992 C 0.93701 0.42705 0.17702 0.0
C993 C 0.9055 0.42204 0.1735 0.0
C994 C 0.89022 0.4281 0.19077 0.0
C995 C 0.90644 0.43948 0.21107 0.0
C996 C 0.84012 0.37706 0.12953 0.0
C997 C 0.85721 0.39199 0.11013 0.0
C998 C 0.85581 0.38676 0.15011 0.0
C999 C 0.88901 0.41124 0.15168 0.0
C1000 C 0.90634 0.42567 0.13226 0.0
C1001 C 0.89053 0.41628 0.11171 0.0
loop_
_geom_bond_atom_site_label_1
_geom_bond_atom_site_label_2
_geom_bond_distance
_geom_bond_site_symmetry_2
_ccdc_geom_bond_type
H0 O26 0.856 . S
H1 O29 0.854 . S
H2 C37 0.930 1_455 S
H3 C38 0.930 . S
H4 C40 0.930 . S
H5 C41 0.930 . S
H6 C43 0.931 . S
H7 C44 0.930 . S
H8 C46 0.930 . S
H9 C47 0.929 . S
H10 C49 0.930 . S
H11 C50 0.931 . S
H12 C52 0.930 . S
H13 C53 0.929 . S
H14 C55 0.931 . S
H15 C56 0.930 . S
H16 C58 0.930 . S
H17 C59 0.932 . S
H18 C61 0.930 . S
H19 C62 0.929 . S
H20 C64 0.931 . S
H21 C65 0.930 . S
H22 C67 0.929 . S
H23 C68 0.931 . S
H24 C70 0.930 . S
H25 C71 0.932 . S
O26 H0 0.856 . S
O26 C72 1.300 . S
O27 C72 1.209 . S
O28 C73 1.199 . S
O29 H1 0.854 . S
O29 C73 1.297 . S
C30 C31 1.404 . S
C30 C35 1.397 . S
C30 C36 1.492 . S
C31 C30 1.404 . S
C31 C32 1.396 . S
C31 C42 1.492 . S
C32 C31 1.396 . S
C32 C33 1.397 . S
C32 C48 1.509 . S
C33 C32 1.397 . S
C33 C34 1.412 . S
C33 C54 1.485 . S
C34 C33 1.412 . S
C34 C35 1.388 . S
C34 C60 1.490 . S
C35 C30 1.397 . S
C35 C34 1.388 . S
C35 C66 1.519 1_455 S
C36 C30 1.492 . S
C36 C37 1.363 1_455 S
C36 C41 1.390 1_455 S
C37 H2 0.930 1_655 S
C37 C36 1.363 1_655 S
C37 C38 1.372 . S
C38 H3 0.930 . S
C38 C37 1.372 . S
C38 C39 1.383 . S
C39 C38 1.383 . S
C39 C40 1.395 . S
C40 H4 0.930 . S
C40 C39 1.395 . S
C40 C41 1.362 . S
C41 H5 0.930 . S
C41 C36 1.390 1_655 S
C41 C40 1.362 . S
C42 C31 1.492 . S
C42 C43 1.377 . S
C42 C47 1.397 . S
C43 H6 0.931 . S
C43 C42 1.377 . S
C43 C44 1.376 . S
C44 H7 0.930 . S
C44 C43 1.376 . S
C44 C45 1.376 . S
C45 C44 1.376 . S
C45 C46 1.378 . S
C45 C72 1.486 . S
C46 H8 0.930 . S
C46 C45 1.378 . S
C46 C47 1.376 . S
C47 H9 0.929 . S
C47 C42 1.397 . S
C47 C46 1.376 . S
C48 C32 1.509 . S
C48 C49 1.391 . S
C48 C53 1.386 . S
C49 H10 0.930 . S
C49 C48 1.391 . S
C49 C50 1.375 . S
C50 H11 0.931 . S
C50 C49 1.375 . S
C50 C51 1.375 . S
C51 C50 1.375 . S
C51 C52 1.361 . S
C52 H12 0.930 . S
C52 C51 1.361 . S
C52 C53 1.399 . S
C53 H13 0.929 . S
C53 C48 1.386 . S
C53 C52 1.399 . S
C54 C33 1.485 . S
C54 C55 1.394 . S
C54 C59 1.360 . S
C55 H14 0.931 . S
C55 C54 1.394 . S
C55 C56 1.372 . S
C56 H15 0.930 . S
C56 C55 1.372 . S
C56 C57 1.397 . S
C57 C56 1.397 . S
C57 C58 1.390 . S
C57 C73 1.476 . S
C58 H16 0.930 . S
C58 C57 1.390 . S
C58 C59 1.366 . S
C59 H17 0.932 . S
C59 C54 1.360 . S
C59 C58 1.366 . S
C60 C34 1.490 . S
C60 C61 1.380 . S
C60 C65 1.386 . S
C61 H18 0.930 . S
C61 C60 1.380 . S
C61 C62 1.381 . S
C62 H19 0.929 . S
C62 C61 1.381 . S
C62 C63 1.371 . S
C63 C62 1.371 . S
C63 C64 1.380 . S
C64 H20 0.931 . S
C64 C63 1.380 . S
C64 C65 1.387 . S
C65 H21 0.930 . S
C65 C60 1.386 . S
C65 C64 1.387 . S
C66 C35 1.519 1_655 S
C66 C67 1.377 . S
C66 C71 1.361 . S
C67 H22 0.929 . S
C67 C66 1.377 . S
C67 C68 1.386 . S
C68 H23 0.931 . S
C68 C67 1.386 . S
C68 C69 1.363 . S
C69 C68 1.363 . S
C69 C70 1.385 . S
C70 H24 0.930 . S
C70 C69 1.385 . S
C70 C71 1.396 . S
C71 H25 0.932 . S
C71 C66 1.361 . S
C71 C70 1.396 . S
C72 O26 1.300 . S
C72 O27 1.209 . S
C72 C45 1.486 . S
C73 O28 1.199 . S
C73 O29 1.297 . S
C73 C57 1.476 . S
H74 O100 0.856 . S
H75 O103 0.854 . S
H76 C111 0.930 . S
H77 C112 0.930 . S
H78 C114 0.930 . S
H79 C115 0.930 . S
H80 C117 0.931 . S
H81 C118 0.930 . S
H82 C120 0.930 . S
H83 C121 0.929 . S
H84 C123 0.930 . S
H85 C124 0.931 . S
H86 C126 0.930 . S
H87 C127 0.929 . S
H88 C129 0.931 . S
H89 C130 0.930 . S
H90 C132 0.930 . S
H91 C133 0.932 . S
H92 C135 0.930 . S
H93 C136 0.929 . S
H94 C138 0.931 . S
H95 C139 0.930 . S
H96 C141 0.929 . S
H97 C142 0.931 . S
H98 C144 0.930 . S
H99 C145 0.929 . S
O100 H74 0.856 . S
O100 C146 1.300 . S
O101 C146 1.209 . S
O102 C147 1.199 . S
O103 H75 0.854 . S
O103 C147 1.297 . S
C104 C105 1.404 . S
C104 C109 1.397 . S
C104 C110 1.492 . S
C105 C104 1.404 . S
C105 C106 1.396 . S
C105 C116 1.492 . S
C106 C105 1.396 . S
C106 C107 1.397 . S
C106 C122 1.509 . S
C107 C106 1.397 . S
C107 C108 1.412 . S
C107 C128 1.485 . S
C108 C107 1.412 . S
C108 C109 1.388 . S
C108 C134 1.490 . S
C109 C104 1.397 . S
C109 C108 1.388 . S
C109 C140 1.500 1_545 S
C110 C104 1.492 . S
C110 C111 1.363 . S
C110 C115 1.390 1_545 S
C111 H76 0.930 . S
C111 C110 1.363 . S
C111 C112 1.372 1_545 S
C112 H77 0.930 . S
C112 C111 1.372 1_565 S
C112 C113 1.383 . S
C113 C112 1.383 . S
C113 C114 1.395 . S
C114 H78 0.930 . S
C114 C113 1.395 . S
C114 C115 1.362 . S
C115 H79 0.930 . S
C115 C110 1.390 1_565 S
C115 C114 1.362 . S
C116 C105 1.492 . S
C116 C117 1.377 . S
C116 C121 1.397 . S
C117 H80 0.931 . S
C117 C116 1.377 . S
C117 C118 1.376 . S
C118 H81 0.930 . S
C118 C117 1.376 . S
C118 C119 1.376 . S
C119 C118 1.376 . S
C119 C120 1.378 . S
C119 C146 1.486 . S
C120 H82 0.930 . S
C120 C119 1.378 . S
C120 C121 1.376 . S
C121 H83 0.929 . S
C121 C116 1.397 . S
C121 C120 1.376 . S
C122 C106 1.509 . S
C122 C123 1.391 . S
C122 C127 1.386 . S
C123 H84 0.930 . S
C123 C122 1.391 . S
C123 C124 1.375 . S
C124 H85 0.931 . S
C124 C123 1.375 . S
C124 C125 1.375 . S
C125 C124 1.375 . S
C125 C126 1.361 . S
C126 H86 0.930 . S
C126 C125 1.361 . S
C126 C127 1.399 . S
C127 H87 0.929 . S
C127 C122 1.386 . S
C127 C126 1.399 . S
C128 C107 1.485 . S
C128 C129 1.394 . S
C128 C133 1.360 . S
C129 H88 0.931 . S
C129 C128 1.394 . S
C129 C130 1.372 . S
C130 H89 0.930 . S
C130 C129 1.372 . S
C130 C131 1.397 . S
C131 C130 1.397 . S
C131 C132 1.390 . S
C131 C147 1.476 . S
C132 H90 0.930 . S
C132 C131 1.390 . S
C132 C133 1.366 . S
C133 H91 0.932 . S
C133 C128 1.360 . S
C133 C132 1.366 . S
C134 C108 1.490 . S
C134 C135 1.380 . S
C134 C139 1.386 . S
C135 H92 0.930 . S
C135 C134 1.380 . S
C135 C136 1.381 . S
C136 H93 0.929 . S
C136 C135 1.381 . S
C136 C137 1.371 . S
C137 C136 1.371 . S
C137 C138 1.380 . S
C138 H94 0.931 . S
C138 C137 1.380 . S
C138 C139 1.387 . S
C139 H95 0.930 . S
C139 C134 1.386 . S
C139 C138 1.387 . S
C140 C109 1.500 1_565 S
C140 C141 1.397 . S
C140 C145 1.359 . S
C141 H96 0.929 . S
C141 C140 1.397 . S
C141 C142 1.386 . S
C142 H97 0.931 . S
C142 C141 1.386 . S
C142 C143 1.363 . S
C143 C142 1.363 . S
C143 C144 1.385 . S
C144 H98 0.930 . S
C144 C143 1.385 . S
C144 C145 1.396 . S
C145 H99 0.929 . S
C145 C140 1.359 . S
C145 C144 1.396 . S
C146 O100 1.300 . S
C146 O101 1.209 . S
C146 C119 1.486 . S
C147 O102 1.199 . S
C147 O103 1.297 . S
C147 C131 1.476 . S
H148 O174 0.856 . S
H149 O177 0.854 . S
H150 C185 0.930 . S
H151 C186 0.930 . S
H152 C188 0.930 . S
H153 C189 0.930 . S
H154 C191 0.931 . S
H155 C192 0.930 . S
H156 C194 0.930 . S
H157 C195 0.929 . S
H158 C197 0.930 . S
H159 C198 0.931 . S
H160 C200 0.930 . S
H161 C201 0.929 . S
H162 C203 0.931 . S
H163 C204 0.930 . S
H164 C206 0.930 . S
H165 C207 0.932 . S
H166 C209 0.930 . S
H167 C210 0.929 . S
H168 C212 0.931 . S
H169 C213 0.930 . S
H170 C215 0.929 . S
H171 C216 0.931 . S
H172 C218 0.930 . S
H173 C219 0.929 . S
O174 H148 0.856 . S
O174 C220 1.300 . S
O175 C220 1.209 . S
O176 C221 1.199 . S
O177 H149 0.854 . S
O177 C221 1.297 . S
C178 C179 1.404 . S
C178 C183 1.397 . S
C178 C184 1.492 . S
C179 C178 1.404 . S
C179 C180 1.396 . S
C179 C190 1.492 . S
C180 C179 1.396 . S
C180 C181 1.397 . S
C180 C196 1.509 . S
C181 C180 1.397 . S
C181 C182 1.412 . S
C181 C202 1.485 . S
C182 C181 1.412 . S
C182 C183 1.388 . S
C182 C208 1.490 . S
C183 C178 1.397 . S
C183 C182 1.388 . S
C183 C214 1.519 . S
C184 C178 1.492 . S
C184 C185 1.363 . S
C184 C189 1.390 . S
C185 H150 0.930 . S
C185 C184 1.363 . S
C185 C186 1.372 . S
C186 H151 0.930 . S
C186 C185 1.372 . S
C186 C187 1.383 . S
C187 C186 1.383 . S
C187 C188 1.395 . S
C188 H152 0.930 . S
C188 C187 1.395 . S
C188 C189 1.362 . S
C189 H153 0.930 . S
C189 C184 1.390 . S
C189 C188 1.362 . S
C190 C179 1.492 . S
C190 C191 1.377 . S
C190 C195 1.397 . S
C191 H154 0.931 . S
C191 C190 1.377 . S
C191 C192 1.376 . S
C192 H155 0.930 . S
C192 C191 1.376 . S
C192 C193 1.376 . S
C193 C192 1.376 . S
C193 C194 1.378 . S
C193 C220 1.486 . S
C194 H156 0.930 . S
C194 C193 1.378 . S
C194 C195 1.376 . S
C195 H157 0.929 . S
C195 C190 1.397 . S
C195 C194 1.376 . S
C196 C180 1.509 . S
C196 C197 1.391 . S
C196 C201 1.386 . S
C197 H158 0.930 . S
C197 C196 1.391 . S
C197 C198 1.375 . S
C198 H159 0.931 . S
C198 C197 1.375 . S
C198 C199 1.375 . S
C199 C198 1.375 . S
C199 C200 1.361 . S
C200 H160 0.930 . S
C200 C199 1.361 . S
C200 C201 1.399 . S
C201 H161 0.929 . S
C201 C196 1.386 . S
C201 C200 1.399 . S
C202 C181 1.485 . S
C202 C203 1.394 . S
C202 C207 1.360 . S
C203 H162 0.931 . S
C203 C202 1.394 . S
C203 C204 1.372 . S
C204 H163 0.930 . S
C204 C203 1.372 . S
C204 C205 1.397 . S
C205 C204 1.397 . S
C205 C206 1.390 . S
C205 C221 1.476 . S
C206 H164 0.930 . S
C206 C205 1.390 . S
C206 C207 1.366 . S
C207 H165 0.932 . S
C207 C202 1.360 . S
C207 C206 1.366 . S
C208 C182 1.490 . S
C208 C209 1.380 . S
C208 C213 1.386 . S
C209 H166 0.930 . S
C209 C208 1.380 . S
C209 C210 1.381 . S
C210 H167 0.929 . S
C210 C209 1.381 . S
C210 C211 1.371 . S
C211 C210 1.371 . S
C211 C212 1.380 . S
C212 H168 0.931 . S
C212 C211 1.380 . S
C212 C213 1.387 . S
C213 H169 0.930 . S
C213 C208 1.386 . S
C213 C212 1.387 . S
C214 C183 1.519 . S
C214 C215 1.377 . S
C214 C219 1.361 . S
C215 H170 0.929 . S
C215 C214 1.377 . S
C215 C216 1.386 . S
C216 H171 0.931 . S
C216 C215 1.386 . S
C216 C217 1.363 . S
C217 C216 1.363 . S
C217 C218 1.385 . S
C218 H172 0.930 . S
C218 C217 1.385 . S
C218 C219 1.396 . S
C219 H173 0.929 . S
C219 C214 1.361 . S
C219 C218 1.396 . S
C220 O174 1.300 . S
C220 O175 1.209 . S
C220 C193 1.486 . S
C221 O176 1.199 . S
C221 O177 1.297 . S
C221 C205 1.476 . S
H222 O248 0.856 . S
H223 O251 0.854 . S
H224 C259 0.930 1_455 S
H225 C260 0.930 . S
H226 C262 0.930 . S
H227 C263 0.930 . S
H228 C265 0.931 . S
H229 C266 0.930 . S
H230 C268 0.930 . S
H231 C269 0.929 . S
H232 C271 0.930 . S
H233 C272 0.931 . S
H234 C274 0.930 . S
H235 C275 0.929 . S
H236 C277 0.931 . S
H237 C278 0.930 . S
H238 C280 0.930 . S
H239 C281 0.932 . S
H240 C283 0.930 . S
H241 C284 0.929 . S
H242 C286 0.931 . S
H243 C287 0.930 . S
H244 C289 0.929 . S
H245 C290 0.931 . S
H246 C292 0.930 . S
H247 C293 0.929 . S
O248 H222 0.856 . S
O248 C294 1.300 . S
O249 C294 1.209 . S
O250 C295 1.199 . S
O251 H223 0.854 . S
O251 C295 1.297 . S
C252 C253 1.404 . S
C252 C257 1.397 . S
C252 C258 1.492 1_455 S
C253 C252 1.404 . S
C253 C254 1.396 . S
C253 C264 1.492 . S
C254 C253 1.396 . S
C254 C255 1.397 . S
C254 C270 1.509 . S
C255 C254 1.397 . S
C255 C256 1.412 . S
C255 C276 1.485 . S
C256 C255 1.412 . S
C256 C257 1.388 . S
C256 C282 1.490 . S
C257 C252 1.397 . S
C257 C256 1.388 . S
C257 C288 1.519 1_455 S
C258 C252 1.492 1_655 S
C258 C259 1.363 . S
C258 C263 1.390 . S
C259 H224 0.930 1_655 S
C259 C258 1.363 . S
C259 C260 1.372 . S
C260 H225 0.930 . S
C260 C259 1.372 . S
C260 C261 1.383 . S
C261 C260 1.383 . S
C261 C262 1.395 . S
C262 H226 0.930 . S
C262 C261 1.395 . S
C262 C263 1.362 . S
C263 H227 0.930 . S
C263 C258 1.390 . S
C263 C262 1.362 . S
C264 C253 1.492 . S
C264 C265 1.377 . S
C264 C269 1.397 . S
C265 H228 0.931 . S
C265 C264 1.377 . S
C265 C266 1.376 . S
C266 H229 0.930 . S
C266 C265 1.376 . S
C266 C267 1.376 . S
C267 C266 1.376 . S
C267 C268 1.378 . S
C267 C294 1.486 . S
C268 H230 0.930 . S
C268 C267 1.378 . S
C268 C269 1.376 . S
C269 H231 0.929 . S
C269 C264 1.397 . S
C269 C268 1.376 . S
C270 C254 1.509 . S
C270 C271 1.391 . S
C270 C275 1.386 . S
C271 H232 0.930 . S
C271 C270 1.391 . S
C271 C272 1.375 . S
C272 H233 0.931 . S
C272 C271 1.375 . S
C272 C273 1.375 . S
C273 C272 1.375 . S
C273 C274 1.361 . S
C274 H234 0.930 . S
C274 C273 1.361 . S
C274 C275 1.399 . S
C275 H235 0.929 . S
C275 C270 1.386 . S
C275 C274 1.399 . S
C276 C255 1.485 . S
C276 C277 1.394 . S
C276 C281 1.360 . S
C277 H236 0.931 . S
C277 C276 1.394 . S
C277 C278 1.372 . S
C278 H237 0.930 . S
C278 C277 1.372 . S
C278 C279 1.397 . S
C279 C278 1.397 . S
C279 C280 1.390 . S
C279 C295 1.476 . S
C280 H238 0.930 . S
C280 C279 1.390 . S
C280 C281 1.366 . S
C281 H239 0.932 . S
C281 C276 1.360 . S
C281 C280 1.366 . S
C282 C256 1.490 . S
C282 C283 1.380 . S
C282 C287 1.386 . S
C283 H240 0.930 . S
C283 C282 1.380 . S
C283 C284 1.381 . S
C284 H241 0.929 . S
C284 C283 1.381 . S
C284 C285 1.371 . S
C285 C284 1.371 . S
C285 C286 1.380 . S
C286 H242 0.931 . S
C286 C285 1.380 . S
C286 C287 1.387 . S
C287 H243 0.930 . S
C287 C282 1.386 . S
C287 C286 1.387 . S
C288 C257 1.519 1_655 S
C288 C289 1.377 . S
C288 C293 1.361 . S
C289 H244 0.929 . S
C289 C288 1.377 . S
C289 C290 1.386 . S
C290 H245 0.931 . S
C290 C289 1.386 . S
C290 C291 1.363 . S
C291 C290 1.363 . S
C291 C292 1.385 . S
C292 H246 0.930 . S
C292 C291 1.385 . S
C292 C293 1.396 . S
C293 H247 0.929 . S
C293 C288 1.361 . S
C293 C292 1.396 . S
C294 O248 1.300 . S
C294 O249 1.209 . S
C294 C267 1.486 . S
C295 O250 1.199 . S
C295 O251 1.297 . S
C295 C279 1.476 . S
H296 O322 0.856 . S
H297 O325 0.854 . S
H298 C333 0.930 . S
H299 C334 0.930 . S
H300 C336 0.930 . S
H301 C337 0.930 . S
H302 C339 0.931 . S
H303 C340 0.930 . S
H304 C342 0.930 . S
H305 C343 0.929 . S
H306 C345 0.930 . S
H307 C346 0.931 . S
H308 C348 0.930 . S
H309 C349 0.929 . S
H310 C351 0.931 . S
H311 C352 0.930 . S
H312 C354 0.930 . S
H313 C355 0.961 . S
H314 C357 0.930 . S
H315 C358 0.929 . S
H316 C360 0.931 . S
H317 C361 0.930 . S
H318 C363 0.952 . S
H319 C364 0.931 . S
H320 C366 0.930 . S
H321 C367 0.929 . S
O322 H296 0.856 . S
O322 C368 1.300 . S
O323 C368 1.209 . S
O324 C369 1.199 . S
O325 H297 0.854 . S
O325 C369 1.297 . S
C326 C327 1.404 . S
C326 C331 1.397 . S
C326 C332 1.492 1_565 S
C327 C326 1.404 . S
C327 C328 1.396 . S
C327 C338 1.492 . S
C328 C327 1.396 . S
C328 C329 1.397 . S
C328 C344 1.509 . S
C329 C328 1.397 . S
C329 C330 1.412 1_556 S
C329 C350 1.485 1_556 S
C330 C329 1.412 1_554 S
C330 C331 1.388 1_554 S
C330 C356 1.490 . S
C331 C326 1.397 . S
C331 C330 1.388 1_556 S
C331 C362 1.521 1_565 S
C332 C326 1.492 1_545 S
C332 C333 1.363 . S
C332 C337 1.390 . S
C333 H298 0.930 . S
C333 C332 1.363 . S
C333 C334 1.372 . S
C334 H299 0.930 . S
C334 C333 1.372 . S
C334 C335 1.383 . S
C335 C334 1.383 . S
C335 C336 1.395 . S
C336 H300 0.930 . S
C336 C335 1.395 . S
C336 C337 1.362 . S
C337 H301 0.930 . S
C337 C332 1.390 . S
C337 C336 1.362 . S
C338 C327 1.492 . S
C338 C339 1.377 . S
C338 C343 1.397 . S
C339 H302 0.931 . S
C339 C338 1.377 . S
C339 C340 1.376 . S
C340 H303 0.930 . S
C340 C339 1.376 . S
C340 C341 1.376 . S
C341 C340 1.376 . S
C341 C342 1.378 . S
C341 C368 1.486 . S
C342 H304 0.930 . S
C342 C341 1.378 . S
C342 C343 1.376 . S
C343 H305 0.929 . S
C343 C338 1.397 . S
C343 C342 1.376 . S
C344 C328 1.509 . S
C344 C345 1.391 . S
C344 C349 1.386 . S
C345 H306 0.930 . S
C345 C344 1.391 . S
C345 C346 1.375 . S
C346 H307 0.931 . S
C346 C345 1.375 . S
C346 C347 1.375 . S
C347 C346 1.375 . S
C347 C348 1.361 . S
C348 H308 0.930 . S
C348 C347 1.361 . S
C348 C349 1.399 . S
C349 H309 0.929 . S
C349 C344 1.386 . S
C349 C348 1.399 . S
C350 C329 1.485 1_554 S
C350 C351 1.394 . S
C350 C355 1.360 . S
C351 H310 0.931 . S
C351 C350 1.394 . S
C351 C352 1.372 . S
C352 H311 0.930 . S
C352 C351 1.372 . S
C352 C353 1.397 . S
C353 C352 1.397 . S
C353 C354 1.390 . S
C353 C369 1.476 . S
C354 H312 0.930 . S
C354 C353 1.390 . S
C354 C355 1.366 . S
C355 H313 0.961 . S
C355 C350 1.360 . S
C355 C354 1.366 . S
C356 C330 1.490 . S
C356 C357 1.380 . S
C356 C361 1.386 . S
C357 H314 0.930 . S
C357 C356 1.380 . S
C357 C358 1.381 . S
C358 H315 0.929 . S
C358 C357 1.381 . S
C358 C359 1.371 . S
C359 C358 1.371 . S
C359 C360 1.380 . S
C360 H316 0.931 . S
C360 C359 1.380 . S
C360 C361 1.387 . S
C361 H317 0.930 . S
C361 C356 1.386 . S
C361 C360 1.387 . S
C362 C331 1.521 1_545 S
C362 C363 1.376 . S
C362 C367 1.358 1_556 S
C363 H318 0.952 . S
C363 C362 1.376 . S
C363 C364 1.367 1_556 S
C364 H319 0.931 . S
C364 C363 1.367 1_554 S
C364 C365 1.363 . S
C365 C364 1.363 . S
C365 C366 1.385 . S
C366 H320 0.930 . S
C366 C365 1.385 . S
C366 C367 1.396 . S
C367 H321 0.929 . S
C367 C362 1.358 1_554 S
C367 C366 1.396 . S
C368 O322 1.300 . S
C368 O323 1.209 . S
C368 C341 1.486 . S
C369 O324 1.199 . S
C369 O325 1.297 . S
C369 C353 1.476 . S
H370 O396 0.856 1_556 S
H371 O399 0.854 . S
H372 C407 0.930 . S
H373 C408 0.930 . S
H374 C410 0.930 . S
H375 C411 0.930 . S
H376 C413 0.931 . S
H377 C414 0.930 . S
H378 C416 0.930 . S
H379 C417 0.929 . S
H380 C419 0.930 . S
H381 C420 0.931 . S
H382 C422 0.930 . S
H383 C423 0.929 . S
H384 C425 0.931 . S
H385 C426 0.930 . S
H386 C428 0.930 . S
H387 C429 0.932 . S
H388 C431 0.930 . S
H389 C432 0.929 . S
H390 C434 0.931 . S
H391 C435 0.930 . S
H392 C437 0.929 . S
H393 C438 0.931 . S
H394 C440 0.930 . S
H395 C441 0.929 . S
O396 H370 0.856 1_554 S
O396 C442 1.300 . S
O397 C442 1.230 . S
O398 C443 1.199 . S
O399 H371 0.854 . S
O399 C443 1.297 . S
C400 C401 1.404 . S
C400 C405 1.397 . S
C400 C406 1.492 . S
C401 C400 1.404 . S
C401 C402 1.396 . S
C401 C412 1.492 . S
C402 C401 1.396 . S
C402 C403 1.397 . S
C402 C418 1.509 . S
C403 C402 1.397 . S
C403 C404 1.412 . S
C403 C424 1.485 . S
C404 C403 1.412 . S
C404 C405 1.388 . S
C404 C430 1.490 . S
C405 C400 1.397 . S
C405 C404 1.388 . S
C405 C436 1.519 . S
C406 C400 1.492 . S
C406 C407 1.363 . S
C406 C411 1.390 . S
C407 H372 0.930 . S
C407 C406 1.363 . S
C407 C408 1.372 . S
C408 H373 0.930 . S
C408 C407 1.372 . S
C408 C409 1.383 . S
C409 C408 1.383 . S
C409 C410 1.395 . S
C410 H374 0.930 . S
C410 C409 1.395 . S
C410 C411 1.362 . S
C411 H375 0.930 . S
C411 C406 1.390 . S
C411 C410 1.362 . S
C412 C401 1.492 . S
C412 C413 1.377 . S
C412 C417 1.397 . S
C413 H376 0.931 . S
C413 C412 1.377 . S
C413 C414 1.376 . S
C414 H377 0.930 . S
C414 C413 1.376 . S
C414 C415 1.376 . S
C415 C414 1.376 . S
C415 C416 1.378 . S
C415 C442 1.486 . S
C416 H378 0.930 . S
C416 C415 1.378 . S
C416 C417 1.376 . S
C417 H379 0.929 . S
C417 C412 1.397 . S
C417 C416 1.376 . S
C418 C402 1.509 . S
C418 C419 1.391 . S
C418 C423 1.386 . S
C419 H380 0.930 . S
C419 C418 1.391 . S
C419 C420 1.375 . S
C420 H381 0.931 . S
C420 C419 1.375 . S
C420 C421 1.375 . S
C421 C420 1.375 . S
C421 C422 1.361 . S
C422 H382 0.930 . S
C422 C421 1.361 . S
C422 C423 1.399 . S
C423 H383 0.929 . S
C423 C418 1.386 . S
C423 C422 1.399 . S
C424 C403 1.485 . S
C424 C425 1.394 . S
C424 C429 1.360 . S
C425 H384 0.931 . S
C425 C424 1.394 . S
C425 C426 1.372 . S
C426 H385 0.930 . S
C426 C425 1.372 . S
C426 C427 1.397 . S
C427 C426 1.397 . S
C427 C428 1.390 . S
C427 C443 1.476 . S
C428 H386 0.930 . S
C428 C427 1.390 . S
C428 C429 1.366 . S
C429 H387 0.932 . S
C429 C424 1.360 . S
C429 C428 1.366 . S
C430 C404 1.490 . S
C430 C431 1.380 . S
C430 C435 1.386 . S
C431 H388 0.930 . S
C431 C430 1.380 . S
C431 C432 1.381 . S
C432 H389 0.929 . S
C432 C431 1.381 . S
C432 C433 1.371 . S
C433 C432 1.371 . S
C433 C434 1.380 . S
C434 H390 0.931 . S
C434 C433 1.380 . S
C434 C435 1.387 . S
C435 H391 0.930 . S
C435 C430 1.386 . S
C435 C434 1.387 . S
C436 C405 1.519 . S
C436 C437 1.377 . S
C436 C441 1.361 . S
C437 H392 0.929 . S
C437 C436 1.377 . S
C437 C438 1.386 . S
C438 H393 0.931 . S
C438 C437 1.386 . S
C438 C439 1.363 . S
C439 C438 1.363 . S
C439 C440 1.385 . S
C440 H394 0.930 . S
C440 C439 1.385 . S
C440 C441 1.396 . S
C441 H395 0.929 . S
C441 C436 1.361 . S
C441 C440 1.396 . S
C442 O396 1.300 . S
C442 O397 1.230 . S
C442 C415 1.486 . S
C443 O398 1.199 . S
C443 O399 1.297 . S
C443 C427 1.476 . S
C444 O445 1.160 . S
C444 O451 1.185 . S
O445 C444 1.160 . S
O446 Zn447 1.899 . S
O446 C454 1.284 . S
Zn447 O446 1.899 . S
Zn447 O448 2.032 . S
Zn447 O451 2.086 . S
Zn447 O456 1.977 . S
O448 Zn447 2.032 . S
O448 C452 1.278 . S
C449 O450 1.203 . S
C449 O456 1.267 . S
O450 C449 1.203 . S
O451 C444 1.185 . S
O451 Zn447 2.086 . S
C452 O448 1.278 . S
C452 O453 1.211 . S
O453 C452 1.211 . S
C454 O446 1.284 . S
C454 O455 1.273 . S
O455 C454 1.273 . S
O456 Zn447 1.977 . S
O456 C449 1.267 . S
C457 O458 1.160 . S
C457 O464 1.185 . S
O458 C457 1.160 . S
O459 Zn460 1.899 . S
O459 C467 1.284 . S
Zn460 O459 1.899 . S
Zn460 O461 2.032 . S
Zn460 O464 2.086 . S
Zn460 O469 1.977 . S
O461 Zn460 2.032 . S
O461 C465 1.278 . S
C462 O463 1.203 . S
C462 O469 1.267 . S
O463 C462 1.203 . S
O464 C457 1.185 . S
O464 Zn460 2.086 . S
C465 O461 1.278 . S
C465 O466 1.211 . S
O466 C465 1.211 . S
C467 O459 1.284 . S
C467 O468 1.273 . S
O468 C467 1.273 . S
O469 Zn460 1.977 . S
O469 C462 1.267 . S
C470 O471 1.160 . S
C470 O477 1.185 . S
O471 C470 1.160 . S
O472 Zn473 1.899 . S
O472 C480 1.284 . S
Zn473 O472 1.899 . S
Zn473 O474 2.032 . S
Zn473 O477 2.086 . S
Zn473 O482 1.977 . S
O474 Zn473 2.032 . S
O474 C478 1.278 . S
C475 O476 1.203 . S
C475 O482 1.267 . S
O476 C475 1.203 . S
O477 C470 1.185 . S
O477 Zn473 2.086 . S
C478 O474 1.278 . S
C478 O479 1.211 . S
O479 C478 1.211 . S
C480 O472 1.284 . S
C480 O481 1.273 . S
O481 C480 1.273 . S
O482 Zn473 1.977 . S
O482 C475 1.267 . S
C483 O484 1.160 . S
C483 O490 1.185 . S
O484 C483 1.160 . S
O485 Zn486 1.899 . S
O485 C493 1.284 . S
Zn486 O485 1.899 . S
Zn486 O487 2.032 . S
Zn486 O490 2.086 . S
Zn486 O495 1.977 . S
O487 Zn486 2.032 . S
O487 C491 1.278 . S
C488 O489 1.203 . S
C488 O495 1.267 . S
O489 C488 1.203 . S
O490 C483 1.185 . S
O490 Zn486 2.086 . S
C491 O487 1.278 . S
C491 O492 1.211 . S
O492 C491 1.211 . S
C493 O485 1.284 . S
C493 O494 1.273 . S
O494 C493 1.273 . S
O495 Zn486 1.977 . S
O495 C488 1.267 . S
C496 O497 1.160 . S
C496 O503 1.185 . S
O497 C496 1.160 . S
O498 Zn499 1.899 . S
O498 C506 1.284 . S
Zn499 O498 1.899 . S
Zn499 O500 2.032 . S
Zn499 O503 2.086 . S
Zn499 O508 1.977 . S
O500 Zn499 2.032 . S
O500 C504 1.278 . S
C501 O502 1.203 . S
C501 O508 1.267 . S
O502 C501 1.203 . S
O503 C496 1.185 . S
O503 Zn499 2.086 . S
C504 O500 1.278 . S
C504 O505 1.211 . S
O505 C504 1.211 . S
C506 O498 1.284 . S
C506 O507 1.273 . S
O507 C506 1.273 . S
O508 Zn499 1.977 . S
O508 C501 1.267 . S
C509 O510 1.160 . S
C509 O516 1.185 . S
O510 C509 1.160 . S
O511 Zn512 1.899 . S
O511 C519 1.284 . S
Zn512 O511 1.899 . S
Zn512 O513 2.032 . S
Zn512 O516 2.086 . S
Zn512 O521 1.977 . S
O513 Zn512 2.032 . S
O513 C517 1.278 . S
C514 O515 1.203 . S
C514 O521 1.267 . S
O515 C514 1.203 . S
O516 C509 1.185 . S
O516 Zn512 2.086 . S
C517 O513 1.278 . S
C517 O518 1.211 . S
O518 C517 1.211 . S
C519 O511 1.284 . S
C519 O520 1.273 . S
O520 C519 1.273 . S
O521 Zn512 1.977 . S
O521 C514 1.267 . S
H522 C530 0.950 . S
H523 C535 0.950 . S
H524 C532 0.950 . S
H525 C534 0.950 . S
H526 C536 0.950 . S
H527 C538 0.950 . S
H528 C540 0.950 . S
H529 C541 0.950 . S
C530 H522 0.950 . S
C530 C531 1.386 . S
C530 C532 1.391 . S
C531 C530 1.386 . S
C531 C535 1.393 . S
C532 H524 0.950 . S
C532 C530 1.391 . S
C532 C533 1.400 . S
C533 C532 1.400 . S
C533 C534 1.398 . S
C533 C539 1.491 . S
C534 H525 0.950 . S
C534 C533 1.398 . S
C534 C535 1.391 . S
C535 H523 0.950 . S
C535 C531 1.393 . S
C535 C534 1.391 . S
C536 H526 0.950 . S
C536 C537 1.386 . S
C536 C538 1.391 . S
C537 C536 1.386 . S
C537 C541 1.393 . S
C538 H527 0.950 . S
C538 C536 1.391 . S
C538 C539 1.400 . S
C539 C533 1.491 . S
C539 C538 1.400 . S
C539 C540 1.398 . S
C540 H528 0.950 . S
C540 C539 1.398 . S
C540 C541 1.391 . S
C541 H529 0.950 . S
C541 C537 1.393 . S
C541 C540 1.391 . S
H542 C550 0.950 . S
H543 C555 0.950 . S
H544 C552 0.950 . S
H545 C554 0.950 . S
H546 C556 0.950 . S
H547 C558 0.950 . S
H548 C560 0.950 . S
H549 C561 0.950 . S
C550 H542 0.950 . S
C550 C551 1.386 . S
C550 C552 1.391 . S
C551 C550 1.386 . S
C551 C555 1.393 . S
C552 H544 0.950 . S
C552 C550 1.391 . S
C552 C553 1.400 . S
C553 C552 1.400 . S
C553 C554 1.398 . S
C553 C559 1.491 . S
C554 H545 0.950 . S
C554 C553 1.398 . S
C554 C555 1.391 . S
C555 H543 0.950 . S
C555 C551 1.393 . S
C555 C554 1.391 . S
C556 H546 0.950 . S
C556 C557 1.386 . S
C556 C558 1.391 . S
C557 C556 1.386 . S
C557 C561 1.393 . S
C558 H547 0.950 . S
C558 C556 1.391 . S
C558 C559 1.400 . S
C559 C553 1.491 . S
C559 C558 1.400 . S
C559 C560 1.398 . S
C560 H548 0.950 . S
C560 C559 1.398 . S
C560 C561 1.391 . S
C561 H549 0.950 . S
C561 C557 1.393 . S
C561 C560 1.391 . S
H562 C570 0.950 . S
H563 C575 0.950 . S
H564 C572 0.950 . S
H565 C574 0.950 . S
H566 C576 0.950 . S
H567 C578 0.950 . S
H568 C580 0.950 . S
H569 C581 0.950 . S
C570 H562 0.950 . S
C570 C571 1.386 . S
C570 C572 1.391 . S
C571 C570 1.386 . S
C571 C575 1.393 . S
C572 H564 0.950 . S
C572 C570 1.391 . S
C572 C573 1.400 . S
C573 C572 1.400 . S
C573 C574 1.398 . S
C573 C579 1.491 . S
C574 H565 0.950 . S
C574 C573 1.398 . S
C574 C575 1.391 . S
C575 H563 0.950 . S
C575 C571 1.393 . S
C575 C574 1.391 . S
C576 H566 0.950 . S
C576 C577 1.386 . S
C576 C578 1.391 . S
C577 C576 1.386 . S
C577 C581 1.393 . S
C578 H567 0.950 . S
C578 C576 1.391 . S
C578 C579 1.400 . S
C579 C573 1.491 . S
C579 C578 1.400 . S
C579 C580 1.398 . S
C580 H568 0.950 . S
C580 C579 1.398 . S
C580 C581 1.391 . S
C581 H569 0.950 . S
C581 C577 1.393 . S
C581 C580 1.391 . S
H582 C590 0.950 . S
H583 C595 0.950 . S
H584 C592 0.950 . S
H585 C594 0.950 . S
H586 C596 0.950 . S
H587 C598 0.950 . S
H588 C600 0.950 . S
H589 C601 0.950 . S
C590 H582 0.950 . S
C590 C591 1.386 . S
C590 C592 1.391 . S
C591 C590 1.386 . S
C591 C595 1.393 . S
C592 H584 0.950 . S
C592 C590 1.391 . S
C592 C593 1.400 . S
C593 C592 1.400 . S
C593 C594 1.398 . S
C593 C599 1.491 . S
C594 H585 0.950 . S
C594 C593 1.398 . S
C594 C595 1.391 . S
C595 H583 0.950 . S
C595 C591 1.393 . S
C595 C594 1.391 . S
C596 H586 0.950 . S
C596 C597 1.386 . S
C596 C598 1.391 . S
C597 C596 1.386 . S
C597 C601 1.393 . S
C598 H587 0.950 . S
C598 C596 1.391 . S
C598 C599 1.400 . S
C599 C593 1.491 . S
C599 C598 1.400 . S
C599 C600 1.398 . S
C600 H588 0.950 . S
C600 C599 1.398 . S
C600 C601 1.391 . S
C601 H589 0.950 . S
C601 C597 1.393 . S
C601 C600 1.391 . S
H602 C610 0.950 . S
H603 C615 0.950 . S
H604 C612 0.950 . S
H605 C614 0.950 . S
H606 C616 0.950 . S
H607 C618 0.950 . S
H608 C620 0.950 . S
H609 C621 0.950 . S
C610 H602 0.950 . S
C610 C611 1.386 . S
C610 C612 1.391 . S
C611 C610 1.386 . S
C611 C615 1.393 . S
C612 H604 0.950 . S
C612 C610 1.391 . S
C612 C613 1.400 . S
C613 C612 1.400 . S
C613 C614 1.398 . S
C613 C619 1.491 . S
C614 H605 0.950 . S
C614 C613 1.398 . S
C614 C615 1.391 . S
C615 H603 0.950 . S
C615 C611 1.393 . S
C615 C614 1.391 . S
C616 H606 0.950 . S
C616 C617 1.386 . S
C616 C618 1.391 . S
C617 C616 1.386 . S
C617 C621 1.393 . S
C618 H607 0.950 . S
C618 C616 1.391 . S
C618 C619 1.400 . S
C619 C613 1.491 . S
C619 C618 1.400 . S
C619 C620 1.398 . S
C620 H608 0.950 . S
C620 C619 1.398 . S
C620 C621 1.391 . S
C621 H609 0.950 . S
C621 C617 1.393 . S
C621 C620 1.391 . S
H622 C630 0.950 . S
H623 C635 0.950 . S
H624 C632 0.950 . S
H625 C634 0.950 . S
H626 C636 0.950 . S
H627 C638 0.950 . S
H628 C640 0.950 . S
H629 C641 0.950 . S
C630 H622 0.950 . S
C630 C631 1.386 . S
C630 C632 1.391 . S
C631 C630 1.386 . S
C631 C635 1.393 . S
C632 H624 0.950 . S
C632 C630 1.391 . S
C632 C633 1.400 . S
C633 C632 1.400 . S
C633 C634 1.398 . S
C633 C639 1.491 . S
C634 H625 0.950 . S
C634 C633 1.398 . S
C634 C635 1.391 . S
C635 H623 0.950 . S
C635 C631 1.393 . S
C635 C634 1.391 . S
C636 H626 0.950 . S
C636 C637 1.386 . S
C636 C638 1.391 . S
C637 C636 1.386 . S
C637 C641 1.393 . S
C638 H627 0.950 . S
C638 C636 1.391 . S
C638 C639 1.400 . S
C639 C633 1.491 . S
C639 C638 1.400 . S
C639 C640 1.398 . S
C640 H628 0.950 . S
C640 C639 1.398 . S
C640 C641 1.391 . S
C641 H629 0.950 . S
C641 C637 1.393 . S
C641 C640 1.391 . S
H642 C650 0.950 . S
H643 C655 0.950 . S
H644 C652 0.950 . S
H645 C654 0.950 . S
H646 C656 0.950 . S
H647 C658 0.950 . S
H648 C660 0.950 . S
H649 C661 0.950 . S
C650 H642 0.950 . S
C650 C651 1.386 . S
C650 C652 1.391 . S
C651 C650 1.386 . S
C651 C655 1.393 . S
C652 H644 0.950 . S
C652 C650 1.391 . S
C652 C653 1.400 . S
C653 C652 1.400 . S
C653 C654 1.398 . S
C653 C659 1.491 . S
C654 H645 0.950 . S
C654 C653 1.398 . S
C654 C655 1.391 . S
C655 H643 0.950 . S
C655 C651 1.393 . S
C655 C654 1.391 . S
C656 H646 0.950 . S
C656 C657 1.386 . S
C656 C658 1.391 . S
C657 C656 1.386 . S
C657 C661 1.393 . S
C658 H647 0.950 . S
C658 C656 1.391 . S
C658 C659 1.400 . S
C659 C653 1.491 . S
C659 C658 1.400 . S
C659 C660 1.398 . S
C660 H648 0.950 . S
C660 C659 1.398 . S
C660 C661 1.391 . S
C661 H649 0.950 . S
C661 C657 1.393 . S
C661 C660 1.391 . S
H662 C670 0.950 . S
H663 C675 0.950 . S
H664 C672 0.950 . S
H665 C674 0.950 . S
H666 C676 0.950 . S
H667 C678 0.950 . S
H668 C680 0.950 . S
H669 C681 0.950 . S
C670 H662 0.950 . S
C670 C671 1.386 . S
C670 C672 1.391 . S
C671 C670 1.386 . S
C671 C675 1.393 . S
C672 H664 0.950 . S
C672 C670 1.391 . S
C672 C673 1.400 . S
C673 C672 1.400 . S
C673 C674 1.398 . S
C673 C679 1.491 . S
C674 H665 0.950 . S
C674 C673 1.398 . S
C674 C675 1.391 . S
C675 H663 0.950 . S
C675 C671 1.393 . S
C675 C674 1.391 . S
C676 H666 0.950 . S
C676 C677 1.386 . S
C676 C678 1.391 . S
C677 C676 1.386 . S
C677 C681 1.393 . S
C678 H667 0.950 . S
C678 C676 1.391 . S
C678 C679 1.400 . S
C679 C673 1.491 . S
C679 C678 1.400 . S
C679 C680 1.398 . S
C680 H668 0.950 . S
C680 C679 1.398 . S
C680 C681 1.391 . S
C681 H669 0.950 . S
C681 C677 1.393 . S
C681 C680 1.391 . S
H682 C690 0.950 . S
H683 C695 0.950 . S
H684 C692 0.950 . S
H685 C694 0.950 . S
H686 C696 0.950 . S
H687 C698 0.950 . S
H688 C700 0.950 . S
H689 C701 0.950 . S
C690 H682 0.950 . S
C690 C691 1.386 . S
C690 C692 1.391 . S
C691 C690 1.386 . S
C691 C695 1.393 . S
C692 H684 0.950 . S
C692 C690 1.391 . S
C692 C693 1.400 . S
C693 C692 1.400 . S
C693 C694 1.398 . S
C693 C699 1.491 . S
C694 H685 0.950 . S
C694 C693 1.398 . S
C694 C695 1.391 . S
C695 H683 0.950 . S
C695 C691 1.393 . S
C695 C694 1.391 . S
C696 H686 0.950 . S
C696 C697 1.386 . S
C696 C698 1.391 . S
C697 C696 1.386 . S
C697 C701 1.393 . S
C698 H687 0.950 . S
C698 C696 1.391 . S
C698 C699 1.400 . S
C699 C693 1.491 . S
C699 C698 1.400 . S
C699 C700 1.398 . S
C700 H688 0.950 . S
C700 C699 1.398 . S
C700 C701 1.391 . S
C701 H689 0.950 . S
C701 C697 1.393 . S
C701 C700 1.391 . S
H702 C710 0.950 . S
H703 C715 0.950 . S
H704 C712 0.950 . S
H705 C714 0.950 . S
H706 C716 0.950 . S
H707 C718 0.950 . S
H708 C720 0.950 . S
H709 C721 0.950 . S
C710 H702 0.950 . S
C710 C711 1.386 . S
C710 C712 1.391 . S
C711 C710 1.386 . S
C711 C715 1.393 . S
C712 H704 0.950 . S
C712 C710 1.391 . S
C712 C713 1.400 . S
C713 C712 1.400 . S
C713 C714 1.398 . S
C713 C719 1.491 . S
C714 H705 0.950 . S
C714 C713 1.398 . S
C714 C715 1.391 . S
C715 H703 0.950 . S
C715 C711 1.393 . S
C715 C714 1.391 . S
C716 H706 0.950 . S
C716 C717 1.386 . S
C716 C718 1.391 . S
C717 C716 1.386 . S
C717 C721 1.393 . S
C718 H707 0.950 . S
C718 C716 1.391 . S
C718 C719 1.400 . S
C719 C713 1.491 . S
C719 C718 1.400 . S
C719 C720 1.398 . S
C720 H708 0.950 . S
C720 C719 1.398 . S
C720 C721 1.391 . S
C721 H709 0.950 . S
C721 C717 1.393 . S
C721 C720 1.391 . S
H722 C730 0.950 . S
H723 C735 0.950 . S
H724 C732 0.950 . S
H725 C734 0.950 . S
H726 C736 0.950 . S
H727 C738 0.950 . S
H728 C740 0.950 . S
H729 C741 0.950 . S
C730 H722 0.950 . S
C730 C731 1.386 . S
C730 C732 1.391 . S
C731 C730 1.386 . S
C731 C735 1.393 . S
C732 H724 0.950 . S
C732 C730 1.391 . S
C732 C733 1.400 . S
C733 C732 1.400 . S
C733 C734 1.398 . S
C733 C739 1.491 . S
C734 H725 0.950 . S
C734 C733 1.398 . S
C734 C735 1.391 . S
C735 H723 0.950 . S
C735 C731 1.393 . S
C735 C734 1.391 . S
C736 H726 0.950 . S
C736 C737 1.386 . S
C736 C738 1.391 . S
C737 C736 1.386 . S
C737 C741 1.393 . S
C738 H727 0.950 . S
C738 C736 1.391 . S
C738 C739 1.400 . S
C739 C733 1.491 . S
C739 C738 1.400 . S
C739 C740 1.398 . S
C740 H728 0.950 . S
C740 C739 1.398 . S
C740 C741 1.391 . S
C741 H729 0.950 . S
C741 C737 1.393 . S
C741 C740 1.391 . S
H742 C750 0.950 . S
H743 C755 0.950 . S
H744 C752 0.950 . S
H745 C754 0.950 . S
H746 C756 0.950 . S
H747 C758 0.950 . S
H748 C760 0.950 . S
H749 C761 0.950 . S
C750 H742 0.950 . S
C750 C751 1.386 . S
C750 C752 1.391 . S
C751 C750 1.386 . S
C751 C755 1.393 . S
C752 H744 0.950 . S
C752 C750 1.391 . S
C752 C753 1.400 . S
C753 C752 1.400 . S
C753 C754 1.398 . S
C753 C759 1.491 . S
C754 H745 0.950 . S
C754 C753 1.398 . S
C754 C755 1.391 . S
C755 H743 0.950 . S
C755 C751 1.393 . S
C755 C754 1.391 . S
C756 H746 0.950 . S
C756 C757 1.386 . S
C756 C758 1.391 . S
C757 C756 1.386 . S
C757 C761 1.393 . S
C758 H747 0.950 . S
C758 C756 1.391 . S
C758 C759 1.400 . S
C759 C753 1.491 . S
C759 C758 1.400 . S
C759 C760 1.398 . S
C760 H748 0.950 . S
C760 C759 1.398 . S
C760 C761 1.391 . S
C761 H749 0.950 . S
C761 C757 1.393 . S
C761 C760 1.391 . S
H762 C770 0.950 . S
H763 C775 0.950 . S
H764 C772 0.950 . S
H765 C774 0.950 . S
H766 C776 0.950 . S
H767 C778 0.950 . S
H768 C780 0.950 . S
H769 C781 0.950 . S
C770 H762 0.950 . S
C770 C771 1.386 . S
C770 C772 1.391 . S
C771 C770 1.386 . S
C771 C775 1.393 . S
C772 H764 0.950 . S
C772 C770 1.391 . S
C772 C773 1.400 . S
C773 C772 1.400 . S
C773 C774 1.398 . S
C773 C779 1.491 . S
C774 H765 0.950 . S
C774 C773 1.398 . S
C774 C775 1.391 . S
C775 H763 0.950 . S
C775 C771 1.393 . S
C775 C774 1.391 . S
C776 H766 0.950 . S
C776 C777 1.386 . S
C776 C778 1.391 . S
C777 C776 1.386 . S
C777 C781 1.393 . S
C778 H767 0.950 . S
C778 C776 1.391 . S
C778 C779 1.400 . S
C779 C773 1.491 . S
C779 C778 1.400 . S
C779 C780 1.398 . S
C780 H768 0.950 . S
C780 C779 1.398 . S
C780 C781 1.391 . S
C781 H769 0.950 . S
C781 C777 1.393 . S
C781 C780 1.391 . S
H782 C790 0.950 . S
H783 C795 0.950 . S
H784 C792 0.950 . S
H785 C794 0.950 . S
H786 C796 0.950 . S
H787 C798 0.950 . S
H788 C800 0.950 . S
H789 C801 0.950 . S
C790 H782 0.950 . S
C790 C791 1.386 . S
C790 C792 1.391 . S
C791 C790 1.386 . S
C791 C795 1.393 . S
C792 H784 0.950 . S
C792 C790 1.391 . S
C792 C793 1.400 . S
C793 C792 1.400 . S
C793 C794 1.398 . S
C793 C799 1.491 . S
C794 H785 0.950 . S
C794 C793 1.398 . S
C794 C795 1.391 . S
C795 H783 0.950 . S
C795 C791 1.393 . S
C795 C794 1.391 . S
C796 H786 0.950 . S
C796 C797 1.386 . S
C796 C798 1.391 . S
C797 C796 1.386 . S
C797 C801 1.393 . S
C798 H787 0.950 . S
C798 C796 1.391 . S
C798 C799 1.400 . S
C799 C793 1.491 . S
C799 C798 1.400 . S
C799 C800 1.398 . S
C800 H788 0.950 . S
C800 C799 1.398 . S
C800 C801 1.391 . S
C801 H789 0.950 . S
C801 C797 1.393 . S
C801 C800 1.391 . S
H802 C810 0.950 . S
H803 C815 0.950 . S
H804 C812 0.950 . S
H805 C814 0.950 . S
H806 C816 0.950 . S
H807 C818 0.950 . S
H808 C820 0.950 . S
H809 C821 0.950 . S
C810 H802 0.950 . S
C810 C811 1.386 . S
C810 C812 1.391 . S
C811 C810 1.386 . S
C811 C815 1.393 . S
C812 H804 0.950 . S
C812 C810 1.391 . S
C812 C813 1.400 . S
C813 C812 1.400 . S
C813 C814 1.398 . S
C813 C819 1.491 . S
C814 H805 0.950 . S
C814 C813 1.398 . S
C814 C815 1.391 . S
C815 H803 0.950 . S
C815 C811 1.393 . S
C815 C814 1.391 . S
C816 H806 0.950 . S
C816 C817 1.386 . S
C816 C818 1.391 . S
C817 C816 1.386 . S
C817 C821 1.393 . S
C818 H807 0.950 . S
C818 C816 1.391 . S
C818 C819 1.400 . S
C819 C813 1.491 . S
C819 C818 1.400 . S
C819 C820 1.398 . S
C820 H808 0.950 . S
C820 C819 1.398 . S
C820 C821 1.391 . S
C821 H809 0.950 . S
C821 C817 1.393 . S
C821 C820 1.391 . S
H822 C830 0.950 . S
H823 C835 0.950 . S
H824 C832 0.950 . S
H825 C834 0.950 . S
H826 C836 0.954 1_554 S
H827 C838 0.950 . S
H828 C840 0.950 . S
H829 C841 0.950 . S
C830 H822 0.950 . S
C830 C831 1.386 . S
C830 C832 1.391 . S
C831 C830 1.386 . S
C831 C835 1.393 . S
C832 H824 0.950 . S
C832 C830 1.391 . S
C832 C833 1.400 . S
C833 C832 1.400 . S
C833 C834 1.398 . S
C833 C839 1.491 . S
C834 H825 0.950 . S
C834 C833 1.398 . S
C834 C835 1.391 . S
C835 H823 0.950 . S
C835 C831 1.393 . S
C835 C834 1.391 . S
C836 H826 0.954 1_556 S
C836 C837 1.387 1_556 S
C836 C838 1.386 . S
C837 C836 1.387 1_554 S
C837 C841 1.393 1_554 S
C838 H827 0.950 . S
C838 C836 1.386 . S
C838 C839 1.400 . S
C839 C833 1.491 . S
C839 C838 1.400 . S
C839 C840 1.398 . S
C840 H828 0.950 . S
C840 C839 1.398 . S
C840 C841 1.391 . S
C841 H829 0.950 . S
C841 C837 1.393 1_556 S
C841 C840 1.391 . S
H842 C850 0.950 . S
H843 C855 0.950 . S
H844 C852 0.950 . S
H845 C854 0.950 . S
H846 C856 0.950 . S
H847 C858 0.950 . S
H848 C860 0.950 . S
H849 C861 0.950 . S
C850 H842 0.950 . S
C850 C851 1.386 . S
C850 C852 1.391 . S
C851 C850 1.386 . S
C851 C855 1.393 . S
C852 H844 0.950 . S
C852 C850 1.391 . S
C852 C853 1.400 . S
C853 C852 1.400 . S
C853 C854 1.398 . S
C853 C859 1.491 . S
C854 H845 0.950 . S
C854 C853 1.398 . S
C854 C855 1.391 . S
C855 H843 0.950 . S
C855 C851 1.393 . S
C855 C854 1.391 . S
C856 H846 0.950 . S
C856 C857 1.386 . S
C856 C858 1.391 . S
C857 C856 1.386 . S
C857 C861 1.393 . S
C858 H847 0.950 . S
C858 C856 1.391 . S
C858 C859 1.400 . S
C859 C853 1.491 . S
C859 C858 1.400 . S
C859 C860 1.398 . S
C860 H848 0.950 . S
C860 C859 1.398 . S
C860 C861 1.391 . S
C861 H849 0.950 . S
C861 C857 1.393 . S
C861 C860 1.391 . S
H862 C870 0.950 . S
H863 C875 0.950 . S
H864 C872 0.950 . S
H865 C874 0.950 . S
H866 C876 0.950 . S
H867 C878 0.950 . S
H868 C880 0.950 . S
H869 C881 0.950 . S
C870 H862 0.950 . S
C870 C871 1.386 . S
C870 C872 1.391 . S
C871 C870 1.386 . S
C871 C875 1.393 . S
C872 H864 0.950 . S
C872 C870 1.391 . S
C872 C873 1.400 . S
C873 C872 1.400 . S
C873 C874 1.398 . S
C873 C879 1.491 . S
C874 H865 0.950 . S
C874 C873 1.398 . S
C874 C875 1.391 . S
C875 H863 0.950 . S
C875 C871 1.393 . S
C875 C874 1.391 . S
C876 H866 0.950 . S
C876 C877 1.386 . S
C876 C878 1.391 . S
C877 C876 1.386 . S
C877 C881 1.393 . S
C878 H867 0.950 . S
C878 C876 1.391 . S
C878 C879 1.400 . S
C879 C873 1.491 . S
C879 C878 1.400 . S
C879 C880 1.398 . S
C880 H868 0.950 . S
C880 C879 1.398 . S
C880 C881 1.391 . S
C881 H869 0.950 . S
C881 C877 1.393 . S
C881 C880 1.391 . S
H882 C890 0.950 . S
H883 C895 0.950 . S
H884 C892 0.950 . S
H885 C894 0.950 . S
H886 C896 0.950 . S
H887 C898 0.950 . S
H888 C900 0.950 . S
H889 C901 0.950 . S
C890 H882 0.950 . S
C890 C891 1.386 . S
C890 C892 1.391 . S
C891 C890 1.386 . S
C891 C895 1.393 . S
C892 H884 0.950 . S
C892 C890 1.391 . S
C892 C893 1.400 . S
C893 C892 1.400 . S
C893 C894 1.398 . S
C893 C899 1.491 . S
C894 H885 0.950 . S
C894 C893 1.398 . S
C894 C895 1.391 . S
C895 H883 0.950 . S
C895 C891 1.393 . S
C895 C894 1.391 . S
C896 H886 0.950 . S
C896 C897 1.386 . S
C896 C898 1.391 . S
C897 C896 1.386 . S
C897 C901 1.393 . S
C898 H887 0.950 . S
C898 C896 1.391 . S
C898 C899 1.400 . S
C899 C893 1.491 . S
C899 C898 1.400 . S
C899 C900 1.398 . S
C900 H888 0.950 . S
C900 C899 1.398 . S
C900 C901 1.391 . S
C901 H889 0.950 . S
C901 C897 1.393 . S
C901 C900 1.391 . S
H902 C910 0.950 . S
H903 C915 0.950 . S
H904 C912 0.950 . S
H905 C914 0.950 . S
H906 C916 0.950 . S
H907 C918 0.950 . S
H908 C920 0.950 . S
H909 C921 0.950 . S
C910 H902 0.950 . S
C910 C911 1.386 . S
C910 C912 1.391 . S
C911 C910 1.386 . S
C911 C915 1.393 . S
C912 H904 0.950 . S
C912 C910 1.391 . S
C912 C913 1.400 . S
C913 C912 1.400 . S
C913 C914 1.398 . S
C913 C919 1.491 . S
C914 H905 0.950 . S
C914 C913 1.398 . S
C914 C915 1.391 . S
C915 H903 0.950 . S
C915 C911 1.393 . S
C915 C914 1.391 . S
C916 H906 0.950 . S
C916 C917 1.386 . S
C916 C918 1.391 . S
C917 C916 1.386 . S
C917 C921 1.393 . S
C918 H907 0.950 . S
C918 C916 1.391 . S
C918 C919 1.400 . S
C919 C913 1.491 . S
C919 C918 1.400 . S
C919 C920 1.398 . S
C920 H908 0.950 . S
C920 C919 1.398 . S
C920 C921 1.391 . S
C921 H909 0.950 . S
C921 C917 1.393 . S
C921 C920 1.391 . S
H922 C930 0.950 . S
H923 C935 0.950 . S
H924 C932 0.950 . S
H925 C934 0.950 . S
H926 C936 0.950 . S
H927 C938 0.950 . S
H928 C940 0.950 . S
H929 C941 0.950 . S
C930 H922 0.950 . S
C930 C931 1.386 . S
C930 C932 1.391 . S
C931 C930 1.386 . S
C931 C935 1.393 . S
C932 H924 0.950 . S
C932 C930 1.391 . S
C932 C933 1.400 . S
C933 C932 1.400 . S
C933 C934 1.398 . S
C933 C939 1.491 . S
C934 H925 0.950 . S
C934 C933 1.398 . S
C934 C935 1.391 . S
C935 H923 0.950 . S
C935 C931 1.393 . S
C935 C934 1.391 . S
C936 H926 0.950 . S
C936 C937 1.386 . S
C936 C938 1.391 . S
C937 C936 1.386 . S
C937 C941 1.393 . S
C938 H927 0.950 . S
C938 C936 1.391 . S
C938 C939 1.400 . S
C939 C933 1.491 . S
C939 C938 1.400 . S
C939 C940 1.398 . S
C940 H928 0.950 . S
C940 C939 1.398 . S
C940 C941 1.391 . S
C941 H929 0.950 . S
C941 C937 1.393 . S
C941 C940 1.391 . S
H942 C950 0.950 . S
H943 C955 0.950 . S
H944 C952 0.950 . S
H945 C954 0.950 . S
H946 C956 0.950 . S
H947 C958 0.950 . S
H948 C960 0.950 . S
H949 C961 0.950 . S
C950 H942 0.950 . S
C950 C951 1.386 . S
C950 C952 1.391 . S
C951 C950 1.386 . S
C951 C955 1.393 . S
C952 H944 0.950 . S
C952 C950 1.391 . S
C952 C953 1.400 . S
C953 C952 1.400 . S
C953 C954 1.398 . S
C953 C959 1.491 . S
C954 H945 0.950 . S
C954 C953 1.398 . S
C954 C955 1.391 . S
C955 H943 0.950 . S
C955 C951 1.393 . S
C955 C954 1.391 . S
C956 H946 0.950 . S
C956 C957 1.386 . S
C956 C958 1.391 . S
C957 C956 1.386 . S
C957 C961 1.393 . S
C958 H947 0.950 . S
C958 C956 1.391 . S
C958 C959 1.400 . S
C959 C953 1.491 . S
C959 C958 1.400 . S
C959 C960 1.398 . S
C960 H948 0.950 . S
C960 C959 1.398 . S
C960 C961 1.391 . S
C961 H949 0.950 . S
C961 C957 1.393 . S
C961 C960 1.391 . S
H962 C970 0.950 . S
H963 C975 0.950 . S
H964 C972 0.950 . S
H965 C974 0.950 . S
H966 C976 0.950 . S
H967 C978 0.950 . S
H968 C980 0.950 . S
H969 C981 0.950 . S
C970 H962 0.950 . S
C970 C971 1.386 . S
C970 C972 1.391 . S
C971 C970 1.386 . S
C971 C975 1.393 . S
C972 H964 0.950 . S
C972 C970 1.391 . S
C972 C973 1.400 . S
C973 C972 1.400 . S
C973 C974 1.398 . S
C973 C979 1.491 1_554 S
C974 H965 0.950 . S
C974 C973 1.398 . S
C974 C975 1.391 . S
C975 H963 0.950 . S
C975 C971 1.393 . S
C975 C974 1.391 . S
C976 H966 0.950 . S
C976 C977 1.386 . S
C976 C978 1.391 . S
C977 C976 1.386 . S
C977 C981 1.393 . S
C978 H967 0.950 . S
C978 C976 1.391 . S
C978 C979 1.400 . S
C979 C973 1.491 1_556 S
C979 C978 1.400 . S
C979 C980 1.398 . S
C980 H968 0.950 . S
C980 C979 1.398 . S
C980 C981 1.391 . S
C981 H969 0.950 . S
C981 C977 1.393 . S
C981 C980 1.391 . S
H982 C990 0.950 . S
H983 C995 0.950 . S
H984 C992 0.950 . S
H985 C994 0.950 . S
H986 C996 0.950 . S
H987 C998 0.950 . S
H988 C1000 0.950 . S
H989 C1001 0.950 . S
C990 H982 0.950 . S
C990 C991 1.386 . S
C990 C992 1.391 . S
C991 C990 1.386 . S
C991 C995 1.393 . S
C992 H984 0.950 . S
C992 C990 1.391 . S
C992 C993 1.400 . S
C993 C992 1.400 . S
C993 C994 1.398 . S
C993 C999 1.491 . S
C994 H985 0.950 . S
C994 C993 1.398 . S
C994 C995 1.391 . S
C995 H983 0.950 . S
C995 C991 1.393 . S
C995 C994 1.391 . S
C996 H986 0.950 . S
C996 C997 1.386 . S
C996 C998 1.391 . S
C997 C996 1.386 . S
C997 C1001 1.393 . S
C998 H987 0.950 . S
C998 C996 1.391 . S
C998 C999 1.400 . S
C999 C993 1.491 . S
C999 C998 1.400 . S
C999 C1000 1.398 . S
C1000 H988 0.950 . S
C1000 C999 1.398 . S
C1000 C1001 1.391 . S
C1001 H989 0.950 . S
C1001 C997 1.393 . S
C1001 C1000 1.391 . S
C537 C519 1.329 . S
C531 C51 1.312 . S
C551 C125 1.453 . S
C557 C444 1.368 . S
C571 C217 2.598 . S
C577 C467 2.640 . S
C591 C291 1.449 . S
C597 C480 1.446 . S
C617 C483 0.881 . S
C611 C347 0.889 . S
C631 C421 0.764 . S
C637 C496 0.756 . S
C651 C143 2.229 . S
C657 C457 2.127 . S
C671 C199 1.500 . S
C677 C470 1.433 . S
C691 C273 0.453 . S
C697 C493 0.446 . S
C717 C506 1.666 . S
C711 C365 1.633 . S
C737 C509 1.745 . S
C731 C439 1.867 . S
C757 C454 2.445 . S
C751 C69 2.417 . S
C771 C63 1.385 . S
C777 C465 1.448 . S
C791 C137 1.457 . S
C797 C478 1.515 . S
C817 C488 1.264 . S
C811 C187 1.273 . S
C831 C261 1.437 . S
C837 C501 1.424 . S
C857 C517 1.518 . S
C851 C359 1.430 . S
C877 C449 1.079 . S
C871 C433 1.069 . S
C897 C514 1.504 . S
C891 C113 1.594 . S
C911 C211 1.344 . S
C917 C452 1.408 . S
C937 C462 1.518 . S
C931 C285 1.496 . S
C951 C335 1.338 . S
C957 C475 1.387 . S
C971 C409 1.228 . S
C977 C491 1.274 . S
C991 C39 1.615 . S
C997 C504 1.636 . S
