# Generated by pormake.
# Topology rtl, (3,6)-cn, num edge types: 1
# Building blocks:
#     Node 0, Type 0, BuildingBlock: KAKCAD_clean_linker_0, # of connection points: 3
#     Node 1, Type 0, BuildingBlock: KAKCAD_clean_linker_0, # of connection points: 3
#     Node 2, Type 0, BuildingBlock: KAKCAD_clean_linker_0, # of connection points: 3
#     Node 3, Type 0, BuildingBlock: KAKCAD_clean_linker_0, # of connection points: 3
#     Node 4, Type 1, BuildingBlock: FUNLAD_clean_sbu_0, # of connection points: 6
#     Node 5, Type 1, BuildingBlock: FUNLAD_clean_sbu_0, # of connection points: 6
#     Edge 6, Type (0, 1), BuildingBlock: ZUJKAS_clean_linker_0, # of connection points: 2
#     Edge 7, Type (0, 1), BuildingBlock: ZUJKAS_clean_linker_0, # of connection points: 2
#     Edge 8, Type (0, 1), BuildingBlock: ZUJKAS_clean_linker_0, # of connection points: 2
#     Edge 9, Type (0, 1), BuildingBlock: ZUJKAS_clean_linker_0, # of connection points: 2
#     Edge 10, Type (0, 1), BuildingBlock: ZUJKAS_clean_linker_0, # of connection points: 2
#     Edge 11, Type (0, 1), BuildingBlock: ZUJKAS_clean_linker_0, # of connection points: 2
#     Edge 12, Type (0, 1), BuildingBlock: ZUJKAS_clean_linker_0, # of connection points: 2
#     Edge 13, Type (0, 1), BuildingBlock: ZUJKAS_clean_linker_0, # of connection points: 2
#     Edge 14, Type (0, 1), BuildingBlock: ZUJKAS_clean_linker_0, # of connection points: 2
#     Edge 15, Type (0, 1), BuildingBlock: ZUJKAS_clean_linker_0, # of connection points: 2
#     Edge 16, Type (0, 1), BuildingBlock: ZUJKAS_clean_linker_0, # of connection points: 2
#     Edge 17, Type (0, 1), BuildingBlock: ZUJKAS_clean_linker_0, # of connection points: 2
# Relax obj value: 0.028
# Max RMSD: 0.083
# Mean RMSD: 0.072
data_MOF--net-rtl--node1-FUNLAD_clean_sbu_0--node2-KAKCAD_clean_linker_0--edge1-ZUJKAS_clean_linker_0
_symmetry_space_group_name_H-M    P1
_symmetry_Int_Tables_number       1
_symmetry_cell_setting            triclinic
loop_
_symmetry_equiv_pos_as_xyz
'x, y, z'
_cell_length_a     59.712011
_cell_length_b     49.234424
_cell_length_c     35.364948
_cell_angle_alpha  89.835141
_cell_angle_beta   90.936776
_cell_angle_gamma 90.617215
loop_
_atom_site_label
_atom_site_type_symbol
_atom_site_fract_x
_atom_site_fract_y
_atom_site_fract_z
_atom_type_partial_charge
C0 C 0.09491 0.77487 0.87816 0.0
C1 C 0.08926 0.80251 0.87716 0.0
C2 C 0.10352 0.7632 0.91146 0.0
C3 C 0.10674 0.77902 0.9442 0.0
C4 C 0.10164 0.80683 0.94264 0.0
C5 C 0.09291 0.81837 0.90963 0.0
C6 C 0.11523 0.76689 0.98016 0.0
C7 C 0.13286 0.74822 0.98044 0.0
C8 C 0.14194 0.73844 0.01482 0.0
C9 C 0.13294 0.74736 0.04912 0.0
C10 C 0.1155 0.7662 0.04923 0.0
C11 C 0.10648 0.77538 0.01473 0.0
C12 C 0.10787 0.77826 0.08507 0.0
C13 C 0.10252 0.76195 0.1164 0.0
C14 C 0.10602 0.80659 0.08796 0.0
C15 C 0.09889 0.81842 0.12133 0.0
C16 C 0.09334 0.80222 0.15262 0.0
C17 C 0.1619 0.72063 0.01491 0.0
C18 C 0.16382 0.69965 0.9883 0.0
C19 C 0.17962 0.72522 0.04084 0.0
C20 C 0.1989 0.70948 0.0399 0.0
C21 C 0.20102 0.68882 0.01288 0.0
C22 C 0.18316 0.68389 0.98732 0.0
C23 C 0.09513 0.77384 0.14985 0.0
H24 H 0.09223 0.76219 0.85349 0.0
H25 H 0.10721 0.74171 0.91178 0.0
H26 H 0.10452 0.81982 0.96694 0.0
H27 H 0.08921 0.83986 0.90941 0.0
H28 H 0.14029 0.74239 0.95395 0.0
H29 H 0.09269 0.78952 0.01492 0.0
H30 H 0.13997 0.74034 0.0758 0.0
H31 H 0.10378 0.74005 0.11483 0.0
H32 H 0.11028 0.81967 0.0644 0.0
H33 H 0.09744 0.84032 0.12248 0.0
H34 H 0.15039 0.69546 0.96812 0.0
H35 H 0.17887 0.74144 0.06138 0.0
H36 H 0.09102 0.76091 0.17363 0.0
H37 H 0.18431 0.66827 0.96596 0.0
H38 H 0.21221 0.71357 0.06034 0.0
C39 C 0.59171 0.74006 0.64416 0.0
C40 C 0.59104 0.71165 0.64823 0.0
C41 C 0.59818 0.75191 0.60994 0.0
C42 C 0.60377 0.73551 0.57911 0.0
C43 C 0.60315 0.70714 0.58331 0.0
C44 C 0.5969 0.69535 0.61748 0.0
C45 C 0.61023 0.74767 0.54243 0.0
C46 C 0.62643 0.7685 0.54091 0.0
C47 C 0.63407 0.77825 0.5059 0.0
C48 C 0.62477 0.76739 0.4723 0.0
C49 C 0.60868 0.74644 0.47348 0.0
C50 C 0.60134 0.73695 0.50862 0.0
C51 C 0.60093 0.73279 0.43826 0.0
C52 C 0.59437 0.74786 0.4062 0.0
C53 C 0.60056 0.7043 0.43641 0.0
C54 C 0.59387 0.6911 0.40324 0.0
C55 C 0.58731 0.70607 0.37115 0.0
C56 C 0.65321 0.79777 0.5045 0.0
C57 C 0.65508 0.81941 0.53027 0.0
C58 C 0.67046 0.7939 0.47854 0.0
C59 C 0.68929 0.81092 0.47874 0.0
C60 C 0.6914 0.83218 0.50501 0.0
C61 C 0.674 0.83641 0.53057 0.0
C62 C 0.58746 0.73459 0.37298 0.0
H63 H 0.58738 0.75309 0.6675 0.0
H64 H 0.59849 0.77384 0.60738 0.0
H65 H 0.60763 0.694 0.56017 0.0
H66 H 0.5963 0.6734 0.61962 0.0
H67 H 0.63402 0.77594 0.56698 0.0
H68 H 0.5888 0.72088 0.50966 0.0
H69 H 0.63069 0.7745 0.44517 0.0
H70 H 0.59446 0.76985 0.40693 0.0
H71 H 0.60579 0.69216 0.46052 0.0
H72 H 0.59368 0.66909 0.4028 0.0
H73 H 0.64197 0.8231 0.55037 0.0
H74 H 0.66984 0.77709 0.45885 0.0
H75 H 0.58256 0.74661 0.34857 0.0
H76 H 0.67506 0.85282 0.55088 0.0
H77 H 0.70258 0.80679 0.45915 0.0
C78 C 0.89497 0.20829 0.13415 0.0
C79 C 0.91817 0.20499 0.1395 0.0
C80 C 0.88652 0.22089 0.10156 0.0
C81 C 0.90106 0.23041 0.07351 0.0
C82 C 0.92428 0.22763 0.07917 0.0
C83 C 0.93274 0.21511 0.11183 0.0
C84 C 0.89198 0.24212 0.03777 0.0
C85 C 0.87396 0.26017 0.03824 0.0
C86 C 0.86449 0.27012 0.00437 0.0
C87 C 0.87346 0.26202 0.96971 0.0
C88 C 0.89145 0.24386 0.96867 0.0
C89 C 0.90064 0.23415 0.00289 0.0
C90 C 0.89982 0.23361 0.93205 0.0
C91 C 0.88474 0.2264 0.90272 0.0
C92 C 0.92284 0.22954 0.92687 0.0
C93 C 0.93053 0.21771 0.89371 0.0
C94 C 0.91538 0.20975 0.86485 0.0
C95 C 0.84458 0.28793 0.00518 0.0
C96 C 0.8269 0.28201 0.02973 0.0
C97 C 0.84282 0.31052 0.98095 0.0
C98 C 0.82372 0.32672 0.98112 0.0
C99 C 0.80595 0.32064 0.00548 0.0
C100 C 0.80782 0.29815 0.02986 0.0
C101 C 0.89244 0.21467 0.8695 0.0
H102 H 0.88325 0.20037 0.15459 0.0
H103 H 0.86853 0.22238 0.09777 0.0
H104 H 0.93591 0.2351 0.05828 0.0
H105 H 0.95071 0.2133 0.11536 0.0
H106 H 0.86734 0.26661 0.0651 0.0
H107 H 0.91392 0.21932 0.00238 0.0
H108 H 0.8661 0.26941 0.94348 0.0
H109 H 0.86688 0.229 0.90586 0.0
H110 H 0.93492 0.23516 0.94872 0.0
H111 H 0.94829 0.21403 0.89125 0.0
H112 H 0.82756 0.26447 0.04826 0.0
H113 H 0.85628 0.31579 0.96203 0.0
H114 H 0.88035 0.20916 0.84761 0.0
H115 H 0.79429 0.29258 0.04847 0.0
H116 H 0.82293 0.3441 0.96233 0.0
C117 C 0.39775 0.28793 0.36798 0.0
C118 C 0.42052 0.29451 0.36345 0.0
C119 C 0.39045 0.275 0.4008 0.0
C120 C 0.40576 0.26815 0.42983 0.0
C121 C 0.42863 0.2739 0.42477 0.0
C122 C 0.43593 0.28696 0.39198 0.0
C123 C 0.39764 0.25652 0.46603 0.0
C124 C 0.3799 0.23754 0.4662 0.0
C125 C 0.37065 0.2285 0.50036 0.0
C126 C 0.37977 0.23815 0.53472 0.0
C127 C 0.3977 0.25685 0.53513 0.0
C128 C 0.40655 0.26585 0.50069 0.0
C129 C 0.40625 0.26853 0.57129 0.0
C130 C 0.39129 0.27754 0.5987 0.0
C131 C 0.42938 0.27203 0.5778 0.0
C132 C 0.43735 0.28486 0.61062 0.0
C133 C 0.42237 0.29459 0.63758 0.0
C134 C 0.35059 0.21037 0.50008 0.0
C135 C 0.33298 0.21481 0.47398 0.0
C136 C 0.34845 0.18921 0.52662 0.0
C137 C 0.32901 0.17314 0.52737 0.0
C138 C 0.31132 0.17784 0.50153 0.0
C139 C 0.31361 0.19872 0.47466 0.0
C140 C 0.39925 0.29045 0.63145 0.0
H141 H 0.38548 0.29309 0.34632 0.0
H142 H 0.37268 0.27116 0.40387 0.0
H143 H 0.44089 0.26863 0.4464 0.0
H144 H 0.45357 0.29189 0.38955 0.0
H145 H 0.37317 0.22987 0.43962 0.0
H146 H 0.41965 0.28126 0.50089 0.0
H147 H 0.37256 0.23164 0.56122 0.0
H148 H 0.37336 0.27549 0.59423 0.0
H149 H 0.44131 0.26499 0.55737 0.0
H150 H 0.45527 0.28729 0.61478 0.0
H151 H 0.33388 0.23126 0.45364 0.0
H152 H 0.36183 0.18505 0.5468 0.0
H153 H 0.38722 0.29805 0.65131 0.0
H154 H 0.30014 0.20318 0.4548 0.0
H155 H 0.32784 0.15698 0.54812 0.0
C156 C 0.01457 0.96599 0.45556 0.0
N157 N 0.05072 0.02858 0.50956 0.0
C158 C 0.06861 0.01169 0.5098 0.0
C159 C 0.09038 0.0223 0.50956 0.0
C160 C 0.0938 0.05058 0.50909 0.0
C161 C 0.075 0.06751 0.50896 0.0
C162 C 0.05352 0.05603 0.50918 0.0
Zn163 Zn 0.01911 0.01234 0.50956 0.0
C164 C 0.98922 0.03858 0.45286 0.0
N165 N 0.95336 0.97762 0.50948 0.0
C166 C 0.9503 0.95021 0.5106 0.0
C167 C 0.93563 0.99475 0.50855 0.0
C168 C 0.91377 0.98446 0.50875 0.0
C169 C 0.91007 0.95626 0.50994 0.0
C170 C 0.9287 0.93905 0.51085 0.0
Zn171 Zn 0.98501 0.9937 0.50945 0.0
O172 O 0.02827 0.98388 0.46805 0.0
C173 C 0.01504 0.9673 0.56581 0.0
O174 O 0.99474 0.96522 0.46808 0.0
H175 H 0.93843 0.01647 0.50759 0.0
H176 H 0.066 0.98992 0.51003 0.0
H177 H 0.96464 0.93698 0.51143 0.0
O178 O 0.02874 0.98476 0.55276 0.0
O179 O 0.99507 0.96649 0.55286 0.0
H180 H 0.03906 0.06908 0.50907 0.0
O181 O 0.97579 0.02233 0.55087 0.0
O182 O 0.00942 0.04066 0.5511 0.0
O183 O 0.97547 0.02117 0.46588 0.0
O184 O 0.00909 0.03956 0.46622 0.0
C185 C 0.98957 0.04007 0.56351 0.0
H186 H 0.10436 0.00849 0.50918 0.0
H187 H 0.07684 0.08941 0.50913 0.0
H188 H 0.89991 0.99847 0.50751 0.0
H189 H 0.92664 0.91719 0.51224 0.0
C190 C 0.48963 0.46788 0.94643 0.0
N191 N 0.55119 0.47829 0.00326 0.0
C192 C 0.55323 0.45081 0.00258 0.0
C193 C 0.57437 0.43901 0.00202 0.0
C194 C 0.59365 0.45563 0.0021 0.0
C195 C 0.59104 0.48395 0.00304 0.0
C196 C 0.56956 0.4949 0.0036 0.0
Zn197 Zn 0.51989 0.49469 0.00306 0.0
C198 C 0.51599 0.54083 0.94881 0.0
N199 N 0.45446 0.52887 0.00208 0.0
C200 C 0.43614 0.51219 0.00202 0.0
C201 C 0.45235 0.55635 0.00198 0.0
C202 C 0.43117 0.56808 0.00179 0.0
C203 C 0.41195 0.55138 0.0018 0.0
C204 C 0.41463 0.52307 0.00196 0.0
Zn205 Zn 0.48578 0.51251 0.00243 0.0
O206 O 0.50953 0.46762 0.9597 0.0
C207 C 0.48978 0.46664 0.05715 0.0
O208 O 0.4758 0.48482 0.95933 0.0
H209 H 0.46713 0.56925 0.00218 0.0
H210 H 0.53842 0.43797 0.00241 0.0
H211 H 0.4382 0.4904 0.002 0.0
O212 O 0.50959 0.46628 0.04457 0.0
O213 O 0.47608 0.48411 0.04435 0.0
H214 H 0.56756 0.5167 0.00406 0.0
O215 O 0.49626 0.53992 0.0454 0.0
O216 O 0.52977 0.52204 0.04639 0.0
O217 O 0.49604 0.54079 0.96077 0.0
O218 O 0.52972 0.5234 0.96168 0.0
C219 C 0.5161 0.53933 0.05891 0.0
H220 H 0.57558 0.41708 0.0019 0.0
H221 H 0.60542 0.49753 0.00272 0.0
H222 H 0.42988 0.59 0.00219 0.0
H223 H 0.40026 0.50945 0.00158 0.0
H224 H 0.2866 0.15679 0.44253 0.0
H225 H 0.25025 0.13347 0.44525 0.0
H226 H 0.2521 0.13875 0.56695 0.0
H227 H 0.28821 0.16267 0.56447 0.0
H228 H 0.2374 0.08458 0.48378 0.0
H229 H 0.19254 0.17547 0.53485 0.0
H230 H 0.22007 0.17755 0.5146 0.0
H231 H 0.21679 0.16597 0.56242 0.0
C232 C 0.27924 0.15305 0.46987 0.0
C233 C 0.29019 0.16177 0.50327 0.0
C234 C 0.25857 0.13958 0.47137 0.0
C235 C 0.24841 0.13476 0.50625 0.0
C236 C 0.25957 0.14264 0.53973 0.0
H237 H 0.13091 0.0335 0.5487 0.0
H238 H 0.16875 0.05304 0.54774 0.0
C239 C 0.28028 0.15606 0.53827 0.0
C240 C 0.22587 0.12206 0.50744 0.0
H241 H 0.17168 0.13449 0.53064 0.0
C242 C 0.22301 0.09542 0.49408 0.0
C243 C 0.20714 0.13645 0.52045 0.0
C244 C 0.20913 0.16553 0.53362 0.0
C245 C 0.20186 0.08267 0.49369 0.0
C246 C 0.18322 0.0969 0.50735 0.0
C247 C 0.18607 0.1236 0.52044 0.0
C248 C 0.16047 0.0847 0.50752 0.0
C249 C 0.19953 0.05431 0.47796 0.0
C250 C 0.14325 0.09633 0.48568 0.0
C251 C 0.12164 0.08521 0.48609 0.0
C252 C 0.11681 0.06233 0.50857 0.0
C253 C 0.13414 0.05083 0.53059 0.0
C254 C 0.15576 0.06197 0.53012 0.0
H255 H 0.21424 0.04862 0.46097 0.0
H256 H 0.1981 0.03963 0.50168 0.0
H257 H 0.18418 0.05235 0.45996 0.0
H258 H 0.14658 0.11392 0.46809 0.0
H259 H 0.10877 0.09435 0.46843 0.0
H260 H 0.24405 0.70777 0.02038 0.0
H261 H 0.27865 0.68187 0.01796 0.0
H262 H 0.24042 0.60836 0.998 0.0
H263 H 0.20559 0.63409 0.0009 0.0
H264 H 0.29132 0.63713 0.06437 0.0
H265 H 0.28668 0.61035 0.91172 0.0
H266 H 0.27011 0.63702 0.93177 0.0
H267 H 0.26228 0.60207 0.93876 0.0
C268 C 0.24295 0.68606 0.01578 0.0
C269 C 0.22203 0.67299 0.01092 0.0
C270 C 0.26275 0.67133 0.01421 0.0
C271 C 0.26208 0.64329 0.00746 0.0
C272 C 0.24129 0.63009 0.00262 0.0
H273 H 0.3757 0.53523 0.04304 0.0
H274 H 0.33865 0.55604 0.04422 0.0
C275 C 0.22142 0.64482 0.00424 0.0
C276 C 0.28323 0.62794 0.00624 0.0
H277 H 0.31671 0.59205 0.94756 0.0
C278 C 0.29686 0.62716 0.03891 0.0
C279 C 0.29043 0.61522 0.97284 0.0
C280 C 0.27676 0.61629 0.93662 0.0
C281 C 0.31759 0.61401 0.03908 0.0
C282 C 0.32471 0.60108 0.00578 0.0
C283 C 0.31108 0.60183 0.9731 0.0
C284 C 0.34672 0.58766 0.00393 0.0
C285 C 0.33198 0.61467 0.07454 0.0
C286 C 0.36329 0.59817 0.98018 0.0
C287 C 0.3844 0.58627 0.97927 0.0
C288 C 0.38928 0.56349 0.00193 0.0
C289 C 0.37244 0.55265 0.02509 0.0
C290 C 0.35133 0.56463 0.02605 0.0
H291 H 0.32624 0.63013 0.09494 0.0
H292 H 0.33123 0.5945 0.08859 0.0
H293 H 0.34974 0.61906 0.06767 0.0
H294 H 0.35998 0.61585 0.96274 0.0
H295 H 0.39689 0.59484 0.9607 0.0
H296 H 0.71495 0.85342 0.44595 0.0
H297 H 0.75136 0.87671 0.4487 0.0
H298 H 0.75125 0.8723 0.57048 0.0
H299 H 0.7151 0.84839 0.568 0.0
H300 H 0.76557 0.92552 0.48608 0.0
H301 H 0.80972 0.83404 0.54008 0.0
H302 H 0.78183 0.83245 0.51966 0.0
H303 H 0.78611 0.84444 0.56718 0.0
C304 C 0.72268 0.85742 0.47332 0.0
C305 C 0.71226 0.84885 0.50675 0.0
C306 C 0.74339 0.87086 0.47484 0.0
C307 C 0.7541 0.87582 0.50976 0.0
C308 C 0.74337 0.86829 0.54324 0.0
H309 H 0.87406 0.97485 0.54887 0.0
H310 H 0.83592 0.9562 0.54879 0.0
C311 C 0.72262 0.85488 0.54177 0.0
C312 C 0.77684 0.88802 0.51093 0.0
H313 H 0.83121 0.8744 0.53474 0.0
C314 C 0.77994 0.91443 0.4968 0.0
C315 C 0.79554 0.87327 0.52446 0.0
C316 C 0.79329 0.84439 0.53843 0.0
C317 C 0.8013 0.9266 0.49608 0.0
C318 C 0.81993 0.91201 0.51024 0.0
C319 C 0.81684 0.88556 0.52416 0.0
C320 C 0.84291 0.92357 0.51004 0.0
C321 C 0.80385 0.95469 0.47942 0.0
C322 C 0.85954 0.91106 0.48885 0.0
C323 C 0.88133 0.92166 0.48879 0.0
C324 C 0.88692 0.9449 0.51013 0.0
C325 C 0.87022 0.95723 0.53161 0.0
C326 C 0.84842 0.94661 0.53162 0.0
H327 H 0.78897 0.96049 0.46206 0.0
H328 H 0.80587 0.96964 0.50267 0.0
H329 H 0.81894 0.95604 0.46156 0.0
H330 H 0.8556 0.89321 0.47207 0.0
H331 H 0.89372 0.91186 0.47162 0.0
H332 H 0.78148 0.33724 0.06586 0.0
H333 H 0.7461 0.36184 0.06457 0.0
H334 H 0.74834 0.36644 0.94293 0.0
H335 H 0.78358 0.34148 0.94384 0.0
H336 H 0.73637 0.41626 0.98031 0.0
H337 H 0.68604 0.32701 0.02701 0.0
H338 H 0.7099 0.33527 0.05661 0.0
H339 H 0.71403 0.32395 0.00901 0.0
C340 C 0.7744 0.34335 0.0388 0.0
C341 C 0.78526 0.33717 0.00492 0.0
C342 C 0.75423 0.35746 0.03814 0.0
C343 C 0.74451 0.3656 0.00363 0.0
C344 C 0.7556 0.36026 0.96985 0.0
H345 H 0.60707 0.41213 0.96047 0.0
H346 H 0.64404 0.39129 0.96013 0.0
C347 C 0.77577 0.34611 0.97045 0.0
C348 C 0.72251 0.37914 0.00273 0.0
H349 H 0.66729 0.36902 0.02248 0.0
C350 C 0.72124 0.40598 0.98949 0.0
C351 C 0.70281 0.3655 0.0143 0.0
C352 C 0.7031 0.33626 0.02725 0.0
C353 C 0.70075 0.41972 0.98803 0.0
C354 C 0.68114 0.40627 0.00047 0.0
C355 C 0.6824 0.37931 0.01322 0.0
C356 C 0.65903 0.41961 2e-05 0.0
C357 C 0.70015 0.44832 0.97264 0.0
C358 C 0.65521 0.44233 0.02278 0.0
C359 C 0.63404 0.45419 0.02324 0.0
C360 C 0.61629 0.44344 0.0011 0.0
C361 C 0.62027 0.42069 0.97826 0.0
C362 C 0.64141 0.40885 0.97784 0.0
H363 H 0.71535 0.45333 0.95619 0.0
H364 H 0.68513 0.45132 0.95424 0.0
H365 H 0.69931 0.46281 0.99653 0.0
H366 H 0.66848 0.45059 0.04069 0.0
H367 H 0.63146 0.47142 0.04158 0.0
H368 H 0.05716 0.78795 0.19526 0.0
H369 H 0.04202 0.81292 0.249 0.0
H370 H 0.09669 0.87062 0.24249 0.0
H371 H 0.11175 0.84598 0.18885 0.0
H372 H 0.06026 0.82812 0.32021 0.0
H373 H 0.04109 0.91811 0.23136 0.0
H374 H 0.0479 0.88557 0.21147 0.0
H375 H 0.06979 0.90791 0.22875 0.0
C376 C 0.06607 0.80576 0.20568 0.0
C377 C 0.08545 0.81527 0.18761 0.0
C378 C 0.05738 0.82002 0.23622 0.0
C379 C 0.06797 0.84394 0.24906 0.0
C380 C 0.08795 0.85261 0.23233 0.0
H381 H 0.05429 0.96546 0.41854 0.0
H382 H 0.06583 0.93401 0.36942 0.0
C383 C 0.09655 0.8385 0.20177 0.0
C384 C 0.05795 0.86043 0.27922 0.0
H385 H 0.03956 0.9243 0.29816 0.0
C386 C 0.05548 0.84905 0.31538 0.0
C387 C 0.05155 0.88766 0.27265 0.0
C388 C 0.05248 0.90048 0.23387 0.0
C389 C 0.04769 0.86463 0.34558 0.0
C390 C 0.04215 0.89211 0.33922 0.0
C391 C 0.04401 0.90324 0.30289 0.0
C392 C 0.03524 0.91012 0.37015 0.0
C393 C 0.04611 0.85199 0.38436 0.0
C394 C 0.01416 0.90708 0.38662 0.0
C395 C 0.00741 0.92514 0.41459 0.0
C396 C 0.02169 0.94649 0.4265 0.0
C397 C 0.04289 0.94925 0.41006 0.0
C398 C 0.04953 0.93131 0.38202 0.0
H399 H 0.05381 0.83156 0.38563 0.0
H400 H 0.05448 0.86527 0.40576 0.0
H401 H 0.02823 0.84994 0.39207 0.0
H402 H 0.00282 0.89099 0.37744 0.0
H403 H 0.99098 0.92246 0.42671 0.0
H404 H 0.61068 0.66941 0.68563 0.0
H405 H 0.59677 0.64508 0.74106 0.0
H406 H 0.5414 0.7003 0.74729 0.0
H407 H 0.55506 0.72459 0.69137 0.0
H408 H 0.58623 0.66548 0.8168 0.0
H409 H 0.51282 0.62233 0.7374 0.0
H410 H 0.53685 0.63661 0.71385 0.0
H411 H 0.51693 0.65856 0.73527 0.0
C412 C 0.59557 0.67641 0.69887 0.0
C413 C 0.58383 0.69873 0.68399 0.0
C414 C 0.58773 0.66261 0.7306 0.0
C415 C 0.56795 0.67074 0.74787 0.0
C416 C 0.55659 0.6936 0.73402 0.0
H417 H 0.49209 0.58347 0.91999 0.0
H418 H 0.50442 0.61729 0.87374 0.0
C419 C 0.5645 0.70754 0.70232 0.0
C420 C 0.55886 0.65446 0.77937 0.0
H421 H 0.51718 0.60939 0.80106 0.0
C422 C 0.57105 0.65335 0.81356 0.0
C423 C 0.53904 0.63878 0.77492 0.0
C424 C 0.52564 0.63886 0.73836 0.0
C425 C 0.56402 0.63668 0.84345 0.0
C426 C 0.54459 0.62026 0.83855 0.0
C427 C 0.53209 0.62196 0.80468 0.0
C428 C 0.53743 0.60032 0.86751 0.0
C429 C 0.57739 0.63694 0.88002 0.0
C430 C 0.5518 0.57937 0.87893 0.0
C431 C 0.54486 0.56007 0.9054 0.0
C432 C 0.52328 0.56118 0.92062 0.0
C433 C 0.50882 0.58203 0.90881 0.0
C434 C 0.51584 0.6014 0.88244 0.0
H435 H 0.58711 0.65618 0.88343 0.0
H436 H 0.56637 0.63432 0.90478 0.0
H437 H 0.58948 0.61998 0.87991 0.0
H438 H 0.56832 0.57771 0.86701 0.0
H439 H 0.55636 0.54418 0.91371 0.0
H440 H 0.90405 0.20773 0.21282 0.0
H441 H 0.91718 0.18092 0.26696 0.0
H442 H 0.9657 0.14221 0.19661 0.0
H443 H 0.95211 0.16811 0.14203 0.0
H444 H 0.9416 0.10584 0.23854 0.0
H445 H 0.97465 0.18902 0.32976 0.0
H446 H 0.94613 0.19362 0.31442 0.0
H447 H 0.96808 0.19382 0.2802 0.0
C448 C 0.91751 0.1935 0.20885 0.0
C449 C 0.92705 0.1901 0.17307 0.0
C450 C 0.92517 0.17844 0.23994 0.0
C451 C 0.94264 0.15987 0.23592 0.0
C452 C 0.95232 0.1566 0.20037 0.0
H453 H 0.01509 0.07581 0.41548 0.0
H454 H 0.00379 0.10523 0.36282 0.0
C455 C 0.94464 0.17158 0.16927 0.0
C456 C 0.95003 0.14278 0.26823 0.0
H457 H 0.97143 0.1453 0.3583 0.0
C458 C 0.94821 0.11445 0.26467 0.0
C459 C 0.95887 0.15407 0.30212 0.0
C460 C 0.96228 0.18429 0.30685 0.0
C461 C 0.95469 0.09709 0.2943 0.0
C462 C 0.96279 0.1084 0.32868 0.0
C463 C 0.96497 0.13671 0.33205 0.0
C464 C 0.96935 0.09112 0.36128 0.0
C465 C 0.95314 0.06678 0.28828 0.0
C466 C 0.95361 0.0738 0.37827 0.0
C467 C 0.96002 0.05688 0.40823 0.0
C468 C 0.98226 0.05715 0.42197 0.0
C469 C 0.99785 0.07503 0.40548 0.0
C470 C 0.99143 0.09189 0.37543 0.0
H471 H 0.95239 0.06155 0.25774 0.0
H472 H 0.96767 0.05633 0.30156 0.0
H473 H 0.93764 0.05884 0.30145 0.0
H474 H 0.93637 0.07334 0.36829 0.0
H475 H 0.94755 0.04353 0.4205 0.0
H476 H 0.45602 0.33269 0.64028 0.0
H477 H 0.46857 0.35984 0.69444 0.0
H478 H 0.41938 0.32017 0.76411 0.0
H479 H 0.40729 0.2921 0.71043 0.0
H480 H 0.4434 0.3958 0.73388 0.0
H481 H 0.476 0.31539 0.82955 0.0
H482 H 0.47021 0.30957 0.77995 0.0
H483 H 0.44775 0.30946 0.8132 0.0
C484 C 0.44819 0.32927 0.66731 0.0
C485 C 0.43071 0.31011 0.67104 0.0
C486 C 0.45527 0.34497 0.69816 0.0
C487 C 0.44508 0.34181 0.73338 0.0
C488 C 0.42775 0.32259 0.73736 0.0
H489 H 0.44807 0.46153 0.9137 0.0
H490 H 0.43708 0.4306 0.86251 0.0
C491 C 0.42069 0.3068 0.70652 0.0
C492 C 0.45182 0.35969 0.7653 0.0
H493 H 0.47229 0.35947 0.85601 0.0
C494 C 0.44978 0.38788 0.76055 0.0
C495 C 0.46035 0.34929 0.7999 0.0
C496 C 0.46393 0.31929 0.80596 0.0
C497 C 0.45583 0.40597 0.78962 0.0
C498 C 0.4637 0.39554 0.82463 0.0
C499 C 0.46601 0.36737 0.82925 0.0
C500 C 0.4701 0.4136 0.8565 0.0
C501 C 0.45414 0.4361 0.78231 0.0
C502 C 0.49215 0.4137 0.87083 0.0
C503 C 0.49845 0.43119 0.90025 0.0
C504 C 0.48278 0.44887 0.91596 0.0
C505 C 0.46059 0.44834 0.90201 0.0
C506 C 0.45429 0.43077 0.87265 0.0
H507 H 0.45345 0.44079 0.75156 0.0
H508 H 0.43858 0.44377 0.79505 0.0
H509 H 0.46859 0.44725 0.79526 0.0
H510 H 0.50457 0.4005 0.85885 0.0
H511 H 0.51566 0.43101 0.91042 0.0
H512 H 0.55073 0.71587 0.32562 0.0
H513 H 0.53783 0.68939 0.27059 0.0
H514 H 0.59541 0.63772 0.28251 0.0
H515 H 0.60825 0.66386 0.33751 0.0
H516 H 0.55787 0.67736 0.20176 0.0
H517 H 0.54312 0.58385 0.28593 0.0
H518 H 0.54777 0.61665 0.30749 0.0
H519 H 0.57107 0.5972 0.29129 0.0
C520 C 0.56072 0.69902 0.31622 0.0
C521 C 0.58033 0.69167 0.33609 0.0
C522 C 0.55331 0.68388 0.28492 0.0
C523 C 0.56542 0.66124 0.27307 0.0
C524 C 0.58551 0.65467 0.29185 0.0
H525 H 0.55584 0.54039 0.09831 0.0
H526 H 0.56719 0.5714 0.14918 0.0
C527 C 0.59283 0.66963 0.32319 0.0
C528 C 0.55697 0.64414 0.24147 0.0
H529 H 0.54205 0.57897 0.21894 0.0
C530 C 0.55422 0.6559 0.20551 0.0
C531 C 0.5521 0.61619 0.24659 0.0
C532 C 0.55344 0.60276 0.28498 0.0
C533 C 0.54743 0.64018 0.1742 0.0
C534 C 0.54317 0.61213 0.17923 0.0
C535 C 0.54553 0.60048 0.21525 0.0
C536 C 0.53648 0.59429 0.14739 0.0
C537 C 0.54542 0.65344 0.13582 0.0
C538 C 0.5154 0.59689 0.1298 0.0
C539 C 0.50879 0.57911 0.10086 0.0
C540 C 0.52319 0.55846 0.08907 0.0
C541 C 0.54437 0.55608 0.10667 0.0
C542 C 0.55089 0.57376 0.13572 0.0
H543 H 0.55311 0.67409 0.13548 0.0
H544 H 0.55353 0.64082 0.11406 0.0
H545 H 0.52745 0.65524 0.12785 0.0
H546 H 0.50394 0.6124 0.13885 0.0
H547 H 0.49236 0.58148 0.08788 0.0
H548 H 0.89553 0.16647 0.82877 0.0
H549 H 0.90937 0.14126 0.77472 0.0
H550 H 0.96734 0.19406 0.77051 0.0
H551 H 0.95342 0.21986 0.82423 0.0
H552 H 0.9212 0.16142 0.69994 0.0
H553 H 0.99274 0.11547 0.77921 0.0
H554 H 0.96928 0.13047 0.8027 0.0
H555 H 0.99028 0.1518 0.78177 0.0
C556 C 0.91105 0.17305 0.81605 0.0
C557 C 0.92338 0.1952 0.83091 0.0
C558 C 0.91899 0.15849 0.7853 0.0
C559 C 0.93947 0.16563 0.76899 0.0
C560 C 0.95165 0.188 0.78316 0.0
H561 H 0.01399 0.08225 0.59407 0.0
H562 H 0.0021 0.11464 0.64197 0.0
C563 C 0.94369 0.20266 0.81388 0.0
C564 C 0.94808 0.14934 0.73741 0.0
H565 H 0.98884 0.10443 0.71469 0.0
C566 C 0.93604 0.14902 0.70303 0.0
C567 C 0.96748 0.13334 0.74162 0.0
C568 C 0.98069 0.13251 0.77834 0.0
C569 C 0.94285 0.13298 0.67266 0.0
C570 C 0.96191 0.11637 0.67719 0.0
C571 C 0.97422 0.11715 0.71133 0.0
C572 C 0.96887 0.09725 0.64741 0.0
C573 C 0.92968 0.13416 0.63592 0.0
C574 C 0.95422 0.07655 0.63495 0.0
C575 C 0.96091 0.05809 0.60755 0.0
C576 C 0.9825 0.05979 0.59237 0.0
C577 C 0.99724 0.0804 0.60516 0.0
C578 C 0.99048 0.09893 0.63251 0.0
H579 H 0.92022 0.1534 0.63322 0.0
H580 H 0.94082 0.13231 0.61124 0.0
H581 H 0.91738 0.1171 0.63503 0.0
H582 H 0.93767 0.07445 0.64676 0.0
H583 H 0.9492 0.04236 0.59852 0.0
H584 H 0.39944 0.33731 0.3294 0.0
H585 H 0.41192 0.36409 0.2754 0.0
H586 H 0.47144 0.3156 0.26893 0.0
H587 H 0.45864 0.2879 0.32212 0.0
H588 H 0.45054 0.39482 0.27116 0.0
H589 H 0.44847 0.31553 0.15965 0.0
H590 H 0.43491 0.31101 0.20452 0.0
H591 H 0.46469 0.30696 0.20112 0.0
C592 C 0.41497 0.33192 0.31604 0.0
C593 C 0.42795 0.31029 0.32993 0.0
C594 C 0.42215 0.34742 0.28536 0.0
C595 C 0.44245 0.34162 0.26786 0.0
C596 C 0.45551 0.32009 0.28158 0.0
H597 H 0.51415 0.42518 0.08829 0.0
H598 H 0.5031 0.39448 0.13949 0.0
C599 C 0.44829 0.30449 0.31226 0.0
C600 C 0.45028 0.35899 0.23635 0.0
H601 H 0.46402 0.35836 0.14297 0.0
C602 C 0.45344 0.38686 0.24312 0.0
C603 C 0.45413 0.3485 0.19985 0.0
C604 C 0.45021 0.31891 0.19061 0.0
C605 C 0.46039 0.40454 0.21437 0.0
C606 C 0.46402 0.39412 0.17782 0.0
C607 C 0.46119 0.36621 0.1711 0.0
C608 C 0.47037 0.41206 0.14607 0.0
C609 C 0.46403 0.43423 0.22339 0.0
C610 C 0.45542 0.43173 0.1325 0.0
C611 C 0.46162 0.44924 0.10326 0.0
C612 C 0.48291 0.44736 0.08706 0.0
C613 C 0.49768 0.42724 0.10028 0.0
C614 C 0.4914 0.40966 0.12945 0.0
H615 H 0.46558 0.4378 0.25433 0.0
H616 H 0.47934 0.44219 0.20959 0.0
H617 H 0.44953 0.44597 0.21246 0.0
H618 H 0.43898 0.43359 0.14466 0.0
H619 H 0.44981 0.46441 0.09364 0.0
H620 H 0.05325 0.83581 0.87224 0.0
H621 H 0.03935 0.86034 0.81664 0.0
H622 H 0.08972 0.82291 0.74862 0.0
H623 H 0.10359 0.79802 0.80429 0.0
H624 H 0.06372 0.89725 0.7768 0.0
H625 H 0.03348 0.81423 0.68249 0.0
H626 H 0.03927 0.80909 0.73226 0.0
H627 H 0.06183 0.81044 0.69927 0.0
C628 C 0.06123 0.83262 0.84535 0.0
C629 C 0.07958 0.81514 0.84258 0.0
C630 C 0.05324 0.84657 0.81361 0.0
C631 C 0.06339 0.84332 0.77846 0.0
C632 C 0.08135 0.82531 0.77532 0.0
H633 H 0.05696 0.96217 0.59698 0.0
H634 H 0.06883 0.93128 0.64747 0.0
C635 C 0.08929 0.81117 0.80711 0.0
C636 C 0.05624 0.86047 0.74605 0.0
H637 H 0.0354 0.85856 0.65558 0.0
C638 C 0.05747 0.88878 0.75033 0.0
C639 C 0.04792 0.84936 0.71169 0.0
C640 C 0.04532 0.81912 0.70613 0.0
C641 C 0.05074 0.90633 0.72112 0.0
C642 C 0.04301 0.89526 0.68639 0.0
C643 C 0.04155 0.86695 0.68216 0.0
C644 C 0.03607 0.91288 0.6544 0.0
C645 C 0.05159 0.93658 0.72798 0.0
C646 C 0.01387 0.91217 0.64083 0.0
C647 C 0.00703 0.92972 0.61182 0.0
C648 C 0.02233 0.94821 0.59583 0.0
C649 C 0.0447 0.94838 0.60894 0.0
C650 C 0.05151 0.93079 0.63785 0.0
H651 H 0.05237 0.94141 0.75865 0.0
H652 H 0.0668 0.94529 0.71477 0.0
H653 H 0.03673 0.94667 0.71521 0.0
H654 H 0.00174 0.8984 0.65319 0.0
H655 H 0.98971 0.92897 0.60223 0.0
loop_
_geom_bond_atom_site_label_1
_geom_bond_atom_site_label_2
_geom_bond_distance
_geom_bond_site_symmetry_2
_ccdc_geom_bond_type
C0 C1 1.386 . S
C0 C2 1.397 . S
C0 H24 0.931 . S
C1 C0 1.386 . S
C1 C5 1.397 . S
C2 C0 1.397 . S
C2 C3 1.384 . S
C2 H25 0.930 . S
C3 C2 1.384 . S
C3 C4 1.377 . S
C3 C6 1.481 . S
C4 C3 1.377 . S
C4 C5 1.389 . S
C4 H26 0.929 . S
C5 C1 1.397 . S
C5 C4 1.389 . S
C5 H27 0.931 . S
C6 C3 1.481 . S
C6 C7 1.387 . S
C6 C11 1.390 1_556 S
C7 C6 1.387 . S
C7 C8 1.401 1_556 S
C7 H28 0.930 . S
C8 C7 1.401 1_554 S
C8 C9 1.376 . S
C8 C17 1.511 . S
C9 C8 1.376 . S
C9 C10 1.392 . S
C9 H30 0.931 . S
C10 C9 1.392 . S
C10 C11 1.361 . S
C10 C12 1.500 . S
C11 C6 1.390 1_554 S
C11 C10 1.361 . S
C11 H29 0.931 . S
C12 C10 1.500 . S
C12 C13 1.371 . S
C12 C14 1.365 . S
C13 C12 1.371 . S
C13 C23 1.386 . S
C13 H31 0.931 . S
C14 C12 1.365 . S
C14 C15 1.409 . S
C14 H32 0.929 . S
C15 C14 1.409 . S
C15 C16 1.380 . S
C15 H33 0.930 . S
C16 C15 1.380 . S
C16 C23 1.357 . S
C17 C8 1.511 . S
C17 C18 1.341 1_554 S
C17 C19 1.371 . S
C18 C17 1.341 1_556 S
C18 C22 1.394 . S
C18 H34 0.930 . S
C19 C17 1.371 . S
C19 C20 1.392 . S
C19 H35 0.931 . S
C20 C19 1.392 . S
C20 C21 1.331 . S
C20 H38 0.932 . S
C21 C20 1.331 . S
C21 C22 1.336 1_554 S
C22 C18 1.394 . S
C22 C21 1.336 1_556 S
C22 H37 0.929 . S
C23 C13 1.386 . S
C23 C16 1.357 . S
C23 H36 0.928 . S
H24 C0 0.931 . S
H25 C2 0.930 . S
H26 C4 0.929 . S
H27 C5 0.931 . S
H28 C7 0.930 . S
H29 C11 0.931 . S
H30 C9 0.931 . S
H31 C13 0.931 . S
H32 C14 0.929 . S
H33 C15 0.930 . S
H34 C18 0.930 . S
H35 C19 0.931 . S
H36 C23 0.928 . S
H37 C22 0.929 . S
H38 C20 0.932 . S
C39 C40 1.386 . S
C39 C41 1.397 . S
C39 H63 0.931 . S
C40 C39 1.386 . S
C40 C44 1.397 . S
C41 C39 1.397 . S
C41 C42 1.384 . S
C41 H64 0.930 . S
C42 C41 1.384 . S
C42 C43 1.377 . S
C42 C45 1.481 . S
C43 C42 1.377 . S
C43 C44 1.389 . S
C43 H65 0.929 . S
C44 C40 1.397 . S
C44 C43 1.389 . S
C44 H66 0.931 . S
C45 C42 1.481 . S
C45 C46 1.387 . S
C45 C50 1.390 . S
C46 C45 1.387 . S
C46 C47 1.401 . S
C46 H67 0.930 . S
C47 C46 1.401 . S
C47 C48 1.376 . S
C47 C56 1.511 . S
C48 C47 1.376 . S
C48 C49 1.392 . S
C48 H69 0.931 . S
C49 C48 1.392 . S
C49 C50 1.361 . S
C49 C51 1.500 . S
C50 C45 1.390 . S
C50 C49 1.361 . S
C50 H68 0.931 . S
C51 C49 1.500 . S
C51 C52 1.371 . S
C51 C53 1.365 . S
C52 C51 1.371 . S
C52 C62 1.386 . S
C52 H70 0.931 . S
C53 C51 1.365 . S
C53 C54 1.409 . S
C53 H71 0.929 . S
C54 C53 1.409 . S
C54 C55 1.380 . S
C54 H72 0.930 . S
C55 C54 1.380 . S
C55 C62 1.357 . S
C56 C47 1.511 . S
C56 C57 1.341 . S
C56 C58 1.371 . S
C57 C56 1.341 . S
C57 C61 1.394 . S
C57 H73 0.930 . S
C58 C56 1.371 . S
C58 C59 1.392 . S
C58 H74 0.931 . S
C59 C58 1.392 . S
C59 C60 1.331 . S
C59 H77 0.932 . S
C60 C59 1.331 . S
C60 C61 1.336 . S
C61 C57 1.394 . S
C61 C60 1.336 . S
C61 H76 0.929 . S
C62 C52 1.386 . S
C62 C55 1.357 . S
C62 H75 0.928 . S
H63 C39 0.931 . S
H64 C41 0.930 . S
H65 C43 0.929 . S
H66 C44 0.931 . S
H67 C46 0.930 . S
H68 C50 0.931 . S
H69 C48 0.931 . S
H70 C52 0.931 . S
H71 C53 0.929 . S
H72 C54 0.930 . S
H73 C57 0.930 . S
H74 C58 0.931 . S
H75 C62 0.928 . S
H76 C61 0.929 . S
H77 C59 0.932 . S
C78 C79 1.386 . S
C78 C80 1.397 . S
C78 H102 0.931 . S
C79 C78 1.386 . S
C79 C83 1.397 . S
C80 C78 1.397 . S
C80 C81 1.384 . S
C80 H103 0.930 . S
C81 C80 1.384 . S
C81 C82 1.377 . S
C81 C84 1.481 . S
C82 C81 1.377 . S
C82 C83 1.389 . S
C82 H104 0.929 . S
C83 C79 1.397 . S
C83 C82 1.389 . S
C83 H105 0.931 . S
C84 C81 1.481 . S
C84 C85 1.387 . S
C84 C89 1.390 . S
C85 C84 1.387 . S
C85 C86 1.401 . S
C85 H106 0.930 . S
C86 C85 1.401 . S
C86 C87 1.376 1_554 S
C86 C95 1.511 . S
C87 C86 1.376 1_556 S
C87 C88 1.392 . S
C87 H108 0.931 . S
C88 C87 1.392 . S
C88 C89 1.361 1_556 S
C88 C90 1.500 . S
C89 C84 1.390 . S
C89 C88 1.361 1_554 S
C89 H107 0.931 . S
C90 C88 1.500 . S
C90 C91 1.371 . S
C90 C92 1.365 . S
C91 C90 1.371 . S
C91 C101 1.386 . S
C91 H109 0.931 . S
C92 C90 1.365 . S
C92 C93 1.409 . S
C92 H110 0.929 . S
C93 C92 1.409 . S
C93 C94 1.380 . S
C93 H111 0.930 . S
C94 C93 1.380 . S
C94 C101 1.357 . S
C95 C86 1.511 . S
C95 C96 1.341 . S
C95 C97 1.371 1_554 S
C96 C95 1.341 . S
C96 C100 1.394 . S
C96 H112 0.930 . S
C97 C95 1.371 1_556 S
C97 C98 1.392 . S
C97 H113 0.931 . S
C98 C97 1.392 . S
C98 C99 1.331 1_556 S
C98 H116 0.932 . S
C99 C98 1.331 1_554 S
C99 C100 1.336 . S
C100 C96 1.394 . S
C100 C99 1.336 . S
C100 H115 0.929 . S
C101 C91 1.386 . S
C101 C94 1.357 . S
C101 H114 0.928 . S
H102 C78 0.931 . S
H103 C80 0.930 . S
H104 C82 0.929 . S
H105 C83 0.931 . S
H106 C85 0.930 . S
H107 C89 0.931 . S
H108 C87 0.931 . S
H109 C91 0.931 . S
H110 C92 0.929 . S
H111 C93 0.930 . S
H112 C96 0.930 . S
H113 C97 0.931 . S
H114 C101 0.928 . S
H115 C100 0.929 . S
H116 C98 0.932 . S
C117 C118 1.386 . S
C117 C119 1.397 . S
C117 H141 0.931 . S
C118 C117 1.386 . S
C118 C122 1.397 . S
C119 C117 1.397 . S
C119 C120 1.384 . S
C119 H142 0.930 . S
C120 C119 1.384 . S
C120 C121 1.377 . S
C120 C123 1.481 . S
C121 C120 1.377 . S
C121 C122 1.389 . S
C121 H143 0.929 . S
C122 C118 1.397 . S
C122 C121 1.389 . S
C122 H144 0.931 . S
C123 C120 1.481 . S
C123 C124 1.387 . S
C123 C128 1.390 . S
C124 C123 1.387 . S
C124 C125 1.401 . S
C124 H145 0.930 . S
C125 C124 1.401 . S
C125 C126 1.376 . S
C125 C134 1.511 . S
C126 C125 1.376 . S
C126 C127 1.392 . S
C126 H147 0.931 . S
C127 C126 1.392 . S
C127 C128 1.361 . S
C127 C129 1.500 . S
C128 C123 1.390 . S
C128 C127 1.361 . S
C128 H146 0.931 . S
C129 C127 1.500 . S
C129 C130 1.371 . S
C129 C131 1.365 . S
C130 C129 1.371 . S
C130 C140 1.386 . S
C130 H148 0.931 . S
C131 C129 1.365 . S
C131 C132 1.409 . S
C131 H149 0.929 . S
C132 C131 1.409 . S
C132 C133 1.380 . S
C132 H150 0.930 . S
C133 C132 1.380 . S
C133 C140 1.357 . S
C134 C125 1.511 . S
C134 C135 1.341 . S
C134 C136 1.371 . S
C135 C134 1.341 . S
C135 C139 1.394 . S
C135 H151 0.930 . S
C136 C134 1.371 . S
C136 C137 1.392 . S
C136 H152 0.931 . S
C137 C136 1.392 . S
C137 C138 1.331 . S
C137 H155 0.932 . S
C138 C137 1.331 . S
C138 C139 1.336 . S
C139 C135 1.394 . S
C139 C138 1.336 . S
C139 H154 0.929 . S
C140 C130 1.386 . S
C140 C133 1.357 . S
C140 H153 0.928 . S
H141 C117 0.931 . S
H142 C119 0.930 . S
H143 C121 0.929 . S
H144 C122 0.931 . S
H145 C124 0.930 . S
H146 C128 0.931 . S
H147 C126 0.931 . S
H148 C130 0.931 . S
H149 C131 0.929 . S
H150 C132 0.930 . S
H151 C135 0.930 . S
H152 C136 0.931 . S
H153 C140 0.928 . S
H154 C139 0.929 . S
H155 C137 0.932 . S
C156 O172 1.251 . S
C156 O174 1.254 1_455 S
N157 C158 1.333 . S
N157 C162 1.307 . S
N157 Zn163 2.020 . S
C158 N157 1.333 . S
C158 C159 1.379 . S
C158 H176 0.952 . S
C159 C158 1.379 . S
C159 C160 1.390 . S
C159 H186 0.949 . S
C160 C159 1.390 . S
C160 C161 1.357 . S
C161 C160 1.357 . S
C161 C162 1.370 . S
C161 H187 0.950 . S
C162 N157 1.307 . S
C162 C161 1.370 . S
C162 H180 0.948 . S
Zn163 N157 2.020 . S
Zn163 O172 2.039 1_545 S
Zn163 O178 2.034 1_545 S
Zn163 O182 2.025 . S
Zn163 O184 2.024 . S
C164 O183 1.246 . S
C164 O184 1.249 1_655 S
N165 C166 1.307 . S
N165 C167 1.333 . S
N165 Zn171 2.020 . S
C166 N165 1.307 . S
C166 C170 1.370 . S
C166 H177 0.948 . S
C167 N165 1.333 . S
C167 C168 1.379 . S
C167 H175 0.952 1_565 S
C168 C167 1.379 . S
C168 C169 1.390 . S
C168 H188 0.949 . S
C169 C168 1.390 . S
C169 C170 1.357 . S
C170 C166 1.370 . S
C170 C169 1.357 . S
C170 H189 0.950 . S
Zn171 N165 2.020 . S
Zn171 O174 2.025 . S
Zn171 O179 2.024 . S
Zn171 O181 2.039 1_565 S
Zn171 O183 2.034 1_565 S
O172 C156 1.251 . S
O172 Zn163 2.039 1_565 S
C173 O178 1.246 . S
C173 O179 1.249 1_455 S
O174 C156 1.254 1_655 S
O174 Zn171 2.025 . S
H175 C167 0.952 1_545 S
H176 C158 0.952 . S
H177 C166 0.948 . S
O178 Zn163 2.034 1_565 S
O178 C173 1.246 . S
O179 Zn171 2.024 . S
O179 C173 1.249 1_655 S
H180 C162 0.948 . S
O181 Zn171 2.039 1_545 S
O181 C185 1.251 . S
O182 Zn163 2.025 . S
O182 C185 1.254 1_455 S
O183 C164 1.246 . S
O183 Zn171 2.034 1_545 S
O184 Zn163 2.024 . S
O184 C164 1.249 1_455 S
C185 O181 1.251 . S
C185 O182 1.254 1_655 S
H186 C159 0.949 . S
H187 C161 0.950 . S
H188 C168 0.949 . S
H189 C170 0.950 . S
C190 O206 1.251 . S
C190 O208 1.254 . S
N191 C192 1.333 1_554 S
N191 C196 1.307 . S
N191 Zn197 2.020 . S
C192 N191 1.333 1_556 S
C192 C193 1.379 . S
C192 H210 0.952 . S
C193 C192 1.379 . S
C193 C194 1.390 1_556 S
C193 H220 0.949 . S
C194 C193 1.390 1_554 S
C194 C195 1.357 . S
C195 C194 1.357 . S
C195 C196 1.370 . S
C195 H221 0.950 . S
C196 N191 1.307 . S
C196 C195 1.370 . S
C196 H214 0.948 . S
Zn197 N191 2.020 . S
Zn197 O206 2.039 1_554 S
Zn197 O212 2.034 . S
Zn197 O216 2.025 . S
Zn197 O218 2.024 1_554 S
C198 O217 1.246 . S
C198 O218 1.249 . S
N199 C200 1.307 1_554 S
N199 C201 1.333 . S
N199 Zn205 2.020 . S
C200 N199 1.307 1_556 S
C200 C204 1.370 . S
C200 H211 0.948 . S
C201 N199 1.333 . S
C201 C202 1.379 . S
C201 H209 0.952 . S
C202 C201 1.379 . S
C202 C203 1.390 . S
C202 H222 0.949 . S
C203 C202 1.390 . S
C203 C204 1.357 1_554 S
C204 C200 1.370 . S
C204 C203 1.357 1_556 S
C204 H223 0.950 . S
Zn205 N199 2.020 . S
Zn205 O208 2.025 1_554 S
Zn205 O213 2.024 . S
Zn205 O215 2.039 . S
Zn205 O217 2.034 1_554 S
O206 C190 1.251 . S
O206 Zn197 2.039 1_556 S
C207 O212 1.246 . S
C207 O213 1.249 . S
O208 C190 1.254 . S
O208 Zn205 2.025 1_556 S
H209 C201 0.952 . S
H210 C192 0.952 . S
H211 C200 0.948 . S
O212 Zn197 2.034 . S
O212 C207 1.246 . S
O213 Zn205 2.024 . S
O213 C207 1.249 . S
H214 C196 0.948 . S
O215 Zn205 2.039 . S
O215 C219 1.251 . S
O216 Zn197 2.025 . S
O216 C219 1.254 . S
O217 C198 1.246 . S
O217 Zn205 2.034 1_556 S
O218 Zn197 2.024 1_556 S
O218 C198 1.249 . S
C219 O215 1.251 . S
C219 O216 1.254 . S
H220 C193 0.949 . S
H221 C195 0.950 . S
H222 C202 0.949 . S
H223 C204 0.950 . S
H224 C232 0.929 . S
H225 C234 0.930 . S
H226 C236 0.930 . S
H227 C239 0.929 . S
H228 C242 0.930 . S
H229 C244 0.960 . S
H230 C244 0.960 . S
H231 C244 0.960 . S
C232 H224 0.929 . S
C232 C233 1.377 . S
C232 C234 1.384 . S
C233 C232 1.377 . S
C233 C239 1.390 . S
C234 H225 0.930 . S
C234 C232 1.384 . S
C234 C235 1.372 . S
C235 C234 1.372 . S
C235 C236 1.400 . S
C235 C240 1.490 . S
C236 H226 0.930 . S
C236 C235 1.400 . S
C236 C239 1.386 . S
H237 C253 0.930 . S
H238 C254 0.931 . S
C239 H227 0.929 . S
C239 C233 1.390 . S
C239 C236 1.386 . S
C240 C235 1.490 . S
C240 C242 1.395 . S
C240 C243 1.403 . S
H241 C247 0.930 . S
C242 H228 0.930 . S
C242 C240 1.395 . S
C242 C245 1.403 . S
C243 C240 1.403 . S
C243 C244 1.524 . S
C243 C247 1.400 . S
C244 H229 0.960 . S
C244 H230 0.960 . S
C244 H231 0.960 . S
C244 C243 1.524 . S
C245 C242 1.403 . S
C245 C246 1.392 . S
C245 C249 1.495 . S
C246 C245 1.392 . S
C246 C247 1.385 . S
C246 C248 1.478 . S
C247 H241 0.930 . S
C247 C243 1.400 . S
C247 C246 1.385 . S
C248 C246 1.478 . S
C248 C250 1.381 . S
C248 C254 1.383 . S
C249 C245 1.495 . S
C249 H255 0.959 . S
C249 H256 0.961 . S
C249 H257 0.960 . S
C250 C248 1.381 . S
C250 C251 1.394 . S
C250 H258 0.930 . S
C251 C250 1.394 . S
C251 C252 1.383 . S
C251 H259 0.929 . S
C252 C251 1.383 . S
C252 C253 1.377 . S
C253 H237 0.930 . S
C253 C252 1.377 . S
C253 C254 1.379 . S
C254 H238 0.931 . S
C254 C248 1.383 . S
C254 C253 1.379 . S
H255 C249 0.959 . S
H256 C249 0.961 . S
H257 C249 0.960 . S
H258 C250 0.930 . S
H259 C251 0.929 . S
H260 C268 0.929 . S
H261 C270 0.930 . S
H262 C272 0.924 1_556 S
H263 C275 0.923 1_556 S
H264 C278 0.930 . S
H265 C280 0.960 . S
H266 C280 0.960 . S
H267 C280 0.960 . S
C268 H260 0.929 . S
C268 C269 1.377 . S
C268 C270 1.384 . S
C269 C268 1.377 . S
C269 C275 1.398 . S
C270 H261 0.930 . S
C270 C268 1.384 . S
C270 C271 1.372 . S
C271 C270 1.372 . S
C271 C272 1.406 . S
C271 C276 1.490 . S
C272 H262 0.924 1_554 S
C272 C271 1.406 . S
C272 C275 1.385 . S
H273 C289 0.930 . S
H274 C290 0.931 . S
C275 H263 0.923 1_554 S
C275 C269 1.398 . S
C275 C272 1.385 . S
C276 C271 1.490 . S
C276 C278 1.395 . S
C276 C279 1.403 1_554 S
H277 C283 0.930 . S
C278 H264 0.930 . S
C278 C276 1.395 . S
C278 C281 1.403 . S
C279 C276 1.403 1_556 S
C279 C280 1.524 . S
C279 C283 1.400 . S
C280 H265 0.960 . S
C280 H266 0.960 . S
C280 H267 0.960 . S
C280 C279 1.524 . S
C281 C278 1.403 . S
C281 C282 1.392 . S
C281 C285 1.495 . S
C282 C281 1.392 . S
C282 C283 1.385 1_554 S
C282 C284 1.478 . S
C283 H277 0.930 . S
C283 C279 1.400 . S
C283 C282 1.385 1_556 S
C284 C282 1.478 . S
C284 C286 1.381 . S
C284 C290 1.383 . S
C285 C281 1.495 . S
C285 H291 0.959 . S
C285 H292 0.961 . S
C285 H293 0.960 . S
C286 C284 1.381 . S
C286 C287 1.394 . S
C286 H294 0.930 . S
C287 C286 1.394 . S
C287 C288 1.383 . S
C287 H295 0.929 . S
C288 C287 1.383 . S
C288 C289 1.377 . S
C289 H273 0.930 . S
C289 C288 1.377 . S
C289 C290 1.379 . S
C290 H274 0.931 . S
C290 C284 1.383 . S
C290 C289 1.379 . S
H291 C285 0.959 . S
H292 C285 0.961 . S
H293 C285 0.960 . S
H294 C286 0.930 . S
H295 C287 0.929 . S
H296 C304 0.929 . S
H297 C306 0.930 . S
H298 C308 0.930 . S
H299 C311 0.929 . S
H300 C314 0.930 . S
H301 C316 0.960 . S
H302 C316 0.960 . S
H303 C316 0.960 . S
C304 H296 0.929 . S
C304 C305 1.377 . S
C304 C306 1.384 . S
C305 C304 1.377 . S
C305 C311 1.390 . S
C306 H297 0.930 . S
C306 C304 1.384 . S
C306 C307 1.372 . S
C307 C306 1.372 . S
C307 C308 1.400 . S
C307 C312 1.490 . S
C308 H298 0.930 . S
C308 C307 1.400 . S
C308 C311 1.386 . S
H309 C325 0.930 . S
H310 C326 0.931 . S
C311 H299 0.929 . S
C311 C305 1.390 . S
C311 C308 1.386 . S
C312 C307 1.490 . S
C312 C314 1.395 . S
C312 C315 1.403 . S
H313 C319 0.930 . S
C314 H300 0.930 . S
C314 C312 1.395 . S
C314 C317 1.403 . S
C315 C312 1.403 . S
C315 C316 1.524 . S
C315 C319 1.400 . S
C316 H301 0.960 . S
C316 H302 0.960 . S
C316 H303 0.960 . S
C316 C315 1.524 . S
C317 C314 1.403 . S
C317 C318 1.392 . S
C317 C321 1.495 . S
C318 C317 1.392 . S
C318 C319 1.385 . S
C318 C320 1.478 . S
C319 H313 0.930 . S
C319 C315 1.400 . S
C319 C318 1.385 . S
C320 C318 1.478 . S
C320 C322 1.381 . S
C320 C326 1.383 . S
C321 C317 1.495 . S
C321 H327 0.959 . S
C321 H328 0.961 . S
C321 H329 0.960 . S
C322 C320 1.381 . S
C322 C323 1.394 . S
C322 H330 0.930 . S
C323 C322 1.394 . S
C323 C324 1.383 . S
C323 H331 0.929 . S
C324 C323 1.383 . S
C324 C325 1.377 . S
C325 H309 0.930 . S
C325 C324 1.377 . S
C325 C326 1.379 . S
C326 H310 0.931 . S
C326 C320 1.383 . S
C326 C325 1.379 . S
H327 C321 0.959 . S
H328 C321 0.961 . S
H329 C321 0.960 . S
H330 C322 0.930 . S
H331 C323 0.929 . S
H332 C340 0.929 . S
H333 C342 0.930 . S
H334 C344 0.930 . S
H335 C347 0.929 . S
H336 C350 0.930 . S
H337 C352 0.960 . S
H338 C352 0.960 1_554 S
H339 C352 0.960 . S
C340 H332 0.929 . S
C340 C341 1.377 . S
C340 C342 1.384 . S
C341 C340 1.377 . S
C341 C347 1.390 1_554 S
C342 H333 0.930 . S
C342 C340 1.384 . S
C342 C343 1.372 . S
C343 C342 1.372 . S
C343 C344 1.400 1_554 S
C343 C348 1.490 . S
C344 H334 0.930 . S
C344 C343 1.400 1_556 S
C344 C347 1.386 . S
H345 C361 0.930 . S
H346 C362 0.931 . S
C347 H335 0.929 . S
C347 C341 1.390 1_556 S
C347 C344 1.386 . S
C348 C343 1.490 . S
C348 C350 1.395 . S
C348 C351 1.403 1_554 S
H349 C355 0.930 . S
C350 H336 0.930 . S
C350 C348 1.395 . S
C350 C353 1.403 . S
C351 C348 1.403 1_556 S
C351 C352 1.524 . S
C351 C355 1.400 . S
C352 H337 0.960 . S
C352 H338 0.960 1_556 S
C352 H339 0.960 . S
C352 C351 1.524 . S
C353 C350 1.403 . S
C353 C354 1.392 . S
C353 C357 1.495 . S
C354 C353 1.392 . S
C354 C355 1.385 1_554 S
C354 C356 1.478 . S
C355 H349 0.930 . S
C355 C351 1.400 . S
C355 C354 1.385 1_556 S
C356 C354 1.478 . S
C356 C358 1.381 . S
C356 C362 1.383 1_554 S
C357 C353 1.495 . S
C357 H363 0.959 . S
C357 H364 0.961 . S
C357 H365 0.960 . S
C358 C356 1.381 . S
C358 C359 1.394 . S
C358 H366 0.930 . S
C359 C358 1.394 . S
C359 C360 1.383 . S
C359 H367 0.929 . S
C360 C359 1.383 . S
C360 C361 1.377 1_554 S
C361 H345 0.930 . S
C361 C360 1.377 1_556 S
C361 C362 1.379 . S
C362 H346 0.931 . S
C362 C356 1.383 1_556 S
C362 C361 1.379 . S
H363 C357 0.959 . S
H364 C357 0.961 . S
H365 C357 0.960 . S
H366 C358 0.930 . S
H367 C359 0.929 . S
H368 C376 0.929 . S
H369 C378 0.930 . S
H370 C380 0.930 . S
H371 C383 0.929 . S
H372 C386 0.930 . S
H373 C388 0.960 . S
H374 C388 0.960 . S
H375 C388 0.960 . S
C376 H368 0.929 . S
C376 C377 1.377 . S
C376 C378 1.384 . S
C377 C376 1.377 . S
C377 C383 1.390 . S
C378 H369 0.930 . S
C378 C376 1.384 . S
C378 C379 1.372 . S
C379 C378 1.372 . S
C379 C380 1.400 . S
C379 C384 1.490 . S
C380 H370 0.930 . S
C380 C379 1.400 . S
C380 C383 1.386 . S
H381 C397 0.930 . S
H382 C398 0.931 . S
C383 H371 0.929 . S
C383 C377 1.390 . S
C383 C380 1.386 . S
C384 C379 1.490 . S
C384 C386 1.395 . S
C384 C387 1.403 . S
H385 C391 0.930 . S
C386 H372 0.930 . S
C386 C384 1.395 . S
C386 C389 1.403 . S
C387 C384 1.403 . S
C387 C388 1.524 . S
C387 C391 1.400 . S
C388 H373 0.960 . S
C388 H374 0.960 . S
C388 H375 0.960 . S
C388 C387 1.524 . S
C389 C386 1.403 . S
C389 C390 1.392 . S
C389 C393 1.495 . S
C390 C389 1.392 . S
C390 C391 1.385 . S
C390 C392 1.478 . S
C391 H385 0.930 . S
C391 C387 1.400 . S
C391 C390 1.385 . S
C392 C390 1.478 . S
C392 C394 1.381 . S
C392 C398 1.383 . S
C393 C389 1.495 . S
C393 H399 0.959 . S
C393 H400 0.961 . S
C393 H401 0.960 . S
C394 C392 1.381 . S
C394 C395 1.394 . S
C394 H402 0.930 . S
C395 C394 1.394 . S
C395 C396 1.383 . S
C395 H403 0.929 1_455 S
C396 C395 1.383 . S
C396 C397 1.377 . S
C397 H381 0.930 . S
C397 C396 1.377 . S
C397 C398 1.379 . S
C398 H382 0.931 . S
C398 C392 1.383 . S
C398 C397 1.379 . S
H399 C393 0.959 . S
H400 C393 0.961 . S
H401 C393 0.960 . S
H402 C394 0.930 . S
H403 C395 0.929 1_655 S
H404 C412 0.929 . S
H405 C414 0.930 . S
H406 C416 0.930 . S
H407 C419 0.929 . S
H408 C422 0.930 . S
H409 C424 0.960 . S
H410 C424 0.960 . S
H411 C424 0.960 . S
C412 H404 0.929 . S
C412 C413 1.377 . S
C412 C414 1.384 . S
C413 C412 1.377 . S
C413 C419 1.390 . S
C414 H405 0.930 . S
C414 C412 1.384 . S
C414 C415 1.372 . S
C415 C414 1.372 . S
C415 C416 1.400 . S
C415 C420 1.490 . S
C416 H406 0.930 . S
C416 C415 1.400 . S
C416 C419 1.386 . S
H417 C433 0.930 . S
H418 C434 0.931 . S
C419 H407 0.929 . S
C419 C413 1.390 . S
C419 C416 1.386 . S
C420 C415 1.490 . S
C420 C422 1.395 . S
C420 C423 1.403 . S
H421 C427 0.930 . S
C422 H408 0.930 . S
C422 C420 1.395 . S
C422 C425 1.403 . S
C423 C420 1.403 . S
C423 C424 1.524 . S
C423 C427 1.400 . S
C424 H409 0.960 . S
C424 H410 0.960 . S
C424 H411 0.960 . S
C424 C423 1.524 . S
C425 C422 1.403 . S
C425 C426 1.392 . S
C425 C429 1.495 . S
C426 C425 1.392 . S
C426 C427 1.385 . S
C426 C428 1.478 . S
C427 H421 0.930 . S
C427 C423 1.400 . S
C427 C426 1.385 . S
C428 C426 1.478 . S
C428 C430 1.381 . S
C428 C434 1.383 . S
C429 C425 1.495 . S
C429 H435 0.959 . S
C429 H436 0.961 . S
C429 H437 0.960 . S
C430 C428 1.381 . S
C430 C431 1.394 . S
C430 H438 0.930 . S
C431 C430 1.394 . S
C431 C432 1.383 . S
C431 H439 0.929 . S
C432 C431 1.383 . S
C432 C433 1.377 . S
C433 H417 0.930 . S
C433 C432 1.377 . S
C433 C434 1.379 . S
C434 H418 0.931 . S
C434 C428 1.383 . S
C434 C433 1.379 . S
H435 C429 0.959 . S
H436 C429 0.961 . S
H437 C429 0.960 . S
H438 C430 0.930 . S
H439 C431 0.929 . S
H440 C448 0.929 . S
H441 C450 0.930 . S
H442 C452 0.930 . S
H443 C455 0.929 . S
H444 C458 0.930 . S
H445 C460 0.960 1_455 S
H446 C460 0.960 . S
H447 C460 0.960 . S
C448 H440 0.929 . S
C448 C449 1.377 . S
C448 C450 1.384 . S
C449 C448 1.377 . S
C449 C455 1.390 . S
C450 H441 0.930 . S
C450 C448 1.384 . S
C450 C451 1.372 . S
C451 C450 1.372 . S
C451 C452 1.400 . S
C451 C456 1.490 . S
C452 H442 0.930 . S
C452 C451 1.400 . S
C452 C455 1.386 . S
H453 C469 0.930 . S
H454 C470 0.931 . S
C455 H443 0.929 . S
C455 C449 1.390 . S
C455 C452 1.386 . S
C456 C451 1.490 . S
C456 C458 1.395 . S
C456 C459 1.403 . S
H457 C463 0.930 . S
C458 H444 0.930 . S
C458 C456 1.395 . S
C458 C461 1.403 . S
C459 C456 1.403 . S
C459 C460 1.524 . S
C459 C463 1.400 . S
C460 H445 0.960 1_655 S
C460 H446 0.960 . S
C460 H447 0.960 . S
C460 C459 1.524 . S
C461 C458 1.403 . S
C461 C462 1.392 . S
C461 C465 1.495 . S
C462 C461 1.392 . S
C462 C463 1.385 . S
C462 C464 1.478 . S
C463 H457 0.930 . S
C463 C459 1.400 . S
C463 C462 1.385 . S
C464 C462 1.478 . S
C464 C466 1.381 . S
C464 C470 1.383 . S
C465 C461 1.495 . S
C465 H471 0.959 . S
C465 H472 0.961 . S
C465 H473 0.960 . S
C466 C464 1.381 . S
C466 C467 1.394 . S
C466 H474 0.930 . S
C467 C466 1.394 . S
C467 C468 1.383 . S
C467 H475 0.929 . S
C468 C467 1.383 . S
C468 C469 1.377 . S
C469 H453 0.930 . S
C469 C468 1.377 . S
C469 C470 1.379 . S
C470 H454 0.931 . S
C470 C464 1.383 . S
C470 C469 1.379 . S
H471 C465 0.959 . S
H472 C465 0.961 . S
H473 C465 0.960 . S
H474 C466 0.930 . S
H475 C467 0.929 . S
H476 C484 0.929 . S
H477 C486 0.930 . S
H478 C488 0.930 . S
H479 C491 0.929 . S
H480 C494 0.930 . S
H481 C496 0.960 . S
H482 C496 0.960 . S
H483 C496 0.960 . S
C484 H476 0.929 . S
C484 C485 1.377 . S
C484 C486 1.384 . S
C485 C484 1.377 . S
C485 C491 1.390 . S
C486 H477 0.930 . S
C486 C484 1.384 . S
C486 C487 1.372 . S
C487 C486 1.372 . S
C487 C488 1.400 . S
C487 C492 1.490 . S
C488 H478 0.930 . S
C488 C487 1.400 . S
C488 C491 1.386 . S
H489 C505 0.930 . S
H490 C506 0.931 . S
C491 H479 0.929 . S
C491 C485 1.390 . S
C491 C488 1.386 . S
C492 C487 1.490 . S
C492 C494 1.395 . S
C492 C495 1.403 . S
H493 C499 0.930 . S
C494 H480 0.930 . S
C494 C492 1.395 . S
C494 C497 1.403 . S
C495 C492 1.403 . S
C495 C496 1.524 . S
C495 C499 1.400 . S
C496 H481 0.960 . S
C496 H482 0.960 . S
C496 H483 0.960 . S
C496 C495 1.524 . S
C497 C494 1.403 . S
C497 C498 1.392 . S
C497 C501 1.495 . S
C498 C497 1.392 . S
C498 C499 1.385 . S
C498 C500 1.478 . S
C499 H493 0.930 . S
C499 C495 1.400 . S
C499 C498 1.385 . S
C500 C498 1.478 . S
C500 C502 1.381 . S
C500 C506 1.383 . S
C501 C497 1.495 . S
C501 H507 0.959 . S
C501 H508 0.961 . S
C501 H509 0.960 . S
C502 C500 1.381 . S
C502 C503 1.394 . S
C502 H510 0.930 . S
C503 C502 1.394 . S
C503 C504 1.383 . S
C503 H511 0.929 . S
C504 C503 1.383 . S
C504 C505 1.377 . S
C505 H489 0.930 . S
C505 C504 1.377 . S
C505 C506 1.379 . S
C506 H490 0.931 . S
C506 C500 1.383 . S
C506 C505 1.379 . S
H507 C501 0.959 . S
H508 C501 0.961 . S
H509 C501 0.960 . S
H510 C502 0.930 . S
H511 C503 0.929 . S
H512 C520 0.929 . S
H513 C522 0.930 . S
H514 C524 0.930 . S
H515 C527 0.929 . S
H516 C530 0.930 . S
H517 C532 0.960 . S
H518 C532 0.960 . S
H519 C532 0.960 . S
C520 H512 0.929 . S
C520 C521 1.377 . S
C520 C522 1.384 . S
C521 C520 1.377 . S
C521 C527 1.390 . S
C522 H513 0.930 . S
C522 C520 1.384 . S
C522 C523 1.372 . S
C523 C522 1.372 . S
C523 C524 1.400 . S
C523 C528 1.490 . S
C524 H514 0.930 . S
C524 C523 1.400 . S
C524 C527 1.386 . S
H525 C541 0.930 . S
H526 C542 0.931 . S
C527 H515 0.929 . S
C527 C521 1.390 . S
C527 C524 1.386 . S
C528 C523 1.490 . S
C528 C530 1.395 . S
C528 C531 1.403 . S
H529 C535 0.930 . S
C530 H516 0.930 . S
C530 C528 1.395 . S
C530 C533 1.403 . S
C531 C528 1.403 . S
C531 C532 1.524 . S
C531 C535 1.400 . S
C532 H517 0.960 . S
C532 H518 0.960 . S
C532 H519 0.960 . S
C532 C531 1.524 . S
C533 C530 1.403 . S
C533 C534 1.392 . S
C533 C537 1.495 . S
C534 C533 1.392 . S
C534 C535 1.385 . S
C534 C536 1.478 . S
C535 H529 0.930 . S
C535 C531 1.400 . S
C535 C534 1.385 . S
C536 C534 1.478 . S
C536 C538 1.381 . S
C536 C542 1.383 . S
C537 C533 1.495 . S
C537 H543 0.959 . S
C537 H544 0.961 . S
C537 H545 0.960 . S
C538 C536 1.381 . S
C538 C539 1.394 . S
C538 H546 0.930 . S
C539 C538 1.394 . S
C539 C540 1.383 . S
C539 H547 0.929 . S
C540 C539 1.383 . S
C540 C541 1.377 . S
C541 H525 0.930 . S
C541 C540 1.377 . S
C541 C542 1.379 . S
C542 H526 0.931 . S
C542 C536 1.383 . S
C542 C541 1.379 . S
H543 C537 0.959 . S
H544 C537 0.961 . S
H545 C537 0.960 . S
H546 C538 0.930 . S
H547 C539 0.929 . S
H548 C556 0.929 . S
H549 C558 0.930 . S
H550 C560 0.930 . S
H551 C563 0.929 . S
H552 C566 0.930 . S
H553 C568 0.960 . S
H554 C568 0.960 . S
H555 C568 0.960 . S
C556 H548 0.929 . S
C556 C557 1.377 . S
C556 C558 1.384 . S
C557 C556 1.377 . S
C557 C563 1.390 . S
C558 H549 0.930 . S
C558 C556 1.384 . S
C558 C559 1.372 . S
C559 C558 1.372 . S
C559 C560 1.400 . S
C559 C564 1.490 . S
C560 H550 0.930 . S
C560 C559 1.400 . S
C560 C563 1.386 . S
H561 C577 0.930 1_455 S
H562 C578 0.912 1_455 S
C563 H551 0.929 . S
C563 C557 1.390 . S
C563 C560 1.386 . S
C564 C559 1.490 . S
C564 C566 1.395 . S
C564 C567 1.403 . S
H565 C571 0.930 . S
C566 H552 0.930 . S
C566 C564 1.395 . S
C566 C569 1.403 . S
C567 C564 1.403 . S
C567 C568 1.524 . S
C567 C571 1.400 . S
C568 H553 0.960 . S
C568 H554 0.960 . S
C568 H555 0.960 . S
C568 C567 1.524 . S
C569 C566 1.403 . S
C569 C570 1.392 . S
C569 C573 1.495 . S
C570 C569 1.392 . S
C570 C571 1.385 . S
C570 C572 1.478 . S
C571 H565 0.930 . S
C571 C567 1.400 . S
C571 C570 1.385 . S
C572 C570 1.478 . S
C572 C574 1.381 . S
C572 C578 1.383 . S
C573 C569 1.495 . S
C573 H579 0.959 . S
C573 H580 0.961 . S
C573 H581 0.960 . S
C574 C572 1.381 . S
C574 C575 1.394 . S
C574 H582 0.930 . S
C575 C574 1.394 . S
C575 C576 1.383 . S
C575 H583 0.929 . S
C576 C575 1.383 . S
C576 C577 1.377 . S
C577 H561 0.930 1_655 S
C577 C576 1.377 . S
C577 C578 1.379 . S
C578 H562 0.912 1_655 S
C578 C572 1.383 . S
C578 C577 1.379 . S
H579 C573 0.959 . S
H580 C573 0.961 . S
H581 C573 0.960 . S
H582 C574 0.930 . S
H583 C575 0.929 . S
H584 C592 0.929 . S
H585 C594 0.930 . S
H586 C596 0.930 . S
H587 C599 0.929 . S
H588 C602 0.930 . S
H589 C604 0.960 . S
H590 C604 0.960 . S
H591 C604 0.960 . S
C592 H584 0.929 . S
C592 C593 1.377 . S
C592 C594 1.384 . S
C593 C592 1.377 . S
C593 C599 1.390 . S
C594 H585 0.930 . S
C594 C592 1.384 . S
C594 C595 1.372 . S
C595 C594 1.372 . S
C595 C596 1.400 . S
C595 C600 1.490 . S
C596 H586 0.930 . S
C596 C595 1.400 . S
C596 C599 1.386 . S
H597 C613 0.930 . S
H598 C614 0.931 . S
C599 H587 0.929 . S
C599 C593 1.390 . S
C599 C596 1.386 . S
C600 C595 1.490 . S
C600 C602 1.395 . S
C600 C603 1.403 . S
H601 C607 0.930 . S
C602 H588 0.930 . S
C602 C600 1.395 . S
C602 C605 1.403 . S
C603 C600 1.403 . S
C603 C604 1.524 . S
C603 C607 1.400 . S
C604 H589 0.960 . S
C604 H590 0.960 . S
C604 H591 0.960 . S
C604 C603 1.524 . S
C605 C602 1.403 . S
C605 C606 1.392 . S
C605 C609 1.495 . S
C606 C605 1.392 . S
C606 C607 1.385 . S
C606 C608 1.478 . S
C607 H601 0.930 . S
C607 C603 1.400 . S
C607 C606 1.385 . S
C608 C606 1.478 . S
C608 C610 1.381 . S
C608 C614 1.383 . S
C609 C605 1.495 . S
C609 H615 0.959 . S
C609 H616 0.961 . S
C609 H617 0.960 . S
C610 C608 1.381 . S
C610 C611 1.394 . S
C610 H618 0.930 . S
C611 C610 1.394 . S
C611 C612 1.383 . S
C611 H619 0.929 . S
C612 C611 1.383 . S
C612 C613 1.377 . S
C613 H597 0.930 . S
C613 C612 1.377 . S
C613 C614 1.379 . S
C614 H598 0.931 . S
C614 C608 1.383 . S
C614 C613 1.379 . S
H615 C609 0.959 . S
H616 C609 0.961 . S
H617 C609 0.960 . S
H618 C610 0.930 . S
H619 C611 0.929 . S
H620 C628 0.929 . S
H621 C630 0.930 . S
H622 C632 0.930 . S
H623 C635 0.929 . S
H624 C638 0.930 . S
H625 C640 0.960 . S
H626 C640 0.960 . S
H627 C640 0.960 . S
C628 H620 0.929 . S
C628 C629 1.377 . S
C628 C630 1.384 . S
C629 C628 1.377 . S
C629 C635 1.390 . S
C630 H621 0.930 . S
C630 C628 1.384 . S
C630 C631 1.372 . S
C631 C630 1.372 . S
C631 C632 1.400 . S
C631 C636 1.490 . S
C632 H622 0.930 . S
C632 C631 1.400 . S
C632 C635 1.386 . S
H633 C649 0.930 . S
H634 C650 0.931 . S
C635 H623 0.929 . S
C635 C629 1.390 . S
C635 C632 1.386 . S
C636 C631 1.490 . S
C636 C638 1.395 . S
C636 C639 1.403 . S
H637 C643 0.930 . S
C638 H624 0.930 . S
C638 C636 1.395 . S
C638 C641 1.403 . S
C639 C636 1.403 . S
C639 C640 1.524 . S
C639 C643 1.400 . S
C640 H625 0.960 . S
C640 H626 0.960 . S
C640 H627 0.960 . S
C640 C639 1.524 . S
C641 C638 1.403 . S
C641 C642 1.392 . S
C641 C645 1.495 . S
C642 C641 1.392 . S
C642 C643 1.385 . S
C642 C644 1.478 . S
C643 H637 0.930 . S
C643 C639 1.400 . S
C643 C642 1.385 . S
C644 C642 1.478 . S
C644 C646 1.381 . S
C644 C650 1.383 . S
C645 C641 1.495 . S
C645 H651 0.959 . S
C645 H652 0.961 . S
C645 H653 0.960 . S
C646 C644 1.381 . S
C646 C647 1.394 . S
C646 H654 0.930 . S
C647 C646 1.394 . S
C647 C648 1.383 . S
C647 H655 0.929 1_455 S
C648 C647 1.383 . S
C648 C649 1.377 . S
C649 H633 0.930 . S
C649 C648 1.377 . S
C649 C650 1.379 . S
C650 H634 0.931 . S
C650 C644 1.383 . S
C650 C649 1.379 . S
H651 C645 0.959 . S
H652 C645 0.961 . S
H653 C645 0.960 . S
H654 C646 0.930 . S
H655 C647 0.929 1_655 S
C252 C160 1.639 . S
C233 C138 1.611 . S
C269 C21 1.554 . S
C288 C203 1.563 . S
C305 C60 1.622 . S
C324 C169 1.635 . S
C341 C99 1.545 . S
C360 C194 1.549 . S
C396 C156 1.608 . S
C377 C16 1.589 . S
C432 C198 1.704 . S
C413 C40 1.677 . S
C449 C79 1.586 . S
C468 C164 1.606 . S
C485 C133 1.674 . S
C504 C190 1.702 . S
C540 C219 1.695 . S
C521 C55 1.667 . S
C576 C185 1.608 . S
C557 C94 1.588 . S
C612 C207 1.708 . S
C593 C118 1.670 . S
C629 C1 1.591 . S
C648 C173 1.606 . S
