# Generated by pormake.
# Topology eea, (3,6)-cn, num edge types: 1
# Building blocks:
#     Node 0, Type 0, BuildingBlock: ESEHIV_clean_linker_0, # of connection points: 3
#     Node 1, Type 0, BuildingBlock: ESEHIV_clean_linker_0, # of connection points: 3
#     Node 2, Type 0, BuildingBlock: ESEHIV_clean_linker_0, # of connection points: 3
#     Node 3, Type 0, BuildingBlock: ESEHIV_clean_linker_0, # of connection points: 3
#     Node 4, Type 0, BuildingBlock: ESEHIV_clean_linker_0, # of connection points: 3
#     Node 5, Type 0, BuildingBlock: ESEHIV_clean_linker_0, # of connection points: 3
#     Node 6, Type 0, BuildingBlock: ESEHIV_clean_linker_0, # of connection points: 3
#     Node 7, Type 0, BuildingBlock: ESEHIV_clean_linker_0, # of connection points: 3
#     Node 8, Type 0, BuildingBlock: ESEHIV_clean_linker_0, # of connection points: 3
#     Node 9, Type 0, BuildingBlock: ESEHIV_clean_linker_0, # of connection points: 3
#     Node 10, Type 0, BuildingBlock: ESEHIV_clean_linker_0, # of connection points: 3
#     Node 11, Type 0, BuildingBlock: ESEHIV_clean_linker_0, # of connection points: 3
#     Node 12, Type 0, BuildingBlock: ESEHIV_clean_linker_0, # of connection points: 3
#     Node 13, Type 0, BuildingBlock: ESEHIV_clean_linker_0, # of connection points: 3
#     Node 14, Type 0, BuildingBlock: ESEHIV_clean_linker_0, # of connection points: 3
#     Node 15, Type 0, BuildingBlock: ESEHIV_clean_linker_0, # of connection points: 3
#     Node 16, Type 0, BuildingBlock: ESEHIV_clean_linker_0, # of connection points: 3
#     Node 17, Type 0, BuildingBlock: ESEHIV_clean_linker_0, # of connection points: 3
#     Node 18, Type 1, BuildingBlock: KUMJIN_clean_sbu_0, # of connection points: 6
#     Node 19, Type 1, BuildingBlock: KUMJIN_clean_sbu_0, # of connection points: 6
#     Node 20, Type 1, BuildingBlock: KUMJIN_clean_sbu_0, # of connection points: 6
#     Node 21, Type 1, BuildingBlock: KUMJIN_clean_sbu_0, # of connection points: 6
#     Node 22, Type 1, BuildingBlock: KUMJIN_clean_sbu_0, # of connection points: 6
#     Node 23, Type 1, BuildingBlock: KUMJIN_clean_sbu_0, # of connection points: 6
#     Node 24, Type 1, BuildingBlock: KUMJIN_clean_sbu_0, # of connection points: 6
#     Node 25, Type 1, BuildingBlock: KUMJIN_clean_sbu_0, # of connection points: 6
#     Node 26, Type 1, BuildingBlock: KUMJIN_clean_sbu_0, # of connection points: 6
#     Edge 27, Type (0, 1), None
#     Edge 28, Type (0, 1), None
#     Edge 29, Type (0, 1), None
#     Edge 30, Type (0, 1), None
#     Edge 31, Type (0, 1), None
#     Edge 32, Type (0, 1), None
#     Edge 33, Type (0, 1), None
#     Edge 34, Type (0, 1), None
#     Edge 35, Type (0, 1), None
#     Edge 36, Type (0, 1), None
#     Edge 37, Type (0, 1), None
#     Edge 38, Type (0, 1), None
#     Edge 39, Type (0, 1), None
#     Edge 40, Type (0, 1), None
#     Edge 41, Type (0, 1), None
#     Edge 42, Type (0, 1), None
#     Edge 43, Type (0, 1), None
#     Edge 44, Type (0, 1), None
#     Edge 45, Type (0, 1), None
#     Edge 46, Type (0, 1), None
#     Edge 47, Type (0, 1), None
#     Edge 48, Type (0, 1), None
#     Edge 49, Type (0, 1), None
#     Edge 50, Type (0, 1), None
#     Edge 51, Type (0, 1), None
#     Edge 52, Type (0, 1), None
#     Edge 53, Type (0, 1), None
#     Edge 54, Type (0, 1), None
#     Edge 55, Type (0, 1), None
#     Edge 56, Type (0, 1), None
#     Edge 57, Type (0, 1), None
#     Edge 58, Type (0, 1), None
#     Edge 59, Type (0, 1), None
#     Edge 60, Type (0, 1), None
#     Edge 61, Type (0, 1), None
#     Edge 62, Type (0, 1), None
#     Edge 63, Type (0, 1), None
#     Edge 64, Type (0, 1), None
#     Edge 65, Type (0, 1), None
#     Edge 66, Type (0, 1), None
#     Edge 67, Type (0, 1), None
#     Edge 68, Type (0, 1), None
#     Edge 69, Type (0, 1), None
#     Edge 70, Type (0, 1), None
#     Edge 71, Type (0, 1), None
#     Edge 72, Type (0, 1), None
#     Edge 73, Type (0, 1), None
#     Edge 74, Type (0, 1), None
#     Edge 75, Type (0, 1), None
#     Edge 76, Type (0, 1), None
#     Edge 77, Type (0, 1), None
#     Edge 78, Type (0, 1), None
#     Edge 79, Type (0, 1), None
#     Edge 80, Type (0, 1), None
# Relax obj value: 0.004
# Max RMSD: 0.191
# Mean RMSD: 0.141
data_MOF--net-eea--node1-KUMJIN_clean_sbu_0--node2-ESEHIV_clean_linker_0--edge1-none
_symmetry_space_group_name_H-M    P1
_symmetry_Int_Tables_number       1
_symmetry_cell_setting            triclinic
loop_
_symmetry_equiv_pos_as_xyz
'x, y, z'
_cell_length_a     18.513
_cell_length_b     19.747179
_cell_length_c     36.843358
_cell_angle_alpha  91.294777
_cell_angle_beta   91.709156
_cell_angle_gamma 119.50276
loop_
_atom_site_label
_atom_site_type_symbol
_atom_site_fract_x
_atom_site_fract_y
_atom_site_fract_z
_atom_type_partial_charge
H0 H 0.28067 0.22848 0.44009 0.0
H1 H 0.30392 0.02531 0.43549 0.0
H2 H 0.19575 0.07953 0.34352 0.0
C3 C 0.26618 0.17525 0.42525 0.0
C4 C 0.2299 0.16 0.3899 0.0
C5 C 0.29469 0.12905 0.44131 0.0
C6 C 0.28077 0.06041 0.42291 0.0
C7 C 0.23986 0.03891 0.38792 0.0
C8 C 0.21804 0.0912 0.37118 0.0
H9 H 0.81725 0.05417 0.44061 0.0
H10 H 0.94329 0.29602 0.41856 0.0
H11 H 0.93357 0.1282 0.34099 0.0
C12 C 0.84314 0.10047 0.42186 0.0
C13 C 0.8487 0.08292 0.38479 0.0
C14 C 0.87325 0.17781 0.43459 0.0
C15 C 0.91986 0.23596 0.41053 0.0
C16 C 0.9541 0.22062 0.38026 0.0
C17 C 0.91417 0.14264 0.36578 0.0
H18 H 0.77726 0.73903 0.44894 0.0
H19 H 0.94576 0.66111 0.4297 0.0
H20 H 0.93213 0.82303 0.3566 0.0
C21 C 0.8279 0.74478 0.43333 0.0
C22 C 0.84214 0.77976 0.39935 0.0
C23 C 0.86758 0.70485 0.445 0.0
C24 C 0.92614 0.70274 0.42302 0.0
C25 C 0.95769 0.75083 0.39282 0.0
C26 C 0.91417 0.79024 0.38085 0.0
H27 H 0.96887 0.11717 0.59909 0.0
H28 H 0.22397 0.19055 0.58925 0.0
H29 H 0.14144 0.21864 0.69139 0.0
C30 C 0.02907 0.1402 0.61244 0.0
C31 C 0.04181 0.16868 0.64912 0.0
C32 C 0.09728 0.16301 0.5898 0.0
C33 C 0.17262 0.17766 0.60639 0.0
C34 C 0.1865 0.18944 0.64441 0.0
C35 C 0.12332 0.19239 0.66486 0.0
H36 H 0.78125 0.95282 0.59783 0.0
H37 H 0.94625 0.86001 0.59313 0.0
H38 H 0.92817 0.96075 0.69316 0.0
C39 C 0.82996 0.94456 0.61029 0.0
C40 C 0.85332 0.96446 0.64737 0.0
C41 C 0.86417 0.90741 0.59014 0.0
C42 C 0.92478 0.89435 0.60794 0.0
C43 C 0.93578 0.90171 0.6467 0.0
C44 C 0.91159 0.94823 0.66445 0.0
H45 H 0.01111 0.74135 0.60998 0.0
H46 H 0.23953 0.94941 0.60093 0.0
H47 H 0.12612 0.88281 0.70534 0.0
C48 C 0.06431 0.78917 0.62335 0.0
C49 C 0.06454 0.7974 0.66097 0.0
C50 C 0.12981 0.83709 0.60199 0.0
C51 C 0.1909 0.90934 0.61771 0.0
C52 C 0.1878 0.93061 0.65477 0.0
C53 C 0.12605 0.8716 0.67677 0.0
H54 H 0.94733 0.5618 0.77342 0.0
H55 H 0.97059 0.35865 0.76882 0.0
H56 H 0.86242 0.41286 0.67685 0.0
C57 C 0.93285 0.50858 0.75858 0.0
C58 C 0.89657 0.49333 0.72323 0.0
C59 C 0.96135 0.46238 0.77464 0.0
C60 C 0.94743 0.39375 0.75624 0.0
C61 C 0.90653 0.37224 0.72126 0.0
C62 C 0.88471 0.42454 0.70452 0.0
H63 H 0.48392 0.3875 0.77395 0.0
H64 H 0.60996 0.62936 0.7519 0.0
H65 H 0.60024 0.46154 0.67432 0.0
C66 C 0.50981 0.4338 0.7552 0.0
C67 C 0.51537 0.41625 0.71812 0.0
C68 C 0.53992 0.51114 0.76792 0.0
C69 C 0.58653 0.56929 0.74386 0.0
C70 C 0.62077 0.55395 0.71359 0.0
C71 C 0.58084 0.47597 0.69911 0.0
H72 H 0.44393 0.07237 0.78227 0.0
H73 H 0.61243 -0.00556 0.76304 0.0
H74 H 0.5988 0.15636 0.68993 0.0
C75 C 0.49457 0.07812 0.76666 0.0
C76 C 0.50881 0.11309 0.73268 0.0
C77 C 0.53425 0.03819 0.77833 0.0
C78 C 0.59281 0.03607 0.75635 0.0
C79 C 0.62435 0.08417 0.72616 0.0
C80 C 0.58083 0.12357 0.71419 0.0
H81 H 0.63553 0.45051 0.93243 0.0
H82 H 0.89063 0.52389 0.92258 0.0
H83 H 0.8081 0.55197 0.02472 0.0
C84 C 0.69573 0.47353 0.94577 0.0
C85 C 0.70847 0.50201 0.98245 0.0
C86 C 0.76394 0.49635 0.92314 0.0
C87 C 0.83928 0.511 0.93972 0.0
C88 C 0.85316 0.52277 0.97775 0.0
C89 C 0.78998 0.52572 0.99819 0.0
H90 H 0.44791 0.28615 0.93116 0.0
H91 H 0.61291 0.19334 0.92646 0.0
H92 H 0.59482 0.29408 0.0265 0.0
C93 C 0.49662 0.27789 0.94362 0.0
C94 C 0.51998 0.29779 0.9807 0.0
C95 C 0.53083 0.24074 0.92347 0.0
C96 C 0.59144 0.22768 0.94127 0.0
C97 C 0.60244 0.23505 0.98004 0.0
C98 C 0.57825 0.28156 0.99778 0.0
H99 H 0.67776 0.07467 0.94332 0.0
H100 H 0.90618 0.28274 0.93427 0.0
H101 H 0.79278 0.21615 0.03867 0.0
C102 C 0.73096 0.1225 0.95669 0.0
C103 C 0.7312 0.13073 0.9943 0.0
C104 C 0.79647 0.17042 0.93533 0.0
C105 C 0.85756 0.24267 0.95104 0.0
C106 C 0.85446 0.26394 0.9881 0.0
C107 C 0.7927 0.20493 1.01011 0.0
H108 H 0.614 0.89514 0.10675 0.0
H109 H 0.63725 0.69198 0.10215 0.0
H110 H 0.52908 0.74619 1.01019 0.0
C111 C 0.59951 0.84192 0.09192 0.0
C112 C 0.56323 0.82666 0.05657 0.0
C113 C 0.62801 0.79571 0.10798 0.0
C114 C 0.6141 0.72708 0.08958 0.0
C115 C 0.57319 0.70557 0.05459 0.0
C116 C 0.55136 0.75787 0.03785 0.0
H117 H 0.15058 0.72083 0.10728 0.0
H118 H 0.27662 0.96269 0.08523 0.0
H119 H 0.2669 0.79487 1.00765 0.0
C120 C 0.17646 0.76713 0.08853 0.0
C121 C 0.18203 0.74958 0.05145 0.0
C122 C 0.20658 0.84447 0.10126 0.0
C123 C 0.25318 0.90262 0.0772 0.0
C124 C 0.28742 0.88728 0.04693 0.0
C125 C 0.2475 0.8093 0.03245 0.0
H126 H 0.11058 0.40569 0.11561 0.0
H127 H 0.2791 0.32778 0.09637 0.0
H128 H 0.26545 0.48969 0.02327 0.0
C129 C 0.16123 0.41144 0.09999 0.0
C130 C 0.17547 0.44642 0.06601 0.0
C131 C 0.20091 0.37151 0.11166 0.0
C132 C 0.25947 0.3694 0.08969 0.0
C133 C 0.29101 0.4175 0.05949 0.0
C134 C 0.24749 0.4569 0.04752 0.0
H135 H 0.3022 0.78383 0.26576 0.0
H136 H 0.5573 0.85722 0.25592 0.0
H137 H 0.47477 0.88531 0.35806 0.0
C138 C 0.3624 0.80686 0.27911 0.0
C139 C 0.37514 0.83534 0.31578 0.0
C140 C 0.43061 0.82968 0.25647 0.0
C141 C 0.50595 0.84433 0.27306 0.0
C142 C 0.51983 0.8561 0.31108 0.0
C143 C 0.45665 0.85906 0.33152 0.0
H144 H 0.11458 0.61949 0.2645 0.0
H145 H 0.27957 0.52668 0.25979 0.0
H146 H 0.2615 0.62741 0.35983 0.0
C147 C 0.16328 0.61123 0.27696 0.0
C148 C 0.18664 0.63112 0.31403 0.0
C149 C 0.1975 0.57408 0.25681 0.0
C150 C 0.2581 0.56102 0.2746 0.0
C151 C 0.26911 0.56838 0.31337 0.0
C152 C 0.24492 0.6149 0.33111 0.0
H153 H 0.34443 0.40802 0.27665 0.0
H154 H 0.57286 0.61608 0.2676 0.0
H155 H 0.45946 0.54948 0.37201 0.0
C156 C 0.39764 0.45584 0.29002 0.0
C157 C 0.39787 0.46407 0.32763 0.0
C158 C 0.46314 0.50376 0.26866 0.0
C159 C 0.52423 0.57601 0.28437 0.0
C160 C 0.52113 0.59728 0.32144 0.0
C161 C 0.45938 0.53827 0.34344 0.0
Eu162 Eu 0.49777 0.97719 0.97908 0.0
C163 C 0.54655 0.13465 0.14842 0.0
C164 C 0.63213 0.10269 0.18726 0.0
C165 C 0.55736 0.15963 0.21949 0.0
C166 C 0.5989 0.10479 0.15272 0.0
C167 C 0.53001 0.17608 0.18692 0.0
C168 C 0.60535 0.12219 0.2195 0.0
C169 C 0.48315 0.2804 0.14693 0.0
N170 N 0.5319 0.14798 0.10745 0.0
C171 C 0.50883 0.2114 0.09363 0.0
C172 C 0.49886 0.24527 0.18759 0.0
Eu173 Eu 0.52698 0.03767 0.07249 0.0
N174 N 0.62611 0.08728 0.12173 0.0
C175 C 0.69374 0.07726 0.12287 0.0
C176 C 0.69733 0.08589 0.18841 0.0
C177 C 0.73219 0.0795 0.15632 0.0
H178 H 0.50232 0.21598 0.06456 0.0
H179 H 0.78784 0.07525 0.15742 0.0
H180 H 0.62735 0.11385 0.24562 0.0
H181 H 0.47186 0.32815 0.148 0.0
H182 H 0.71524 0.0641 0.09813 0.0
H183 H 0.3626 0.1763 1.00372 0.0
H184 H 0.72442 0.08181 0.21389 0.0
H185 H 0.39346 0.80393 0.9406 0.0
H186 H 0.45217 0.12481 1.01639 0.0
H187 H 0.25113 0.70069 0.92473 0.0
H188 H 0.54684 0.18077 0.24504 0.0
H189 H 0.23669 0.10119 0.96482 0.0
H190 H 0.13609 0.97208 0.93765 0.0
H191 H 0.49376 0.27017 0.21319 0.0
H192 H 0.0981 0.83658 0.92572 0.0
N193 N 0.39928 0.03017 0.97662 0.0
C194 C 0.40865 0.09649 0.99441 0.0
C195 C 0.28132 0.08099 0.96779 0.0
C196 C 0.26311 0.00744 0.95493 0.0
C197 C 0.35294 0.12414 0.98914 0.0
C198 C 0.32367 0.98344 0.95966 0.0
H199 H 0.13805 0.7331 0.92317 0.0
N200 N 0.36098 0.88629 0.95633 0.0
C201 C 0.2636 0.75818 0.93274 0.0
C202 C 0.3028 0.90821 0.951 0.0
C203 C 0.34379 0.81484 0.94397 0.0
C204 C 0.20079 0.77716 0.93114 0.0
C205 C 0.22082 0.85397 0.93843 0.0
O206 O 0.51915 0.91526 0.93339 0.0
O207 O 0.59537 0.05517 1.0215 0.0
O208 O 0.58535 0.15432 0.03613 0.0
O209 O 0.55692 0.10432 0.97593 0.0
O210 O 0.63013 -0.00444 0.99135 0.0
O211 O 0.53471 0.02876 0.92624 0.0
O212 O 0.422 0.96131 0.1047 0.0
O213 O 0.43323 0.94665 0.03112 0.0
O214 O 0.50097 0.87745 1.01019 0.0
O215 O 0.57837 0.95555 0.06053 0.0
O216 O 0.39945 0.01812 0.05732 0.0
O217 O 0.53377 0.95812 0.11287 0.0
C218 C 0.66278 0.05833 1.01248 0.0
C219 C 0.49836 0.94848 0.8722 0.0
C220 C 0.49979 0.98323 0.8083 0.0
C221 C 0.53039 0.00411 0.84486 0.0
C222 C 0.43498 0.90767 0.79958 0.0
C223 C 0.43489 0.87293 0.86209 0.0
C224 C 0.40265 0.85312 0.82633 0.0
C225 C 0.58829 0.16437 0.99914 0.0
C226 C 0.5341 0.96938 0.9104 0.0
C227 C 0.16139 0.87762 0.93388 0.0
C228 C 0.18311 0.95484 0.94092 0.0
C229 C 0.37052 0.95396 0.03731 0.0
C230 C 0.44492 0.92805 0.16407 0.0
C231 C 0.44982 0.8754 0.18899 0.0
C232 C 0.4363 0.88249 0.22681 0.0
C233 C 0.42995 0.94707 0.23894 0.0
C234 C 0.42132 0.97986 0.17791 0.0
C235 C 0.42074 -0.0061 0.21466 0.0
C236 C 0.54454 0.88774 0.04148 0.0
C237 C 0.45867 0.93116 0.12371 0.0
H238 H 0.57965 0.06286 0.85186 0.0
H239 H 0.40991 0.89066 0.77185 0.0
H240 H 0.41049 0.8285 0.88154 0.0
H241 H 0.3531 0.79474 0.81915 0.0
H242 H 0.46169 0.82981 0.17928 0.0
H243 H 0.42742 0.95934 0.26753 0.0
H244 H 0.40413 0.01055 0.15966 0.0
H245 H 0.40859 0.03919 0.22443 0.0
Eu246 Eu 0.07372 0.51848 0.9794 0.0
C247 C 0.78756 0.41285 0.08673 0.0
C248 C 0.74874 0.55153 0.13881 0.0
C249 C 0.65964 0.39919 0.16067 0.0
C250 C 0.81051 0.50069 0.08854 0.0
C251 C 0.7182 0.35246 0.11319 0.0
C252 C 0.68085 0.48674 0.16533 0.0
C253 C 0.78544 0.27357 0.1009 0.0
N254 N 0.853 0.40028 0.08008 0.0
C255 C 0.85546 0.33744 0.0929 0.0
C256 C 0.71527 0.27865 0.10421 0.0
Eu257 Eu 0.98507 0.49746 0.06518 0.0
N258 N 0.90786 0.56175 0.0837 0.0
C259 C 0.96311 0.64547 0.10567 0.0
C260 C 0.82976 0.64739 0.15619 0.0
C261 C 0.92982 0.68754 0.13953 0.0
H262 H 0.91091 0.33309 0.09269 0.0
H263 H 0.97424 0.74559 0.14873 0.0
H264 H 0.65977 0.50546 0.18857 0.0
H265 H 0.7863 0.21986 0.10435 0.0
H266 H 0.02608 0.67967 0.10092 0.0
H267 H 0.15998 0.27285 0.98077 0.0
H268 H 0.77825 0.5976 0.1506 0.0
H269 H 0.24821 0.6333 0.03879 0.0
H270 H 0.09725 0.34886 1.00227 0.0
H271 H 0.38616 0.73534 0.02763 0.0
H272 H 0.62362 0.37188 0.18406 0.0
H273 H 0.28982 0.34078 0.89171 0.0
H274 H 0.37995 0.47217 0.86249 0.0
H275 H 0.66917 0.2233 0.10951 0.0
H276 H 0.4578 0.60935 0.88022 0.0
N277 N 0.15041 0.44762 0.9655 0.0
C278 C 0.1392 0.37421 0.9806 0.0
C279 C 0.25759 0.36463 0.9076 0.0
C280 C 0.26868 0.44606 0.8961 0.0
C281 C 0.17675 0.32341 0.96405 0.0
C282 C 0.2061 0.49232 0.93732 0.0
H283 H 0.44599 0.74823 0.97091 0.0
N284 N 0.22089 0.58936 0.98388 0.0
C285 C 0.35141 0.69233 1.00605 0.0
C286 C 0.25365 0.57791 0.95416 0.0
C287 C 0.27183 0.6348 1.01217 0.0
C288 C 0.38592 0.69721 0.97248 0.0
C289 C 0.34879 0.63542 0.94418 0.0
O290 O 0.08868 0.58686 0.93255 0.0
O291 O 0.9572 0.49787 1.0073 0.0
O292 O 0.90076 0.38199 0.02954 0.0
O293 O 0.98435 0.38695 0.98292 0.0
O294 O 0.00206 0.58568 0.97339 0.0
O295 O 0.01773 0.46214 0.92447 0.0
O296 O 0.96795 0.48687 0.12305 0.0
O297 O 0.10014 0.51081 0.03826 0.0
O298 O 0.13954 0.64247 1.00511 0.0
O299 O 0.05371 0.62587 0.05211 0.0
O300 O 0.03208 0.41203 0.06571 0.0
O301 O 0.09222 0.5533 0.10549 0.0
C302 C 0.9395 0.54563 0.99299 0.0
C303 C 0.05577 0.54236 0.8701 0.0
C304 C 0.02334 0.50067 0.80543 0.0
C305 C 0.00337 0.48699 0.84245 0.0
C306 C 0.0969 0.56753 0.79678 0.0
C307 C 0.12214 0.61328 0.85934 0.0
C308 C 0.14477 0.62402 0.82339 0.0
C309 C 0.9171 0.34729 1.00189 0.0
C310 C 0.04233 0.52919 0.90982 0.0
C311 C 0.40611 0.58027 0.89619 0.0
C312 C 0.35328 0.49666 0.88023 0.0
C313 C 0.10144 0.45158 0.05018 0.0
C314 C 0.07312 0.50032 0.16489 0.0
C315 C 0.12938 0.55303 0.19245 0.0
C316 C 0.14875 0.52434 0.224 0.0
C317 C 0.10997 0.44357 0.22727 0.0
C318 C 0.03479 0.41989 0.16994 0.0
C319 C 0.05399 0.39182 0.20072 0.0
C320 C 0.12354 0.6684 0.03555 0.0
C321 C 0.04573 0.52837 0.13333 0.0
H322 H 0.94689 0.43558 0.84948 0.0
H323 H 0.11346 0.57924 0.76872 0.0
H324 H 0.16067 0.65887 0.87879 0.0
H325 H 0.19944 0.67679 0.81612 0.0
H326 H 0.15567 0.61525 0.18988 0.0
H327 H 0.11965 0.42066 0.25166 0.0
H328 H 0.98942 0.37842 0.15009 0.0
H329 H 0.02375 0.32973 0.20453 0.0
Eu330 Eu 0.52828 0.46157 0.06631 0.0
C331 C 0.34189 0.52236 0.94506 0.0
C332 C 0.14095 0.36496 0.9149 0.0
C333 C 0.19362 0.50885 0.87185 0.0
C334 C 0.28265 0.43836 0.95673 0.0
C335 C 0.28297 0.56983 0.89263 0.0
C336 C 0.12719 0.41866 0.8822 0.0
C337 C 0.4587 0.71346 0.90735 0.0
N338 N 0.43479 0.58091 0.95713 0.0
C339 C 0.49202 0.66803 0.94175 0.0
C340 C 0.35895 0.66679 0.88295 0.0
Eu341 Eu 0.47747 0.48817 0.97531 0.0
N342 N 0.32349 0.38612 0.96443 0.0
C343 C 0.28337 0.294 0.95181 0.0
C344 C 0.11808 0.26431 0.90686 0.0
C345 C 0.18861 0.23465 0.9248 0.0
H346 H 0.5569 0.69968 0.95068 0.0
H347 H 0.17302 0.17506 0.91861 0.0
H348 H 0.07606 0.3862 0.86258 0.0
H349 H 0.50394 0.77113 0.89961 0.0
H350 H 0.3183 0.26476 0.95749 0.0
H351 H 0.86117 0.67645 0.08346 0.0
H352 H 0.11778 0.31574 0.90767 0.0
H353 H 0.36402 0.25952 0.07087 0.0
H354 H 0.72491 0.61142 0.05674 0.0
H355 H 0.30718 0.13762 0.10811 0.0
H356 H 0.18305 0.52478 0.84553 0.0
H357 H 0.92238 0.56995 0.16041 0.0
H358 H 0.8267 0.39307 0.19216 0.0
H359 H 0.34604 0.69579 0.86132 0.0
H360 H 0.68705 0.25526 0.18905 0.0
N361 N 0.671 0.49603 0.08079 0.0
C362 C 0.73741 0.57562 0.07448 0.0
C363 C 0.86671 0.55059 0.14258 0.0
C364 C 0.79214 0.46335 0.14681 0.0
C365 C 0.82623 0.61771 0.09397 0.0
C366 C 0.6742 0.43757 0.1037 0.0
H367 H 0.39714 0.10797 0.15577 0.0
N368 N 0.50406 0.33239 0.08765 0.0
C369 C 0.37325 0.17792 0.1109 0.0
C370 C 0.58797 0.34648 0.10542 0.0
C371 C 0.41236 0.26062 0.08798 0.0
C372 C 0.43183 0.15598 0.13879 0.0
C373 C 0.59134 0.26778 0.14082 0.0
O374 O 0.46911 0.50944 0.10229 0.0
O375 O 0.43121 0.47619 0.03222 0.0
O376 O 0.49995 0.59749 1.00828 0.0
O377 O 0.58889 0.59017 0.05155 0.0
O378 O 0.3927 0.37864 0.06005 0.0
O379 O 0.57055 0.49915 0.12271 0.0
O380 O 0.56863 0.52318 0.93469 0.0
O381 O 0.57551 0.47852 1.01015 0.0
O382 O 0.52399 0.36426 0.03432 0.0
O383 O 0.44111 0.36289 0.98619 0.0
O384 O 0.62182 0.56205 0.97598 0.0
O385 O 0.44521 0.44167 0.91757 0.0
C386 C 0.3655 0.41751 0.04255 0.0
C387 C 0.46972 0.48156 0.16414 0.0
C388 C 0.46025 0.47242 0.23036 0.0
C389 C 0.4936 0.51818 0.19956 0.0
C390 C 0.41424 0.39046 0.22408 0.0
C391 C 0.40609 0.40442 0.16021 0.0
C392 C 0.38136 0.35797 0.18987 0.0
C393 C 0.55394 0.62847 0.0367 0.0
C394 C 0.51464 0.51701 0.13114 0.0
C395 C 0.68357 0.2948 0.17083 0.0
C396 C 0.77701 0.38541 0.17334 0.0
C397 C 0.64576 0.52551 0.99779 0.0
C398 C 0.54054 0.52589 0.87302 0.0
C399 C 0.5241 0.49021 0.83747 0.0
C400 C 0.5345 0.53594 0.80653 0.0
C401 C 0.55125 0.61329 0.81319 0.0
C402 C 0.58034 0.60744 0.87625 0.0
C403 C 0.58223 0.65049 0.84678 0.0
C404 C 0.48479 0.33528 1.00263 0.0
C405 C 0.52114 0.4824 0.90725 0.0
H406 H 0.53677 0.58005 0.20287 0.0
H407 H 0.3978 0.3507 0.24605 0.0
H408 H 0.38595 0.37641 0.13364 0.0
H409 H 0.34001 0.2958 0.18606 0.0
H410 H 0.50448 0.42889 0.8343 0.0
H411 H 0.5454 0.64773 0.79214 0.0
H412 H 0.59958 0.6379 0.90255 0.0
H413 H 0.60178 0.7117 0.8508 0.0
Eu414 Eu 0.16444 0.31053 0.31241 0.0
C415 C 0.21322 0.46799 0.48175 0.0
C416 C 0.29881 0.43602 0.52059 0.0
C417 C 0.22403 0.49297 0.55283 0.0
C418 C 0.26558 0.43813 0.48605 0.0
C419 C 0.19668 0.50942 0.52026 0.0
C420 C 0.27202 0.45553 0.55284 0.0
C421 C 0.14982 0.61373 0.48027 0.0
N422 N 0.19858 0.48132 0.44078 0.0
C423 C 0.1755 0.54474 0.42696 0.0
C424 C 0.16553 0.5786 0.52092 0.0
Eu425 Eu 0.19365 0.37101 0.40582 0.0
N426 N 0.29278 0.42062 0.45506 0.0
C427 C 0.36041 0.4106 0.45621 0.0
C428 C 0.36401 0.41922 0.52174 0.0
C429 C 0.39886 0.41284 0.48965 0.0
H430 H 0.169 0.54932 0.39789 0.0
H431 H 0.45451 0.40858 0.49075 0.0
H432 H 0.29403 0.44719 0.57896 0.0
H433 H 0.13853 0.66148 0.48133 0.0
H434 H 0.38192 0.39744 0.43147 0.0
H435 H 0.02927 0.50964 0.33705 0.0
H436 H 0.3911 0.41515 0.54722 0.0
H437 H 0.06013 0.13726 0.27394 0.0
H438 H 0.11884 0.45815 0.34972 0.0
H439 H 0.9178 0.03402 0.25806 0.0
H440 H 0.21352 0.51411 0.57837 0.0
H441 H 0.90336 0.43453 0.29815 0.0
H442 H 0.80277 0.30542 0.27098 0.0
H443 H 0.16044 0.6035 0.54652 0.0
H444 H 0.76478 0.16992 0.25904 0.0
N445 N 0.06595 0.36351 0.30995 0.0
C446 C 0.07532 0.42982 0.32775 0.0
C447 C 0.948 0.41433 0.30112 0.0
C448 C 0.92978 0.34078 0.28826 0.0
C449 C 0.01961 0.45747 0.32248 0.0
C450 C 0.99034 0.31678 0.293 0.0
H451 H 0.80472 0.06644 0.2565 0.0
N452 N 0.02765 0.21963 0.28966 0.0
C453 C 0.93028 0.09152 0.26607 0.0
C454 C 0.96947 0.24155 0.28433 0.0
C455 C 0.01047 0.14817 0.2773 0.0
C456 C 0.86747 0.1105 0.26447 0.0
C457 C 0.8875 0.18731 0.27175 0.0
O458 O 0.18582 0.2486 0.26672 0.0
O459 O 0.26204 0.38851 0.35484 0.0
O460 O 0.25202 0.48765 0.36946 0.0
O461 O 0.22359 0.43766 0.30926 0.0
O462 O 0.29681 0.3289 0.32468 0.0
O463 O 0.20138 0.3621 0.25957 0.0
O464 O 0.08867 0.29464 0.43804 0.0
O465 O 0.0999 0.27998 0.36445 0.0
O466 O 0.16764 0.21078 0.34352 0.0
O467 O 0.24505 0.28889 0.39386 0.0
O468 O 0.06612 0.35146 0.39066 0.0
O469 O 0.20045 0.29146 0.4462 0.0
C470 C 0.32946 0.39166 0.34581 0.0
C471 C 0.16503 0.28181 0.20553 0.0
C472 C 0.16645 0.31656 0.14163 0.0
C473 C 0.19706 0.33744 0.17819 0.0
C474 C 0.10164 0.241 0.13292 0.0
C475 C 0.10156 0.20626 0.19543 0.0
C476 C 0.06932 0.18645 0.15966 0.0
C477 C 0.25496 0.49771 0.33248 0.0
C478 C 0.20078 0.30271 0.24373 0.0
C479 C 0.82807 0.21096 0.2672 0.0
C480 C 0.84979 0.28818 0.27425 0.0
C481 C 0.0372 0.2873 0.37064 0.0
C482 C 0.1116 0.26139 0.49741 0.0
C483 C 0.1165 0.20874 0.52232 0.0
C484 C 0.10297 0.21583 0.56014 0.0
C485 C 0.09662 0.28041 0.57227 0.0
C486 C 0.08799 0.3132 0.51124 0.0
C487 C 0.08741 0.32723 0.54799 0.0
C488 C 0.21122 0.22108 0.37481 0.0
C489 C 0.12535 0.2645 0.45704 0.0
H490 H 0.24632 0.39619 0.18519 0.0
H491 H 0.07657 0.22399 0.10519 0.0
H492 H 0.07716 0.16183 0.21488 0.0
H493 H 0.01977 0.12807 0.15249 0.0
H494 H 0.12836 0.16315 0.51261 0.0
H495 H 0.09409 0.29268 0.60086 0.0
H496 H 0.0708 0.34389 0.493 0.0
H497 H 0.07527 0.37253 0.55776 0.0
Eu498 Eu 0.74039 0.85182 0.31274 0.0
C499 C 0.45424 0.74619 0.42006 0.0
C500 C 0.41542 0.88487 0.47214 0.0
C501 C 0.32631 0.73253 0.49401 0.0
C502 C 0.47719 0.83403 0.42188 0.0
C503 C 0.38487 0.6858 0.44653 0.0
C504 C 0.34752 0.82007 0.49867 0.0
C505 C 0.45211 0.6069 0.43423 0.0
N506 N 0.51968 0.73362 0.41341 0.0
C507 C 0.52214 0.67077 0.42624 0.0
C508 C 0.38195 0.61199 0.43754 0.0
Eu509 Eu 0.65175 0.8308 0.39851 0.0
N510 N 0.57454 0.89509 0.41704 0.0
C511 C 0.62979 0.97881 0.439 0.0
C512 C 0.49644 0.98073 0.48952 0.0
C513 C 0.59649 0.02088 0.47286 0.0
H514 H 0.57759 0.66643 0.42602 0.0
H515 H 0.64091 0.07893 0.48206 0.0
H516 H 0.32644 0.83879 0.52191 0.0
H517 H 0.45297 0.5532 0.43768 0.0
H518 H 0.69275 0.01301 0.43426 0.0
H519 H 0.82664 0.60619 0.3141 0.0
H520 H 0.44492 0.93093 0.48393 0.0
H521 H 0.91488 0.96664 0.37212 0.0
H522 H 0.76392 0.68219 0.3356 0.0
H523 H 0.05284 0.06868 0.36096 0.0
H524 H 0.29029 0.70521 0.5174 0.0
H525 H 0.95648 0.67411 0.22505 0.0
H526 H 0.04662 0.80549 0.19583 0.0
H527 H 0.33584 0.55664 0.44284 0.0
H528 H 0.12446 0.94267 0.21355 0.0
N529 N 0.81708 0.78096 0.29884 0.0
C530 C 0.80587 0.70755 0.31394 0.0
C531 C 0.92426 0.69796 0.24094 0.0
C532 C 0.93534 0.77938 0.22944 0.0
C533 C 0.84342 0.65675 0.29738 0.0
C534 C 0.87277 0.82565 0.27066 0.0
H535 H 0.11266 0.08156 0.30424 0.0
N536 N 0.88757 0.9227 0.31721 0.0
C537 C 0.01808 0.02567 0.33938 0.0
C538 C 0.92032 0.91124 0.28749 0.0
C539 C 0.93851 0.96813 0.3455 0.0
C540 C 0.0526 0.03054 0.30581 0.0
C541 C 0.01546 0.96875 0.27751 0.0
O542 O 0.75535 0.9202 0.26588 0.0
O543 O 0.62388 0.8312 0.34063 0.0
O544 O 0.56743 0.71533 0.36287 0.0
O545 O 0.65103 0.72029 0.31625 0.0
O546 O 0.66874 0.91901 0.30672 0.0
O547 O 0.6844 0.79548 0.2578 0.0
O548 O 0.63463 0.82021 0.45638 0.0
O549 O 0.76681 0.84415 0.3716 0.0
O550 O 0.80621 0.97581 0.33844 0.0
O551 O 0.72038 0.95921 0.38544 0.0
O552 O 0.69876 0.74537 0.39905 0.0
O553 O 0.7589 0.88663 0.43882 0.0
C554 C 0.60617 0.87897 0.32632 0.0
C555 C 0.72244 0.8757 0.20343 0.0
C556 C 0.69 0.83401 0.13876 0.0
C557 C 0.67003 0.82033 0.17578 0.0
C558 C 0.76357 0.90086 0.13011 0.0
C559 C 0.78882 0.94661 0.19268 0.0
C560 C 0.81144 0.95735 0.15672 0.0
C561 C 0.58377 0.68062 0.33522 0.0
C562 C 0.709 0.86253 0.24315 0.0
C563 C 0.07278 0.91359 0.22952 0.0
C564 C 0.01994 0.82999 0.21356 0.0
C565 C 0.76812 0.78492 0.38351 0.0
C566 C 0.73979 0.83366 0.49822 0.0
C567 C 0.79606 0.88637 0.52578 0.0
C568 C 0.81542 0.85768 0.55733 0.0
C569 C 0.77664 0.77691 0.5606 0.0
C570 C 0.70146 0.75323 0.50327 0.0
C571 C 0.72066 0.72516 0.53406 0.0
C572 C 0.79021 0.00174 0.36888 0.0
C573 C 0.71241 0.8617 0.46666 0.0
H574 H 0.61356 0.76892 0.18281 0.0
H575 H 0.78012 0.91257 0.10205 0.0
H576 H 0.82735 -0.00779 0.21212 0.0
H577 H 0.86611 0.01012 0.14945 0.0
H578 H 0.82234 0.94859 0.52321 0.0
H579 H 0.78633 0.754 0.58499 0.0
H580 H 0.65609 0.71176 0.48342 0.0
H581 H 0.69042 0.66307 0.53786 0.0
Eu582 Eu 0.19495 0.79491 0.39965 0.0
C583 C 0.00856 0.85569 0.2784 0.0
C584 C 0.80762 0.69829 0.24824 0.0
C585 C 0.86029 0.84218 0.20518 0.0
C586 C 0.94932 0.77169 0.29007 0.0
C587 C 0.94964 0.90316 0.22596 0.0
C588 C 0.79386 0.75199 0.21554 0.0
C589 C 0.12537 0.04679 0.24068 0.0
N590 N 0.10146 0.91424 0.29046 0.0
C591 C 0.15869 0.00136 0.27508 0.0
C592 C 0.02562 0.00012 0.21628 0.0
Eu593 Eu 0.14414 0.8215 0.30865 0.0
N594 N 0.99016 0.71945 0.29777 0.0
C595 C 0.95004 0.62733 0.28514 0.0
C596 C 0.78475 0.59765 0.2402 0.0
C597 C 0.85527 0.56798 0.25813 0.0
H598 H 0.22357 0.03301 0.28402 0.0
H599 H 0.83968 0.50839 0.25195 0.0
H600 H 0.74272 0.71953 0.19592 0.0
H601 H 0.17061 0.10445 0.23294 0.0
H602 H 0.98496 0.59809 0.29083 0.0
H603 H 0.52784 0.00979 0.41679 0.0
H604 H 0.78444 0.64907 0.241 0.0
H605 H 0.03069 0.59285 0.4042 0.0
H606 H 0.39158 0.94476 0.39007 0.0
H607 H 0.97386 0.47096 0.44144 0.0
H608 H 0.84972 0.85811 0.17886 0.0
H609 H 0.58906 0.90329 0.49374 0.0
H610 H 0.49338 0.72641 0.52549 0.0
H611 H 0.01271 0.02912 0.19465 0.0
H612 H 0.35372 0.58859 0.52238 0.0
N613 N 0.33768 0.82937 0.41412 0.0
C614 C 0.40408 0.90896 0.40782 0.0
C615 C 0.53339 0.88392 0.47591 0.0
C616 C 0.45881 0.79669 0.48014 0.0
C617 C 0.4929 0.95105 0.4273 0.0
C618 C 0.34087 0.77091 0.43703 0.0
H619 H 0.06382 0.4413 0.4891 0.0
N620 N 0.17073 0.66573 0.42098 0.0
C621 C 0.03992 0.51125 0.44424 0.0
C622 C 0.25464 0.67981 0.43875 0.0
C623 C 0.07903 0.59395 0.42132 0.0
C624 C 0.09851 0.48932 0.47213 0.0
C625 C 0.25802 0.60112 0.47415 0.0
O626 O 0.13579 0.84278 0.43563 0.0
O627 O 0.09789 0.80952 0.36555 0.0
O628 O 0.16662 0.93082 0.34161 0.0
O629 O 0.25557 0.9235 0.38488 0.0
O630 O 0.05937 0.71198 0.39338 0.0
O631 O 0.23723 0.83249 0.45605 0.0
O632 O 0.2353 0.8565 0.26803 0.0
O633 O 0.24218 0.81185 0.34348 0.0
O634 O 0.19066 0.69759 0.36765 0.0
O635 O 0.10777 0.69622 0.31953 0.0
O636 O 0.28849 0.89538 0.30931 0.0
O637 O 0.11188 0.775 0.2509 0.0
C638 C 0.03218 0.75084 0.37589 0.0
C639 C 0.13639 0.81489 0.49747 0.0
C640 C 0.12692 0.80576 0.56369 0.0
C641 C 0.16027 0.85151 0.5329 0.0
C642 C 0.08091 0.72379 0.55741 0.0
C643 C 0.07276 0.73775 0.49354 0.0
C644 C 0.04803 0.69131 0.5232 0.0
C645 C 0.22061 0.96181 0.37003 0.0
C646 C 0.18131 0.85034 0.46447 0.0
C647 C 0.35025 0.62814 0.50416 0.0
C648 C 0.44369 0.71874 0.50668 0.0
C649 C 0.31244 0.85884 0.33112 0.0
C650 C 0.20721 0.85921 0.20635 0.0
C651 C 0.19076 0.82354 0.1708 0.0
C652 C 0.20116 0.86927 0.13986 0.0
C653 C 0.21792 0.94662 0.14652 0.0
C654 C 0.24701 0.94076 0.20959 0.0
C655 C 0.2489 0.98382 0.18012 0.0
C656 C 0.15146 0.66861 0.33597 0.0
C657 C 0.1878 0.81572 0.24059 0.0
H658 H 0.20344 0.91338 0.5362 0.0
H659 H 0.06447 0.68403 0.57938 0.0
H660 H 0.05262 0.70974 0.46697 0.0
H661 H 0.00668 0.62914 0.51939 0.0
H662 H 0.17114 0.76222 0.16763 0.0
H663 H 0.21207 0.98106 0.12548 0.0
H664 H 0.26625 0.97122 0.23589 0.0
H665 H 0.26845 0.04502 0.18414 0.0
Eu666 Eu 0.83111 0.64386 0.64574 0.0
C667 C 0.87989 0.80132 0.81509 0.0
C668 C 0.96547 0.76936 0.85392 0.0
C669 C 0.8907 0.8263 0.88616 0.0
C670 C 0.93224 0.77146 0.81939 0.0
C671 C 0.86335 0.84275 0.85359 0.0
C672 C 0.93868 0.78886 0.88617 0.0
C673 C 0.81649 0.94707 0.8136 0.0
N674 N 0.86524 0.81465 0.77412 0.0
C675 C 0.84217 0.87807 0.76029 0.0
C676 C 0.8322 0.91194 0.85425 0.0
Eu677 Eu 0.86032 0.70434 0.73915 0.0
N678 N 0.95945 0.75395 0.78839 0.0
C679 C 0.02708 0.74393 0.78954 0.0
C680 C 0.03068 0.75256 0.85508 0.0
C681 C 0.06553 0.74618 0.82298 0.0
H682 H 0.83566 0.88265 0.73122 0.0
H683 H 0.12118 0.74193 0.82409 0.0
H684 H 0.96069 0.78052 0.91229 0.0
H685 H 0.8052 -0.00518 0.81467 0.0
H686 H 0.04859 0.73077 0.7648 0.0
H687 H 0.69594 0.84297 0.67038 0.0
H688 H 0.05777 0.74849 0.88055 0.0
H689 H 0.7268 0.4706 0.60727 0.0
H690 H 0.78551 0.79148 0.68306 0.0
H691 H 0.58447 0.36736 0.5914 0.0
H692 H 0.88018 0.84744 0.91171 0.0
H693 H 0.57003 0.76786 0.63148 0.0
H694 H 0.46944 0.63876 0.60431 0.0
H695 H 0.8271 0.93684 0.87985 0.0
H696 H 0.43145 0.50325 0.59237 0.0
N697 N 0.73262 0.69684 0.64328 0.0
C698 C 0.74199 0.76316 0.66108 0.0
C699 C 0.61467 0.74766 0.63446 0.0
C700 C 0.59645 0.67411 0.62159 0.0
C701 C 0.68628 0.79081 0.65581 0.0
C702 C 0.65701 0.65011 0.62633 0.0
H703 H 0.47139 0.39978 0.58983 0.0
N704 N 0.69432 0.55296 0.623 0.0
C705 C 0.59695 0.42485 0.5994 0.0
C706 C 0.63614 0.57488 0.61766 0.0
C707 C 0.67714 0.48151 0.61063 0.0
C708 C 0.53414 0.44383 0.5978 0.0
C709 C 0.55417 0.52065 0.60509 0.0
O710 O 0.85249 0.58193 0.60005 0.0
O711 O 0.92871 0.72184 0.68817 0.0
O712 O 0.91869 0.82098 0.70279 0.0
O713 O 0.89026 0.77099 0.6426 0.0
O714 O 0.96348 0.66223 0.65801 0.0
O715 O 0.86805 0.69543 0.5929 0.0
O716 O 0.75534 0.62797 0.77137 0.0
O717 O 0.76657 0.61331 0.69778 0.0
O718 O 0.83431 0.54412 0.67685 0.0
O719 O 0.91171 0.62222 0.7272 0.0
O720 O 0.73279 0.68479 0.72399 0.0
O721 O 0.86712 0.62479 0.77953 0.0
C722 C 0.99613 0.725 0.67914 0.0
C723 C 0.8317 0.61514 0.53887 0.0
C724 C 0.83312 0.6499 0.47497 0.0
C725 C 0.86373 0.67078 0.51152 0.0
C726 C 0.76831 0.57434 0.46625 0.0
C727 C 0.76823 0.53959 0.52876 0.0
C728 C 0.73599 0.51979 0.493 0.0
C729 C 0.92163 0.83104 0.66581 0.0
C730 C 0.86745 0.63604 0.57706 0.0
C731 C 0.49474 0.54429 0.60054 0.0
C732 C 0.51646 0.62152 0.60758 0.0
C733 C 0.70387 0.62063 0.70397 0.0
C734 C 0.77826 0.59472 0.83074 0.0
C735 C 0.78316 0.54207 0.85565 0.0
C736 C 0.76963 0.54917 0.89348 0.0
C737 C 0.76327 0.61374 0.9056 0.0
C738 C 0.75465 0.64653 0.84457 0.0
C739 C 0.75407 0.66057 0.88132 0.0
C740 C 0.87788 0.55441 0.70815 0.0
C741 C 0.79201 0.59783 0.79038 0.0
H742 H 0.91299 0.72953 0.51852 0.0
H743 H 0.74324 0.55733 0.43852 0.0
H744 H 0.74383 0.49516 0.54821 0.0
H745 H 0.68644 0.46141 0.48582 0.0
H746 H 0.79503 0.49648 0.84594 0.0
H747 H 0.76075 0.62602 0.93419 0.0
H748 H 0.73746 0.67722 0.82633 0.0
H749 H 0.74192 0.70586 0.89109 0.0
Eu750 Eu 0.40706 0.18515 0.64607 0.0
C751 C 0.1209 0.07952 0.75339 0.0
C752 C 0.08209 0.2182 0.80547 0.0
C753 C 0.99298 0.06586 0.82734 0.0
C754 C 0.14386 0.16736 0.75521 0.0
C755 C 0.05154 0.01913 0.77986 0.0
C756 C 0.01419 0.1534 0.832 0.0
C757 C 0.11878 0.94023 0.76756 0.0
N758 N 0.18634 0.06695 0.74674 0.0
C759 C 0.1888 0.0041 0.75957 0.0
C760 C 0.04861 0.94532 0.77088 0.0
Eu761 Eu 0.31841 0.16413 0.73184 0.0
N762 N 0.2412 0.22842 0.75037 0.0
C763 C 0.29646 0.31214 0.77233 0.0
C764 C 0.16311 0.31406 0.82285 0.0
C765 C 0.26316 0.35421 0.80619 0.0
H766 H 0.24425 -0.00024 0.75936 0.0
H767 H 0.30758 0.41226 0.8154 0.0
H768 H 0.99311 0.17213 0.85524 0.0
H769 H 0.11964 0.88653 0.77101 0.0
H770 H 0.35942 0.34634 0.76759 0.0
H771 H 0.49332 0.93952 0.64744 0.0
H772 H 0.11159 0.26426 0.81726 0.0
H773 H 0.58155 0.29997 0.70545 0.0
H774 H 0.43059 0.01553 0.66893 0.0
H775 H 0.71951 0.40201 0.69429 0.0
H776 H 0.95696 0.03854 0.85073 0.0
H777 H 0.62316 0.00744 0.55838 0.0
H778 H 0.71329 0.13883 0.52916 0.0
H779 H 0.00251 0.88997 0.77618 0.0
H780 H 0.79114 0.27601 0.54688 0.0
N781 N 0.48375 0.11429 0.63217 0.0
C782 C 0.47254 0.04088 0.64727 0.0
C783 C 0.59093 0.03129 0.57427 0.0
C784 C 0.60201 0.11272 0.56277 0.0
C785 C 0.51009 -0.00992 0.63072 0.0
C786 C 0.53944 0.15899 0.60399 0.0
H787 H 0.77933 0.41489 0.63757 0.0
N788 N 0.55424 0.25603 0.65054 0.0
C789 C 0.68475 0.359 0.67272 0.0
C790 C 0.58699 0.24457 0.62082 0.0
C791 C 0.60518 0.30147 0.67884 0.0
C792 C 0.71926 0.36388 0.63914 0.0
C793 C 0.68213 0.30209 0.61084 0.0
O794 O 0.42202 0.25353 0.59921 0.0
O795 O 0.29054 0.16453 0.67396 0.0
O796 O 0.2341 0.04866 0.69621 0.0
O797 O 0.3177 0.05362 0.64958 0.0
O798 O 0.33541 0.25235 0.64005 0.0
O799 O 0.35107 0.12881 0.59113 0.0
O800 O 0.30129 0.15354 0.78971 0.0
O801 O 0.43348 0.17748 0.70493 0.0
O802 O 0.47288 0.30914 0.67178 0.0
O803 O 0.38705 0.29254 0.71877 0.0
O804 O 0.36543 0.0787 0.73238 0.0
O805 O 0.42556 0.21996 0.77215 0.0
C806 C 0.27284 0.2123 0.65966 0.0
C807 C 0.38911 0.20903 0.53677 0.0
C808 C 0.35667 0.16734 0.4721 0.0
C809 C 0.3367 0.15366 0.50911 0.0
C810 C 0.43024 0.2342 0.46344 0.0
C811 C 0.45549 0.27994 0.52601 0.0
C812 C 0.47811 0.29069 0.49006 0.0
C813 C 0.25044 0.01396 0.66855 0.0
C814 C 0.37567 0.19586 0.57648 0.0
C815 C 0.73945 0.24693 0.56286 0.0
C816 C 0.68661 0.16332 0.5469 0.0
C817 C 0.43478 0.11825 0.71685 0.0
C818 C 0.40646 0.16699 0.83156 0.0
C819 C 0.46272 0.2197 0.85912 0.0
C820 C 0.48208 0.19101 0.89066 0.0
C821 C 0.4433 0.11024 0.89393 0.0
C822 C 0.36813 0.08656 0.83661 0.0
C823 C 0.38732 0.05849 0.86739 0.0
C824 C 0.45688 0.33507 0.70221 0.0
C825 C 0.37907 0.19503 0.8 0.0
H826 H 0.28023 0.10225 0.51614 0.0
H827 H 0.44679 0.2459 0.43538 0.0
H828 H 0.49402 0.32554 0.54546 0.0
H829 H 0.53278 0.34346 0.48279 0.0
H830 H 0.48901 0.28192 0.85654 0.0
H831 H 0.45298 0.08732 0.91832 0.0
H832 H 0.32275 0.04509 0.81675 0.0
H833 H 0.35708 -0.00361 0.87119 0.0
Eu834 Eu 0.86162 0.12824 0.73298 0.0
C835 C 0.67523 0.18902 0.61173 0.0
C836 C 0.47429 0.03162 0.58157 0.0
C837 C 0.52696 0.17551 0.53851 0.0
C838 C 0.61599 0.10502 0.6234 0.0
C839 C 0.61631 0.2365 0.5593 0.0
C840 C 0.46053 0.08533 0.54887 0.0
C841 C 0.79204 0.38013 0.57401 0.0
N842 N 0.76813 0.24758 0.6238 0.0
C843 C 0.82536 0.33469 0.60841 0.0
C844 C 0.69229 0.33346 0.54961 0.0
Eu845 Eu 0.81081 0.15483 0.64198 0.0
N846 N 0.65683 0.05278 0.6311 0.0
C847 C 0.61671 0.96067 0.61847 0.0
C848 C 0.45142 0.93098 0.57353 0.0
C849 C 0.52195 0.90132 0.59147 0.0
H850 H 0.89024 0.36635 0.61735 0.0
H851 H 0.50635 0.84172 0.58528 0.0
H852 H 0.40939 0.05287 0.52925 0.0
H853 H 0.83728 0.43779 0.56628 0.0
H854 H 0.65164 0.93143 0.62416 0.0
H855 H 0.19451 0.34312 0.75012 0.0
H856 H 0.45111 0.98241 0.57433 0.0
H857 H 0.69736 0.92619 0.73753 0.0
H858 H 0.05825 0.27809 0.7234 0.0
H859 H 0.64052 0.80429 0.77477 0.0
H860 H 0.51639 0.19144 0.51219 0.0
H861 H 0.25573 0.23662 0.82708 0.0
H862 H 0.16004 0.05974 0.85882 0.0
H863 H 0.67938 0.36246 0.52798 0.0
H864 H 0.02039 0.92192 0.85571 0.0
N865 N 0.00435 0.1627 0.74745 0.0
C866 C 0.07075 0.24229 0.74115 0.0
C867 C 0.20005 0.21725 0.80925 0.0
C868 C 0.12548 0.13002 0.81348 0.0
C869 C 0.15957 0.28438 0.76064 0.0
C870 C 0.00754 0.10424 0.77036 0.0
H871 H 0.73049 0.77464 0.82244 0.0
N872 N 0.8374 -0.00094 0.75432 0.0
C873 C 0.70659 0.84458 0.77757 0.0
C874 C 0.92131 0.01314 0.77208 0.0
C875 C 0.7457 0.92729 0.75465 0.0
C876 C 0.76517 0.82265 0.80546 0.0
C877 C 0.92469 0.93445 0.80749 0.0
O878 O 0.80246 0.17612 0.76896 0.0
O879 O 0.76456 0.14286 0.69889 0.0
O880 O 0.83329 0.26415 0.67495 0.0
O881 O 0.92224 0.25684 0.71821 0.0
O882 O 0.72604 0.04531 0.72672 0.0
O883 O 0.90389 0.16582 0.78938 0.0
O884 O 0.90197 0.18984 0.60136 0.0
O885 O 0.90885 0.14519 0.67681 0.0
O886 O 0.85733 0.03093 0.70099 0.0
O887 O 0.77445 0.02955 0.65286 0.0
O888 O 0.95516 0.22871 0.64264 0.0
O889 O 0.77855 0.10834 0.58423 0.0
C890 C 0.69885 0.08418 0.70922 0.0
C891 C 0.80305 0.14822 0.8308 0.0
C892 C 0.79358 0.13909 0.89702 0.0
C893 C 0.82693 0.18485 0.86623 0.0
C894 C 0.74757 0.05712 0.89074 0.0
C895 C 0.73943 0.07108 0.82687 0.0
C896 C 0.7147 0.02464 0.85654 0.0
C897 C 0.88728 0.29514 0.70336 0.0
C898 C 0.84798 0.18367 0.79781 0.0
C899 C 0.01691 0.96147 0.8375 0.0
C900 C 0.11035 0.05208 0.84001 0.0
C901 C 0.97911 0.19218 0.66445 0.0
C902 C 0.87388 0.19255 0.53968 0.0
C903 C 0.85744 0.15688 0.50413 0.0
C904 C 0.86784 0.20261 0.4732 0.0
C905 C 0.88459 0.27996 0.47986 0.0
C906 C 0.91368 0.2741 0.54292 0.0
C907 C 0.91558 0.31715 0.51345 0.0
C908 C 0.81813 0.00194 0.6693 0.0
C909 C 0.85448 0.14906 0.57392 0.0
H910 H 0.8701 0.24671 0.86953 0.0
H911 H 0.73113 0.01736 0.91272 0.0
H912 H 0.71929 0.04307 0.8003 0.0
H913 H 0.67334 0.96247 0.85272 0.0
H914 H 0.83782 0.09555 0.50096 0.0
H915 H 0.87874 0.3144 0.45881 0.0
H916 H 0.93292 0.30456 0.56922 0.0
H917 H 0.93512 0.37836 0.51747 0.0
loop_
_geom_bond_atom_site_label_1
_geom_bond_atom_site_label_2
_geom_bond_distance
_geom_bond_site_symmetry_2
_ccdc_geom_bond_type
H0 C3 0.931 . S
H1 C6 0.928 . S
H2 C8 0.930 . S
C3 H0 0.931 . S
C3 C4 1.413 . S
C3 C5 1.360 . S
C4 C3 1.413 . S
C4 C8 1.429 . S
C5 C3 1.360 . S
C5 C6 1.372 . S
C6 H1 0.928 . S
C6 C5 1.372 . S
C6 C7 1.404 . S
C7 C6 1.404 . S
C7 C8 1.391 . S
C8 H2 0.930 . S
C8 C4 1.429 . S
C8 C7 1.391 . S
H9 C12 0.931 . S
H10 C15 0.928 . S
H11 C17 0.930 . S
C12 H9 0.931 . S
C12 C13 1.413 . S
C12 C14 1.360 . S
C13 C12 1.413 . S
C13 C17 1.429 . S
C14 C12 1.360 . S
C14 C15 1.372 . S
C15 H10 0.928 . S
C15 C14 1.372 . S
C15 C16 1.404 . S
C16 C15 1.404 . S
C16 C17 1.391 . S
C17 H11 0.930 . S
C17 C13 1.429 . S
C17 C16 1.391 . S
H18 C21 0.931 . S
H19 C24 0.928 . S
H20 C26 0.930 . S
C21 H18 0.931 . S
C21 C22 1.413 . S
C21 C23 1.360 . S
C22 C21 1.413 . S
C22 C26 1.429 . S
C23 C21 1.360 . S
C23 C24 1.372 . S
C24 H19 0.928 . S
C24 C23 1.372 . S
C24 C25 1.404 . S
C25 C24 1.404 . S
C25 C26 1.391 . S
C26 H20 0.930 . S
C26 C22 1.429 . S
C26 C25 1.391 . S
H27 C30 0.931 . S
H28 C33 0.928 . S
H29 C35 0.930 . S
C30 H27 0.931 . S
C30 C31 1.413 . S
C30 C32 1.360 . S
C31 C30 1.413 . S
C31 C35 1.429 . S
C32 C30 1.360 . S
C32 C33 1.372 . S
C33 H28 0.928 . S
C33 C32 1.372 . S
C33 C34 1.404 . S
C34 C33 1.404 . S
C34 C35 1.391 . S
C35 H29 0.930 . S
C35 C31 1.429 . S
C35 C34 1.391 . S
H36 C39 0.931 . S
H37 C42 0.928 . S
H38 C44 0.930 . S
C39 H36 0.931 . S
C39 C40 1.413 . S
C39 C41 1.360 . S
C40 C39 1.413 . S
C40 C44 1.429 . S
C41 C39 1.360 . S
C41 C42 1.372 . S
C42 H37 0.928 . S
C42 C41 1.372 . S
C42 C43 1.404 . S
C43 C42 1.404 . S
C43 C44 1.391 . S
C44 H38 0.930 . S
C44 C40 1.429 . S
C44 C43 1.391 . S
H45 C48 0.931 . S
H46 C51 0.928 . S
H47 C53 0.930 . S
C48 H45 0.931 . S
C48 C49 1.413 . S
C48 C50 1.360 . S
C49 C48 1.413 . S
C49 C53 1.429 . S
C50 C48 1.360 . S
C50 C51 1.372 . S
C51 H46 0.928 . S
C51 C50 1.372 . S
C51 C52 1.404 . S
C52 C51 1.404 . S
C52 C53 1.391 . S
C53 H47 0.930 . S
C53 C49 1.429 . S
C53 C52 1.391 . S
H54 C57 0.931 . S
H55 C60 0.928 . S
H56 C62 0.930 . S
C57 H54 0.931 . S
C57 C58 1.413 . S
C57 C59 1.360 . S
C58 C57 1.413 . S
C58 C62 1.429 . S
C59 C57 1.360 . S
C59 C60 1.372 . S
C60 H55 0.928 . S
C60 C59 1.372 . S
C60 C61 1.404 . S
C61 C60 1.404 . S
C61 C62 1.391 . S
C62 H56 0.930 . S
C62 C58 1.429 . S
C62 C61 1.391 . S
H63 C66 0.931 . S
H64 C69 0.928 . S
H65 C71 0.930 . S
C66 H63 0.931 . S
C66 C67 1.413 . S
C66 C68 1.360 . S
C67 C66 1.413 . S
C67 C71 1.429 . S
C68 C66 1.360 . S
C68 C69 1.372 . S
C69 H64 0.928 . S
C69 C68 1.372 . S
C69 C70 1.404 . S
C70 C69 1.404 . S
C70 C71 1.391 . S
C71 H65 0.930 . S
C71 C67 1.429 . S
C71 C70 1.391 . S
H72 C75 0.931 . S
H73 C78 0.928 . S
H74 C80 0.930 . S
C75 H72 0.931 . S
C75 C76 1.413 . S
C75 C77 1.360 . S
C76 C75 1.413 . S
C76 C80 1.429 . S
C77 C75 1.360 . S
C77 C78 1.372 . S
C78 H73 0.928 . S
C78 C77 1.372 . S
C78 C79 1.404 . S
C79 C78 1.404 . S
C79 C80 1.391 . S
C80 H74 0.930 . S
C80 C76 1.429 . S
C80 C79 1.391 . S
H81 C84 0.931 . S
H82 C87 0.928 . S
H83 C89 0.930 1_554 S
C84 H81 0.931 . S
C84 C85 1.413 . S
C84 C86 1.360 . S
C85 C84 1.413 . S
C85 C89 1.429 . S
C86 C84 1.360 . S
C86 C87 1.372 . S
C87 H82 0.928 . S
C87 C86 1.372 . S
C87 C88 1.404 . S
C88 C87 1.404 . S
C88 C89 1.391 . S
C89 H83 0.930 1_556 S
C89 C85 1.429 . S
C89 C88 1.391 . S
H90 C93 0.931 . S
H91 C96 0.928 . S
H92 C98 0.930 1_554 S
C93 H90 0.931 . S
C93 C94 1.413 . S
C93 C95 1.360 . S
C94 C93 1.413 . S
C94 C98 1.429 . S
C95 C93 1.360 . S
C95 C96 1.372 . S
C96 H91 0.928 . S
C96 C95 1.372 . S
C96 C97 1.404 . S
C97 C96 1.404 . S
C97 C98 1.391 . S
C98 H92 0.930 1_556 S
C98 C94 1.429 . S
C98 C97 1.391 . S
H99 C102 0.931 . S
H100 C105 0.928 . S
H101 C107 0.930 1_554 S
C102 H99 0.931 . S
C102 C103 1.413 . S
C102 C104 1.360 . S
C103 C102 1.413 . S
C103 C107 1.429 . S
C104 C102 1.360 . S
C104 C105 1.372 . S
C105 H100 0.928 . S
C105 C104 1.372 . S
C105 C106 1.404 . S
C106 C105 1.404 . S
C106 C107 1.391 . S
C107 H101 0.930 1_556 S
C107 C103 1.429 . S
C107 C106 1.391 . S
H108 C111 0.931 . S
H109 C114 0.928 . S
H110 C116 0.930 . S
C111 H108 0.931 . S
C111 C112 1.413 . S
C111 C113 1.360 . S
C112 C111 1.413 . S
C112 C116 1.429 . S
C113 C111 1.360 . S
C113 C114 1.372 . S
C114 H109 0.928 . S
C114 C113 1.372 . S
C114 C115 1.404 . S
C115 C114 1.404 . S
C115 C116 1.391 . S
C116 H110 0.930 . S
C116 C112 1.429 . S
C116 C115 1.391 . S
H117 C120 0.931 . S
H118 C123 0.928 . S
H119 C125 0.930 . S
C120 H117 0.931 . S
C120 C121 1.413 . S
C120 C122 1.360 . S
C121 C120 1.413 . S
C121 C125 1.429 . S
C122 C120 1.360 . S
C122 C123 1.372 . S
C123 H118 0.928 . S
C123 C122 1.372 . S
C123 C124 1.404 . S
C124 C123 1.404 . S
C124 C125 1.391 . S
C125 H119 0.930 . S
C125 C121 1.429 . S
C125 C124 1.391 . S
H126 C129 0.931 . S
H127 C132 0.928 . S
H128 C134 0.930 . S
C129 H126 0.931 . S
C129 C130 1.413 . S
C129 C131 1.360 . S
C130 C129 1.413 . S
C130 C134 1.429 . S
C131 C129 1.360 . S
C131 C132 1.372 . S
C132 H127 0.928 . S
C132 C131 1.372 . S
C132 C133 1.404 . S
C133 C132 1.404 . S
C133 C134 1.391 . S
C134 H128 0.930 . S
C134 C130 1.429 . S
C134 C133 1.391 . S
H135 C138 0.931 . S
H136 C141 0.928 . S
H137 C143 0.930 . S
C138 H135 0.931 . S
C138 C139 1.413 . S
C138 C140 1.360 . S
C139 C138 1.413 . S
C139 C143 1.429 . S
C140 C138 1.360 . S
C140 C141 1.372 . S
C141 H136 0.928 . S
C141 C140 1.372 . S
C141 C142 1.404 . S
C142 C141 1.404 . S
C142 C143 1.391 . S
C143 H137 0.930 . S
C143 C139 1.429 . S
C143 C142 1.391 . S
H144 C147 0.931 . S
H145 C150 0.928 . S
H146 C152 0.930 . S
C147 H144 0.931 . S
C147 C148 1.413 . S
C147 C149 1.360 . S
C148 C147 1.413 . S
C148 C152 1.429 . S
C149 C147 1.360 . S
C149 C150 1.372 . S
C150 H145 0.928 . S
C150 C149 1.372 . S
C150 C151 1.404 . S
C151 C150 1.404 . S
C151 C152 1.391 . S
C152 H146 0.930 . S
C152 C148 1.429 . S
C152 C151 1.391 . S
H153 C156 0.931 . S
H154 C159 0.928 . S
H155 C161 0.930 . S
C156 H153 0.931 . S
C156 C157 1.413 . S
C156 C158 1.360 . S
C157 C156 1.413 . S
C157 C161 1.429 . S
C158 C156 1.360 . S
C158 C159 1.372 . S
C159 H154 0.928 . S
C159 C158 1.372 . S
C159 C160 1.404 . S
C160 C159 1.404 . S
C160 C161 1.391 . S
C161 H155 0.930 . S
C161 C157 1.429 . S
C161 C160 1.391 . S
Eu162 N193 2.657 . S
Eu162 N200 2.609 . S
Eu162 O206 2.558 . S
Eu162 O207 2.612 1_565 S
Eu162 O209 2.339 1_565 S
Eu162 O210 2.563 1_565 S
Eu162 O211 2.419 . S
Eu162 O213 2.380 1_556 S
Eu162 O214 2.432 . S
Eu162 C226 2.848 . S
C163 C166 1.429 . S
C163 C167 1.411 . S
C163 N170 1.377 . S
C164 C166 1.420 . S
C164 C168 1.423 . S
C164 C176 1.392 . S
C165 C167 1.420 . S
C165 C168 1.351 . S
C165 H188 0.931 . S
C166 C163 1.429 . S
C166 C164 1.420 . S
C166 N174 1.362 . S
C167 C163 1.411 . S
C167 C165 1.420 . S
C167 C172 1.395 . S
C168 C164 1.423 . S
C168 C165 1.351 . S
C168 H180 0.930 . S
C169 C171 1.400 . S
C169 C172 1.386 . S
C169 H181 0.930 . S
N170 C163 1.377 . S
N170 C171 1.321 . S
N170 Eu173 2.609 . S
C171 C169 1.400 . S
C171 N170 1.321 . S
C171 H178 0.930 . S
C172 C167 1.395 . S
C172 C169 1.386 . S
C172 H191 0.930 . S
Eu173 N170 2.609 . S
Eu173 N174 2.657 . S
Eu173 O207 2.380 1_554 S
Eu173 O208 2.432 . S
Eu173 O212 2.558 . S
Eu173 O213 2.612 1_545 S
Eu173 O215 2.339 1_545 S
Eu173 O216 2.563 1_545 S
Eu173 O217 2.419 . S
Eu173 C237 2.848 . S
N174 C166 1.362 . S
N174 Eu173 2.657 . S
N174 C175 1.334 . S
C175 N174 1.334 . S
C175 C177 1.413 . S
C175 H182 0.929 . S
C176 C164 1.392 . S
C176 C177 1.367 . S
C176 H184 0.930 . S
C177 C175 1.413 . S
C177 C176 1.367 . S
C177 H179 0.930 . S
H178 C171 0.930 . S
H179 C177 0.930 . S
H180 C168 0.930 . S
H181 C169 0.930 . S
H182 C175 0.929 . S
H183 C197 0.930 . S
H184 C176 0.930 . S
H185 C203 0.930 . S
H186 C194 0.929 . S
H187 C201 0.930 . S
H188 C165 0.931 . S
H189 C195 0.930 . S
H190 C228 0.930 . S
H191 C172 0.930 . S
H192 C227 0.931 . S
N193 Eu162 2.657 . S
N193 C194 1.334 . S
N193 C198 1.362 . S
C194 H186 0.929 . S
C194 N193 1.334 . S
C194 C197 1.413 . S
C195 H189 0.930 . S
C195 C196 1.392 . S
C195 C197 1.367 . S
C196 C195 1.392 . S
C196 C198 1.420 . S
C196 C228 1.423 . S
C197 H183 0.930 . S
C197 C194 1.413 . S
C197 C195 1.367 . S
C198 N193 1.362 . S
C198 C196 1.420 . S
C198 C202 1.429 . S
H199 C204 0.930 . S
N200 Eu162 2.609 . S
N200 C202 1.377 . S
N200 C203 1.321 . S
C201 H187 0.930 . S
C201 C203 1.400 . S
C201 C204 1.386 . S
C202 C198 1.429 . S
C202 N200 1.377 . S
C202 C205 1.411 . S
C203 H185 0.930 . S
C203 N200 1.321 . S
C203 C201 1.400 . S
C204 H199 0.930 . S
C204 C201 1.386 . S
C204 C205 1.395 . S
C205 C202 1.411 . S
C205 C204 1.395 . S
C205 C227 1.420 . S
O206 Eu162 2.558 . S
O206 C226 1.257 . S
O207 Eu162 2.612 1_545 S
O207 Eu173 2.380 1_556 S
O207 C218 1.276 . S
O208 Eu173 2.432 . S
O208 C225 1.264 1_554 S
O209 Eu162 2.339 1_545 S
O209 C225 1.254 . S
O210 Eu162 2.563 1_545 S
O210 C218 1.235 . S
O211 Eu162 2.419 . S
O211 C226 1.249 . S
O212 Eu173 2.558 . S
O212 C237 1.257 . S
O213 Eu162 2.380 1_554 S
O213 Eu173 2.612 1_565 S
O213 C229 1.276 . S
O214 Eu162 2.432 . S
O214 C236 1.264 1_556 S
O215 Eu173 2.339 1_565 S
O215 C236 1.254 . S
O216 Eu173 2.563 1_565 S
O216 C229 1.235 . S
O217 Eu173 2.419 . S
O217 C237 1.249 . S
C218 O207 1.276 . S
C218 O210 1.235 . S
C219 C221 1.393 1_565 S
C219 C223 1.395 . S
C219 C226 1.492 . S
C220 C221 1.392 . S
C220 C222 1.386 1_545 S
C221 C219 1.393 1_545 S
C221 C220 1.392 . S
C221 H238 0.930 . S
C222 C220 1.386 1_565 S
C222 C224 1.395 . S
C222 H239 0.930 . S
C223 C219 1.395 . S
C223 C224 1.379 . S
C223 H240 0.930 . S
C224 C222 1.395 . S
C224 C223 1.379 . S
C224 H241 0.930 . S
C225 O208 1.264 1_556 S
C225 O209 1.254 . S
C226 Eu162 2.848 . S
C226 O206 1.257 . S
C226 O211 1.249 . S
C226 C219 1.492 . S
C227 H192 0.931 . S
C227 C205 1.420 . S
C227 C228 1.351 . S
C228 H190 0.930 . S
C228 C196 1.423 . S
C228 C227 1.351 . S
C229 O213 1.276 . S
C229 O216 1.235 . S
C230 C231 1.393 1_545 S
C230 C234 1.395 . S
C230 C237 1.492 . S
C231 C230 1.393 1_565 S
C231 C232 1.392 . S
C231 H242 0.930 . S
C232 C231 1.392 . S
C232 C233 1.386 1_565 S
C233 C232 1.386 1_545 S
C233 C235 1.395 . S
C233 H243 0.930 . S
C234 C230 1.395 . S
C234 C235 1.379 . S
C234 H244 0.930 . S
C235 C233 1.395 . S
C235 C234 1.379 . S
C235 H245 0.930 . S
C236 O214 1.264 1_554 S
C236 O215 1.254 . S
C237 Eu173 2.848 . S
C237 O212 1.257 . S
C237 O217 1.249 . S
C237 C230 1.492 . S
H238 C221 0.930 . S
H239 C222 0.930 . S
H240 C223 0.930 . S
H241 C224 0.930 . S
H242 C231 0.930 . S
H243 C233 0.930 . S
H244 C234 0.930 . S
H245 C235 0.930 . S
Eu246 N277 2.657 . S
Eu246 N284 2.609 . S
Eu246 O290 2.558 . S
Eu246 O291 2.612 1_455 S
Eu246 O293 2.339 1_455 S
Eu246 O294 2.563 1_455 S
Eu246 O295 2.419 . S
Eu246 O297 2.380 1_556 S
Eu246 O298 2.432 . S
Eu246 C310 2.848 . S
C247 C250 1.429 . S
C247 C251 1.411 . S
C247 N254 1.377 . S
C248 C250 1.420 . S
C248 C252 1.423 . S
C248 C260 1.392 . S
C249 C251 1.420 . S
C249 C252 1.351 . S
C249 H272 0.931 . S
C250 C247 1.429 . S
C250 C248 1.420 . S
C250 N258 1.362 . S
C251 C247 1.411 . S
C251 C249 1.420 . S
C251 C256 1.395 . S
C252 C248 1.423 . S
C252 C249 1.351 . S
C252 H264 0.930 . S
C253 C255 1.400 . S
C253 C256 1.386 . S
C253 H265 0.930 . S
N254 C247 1.377 . S
N254 C255 1.321 . S
N254 Eu257 2.609 . S
C255 C253 1.400 . S
C255 N254 1.321 . S
C255 H262 0.930 . S
C256 C251 1.395 . S
C256 C253 1.386 . S
C256 H275 0.930 . S
Eu257 N254 2.609 . S
Eu257 N258 2.657 . S
Eu257 O291 2.380 1_554 S
Eu257 O292 2.432 . S
Eu257 O296 2.558 . S
Eu257 O297 2.612 1_655 S
Eu257 O299 2.339 1_655 S
Eu257 O300 2.563 1_655 S
Eu257 O301 2.419 . S
Eu257 C321 2.848 . S
N258 C250 1.362 . S
N258 Eu257 2.657 . S
N258 C259 1.334 . S
C259 N258 1.334 . S
C259 C261 1.413 . S
C259 H266 0.929 . S
C260 C248 1.392 . S
C260 C261 1.367 . S
C260 H268 0.930 . S
C261 C259 1.413 . S
C261 C260 1.367 . S
C261 H263 0.930 . S
H262 C255 0.930 . S
H263 C261 0.930 . S
H264 C252 0.930 . S
H265 C253 0.930 . S
H266 C259 0.929 . S
H267 C281 0.930 . S
H268 C260 0.930 . S
H269 C287 0.930 . S
H270 C278 0.929 . S
H271 C285 0.930 . S
H272 C249 0.931 . S
H273 C279 0.930 . S
H274 C312 0.930 . S
H275 C256 0.930 . S
H276 C311 0.931 . S
N277 Eu246 2.657 . S
N277 C278 1.334 . S
N277 C282 1.362 . S
C278 H270 0.929 . S
C278 N277 1.334 . S
C278 C281 1.413 . S
C279 H273 0.930 . S
C279 C280 1.392 . S
C279 C281 1.367 . S
C280 C279 1.392 . S
C280 C282 1.420 . S
C280 C312 1.423 . S
C281 H267 0.930 . S
C281 C278 1.413 . S
C281 C279 1.367 . S
C282 N277 1.362 . S
C282 C280 1.420 . S
C282 C286 1.429 . S
H283 C288 0.930 . S
N284 Eu246 2.609 . S
N284 C286 1.377 . S
N284 C287 1.321 . S
C285 H271 0.930 . S
C285 C287 1.400 . S
C285 C288 1.386 . S
C286 C282 1.429 . S
C286 N284 1.377 . S
C286 C289 1.411 . S
C287 H269 0.930 . S
C287 N284 1.321 . S
C287 C285 1.400 . S
C288 H283 0.930 . S
C288 C285 1.386 . S
C288 C289 1.395 . S
C289 C286 1.411 . S
C289 C288 1.395 . S
C289 C311 1.420 . S
O290 Eu246 2.558 . S
O290 C310 1.257 . S
O291 Eu246 2.612 1_655 S
O291 Eu257 2.380 1_556 S
O291 C302 1.276 . S
O292 Eu257 2.432 . S
O292 C309 1.264 1_554 S
O293 Eu246 2.339 1_655 S
O293 C309 1.254 . S
O294 Eu246 2.563 1_655 S
O294 C302 1.235 . S
O295 Eu246 2.419 . S
O295 C310 1.249 . S
O296 Eu257 2.558 . S
O296 C321 1.257 . S
O297 Eu246 2.380 1_554 S
O297 Eu257 2.612 1_455 S
O297 C313 1.276 . S
O298 Eu246 2.432 . S
O298 C320 1.264 1_556 S
O299 Eu257 2.339 1_455 S
O299 C320 1.254 . S
O300 Eu257 2.563 1_455 S
O300 C313 1.235 . S
O301 Eu257 2.419 . S
O301 C321 1.249 . S
C302 O291 1.276 . S
C302 O294 1.235 . S
C303 C305 1.393 . S
C303 C307 1.395 . S
C303 C310 1.492 . S
C304 C305 1.392 1_655 S
C304 C306 1.386 1_655 S
C305 C303 1.393 . S
C305 C304 1.392 1_455 S
C305 H322 0.930 1_455 S
C306 C304 1.386 1_455 S
C306 C308 1.395 . S
C306 H323 0.930 . S
C307 C303 1.395 . S
C307 C308 1.379 . S
C307 H324 0.930 . S
C308 C306 1.395 . S
C308 C307 1.379 . S
C308 H325 0.930 . S
C309 O292 1.264 1_556 S
C309 O293 1.254 . S
C310 Eu246 2.848 . S
C310 O290 1.257 . S
C310 O295 1.249 . S
C310 C303 1.492 . S
C311 H276 0.931 . S
C311 C289 1.420 . S
C311 C312 1.351 . S
C312 H274 0.930 . S
C312 C280 1.423 . S
C312 C311 1.351 . S
C313 O297 1.276 . S
C313 O300 1.235 . S
C314 C315 1.400 . S
C314 C318 1.395 . S
C314 C321 1.492 . S
C315 C314 1.400 . S
C315 C316 1.391 1_655 S
C315 H326 0.925 1_655 S
C316 C315 1.391 1_455 S
C316 C317 1.386 1_455 S
C317 C316 1.386 1_655 S
C317 C319 1.395 . S
C317 H327 0.930 . S
C318 C314 1.395 . S
C318 C319 1.379 . S
C318 H328 0.930 . S
C319 C317 1.395 . S
C319 C318 1.379 . S
C319 H329 0.930 . S
C320 O298 1.264 1_554 S
C320 O299 1.254 . S
C321 Eu257 2.848 . S
C321 O296 1.257 . S
C321 O301 1.249 . S
C321 C314 1.492 . S
H322 C305 0.930 1_655 S
H323 C306 0.930 . S
H324 C307 0.930 . S
H325 C308 0.930 . S
H326 C315 0.925 1_455 S
H327 C317 0.930 . S
H328 C318 0.930 . S
H329 C319 0.930 . S
Eu330 N361 2.657 . S
Eu330 N368 2.609 . S
Eu330 O374 2.558 . S
Eu330 O375 2.612 . S
Eu330 O377 2.339 . S
Eu330 O378 2.563 . S
Eu330 O379 2.419 . S
Eu330 O381 2.380 1_554 S
Eu330 O382 2.432 . S
Eu330 C394 2.848 . S
C331 C334 1.429 . S
C331 C335 1.411 . S
C331 N338 1.377 . S
C332 C334 1.420 . S
C332 C336 1.423 . S
C332 C344 1.392 . S
C333 C335 1.420 . S
C333 C336 1.351 . S
C333 H356 0.931 . S
C334 C331 1.429 . S
C334 C332 1.420 . S
C334 N342 1.362 . S
C335 C331 1.411 . S
C335 C333 1.420 . S
C335 C340 1.395 . S
C336 C332 1.423 . S
C336 C333 1.351 . S
C336 H348 0.930 . S
C337 C339 1.400 . S
C337 C340 1.386 . S
C337 H349 0.930 . S
N338 C331 1.377 . S
N338 C339 1.321 . S
N338 Eu341 2.609 . S
C339 C337 1.400 . S
C339 N338 1.321 . S
C339 H346 0.930 . S
C340 C335 1.395 . S
C340 C337 1.386 . S
C340 H359 0.930 . S
Eu341 N338 2.609 . S
Eu341 N342 2.657 . S
Eu341 O375 2.380 1_556 S
Eu341 O376 2.432 . S
Eu341 O380 2.558 . S
Eu341 O381 2.612 . S
Eu341 O383 2.339 . S
Eu341 O384 2.563 . S
Eu341 O385 2.419 . S
Eu341 C405 2.848 . S
N342 C334 1.362 . S
N342 Eu341 2.657 . S
N342 C343 1.334 . S
C343 N342 1.334 . S
C343 C345 1.413 . S
C343 H350 0.929 . S
C344 C332 1.392 . S
C344 C345 1.367 . S
C344 H352 0.930 . S
C345 C343 1.413 . S
C345 C344 1.367 . S
C345 H347 0.930 . S
H346 C339 0.930 . S
H347 C345 0.930 . S
H348 C336 0.930 . S
H349 C337 0.930 . S
H350 C343 0.929 . S
H351 C365 0.930 . S
H352 C344 0.930 . S
H353 C371 0.930 . S
H354 C362 0.929 . S
H355 C369 0.930 . S
H356 C333 0.931 . S
H357 C363 0.930 . S
H358 C396 0.930 . S
H359 C340 0.930 . S
H360 C395 0.931 . S
N361 Eu330 2.657 . S
N361 C362 1.334 . S
N361 C366 1.362 . S
C362 H354 0.929 . S
C362 N361 1.334 . S
C362 C365 1.413 . S
C363 H357 0.930 . S
C363 C364 1.392 . S
C363 C365 1.367 . S
C364 C363 1.392 . S
C364 C366 1.420 . S
C364 C396 1.423 . S
C365 H351 0.930 . S
C365 C362 1.413 . S
C365 C363 1.367 . S
C366 N361 1.362 . S
C366 C364 1.420 . S
C366 C370 1.429 . S
H367 C372 0.930 . S
N368 Eu330 2.609 . S
N368 C370 1.377 . S
N368 C371 1.321 . S
C369 H355 0.930 . S
C369 C371 1.400 . S
C369 C372 1.386 . S
C370 C366 1.429 . S
C370 N368 1.377 . S
C370 C373 1.411 . S
C371 H353 0.930 . S
C371 N368 1.321 . S
C371 C369 1.400 . S
C372 H367 0.930 . S
C372 C369 1.386 . S
C372 C373 1.395 . S
C373 C370 1.411 . S
C373 C372 1.395 . S
C373 C395 1.420 . S
O374 Eu330 2.558 . S
O374 C394 1.257 . S
O375 Eu330 2.612 . S
O375 Eu341 2.380 1_554 S
O375 C386 1.276 . S
O376 Eu341 2.432 . S
O376 C393 1.264 1_556 S
O377 Eu330 2.339 . S
O377 C393 1.254 . S
O378 Eu330 2.563 . S
O378 C386 1.235 . S
O379 Eu330 2.419 . S
O379 C394 1.249 . S
O380 Eu341 2.558 . S
O380 C405 1.257 . S
O381 Eu330 2.380 1_556 S
O381 Eu341 2.612 . S
O381 C397 1.276 . S
O382 Eu330 2.432 . S
O382 C404 1.264 1_554 S
O383 Eu341 2.339 . S
O383 C404 1.254 . S
O384 Eu341 2.563 . S
O384 C397 1.235 . S
O385 Eu341 2.419 . S
O385 C405 1.249 . S
C386 O375 1.276 . S
C386 O378 1.235 . S
C387 C389 1.393 . S
C387 C391 1.395 . S
C387 C394 1.492 . S
C388 C389 1.392 . S
C388 C390 1.386 . S
C389 C387 1.393 . S
C389 C388 1.392 . S
C389 H406 0.930 . S
C390 C388 1.386 . S
C390 C392 1.395 . S
C390 H407 0.930 . S
C391 C387 1.395 . S
C391 C392 1.379 . S
C391 H408 0.930 . S
C392 C390 1.395 . S
C392 C391 1.379 . S
C392 H409 0.930 . S
C393 O376 1.264 1_554 S
C393 O377 1.254 . S
C394 Eu330 2.848 . S
C394 O374 1.257 . S
C394 O379 1.249 . S
C394 C387 1.492 . S
C395 H360 0.931 . S
C395 C373 1.420 . S
C395 C396 1.351 . S
C396 H358 0.930 . S
C396 C364 1.423 . S
C396 C395 1.351 . S
C397 O381 1.276 . S
C397 O384 1.235 . S
C398 C399 1.393 . S
C398 C402 1.395 . S
C398 C405 1.492 . S
C399 C398 1.393 . S
C399 C400 1.392 . S
C399 H410 0.930 . S
C400 C399 1.392 . S
C400 C401 1.386 . S
C401 C400 1.386 . S
C401 C403 1.395 . S
C401 H411 0.930 . S
C402 C398 1.395 . S
C402 C403 1.379 . S
C402 H412 0.930 . S
C403 C401 1.395 . S
C403 C402 1.379 . S
C403 H413 0.930 . S
C404 O382 1.264 1_556 S
C404 O383 1.254 . S
C405 Eu341 2.848 . S
C405 O380 1.257 . S
C405 O385 1.249 . S
C405 C398 1.492 . S
H406 C389 0.930 . S
H407 C390 0.930 . S
H408 C391 0.930 . S
H409 C392 0.930 . S
H410 C399 0.930 . S
H411 C401 0.930 . S
H412 C402 0.930 . S
H413 C403 0.930 . S
Eu414 N445 2.657 1_455 S
Eu414 N452 2.609 . S
Eu414 O458 2.558 . S
Eu414 O459 2.612 . S
Eu414 O461 2.339 . S
Eu414 O462 2.563 . S
Eu414 O463 2.419 . S
Eu414 O465 2.380 . S
Eu414 O466 2.432 . S
Eu414 C478 2.848 . S
C415 C418 1.429 . S
C415 C419 1.411 . S
C415 N422 1.377 . S
C416 C418 1.420 . S
C416 C420 1.423 . S
C416 C428 1.392 . S
C417 C419 1.420 . S
C417 C420 1.351 . S
C417 H440 0.931 . S
C418 C415 1.429 . S
C418 C416 1.420 . S
C418 N426 1.362 . S
C419 C415 1.411 . S
C419 C417 1.420 . S
C419 C424 1.395 . S
C420 C416 1.423 . S
C420 C417 1.351 . S
C420 H432 0.930 . S
C421 C423 1.400 . S
C421 C424 1.386 . S
C421 H433 0.930 . S
N422 C415 1.377 . S
N422 C423 1.321 . S
N422 Eu425 2.609 . S
C423 C421 1.400 . S
C423 N422 1.321 . S
C423 H430 0.930 . S
C424 C419 1.395 . S
C424 C421 1.386 . S
C424 H443 0.930 . S
Eu425 N422 2.609 . S
Eu425 N426 2.657 . S
Eu425 O459 2.380 . S
Eu425 O460 2.432 . S
Eu425 O464 2.558 . S
Eu425 O465 2.612 . S
Eu425 O467 2.339 . S
Eu425 O468 2.563 . S
Eu425 O469 2.419 . S
Eu425 C489 2.848 . S
N426 C418 1.362 . S
N426 Eu425 2.657 . S
N426 C427 1.334 . S
C427 N426 1.334 . S
C427 C429 1.413 . S
C427 H434 0.929 . S
C428 C416 1.392 . S
C428 C429 1.367 . S
C428 H436 0.930 . S
C429 C427 1.413 . S
C429 C428 1.367 . S
C429 H431 0.930 . S
H430 C423 0.930 . S
H431 C429 0.930 . S
H432 C420 0.930 . S
H433 C421 0.930 . S
H434 C427 0.929 . S
H435 C449 0.930 . S
H436 C428 0.930 . S
H437 C455 0.930 . S
H438 C446 0.929 . S
H439 C453 0.930 1_565 S
H440 C417 0.931 . S
H441 C447 0.930 . S
H442 C480 0.930 . S
H443 C424 0.930 . S
H444 C479 0.931 . S
N445 Eu414 2.657 1_655 S
N445 C446 1.334 . S
N445 C450 1.362 . S
C446 H438 0.929 . S
C446 N445 1.334 . S
C446 C449 1.413 . S
C447 H441 0.930 . S
C447 C448 1.392 . S
C447 C449 1.367 . S
C448 C447 1.392 . S
C448 C450 1.420 . S
C448 C480 1.423 1_545 S
C449 H435 0.930 . S
C449 C446 1.413 . S
C449 C447 1.367 . S
C450 N445 1.362 . S
C450 C448 1.420 . S
C450 C454 1.429 . S
H451 C456 0.930 . S
N452 Eu414 2.609 . S
N452 C454 1.377 1_455 S
N452 C455 1.321 . S
C453 H439 0.930 1_545 S
C453 C455 1.400 . S
C453 C456 1.386 1_445 S
C454 C450 1.429 . S
C454 N452 1.377 1_655 S
C454 C457 1.418 . S
C455 H437 0.930 . S
C455 N452 1.321 . S
C455 C453 1.400 . S
C456 H451 0.930 . S
C456 C453 1.386 1_665 S
C456 C457 1.388 1_565 S
C457 C454 1.418 . S
C457 C456 1.388 1_545 S
C457 C479 1.420 1_545 S
O458 Eu414 2.558 . S
O458 C478 1.257 . S
O459 Eu414 2.612 . S
O459 Eu425 2.380 . S
O459 C470 1.276 . S
O460 Eu425 2.432 . S
O460 C477 1.264 . S
O461 Eu414 2.339 . S
O461 C477 1.254 . S
O462 Eu414 2.563 . S
O462 C470 1.235 . S
O463 Eu414 2.419 . S
O463 C478 1.249 . S
O464 Eu425 2.558 . S
O464 C489 1.257 . S
O465 Eu414 2.380 . S
O465 Eu425 2.612 . S
O465 C481 1.276 . S
O466 Eu414 2.432 . S
O466 C488 1.264 . S
O467 Eu425 2.339 . S
O467 C488 1.254 . S
O468 Eu425 2.563 . S
O468 C481 1.235 . S
O469 Eu425 2.419 . S
O469 C489 1.249 . S
C470 O459 1.276 . S
C470 O462 1.235 . S
C471 C473 1.393 . S
C471 C475 1.395 . S
C471 C478 1.492 . S
C472 C473 1.392 . S
C472 C474 1.386 . S
C473 C471 1.393 . S
C473 C472 1.392 . S
C473 H490 0.930 . S
C474 C472 1.386 . S
C474 C476 1.395 . S
C474 H491 0.930 . S
C475 C471 1.395 . S
C475 C476 1.379 . S
C475 H492 0.930 . S
C476 C474 1.395 . S
C476 C475 1.379 . S
C476 H493 0.930 . S
C477 O460 1.264 . S
C477 O461 1.254 . S
C478 Eu414 2.848 . S
C478 O458 1.257 . S
C478 O463 1.249 . S
C478 C471 1.492 . S
C479 H444 0.931 . S
C479 C457 1.420 1_565 S
C479 C480 1.351 . S
C480 H442 0.930 . S
C480 C448 1.423 1_565 S
C480 C479 1.351 . S
C481 O465 1.276 . S
C481 O468 1.235 . S
C482 C483 1.393 . S
C482 C486 1.395 . S
C482 C489 1.492 . S
C483 C482 1.393 . S
C483 C484 1.392 . S
C483 H494 0.930 . S
C484 C483 1.392 . S
C484 C485 1.386 . S
C485 C484 1.386 . S
C485 C487 1.395 . S
C485 H495 0.930 . S
C486 C482 1.395 . S
C486 C487 1.379 . S
C486 H496 0.930 . S
C487 C485 1.395 . S
C487 C486 1.379 . S
C487 H497 0.930 . S
C488 O466 1.264 . S
C488 O467 1.254 . S
C489 Eu425 2.848 . S
C489 O464 1.257 . S
C489 O469 1.249 . S
C489 C482 1.492 . S
H490 C473 0.930 . S
H491 C474 0.930 . S
H492 C475 0.930 . S
H493 C476 0.930 . S
H494 C483 0.930 . S
H495 C485 0.930 . S
H496 C486 0.930 . S
H497 C487 0.930 . S
Eu498 N529 2.657 . S
Eu498 N536 2.609 . S
Eu498 O542 2.558 . S
Eu498 O543 2.612 . S
Eu498 O545 2.339 . S
Eu498 O546 2.563 . S
Eu498 O547 2.419 . S
Eu498 O549 2.380 . S
Eu498 O550 2.432 . S
Eu498 C562 2.848 . S
C499 C502 1.429 . S
C499 C503 1.411 . S
C499 N506 1.377 . S
C500 C502 1.420 . S
C500 C504 1.423 . S
C500 C512 1.392 . S
C501 C503 1.420 . S
C501 C504 1.351 . S
C501 H524 0.931 . S
C502 C499 1.429 . S
C502 C500 1.420 . S
C502 N510 1.362 . S
C503 C499 1.411 . S
C503 C501 1.420 . S
C503 C508 1.395 . S
C504 C500 1.423 . S
C504 C501 1.351 . S
C504 H516 0.930 . S
C505 C507 1.400 . S
C505 C508 1.386 . S
C505 H517 0.930 . S
N506 C499 1.377 . S
N506 C507 1.321 . S
N506 Eu509 2.609 . S
C507 C505 1.400 . S
C507 N506 1.321 . S
C507 H514 0.930 . S
C508 C503 1.395 . S
C508 C505 1.386 . S
C508 H527 0.930 . S
Eu509 N506 2.609 . S
Eu509 N510 2.657 . S
Eu509 O543 2.380 . S
Eu509 O544 2.432 . S
Eu509 O548 2.558 . S
Eu509 O549 2.612 . S
Eu509 O551 2.339 . S
Eu509 O552 2.563 . S
Eu509 O553 2.419 . S
Eu509 C573 2.848 . S
N510 C502 1.362 . S
N510 Eu509 2.657 . S
N510 C511 1.334 . S
C511 N510 1.334 . S
C511 C513 1.413 1_565 S
C511 H518 0.929 . S
C512 C500 1.392 . S
C512 C513 1.367 1_565 S
C512 H520 0.930 1_565 S
C513 C511 1.413 1_545 S
C513 C512 1.367 1_545 S
C513 H515 0.930 . S
H514 C507 0.930 . S
H515 C513 0.930 . S
H516 C504 0.930 . S
H517 C505 0.930 . S
H518 C511 0.929 . S
H519 C533 0.930 . S
H520 C512 0.930 1_545 S
H521 C539 0.930 . S
H522 C530 0.929 . S
H523 C537 0.930 . S
H524 C501 0.931 . S
H525 C531 0.930 . S
H526 C564 0.930 . S
H527 C508 0.930 . S
H528 C563 0.931 . S
N529 Eu498 2.657 . S
N529 C530 1.334 . S
N529 C534 1.362 . S
C530 H522 0.929 . S
C530 N529 1.334 . S
C530 C533 1.413 . S
C531 H525 0.930 . S
C531 C532 1.392 . S
C531 C533 1.367 . S
C532 C531 1.392 . S
C532 C534 1.420 . S
C532 C564 1.423 1_655 S
C533 H519 0.930 . S
C533 C530 1.413 . S
C533 C531 1.367 . S
C534 N529 1.362 . S
C534 C532 1.420 . S
C534 C538 1.429 . S
H535 C540 0.930 . S
N536 Eu498 2.609 . S
N536 C538 1.377 . S
N536 C539 1.321 1_565 S
C537 H523 0.930 . S
C537 C539 1.400 1_455 S
C537 C540 1.386 . S
C538 C534 1.429 . S
C538 N536 1.377 . S
C538 C541 1.411 1_655 S
C539 H521 0.930 . S
C539 N536 1.321 1_545 S
C539 C537 1.400 1_655 S
C540 H535 0.930 . S
C540 C537 1.386 . S
C540 C541 1.395 1_545 S
C541 C538 1.411 1_455 S
C541 C540 1.395 1_565 S
C541 C563 1.420 . S
O542 Eu498 2.558 . S
O542 C562 1.257 . S
O543 Eu498 2.612 . S
O543 Eu509 2.380 . S
O543 C554 1.276 . S
O544 Eu509 2.432 . S
O544 C561 1.264 . S
O545 Eu498 2.339 . S
O545 C561 1.254 . S
O546 Eu498 2.563 . S
O546 C554 1.235 . S
O547 Eu498 2.419 . S
O547 C562 1.249 . S
O548 Eu509 2.558 . S
O548 C573 1.257 . S
O549 Eu498 2.380 . S
O549 Eu509 2.612 . S
O549 C565 1.276 . S
O550 Eu498 2.432 . S
O550 C572 1.264 . S
O551 Eu509 2.339 . S
O551 C572 1.254 . S
O552 Eu509 2.563 . S
O552 C565 1.235 . S
O553 Eu509 2.419 . S
O553 C573 1.249 . S
C554 O543 1.276 . S
C554 O546 1.235 . S
C555 C557 1.393 . S
C555 C559 1.395 . S
C555 C562 1.492 . S
C556 C557 1.392 . S
C556 C558 1.386 . S
C557 C555 1.393 . S
C557 C556 1.392 . S
C557 H574 0.930 . S
C558 C556 1.386 . S
C558 C560 1.395 . S
C558 H575 0.930 . S
C559 C555 1.395 . S
C559 C560 1.379 . S
C559 H576 0.930 1_565 S
C560 C558 1.395 . S
C560 C559 1.379 . S
C560 H577 0.930 1_565 S
C561 O544 1.264 . S
C561 O545 1.254 . S
C562 Eu498 2.848 . S
C562 O542 1.257 . S
C562 O547 1.249 . S
C562 C555 1.492 . S
C563 H528 0.931 . S
C563 C541 1.420 . S
C563 C564 1.351 . S
C564 H526 0.930 . S
C564 C532 1.423 1_455 S
C564 C563 1.351 . S
C565 O549 1.276 . S
C565 O552 1.235 . S
C566 C567 1.393 . S
C566 C570 1.395 . S
C566 C573 1.492 . S
C567 C566 1.393 . S
C567 C568 1.392 . S
C567 H578 0.930 . S
C568 C567 1.392 . S
C568 C569 1.386 . S
C569 C568 1.386 . S
C569 C571 1.395 . S
C569 H579 0.930 . S
C570 C566 1.395 . S
C570 C571 1.379 . S
C570 H580 0.930 . S
C571 C569 1.395 . S
C571 C570 1.379 . S
C571 H581 0.930 . S
C572 O550 1.264 . S
C572 O551 1.254 . S
C573 Eu509 2.848 . S
C573 O548 1.257 . S
C573 O553 1.249 . S
C573 C566 1.492 . S
H574 C557 0.930 . S
H575 C558 0.930 . S
H576 C559 0.930 1_545 S
H577 C560 0.930 1_545 S
H578 C567 0.930 . S
H579 C569 0.930 . S
H580 C570 0.930 . S
H581 C571 0.930 . S
Eu582 N613 2.657 . S
Eu582 N620 2.609 . S
Eu582 O626 2.558 . S
Eu582 O627 2.612 . S
Eu582 O629 2.339 . S
Eu582 O630 2.563 . S
Eu582 O631 2.419 . S
Eu582 O633 2.380 . S
Eu582 O634 2.432 . S
Eu582 C646 2.848 . S
C583 C586 1.429 . S
C583 C587 1.411 . S
C583 N590 1.377 1_655 S
C584 C586 1.420 . S
C584 C588 1.423 . S
C584 C596 1.392 . S
C585 C587 1.420 . S
C585 C588 1.351 . S
C585 H608 0.931 . S
C586 C583 1.429 . S
C586 C584 1.420 . S
C586 N594 1.362 . S
C587 C583 1.411 . S
C587 C585 1.420 . S
C587 C592 1.395 1_565 S
C588 C584 1.423 . S
C588 C585 1.351 . S
C588 H600 0.930 . S
C589 C591 1.400 . S
C589 C592 1.386 1_455 S
C589 H601 0.930 . S
N590 C583 1.377 1_455 S
N590 C591 1.321 1_565 S
N590 Eu593 2.609 . S
C591 C589 1.400 . S
C591 N590 1.321 1_545 S
C591 H598 0.930 . S
C592 C587 1.395 1_545 S
C592 C589 1.386 1_655 S
C592 H611 0.930 . S
Eu593 N590 2.609 . S
Eu593 N594 2.657 1_455 S
Eu593 O627 2.380 . S
Eu593 O628 2.432 . S
Eu593 O632 2.558 . S
Eu593 O633 2.612 . S
Eu593 O635 2.339 . S
Eu593 O636 2.563 . S
Eu593 O637 2.419 . S
Eu593 C657 2.848 . S
N594 C586 1.362 . S
N594 Eu593 2.657 1_655 S
N594 C595 1.334 . S
C595 N594 1.334 . S
C595 C597 1.413 . S
C595 H602 0.929 . S
C596 C584 1.392 . S
C596 C597 1.367 . S
C596 H604 0.930 . S
C597 C595 1.413 . S
C597 C596 1.367 . S
C597 H599 0.930 . S
H598 C591 0.930 . S
H599 C597 0.930 . S
H600 C588 0.930 . S
H601 C589 0.930 . S
H602 C595 0.929 . S
H603 C617 0.930 . S
H604 C596 0.930 . S
H605 C623 0.930 . S
H606 C614 0.929 . S
H607 C621 0.930 . S
H608 C585 0.931 . S
H609 C615 0.930 1_545 S
H610 C648 0.930 . S
H611 C592 0.930 . S
H612 C647 0.931 . S
N613 Eu582 2.657 . S
N613 C614 1.334 . S
N613 C618 1.362 . S
C614 H606 0.929 . S
C614 N613 1.334 . S
C614 C617 1.413 1_565 S
C615 H609 0.930 1_565 S
C615 C616 1.392 . S
C615 C617 1.367 1_565 S
C616 C615 1.392 . S
C616 C618 1.420 . S
C616 C648 1.423 . S
C617 H603 0.930 . S
C617 C614 1.413 1_545 S
C617 C615 1.367 1_545 S
C618 N613 1.362 . S
C618 C616 1.420 . S
C618 C622 1.429 . S
H619 C624 0.930 . S
N620 Eu582 2.609 . S
N620 C622 1.377 . S
N620 C623 1.321 . S
C621 H607 0.930 . S
C621 C623 1.400 . S
C621 C624 1.386 . S
C622 C618 1.429 . S
C622 N620 1.377 . S
C622 C625 1.411 . S
C623 H605 0.930 . S
C623 N620 1.321 . S
C623 C621 1.400 . S
C624 H619 0.930 . S
C624 C621 1.386 . S
C624 C625 1.395 . S
C625 C622 1.411 . S
C625 C624 1.395 . S
C625 C647 1.420 . S
O626 Eu582 2.558 . S
O626 C646 1.257 . S
O627 Eu582 2.612 . S
O627 Eu593 2.380 . S
O627 C638 1.276 . S
O628 Eu593 2.432 . S
O628 C645 1.264 . S
O629 Eu582 2.339 . S
O629 C645 1.254 . S
O630 Eu582 2.563 . S
O630 C638 1.235 . S
O631 Eu582 2.419 . S
O631 C646 1.249 . S
O632 Eu593 2.558 . S
O632 C657 1.257 . S
O633 Eu582 2.380 . S
O633 Eu593 2.612 . S
O633 C649 1.276 . S
O634 Eu582 2.432 . S
O634 C656 1.264 . S
O635 Eu593 2.339 . S
O635 C656 1.254 . S
O636 Eu593 2.563 . S
O636 C649 1.235 . S
O637 Eu593 2.419 . S
O637 C657 1.249 . S
C638 O627 1.276 . S
C638 O630 1.235 . S
C639 C641 1.393 . S
C639 C643 1.395 . S
C639 C646 1.492 . S
C640 C641 1.392 . S
C640 C642 1.386 . S
C641 C639 1.393 . S
C641 C640 1.392 . S
C641 H658 0.930 . S
C642 C640 1.386 . S
C642 C644 1.395 . S
C642 H659 0.930 . S
C643 C639 1.395 . S
C643 C644 1.379 . S
C643 H660 0.930 . S
C644 C642 1.395 . S
C644 C643 1.379 . S
C644 H661 0.930 . S
C645 O628 1.264 . S
C645 O629 1.254 . S
C646 Eu582 2.848 . S
C646 O626 1.257 . S
C646 O631 1.249 . S
C646 C639 1.492 . S
C647 H612 0.931 . S
C647 C625 1.420 . S
C647 C648 1.351 . S
C648 H610 0.930 . S
C648 C616 1.423 . S
C648 C647 1.351 . S
C649 O633 1.276 . S
C649 O636 1.235 . S
C650 C651 1.393 . S
C650 C654 1.395 . S
C650 C657 1.492 . S
C651 C650 1.393 . S
C651 C652 1.392 . S
C651 H662 0.930 . S
C652 C651 1.392 . S
C652 C653 1.386 . S
C653 C652 1.386 . S
C653 C655 1.395 . S
C653 H663 0.930 . S
C654 C650 1.395 . S
C654 C655 1.379 . S
C654 H664 0.924 1_565 S
C655 C653 1.395 . S
C655 C654 1.379 . S
C655 H665 0.930 1_565 S
C656 O634 1.264 . S
C656 O635 1.254 . S
C657 Eu593 2.848 . S
C657 O632 1.257 . S
C657 O637 1.249 . S
C657 C650 1.492 . S
H658 C641 0.930 . S
H659 C642 0.930 . S
H660 C643 0.930 . S
H661 C644 0.930 . S
H662 C651 0.930 . S
H663 C653 0.930 . S
H664 C654 0.924 1_545 S
H665 C655 0.930 1_545 S
Eu666 N697 2.657 . S
Eu666 N704 2.609 . S
Eu666 O710 2.558 . S
Eu666 O711 2.612 . S
Eu666 O713 2.339 . S
Eu666 O714 2.563 . S
Eu666 O715 2.419 . S
Eu666 O717 2.380 . S
Eu666 O718 2.432 . S
Eu666 C730 2.848 . S
C667 C670 1.429 . S
C667 C671 1.403 1_565 S
C667 N674 1.377 1_455 S
C668 C670 1.420 . S
C668 C672 1.423 1_565 S
C668 C680 1.392 . S
C669 C671 1.420 . S
C669 C672 1.351 . S
C669 H692 0.931 . S
C670 C667 1.429 . S
C670 C668 1.420 . S
C670 N678 1.362 . S
C671 C667 1.403 1_545 S
C671 C669 1.420 . S
C671 C676 1.403 . S
C672 C668 1.423 1_545 S
C672 C669 1.351 . S
C672 H684 0.930 . S
C673 C675 1.400 . S
C673 C676 1.386 1_665 S
C673 H685 0.930 1_565 S
N674 C667 1.377 1_655 S
N674 C675 1.321 . S
N674 Eu677 2.609 . S
C675 C673 1.400 . S
C675 N674 1.321 . S
C675 H682 0.930 . S
C676 C671 1.403 . S
C676 C673 1.386 1_445 S
C676 H695 0.930 . S
Eu677 N674 2.609 . S
Eu677 N678 2.657 1_655 S
Eu677 O711 2.380 . S
Eu677 O712 2.432 . S
Eu677 O716 2.558 . S
Eu677 O717 2.612 . S
Eu677 O719 2.339 . S
Eu677 O720 2.563 . S
Eu677 O721 2.419 . S
Eu677 C741 2.848 . S
N678 C670 1.362 . S
N678 Eu677 2.657 1_455 S
N678 C679 1.334 . S
C679 N678 1.334 . S
C679 C681 1.413 . S
C679 H686 0.929 . S
C680 C668 1.392 . S
C680 C681 1.367 . S
C680 H688 0.930 . S
C681 C679 1.413 . S
C681 C680 1.367 . S
C681 H683 0.930 . S
H682 C675 0.930 . S
H683 C681 0.930 . S
H684 C672 0.930 . S
H685 C673 0.930 1_545 S
H686 C679 0.929 . S
H687 C701 0.930 . S
H688 C680 0.930 . S
H689 C707 0.930 . S
H690 C698 0.929 . S
H691 C705 0.930 . S
H692 C669 0.931 . S
H693 C699 0.930 . S
H694 C732 0.930 . S
H695 C676 0.930 . S
H696 C731 0.931 . S
N697 Eu666 2.657 . S
N697 C698 1.334 . S
N697 C702 1.362 . S
C698 H690 0.929 . S
C698 N697 1.334 . S
C698 C701 1.413 . S
C699 H693 0.930 . S
C699 C700 1.392 . S
C699 C701 1.367 . S
C700 C699 1.392 . S
C700 C702 1.420 . S
C700 C732 1.423 . S
C701 H687 0.930 . S
C701 C698 1.413 . S
C701 C699 1.367 . S
C702 N697 1.362 . S
C702 C700 1.420 . S
C702 C706 1.429 . S
H703 C708 0.930 . S
N704 Eu666 2.609 . S
N704 C706 1.377 . S
N704 C707 1.321 . S
C705 H691 0.930 . S
C705 C707 1.400 . S
C705 C708 1.386 . S
C706 C702 1.429 . S
C706 N704 1.377 . S
C706 C709 1.411 . S
C707 H689 0.930 . S
C707 N704 1.321 . S
C707 C705 1.400 . S
C708 H703 0.930 . S
C708 C705 1.386 . S
C708 C709 1.395 . S
C709 C706 1.411 . S
C709 C708 1.395 . S
C709 C731 1.420 . S
O710 Eu666 2.558 . S
O710 C730 1.257 . S
O711 Eu666 2.612 . S
O711 Eu677 2.380 . S
O711 C722 1.276 . S
O712 Eu677 2.432 . S
O712 C729 1.264 . S
O713 Eu666 2.339 . S
O713 C729 1.254 . S
O714 Eu666 2.563 . S
O714 C722 1.235 . S
O715 Eu666 2.419 . S
O715 C730 1.249 . S
O716 Eu677 2.558 . S
O716 C741 1.257 . S
O717 Eu666 2.380 . S
O717 Eu677 2.612 . S
O717 C733 1.276 . S
O718 Eu666 2.432 . S
O718 C740 1.264 . S
O719 Eu677 2.339 . S
O719 C740 1.254 . S
O720 Eu677 2.563 . S
O720 C733 1.235 . S
O721 Eu677 2.419 . S
O721 C741 1.249 . S
C722 O711 1.276 . S
C722 O714 1.235 . S
C723 C725 1.393 . S
C723 C727 1.395 . S
C723 C730 1.492 . S
C724 C725 1.392 . S
C724 C726 1.386 . S
C725 C723 1.393 . S
C725 C724 1.392 . S
C725 H742 0.930 . S
C726 C724 1.386 . S
C726 C728 1.395 . S
C726 H743 0.930 . S
C727 C723 1.395 . S
C727 C728 1.379 . S
C727 H744 0.930 . S
C728 C726 1.395 . S
C728 C727 1.379 . S
C728 H745 0.930 . S
C729 O712 1.264 . S
C729 O713 1.254 . S
C730 Eu666 2.848 . S
C730 O710 1.257 . S
C730 O715 1.249 . S
C730 C723 1.492 . S
C731 H696 0.931 . S
C731 C709 1.420 . S
C731 C732 1.351 . S
C732 H694 0.930 . S
C732 C700 1.423 . S
C732 C731 1.351 . S
C733 O717 1.276 . S
C733 O720 1.235 . S
C734 C735 1.393 . S
C734 C738 1.395 . S
C734 C741 1.492 . S
C735 C734 1.393 . S
C735 C736 1.392 . S
C735 H746 0.930 . S
C736 C735 1.392 . S
C736 C737 1.386 . S
C737 C736 1.386 . S
C737 C739 1.395 . S
C737 H747 0.930 . S
C738 C734 1.395 . S
C738 C739 1.379 . S
C738 H748 0.930 . S
C739 C737 1.395 . S
C739 C738 1.379 . S
C739 H749 0.930 . S
C740 O718 1.264 . S
C740 O719 1.254 . S
C741 Eu677 2.848 . S
C741 O716 1.257 . S
C741 O721 1.249 . S
C741 C734 1.492 . S
H742 C725 0.930 . S
H743 C726 0.930 . S
H744 C727 0.930 . S
H745 C728 0.930 . S
H746 C735 0.930 . S
H747 C737 0.930 . S
H748 C738 0.930 . S
H749 C739 0.930 . S
Eu750 N781 2.657 . S
Eu750 N788 2.609 . S
Eu750 O794 2.558 . S
Eu750 O795 2.612 . S
Eu750 O797 2.339 . S
Eu750 O798 2.563 . S
Eu750 O799 2.419 . S
Eu750 O801 2.380 . S
Eu750 O802 2.432 . S
Eu750 C814 2.848 . S
C751 C754 1.429 . S
C751 C755 1.411 1_455 S
C751 N758 1.377 . S
C752 C754 1.420 . S
C752 C756 1.423 1_455 S
C752 C764 1.392 . S
C753 C755 1.420 . S
C753 C756 1.351 . S
C753 H776 0.931 . S
C754 C751 1.429 . S
C754 C752 1.420 . S
C754 N762 1.362 . S
C755 C751 1.411 1_655 S
C755 C753 1.420 . S
C755 C760 1.395 1_545 S
C756 C752 1.423 1_655 S
C756 C753 1.351 . S
C756 H768 0.930 . S
C757 C759 1.400 1_655 S
C757 C760 1.386 . S
C757 H769 0.930 . S
N758 C751 1.377 . S
N758 C759 1.321 1_545 S
N758 Eu761 2.609 . S
C759 C757 1.400 1_455 S
C759 N758 1.321 1_565 S
C759 H766 0.930 . S
C760 C755 1.395 1_565 S
C760 C757 1.386 . S
C760 H779 0.930 . S
Eu761 N758 2.609 . S
Eu761 N762 2.657 . S
Eu761 O795 2.380 . S
Eu761 O796 2.432 . S
Eu761 O800 2.558 . S
Eu761 O801 2.612 . S
Eu761 O803 2.339 . S
Eu761 O804 2.563 . S
Eu761 O805 2.419 . S
Eu761 C825 2.848 . S
N762 C754 1.362 . S
N762 Eu761 2.657 . S
N762 C763 1.334 . S
C763 N762 1.334 . S
C763 C765 1.413 . S
C763 H770 0.929 . S
C764 C752 1.392 . S
C764 C765 1.367 . S
C764 H772 0.930 . S
C765 C763 1.413 . S
C765 C764 1.367 . S
C765 H767 0.930 . S
H766 C759 0.930 . S
H767 C765 0.930 . S
H768 C756 0.930 . S
H769 C757 0.930 . S
H770 C763 0.929 . S
H771 C785 0.930 . S
H772 C764 0.930 . S
H773 C791 0.930 . S
H774 C782 0.929 . S
H775 C789 0.930 . S
H776 C753 0.931 . S
H777 C783 0.935 . S
H778 C816 0.930 . S
H779 C760 0.930 . S
H780 C815 0.931 . S
N781 Eu750 2.657 . S
N781 C782 1.334 . S
N781 C786 1.362 . S
C782 H774 0.929 . S
C782 N781 1.334 . S
C782 C785 1.413 1_545 S
C783 H777 0.935 . S
C783 C784 1.392 . S
C783 C785 1.367 1_545 S
C784 C783 1.392 . S
C784 C786 1.420 . S
C784 C816 1.423 . S
C785 H771 0.930 . S
C785 C782 1.413 1_565 S
C785 C783 1.367 1_565 S
C786 N781 1.362 . S
C786 C784 1.420 . S
C786 C790 1.429 . S
H787 C792 0.930 . S
N788 Eu750 2.609 . S
N788 C790 1.377 . S
N788 C791 1.321 . S
C789 H775 0.930 . S
C789 C791 1.400 . S
C789 C792 1.386 . S
C790 C786 1.429 . S
C790 N788 1.377 . S
C790 C793 1.411 . S
C791 H773 0.930 . S
C791 N788 1.321 . S
C791 C789 1.400 . S
C792 H787 0.930 . S
C792 C789 1.386 . S
C792 C793 1.395 . S
C793 C790 1.411 . S
C793 C792 1.395 . S
C793 C815 1.420 . S
O794 Eu750 2.558 . S
O794 C814 1.257 . S
O795 Eu750 2.612 . S
O795 Eu761 2.380 . S
O795 C806 1.276 . S
O796 Eu761 2.432 . S
O796 C813 1.264 . S
O797 Eu750 2.339 . S
O797 C813 1.254 . S
O798 Eu750 2.563 . S
O798 C806 1.235 . S
O799 Eu750 2.419 . S
O799 C814 1.249 . S
O800 Eu761 2.558 . S
O800 C825 1.257 . S
O801 Eu750 2.380 . S
O801 Eu761 2.612 . S
O801 C817 1.276 . S
O802 Eu750 2.432 . S
O802 C824 1.264 . S
O803 Eu761 2.339 . S
O803 C824 1.254 . S
O804 Eu761 2.563 . S
O804 C817 1.235 . S
O805 Eu761 2.419 . S
O805 C825 1.249 . S
C806 O795 1.276 . S
C806 O798 1.235 . S
C807 C809 1.393 . S
C807 C811 1.395 . S
C807 C814 1.492 . S
C808 C809 1.392 . S
C808 C810 1.386 . S
C809 C807 1.393 . S
C809 C808 1.392 . S
C809 H826 0.930 . S
C810 C808 1.386 . S
C810 C812 1.395 . S
C810 H827 0.930 . S
C811 C807 1.395 . S
C811 C812 1.379 . S
C811 H828 0.930 . S
C812 C810 1.395 . S
C812 C811 1.379 . S
C812 H829 0.930 . S
C813 O796 1.264 . S
C813 O797 1.254 . S
C814 Eu750 2.848 . S
C814 O794 1.257 . S
C814 O799 1.249 . S
C814 C807 1.492 . S
C815 H780 0.931 . S
C815 C793 1.420 . S
C815 C816 1.351 . S
C816 H778 0.930 . S
C816 C784 1.423 . S
C816 C815 1.351 . S
C817 O801 1.276 . S
C817 O804 1.235 . S
C818 C819 1.393 . S
C818 C822 1.395 . S
C818 C825 1.492 . S
C819 C818 1.393 . S
C819 C820 1.392 . S
C819 H830 0.930 . S
C820 C819 1.392 . S
C820 C821 1.386 . S
C821 C820 1.386 . S
C821 C823 1.395 . S
C821 H831 0.930 . S
C822 C818 1.395 . S
C822 C823 1.379 . S
C822 H832 0.930 1_545 S
C823 C821 1.395 . S
C823 C822 1.379 . S
C823 H833 0.930 1_545 S
C824 O802 1.264 . S
C824 O803 1.254 . S
C825 Eu761 2.848 . S
C825 O800 1.257 . S
C825 O805 1.249 . S
C825 C818 1.492 . S
H826 C809 0.930 . S
H827 C810 0.930 . S
H828 C811 0.930 . S
H829 C812 0.930 . S
H830 C819 0.930 . S
H831 C821 0.930 . S
H832 C822 0.930 1_565 S
H833 C823 0.930 1_565 S
Eu834 N865 2.657 1_655 S
Eu834 N872 2.609 . S
Eu834 O878 2.558 . S
Eu834 O879 2.612 . S
Eu834 O881 2.339 . S
Eu834 O882 2.563 . S
Eu834 O883 2.419 . S
Eu834 O885 2.380 . S
Eu834 O886 2.432 . S
Eu834 C898 2.848 . S
C835 C838 1.429 . S
C835 C839 1.411 . S
C835 N842 1.377 . S
C836 C838 1.420 . S
C836 C840 1.423 . S
C836 C848 1.392 . S
C837 C839 1.420 . S
C837 C840 1.351 . S
C837 H860 0.931 . S
C838 C835 1.429 . S
C838 C836 1.420 . S
C838 N846 1.362 . S
C839 C835 1.411 . S
C839 C837 1.420 . S
C839 C844 1.395 . S
C840 C836 1.423 . S
C840 C837 1.351 . S
C840 H852 0.930 . S
C841 C843 1.400 . S
C841 C844 1.386 . S
C841 H853 0.930 . S
N842 C835 1.377 . S
N842 C843 1.321 . S
N842 Eu845 2.609 . S
C843 C841 1.400 . S
C843 N842 1.321 . S
C843 H850 0.930 . S
C844 C839 1.395 . S
C844 C841 1.386 . S
C844 H863 0.930 . S
Eu845 N842 2.609 . S
Eu845 N846 2.657 . S
Eu845 O879 2.380 . S
Eu845 O880 2.432 . S
Eu845 O884 2.558 . S
Eu845 O885 2.612 . S
Eu845 O887 2.339 . S
Eu845 O888 2.563 . S
Eu845 O889 2.419 . S
Eu845 C909 2.848 . S
N846 C838 1.362 . S
N846 Eu845 2.657 . S
N846 C847 1.334 . S
C847 N846 1.334 . S
C847 C849 1.413 1_545 S
C847 H854 0.929 . S
C848 C836 1.392 . S
C848 C849 1.367 1_545 S
C848 H856 0.930 1_545 S
C849 C847 1.413 1_565 S
C849 C848 1.367 1_565 S
C849 H851 0.930 . S
H850 C843 0.930 . S
H851 C849 0.930 . S
H852 C840 0.930 . S
H853 C841 0.930 . S
H854 C847 0.929 . S
H855 C869 0.930 . S
H856 C848 0.930 1_565 S
H857 C875 0.930 . S
H858 C866 0.929 . S
H859 C873 0.930 . S
H860 C837 0.931 . S
H861 C867 0.930 . S
H862 C900 0.930 . S
H863 C844 0.930 . S
H864 C899 0.931 . S
N865 Eu834 2.657 1_455 S
N865 C866 1.334 . S
N865 C870 1.362 . S
C866 H858 0.929 . S
C866 N865 1.334 . S
C866 C869 1.413 . S
C867 H861 0.930 . S
C867 C868 1.392 . S
C867 C869 1.367 . S
C868 C867 1.392 . S
C868 C870 1.420 . S
C868 C900 1.423 . S
C869 H855 0.930 . S
C869 C866 1.413 . S
C869 C867 1.367 . S
C870 N865 1.362 . S
C870 C868 1.420 . S
C870 C874 1.429 . S
H871 C876 0.930 . S
N872 Eu834 2.609 . S
N872 C874 1.377 1_655 S
N872 C875 1.321 1_545 S
C873 H859 0.930 . S
C873 C875 1.400 . S
C873 C876 1.386 1_655 S
C874 C870 1.429 . S
C874 N872 1.377 1_455 S
C874 C877 1.411 . S
C875 H857 0.930 . S
C875 N872 1.321 1_565 S
C875 C873 1.400 . S
C876 H871 0.930 . S
C876 C873 1.386 1_455 S
C876 C877 1.395 1_565 S
C877 C874 1.411 . S
C877 C876 1.395 1_545 S
C877 C899 1.420 . S
O878 Eu834 2.558 . S
O878 C898 1.257 . S
O879 Eu834 2.612 . S
O879 Eu845 2.380 . S
O879 C890 1.276 . S
O880 Eu845 2.432 . S
O880 C897 1.264 . S
O881 Eu834 2.339 . S
O881 C897 1.254 . S
O882 Eu834 2.563 . S
O882 C890 1.235 . S
O883 Eu834 2.419 . S
O883 C898 1.249 . S
O884 Eu845 2.558 . S
O884 C909 1.257 . S
O885 Eu834 2.380 . S
O885 Eu845 2.612 . S
O885 C901 1.276 . S
O886 Eu834 2.432 . S
O886 C908 1.264 . S
O887 Eu845 2.339 . S
O887 C908 1.254 . S
O888 Eu845 2.563 . S
O888 C901 1.235 . S
O889 Eu845 2.419 . S
O889 C909 1.249 . S
C890 O879 1.276 . S
C890 O882 1.235 . S
C891 C893 1.393 . S
C891 C895 1.395 . S
C891 C898 1.492 . S
C892 C893 1.392 . S
C892 C894 1.386 . S
C893 C891 1.393 . S
C893 C892 1.392 . S
C893 H910 0.930 . S
C894 C892 1.386 . S
C894 C896 1.395 . S
C894 H911 0.930 . S
C895 C891 1.395 . S
C895 C896 1.379 . S
C895 H912 0.930 1_545 S
C896 C894 1.395 . S
C896 C895 1.379 . S
C896 H913 0.930 1_545 S
C897 O880 1.264 . S
C897 O881 1.254 . S
C898 Eu834 2.848 . S
C898 O878 1.257 . S
C898 O883 1.249 . S
C898 C891 1.492 . S
C899 H864 0.931 . S
C899 C877 1.420 . S
C899 C900 1.351 . S
C900 H862 0.930 . S
C900 C868 1.423 . S
C900 C899 1.351 . S
C901 O885 1.276 . S
C901 O888 1.235 . S
C902 C903 1.393 . S
C902 C906 1.395 . S
C902 C909 1.492 . S
C903 C902 1.393 . S
C903 C904 1.392 . S
C903 H914 0.930 . S
C904 C903 1.392 . S
C904 C905 1.386 . S
C905 C904 1.386 . S
C905 C907 1.395 . S
C905 H915 0.930 . S
C906 C902 1.395 . S
C906 C907 1.379 . S
C906 H916 0.930 . S
C907 C905 1.395 . S
C907 C906 1.379 . S
C907 H917 0.930 . S
C908 O886 1.264 . S
C908 O887 1.254 . S
C909 Eu845 2.848 . S
C909 O884 1.257 . S
C909 O889 1.249 . S
C909 C902 1.492 . S
H910 C893 0.930 . S
H911 C894 0.930 . S
H912 C895 0.930 1_565 S
H913 C896 0.930 1_565 S
H914 C903 0.930 . S
H915 C905 0.930 . S
H916 C906 0.930 . S
H917 C907 0.930 . S
C124 C229 1.393 . S
C130 C313 1.465 . S
C115 C393 1.447 . S
C106 C309 1.414 . S
C397 C85 1.381 . S
C97 C225 1.370 . S
C218 C103 1.424 . S
C302 C88 1.425 . S
C94 C404 1.441 . S
C121 C320 1.409 . S
C133 C386 1.341 . S
C236 C112 1.399 . S
C481 C16 1.392 1_455 S
C22 C565 1.465 . S
C7 C645 1.446 1_545 S
C160 C561 1.414 . S
C139 C649 1.382 . S
C151 C477 1.370 . S
C157 C470 1.423 . S
C142 C554 1.424 . S
C656 C148 1.441 . S
C13 C572 1.410 1_545 S
C638 C25 1.341 1_455 S
C4 C488 1.399 . S
C733 C70 1.392 . S
C76 C817 1.464 . S
C897 C61 1.447 . S
C813 C52 1.414 1_545 S
C901 C31 1.381 1_655 S
C43 C729 1.370 . S
C49 C722 1.424 1_455 S
C34 C806 1.424 . S
C908 C40 1.441 1_545 S
C67 C824 1.410 . S
C79 C890 1.341 . S
C58 C740 1.399 . S
C140 C232 1.669 . S
C316 C149 1.492 . S
C158 C388 1.554 . S
C59 C304 1.508 . S
C68 C400 1.544 . S
C220 C77 1.673 . S
C32 C484 1.669 . S
C41 C568 1.492 . S
C50 C640 1.554 . S
C113 C556 1.508 . S
C652 C122 1.543 . S
C131 C472 1.673 . S
C86 C736 1.669 . S
C95 C820 1.491 . S
C892 C104 1.554 . S
C5 C808 1.508 . S
C14 C904 1.543 . S
C23 C724 1.673 . S
