# Generated by pormake.
# Topology ant, (3,6)-cn, num edge types: 1
# Building blocks:
#     Node 0, Type 0, BuildingBlock: KAKCAD_clean_linker_0, # of connection points: 3
#     Node 1, Type 0, BuildingBlock: KAKCAD_clean_linker_0, # of connection points: 3
#     Node 2, Type 0, BuildingBlock: KAKCAD_clean_linker_0, # of connection points: 3
#     Node 3, Type 0, BuildingBlock: KAKCAD_clean_linker_0, # of connection points: 3
#     Node 4, Type 0, BuildingBlock: KAKCAD_clean_linker_0, # of connection points: 3
#     Node 5, Type 0, BuildingBlock: KAKCAD_clean_linker_0, # of connection points: 3
#     Node 6, Type 0, BuildingBlock: KAKCAD_clean_linker_0, # of connection points: 3
#     Node 7, Type 0, BuildingBlock: KAKCAD_clean_linker_0, # of connection points: 3
#     Node 8, Type 1, BuildingBlock: MIDCAF_clean_sbu_0, # of connection points: 6
#     Node 9, Type 1, BuildingBlock: MIDCAF_clean_sbu_0, # of connection points: 6
#     Node 10, Type 1, BuildingBlock: MIDCAF_clean_sbu_0, # of connection points: 6
#     Node 11, Type 1, BuildingBlock: MIDCAF_clean_sbu_0, # of connection points: 6
#     Edge 12, Type (0, 1), BuildingBlock: EYOCIG_clean_linker_4, # of connection points: 2
#     Edge 13, Type (0, 1), BuildingBlock: EYOCIG_clean_linker_4, # of connection points: 2
#     Edge 14, Type (0, 1), BuildingBlock: EYOCIG_clean_linker_4, # of connection points: 2
#     Edge 15, Type (0, 1), BuildingBlock: EYOCIG_clean_linker_4, # of connection points: 2
#     Edge 16, Type (0, 1), BuildingBlock: EYOCIG_clean_linker_4, # of connection points: 2
#     Edge 17, Type (0, 1), BuildingBlock: EYOCIG_clean_linker_4, # of connection points: 2
#     Edge 18, Type (0, 1), BuildingBlock: EYOCIG_clean_linker_4, # of connection points: 2
#     Edge 19, Type (0, 1), BuildingBlock: EYOCIG_clean_linker_4, # of connection points: 2
#     Edge 20, Type (0, 1), BuildingBlock: EYOCIG_clean_linker_4, # of connection points: 2
#     Edge 21, Type (0, 1), BuildingBlock: EYOCIG_clean_linker_4, # of connection points: 2
#     Edge 22, Type (0, 1), BuildingBlock: EYOCIG_clean_linker_4, # of connection points: 2
#     Edge 23, Type (0, 1), BuildingBlock: EYOCIG_clean_linker_4, # of connection points: 2
#     Edge 24, Type (0, 1), BuildingBlock: EYOCIG_clean_linker_4, # of connection points: 2
#     Edge 25, Type (0, 1), BuildingBlock: EYOCIG_clean_linker_4, # of connection points: 2
#     Edge 26, Type (0, 1), BuildingBlock: EYOCIG_clean_linker_4, # of connection points: 2
#     Edge 27, Type (0, 1), BuildingBlock: EYOCIG_clean_linker_4, # of connection points: 2
#     Edge 28, Type (0, 1), BuildingBlock: EYOCIG_clean_linker_4, # of connection points: 2
#     Edge 29, Type (0, 1), BuildingBlock: EYOCIG_clean_linker_4, # of connection points: 2
#     Edge 30, Type (0, 1), BuildingBlock: EYOCIG_clean_linker_4, # of connection points: 2
#     Edge 31, Type (0, 1), BuildingBlock: EYOCIG_clean_linker_4, # of connection points: 2
#     Edge 32, Type (0, 1), BuildingBlock: EYOCIG_clean_linker_4, # of connection points: 2
#     Edge 33, Type (0, 1), BuildingBlock: EYOCIG_clean_linker_4, # of connection points: 2
#     Edge 34, Type (0, 1), BuildingBlock: EYOCIG_clean_linker_4, # of connection points: 2
#     Edge 35, Type (0, 1), BuildingBlock: EYOCIG_clean_linker_4, # of connection points: 2
# Relax obj value: 0.103
# Max RMSD: 0.160
# Mean RMSD: 0.105
data_MOF--net-ant--node1-MIDCAF_clean_sbu_0--node2-KAKCAD_clean_linker_0--edge1-EYOCIG_clean_linker_4
_symmetry_space_group_name_H-M    P1
_symmetry_Int_Tables_number       1
_symmetry_cell_setting            triclinic
loop_
_symmetry_equiv_pos_as_xyz
'x, y, z'
_cell_length_a     29.004552
_cell_length_b     28.622765
_cell_length_c     77.945025
_cell_angle_alpha  90.377735
_cell_angle_beta   94.975784
_cell_angle_gamma 90.010901
loop_
_atom_site_label
_atom_site_type_symbol
_atom_site_fract_x
_atom_site_fract_y
_atom_site_fract_z
_atom_type_partial_charge
C0 C 0.1588 0.18049 0.00412 0.0
C1 C 0.18329 0.20688 0.99293 0.0
C2 C 0.16585 0.18776 0.02185 0.0
C3 C 0.19761 0.22159 0.02873 0.0
C4 C 0.22179 0.24851 0.01742 0.0
C5 C 0.21475 0.24106 -0.00041 0.0
C6 C 0.20476 0.22821 0.04767 0.0
C7 C 0.20822 0.18908 0.05835 0.0
C8 C 0.20816 0.1935 0.07629 0.0
C9 C 0.2069 0.23843 0.08369 0.0
C10 C 0.2049 0.2784 0.07315 0.0
C11 C 0.20403 0.27281 0.05515 0.0
C12 C 0.19929 0.326 0.08041 0.0
C13 C 0.16599 0.33476 0.09214 0.0
C14 C 0.22342 0.36397 0.07409 0.0
C15 C 0.21255 0.40977 0.07854 0.0
C16 C 0.17743 0.41837 0.08937 0.0
C17 C 0.20665 0.15034 0.08671 0.0
C18 C 0.17765 0.1133 0.08062 0.0
C19 C 0.23591 0.1441 0.10189 0.0
C20 C 0.23773 0.10072 0.11025 0.0
C21 C 0.21018 0.0635 0.10353 0.0
C22 C 0.1796 0.07031 0.08889 0.0
C23 C 0.15508 0.38073 0.09656 0.0
H24 H 0.13397 0.15439 -0.00087 0.0
H25 H 0.14598 0.16717 0.03021 0.0
H26 H 0.24644 0.27479 0.02237 0.0
H27 H 0.2337 0.262 0.99104 0.0
H28 H 0.21001 0.15464 0.05257 0.0
H29 H 0.2 0.30309 0.04687 0.0
H30 H 0.20627 0.24221 0.09751 0.0
H31 H 0.14667 0.3063 0.09716 0.0
H32 H 0.2497 0.35826 0.06523 0.0
H33 H 0.23057 0.4385 0.07307 0.0
H34 H 0.154 0.11726 0.06918 0.0
H35 H 0.25856 0.17201 0.10688 0.0
H36 H 0.12812 0.38687 0.1051 0.0
H37 H 0.15776 0.04202 0.08363 0.0
H38 H 0.26131 0.09597 0.12167 0.0
C39 C 0.12499 0.74343 0.25059 0.0
C40 C 0.09092 0.77044 0.24147 0.0
C41 C 0.13171 0.74678 0.26856 0.0
C42 C 0.10423 0.77713 0.2776 0.0
C43 C 0.07126 0.80534 0.26827 0.0
C44 C 0.06463 0.80196 0.25034 0.0
C45 C 0.10728 0.777 0.29672 0.0
C46 C 0.15006 0.77703 0.3066 0.0
C47 C 0.15232 0.77628 0.32475 0.0
C48 C 0.11081 0.77532 0.33294 0.0
C49 C 0.06784 0.77572 0.32311 0.0
C50 C 0.06658 0.77613 0.3051 0.0
C51 C 0.02337 0.77536 0.33113 0.0
C52 C 0.01378 0.74103 0.34315 0.0
C53 C 0.98803 0.80624 0.32507 0.0
C54 C 0.94331 0.80113 0.33003 0.0
C55 C 0.93318 0.76523 0.34117 0.0
C56 C 0.19815 0.77797 0.33494 0.0
C57 C 0.23584 0.7529 0.32933 0.0
C58 C 0.20544 0.80672 0.34967 0.0
C59 C 0.24985 0.8118 0.35811 0.0
C60 C 0.28737 0.78818 0.35193 0.0
C61 C 0.28004 0.75809 0.33773 0.0
C62 C 0.96873 0.73591 0.34811 0.0
H63 H 0.1458 0.71911 0.24386 0.0
H64 H 0.15716 0.72446 0.27539 0.0
H65 H 0.05011 0.82959 0.27487 0.0
H66 H 0.03853 0.82344 0.24343 0.0
H67 H 0.18158 0.77895 0.30012 0.0
H68 H 0.03344 0.77474 0.29752 0.0
H69 H 0.11186 0.77456 0.34687 0.0
H70 H 0.0404 0.71674 0.34796 0.0
H71 H -0.00534 0.83334 0.31595 0.0
H72 H 0.9163 0.82438 0.32472 0.0
H73 H 0.23134 0.72974 0.31826 0.0
H74 H 0.17726 0.82669 0.35428 0.0
H75 H 0.96138 0.70824 0.3569 0.0
H76 H 0.30871 0.73928 0.3329 0.0
H77 H 0.25504 0.83504 0.36914 0.0
C78 C 0.66097 0.67606 0.50436 0.0
C79 C 0.68505 0.7028 0.49315 0.0
C80 C 0.66855 0.68289 0.52211 0.0
C81 C 0.70042 0.71663 0.52897 0.0
C82 C 0.72425 0.74384 0.51764 0.0
C83 C 0.71668 0.73683 0.49981 0.0
C84 C 0.70795 0.72301 0.54791 0.0
C85 C 0.71153 0.6838 0.55855 0.0
C86 C 0.7119 0.68811 0.57651 0.0
C87 C 0.71089 0.73298 0.58397 0.0
C88 C 0.70875 0.773 0.57346 0.0
C89 C 0.70749 0.76755 0.55545 0.0
C90 C 0.70335 0.82054 0.58078 0.0
C91 C 0.67007 0.82932 0.59251 0.0
C92 C 0.72757 0.85845 0.57447 0.0
C93 C 0.71674 0.90426 0.57891 0.0
C94 C 0.68158 0.91289 0.58973 0.0
C95 C 0.71063 0.64492 0.58693 0.0
C96 C 0.6815 0.6079 0.58092 0.0
C97 C 0.74016 0.6387 0.60204 0.0
C98 C 0.7421 0.59536 0.61042 0.0
C99 C 0.71439 0.55815 0.60378 0.0
C100 C 0.68356 0.56494 0.58921 0.0
C101 C 0.65919 0.8753 0.59692 0.0
H102 H 0.63602 0.65007 0.49939 0.0
H103 H 0.64894 0.66209 0.53049 0.0
H104 H 0.74899 0.77005 0.52258 0.0
H105 H 0.73533 0.75803 0.49124 0.0
H106 H 0.7131 0.64939 0.55273 0.0
H107 H 0.70335 0.79792 0.54722 0.0
H108 H 0.71056 0.73669 0.5978 0.0
H109 H 0.65071 0.80088 0.59752 0.0
H110 H 0.75383 0.8527 0.56561 0.0
H111 H 0.73479 0.93297 0.57344 0.0
H112 H 0.65765 0.61186 0.56953 0.0
H113 H 0.76291 0.66661 0.60697 0.0
H114 H 0.63221 0.88149 0.60545 0.0
H115 H 0.66161 0.53666 0.58401 0.0
H116 H 0.76587 0.59061 0.62178 0.0
C117 C 0.62969 0.23467 0.75117 0.0
C118 C 0.59588 0.26166 0.7419 0.0
C119 C 0.63573 0.23795 0.76915 0.0
C120 C 0.60783 0.2682 0.77806 0.0
C121 C 0.57508 0.29634 0.76858 0.0
C122 C 0.56912 0.29302 0.75063 0.0
C123 C 0.6104 0.26836 0.79717 0.0
C124 C 0.65297 0.26899 0.80719 0.0
C125 C 0.65477 0.26929 0.82534 0.0
C126 C 0.61305 0.26869 0.83338 0.0
C127 C 0.57029 0.26847 0.82342 0.0
C128 C 0.56947 0.26778 0.80542 0.0
C129 C 0.52563 0.26928 0.8313 0.0
C130 C 0.51545 0.23615 0.84367 0.0
C131 C 0.4908 0.30026 0.82486 0.0
C132 C 0.44599 0.29645 0.82985 0.0
C133 C 0.43525 0.26175 0.84138 0.0
C134 C 0.70035 0.27227 0.83565 0.0
C135 C 0.73862 0.24746 0.83039 0.0
C136 C 0.70685 0.30224 0.85008 0.0
C137 C 0.75106 0.30887 0.8585 0.0
C138 C 0.78916 0.28563 0.85261 0.0
C139 C 0.78262 0.25422 0.83878 0.0
C140 C 0.47029 0.23233 0.84866 0.0
H141 H 0.65086 0.21046 0.74454 0.0
H142 H 0.66106 0.21573 0.7761 0.0
H143 H 0.55363 0.32054 0.77507 0.0
H144 H 0.54322 0.3145 0.74362 0.0
H145 H 0.68466 0.2708 0.80081 0.0
H146 H 0.53648 0.26605 0.79774 0.0
H147 H 0.61374 0.26892 0.84731 0.0
H148 H 0.54168 0.21184 0.84878 0.0
H149 H 0.49792 0.32648 0.81548 0.0
H150 H 0.41939 0.31976 0.82428 0.0
H151 H 0.73473 0.22341 0.81958 0.0
H152 H 0.6782 0.32205 0.85441 0.0
H153 H 0.46246 0.20558 0.85775 0.0
H154 H 0.81177 0.23568 0.83417 0.0
H155 H 0.75564 0.33312 0.86925 0.0
C156 C 0.02721 0.74343 0.99184 0.0
C157 C 0.0593 0.70974 -0.00176 0.0
C158 C 0.01976 0.75093 0.97406 0.0
C159 C 0.04416 0.72454 0.96256 0.0
C160 C 0.07674 0.69141 0.96917 0.0
C161 C 0.0842 0.6841 0.98685 0.0
C162 C 0.03595 0.73054 0.94365 0.0
C163 C 0.03598 0.77488 0.93616 0.0
C164 C 0.03396 0.77985 0.91813 0.0
C165 C 0.03139 0.73947 0.90759 0.0
C166 C 0.03098 0.69484 0.91504 0.0
C167 C 0.03215 0.69102 0.93299 0.0
C168 C 0.03249 0.65134 0.90463 0.0
C169 C 0.00129 0.64327 0.89007 0.0
C170 C 0.0634 0.61565 0.91028 0.0
C171 C 0.06155 0.5721 0.90221 0.0
C172 C 0.0291 0.56339 0.88823 0.0
C173 C 0.03927 0.82717 0.91079 0.0
C174 C 0.01645 0.86564 0.91754 0.0
C175 C 0.07116 0.83517 0.8985 0.0
C176 C 0.08215 0.88086 0.89395 0.0
C177 C 0.06129 0.91898 0.90159 0.0
C178 C 0.02744 0.91117 0.91298 0.0
C179 C -0.00047 0.59932 0.88191 0.0
H180 H 0.00795 0.7638 0.00056 0.0
H181 H -0.00549 0.77667 0.9693 0.0
H182 H 0.09674 0.67126 0.96064 0.0
H183 H 0.10952 0.65843 0.99163 0.0
H184 H 0.04041 0.80543 0.94444 0.0
H185 H 0.03116 0.65673 0.93879 0.0
H186 H 0.03106 0.74269 0.89373 0.0
H187 H 0.97714 0.67017 0.88546 0.0
H188 H 0.08838 0.62109 0.92128 0.0
H189 H 0.08491 0.54483 0.90715 0.0
H190 H 0.9912 0.86057 0.92682 0.0
H191 H 0.08947 0.80634 0.89312 0.0
H192 H 0.97444 0.59306 0.87102 0.0
H193 H 0.01056 0.9403 0.9188 0.0
H194 H 0.10809 0.8864 0.88497 0.0
C195 C 0.67301 0.79334 0.24121 0.0
C196 C 0.64639 0.76193 0.24984 0.0
C197 C 0.66683 0.79663 0.2233 0.0
C198 C 0.63398 0.76843 0.21374 0.0
C199 C 0.60625 0.73808 0.22254 0.0
C200 C 0.61251 0.73481 0.2405 0.0
C201 C 0.63103 0.76879 0.19463 0.0
C202 C 0.67178 0.76842 0.18627 0.0
C203 C 0.67063 0.76974 0.16827 0.0
C204 C 0.6277 0.77032 0.15842 0.0
C205 C 0.58619 0.77045 0.16659 0.0
C206 C 0.5883 0.76957 0.18473 0.0
C207 C 0.5405 0.77346 0.15643 0.0
C208 C 0.5334 0.80458 0.14252 0.0
C209 C 0.50274 0.7474 0.16134 0.0
C210 C 0.45858 0.7539 0.15311 0.0
C211 C 0.45141 0.78638 0.1398 0.0
C212 C 0.71509 0.77063 0.16024 0.0
C213 C 0.75075 0.80029 0.16716 0.0
C214 C 0.72416 0.73889 0.14711 0.0
C215 C 0.76899 0.73498 0.1418 0.0
C216 C 0.80483 0.76294 0.14954 0.0
C217 C 0.79524 0.79636 0.16188 0.0
C218 C 0.48903 0.81102 0.13426 0.0
H219 H 0.69894 0.8149 0.24829 0.0
H220 H 0.68814 0.82092 0.21688 0.0
H221 H 0.58085 0.71581 0.21553 0.0
H222 H 0.59145 0.71057 0.24706 0.0
H223 H 0.70485 0.76637 0.19386 0.0
H224 H 0.55672 0.77104 0.1912 0.0
H225 H 0.62667 0.7711 0.1445 0.0
H226 H 0.5617 0.82534 0.13849 0.0
H227 H 0.50718 0.72255 0.17177 0.0
H228 H 0.4298 0.73432 0.15742 0.0
H229 H 0.74453 0.82556 0.17711 0.0
H230 H 0.6973 0.71563 0.14158 0.0
H231 H 0.48394 0.83614 0.12393 0.0
H232 H 0.82249 0.81856 0.16782 0.0
H233 H 0.77594 0.70927 0.13209 0.0
C234 C 0.53456 0.23909 0.4919 0.0
C235 C 0.56655 0.20523 0.49822 0.0
C236 C 0.52706 0.24681 0.47414 0.0
C237 C 0.55129 0.22047 0.46257 0.0
C238 C 0.58379 0.18717 0.4691 0.0
C239 C 0.59131 0.17964 0.48678 0.0
C240 C 0.54288 0.22672 0.44368 0.0
C241 C 0.54248 0.27121 0.43629 0.0
C242 C 0.53959 0.2765 0.41826 0.0
C243 C 0.53654 0.23637 0.40762 0.0
C244 C 0.53656 0.1916 0.41496 0.0
C245 C 0.53878 0.18739 0.43292 0.0
C246 C 0.53687 0.14838 0.40436 0.0
C247 C 0.50465 0.14111 0.39003 0.0
C248 C 0.56755 0.11213 0.40961 0.0
C249 C 0.56441 0.06877 0.40142 0.0
C250 C 0.53086 0.06084 0.38772 0.0
C251 C 0.54421 0.32395 0.41099 0.0
C252 C 0.52125 0.36205 0.41792 0.0
C253 C 0.57559 0.33243 0.39856 0.0
C254 C 0.58597 0.37829 0.39404 0.0
C255 C 0.56499 0.41605 0.40185 0.0
C256 C 0.53162 0.40774 0.41339 0.0
C257 C 0.50159 0.09736 0.38176 0.0
H258 H 0.51539 0.25941 0.50066 0.0
H259 H 0.50185 0.27266 0.46944 0.0
H260 H 0.60365 0.16703 0.46052 0.0
H261 H 0.61655 0.15382 0.4915 0.0
H262 H 0.5471 0.30164 0.44462 0.0
H263 H 0.53805 0.15299 0.43864 0.0
H264 H 0.53538 0.23989 0.39375 0.0
H265 H 0.48066 0.16846 0.38573 0.0
H266 H 0.59329 0.11696 0.42041 0.0
H267 H 0.58755 0.041 0.40608 0.0
H268 H 0.49639 0.35655 0.42732 0.0
H269 H 0.59395 0.30386 0.39304 0.0
H270 H 0.47566 0.09169 0.37109 0.0
H271 H 0.51466 0.43661 0.41934 0.0
H272 H 0.61153 0.38425 0.38494 0.0
C273 C 0.17738 0.29281 0.74085 0.0
C274 C 0.15046 0.26187 0.74956 0.0
C275 C 0.17149 0.29554 0.72291 0.0
C276 C 0.13862 0.26723 0.7134 0.0
C277 C 0.11066 0.23728 0.72228 0.0
C278 C 0.11664 0.23459 0.74026 0.0
C279 C 0.1358 0.2671 0.6943 0.0
C280 C 0.17658 0.2664 0.68596 0.0
C281 C 0.17551 0.2671 0.66795 0.0
C282 C 0.13262 0.26747 0.65807 0.0
C283 C 0.09108 0.26797 0.66622 0.0
C284 C 0.09311 0.26767 0.68436 0.0
C285 C 0.04542 0.2706 0.65602 0.0
C286 C 0.03827 0.30129 0.64198 0.0
C287 C 0.00772 0.2446 0.66101 0.0
C288 C 0.96356 0.25078 0.65274 0.0
C289 C 0.95632 0.28287 0.63931 0.0
C290 C 0.22001 0.26737 0.65994 0.0
C291 C 0.2558 0.29709 0.66671 0.0
C292 C 0.22901 0.23491 0.64703 0.0
C293 C 0.2739 0.23033 0.64183 0.0
C294 C 0.30985 0.25833 0.64946 0.0
C295 C 0.30035 0.29249 0.66154 0.0
C296 C -0.0061 0.30741 0.63368 0.0
H297 H 0.2033 0.31449 0.74788 0.0
H298 H 0.193 0.31951 0.71643 0.0
H299 H 0.08525 0.21492 0.71532 0.0
H300 H 0.09535 0.21069 0.74688 0.0
H301 H 0.20963 0.26451 0.69357 0.0
H302 H 0.06149 0.26939 0.6908 0.0
H303 H 0.13164 0.26776 0.64414 0.0
H304 H 0.06653 0.32198 0.63788 0.0
H305 H 0.0122 0.22007 0.67155 0.0
H306 H 0.93482 0.23127 0.65713 0.0
H307 H 0.24963 0.32289 0.67648 0.0
H308 H 0.20205 0.2116 0.64162 0.0
H309 H 0.98875 0.33222 0.62325 0.0
H310 H 0.32769 0.31473 0.66738 0.0
H311 H 0.28078 0.20406 0.63231 0.0
Zn312 Zn 0.17575 0.69147 0.1406 0.0
Zn313 Zn 0.07293 0.80142 0.10235 0.0
Zn314 Zn 0.12421 0.74367 0.12024 0.0
C315 C 0.0937 0.72703 0.08092 0.0
C316 C 0.14894 0.85223 0.11387 0.0
O317 O 0.09267 0.74005 0.14512 0.0
O318 O 0.14931 0.70926 0.16229 0.0
C319 C 0.14211 0.63508 0.11347 0.0
O320 O 0.10823 0.70809 0.09531 0.0
O321 O 0.0809 0.76912 0.08033 0.0
O322 O 0.10782 0.85972 0.10795 0.0
O323 O 0.16261 0.81047 0.11776 0.0
O324 O 0.15852 0.63172 0.12893 0.0
O325 O 0.13006 0.67511 0.10707 0.0
O326 O 0.19353 0.77626 0.12345 0.0
O327 O 0.23579 0.71928 0.13576 0.0
C328 C 0.23311 0.75872 0.12866 0.0
O329 O 0.05846 0.75261 0.13255 0.0
O330 O 0.01407 0.79001 0.11256 0.0
C331 C 0.11036 0.7289 0.16027 0.0
C332 C 0.01863 0.76835 0.12661 0.0
Zn333 Zn 0.56176 0.68813 0.35123 0.0
Zn334 Zn 0.667 0.79884 0.38934 0.0
Zn335 Zn 0.61479 0.74063 0.37136 0.0
C336 C 0.59008 0.84894 0.37819 0.0
C337 C 0.71976 0.76609 0.36426 0.0
O338 O 0.60994 0.67251 0.38445 0.0
O339 O 0.57949 0.62879 0.36277 0.0
C340 C 0.5052 0.75565 0.36352 0.0
O341 O 0.57646 0.80713 0.37415 0.0
O342 O 0.63121 0.85664 0.38411 0.0
O343 O 0.72497 0.78779 0.37841 0.0
O344 O 0.6798 0.7499 0.35859 0.0
O345 O 0.50197 0.71609 0.35633 0.0
O346 O 0.5451 0.77298 0.36859 0.0
O347 O 0.64513 0.73608 0.34629 0.0
O348 O 0.58758 0.70513 0.32943 0.0
C349 C 0.62674 0.72446 0.33123 0.0
O350 O 0.6321 0.70559 0.39619 0.0
O351 O 0.66061 0.76644 0.41132 0.0
C352 C 0.59729 0.63241 0.37806 0.0
C353 C 0.64761 0.72438 0.41059 0.0
Zn354 Zn 0.57768 0.29575 0.60258 0.0
Zn355 Zn 0.6815 0.18621 0.64051 0.0
Zn356 Zn 0.62929 0.23818 0.62039 0.0
C357 C 0.7383 0.25363 0.62848 0.0
C358 C 0.64717 0.1298 0.61349 0.0
O359 O 0.56376 0.24672 0.63285 0.0
O360 O 0.51903 0.28365 0.61285 0.0
C361 C 0.6534 0.34689 0.61415 0.0
O362 O 0.69852 0.27106 0.62346 0.0
O363 O 0.74135 0.21409 0.63549 0.0
O364 O 0.66403 0.12648 0.6289 0.0
O365 O 0.63496 0.16981 0.60712 0.0
O366 O 0.61219 0.35423 0.6083 0.0
O367 O 0.66732 0.30514 0.61794 0.0
O368 O 0.61339 0.20285 0.59538 0.0
O369 O 0.58591 0.26395 0.58048 0.0
C370 C 0.59892 0.22192 0.58101 0.0
O371 O 0.59816 0.23399 0.64535 0.0
O372 O 0.65553 0.20377 0.66232 0.0
C373 C 0.5238 0.26213 0.62692 0.0
C374 C 0.61633 0.22291 0.66044 0.0
Zn375 Zn 0.0634 0.19109 0.85086 0.0
Zn376 Zn 0.16853 0.30111 0.88916 0.0
Zn377 Zn 0.1162 0.24308 0.87114 0.0
C378 C 0.14837 0.22645 0.91031 0.0
C379 C 0.09202 0.35175 0.87817 0.0
O380 O 0.14683 0.23849 0.84608 0.0
O381 O 0.08939 0.20788 0.82907 0.0
C382 C 0.09758 0.1348 0.87767 0.0
O383 O 0.13293 0.20769 0.8959 0.0
O384 O 0.16162 0.26842 0.91105 0.0
O385 O 0.1332 0.35928 0.88407 0.0
O386 O 0.07831 0.31 0.87404 0.0
O387 O 0.08032 0.1314 0.8623 0.0
O388 O 0.1104 0.17478 0.88413 0.0
O389 O 0.0469 0.27597 0.86842 0.0
O390 O 0.00377 0.21933 0.85598 0.0
C391 C 0.00702 0.25873 0.86329 0.0
O392 O 0.18146 0.25178 0.8585 0.0
O393 O 0.22659 0.28971 0.87832 0.0
C394 C 0.12864 0.227 0.83098 0.0
C395 C 0.22145 0.26779 0.86423 0.0
C396 C 0.15273 0.50602 0.09468 0.0
C397 C 0.16333 0.46579 0.09247 0.0
C398 C 0.14342 0.55349 0.09814 0.0
C399 C 0.14028 0.59314 0.10325 0.0
C400 C 0.84542 0.75512 0.34713 0.0
C401 C 0.88589 0.75816 0.34485 0.0
C402 C 0.79835 0.75505 0.35044 0.0
C403 C 0.76011 0.75772 0.35531 0.0
C404 C 0.71392 0.47174 0.61508 0.0
C405 C 0.71753 0.51226 0.61127 0.0
C406 C 0.70188 0.42431 0.61681 0.0
C407 C 0.68408 0.38621 0.61633 0.0
C408 C 0.87642 0.29791 0.86412 0.0
C409 C 0.83553 0.29505 0.85995 0.0
C410 C 0.92507 0.29429 0.86624 0.0
C411 C 0.965 0.28304 0.86591 0.0
C412 C 0.03028 0.47612 0.87744 0.0
C413 C 0.02617 0.51684 0.88108 0.0
C414 C 0.04297 0.42879 0.87577 0.0
C415 C 0.0612 0.39092 0.87615 0.0
C416 C 0.89232 0.75488 0.14303 0.0
C417 C 0.85191 0.75694 0.14546 0.0
C418 C 0.9394 0.75592 0.13979 0.0
C419 C 0.97779 0.75935 0.13515 0.0
C420 C 0.58917 0.50356 0.39649 0.0
C421 C 0.57886 0.46335 0.39868 0.0
C422 C 0.59791 0.55102 0.39313 0.0
C423 C 0.60033 0.59064 0.38813 0.0
C424 C 0.86883 0.29387 0.62799 0.0
C425 C 0.90976 0.29165 0.63211 0.0
C426 C 0.82024 0.28958 0.62585 0.0
C427 C 0.7804 0.27799 0.6261 0.0
C428 C 0.39745 0.24907 0.64323 0.0
C429 C 0.35698 0.25162 0.64554 0.0
C430 C 0.44462 0.24973 0.64011 0.0
C431 C 0.48307 0.25309 0.63552 0.0
C432 C 0.36398 0.798 0.12848 0.0
C433 C 0.40488 0.79547 0.13264 0.0
C434 C 0.31538 0.7941 0.12624 0.0
C435 C 0.27542 0.78278 0.12638 0.0
C436 C 0.34732 0.2541 0.84741 0.0
C437 C 0.38785 0.25602 0.84513 0.0
C438 C 0.30021 0.25522 0.85066 0.0
C439 C 0.26194 0.25864 0.85544 0.0
C440 C 0.37486 0.79715 0.36373 0.0
C441 C 0.33395 0.79569 0.35944 0.0
C442 C 0.42339 0.79221 0.36605 0.0
C443 C 0.46319 0.78032 0.36588 0.0
C444 C 0.65689 0.00058 0.59489 0.0
C445 C 0.66743 0.96032 0.59276 0.0
C446 C 0.64777 0.04812 0.59825 0.0
C447 C 0.64488 0.08783 0.6033 0.0
C448 C 0.20961 0.97701 0.11478 0.0
C449 C 0.21323 0.01756 0.111 0.0
C450 C 0.19758 0.92957 0.11652 0.0
C451 C 0.17975 0.89147 0.11606 0.0
C452 C 0.52946 0.97357 0.37695 0.0
C453 C 0.52636 0.01439 0.38057 0.0
C454 C 0.54134 0.92602 0.37541 0.0
C455 C 0.55929 0.88804 0.37594 0.0
C456 C 0.08669 0.00614 0.89615 0.0
C457 C 0.07578 0.9661 0.8984 0.0
C458 C 0.09629 0.05343 0.89275 0.0
C459 C 0.09954 0.09298 0.88774 0.0
C460 C 0.16738 0.19338 0.95933 0.0
C461 C 0.17471 0.19962 0.97463 0.0
C462 C 0.15781 0.1924 0.94127 0.0
C463 C 0.15101 0.20132 0.92618 0.0
C464 C 0.07818 0.75907 0.20769 0.0
C465 C 0.08279 0.76537 0.22306 0.0
C466 C 0.07931 0.75043 0.18989 0.0
C467 C 0.08886 0.74259 0.17541 0.0
C468 C 0.66805 0.69036 0.45953 0.0
C469 C 0.67586 0.6961 0.47485 0.0
C470 C 0.65797 0.68992 0.4415 0.0
C471 C 0.65078 0.69913 0.42644 0.0
C472 C 0.58424 0.251 0.70806 0.0
C473 C 0.58851 0.25683 0.72345 0.0
C474 C 0.58547 0.24309 0.69021 0.0
C475 C 0.5949 0.23584 0.67568 0.0
C476 C 0.0753 0.69518 0.0317 0.0
C477 C 0.06787 0.70197 0.01647 0.0
C478 C 0.08479 0.69348 0.04975 0.0
C479 C 0.09134 0.70196 0.06492 0.0
C480 C 0.65833 0.7516 0.28362 0.0
C481 C 0.65389 0.75726 0.26826 0.0
C482 C 0.65722 0.74399 0.30144 0.0
C483 C 0.64788 0.73705 0.31597 0.0
C484 C 0.58215 0.19042 0.53169 0.0
C485 C 0.57502 0.1972 0.51644 0.0
C486 C 0.59107 0.18874 0.54976 0.0
C487 C 0.59711 0.19714 0.56495 0.0
C488 C 0.16154 0.2528 0.78341 0.0
C489 C 0.15753 0.25791 0.76801 0.0
C490 C 0.15995 0.24577 0.80125 0.0
C491 C 0.15027 0.23919 0.81577 0.0
loop_
_geom_bond_atom_site_label_1
_geom_bond_atom_site_label_2
_geom_bond_distance
_geom_bond_site_symmetry_2
_ccdc_geom_bond_type
C0 C1 1.386 1_554 S
C0 C2 1.397 . S
C0 H24 0.931 1_554 S
C1 C0 1.386 1_556 S
C1 C5 1.397 1_556 S
C2 C0 1.397 . S
C2 C3 1.384 . S
C2 H25 0.930 . S
C3 C2 1.384 . S
C3 C4 1.377 . S
C3 C6 1.481 . S
C4 C3 1.377 . S
C4 C5 1.389 . S
C4 H26 0.929 . S
C5 C1 1.397 1_554 S
C5 C4 1.389 . S
C5 H27 0.926 1_554 S
C6 C3 1.481 . S
C6 C7 1.387 . S
C6 C11 1.390 . S
C7 C6 1.387 . S
C7 C8 1.401 . S
C7 H28 0.930 . S
C8 C7 1.401 . S
C8 C9 1.376 . S
C8 C17 1.511 . S
C9 C8 1.376 . S
C9 C10 1.392 . S
C9 H30 0.931 . S
C10 C9 1.392 . S
C10 C11 1.361 . S
C10 C12 1.500 . S
C11 C6 1.390 . S
C11 C10 1.361 . S
C11 H29 0.931 . S
C12 C10 1.500 . S
C12 C13 1.371 . S
C12 C14 1.365 . S
C13 C12 1.371 . S
C13 C23 1.386 . S
C13 H31 0.931 . S
C14 C12 1.365 . S
C14 C15 1.409 . S
C14 H32 0.929 . S
C15 C14 1.409 . S
C15 C16 1.380 . S
C15 H33 0.930 . S
C16 C15 1.380 . S
C16 C23 1.357 . S
C17 C8 1.511 . S
C17 C18 1.341 . S
C17 C19 1.371 . S
C18 C17 1.341 . S
C18 C22 1.394 . S
C18 H34 0.930 . S
C19 C17 1.371 . S
C19 C20 1.392 . S
C19 H35 0.931 . S
C20 C19 1.392 . S
C20 C21 1.331 . S
C20 H38 0.932 . S
C21 C20 1.331 . S
C21 C22 1.336 . S
C22 C18 1.394 . S
C22 C21 1.336 . S
C22 H37 0.929 . S
C23 C13 1.386 . S
C23 C16 1.357 . S
C23 H36 0.928 . S
H24 C0 0.931 1_556 S
H25 C2 0.930 . S
H26 C4 0.929 . S
H27 C5 0.926 1_556 S
H28 C7 0.930 . S
H29 C11 0.931 . S
H30 C9 0.931 . S
H31 C13 0.931 . S
H32 C14 0.929 . S
H33 C15 0.930 . S
H34 C18 0.930 . S
H35 C19 0.931 . S
H36 C23 0.928 . S
H37 C22 0.929 . S
H38 C20 0.932 . S
C39 C40 1.386 . S
C39 C41 1.397 . S
C39 H63 0.931 . S
C40 C39 1.386 . S
C40 C44 1.397 . S
C41 C39 1.397 . S
C41 C42 1.384 . S
C41 H64 0.930 . S
C42 C41 1.384 . S
C42 C43 1.377 . S
C42 C45 1.481 . S
C43 C42 1.377 . S
C43 C44 1.389 . S
C43 H65 0.929 . S
C44 C40 1.397 . S
C44 C43 1.389 . S
C44 H66 0.931 . S
C45 C42 1.481 . S
C45 C46 1.387 . S
C45 C50 1.390 . S
C46 C45 1.387 . S
C46 C47 1.401 . S
C46 H67 0.930 . S
C47 C46 1.401 . S
C47 C48 1.376 . S
C47 C56 1.511 . S
C48 C47 1.376 . S
C48 C49 1.392 . S
C48 H69 0.931 . S
C49 C48 1.392 . S
C49 C50 1.361 . S
C49 C51 1.500 . S
C50 C45 1.390 . S
C50 C49 1.361 . S
C50 H68 0.931 . S
C51 C49 1.500 . S
C51 C52 1.371 . S
C51 C53 1.365 1_455 S
C52 C51 1.371 . S
C52 C62 1.386 1_455 S
C52 H70 0.931 . S
C53 C51 1.365 1_655 S
C53 C54 1.409 . S
C53 H71 0.929 . S
C54 C53 1.409 . S
C54 C55 1.380 . S
C54 H72 0.930 . S
C55 C54 1.380 . S
C55 C62 1.357 . S
C56 C47 1.511 . S
C56 C57 1.341 . S
C56 C58 1.371 . S
C57 C56 1.341 . S
C57 C61 1.394 . S
C57 H73 0.930 . S
C58 C56 1.371 . S
C58 C59 1.392 . S
C58 H74 0.931 . S
C59 C58 1.392 . S
C59 C60 1.331 . S
C59 H77 0.932 . S
C60 C59 1.331 . S
C60 C61 1.336 . S
C61 C57 1.394 . S
C61 C60 1.336 . S
C61 H76 0.929 . S
C62 C52 1.386 1_655 S
C62 C55 1.357 . S
C62 H75 0.928 . S
H63 C39 0.931 . S
H64 C41 0.930 . S
H65 C43 0.929 . S
H66 C44 0.931 . S
H67 C46 0.930 . S
H68 C50 0.931 . S
H69 C48 0.931 . S
H70 C52 0.931 . S
H71 C53 0.929 . S
H72 C54 0.930 . S
H73 C57 0.930 . S
H74 C58 0.931 . S
H75 C62 0.928 . S
H76 C61 0.929 . S
H77 C59 0.932 . S
C78 C79 1.386 . S
C78 C80 1.397 . S
C78 H102 0.931 . S
C79 C78 1.386 . S
C79 C83 1.397 . S
C80 C78 1.397 . S
C80 C81 1.384 . S
C80 H103 0.930 . S
C81 C80 1.384 . S
C81 C82 1.377 . S
C81 C84 1.481 . S
C82 C81 1.377 . S
C82 C83 1.389 . S
C82 H104 0.929 . S
C83 C79 1.397 . S
C83 C82 1.389 . S
C83 H105 0.931 . S
C84 C81 1.481 . S
C84 C85 1.387 . S
C84 C89 1.390 . S
C85 C84 1.387 . S
C85 C86 1.401 . S
C85 H106 0.930 . S
C86 C85 1.401 . S
C86 C87 1.376 . S
C86 C95 1.511 . S
C87 C86 1.376 . S
C87 C88 1.392 . S
C87 H108 0.931 . S
C88 C87 1.392 . S
C88 C89 1.361 . S
C88 C90 1.500 . S
C89 C84 1.390 . S
C89 C88 1.361 . S
C89 H107 0.931 . S
C90 C88 1.500 . S
C90 C91 1.371 . S
C90 C92 1.365 . S
C91 C90 1.371 . S
C91 C101 1.386 . S
C91 H109 0.931 . S
C92 C90 1.365 . S
C92 C93 1.409 . S
C92 H110 0.929 . S
C93 C92 1.409 . S
C93 C94 1.380 . S
C93 H111 0.930 . S
C94 C93 1.380 . S
C94 C101 1.357 . S
C95 C86 1.511 . S
C95 C96 1.341 . S
C95 C97 1.371 . S
C96 C95 1.341 . S
C96 C100 1.394 . S
C96 H112 0.930 . S
C97 C95 1.371 . S
C97 C98 1.392 . S
C97 H113 0.931 . S
C98 C97 1.392 . S
C98 C99 1.331 . S
C98 H116 0.932 . S
C99 C98 1.331 . S
C99 C100 1.336 . S
C100 C96 1.394 . S
C100 C99 1.336 . S
C100 H115 0.929 . S
C101 C91 1.386 . S
C101 C94 1.357 . S
C101 H114 0.928 . S
H102 C78 0.931 . S
H103 C80 0.930 . S
H104 C82 0.929 . S
H105 C83 0.931 . S
H106 C85 0.930 . S
H107 C89 0.931 . S
H108 C87 0.931 . S
H109 C91 0.931 . S
H110 C92 0.929 . S
H111 C93 0.930 . S
H112 C96 0.930 . S
H113 C97 0.931 . S
H114 C101 0.928 . S
H115 C100 0.929 . S
H116 C98 0.932 . S
C117 C118 1.386 . S
C117 C119 1.397 . S
C117 H141 0.931 . S
C118 C117 1.386 . S
C118 C122 1.397 . S
C119 C117 1.397 . S
C119 C120 1.384 . S
C119 H142 0.930 . S
C120 C119 1.384 . S
C120 C121 1.377 . S
C120 C123 1.481 . S
C121 C120 1.377 . S
C121 C122 1.389 . S
C121 H143 0.929 . S
C122 C118 1.397 . S
C122 C121 1.389 . S
C122 H144 0.931 . S
C123 C120 1.481 . S
C123 C124 1.387 . S
C123 C128 1.390 . S
C124 C123 1.387 . S
C124 C125 1.401 . S
C124 H145 0.930 . S
C125 C124 1.401 . S
C125 C126 1.376 . S
C125 C134 1.511 . S
C126 C125 1.376 . S
C126 C127 1.392 . S
C126 H147 0.931 . S
C127 C126 1.392 . S
C127 C128 1.361 . S
C127 C129 1.500 . S
C128 C123 1.390 . S
C128 C127 1.361 . S
C128 H146 0.931 . S
C129 C127 1.500 . S
C129 C130 1.371 . S
C129 C131 1.365 . S
C130 C129 1.371 . S
C130 C140 1.386 . S
C130 H148 0.931 . S
C131 C129 1.365 . S
C131 C132 1.409 . S
C131 H149 0.929 . S
C132 C131 1.409 . S
C132 C133 1.380 . S
C132 H150 0.930 . S
C133 C132 1.380 . S
C133 C140 1.357 . S
C134 C125 1.511 . S
C134 C135 1.341 . S
C134 C136 1.371 . S
C135 C134 1.341 . S
C135 C139 1.394 . S
C135 H151 0.930 . S
C136 C134 1.371 . S
C136 C137 1.392 . S
C136 H152 0.931 . S
C137 C136 1.392 . S
C137 C138 1.331 . S
C137 H155 0.932 . S
C138 C137 1.331 . S
C138 C139 1.336 . S
C139 C135 1.394 . S
C139 C138 1.336 . S
C139 H154 0.929 . S
C140 C130 1.386 . S
C140 C133 1.357 . S
C140 H153 0.928 . S
H141 C117 0.931 . S
H142 C119 0.930 . S
H143 C121 0.929 . S
H144 C122 0.931 . S
H145 C124 0.930 . S
H146 C128 0.931 . S
H147 C126 0.931 . S
H148 C130 0.931 . S
H149 C131 0.929 . S
H150 C132 0.930 . S
H151 C135 0.930 . S
H152 C136 0.931 . S
H153 C140 0.928 . S
H154 C139 0.929 . S
H155 C137 0.932 . S
C156 C157 1.386 1_556 S
C156 C158 1.397 . S
C156 H180 0.954 1_455 S
C157 C156 1.386 1_554 S
C157 C161 1.397 1_554 S
C158 C156 1.397 . S
C158 C159 1.384 . S
C158 H181 0.930 1_455 S
C159 C158 1.384 . S
C159 C160 1.377 . S
C159 C162 1.481 . S
C160 C159 1.377 . S
C160 C161 1.389 . S
C160 H182 0.929 . S
C161 C157 1.397 1_556 S
C161 C160 1.389 . S
C161 H183 0.929 . S
C162 C159 1.481 . S
C162 C163 1.387 . S
C162 C167 1.390 . S
C163 C162 1.387 . S
C163 C164 1.401 . S
C163 H184 0.930 . S
C164 C163 1.401 . S
C164 C165 1.376 . S
C164 C173 1.511 . S
C165 C164 1.376 . S
C165 C166 1.392 . S
C165 H186 0.931 . S
C166 C165 1.392 . S
C166 C167 1.361 . S
C166 C168 1.500 . S
C167 C162 1.390 . S
C167 C166 1.361 . S
C167 H185 0.931 . S
C168 C166 1.500 . S
C168 C169 1.371 . S
C168 C170 1.365 . S
C169 C168 1.371 . S
C169 C179 1.386 . S
C169 H187 0.931 . S
C170 C168 1.365 . S
C170 C171 1.409 . S
C170 H188 0.929 . S
C171 C170 1.409 . S
C171 C172 1.380 . S
C171 H189 0.930 . S
C172 C171 1.380 . S
C172 C179 1.357 . S
C173 C164 1.511 . S
C173 C174 1.341 . S
C173 C175 1.371 . S
C174 C173 1.341 . S
C174 C178 1.394 . S
C174 H190 0.930 . S
C175 C173 1.371 . S
C175 C176 1.392 . S
C175 H191 0.931 . S
C176 C175 1.392 . S
C176 C177 1.331 . S
C176 H194 0.932 . S
C177 C176 1.331 . S
C177 C178 1.336 . S
C178 C174 1.394 . S
C178 C177 1.336 . S
C178 H193 0.929 . S
C179 C169 1.386 . S
C179 C172 1.357 . S
C179 H192 0.928 . S
H180 C156 0.954 1_655 S
H181 C158 0.930 1_655 S
H182 C160 0.929 . S
H183 C161 0.929 . S
H184 C163 0.930 . S
H185 C167 0.931 . S
H186 C165 0.931 . S
H187 C169 0.931 . S
H188 C170 0.929 . S
H189 C171 0.930 . S
H190 C174 0.930 . S
H191 C175 0.931 . S
H192 C179 0.928 . S
H193 C178 0.929 . S
H194 C176 0.932 . S
C195 C196 1.386 . S
C195 C197 1.397 . S
C195 H219 0.931 . S
C196 C195 1.386 . S
C196 C200 1.397 . S
C197 C195 1.397 . S
C197 C198 1.384 . S
C197 H220 0.930 . S
C198 C197 1.384 . S
C198 C199 1.377 . S
C198 C201 1.481 . S
C199 C198 1.377 . S
C199 C200 1.389 . S
C199 H221 0.929 . S
C200 C196 1.397 . S
C200 C199 1.389 . S
C200 H222 0.931 . S
C201 C198 1.481 . S
C201 C202 1.387 . S
C201 C206 1.390 . S
C202 C201 1.387 . S
C202 C203 1.401 . S
C202 H223 0.930 . S
C203 C202 1.401 . S
C203 C204 1.376 . S
C203 C212 1.511 . S
C204 C203 1.376 . S
C204 C205 1.392 . S
C204 H225 0.931 . S
C205 C204 1.392 . S
C205 C206 1.361 . S
C205 C207 1.500 . S
C206 C201 1.390 . S
C206 C205 1.361 . S
C206 H224 0.931 . S
C207 C205 1.500 . S
C207 C208 1.371 . S
C207 C209 1.365 . S
C208 C207 1.371 . S
C208 C218 1.386 . S
C208 H226 0.931 . S
C209 C207 1.365 . S
C209 C210 1.409 . S
C209 H227 0.929 . S
C210 C209 1.409 . S
C210 C211 1.380 . S
C210 H228 0.930 . S
C211 C210 1.380 . S
C211 C218 1.357 . S
C212 C203 1.511 . S
C212 C213 1.341 . S
C212 C214 1.371 . S
C213 C212 1.341 . S
C213 C217 1.394 . S
C213 H229 0.930 . S
C214 C212 1.371 . S
C214 C215 1.392 . S
C214 H230 0.931 . S
C215 C214 1.392 . S
C215 C216 1.331 . S
C215 H233 0.932 . S
C216 C215 1.331 . S
C216 C217 1.336 . S
C217 C213 1.394 . S
C217 C216 1.336 . S
C217 H232 0.929 . S
C218 C208 1.386 . S
C218 C211 1.357 . S
C218 H231 0.928 . S
H219 C195 0.931 . S
H220 C197 0.930 . S
H221 C199 0.929 . S
H222 C200 0.931 . S
H223 C202 0.930 . S
H224 C206 0.931 . S
H225 C204 0.931 . S
H226 C208 0.931 . S
H227 C209 0.929 . S
H228 C210 0.930 . S
H229 C213 0.930 . S
H230 C214 0.931 . S
H231 C218 0.928 . S
H232 C217 0.929 . S
H233 C215 0.932 . S
C234 C235 1.386 . S
C234 C236 1.397 . S
C234 H258 0.931 . S
C235 C234 1.386 . S
C235 C239 1.397 . S
C236 C234 1.397 . S
C236 C237 1.384 . S
C236 H259 0.930 . S
C237 C236 1.384 . S
C237 C238 1.377 . S
C237 C240 1.481 . S
C238 C237 1.377 . S
C238 C239 1.389 . S
C238 H260 0.929 . S
C239 C235 1.397 . S
C239 C238 1.389 . S
C239 H261 0.931 . S
C240 C237 1.481 . S
C240 C241 1.387 . S
C240 C245 1.390 . S
C241 C240 1.387 . S
C241 C242 1.401 . S
C241 H262 0.930 . S
C242 C241 1.401 . S
C242 C243 1.376 . S
C242 C251 1.511 . S
C243 C242 1.376 . S
C243 C244 1.392 . S
C243 H264 0.931 . S
C244 C243 1.392 . S
C244 C245 1.361 . S
C244 C246 1.500 . S
C245 C240 1.390 . S
C245 C244 1.361 . S
C245 H263 0.931 . S
C246 C244 1.500 . S
C246 C247 1.371 . S
C246 C248 1.365 . S
C247 C246 1.371 . S
C247 C257 1.386 . S
C247 H265 0.931 . S
C248 C246 1.365 . S
C248 C249 1.409 . S
C248 H266 0.929 . S
C249 C248 1.409 . S
C249 C250 1.380 . S
C249 H267 0.930 . S
C250 C249 1.380 . S
C250 C257 1.357 . S
C251 C242 1.511 . S
C251 C252 1.341 . S
C251 C253 1.371 . S
C252 C251 1.341 . S
C252 C256 1.394 . S
C252 H268 0.930 . S
C253 C251 1.371 . S
C253 C254 1.392 . S
C253 H269 0.931 . S
C254 C253 1.392 . S
C254 C255 1.331 . S
C254 H272 0.932 . S
C255 C254 1.331 . S
C255 C256 1.336 . S
C256 C252 1.394 . S
C256 C255 1.336 . S
C256 H271 0.929 . S
C257 C247 1.386 . S
C257 C250 1.357 . S
C257 H270 0.928 . S
H258 C234 0.931 . S
H259 C236 0.930 . S
H260 C238 0.929 . S
H261 C239 0.931 . S
H262 C241 0.930 . S
H263 C245 0.931 . S
H264 C243 0.931 . S
H265 C247 0.931 . S
H266 C248 0.929 . S
H267 C249 0.930 . S
H268 C252 0.930 . S
H269 C253 0.931 . S
H270 C257 0.928 . S
H271 C256 0.929 . S
H272 C254 0.932 . S
C273 C274 1.386 . S
C273 C275 1.397 . S
C273 H297 0.931 . S
C274 C273 1.386 . S
C274 C278 1.397 . S
C275 C273 1.397 . S
C275 C276 1.384 . S
C275 H298 0.930 . S
C276 C275 1.384 . S
C276 C277 1.377 . S
C276 C279 1.481 . S
C277 C276 1.377 . S
C277 C278 1.389 . S
C277 H299 0.929 . S
C278 C274 1.397 . S
C278 C277 1.389 . S
C278 H300 0.931 . S
C279 C276 1.481 . S
C279 C280 1.387 . S
C279 C284 1.390 . S
C280 C279 1.387 . S
C280 C281 1.401 . S
C280 H301 0.930 . S
C281 C280 1.401 . S
C281 C282 1.376 . S
C281 C290 1.511 . S
C282 C281 1.376 . S
C282 C283 1.392 . S
C282 H303 0.931 . S
C283 C282 1.392 . S
C283 C284 1.361 . S
C283 C285 1.500 . S
C284 C279 1.390 . S
C284 C283 1.361 . S
C284 H302 0.931 . S
C285 C283 1.500 . S
C285 C286 1.371 . S
C285 C287 1.365 . S
C286 C285 1.371 . S
C286 C296 1.386 . S
C286 H304 0.931 . S
C287 C285 1.365 . S
C287 C288 1.409 1_455 S
C287 H305 0.929 . S
C288 C287 1.409 1_655 S
C288 C289 1.380 . S
C288 H306 0.930 . S
C289 C288 1.380 . S
C289 C296 1.357 1_655 S
C290 C281 1.511 . S
C290 C291 1.341 . S
C290 C292 1.371 . S
C291 C290 1.341 . S
C291 C295 1.394 . S
C291 H307 0.930 . S
C292 C290 1.371 . S
C292 C293 1.392 . S
C292 H308 0.931 . S
C293 C292 1.392 . S
C293 C294 1.331 . S
C293 H311 0.932 . S
C294 C293 1.331 . S
C294 C295 1.336 . S
C295 C291 1.394 . S
C295 C294 1.336 . S
C295 H310 0.929 . S
C296 C286 1.386 . S
C296 C289 1.357 1_455 S
C296 H309 0.928 1_455 S
H297 C273 0.931 . S
H298 C275 0.930 . S
H299 C277 0.929 . S
H300 C278 0.931 . S
H301 C280 0.930 . S
H302 C284 0.931 . S
H303 C282 0.931 . S
H304 C286 0.931 . S
H305 C287 0.929 . S
H306 C288 0.930 . S
H307 C291 0.930 . S
H308 C292 0.931 . S
H309 C296 0.928 1_655 S
H310 C295 0.929 . S
H311 C293 0.932 . S
Zn312 O318 1.920 . S
Zn312 O324 1.898 . S
Zn312 O327 1.905 . S
Zn313 O321 1.905 . S
Zn313 O322 1.898 . S
Zn313 O330 1.920 . S
Zn314 O317 2.080 . S
Zn314 O320 2.114 . S
Zn314 O323 2.120 . S
Zn314 O325 2.120 . S
Zn314 O326 2.114 . S
Zn314 O329 2.080 . S
C315 O320 1.166 . S
C315 O321 1.182 . S
C316 O322 1.167 . S
C316 O323 1.299 . S
O317 Zn314 2.080 . S
O317 C331 1.305 . S
O318 Zn312 1.920 . S
O318 C331 1.234 . S
C319 O324 1.167 . S
C319 O325 1.299 . S
O320 Zn314 2.114 . S
O320 C315 1.166 . S
O321 Zn313 1.905 . S
O321 C315 1.182 . S
O322 Zn313 1.898 . S
O322 C316 1.167 . S
O323 Zn314 2.120 . S
O323 C316 1.299 . S
O324 Zn312 1.898 . S
O324 C319 1.167 . S
O325 Zn314 2.120 . S
O325 C319 1.299 . S
O326 Zn314 2.114 . S
O326 C328 1.166 . S
O327 Zn312 1.905 . S
O327 C328 1.182 . S
C328 O326 1.166 . S
C328 O327 1.182 . S
O329 Zn314 2.080 . S
O329 C332 1.305 . S
O330 Zn313 1.920 . S
O330 C332 1.234 . S
C331 O317 1.305 . S
C331 O318 1.234 . S
C332 O329 1.305 . S
C332 O330 1.234 . S
Zn333 O339 1.920 . S
Zn333 O345 1.898 . S
Zn333 O348 1.905 . S
Zn334 O342 1.905 . S
Zn334 O343 1.898 . S
Zn334 O351 1.920 . S
Zn335 O338 2.080 . S
Zn335 O341 2.114 . S
Zn335 O344 2.120 . S
Zn335 O346 2.120 . S
Zn335 O347 2.114 . S
Zn335 O350 2.080 . S
C336 O341 1.166 . S
C336 O342 1.182 . S
C337 O343 1.167 . S
C337 O344 1.299 . S
O338 Zn335 2.080 . S
O338 C352 1.305 . S
O339 Zn333 1.920 . S
O339 C352 1.234 . S
C340 O345 1.167 . S
C340 O346 1.299 . S
O341 Zn335 2.114 . S
O341 C336 1.166 . S
O342 Zn334 1.905 . S
O342 C336 1.182 . S
O343 Zn334 1.898 . S
O343 C337 1.167 . S
O344 Zn335 2.120 . S
O344 C337 1.299 . S
O345 Zn333 1.898 . S
O345 C340 1.167 . S
O346 Zn335 2.120 . S
O346 C340 1.299 . S
O347 Zn335 2.114 . S
O347 C349 1.166 . S
O348 Zn333 1.905 . S
O348 C349 1.182 . S
C349 O347 1.166 . S
C349 O348 1.182 . S
O350 Zn335 2.080 . S
O350 C353 1.305 . S
O351 Zn334 1.920 . S
O351 C353 1.234 . S
C352 O338 1.305 . S
C352 O339 1.234 . S
C353 O350 1.305 . S
C353 O351 1.234 . S
Zn354 O360 1.920 . S
Zn354 O366 1.898 . S
Zn354 O369 1.905 . S
Zn355 O363 1.905 . S
Zn355 O364 1.898 . S
Zn355 O372 1.920 . S
Zn356 O359 2.080 . S
Zn356 O362 2.114 . S
Zn356 O365 2.120 . S
Zn356 O367 2.120 . S
Zn356 O368 2.114 . S
Zn356 O371 2.080 . S
C357 O362 1.166 . S
C357 O363 1.182 . S
C358 O364 1.167 . S
C358 O365 1.299 . S
O359 Zn356 2.080 . S
O359 C373 1.305 . S
O360 Zn354 1.920 . S
O360 C373 1.234 . S
C361 O366 1.167 . S
C361 O367 1.299 . S
O362 Zn356 2.114 . S
O362 C357 1.166 . S
O363 Zn355 1.905 . S
O363 C357 1.182 . S
O364 Zn355 1.898 . S
O364 C358 1.167 . S
O365 Zn356 2.120 . S
O365 C358 1.299 . S
O366 Zn354 1.898 . S
O366 C361 1.167 . S
O367 Zn356 2.120 . S
O367 C361 1.299 . S
O368 Zn356 2.114 . S
O368 C370 1.166 . S
O369 Zn354 1.905 . S
O369 C370 1.182 . S
C370 O368 1.166 . S
C370 O369 1.182 . S
O371 Zn356 2.080 . S
O371 C374 1.305 . S
O372 Zn355 1.920 . S
O372 C374 1.234 . S
C373 O359 1.305 . S
C373 O360 1.234 . S
C374 O371 1.305 . S
C374 O372 1.234 . S
Zn375 O381 1.920 . S
Zn375 O387 1.898 . S
Zn375 O390 1.905 . S
Zn376 O384 1.905 . S
Zn376 O385 1.898 . S
Zn376 O393 1.920 . S
Zn377 O380 2.080 . S
Zn377 O383 2.114 . S
Zn377 O386 2.120 . S
Zn377 O388 2.120 . S
Zn377 O389 2.114 . S
Zn377 O392 2.080 . S
C378 O383 1.166 . S
C378 O384 1.182 . S
C379 O385 1.167 . S
C379 O386 1.299 . S
O380 Zn377 2.080 . S
O380 C394 1.305 . S
O381 Zn375 1.920 . S
O381 C394 1.234 . S
C382 O387 1.167 . S
C382 O388 1.299 . S
O383 Zn377 2.114 . S
O383 C378 1.166 . S
O384 Zn376 1.905 . S
O384 C378 1.182 . S
O385 Zn376 1.898 . S
O385 C379 1.167 . S
O386 Zn377 2.120 . S
O386 C379 1.299 . S
O387 Zn375 1.898 . S
O387 C382 1.167 . S
O388 Zn377 2.120 . S
O388 C382 1.299 . S
O389 Zn377 2.114 . S
O389 C391 1.166 . S
O390 Zn375 1.905 . S
O390 C391 1.182 . S
C391 O389 1.166 . S
C391 O390 1.182 . S
O392 Zn377 2.080 . S
O392 C395 1.305 . S
O393 Zn376 1.920 . S
O393 C395 1.234 . S
C394 O380 1.305 . S
C394 O381 1.234 . S
C395 O392 1.305 . S
C395 O393 1.234 . S
C396 C397 1.170 . S
C396 C398 1.380 . S
C397 C396 1.170 . S
C398 C396 1.380 . S
C398 C399 1.170 . S
C399 C398 1.170 . S
C400 C401 1.170 . S
C400 C402 1.380 . S
C401 C400 1.170 . S
C402 C400 1.380 . S
C402 C403 1.170 . S
C403 C402 1.170 . S
C404 C405 1.170 . S
C404 C406 1.380 . S
C405 C404 1.170 . S
C406 C404 1.380 . S
C406 C407 1.170 . S
C407 C406 1.170 . S
C408 C409 1.170 . S
C408 C410 1.380 . S
C409 C408 1.170 . S
C410 C408 1.380 . S
C410 C411 1.170 . S
C411 C410 1.170 . S
C412 C413 1.170 . S
C412 C414 1.380 . S
C413 C412 1.170 . S
C414 C412 1.380 . S
C414 C415 1.170 . S
C415 C414 1.170 . S
C416 C417 1.170 . S
C416 C418 1.380 . S
C417 C416 1.170 . S
C418 C416 1.380 . S
C418 C419 1.170 . S
C419 C418 1.170 . S
C420 C421 1.170 . S
C420 C422 1.380 . S
C421 C420 1.170 . S
C422 C420 1.380 . S
C422 C423 1.170 . S
C423 C422 1.170 . S
C424 C425 1.170 . S
C424 C426 1.380 . S
C425 C424 1.170 . S
C426 C424 1.380 . S
C426 C427 1.170 . S
C427 C426 1.170 . S
C428 C429 1.170 . S
C428 C430 1.380 . S
C429 C428 1.170 . S
C430 C428 1.380 . S
C430 C431 1.170 . S
C431 C430 1.170 . S
C432 C433 1.170 . S
C432 C434 1.380 . S
C433 C432 1.170 . S
C434 C432 1.380 . S
C434 C435 1.170 . S
C435 C434 1.170 . S
C436 C437 1.170 . S
C436 C438 1.380 . S
C437 C436 1.170 . S
C438 C436 1.380 . S
C438 C439 1.170 . S
C439 C438 1.170 . S
C440 C441 1.170 . S
C440 C442 1.380 . S
C441 C440 1.170 . S
C442 C440 1.380 . S
C442 C443 1.170 . S
C443 C442 1.170 . S
C444 C445 1.170 . S
C444 C446 1.380 1_565 S
C445 C444 1.170 . S
C446 C444 1.380 1_545 S
C446 C447 1.170 . S
C447 C446 1.170 . S
C448 C449 1.170 1_565 S
C448 C450 1.380 . S
C449 C448 1.170 1_545 S
C450 C448 1.380 . S
C450 C451 1.170 . S
C451 C450 1.170 . S
C452 C453 1.170 1_565 S
C452 C454 1.380 . S
C453 C452 1.170 1_545 S
C454 C452 1.380 . S
C454 C455 1.170 . S
C455 C454 1.170 . S
C456 C457 1.170 1_545 S
C456 C458 1.380 . S
C457 C456 1.170 1_565 S
C458 C456 1.380 . S
C458 C459 1.170 . S
C459 C458 1.170 . S
C460 C461 1.170 . S
C460 C462 1.380 . S
C461 C460 1.170 . S
C462 C460 1.380 . S
C462 C463 1.170 . S
C463 C462 1.170 . S
C464 C465 1.170 . S
C464 C466 1.380 . S
C465 C464 1.170 . S
C466 C464 1.380 . S
C466 C467 1.170 . S
C467 C466 1.170 . S
C468 C469 1.170 . S
C468 C470 1.380 . S
C469 C468 1.170 . S
C470 C468 1.380 . S
C470 C471 1.170 . S
C471 C470 1.170 . S
C472 C473 1.170 . S
C472 C474 1.380 . S
C473 C472 1.170 . S
C474 C472 1.380 . S
C474 C475 1.170 . S
C475 C474 1.170 . S
C476 C477 1.170 . S
C476 C478 1.380 . S
C477 C476 1.170 . S
C478 C476 1.380 . S
C478 C479 1.170 . S
C479 C478 1.170 . S
C480 C481 1.170 . S
C480 C482 1.380 . S
C481 C480 1.170 . S
C482 C480 1.380 . S
C482 C483 1.170 . S
C483 C482 1.170 . S
C484 C485 1.170 . S
C484 C486 1.380 . S
C485 C484 1.170 . S
C486 C484 1.380 . S
C486 C487 1.170 . S
C487 C486 1.170 . S
C488 C489 1.170 . S
C488 C490 1.380 . S
C489 C488 1.170 . S
C490 C488 1.380 . S
C490 C491 1.170 . S
C491 C490 1.170 . S
C399 C319 1.512 . S
C397 C16 1.673 . S
C403 C337 1.338 . S
C401 C55 1.453 . S
C405 C99 1.439 . S
C407 C361 1.393 . S
C411 C391 1.414 1_655 S
C409 C138 1.511 . S
C415 C379 1.390 . S
C413 C172 1.444 . S
C417 C216 1.452 . S
C419 C332 1.316 1_655 S
C421 C255 1.654 . S
C423 C352 1.527 . S
C425 C289 1.495 . S
C427 C357 1.363 . S
C429 C294 1.447 . S
C431 C373 1.334 . S
C433 C211 1.496 . S
C435 C328 1.355 . S
C439 C395 1.321 . S
C437 C133 1.457 . S
C443 C340 1.386 . S
C441 C60 1.500 . S
C445 C94 1.661 . S
C447 C358 1.521 . S
C449 C21 1.455 . S
C451 C316 1.418 . S
C455 C336 1.387 . S
C453 C250 1.437 . S
C459 C382 1.497 . S
C457 C177 1.694 . S
C463 C378 1.353 . S
C461 C1 1.515 . S
C467 C331 1.429 . S
C465 C40 1.488 . S
C469 C79 1.508 . S
C471 C353 1.301 . S
C473 C118 1.484 . S
C475 C374 1.389 . S
C479 C315 1.306 . S
C477 C157 1.532 . S
C481 C196 1.506 . S
C483 C349 1.395 . S
C487 C370 1.334 . S
C485 C235 1.539 . S
C491 C394 1.374 . S
C489 C274 1.484 . S
