# Generated by pormake.
# Topology pth, (4,4)-cn, num edge types: 1
# Building blocks:
#     Node 0, Type 0, BuildingBlock: GALJAG_clean_sbu_0, # of connection points: 4
#     Node 1, Type 0, BuildingBlock: GALJAG_clean_sbu_0, # of connection points: 4
#     Node 2, Type 0, BuildingBlock: GALJAG_clean_sbu_0, # of connection points: 4
#     Node 3, Type 1, BuildingBlock: MIFKUJ_clean_linker_1, # of connection points: 4
#     Node 4, Type 1, BuildingBlock: MIFKUJ_clean_linker_1, # of connection points: 4
#     Node 5, Type 1, BuildingBlock: MIFKUJ_clean_linker_1, # of connection points: 4
#     Edge 6, Type (0, 1), BuildingBlock: CIFDUS_clean_linker_0, # of connection points: 2
#     Edge 7, Type (0, 1), BuildingBlock: CIFDUS_clean_linker_0, # of connection points: 2
#     Edge 8, Type (0, 1), BuildingBlock: CIFDUS_clean_linker_0, # of connection points: 2
#     Edge 9, Type (0, 1), BuildingBlock: CIFDUS_clean_linker_0, # of connection points: 2
#     Edge 10, Type (0, 1), BuildingBlock: CIFDUS_clean_linker_0, # of connection points: 2
#     Edge 11, Type (0, 1), BuildingBlock: CIFDUS_clean_linker_0, # of connection points: 2
#     Edge 12, Type (0, 1), BuildingBlock: CIFDUS_clean_linker_0, # of connection points: 2
#     Edge 13, Type (0, 1), BuildingBlock: CIFDUS_clean_linker_0, # of connection points: 2
#     Edge 14, Type (0, 1), BuildingBlock: CIFDUS_clean_linker_0, # of connection points: 2
#     Edge 15, Type (0, 1), BuildingBlock: CIFDUS_clean_linker_0, # of connection points: 2
#     Edge 16, Type (0, 1), BuildingBlock: CIFDUS_clean_linker_0, # of connection points: 2
#     Edge 17, Type (0, 1), BuildingBlock: CIFDUS_clean_linker_0, # of connection points: 2
# Relax obj value: 0.002
# Max RMSD: 0.043
# Mean RMSD: 0.028
data_MOF--net-pth--node1-GALJAG_clean_sbu_0--node2-MIFKUJ_clean_linker_1--edge1-CIFDUS_clean_linker_0
_symmetry_space_group_name_H-M    P1
_symmetry_Int_Tables_number       1
_symmetry_cell_setting            triclinic
loop_
_symmetry_equiv_pos_as_xyz
'x, y, z'
_cell_length_a     26.918327
_cell_length_b     26.877684
_cell_length_c     55.537015
_cell_angle_alpha  90.180619
_cell_angle_beta   90.174146
_cell_angle_gamma 120.07413
loop_
_atom_site_label
_atom_site_type_symbol
_atom_site_fract_x
_atom_site_fract_y
_atom_site_fract_z
_atom_type_partial_charge
In0 In 0.02875 1.00114 0.04204 0.0
O1 O 0.98074 0.03703 0.06362 0.0
O2 O 0.07073 0.09046 0.05846 0.0
C3 C 0.94381 0.91832 0.01474 0.0
C4 C 0.10919 0.06659 0.00956 0.0
C5 C 0.04384 0.94029 0.07705 0.0
O6 O 0.94186 0.96186 0.02203 0.0
O7 O 0.9881 0.91715 0.02112 0.0
O8 O 0.07333 0.95527 0.05805 0.0
O9 O 0.00803 0.95733 0.07865 0.0
C10 C 0.02529 0.08528 0.06724 0.0
O11 O 0.11945 0.0423 0.02677 0.0
O12 O 0.05807 0.05641 0.00841 0.0
In13 In 0.97673 0.97896 0.3749 0.0
O14 O 0.01958 0.06486 0.35515 0.0
O15 O 0.93188 0.00587 0.34728 0.0
C16 C 0.06608 0.99677 0.40335 0.0
C17 C 0.89611 0.97007 0.40633 0.0
C18 C 0.9692 0.89416 0.34611 0.0
O19 O 0.06635 0.03645 0.39116 0.0
O20 O 0.02084 0.94869 0.40132 0.0
O21 O 0.93653 0.88472 0.36385 0.0
O22 O 0.00508 0.94652 0.34259 0.0
C23 C 0.97513 0.05462 0.34344 0.0
O24 O 0.88737 0.93039 0.39174 0.0
O25 O 0.9456 0.01371 0.40527 0.0
In26 In 0.99891 0.01926 0.70776 0.0
O27 O 0.95996 0.93455 0.72894 0.0
O28 O 0.91801 0.98345 0.73031 0.0
C29 C 0.07235 0.0053 0.67958 0.0
C30 C 0.93255 0.0305 0.67418 0.0
C31 C 0.07331 0.10367 0.73761 0.0
O32 O 0.03078 0.96353 0.69006 0.0
O33 O 0.07649 0.05359 0.68334 0.0
O34 O 0.04588 0.11235 0.72128 0.0
O35 O 0.06245 0.05239 0.73913 0.0
C36 C 0.91842 0.93891 0.73691 0.0
O37 O 0.94863 0.06051 0.69318 0.0
O38 O 0.9505 0.99548 0.67198 0.0
H39 H 0.10428 0.4484 0.17166 0.0
H40 H 0.09735 0.36675 0.14935 0.0
H41 H 0.91613 0.26807 0.16592 0.0
H42 H 0.92492 0.34877 0.18956 0.0
H43 H 0.03552 0.50469 0.16392 0.0
H44 H 0.09269 0.42068 0.22297 0.0
H45 H 0.09389 0.34596 0.24735 0.0
H46 H 0.92959 0.30382 0.27742 0.0
H47 H 0.92796 0.37805 0.25237 0.0
H48 H 0.92286 0.53802 0.24246 0.0
H49 H 0.91729 0.61506 0.26348 0.0
H50 H 0.09706 0.73099 0.2488 0.0
H51 H 0.10132 0.65415 0.22696 0.0
H52 H 1.00032 0.4936 0.25197 0.0
H53 H 0.95158 0.58636 0.1873 0.0
H54 H 0.96584 0.66749 0.1626 0.0
H55 H 0.13786 0.70424 0.14605 0.0
H56 H 0.12239 0.62187 0.17024 0.0
C57 C 0.01519 0.4044 0.18225 0.0
C58 C 0.06324 0.40895 0.17052 0.0
C59 C 0.05892 0.36223 0.15758 0.0
C60 C 0.00597 0.31047 0.15555 0.0
C61 C 0.95786 0.30651 0.16734 0.0
C62 C 0.9626 0.35282 0.18073 0.0
C63 C 0.01928 0.4537 0.19587 0.0
C64 C 0.02853 0.50263 0.18321 0.0
C65 C 0.01054 0.45095 0.22101 0.0
C66 C 0.00987 0.40446 0.2356 0.0
C67 C 0.05649 0.39482 0.23453 0.0
C68 C 0.05744 0.35251 0.24869 0.0
C69 C 0.0119 0.31904 0.26435 0.0
C70 C 0.96503 0.32852 0.26534 0.0
C71 C 0.9642 0.37111 0.25117 0.0
C72 C 0.0124 0.59053 0.23313 0.0
C73 C 0.96099 0.58011 0.24382 0.0
C74 C 0.95802 0.6242 0.25594 0.0
C75 C 0.00676 0.67945 0.25792 0.0
C76 C 0.05839 0.68943 0.24729 0.0
C77 C 0.06109 0.64545 0.23495 0.0
C78 C 0.01492 0.54396 0.2199 0.0
C79 C 0.00707 0.49554 0.23267 0.0
C80 C 0.02682 0.54801 0.19497 0.0
C81 C 0.03599 0.59828 0.18063 0.0
C82 C 0.99245 0.61219 0.17846 0.0
C83 C 1.00086 0.65883 0.16442 0.0
C84 C 0.05311 0.69262 0.15232 0.0
C85 C 0.09681 0.67874 0.15479 0.0
C86 C 0.08818 0.63183 0.16869 0.0
H87 H 0.61084 0.08862 0.49547 0.0
H88 H 0.68908 0.08835 0.47324 0.0
H89 H 0.65711 0.9343 0.51047 0.0
H90 H 0.57864 0.93474 0.5327 0.0
H91 H 0.49508 0.00543 0.49702 0.0
H92 H 0.65887 0.09363 0.5497 0.0
H93 H 0.73769 0.10297 0.5752 0.0
H94 H 0.61592 0.96649 0.62049 0.0
H95 H 0.53727 0.95453 0.5943 0.0
H96 H 0.39003 0.94737 0.5917 0.0
H97 H 0.31832 0.95483 0.61577 0.0
H98 H 0.33546 0.09269 0.57022 0.0
H99 H 0.40937 0.08699 0.54703 0.0
H100 H 0.49857 0.02183 0.58602 0.0
H101 H 0.33599 0.92918 0.53384 0.0
H102 H 0.25471 0.91875 0.5103 0.0
H103 H 0.37106 0.059 0.46472 0.0
H104 H 0.45187 0.07143 0.48932 0.0
C105 C 0.58924 0.01191 0.51581 0.0
C106 C 0.62061 0.05473 0.4988 0.0
C107 C 0.66549 0.05476 0.48626 0.0
C108 C 0.67929 0.01146 0.49024 0.0
C109 C 0.64721 0.96803 0.507 0.0
C110 C 0.60264 0.96838 0.51976 0.0
C111 C 0.54264 0.0132 0.52941 0.0
C112 C 0.49599 0.00952 0.51649 0.0
C113 C 0.54342 0.0171 0.55485 0.0
C114 C 0.59196 0.02261 0.56976 0.0
C115 C 0.64905 0.06461 0.56471 0.0
C116 C 0.69403 0.07036 0.57936 0.0
C117 C 0.68241 0.03544 0.59967 0.0
C118 C 0.62558 0.9939 0.60489 0.0
C119 C 0.58079 0.98723 0.58997 0.0
C120 C 0.40486 0.01633 0.56744 0.0
C121 C 0.37837 0.97926 0.58692 0.0
C122 C 0.3369 0.98319 0.60053 0.0
C123 C 0.32092 0.02427 0.59492 0.0
C124 C 0.34716 0.061 0.57523 0.0
C125 C 0.38898 0.05734 0.56175 0.0
C126 C 0.4506 0.01338 0.55372 0.0
C127 C 0.49732 0.01715 0.56658 0.0
C128 C 0.44959 0.00892 0.52828 0.0
C129 C 0.40008 1.00168 0.51361 0.0
C130 C 0.34395 0.95827 0.519 0.0
C131 C 0.29749 0.95187 0.50529 0.0
C132 C 0.30616 0.98805 0.48556 0.0
C133 C 0.36256 0.03101 0.48001 0.0
C134 C 0.40896 0.03777 0.49391 0.0
H135 H 0.47623 0.38523 0.83279 0.0
H136 H 0.39902 0.30653 0.80962 0.0
H137 H 0.27849 0.35427 0.83692 0.0
H138 H 0.35587 0.43309 0.85985 0.0
H139 H 0.51847 0.50277 0.83104 0.0
H140 H 0.43782 0.3531 0.88923 0.0
H141 H 0.35912 0.27374 0.9109 0.0
H142 H 0.30735 0.39085 0.93901 0.0
H143 H 0.38588 0.47004 0.91703 0.0
H144 H 0.53933 0.62627 0.91953 0.0
H145 H 0.61179 0.70454 0.94426 0.0
H146 H 0.74275 0.67527 0.9139 0.0
H147 H 0.66964 0.59522 0.89023 0.0
H148 H 0.50375 0.51477 0.91968 0.0
H149 H 0.59825 0.66849 0.86213 0.0
H150 H 0.67855 0.74201 0.83916 0.0
H151 H 0.70701 0.6109 0.80787 0.0
H152 H 0.62879 0.53816 0.83196 0.0
C153 C 0.42167 0.41471 0.84813 0.0
C154 C 0.4332 0.37879 0.8337 0.0
C155 C 0.38904 0.33368 0.82063 0.0
C156 C 0.33273 0.32422 0.82153 0.0
C157 C 0.32151 0.36077 0.83576 0.0
C158 C 0.36556 0.40554 0.84896 0.0
C159 C 0.46811 0.46174 0.86245 0.0
C160 C 0.51585 0.5052 0.85046 0.0
C161 C 0.46415 0.46489 0.8877 0.0
C162 C 0.41737 0.41734 0.9014 0.0
C163 C 0.40941 0.36162 0.90002 0.0
C164 C 0.36469 0.31642 0.91251 0.0
C165 C 0.32701 0.32608 0.92658 0.0
C166 C 0.33534 0.38203 0.92808 0.0
C167 C 0.38037 0.42734 0.91571 0.0
C168 C 0.59903 0.60513 0.90284 0.0
C169 C 0.58365 0.6366 0.9183 0.0
C170 C 0.62526 0.68177 0.93224 0.0
C171 C 0.68324 0.69644 0.93106 0.0
C172 C 0.69847 0.6648 0.91552 0.0
C173 C 0.65677 0.61937 0.90173 0.0
C174 C 0.55438 0.55678 0.88829 0.0
C175 C 0.50675 0.51274 0.90026 0.0
C176 C 0.55918 0.55275 0.86301 0.0
C177 C 0.60787 0.59782 0.84903 0.0
C178 C 0.62236 0.65571 0.85061 0.0
C179 C 0.66791 0.69764 0.83721 0.0
C180 C 0.69937 0.68248 0.82159 0.0
C181 C 0.68446 0.62437 0.81997 0.0
C182 C 0.63928 0.58257 0.83355 0.0
H183 H 0.95847 0.07799 0.10525 0.0
H184 H 0.09309 0.1989 0.05904 0.0
H185 H 0.09708 0.27913 0.08149 0.0
H186 H 0.06342 0.31477 0.1144 0.0
H187 H 0.93676 0.19444 0.16381 0.0
H188 H 0.92768 0.11439 0.1397 0.0
C189 C 0.98828 0.12198 0.10008 0.0
C190 C 0.02519 0.13277 0.08051 0.0
C191 C 0.99172 0.16798 0.1136 0.0
C192 C 0.06433 0.18975 0.07411 0.0
C193 C 0.06662 0.23558 0.08692 0.0
C194 C 0.03446 0.27119 0.12026 0.0
C195 C 1.00086 0.26122 0.14101 0.0
C196 C 0.03092 0.2252 0.10683 0.0
C197 C 0.96253 0.20396 0.14773 0.0
C198 C 0.95758 0.15791 0.13404 0.0
H199 H 0.90049 0.05617 0.43344 0.0
H200 H 0.79076 0.87706 0.41532 0.0
H201 H 0.71477 0.87325 0.44066 0.0
H202 H 0.67817 0.92205 0.4667 0.0
H203 H 0.78709 0.10195 0.48355 0.0
H204 H 0.86472 0.10434 0.45994 0.0
C205 C 0.86008 0.01619 0.43517 0.0
C206 C 0.85123 0.96697 0.42255 0.0
C207 C 0.81636 0.01458 0.44944 0.0
C208 C 0.79856 0.91557 0.42484 0.0
C209 C 0.7551 0.91337 0.43931 0.0
C210 C 0.71915 0.96155 0.46538 0.0
C211 C 0.72693 0.01177 0.47678 0.0
C212 C 0.76334 0.96275 0.45152 0.0
C213 C 0.77995 0.0629 0.47471 0.0
C214 C 0.82437 0.06424 0.46129 0.0
H215 H 0.91684 0.84779 0.75916 0.0
H216 H 0.81814 0.93266 0.74953 0.0
H217 H 0.74204 0.86115 0.77477 0.0
H218 H 0.70265 0.77384 0.79897 0.0
H219 H 0.80251 0.69072 0.8104 0.0
H220 H 0.87847 0.76163 0.78482 0.0
C221 C 0.87865 0.85053 0.76262 0.0
C222 C 0.8731 0.89536 0.75245 0.0
C223 C 0.8351 0.80946 0.77738 0.0
C224 C 0.82352 0.89861 0.75717 0.0
C225 C 0.77991 0.8577 0.77159 0.0
C226 C 0.74134 0.77159 0.79621 0.0
C227 C 0.74659 0.72679 0.80663 0.0
C228 C 0.78522 0.81295 0.78177 0.0
C229 C 0.79674 0.72414 0.80235 0.0
C230 C 0.84045 0.76492 0.78783 0.0
H231 H 0.09522 0.87605 0.0721 0.0
H232 H 0.99839 0.91687 0.12213 0.0
H233 H 0.99555 0.84612 0.15048 0.0
H234 H 0.01653 0.76948 0.16018 0.0
H235 H 0.10772 0.72425 0.10882 0.0
H236 H 0.11769 0.80051 0.08214 0.0
C237 C 0.07412 0.86992 0.08934 0.0
C238 C 0.04709 0.9016 0.09503 0.0
C239 C 0.0715 0.82825 0.10531 0.0
C240 C 0.01946 0.8929 0.11733 0.0
C241 C 0.01771 0.85238 0.13352 0.0
C242 C 0.0383 0.776 0.14309 0.0
C243 C 0.0612 0.7409 0.13658 0.0
C244 C 0.04275 0.81913 0.12752 0.0
C245 C 0.0903 0.75095 0.11454 0.0
C246 C 0.09568 0.79435 0.09914 0.0
H247 H 0.08076 0.9145 0.4246 0.0
H248 H 0.1613 0.09823 0.41593 0.0
H249 H 0.24232 0.11191 0.44092 0.0
H250 H 0.28981 0.07147 0.46535 0.0
H251 H 0.21096 0.88717 0.47202 0.0
H252 H 0.12933 0.87409 0.44803 0.0
C253 C 0.11599 0.95757 0.42822 0.0
C254 C 0.115 0.0053 0.41851 0.0
C255 C 0.1626 0.96503 0.44234 0.0
C256 C 0.16111 0.06079 0.42321 0.0
C257 C 0.20739 0.06862 0.4375 0.0
C258 C 0.25514 0.02838 0.46135 0.0
C259 C 0.25666 0.98044 0.47066 0.0
C260 C 0.20864 0.02101 0.44712 0.0
C261 C 0.21068 0.92498 0.46554 0.0
C262 C 0.16406 0.91737 0.45164 0.0
H263 H 0.15008 0.09828 0.76761 0.0
H264 H 0.0946 0.21385 0.7417 0.0
H265 H 0.16914 0.29202 0.76586 0.0
H266 H 0.25179 0.32811 0.79351 0.0
H267 H 0.30878 0.21306 0.81846 0.0
H268 H 0.23224 0.13416 0.79535 0.0
C269 C 0.15408 0.1405 0.76737 0.0
C270 C 0.11681 0.15027 0.75296 0.0
C271 C 0.19755 0.18538 0.781 0.0
C272 C 0.12279 0.20527 0.75267 0.0
C273 C 0.16542 0.24998 0.76645 0.0
C274 C 0.24709 0.28562 0.79402 0.0
C275 C 0.28585 0.27639 0.80765 0.0
C276 C 0.20325 0.2406 0.78057 0.0
C277 C 0.27981 0.22134 0.8079 0.0
C278 C 0.23592 0.17619 0.79479 0.0
H279 H 0.85759 0.06799 0.68207 0.0
H280 H 0.91811 0.99803 0.62705 0.0
H281 H 0.84837 0.99714 0.59842 0.0
H282 H 0.7668 0.01205 0.58964 0.0
H283 H 0.7012 0.07406 0.64571 0.0
H284 H 0.77619 0.08254 0.67339 0.0
C285 C 0.85584 0.05316 0.66373 0.0
C286 C 0.89297 0.03339 0.65658 0.0
C287 C 0.81451 0.05111 0.64764 0.0
C288 C 0.88982 0.01343 0.63291 0.0
C289 C 0.84999 0.01288 0.61656 0.0
C290 C 0.76953 0.02783 0.60788 0.0
C291 C 0.72923 0.04276 0.61577 0.0
C292 C 0.81166 0.03098 0.62381 0.0
C293 C 0.73215 0.06248 0.63943 0.0
C294 C 0.77488 0.06728 0.65519 0.0
H295 H 0.85194 0.9166 0.99279 0.0
H296 H 0.93406 0.81557 0.00346 0.0
H297 H 0.8607 0.73824 0.97888 0.0
H298 H 0.77333 0.69889 0.95451 0.0
H299 H 0.6925 0.80049 0.94204 0.0
H300 H 0.76458 0.8774 0.96742 0.0
C301 C 0.8536 0.87759 0.98974 0.0
C302 C 0.89836 0.87186 0.99995 0.0
C303 C 0.81142 0.83325 0.97533 0.0
C304 C 0.90015 0.82117 0.99577 0.0
C305 C 0.85818 0.77684 0.98173 0.0
C306 C 0.77178 0.73811 0.95704 0.0
C307 C 0.72747 0.74373 0.94629 0.0
C308 C 0.81377 0.78247 0.97136 0.0
C309 C 0.72564 0.79454 0.9503 0.0
C310 C 0.76708 0.83876 0.96471 0.0
H311 H 0.02583 0.90398 0.30436 0.0
H312 H 0.909 0.77926 0.3551 0.0
H313 H 0.91013 0.70199 0.3323 0.0
H314 H 0.94705 0.67036 0.29892 0.0
H315 H 0.06015 0.79428 0.24692 0.0
H316 H 0.0585 0.87136 0.26952 0.0
C317 C 1.00043 0.85984 0.31034 0.0
C318 C 0.96755 0.84738 0.33142 0.0
C319 C 1.00103 0.81553 0.29707 0.0
C320 C 0.93462 0.78998 0.33891 0.0
C321 C 0.93536 0.74578 0.32592 0.0
C322 C 0.97065 0.71401 0.29224 0.0
C323 C 0.00397 0.72624 0.27125 0.0
C324 C 0.96871 0.7581 0.30507 0.0
C325 C 0.03503 0.78349 0.26324 0.0
C326 C 0.03378 0.82767 0.27606 0.0
H327 H 0.16779 0.08997 0.65851 0.0
H328 H 0.06802 0.90556 0.66564 0.0
H329 H 0.13543 0.89499 0.63964 0.0
H330 H 0.22258 0.93836 0.61482 0.0
H331 H 0.3239 0.1232 0.60918 0.0
H332 H 0.25532 0.13322 0.63429 0.0
C333 C 0.16074 0.04743 0.65436 0.0
C334 C 0.113 0.99861 0.66397 0.0
C335 C 0.19973 0.04174 0.63954 0.0
C336 C 0.10453 0.94382 0.65849 0.0
C337 C 0.143 0.93776 0.6436 0.0
C338 C 0.22998 0.98088 0.61924 0.0
C339 C 0.27836 0.02991 0.60999 0.0
C340 C 0.19082 0.98646 0.63406 0.0
C341 C 0.28662 0.08462 0.61564 0.0
C342 C 0.24764 0.09047 0.63019 0.0
H343 H 0.10205 0.14082 0.97883 0.0
H344 H 0.21857 0.08654 0.00475 0.0
H345 H 0.29589 0.16083 0.9806 0.0
H346 H 0.33142 0.24422 0.95365 0.0
H347 H 0.21542 0.30029 0.92894 0.0
H348 H 0.13691 0.22262 0.95127 0.0
C349 C 0.14421 0.14484 0.97899 0.0
C350 C 0.15459 0.10817 0.99348 0.0
C351 C 0.18865 0.18836 0.96549 0.0
C352 C 0.20955 0.11425 0.99371 0.0
C353 C 0.25378 0.1568 0.97996 0.0
C354 C 0.28879 0.23901 0.95298 0.0
C355 C 0.27924 0.27799 0.93972 0.0
C356 C 0.24399 0.19453 0.96601 0.0
C357 C 0.22398 0.27123 0.93925 0.0
C358 C 0.17904 0.22668 0.95191 0.0
H359 H 0.06163 0.16237 0.33343 0.0
H360 H 0.88392 0.04213 0.31704 0.0
H361 H 0.87939 0.11321 0.29121 0.0
H362 H 0.92581 0.20992 0.27345 0.0
H363 H 0.1033 0.33019 0.29023 0.0
H364 H 0.10808 0.25866 0.31556 0.0
C365 C 0.02197 0.15166 0.32414 0.0
C366 C 0.97321 0.09708 0.32715 0.0
C367 C 0.01961 0.19277 0.30937 0.0
C368 C 0.92211 0.08386 0.31501 0.0
C369 C 0.91944 0.12451 0.30026 0.0
C370 C 0.96538 0.22056 0.2828 0.0
C371 C 0.01411 0.27529 0.27991 0.0
C372 C 0.96784 0.17921 0.2974 0.0
C373 C 0.06533 0.28816 0.29189 0.0
C374 C 0.06806 0.24737 0.30648 0.0
loop_
_geom_bond_atom_site_label_1
_geom_bond_atom_site_label_2
_geom_bond_distance
_geom_bond_site_symmetry_2
_ccdc_geom_bond_type
In0 O1 2.294 1_455 S
In0 O2 2.326 . S
In0 O6 2.266 1_445 S
In0 O7 2.326 1_445 S
In0 O8 2.266 1_545 S
In0 O9 2.326 1_445 S
In0 O11 2.294 . S
In0 O12 2.326 . S
O1 In0 2.294 1_655 S
O1 C10 1.240 1_655 S
O2 In0 2.326 . S
O2 C10 1.252 . S
C3 O6 1.252 . S
C3 O7 1.260 . S
C4 O11 1.240 . S
C4 O12 1.252 . S
C5 O8 1.252 1_655 S
C5 O9 1.260 . S
O6 In0 2.266 1_665 S
O6 C3 1.252 . S
O7 In0 2.326 1_665 S
O7 C3 1.260 . S
O8 In0 2.266 1_565 S
O8 C5 1.252 1_455 S
O9 In0 2.326 1_665 S
O9 C5 1.260 . S
C10 O1 1.240 1_455 S
C10 O2 1.252 . S
O11 In0 2.294 . S
O11 C4 1.240 . S
O12 In0 2.326 . S
O12 C4 1.252 . S
In13 O14 2.294 . S
In13 O15 2.326 1_455 S
In13 O19 2.266 . S
In13 O20 2.326 1_545 S
In13 O21 2.266 1_445 S
In13 O22 2.326 1_545 S
In13 O24 2.294 1_445 S
In13 O25 2.326 1_455 S
O14 In13 2.294 . S
O14 C23 1.240 1_455 S
O15 In13 2.326 1_655 S
O15 C23 1.252 . S
C16 O19 1.252 1_565 S
C16 O20 1.260 . S
C17 O24 1.240 1_545 S
C17 O25 1.252 . S
C18 O21 1.252 1_455 S
C18 O22 1.260 . S
O19 In13 2.266 . S
O19 C16 1.252 1_545 S
O20 In13 2.326 1_565 S
O20 C16 1.260 . S
O21 In13 2.266 1_665 S
O21 C18 1.252 1_655 S
O22 In13 2.326 1_565 S
O22 C18 1.260 . S
C23 O14 1.240 1_655 S
C23 O15 1.252 . S
O24 In13 2.294 1_665 S
O24 C17 1.240 1_565 S
O25 In13 2.326 1_655 S
O25 C17 1.252 . S
In26 O27 2.285 1_445 S
In26 O28 2.328 1_445 S
In26 O32 2.257 1_545 S
In26 O33 2.327 . S
In26 O34 2.275 . S
In26 O35 2.324 . S
In26 O37 2.303 1_455 S
In26 O38 2.325 1_445 S
O27 In26 2.285 1_665 S
O27 C36 1.240 . S
O28 In26 2.328 1_665 S
O28 C36 1.252 . S
C29 O32 1.252 1_545 S
C29 O33 1.260 . S
C30 O37 1.240 1_565 S
C30 O38 1.252 . S
C31 O34 1.252 . S
C31 O35 1.260 . S
O32 In26 2.257 1_565 S
O32 C29 1.252 1_565 S
O33 In26 2.327 . S
O33 C29 1.260 . S
O34 In26 2.275 . S
O34 C31 1.252 . S
O35 In26 2.324 . S
O35 C31 1.260 . S
C36 O27 1.240 . S
C36 O28 1.252 . S
O37 In26 2.303 1_655 S
O37 C30 1.240 1_545 S
O38 In26 2.325 1_665 S
O38 C30 1.252 . S
H39 C58 0.949 . S
H40 C59 0.950 . S
H41 C61 0.950 . S
H42 C62 0.950 . S
H43 C64 0.950 . S
H44 C67 0.950 . S
H45 C68 0.950 . S
H46 C70 0.951 . S
H47 C71 0.949 . S
H48 C73 0.949 . S
H49 C74 0.950 . S
H50 C76 0.950 . S
H51 C77 0.950 . S
H52 C79 0.950 . S
H53 C82 0.950 . S
H54 C83 0.950 . S
H55 C85 0.951 . S
H56 C86 0.949 . S
C57 C58 1.376 . S
C57 C62 1.386 1_455 S
C57 C63 1.483 . S
C58 H39 0.949 . S
C58 C57 1.376 . S
C58 C59 1.397 . S
C59 H40 0.950 . S
C59 C58 1.397 . S
C59 C60 1.391 . S
C60 C59 1.391 . S
C60 C61 1.405 1_455 S
C61 H41 0.950 . S
C61 C60 1.405 1_655 S
C61 C62 1.367 . S
C62 H42 0.950 . S
C62 C57 1.386 1_655 S
C62 C61 1.367 . S
C63 C57 1.483 . S
C63 C64 1.382 . S
C63 C65 1.403 1_455 S
C64 H43 0.950 . S
C64 C63 1.382 . S
C64 C80 1.411 . S
C65 C63 1.403 1_655 S
C65 C66 1.489 . S
C65 C79 1.411 . S
C66 C65 1.489 . S
C66 C67 1.383 1_655 S
C66 C71 1.382 . S
C67 H44 0.950 . S
C67 C66 1.383 1_455 S
C67 C68 1.395 . S
C68 H45 0.950 . S
C68 C67 1.395 . S
C68 C69 1.288 1_455 S
C69 C68 1.288 1_655 S
C69 C70 1.392 . S
C70 H46 0.951 . S
C70 C69 1.392 . S
C70 C71 1.392 . S
C71 H47 0.949 . S
C71 C66 1.382 . S
C71 C70 1.392 . S
C72 C73 1.376 . S
C72 C77 1.386 1_655 S
C72 C78 1.493 . S
C73 H48 0.949 . S
C73 C72 1.376 . S
C73 C74 1.397 . S
C74 H49 0.950 . S
C74 C73 1.397 . S
C74 C75 1.383 1_655 S
C75 C74 1.383 1_455 S
C75 C76 1.422 . S
C76 H50 0.950 . S
C76 C75 1.422 . S
C76 C77 1.367 . S
C77 H51 0.950 . S
C77 C72 1.386 1_455 S
C77 C76 1.367 . S
C78 C72 1.493 . S
C78 C79 1.373 . S
C78 C80 1.400 1_655 S
C79 H52 0.950 . S
C79 C65 1.411 . S
C79 C78 1.373 . S
C80 C64 1.411 . S
C80 C78 1.400 1_455 S
C80 C81 1.489 . S
C81 C80 1.489 . S
C81 C82 1.383 1_455 S
C81 C86 1.382 . S
C82 H53 0.950 . S
C82 C81 1.383 1_655 S
C82 C83 1.395 . S
C83 H54 0.950 . S
C83 C82 1.395 . S
C83 C84 1.288 1_655 S
C84 C83 1.288 1_455 S
C84 C85 1.392 . S
C85 H55 0.951 . S
C85 C84 1.392 . S
C85 C86 1.392 . S
C86 H56 0.949 . S
C86 C81 1.382 . S
C86 C85 1.392 . S
H87 C106 0.949 . S
H88 C107 0.950 . S
H89 C109 0.950 . S
H90 C110 0.950 . S
H91 C112 0.950 . S
H92 C115 0.950 . S
H93 C116 0.950 . S
H94 C118 0.951 . S
H95 C119 0.949 . S
H96 C121 0.949 . S
H97 C122 0.950 . S
H98 C124 0.950 . S
H99 C125 0.950 . S
H100 C127 0.950 . S
H101 C130 0.950 . S
H102 C131 0.950 . S
H103 C133 0.951 . S
H104 C134 0.949 . S
C105 C106 1.376 . S
C105 C110 1.386 1_545 S
C105 C111 1.483 . S
C106 H87 0.949 . S
C106 C105 1.376 . S
C106 C107 1.397 . S
C107 H88 0.950 . S
C107 C106 1.397 . S
C107 C108 1.391 . S
C108 C107 1.391 . S
C108 C109 1.405 1_545 S
C109 H89 0.950 . S
C109 C108 1.405 1_565 S
C109 C110 1.367 . S
C110 H90 0.950 . S
C110 C105 1.386 1_565 S
C110 C109 1.367 . S
C111 C105 1.483 . S
C111 C112 1.382 . S
C111 C113 1.403 1_545 S
C112 H91 0.950 . S
C112 C111 1.382 . S
C112 C128 1.411 . S
C113 C111 1.403 1_565 S
C113 C114 1.489 . S
C113 C127 1.411 . S
C114 C113 1.489 . S
C114 C115 1.383 1_565 S
C114 C119 1.382 . S
C115 H92 0.950 . S
C115 C114 1.383 1_545 S
C115 C116 1.395 . S
C116 H93 0.950 . S
C116 C115 1.395 . S
C116 C117 1.288 1_545 S
C117 C116 1.288 1_565 S
C117 C118 1.392 . S
C118 H94 0.951 . S
C118 C117 1.392 . S
C118 C119 1.392 . S
C119 H95 0.949 . S
C119 C114 1.382 . S
C119 C118 1.392 . S
C120 C121 1.376 . S
C120 C125 1.386 1_565 S
C120 C126 1.483 . S
C121 H96 0.949 . S
C121 C120 1.376 . S
C121 C122 1.397 . S
C122 H97 0.950 . S
C122 C121 1.397 . S
C122 C123 1.396 . S
C123 C122 1.396 . S
C123 C124 1.403 1_565 S
C124 H98 0.950 . S
C124 C123 1.403 1_545 S
C124 C125 1.367 . S
C125 H99 0.950 . S
C125 C120 1.386 1_545 S
C125 C124 1.367 . S
C126 C120 1.483 . S
C126 C127 1.382 . S
C126 C128 1.403 1_565 S
C127 H100 0.950 . S
C127 C113 1.411 . S
C127 C126 1.382 . S
C128 C112 1.411 . S
C128 C126 1.403 1_545 S
C128 C129 1.489 . S
C129 C128 1.489 . S
C129 C130 1.383 1_545 S
C129 C134 1.382 . S
C130 H101 0.950 . S
C130 C129 1.383 1_565 S
C130 C131 1.395 . S
C131 H102 0.950 . S
C131 C130 1.395 . S
C131 C132 1.288 1_565 S
C132 C131 1.288 1_545 S
C132 C133 1.392 . S
C133 H103 0.951 . S
C133 C132 1.392 . S
C133 C134 1.392 . S
C134 H104 0.949 . S
C134 C129 1.382 . S
C134 C133 1.392 . S
H135 C154 0.949 . S
H136 C155 0.950 . S
H137 C157 0.950 . S
H138 C158 0.950 . S
H139 C160 0.950 . S
H140 C163 0.950 . S
H141 C164 0.950 . S
H142 C166 0.951 . S
H143 C167 0.949 . S
H144 C169 0.949 . S
H145 C170 0.950 . S
H146 C172 0.950 . S
H147 C173 0.950 . S
H148 C175 0.950 . S
H149 C178 0.950 . S
H150 C179 0.950 . S
H151 C181 0.951 . S
H152 C182 0.949 . S
C153 C154 1.376 . S
C153 C158 1.386 . S
C153 C159 1.483 . S
C154 H135 0.949 . S
C154 C153 1.376 . S
C154 C155 1.397 . S
C155 H136 0.950 . S
C155 C154 1.397 . S
C155 C156 1.391 . S
C156 C155 1.391 . S
C156 C157 1.405 . S
C157 H137 0.950 . S
C157 C156 1.405 . S
C157 C158 1.367 . S
C158 H138 0.950 . S
C158 C153 1.386 . S
C158 C157 1.367 . S
C159 C153 1.483 . S
C159 C160 1.382 . S
C159 C161 1.403 . S
C160 H139 0.950 . S
C160 C159 1.382 . S
C160 C176 1.411 . S
C161 C159 1.403 . S
C161 C162 1.489 . S
C161 C175 1.411 . S
C162 C161 1.489 . S
C162 C163 1.383 . S
C162 C167 1.382 . S
C163 H140 0.950 . S
C163 C162 1.383 . S
C163 C164 1.395 . S
C164 H141 0.950 . S
C164 C163 1.395 . S
C164 C165 1.288 . S
C165 C164 1.288 . S
C165 C166 1.392 . S
C166 H142 0.951 . S
C166 C165 1.392 . S
C166 C167 1.392 . S
C167 H143 0.949 . S
C167 C162 1.382 . S
C167 C166 1.392 . S
C168 C169 1.376 . S
C168 C173 1.386 . S
C168 C174 1.483 . S
C169 H144 0.949 . S
C169 C168 1.376 . S
C169 C170 1.397 . S
C170 H145 0.950 . S
C170 C169 1.397 . S
C170 C171 1.391 . S
C171 C170 1.391 . S
C171 C172 1.405 . S
C172 H146 0.950 . S
C172 C171 1.405 . S
C172 C173 1.367 . S
C173 H147 0.950 . S
C173 C168 1.386 . S
C173 C172 1.367 . S
C174 C168 1.483 . S
C174 C175 1.382 . S
C174 C176 1.403 . S
C175 H148 0.950 . S
C175 C161 1.411 . S
C175 C174 1.382 . S
C176 C160 1.411 . S
C176 C174 1.403 . S
C176 C177 1.489 . S
C177 C176 1.489 . S
C177 C178 1.383 . S
C177 C182 1.382 . S
C178 H149 0.950 . S
C178 C177 1.383 . S
C178 C179 1.395 . S
C179 H150 0.950 . S
C179 C178 1.395 . S
C179 C180 1.288 . S
C180 C179 1.288 . S
C180 C181 1.392 . S
C181 H151 0.951 . S
C181 C180 1.392 . S
C181 C182 1.392 . S
C182 H152 0.949 . S
C182 C177 1.382 . S
C182 C181 1.392 . S
H183 C189 0.930 . S
H184 C192 0.930 . S
H185 C193 0.930 . S
H186 C194 0.930 . S
H187 C197 0.930 . S
H188 C198 0.930 . S
C189 H183 0.930 . S
C189 C190 1.355 1_655 S
C189 C191 1.415 . S
C190 C189 1.355 1_455 S
C190 C192 1.419 . S
C191 C189 1.415 . S
C191 C196 1.425 1_655 S
C191 C198 1.409 . S
C192 H184 0.930 . S
C192 C190 1.419 . S
C192 C193 1.362 . S
C193 H185 0.930 . S
C193 C192 1.362 . S
C193 C196 1.409 . S
C194 H186 0.930 . S
C194 C195 1.355 . S
C194 C196 1.415 . S
C195 C194 1.355 . S
C195 C197 1.419 1_455 S
C196 C191 1.425 1_455 S
C196 C193 1.409 . S
C196 C194 1.415 . S
C197 H187 0.930 . S
C197 C195 1.419 1_655 S
C197 C198 1.362 . S
C198 H188 0.930 . S
C198 C191 1.409 . S
C198 C197 1.362 . S
H199 C205 0.930 . S
H200 C208 0.930 . S
H201 C209 0.930 . S
H202 C210 0.930 . S
H203 C213 0.930 . S
H204 C214 0.930 . S
C205 H199 0.930 . S
C205 C206 1.355 . S
C205 C207 1.415 . S
C206 C205 1.355 . S
C206 C208 1.419 1_545 S
C207 C205 1.415 . S
C207 C212 1.425 1_545 S
C207 C214 1.409 . S
C208 H200 0.930 . S
C208 C206 1.419 1_565 S
C208 C209 1.362 . S
C209 H201 0.930 . S
C209 C208 1.362 . S
C209 C212 1.409 . S
C210 H202 0.930 . S
C210 C211 1.355 1_565 S
C210 C212 1.415 . S
C211 C210 1.355 1_545 S
C211 C213 1.419 . S
C212 C207 1.425 1_565 S
C212 C209 1.409 . S
C212 C210 1.415 . S
C213 H203 0.930 . S
C213 C211 1.419 . S
C213 C214 1.362 . S
C214 H204 0.930 . S
C214 C207 1.409 . S
C214 C213 1.362 . S
H215 C221 0.930 . S
H216 C224 0.930 . S
H217 C225 0.930 . S
H218 C226 0.930 . S
H219 C229 0.930 . S
H220 C230 0.930 . S
C221 H215 0.930 . S
C221 C222 1.355 . S
C221 C223 1.415 . S
C222 C221 1.355 . S
C222 C224 1.419 . S
C223 C221 1.415 . S
C223 C228 1.425 . S
C223 C230 1.409 . S
C224 H216 0.930 . S
C224 C222 1.419 . S
C224 C225 1.362 . S
C225 H217 0.930 . S
C225 C224 1.362 . S
C225 C228 1.409 . S
C226 H218 0.930 . S
C226 C227 1.355 . S
C226 C228 1.415 . S
C227 C226 1.355 . S
C227 C229 1.419 . S
C228 C223 1.425 . S
C228 C225 1.409 . S
C228 C226 1.415 . S
C229 H219 0.930 . S
C229 C227 1.419 . S
C229 C230 1.362 . S
C230 H220 0.930 . S
C230 C223 1.409 . S
C230 C229 1.362 . S
H231 C237 0.929 . S
H232 C240 0.930 . S
H233 C241 0.930 . S
H234 C242 0.930 . S
H235 C245 0.930 . S
H236 C246 0.930 . S
C237 H231 0.929 . S
C237 C238 1.353 1_455 S
C237 C239 1.416 . S
C238 C237 1.353 1_655 S
C238 C240 1.419 . S
C239 C237 1.416 . S
C239 C244 1.426 . S
C239 C246 1.409 . S
C240 H232 0.930 . S
C240 C238 1.419 . S
C240 C241 1.362 . S
C241 H233 0.930 . S
C241 C240 1.362 . S
C241 C244 1.406 1_655 S
C242 H234 0.930 . S
C242 C243 1.355 . S
C242 C244 1.417 . S
C243 C242 1.355 . S
C243 C245 1.419 . S
C244 C239 1.426 . S
C244 C241 1.406 1_455 S
C244 C242 1.417 . S
C245 H235 0.930 . S
C245 C243 1.419 . S
C245 C246 1.362 . S
C246 H236 0.930 . S
C246 C239 1.409 . S
C246 C245 1.362 . S
H247 C253 0.930 . S
H248 C256 0.930 . S
H249 C257 0.930 . S
H250 C258 0.930 . S
H251 C261 0.930 . S
H252 C262 0.930 . S
C253 H247 0.930 . S
C253 C254 1.355 1_565 S
C253 C255 1.415 . S
C254 C253 1.355 1_545 S
C254 C256 1.419 . S
C255 C253 1.415 . S
C255 C260 1.425 1_565 S
C255 C262 1.409 . S
C256 H248 0.930 . S
C256 C254 1.419 . S
C256 C257 1.362 . S
C257 H249 0.930 . S
C257 C256 1.362 . S
C257 C260 1.409 . S
C258 H250 0.930 . S
C258 C259 1.355 1_545 S
C258 C260 1.415 . S
C259 C258 1.355 1_565 S
C259 C261 1.419 . S
C260 C255 1.425 1_545 S
C260 C257 1.409 . S
C260 C258 1.415 . S
C261 H251 0.930 . S
C261 C259 1.419 . S
C261 C262 1.362 . S
C262 H252 0.930 . S
C262 C255 1.409 . S
C262 C261 1.362 . S
H263 C269 0.930 . S
H264 C272 0.930 . S
H265 C273 0.930 . S
H266 C274 0.930 . S
H267 C277 0.930 . S
H268 C278 0.930 . S
C269 H263 0.930 . S
C269 C270 1.355 . S
C269 C271 1.415 . S
C270 C269 1.355 . S
C270 C272 1.419 . S
C271 C269 1.415 . S
C271 C276 1.425 . S
C271 C278 1.409 . S
C272 H264 0.930 . S
C272 C270 1.419 . S
C272 C273 1.362 . S
C273 H265 0.930 . S
C273 C272 1.362 . S
C273 C276 1.409 . S
C274 H266 0.930 . S
C274 C275 1.355 . S
C274 C276 1.415 . S
C275 C274 1.355 . S
C275 C277 1.419 . S
C276 C271 1.425 . S
C276 C273 1.409 . S
C276 C274 1.415 . S
C277 H267 0.930 . S
C277 C275 1.419 . S
C277 C278 1.362 . S
C278 H268 0.930 . S
C278 C271 1.409 . S
C278 C277 1.362 . S
H279 C285 0.930 . S
H280 C288 0.930 . S
H281 C289 0.930 . S
H282 C290 0.930 . S
H283 C293 0.930 . S
H284 C294 0.932 . S
C285 H279 0.930 . S
C285 C286 1.355 . S
C285 C287 1.415 . S
C286 C285 1.355 . S
C286 C288 1.419 . S
C287 C285 1.415 . S
C287 C292 1.423 . S
C287 C294 1.404 1_565 S
C288 H280 0.930 . S
C288 C286 1.419 . S
C288 C289 1.362 . S
C289 H281 0.930 . S
C289 C288 1.362 . S
C289 C292 1.421 . S
C290 H282 0.930 . S
C290 C291 1.355 . S
C290 C292 1.405 1_545 S
C291 C290 1.355 . S
C291 C293 1.419 . S
C292 C287 1.423 . S
C292 C289 1.421 . S
C292 C290 1.405 1_565 S
C293 H283 0.930 . S
C293 C291 1.419 . S
C293 C294 1.366 . S
C294 H284 0.932 . S
C294 C287 1.404 1_545 S
C294 C293 1.366 . S
H295 C301 0.930 . S
H296 C304 0.930 . S
H297 C305 0.930 . S
H298 C306 0.930 . S
H299 C309 0.930 . S
H300 C310 0.930 . S
C301 H295 0.930 . S
C301 C302 1.355 . S
C301 C303 1.415 . S
C302 C301 1.355 . S
C302 C304 1.419 . S
C303 C301 1.415 . S
C303 C308 1.425 . S
C303 C310 1.409 . S
C304 H296 0.930 . S
C304 C302 1.419 . S
C304 C305 1.362 . S
C305 H297 0.930 . S
C305 C304 1.362 . S
C305 C308 1.409 . S
C306 H298 0.930 . S
C306 C307 1.355 . S
C306 C308 1.415 . S
C307 C306 1.355 . S
C307 C309 1.419 . S
C308 C303 1.425 . S
C308 C305 1.409 . S
C308 C306 1.415 . S
C309 H299 0.930 . S
C309 C307 1.419 . S
C309 C310 1.362 . S
C310 H300 0.930 . S
C310 C303 1.409 . S
C310 C309 1.362 . S
H311 C317 0.930 . S
H312 C320 0.930 . S
H313 C321 0.930 . S
H314 C322 0.930 . S
H315 C325 0.930 . S
H316 C326 0.930 . S
C317 H311 0.930 . S
C317 C318 1.355 . S
C317 C319 1.415 . S
C318 C317 1.355 . S
C318 C320 1.419 1_455 S
C319 C317 1.415 . S
C319 C324 1.425 1_455 S
C319 C326 1.409 . S
C320 H312 0.930 . S
C320 C318 1.419 1_655 S
C320 C321 1.362 . S
C321 H313 0.930 . S
C321 C320 1.362 . S
C321 C324 1.409 . S
C322 H314 0.930 . S
C322 C323 1.355 1_655 S
C322 C324 1.415 . S
C323 C322 1.355 1_455 S
C323 C325 1.419 . S
C324 C319 1.425 1_655 S
C324 C321 1.409 . S
C324 C322 1.415 . S
C325 H315 0.930 . S
C325 C323 1.419 . S
C325 C326 1.362 . S
C326 H316 0.930 . S
C326 C319 1.409 . S
C326 C325 1.362 . S
H327 C333 0.930 . S
H328 C336 0.930 . S
H329 C337 0.930 . S
H330 C338 0.930 . S
H331 C341 0.930 . S
H332 C342 0.930 . S
C333 H327 0.930 . S
C333 C334 1.355 . S
C333 C335 1.415 . S
C334 C333 1.355 . S
C334 C336 1.419 1_545 S
C335 C333 1.415 . S
C335 C340 1.425 1_545 S
C335 C342 1.409 . S
C336 H328 0.930 . S
C336 C334 1.419 1_565 S
C336 C337 1.362 . S
C337 H329 0.930 . S
C337 C336 1.362 . S
C337 C340 1.409 . S
C338 H330 0.930 . S
C338 C339 1.355 1_565 S
C338 C340 1.415 . S
C339 C338 1.355 1_545 S
C339 C341 1.419 . S
C340 C335 1.425 1_565 S
C340 C337 1.409 . S
C340 C338 1.415 . S
C341 H331 0.930 . S
C341 C339 1.419 . S
C341 C342 1.362 . S
C342 H332 0.930 . S
C342 C335 1.409 . S
C342 C341 1.362 . S
H343 C349 0.930 . S
H344 C352 0.930 . S
H345 C353 0.930 1_554 S
H346 C354 0.930 . S
H347 C357 0.930 . S
H348 C358 0.930 . S
C349 H343 0.930 . S
C349 C350 1.355 . S
C349 C351 1.415 . S
C350 C349 1.355 . S
C350 C352 1.419 1_556 S
C351 C349 1.415 . S
C351 C356 1.425 . S
C351 C358 1.409 . S
C352 H344 0.930 . S
C352 C350 1.419 1_554 S
C352 C353 1.362 1_554 S
C353 H345 0.930 1_556 S
C353 C352 1.362 1_556 S
C353 C356 1.409 . S
C354 H346 0.930 . S
C354 C355 1.355 . S
C354 C356 1.415 . S
C355 C354 1.355 . S
C355 C357 1.419 . S
C356 C351 1.425 . S
C356 C353 1.409 . S
C356 C354 1.415 . S
C357 H347 0.930 . S
C357 C355 1.419 . S
C357 C358 1.362 . S
C358 H348 0.930 . S
C358 C351 1.409 . S
C358 C357 1.362 . S
H359 C365 0.930 . S
H360 C368 0.930 . S
H361 C369 0.930 . S
H362 C370 0.930 . S
H363 C373 0.930 . S
H364 C374 0.930 . S
C365 H359 0.930 . S
C365 C366 1.355 1_455 S
C365 C367 1.415 . S
C366 C365 1.355 1_655 S
C366 C368 1.419 . S
C367 C365 1.415 . S
C367 C372 1.425 1_455 S
C367 C374 1.409 . S
C368 H360 0.930 . S
C368 C366 1.419 . S
C368 C369 1.362 . S
C369 H361 0.930 . S
C369 C368 1.362 . S
C369 C372 1.409 . S
C370 H362 0.930 . S
C370 C371 1.355 1_655 S
C370 C372 1.415 . S
C371 C370 1.355 1_455 S
C371 C373 1.419 . S
C372 C367 1.425 1_655 S
C372 C369 1.409 . S
C372 C370 1.415 . S
C373 H363 0.930 . S
C373 C371 1.419 . S
C373 C374 1.362 . S
C374 H364 0.930 . S
C374 C367 1.409 . S
C374 C373 1.362 . S
C195 C60 1.522 . S
C190 C10 1.521 . S
C206 C17 1.522 . S
C211 C108 1.517 . S
C222 C36 1.523 . S
C227 C180 1.520 . S
C238 C5 1.528 . S
C243 C84 1.516 . S
C259 C132 1.525 1_565 S
C254 C16 1.527 1_545 S
C270 C31 1.524 . S
C275 C156 1.519 . S
C291 C117 1.521 1_545 S
C286 C30 1.529 . S
C302 C3 1.526 1_556 S
C307 C171 1.520 . S
C323 C75 1.519 . S
C318 C18 1.525 . S
C339 C123 1.528 1_545 S
C334 C29 1.528 . S
C355 C165 1.511 . S
C350 C4 1.522 1_556 S
C366 C23 1.522 . S
C371 C69 1.529 1_455 S
