# Generated by pormake.
# Topology pyr, (3,6)-cn, num edge types: 1
# Building blocks:
#     Node 0, Type 0, BuildingBlock: CUQRIR_clean_linker_1, # of connection points: 3
#     Node 1, Type 0, BuildingBlock: CUQRIR_clean_linker_1, # of connection points: 3
#     Node 2, Type 0, BuildingBlock: CUQRIR_clean_linker_1, # of connection points: 3
#     Node 3, Type 0, BuildingBlock: CUQRIR_clean_linker_1, # of connection points: 3
#     Node 4, Type 0, BuildingBlock: CUQRIR_clean_linker_1, # of connection points: 3
#     Node 5, Type 0, BuildingBlock: CUQRIR_clean_linker_1, # of connection points: 3
#     Node 6, Type 0, BuildingBlock: CUQRIR_clean_linker_1, # of connection points: 3
#     Node 7, Type 0, BuildingBlock: CUQRIR_clean_linker_1, # of connection points: 3
#     Node 8, Type 1, BuildingBlock: FUNLAD_clean_sbu_0, # of connection points: 6
#     Node 9, Type 1, BuildingBlock: FUNLAD_clean_sbu_0, # of connection points: 6
#     Node 10, Type 1, BuildingBlock: FUNLAD_clean_sbu_0, # of connection points: 6
#     Node 11, Type 1, BuildingBlock: FUNLAD_clean_sbu_0, # of connection points: 6
#     Edge 12, Type (0, 1), BuildingBlock: AJUNOK_clean_linker_0, # of connection points: 2
#     Edge 13, Type (0, 1), BuildingBlock: AJUNOK_clean_linker_0, # of connection points: 2
#     Edge 14, Type (0, 1), BuildingBlock: AJUNOK_clean_linker_0, # of connection points: 2
#     Edge 15, Type (0, 1), BuildingBlock: AJUNOK_clean_linker_0, # of connection points: 2
#     Edge 16, Type (0, 1), BuildingBlock: AJUNOK_clean_linker_0, # of connection points: 2
#     Edge 17, Type (0, 1), BuildingBlock: AJUNOK_clean_linker_0, # of connection points: 2
#     Edge 18, Type (0, 1), BuildingBlock: AJUNOK_clean_linker_0, # of connection points: 2
#     Edge 19, Type (0, 1), BuildingBlock: AJUNOK_clean_linker_0, # of connection points: 2
#     Edge 20, Type (0, 1), BuildingBlock: AJUNOK_clean_linker_0, # of connection points: 2
#     Edge 21, Type (0, 1), BuildingBlock: AJUNOK_clean_linker_0, # of connection points: 2
#     Edge 22, Type (0, 1), BuildingBlock: AJUNOK_clean_linker_0, # of connection points: 2
#     Edge 23, Type (0, 1), BuildingBlock: AJUNOK_clean_linker_0, # of connection points: 2
#     Edge 24, Type (0, 1), BuildingBlock: AJUNOK_clean_linker_0, # of connection points: 2
#     Edge 25, Type (0, 1), BuildingBlock: AJUNOK_clean_linker_0, # of connection points: 2
#     Edge 26, Type (0, 1), BuildingBlock: AJUNOK_clean_linker_0, # of connection points: 2
#     Edge 27, Type (0, 1), BuildingBlock: AJUNOK_clean_linker_0, # of connection points: 2
#     Edge 28, Type (0, 1), BuildingBlock: AJUNOK_clean_linker_0, # of connection points: 2
#     Edge 29, Type (0, 1), BuildingBlock: AJUNOK_clean_linker_0, # of connection points: 2
#     Edge 30, Type (0, 1), BuildingBlock: AJUNOK_clean_linker_0, # of connection points: 2
#     Edge 31, Type (0, 1), BuildingBlock: AJUNOK_clean_linker_0, # of connection points: 2
#     Edge 32, Type (0, 1), BuildingBlock: AJUNOK_clean_linker_0, # of connection points: 2
#     Edge 33, Type (0, 1), BuildingBlock: AJUNOK_clean_linker_0, # of connection points: 2
#     Edge 34, Type (0, 1), BuildingBlock: AJUNOK_clean_linker_0, # of connection points: 2
#     Edge 35, Type (0, 1), BuildingBlock: AJUNOK_clean_linker_0, # of connection points: 2
# Relax obj value: 0.265
# Max RMSD: 0.236
# Mean RMSD: 0.162
data_MOF--net-pry--node1-FUNLAD_clean_sbu_0--node2-CUQRIR_clean_linker_1--edge1-AJUNOK_clean_linker_0
_symmetry_space_group_name_H-M    P1
_symmetry_Int_Tables_number       1
_symmetry_cell_setting            triclinic
loop_
_symmetry_equiv_pos_as_xyz
'x, y, z'
_cell_length_a     22.988687
_cell_length_b     24.799894
_cell_length_c     24.27023
_cell_angle_alpha  87.409097
_cell_angle_beta   92.931833
_cell_angle_gamma 82.429679
loop_
_atom_site_label
_atom_site_type_symbol
_atom_site_fract_x
_atom_site_fract_y
_atom_site_fract_z
_atom_type_partial_charge
C0 C 0.14387 0.28892 0.24439 0.0
N1 N 0.18599 0.24609 0.25939 0.0
N2 N 0.15507 0.31403 0.19586 0.0
C3 C 0.09197 0.30649 0.27769 0.0
C4 C 0.20575 0.28491 0.18182 0.0
N5 N 0.22491 0.24382 0.22014 0.0
C6 C 0.23981 0.29977 0.13314 0.0
H7 H 0.07268 0.2704 0.29323 0.0
H8 H 0.05779 0.33449 0.25294 0.0
H9 H 0.10701 0.32757 0.31409 0.0
H10 H 0.26944 0.32939 0.14596 0.0
H11 H 0.21047 0.319 0.09815 0.0
H12 H 0.26702 0.26342 0.11863 0.0
C13 C 0.40972 0.95342 0.70268 0.0
N14 N 0.39354 0.99254 0.73842 0.0
N15 N 0.457 0.91892 0.72333 0.0
C16 C 0.37451 0.94564 0.64987 0.0
C17 C 0.46893 0.93838 0.77372 0.0
N18 N 0.43046 0.98355 0.78343 0.0
C19 C 0.5188 0.91335 0.81298 0.0
H20 H 0.33198 0.93239 0.6602 0.0
H21 H 0.39659 0.9146 0.62396 0.0
H22 H 0.36484 0.98481 0.62513 0.0
H23 H 0.55469 0.89179 0.79011 0.0
H24 H 0.50266 0.88317 0.84153 0.0
H25 H 0.53616 0.9448 0.83782 0.0
C26 C 0.5831 0.54768 0.06343 0.0
N27 N 0.6415 0.53749 0.07874 0.0
N28 N 0.57214 0.58482 1.02025 0.0
C29 C 0.53654 0.51609 0.08553 0.0
C30 C 0.62454 0.60357 1.01617 0.0
N31 N 0.66669 0.5739 1.04967 0.0
C32 C 0.6353 0.6494 0.97646 0.0
H33 H 0.54711 0.47192 0.07999 0.0
H34 H 0.49297 0.53024 0.06444 0.0
H35 H 0.53404 0.52117 0.13047 0.0
H36 H 0.60008 0.68427 0.97829 0.0
H37 H 0.63477 0.63553 0.93362 0.0
H38 H 0.67787 0.66419 0.98648 0.0
C39 C 0.92869 0.6184 0.49119 0.0
N40 N 0.97023 0.64942 0.47692 0.0
N41 N 0.89939 0.63862 0.53429 0.0
C42 C 0.90821 0.57553 0.45579 0.0
C43 C 0.92427 0.68359 0.54538 0.0
N44 N 0.9681 0.6894 0.51146 0.0
C45 C 0.8956 0.72834 0.57897 0.0
H46 H 0.873 0.59487 0.42547 0.0
H47 H 0.88993 0.54454 0.48173 0.0
H48 H 0.94494 0.55567 0.43275 0.0
H49 H 0.8821 0.71065 0.61838 0.0
H50 H 0.85531 0.74907 0.55594 0.0
H51 H 0.92498 0.75942 0.58723 0.0
C52 C 0.86441 0.94793 0.90575 0.0
N53 N 0.9126 0.93919 0.87549 0.0
N54 N 0.84431 1.00145 0.90679 0.0
C55 C 0.83795 0.90369 0.93649 0.0
C56 C 0.88139 1.02573 0.87525 0.0
N57 N 0.92352 0.98831 0.85608 0.0
C58 C 0.87654 0.08632 0.86302 0.0
H59 H 0.79133 0.91706 0.94455 0.0
H60 H 0.86313 0.89314 0.97662 0.0
H61 H 0.84013 0.86647 0.91267 0.0
H62 H 0.83908 0.10906 0.88269 0.0
H63 H 0.87171 0.09528 0.81768 0.0
H64 H 0.91726 0.10132 0.87874 0.0
C65 C 0.71737 0.28156 0.45089 0.0
N66 N 0.73432 0.24032 0.41761 0.0
N67 N 0.66434 0.309 0.43317 0.0
C68 C 0.7548 0.29744 0.49876 0.0
C69 C 0.64922 0.28269 0.38785 0.0
N70 N 0.69129 0.2407 0.37826 0.0
C71 C 0.59373 0.29865 0.35203 0.0
H72 H 0.78259 0.26119 0.51886 0.0
H73 H 0.72787 0.31799 0.53016 0.0
H74 H 0.78405 0.32615 0.48312 0.0
H75 H 0.60466 0.31917 0.31304 0.0
H76 H 0.56129 0.32669 0.37292 0.0
H77 H 0.57385 0.26188 0.34102 0.0
C78 C 0.42073 0.61722 0.09802 0.0
N79 N 0.46269 0.64935 0.10778 0.0
N80 N 0.3919 0.63074 1.04836 0.0
C81 C 0.39927 0.58083 0.14174 0.0
C82 C 0.41947 0.67126 1.02736 0.0
N83 N 0.46224 0.68316 0.0636 0.0
C84 C 0.39745 0.70432 0.97503 0.0
H85 H 0.3752 0.54985 0.12252 0.0
H86 H 0.36907 0.6059 0.1677 0.0
H87 H 0.43672 0.56031 0.16891 0.0
H88 H 0.35555 0.73012 0.9821 0.0
H89 H 0.38777 0.67653 0.94218 0.0
H90 H 0.42978 0.73061 0.96079 0.0
C91 C 0.09306 0.5544 0.55115 0.0
N92 N 0.15091 0.54149 0.54227 0.0
N93 N 0.08456 0.59224 0.5896 0.0
C94 C 0.04582 0.522 0.5305 0.0
C95 C 0.13914 0.60612 0.59965 0.0
N96 N 0.17857 0.57605 0.57039 0.0
C97 C 0.15533 0.64341 0.64389 0.0
H98 H 1.00209 0.53879 0.54375 0.0
H99 H 0.05524 0.47901 0.54658 0.0
H100 H 0.04474 0.52208 0.48477 0.0
H101 H 0.14701 0.62574 0.68512 0.0
H102 H 0.1285 0.68374 0.63773 0.0
H103 H 0.2017 0.65088 0.64348 0.0
C104 C 0.12771 0.14186 0.46403 0.0
N105 N 0.07776 0.23168 0.59791 0.0
C106 C 0.12524 0.24173 0.62986 0.0
C107 C 0.15173 0.2882 0.61868 0.0
C108 C 0.12725 0.32603 0.57623 0.0
C109 C 0.07324 0.31873 0.55025 0.0
C110 C 0.04964 0.27085 0.56105 0.0
Zn111 Zn 0.07184 0.15256 0.57857 0.0
C112 C 0.96233 0.14483 0.50578 0.0
N113 N 0.06823 0.99682 0.51929 0.0
C114 C 0.10943 0.96499 0.49265 0.0
C115 C 1.01516 0.98107 0.52889 0.0
C116 C 1.00254 0.9308 0.51438 0.0
C117 C 0.04394 0.89629 0.48764 0.0
C118 C 0.09786 0.91402 0.47579 0.0
Zn119 Zn 0.07498 0.07141 0.54505 0.0
O120 O 0.11275 0.17404 0.50186 0.0
C121 C 0.18209 0.07886 0.61988 0.0
O122 O 0.118 0.09265 0.47037 0.0
H123 H 0.98201 1.00745 0.54829 0.0
H124 H 0.14612 0.21182 0.66082 0.0
H125 H 0.15086 0.97911 0.48449 0.0
O126 O 0.15653 0.12734 0.6186 0.0
O127 O 0.15913 0.04424 0.59132 0.0
H128 H 1.01189 0.26378 0.53572 0.0
O129 O 0.03332 0.04975 0.6196 0.0
O130 O 0.03275 0.1284 0.65688 0.0
O131 O 0.99015 0.09787 0.5005 0.0
O132 O 0.98512 0.17648 0.53772 0.0
C133 C 1.02208 0.07893 0.66039 0.0
H134 H 0.19227 0.29313 0.64144 0.0
H135 H 0.05028 0.34874 0.5202 0.0
H136 H 0.96091 0.91872 0.52558 0.0
H137 H 0.13058 0.88895 0.45429 0.0
C138 C 0.65029 0.08393 1.03551 0.0
N139 N 0.55263 0.23721 1.04498 0.0
C140 C 0.59924 0.24678 1.01514 0.0
C141 C 0.63026 0.29008 1.02684 0.0
C142 C 0.61077 0.32674 0.06665 0.0
C143 C 0.55678 0.32105 0.08951 0.0
C144 C 0.52912 0.27543 0.07912 0.0
Zn145 Zn 0.54478 0.15656 0.0674 0.0
C146 C 0.48606 0.08862 0.98823 0.0
N147 N 0.54919 0.99317 0.13454 0.0
C148 C 0.59658 0.95617 0.12521 0.0
C149 C 0.49751 0.97615 0.14784 0.0
C150 C 0.48999 0.92168 0.14475 0.0
C151 C 0.53471 0.88492 0.1246 0.0
C152 C 0.58975 0.90199 0.1179 0.0
Zn153 Zn 0.549 0.07352 0.1083 0.0
O154 O 0.62261 0.1312 1.0268 0.0
C155 C 0.61128 0.13878 0.18458 0.0
O156 O 0.63113 0.05156 0.06981 0.0
H157 H 0.46007 1.0047 0.15649 0.0
H158 H 0.6162 0.21854 0.9855 0.0
H159 H 0.63887 0.96863 0.11846 0.0
O160 O 0.59628 0.17118 0.1425 0.0
O161 O 0.59628 0.09112 0.18398 0.0
H162 H 0.49169 0.26903 0.1023 0.0
O163 O 0.46658 0.09815 0.14652 0.0
O164 O 0.46427 0.18031 0.10909 0.0
O165 O 0.50204 0.0564 1.03057 0.0
O166 O 0.49532 0.13841 0.99084 0.0
C167 C 0.44179 0.14711 0.1405 0.0
H168 H 0.6704 0.29309 1.00622 0.0
H169 H 0.53656 0.3505 0.11668 0.0
H170 H 0.44757 0.90967 0.1532 0.0
H171 H 0.62597 0.87558 0.10268 0.0
C172 C 0.56746 0.51045 0.52791 0.0
N173 N 0.55779 0.56458 0.68867 0.0
C174 C 0.52113 0.52969 0.70705 0.0
C175 C 0.50645 0.5291 0.76204 0.0
C176 C 0.53083 0.56401 0.79774 0.0
C177 C 0.57297 0.59532 0.77887 0.0
C178 C 0.58596 0.59498 0.72377 0.0
Zn179 Zn 0.54911 0.59267 0.60951 0.0
C180 C 0.65596 0.62621 0.56578 0.0
N181 N 0.51757 0.66305 0.44802 0.0
C182 C 0.48394 0.63326 0.41701 0.0
C183 C 0.54643 0.70192 0.42435 0.0
C184 C 0.54357 0.7104 0.36674 0.0
C185 C 0.51064 0.67847 0.33458 0.0
C186 C 0.47971 0.64052 0.36008 0.0
Zn187 Zn 0.53039 0.63571 0.52822 0.0
O188 O 0.56982 0.51271 0.5802 0.0
C189 C 0.42311 0.60122 0.57006 0.0
O190 O 0.55121 0.55426 0.49866 0.0
H191 H 0.57337 0.72467 0.44984 0.0
H192 H 0.49931 0.50588 0.67823 0.0
H193 H 0.4625 0.60161 0.43608 0.0
O194 O 0.45963 0.58258 0.60921 0.0
O195 O 0.44071 0.62728 0.52959 0.0
H196 H 0.61432 0.62288 0.70813 0.0
O197 O 0.51266 0.7169 0.55905 0.0
O198 O 0.52857 0.67328 0.63982 0.0
O199 O 0.61843 0.64395 0.52695 0.0
O200 O 0.63943 0.60227 0.60847 0.0
C201 C 0.51599 0.71808 0.61161 0.0
H202 H 0.47475 0.50354 0.77589 0.0
H203 H 0.59425 0.62116 0.80613 0.0
H204 H 0.56775 0.74016 0.34761 0.0
H205 H 0.45398 0.61541 0.33594 0.0
C206 C 0.99921 0.72876 0.97445 0.0
N207 N 1.01867 0.66799 0.14122 0.0
C208 C 0.04821 0.70664 0.1636 0.0
C209 C 0.04729 0.71412 0.22043 0.0
C210 C 1.01563 0.68131 0.25273 0.0
C211 C 0.98562 0.64245 0.22846 0.0
C212 C 0.98777 0.63636 0.17263 0.0
Zn213 Zn 1.02323 0.64373 0.06368 0.0
C214 C 0.90667 0.61027 1.02648 0.0
N215 N 0.02854 0.57537 0.91042 0.0
C216 C 0.0622 0.60275 0.87769 0.0
C217 C 0.98868 0.5448 0.88889 0.0
C218 C 0.97806 0.54502 0.83172 0.0
C219 C 1.00911 0.5769 0.79789 0.0
C220 C 0.05376 0.60334 0.82115 0.0
Zn221 Zn 1.02609 0.60061 0.98737 0.0
O222 O 1.00277 0.72596 1.02713 0.0
C223 C 0.14256 0.63004 1.02724 0.0
O224 O 1.0057 0.68426 0.94976 0.0
H225 H 0.96244 0.52332 0.91582 0.0
H226 H 0.07343 0.73044 0.13782 0.0
H227 H 0.09234 0.62817 0.89494 0.0
O228 O 0.1124 0.65183 0.06467 0.0
O229 O 0.11734 0.60599 0.98984 0.0
H230 H 0.96627 0.6045 0.15502 0.0
O231 O 0.047 0.51867 1.02349 0.0
O232 O 0.04735 0.56154 0.09989 0.0
O233 O 0.93597 0.5927 0.98676 0.0
O234 O 0.93174 0.63521 0.06325 0.0
C235 C 0.05504 0.51692 0.07585 0.0
H236 H 0.07092 0.74442 0.23884 0.0
H237 H 0.96136 0.61628 0.25284 0.0
H238 H 0.94473 0.52263 0.81435 0.0
H239 H 0.08042 0.62626 0.79581 0.0
C240 C 0.1563 0.16587 0.31031 0.0
C241 C 0.18677 0.21164 0.30972 0.0
C242 C 0.14029 0.14156 0.36035 0.0
C243 C 0.15275 0.16284 0.41206 0.0
H244 H 0.14162 0.15084 0.2715 0.0
H245 H 0.11489 0.10784 0.35816 0.0
S246 S 0.238 0.27823 0.43334 0.0
N247 N 0.2332 0.27406 0.36555 0.0
N248 N 0.20296 0.22959 0.45902 0.0
C249 C 0.18584 0.20695 0.41196 0.0
C250 C 0.20276 0.23098 0.36112 0.0
C251 C 0.45062 0.06673 0.83284 0.0
C252 C 0.43137 1.01488 0.83334 0.0
C253 C 0.46512 0.09179 0.88259 0.0
C254 C 0.46181 0.06594 0.93547 0.0
H255 H 0.45752 0.08681 0.79364 0.0
H256 H 0.48191 0.13053 0.87941 0.0
S257 S 0.40904 0.93163 0.95932 0.0
N258 N 0.40599 0.94066 0.89137 0.0
N259 N 0.43335 0.98615 0.98369 0.0
C260 C 0.44012 1.01504 0.93607 0.0
C261 C 0.425 0.99006 0.88562 0.0
C262 C 0.51378 0.62124 0.93619 0.0
C263 C 0.53758 0.57608 0.97081 0.0
C264 C 0.50392 0.61636 0.87948 0.0
C265 C 0.51686 0.56574 0.85599 0.0
H266 H 0.51024 0.66153 0.95172 0.0
H267 H 0.49216 0.6531 0.85322 0.0
S268 S 0.56462 0.43232 0.92915 0.0
N269 N 0.56309 0.47692 0.97753 0.0
N270 N 0.5423 0.46827 0.87147 0.0
C271 C 0.53143 0.51909 0.89071 0.0
C272 C 0.54246 0.52404 0.94824 0.0
C273 C 0.94253 0.68891 0.38433 0.0
C274 C 0.98478 0.65834 0.42096 0.0
C275 C 0.95573 0.70269 0.33074 0.0
C276 C 1.01146 0.68556 0.312 0.0
H277 H 0.89888 0.70192 0.39744 0.0
H278 H 0.92101 0.72356 0.30258 0.0
S279 S 0.13855 0.60841 0.39327 0.0
N280 N 0.08556 0.61538 0.43696 0.0
N281 N 0.11014 0.63898 0.3342 0.0
C282 C 0.055 0.65708 0.34883 0.0
C283 C 0.04162 0.64377 0.40394 0.0
C284 C 0.28592 0.16081 0.19256 0.0
C285 C 0.28156 0.21036 0.21933 0.0
C286 C 0.33884 0.13861 0.16982 0.0
C287 C 0.38877 0.16618 0.17138 0.0
H288 H 0.24686 0.14147 0.18533 0.0
H289 H 0.33937 0.10167 0.14759 0.0
S290 S 0.40212 0.29387 0.24199 0.0
N291 N 0.33383 0.2828 0.25098 0.0
N292 N 0.43188 0.2428 0.20681 0.0
C293 C 0.38596 0.21378 0.20105 0.0
C294 C 0.33291 0.23523 0.22554 0.0
C295 C 0.28627 1.00406 0.73462 0.0
C296 C 0.33831 1.02802 0.72984 0.0
C297 C 0.23611 1.02038 0.69878 0.0
C298 C 0.23501 0.06301 0.6583 0.0
H299 H 0.28712 0.96774 0.76133 0.0
H300 H 0.19856 0.9984 0.70172 0.0
S301 S 0.35506 0.14631 0.63608 0.0
N302 N 0.38251 0.1007 0.68557 0.0
N303 N 0.28707 0.13436 0.62145 0.0
C304 C 0.2839 0.09166 0.65773 0.0
C305 C 0.33549 0.07388 0.69309 0.0
C306 C 0.76203 0.59201 0.08997 0.0
C307 C 0.72886 0.57484 1.04567 0.0
C308 C 0.81947 0.60375 0.08336 0.0
C309 C 0.84569 0.5983 1.0322 0.0
H310 H 0.74242 0.5986 0.12915 0.0
H311 H 0.84328 0.61756 0.11853 0.0
S312 S 0.77689 0.55247 0.90388 0.0
N313 N 0.72619 0.55148 0.9495 0.0
N314 N 0.83399 0.5727 0.93702 0.0
C315 C 0.81327 0.57941 0.98808 0.0
C316 C 0.75494 0.56778 0.99484 0.0
C317 C 0.82234 0.60349 0.58675 0.0
C318 C 0.83892 0.63447 0.542 0.0
C319 C 0.76267 0.6017 0.59518 0.0
C320 C 0.71844 0.63118 0.55911 0.0
H321 H 0.85564 0.58077 0.61504 0.0
H322 H 0.75124 0.57663 0.62962 0.0
S323 S 0.74186 0.72162 0.43808 0.0
N324 N 0.80851 0.69675 0.46309 0.0
N325 N 0.69663 0.69459 0.4785 0.0
C326 C 0.73536 0.66329 0.51488 0.0
C327 C 0.79563 0.66458 0.50639 0.0
C328 C 0.10123 0.36471 0.11374 0.0
C329 C 0.12509 0.36409 0.16844 0.0
C330 C 0.07781 0.41387 0.08437 0.0
C331 C 0.0764 0.46456 0.10878 0.0
H332 H 0.10199 0.32682 0.09313 0.0
H333 H 0.0613 0.4121 1.04198 0.0
S334 S 0.13134 0.4844 0.25252 0.0
N335 N 0.14488 0.41796 0.24627 0.0
N336 N 0.09956 0.50994 0.19272 0.0
C337 C 0.09838 0.464 0.16441 0.0
C338 C 0.12287 0.41398 0.19381 0.0
C339 C 0.68482 0.45212 1.04408 0.0
C340 C 0.66795 0.48182 0.08994 0.0
C341 C 0.67208 0.39901 1.03905 0.0
C342 C 0.64334 0.37326 0.08054 0.0
H343 H 0.69741 0.47272 1.00747 0.0
H344 H 0.67804 0.38162 0.99936 0.0
S345 S 0.61901 0.4246 0.22013 0.0
N346 N 0.64188 0.47575 0.18514 0.0
N347 N 0.61977 0.37448 0.17751 0.0
C348 C 0.63971 0.39802 0.13182 0.0
C349 C 0.65262 0.45251 0.13646 0.0
C350 C 0.95194 0.78402 0.47481 0.0
C351 C 0.99018 0.73958 0.49864 0.0
C352 C 0.97212 0.83363 0.46366 0.0
C353 C 0.03065 0.84078 0.47821 0.0
H354 H 0.90596 0.78053 0.46604 0.0
H355 H 0.94056 0.86779 0.44765 0.0
S356 S 0.15086 0.73131 0.5254 0.0
N357 N 0.09099 0.70105 0.52269 0.0
N358 N 0.12901 0.79589 0.5066 0.0
C359 C 0.07062 0.79472 0.49589 0.0
C360 C 0.05013 0.74368 0.50538 0.0
C361 C 0.47326 0.81792 0.72356 0.0
C362 C 0.48131 0.86877 0.69932 0.0
C363 C 0.48563 0.76958 0.69528 0.0
C364 C 0.50536 0.77016 0.64101 0.0
H365 H 0.45494 0.81586 0.76371 0.0
H366 H 0.47769 0.73159 0.71548 0.0
S367 S 0.53908 0.8926 0.56172 0.0
N368 N 0.51547 0.91627 0.6203 0.0
N369 N 0.53654 0.82627 0.56632 0.0
C370 C 0.5157 0.82064 0.61734 0.0
C371 C 0.5045 0.86955 0.64675 0.0
C372 C 0.99616 0.04121 0.81278 0.0
C373 C 0.95819 1.00077 0.80934 0.0
C374 C 1.0157 0.0671 0.76508 0.0
C375 C 0.99925 0.05306 0.71134 0.0
H376 H 1.00866 0.05479 0.85291 0.0
H377 H 0.04397 0.09835 0.77043 0.0
S378 S 0.90228 0.94849 0.67891 0.0
N379 N 0.90552 0.94824 0.74706 0.0
N380 N 0.94427 0.99376 0.65825 0.0
C381 C 0.96351 1.0109 0.70749 0.0
C382 C 0.94274 0.98552 0.756 0.0
C383 C 0.65719 0.16049 0.33587 0.0
C384 C 0.68822 0.2058 0.33194 0.0
C385 C 0.63552 0.13682 0.28826 0.0
C386 C 0.64275 0.15829 0.2345 0.0
H387 H 0.64611 0.14567 0.37613 0.0
H388 H 0.60973 0.10365 0.29376 0.0
S389 S 0.72649 0.27298 0.20188 0.0
N390 N 0.72911 0.26815 0.27011 0.0
N391 N 0.68862 0.22475 0.18098 0.0
C392 C 0.67658 0.20175 0.23025 0.0
C393 C 0.69914 0.22516 0.27871 0.0
C394 C 0.52945 0.63258 0.19134 0.0
C395 C 0.48031 0.66251 0.16265 0.0
C396 C 0.54319 0.64208 0.24661 0.0
C397 C 0.5082 0.68193 0.27419 0.0
H398 H 0.55619 0.60086 0.17143 0.0
H399 H 0.57908 0.61596 0.2689 0.0
S400 S 0.37632 0.77204 0.21609 0.0
N401 N 0.39776 0.73407 0.16477 0.0
N402 N 0.42418 0.75258 0.26862 0.0
C403 C 0.46075 0.71374 0.24508 0.0
C404 C 0.44651 0.70374 0.18921 0.0
C405 C 0.03848 0.53823 0.65769 0.0
C406 C 0.04332 0.58949 0.63184 0.0
C407 C 1.01595 0.534 0.70955 0.0
C408 C 0.99974 0.58091 0.7378 0.0
H409 H 0.05873 0.50102 0.64117 0.0
H410 H 1.01961 0.49412 0.73063 0.0
S411 S 0.99587 0.72403 0.68644 0.0
N412 N 1.02154 0.68762 0.63548 0.0
N413 N 0.98089 0.67957 0.7345 0.0
C414 C 0.99669 0.63212 0.70987 0.0
C415 C 1.0189 0.63647 0.65661 0.0
C416 C 0.79959 1.01596 0.99644 0.0
C417 C 0.7973 1.02589 0.9387 0.0
C418 C 0.75199 1.03487 1.02778 0.0
C419 C 0.70105 0.0656 1.00258 0.0
H420 H 0.83818 0.99246 1.01722 0.0
H421 H 0.75512 1.02556 0.07196 0.0
S422 S 0.67199 0.10024 0.85253 0.0
N423 N 0.73874 0.06562 0.85745 0.0
N424 N 0.65053 0.10387 0.91635 0.0
C425 C 0.69853 0.07634 0.94499 0.0
C426 C 0.74634 0.05584 0.91303 0.0
C427 C 0.84191 0.23584 0.41839 0.0
C428 C 0.79218 0.20839 0.42245 0.0
C429 C 0.89691 0.2144 0.44423 0.0
C430 C 0.90529 0.16354 0.47372 0.0
H431 H 0.8367 0.27668 0.39938 0.0
H432 H 0.93273 0.23868 0.44262 0.0
S433 S 0.79138 0.07232 0.49173 0.0
N434 N 0.75619 0.12614 0.4558 0.0
N435 N 0.86029 0.08395 0.5011 0.0
C436 C 0.85737 0.13347 0.47409 0.0
C437 C 0.80079 0.15621 0.44911 0.0
C438 C 0.29207 0.66476 0.07106 0.0
C439 C 0.3299 0.63072 1.04003 0.0
C440 C 0.23151 0.66483 0.06577 0.0
C441 C 0.20656 0.63115 1.02876 0.0
H442 H 0.30989 0.69102 0.10013 0.0
H443 H 0.20421 0.69124 0.09127 0.0
S444 S 0.28815 0.5369 0.93577 0.0
N445 N 0.33986 0.56442 0.96994 0.0
N446 N 0.225 0.56418 0.95873 0.0
C447 C 0.24422 0.59797 0.99612 0.0
C448 C 0.30626 0.59786 1.00204 0.0
C449 C 0.26504 0.59484 0.52251 0.0
C450 C 0.24066 0.57781 0.57091 0.0
C451 C 0.32428 0.60216 0.52253 0.0
C452 C 0.36114 0.59196 0.57103 0.0
H453 H 0.23749 0.60412 0.48489 0.0
H454 H 0.3411 0.61622 0.48433 0.0
S455 S 0.31812 0.54339 0.70818 0.0
N456 N 0.25731 0.54866 0.66799 0.0
N457 N 0.36903 0.5618 0.66846 0.0
C458 C 0.33742 0.57305 0.61946 0.0
C459 C 0.27702 0.56594 0.6193 0.0
C460 C 0.98677 0.88263 0.93722 0.0
C461 C 0.95362 0.88944 0.88614 0.0
C462 C 1.00267 0.83083 0.96473 0.0
C463 C 0.98748 0.7829 0.94191 0.0
H464 H 0.99471 0.91837 0.95897 0.0
H465 H 1.02499 0.82866 1.00533 0.0
S466 S 0.90584 0.77729 0.80667 0.0
N467 N 0.90961 0.84281 0.81269 0.0
N468 N 0.94172 0.74574 0.86217 0.0
C469 C 0.95906 0.7886 0.88857 0.0
C470 C 0.94205 0.84152 0.86116 0.0
C471 C 0.44765 0.78309 0.05941 0.0
C472 C 0.48595 0.73402 0.06575 0.0
C473 C 0.465 0.83145 0.07683 0.0
C474 C 0.52059 0.83267 0.10355 0.0
H475 H 0.40229 0.78382 1.04504 0.0
H476 H 0.43333 0.86789 0.07096 0.0
S477 S 0.6384 0.71495 0.12746 0.0
N478 N 0.58359 0.68996 0.09552 0.0
N479 N 0.61505 0.78018 0.13345 0.0
C480 C 0.56042 0.78424 0.10815 0.0
C481 C 0.54331 0.73523 0.08802 0.0
C482 C 0.18656 0.45789 0.59551 0.0
C483 C 0.17418 0.48479 0.54313 0.0
C484 C 0.17682 0.40417 0.60495 0.0
C485 C 0.15488 0.3752 0.56203 0.0
H486 H 0.19391 0.48086 0.63131 0.0
H487 H 0.17982 0.38796 0.64733 0.0
S488 S 0.13432 0.42201 0.41383 0.0
N489 N 0.1531 0.47519 0.44564 0.0
N490 N 0.13523 0.37296 0.4624 0.0
C491 C 0.15194 0.39868 0.50766 0.0
C492 C 0.16219 0.45372 0.4983 0.0
C493 C 0.61483 0.35897 0.50795 0.0
C494 C 0.63511 0.35868 0.45421 0.0
C495 C 0.59193 0.40787 0.53114 0.0
C496 C 0.58743 0.45845 0.50113 0.0
H497 H 0.61813 0.32111 0.53266 0.0
H498 H 0.57825 0.40604 0.57316 0.0
S499 S 0.63378 0.47914 0.35801 0.0
N500 N 0.64906 0.41274 0.37152 0.0
N501 N 0.60464 0.50431 0.41373 0.0
C502 C 0.60597 0.45821 0.44652 0.0
C503 C 0.63002 0.40849 0.4234 0.0
loop_
_geom_bond_atom_site_label_1
_geom_bond_atom_site_label_2
_geom_bond_distance
_geom_bond_site_symmetry_2
_ccdc_geom_bond_type
C0 N1 1.317 . S
C0 N2 1.348 . S
C0 C3 1.485 . S
N1 C0 1.317 . S
N1 N5 1.370 . S
N2 C0 1.348 . S
N2 C4 1.346 . S
C3 C0 1.485 . S
C3 H7 0.960 . S
C3 H8 0.961 . S
C3 H9 0.960 . S
C4 N2 1.346 . S
C4 N5 1.307 . S
C4 C6 1.486 . S
N5 N1 1.370 . S
N5 C4 1.307 . S
C6 C4 1.486 . S
C6 H10 0.960 . S
C6 H11 0.960 . S
C6 H12 0.959 . S
H7 C3 0.960 . S
H8 C3 0.961 . S
H9 C3 0.960 . S
H10 C6 0.960 . S
H11 C6 0.960 . S
H12 C6 0.959 . S
C13 N14 1.317 . S
C13 N15 1.348 . S
C13 C16 1.485 . S
N14 C13 1.317 . S
N14 N18 1.370 . S
N15 C13 1.348 . S
N15 C17 1.346 . S
C16 C13 1.485 . S
C16 H20 0.960 . S
C16 H21 0.961 . S
C16 H22 0.960 . S
C17 N15 1.346 . S
C17 N18 1.307 . S
C17 C19 1.486 . S
N18 N14 1.370 . S
N18 C17 1.307 . S
C19 C17 1.486 . S
C19 H23 0.960 . S
C19 H24 0.960 . S
C19 H25 0.959 . S
H20 C16 0.960 . S
H21 C16 0.961 . S
H22 C16 0.960 . S
H23 C19 0.960 . S
H24 C19 0.960 . S
H25 C19 0.959 . S
C26 N27 1.317 . S
C26 N28 1.348 . S
C26 C29 1.485 . S
N27 C26 1.317 . S
N27 N31 1.370 . S
N28 C26 1.348 . S
N28 C30 1.346 . S
C29 C26 1.485 . S
C29 H33 0.960 . S
C29 H34 0.961 . S
C29 H35 0.960 . S
C30 N28 1.346 . S
C30 N31 1.307 . S
C30 C32 1.486 . S
N31 N27 1.370 . S
N31 C30 1.307 . S
C32 C30 1.486 . S
C32 H36 0.960 . S
C32 H37 0.960 . S
C32 H38 0.959 . S
H33 C29 0.960 . S
H34 C29 0.961 . S
H35 C29 0.960 . S
H36 C32 0.960 . S
H37 C32 0.960 . S
H38 C32 0.959 . S
C39 N40 1.317 . S
C39 N41 1.348 . S
C39 C42 1.485 . S
N40 C39 1.317 . S
N40 N44 1.370 . S
N41 C39 1.348 . S
N41 C43 1.346 . S
C42 C39 1.485 . S
C42 H46 0.960 . S
C42 H47 0.961 . S
C42 H48 0.960 . S
C43 N41 1.346 . S
C43 N44 1.307 . S
C43 C45 1.486 . S
N44 N40 1.370 . S
N44 C43 1.307 . S
C45 C43 1.486 . S
C45 H49 0.960 . S
C45 H50 0.960 . S
C45 H51 0.959 . S
H46 C42 0.960 . S
H47 C42 0.961 . S
H48 C42 0.960 . S
H49 C45 0.960 . S
H50 C45 0.960 . S
H51 C45 0.959 . S
C52 N53 1.317 . S
C52 N54 1.348 . S
C52 C55 1.485 . S
N53 C52 1.317 . S
N53 N57 1.370 . S
N54 C52 1.348 . S
N54 C56 1.346 1_565 S
C55 C52 1.485 . S
C55 H59 0.960 . S
C55 H60 0.961 . S
C55 H61 0.960 . S
C56 N54 1.346 1_545 S
C56 N57 1.307 1_545 S
C56 C58 1.486 . S
N57 N53 1.370 . S
N57 C56 1.307 1_565 S
C58 C56 1.486 . S
C58 H62 0.960 . S
C58 H63 0.960 . S
C58 H64 0.959 . S
H59 C55 0.960 . S
H60 C55 0.961 . S
H61 C55 0.960 . S
H62 C58 0.960 . S
H63 C58 0.960 . S
H64 C58 0.959 . S
C65 N66 1.317 . S
C65 N67 1.348 . S
C65 C68 1.485 . S
N66 C65 1.317 . S
N66 N70 1.370 . S
N67 C65 1.348 . S
N67 C69 1.346 . S
C68 C65 1.485 . S
C68 H72 0.960 . S
C68 H73 0.961 . S
C68 H74 0.960 . S
C69 N67 1.346 . S
C69 N70 1.307 . S
C69 C71 1.486 . S
N70 N66 1.370 . S
N70 C69 1.307 . S
C71 C69 1.486 . S
C71 H75 0.960 . S
C71 H76 0.960 . S
C71 H77 0.959 . S
H72 C68 0.960 . S
H73 C68 0.961 . S
H74 C68 0.960 . S
H75 C71 0.960 . S
H76 C71 0.960 . S
H77 C71 0.959 . S
C78 N79 1.317 . S
C78 N80 1.348 . S
C78 C81 1.485 . S
N79 C78 1.317 . S
N79 N83 1.370 . S
N80 C78 1.348 . S
N80 C82 1.346 . S
C81 C78 1.485 . S
C81 H85 0.960 . S
C81 H86 0.961 . S
C81 H87 0.960 . S
C82 N80 1.346 . S
C82 N83 1.307 . S
C82 C84 1.486 1_554 S
N83 N79 1.370 . S
N83 C82 1.307 . S
C84 C82 1.486 1_556 S
C84 H88 0.960 . S
C84 H89 0.960 . S
C84 H90 0.959 . S
H85 C81 0.960 . S
H86 C81 0.961 . S
H87 C81 0.960 . S
H88 C84 0.960 . S
H89 C84 0.960 . S
H90 C84 0.959 . S
C91 N92 1.317 . S
C91 N93 1.348 . S
C91 C94 1.485 . S
N92 C91 1.317 . S
N92 N96 1.370 . S
N93 C91 1.348 . S
N93 C95 1.346 . S
C94 C91 1.485 . S
C94 H98 0.960 . S
C94 H99 0.961 . S
C94 H100 0.960 . S
C95 N93 1.346 . S
C95 N96 1.307 . S
C95 C97 1.486 . S
N96 N92 1.370 . S
N96 C95 1.307 . S
C97 C95 1.486 . S
C97 H101 0.960 . S
C97 H102 0.960 . S
C97 H103 0.959 . S
H98 C94 0.960 . S
H99 C94 0.961 . S
H100 C94 0.960 . S
H101 C97 0.960 . S
H102 C97 0.960 . S
H103 C97 0.959 . S
C104 O120 1.251 . S
C104 O122 1.254 . S
N105 C106 1.333 . S
N105 C110 1.307 . S
N105 Zn111 2.020 . S
C106 N105 1.333 . S
C106 C107 1.379 . S
C106 H124 0.952 . S
C107 C106 1.379 . S
C107 C108 1.390 . S
C107 H134 0.949 . S
C108 C107 1.390 . S
C108 C109 1.357 . S
C109 C108 1.357 . S
C109 C110 1.370 . S
C109 H135 0.950 . S
C110 N105 1.307 . S
C110 C109 1.370 . S
C110 H128 0.948 . S
Zn111 N105 2.020 . S
Zn111 O120 2.039 . S
Zn111 O126 2.034 . S
Zn111 O130 2.025 . S
Zn111 O132 2.024 1_455 S
C112 O131 1.246 . S
C112 O132 1.249 . S
N113 C114 1.307 . S
N113 C115 1.333 1_455 S
N113 Zn119 2.020 1_565 S
C114 N113 1.307 . S
C114 C118 1.370 . S
C114 H125 0.948 . S
C115 N113 1.333 1_655 S
C115 C116 1.379 . S
C115 H123 0.952 . S
C116 C115 1.379 . S
C116 C117 1.390 . S
C116 H136 0.949 . S
C117 C116 1.390 . S
C117 C118 1.357 1_655 S
C118 C114 1.370 . S
C118 C117 1.357 1_455 S
C118 H137 0.950 . S
Zn119 N113 2.020 1_545 S
Zn119 O122 2.025 . S
Zn119 O127 2.024 1_545 S
Zn119 O129 2.039 . S
Zn119 O131 2.034 1_455 S
O120 C104 1.251 . S
O120 Zn111 2.039 . S
C121 O126 1.246 . S
C121 O127 1.249 1_545 S
O122 C104 1.254 . S
O122 Zn119 2.025 . S
H123 C115 0.952 . S
H124 C106 0.952 . S
H125 C114 0.948 . S
O126 Zn111 2.034 . S
O126 C121 1.246 . S
O127 Zn119 2.024 1_565 S
O127 C121 1.249 1_565 S
H128 C110 0.948 . S
O129 Zn119 2.039 . S
O129 C133 1.251 . S
O130 Zn111 2.025 . S
O130 C133 1.254 . S
O131 C112 1.246 . S
O131 Zn119 2.034 1_655 S
O132 Zn111 2.024 1_655 S
O132 C112 1.249 . S
C133 O129 1.251 . S
C133 O130 1.254 . S
H134 C107 0.949 . S
H135 C109 0.950 . S
H136 C116 0.949 . S
H137 C118 0.950 . S
C138 O154 1.251 1_554 S
C138 O156 1.254 . S
N139 C140 1.333 . S
N139 C144 1.307 . S
N139 Zn145 2.020 1_556 S
C140 N139 1.333 . S
C140 C141 1.379 . S
C140 H158 0.952 1_556 S
C141 C140 1.379 . S
C141 C142 1.390 . S
C141 H168 0.949 . S
C142 C141 1.390 . S
C142 C143 1.357 . S
C143 C142 1.357 . S
C143 C144 1.370 . S
C143 H169 0.950 . S
C144 N139 1.307 . S
C144 C143 1.370 . S
C144 H162 0.948 . S
Zn145 N139 2.020 1_554 S
Zn145 O154 2.039 1_554 S
Zn145 O160 2.034 . S
Zn145 O164 2.025 . S
Zn145 O166 2.024 1_554 S
C146 O165 1.246 . S
C146 O166 1.249 . S
N147 C148 1.307 . S
N147 C149 1.333 . S
N147 Zn153 2.020 1_565 S
C148 N147 1.307 . S
C148 C152 1.370 . S
C148 H159 0.948 . S
C149 N147 1.333 . S
C149 C150 1.379 . S
C149 H157 0.952 . S
C150 C149 1.379 . S
C150 C151 1.390 . S
C150 H170 0.949 . S
C151 C150 1.390 . S
C151 C152 1.357 . S
C152 C148 1.370 . S
C152 C151 1.357 . S
C152 H171 0.950 . S
Zn153 N147 2.020 1_545 S
Zn153 O156 2.025 . S
Zn153 O161 2.024 . S
Zn153 O163 2.039 . S
Zn153 O165 2.034 1_554 S
O154 C138 1.251 1_556 S
O154 Zn145 2.039 1_556 S
C155 O160 1.246 . S
C155 O161 1.249 . S
O156 C138 1.254 . S
O156 Zn153 2.025 . S
H157 C149 0.952 . S
H158 C140 0.952 1_554 S
H159 C148 0.948 . S
O160 Zn145 2.034 . S
O160 C155 1.246 . S
O161 Zn153 2.024 . S
O161 C155 1.249 . S
H162 C144 0.948 . S
O163 Zn153 2.039 . S
O163 C167 1.251 . S
O164 Zn145 2.025 . S
O164 C167 1.254 . S
O165 C146 1.246 . S
O165 Zn153 2.034 1_556 S
O166 Zn145 2.024 1_556 S
O166 C146 1.249 . S
C167 O163 1.251 . S
C167 O164 1.254 . S
H168 C141 0.949 . S
H169 C143 0.950 . S
H170 C150 0.949 . S
H171 C152 0.950 . S
C172 O188 1.251 . S
C172 O190 1.254 . S
N173 C174 1.333 . S
N173 C178 1.307 . S
N173 Zn179 2.020 . S
C174 N173 1.333 . S
C174 C175 1.379 . S
C174 H192 0.952 . S
C175 C174 1.379 . S
C175 C176 1.390 . S
C175 H202 0.949 . S
C176 C175 1.390 . S
C176 C177 1.357 . S
C177 C176 1.357 . S
C177 C178 1.370 . S
C177 H203 0.950 . S
C178 N173 1.307 . S
C178 C177 1.370 . S
C178 H196 0.948 . S
Zn179 N173 2.020 . S
Zn179 O188 2.039 . S
Zn179 O194 2.034 . S
Zn179 O198 2.025 . S
Zn179 O200 2.024 . S
C180 O199 1.246 . S
C180 O200 1.249 . S
N181 C182 1.307 . S
N181 C183 1.333 . S
N181 Zn187 2.020 . S
C182 N181 1.307 . S
C182 C186 1.370 . S
C182 H193 0.948 . S
C183 N181 1.333 . S
C183 C184 1.379 . S
C183 H191 0.952 . S
C184 C183 1.379 . S
C184 C185 1.390 . S
C184 H204 0.949 . S
C185 C184 1.390 . S
C185 C186 1.357 . S
C186 C182 1.370 . S
C186 C185 1.357 . S
C186 H205 0.950 . S
Zn187 N181 2.020 . S
Zn187 O190 2.025 . S
Zn187 O195 2.024 . S
Zn187 O197 2.039 . S
Zn187 O199 2.034 . S
O188 C172 1.251 . S
O188 Zn179 2.039 . S
C189 O194 1.246 . S
C189 O195 1.249 . S
O190 C172 1.254 . S
O190 Zn187 2.025 . S
H191 C183 0.952 . S
H192 C174 0.952 . S
H193 C182 0.948 . S
O194 Zn179 2.034 . S
O194 C189 1.246 . S
O195 Zn187 2.024 . S
O195 C189 1.249 . S
H196 C178 0.948 . S
O197 Zn187 2.039 . S
O197 C201 1.251 . S
O198 Zn179 2.025 . S
O198 C201 1.254 . S
O199 C180 1.246 . S
O199 Zn187 2.034 . S
O200 Zn179 2.024 . S
O200 C180 1.249 . S
C201 O197 1.251 . S
C201 O198 1.254 . S
H202 C175 0.949 . S
H203 C177 0.950 . S
H204 C184 0.949 . S
H205 C186 0.950 . S
C206 O222 1.251 1_556 S
C206 O224 1.254 . S
N207 C208 1.333 . S
N207 C212 1.307 . S
N207 Zn213 2.020 . S
C208 N207 1.333 . S
C208 C209 1.379 . S
C208 H226 0.952 . S
C209 C208 1.379 . S
C209 C210 1.390 . S
C209 H236 0.949 . S
C210 C209 1.390 . S
C210 C211 1.357 . S
C211 C210 1.357 . S
C211 C212 1.370 . S
C211 H237 0.950 . S
C212 N207 1.307 . S
C212 C211 1.370 . S
C212 H230 0.948 . S
Zn213 N207 2.020 . S
Zn213 O222 2.039 . S
Zn213 O228 2.034 1_655 S
Zn213 O232 2.025 1_655 S
Zn213 O234 2.024 . S
C214 O233 1.246 . S
C214 O234 1.249 1_556 S
N215 C216 1.307 . S
N215 C217 1.333 . S
N215 Zn221 2.020 . S
C216 N215 1.307 . S
C216 C220 1.370 . S
C216 H227 0.948 . S
C217 N215 1.333 . S
C217 C218 1.379 . S
C217 H225 0.952 . S
C218 C217 1.379 . S
C218 C219 1.390 . S
C218 H238 0.949 . S
C219 C218 1.390 . S
C219 C220 1.357 . S
C220 C216 1.370 . S
C220 C219 1.357 . S
C220 H239 0.950 . S
Zn221 N215 2.020 . S
Zn221 O224 2.025 1_455 S
Zn221 O229 2.024 . S
Zn221 O231 2.039 . S
Zn221 O233 2.034 1_455 S
O222 C206 1.251 1_554 S
O222 Zn213 2.039 . S
C223 O228 1.246 . S
C223 O229 1.249 1_554 S
O224 C206 1.254 . S
O224 Zn221 2.025 1_655 S
H225 C217 0.952 . S
H226 C208 0.952 . S
H227 C216 0.948 . S
O228 Zn213 2.034 1_455 S
O228 C223 1.246 . S
O229 Zn221 2.024 . S
O229 C223 1.249 1_556 S
H230 C212 0.948 . S
O231 Zn221 2.039 . S
O231 C235 1.251 1_556 S
O232 Zn213 2.025 1_455 S
O232 C235 1.254 . S
O233 C214 1.246 . S
O233 Zn221 2.034 1_655 S
O234 Zn213 2.024 . S
O234 C214 1.249 1_554 S
C235 O231 1.251 1_554 S
C235 O232 1.254 . S
H236 C209 0.949 . S
H237 C211 0.950 . S
H238 C218 0.949 . S
H239 C220 0.950 . S
C240 C241 1.369 . S
C240 C242 1.419 . S
C240 H244 0.930 . S
C241 C240 1.369 . S
C241 C250 1.429 . S
C242 C240 1.419 . S
C242 C243 1.363 . S
C242 H245 0.929 . S
C243 C242 1.363 . S
C243 C249 1.428 . S
H244 C240 0.930 . S
H245 C242 0.929 . S
S246 N247 1.613 . S
S246 N248 1.610 . S
N247 S246 1.613 . S
N247 C250 1.350 . S
N248 S246 1.610 . S
N248 C249 1.351 . S
C249 C243 1.428 . S
C249 N248 1.351 . S
C249 C250 1.434 . S
C250 C241 1.429 . S
C250 N247 1.350 . S
C250 C249 1.434 . S
C251 C252 1.391 . S
C251 C253 1.419 . S
C251 H255 0.930 . S
C252 C251 1.391 . S
C252 C261 1.414 1_545 S
C253 C251 1.419 . S
C253 C254 1.363 . S
C253 H256 0.929 . S
C254 C253 1.363 . S
C254 C260 1.428 1_545 S
H255 C251 0.930 . S
H256 C253 0.929 . S
S257 N258 1.613 . S
S257 N259 1.610 . S
N258 S257 1.613 . S
N258 C261 1.350 . S
N259 S257 1.610 . S
N259 C260 1.351 . S
C260 C254 1.428 1_565 S
C260 N259 1.351 . S
C260 C261 1.434 . S
C261 C252 1.414 1_565 S
C261 N258 1.350 . S
C261 C260 1.434 . S
C262 C263 1.369 . S
C262 C264 1.419 . S
C262 H266 0.930 . S
C263 C262 1.369 . S
C263 C272 1.429 . S
C264 C262 1.419 . S
C264 C265 1.363 . S
C264 H267 0.929 . S
C265 C264 1.363 . S
C265 C271 1.428 . S
H266 C262 0.930 . S
H267 C264 0.929 . S
S268 N269 1.613 . S
S268 N270 1.610 . S
N269 S268 1.613 . S
N269 C272 1.350 . S
N270 S268 1.610 . S
N270 C271 1.351 . S
C271 C265 1.428 . S
C271 N270 1.351 . S
C271 C272 1.434 . S
C272 C263 1.429 . S
C272 N269 1.350 . S
C272 C271 1.434 . S
C273 C274 1.369 . S
C273 C275 1.419 . S
C273 H277 0.930 . S
C274 C273 1.369 . S
C274 C283 1.429 . S
C275 C273 1.419 . S
C275 C276 1.363 . S
C275 H278 0.929 . S
C276 C275 1.363 . S
C276 C282 1.428 . S
H277 C273 0.930 . S
H278 C275 0.929 . S
S279 N280 1.613 1_455 S
S279 N281 1.610 . S
N280 S279 1.613 1_655 S
N280 C283 1.350 . S
N281 S279 1.610 . S
N281 C282 1.351 1_455 S
C282 C276 1.428 . S
C282 N281 1.351 1_655 S
C282 C283 1.434 . S
C283 C274 1.429 . S
C283 N280 1.350 . S
C283 C282 1.434 . S
C284 C285 1.369 . S
C284 C286 1.419 . S
C284 H288 0.930 . S
C285 C284 1.369 . S
C285 C294 1.429 . S
C286 C284 1.419 . S
C286 C287 1.363 . S
C286 H289 0.929 . S
C287 C286 1.363 . S
C287 C293 1.428 . S
H288 C284 0.930 . S
H289 C286 0.929 . S
S290 N291 1.613 . S
S290 N292 1.610 . S
N291 S290 1.613 . S
N291 C294 1.350 . S
N292 S290 1.610 . S
N292 C293 1.351 . S
C293 C287 1.428 . S
C293 N292 1.351 . S
C293 C294 1.434 . S
C294 C285 1.429 . S
C294 N291 1.350 . S
C294 C293 1.434 . S
C295 C296 1.369 . S
C295 C297 1.419 . S
C295 H299 0.930 . S
C296 C295 1.369 . S
C296 C305 1.429 1_565 S
C297 C295 1.419 . S
C297 C298 1.363 1_565 S
C297 H300 0.929 . S
C298 C297 1.363 1_545 S
C298 C304 1.428 . S
H299 C295 0.930 . S
H300 C297 0.929 . S
S301 N302 1.613 . S
S301 N303 1.610 . S
N302 S301 1.613 . S
N302 C305 1.350 . S
N303 S301 1.610 . S
N303 C304 1.351 . S
C304 C298 1.428 . S
C304 N303 1.351 . S
C304 C305 1.434 . S
C305 C296 1.429 1_545 S
C305 N302 1.350 . S
C305 C304 1.434 . S
C306 C307 1.369 . S
C306 C308 1.419 1_556 S
C306 H310 0.930 1_556 S
C307 C306 1.369 . S
C307 C316 1.429 . S
C308 C306 1.419 1_554 S
C308 C309 1.363 1_554 S
C308 H311 0.929 . S
C309 C308 1.363 1_556 S
C309 C315 1.428 . S
H310 C306 0.930 1_554 S
H311 C308 0.929 . S
S312 N313 1.613 . S
S312 N314 1.610 . S
N313 S312 1.613 . S
N313 C316 1.350 . S
N314 S312 1.610 . S
N314 C315 1.351 . S
C315 C309 1.428 . S
C315 N314 1.351 . S
C315 C316 1.434 . S
C316 C307 1.429 . S
C316 N313 1.350 . S
C316 C315 1.434 . S
C317 C318 1.369 . S
C317 C319 1.419 . S
C317 H321 0.930 . S
C318 C317 1.369 . S
C318 C327 1.429 . S
C319 C317 1.419 . S
C319 C320 1.363 . S
C319 H322 0.929 . S
C320 C319 1.363 . S
C320 C326 1.428 . S
H321 C317 0.930 . S
H322 C319 0.929 . S
S323 N324 1.613 . S
S323 N325 1.610 . S
N324 S323 1.613 . S
N324 C327 1.350 . S
N325 S323 1.610 . S
N325 C326 1.351 . S
C326 C320 1.428 . S
C326 N325 1.351 . S
C326 C327 1.434 . S
C327 C318 1.429 . S
C327 N324 1.350 . S
C327 C326 1.434 . S
C328 C329 1.369 . S
C328 C330 1.419 . S
C328 H332 0.930 . S
C329 C328 1.369 . S
C329 C338 1.429 . S
C330 C328 1.419 . S
C330 C331 1.363 . S
C330 H333 0.929 . S
C331 C330 1.363 . S
C331 C337 1.428 . S
H332 C328 0.930 . S
H333 C330 0.929 . S
S334 N335 1.613 . S
S334 N336 1.610 . S
N335 S334 1.613 . S
N335 C338 1.350 . S
N336 S334 1.610 . S
N336 C337 1.351 . S
C337 C331 1.428 . S
C337 N336 1.351 . S
C337 C338 1.434 . S
C338 C329 1.429 . S
C338 N335 1.350 . S
C338 C337 1.434 . S
C339 C340 1.369 . S
C339 C341 1.419 . S
C339 H343 0.930 . S
C340 C339 1.369 . S
C340 C349 1.429 . S
C341 C339 1.419 . S
C341 C342 1.363 . S
C341 H344 0.929 . S
C342 C341 1.363 . S
C342 C348 1.428 . S
H343 C339 0.930 . S
H344 C341 0.929 . S
S345 N346 1.613 . S
S345 N347 1.610 . S
N346 S345 1.613 . S
N346 C349 1.350 1_554 S
N347 S345 1.610 . S
N347 C348 1.351 1_554 S
C348 C342 1.428 . S
C348 N347 1.351 1_556 S
C348 C349 1.434 . S
C349 C340 1.429 . S
C349 N346 1.350 1_556 S
C349 C348 1.434 . S
C350 C351 1.369 . S
C350 C352 1.419 . S
C350 H354 0.930 . S
C351 C350 1.369 . S
C351 C360 1.429 . S
C352 C350 1.419 . S
C352 C353 1.363 . S
C352 H355 0.929 . S
C353 C352 1.363 . S
C353 C359 1.428 . S
H354 C350 0.930 . S
H355 C352 0.929 . S
S356 N357 1.613 1_455 S
S356 N358 1.610 . S
N357 S356 1.613 1_655 S
N357 C360 1.350 . S
N358 S356 1.610 . S
N358 C359 1.351 1_455 S
C359 C353 1.428 . S
C359 N358 1.351 1_655 S
C359 C360 1.434 . S
C360 C351 1.429 . S
C360 N357 1.350 . S
C360 C359 1.434 . S
C361 C362 1.369 . S
C361 C363 1.419 . S
C361 H365 0.930 . S
C362 C361 1.369 . S
C362 C371 1.429 . S
C363 C361 1.419 . S
C363 C364 1.363 . S
C363 H366 0.929 . S
C364 C363 1.363 . S
C364 C370 1.428 . S
H365 C361 0.930 . S
H366 C363 0.929 . S
S367 N368 1.613 . S
S367 N369 1.610 . S
N368 S367 1.613 . S
N368 C371 1.350 . S
N369 S367 1.610 . S
N369 C370 1.351 . S
C370 C364 1.428 . S
C370 N369 1.351 . S
C370 C371 1.434 . S
C371 C362 1.429 . S
C371 N368 1.350 . S
C371 C370 1.434 . S
C372 C373 1.369 1_455 S
C372 C374 1.419 1_565 S
C372 H376 0.930 . S
C373 C372 1.369 1_655 S
C373 C382 1.429 . S
C374 C372 1.419 1_545 S
C374 C375 1.363 1_455 S
C374 H377 0.929 . S
C375 C374 1.363 1_655 S
C375 C381 1.428 . S
H376 C372 0.930 . S
H377 C374 0.929 . S
S378 N379 1.613 1_545 S
S378 N380 1.610 . S
N379 S378 1.613 1_565 S
N379 C382 1.350 . S
N380 S378 1.610 . S
N380 C381 1.351 . S
C381 C375 1.428 . S
C381 N380 1.351 . S
C381 C382 1.434 1_545 S
C382 C373 1.429 . S
C382 N379 1.350 . S
C382 C381 1.434 1_565 S
C383 C384 1.369 . S
C383 C385 1.419 . S
C383 H387 0.930 . S
C384 C383 1.369 . S
C384 C393 1.429 . S
C385 C383 1.419 . S
C385 C386 1.363 . S
C385 H388 0.929 . S
C386 C385 1.363 . S
C386 C392 1.428 . S
H387 C383 0.930 . S
H388 C385 0.929 . S
S389 N390 1.613 . S
S389 N391 1.610 . S
N390 S389 1.613 . S
N390 C393 1.350 . S
N391 S389 1.610 . S
N391 C392 1.351 . S
C392 C386 1.428 . S
C392 N391 1.351 . S
C392 C393 1.434 . S
C393 C384 1.429 . S
C393 N390 1.350 . S
C393 C392 1.434 . S
C394 C395 1.369 . S
C394 C396 1.419 . S
C394 H398 0.930 . S
C395 C394 1.369 . S
C395 C404 1.429 . S
C396 C394 1.419 . S
C396 C397 1.363 . S
C396 H399 0.929 . S
C397 C396 1.363 . S
C397 C403 1.428 . S
H398 C394 0.930 . S
H399 C396 0.929 . S
S400 N401 1.613 . S
S400 N402 1.610 . S
N401 S400 1.613 . S
N401 C404 1.350 . S
N402 S400 1.610 . S
N402 C403 1.351 . S
C403 C397 1.428 . S
C403 N402 1.351 . S
C403 C404 1.434 . S
C404 C395 1.429 . S
C404 N401 1.350 . S
C404 C403 1.434 . S
C405 C406 1.369 . S
C405 C407 1.419 . S
C405 H409 0.930 . S
C406 C405 1.369 . S
C406 C415 1.429 . S
C407 C405 1.419 . S
C407 C408 1.363 . S
C407 H410 0.929 . S
C408 C407 1.363 . S
C408 C414 1.428 . S
H409 C405 0.930 . S
H410 C407 0.929 . S
S411 N412 1.613 . S
S411 N413 1.610 . S
N412 S411 1.613 . S
N412 C415 1.350 . S
N413 S411 1.610 . S
N413 C414 1.351 . S
C414 C408 1.428 . S
C414 N413 1.351 . S
C414 C415 1.434 . S
C415 C406 1.429 . S
C415 N412 1.350 . S
C415 C414 1.434 . S
C416 C417 1.369 . S
C416 C418 1.419 1_556 S
C416 H420 0.930 1_545 S
C417 C416 1.369 . S
C417 C426 1.429 . S
C418 C416 1.419 1_554 S
C418 C419 1.363 1_554 S
C418 H421 0.929 . S
C419 C418 1.363 1_556 S
C419 C425 1.428 . S
H420 C416 0.930 1_565 S
H421 C418 0.929 . S
S422 N423 1.613 . S
S422 N424 1.610 . S
N423 S422 1.613 . S
N423 C426 1.350 . S
N424 S422 1.610 . S
N424 C425 1.351 . S
C425 C419 1.428 . S
C425 N424 1.351 . S
C425 C426 1.434 . S
C426 C417 1.429 . S
C426 N423 1.350 . S
C426 C425 1.434 . S
C427 C428 1.369 . S
C427 C429 1.419 . S
C427 H431 0.930 . S
C428 C427 1.369 . S
C428 C437 1.429 . S
C429 C427 1.419 . S
C429 C430 1.363 . S
C429 H432 0.929 . S
C430 C429 1.363 . S
C430 C436 1.428 . S
H431 C427 0.930 . S
H432 C429 0.929 . S
S433 N434 1.613 . S
S433 N435 1.610 . S
N434 S433 1.613 . S
N434 C437 1.350 . S
N435 S433 1.610 . S
N435 C436 1.351 . S
C436 C430 1.428 . S
C436 N435 1.351 . S
C436 C437 1.434 . S
C437 C428 1.429 . S
C437 N434 1.350 . S
C437 C436 1.434 . S
C438 C439 1.369 . S
C438 C440 1.419 . S
C438 H442 0.930 . S
C439 C438 1.369 . S
C439 C448 1.417 1_554 S
C440 C438 1.419 . S
C440 C441 1.363 . S
C440 H443 0.929 . S
C441 C440 1.363 . S
C441 C447 1.429 . S
H442 C438 0.930 . S
H443 C440 0.929 . S
S444 N445 1.613 . S
S444 N446 1.610 . S
N445 S444 1.613 . S
N445 C448 1.363 . S
N446 S444 1.610 . S
N446 C447 1.350 1_556 S
C447 C441 1.429 . S
C447 N446 1.350 1_554 S
C447 C448 1.433 1_554 S
C448 C439 1.417 1_556 S
C448 N445 1.363 . S
C448 C447 1.433 1_556 S
C449 C450 1.369 . S
C449 C451 1.419 . S
C449 H453 0.930 . S
C450 C449 1.369 . S
C450 C459 1.429 . S
C451 C449 1.419 . S
C451 C452 1.363 . S
C451 H454 0.929 . S
C452 C451 1.363 . S
C452 C458 1.428 . S
H453 C449 0.930 . S
H454 C451 0.929 . S
S455 N456 1.613 . S
S455 N457 1.610 . S
N456 S455 1.613 . S
N456 C459 1.350 . S
N457 S455 1.610 . S
N457 C458 1.351 . S
C458 C452 1.428 . S
C458 N457 1.351 . S
C458 C459 1.434 . S
C459 C450 1.429 . S
C459 N456 1.350 . S
C459 C458 1.434 . S
C460 C461 1.369 . S
C460 C462 1.419 . S
C460 H464 0.930 1_655 S
C461 C460 1.369 . S
C461 C470 1.429 . S
C462 C460 1.419 . S
C462 C463 1.363 . S
C462 H465 0.929 1_655 S
C463 C462 1.363 . S
C463 C469 1.428 . S
H464 C460 0.930 1_455 S
H465 C462 0.929 1_455 S
S466 N467 1.613 . S
S466 N468 1.610 . S
N467 S466 1.613 . S
N467 C470 1.350 . S
N468 S466 1.610 . S
N468 C469 1.351 . S
C469 C463 1.428 . S
C469 N468 1.351 . S
C469 C470 1.434 . S
C470 C461 1.429 . S
C470 N467 1.350 . S
C470 C469 1.434 . S
C471 C472 1.369 . S
C471 C473 1.419 . S
C471 H475 0.930 . S
C472 C471 1.369 . S
C472 C481 1.429 . S
C473 C471 1.419 . S
C473 C474 1.363 . S
C473 H476 0.929 . S
C474 C473 1.363 . S
C474 C480 1.428 . S
H475 C471 0.930 . S
H476 C473 0.929 . S
S477 N478 1.613 . S
S477 N479 1.610 . S
N478 S477 1.613 . S
N478 C481 1.350 . S
N479 S477 1.610 . S
N479 C480 1.351 . S
C480 C474 1.428 . S
C480 N479 1.351 . S
C480 C481 1.434 . S
C481 C472 1.429 . S
C481 N478 1.350 . S
C481 C480 1.434 . S
C482 C483 1.369 . S
C482 C484 1.419 . S
C482 H486 0.930 . S
C483 C482 1.369 . S
C483 C492 1.429 . S
C484 C482 1.419 . S
C484 C485 1.363 . S
C484 H487 0.929 . S
C485 C484 1.363 . S
C485 C491 1.428 . S
H486 C482 0.930 . S
H487 C484 0.929 . S
S488 N489 1.613 . S
S488 N490 1.610 . S
N489 S488 1.613 . S
N489 C492 1.350 . S
N490 S488 1.610 . S
N490 C491 1.351 . S
C491 C485 1.428 . S
C491 N490 1.351 . S
C491 C492 1.434 . S
C492 C483 1.429 . S
C492 N489 1.350 . S
C492 C491 1.434 . S
C493 C494 1.369 . S
C493 C495 1.419 . S
C493 H497 0.930 . S
C494 C493 1.369 . S
C494 C503 1.429 . S
C495 C493 1.419 . S
C495 C496 1.363 . S
C495 H498 0.929 . S
C496 C495 1.363 . S
C496 C502 1.428 . S
H497 C493 0.930 . S
H498 C495 0.929 . S
S499 N500 1.613 . S
S499 N501 1.610 . S
N500 S499 1.613 . S
N500 C503 1.350 . S
N501 S499 1.610 . S
N501 C502 1.351 . S
C502 C496 1.428 . S
C502 N501 1.351 . S
C502 C503 1.434 . S
C503 C494 1.429 . S
C503 N500 1.350 . S
C503 C502 1.434 . S
C241 N1 2.178 . S
C243 C104 2.219 . S
C252 N18 2.517 1_545 S
C254 C146 2.574 . S
C265 C176 0.814 . S
C263 N28 0.799 . S
C274 N40 1.177 . S
C276 C210 1.168 . S
C287 C167 2.117 . S
C285 N5 2.064 . S
C298 C121 1.905 . S
C296 N14 1.817 . S
C309 C214 1.290 . S
C307 N31 1.230 . S
C320 C180 0.962 . S
C318 N41 0.940 . S
C329 N2 2.079 . S
C331 C235 2.097 . S
C342 C142 1.194 . S
C340 N27 1.153 . S
C351 N44 1.305 . S
C353 C117 1.293 . S
C362 N15 1.999 . S
C364 C201 2.003 . S
C375 C133 2.552 1_655 S
C373 N57 2.507 . S
C384 N70 2.068 . S
C386 C155 2.112 . S
C395 N79 0.994 . S
C397 C185 1.012 . S
C406 N93 0.909 . S
C408 C219 0.910 . S
C417 N54 1.754 1_545 S
C419 C138 1.764 1_556 S
C430 C112 2.162 . S
C428 N66 2.105 . S
C441 C223 0.779 . S
C439 N80 0.788 . S
C452 C189 1.386 . S
C450 N96 1.329 . S
C461 N53 2.087 . S
C463 C206 2.164 . S
C474 C151 1.267 . S
C472 N83 1.291 . S
C485 C108 1.249 . S
C483 N92 1.180 . S
C494 N67 2.062 . S
C496 C172 2.081 . S
