# Generated by pormake.
# Topology anh, (6,3)-cn, num edge types: 1
# Building blocks:
#     Node 0, Type 0, BuildingBlock: HISSIN_clean_sbu_0, # of connection points: 6
#     Node 1, Type 0, BuildingBlock: HISSIN_clean_sbu_0, # of connection points: 6
#     Node 2, Type 0, BuildingBlock: HISSIN_clean_sbu_0, # of connection points: 6
#     Node 3, Type 1, BuildingBlock: KAKCAD_clean_linker_0, # of connection points: 3
#     Node 4, Type 1, BuildingBlock: KAKCAD_clean_linker_0, # of connection points: 3
#     Node 5, Type 1, BuildingBlock: KAKCAD_clean_linker_0, # of connection points: 3
#     Node 6, Type 1, BuildingBlock: KAKCAD_clean_linker_0, # of connection points: 3
#     Node 7, Type 1, BuildingBlock: KAKCAD_clean_linker_0, # of connection points: 3
#     Node 8, Type 1, BuildingBlock: KAKCAD_clean_linker_0, # of connection points: 3
#     Edge 9, Type (0, 1), BuildingBlock: XIVTED_clean_linker_0, # of connection points: 2
#     Edge 10, Type (0, 1), BuildingBlock: XIVTED_clean_linker_0, # of connection points: 2
#     Edge 11, Type (0, 1), BuildingBlock: XIVTED_clean_linker_0, # of connection points: 2
#     Edge 12, Type (0, 1), BuildingBlock: XIVTED_clean_linker_0, # of connection points: 2
#     Edge 13, Type (0, 1), BuildingBlock: XIVTED_clean_linker_0, # of connection points: 2
#     Edge 14, Type (0, 1), BuildingBlock: XIVTED_clean_linker_0, # of connection points: 2
#     Edge 15, Type (0, 1), BuildingBlock: XIVTED_clean_linker_0, # of connection points: 2
#     Edge 16, Type (0, 1), BuildingBlock: XIVTED_clean_linker_0, # of connection points: 2
#     Edge 17, Type (0, 1), BuildingBlock: XIVTED_clean_linker_0, # of connection points: 2
#     Edge 18, Type (0, 1), BuildingBlock: XIVTED_clean_linker_0, # of connection points: 2
#     Edge 19, Type (0, 1), BuildingBlock: XIVTED_clean_linker_0, # of connection points: 2
#     Edge 20, Type (0, 1), BuildingBlock: XIVTED_clean_linker_0, # of connection points: 2
#     Edge 21, Type (0, 1), BuildingBlock: XIVTED_clean_linker_0, # of connection points: 2
#     Edge 22, Type (0, 1), BuildingBlock: XIVTED_clean_linker_0, # of connection points: 2
#     Edge 23, Type (0, 1), BuildingBlock: XIVTED_clean_linker_0, # of connection points: 2
#     Edge 24, Type (0, 1), BuildingBlock: XIVTED_clean_linker_0, # of connection points: 2
#     Edge 25, Type (0, 1), BuildingBlock: XIVTED_clean_linker_0, # of connection points: 2
#     Edge 26, Type (0, 1), BuildingBlock: XIVTED_clean_linker_0, # of connection points: 2
# Relax obj value: 0.236
# Max RMSD: 0.187
# Mean RMSD: 0.154
data_MOF--net-anh--node1-HISSIN_clean_sbu_0--node2-KAKCAD_clean_linker_0--edge1-XIVTED_clean_linker_0
_symmetry_space_group_name_H-M    P1
_symmetry_Int_Tables_number       1
_symmetry_cell_setting            triclinic
loop_
_symmetry_equiv_pos_as_xyz
'x, y, z'
_cell_length_a     36.492777
_cell_length_b     36.575655
_cell_length_c     67.269301
_cell_angle_alpha  91.416081
_cell_angle_beta   90.604023
_cell_angle_gamma 119.98193
loop_
_atom_site_label
_atom_site_type_symbol
_atom_site_fract_x
_atom_site_fract_y
_atom_site_fract_z
_atom_type_partial_charge
Eu0 Eu 1.06077 0.47905 0.15876 0.0
Eu1 Eu 0.11247 0.57807 0.17126 0.0
C2 C 1.07272 0.50924 0.2045 0.0
C3 C 0.97072 0.38445 0.13563 0.0
C4 C 0.96433 0.40923 0.12189 0.0
C5 C 0.8947 0.34118 0.13861 0.0
C6 C 0.92358 0.40141 0.11741 0.0
C7 C 0.93553 0.34892 0.14303 0.0
C8 C 0.8886 0.369 0.12676 0.0
C9 C 1.01216 0.40149 0.14591 0.0
O10 O 0.16438 0.56009 0.17182 0.0
O11 O 0.12845 0.49237 0.15817 0.0
C12 C 0.16388 0.52579 0.16466 0.0
O13 O 1.06878 0.51723 0.13113 0.0
O14 O 0.16007 0.63294 0.18887 0.0
O15 O 0.1185 0.63949 0.16776 0.0
O16 O 0.13232 0.57271 0.1408 0.0
C17 C 0.10481 0.55055 0.1267 0.0
O18 O 1.00977 0.4958 0.16514 0.0
O19 O 1.04868 0.56555 0.15849 0.0
O20 O 1.07728 0.54479 0.19819 0.0
O21 O 1.04502 0.4288 0.1363 0.0
O22 O 1.01294 0.41397 0.16432 0.0
O23 O 1.0749 0.48207 0.19205 0.0
C24 C 0.1881 0.69725 0.17157 0.0
C25 C 0.18411 0.7137 0.15348 0.0
C26 C 0.2589 0.75749 0.17634 0.0
C27 C 0.21678 0.75216 0.14716 0.0
C28 C 0.22608 0.71915 0.18275 0.0
C29 C 0.25411 0.7748 0.15873 0.0
C30 C 0.152 0.65902 0.1794 0.0
C31 C 1.01165 0.5315 0.16084 0.0
H32 H 0.99089 0.437 0.11597 0.0
H33 H 0.86847 0.31603 0.14615 0.0
H34 H 0.91979 0.42296 0.10798 0.0
H35 H 0.93974 0.32962 0.15376 0.0
H36 H 0.15529 0.69759 0.14443 0.0
H37 H 0.28714 0.77464 0.18571 0.0
H38 H 0.2124 0.76479 0.13351 0.0
H39 H 0.22989 0.70733 0.19677 0.0
Eu40 Eu 0.57184 1.00082 0.49154 0.0
Eu41 Eu 0.51781 1.04618 0.50424 0.0
C42 C 0.55463 1.01248 0.53708 0.0
C43 C 0.6263 0.93524 0.47355 0.0
C44 C 0.6109 0.89527 0.48157 0.0
C45 C 0.67568 0.92397 0.45404 0.0
C46 C 0.62939 0.87091 0.47668 0.0
C47 C 0.65719 0.94833 0.45894 0.0
C48 C 0.66374 0.88626 0.46379 0.0
C49 C 0.61822 0.96694 0.4833 0.0
O50 O 0.58664 0.10094 0.50576 0.0
O51 O 0.62055 0.07014 0.49012 0.0
C52 C 0.62075 0.10373 0.49764 0.0
O53 O 0.54522 1.00878 0.46251 0.0
O54 O 0.50459 0.08241 0.5263 0.0
O55 O 0.46949 0.06322 0.49812 0.0
O56 O 0.53765 0.06451 0.47304 0.0
C57 C 0.54056 1.0413 0.45872 0.0
O58 O 0.50433 0.94533 0.49294 0.0
O59 O 0.46636 0.98011 0.49393 0.0
O60 O 0.51989 1.011 0.53078 0.0
O61 O 0.61752 0.99587 0.47264 0.0
O62 O 0.59315 0.95645 0.49842 0.0
O63 O 0.58431 1.01904 0.52445 0.0
C64 C 0.49584 0.13311 0.51014 0.0
C65 C 0.52202 0.15167 0.49392 0.0
C66 C 0.51552 0.20285 0.52355 0.0
C67 C 0.54586 0.19542 0.49289 0.0
C68 C 0.49166 0.15889 0.52461 0.0
C69 C 0.5441 0.2214 0.50809 0.0
C70 C 0.48057 0.08849 0.51387 0.0
C71 C 0.4679 0.94487 0.49216 0.0
H72 H 0.58714 0.88433 0.49289 0.0
H73 H 0.7016 0.93627 0.44382 0.0
H74 H 0.61949 0.8421 0.48456 0.0
H75 H 0.66968 0.97908 0.45254 0.0
H76 H 0.52622 0.13245 0.48268 0.0
H77 H 0.51382 0.2222 0.53556 0.0
H78 H 0.56728 0.20891 0.4807 0.0
H79 H 0.47215 0.14513 0.53738 0.0
Eu80 Eu 0.57121 0.49346 0.82473 0.0
Eu81 Eu 0.67187 0.5381 0.83435 0.0
C82 C 0.60712 0.50649 0.8707 0.0
C83 C 0.46676 0.48508 0.81578 0.0
C84 C 0.48664 0.52743 0.81024 0.0
C85 C 0.40744 0.49112 0.82769 0.0
C86 C 0.46753 0.55174 0.81387 0.0
C87 C 0.4265 0.46674 0.82396 0.0
C88 C 0.42846 0.53423 0.82331 0.0
C89 C 0.49091 0.46282 0.81647 0.0
O90 O 0.64734 0.46775 0.83862 0.0
O91 O 0.58799 0.44194 0.81848 0.0
C92 C 0.61687 0.43649 0.82778 0.0
O93 O 0.60492 0.52783 0.79712 0.0
O94 O 0.73337 0.54603 0.82649 0.0
O95 O 0.72883 0.58241 0.85125 0.0
O96 O 0.66099 0.51853 0.80221 0.0
C97 C 0.63826 0.5274 0.79037 0.0
O98 O 0.59015 0.56144 0.8327 0.0
O99 O 0.66035 0.59216 0.82558 0.0
O100 O 0.64553 0.53148 0.86472 0.0
O101 O 0.51909 0.47179 0.80288 0.0
O102 O 0.50567 0.46229 0.83409 0.0
O103 O 0.575 0.48553 0.85805 0.0
C104 C 0.79147 0.61443 0.83292 0.0
C105 C 0.79083 0.6519 0.82963 0.0
C106 C 0.86654 0.65067 0.82663 0.0
C107 C 0.8283 0.68899 0.82554 0.0
C108 C 0.82923 0.61379 0.83082 0.0
C109 C 0.86678 0.68898 0.82454 0.0
C110 C 0.75396 0.57645 0.8397 0.0
C111 C 0.62615 0.5952 0.82853 0.0
H112 H 0.51809 0.54252 0.80421 0.0
H113 H 0.37708 0.47672 0.83478 0.0
H114 H 0.4847 0.58493 0.81053 0.0
H115 H 0.41088 0.43427 0.82851 0.0
H116 H 0.76175 0.65287 0.83092 0.0
H117 H 0.89566 0.64961 0.82627 0.0
H118 H 0.82745 0.71793 0.82386 0.0
H119 H 0.83022 0.58511 0.83324 0.0
C120 C 0.56319 0.19792 0.32051 0.0
C121 C 0.56293 0.15974 0.3234 0.0
C122 C 0.56106 0.21083 0.30129 0.0
C123 C 0.55853 0.18575 0.28461 0.0
C124 C 0.56038 0.14875 0.28751 0.0
C125 C 0.56232 0.1358 0.30661 0.0
C126 C 0.55143 0.19613 0.26423 0.0
C127 C 0.57528 0.23719 0.25702 0.0
C128 C 0.57047 0.24503 0.23701 0.0
C129 C 0.54152 0.2114 0.22442 0.0
C130 C 0.51789 0.17054 0.23136 0.0
C131 C 0.52212 0.16343 0.25138 0.0
C132 C 0.49293 0.13457 0.21716 0.0
C133 C 0.46802 0.13734 0.20183 0.0
C134 C 0.4959 0.09786 0.21827 0.0
C135 C 0.47418 0.06448 0.20453 0.0
C136 C 0.44913 0.06702 0.18922 0.0
C137 C 0.60012 0.28551 0.22777 0.0
C138 C 0.58552 0.30052 0.21225 0.0
C139 C 0.64395 0.30324 0.23094 0.0
C140 C 0.67212 0.3308 0.21723 0.0
C141 C 0.65679 0.3406 0.20011 0.0
C142 C 0.61359 0.32736 0.19834 0.0
C143 C 0.44622 0.1038 0.188 0.0
H144 H 0.5644 0.21755 0.3331 0.0
H145 H 0.55986 0.23957 0.29951 0.0
H146 H 0.55937 0.12914 0.27494 0.0
H147 H 0.5617 0.10611 0.30816 0.0
H148 H 0.59873 0.26243 0.26666 0.0
H149 H 0.50324 0.13185 0.25686 0.0
H150 H 0.53986 0.21628 0.20868 0.0
H151 H 0.4652 0.16531 0.20062 0.0
H152 H 0.51549 0.09505 0.22966 0.0
H153 H 0.47642 1.03627 0.20618 0.0
H154 H 0.55192 0.28809 0.2097 0.0
H155 H 0.65629 0.29236 0.24269 0.0
H156 H 0.42718 0.10669 0.17636 0.0
H157 H 0.60114 0.33484 0.18534 0.0
H158 H 0.70536 0.34053 0.21888 0.0
C159 C 0.7727 0.67159 0.64998 0.0
C160 C 0.78051 0.64533 0.66211 0.0
C161 C 0.79049 0.68212 0.6312 0.0
C162 C 0.81647 0.6666 0.62416 0.0
C163 C 0.82557 0.64172 0.6366 0.0
C164 C 0.80774 0.63113 0.6553 0.0
C165 C 0.83006 0.67224 0.60319 0.0
C166 C 0.84305 0.71064 0.59384 0.0
C167 C 0.84944 0.71363 0.57323 0.0
C168 C 0.84464 0.67835 0.56221 0.0
C169 C 0.82995 0.63938 0.5711 0.0
C170 C 0.82393 0.63691 0.5917 0.0
C171 C 0.81219 0.60001 0.55854 0.0
C172 C 0.78652 0.5951 0.54177 0.0
C173 C 0.81578 0.56534 0.56449 0.0
C174 C 0.79204 0.52595 0.55466 0.0
C175 C 0.76426 0.52063 0.53878 0.0
C176 C 0.8499 0.74844 0.56221 0.0
C177 C 0.8185 0.75901 0.56607 0.0
C178 C 0.87399 0.76349 0.54501 0.0
C179 C 0.86352 0.78442 0.53086 0.0
C180 C 0.82883 0.79033 0.53379 0.0
C181 C 0.80795 0.77959 0.55193 0.0
C182 C 0.76297 0.55591 0.53198 0.0
H183 H 0.75233 0.68351 0.65487 0.0
H184 H 0.78239 0.70089 0.62188 0.0
H185 H 0.84557 0.62942 0.63161 0.0
H186 H 0.81411 0.61044 0.66411 0.0
H187 H 0.84589 0.73752 0.60236 0.0
H188 H 0.81047 0.60644 0.59849 0.0
H189 H 0.84788 0.67992 0.54621 0.0
H190 H 0.78238 0.62084 0.53691 0.0
H191 H 0.83548 0.56824 0.57727 0.0
H192 H 0.79354 0.4992 0.56026 0.0
H193 H 0.79911 0.74764 0.57905 0.0
H194 H 0.89854 0.75598 0.54174 0.0
H195 H 0.74224 0.5528 0.51961 0.0
H196 H 0.78137 0.7844 0.55454 0.0
H197 H 0.88014 0.79273 0.51698 0.0
C198 C 0.22349 0.72649 0.99432 0.0
C199 C 0.18034 0.70434 -0.00104 0.0
C200 C 0.23663 0.74759 0.97652 0.0
C201 C 0.20697 0.74692 0.96283 0.0
C202 C 0.1639 0.72554 0.9676 0.0
C203 C 0.15072 0.70444 0.98546 0.0
C204 C 0.22051 0.76548 0.94299 0.0
C205 C 0.24906 0.75816 0.93223 0.0
C206 C 0.25866 0.77108 0.91259 0.0
C207 C 0.23931 0.79163 0.90365 0.0
C208 C 0.21077 0.79965 0.91418 0.0
C209 C 0.20239 0.78722 0.93406 0.0
C210 C 0.18619 0.81634 0.90372 0.0
C211 C 0.20354 0.84425 0.88795 0.0
C212 C 0.14348 0.80107 0.90819 0.0
C213 C 0.11839 0.81162 0.89669 0.0
C214 C 0.13499 0.83707 0.88018 0.0
C215 C 0.28545 0.75888 0.90096 0.0
C216 C 0.32222 0.76226 0.90968 0.0
C217 C 0.27227 0.74003 0.88183 0.0
C218 C 0.29398 0.72264 0.87212 0.0
C219 C 0.32921 0.7237 0.88139 0.0
C220 C 0.34388 0.74486 0.89999 0.0
C221 C 0.17801 0.85404 0.87612 0.0
H222 H 0.24718 0.72671 0.00424 0.0
H223 H 0.27005 0.76396 0.97334 0.0
H224 H 0.14018 0.72397 0.95725 0.0
H225 H 0.11733 0.68812 0.98867 0.0
H226 H 0.2619 0.73998 0.93874 0.0
H227 H 0.18103 0.79361 0.94254 0.0
H228 H 0.24534 0.79979 0.8882 0.0
H229 H 0.2365 0.85747 0.8843 0.0
H230 H 0.1284 0.77881 0.91983 0.0
H231 H 1.08508 0.79734 0.89993 0.0
H232 H 0.33348 0.77723 0.92428 0.0
H233 H 0.2438 0.73653 0.87481 0.0
H234 H 0.19153 0.87377 0.86345 0.0
H235 H 0.37141 0.74683 0.90733 0.0
H236 H 0.28168 0.70622 0.85788 0.0
C237 C 1.01001 0.48431 0.36287 0.0
C238 C 1.04669 0.49028 0.35334 0.0
C239 C 1.00942 0.48843 0.38361 0.0
C240 C 1.04555 0.49879 0.39544 0.0
C241 C 1.08203 0.50406 0.38596 0.0
C242 C 1.08255 0.49974 0.3652 0.0
C243 C 1.04539 0.50482 0.41752 0.0
C244 C 1.01015 0.47732 0.42847 0.0
C245 C 1.00917 0.48247 0.44925 0.0
C246 C 1.04506 0.51679 0.45921 0.0
C247 C 1.08111 0.54522 0.44835 0.0
C248 C 1.08038 0.53844 0.42759 0.0
C249 C 0.12025 0.58261 0.4577 0.0
C250 C 0.11823 0.61367 0.46969 0.0
C251 C 0.1607 0.59043 0.45225 0.0
C252 C 0.1976 0.62837 0.45786 0.0
C253 C 0.19581 0.66038 0.46919 0.0
C254 C 0.97006 0.45063 0.45966 0.0
C255 C 0.92966 0.44132 0.4526 0.0
C256 C 0.97192 0.42465 0.47427 0.0
C257 C 0.93461 0.38936 0.48089 0.0
C258 C 0.89417 0.37916 0.47327 0.0
C259 C 0.89248 0.40651 0.45936 0.0
C260 C 0.15537 0.652 0.47527 0.0
H261 H 0.98163 0.47652 0.35427 0.0
H262 H 0.98086 0.48441 0.39034 0.0
H263 H 0.11029 0.51157 0.3946 0.0
H264 H 0.11147 0.5049 0.35841 0.0
H265 H 0.98342 0.45088 0.42079 0.0
H266 H 0.10705 0.56037 0.41905 0.0
H267 H 1.04493 0.52126 0.47518 0.0
H268 H 1.08779 0.60916 0.47403 0.0
H269 H 0.16377 0.56747 0.44301 0.0
H270 H 0.22751 0.63312 0.45255 0.0
H271 H 0.92687 0.46029 0.44122 0.0
H272 H 1.00233 0.43035 0.47987 0.0
H273 H 0.15226 0.67525 0.48422 0.0
H274 H 0.86241 0.39996 0.45291 0.0
H275 H 0.93756 0.36962 0.49178 0.0
C276 C 0.56605 0.96426 0.69651 0.0
C277 C 0.59238 0.99941 0.6852 0.0
C278 C 0.57125 0.96582 0.71729 0.0
C279 C 0.60255 1.00276 0.72729 0.0
C280 C 0.62909 1.03772 0.71595 0.0
C281 C 0.62419 1.03601 0.6952 0.0
C282 C 0.6071 1.0055 0.74948 0.0
C283 C 0.60676 0.97278 0.76009 0.0
C284 C 0.61226 0.97551 0.78097 0.0
C285 C 0.61814 1.01279 0.79136 0.0
C286 C 0.61814 1.04631 0.78083 0.0
C287 C 0.61217 1.0414 0.75998 0.0
C288 C 0.6239 0.08703 0.79046 0.0
C289 C 0.60194 0.08781 0.80747 0.0
C290 C 0.64773 0.12556 0.78076 0.0
C291 C 0.64714 0.16233 0.78677 0.0
C292 C 0.62355 0.16275 0.80307 0.0
C293 C 0.6117 0.93847 0.7909 0.0
C294 C 0.57836 0.89708 0.78645 0.0
C295 C 0.64662 0.94277 0.80209 0.0
C296 C 0.64866 0.90681 0.80795 0.0
C297 C 0.61564 0.86529 0.80301 0.0
C298 C 0.58017 0.86136 0.79244 0.0
C299 C 0.60199 0.12522 0.81376 0.0
H300 H 0.54146 0.93542 0.6893 0.0
H301 H 0.55015 0.93841 0.72556 0.0
H302 H 0.65378 0.06654 0.72314 0.0
H303 H 0.6448 0.0638 0.68703 0.0
H304 H 0.60324 0.94522 0.75193 0.0
H305 H 0.61059 0.06562 0.75168 0.0
H306 H 0.6226 1.0156 0.80738 0.0
H307 H 0.58306 1.05908 0.81536 0.0
H308 H 0.66602 0.12704 0.76792 0.0
H309 H 0.66493 0.19059 0.77838 0.0
H310 H 0.55112 0.89225 0.7777 0.0
H311 H 0.67323 0.97394 0.80556 0.0
H312 H 0.58357 0.12421 0.82647 0.0
H313 H 0.55417 0.83046 0.78801 0.0
H314 H 0.67641 0.91165 0.81623 0.0
C315 C 0.59658 0.48455 0.03184 0.0
C316 C 0.57976 0.50395 0.0199 0.0
C317 C 0.5968 0.48811 0.05263 0.0
C318 C 0.58044 0.51145 0.06214 0.0
C319 C 0.56323 0.53053 0.05016 0.0
C320 C 0.56275 0.5267 0.02934 0.0
C321 C 0.58152 0.51587 0.08439 0.0
C322 C 0.61652 0.52075 0.09561 0.0
C323 C 0.61795 0.52415 0.11649 0.0
C324 C 0.58326 0.52321 0.12643 0.0
C325 C 0.54748 0.51848 0.11542 0.0
C326 C 0.54749 0.51494 0.09447 0.0
C327 C 0.5093 0.51682 0.12497 0.0
C328 C 0.46821 0.48713 0.11784 0.0
C329 C 0.51304 0.547 0.1395 0.0
C330 C 0.47695 0.54837 0.14604 0.0
C331 C 0.4359 0.51936 0.13837 0.0
C332 C 0.65648 0.52838 0.12705 0.0
C333 C 0.65626 0.49299 0.13492 0.0
C334 C 0.69576 0.56565 0.1256 0.0
C335 C 0.73378 0.56731 0.13141 0.0
C336 C 0.73409 0.53144 0.13855 0.0
C337 C 0.69438 0.49447 0.1406 0.0
C338 C 0.43239 0.4884 0.12434 0.0
H339 H 0.60935 0.46622 0.02511 0.0
H340 H 0.60949 0.47217 0.06126 0.0
H341 H 0.55087 0.54925 0.05685 0.0
H342 H 0.55003 0.54252 0.02063 0.0
H343 H 0.64324 0.52213 0.08804 0.0
H344 H 0.52049 0.51121 0.08588 0.0
H345 H 0.58397 0.52575 0.14252 0.0
H346 H 0.46371 0.46314 0.10676 0.0
H347 H 0.54401 0.57059 0.14529 0.0
H348 H 0.48137 0.57241 0.15705 0.0
H349 H 0.62673 0.46342 0.13571 0.0
H350 H 0.6972 0.59326 0.11926 0.0
H351 H 0.40193 0.46569 0.11774 0.0
H352 H 0.69266 0.46586 0.14574 0.0
H353 H 0.76309 0.59678 0.12993 0.0
H354 H 0.17432 0.45787 0.15537 0.0
H355 H 0.42824 0.58971 0.1483 0.0
H356 H 0.24718 0.59162 0.16927 0.0
H357 H 0.35341 0.45388 0.14227 0.0
H358 H 0.36377 0.59193 0.1561 0.0
H359 H 0.23998 0.45683 0.15039 0.0
C360 C 0.20408 0.48713 0.15749 0.0
C361 C 0.20467 0.52491 0.16282 0.0
C362 C 0.36151 0.56164 0.15311 0.0
C363 C 0.28117 0.52393 0.15687 0.0
C364 C 0.39855 0.56025 0.14876 0.0
C365 C 0.39695 0.52152 0.14438 0.0
C366 C 0.32206 0.52407 0.15311 0.0
C367 C 0.35682 0.48469 0.14504 0.0
C368 C 0.24182 0.48647 0.15462 0.0
C369 C 0.24476 0.56163 0.16528 0.0
N370 N 0.3214 0.48695 0.14918 0.0
N371 N 0.28115 0.56026 0.16219 0.0
H372 H 0.633 0.18525 0.50164 0.0
H373 H 0.88297 0.29982 0.4798 0.0
H374 H 0.70083 0.1189 0.48985 0.0
H375 H 0.81323 0.36636 0.47934 0.0
H376 H 0.81765 0.23479 0.48702 0.0
H377 H 0.69895 0.25259 0.4969 0.0
C378 C 0.66167 0.18469 0.49825 0.0
C379 C 0.66089 0.14586 0.49617 0.0
C380 C 0.81653 0.2636 0.48541 0.0
C381 C 0.73703 0.22339 0.49072 0.0
C382 C 0.85414 0.30109 0.48143 0.0
C383 C 0.85425 0.33926 0.47888 0.0
C384 C 0.77811 0.26366 0.48711 0.0
C385 C 0.8151 0.33797 0.48091 0.0
C386 C 0.69938 0.22327 0.49544 0.0
C387 C 0.69937 0.14765 0.49158 0.0
N388 N 0.77894 0.3011 0.4849 0.0
N389 N 0.73546 0.18537 0.48908 0.0
H390 H 0.69318 0.67382 0.81886 0.0
H391 H 0.55128 0.78667 0.81393 0.0
H392 H 0.56049 0.61188 0.83201 0.0
H393 H 0.68553 0.85345 0.80409 0.0
H394 H 0.55478 0.72302 0.82048 0.0
H395 H 0.69182 0.73953 0.81351 0.0
C396 C 0.66377 0.67387 0.82072 0.0
C397 C 0.62691 0.63666 0.82596 0.0
C398 C 0.58359 0.75155 0.81693 0.0
C399 C 0.62507 0.71258 0.81965 0.0
C400 C 0.58161 0.7882 0.81305 0.0
C401 C 0.61811 0.82622 0.80826 0.0
C402 C 0.62238 0.75204 0.81603 0.0
C403 C 0.65646 0.82547 0.80785 0.0
C404 C 0.66301 0.71159 0.81763 0.0
C405 C 0.58983 0.63932 0.82802 0.0
N406 N 0.6575 0.78925 0.81154 0.0
N407 N 0.5899 0.67617 0.82484 0.0
H408 H 0.99945 0.59141 0.14239 0.0
H409 H 0.75217 0.48728 0.16661 0.0
H410 H 0.93123 0.47491 0.17316 0.0
H411 H 0.81176 0.5772 0.12055 0.0
H412 H 0.81901 0.48824 0.17265 0.0
H413 H 0.93307 0.5923 0.13765 0.0
C414 C 0.97065 0.5661 0.14827 0.0
C415 C 0.97134 0.533 0.15819 0.0
C416 C 0.8174 0.50777 0.16122 0.0
C417 C 0.8946 0.53414 0.15299 0.0
C418 C 0.77897 0.50716 0.15766 0.0
C419 C 0.77547 0.53224 0.14297 0.0
C420 C 0.85315 0.53348 0.15003 0.0
C421 C 0.81233 0.55776 0.13226 0.0
C422 C 0.93259 0.56658 0.1455 0.0
C423 C 0.93256 0.50108 0.16538 0.0
N424 N 0.8492 0.55766 0.13598 0.0
N425 N 0.8961 0.5026 0.16276 0.0
H426 H 0.3857 0.9297 0.48837 0.0
H427 H 0.27753 0.67629 0.47694 0.0
H428 H 0.45622 0.86396 0.48921 0.0
H429 H 0.20673 0.74141 0.47238 0.0
H430 H 0.34232 0.74426 0.48247 0.0
H431 H 0.32005 0.86164 0.48358 0.0
C432 C 0.38759 0.90109 0.48757 0.0
C433 C 0.42714 0.90316 0.48922 0.0
C434 C 0.31265 0.7438 0.48029 0.0
C435 C 0.35108 0.82416 0.48373 0.0
C436 C 0.27532 0.70472 0.477 0.0
C437 C 0.23583 0.70233 0.47397 0.0
C438 C 0.31127 0.78157 0.48066 0.0
C439 C 0.23585 0.74097 0.47478 0.0
C440 C 0.34985 0.86203 0.48482 0.0
C441 C 0.42687 0.86446 0.48803 0.0
N442 N 0.27269 0.77863 0.47796 0.0
N443 N 0.38976 0.82693 0.48539 0.0
H444 H 0.57616 0.37487 0.79832 0.0
H445 H 0.63424 0.20496 0.83962 0.0
H446 H 0.65581 0.40247 0.85073 0.0
H447 H 0.60618 0.21043 0.77777 0.0
H448 H 0.63236 0.27073 0.84638 0.0
H449 H 0.57675 0.30861 0.79304 0.0
C450 C 0.59358 0.367 0.80885 0.0
C451 C 0.61602 0.39486 0.82503 0.0
C452 C 0.62655 0.25746 0.83134 0.0
C453 C 0.61638 0.31772 0.81908 0.0
C454 C 0.62736 0.21968 0.82748 0.0
C455 C 0.62056 0.20185 0.80804 0.0
C456 C 0.6178 0.27731 0.81577 0.0
C457 C 0.61201 0.22289 0.79296 0.0
C458 C 0.59403 0.32903 0.80575 0.0
C459 C 0.63813 0.38239 0.83801 0.0
N460 N 0.6106 0.25896 0.79714 0.0
N461 N 0.63752 0.34486 0.83485 0.0
H462 H 0.64179 0.80251 0.46312 0.0
H463 H 0.86574 0.86126 0.51139 0.0
H464 H 0.75016 0.9285 0.46594 0.0
H465 H 0.74952 0.74394 0.51838 0.0
H466 H 0.82974 0.881 0.48626 0.0
H467 H 0.68735 0.77514 0.47397 0.0
C468 C 0.67532 0.82428 0.46554 0.0
C469 C 0.69194 0.86791 0.46407 0.0
C470 C 0.81237 0.85066 0.49309 0.0
C471 C 0.74408 0.83701 0.47673 0.0
C472 C 0.83286 0.83955 0.50739 0.0
C473 C 0.81008 0.80153 0.51719 0.0
C474 C 0.76913 0.82325 0.48856 0.0
C475 C 0.76774 0.77405 0.51144 0.0
C476 C 0.70131 0.80869 0.47177 0.0
C477 C 0.73583 0.89462 0.46697 0.0
N478 N 0.7485 0.78561 0.49765 0.0
N479 N 0.76023 0.87885 0.47359 0.0
H480 H 0.88959 0.76258 0.8455 0.0
H481 H 0.12777 0.82072 0.84013 0.0
H482 H 0.93791 0.70661 0.80374 0.0
H483 H 1.07398 0.85773 0.88789 0.0
H484 H 1.06514 0.80212 0.81932 0.0
H485 H 0.96167 0.81933 0.85286 0.0
C486 C 0.9152 0.76292 0.83736 0.0
C487 C 0.90784 0.72911 0.8244 0.0
C488 C 1.06759 0.81554 0.83414 0.0
C489 C 0.99053 0.79347 0.83318 0.0
C490 C 0.1035 0.82649 0.84597 0.0
C491 C 0.10545 0.83982 0.86588 0.0
C492 C 1.03353 0.81781 0.84238 0.0
C493 C 1.07313 0.84664 0.87273 0.0
C494 C 0.95646 0.79525 0.8417 0.0
C495 C 0.94236 0.73139 0.81431 0.0
N496 N 1.03803 0.83468 0.86114 0.0
N497 N 0.98234 0.76246 0.81925 0.0
H498 H 0.3404 0.81112 0.15876 0.0
H499 H 0.36738 1.03522 0.17564 0.0
H500 H 0.23952 0.83797 0.14828 0.0
H501 H 0.47335 1.01397 0.17195 0.0
H502 H 0.32226 0.96617 0.15955 0.0
H503 H 0.39155 0.88662 0.15785 0.0
C504 C 0.32917 0.83292 0.15588 0.0
C505 C 0.28575 0.81851 0.15394 0.0
C506 C 0.35557 0.97691 0.16188 0.0
C507 C 0.34374 0.90475 0.15316 0.0
C508 C 0.38144 1.01652 0.171 0.0
C509 C 0.42395 1.02988 0.17565 0.0
C510 C 0.37222 0.95032 0.15769 0.0
C511 C 0.44037 1.00422 0.16927 0.0
C512 C 0.35831 0.87598 0.15528 0.0
C513 C 0.27276 0.84785 0.14993 0.0
N514 N 0.41428 0.96526 0.16101 0.0
N515 N 0.30159 0.88972 0.1501 0.0
H516 H 0.5312 0.28767 0.51687 0.0
H517 H 0.77757 0.45499 0.52871 0.0
H518 H 0.62883 0.25853 0.50218 0.0
H519 H 0.6801 0.48888 0.53128 0.0
H520 H 0.72374 0.38285 0.51837 0.0
H521 H 0.58547 0.36212 0.52163 0.0
C522 C 0.56401 0.29706 0.51449 0.0
C523 C 0.57558 0.26703 0.50911 0.0
C524 C 0.71426 0.40624 0.52099 0.0
C525 C 0.63776 0.35176 0.51467 0.0
C526 C 0.74492 0.44729 0.52695 0.0
C527 C 0.73326 0.47788 0.53082 0.0
C528 C 0.67164 0.39571 0.51917 0.0
C529 C 0.69056 0.46639 0.52821 0.0
C530 C 0.59496 0.33949 0.51714 0.0
C531 C 0.61851 0.28079 0.5061 0.0
N532 N 0.66125 0.42615 0.52272 0.0
N533 N 0.6481 0.32211 0.50911 0.0
H534 H 0.42464 0.59766 0.80388 0.0
H535 H 0.35177 0.67303 0.90068 0.0
H536 H 0.39714 0.53488 0.85978 0.0
H537 H 0.34766 0.71737 0.84228 0.0
H538 H 0.37661 0.62797 0.88616 0.0
H539 H 0.40292 0.64643 0.81778 0.0
C540 C 0.41378 0.594 0.81901 0.0
C541 C 0.4123 0.56194 0.83064 0.0
C542 C 0.37042 0.64763 0.87649 0.0
C543 C 0.38804 0.6177 0.84664 0.0
C544 C 0.35669 0.67375 0.88481 0.0
C545 C 0.34771 0.69909 0.87268 0.0
C546 C 0.37539 0.64677 0.85585 0.0
C547 C 0.35389 0.69805 0.85214 0.0
C548 C 0.4014 0.62175 0.82691 0.0
C549 C 0.39804 0.55859 0.85015 0.0
N550 N 0.36737 0.67226 0.84435 0.0
N551 N 0.38668 0.58621 0.85755 0.0
H552 H 0.8793 0.43808 0.13186 0.0
H553 H 0.64012 0.30147 0.16375 0.0
H554 H 0.80663 0.30215 0.12518 0.0
H555 H 0.73538 0.4109 0.197 0.0
H556 H 0.69178 0.31352 0.13811 0.0
H557 H 0.81623 0.43831 0.14323 0.0
C558 C 0.84982 0.40836 0.13214 0.0
C559 C 0.84846 0.36986 0.12793 0.0
C560 C 0.70086 0.33561 0.15071 0.0
C561 C 0.77662 0.37038 0.14125 0.0
C562 C 0.67145 0.32903 0.16525 0.0
C563 C 0.68375 0.35516 0.18253 0.0
C564 C 0.74254 0.36889 0.15337 0.0
C565 C 0.72486 0.38997 0.18393 0.0
C566 C 0.81402 0.40867 0.13884 0.0
C567 C 0.80927 0.33243 0.12869 0.0
N568 N 0.75303 0.39561 0.1696 0.0
N569 N 0.77494 0.33354 0.13558 0.0
H570 H 1.05089 0.52769 0.0936 0.0
H571 H 0.2191 0.72883 0.03572 0.0
H572 H 0.17974 0.61258 0.11378 0.0
H573 H 0.11023 0.62646 0.00502 0.0
H574 H 0.19953 0.68851 0.06579 0.0
H575 H 1.06725 0.56406 0.06173 0.0
C576 C 1.08259 0.5535 0.09127 0.0
C577 C 0.11384 0.56734 0.10645 0.0
C578 C 0.17988 0.6747 0.05248 0.0
C579 C 0.13238 0.60918 0.07048 0.0
C580 C 0.19114 0.69774 0.03525 0.0
C581 C 0.16665 0.68087 0.01769 0.0
C582 C 0.14361 0.63442 0.05234 0.0
C583 C 0.12996 0.64082 0.01824 0.0
C584 C 1.09182 0.5743 0.07317 0.0
C585 C 0.15438 0.60101 0.10267 0.0
N586 N 0.11955 0.61883 0.0353 0.0
N587 N 0.16227 0.62086 0.08521 0.0
H588 H 0.56984 1.02052 0.42512 0.0
H589 H 0.51883 0.1645 0.35517 0.0
H590 H 0.51282 0.09306 0.44544 0.0
H591 H 0.60121 0.11679 0.33786 0.0
H592 H 0.51188 0.13376 0.3876 0.0
H593 H 0.57565 1.04921 0.3919 0.0
C594 C 0.55815 1.04205 0.42255 0.0
C595 C 0.54098 1.05453 0.43808 0.0
C596 C 0.5316 0.13011 0.37673 0.0
C597 C 0.54769 0.08751 0.40032 0.0
C598 C 0.53593 0.14805 0.35823 0.0
C599 C 0.56075 0.14342 0.34368 0.0
C600 C 0.55199 0.10704 0.38078 0.0
C601 C 0.58127 0.12074 0.34847 0.0
C602 C 0.56176 1.05865 0.40366 0.0
C603 C 0.52657 0.08276 0.43397 0.0
N604 N 0.57633 0.1033 0.36657 0.0
N605 N 0.53028 0.09826 0.41554 0.0
H606 H 0.60752 0.55871 0.76158 0.0
H607 H 0.81373 0.63553 0.6969 0.0
H608 H 0.70665 0.52977 0.77355 0.0
H609 H 0.69861 0.62276 0.67141 0.0
H610 H 0.77674 0.60591 0.72743 0.0
H611 H 0.64134 0.5894 0.73002 0.0
C612 C 0.63599 0.55839 0.75752 0.0
C613 C 0.65433 0.5418 0.77029 0.0
C614 C 0.75952 0.60958 0.71516 0.0
C615 C 0.69334 0.57741 0.73469 0.0
C616 C 0.78063 0.62645 0.69769 0.0
C617 C 0.75918 0.63116 0.68141 0.0
C618 C 0.7166 0.59754 0.71656 0.0
C619 C 0.71652 0.61991 0.6836 0.0
C620 C 0.65531 0.576 0.73959 0.0
C621 C 0.69137 0.54235 0.76432 0.0
N622 N 0.69652 0.60346 0.70085 0.0
N623 N 0.70972 0.56014 0.7471 0.0
H624 H 0.62706 1.02684 0.55717 0.0
H625 H 0.51773 0.96672 0.66349 0.0
H626 H 0.49606 0.9887 0.56636 0.0
H627 H 0.65293 1.03011 0.6565 0.0
H628 H 0.50841 0.96777 0.62746 0.0
H629 H 0.63634 1.02185 0.59298 0.0
C630 C 0.60019 1.01723 0.56667 0.0
C631 C 0.56073 1.0083 0.55867 0.0
C632 C 0.54014 0.98139 0.63379 0.0
C633 C 0.57114 1.00238 0.59976 0.0
C634 C 0.54548 0.98054 0.65438 0.0
C635 C 0.58621 0.99842 0.66313 0.0
C636 C 0.57573 0.99994 0.6217 0.0
C637 C 0.62096 1.01638 0.65049 0.0
C638 C 0.60556 1.01451 0.58714 0.0
C639 C 0.52712 0.99608 0.57179 0.0
N640 N 0.61494 1.01662 0.63047 0.0
N641 N 0.53308 0.99343 0.59161 0.0
H642 H 0.66742 0.52621 0.89968 0.0
H643 H 0.51821 0.49139 0.99192 0.0
H644 H 0.53325 0.47781 0.89175 0.0
H645 H 0.64486 0.51127 -0.00282 0.0
H646 H 0.52269 0.48913 0.95553 0.0
H647 H 0.65928 0.52345 0.9355 0.0
C648 C 0.63609 0.5149 0.90545 0.0
C649 C 0.60097 0.50235 0.89256 0.0
C650 C 0.54936 0.49376 0.96468 0.0
C651 C 0.59146 0.49933 0.93402 0.0
C652 C 0.54696 0.49533 0.98546 0.0
C653 C 0.58121 0.50151 -0.00228 0.0
C654 C 0.5865 0.49893 0.95604 0.0
C655 C 0.61746 0.50595 0.98843 0.0
C656 C 0.63148 0.51323 0.92601 0.0
C657 C 0.5612 0.48769 0.90109 0.0
N658 N 0.61919 0.50482 0.96825 0.0
N659 N 0.55755 0.48689 0.92129 0.0
H660 H 1.03929 0.54308 0.22971 0.0
H661 H 1.08344 0.45542 0.32946 0.0
H662 H 1.08781 0.45701 0.22841 0.0
H663 H 1.01337 0.52153 0.32643 0.0
H664 H 1.08704 0.45576 0.29299 0.0
H665 H 1.03073 0.5352 0.26536 0.0
C666 C 1.04806 0.5223 0.23693 0.0
C667 C 1.06454 0.50084 0.22598 0.0
C668 C 1.07064 0.46988 0.30034 0.0
C669 C 1.05501 0.49185 0.26728 0.0
C670 C 1.06878 0.46997 0.32117 0.0
C671 C 1.04802 0.48848 0.33114 0.0
C672 C 1.05199 0.48884 0.28936 0.0
C673 C 1.02924 0.5064 0.31952 0.0
C674 C 1.04305 0.51774 0.25738 0.0
C675 C 1.0749 0.47407 0.23625 0.0
N676 N 1.0319 0.50632 0.29938 0.0
N677 N 1.07036 0.47064 0.25638 0.0
loop_
_geom_bond_atom_site_label_1
_geom_bond_atom_site_label_2
_geom_bond_distance
_geom_bond_site_symmetry_2
_ccdc_geom_bond_type
Eu0 C9 2.828 . S
Eu0 O11 2.392 1_655 S
Eu0 O13 2.418 . S
Eu0 O18 2.373 . S
Eu0 O21 2.488 . S
Eu0 O22 2.471 . S
Eu0 O23 2.349 . S
Eu1 O10 2.373 . S
Eu1 O14 2.488 . S
Eu1 O15 2.471 . S
Eu1 O16 2.349 . S
Eu1 O19 2.392 1_455 S
Eu1 O20 2.418 . S
Eu1 C30 2.828 . S
C2 O20 1.244 . S
C2 O23 1.265 1_455 S
C3 C4 1.379 . S
C3 C7 1.373 . S
C3 C9 1.505 . S
C4 C3 1.379 . S
C4 C6 1.369 . S
C4 H32 0.930 . S
C5 C7 1.383 . S
C5 C8 1.382 . S
C5 H33 0.930 . S
C6 C4 1.369 . S
C6 C8 1.392 . S
C6 H34 0.930 . S
C7 C3 1.373 . S
C7 C5 1.383 . S
C7 H35 0.931 . S
C8 C5 1.382 . S
C8 C6 1.392 . S
C9 Eu0 2.828 . S
C9 C3 1.505 . S
C9 O21 1.249 . S
C9 O22 1.244 . S
O10 Eu1 2.373 . S
O10 C12 1.258 . S
O11 Eu0 2.392 1_455 S
O11 C12 1.242 . S
C12 O10 1.258 . S
C12 O11 1.242 . S
O13 Eu0 2.418 . S
O13 C17 1.243 1_655 S
O14 Eu1 2.488 . S
O14 C30 1.249 . S
O15 Eu1 2.471 . S
O15 C30 1.244 . S
O16 Eu1 2.349 . S
O16 C17 1.266 . S
C17 O13 1.243 1_455 S
C17 O16 1.266 . S
O18 Eu0 2.373 . S
O18 C31 1.258 . S
O19 Eu1 2.392 1_655 S
O19 C31 1.242 . S
O20 Eu1 2.418 . S
O20 C2 1.244 . S
O21 Eu0 2.488 . S
O21 C9 1.249 . S
O22 Eu0 2.471 . S
O22 C9 1.244 . S
O23 Eu0 2.349 . S
O23 C2 1.265 1_655 S
C24 C25 1.379 . S
C24 C28 1.373 . S
C24 C30 1.505 . S
C25 C24 1.379 . S
C25 C27 1.369 . S
C25 H36 0.930 . S
C26 C28 1.383 . S
C26 C29 1.382 . S
C26 H37 0.930 . S
C27 C25 1.369 . S
C27 C29 1.392 . S
C27 H38 0.930 . S
C28 C24 1.373 . S
C28 C26 1.383 . S
C28 H39 0.931 . S
C29 C26 1.382 . S
C29 C27 1.392 . S
C30 Eu1 2.828 . S
C30 O14 1.249 . S
C30 O15 1.244 . S
C30 C24 1.505 . S
C31 O18 1.258 . S
C31 O19 1.242 . S
H32 C4 0.930 . S
H33 C5 0.930 . S
H34 C6 0.930 . S
H35 C7 0.931 . S
H36 C25 0.930 . S
H37 C26 0.930 . S
H38 C27 0.930 . S
H39 C28 0.931 . S
Eu40 C49 2.828 . S
Eu40 O51 2.392 1_565 S
Eu40 O53 2.418 . S
Eu40 O58 2.373 . S
Eu40 O61 2.488 . S
Eu40 O62 2.471 . S
Eu40 O63 2.349 1_565 S
Eu41 O50 2.373 . S
Eu41 O54 2.488 . S
Eu41 O55 2.471 . S
Eu41 O56 2.349 . S
Eu41 O59 2.392 1_545 S
Eu41 O60 2.418 . S
Eu41 C70 2.828 . S
C42 O60 1.244 . S
C42 O63 1.265 . S
C43 C44 1.379 . S
C43 C47 1.373 . S
C43 C49 1.505 . S
C44 C43 1.379 . S
C44 C46 1.369 . S
C44 H72 0.930 . S
C45 C47 1.383 . S
C45 C48 1.382 . S
C45 H73 0.930 . S
C46 C44 1.369 . S
C46 C48 1.392 . S
C46 H74 0.930 . S
C47 C43 1.373 . S
C47 C45 1.383 . S
C47 H75 0.931 . S
C48 C45 1.382 . S
C48 C46 1.392 . S
C49 Eu40 2.828 . S
C49 C43 1.505 . S
C49 O61 1.249 . S
C49 O62 1.244 . S
O50 Eu41 2.373 . S
O50 C52 1.258 . S
O51 Eu40 2.392 1_545 S
O51 C52 1.242 . S
C52 O50 1.258 . S
C52 O51 1.242 . S
O53 Eu40 2.418 . S
O53 C57 1.244 1_565 S
O54 Eu41 2.488 . S
O54 C70 1.249 . S
O55 Eu41 2.471 . S
O55 C70 1.244 . S
O56 Eu41 2.349 . S
O56 C57 1.265 . S
C57 O53 1.244 1_545 S
C57 O56 1.265 . S
O58 Eu40 2.373 . S
O58 C71 1.258 . S
O59 Eu41 2.392 1_565 S
O59 C71 1.242 . S
O60 Eu41 2.418 . S
O60 C42 1.244 . S
O61 Eu40 2.488 . S
O61 C49 1.249 . S
O62 Eu40 2.471 . S
O62 C49 1.244 . S
O63 Eu40 2.349 1_545 S
O63 C42 1.265 . S
C64 C65 1.379 . S
C64 C68 1.373 . S
C64 C70 1.505 . S
C65 C64 1.379 . S
C65 C67 1.369 . S
C65 H76 0.930 . S
C66 C68 1.383 . S
C66 C69 1.382 . S
C66 H77 0.930 . S
C67 C65 1.369 . S
C67 C69 1.392 . S
C67 H78 0.930 . S
C68 C64 1.373 . S
C68 C66 1.383 . S
C68 H79 0.931 . S
C69 C66 1.382 . S
C69 C67 1.392 . S
C70 Eu41 2.828 . S
C70 O54 1.249 . S
C70 O55 1.244 . S
C70 C64 1.505 . S
C71 O58 1.258 . S
C71 O59 1.242 . S
H72 C44 0.930 . S
H73 C45 0.930 . S
H74 C46 0.930 . S
H75 C47 0.931 . S
H76 C65 0.930 . S
H77 C66 0.930 . S
H78 C67 0.930 . S
H79 C68 0.931 . S
Eu80 C89 2.828 . S
Eu80 O91 2.392 . S
Eu80 O93 2.418 . S
Eu80 O98 2.373 . S
Eu80 O101 2.488 . S
Eu80 O102 2.471 . S
Eu80 O103 2.349 . S
Eu81 O90 2.373 . S
Eu81 O94 2.488 . S
Eu81 O95 2.471 . S
Eu81 O96 2.349 . S
Eu81 O99 2.392 . S
Eu81 O100 2.418 . S
Eu81 C110 2.828 . S
C82 O100 1.244 . S
C82 O103 1.265 . S
C83 C84 1.379 . S
C83 C87 1.373 . S
C83 C89 1.505 . S
C84 C83 1.379 . S
C84 C86 1.369 . S
C84 H112 0.930 . S
C85 C87 1.383 . S
C85 C88 1.382 . S
C85 H113 0.930 . S
C86 C84 1.369 . S
C86 C88 1.392 . S
C86 H114 0.930 . S
C87 C83 1.373 . S
C87 C85 1.383 . S
C87 H115 0.931 . S
C88 C85 1.382 . S
C88 C86 1.392 . S
C89 Eu80 2.828 . S
C89 C83 1.505 . S
C89 O101 1.249 . S
C89 O102 1.244 . S
O90 Eu81 2.373 . S
O90 C92 1.258 . S
O91 Eu80 2.392 . S
O91 C92 1.242 . S
C92 O90 1.258 . S
C92 O91 1.242 . S
O93 Eu80 2.418 . S
O93 C97 1.244 . S
O94 Eu81 2.488 . S
O94 C110 1.249 . S
O95 Eu81 2.471 . S
O95 C110 1.244 . S
O96 Eu81 2.349 . S
O96 C97 1.265 . S
C97 O93 1.244 . S
C97 O96 1.265 . S
O98 Eu80 2.373 . S
O98 C111 1.258 . S
O99 Eu81 2.392 . S
O99 C111 1.242 . S
O100 Eu81 2.418 . S
O100 C82 1.244 . S
O101 Eu80 2.488 . S
O101 C89 1.249 . S
O102 Eu80 2.471 . S
O102 C89 1.244 . S
O103 Eu80 2.349 . S
O103 C82 1.265 . S
C104 C105 1.379 . S
C104 C108 1.373 . S
C104 C110 1.505 . S
C105 C104 1.379 . S
C105 C107 1.369 . S
C105 H116 0.930 . S
C106 C108 1.383 . S
C106 C109 1.382 . S
C106 H117 0.930 . S
C107 C105 1.369 . S
C107 C109 1.392 . S
C107 H118 0.930 . S
C108 C104 1.373 . S
C108 C106 1.383 . S
C108 H119 0.931 . S
C109 C106 1.382 . S
C109 C107 1.392 . S
C110 Eu81 2.828 . S
C110 O94 1.249 . S
C110 O95 1.244 . S
C110 C104 1.505 . S
C111 O98 1.258 . S
C111 O99 1.242 . S
H112 C84 0.930 . S
H113 C85 0.930 . S
H114 C86 0.930 . S
H115 C87 0.931 . S
H116 C105 0.930 . S
H117 C106 0.930 . S
H118 C107 0.930 . S
H119 C108 0.931 . S
C120 C121 1.386 . S
C120 C122 1.397 . S
C120 H144 0.931 . S
C121 C120 1.386 . S
C121 C125 1.397 1_545 S
C122 C120 1.397 . S
C122 C123 1.384 . S
C122 H145 0.930 . S
C123 C122 1.384 . S
C123 C124 1.377 1_545 S
C123 C126 1.481 . S
C124 C123 1.377 1_565 S
C124 C125 1.389 . S
C124 H146 0.929 . S
C125 C121 1.397 1_565 S
C125 C124 1.389 . S
C125 H147 0.931 . S
C126 C123 1.481 . S
C126 C127 1.387 . S
C126 C131 1.390 . S
C127 C126 1.387 . S
C127 C128 1.401 . S
C127 H148 0.930 . S
C128 C127 1.401 . S
C128 C129 1.376 . S
C128 C137 1.511 . S
C129 C128 1.376 . S
C129 C130 1.392 1_545 S
C129 H150 0.931 . S
C130 C129 1.392 1_565 S
C130 C131 1.361 1_565 S
C130 C132 1.500 . S
C131 C126 1.390 . S
C131 C130 1.361 1_545 S
C131 H149 0.931 1_545 S
C132 C130 1.500 . S
C132 C133 1.371 . S
C132 C134 1.365 . S
C133 C132 1.371 . S
C133 C143 1.386 . S
C133 H151 0.931 . S
C134 C132 1.365 . S
C134 C135 1.409 . S
C134 H152 0.929 . S
C135 C134 1.409 . S
C135 C136 1.380 . S
C135 H153 0.930 . S
C136 C135 1.380 . S
C136 C143 1.357 . S
C137 C128 1.511 . S
C137 C138 1.341 . S
C137 C139 1.371 . S
C138 C137 1.341 . S
C138 C142 1.394 . S
C138 H154 0.930 . S
C139 C137 1.371 . S
C139 C140 1.392 . S
C139 H155 0.931 . S
C140 C139 1.392 . S
C140 C141 1.331 . S
C140 H158 0.932 . S
C141 C140 1.331 . S
C141 C142 1.336 . S
C142 C138 1.394 . S
C142 C141 1.336 . S
C142 H157 0.929 . S
C143 C133 1.386 . S
C143 C136 1.357 . S
C143 H156 0.928 . S
H144 C120 0.931 . S
H145 C122 0.930 . S
H146 C124 0.929 . S
H147 C125 0.931 . S
H148 C127 0.930 . S
H149 C131 0.931 1_565 S
H150 C129 0.931 . S
H151 C133 0.931 . S
H152 C134 0.929 . S
H153 C135 0.930 . S
H154 C138 0.930 . S
H155 C139 0.931 . S
H156 C143 0.928 . S
H157 C142 0.929 . S
H158 C140 0.932 . S
C159 C160 1.386 . S
C159 C161 1.397 . S
C159 H183 0.931 . S
C160 C159 1.386 . S
C160 C164 1.397 . S
C161 C159 1.397 . S
C161 C162 1.384 . S
C161 H184 0.930 . S
C162 C161 1.384 . S
C162 C163 1.377 . S
C162 C165 1.481 . S
C163 C162 1.377 . S
C163 C164 1.389 . S
C163 H185 0.929 . S
C164 C160 1.397 . S
C164 C163 1.389 . S
C164 H186 0.931 . S
C165 C162 1.481 . S
C165 C166 1.387 . S
C165 C170 1.390 . S
C166 C165 1.387 . S
C166 C167 1.401 . S
C166 H187 0.930 . S
C167 C166 1.401 . S
C167 C168 1.376 . S
C167 C176 1.511 . S
C168 C167 1.376 . S
C168 C169 1.392 . S
C168 H189 0.931 . S
C169 C168 1.392 . S
C169 C170 1.361 . S
C169 C171 1.500 . S
C170 C165 1.390 . S
C170 C169 1.361 . S
C170 H188 0.931 . S
C171 C169 1.500 . S
C171 C172 1.371 . S
C171 C173 1.365 . S
C172 C171 1.371 . S
C172 C182 1.386 . S
C172 H190 0.931 . S
C173 C171 1.365 . S
C173 C174 1.409 . S
C173 H191 0.929 . S
C174 C173 1.409 . S
C174 C175 1.380 . S
C174 H192 0.930 . S
C175 C174 1.380 . S
C175 C182 1.357 . S
C176 C167 1.511 . S
C176 C177 1.341 . S
C176 C178 1.371 . S
C177 C176 1.341 . S
C177 C181 1.394 . S
C177 H193 0.930 . S
C178 C176 1.371 . S
C178 C179 1.392 . S
C178 H194 0.931 . S
C179 C178 1.392 . S
C179 C180 1.331 . S
C179 H197 0.932 . S
C180 C179 1.331 . S
C180 C181 1.336 . S
C181 C177 1.394 . S
C181 C180 1.336 . S
C181 H196 0.929 . S
C182 C172 1.386 . S
C182 C175 1.357 . S
C182 H195 0.928 . S
H183 C159 0.931 . S
H184 C161 0.930 . S
H185 C163 0.929 . S
H186 C164 0.931 . S
H187 C166 0.930 . S
H188 C170 0.931 . S
H189 C168 0.931 . S
H190 C172 0.931 . S
H191 C173 0.929 . S
H192 C174 0.930 . S
H193 C177 0.930 . S
H194 C178 0.931 . S
H195 C182 0.928 . S
H196 C181 0.929 . S
H197 C179 0.932 . S
C198 C199 1.386 . S
C198 C200 1.397 . S
C198 H222 0.931 . S
C199 C198 1.386 . S
C199 C203 1.397 . S
C200 C198 1.397 . S
C200 C201 1.384 . S
C200 H223 0.930 . S
C201 C200 1.384 . S
C201 C202 1.377 . S
C201 C204 1.481 . S
C202 C201 1.377 . S
C202 C203 1.389 . S
C202 H224 0.929 1_455 S
C203 C199 1.397 . S
C203 C202 1.389 . S
C203 H225 0.931 1_455 S
C204 C201 1.481 . S
C204 C205 1.387 . S
C204 C209 1.390 . S
C205 C204 1.387 . S
C205 C206 1.401 . S
C205 H226 0.930 . S
C206 C205 1.401 . S
C206 C207 1.376 . S
C206 C215 1.511 . S
C207 C206 1.376 . S
C207 C208 1.392 . S
C207 H228 0.931 . S
C208 C207 1.392 . S
C208 C209 1.361 . S
C208 C210 1.500 1_455 S
C209 C204 1.390 . S
C209 C208 1.361 . S
C209 H227 0.931 1_455 S
C210 C208 1.500 1_655 S
C210 C211 1.371 . S
C210 C212 1.365 . S
C211 C210 1.371 . S
C211 C221 1.386 . S
C211 H229 0.931 1_655 S
C212 C210 1.365 . S
C212 C213 1.409 . S
C212 H230 0.929 . S
C213 C212 1.409 . S
C213 C214 1.380 . S
C213 H231 0.930 . S
C214 C213 1.380 . S
C214 C221 1.357 . S
C215 C206 1.511 . S
C215 C216 1.341 . S
C215 C217 1.371 . S
C216 C215 1.341 . S
C216 C220 1.394 . S
C216 H232 0.930 . S
C217 C215 1.371 . S
C217 C218 1.392 . S
C217 H233 0.931 . S
C218 C217 1.392 . S
C218 C219 1.331 . S
C218 H236 0.932 . S
C219 C218 1.331 . S
C219 C220 1.336 . S
C220 C216 1.394 . S
C220 C219 1.336 . S
C220 H235 0.929 . S
C221 C211 1.386 . S
C221 C214 1.357 . S
C221 H234 0.928 . S
H222 C198 0.931 . S
H223 C200 0.930 . S
H224 C202 0.929 1_655 S
H225 C203 0.931 1_655 S
H226 C205 0.930 . S
H227 C209 0.931 1_655 S
H228 C207 0.931 . S
H229 C211 0.931 1_455 S
H230 C212 0.929 . S
H231 C213 0.930 . S
H232 C216 0.930 . S
H233 C217 0.931 . S
H234 C221 0.928 . S
H235 C220 0.929 . S
H236 C218 0.932 . S
C237 C238 1.386 1_655 S
C237 C239 1.397 . S
C237 H261 0.931 . S
C238 C237 1.386 1_455 S
C238 C242 1.397 . S
C239 C237 1.397 . S
C239 C240 1.384 1_655 S
C239 H262 0.930 . S
C240 C239 1.384 1_455 S
C240 C241 1.377 . S
C240 C243 1.481 . S
C241 C240 1.377 . S
C241 C242 1.389 . S
C241 H263 0.929 . S
C242 C238 1.397 . S
C242 C241 1.389 . S
C242 H264 0.931 . S
C243 C240 1.481 . S
C243 C244 1.387 1_455 S
C243 C248 1.390 . S
C244 C243 1.387 1_655 S
C244 C245 1.401 . S
C244 H265 0.930 . S
C245 C244 1.401 . S
C245 C246 1.376 1_655 S
C245 C254 1.511 . S
C246 C245 1.376 1_455 S
C246 C247 1.392 . S
C246 H267 0.931 . S
C247 C246 1.392 . S
C247 C248 1.361 . S
C247 C249 1.500 . S
C248 C243 1.390 . S
C248 C247 1.361 . S
C248 H266 0.931 . S
C249 C247 1.500 . S
C249 C250 1.371 . S
C249 C251 1.365 . S
C250 C249 1.371 . S
C250 C260 1.386 . S
C250 H268 0.931 . S
C251 C249 1.365 . S
C251 C252 1.409 . S
C251 H269 0.929 . S
C252 C251 1.409 . S
C252 C253 1.380 . S
C252 H270 0.930 . S
C253 C252 1.380 . S
C253 C260 1.357 . S
C254 C245 1.511 . S
C254 C255 1.341 . S
C254 C256 1.371 . S
C255 C254 1.341 . S
C255 C259 1.394 . S
C255 H271 0.930 . S
C256 C254 1.371 . S
C256 C257 1.392 . S
C256 H272 0.931 . S
C257 C256 1.392 . S
C257 C258 1.331 . S
C257 H275 0.932 . S
C258 C257 1.331 . S
C258 C259 1.336 . S
C259 C255 1.394 . S
C259 C258 1.336 . S
C259 H274 0.929 . S
C260 C250 1.386 . S
C260 C253 1.357 . S
C260 H273 0.928 . S
H261 C237 0.931 . S
H262 C239 0.930 . S
H263 C241 0.929 . S
H264 C242 0.931 . S
H265 C244 0.930 . S
H266 C248 0.931 . S
H267 C246 0.931 . S
H268 C250 0.931 . S
H269 C251 0.929 . S
H270 C252 0.930 . S
H271 C255 0.930 . S
H272 C256 0.931 . S
H273 C260 0.928 . S
H274 C259 0.929 . S
H275 C257 0.932 . S
C276 C277 1.386 1_565 S
C276 C278 1.397 . S
C276 H300 0.931 . S
C277 C276 1.386 1_545 S
C277 C281 1.397 . S
C278 C276 1.397 . S
C278 C279 1.384 1_565 S
C278 H301 0.930 . S
C279 C278 1.384 1_545 S
C279 C280 1.377 . S
C279 C282 1.481 . S
C280 C279 1.377 . S
C280 C281 1.389 . S
C280 H302 0.929 . S
C281 C277 1.397 . S
C281 C280 1.389 . S
C281 H303 0.931 . S
C282 C279 1.481 . S
C282 C283 1.387 1_545 S
C282 C287 1.390 . S
C283 C282 1.387 1_565 S
C283 C284 1.401 . S
C283 H304 0.930 . S
C284 C283 1.401 . S
C284 C285 1.376 1_565 S
C284 C293 1.511 . S
C285 C284 1.376 1_545 S
C285 C286 1.392 . S
C285 H306 0.931 . S
C286 C285 1.392 . S
C286 C287 1.361 . S
C286 C288 1.500 . S
C287 C282 1.390 . S
C287 C286 1.361 . S
C287 H305 0.931 . S
C288 C286 1.500 . S
C288 C289 1.371 . S
C288 C290 1.365 . S
C289 C288 1.371 . S
C289 C299 1.386 . S
C289 H307 0.931 . S
C290 C288 1.365 . S
C290 C291 1.409 . S
C290 H308 0.929 . S
C291 C290 1.409 . S
C291 C292 1.380 . S
C291 H309 0.930 . S
C292 C291 1.380 . S
C292 C299 1.357 . S
C293 C284 1.511 . S
C293 C294 1.341 . S
C293 C295 1.371 . S
C294 C293 1.341 . S
C294 C298 1.394 . S
C294 H310 0.930 . S
C295 C293 1.371 . S
C295 C296 1.392 . S
C295 H311 0.931 . S
C296 C295 1.392 . S
C296 C297 1.331 . S
C296 H314 0.932 . S
C297 C296 1.331 . S
C297 C298 1.336 . S
C298 C294 1.394 . S
C298 C297 1.336 . S
C298 H313 0.929 . S
C299 C289 1.386 . S
C299 C292 1.357 . S
C299 H312 0.928 . S
H300 C276 0.931 . S
H301 C278 0.930 . S
H302 C280 0.929 . S
H303 C281 0.931 . S
H304 C283 0.930 . S
H305 C287 0.931 . S
H306 C285 0.931 . S
H307 C289 0.931 . S
H308 C290 0.929 . S
H309 C291 0.930 . S
H310 C294 0.930 . S
H311 C295 0.931 . S
H312 C299 0.928 . S
H313 C298 0.929 . S
H314 C296 0.932 . S
C315 C316 1.386 . S
C315 C317 1.397 . S
C315 H339 0.931 . S
C316 C315 1.386 . S
C316 C320 1.397 . S
C317 C315 1.397 . S
C317 C318 1.384 . S
C317 H340 0.930 . S
C318 C317 1.384 . S
C318 C319 1.377 . S
C318 C321 1.481 . S
C319 C318 1.377 . S
C319 C320 1.389 . S
C319 H341 0.929 . S
C320 C316 1.397 . S
C320 C319 1.389 . S
C320 H342 0.931 . S
C321 C318 1.481 . S
C321 C322 1.387 . S
C321 C326 1.390 . S
C322 C321 1.387 . S
C322 C323 1.401 . S
C322 H343 0.930 . S
C323 C322 1.401 . S
C323 C324 1.376 . S
C323 C332 1.511 . S
C324 C323 1.376 . S
C324 C325 1.392 . S
C324 H345 0.931 . S
C325 C324 1.392 . S
C325 C326 1.361 . S
C325 C327 1.500 . S
C326 C321 1.390 . S
C326 C325 1.361 . S
C326 H344 0.931 . S
C327 C325 1.500 . S
C327 C328 1.371 . S
C327 C329 1.365 . S
C328 C327 1.371 . S
C328 C338 1.386 . S
C328 H346 0.931 . S
C329 C327 1.365 . S
C329 C330 1.409 . S
C329 H347 0.929 . S
C330 C329 1.409 . S
C330 C331 1.380 . S
C330 H348 0.930 . S
C331 C330 1.380 . S
C331 C338 1.357 . S
C332 C323 1.511 . S
C332 C333 1.341 . S
C332 C334 1.371 . S
C333 C332 1.341 . S
C333 C337 1.394 . S
C333 H349 0.930 . S
C334 C332 1.371 . S
C334 C335 1.392 . S
C334 H350 0.931 . S
C335 C334 1.392 . S
C335 C336 1.331 . S
C335 H353 0.932 . S
C336 C335 1.331 . S
C336 C337 1.336 . S
C337 C333 1.394 . S
C337 C336 1.336 . S
C337 H352 0.929 . S
C338 C328 1.386 . S
C338 C331 1.357 . S
C338 H351 0.928 . S
H339 C315 0.931 . S
H340 C317 0.930 . S
H341 C319 0.929 . S
H342 C320 0.931 . S
H343 C322 0.930 . S
H344 C326 0.931 . S
H345 C324 0.931 . S
H346 C328 0.931 . S
H347 C329 0.929 . S
H348 C330 0.930 . S
H349 C333 0.930 . S
H350 C334 0.931 . S
H351 C338 0.928 . S
H352 C337 0.929 . S
H353 C335 0.932 . S
H354 C360 0.930 . S
H355 C364 0.930 . S
H356 C369 0.929 . S
H357 C367 0.929 . S
H358 C362 0.929 . S
H359 C368 0.929 . S
C360 H354 0.930 . S
C360 C361 1.367 . S
C360 C368 1.378 . S
C361 C360 1.367 . S
C361 C369 1.433 . S
C362 H358 0.929 . S
C362 C364 1.378 . S
C362 C366 1.350 . S
C363 C366 1.463 . S
C363 C368 1.350 . S
C363 N371 1.427 . S
C364 H355 0.930 . S
C364 C362 1.378 . S
C364 C365 1.367 . S
C365 C364 1.367 . S
C365 C367 1.433 . S
C366 C362 1.350 . S
C366 C363 1.463 . S
C366 N370 1.427 . S
C367 H357 0.929 . S
C367 C365 1.433 . S
C367 N370 1.384 . S
C368 H359 0.929 . S
C368 C360 1.378 . S
C368 C363 1.350 . S
C369 H356 0.929 . S
C369 C361 1.433 . S
C369 N371 1.384 . S
N370 C366 1.427 . S
N370 C367 1.384 . S
N371 C363 1.427 . S
N371 C369 1.384 . S
H372 C378 0.930 . S
H373 C382 0.930 . S
H374 C387 0.929 . S
H375 C385 0.929 . S
H376 C380 0.929 . S
H377 C386 0.929 . S
C378 H372 0.930 . S
C378 C379 1.367 . S
C378 C386 1.378 . S
C379 C378 1.367 . S
C379 C387 1.433 . S
C380 H376 0.929 . S
C380 C382 1.378 . S
C380 C384 1.350 . S
C381 C384 1.463 . S
C381 C386 1.350 . S
C381 N389 1.427 . S
C382 H373 0.930 . S
C382 C380 1.378 . S
C382 C383 1.367 . S
C383 C382 1.367 . S
C383 C385 1.433 . S
C384 C380 1.350 . S
C384 C381 1.463 . S
C384 N388 1.427 . S
C385 H375 0.929 . S
C385 C383 1.433 . S
C385 N388 1.384 . S
C386 H377 0.929 . S
C386 C378 1.378 . S
C386 C381 1.350 . S
C387 H374 0.929 . S
C387 C379 1.433 . S
C387 N389 1.384 . S
N388 C384 1.427 . S
N388 C385 1.384 . S
N389 C381 1.427 . S
N389 C387 1.384 . S
H390 C396 0.930 . S
H391 C400 0.930 . S
H392 C405 0.929 . S
H393 C403 0.929 . S
H394 C398 0.929 . S
H395 C404 0.929 . S
C396 H390 0.930 . S
C396 C397 1.367 . S
C396 C404 1.378 . S
C397 C396 1.367 . S
C397 C405 1.433 . S
C398 H394 0.929 . S
C398 C400 1.378 . S
C398 C402 1.350 . S
C399 C402 1.463 . S
C399 C404 1.350 . S
C399 N407 1.427 . S
C400 H391 0.930 . S
C400 C398 1.378 . S
C400 C401 1.367 . S
C401 C400 1.367 . S
C401 C403 1.433 . S
C402 C398 1.350 . S
C402 C399 1.463 . S
C402 N406 1.427 . S
C403 H393 0.929 . S
C403 C401 1.433 . S
C403 N406 1.384 . S
C404 H395 0.929 . S
C404 C396 1.378 . S
C404 C399 1.350 . S
C405 H392 0.929 . S
C405 C397 1.433 . S
C405 N407 1.384 . S
N406 C402 1.427 . S
N406 C403 1.384 . S
N407 C399 1.427 . S
N407 C405 1.384 . S
H408 C414 0.930 . S
H409 C418 0.930 . S
H410 C423 0.929 . S
H411 C421 0.929 . S
H412 C416 0.929 . S
H413 C422 0.929 . S
C414 H408 0.930 . S
C414 C415 1.367 . S
C414 C422 1.378 . S
C415 C414 1.367 . S
C415 C423 1.433 . S
C416 H412 0.929 . S
C416 C418 1.378 . S
C416 C420 1.350 . S
C417 C420 1.463 . S
C417 C422 1.350 . S
C417 N425 1.427 . S
C418 H409 0.930 . S
C418 C416 1.378 . S
C418 C419 1.367 . S
C419 C418 1.367 . S
C419 C421 1.433 . S
C420 C416 1.350 . S
C420 C417 1.463 . S
C420 N424 1.427 . S
C421 H411 0.929 . S
C421 C419 1.433 . S
C421 N424 1.384 . S
C422 H413 0.929 . S
C422 C414 1.378 . S
C422 C417 1.350 . S
C423 H410 0.929 . S
C423 C415 1.433 . S
C423 N425 1.384 . S
N424 C420 1.427 . S
N424 C421 1.384 . S
N425 C417 1.427 . S
N425 C423 1.384 . S
H426 C432 0.930 . S
H427 C436 0.930 . S
H428 C441 0.929 . S
H429 C439 0.929 . S
H430 C434 0.929 . S
H431 C440 0.929 . S
C432 H426 0.930 . S
C432 C433 1.367 . S
C432 C440 1.378 . S
C433 C432 1.367 . S
C433 C441 1.433 . S
C434 H430 0.929 . S
C434 C436 1.378 . S
C434 C438 1.350 . S
C435 C438 1.463 . S
C435 C440 1.350 . S
C435 N443 1.427 . S
C436 H427 0.930 . S
C436 C434 1.378 . S
C436 C437 1.367 . S
C437 C436 1.367 . S
C437 C439 1.433 . S
C438 C434 1.350 . S
C438 C435 1.463 . S
C438 N442 1.427 . S
C439 H429 0.929 . S
C439 C437 1.433 . S
C439 N442 1.384 . S
C440 H431 0.929 . S
C440 C432 1.378 . S
C440 C435 1.350 . S
C441 H428 0.929 . S
C441 C433 1.433 . S
C441 N443 1.384 . S
N442 C438 1.427 . S
N442 C439 1.384 . S
N443 C435 1.427 . S
N443 C441 1.384 . S
H444 C450 0.930 . S
H445 C454 0.930 . S
H446 C459 0.929 . S
H447 C457 0.929 . S
H448 C452 0.929 . S
H449 C458 0.929 . S
C450 H444 0.930 . S
C450 C451 1.367 . S
C450 C458 1.378 . S
C451 C450 1.367 . S
C451 C459 1.433 . S
C452 H448 0.929 . S
C452 C454 1.378 . S
C452 C456 1.350 . S
C453 C456 1.463 . S
C453 C458 1.350 . S
C453 N461 1.427 . S
C454 H445 0.930 . S
C454 C452 1.378 . S
C454 C455 1.367 . S
C455 C454 1.367 . S
C455 C457 1.433 . S
C456 C452 1.350 . S
C456 C453 1.463 . S
C456 N460 1.427 . S
C457 H447 0.929 . S
C457 C455 1.433 . S
C457 N460 1.384 . S
C458 H449 0.929 . S
C458 C450 1.378 . S
C458 C453 1.350 . S
C459 H446 0.929 . S
C459 C451 1.433 . S
C459 N461 1.384 . S
N460 C456 1.427 . S
N460 C457 1.384 . S
N461 C453 1.427 . S
N461 C459 1.384 . S
H462 C468 0.930 . S
H463 C472 0.930 . S
H464 C477 0.929 . S
H465 C475 0.929 . S
H466 C470 0.929 . S
H467 C476 0.929 . S
C468 H462 0.930 . S
C468 C469 1.367 . S
C468 C476 1.378 . S
C469 C468 1.367 . S
C469 C477 1.433 . S
C470 H466 0.929 . S
C470 C472 1.378 . S
C470 C474 1.350 . S
C471 C474 1.463 . S
C471 C476 1.350 . S
C471 N479 1.427 . S
C472 H463 0.930 . S
C472 C470 1.378 . S
C472 C473 1.367 . S
C473 C472 1.367 . S
C473 C475 1.433 . S
C474 C470 1.350 . S
C474 C471 1.463 . S
C474 N478 1.427 . S
C475 H465 0.929 . S
C475 C473 1.433 . S
C475 N478 1.384 . S
C476 H467 0.929 . S
C476 C468 1.378 . S
C476 C471 1.350 . S
C477 H464 0.929 . S
C477 C469 1.433 . S
C477 N479 1.384 . S
N478 C474 1.427 . S
N478 C475 1.384 . S
N479 C471 1.427 . S
N479 C477 1.384 . S
H480 C486 0.930 . S
H481 C490 0.930 . S
H482 C495 0.929 . S
H483 C493 0.929 . S
H484 C488 0.929 . S
H485 C494 0.929 . S
C486 H480 0.930 . S
C486 C487 1.367 . S
C486 C494 1.378 . S
C487 C486 1.367 . S
C487 C495 1.433 . S
C488 H484 0.929 . S
C488 C490 1.378 . S
C488 C492 1.350 . S
C489 C492 1.463 . S
C489 C494 1.350 . S
C489 N497 1.427 . S
C490 H481 0.930 . S
C490 C488 1.378 . S
C490 C491 1.367 . S
C491 C490 1.367 . S
C491 C493 1.433 . S
C492 C488 1.350 . S
C492 C489 1.463 . S
C492 N496 1.427 . S
C493 H483 0.929 . S
C493 C491 1.433 . S
C493 N496 1.384 . S
C494 H485 0.929 . S
C494 C486 1.378 . S
C494 C489 1.350 . S
C495 H482 0.929 . S
C495 C487 1.433 . S
C495 N497 1.384 . S
N496 C492 1.427 . S
N496 C493 1.384 . S
N497 C489 1.427 . S
N497 C495 1.384 . S
H498 C504 0.930 . S
H499 C508 0.930 . S
H500 C513 0.929 . S
H501 C511 0.929 . S
H502 C506 0.929 . S
H503 C512 0.929 . S
C504 H498 0.930 . S
C504 C505 1.367 . S
C504 C512 1.378 . S
C505 C504 1.367 . S
C505 C513 1.433 . S
C506 H502 0.929 . S
C506 C508 1.378 . S
C506 C510 1.350 . S
C507 C510 1.463 . S
C507 C512 1.350 . S
C507 N515 1.427 . S
C508 H499 0.930 . S
C508 C506 1.378 . S
C508 C509 1.367 . S
C509 C508 1.367 . S
C509 C511 1.433 . S
C510 C506 1.350 . S
C510 C507 1.463 . S
C510 N514 1.427 . S
C511 H501 0.929 . S
C511 C509 1.433 . S
C511 N514 1.384 . S
C512 H503 0.929 . S
C512 C504 1.378 . S
C512 C507 1.350 . S
C513 H500 0.929 . S
C513 C505 1.433 . S
C513 N515 1.384 . S
N514 C510 1.427 . S
N514 C511 1.384 . S
N515 C507 1.427 . S
N515 C513 1.384 . S
H516 C522 0.930 . S
H517 C526 0.930 . S
H518 C531 0.929 . S
H519 C529 0.929 . S
H520 C524 0.929 . S
H521 C530 0.929 . S
C522 H516 0.930 . S
C522 C523 1.367 . S
C522 C530 1.378 . S
C523 C522 1.367 . S
C523 C531 1.433 . S
C524 H520 0.929 . S
C524 C526 1.378 . S
C524 C528 1.350 . S
C525 C528 1.463 . S
C525 C530 1.350 . S
C525 N533 1.427 . S
C526 H517 0.930 . S
C526 C524 1.378 . S
C526 C527 1.367 . S
C527 C526 1.367 . S
C527 C529 1.433 . S
C528 C524 1.350 . S
C528 C525 1.463 . S
C528 N532 1.427 . S
C529 H519 0.929 . S
C529 C527 1.433 . S
C529 N532 1.384 . S
C530 H521 0.929 . S
C530 C522 1.378 . S
C530 C525 1.350 . S
C531 H518 0.929 . S
C531 C523 1.433 . S
C531 N533 1.384 . S
N532 C528 1.427 . S
N532 C529 1.384 . S
N533 C525 1.427 . S
N533 C531 1.384 . S
H534 C540 0.930 . S
H535 C544 0.930 . S
H536 C549 0.929 . S
H537 C547 0.929 . S
H538 C542 0.929 . S
H539 C548 0.929 . S
C540 H534 0.930 . S
C540 C541 1.367 . S
C540 C548 1.378 . S
C541 C540 1.367 . S
C541 C549 1.433 . S
C542 H538 0.929 . S
C542 C544 1.378 . S
C542 C546 1.350 . S
C543 C546 1.463 . S
C543 C548 1.350 . S
C543 N551 1.427 . S
C544 H535 0.930 . S
C544 C542 1.378 . S
C544 C545 1.367 . S
C545 C544 1.367 . S
C545 C547 1.433 . S
C546 C542 1.350 . S
C546 C543 1.463 . S
C546 N550 1.427 . S
C547 H537 0.929 . S
C547 C545 1.433 . S
C547 N550 1.384 . S
C548 H539 0.929 . S
C548 C540 1.378 . S
C548 C543 1.350 . S
C549 H536 0.929 . S
C549 C541 1.433 . S
C549 N551 1.384 . S
N550 C546 1.427 . S
N550 C547 1.384 . S
N551 C543 1.427 . S
N551 C549 1.384 . S
H552 C558 0.930 . S
H553 C562 0.930 . S
H554 C567 0.929 . S
H555 C565 0.929 . S
H556 C560 0.929 . S
H557 C566 0.929 . S
C558 H552 0.930 . S
C558 C559 1.367 . S
C558 C566 1.378 . S
C559 C558 1.367 . S
C559 C567 1.433 . S
C560 H556 0.929 . S
C560 C562 1.378 . S
C560 C564 1.350 . S
C561 C564 1.463 . S
C561 C566 1.350 . S
C561 N569 1.427 . S
C562 H553 0.930 . S
C562 C560 1.378 . S
C562 C563 1.367 . S
C563 C562 1.367 . S
C563 C565 1.433 . S
C564 C560 1.350 . S
C564 C561 1.463 . S
C564 N568 1.427 . S
C565 H555 0.929 . S
C565 C563 1.433 . S
C565 N568 1.384 . S
C566 H557 0.929 . S
C566 C558 1.378 . S
C566 C561 1.350 . S
C567 H554 0.929 . S
C567 C559 1.433 . S
C567 N569 1.384 . S
N568 C564 1.427 . S
N568 C565 1.384 . S
N569 C561 1.427 . S
N569 C567 1.384 . S
H570 C576 0.930 . S
H571 C580 0.930 . S
H572 C585 0.929 . S
H573 C583 0.929 . S
H574 C578 0.929 . S
H575 C584 0.929 . S
C576 H570 0.930 . S
C576 C577 1.367 1_655 S
C576 C584 1.378 . S
C577 C576 1.367 1_455 S
C577 C585 1.433 . S
C578 H574 0.929 . S
C578 C580 1.378 . S
C578 C582 1.350 . S
C579 C582 1.463 . S
C579 C584 1.350 1_455 S
C579 N587 1.427 . S
C580 H571 0.930 . S
C580 C578 1.378 . S
C580 C581 1.367 . S
C581 C580 1.367 . S
C581 C583 1.433 1_455 S
C582 C578 1.350 . S
C582 C579 1.463 . S
C582 N586 1.427 1_455 S
C583 H573 0.929 . S
C583 C581 1.433 1_655 S
C583 N586 1.384 . S
C584 H575 0.929 . S
C584 C576 1.378 . S
C584 C579 1.350 1_655 S
C585 H572 0.929 . S
C585 C577 1.433 . S
C585 N587 1.384 . S
N586 C582 1.427 1_655 S
N586 C583 1.384 . S
N587 C579 1.427 . S
N587 C585 1.384 . S
H588 C594 0.930 . S
H589 C598 0.930 . S
H590 C603 0.929 . S
H591 C601 0.929 . S
H592 C596 0.929 . S
H593 C602 0.929 . S
C594 H588 0.930 . S
C594 C595 1.367 . S
C594 C602 1.378 . S
C595 C594 1.367 . S
C595 C603 1.433 1_545 S
C596 H592 0.929 . S
C596 C598 1.378 . S
C596 C600 1.350 1_565 S
C597 C600 1.463 . S
C597 C602 1.350 . S
C597 N605 1.427 1_545 S
C598 H589 0.930 . S
C598 C596 1.378 . S
C598 C599 1.367 1_565 S
C599 C598 1.367 1_545 S
C599 C601 1.433 . S
C600 C596 1.350 1_545 S
C600 C597 1.463 . S
C600 N604 1.427 . S
C601 H591 0.929 . S
C601 C599 1.433 . S
C601 N604 1.384 . S
C602 H593 0.929 . S
C602 C594 1.378 . S
C602 C597 1.350 . S
C603 H590 0.929 . S
C603 C595 1.433 1_565 S
C603 N605 1.384 . S
N604 C600 1.427 . S
N604 C601 1.384 . S
N605 C597 1.427 1_565 S
N605 C603 1.384 . S
H606 C612 0.930 . S
H607 C616 0.930 . S
H608 C621 0.929 . S
H609 C619 0.929 . S
H610 C614 0.929 . S
H611 C620 0.929 . S
C612 H606 0.930 . S
C612 C613 1.367 . S
C612 C620 1.378 . S
C613 C612 1.367 . S
C613 C621 1.433 . S
C614 H610 0.929 . S
C614 C616 1.378 . S
C614 C618 1.350 . S
C615 C618 1.463 . S
C615 C620 1.350 . S
C615 N623 1.427 . S
C616 H607 0.930 . S
C616 C614 1.378 . S
C616 C617 1.367 . S
C617 C616 1.367 . S
C617 C619 1.433 . S
C618 C614 1.350 . S
C618 C615 1.463 . S
C618 N622 1.427 . S
C619 H609 0.929 . S
C619 C617 1.433 . S
C619 N622 1.384 . S
C620 H611 0.929 . S
C620 C612 1.378 . S
C620 C615 1.350 . S
C621 H608 0.929 . S
C621 C613 1.433 . S
C621 N623 1.384 . S
N622 C618 1.427 . S
N622 C619 1.384 . S
N623 C615 1.427 . S
N623 C621 1.384 . S
H624 C630 0.930 . S
H625 C634 0.930 . S
H626 C639 0.929 . S
H627 C637 0.929 . S
H628 C632 0.929 . S
H629 C638 0.929 . S
C630 H624 0.930 . S
C630 C631 1.367 . S
C630 C638 1.378 . S
C631 C630 1.367 . S
C631 C639 1.433 . S
C632 H628 0.929 . S
C632 C634 1.378 . S
C632 C636 1.350 . S
C633 C636 1.463 . S
C633 C638 1.350 . S
C633 N641 1.427 . S
C634 H625 0.930 . S
C634 C632 1.378 . S
C634 C635 1.367 . S
C635 C634 1.367 . S
C635 C637 1.433 . S
C636 C632 1.350 . S
C636 C633 1.463 . S
C636 N640 1.427 . S
C637 H627 0.929 . S
C637 C635 1.433 . S
C637 N640 1.384 . S
C638 H629 0.929 . S
C638 C630 1.378 . S
C638 C633 1.350 . S
C639 H626 0.929 . S
C639 C631 1.433 . S
C639 N641 1.384 . S
N640 C636 1.427 . S
N640 C637 1.384 . S
N641 C633 1.427 . S
N641 C639 1.384 . S
H642 C648 0.930 . S
H643 C652 0.930 . S
H644 C657 0.929 . S
H645 C655 0.929 . S
H646 C650 0.929 . S
H647 C656 0.929 . S
C648 H642 0.930 . S
C648 C649 1.367 . S
C648 C656 1.378 . S
C649 C648 1.367 . S
C649 C657 1.433 . S
C650 H646 0.929 . S
C650 C652 1.378 . S
C650 C654 1.350 . S
C651 C654 1.463 . S
C651 C656 1.350 . S
C651 N659 1.427 . S
C652 H643 0.930 . S
C652 C650 1.378 . S
C652 C653 1.367 . S
C653 C652 1.367 . S
C653 C655 1.433 . S
C654 C650 1.350 . S
C654 C651 1.463 . S
C654 N658 1.427 . S
C655 H645 0.929 . S
C655 C653 1.433 . S
C655 N658 1.384 . S
C656 H647 0.929 . S
C656 C648 1.378 . S
C656 C651 1.350 . S
C657 H644 0.929 . S
C657 C649 1.433 . S
C657 N659 1.384 . S
N658 C654 1.427 . S
N658 C655 1.384 . S
N659 C651 1.427 . S
N659 C657 1.384 . S
H660 C666 0.930 . S
H661 C670 0.930 . S
H662 C675 0.925 . S
H663 C673 0.929 . S
H664 C668 0.929 . S
H665 C674 0.929 . S
C666 H660 0.930 . S
C666 C667 1.367 . S
C666 C674 1.378 . S
C667 C666 1.367 . S
C667 C675 1.433 . S
C668 H664 0.929 . S
C668 C670 1.378 . S
C668 C672 1.350 . S
C669 C672 1.463 . S
C669 C674 1.350 . S
C669 N677 1.427 . S
C670 H661 0.930 . S
C670 C668 1.378 . S
C670 C671 1.367 . S
C671 C670 1.367 . S
C671 C673 1.433 . S
C672 C668 1.350 . S
C672 C669 1.463 . S
C672 N676 1.427 . S
C673 H663 0.929 . S
C673 C671 1.433 . S
C673 N676 1.384 . S
C674 H665 0.929 . S
C674 C666 1.378 . S
C674 C669 1.350 . S
C675 H662 0.925 . S
C675 C667 1.433 . S
C675 N677 1.384 . S
N676 C672 1.427 . S
N676 C673 1.384 . S
N677 C669 1.427 . S
N677 C675 1.384 . S
C361 C12 2.960 . S
C365 C331 2.910 . S
C379 C52 2.952 . S
C383 C258 2.910 . S
C397 C111 3.005 . S
C401 C297 2.953 . S
C415 C31 3.135 . S
C419 C336 3.074 . S
C437 C253 3.076 . S
C433 C71 3.144 . S
C455 C292 3.026 . S
C451 C92 3.085 . S
C469 C48 0.529 . S
C473 C180 0.494 . S
C487 C109 0.546 . S
C491 C214 0.454 . S
C505 C29 0.517 . S
C509 C136 0.417 . S
C527 C175 0.341 . S
C523 C69 0.422 . S
C545 C219 0.287 . S
C541 C88 0.320 . S
C559 C8 0.306 . S
C563 C141 0.302 . S
C581 C199 1.083 1_554 S
C577 C17 1.063 . S
C595 C57 1.062 . S
C599 C121 1.074 . S
C613 C97 1.069 . S
C617 C160 1.090 . S
C635 C277 1.787 . S
C631 C42 1.729 . S
C653 C316 1.786 1_556 S
C649 C82 1.734 . S
C667 C2 1.733 . S
C671 C238 1.788 . S
