# Generated by pormake.
# Topology dag, (6,3)-cn, num edge types: 1
# Building blocks:
#     Node 0, Type 0, BuildingBlock: OJICUG_clean_sbu_0, # of connection points: 6
#     Node 1, Type 0, BuildingBlock: OJICUG_clean_sbu_0, # of connection points: 6
#     Node 2, Type 0, BuildingBlock: OJICUG_clean_sbu_0, # of connection points: 6
#     Node 3, Type 0, BuildingBlock: OJICUG_clean_sbu_0, # of connection points: 6
#     Node 4, Type 1, BuildingBlock: BETDIP_clean_linker_0, # of connection points: 3
#     Node 5, Type 1, BuildingBlock: BETDIP_clean_linker_0, # of connection points: 3
#     Node 6, Type 1, BuildingBlock: BETDIP_clean_linker_0, # of connection points: 3
#     Node 7, Type 1, BuildingBlock: BETDIP_clean_linker_0, # of connection points: 3
#     Node 8, Type 1, BuildingBlock: BETDIP_clean_linker_0, # of connection points: 3
#     Node 9, Type 1, BuildingBlock: BETDIP_clean_linker_0, # of connection points: 3
#     Node 10, Type 1, BuildingBlock: BETDIP_clean_linker_0, # of connection points: 3
#     Node 11, Type 1, BuildingBlock: BETDIP_clean_linker_0, # of connection points: 3
#     Edge 12, Type (0, 1), BuildingBlock: MIFKUJ_clean_linker_0, # of connection points: 2
#     Edge 13, Type (0, 1), BuildingBlock: MIFKUJ_clean_linker_0, # of connection points: 2
#     Edge 14, Type (0, 1), BuildingBlock: MIFKUJ_clean_linker_0, # of connection points: 2
#     Edge 15, Type (0, 1), BuildingBlock: MIFKUJ_clean_linker_0, # of connection points: 2
#     Edge 16, Type (0, 1), BuildingBlock: MIFKUJ_clean_linker_0, # of connection points: 2
#     Edge 17, Type (0, 1), BuildingBlock: MIFKUJ_clean_linker_0, # of connection points: 2
#     Edge 18, Type (0, 1), BuildingBlock: MIFKUJ_clean_linker_0, # of connection points: 2
#     Edge 19, Type (0, 1), BuildingBlock: MIFKUJ_clean_linker_0, # of connection points: 2
#     Edge 20, Type (0, 1), BuildingBlock: MIFKUJ_clean_linker_0, # of connection points: 2
#     Edge 21, Type (0, 1), BuildingBlock: MIFKUJ_clean_linker_0, # of connection points: 2
#     Edge 22, Type (0, 1), BuildingBlock: MIFKUJ_clean_linker_0, # of connection points: 2
#     Edge 23, Type (0, 1), BuildingBlock: MIFKUJ_clean_linker_0, # of connection points: 2
#     Edge 24, Type (0, 1), BuildingBlock: MIFKUJ_clean_linker_0, # of connection points: 2
#     Edge 25, Type (0, 1), BuildingBlock: MIFKUJ_clean_linker_0, # of connection points: 2
#     Edge 26, Type (0, 1), BuildingBlock: MIFKUJ_clean_linker_0, # of connection points: 2
#     Edge 27, Type (0, 1), BuildingBlock: MIFKUJ_clean_linker_0, # of connection points: 2
#     Edge 28, Type (0, 1), BuildingBlock: MIFKUJ_clean_linker_0, # of connection points: 2
#     Edge 29, Type (0, 1), BuildingBlock: MIFKUJ_clean_linker_0, # of connection points: 2
#     Edge 30, Type (0, 1), BuildingBlock: MIFKUJ_clean_linker_0, # of connection points: 2
#     Edge 31, Type (0, 1), BuildingBlock: MIFKUJ_clean_linker_0, # of connection points: 2
#     Edge 32, Type (0, 1), BuildingBlock: MIFKUJ_clean_linker_0, # of connection points: 2
#     Edge 33, Type (0, 1), BuildingBlock: MIFKUJ_clean_linker_0, # of connection points: 2
#     Edge 34, Type (0, 1), BuildingBlock: MIFKUJ_clean_linker_0, # of connection points: 2
#     Edge 35, Type (0, 1), BuildingBlock: MIFKUJ_clean_linker_0, # of connection points: 2
# Relax obj value: 0.094
# Max RMSD: 0.106
# Mean RMSD: 0.087
data_MOF--net-dag--node1-OJICUG_clean_sbu_0--node2-BETDIP_clean_linker_0--edge1-MIFKUJ_clean_linker_0
_symmetry_space_group_name_H-M    P1
_symmetry_Int_Tables_number       1
_symmetry_cell_setting            triclinic
loop_
_symmetry_equiv_pos_as_xyz
'x, y, z'
_cell_length_a     49.589238
_cell_length_b     48.614107
_cell_length_c     50.77667
_cell_angle_alpha  86.076492
_cell_angle_beta   89.966613
_cell_angle_gamma 90.000105
loop_
_atom_site_label
_atom_site_type_symbol
_atom_site_fract_x
_atom_site_fract_y
_atom_site_fract_z
_atom_type_partial_charge
Sc0 Sc 0.12052 0.88735 0.0042 0.0
Sc1 Sc 0.14106 0.81834 0.0014 0.0
Sc2 Sc 0.18688 0.87235 0.98592 0.0
O3 O 0.14951 0.85932 0.99731 0.0
C4 C 0.15015 0.91555 0.95325 0.0
C5 C 0.08719 0.84339 0.97438 0.0
C6 C 0.17692 0.82214 0.94957 0.0
C7 C 0.1091 0.83988 0.04985 0.0
C8 C 0.17152 0.91475 0.02916 0.0
C9 C 0.20084 0.82088 0.02512 0.0
O10 O 0.13146 0.91426 0.97043 0.0
O11 O 0.10226 0.82337 0.98244 0.0
O12 O 0.1902 0.84274 0.95661 0.0
O13 O 0.10555 0.86371 0.03845 0.0
O14 O 0.18791 0.90407 0.01351 0.0
O15 O 0.17894 0.80844 0.02053 0.0
O16 O 0.14643 0.90929 0.02962 0.0
O17 O 0.12334 0.82135 0.04006 0.0
O18 O 0.20616 0.84508 0.0154 0.0
O19 O 0.09195 0.86819 0.9794 0.0
O20 O 0.17109 0.90048 0.95511 0.0
O21 O 0.15755 0.81142 0.9631 0.0
Sc22 Sc 0.68227 0.62306 0.5566 0.0
Sc23 Sc 0.63662 0.67611 0.53873 0.0
Sc24 Sc 0.61643 0.60725 0.53808 0.0
O25 O 0.64517 0.63544 0.54446 0.0
C26 C 0.66759 0.58006 0.51364 0.0
C27 C 0.69735 0.67379 0.51763 0.0
C28 C 0.60679 0.65326 0.49062 0.0
C29 C 0.67019 0.67437 0.59134 0.0
C30 C 0.64628 0.57942 0.58896 0.0
C31 C 0.58196 0.65164 0.56459 0.0
O32 O 0.68366 0.59031 0.52991 0.0
O33 O 0.67586 0.68671 0.52264 0.0
O34 O 0.60083 0.63089 0.50384 0.0
O35 O 0.68479 0.65449 0.58452 0.0
O36 O 0.62821 0.57983 0.57121 0.0
O37 O 0.59605 0.6713 0.55402 0.0
O38 O 0.66626 0.59581 0.58813 0.0
O39 O 0.65004 0.68351 0.57792 0.0
O40 O 0.58836 0.62642 0.56351 0.0
O41 O 0.70177 0.64907 0.5263 0.0
O42 O 0.64258 0.58594 0.5125 0.0
O43 O 0.62266 0.67119 0.49913 0.0
Sc44 Sc 0.87189 0.17975 0.03238 0.0
Sc45 Sc 0.82641 0.13002 0.06029 0.0
Sc46 Sc 0.88904 0.10926 0.03616 0.0
O47 O 0.86248 0.13972 0.04297 0.0
C48 C 0.89396 0.14825 0.98339 0.0
C49 C 0.80985 0.17813 0.01709 0.0
C50 C 0.83227 0.08298 0.02064 0.0
C51 C 0.8441 0.1831 0.08894 0.0
C52 C 0.92824 0.15683 0.05439 0.0
C53 C 0.86636 0.08817 0.09235 0.0
O54 O 0.88691 0.17011 0.99401 0.0
O55 O 0.80406 0.15856 0.03405 0.0
O56 O 0.85795 0.0833 0.02124 0.0
O57 O 0.8577 0.19382 0.06959 0.0
O58 O 0.92316 0.13187 0.05009 0.0
O59 O 0.84363 0.09997 0.08884 0.0
O60 O 0.91146 0.17626 0.04946 0.0
O61 O 0.83233 0.15992 0.08872 0.0
O62 O 0.88528 0.09056 0.07549 0.0
O63 O 0.83361 0.18742 0.01382 0.0
O64 O 0.89532 0.12487 0.99611 0.0
O65 O 0.81783 0.09928 0.03315 0.0
Sc66 Sc 0.37697 0.38948 0.50655 0.0
Sc67 Sc 0.31018 0.37349 0.4902 0.0
Sc68 Sc 0.35481 0.32097 0.51402 0.0
O69 O 0.34723 0.36132 0.50367 0.0
C70 C 0.40878 0.33847 0.48452 0.0
C71 C 0.35027 0.40912 0.45185 0.0
C72 C 0.31812 0.31757 0.46243 0.0
C73 C 0.32514 0.42276 0.525 0.0
C74 C 0.38601 0.35174 0.55895 0.0
C75 C 0.2962 0.32858 0.5374 0.0
O76 O 0.40742 0.36318 0.49118 0.0
O77 O 0.32673 0.40066 0.45841 0.0
O78 O 0.33354 0.30683 0.48032 0.0
O79 O 0.3504 0.41982 0.52179 0.0
O80 O 0.37743 0.33007 0.54896 0.0
O81 O 0.2894 0.34761 0.5202 0.0
O82 O 0.38564 0.37537 0.5466 0.0
O83 O 0.30785 0.40652 0.51609 0.0
O84 O 0.31954 0.31777 0.53842 0.0
O85 O 0.37072 0.40551 0.46673 0.0
O86 O 0.39054 0.32074 0.49019 0.0
O87 O 0.30888 0.34188 0.46288 0.0
H88 H 0.19657 0.21907 0.18302 0.0
H89 H 0.26064 0.15943 0.17826 0.0
H90 H 0.19411 0.1596 0.12446 0.0
H91 H 0.27104 0.17049 0.21789 0.0
C92 C 0.26302 0.19064 0.22148 0.0
C93 C 0.20589 0.20223 0.17343 0.0
C94 C 0.19303 0.19116 0.15198 0.0
C95 C 0.23038 0.19114 0.18311 0.0
C96 C 0.24192 0.16856 0.17116 0.0
C97 C 0.22901 0.1573 0.1498 0.0
C98 C 0.20487 0.16903 0.14013 0.0
N99 N 0.24216 0.20274 0.20534 0.0
H100 H 0.23886 0.68264 0.65443 0.0
H101 H 0.30868 0.72934 0.67527 0.0
H102 H 0.31551 0.66925 0.6178 0.0
H103 H 0.27666 0.76043 0.68659 0.0
C104 C 0.26119 0.74694 0.69545 0.0
C105 C 0.25987 0.68817 0.65142 0.0
C106 C 0.27562 0.67412 0.63375 0.0
C107 C 0.27125 0.70896 0.66572 0.0
C108 C 0.29904 0.71478 0.66312 0.0
C109 C 0.31482 0.70066 0.64555 0.0
C110 C 0.30293 0.68088 0.63056 0.0
N111 N 0.25475 0.72187 0.68411 0.0
H112 H 0.93887 0.80012 0.30018 0.0
H113 H 0.89435 0.8721 0.32041 0.0
H114 H 0.9474 0.87673 0.25361 0.0
H115 H 0.89348 0.8495 0.36096 0.0
C116 C 0.89041 0.82823 0.35636 0.0
C117 C 0.93416 0.82185 0.29678 0.0
C118 C 0.94532 0.83712 0.27504 0.0
C119 C 0.91611 0.83434 0.31367 0.0
C120 C 0.90916 0.86237 0.30845 0.0
C121 C 0.92087 0.87786 0.28711 0.0
C122 C 0.93895 0.86508 0.27066 0.0
N123 N 0.90389 0.81772 0.33448 0.0
H124 H 0.54721 0.30144 0.81002 0.0
H125 H 0.62294 0.34529 0.80479 0.0
H126 H 0.55303 0.38062 0.76699 0.0
H127 H 0.63631 0.29861 0.80359 0.0
C128 C 0.6259 0.29125 0.82157 0.0
C129 C 0.55866 0.31978 0.80398 0.0
C130 C 0.54645 0.34132 0.78834 0.0
C131 C 0.58623 0.32109 0.81026 0.0
C132 C 0.60152 0.34419 0.80086 0.0
C133 C 0.58916 0.36573 0.78576 0.0
C134 C 0.56174 0.36453 0.78024 0.0
N135 N 0.59848 0.29863 0.82513 0.0
H136 H 0.66551 0.28846 0.3359 0.0
H137 H 0.732 0.34214 0.35114 0.0
H138 H 0.65821 0.34733 0.39477 0.0
H139 H 0.75656 0.3083 0.33439 0.0
C140 C 0.74387 0.3014 0.31873 0.0
C141 C 0.67422 0.30459 0.34692 0.0
C142 C 0.65903 0.31644 0.36649 0.0
C143 C 0.70081 0.31314 0.34176 0.0
C144 C 0.71189 0.33459 0.35562 0.0
C145 C 0.69671 0.34689 0.37499 0.0
C146 C 0.67043 0.33743 0.38043 0.0
N147 N 0.71538 0.30056 0.32173 0.0
H148 H 0.03634 0.18263 0.72574 0.0
H149 H 0.10547 0.12909 0.73308 0.0
H150 H 0.03095 0.10393 0.76986 0.0
H151 H 0.12497 0.17319 0.73554 0.0
C152 C 0.11569 0.18306 0.71795 0.0
C153 C 0.04522 0.16304 0.73252 0.0
C154 C 0.02998 0.14361 0.74796 0.0
C155 C 0.07248 0.15808 0.72727 0.0
C156 C 0.0844 0.13313 0.73694 0.0
C157 C 0.06926 0.11336 0.75187 0.0
C158 C 0.04206 0.11855 0.75693 0.0
N159 N 0.08782 0.17887 0.71313 0.0
H160 H 0.44511 0.68929 0.2345 0.0
H161 H 0.39368 0.6192 0.22394 0.0
H162 H 0.45029 0.61698 0.28775 0.0
H163 H 0.3886 0.63834 0.18315 0.0
C164 C 0.38955 0.66041 0.1851 0.0
C165 C 0.43891 0.66834 0.24019 0.0
C166 C 0.45011 0.6544 0.26261 0.0
C167 C 0.41888 0.65572 0.22567 0.0
C168 C 0.40996 0.62892 0.234 0.0
C169 C 0.42168 0.61467 0.25608 0.0
C170 C 0.44182 0.62751 0.27012 0.0
N171 N 0.40682 0.67133 0.20411 0.0
H172 H 0.74844 0.84976 0.86076 0.0
H173 H 0.81483 0.79276 0.85788 0.0
H174 H 0.81936 0.86025 0.90759 0.0
H175 H 0.7983 0.78336 0.82029 0.0
C176 C 0.77686 0.78769 0.81983 0.0
C177 C 0.76825 0.84284 0.86732 0.0
C178 C 0.78216 0.85705 0.88623 0.0
C179 C 0.77995 0.81987 0.85653 0.0
C180 C 0.80574 0.81095 0.86514 0.0
C181 C 0.82014 0.82546 0.8835 0.0
C182 C 0.80806 0.84832 0.89407 0.0
N183 N 0.76542 0.8066 0.83685 0.0
H184 H 0.2198 0.94164 0.02526 0.0
H185 H 0.23552 0.97885 0.05103 0.0
H186 H 0.16323 0.97213 0.09842 0.0
H187 H 0.14686 0.93534 0.07202 0.0
H188 H 0.17153 0.02311 0.08396 0.0
H189 H 0.22696 0.95176 0.12322 0.0
H190 H 0.25861 0.91257 0.12442 0.0
H191 H 0.3189 0.96419 0.08562 0.0
H192 H 0.2875 0.0036 0.08384 0.0
H193 H 0.24163 0.1095 0.1783 0.0
H194 H 0.2403 0.06337 0.16176 0.0
H195 H 0.2333 0.09946 0.08211 0.0
H196 H 0.23497 0.14556 0.09844 0.0
H197 H 0.2641 0.03097 0.11998 0.0
H198 H 0.17167 0.07481 0.06162 0.0
H199 H 0.13964 0.11354 0.06346 0.0
H200 H 0.15124 0.11385 0.14721 0.0
H201 H 0.18259 0.07461 0.14601 0.0
C202 C 0.20735 0.94778 0.04138 0.0
C203 C 0.182 0.93555 0.04651 0.0
C204 C 0.21647 0.969 0.05623 0.0
C205 C 0.20074 0.9781 0.07691 0.0
C206 C 0.17573 0.96545 0.08256 0.0
C207 C 0.1664 0.94441 0.06747 0.0
C208 C 0.20949 0.00223 0.09114 0.0
C209 C 0.1917 0.02461 0.09201 0.0
C210 C 0.23572 0.00421 0.102 0.0
C211 C 0.25479 0.98061 0.10326 0.0
C212 C 0.24691 0.95472 0.1148 0.0
C213 C 0.26482 0.93247 0.1156 0.0
C214 C 0.29073 0.93588 0.10507 0.0
C215 C 0.29882 0.96157 0.09377 0.0
C216 C 0.28099 0.98389 0.0929 0.0
C217 C 0.24119 0.10758 0.15718 0.0
C218 C 0.23792 0.131 0.13963 0.0
C219 C 0.24036 0.08123 0.14778 0.0
C220 C 0.23613 0.07818 0.12083 0.0
C221 C 0.2363 0.10152 0.10302 0.0
C222 C 0.23722 0.12779 0.11236 0.0
C223 C 0.2264 0.05168 0.11191 0.0
C224 C 0.24391 0.02908 0.11209 0.0
C225 C 0.19968 0.04918 0.10258 0.0
C226 C 0.17982 0.072 0.10364 0.0
C227 C 0.16723 0.08301 0.08045 0.0
C228 C 0.14917 0.10504 0.08139 0.0
C229 C 0.14353 0.11623 0.10542 0.0
C230 C 0.15569 0.10523 0.1286 0.0
C231 C 0.17359 0.08308 0.1278 0.0
H232 H 0.12969 0.13337 0.10611 0.0
H233 H 0.30456 0.91862 0.10569 0.0
H234 H 0.55832 0.62464 0.60761 0.0
H235 H 0.5158 0.63627 0.62877 0.0
H236 H 0.5052 0.70494 0.5711 0.0
H237 H 0.5484 0.6944 0.55112 0.0
H238 H 0.48921 0.72043 0.6147 0.0
H239 H 0.47248 0.63826 0.56889 0.0
H240 H 0.47944 0.59009 0.55798 0.0
H241 H 0.46284 0.56198 0.63837 0.0
H242 H 0.45609 0.61003 0.64981 0.0
H243 H 0.34502 0.72766 0.60742 0.0
H244 H 0.39392 0.72327 0.60122 0.0
H245 H 0.39926 0.67304 0.67445 0.0
H246 H 0.35043 0.67787 0.68082 0.0
H247 H 0.41925 0.64816 0.62975 0.0
H248 H 0.42911 0.73264 0.67208 0.0
H249 H 0.41959 0.78128 0.67949 0.0
H250 H 0.44625 0.80562 0.60086 0.0
H251 H 0.45557 0.75707 0.59283 0.0
C252 C 0.54689 0.64227 0.5996 0.0
C253 C 0.55652 0.65856 0.57769 0.0
C254 C 0.52254 0.64884 0.61159 0.0
C255 C 0.50691 0.6712 0.60125 0.0
C256 C 0.51681 0.68764 0.57955 0.0
C257 C 0.54147 0.68155 0.56805 0.0
C258 C 0.47998 0.67728 0.61245 0.0
C259 C 0.47389 0.70461 0.61778 0.0
C260 C 0.46003 0.65662 0.61712 0.0
C261 C 0.46412 0.62774 0.61027 0.0
C262 C 0.47052 0.62181 0.58427 0.0
C263 C 0.47439 0.59454 0.57799 0.0
C264 C 0.47168 0.573 0.59749 0.0
C265 C 0.465 0.57868 0.6233 0.0
C266 C 0.46114 0.60593 0.62969 0.0
C267 C 0.35691 0.7166 0.62259 0.0
C268 C 0.34433 0.70349 0.64478 0.0
C269 C 0.38471 0.71401 0.61905 0.0
C270 C 0.40015 0.69792 0.63746 0.0
C271 C 0.38769 0.6857 0.66016 0.0
C272 C 0.35995 0.68861 0.66387 0.0
C273 C 0.42849 0.69127 0.63135 0.0
C274 C 0.43477 0.66383 0.62698 0.0
C275 C 0.44834 0.71191 0.62698 0.0
C276 C 0.44286 0.74116 0.6318 0.0
C277 C 0.43274 0.74833 0.65629 0.0
C278 C 0.42742 0.7759 0.66062 0.0
C279 C 0.43226 0.79652 0.64064 0.0
C280 C 0.4425 0.78962 0.61631 0.0
C281 C 0.44784 0.76208 0.61188 0.0
H282 H 0.42813 0.81785 0.64403 0.0
H283 H 0.47468 0.55189 0.59259 0.0
H284 H 0.82891 0.06739 0.12819 0.0
H285 H 0.83695 0.03681 0.16764 0.0
H286 H 0.92253 0.03973 0.15216 0.0
H287 H 0.9146 0.06955 0.11236 0.0
H288 H 0.9084 0.98938 0.16273 0.0
H289 H 0.89267 0.07343 0.20325 0.0
H290 H 0.86836 0.11595 0.21246 0.0
H291 H 0.80124 0.06794 0.24302 0.0
H292 H 0.825 0.02508 0.23362 0.0
H293 H 0.95382 0.92202 0.2775 0.0
H294 H 0.94223 0.96474 0.25181 0.0
H295 H 0.85845 0.941 0.25309 0.0
H296 H 0.86999 0.89803 0.27879 0.0
H297 H 0.87127 0.00286 0.25178 0.0
H298 H 0.88892 0.91865 0.2069 0.0
H299 H 0.91645 0.87765 0.19946 0.0
H300 H 0.98427 0.92948 0.17831 0.0
H301 H 0.9572 0.9708 0.18606 0.0
C302 C 0.84945 0.06166 0.13328 0.0
C303 C 0.87109 0.07078 0.11701 0.0
C304 C 0.85404 0.04429 0.15595 0.0
C305 C 0.88038 0.03612 0.16303 0.0
C306 C 0.90202 0.04566 0.14707 0.0
C307 C 0.89744 0.06272 0.12429 0.0
C308 C 0.88539 0.01641 0.18616 0.0
C309 C 0.90054 0.99264 0.18222 0.0
C310 C 0.87485 0.02034 0.21161 0.0
C311 C 0.86053 0.04603 0.21749 0.0
C312 C 0.87264 0.07193 0.21174 0.0
C313 C 0.85897 0.09609 0.21703 0.0
C314 C 0.83325 0.09465 0.22827 0.0
C315 C 0.82116 0.06902 0.23429 0.0
C316 C 0.83473 0.04478 0.22901 0.0
C317 C 0.9328 0.92645 0.27319 0.0
C318 C 0.91282 0.90666 0.27974 0.0
C319 C 0.92621 0.95084 0.2586 0.0
C320 C 0.89957 0.95573 0.25029 0.0
C321 C 0.87911 0.93755 0.25941 0.0
C322 C 0.88571 0.91304 0.27408 0.0
C323 C 0.89428 0.97628 0.22809 0.0
C324 C 0.87907 -8e-05 0.23221 0.0
C325 C 0.9051 0.97258 0.2028 0.0
C326 C 0.92112 0.94779 0.19731 0.0
C327 C 0.90975 0.92129 0.20083 0.0
C328 C 0.92527 0.89799 0.19655 0.0
C329 C 0.95213 0.90094 0.18851 0.0
C330 C 0.96347 0.92722 0.18459 0.0
C331 C 0.94805 0.95058 0.1889 0.0
H332 H 0.96413 0.88288 0.18526 0.0
H333 H 0.82275 0.11339 0.2324 0.0
H334 H 0.40675 0.30596 0.5862 0.0
H335 H 0.42801 0.30341 0.62974 0.0
H336 H 0.41103 0.38971 0.63672 0.0
H337 H 0.39079 0.3926 0.59285 0.0
H338 H 0.45977 0.38024 0.64986 0.0
H339 H 0.37675 0.33573 0.67341 0.0
H340 H 0.33998 0.302 0.67011 0.0
H341 H 0.39577 0.23551 0.68661 0.0
H342 H 0.43298 0.26883 0.68961 0.0
H343 H 0.50543 0.37873 0.78234 0.0
H344 H 0.47295 0.38091 0.74598 0.0
H345 H 0.49673 0.29938 0.72659 0.0
H346 H 0.52978 0.29742 0.7623 0.0
H347 H 0.44238 0.30817 0.72155 0.0
H348 H 0.53079 0.35282 0.69729 0.0
H349 H 0.57508 0.3879 0.6845 0.0
H350 H 0.49073 0.46799 0.66303 0.0
H351 H 0.45962 0.42286 0.67879 0.0
C352 C 0.40735 0.32431 0.59714 0.0
C353 C 0.39723 0.34951 0.58602 0.0
C354 C 0.41936 0.32281 0.62212 0.0
C355 C 0.4209 0.34631 0.63672 0.0
C356 C 0.41018 0.3713 0.62586 0.0
C357 C 0.39861 0.37293 0.60075 0.0
C358 C 0.43523 0.3454 0.6625 0.0
C359 C 0.45548 0.36499 0.66592 0.0
C360 C 0.43009 0.32492 0.68303 0.0
C361 C 0.40771 0.3048 0.68152 0.0
C362 C 0.38122 0.31391 0.67616 0.0
C363 C 0.36029 0.29487 0.67437 0.0
C364 C 0.36554 0.26663 0.67809 0.0
C365 C 0.39173 0.25739 0.68371 0.0
C366 C 0.41275 0.27635 0.68549 0.0
C367 C 0.50305 0.36091 0.77084 0.0
C368 C 0.52032 0.33802 0.77493 0.0
C369 C 0.48484 0.36238 0.74988 0.0
C370 C 0.48321 0.3407 0.73316 0.0
C371 C 0.49808 0.3165 0.73911 0.0
C372 C 0.5166 0.31518 0.75983 0.0
C373 C 0.46673 0.34337 0.70897 0.0
C374 C 0.44619 0.32394 0.70582 0.0
C375 C 0.4712 0.36455 0.68893 0.0
C376 C 0.49264 0.38589 0.68968 0.0
C377 C 0.52678 0.37433 0.69189 0.0
C378 C 0.55473 0.3965 0.68294 0.0
C379 C 0.53662 0.44757 0.66703 0.0
C380 C 0.50085 0.44886 0.66892 0.0
C381 C 0.48122 0.41985 0.67961 0.0
H382 H 0.54718 0.4664 0.65999 0.0
H383 H 0.34931 0.25192 0.67667 0.0
H384 H 0.72043 0.56597 0.50585 0.0
H385 H 0.73777 0.53087 0.47802 0.0
H386 H 0.6566 0.51261 0.45412 0.0
H387 H 0.63917 0.54794 0.48128 0.0
H388 H 0.73059 0.47774 0.48126 0.0
H389 H 0.65386 0.49199 0.39384 0.0
H390 H 0.63082 0.53015 0.36849 0.0
H391 H 0.69299 0.58616 0.38932 0.0
H392 H 0.71663 0.54827 0.41447 0.0
H393 H 0.69223 0.35651 0.42712 0.0
H394 H 0.70094 0.39956 0.44732 0.0
H395 H 0.73423 0.43452 0.3739 0.0
H396 H 0.72416 0.39175 0.35312 0.0
H397 H 0.69878 0.46746 0.38987 0.0
H398 H 0.77382 0.42443 0.43122 0.0
H399 H 0.80045 0.38796 0.4552 0.0
H400 H 0.74955 0.39272 0.52316 0.0
H401 H 0.72234 0.42892 0.49949 0.0
C402 C 0.70627 0.55467 0.49447 0.0
C403 C 0.67837 0.5598 0.49583 0.0
C404 C 0.71625 0.53461 0.47858 0.0
C405 C 0.69855 0.51934 0.46373 0.0
C406 C 0.67073 0.52456 0.46492 0.0
C407 C 0.66076 0.5447 0.48062 0.0
C408 C 0.70866 0.49672 0.44821 0.0
C409 C 0.72393 0.47558 0.46117 0.0
C410 C 0.70089 0.49443 0.42165 0.0
C411 C 0.68696 0.51726 0.40617 0.0
C412 C 0.66273 0.51239 0.39287 0.0
C413 C 0.64953 0.534 0.37856 0.0
C414 C 0.66041 0.56057 0.37733 0.0
C415 C 0.68455 0.56558 0.39034 0.0
C416 C 0.69784 0.54405 0.40465 0.0
C417 C 0.70173 0.37324 0.41535 0.0
C418 C 0.70715 0.37086 0.38844 0.0
C419 C 0.70707 0.39777 0.42703 0.0
C420 C 0.71842 0.42032 0.4122 0.0
C421 C 0.72548 0.4174 0.38574 0.0
C422 C 0.71991 0.39286 0.37394 0.0
C423 C 0.71934 0.44769 0.42346 0.0
C424 C 0.70612 0.46982 0.4097 0.0
C425 C 0.72962 0.45113 0.44903 0.0
C426 C 0.74597 0.4294 0.4635 0.0
C427 C 0.76819 0.4176 0.45123 0.0
C428 C 0.78341 0.39698 0.46478 0.0
C429 C 0.77669 0.38802 0.49068 0.0
C430 C 0.75475 0.3997 0.5031 0.0
C431 C 0.73946 0.42032 0.48964 0.0
H432 H 0.78849 0.37204 0.50114 0.0
H433 H 0.65014 0.57727 0.36628 0.0
H434 H 0.90711 0.194 0.9513 0.0
H435 H 0.92069 0.19552 0.9049 0.0
H436 H 0.90881 0.1076 0.90457 0.0
H437 H 0.89598 0.1058 0.95099 0.0
H438 H 0.95533 0.12063 0.88403 0.0
H439 H 0.86583 0.15441 0.87144 0.0
H440 H 0.82652 0.18405 0.87856 0.0
H441 H 0.8717 0.25541 0.85025 0.0
H442 H 0.91146 0.22625 0.84334 0.0
H443 H 0.98468 0.11157 0.75317 0.0
H444 H 0.94972 0.11619 0.78652 0.0
H445 H 0.98071 0.19626 0.8022 0.0
H446 H 0.01607 0.19157 0.7694 0.0
H447 H 0.92054 0.18579 0.81241 0.0
H448 H 0.0117 0.15088 0.83299 0.0
H449 H 0.0501 0.12049 0.82434 0.0
H450 H 0.99914 0.04942 0.83709 0.0
H451 H 0.96028 0.0795 0.84528 0.0
C452 C 0.9072 0.17504 0.94128 0.0
C453 C 0.90075 0.14975 0.95493 0.0
C454 C 0.91479 0.17595 0.9147 0.0
C455 C 0.9156 0.15169 0.90117 0.0
C456 C 0.90846 0.12656 0.9146 0.0
C457 C 0.90118 0.12558 0.94119 0.0
C458 C 0.92577 0.15211 0.87364 0.0
C459 C 0.94729 0.13454 0.86835 0.0
C460 C 0.91563 0.17054 0.85315 0.0
C461 C 0.89172 0.18816 0.85708 0.0
C462 C 0.86746 0.17645 0.86691 0.0
C463 C 0.84508 0.19316 0.87088 0.0
C464 C 0.84663 0.2216 0.86491 0.0
C465 C 0.87054 0.23338 0.85489 0.0
C466 C 0.893 0.21676 0.85091 0.0
C467 C 0.98335 0.13065 0.76294 0.0
C468 C 0.00352 0.15088 0.7592 0.0
C469 C 0.96328 0.13331 0.78186 0.0
C470 C 0.96306 0.15633 0.79708 0.0
C471 C 0.98061 0.17836 0.79061 0.0
C472 C 0.00084 0.17563 0.77179 0.0
C473 C 0.9498 0.15436 0.82318 0.0
C474 C 0.92807 0.17168 0.82818 0.0
C475 C 0.95952 0.13558 0.84349 0.0
C476 C 0.98305 0.11743 0.83946 0.0
C477 C 0.00866 0.12878 0.83379 0.0
C478 C 0.0305 0.11163 0.829 0.0
C479 C 0.02705 0.08304 0.83012 0.0
C480 C 0.00177 0.07157 0.83618 0.0
C481 C 0.97983 0.08866 0.8409 0.0
H482 H 0.04397 0.0698 0.82632 0.0
H483 H 0.82928 0.23451 0.86801 0.0
H484 H 0.39465 0.40765 0.42073 0.0
H485 H 0.40421 0.43616 0.38037 0.0
H486 H 0.32568 0.47383 0.38454 0.0
H487 H 0.31549 0.44429 0.42449 0.0
H488 H 0.34008 0.4683 0.33381 0.0
H489 H 0.38219 0.5038 0.41066 0.0
H490 H 0.41102 0.50061 0.45033 0.0
H491 H 0.47921 0.48043 0.40316 0.0
H492 H 0.45072 0.48331 0.36325 0.0
H493 H 0.37009 0.60024 0.26924 0.0
H494 H 0.35569 0.55883 0.29566 0.0
H495 H 0.43667 0.52649 0.293 0.0
H496 H 0.4512 0.56829 0.26739 0.0
H497 H 0.42131 0.52685 0.3411 0.0
H498 H 0.38076 0.49551 0.26332 0.0
H499 H 0.35231 0.49832 0.22342 0.0
H500 H 0.28209 0.51012 0.27085 0.0
H501 H 0.31017 0.50778 0.31102 0.0
C502 C 0.37927 0.42177 0.41285 0.0
C503 C 0.35449 0.42415 0.42594 0.0
C504 C 0.38478 0.43805 0.38981 0.0
C505 C 0.36596 0.45766 0.37985 0.0
C506 C 0.34056 0.45895 0.39199 0.0
C507 C 0.33478 0.44216 0.41482 0.0
C508 C 0.3737 0.47825 0.35823 0.0
C509 C 0.35771 0.48129 0.3354 0.0
C510 C 0.39706 0.49476 0.36009 0.0
C511 C 0.41428 0.49353 0.38403 0.0
C512 C 0.40331 0.49858 0.40878 0.0
C513 C 0.41959 0.49685 0.4313 0.0
C514 C 0.44692 0.49027 0.42928 0.0
C515 C 0.45805 0.48553 0.4047 0.0
C516 C 0.44185 0.48726 0.38213 0.0
C517 C 0.38454 0.58385 0.27362 0.0
C518 C 0.41172 0.58736 0.26639 0.0
C519 C 0.37632 0.56016 0.28868 0.0
C520 C 0.39508 0.53945 0.29633 0.0
C521 C 0.42184 0.54219 0.28745 0.0
C522 C 0.43012 0.56599 0.27275 0.0
C523 C 0.38784 0.51692 0.31635 0.0
C524 C 0.40385 0.51367 0.33914 0.0
C525 C 0.36459 0.50028 0.3143 0.0
C526 C 0.34763 0.5017 0.29018 0.0
C527 C 0.35929 0.49893 0.26523 0.0
C528 C 0.34322 0.5004 0.24257 0.0
C529 C 0.31542 0.50446 0.24459 0.0
C530 C 0.30363 0.507 0.26931 0.0
C531 C 0.31961 0.50557 0.29204 0.0
H532 H 0.30301 0.50558 0.22702 0.0
H533 H 0.45948 0.4889 0.44674 0.0
H534 H 0.07004 0.79338 0.95892 0.0
H535 H 0.028 0.78319 0.93659 0.0
H536 H 0.00637 0.86933 0.93363 0.0
H537 H 0.04852 0.87983 0.95541 0.0
H538 H 0.97929 0.78786 0.95367 0.0
H539 H 0.96611 0.8867 0.88213 0.0
H540 H 0.99394 0.91746 0.85259 0.0
H541 H 0.05342 0.85376 0.84828 0.0
H542 H 0.02578 0.82245 0.87745 0.0
H543 H 0.84424 0.82441 0.93201 0.0
H544 H 0.89216 0.81941 0.94189 0.0
H545 H 0.90819 0.80456 0.86052 0.0
H546 H 0.86033 0.81084 0.85024 0.0
H547 H 0.94148 0.84134 0.87557 0.0
H548 H 0.91559 0.75272 0.91016 0.0
H549 H 0.88869 0.71752 0.93564 0.0
H550 H 0.91025 0.75327 0.00772 0.0
H551 H 0.93697 0.78895 0.98266 0.0
C552 C 0.0565 0.81024 0.95328 0.0
C553 C 0.0626 0.83741 0.9592 0.0
C554 C 0.03246 0.80435 0.9405 0.0
C555 C 0.01408 0.82548 0.93331 0.0
C556 C 0.02042 0.85272 0.93859 0.0
C557 C 0.04449 0.85866 0.95126 0.0
C558 C 0.98733 0.81892 0.92229 0.0
C559 C 0.9711 0.79939 0.93645 0.0
C560 C 0.97691 0.83334 0.89937 0.0
C561 C 0.99387 0.85224 0.8821 0.0
C562 C 0.98505 0.87918 0.87478 0.0
C563 C 0.00078 0.89671 0.85806 0.0
C564 C 0.02535 0.88751 0.84845 0.0
C565 C 0.03434 0.86083 0.85569 0.0
C566 C 0.01868 0.8432 0.87237 0.0
C567 C 0.85794 0.81989 0.91625 0.0
C568 C 0.8485 0.81821 0.89031 0.0
C569 C 0.88531 0.81672 0.92198 0.0
C570 C 0.90379 0.81141 0.90198 0.0
C571 C 0.89429 0.80861 0.87626 0.0
C572 C 0.86689 0.81195 0.87048 0.0
C573 C 0.93313 0.81117 0.90763 0.0
C574 C 0.94983 0.82947 0.89251 0.0
C575 C 0.94421 0.79507 0.92923 0.0
C576 C 0.92819 0.77362 0.94448 0.0
C577 C 0.91445 0.7532 0.93143 0.0
C578 C 0.89925 0.73314 0.94581 0.0
C579 C 0.89773 0.73318 0.97328 0.0
C580 C 0.91145 0.75326 0.98644 0.0
C581 C 0.92666 0.77339 0.97215 0.0
H582 H 0.88595 0.71763 0.98437 0.0
H583 H 0.0375 0.90113 0.83554 0.0
H584 H 0.85489 0.04021 0.99628 0.0
H585 H 0.83282 0.00884 0.96776 0.0
H586 H 0.75694 0.05033 0.97772 0.0
H587 H 0.7788 0.08165 0.00683 0.0
H588 H 0.75005 0.99601 0.9816 0.0
H589 H 0.78938 0.05974 0.91951 0.0
H590 H 0.82466 0.09053 0.9 0.0
H591 H 0.87494 0.02064 0.88777 0.0
H592 H 0.84018 0.98943 0.90761 0.0
H593 H 0.76238 0.90282 0.85851 0.0
H594 H 0.75437 0.9481 0.8757 0.0
H595 H 0.77075 0.91342 0.95462 0.0
H596 H 0.77817 0.86842 0.93761 0.0
H597 H 0.7926 0.97577 0.89661 0.0
H598 H 0.74418 0.94792 0.00094 0.0
H599 H 0.70676 0.91939 0.01947 0.0
H600 H 0.6688 0.92195 0.94337 0.0
H601 H 0.70575 0.95087 0.92442 0.0
C602 C 0.83351 0.04274 0.99246 0.0
C603 C 0.81865 0.06347 0.00387 0.0
C604 C 0.82094 0.02489 0.97598 0.0
C605 C 0.79333 0.02759 0.97022 0.0
C606 C 0.77829 0.048 0.9818 0.0
C607 C 0.79084 0.06582 -0.00153 0.0
C608 C 0.78039 0.00823 0.9528 0.0
C609 C 0.75905 0.99172 0.96285 0.0
C610 C 0.7913 0.00362 0.92773 0.0
C611 C 0.81212 0.02221 0.91512 0.0
C612 C 0.80799 0.05092 0.91275 0.0
C613 C 0.82792 0.06846 0.90164 0.0
C614 C 0.85203 0.05755 0.89267 0.0
C615 C 0.85623 0.02906 0.8947 0.0
C616 C 0.83639 0.01142 0.90583 0.0
C617 C 0.7632 0.90476 0.87962 0.0
C618 C 0.77105 0.8823 0.89678 0.0
C619 C 0.75878 0.93062 0.8894 0.0
C620 C 0.76188 0.9342 0.91646 0.0
C621 C 0.76774 0.91118 0.93375 0.0
C622 C 0.77221 0.88548 0.92401 0.0
C623 C 0.76362 0.96215 0.92639 0.0
C624 C 0.7829 0.98045 0.91492 0.0
C625 C 0.75031 0.96877 0.9498 0.0
C626 C 0.72784 0.95158 0.96123 0.0
C627 C 0.72776 0.94262 0.98817 0.0
C628 C 0.70664 0.92631 -0.00125 0.0
C629 C 0.68543 0.91884 0.98261 0.0
C630 C 0.68527 0.9277 0.95585 0.0
C631 C 0.70633 0.94402 0.94517 0.0
H632 H 0.66911 0.9062 0.99083 0.0
H633 H 0.86746 0.07117 0.88413 0.0
H634 H 0.45633 0.36605 0.47651 0.0
H635 H 0.49357 0.35442 0.44803 0.0
H636 H 0.45083 0.28199 0.42647 0.0
H637 H 0.41355 0.29316 0.45551 0.0
H638 H 0.50218 0.2702 0.43531 0.0
H639 H 0.45511 0.33797 0.38286 0.0
H640 H 0.43086 0.38174 0.37297 0.0
H641 H 0.50298 0.42717 0.38738 0.0
H642 H 0.52759 0.38371 0.39783 0.0
H643 H 0.61714 0.31477 0.33168 0.0
H644 H 0.56909 0.30887 0.34268 0.0
H645 H 0.5898 0.29454 0.42502 0.0
H646 H 0.63748 0.30032 0.4141 0.0
H647 H 0.54137 0.34231 0.37274 0.0
H648 H 0.54558 0.25345 0.45686 0.0
H649 H 0.56793 0.20839 0.4651 0.0
H650 H 0.57777 0.2021 0.38172 0.0
H651 H 0.55512 0.24691 0.37292 0.0
C652 C 0.45481 0.3476 0.46579 0.0
C653 C 0.43195 0.33056 0.46829 0.0
C654 C 0.47606 0.34108 0.44935 0.0
C655 C 0.47473 0.31764 0.4347 0.0
C656 C 0.45219 0.30025 0.43749 0.0
C657 C 0.43096 0.30664 0.45415 0.0
C658 C 0.4974 0.31123 0.4171 0.0
C659 C 0.51062 0.28581 0.4214 0.0
C660 C 0.50772 0.33121 0.39813 0.0
C661 C 0.49321 0.3575 0.39119 0.0
C662 C 0.4658 0.35728 0.38402 0.0
C663 C 0.45198 0.38205 0.37832 0.0
C664 C 0.46538 0.4072 0.37954 0.0
C665 C 0.49265 0.40765 0.38641 0.0
C666 C 0.50656 0.38295 0.39217 0.0
C667 C 0.61135 0.30958 0.35199 0.0
C668 C 0.63085 0.30805 0.3721 0.0
C669 C 0.58398 0.30636 0.35826 0.0
C670 C 0.57588 0.30112 0.38464 0.0
C671 C 0.59556 0.29814 0.40449 0.0
C672 C 0.62278 0.3016 0.39829 0.0
C673 C 0.54706 0.30196 0.39227 0.0
C674 C 0.53259 0.32637 0.38609 0.0
C675 C 0.53529 0.28082 0.40904 0.0
C676 C 0.54871 0.25366 0.41424 0.0
C677 C 0.55233 0.24239 0.44026 0.0
C678 C 0.5651 0.21689 0.44503 0.0
C679 C 0.5743 0.20241 0.42395 0.0
C680 C 0.5707 0.21337 0.39804 0.0
C681 C 0.55794 0.23885 0.39315 0.0
H682 H 0.58419 0.18269 0.42769 0.0
H683 H 0.45467 0.42635 0.37512 0.0
H684 H 0.11957 0.96208 0.94879 0.0
H685 H 0.10973 0.99103 0.90886 0.0
H686 H 0.16147 0.9404 0.86386 0.0
H687 H 0.17209 0.9117 0.90409 0.0
H688 H 0.16682 0.99203 0.84661 0.0
H689 H 0.09389 0.93213 0.86444 0.0
H690 H 0.05889 0.90786 0.8915 0.0
H691 H 0.01776 0.98442 0.90012 0.0
H692 H 0.05321 0.00943 0.87423 0.0
H693 H 0.05354 0.05959 0.75147 0.0
H694 H 0.07152 0.02016 0.77861 0.0
H695 H 0.13049 0.0735 0.81147 0.0
H696 H 0.11335 0.11241 0.7835 0.0
H697 H 0.07024 0.01104 0.8275 0.0
H698 H 0.18436 0.04097 0.83531 0.0
H699 H 0.22031 0.06066 0.80622 0.0
H700 H 0.17829 0.0345 0.73838 0.0
H701 H 0.14228 0.01429 0.76707 0.0
C702 C 0.12904 0.95722 0.93044 0.0
C703 C 0.14641 0.93448 0.92952 0.0
C704 C 0.12331 0.97371 0.90761 0.0
C705 C 0.13429 0.96744 0.88324 0.0
C706 C 0.15259 0.94547 0.88241 0.0
C707 C 0.15866 0.92913 0.9054 0.0
C708 C 0.12589 0.98351 0.85872 0.0
C709 C 0.14572 0.99611 0.84229 0.0
C710 C 0.0983 0.98777 0.85242 0.0
C711 C 0.07643 0.97274 0.8675 0.0
C712 C 0.07754 0.94388 0.8723 0.0
C713 C 0.05764 0.92999 0.8875 0.0
C714 C 0.03609 0.94457 0.89746 0.0
C715 C 0.03448 0.97314 0.89237 0.0
C716 C 0.05455 0.98721 0.87752 0.0
C717 C 0.0708 0.06259 0.76402 0.0
C718 C 0.0823 0.08887 0.76523 0.0
C719 C 0.08099 0.04015 0.7796 0.0
C720 C 0.10259 0.04368 0.79695 0.0
C721 C 0.11437 0.06993 0.79774 0.0
C722 C 0.10452 0.09222 0.7818 0.0
C723 C 0.1112 0.02078 0.81604 0.0
C724 C 0.09136 0.00673 0.83146 0.0
C725 C 0.13874 0.01439 0.82075 0.0
C726 C 0.16051 0.02626 0.80338 0.0
C727 C 0.18286 0.03926 0.81421 0.0
C728 C 0.20323 0.05055 0.79777 0.0
C729 C 0.20155 0.04888 0.77046 0.0
C730 C 0.17952 0.03585 0.75953 0.0
C731 C 0.1591 0.02451 0.77587 0.0
H732 H 0.21734 0.05766 0.75778 0.0
H733 H 0.02062 0.93373 0.90908 0.0
H734 H 0.62783 0.68075 0.44633 0.0
H735 H 0.60673 0.68704 0.40263 0.0
H736 H 0.53532 0.64521 0.43331 0.0
H737 H 0.55688 0.63758 0.47624 0.0
H738 H 0.5454 0.62704 0.38937 0.0
H739 H 0.54168 0.71911 0.41992 0.0
H740 H 0.56102 0.76141 0.43641 0.0
H741 H 0.60944 0.77336 0.36642 0.0
H742 H 0.59056 0.73095 0.34964 0.0
H743 H 0.43938 0.67026 0.31118 0.0
H744 H 0.47249 0.67934 0.34515 0.0
H745 H 0.53647 0.67625 0.2879 0.0
H746 H 0.50313 0.66699 0.25366 0.0
H747 H 0.53677 0.71791 0.3392 0.0
H748 H 0.53559 0.62267 0.30971 0.0
H749 H 0.50928 0.58342 0.29507 0.0
H750 H 0.46369 0.58025 0.36712 0.0
H751 H 0.48936 0.6199 0.38191 0.0
C752 C 0.6076 0.67302 0.44363 0.0
C753 C 0.59399 0.6586 0.46457 0.0
C754 C 0.59551 0.67671 0.41871 0.0
C755 C 0.56929 0.66679 0.41462 0.0
C756 C 0.55563 0.65285 0.43579 0.0
C757 C 0.56792 0.64856 0.46038 0.0
C758 C 0.5559 0.67022 0.38839 0.0
C759 C 0.54371 0.64696 0.37849 0.0
C760 C 0.55385 0.69608 0.37376 0.0
C761 C 0.56495 0.72172 0.38368 0.0
C762 C 0.55656 0.73069 0.40813 0.0
C763 C 0.56742 0.75469 0.41751 0.0
C764 C 0.58651 0.77001 0.40251 0.0
C765 C 0.59469 0.76144 0.37804 0.0
C766 C 0.5839 0.73744 0.36857 0.0
C767 C 0.46039 0.67272 0.30564 0.0
C768 C 0.46889 0.66796 0.28001 0.0
C769 C 0.47924 0.67796 0.32498 0.0
C770 C 0.50681 0.67836 0.31895 0.0
C771 C 0.5152 0.67627 0.29275 0.0
C772 C 0.49624 0.67097 0.27329 0.0
C773 C 0.52625 0.67492 0.34089 0.0
C774 C 0.53931 0.69801 0.34993 0.0
C775 C 0.52874 0.64905 0.35512 0.0
C776 C 0.51427 0.62434 0.34682 0.0
C777 C 0.51987 0.61367 0.32237 0.0
C778 C 0.50507 0.59137 0.31404 0.0
C779 C 0.4848 0.57938 0.33013 0.0
C780 C 0.47939 0.58957 0.35466 0.0
C781 C 0.49407 0.61194 0.36303 0.0
H782 H 0.4733 0.56217 0.32362 0.0
H783 H 0.59492 0.78857 0.40983 0.0
H784 H 0.27445 0.43164 0.54424 0.0
H785 H 0.25804 0.47254 0.5647 0.0
H786 H 0.33707 0.5093 0.55657 0.0
H787 H 0.35382 0.46828 0.53686 0.0
H788 H 0.31712 0.51947 0.60215 0.0
H789 H 0.28464 0.526 0.51246 0.0
H790 H 0.2603 0.51001 0.47401 0.0
H791 H 0.18632 0.50743 0.51811 0.0
H792 H 0.21032 0.52309 0.55695 0.0
H793 H 0.27614 0.66453 0.5816 0.0
H794 H 0.27357 0.61916 0.56359 0.0
H795 H 0.25158 0.58271 0.64043 0.0
H796 H 0.25388 0.62812 0.65844 0.0
H797 H 0.23905 0.57106 0.56242 0.0
H798 H 0.30109 0.53394 0.65333 0.0
H799 H 0.32851 0.5537 0.68799 0.0
H800 H 0.34912 0.62274 0.63447 0.0
H801 H 0.32232 0.60309 0.59941 0.0
C802 C 0.28838 0.44837 0.54694 0.0
C803 C 0.31542 0.44676 0.53875 0.0
C804 C 0.27893 0.47177 0.55857 0.0
C805 C 0.29621 0.49416 0.5618 0.0
C806 C 0.32336 0.49228 0.55428 0.0
C807 C 0.3329 0.4688 0.54295 0.0
C808 C 0.28608 0.51992 0.57239 0.0
C809 C 0.29989 0.53053 0.59358 0.0
C810 C 0.26378 0.53465 0.56104 0.0
C811 C 0.24931 0.52542 0.53767 0.0
C812 C 0.26322 0.52184 0.514 0.0
C813 C 0.24948 0.51287 0.49214 0.0
C814 C 0.2218 0.50763 0.49364 0.0
C815 C 0.20777 0.51145 0.51699 0.0
C816 C 0.22142 0.52039 0.53893 0.0
C817 C 0.26955 0.64699 0.5943 0.0
C818 C 0.26537 0.64962 0.62137 0.0
C819 C 0.26802 0.62114 0.58402 0.0
C820 C 0.26274 0.59765 0.6008 0.0
C821 C 0.25571 0.60068 0.62723 0.0
C822 C 0.25694 0.62659 0.63746 0.0
C823 C 0.27002 0.57024 0.59211 0.0
C824 C 0.25584 0.5595 0.57128 0.0
C825 C 0.29247 0.55574 0.60322 0.0
C826 C 0.30941 0.56722 0.62391 0.0
C827 C 0.31159 0.55325 0.64896 0.0
C828 C 0.32703 0.56443 0.66866 0.0
C829 C 0.34045 0.58951 0.66346 0.0
C830 C 0.33864 0.60337 0.6385 0.0
C831 C 0.32334 0.59222 0.61872 0.0
H832 H 0.35232 0.59816 0.67876 0.0
H833 H 0.2112 0.50068 0.47669 0.0
H834 H 0.05988 0.85813 0.06322 0.0
H835 H 0.03622 0.84991 0.10496 0.0
H836 H 0.10247 0.79988 0.13576 0.0
H837 H 0.12581 0.80699 0.09302 0.0
H838 H 0.05686 0.778 0.1532 0.0
H839 H 0.09378 0.86808 0.15185 0.0
H840 H 0.10458 0.91539 0.13443 0.0
H841 H 0.02028 0.93558 0.13179 0.0
H842 H 0.00891 0.88827 0.14868 0.0
H843 H 0.99529 0.81394 0.28251 0.0
H844 H 0.02782 0.80489 0.24736 0.0
H845 H 0.96673 0.82465 0.1887 0.0
H846 H 0.9344 0.83333 0.22349 0.0
H847 H 0.01809 0.8602 0.19198 0.0
H848 H 0.983 0.76633 0.18887 0.0
H849 H 0.97418 0.7194 0.20851 0.0
H850 H 0.05875 0.70789 0.22368 0.0
H851 H 0.06801 0.75495 0.20446 0.0
C852 C 0.06943 0.84534 0.07885 0.0
C853 C 0.09484 0.83353 0.07506 0.0
C854 C 0.05594 0.84073 0.10278 0.0
C855 C 0.06792 0.82501 0.12386 0.0
C856 C 0.09295 0.81234 0.11988 0.0
C857 C 0.10627 0.81643 0.09554 0.0
C858 C 0.05408 0.82241 0.14989 0.0
C859 C 0.04883 0.79603 0.16193 0.0
C860 C 0.04374 0.84591 0.16155 0.0
C861 C 0.0505 0.8745 0.1514 0.0
C862 C 0.07753 0.88254 0.14737 0.0
C863 C 0.08375 0.90937 0.1376 0.0
C864 C 0.06313 0.92846 0.13197 0.0
C865 C 0.03624 0.92077 0.13613 0.0
C866 C 0.0299 0.89394 0.14583 0.0
C867 C 0.98866 0.81519 0.26214 0.0
C868 C 0.96253 0.8244 0.25552 0.0
C869 C 0.00718 0.81012 0.24216 0.0
C870 C -0.00043 0.81418 0.21555 0.0
C871 C 0.97287 0.8213 0.20915 0.0
C872 C 0.95447 0.82625 0.22897 0.0
C873 C 0.01993 0.81593 0.1943 0.0
C874 C 0.02657 0.84227 0.18338 0.0
C875 C 0.03179 0.79251 0.18407 0.0
C876 C 0.02614 0.76429 0.19558 0.0
C877 C -0.00033 0.75392 0.19669 0.0
C878 C 0.9946 0.72726 0.20766 0.0
C879 C 0.01587 0.71071 0.21744 0.0
C880 C 0.04228 0.72075 0.21616 0.0
C881 C 0.04745 0.74741 0.20522 0.0
H882 H 0.01191 0.69007 0.22592 0.0
H883 H 0.068 0.94923 0.12441 0.0
H884 H 0.65026 0.5862 0.64174 0.0
H885 H 0.64281 0.55105 0.67802 0.0
H886 H 0.63167 0.48961 0.62135 0.0
H887 H 0.63696 0.52513 0.58538 0.0
H888 H 0.59629 0.48176 0.65497 0.0
H889 H 0.69159 0.49711 0.66303 0.0
H890 H 0.73286 0.52451 0.66831 0.0
H891 H 0.70371 0.54974 0.74256 0.0
H892 H 0.66211 0.52272 0.73758 0.0
H893 H 0.61474 0.36063 0.73984 0.0
H894 H 0.62575 0.39863 0.70737 0.0
H895 H 0.60663 0.45724 0.76466 0.0
H896 H 0.59488 0.41916 0.79696 0.0
H897 H 0.65517 0.46803 0.73347 0.0
H898 H 0.55833 0.44279 0.72788 0.0
H899 H 0.50999 0.42005 0.71748 0.0
H900 H 0.55471 0.40982 0.61804 0.0
H901 H 0.5965 0.43277 0.64161 0.0
C902 C 0.64635 0.5651 0.63723 0.0
C903 C 0.64412 0.55822 0.61093 0.0
C904 C 0.64227 0.54497 0.65791 0.0
C905 C 0.63698 0.51744 0.65257 0.0
C906 C 0.6355 0.51064 0.62614 0.0
C907 C 0.63865 0.53088 0.60556 0.0
C908 C 0.63187 0.49575 0.67419 0.0
C909 C 0.60955 0.47827 0.67184 0.0
C910 C 0.64861 0.49193 0.69672 0.0
C911 C 0.67362 0.50814 0.69979 0.0
C912 C 0.69391 0.50865 0.68039 0.0
C913 C 0.71737 0.52409 0.68335 0.0
C914 C 0.72087 0.53892 0.70572 0.0
C915 C 0.70095 0.53828 0.72523 0.0
C916 C 0.67744 0.52289 0.72236 0.0
C917 C 0.614 0.38163 0.74574 0.0
C918 C 0.60466 0.38721 0.77091 0.0
C919 C 0.61972 0.40322 0.7271 0.0
C920 C 0.61637 0.43056 0.73359 0.0
C921 C 0.60904 0.43617 0.75937 0.0
C922 C 0.60283 0.41455 0.77787 0.0
C923 C 0.62036 0.4533 0.71338 0.0
C924 C 0.64222 0.47118 0.71631 0.0
C925 C 0.60384 0.45659 0.69074 0.0
C926 C 0.58044 0.43845 0.68552 0.0
C927 C 0.55539 0.43498 0.70866 0.0
C928 C 0.52452 0.42117 0.70119 0.0
C929 C 0.52273 0.4076 0.6539 0.0
C930 C 0.55252 0.41451 0.63844 0.0
C931 C 0.57884 0.4287 0.65378 0.0
H932 H 0.51936 0.40999 0.66726 0.0
H933 H 0.73904 0.55087 0.70796 0.0
H934 H 0.94985 0.20811 0.05879 0.0
H935 H 0.99431 0.21958 0.0754 0.0
H936 H 0.01131 0.13313 0.09217 0.0
H937 H 0.96707 0.12136 0.07497 0.0
H938 H 0.01835 0.21231 0.12142 0.0
H939 H 0.07869 0.12135 0.08231 0.0
H940 H 0.0772 0.09038 0.04586 0.0
H941 H 0.03225 0.15093 -0.00144 0.0
H942 H 0.0339 0.18248 0.03455 0.0
H943 H 0.1474 0.18954 0.18159 0.0
H944 H 0.10108 0.19113 0.16492 0.0
H945 H 0.13086 0.21258 0.08626 0.0
H946 H 0.17717 0.21001 0.10286 0.0
H947 H 0.10035 0.17031 0.08527 0.0
H948 H 0.09131 0.25766 0.12156 0.0
H949 H 0.09394 0.2914 0.15558 0.0
H950 H 0.03799 0.24332 0.20411 0.0
H951 H 0.03529 0.20908 0.17053 0.0
C952 C 0.963 0.19147 0.06602 0.0
C953 C 0.95493 0.16377 0.06531 0.0
C954 C 0.9884 0.19811 0.0756 0.0
C955 C 0.00628 0.17724 0.08473 0.0
C956 C 0.99804 0.14958 0.08475 0.0
C957 C 0.97271 0.14289 0.07495 0.0
C958 C 0.03369 0.18443 0.09378 0.0
C959 C 0.03631 0.20312 0.11356 0.0
C960 C 0.05717 0.17287 0.08316 0.0
C961 C 0.05611 0.15413 0.06129 0.0
C962 C 0.06854 0.12808 0.06412 0.0
C963 C 0.06768 0.11043 0.04353 0.0
C964 C 0.05452 0.11863 0.01996 0.0
C965 C 0.04232 0.14456 0.01688 0.0
C966 C 0.04319 0.16233 0.03738 0.0
C967 C 0.1439 0.1956 0.16095 0.0
C968 C 0.16568 0.1998 0.14348 0.0
C969 C 0.11745 0.19646 0.15139 0.0
C970 C 0.11244 0.20197 0.1243 0.0
C971 C 0.13422 0.20817 0.10721 0.0
C972 C 0.16062 0.20693 0.11669 0.0
C973 C 0.0851 0.19783 0.1133 0.0
C974 C 0.08246 0.17959 0.09318 0.0
C975 C 0.06173 0.21011 0.12336 0.0
C976 C 0.06327 0.23068 0.1436 0.0
C977 C 0.07972 0.25416 0.13958 0.0
C978 C 0.08119 0.27341 0.15877 0.0
C979 C 0.06618 0.26948 0.18201 0.0
C980 C 0.04962 0.24633 0.1861 0.0
C981 C 0.04808 0.22701 0.16697 0.0
H982 H 0.06735 0.2844 0.19685 0.0
H983 H 0.05385 0.10492 0.00405 0.0
H984 H 0.2044 0.76559 0.03752 0.0
H985 H 0.23752 0.74114 0.06568 0.0
H986 H 0.27578 0.81832 0.08044 0.0
H987 H 0.24309 0.84298 0.0514 0.0
H988 H 0.31265 0.78132 0.07265 0.0
H989 H 0.23488 0.78349 0.12726 0.0
H990 H 0.18687 0.77788 0.13911 0.0
H991 H 0.19243 0.69089 0.13006 0.0
H992 H 0.24038 0.69603 0.11774 0.0
H993 H 0.38823 0.7171 0.18101 0.0
H994 H 0.35716 0.74664 0.15444 0.0
H995 H 0.31979 0.67466 0.12515 0.0
H996 H 0.35085 0.64496 0.15168 0.0
H997 H 0.28293 0.71236 0.14328 0.0
H998 H 0.36143 0.71259 0.08634 0.0
H999 H 0.40953 0.71992 0.07566 0.0
H1000 H 0.40244 0.80512 0.09202 0.0
H1001 H 0.35435 0.7982 0.10313 0.0
C1002 C 0.21978 0.77743 0.04681 0.0
C1003 C 0.22101 0.80626 0.04235 0.0
C1004 C 0.23866 0.76341 0.06301 0.0
C1005 C 0.25882 0.77793 0.07563 0.0
C1006 C 0.26033 0.8067 0.071 0.0
C1007 C 0.24163 0.82075 0.05443 0.0
C1008 C 0.27846 0.76284 0.09329 0.0
C1009 C 0.30613 0.7666 0.08839 0.0
C1010 C 0.27 0.74345 0.11372 0.0
C1011 C 0.2412 0.74019 0.12139 0.0
C1012 C 0.22583 0.76319 0.12763 0.0
C1013 C 0.19863 0.76009 0.13445 0.0
C1014 C 0.1866 0.73405 0.13529 0.0
C1015 C 0.20177 0.71105 0.12938 0.0
C1016 C 0.22898 0.71404 0.12251 0.0
C1017 C 0.37349 0.70757 0.16881 0.0
C1018 C 0.37187 0.67872 0.16836 0.0
C1019 C 0.35582 0.72448 0.15361 0.0
C1020 C 0.33627 0.7128 0.13781 0.0
C1021 C 0.33473 0.68403 0.13727 0.0
C1022 C 0.3525 0.66713 0.1523 0.0
C1023 C 0.31695 0.73048 0.12223 0.0
C1024 C 0.28935 0.72725 0.12764 0.0
C1025 C 0.3255 0.75063 0.1026 0.0
C1026 C 0.35438 0.7548 0.09584 0.0
C1027 C 0.37019 0.73283 0.08788 0.0
C1028 C 0.39743 0.73692 0.0817 0.0
C1029 C 0.40905 0.76295 0.08324 0.0
C1030 C 0.39342 0.78496 0.09088 0.0
C1031 C 0.36617 0.78097 0.09709 0.0
H1032 H 0.43015 0.76608 0.07845 0.0
H1033 H 0.16553 0.7317 0.14056 0.0
H1034 H 0.63934 0.70945 0.61901 0.0
H1035 H 0.65043 0.72853 0.66108 0.0
H1036 H 0.7273 0.68688 0.66177 0.0
H1037 H 0.71625 0.66736 0.62028 0.0
H1038 H 0.70409 0.6804 0.70873 0.0
H1039 H 0.72036 0.75678 0.64382 0.0
H1040 H 0.7073 0.79075 0.60777 0.0
H1041 H 0.64586 0.82265 0.65693 0.0
H1042 H 0.65836 0.78861 0.69318 0.0
H1043 H 0.79379 0.75073 0.78632 0.0
H1044 H 0.76831 0.73089 0.75109 0.0
H1045 H 0.69788 0.77683 0.77188 0.0
H1046 H 0.72341 0.7969 0.80725 0.0
H1047 H 0.70837 0.78115 0.71848 0.0
H1048 H 0.69846 0.70907 0.78605 0.0
H1049 H 0.71309 0.67553 0.8218 0.0
H1050 H 0.76379 0.63551 0.7675 0.0
H1051 H 0.7498 0.66906 0.73149 0.0
C1052 C 0.65865 0.70446 0.62809 0.0
C1053 C 0.67692 0.68689 0.61626 0.0
C1054 C 0.66494 0.71539 0.65211 0.0
C1055 C 0.68973 0.7092 0.66449 0.0
C1056 C 0.70798 0.69178 0.65265 0.0
C1057 C 0.70165 0.68071 0.62884 0.0
C1058 C 0.6971 0.72076 0.68975 0.0
C1059 C 0.70513 0.70243 0.71084 0.0
C1060 C 0.6975 0.74947 0.69281 0.0
C1061 C 0.69006 0.76995 0.67107 0.0
C1062 C 0.70392 0.7709 0.64686 0.0
C1063 C 0.69666 0.79019 0.62641 0.0
C1064 C 0.67571 0.80879 0.63002 0.0
C1065 C 0.66204 0.80819 0.65414 0.0
C1066 C 0.66921 0.78892 0.67464 0.0
C1067 C 0.77281 0.75643 0.7835 0.0
C1068 C 0.76057 0.77527 0.79946 0.0
C1069 C 0.75825 0.74501 0.76348 0.0
C1070 C 0.73113 0.75216 0.75912 0.0
C1071 C 0.71876 0.77098 0.77507 0.0
C1072 C 0.73335 0.78236 0.79525 0.0
C1073 C 0.71638 0.74079 0.73701 0.0
C1074 C 0.70684 0.75911 0.71657 0.0
C1075 C 0.71475 0.71205 0.73447 0.0
C1076 C 0.72317 0.69172 0.75607 0.0
C1077 C 0.71288 0.69325 0.78176 0.0
C1078 C 0.72104 0.6742 0.80207 0.0
C1079 C 0.73938 0.65342 0.79693 0.0
C1080 C 0.74958 0.65162 0.77145 0.0
C1081 C 0.74151 0.67062 0.75107 0.0
H1082 H 0.74568 0.6387 0.81269 0.0
H1083 H 0.67011 0.82371 0.61417 0.0
H1084 H 0.84936 0.16174 0.13919 0.0
H1085 H 0.83871 0.18416 0.17955 0.0
H1086 H 0.82042 0.25965 0.13322 0.0
H1087 H 0.8327 0.23757 0.09283 0.0
H1088 H 0.84093 0.27158 0.17873 0.0
H1089 H 0.77073 0.21065 0.15169 0.0
H1090 H 0.75246 0.16618 0.13917 0.0
H1091 H 0.77523 0.12808 0.21467 0.0
H1092 H 0.79404 0.17224 0.22748 0.0
H1093 H 0.71919 0.28468 0.2743 0.0
H1094 H 0.74071 0.26701 0.23569 0.0
H1095 H 0.81888 0.27612 0.27141 0.0
H1096 H 0.79735 0.29444 0.31006 0.0
H1097 H 0.76941 0.22225 0.23156 0.0
H1098 H 0.86567 0.28925 0.22204 0.0
H1099 H 0.88106 0.33573 0.23185 0.0
H1100 H 0.79975 0.36579 0.2252 0.0
H1101 H 0.78395 0.3196 0.21502 0.0
C1102 C 0.84359 0.18329 0.13775 0.0
C1103 C 0.84146 0.19794 0.11304 0.0
C1104 C 0.83743 0.19605 0.16075 0.0
C1105 C 0.82798 0.22333 0.15933 0.0
C1106 C 0.82751 0.23853 0.13476 0.0
C1107 C 0.83444 0.22594 0.11173 0.0
C1108 C 0.81627 0.23506 0.18299 0.0
C1109 C 0.82538 0.26077 0.19036 0.0
C1110 C 0.79564 0.22115 0.19794 0.0
C1111 C 0.78396 0.19468 0.19045 0.0
C1112 C 0.77194 0.19275 0.16557 0.0
C1113 C 0.76152 0.1676 0.15842 0.0
C1114 C 0.76277 0.1443 0.17609 0.0
C1115 C 0.77435 0.14613 0.20099 0.0
C1116 C 0.78487 0.17121 0.20821 0.0
C1117 C 0.74096 0.283 0.27395 0.0
C1118 C 0.75667 0.29084 0.29519 0.0
C1119 C 0.75323 0.27286 0.25187 0.0
C1120 C 0.78139 0.27038 0.25061 0.0
C1121 C 0.79714 0.27822 0.27181 0.0
C1122 C 0.78485 0.28853 0.29389 0.0
C1123 C 0.794 0.25882 0.22732 0.0
C1124 C 0.7851 0.23303 0.22007 0.0
C1125 C 0.81431 0.27298 0.21219 0.0
C1126 C 0.82361 0.3009 0.21807 0.0
C1127 C 0.8511 0.30581 0.2226 0.0
C1128 C 0.85989 0.3321 0.22823 0.0
C1129 C 0.84138 0.35368 0.22924 0.0
C1130 C 0.81405 0.34903 0.22452 0.0
C1131 C 0.80516 0.32279 0.21886 0.0
H1132 H 0.84822 0.37401 0.23361 0.0
H1133 H 0.7547 0.12485 0.17052 0.0
H1134 H 0.30571 0.30801 0.58761 0.0
H1135 H 0.27328 0.28721 0.61917 0.0
H1136 H 0.20913 0.30332 0.56278 0.0
H1137 H 0.24147 0.32544 0.5315 0.0
H1138 H 0.19144 0.31092 0.61058 0.0
H1139 H 0.24067 0.23845 0.57173 0.0
H1140 H 0.28165 0.21399 0.55872 0.0
H1141 H 0.30596 0.20299 0.63991 0.0
H1142 H 0.26526 0.22763 0.65338 0.0
H1143 H 0.1015 0.20939 0.67025 0.0
H1144 H 0.13073 0.23744 0.64023 0.0
H1145 H 0.19649 0.22597 0.69555 0.0
H1146 H 0.1675 0.19746 0.72532 0.0
H1147 H 0.21234 0.21615 0.6474 0.0
H1148 H 0.16242 0.28802 0.68627 0.0
H1149 H 0.12146 0.31262 0.69904 0.0
H1150 H 0.09803 0.32442 0.61766 0.0
H1151 H 0.13869 0.29956 0.60441 0.0
C1152 C 0.28465 0.30729 0.58202 0.0
C1153 C 0.27611 0.31799 0.557 0.0
C1154 C 0.26615 0.29531 0.60002 0.0
C1155 C 0.23888 0.29298 0.59307 0.0
C1156 C 0.2301 0.30471 0.5685 0.0
C1157 C 0.24857 0.31729 0.55064 0.0
C1158 C 0.21986 0.27737 0.61105 0.0
C1159 C 0.19582 0.29006 0.61837 0.0
C1160 C 0.22577 0.2503 0.62156 0.0
C1161 C 0.25002 0.23504 0.61353 0.0
C1162 C 0.25481 0.2309 0.58679 0.0
C1163 C 0.27798 0.217 0.57934 0.0
C1164 C 0.29641 0.20698 0.59847 0.0
C1165 C 0.29167 0.21076 0.62511 0.0
C1166 C 0.26853 0.22465 0.63267 0.0
C1167 C 0.12212 0.21304 0.67607 0.0
C1168 C 0.13233 0.20129 0.70009 0.0
C1169 C 0.13877 0.22918 0.65897 0.0
C1170 C 0.16574 0.234 0.66575 0.0
C1171 C 0.17576 0.22252 0.68991 0.0
C1172 C 0.1592 0.20631 0.70691 0.0
C1173 C 0.18403 0.24978 0.64719 0.0
C1174 C 0.20792 0.23702 0.63964 0.0
C1175 C 0.17789 0.27669 0.63645 0.0
C1176 C 0.15346 0.29169 0.64438 0.0
C1177 C 0.14842 0.29566 0.67111 0.0
C1178 C 0.12528 0.30969 0.67844 0.0
C1179 C 0.10712 0.32001 0.65918 0.0
C1180 C 0.1121 0.31639 0.63255 0.0
C1181 C 0.1352 0.30235 0.62513 0.0
H1182 H 0.08922 0.33087 0.66489 0.0
H1183 H 0.31436 0.19626 0.59266 0.0
H1184 H 0.70975 0.72829 0.51588 0.0
H1185 H 0.74353 0.75284 0.48837 0.0
H1186 H 0.76443 0.67706 0.45359 0.0
H1187 H 0.73167 0.6521 0.48241 0.0
H1188 H 0.80773 0.70342 0.46048 0.0
H1189 H 0.72331 0.73003 0.42134 0.0
H1190 H 0.67662 0.74759 0.42006 0.0
H1191 H 0.70397 0.82521 0.44564 0.0
H1192 H 0.75078 0.80801 0.44738 0.0
H1193 H 0.87709 0.77382 0.35179 0.0
H1194 H 0.84489 0.74614 0.37884 0.0
H1195 H 0.82978 0.81543 0.42552 0.0
H1196 H 0.8618 0.84331 0.39835 0.0
H1197 H 0.78324 0.79095 0.41024 0.0
H1198 H 0.86868 0.76156 0.44926 0.0
H1199 H 0.91476 0.74258 0.44809 0.0
H1200 H 0.884 0.66803 0.41865 0.0
H1201 H 0.83776 0.68672 0.41934 0.0
C1202 C 0.72158 0.71689 0.50236 0.0
C1203 C 0.71801 0.68837 0.5011 0.0
C1204 C 0.74077 0.73096 0.4865 0.0
C1205 C 0.75609 0.71699 0.46832 0.0
C1206 C 0.7528 0.68835 0.46734 0.0
C1207 C 0.73407 0.67411 0.48376 0.0
C1208 C 0.77567 0.73227 0.45059 0.0
C1209 C 0.8022 0.72232 0.44919 0.0
C1210 C 0.76865 0.75713 0.43597 0.0
C1211 C 0.74054 0.76765 0.43467 0.0
C1212 C 0.71935 0.7508 0.42682 0.0
C1213 C 0.69287 0.76069 0.426 0.0
C1214 C 0.68733 0.78748 0.43281 0.0
C1215 C 0.70829 0.80446 0.44038 0.0
C1216 C 0.7348 0.79467 0.44125 0.0
C1217 C 0.86703 0.78311 0.3679 0.0
C1218 C 0.87194 0.81072 0.37306 0.0
C1219 C 0.8487 0.76724 0.38338 0.0
C1220 C 0.8351 0.77868 0.4043 0.0
C1221 C 0.84006 0.80622 0.40947 0.0
C1222 C 0.85839 0.82207 0.39403 0.0
C1223 C 0.8152 0.76224 0.42048 0.0
C1224 C 0.78862 0.77196 0.42149 0.0
C1225 C 0.82203 0.73695 0.4343 0.0
C1226 C 0.84981 0.72565 0.43413 0.0
C1227 C 0.87177 0.7412 0.44237 0.0
C1228 C 0.89791 0.73048 0.44183 0.0
C1229 C 0.90231 0.70414 0.43324 0.0
C1230 C 0.88057 0.68844 0.42527 0.0
C1231 C 0.85439 0.69907 0.42576 0.0
H1232 H 0.92257 0.69588 0.43282 0.0
H1233 H 0.66681 0.7951 0.43218 0.0
H1234 H 0.75503 0.17092 0.02168 0.0
H1235 H 0.72016 0.18895 0.99103 0.0
H1236 H 0.78143 0.22854 0.94134 0.0
H1237 H 0.81613 0.21141 0.97206 0.0
H1238 H 0.74132 0.26209 0.94552 0.0
H1239 H 0.75071 0.16692 0.92703 0.0
H1240 H 0.75132 0.11669 0.93798 0.0
H1241 H 0.66855 0.11935 0.9626 0.0
H1242 H 0.66758 0.16968 0.95216 0.0
H1243 H 0.67937 0.28177 0.82164 0.0
H1244 H 0.70693 0.26062 0.85749 0.0
H1245 H 0.63556 0.24562 0.90487 0.0
H1246 H 0.60777 0.26707 0.86903 0.0
H1247 H 0.67614 0.19993 0.90516 0.0
H1248 H 0.66813 0.29695 0.91925 0.0
H1249 H 0.66995 0.34652 0.90531 0.0
H1250 H 0.75366 0.33895 0.88537 0.0
H1251 H 0.75222 0.28924 0.89881 0.0
C1252 C 0.76104 0.18359 0.00429 0.0
C1253 C 0.78838 0.18974 -0.00063 0.0
C1254 C 0.7411 0.19376 0.98672 0.0
C1255 C 0.74821 0.20985 0.96372 0.0
C1256 C 0.77544 0.21625 0.95899 0.0
C1257 C 0.79529 0.2064 0.97662 0.0
C1258 C 0.7275 0.22015 0.94439 0.0
C1259 C 0.7272 0.24841 0.93664 0.0
C1260 C 0.70871 0.20241 0.93308 0.0
C1261 C 0.70916 0.17211 0.93911 0.0
C1262 C 0.7327 0.15682 0.93496 0.0
C1263 C 0.7331 0.12833 0.94105 0.0
C1264 C 0.71002 0.11486 0.95106 0.0
C1265 C 0.68644 0.12983 0.9549 0.0
C1266 C 0.68594 0.15833 0.94889 0.0
C1267 C 0.66953 0.27371 0.8396 0.0
C1268 C 0.64155 0.27621 0.84268 0.0
C1269 C 0.68526 0.26166 0.86001 0.0
C1270 C 0.67324 0.25178 0.88381 0.0
C1271 C 0.64513 0.25316 0.8866 0.0
C1272 C 0.62935 0.26549 0.86619 0.0
C1273 C 0.69046 0.24164 0.90616 0.0
C1274 C 0.69008 0.21351 0.91441 0.0
C1275 C 0.70902 0.25936 0.91763 0.0
C1276 C 0.71 0.28933 0.90986 0.0
C1277 C 0.68687 0.30582 0.91171 0.0
C1278 C 0.68784 0.33395 0.90393 0.0
C1279 C 0.71189 0.34587 0.89442 0.0
C1280 C 0.73504 0.32969 0.89273 0.0
C1281 C 0.73416 0.30155 0.90046 0.0
H1282 H 0.7126 0.36765 0.88839 0.0
H1283 H 0.71038 0.09281 0.95577 0.0
H1284 H 0.33641 0.26624 0.45141 0.0
H1285 H 0.32808 0.2421 0.41147 0.0
H1286 H 0.27777 0.30929 0.38093 0.0
H1287 H 0.28552 0.33331 0.42073 0.0
H1288 H 0.2554 0.26063 0.37265 0.0
H1289 H 0.34273 0.30326 0.36067 0.0
H1290 H 0.38964 0.31279 0.37336 0.0
H1291 H 0.4091 0.22691 0.37117 0.0
H1292 H 0.36216 0.21681 0.35885 0.0
H1293 H 0.2489 0.2414 0.23752 0.0
H1294 H 0.2603 0.26068 0.27923 0.0
H1295 H 0.30703 0.18811 0.30217 0.0
H1296 H 0.29597 0.16879 0.26008 0.0
H1297 H 0.33195 0.23564 0.31595 0.0
H1298 H 0.24432 0.19391 0.32563 0.0
H1299 H 0.19721 0.18535 0.31298 0.0
H1300 H 0.17835 0.27085 0.31933 0.0
H1301 H 0.22545 0.28 0.33167 0.0
C1302 C 0.32337 0.27578 0.43631 0.0
C1303 C 0.31173 0.30179 0.43928 0.0
C1304 C 0.31877 0.26201 0.41344 0.0
C1305 C 0.3026 0.27409 0.39312 0.0
C1306 C 0.29036 0.29963 0.39636 0.0
C1307 C 0.29488 0.31336 0.41916 0.0
C1308 C 0.29859 0.26051 0.36819 0.0
C1309 C 0.27213 0.25537 0.36015 0.0
C1310 C 0.32049 0.25312 0.35221 0.0
C1311 C 0.34885 0.25923 0.35911 0.0
C1312 C 0.35697 0.28638 0.36306 0.0
C1313 C 0.38356 0.29189 0.37017 0.0
C1314 C 0.40232 0.27046 0.37316 0.0
C1315 C 0.39453 0.24349 0.3689 0.0
C1316 C 0.36794 0.23786 0.36184 0.0
C1317 C 0.26172 0.22959 0.25135 0.0
C1318 C 0.27131 0.20342 0.24576 0.0
C1319 C 0.2682 0.24062 0.27519 0.0
C1320 C 0.28411 0.2256 0.29397 0.0
C1321 C 0.29462 0.19996 0.28798 0.0
C1322 C 0.28824 0.18895 0.26403 0.0
C1323 C 0.28872 0.23623 0.32024 0.0
C1324 C 0.31526 0.24073 0.32855 0.0
C1325 C 0.2669 0.2432 0.33648 0.0
C1326 C 0.23846 0.23767 0.32938 0.0
C1327 C 0.23016 0.21092 0.32418 0.0
C1328 C 0.20346 0.20596 0.31708 0.0
C1329 C 0.18481 0.22755 0.3153 0.0
C1330 C 0.19282 0.25414 0.3207 0.0
C1331 C 0.21951 0.25922 0.32777 0.0
H1332 H 0.16415 0.22367 0.30979 0.0
H1333 H 0.42289 0.27476 0.3787 0.0
H1334 H 0.21273 0.84372 0.91295 0.0
H1335 H 0.22124 0.82887 0.86896 0.0
H1336 H 0.16444 0.76226 0.88265 0.0
H1337 H 0.15559 0.77701 0.9271 0.0
H1338 H 0.21321 0.74687 0.85885 0.0
H1339 H 0.14446 0.81472 0.84526 0.0
H1340 H 0.12233 0.85946 0.85038 0.0
H1341 H 0.18909 0.90155 0.81178 0.0
H1342 H 0.21183 0.85706 0.80676 0.0
H1343 H 0.22157 0.71865 0.72378 0.0
H1344 H 0.2019 0.73028 0.76575 0.0
H1345 H 0.2508 0.80378 0.76428 0.0
H1346 H 0.27037 0.79239 0.72205 0.0
H1347 H 0.19954 0.81327 0.78128 0.0
H1348 H 0.27023 0.74626 0.79991 0.0
H1349 H 0.29346 0.70184 0.79617 0.0
H1350 H 0.22326 0.65848 0.82619 0.0
H1351 H 0.19947 0.70268 0.82977 0.0
C1352 C 0.20209 0.82578 0.90683 0.0
C1353 C 0.18338 0.81161 0.92361 0.0
C1354 C 0.2069 0.81744 0.88156 0.0
C1355 C 0.19315 0.79476 0.87248 0.0
C1356 C 0.17509 0.77994 0.88933 0.0
C1357 C 0.17009 0.7884 0.91468 0.0
C1358 C 0.19795 0.78681 0.8453 0.0
C1359 C 0.20968 0.7611 0.84179 0.0
C1360 C 0.19372 0.80567 0.82321 0.0
C1361 C 0.17994 0.83252 0.82578 0.0
C1362 C 0.15452 0.83352 0.83801 0.0
C1363 C 0.14185 0.85884 0.84087 0.0
C1364 C 0.15432 0.88333 0.83144 0.0
C1365 C 0.17946 0.88255 0.81907 0.0
C1366 C 0.19223 0.85728 0.81617 0.0
C1367 C 0.22797 0.73741 0.73226 0.0
C1368 C 0.24765 0.75458 0.7198 0.0
C1369 C 0.21674 0.74399 0.75626 0.0
C1370 C 0.22513 0.76772 0.76825 0.0
C1371 C 0.24405 0.78538 0.75535 0.0
C1372 C 0.25527 0.77882 0.73133 0.0
C1373 C 0.21526 0.77348 0.79486 0.0
C1374 C 0.20263 0.79883 0.79826 0.0
C1375 C 0.21867 0.75429 0.81687 0.0
C1376 C 0.23297 0.72774 0.81481 0.0
C1377 C 0.25967 0.72724 0.8055 0.0
C1378 C 0.27296 0.70211 0.80345 0.0
C1379 C 0.25982 0.67735 0.81086 0.0
C1380 C 0.23339 0.67768 0.82041 0.0
C1381 C 0.22 0.70275 0.82247 0.0
H1382 H 0.27014 0.65792 0.80926 0.0
H1383 H 0.14446 0.90291 0.83366 0.0
loop_
_geom_bond_atom_site_label_1
_geom_bond_atom_site_label_2
_geom_bond_distance
_geom_bond_site_symmetry_2
_ccdc_geom_bond_type
Sc0 O3 2.025 . S
Sc0 O10 2.105 1_554 S
Sc0 O13 2.105 . S
Sc0 O16 2.105 . S
Sc0 O19 2.105 1_554 S
Sc1 O3 2.025 . S
Sc1 O11 2.105 1_554 S
Sc1 O15 2.105 . S
Sc1 O17 2.105 . S
Sc1 O21 2.105 1_554 S
Sc2 O3 2.025 1_556 S
Sc2 O12 2.105 . S
Sc2 O14 2.105 1_556 S
Sc2 O18 2.105 1_556 S
Sc2 O20 2.105 . S
O3 Sc0 2.025 . S
O3 Sc1 2.025 . S
O3 Sc2 2.025 1_554 S
C4 O10 1.268 . S
C4 O20 1.268 . S
C5 O11 1.268 . S
C5 O19 1.268 . S
C6 O12 1.268 . S
C6 O21 1.268 . S
C7 O13 1.268 . S
C7 O17 1.268 . S
C8 O14 1.268 . S
C8 O16 1.268 . S
C9 O15 1.268 . S
C9 O18 1.268 . S
O10 Sc0 2.105 1_556 S
O10 C4 1.268 . S
O11 Sc1 2.105 1_556 S
O11 C5 1.268 . S
O12 Sc2 2.105 . S
O12 C6 1.268 . S
O13 Sc0 2.105 . S
O13 C7 1.268 . S
O14 Sc2 2.105 1_554 S
O14 C8 1.268 . S
O15 Sc1 2.105 . S
O15 C9 1.268 . S
O16 Sc0 2.105 . S
O16 C8 1.268 . S
O17 Sc1 2.105 . S
O17 C7 1.268 . S
O18 Sc2 2.105 1_554 S
O18 C9 1.268 . S
O19 Sc0 2.105 1_556 S
O19 C5 1.268 . S
O20 Sc2 2.105 . S
O20 C4 1.268 . S
O21 Sc1 2.105 1_556 S
O21 C6 1.268 . S
Sc22 O25 2.025 . S
Sc22 O32 2.105 . S
Sc22 O35 2.105 . S
Sc22 O38 2.105 . S
Sc22 O41 2.105 . S
Sc23 O25 2.025 . S
Sc23 O33 2.105 . S
Sc23 O37 2.105 . S
Sc23 O39 2.105 . S
Sc23 O43 2.105 . S
Sc24 O25 2.025 . S
Sc24 O34 2.105 . S
Sc24 O36 2.105 . S
Sc24 O40 2.105 . S
Sc24 O42 2.105 . S
O25 Sc22 2.025 . S
O25 Sc23 2.025 . S
O25 Sc24 2.025 . S
C26 O32 1.268 . S
C26 O42 1.268 . S
C27 O33 1.268 . S
C27 O41 1.268 . S
C28 O34 1.268 . S
C28 O43 1.268 . S
C29 O35 1.268 . S
C29 O39 1.268 . S
C30 O36 1.268 . S
C30 O38 1.268 . S
C31 O37 1.268 . S
C31 O40 1.268 . S
O32 Sc22 2.105 . S
O32 C26 1.268 . S
O33 Sc23 2.105 . S
O33 C27 1.268 . S
O34 Sc24 2.105 . S
O34 C28 1.268 . S
O35 Sc22 2.105 . S
O35 C29 1.268 . S
O36 Sc24 2.105 . S
O36 C30 1.268 . S
O37 Sc23 2.105 . S
O37 C31 1.268 . S
O38 Sc22 2.105 . S
O38 C30 1.268 . S
O39 Sc23 2.105 . S
O39 C29 1.268 . S
O40 Sc24 2.105 . S
O40 C31 1.268 . S
O41 Sc22 2.105 . S
O41 C27 1.268 . S
O42 Sc24 2.105 . S
O42 C26 1.268 . S
O43 Sc23 2.105 . S
O43 C28 1.268 . S
Sc44 O47 2.025 . S
Sc44 O54 2.105 1_554 S
Sc44 O57 2.105 . S
Sc44 O60 2.105 . S
Sc44 O63 2.105 . S
Sc45 O47 2.025 . S
Sc45 O55 2.105 . S
Sc45 O59 2.105 . S
Sc45 O61 2.105 . S
Sc45 O65 2.105 . S
Sc46 O47 2.025 . S
Sc46 O56 2.105 . S
Sc46 O58 2.105 . S
Sc46 O62 2.105 . S
Sc46 O64 2.105 1_554 S
O47 Sc44 2.025 . S
O47 Sc45 2.025 . S
O47 Sc46 2.025 . S
C48 O54 1.268 . S
C48 O64 1.268 . S
C49 O55 1.268 . S
C49 O63 1.268 . S
C50 O56 1.268 . S
C50 O65 1.268 . S
C51 O57 1.268 . S
C51 O61 1.268 . S
C52 O58 1.268 . S
C52 O60 1.268 . S
C53 O59 1.268 . S
C53 O62 1.268 . S
O54 Sc44 2.105 1_556 S
O54 C48 1.268 . S
O55 Sc45 2.105 . S
O55 C49 1.268 . S
O56 Sc46 2.105 . S
O56 C50 1.268 . S
O57 Sc44 2.105 . S
O57 C51 1.268 . S
O58 Sc46 2.105 . S
O58 C52 1.268 . S
O59 Sc45 2.105 . S
O59 C53 1.268 . S
O60 Sc44 2.105 . S
O60 C52 1.268 . S
O61 Sc45 2.105 . S
O61 C51 1.268 . S
O62 Sc46 2.105 . S
O62 C53 1.268 . S
O63 Sc44 2.105 . S
O63 C49 1.268 . S
O64 Sc46 2.105 1_556 S
O64 C48 1.268 . S
O65 Sc45 2.105 . S
O65 C50 1.268 . S
Sc66 O69 2.025 . S
Sc66 O76 2.105 . S
Sc66 O79 2.105 . S
Sc66 O82 2.105 . S
Sc66 O85 2.105 . S
Sc67 O69 2.025 . S
Sc67 O77 2.105 . S
Sc67 O81 2.105 . S
Sc67 O83 2.105 . S
Sc67 O87 2.105 . S
Sc68 O69 2.025 . S
Sc68 O78 2.105 . S
Sc68 O80 2.105 . S
Sc68 O84 2.105 . S
Sc68 O86 2.105 . S
O69 Sc66 2.025 . S
O69 Sc67 2.025 . S
O69 Sc68 2.025 . S
C70 O76 1.268 . S
C70 O86 1.268 . S
C71 O77 1.268 . S
C71 O85 1.268 . S
C72 O78 1.268 . S
C72 O87 1.268 . S
C73 O79 1.268 . S
C73 O83 1.268 . S
C74 O80 1.268 . S
C74 O82 1.268 . S
C75 O81 1.268 . S
C75 O84 1.268 . S
O76 Sc66 2.105 . S
O76 C70 1.268 . S
O77 Sc67 2.105 . S
O77 C71 1.268 . S
O78 Sc68 2.105 . S
O78 C72 1.268 . S
O79 Sc66 2.105 . S
O79 C73 1.268 . S
O80 Sc68 2.105 . S
O80 C74 1.268 . S
O81 Sc67 2.105 . S
O81 C75 1.268 . S
O82 Sc66 2.105 . S
O82 C74 1.268 . S
O83 Sc67 2.105 . S
O83 C73 1.268 . S
O84 Sc68 2.105 . S
O84 C75 1.268 . S
O85 Sc66 2.105 . S
O85 C71 1.268 . S
O86 Sc68 2.105 . S
O86 C70 1.268 . S
O87 Sc67 2.105 . S
O87 C72 1.268 . S
H88 C93 0.930 . S
H89 C96 0.930 . S
H90 C98 0.930 . S
H91 C92 1.016 . S
C92 H91 1.016 . S
C92 N99 1.286 . S
C93 H88 0.930 . S
C93 C94 1.397 . S
C93 C95 1.361 . S
C94 C93 1.397 . S
C94 C98 1.390 . S
C95 C93 1.361 . S
C95 C96 1.393 . S
C95 N99 1.413 . S
C96 H89 0.930 . S
C96 C95 1.393 . S
C96 C97 1.399 . S
C97 C96 1.399 . S
C97 C98 1.381 . S
C98 H90 0.930 . S
C98 C94 1.390 . S
C98 C97 1.381 . S
N99 C92 1.286 . S
N99 C95 1.413 . S
H100 C105 0.930 . S
H101 C108 0.930 . S
H102 C110 0.930 . S
H103 C104 1.016 . S
C104 H103 1.016 . S
C104 N111 1.286 . S
C105 H100 0.930 . S
C105 C106 1.397 . S
C105 C107 1.361 . S
C106 C105 1.397 . S
C106 C110 1.390 . S
C107 C105 1.361 . S
C107 C108 1.393 . S
C107 N111 1.413 . S
C108 H101 0.930 . S
C108 C107 1.393 . S
C108 C109 1.399 . S
C109 C108 1.399 . S
C109 C110 1.381 . S
C110 H102 0.930 . S
C110 C106 1.390 . S
C110 C109 1.381 . S
N111 C104 1.286 . S
N111 C107 1.413 . S
H112 C117 0.930 . S
H113 C120 0.930 . S
H114 C122 0.930 . S
H115 C116 1.016 . S
C116 H115 1.016 . S
C116 N123 1.286 . S
C117 H112 0.930 . S
C117 C118 1.397 . S
C117 C119 1.361 . S
C118 C117 1.397 . S
C118 C122 1.390 . S
C119 C117 1.361 . S
C119 C120 1.393 . S
C119 N123 1.413 . S
C120 H113 0.930 . S
C120 C119 1.393 . S
C120 C121 1.399 . S
C121 C120 1.399 . S
C121 C122 1.381 . S
C122 H114 0.930 . S
C122 C118 1.390 . S
C122 C121 1.381 . S
N123 C116 1.286 . S
N123 C119 1.413 . S
H124 C129 0.930 . S
H125 C132 0.930 . S
H126 C134 0.930 . S
H127 C128 1.016 . S
C128 H127 1.016 . S
C128 N135 1.286 . S
C129 H124 0.930 . S
C129 C130 1.397 . S
C129 C131 1.361 . S
C130 C129 1.397 . S
C130 C134 1.390 . S
C131 C129 1.361 . S
C131 C132 1.393 . S
C131 N135 1.413 . S
C132 H125 0.930 . S
C132 C131 1.393 . S
C132 C133 1.399 . S
C133 C132 1.399 . S
C133 C134 1.381 . S
C134 H126 0.930 . S
C134 C130 1.390 . S
C134 C133 1.381 . S
N135 C128 1.286 . S
N135 C131 1.413 . S
H136 C141 0.930 . S
H137 C144 0.930 . S
H138 C146 0.930 . S
H139 C140 1.016 . S
C140 H139 1.016 . S
C140 N147 1.286 . S
C141 H136 0.930 . S
C141 C142 1.397 . S
C141 C143 1.361 . S
C142 C141 1.397 . S
C142 C146 1.390 . S
C143 C141 1.361 . S
C143 C144 1.393 . S
C143 N147 1.413 . S
C144 H137 0.930 . S
C144 C143 1.393 . S
C144 C145 1.399 . S
C145 C144 1.399 . S
C145 C146 1.381 . S
C146 H138 0.930 . S
C146 C142 1.390 . S
C146 C145 1.381 . S
N147 C140 1.286 . S
N147 C143 1.413 . S
H148 C153 0.930 . S
H149 C156 0.930 . S
H150 C158 0.930 . S
H151 C152 1.016 . S
C152 H151 1.016 . S
C152 N159 1.286 . S
C153 H148 0.930 . S
C153 C154 1.397 . S
C153 C155 1.361 . S
C154 C153 1.397 . S
C154 C158 1.390 . S
C155 C153 1.361 . S
C155 C156 1.393 . S
C155 N159 1.413 . S
C156 H149 0.930 . S
C156 C155 1.393 . S
C156 C157 1.399 . S
C157 C156 1.399 . S
C157 C158 1.381 . S
C158 H150 0.930 . S
C158 C154 1.390 . S
C158 C157 1.381 . S
N159 C152 1.286 . S
N159 C155 1.413 . S
H160 C165 0.930 . S
H161 C168 0.930 . S
H162 C170 0.930 . S
H163 C164 1.016 . S
C164 H163 1.016 . S
C164 N171 1.286 . S
C165 H160 0.930 . S
C165 C166 1.397 . S
C165 C167 1.361 . S
C166 C165 1.397 . S
C166 C170 1.390 . S
C167 C165 1.361 . S
C167 C168 1.393 . S
C167 N171 1.413 . S
C168 H161 0.930 . S
C168 C167 1.393 . S
C168 C169 1.399 . S
C169 C168 1.399 . S
C169 C170 1.381 . S
C170 H162 0.930 . S
C170 C166 1.390 . S
C170 C169 1.381 . S
N171 C164 1.286 . S
N171 C167 1.413 . S
H172 C177 0.930 . S
H173 C180 0.930 . S
H174 C182 0.930 . S
H175 C176 1.016 . S
C176 H175 1.016 . S
C176 N183 1.286 . S
C177 H172 0.930 . S
C177 C178 1.397 . S
C177 C179 1.361 . S
C178 C177 1.397 . S
C178 C182 1.390 . S
C179 C177 1.361 . S
C179 C180 1.393 . S
C179 N183 1.413 . S
C180 H173 0.930 . S
C180 C179 1.393 . S
C180 C181 1.399 . S
C181 C180 1.399 . S
C181 C182 1.381 . S
C182 H174 0.930 . S
C182 C178 1.390 . S
C182 C181 1.381 . S
N183 C176 1.286 . S
N183 C179 1.413 . S
H184 C202 0.951 . S
H185 C204 0.951 1_545 S
H186 C206 0.950 . S
H187 C207 0.950 . S
H188 C209 0.950 . S
H189 C212 0.950 . S
H190 C213 0.950 . S
H191 C215 0.950 . S
H192 C216 0.950 . S
H193 C217 0.951 . S
H194 C219 0.951 . S
H195 C221 0.950 . S
H196 C222 0.950 . S
H197 C224 0.950 . S
H198 C227 0.950 . S
H199 C228 0.950 . S
H200 C230 0.950 . S
H201 C231 0.950 . S
C202 H184 0.951 . S
C202 C203 1.366 . S
C202 C204 1.388 . S
C203 C202 1.366 . S
C203 C207 1.385 . S
C204 H185 0.951 1_565 S
C204 C202 1.388 . S
C204 C205 1.366 . S
C205 C204 1.366 . S
C205 C206 1.414 . S
C205 C208 1.499 1_565 S
C206 H186 0.950 . S
C206 C205 1.414 . S
C206 C207 1.374 . S
C207 H187 0.950 . S
C207 C203 1.385 . S
C207 C206 1.374 . S
C208 C205 1.499 1_545 S
C208 C209 1.373 . S
C208 C210 1.389 . S
C209 H188 0.950 . S
C209 C208 1.373 . S
C209 C225 1.377 . S
C210 C208 1.389 . S
C210 C211 1.524 . S
C210 C224 1.377 . S
C211 C210 1.524 . S
C211 C212 1.397 1_545 S
C211 C216 1.363 . S
C212 H189 0.950 . S
C212 C211 1.397 1_565 S
C212 C213 1.334 . S
C213 H190 0.950 . S
C213 C212 1.334 . S
C213 C214 1.298 . S
C214 C213 1.298 . S
C214 C215 1.508 1_565 S
C214 H233 0.920 . S
C215 H191 0.950 . S
C215 C214 1.508 1_545 S
C215 C216 1.415 . S
C216 H192 0.950 . S
C216 C211 1.363 . S
C216 C215 1.415 . S
C217 H193 0.951 . S
C217 C218 1.366 . S
C217 C219 1.388 . S
C218 C217 1.366 . S
C218 C222 1.385 . S
C219 H194 0.951 . S
C219 C217 1.388 . S
C219 C220 1.366 . S
C220 C219 1.366 . S
C220 C221 1.414 . S
C220 C223 1.499 . S
C221 H195 0.950 . S
C221 C220 1.414 . S
C221 C222 1.374 . S
C222 H196 0.950 . S
C222 C218 1.385 . S
C222 C221 1.374 . S
C223 C220 1.499 . S
C223 C224 1.373 . S
C223 C225 1.389 . S
C224 H197 0.950 . S
C224 C210 1.377 . S
C224 C223 1.373 . S
C225 C209 1.377 . S
C225 C223 1.389 . S
C225 C226 1.524 . S
C226 C225 1.524 . S
C226 C227 1.397 . S
C226 C231 1.363 . S
C227 H198 0.950 . S
C227 C226 1.397 . S
C227 C228 1.334 . S
C228 H199 0.950 . S
C228 C227 1.334 . S
C228 C229 1.287 . S
C229 C228 1.287 . S
C229 C230 1.524 . S
C229 H232 0.999 . S
C230 H200 0.950 . S
C230 C229 1.524 . S
C230 C231 1.415 . S
C231 H201 0.950 . S
C231 C226 1.363 . S
C231 C230 1.415 . S
H232 C229 0.999 . S
H233 C214 0.920 . S
H234 C252 0.951 . S
H235 C254 0.951 . S
H236 C256 0.950 . S
H237 C257 0.950 . S
H238 C259 0.950 . S
H239 C262 0.950 . S
H240 C263 0.950 . S
H241 C265 0.950 . S
H242 C266 0.950 . S
H243 C267 0.951 . S
H244 C269 0.951 . S
H245 C271 0.950 . S
H246 C272 0.950 . S
H247 C274 0.950 . S
H248 C277 0.950 . S
H249 C278 0.950 . S
H250 C280 0.950 . S
H251 C281 0.950 . S
C252 H234 0.951 . S
C252 C253 1.366 . S
C252 C254 1.388 . S
C253 C252 1.366 . S
C253 C257 1.385 . S
C254 H235 0.951 . S
C254 C252 1.388 . S
C254 C255 1.366 . S
C255 C254 1.366 . S
C255 C256 1.414 . S
C255 C258 1.499 . S
C256 H236 0.950 . S
C256 C255 1.414 . S
C256 C257 1.374 . S
C257 H237 0.950 . S
C257 C253 1.385 . S
C257 C256 1.374 . S
C258 C255 1.499 . S
C258 C259 1.373 . S
C258 C260 1.389 . S
C259 H238 0.950 . S
C259 C258 1.373 . S
C259 C275 1.377 . S
C260 C258 1.389 . S
C260 C261 1.524 . S
C260 C274 1.377 . S
C261 C260 1.524 . S
C261 C262 1.397 . S
C261 C266 1.363 . S
C262 H239 0.950 . S
C262 C261 1.397 . S
C262 C263 1.334 . S
C263 H240 0.950 . S
C263 C262 1.334 . S
C263 C264 1.287 . S
C264 C263 1.287 . S
C264 C265 1.524 . S
C264 H283 0.913 . S
C265 H241 0.950 . S
C265 C264 1.524 . S
C265 C266 1.415 . S
C266 H242 0.950 . S
C266 C261 1.363 . S
C266 C265 1.415 . S
C267 H243 0.951 . S
C267 C268 1.366 . S
C267 C269 1.388 . S
C268 C267 1.366 . S
C268 C272 1.385 . S
C269 H244 0.951 . S
C269 C267 1.388 . S
C269 C270 1.366 . S
C270 C269 1.366 . S
C270 C271 1.414 . S
C270 C273 1.499 . S
C271 H245 0.950 . S
C271 C270 1.414 . S
C271 C272 1.374 . S
C272 H246 0.950 . S
C272 C268 1.385 . S
C272 C271 1.374 . S
C273 C270 1.499 . S
C273 C274 1.373 . S
C273 C275 1.389 . S
C274 H247 0.950 . S
C274 C260 1.377 . S
C274 C273 1.373 . S
C275 C259 1.377 . S
C275 C273 1.389 . S
C275 C276 1.524 . S
C276 C275 1.524 . S
C276 C277 1.397 . S
C276 C281 1.363 . S
C277 H248 0.950 . S
C277 C276 1.397 . S
C277 C278 1.334 . S
C278 H249 0.950 . S
C278 C277 1.334 . S
C278 C279 1.287 . S
C279 C278 1.287 . S
C279 C280 1.524 . S
C279 H282 0.999 . S
C280 H250 0.950 . S
C280 C279 1.524 . S
C280 C281 1.415 . S
C281 H251 0.950 . S
C281 C276 1.363 . S
C281 C280 1.415 . S
H282 C279 0.999 . S
H283 C264 0.913 . S
H284 C302 0.951 . S
H285 C304 0.951 . S
H286 C306 0.950 . S
H287 C307 0.950 . S
H288 C309 0.950 . S
H289 C312 0.950 . S
H290 C313 0.950 . S
H291 C315 0.950 . S
H292 C316 0.950 . S
H293 C317 0.951 . S
H294 C319 0.951 . S
H295 C321 0.950 . S
H296 C322 0.950 . S
H297 C324 0.950 . S
H298 C327 0.950 . S
H299 C328 0.950 . S
H300 C330 0.950 . S
H301 C331 0.950 . S
C302 H284 0.951 . S
C302 C303 1.366 . S
C302 C304 1.388 . S
C303 C302 1.366 . S
C303 C307 1.385 . S
C304 H285 0.951 . S
C304 C302 1.388 . S
C304 C305 1.366 . S
C305 C304 1.366 . S
C305 C306 1.414 . S
C305 C308 1.499 . S
C306 H286 0.950 . S
C306 C305 1.414 . S
C306 C307 1.374 . S
C307 H287 0.950 . S
C307 C303 1.385 . S
C307 C306 1.374 . S
C308 C305 1.499 . S
C308 C309 1.373 1_545 S
C308 C310 1.389 . S
C309 H288 0.950 . S
C309 C308 1.373 1_565 S
C309 C325 1.377 . S
C310 C308 1.389 . S
C310 C311 1.524 . S
C310 C324 1.377 1_545 S
C311 C310 1.524 . S
C311 C312 1.397 . S
C311 C316 1.363 . S
C312 H289 0.950 . S
C312 C311 1.397 . S
C312 C313 1.334 . S
C313 H290 0.950 . S
C313 C312 1.334 . S
C313 C314 1.287 . S
C314 C313 1.287 . S
C314 C315 1.524 . S
C314 H333 0.913 . S
C315 H291 0.950 . S
C315 C314 1.524 . S
C315 C316 1.415 . S
C316 H292 0.950 . S
C316 C311 1.363 . S
C316 C315 1.415 . S
C317 H293 0.951 . S
C317 C318 1.366 . S
C317 C319 1.388 . S
C318 C317 1.366 . S
C318 C322 1.385 . S
C319 H294 0.951 . S
C319 C317 1.388 . S
C319 C320 1.366 . S
C320 C319 1.366 . S
C320 C321 1.414 . S
C320 C323 1.499 . S
C321 H295 0.950 . S
C321 C320 1.414 . S
C321 C322 1.374 . S
C322 H296 0.950 . S
C322 C318 1.385 . S
C322 C321 1.374 . S
C323 C320 1.499 . S
C323 C324 1.373 . S
C323 C325 1.389 . S
C324 H297 0.950 . S
C324 C310 1.377 1_565 S
C324 C323 1.373 . S
C325 C309 1.377 . S
C325 C323 1.389 . S
C325 C326 1.524 . S
C326 C325 1.524 . S
C326 C327 1.397 . S
C326 C331 1.363 . S
C327 H298 0.950 . S
C327 C326 1.397 . S
C327 C328 1.334 . S
C328 H299 0.950 . S
C328 C327 1.334 . S
C328 C329 1.287 . S
C329 C328 1.287 . S
C329 C330 1.524 . S
C329 H332 0.999 . S
C330 H300 0.950 . S
C330 C329 1.524 . S
C330 C331 1.415 . S
C331 H301 0.950 . S
C331 C326 1.363 . S
C331 C330 1.415 . S
H332 C329 0.999 . S
H333 C314 0.913 . S
H334 C352 0.951 . S
H335 C354 0.951 . S
H336 C356 0.950 . S
H337 C357 0.950 . S
H338 C359 0.950 . S
H339 C362 0.950 . S
H340 C363 0.950 . S
H341 C365 0.950 . S
H342 C366 0.950 . S
H343 C367 0.951 . S
H344 C369 0.951 . S
H345 C371 0.950 . S
H346 C372 0.950 . S
H347 C374 0.950 . S
H348 C377 0.950 . S
H349 C378 0.950 . S
H350 C380 0.950 . S
H351 C381 0.950 . S
C352 H334 0.951 . S
C352 C353 1.366 . S
C352 C354 1.388 . S
C353 C352 1.366 . S
C353 C357 1.385 . S
C354 H335 0.951 . S
C354 C352 1.388 . S
C354 C355 1.366 . S
C355 C354 1.366 . S
C355 C356 1.414 . S
C355 C358 1.499 . S
C356 H336 0.950 . S
C356 C355 1.414 . S
C356 C357 1.374 . S
C357 H337 0.950 . S
C357 C353 1.385 . S
C357 C356 1.374 . S
C358 C355 1.499 . S
C358 C359 1.373 . S
C358 C360 1.389 . S
C359 H338 0.950 . S
C359 C358 1.373 . S
C359 C375 1.377 . S
C360 C358 1.389 . S
C360 C361 1.524 . S
C360 C374 1.377 . S
C361 C360 1.524 . S
C361 C362 1.397 . S
C361 C366 1.363 . S
C362 H339 0.950 . S
C362 C361 1.397 . S
C362 C363 1.334 . S
C363 H340 0.950 . S
C363 C362 1.334 . S
C363 C364 1.287 . S
C364 C363 1.287 . S
C364 C365 1.524 . S
C364 H383 0.913 . S
C365 H341 0.950 . S
C365 C364 1.524 . S
C365 C366 1.415 . S
C366 H342 0.950 . S
C366 C361 1.363 . S
C366 C365 1.415 . S
C367 H343 0.951 . S
C367 C368 1.366 . S
C367 C369 1.388 . S
C368 C367 1.366 . S
C368 C372 1.385 . S
C369 H344 0.951 . S
C369 C367 1.388 . S
C369 C370 1.366 . S
C370 C369 1.366 . S
C370 C371 1.414 . S
C370 C373 1.499 . S
C371 H345 0.950 . S
C371 C370 1.414 . S
C371 C372 1.374 . S
C372 H346 0.950 . S
C372 C368 1.385 . S
C372 C371 1.374 . S
C373 C370 1.499 . S
C373 C374 1.373 . S
C373 C375 1.389 . S
C374 H347 0.950 . S
C374 C360 1.377 . S
C374 C373 1.373 . S
C375 C359 1.377 . S
C375 C373 1.389 . S
C375 C376 1.524 . S
C376 C375 1.524 . S
C376 C377 1.397 . S
C376 C381 1.363 . S
C377 H348 0.950 . S
C377 C376 1.397 . S
C377 C378 1.334 . S
C378 H349 0.950 . S
C378 C377 1.334 . S
C378 C379 1.287 . S
C379 C378 1.287 . S
C379 C380 1.524 . S
C379 H382 0.999 . S
C380 H350 0.950 . S
C380 C379 1.524 . S
C380 C381 1.415 . S
C381 H351 0.950 . S
C381 C376 1.363 . S
C381 C380 1.415 . S
H382 C379 0.999 . S
H383 C364 0.913 . S
H384 C402 0.951 . S
H385 C404 0.951 . S
H386 C406 0.950 . S
H387 C407 0.950 . S
H388 C409 0.950 . S
H389 C412 0.950 . S
H390 C413 0.950 . S
H391 C415 0.950 . S
H392 C416 0.950 . S
H393 C417 0.951 . S
H394 C419 0.951 . S
H395 C421 0.950 . S
H396 C422 0.950 . S
H397 C424 0.950 . S
H398 C427 0.950 . S
H399 C428 0.950 . S
H400 C430 0.950 . S
H401 C431 0.950 . S
C402 H384 0.951 . S
C402 C403 1.366 . S
C402 C404 1.388 . S
C403 C402 1.366 . S
C403 C407 1.385 . S
C404 H385 0.951 . S
C404 C402 1.388 . S
C404 C405 1.366 . S
C405 C404 1.366 . S
C405 C406 1.414 . S
C405 C408 1.499 . S
C406 H386 0.950 . S
C406 C405 1.414 . S
C406 C407 1.374 . S
C407 H387 0.950 . S
C407 C403 1.385 . S
C407 C406 1.374 . S
C408 C405 1.499 . S
C408 C409 1.373 . S
C408 C410 1.389 . S
C409 H388 0.950 . S
C409 C408 1.373 . S
C409 C425 1.377 . S
C410 C408 1.389 . S
C410 C411 1.524 . S
C410 C424 1.377 . S
C411 C410 1.524 . S
C411 C412 1.397 . S
C411 C416 1.363 . S
C412 H389 0.950 . S
C412 C411 1.397 . S
C412 C413 1.334 . S
C413 H390 0.950 . S
C413 C412 1.334 . S
C413 C414 1.287 . S
C414 C413 1.287 . S
C414 C415 1.524 . S
C414 H433 0.913 . S
C415 H391 0.950 . S
C415 C414 1.524 . S
C415 C416 1.415 . S
C416 H392 0.950 . S
C416 C411 1.363 . S
C416 C415 1.415 . S
C417 H393 0.951 . S
C417 C418 1.366 . S
C417 C419 1.388 . S
C418 C417 1.366 . S
C418 C422 1.385 . S
C419 H394 0.951 . S
C419 C417 1.388 . S
C419 C420 1.366 . S
C420 C419 1.366 . S
C420 C421 1.414 . S
C420 C423 1.499 . S
C421 H395 0.950 . S
C421 C420 1.414 . S
C421 C422 1.374 . S
C422 H396 0.950 . S
C422 C418 1.385 . S
C422 C421 1.374 . S
C423 C420 1.499 . S
C423 C424 1.373 . S
C423 C425 1.389 . S
C424 H397 0.950 . S
C424 C410 1.377 . S
C424 C423 1.373 . S
C425 C409 1.377 . S
C425 C423 1.389 . S
C425 C426 1.524 . S
C426 C425 1.524 . S
C426 C427 1.397 . S
C426 C431 1.363 . S
C427 H398 0.950 . S
C427 C426 1.397 . S
C427 C428 1.334 . S
C428 H399 0.950 . S
C428 C427 1.334 . S
C428 C429 1.287 . S
C429 C428 1.287 . S
C429 C430 1.524 . S
C429 H432 0.999 . S
C430 H400 0.950 . S
C430 C429 1.524 . S
C430 C431 1.415 . S
C431 H401 0.950 . S
C431 C426 1.363 . S
C431 C430 1.415 . S
H432 C429 0.999 . S
H433 C414 0.913 . S
H434 C452 0.951 . S
H435 C454 0.951 . S
H436 C456 0.950 . S
H437 C457 0.950 . S
H438 C459 0.950 . S
H439 C462 0.950 . S
H440 C463 0.950 . S
H441 C465 0.950 . S
H442 C466 0.950 . S
H443 C467 0.951 . S
H444 C469 0.951 . S
H445 C471 0.950 . S
H446 C472 0.950 . S
H447 C474 0.950 . S
H448 C477 0.950 . S
H449 C478 0.950 . S
H450 C480 0.950 . S
H451 C481 0.950 . S
C452 H434 0.951 . S
C452 C453 1.366 . S
C452 C454 1.388 . S
C453 C452 1.366 . S
C453 C457 1.385 . S
C454 H435 0.951 . S
C454 C452 1.388 . S
C454 C455 1.366 . S
C455 C454 1.366 . S
C455 C456 1.414 . S
C455 C458 1.499 . S
C456 H436 0.950 . S
C456 C455 1.414 . S
C456 C457 1.374 . S
C457 H437 0.950 . S
C457 C453 1.385 . S
C457 C456 1.374 . S
C458 C455 1.499 . S
C458 C459 1.373 . S
C458 C460 1.389 . S
C459 H438 0.950 . S
C459 C458 1.373 . S
C459 C475 1.370 1_655 S
C460 C458 1.389 . S
C460 C461 1.524 . S
C460 C474 1.377 . S
C461 C460 1.524 . S
C461 C462 1.397 . S
C461 C466 1.363 . S
C462 H439 0.950 . S
C462 C461 1.397 . S
C462 C463 1.334 . S
C463 H440 0.950 . S
C463 C462 1.334 . S
C463 C464 1.287 . S
C464 C463 1.287 . S
C464 C465 1.524 . S
C464 H483 0.913 . S
C465 H441 0.950 . S
C465 C464 1.524 . S
C465 C466 1.415 . S
C466 H442 0.950 . S
C466 C461 1.363 . S
C466 C465 1.415 . S
C467 H443 0.951 . S
C467 C468 1.366 . S
C467 C469 1.388 . S
C468 C467 1.366 . S
C468 C472 1.385 . S
C469 H444 0.951 . S
C469 C467 1.388 . S
C469 C470 1.366 . S
C470 C469 1.366 . S
C470 C471 1.414 . S
C470 C473 1.499 1_455 S
C471 H445 0.950 . S
C471 C470 1.414 . S
C471 C472 1.374 . S
C472 H446 0.950 . S
C472 C468 1.385 . S
C472 C471 1.374 . S
C473 C470 1.499 1_655 S
C473 C474 1.373 . S
C473 C475 1.388 1_655 S
C474 H447 0.950 . S
C474 C460 1.377 . S
C474 C473 1.373 . S
C475 C459 1.370 1_455 S
C475 C473 1.388 1_455 S
C475 C476 1.533 . S
C476 C475 1.533 . S
C476 C477 1.397 . S
C476 C481 1.363 . S
C477 H448 0.950 . S
C477 C476 1.397 . S
C477 C478 1.334 . S
C478 H449 0.950 . S
C478 C477 1.334 . S
C478 C479 1.287 . S
C479 C478 1.287 . S
C479 C480 1.524 . S
C479 H482 0.999 . S
C480 H450 0.950 . S
C480 C479 1.524 . S
C480 C481 1.415 . S
C481 H451 0.950 . S
C481 C476 1.363 . S
C481 C480 1.415 . S
H482 C479 0.999 . S
H483 C464 0.913 . S
H484 C502 0.951 . S
H485 C504 0.951 . S
H486 C506 0.950 . S
H487 C507 0.950 . S
H488 C509 0.950 . S
H489 C512 0.950 . S
H490 C513 0.950 . S
H491 C515 0.950 . S
H492 C516 0.950 . S
H493 C517 0.951 . S
H494 C519 0.951 . S
H495 C521 0.950 . S
H496 C522 0.950 . S
H497 C524 0.950 . S
H498 C527 0.950 . S
H499 C528 0.950 . S
H500 C530 0.950 . S
H501 C531 0.950 . S
C502 H484 0.951 . S
C502 C503 1.366 . S
C502 C504 1.388 . S
C503 C502 1.366 . S
C503 C507 1.385 . S
C504 H485 0.951 . S
C504 C502 1.388 . S
C504 C505 1.366 . S
C505 C504 1.366 . S
C505 C506 1.414 . S
C505 C508 1.499 . S
C506 H486 0.950 . S
C506 C505 1.414 . S
C506 C507 1.374 . S
C507 H487 0.950 . S
C507 C503 1.385 . S
C507 C506 1.374 . S
C508 C505 1.499 . S
C508 C509 1.373 . S
C508 C510 1.389 . S
C509 H488 0.950 . S
C509 C508 1.373 . S
C509 C525 1.377 . S
C510 C508 1.389 . S
C510 C511 1.524 . S
C510 C524 1.377 . S
C511 C510 1.524 . S
C511 C512 1.397 . S
C511 C516 1.363 . S
C512 H489 0.950 . S
C512 C511 1.397 . S
C512 C513 1.334 . S
C513 H490 0.950 . S
C513 C512 1.334 . S
C513 C514 1.287 . S
C514 C513 1.287 . S
C514 C515 1.524 . S
C514 H533 0.913 . S
C515 H491 0.950 . S
C515 C514 1.524 . S
C515 C516 1.415 . S
C516 H492 0.950 . S
C516 C511 1.363 . S
C516 C515 1.415 . S
C517 H493 0.951 . S
C517 C518 1.366 . S
C517 C519 1.388 . S
C518 C517 1.366 . S
C518 C522 1.385 . S
C519 H494 0.951 . S
C519 C517 1.388 . S
C519 C520 1.366 . S
C520 C519 1.366 . S
C520 C521 1.414 . S
C520 C523 1.499 . S
C521 H495 0.950 . S
C521 C520 1.414 . S
C521 C522 1.374 . S
C522 H496 0.950 . S
C522 C518 1.385 . S
C522 C521 1.374 . S
C523 C520 1.499 . S
C523 C524 1.373 . S
C523 C525 1.389 . S
C524 H497 0.950 . S
C524 C510 1.377 . S
C524 C523 1.373 . S
C525 C509 1.377 . S
C525 C523 1.389 . S
C525 C526 1.524 . S
C526 C525 1.524 . S
C526 C527 1.397 . S
C526 C531 1.363 . S
C527 H498 0.950 . S
C527 C526 1.397 . S
C527 C528 1.334 . S
C528 H499 0.950 . S
C528 C527 1.334 . S
C528 C529 1.287 . S
C529 C528 1.287 . S
C529 C530 1.524 . S
C529 H532 0.999 . S
C530 H500 0.950 . S
C530 C529 1.524 . S
C530 C531 1.415 . S
C531 H501 0.950 . S
C531 C526 1.363 . S
C531 C530 1.415 . S
H532 C529 0.999 . S
H533 C514 0.913 . S
H534 C552 0.951 . S
H535 C554 0.951 . S
H536 C556 0.950 1_655 S
H537 C557 0.950 . S
H538 C559 0.950 . S
H539 C562 0.950 . S
H540 C563 0.950 . S
H541 C565 0.950 . S
H542 C566 0.950 1_655 S
H543 C567 0.951 . S
H544 C569 0.951 . S
H545 C571 0.950 . S
H546 C572 0.950 . S
H547 C574 0.950 . S
H548 C577 0.950 . S
H549 C578 0.950 . S
H550 C580 0.950 1_554 S
H551 C581 0.950 . S
C552 H534 0.951 . S
C552 C553 1.366 . S
C552 C554 1.388 . S
C553 C552 1.366 . S
C553 C557 1.385 . S
C554 H535 0.951 . S
C554 C552 1.388 . S
C554 C555 1.366 . S
C555 C554 1.366 . S
C555 C556 1.414 . S
C555 C558 1.499 1_455 S
C556 H536 0.950 1_455 S
C556 C555 1.414 . S
C556 C557 1.374 . S
C557 H537 0.950 . S
C557 C553 1.385 . S
C557 C556 1.374 . S
C558 C555 1.499 1_655 S
C558 C559 1.373 . S
C558 C560 1.389 . S
C559 H538 0.950 . S
C559 C558 1.373 . S
C559 C575 1.377 . S
C560 C558 1.389 . S
C560 C561 1.524 . S
C560 C574 1.377 . S
C561 C560 1.524 . S
C561 C562 1.397 1_655 S
C561 C566 1.363 1_655 S
C562 H539 0.950 . S
C562 C561 1.397 1_455 S
C562 C563 1.334 . S
C563 H540 0.950 . S
C563 C562 1.334 . S
C563 C564 1.287 . S
C564 C563 1.287 . S
C564 C565 1.524 . S
C564 H583 0.913 . S
C565 H541 0.950 . S
C565 C564 1.524 . S
C565 C566 1.415 . S
C566 H542 0.950 1_455 S
C566 C561 1.363 1_455 S
C566 C565 1.415 . S
C567 H543 0.951 . S
C567 C568 1.366 . S
C567 C569 1.388 . S
C568 C567 1.366 . S
C568 C572 1.385 . S
C569 H544 0.951 . S
C569 C567 1.388 . S
C569 C570 1.366 . S
C570 C569 1.366 . S
C570 C571 1.414 . S
C570 C573 1.499 . S
C571 H545 0.950 . S
C571 C570 1.414 . S
C571 C572 1.374 . S
C572 H546 0.950 . S
C572 C568 1.385 . S
C572 C571 1.374 . S
C573 C570 1.499 . S
C573 C574 1.373 . S
C573 C575 1.389 . S
C574 H547 0.950 . S
C574 C560 1.377 . S
C574 C573 1.373 . S
C575 C559 1.377 . S
C575 C573 1.389 . S
C575 C576 1.524 . S
C576 C575 1.524 . S
C576 C577 1.397 . S
C576 C581 1.363 . S
C577 H548 0.950 . S
C577 C576 1.397 . S
C577 C578 1.334 . S
C578 H549 0.950 . S
C578 C577 1.334 . S
C578 C579 1.287 . S
C579 C578 1.287 . S
C579 C580 1.524 . S
C579 H582 0.999 . S
C580 H550 0.950 1_556 S
C580 C579 1.524 . S
C580 C581 1.415 . S
C581 H551 0.950 . S
C581 C576 1.363 . S
C581 C580 1.415 . S
H582 C579 0.999 . S
H583 C564 0.913 . S
H584 C602 0.951 . S
H585 C604 0.951 . S
H586 C606 0.950 . S
H587 C607 0.950 . S
H588 C609 0.950 . S
H589 C612 0.950 . S
H590 C613 0.950 . S
H591 C615 0.950 . S
H592 C616 0.950 . S
H593 C617 0.951 . S
H594 C619 0.951 . S
H595 C621 0.950 . S
H596 C622 0.950 . S
H597 C624 0.950 . S
H598 C627 0.950 . S
H599 C628 0.950 . S
H600 C630 0.950 . S
H601 C631 0.950 . S
C602 H584 0.951 . S
C602 C603 1.366 . S
C602 C604 1.388 . S
C603 C602 1.366 . S
C603 C607 1.385 . S
C604 H585 0.951 . S
C604 C602 1.388 . S
C604 C605 1.366 . S
C605 C604 1.366 . S
C605 C606 1.414 . S
C605 C608 1.499 1_545 S
C606 H586 0.950 . S
C606 C605 1.414 . S
C606 C607 1.374 . S
C607 H587 0.950 . S
C607 C603 1.385 . S
C607 C606 1.374 . S
C608 C605 1.499 1_565 S
C608 C609 1.373 . S
C608 C610 1.389 . S
C609 H588 0.950 . S
C609 C608 1.373 . S
C609 C625 1.377 . S
C610 C608 1.389 . S
C610 C611 1.533 . S
C610 C624 1.377 . S
C611 C610 1.533 . S
C611 C612 1.379 1_565 S
C611 C616 1.373 . S
C612 H589 0.950 . S
C612 C611 1.379 1_545 S
C612 C613 1.334 . S
C613 H590 0.950 . S
C613 C612 1.334 . S
C613 C614 1.287 . S
C614 C613 1.287 . S
C614 C615 1.524 1_545 S
C614 H633 0.913 . S
C615 H591 0.950 . S
C615 C614 1.524 1_565 S
C615 C616 1.415 . S
C616 H592 0.950 . S
C616 C611 1.373 . S
C616 C615 1.415 . S
C617 H593 0.951 . S
C617 C618 1.366 . S
C617 C619 1.388 . S
C618 C617 1.366 . S
C618 C622 1.385 . S
C619 H594 0.951 . S
C619 C617 1.388 . S
C619 C620 1.366 . S
C620 C619 1.366 . S
C620 C621 1.414 . S
C620 C623 1.499 . S
C621 H595 0.950 . S
C621 C620 1.414 . S
C621 C622 1.374 . S
C622 H596 0.950 . S
C622 C618 1.385 . S
C622 C621 1.374 . S
C623 C620 1.499 . S
C623 C624 1.373 . S
C623 C625 1.389 . S
C624 H597 0.950 . S
C624 C610 1.377 . S
C624 C623 1.373 . S
C625 C609 1.377 . S
C625 C623 1.389 . S
C625 C626 1.524 . S
C626 C625 1.524 . S
C626 C627 1.397 . S
C626 C631 1.363 . S
C627 H598 0.950 . S
C627 C626 1.397 . S
C627 C628 1.334 . S
C628 H599 0.950 . S
C628 C627 1.334 . S
C628 C629 1.287 . S
C629 C628 1.287 . S
C629 C630 1.524 . S
C629 H632 0.999 . S
C630 H600 0.950 . S
C630 C629 1.524 . S
C630 C631 1.415 . S
C631 H601 0.950 . S
C631 C626 1.363 . S
C631 C630 1.415 . S
H632 C629 0.999 . S
H633 C614 0.913 . S
H634 C652 0.951 . S
H635 C654 0.951 . S
H636 C656 0.950 . S
H637 C657 0.950 . S
H638 C659 0.950 . S
H639 C662 0.950 . S
H640 C663 0.950 . S
H641 C665 0.950 . S
H642 C666 0.950 . S
H643 C667 0.951 . S
H644 C669 0.951 . S
H645 C671 0.950 . S
H646 C672 0.950 . S
H647 C674 0.950 . S
H648 C677 0.950 . S
H649 C678 0.950 . S
H650 C680 0.950 . S
H651 C681 0.950 . S
C652 H634 0.951 . S
C652 C653 1.366 . S
C652 C654 1.388 . S
C653 C652 1.366 . S
C653 C657 1.385 . S
C654 H635 0.951 . S
C654 C652 1.388 . S
C654 C655 1.366 . S
C655 C654 1.366 . S
C655 C656 1.414 . S
C655 C658 1.499 . S
C656 H636 0.950 . S
C656 C655 1.414 . S
C656 C657 1.374 . S
C657 H637 0.950 . S
C657 C653 1.385 . S
C657 C656 1.374 . S
C658 C655 1.499 . S
C658 C659 1.373 . S
C658 C660 1.389 . S
C659 H638 0.950 . S
C659 C658 1.373 . S
C659 C675 1.377 . S
C660 C658 1.389 . S
C660 C661 1.524 . S
C660 C674 1.377 . S
C661 C660 1.524 . S
C661 C662 1.397 . S
C661 C666 1.363 . S
C662 H639 0.950 . S
C662 C661 1.397 . S
C662 C663 1.334 . S
C663 H640 0.950 . S
C663 C662 1.334 . S
C663 C664 1.287 . S
C664 C663 1.287 . S
C664 C665 1.524 . S
C664 H683 0.913 . S
C665 H641 0.950 . S
C665 C664 1.524 . S
C665 C666 1.415 . S
C666 H642 0.950 . S
C666 C661 1.363 . S
C666 C665 1.415 . S
C667 H643 0.951 . S
C667 C668 1.366 . S
C667 C669 1.388 . S
C668 C667 1.366 . S
C668 C672 1.385 . S
C669 H644 0.951 . S
C669 C667 1.388 . S
C669 C670 1.366 . S
C670 C669 1.366 . S
C670 C671 1.414 . S
C670 C673 1.499 . S
C671 H645 0.950 . S
C671 C670 1.414 . S
C671 C672 1.374 . S
C672 H646 0.950 . S
C672 C668 1.385 . S
C672 C671 1.374 . S
C673 C670 1.499 . S
C673 C674 1.373 . S
C673 C675 1.389 . S
C674 H647 0.950 . S
C674 C660 1.377 . S
C674 C673 1.373 . S
C675 C659 1.377 . S
C675 C673 1.389 . S
C675 C676 1.524 . S
C676 C675 1.524 . S
C676 C677 1.397 . S
C676 C681 1.363 . S
C677 H648 0.950 . S
C677 C676 1.397 . S
C677 C678 1.334 . S
C678 H649 0.950 . S
C678 C677 1.334 . S
C678 C679 1.287 . S
C679 C678 1.287 . S
C679 C680 1.524 . S
C679 H682 0.999 . S
C680 H650 0.950 . S
C680 C679 1.524 . S
C680 C681 1.415 . S
C681 H651 0.950 . S
C681 C676 1.363 . S
C681 C680 1.415 . S
H682 C679 0.999 . S
H683 C664 0.913 . S
H684 C702 0.951 . S
H685 C704 0.951 1_545 S
H686 C706 0.950 . S
H687 C707 0.950 . S
H688 C709 0.950 1_565 S
H689 C712 0.950 . S
H690 C713 0.950 . S
H691 C715 0.950 . S
H692 C716 0.950 . S
H693 C717 0.951 . S
H694 C719 0.951 . S
H695 C721 0.950 . S
H696 C722 0.950 . S
H697 C724 0.950 . S
H698 C727 0.950 . S
H699 C728 0.950 . S
H700 C730 0.952 . S
H701 C731 0.948 1_565 S
C702 H684 0.951 . S
C702 C703 1.366 . S
C702 C704 1.388 . S
C703 C702 1.366 . S
C703 C707 1.385 . S
C704 H685 0.951 1_565 S
C704 C702 1.388 . S
C704 C705 1.366 . S
C705 C704 1.366 . S
C705 C706 1.414 . S
C705 C708 1.500 1_565 S
C706 H686 0.950 . S
C706 C705 1.414 . S
C706 C707 1.374 . S
C707 H687 0.950 . S
C707 C703 1.385 . S
C707 C706 1.374 . S
C708 C705 1.500 1_545 S
C708 C709 1.373 . S
C708 C710 1.388 . S
C709 H688 0.950 1_545 S
C709 C708 1.373 . S
C709 C725 1.377 . S
C710 C708 1.388 . S
C710 C711 1.524 . S
C710 C724 1.377 . S
C711 C710 1.524 . S
C711 C712 1.397 1_545 S
C711 C716 1.363 . S
C712 H689 0.950 . S
C712 C711 1.397 1_565 S
C712 C713 1.334 . S
C713 H690 0.950 . S
C713 C712 1.334 . S
C713 C714 1.287 1_565 S
C714 C713 1.287 1_545 S
C714 C715 1.524 . S
C714 H733 0.913 . S
C715 H691 0.950 . S
C715 C714 1.524 . S
C715 C716 1.415 . S
C716 H692 0.950 . S
C716 C711 1.363 . S
C716 C715 1.415 . S
C717 H693 0.951 . S
C717 C718 1.366 . S
C717 C719 1.388 . S
C718 C717 1.366 . S
C718 C722 1.385 . S
C719 H694 0.951 . S
C719 C717 1.388 . S
C719 C720 1.366 . S
C720 C719 1.366 . S
C720 C721 1.414 . S
C720 C723 1.499 . S
C721 H695 0.950 . S
C721 C720 1.414 . S
C721 C722 1.374 . S
C722 H696 0.950 . S
C722 C718 1.385 . S
C722 C721 1.374 . S
C723 C720 1.499 . S
C723 C724 1.373 . S
C723 C725 1.389 . S
C724 H697 0.950 . S
C724 C710 1.377 . S
C724 C723 1.373 . S
C725 C709 1.377 . S
C725 C723 1.389 . S
C725 C726 1.524 . S
C726 C725 1.524 . S
C726 C727 1.397 . S
C726 C731 1.365 . S
C727 H698 0.950 . S
C727 C726 1.397 . S
C727 C728 1.334 . S
C728 H699 0.950 . S
C728 C727 1.334 . S
C728 C729 1.287 . S
C729 C728 1.287 . S
C729 C730 1.521 1_545 S
C729 H732 0.999 . S
C730 H700 0.952 . S
C730 C729 1.521 1_565 S
C730 C731 1.414 1_565 S
C731 H701 0.948 1_545 S
C731 C726 1.365 . S
C731 C730 1.414 1_545 S
H732 C729 0.999 . S
H733 C714 0.913 . S
H734 C752 0.951 . S
H735 C754 0.951 . S
H736 C756 0.950 . S
H737 C757 0.950 . S
H738 C759 0.950 . S
H739 C762 0.950 . S
H740 C763 0.950 . S
H741 C765 0.950 . S
H742 C766 0.950 . S
H743 C767 0.951 . S
H744 C769 0.951 . S
H745 C771 0.950 . S
H746 C772 0.950 . S
H747 C774 0.950 . S
H748 C777 0.950 . S
H749 C778 0.950 . S
H750 C780 0.950 . S
H751 C781 0.950 . S
C752 H734 0.951 . S
C752 C753 1.366 . S
C752 C754 1.388 . S
C753 C752 1.366 . S
C753 C757 1.385 . S
C754 H735 0.951 . S
C754 C752 1.388 . S
C754 C755 1.366 . S
C755 C754 1.366 . S
C755 C756 1.414 . S
C755 C758 1.499 . S
C756 H736 0.950 . S
C756 C755 1.414 . S
C756 C757 1.374 . S
C757 H737 0.950 . S
C757 C753 1.385 . S
C757 C756 1.374 . S
C758 C755 1.499 . S
C758 C759 1.373 . S
C758 C760 1.389 . S
C759 H738 0.950 . S
C759 C758 1.373 . S
C759 C775 1.377 . S
C760 C758 1.389 . S
C760 C761 1.524 . S
C760 C774 1.377 . S
C761 C760 1.524 . S
C761 C762 1.397 . S
C761 C766 1.363 . S
C762 H739 0.950 . S
C762 C761 1.397 . S
C762 C763 1.334 . S
C763 H740 0.950 . S
C763 C762 1.334 . S
C763 C764 1.287 . S
C764 C763 1.287 . S
C764 C765 1.524 . S
C764 H783 0.913 . S
C765 H741 0.950 . S
C765 C764 1.524 . S
C765 C766 1.415 . S
C766 H742 0.950 . S
C766 C761 1.363 . S
C766 C765 1.415 . S
C767 H743 0.951 . S
C767 C768 1.366 . S
C767 C769 1.388 . S
C768 C767 1.366 . S
C768 C772 1.385 . S
C769 H744 0.951 . S
C769 C767 1.388 . S
C769 C770 1.366 . S
C770 C769 1.366 . S
C770 C771 1.414 . S
C770 C773 1.499 . S
C771 H745 0.950 . S
C771 C770 1.414 . S
C771 C772 1.374 . S
C772 H746 0.950 . S
C772 C768 1.385 . S
C772 C771 1.374 . S
C773 C770 1.499 . S
C773 C774 1.373 . S
C773 C775 1.389 . S
C774 H747 0.950 . S
C774 C760 1.377 . S
C774 C773 1.373 . S
C775 C759 1.377 . S
C775 C773 1.389 . S
C775 C776 1.524 . S
C776 C775 1.524 . S
C776 C777 1.397 . S
C776 C781 1.363 . S
C777 H748 0.950 . S
C777 C776 1.397 . S
C777 C778 1.334 . S
C778 H749 0.950 . S
C778 C777 1.334 . S
C778 C779 1.287 . S
C779 C778 1.287 . S
C779 C780 1.524 . S
C779 H782 0.999 . S
C780 H750 0.950 . S
C780 C779 1.524 . S
C780 C781 1.415 . S
C781 H751 0.950 . S
C781 C776 1.363 . S
C781 C780 1.415 . S
H782 C779 0.999 . S
H783 C764 0.913 . S
H784 C802 0.951 . S
H785 C804 0.951 . S
H786 C806 0.950 . S
H787 C807 0.950 . S
H788 C809 0.950 . S
H789 C812 0.950 . S
H790 C813 0.950 . S
H791 C815 0.950 . S
H792 C816 0.950 . S
H793 C817 0.951 . S
H794 C819 0.951 . S
H795 C821 0.950 . S
H796 C822 0.950 . S
H797 C824 0.950 . S
H798 C827 0.950 . S
H799 C828 0.950 . S
H800 C830 0.950 . S
H801 C831 0.950 . S
C802 H784 0.951 . S
C802 C803 1.366 . S
C802 C804 1.388 . S
C803 C802 1.366 . S
C803 C807 1.385 . S
C804 H785 0.951 . S
C804 C802 1.388 . S
C804 C805 1.366 . S
C805 C804 1.366 . S
C805 C806 1.414 . S
C805 C808 1.499 . S
C806 H786 0.950 . S
C806 C805 1.414 . S
C806 C807 1.374 . S
C807 H787 0.950 . S
C807 C803 1.385 . S
C807 C806 1.374 . S
C808 C805 1.499 . S
C808 C809 1.373 . S
C808 C810 1.389 . S
C809 H788 0.950 . S
C809 C808 1.373 . S
C809 C825 1.377 . S
C810 C808 1.389 . S
C810 C811 1.524 . S
C810 C824 1.377 . S
C811 C810 1.524 . S
C811 C812 1.397 . S
C811 C816 1.363 . S
C812 H789 0.950 . S
C812 C811 1.397 . S
C812 C813 1.334 . S
C813 H790 0.950 . S
C813 C812 1.334 . S
C813 C814 1.287 . S
C814 C813 1.287 . S
C814 C815 1.524 . S
C814 H833 0.913 . S
C815 H791 0.950 . S
C815 C814 1.524 . S
C815 C816 1.415 . S
C816 H792 0.950 . S
C816 C811 1.363 . S
C816 C815 1.415 . S
C817 H793 0.951 . S
C817 C818 1.366 . S
C817 C819 1.388 . S
C818 C817 1.366 . S
C818 C822 1.385 . S
C819 H794 0.951 . S
C819 C817 1.388 . S
C819 C820 1.366 . S
C820 C819 1.366 . S
C820 C821 1.414 . S
C820 C823 1.499 . S
C821 H795 0.950 . S
C821 C820 1.414 . S
C821 C822 1.374 . S
C822 H796 0.950 . S
C822 C818 1.385 . S
C822 C821 1.374 . S
C823 C820 1.499 . S
C823 C824 1.373 . S
C823 C825 1.389 . S
C824 H797 0.950 . S
C824 C810 1.377 . S
C824 C823 1.373 . S
C825 C809 1.377 . S
C825 C823 1.389 . S
C825 C826 1.524 . S
C826 C825 1.524 . S
C826 C827 1.397 . S
C826 C831 1.363 . S
C827 H798 0.950 . S
C827 C826 1.397 . S
C827 C828 1.334 . S
C828 H799 0.950 . S
C828 C827 1.334 . S
C828 C829 1.287 . S
C829 C828 1.287 . S
C829 C830 1.524 . S
C829 H832 0.999 . S
C830 H800 0.950 . S
C830 C829 1.524 . S
C830 C831 1.415 . S
C831 H801 0.950 . S
C831 C826 1.363 . S
C831 C830 1.415 . S
H832 C829 0.999 . S
H833 C814 0.913 . S
H834 C852 0.951 . S
H835 C854 0.951 . S
H836 C856 0.950 . S
H837 C857 0.950 . S
H838 C859 0.950 . S
H839 C862 0.950 . S
H840 C863 0.950 . S
H841 C865 0.950 . S
H842 C866 0.950 . S
H843 C867 0.951 . S
H844 C869 0.951 1_455 S
H845 C871 0.950 . S
H846 C872 0.950 . S
H847 C874 0.950 1_655 S
H848 C877 0.950 1_655 S
H849 C878 0.950 1_655 S
H850 C880 0.950 . S
H851 C881 0.950 . S
C852 H834 0.951 . S
C852 C853 1.366 . S
C852 C854 1.388 . S
C853 C852 1.366 . S
C853 C857 1.385 . S
C854 H835 0.951 . S
C854 C852 1.388 . S
C854 C855 1.366 . S
C855 C854 1.366 . S
C855 C856 1.414 . S
C855 C858 1.499 . S
C856 H836 0.950 . S
C856 C855 1.414 . S
C856 C857 1.374 . S
C857 H837 0.950 . S
C857 C853 1.385 . S
C857 C856 1.374 . S
C858 C855 1.499 . S
C858 C859 1.373 . S
C858 C860 1.389 . S
C859 H838 0.950 . S
C859 C858 1.373 . S
C859 C875 1.377 . S
C860 C858 1.389 . S
C860 C861 1.524 . S
C860 C874 1.377 . S
C861 C860 1.524 . S
C861 C862 1.397 . S
C861 C866 1.363 1_455 S
C862 H839 0.950 . S
C862 C861 1.397 . S
C862 C863 1.334 . S
C863 H840 0.950 . S
C863 C862 1.334 . S
C863 C864 1.287 . S
C864 C863 1.287 . S
C864 C865 1.524 1_455 S
C864 H883 0.913 . S
C865 H841 0.950 . S
C865 C864 1.524 1_655 S
C865 C866 1.415 . S
C866 H842 0.950 . S
C866 C861 1.363 1_655 S
C866 C865 1.415 . S
C867 H843 0.951 . S
C867 C868 1.366 . S
C867 C869 1.388 . S
C868 C867 1.366 . S
C868 C872 1.385 . S
C869 H844 0.951 1_655 S
C869 C867 1.388 . S
C869 C870 1.366 . S
C870 C869 1.366 . S
C870 C871 1.414 . S
C870 C873 1.499 1_655 S
C871 H845 0.950 . S
C871 C870 1.414 . S
C871 C872 1.374 . S
C872 H846 0.950 . S
C872 C868 1.385 . S
C872 C871 1.374 . S
C873 C870 1.499 1_455 S
C873 C874 1.373 . S
C873 C875 1.389 . S
C874 H847 0.950 1_455 S
C874 C860 1.377 . S
C874 C873 1.373 . S
C875 C859 1.377 . S
C875 C873 1.389 . S
C875 C876 1.524 . S
C876 C875 1.524 . S
C876 C877 1.397 . S
C876 C881 1.363 . S
C877 H848 0.950 1_455 S
C877 C876 1.397 . S
C877 C878 1.334 . S
C878 H849 0.950 1_455 S
C878 C877 1.334 . S
C878 C879 1.287 . S
C879 C878 1.287 . S
C879 C880 1.524 . S
C879 H882 0.999 . S
C880 H850 0.950 . S
C880 C879 1.524 . S
C880 C881 1.415 . S
C881 H851 0.950 . S
C881 C876 1.363 . S
C881 C880 1.415 . S
H882 C879 0.999 . S
H883 C864 0.913 . S
H884 C902 0.951 . S
H885 C904 0.951 . S
H886 C906 0.950 . S
H887 C907 0.950 . S
H888 C909 0.950 . S
H889 C912 0.950 . S
H890 C913 0.950 . S
H891 C915 0.950 . S
H892 C916 0.950 . S
H893 C917 0.951 . S
H894 C919 0.951 . S
H895 C921 0.950 . S
H896 C922 0.950 . S
H897 C924 0.950 . S
H898 C927 0.950 . S
H899 C928 0.950 . S
H900 C930 0.950 . S
H901 C931 0.950 . S
C902 H884 0.951 . S
C902 C903 1.366 . S
C902 C904 1.388 . S
C903 C902 1.366 . S
C903 C907 1.385 . S
C904 H885 0.951 . S
C904 C902 1.388 . S
C904 C905 1.366 . S
C905 C904 1.366 . S
C905 C906 1.414 . S
C905 C908 1.499 . S
C906 H886 0.950 . S
C906 C905 1.414 . S
C906 C907 1.374 . S
C907 H887 0.950 . S
C907 C903 1.385 . S
C907 C906 1.374 . S
C908 C905 1.499 . S
C908 C909 1.373 . S
C908 C910 1.389 . S
C909 H888 0.950 . S
C909 C908 1.373 . S
C909 C925 1.377 . S
C910 C908 1.389 . S
C910 C911 1.524 . S
C910 C924 1.377 . S
C911 C910 1.524 . S
C911 C912 1.397 . S
C911 C916 1.363 . S
C912 H889 0.950 . S
C912 C911 1.397 . S
C912 C913 1.334 . S
C913 H890 0.950 . S
C913 C912 1.334 . S
C913 C914 1.287 . S
C914 C913 1.287 . S
C914 C915 1.524 . S
C914 H933 0.913 . S
C915 H891 0.950 . S
C915 C914 1.524 . S
C915 C916 1.415 . S
C916 H892 0.950 . S
C916 C911 1.363 . S
C916 C915 1.415 . S
C917 H893 0.951 . S
C917 C918 1.366 . S
C917 C919 1.388 . S
C918 C917 1.366 . S
C918 C922 1.385 . S
C919 H894 0.951 . S
C919 C917 1.388 . S
C919 C920 1.366 . S
C920 C919 1.366 . S
C920 C921 1.414 . S
C920 C923 1.499 . S
C921 H895 0.950 . S
C921 C920 1.414 . S
C921 C922 1.374 . S
C922 H896 0.950 . S
C922 C918 1.385 . S
C922 C921 1.374 . S
C923 C920 1.499 . S
C923 C924 1.373 . S
C923 C925 1.389 . S
C924 H897 0.950 . S
C924 C910 1.377 . S
C924 C923 1.373 . S
C925 C909 1.377 . S
C925 C923 1.389 . S
C925 C926 1.524 . S
C926 C925 1.524 . S
C926 C927 1.397 . S
C926 C931 1.363 . S
C927 H898 0.950 . S
C927 C926 1.397 . S
C927 C928 1.334 . S
C928 H899 0.950 . S
C928 C927 1.334 . S
C928 C929 1.287 . S
C929 C928 1.287 . S
C929 C930 1.524 . S
C929 H932 0.999 . S
C930 H900 0.950 . S
C930 C929 1.524 . S
C930 C931 1.415 . S
C931 H901 0.950 . S
C931 C926 1.363 . S
C931 C930 1.415 . S
H932 C929 0.999 . S
H933 C914 0.913 . S
H934 C952 0.951 . S
H935 C954 0.951 . S
H936 C956 0.950 . S
H937 C957 0.950 . S
H938 C959 0.977 . S
H939 C962 0.950 . S
H940 C963 0.950 . S
H941 C965 0.950 . S
H942 C966 0.950 . S
H943 C967 0.951 . S
H944 C969 0.951 . S
H945 C971 0.950 . S
H946 C972 0.950 . S
H947 C974 0.950 . S
H948 C977 0.950 . S
H949 C978 0.950 . S
H950 C980 0.950 . S
H951 C981 0.950 . S
C952 H934 0.951 . S
C952 C953 1.366 . S
C952 C954 1.388 . S
C953 C952 1.366 . S
C953 C957 1.385 . S
C954 H935 0.951 . S
C954 C952 1.388 . S
C954 C955 1.366 . S
C955 C954 1.366 . S
C955 C956 1.414 . S
C955 C958 1.499 1_655 S
C956 H936 0.950 . S
C956 C955 1.414 . S
C956 C957 1.374 . S
C957 H937 0.950 . S
C957 C953 1.385 . S
C957 C956 1.374 . S
C958 C955 1.499 1_455 S
C958 C959 1.373 . S
C958 C960 1.389 . S
C959 H938 0.977 . S
C959 C958 1.373 . S
C959 C975 1.377 . S
C960 C958 1.389 . S
C960 C961 1.524 . S
C960 C974 1.377 . S
C961 C960 1.524 . S
C961 C962 1.397 . S
C961 C966 1.363 . S
C962 H939 0.950 . S
C962 C961 1.397 . S
C962 C963 1.334 . S
C963 H940 0.950 . S
C963 C962 1.334 . S
C963 C964 1.287 . S
C964 C963 1.287 . S
C964 C965 1.524 . S
C964 H983 0.913 . S
C965 H941 0.950 . S
C965 C964 1.524 . S
C965 C966 1.415 . S
C966 H942 0.950 . S
C966 C961 1.363 . S
C966 C965 1.415 . S
C967 H943 0.951 . S
C967 C968 1.366 . S
C967 C969 1.388 . S
C968 C967 1.366 . S
C968 C972 1.385 . S
C969 H944 0.951 . S
C969 C967 1.388 . S
C969 C970 1.366 . S
C970 C969 1.366 . S
C970 C971 1.414 . S
C970 C973 1.499 . S
C971 H945 0.950 . S
C971 C970 1.414 . S
C971 C972 1.374 . S
C972 H946 0.950 . S
C972 C968 1.385 . S
C972 C971 1.374 . S
C973 C970 1.499 . S
C973 C974 1.373 . S
C973 C975 1.389 . S
C974 H947 0.950 . S
C974 C960 1.377 . S
C974 C973 1.373 . S
C975 C959 1.377 . S
C975 C973 1.389 . S
C975 C976 1.524 . S
C976 C975 1.524 . S
C976 C977 1.397 . S
C976 C981 1.363 . S
C977 H948 0.950 . S
C977 C976 1.397 . S
C977 C978 1.334 . S
C978 H949 0.950 . S
C978 C977 1.334 . S
C978 C979 1.287 . S
C979 C978 1.287 . S
C979 C980 1.524 . S
C979 H982 0.999 . S
C980 H950 0.950 . S
C980 C979 1.524 . S
C980 C981 1.415 . S
C981 H951 0.950 . S
C981 C976 1.363 . S
C981 C980 1.415 . S
H982 C979 0.999 . S
H983 C964 0.913 . S
H984 C1002 0.951 . S
H985 C1004 0.951 . S
H986 C1006 0.950 . S
H987 C1007 0.950 . S
H988 C1009 0.950 . S
H989 C1012 0.950 . S
H990 C1013 0.950 . S
H991 C1015 0.950 . S
H992 C1016 0.950 . S
H993 C1017 0.951 . S
H994 C1019 0.951 . S
H995 C1021 0.950 . S
H996 C1022 0.950 . S
H997 C1024 0.950 . S
H998 C1027 0.950 . S
H999 C1028 0.950 . S
H1000 C1030 0.950 . S
H1001 C1031 0.950 . S
C1002 H984 0.951 . S
C1002 C1003 1.366 . S
C1002 C1004 1.388 . S
C1003 C1002 1.366 . S
C1003 C1007 1.385 . S
C1004 H985 0.951 . S
C1004 C1002 1.388 . S
C1004 C1005 1.366 . S
C1005 C1004 1.366 . S
C1005 C1006 1.414 . S
C1005 C1008 1.499 . S
C1006 H986 0.950 . S
C1006 C1005 1.414 . S
C1006 C1007 1.374 . S
C1007 H987 0.950 . S
C1007 C1003 1.385 . S
C1007 C1006 1.374 . S
C1008 C1005 1.499 . S
C1008 C1009 1.373 . S
C1008 C1010 1.389 . S
C1009 H988 0.950 . S
C1009 C1008 1.373 . S
C1009 C1025 1.377 . S
C1010 C1008 1.389 . S
C1010 C1011 1.524 . S
C1010 C1024 1.377 . S
C1011 C1010 1.524 . S
C1011 C1012 1.397 . S
C1011 C1016 1.363 . S
C1012 H989 0.950 . S
C1012 C1011 1.397 . S
C1012 C1013 1.334 . S
C1013 H990 0.950 . S
C1013 C1012 1.334 . S
C1013 C1014 1.287 . S
C1014 C1013 1.287 . S
C1014 C1015 1.524 . S
C1014 H1033 0.913 . S
C1015 H991 0.950 . S
C1015 C1014 1.524 . S
C1015 C1016 1.415 . S
C1016 H992 0.950 . S
C1016 C1011 1.363 . S
C1016 C1015 1.415 . S
C1017 H993 0.951 . S
C1017 C1018 1.366 . S
C1017 C1019 1.388 . S
C1018 C1017 1.366 . S
C1018 C1022 1.385 . S
C1019 H994 0.951 . S
C1019 C1017 1.388 . S
C1019 C1020 1.366 . S
C1020 C1019 1.366 . S
C1020 C1021 1.414 . S
C1020 C1023 1.499 . S
C1021 H995 0.950 . S
C1021 C1020 1.414 . S
C1021 C1022 1.374 . S
C1022 H996 0.950 . S
C1022 C1018 1.385 . S
C1022 C1021 1.374 . S
C1023 C1020 1.499 . S
C1023 C1024 1.373 . S
C1023 C1025 1.389 . S
C1024 H997 0.950 . S
C1024 C1010 1.377 . S
C1024 C1023 1.373 . S
C1025 C1009 1.377 . S
C1025 C1023 1.389 . S
C1025 C1026 1.524 . S
C1026 C1025 1.524 . S
C1026 C1027 1.397 . S
C1026 C1031 1.363 . S
C1027 H998 0.950 . S
C1027 C1026 1.397 . S
C1027 C1028 1.334 . S
C1028 H999 0.950 . S
C1028 C1027 1.334 . S
C1028 C1029 1.287 . S
C1029 C1028 1.287 . S
C1029 C1030 1.524 . S
C1029 H1032 0.999 . S
C1030 H1000 0.950 . S
C1030 C1029 1.524 . S
C1030 C1031 1.415 . S
C1031 H1001 0.950 . S
C1031 C1026 1.363 . S
C1031 C1030 1.415 . S
H1032 C1029 0.999 . S
H1033 C1014 0.913 . S
H1034 C1052 0.951 . S
H1035 C1054 0.951 . S
H1036 C1056 0.950 . S
H1037 C1057 0.950 . S
H1038 C1059 0.950 . S
H1039 C1062 0.950 . S
H1040 C1063 0.950 . S
H1041 C1065 0.950 . S
H1042 C1066 0.950 . S
H1043 C1067 0.951 . S
H1044 C1069 0.951 . S
H1045 C1071 0.950 . S
H1046 C1072 0.950 . S
H1047 C1074 0.950 . S
H1048 C1077 0.950 . S
H1049 C1078 0.950 . S
H1050 C1080 0.950 . S
H1051 C1081 0.950 . S
C1052 H1034 0.951 . S
C1052 C1053 1.366 . S
C1052 C1054 1.388 . S
C1053 C1052 1.366 . S
C1053 C1057 1.385 . S
C1054 H1035 0.951 . S
C1054 C1052 1.388 . S
C1054 C1055 1.366 . S
C1055 C1054 1.366 . S
C1055 C1056 1.414 . S
C1055 C1058 1.499 . S
C1056 H1036 0.950 . S
C1056 C1055 1.414 . S
C1056 C1057 1.374 . S
C1057 H1037 0.950 . S
C1057 C1053 1.385 . S
C1057 C1056 1.374 . S
C1058 C1055 1.499 . S
C1058 C1059 1.373 . S
C1058 C1060 1.389 . S
C1059 H1038 0.950 . S
C1059 C1058 1.373 . S
C1059 C1075 1.377 . S
C1060 C1058 1.389 . S
C1060 C1061 1.524 . S
C1060 C1074 1.377 . S
C1061 C1060 1.524 . S
C1061 C1062 1.397 . S
C1061 C1066 1.363 . S
C1062 H1039 0.950 . S
C1062 C1061 1.397 . S
C1062 C1063 1.334 . S
C1063 H1040 0.950 . S
C1063 C1062 1.334 . S
C1063 C1064 1.287 . S
C1064 C1063 1.287 . S
C1064 C1065 1.524 . S
C1064 H1083 0.913 . S
C1065 H1041 0.950 . S
C1065 C1064 1.524 . S
C1065 C1066 1.415 . S
C1066 H1042 0.950 . S
C1066 C1061 1.363 . S
C1066 C1065 1.415 . S
C1067 H1043 0.951 . S
C1067 C1068 1.366 . S
C1067 C1069 1.388 . S
C1068 C1067 1.366 . S
C1068 C1072 1.385 . S
C1069 H1044 0.951 . S
C1069 C1067 1.388 . S
C1069 C1070 1.366 . S
C1070 C1069 1.366 . S
C1070 C1071 1.414 . S
C1070 C1073 1.499 . S
C1071 H1045 0.950 . S
C1071 C1070 1.414 . S
C1071 C1072 1.374 . S
C1072 H1046 0.950 . S
C1072 C1068 1.385 . S
C1072 C1071 1.374 . S
C1073 C1070 1.499 . S
C1073 C1074 1.373 . S
C1073 C1075 1.389 . S
C1074 H1047 0.950 . S
C1074 C1060 1.377 . S
C1074 C1073 1.373 . S
C1075 C1059 1.377 . S
C1075 C1073 1.389 . S
C1075 C1076 1.524 . S
C1076 C1075 1.524 . S
C1076 C1077 1.397 . S
C1076 C1081 1.363 . S
C1077 H1048 0.950 . S
C1077 C1076 1.397 . S
C1077 C1078 1.334 . S
C1078 H1049 0.950 . S
C1078 C1077 1.334 . S
C1078 C1079 1.287 . S
C1079 C1078 1.287 . S
C1079 C1080 1.524 . S
C1079 H1082 0.999 . S
C1080 H1050 0.950 . S
C1080 C1079 1.524 . S
C1080 C1081 1.415 . S
C1081 H1051 0.950 . S
C1081 C1076 1.363 . S
C1081 C1080 1.415 . S
H1082 C1079 0.999 . S
H1083 C1064 0.913 . S
H1084 C1102 0.951 . S
H1085 C1104 0.951 . S
H1086 C1106 0.950 . S
H1087 C1107 0.950 . S
H1088 C1109 0.950 . S
H1089 C1112 0.950 . S
H1090 C1113 0.950 . S
H1091 C1115 0.950 . S
H1092 C1116 0.950 . S
H1093 C1117 0.951 . S
H1094 C1119 0.951 . S
H1095 C1121 0.950 . S
H1096 C1122 0.950 . S
H1097 C1124 0.950 . S
H1098 C1127 0.950 . S
H1099 C1128 0.950 . S
H1100 C1130 0.950 . S
H1101 C1131 0.950 . S
C1102 H1084 0.951 . S
C1102 C1103 1.366 . S
C1102 C1104 1.388 . S
C1103 C1102 1.366 . S
C1103 C1107 1.385 . S
C1104 H1085 0.951 . S
C1104 C1102 1.388 . S
C1104 C1105 1.366 . S
C1105 C1104 1.366 . S
C1105 C1106 1.414 . S
C1105 C1108 1.499 . S
C1106 H1086 0.950 . S
C1106 C1105 1.414 . S
C1106 C1107 1.374 . S
C1107 H1087 0.950 . S
C1107 C1103 1.385 . S
C1107 C1106 1.374 . S
C1108 C1105 1.499 . S
C1108 C1109 1.373 . S
C1108 C1110 1.389 . S
C1109 H1088 0.950 . S
C1109 C1108 1.373 . S
C1109 C1125 1.377 . S
C1110 C1108 1.389 . S
C1110 C1111 1.524 . S
C1110 C1124 1.377 . S
C1111 C1110 1.524 . S
C1111 C1112 1.397 . S
C1111 C1116 1.363 . S
C1112 H1089 0.950 . S
C1112 C1111 1.397 . S
C1112 C1113 1.334 . S
C1113 H1090 0.950 . S
C1113 C1112 1.334 . S
C1113 C1114 1.287 . S
C1114 C1113 1.287 . S
C1114 C1115 1.524 . S
C1114 H1133 0.913 . S
C1115 H1091 0.950 . S
C1115 C1114 1.524 . S
C1115 C1116 1.415 . S
C1116 H1092 0.950 . S
C1116 C1111 1.363 . S
C1116 C1115 1.415 . S
C1117 H1093 0.951 . S
C1117 C1118 1.366 . S
C1117 C1119 1.388 . S
C1118 C1117 1.366 . S
C1118 C1122 1.385 . S
C1119 H1094 0.951 . S
C1119 C1117 1.388 . S
C1119 C1120 1.366 . S
C1120 C1119 1.366 . S
C1120 C1121 1.414 . S
C1120 C1123 1.499 . S
C1121 H1095 0.950 . S
C1121 C1120 1.414 . S
C1121 C1122 1.374 . S
C1122 H1096 0.950 . S
C1122 C1118 1.385 . S
C1122 C1121 1.374 . S
C1123 C1120 1.499 . S
C1123 C1124 1.373 . S
C1123 C1125 1.389 . S
C1124 H1097 0.950 . S
C1124 C1110 1.377 . S
C1124 C1123 1.373 . S
C1125 C1109 1.377 . S
C1125 C1123 1.389 . S
C1125 C1126 1.524 . S
C1126 C1125 1.524 . S
C1126 C1127 1.397 . S
C1126 C1131 1.363 . S
C1127 H1098 0.950 . S
C1127 C1126 1.397 . S
C1127 C1128 1.334 . S
C1128 H1099 0.950 . S
C1128 C1127 1.334 . S
C1128 C1129 1.287 . S
C1129 C1128 1.287 . S
C1129 C1130 1.524 . S
C1129 H1132 0.999 . S
C1130 H1100 0.950 . S
C1130 C1129 1.524 . S
C1130 C1131 1.415 . S
C1131 H1101 0.950 . S
C1131 C1126 1.363 . S
C1131 C1130 1.415 . S
H1132 C1129 0.999 . S
H1133 C1114 0.913 . S
H1134 C1152 0.951 . S
H1135 C1154 0.951 . S
H1136 C1156 0.950 . S
H1137 C1157 0.950 . S
H1138 C1159 0.950 . S
H1139 C1162 0.950 . S
H1140 C1163 0.950 . S
H1141 C1165 0.950 . S
H1142 C1166 0.950 . S
H1143 C1167 0.951 . S
H1144 C1169 0.951 . S
H1145 C1171 0.950 . S
H1146 C1172 0.950 . S
H1147 C1174 0.950 . S
H1148 C1177 0.950 . S
H1149 C1178 0.950 . S
H1150 C1180 0.950 . S
H1151 C1181 0.950 . S
C1152 H1134 0.951 . S
C1152 C1153 1.366 . S
C1152 C1154 1.388 . S
C1153 C1152 1.366 . S
C1153 C1157 1.385 . S
C1154 H1135 0.951 . S
C1154 C1152 1.388 . S
C1154 C1155 1.366 . S
C1155 C1154 1.366 . S
C1155 C1156 1.414 . S
C1155 C1158 1.499 . S
C1156 H1136 0.950 . S
C1156 C1155 1.414 . S
C1156 C1157 1.374 . S
C1157 H1137 0.950 . S
C1157 C1153 1.385 . S
C1157 C1156 1.374 . S
C1158 C1155 1.499 . S
C1158 C1159 1.373 . S
C1158 C1160 1.389 . S
C1159 H1138 0.950 . S
C1159 C1158 1.373 . S
C1159 C1175 1.377 . S
C1160 C1158 1.389 . S
C1160 C1161 1.524 . S
C1160 C1174 1.377 . S
C1161 C1160 1.524 . S
C1161 C1162 1.397 . S
C1161 C1166 1.363 . S
C1162 H1139 0.950 . S
C1162 C1161 1.397 . S
C1162 C1163 1.334 . S
C1163 H1140 0.950 . S
C1163 C1162 1.334 . S
C1163 C1164 1.287 . S
C1164 C1163 1.287 . S
C1164 C1165 1.524 . S
C1164 H1183 0.913 . S
C1165 H1141 0.950 . S
C1165 C1164 1.524 . S
C1165 C1166 1.415 . S
C1166 H1142 0.950 . S
C1166 C1161 1.363 . S
C1166 C1165 1.415 . S
C1167 H1143 0.951 . S
C1167 C1168 1.366 . S
C1167 C1169 1.388 . S
C1168 C1167 1.366 . S
C1168 C1172 1.385 . S
C1169 H1144 0.951 . S
C1169 C1167 1.388 . S
C1169 C1170 1.366 . S
C1170 C1169 1.366 . S
C1170 C1171 1.414 . S
C1170 C1173 1.499 . S
C1171 H1145 0.950 . S
C1171 C1170 1.414 . S
C1171 C1172 1.374 . S
C1172 H1146 0.950 . S
C1172 C1168 1.385 . S
C1172 C1171 1.374 . S
C1173 C1170 1.499 . S
C1173 C1174 1.373 . S
C1173 C1175 1.389 . S
C1174 H1147 0.950 . S
C1174 C1160 1.377 . S
C1174 C1173 1.373 . S
C1175 C1159 1.377 . S
C1175 C1173 1.389 . S
C1175 C1176 1.524 . S
C1176 C1175 1.524 . S
C1176 C1177 1.397 . S
C1176 C1181 1.363 . S
C1177 H1148 0.950 . S
C1177 C1176 1.397 . S
C1177 C1178 1.334 . S
C1178 H1149 0.950 . S
C1178 C1177 1.334 . S
C1178 C1179 1.287 . S
C1179 C1178 1.287 . S
C1179 C1180 1.524 . S
C1179 H1182 0.999 . S
C1180 H1150 0.950 . S
C1180 C1179 1.524 . S
C1180 C1181 1.415 . S
C1181 H1151 0.950 . S
C1181 C1176 1.363 . S
C1181 C1180 1.415 . S
H1182 C1179 0.999 . S
H1183 C1164 0.913 . S
H1184 C1202 0.951 . S
H1185 C1204 0.951 . S
H1186 C1206 0.950 . S
H1187 C1207 0.950 . S
H1188 C1209 0.950 . S
H1189 C1212 0.950 . S
H1190 C1213 0.950 . S
H1191 C1215 0.950 . S
H1192 C1216 0.950 . S
H1193 C1217 0.951 . S
H1194 C1219 0.951 . S
H1195 C1221 0.950 . S
H1196 C1222 0.950 . S
H1197 C1224 0.950 . S
H1198 C1227 0.950 . S
H1199 C1228 0.950 . S
H1200 C1230 0.950 . S
H1201 C1231 0.950 . S
C1202 H1184 0.951 . S
C1202 C1203 1.366 . S
C1202 C1204 1.388 . S
C1203 C1202 1.366 . S
C1203 C1207 1.385 . S
C1204 H1185 0.951 . S
C1204 C1202 1.388 . S
C1204 C1205 1.366 . S
C1205 C1204 1.366 . S
C1205 C1206 1.414 . S
C1205 C1208 1.499 . S
C1206 H1186 0.950 . S
C1206 C1205 1.414 . S
C1206 C1207 1.374 . S
C1207 H1187 0.950 . S
C1207 C1203 1.385 . S
C1207 C1206 1.374 . S
C1208 C1205 1.499 . S
C1208 C1209 1.373 . S
C1208 C1210 1.389 . S
C1209 H1188 0.950 . S
C1209 C1208 1.373 . S
C1209 C1225 1.377 . S
C1210 C1208 1.389 . S
C1210 C1211 1.524 . S
C1210 C1224 1.377 . S
C1211 C1210 1.524 . S
C1211 C1212 1.397 . S
C1211 C1216 1.363 . S
C1212 H1189 0.950 . S
C1212 C1211 1.397 . S
C1212 C1213 1.334 . S
C1213 H1190 0.950 . S
C1213 C1212 1.334 . S
C1213 C1214 1.287 . S
C1214 C1213 1.287 . S
C1214 C1215 1.524 . S
C1214 H1233 0.913 . S
C1215 H1191 0.950 . S
C1215 C1214 1.524 . S
C1215 C1216 1.415 . S
C1216 H1192 0.950 . S
C1216 C1211 1.363 . S
C1216 C1215 1.415 . S
C1217 H1193 0.951 . S
C1217 C1218 1.366 . S
C1217 C1219 1.388 . S
C1218 C1217 1.366 . S
C1218 C1222 1.385 . S
C1219 H1194 0.951 . S
C1219 C1217 1.388 . S
C1219 C1220 1.366 . S
C1220 C1219 1.366 . S
C1220 C1221 1.414 . S
C1220 C1223 1.499 . S
C1221 H1195 0.950 . S
C1221 C1220 1.414 . S
C1221 C1222 1.374 . S
C1222 H1196 0.950 . S
C1222 C1218 1.385 . S
C1222 C1221 1.374 . S
C1223 C1220 1.499 . S
C1223 C1224 1.373 . S
C1223 C1225 1.389 . S
C1224 H1197 0.950 . S
C1224 C1210 1.377 . S
C1224 C1223 1.373 . S
C1225 C1209 1.377 . S
C1225 C1223 1.389 . S
C1225 C1226 1.524 . S
C1226 C1225 1.524 . S
C1226 C1227 1.397 . S
C1226 C1231 1.363 . S
C1227 H1198 0.950 . S
C1227 C1226 1.397 . S
C1227 C1228 1.334 . S
C1228 H1199 0.950 . S
C1228 C1227 1.334 . S
C1228 C1229 1.287 . S
C1229 C1228 1.287 . S
C1229 C1230 1.524 . S
C1229 H1232 0.999 . S
C1230 H1200 0.950 . S
C1230 C1229 1.524 . S
C1230 C1231 1.415 . S
C1231 H1201 0.950 . S
C1231 C1226 1.363 . S
C1231 C1230 1.415 . S
H1232 C1229 0.999 . S
H1233 C1214 0.913 . S
H1234 C1252 0.951 1_554 S
H1235 C1254 0.951 . S
H1236 C1256 0.950 . S
H1237 C1257 0.950 . S
H1238 C1259 0.950 . S
H1239 C1262 0.950 . S
H1240 C1263 0.950 . S
H1241 C1265 0.950 . S
H1242 C1266 0.950 . S
H1243 C1267 0.951 . S
H1244 C1269 0.951 . S
H1245 C1271 0.950 . S
H1246 C1272 0.950 . S
H1247 C1274 0.950 . S
H1248 C1277 0.950 . S
H1249 C1278 0.950 . S
H1250 C1280 0.950 . S
H1251 C1281 0.950 . S
C1252 H1234 0.951 1_556 S
C1252 C1253 1.366 . S
C1252 C1254 1.388 . S
C1253 C1252 1.366 . S
C1253 C1257 1.385 . S
C1254 H1235 0.951 . S
C1254 C1252 1.388 . S
C1254 C1255 1.366 . S
C1255 C1254 1.366 . S
C1255 C1256 1.414 . S
C1255 C1258 1.499 . S
C1256 H1236 0.950 . S
C1256 C1255 1.414 . S
C1256 C1257 1.374 . S
C1257 H1237 0.950 . S
C1257 C1253 1.385 . S
C1257 C1256 1.374 . S
C1258 C1255 1.499 . S
C1258 C1259 1.373 . S
C1258 C1260 1.389 . S
C1259 H1238 0.950 . S
C1259 C1258 1.373 . S
C1259 C1275 1.377 . S
C1260 C1258 1.389 . S
C1260 C1261 1.524 . S
C1260 C1274 1.377 . S
C1261 C1260 1.524 . S
C1261 C1262 1.397 . S
C1261 C1266 1.363 . S
C1262 H1239 0.950 . S
C1262 C1261 1.397 . S
C1262 C1263 1.334 . S
C1263 H1240 0.950 . S
C1263 C1262 1.334 . S
C1263 C1264 1.287 . S
C1264 C1263 1.287 . S
C1264 C1265 1.524 . S
C1264 H1283 0.913 . S
C1265 H1241 0.950 . S
C1265 C1264 1.524 . S
C1265 C1266 1.415 . S
C1266 H1242 0.950 . S
C1266 C1261 1.363 . S
C1266 C1265 1.415 . S
C1267 H1243 0.951 . S
C1267 C1268 1.366 . S
C1267 C1269 1.388 . S
C1268 C1267 1.366 . S
C1268 C1272 1.385 . S
C1269 H1244 0.951 . S
C1269 C1267 1.388 . S
C1269 C1270 1.366 . S
C1270 C1269 1.366 . S
C1270 C1271 1.414 . S
C1270 C1273 1.499 . S
C1271 H1245 0.950 . S
C1271 C1270 1.414 . S
C1271 C1272 1.374 . S
C1272 H1246 0.950 . S
C1272 C1268 1.385 . S
C1272 C1271 1.374 . S
C1273 C1270 1.499 . S
C1273 C1274 1.373 . S
C1273 C1275 1.389 . S
C1274 H1247 0.950 . S
C1274 C1260 1.377 . S
C1274 C1273 1.373 . S
C1275 C1259 1.377 . S
C1275 C1273 1.389 . S
C1275 C1276 1.524 . S
C1276 C1275 1.524 . S
C1276 C1277 1.397 . S
C1276 C1281 1.363 . S
C1277 H1248 0.950 . S
C1277 C1276 1.397 . S
C1277 C1278 1.334 . S
C1278 H1249 0.950 . S
C1278 C1277 1.334 . S
C1278 C1279 1.287 . S
C1279 C1278 1.287 . S
C1279 C1280 1.524 . S
C1279 H1282 0.999 . S
C1280 H1250 0.950 . S
C1280 C1279 1.524 . S
C1280 C1281 1.415 . S
C1281 H1251 0.950 . S
C1281 C1276 1.363 . S
C1281 C1280 1.415 . S
H1282 C1279 0.999 . S
H1283 C1264 0.913 . S
H1284 C1302 0.951 . S
H1285 C1304 0.951 . S
H1286 C1306 0.950 . S
H1287 C1307 0.950 . S
H1288 C1309 0.950 . S
H1289 C1312 0.950 . S
H1290 C1313 0.950 . S
H1291 C1315 0.950 . S
H1292 C1316 0.950 . S
H1293 C1317 0.951 . S
H1294 C1319 0.951 . S
H1295 C1321 0.950 . S
H1296 C1322 0.950 . S
H1297 C1324 0.950 . S
H1298 C1327 0.950 . S
H1299 C1328 0.950 . S
H1300 C1330 0.950 . S
H1301 C1331 0.950 . S
C1302 H1284 0.951 . S
C1302 C1303 1.366 . S
C1302 C1304 1.388 . S
C1303 C1302 1.366 . S
C1303 C1307 1.385 . S
C1304 H1285 0.951 . S
C1304 C1302 1.388 . S
C1304 C1305 1.366 . S
C1305 C1304 1.366 . S
C1305 C1306 1.414 . S
C1305 C1308 1.499 . S
C1306 H1286 0.950 . S
C1306 C1305 1.414 . S
C1306 C1307 1.374 . S
C1307 H1287 0.950 . S
C1307 C1303 1.385 . S
C1307 C1306 1.374 . S
C1308 C1305 1.499 . S
C1308 C1309 1.373 . S
C1308 C1310 1.389 . S
C1309 H1288 0.950 . S
C1309 C1308 1.373 . S
C1309 C1325 1.377 . S
C1310 C1308 1.389 . S
C1310 C1311 1.524 . S
C1310 C1324 1.377 . S
C1311 C1310 1.524 . S
C1311 C1312 1.397 . S
C1311 C1316 1.363 . S
C1312 H1289 0.950 . S
C1312 C1311 1.397 . S
C1312 C1313 1.334 . S
C1313 H1290 0.950 . S
C1313 C1312 1.334 . S
C1313 C1314 1.287 . S
C1314 C1313 1.287 . S
C1314 C1315 1.524 . S
C1314 H1333 0.913 . S
C1315 H1291 0.950 . S
C1315 C1314 1.524 . S
C1315 C1316 1.415 . S
C1316 H1292 0.950 . S
C1316 C1311 1.363 . S
C1316 C1315 1.415 . S
C1317 H1293 0.951 . S
C1317 C1318 1.366 . S
C1317 C1319 1.388 . S
C1318 C1317 1.366 . S
C1318 C1322 1.385 . S
C1319 H1294 0.951 . S
C1319 C1317 1.388 . S
C1319 C1320 1.366 . S
C1320 C1319 1.366 . S
C1320 C1321 1.414 . S
C1320 C1323 1.499 . S
C1321 H1295 0.950 . S
C1321 C1320 1.414 . S
C1321 C1322 1.374 . S
C1322 H1296 0.950 . S
C1322 C1318 1.385 . S
C1322 C1321 1.374 . S
C1323 C1320 1.499 . S
C1323 C1324 1.373 . S
C1323 C1325 1.389 . S
C1324 H1297 0.950 . S
C1324 C1310 1.377 . S
C1324 C1323 1.373 . S
C1325 C1309 1.377 . S
C1325 C1323 1.389 . S
C1325 C1326 1.524 . S
C1326 C1325 1.524 . S
C1326 C1327 1.397 . S
C1326 C1331 1.363 . S
C1327 H1298 0.950 . S
C1327 C1326 1.397 . S
C1327 C1328 1.334 . S
C1328 H1299 0.950 . S
C1328 C1327 1.334 . S
C1328 C1329 1.287 . S
C1329 C1328 1.287 . S
C1329 C1330 1.524 . S
C1329 H1332 0.999 . S
C1330 H1300 0.950 . S
C1330 C1329 1.524 . S
C1330 C1331 1.415 . S
C1331 H1301 0.950 . S
C1331 C1326 1.363 . S
C1331 C1330 1.415 . S
H1332 C1329 0.999 . S
H1333 C1314 0.913 . S
H1334 C1352 0.951 . S
H1335 C1354 0.951 . S
H1336 C1356 0.950 . S
H1337 C1357 0.950 . S
H1338 C1359 0.950 . S
H1339 C1362 0.950 . S
H1340 C1363 0.950 . S
H1341 C1365 0.950 . S
H1342 C1366 0.950 . S
H1343 C1367 0.951 . S
H1344 C1369 0.951 . S
H1345 C1371 0.950 . S
H1346 C1372 0.950 . S
H1347 C1374 0.950 . S
H1348 C1377 0.950 . S
H1349 C1378 0.950 . S
H1350 C1380 0.950 . S
H1351 C1381 0.950 . S
C1352 H1334 0.951 . S
C1352 C1353 1.366 . S
C1352 C1354 1.388 . S
C1353 C1352 1.366 . S
C1353 C1357 1.385 . S
C1354 H1335 0.951 . S
C1354 C1352 1.388 . S
C1354 C1355 1.366 . S
C1355 C1354 1.366 . S
C1355 C1356 1.414 . S
C1355 C1358 1.499 . S
C1356 H1336 0.950 . S
C1356 C1355 1.414 . S
C1356 C1357 1.374 . S
C1357 H1337 0.950 . S
C1357 C1353 1.385 . S
C1357 C1356 1.374 . S
C1358 C1355 1.499 . S
C1358 C1359 1.373 . S
C1358 C1360 1.389 . S
C1359 H1338 0.950 . S
C1359 C1358 1.373 . S
C1359 C1375 1.377 . S
C1360 C1358 1.389 . S
C1360 C1361 1.524 . S
C1360 C1374 1.377 . S
C1361 C1360 1.524 . S
C1361 C1362 1.397 . S
C1361 C1366 1.363 . S
C1362 H1339 0.950 . S
C1362 C1361 1.397 . S
C1362 C1363 1.334 . S
C1363 H1340 0.950 . S
C1363 C1362 1.334 . S
C1363 C1364 1.287 . S
C1364 C1363 1.287 . S
C1364 C1365 1.524 . S
C1364 H1383 0.913 . S
C1365 H1341 0.950 . S
C1365 C1364 1.524 . S
C1365 C1366 1.415 . S
C1366 H1342 0.950 . S
C1366 C1361 1.363 . S
C1366 C1365 1.415 . S
C1367 H1343 0.951 . S
C1367 C1368 1.366 . S
C1367 C1369 1.388 . S
C1368 C1367 1.366 . S
C1368 C1372 1.385 . S
C1369 H1344 0.951 . S
C1369 C1367 1.388 . S
C1369 C1370 1.366 . S
C1370 C1369 1.366 . S
C1370 C1371 1.414 . S
C1370 C1373 1.499 . S
C1371 H1345 0.950 . S
C1371 C1370 1.414 . S
C1371 C1372 1.374 . S
C1372 H1346 0.950 . S
C1372 C1368 1.385 . S
C1372 C1371 1.374 . S
C1373 C1370 1.499 . S
C1373 C1374 1.373 . S
C1373 C1375 1.389 . S
C1374 H1347 0.950 . S
C1374 C1360 1.377 . S
C1374 C1373 1.373 . S
C1375 C1359 1.377 . S
C1375 C1373 1.389 . S
C1375 C1376 1.524 . S
C1376 C1375 1.524 . S
C1376 C1377 1.397 . S
C1376 C1381 1.363 . S
C1377 H1348 0.950 . S
C1377 C1376 1.397 . S
C1377 C1378 1.334 . S
C1378 H1349 0.950 . S
C1378 C1377 1.334 . S
C1378 C1379 1.287 . S
C1379 C1378 1.287 . S
C1379 C1380 1.524 . S
C1379 H1382 0.999 . S
C1380 H1350 0.950 . S
C1380 C1379 1.524 . S
C1380 C1381 1.415 . S
C1381 H1351 0.950 . S
C1381 C1376 1.363 . S
C1381 C1380 1.415 . S
H1382 C1379 0.999 . S
H1383 C1364 0.913 . S
C203 C8 1.310 . S
C218 C97 1.267 . S
C253 C31 1.370 . S
C268 C109 1.351 . S
C303 C53 1.322 . S
C318 C121 1.297 . S
C368 C130 1.181 . S
C353 C74 1.200 . S
C418 C145 1.266 . S
C403 C26 1.310 . S
C453 C48 1.200 . S
C468 C154 1.181 . S
C503 C71 1.322 . S
C518 C169 1.295 . S
C553 C5 1.369 . S
C568 C181 1.352 . S
C603 C50 1.188 1_556 S
C618 C178 1.180 . S
C668 C142 1.214 . S
C653 C70 1.204 . S
C718 C157 1.281 . S
C703 C4 1.301 . S
C753 C28 1.211 . S
C768 C166 1.180 . S
C818 C106 1.181 . S
C803 C73 1.189 . S
C853 C7 1.211 . S
C868 C118 1.180 . S
C918 C133 1.282 . S
C903 C30 1.300 . S
C968 C94 1.214 . S
C953 C52 1.205 . S
C1018 C164 1.342 . S
C1003 C9 1.346 . S
C1068 C176 1.330 . S
C1053 C29 1.342 . S
C1103 C51 1.318 . S
C1118 C140 1.315 . S
C1168 C152 1.304 . S
C1153 C75 1.316 . S
C1218 C116 1.342 . S
C1203 C27 1.346 . S
C1253 C49 1.316 1_556 S
C1268 C128 1.305 . S
C1318 C92 1.314 . S
C1303 C72 1.317 . S
C1368 C104 1.331 . S
C1353 C6 1.342 . S
