# Generated by pormake.
# Topology hwx, (6,3)-cn, num edge types: 1
# Building blocks:
#     Node 0, Type 0, BuildingBlock: OJICUG_clean_sbu_0, # of connection points: 6
#     Node 1, Type 0, BuildingBlock: OJICUG_clean_sbu_0, # of connection points: 6
#     Node 2, Type 0, BuildingBlock: OJICUG_clean_sbu_0, # of connection points: 6
#     Node 3, Type 0, BuildingBlock: OJICUG_clean_sbu_0, # of connection points: 6
#     Node 4, Type 1, BuildingBlock: CUQRIR_clean_linker_1, # of connection points: 3
#     Node 5, Type 1, BuildingBlock: CUQRIR_clean_linker_1, # of connection points: 3
#     Node 6, Type 1, BuildingBlock: CUQRIR_clean_linker_1, # of connection points: 3
#     Node 7, Type 1, BuildingBlock: CUQRIR_clean_linker_1, # of connection points: 3
#     Node 8, Type 1, BuildingBlock: CUQRIR_clean_linker_1, # of connection points: 3
#     Node 9, Type 1, BuildingBlock: CUQRIR_clean_linker_1, # of connection points: 3
#     Node 10, Type 1, BuildingBlock: CUQRIR_clean_linker_1, # of connection points: 3
#     Node 11, Type 1, BuildingBlock: CUQRIR_clean_linker_1, # of connection points: 3
#     Edge 12, Type (0, 1), BuildingBlock: OJICUG_clean_linker_0, # of connection points: 2
#     Edge 13, Type (0, 1), BuildingBlock: OJICUG_clean_linker_0, # of connection points: 2
#     Edge 14, Type (0, 1), BuildingBlock: OJICUG_clean_linker_0, # of connection points: 2
#     Edge 15, Type (0, 1), BuildingBlock: OJICUG_clean_linker_0, # of connection points: 2
#     Edge 16, Type (0, 1), BuildingBlock: OJICUG_clean_linker_0, # of connection points: 2
#     Edge 17, Type (0, 1), BuildingBlock: OJICUG_clean_linker_0, # of connection points: 2
#     Edge 18, Type (0, 1), BuildingBlock: OJICUG_clean_linker_0, # of connection points: 2
#     Edge 19, Type (0, 1), BuildingBlock: OJICUG_clean_linker_0, # of connection points: 2
#     Edge 20, Type (0, 1), BuildingBlock: OJICUG_clean_linker_0, # of connection points: 2
#     Edge 21, Type (0, 1), BuildingBlock: OJICUG_clean_linker_0, # of connection points: 2
#     Edge 22, Type (0, 1), BuildingBlock: OJICUG_clean_linker_0, # of connection points: 2
#     Edge 23, Type (0, 1), BuildingBlock: OJICUG_clean_linker_0, # of connection points: 2
#     Edge 24, Type (0, 1), BuildingBlock: OJICUG_clean_linker_0, # of connection points: 2
#     Edge 25, Type (0, 1), BuildingBlock: OJICUG_clean_linker_0, # of connection points: 2
#     Edge 26, Type (0, 1), BuildingBlock: OJICUG_clean_linker_0, # of connection points: 2
#     Edge 27, Type (0, 1), BuildingBlock: OJICUG_clean_linker_0, # of connection points: 2
#     Edge 28, Type (0, 1), BuildingBlock: OJICUG_clean_linker_0, # of connection points: 2
#     Edge 29, Type (0, 1), BuildingBlock: OJICUG_clean_linker_0, # of connection points: 2
#     Edge 30, Type (0, 1), BuildingBlock: OJICUG_clean_linker_0, # of connection points: 2
#     Edge 31, Type (0, 1), BuildingBlock: OJICUG_clean_linker_0, # of connection points: 2
#     Edge 32, Type (0, 1), BuildingBlock: OJICUG_clean_linker_0, # of connection points: 2
#     Edge 33, Type (0, 1), BuildingBlock: OJICUG_clean_linker_0, # of connection points: 2
#     Edge 34, Type (0, 1), BuildingBlock: OJICUG_clean_linker_0, # of connection points: 2
#     Edge 35, Type (0, 1), BuildingBlock: OJICUG_clean_linker_0, # of connection points: 2
# Relax obj value: 0.003
# Max RMSD: 0.050
# Mean RMSD: 0.041
data_MOF--net-hwx--node1-OJICUG_clean_sbu_0--node2-CUQRIR_clean_linker_1--edge1-OJICUG_clean_linker_0
_symmetry_space_group_name_H-M    P1
_symmetry_Int_Tables_number       1
_symmetry_cell_setting            triclinic
loop_
_symmetry_equiv_pos_as_xyz
'x, y, z'
_cell_length_a     35.711298
_cell_length_b     35.717322
_cell_length_c     13.052682
_cell_angle_alpha  90.025391
_cell_angle_beta   90.031916
_cell_angle_gamma 90.004783
loop_
_atom_site_label
_atom_site_type_symbol
_atom_site_fract_x
_atom_site_fract_y
_atom_site_fract_z
_atom_type_partial_charge
Sc0 Sc 0.22011 0.21887 0.14175 0.0
Sc1 Sc 0.15907 0.15883 0.00717 0.0
Sc2 Sc 0.21912 0.21982 0.87283 0.0
O3 O 0.19937 0.19912 0.00725 0.0
C4 C 0.21523 0.29347 1.00613 0.0
C5 C 0.13354 0.21164 0.19362 0.0
C6 C 0.13182 0.21059 0.82361 0.0
C7 C 0.21085 0.13158 0.19078 0.0
C8 C 0.29373 0.21493 0.00852 0.0
C9 C 0.21186 0.13327 0.82078 0.0
O10 O 0.22085 0.2762 0.08991 0.0
O11 O 0.12803 0.18523 0.12978 0.0
O12 O 0.16455 0.22247 0.80391 0.0
O13 O 0.22274 0.1643 0.21059 0.0
O14 O 0.27645 0.22055 0.92475 0.0
O15 O 0.18544 0.12777 0.88454 0.0
O16 O 0.27719 0.21084 0.09391 0.0
O17 O 0.18897 0.12453 0.11623 0.0
O18 O 0.22864 0.16453 0.81175 0.0
O19 O 0.16481 0.22841 0.20275 0.0
O20 O 0.21112 0.2769 0.92074 0.0
O21 O 0.12476 0.18872 0.8981 0.0
Sc22 Sc 0.26836 0.71888 0.37245 0.0
Sc23 Sc 0.32949 0.65895 0.50692 0.0
Sc24 Sc 0.26933 0.71984 0.6414 0.0
O25 O 0.28911 0.69917 0.50692 0.0
C26 C 0.27314 0.79349 0.50819 0.0
C27 C 0.35495 0.7118 0.3206 0.0
C28 C 0.35664 0.71077 0.69064 0.0
C29 C 0.27775 0.63162 0.3232 0.0
C30 C 0.19472 0.7148 0.50569 0.0
C31 C 0.27672 0.63328 0.69322 0.0
O32 O 0.26756 0.77621 0.42438 0.0
O33 O 0.36051 0.68542 0.38445 0.0
O34 O 0.3239 0.72261 0.71031 0.0
O35 O 0.26578 0.66432 0.30354 0.0
O36 O 0.21199 0.72043 0.58949 0.0
O37 O 0.30313 0.62782 0.62939 0.0
O38 O 0.21127 0.71078 0.42029 0.0
O39 O 0.29967 0.62461 0.39769 0.0
O40 O 0.25992 0.66453 0.70239 0.0
O41 O 0.32364 0.72849 0.31143 0.0
O42 O 0.27723 0.77694 0.59358 0.0
O43 O 0.36373 0.68888 0.61616 0.0
Sc44 Sc 0.76935 0.76789 0.87235 0.0
Sc45 Sc 0.82957 0.82876 0.0069 0.0
Sc46 Sc 0.76837 0.76893 0.14127 0.0
O47 O 0.78915 0.78858 0.00684 0.0
C48 C 0.69474 0.77304 0.00789 0.0
C49 C 0.77685 0.85442 0.82036 0.0
C50 C 0.77787 0.85619 0.19037 0.0
C51 C 0.85668 0.77687 0.82338 0.0
C52 C 0.77307 0.69429 1.0057 0.0
C53 C 0.85495 0.77592 0.1934 0.0
O54 O 0.71199 0.76733 0.92414 0.0
O55 O 0.80328 0.85985 0.8842 0.0
O56 O 0.76589 0.82351 0.2101 0.0
O57 O 0.82392 0.76508 0.80355 0.0
O58 O 0.76748 0.7116 0.08944 0.0
O59 O 0.86054 0.80231 0.1296 0.0
O60 O 0.77721 0.71081 0.9203 0.0
O61 O 0.86379 0.79873 0.89792 0.0
O62 O 0.82363 0.75924 0.20243 0.0
O63 O 0.75997 0.8232 0.81127 0.0
O64 O 0.71131 0.77711 0.09329 0.0
O65 O 0.79978 0.86317 0.11588 0.0
Sc66 Sc 0.71914 0.26792 0.64184 0.0
Sc67 Sc 0.65908 0.32894 0.50745 0.0
Sc68 Sc 0.72012 0.26897 0.37294 0.0
O69 O 0.69939 0.28866 0.50741 0.0
C70 C 0.79375 0.27294 0.50631 0.0
C71 C 0.71185 0.35445 0.69409 0.0
C72 C 0.71083 0.35626 0.32406 0.0
C73 C 0.63182 0.27711 0.69078 0.0
C74 C 0.71532 0.19433 0.50837 0.0
C75 C 0.63357 0.27616 0.32082 0.0
O76 O 0.77648 0.26724 0.59003 0.0
O77 O 0.68543 0.35995 0.63028 0.0
O78 O 0.72269 0.32354 0.30417 0.0
O79 O 0.66455 0.26524 0.7106 0.0
O80 O 0.72095 0.21163 0.42467 0.0
O81 O 0.62806 0.30258 0.38461 0.0
O82 O 0.71115 0.21085 0.59378 0.0
O83 O 0.62477 0.29899 0.61628 0.0
O84 O 0.66483 0.25937 0.31184 0.0
O85 O 0.72865 0.3232 0.70307 0.0
O86 O 0.77719 0.27707 0.42092 0.0
O87 O 0.68899 0.3633 0.39863 0.0
C88 C 0.22759 0.47625 0.92447 0.0
N89 N 0.23383 0.5119 0.95543 0.0
N90 N 0.22111 0.45374 1.00626 0.0
C91 C 0.22999 0.46295 0.81522 0.0
C92 C 0.22388 0.47709 0.08779 0.0
N93 N 0.23183 0.51232 0.05703 0.0
C94 C 0.21756 0.46592 0.19756 0.0
H95 H 0.20123 0.45902 0.78493 0.0
H96 H 0.24465 0.43559 0.81141 0.0
H97 H 0.2446 0.48332 0.76526 0.0
H98 H 0.24479 0.45862 0.23326 0.0
H99 H 0.19869 0.44131 0.20251 0.0
H100 H 0.2053 0.48955 0.24146 0.0
C101 C 0.01109 0.72259 0.5881 0.0
N102 N 0.97583 0.73054 0.55744 0.0
N103 N 0.03439 0.71985 0.50649 0.0
C104 C 0.02236 0.71629 0.69783 0.0
C105 C 0.01181 0.72632 0.42478 0.0
N106 N 0.97618 0.73254 0.45585 0.0
C107 C 0.02505 0.72879 0.31551 0.0
H108 H 0.02965 0.74352 0.73352 0.0
H109 H 0.04701 0.69745 0.70268 0.0
H110 H -0.00122 0.70398 0.74178 0.0
H111 H 0.0292 0.70006 0.28531 0.0
H112 H 0.05229 0.74367 0.31167 0.0
H113 H 0.00455 0.74321 0.26548 0.0
C114 C 0.76475 0.51077 0.08872 0.0
N115 N 0.75684 0.4755 0.05816 0.0
N116 N 0.76755 0.53402 0.00703 0.0
C117 C 0.77101 0.52209 0.19845 0.0
C118 C 0.76114 0.51139 0.92537 0.0
N119 N 0.75491 0.47579 0.95654 0.0
C120 C 0.75874 0.52457 0.81601 0.0
H121 H 0.74376 0.52943 0.23391 0.0
H122 H 0.78987 0.54673 0.20331 0.0
H123 H 0.78328 0.49854 0.2426 0.0
H124 H 0.7875 0.52856 0.78589 0.0
H125 H 0.74398 0.55186 0.81194 0.0
H126 H 0.74423 0.50409 0.76608 0.0
C127 C 0.97657 0.26096 0.4249 0.0
N128 N 0.01221 0.25472 0.45589 0.0
N129 N 0.95404 0.26743 0.50667 0.0
C130 C 0.96326 0.25853 0.31563 0.0
C131 C 0.97738 0.26466 0.58823 0.0
N132 N 0.01262 0.25671 0.55749 0.0
C133 C 0.96619 0.27096 0.698 0.0
H134 H 0.95922 0.28728 0.28549 0.0
H135 H 0.93596 0.24376 0.31176 0.0
H136 H 0.98368 0.24403 0.26559 0.0
H137 H 0.95889 0.24373 0.73359 0.0
H138 H 0.94156 0.28982 0.70297 0.0
H139 H 0.9898 0.28324 0.74197 0.0
C140 C 0.72788 0.0115 0.58925 0.0
N141 N 0.73411 0.97587 0.55815 0.0
N142 N 0.72143 0.03407 0.50755 0.0
C143 C 0.73026 0.02473 0.69859 0.0
C144 C 0.72423 0.01077 0.4259 0.0
N145 N 0.73216 0.97552 0.45654 0.0
C146 C 0.71793 0.02202 0.31616 0.0
H147 H 0.7015 0.02854 0.72885 0.0
H148 H 0.74485 0.05212 0.7026 0.0
H149 H 0.74493 0.00436 0.74844 0.0
H150 H 0.74517 0.02937 0.28065 0.0
H151 H 0.69904 0.04662 0.31126 0.0
H152 H 0.70569 -0.00158 0.27208 0.0
C153 C 0.47732 0.22316 0.92603 0.0
N154 N 0.51258 0.23109 0.95667 0.0
N155 N 0.45403 0.22038 0.00765 0.0
C156 C 0.46603 0.21686 0.81628 0.0
C157 C 0.47663 0.22684 0.08936 0.0
N158 N 0.51225 0.23306 0.05828 0.0
C159 C 0.4634 0.22928 0.19867 0.0
H160 H 0.45871 0.2441 0.78072 0.0
H161 H 0.44139 0.19801 0.81139 0.0
H162 H 0.48961 0.20459 0.77224 0.0
H163 H 0.45939 0.20054 0.22887 0.0
H164 H 0.43611 0.24405 0.20259 0.0
H165 H 0.48387 0.2438 0.24863 0.0
C166 C 0.26481 0.97708 0.42601 0.0
N167 N 0.25688 0.01232 0.45671 0.0
N168 N 0.26758 0.95377 0.5076 0.0
C169 C 0.2711 0.96583 0.31626 0.0
C170 C 0.26114 0.97634 0.58934 0.0
N171 N 0.25491 0.01196 0.55832 0.0
C172 C 0.25872 0.96309 0.69862 0.0
H173 H 0.24387 0.95852 0.28061 0.0
H174 H 0.28996 0.9412 0.31136 0.0
H175 H 0.28338 0.98942 0.27231 0.0
H176 H 0.28747 0.95909 0.72887 0.0
H177 H 0.24397 0.93578 0.70248 0.0
H178 H 0.24418 0.98352 0.74858 0.0
C179 C 0.51189 0.76129 0.08939 0.0
N180 N 0.47624 0.75506 0.05842 0.0
N181 N 0.53441 0.76777 0.00762 0.0
C182 C 0.52522 0.75885 0.19864 0.0
C183 C 0.51105 0.76503 0.92608 0.0
N184 N 0.47581 0.75707 0.95682 0.0
C185 C 0.52223 0.77133 0.81631 0.0
H186 H 0.52935 0.78758 0.2288 0.0
H187 H 0.55248 0.74401 0.20242 0.0
H188 H 0.50477 0.7444 0.24871 0.0
H189 H 0.52949 0.7441 0.78061 0.0
H190 H 0.54687 0.79017 0.81137 0.0
H191 H 0.49861 0.78363 0.77243 0.0
C192 C 0.10087 0.25903 0.30379 0.0
C193 C 0.10235 0.22278 0.26179 0.0
H194 H 0.06989 0.2978 0.39689 0.0
C195 C 0.07386 0.19708 0.28635 0.0
H196 H 0.12224 0.27951 0.28576 0.0
C197 C 0.0447 0.20737 0.35199 0.0
C198 C 0.04318 0.24364 0.3926 0.0
H199 H 0.07434 0.16888 0.25579 0.0
H200 H 0.02302 0.18727 0.37039 0.0
C201 C 0.07122 0.26947 0.36764 0.0
C202 C 0.22938 0.60053 0.80323 0.0
C203 C 0.26563 0.60207 0.76133 0.0
H204 H 0.19064 0.56948 0.89623 0.0
C205 C 0.29138 0.57363 0.78597 0.0
H206 H 0.20885 0.62186 0.78515 0.0
C207 C 0.28113 0.54445 0.85159 0.0
C208 C 0.24486 0.54287 0.89211 0.0
H209 H 0.31958 0.57415 0.75548 0.0
H210 H 0.30127 0.52281 0.87005 0.0
C211 C 0.21898 0.57086 0.86706 0.0
C212 C 0.9146 0.79037 0.28656 0.0
C213 C 0.8861 0.76471 0.26168 0.0
H214 H 0.96544 0.80006 0.37088 0.0
C215 C 0.88751 0.72844 0.30347 0.0
H216 H 0.91417 0.81858 0.25617 0.0
C217 C 0.91713 0.71793 0.36739 0.0
C218 C 0.9452 0.74371 0.39264 0.0
H219 H 0.86612 0.708 0.2852 0.0
H220 H 0.91843 0.68957 0.39644 0.0
C221 C 0.94373 0.78 0.35227 0.0
C222 C 0.75926 0.38716 0.80415 0.0
C223 C 0.72297 0.38562 0.7624 0.0
H224 H 0.79807 0.41822 0.89709 0.0
C225 C 0.69722 0.41401 0.78733 0.0
H226 H 0.77979 0.36586 0.78584 0.0
C227 C 0.70751 0.44317 0.85305 0.0
C228 C 0.74382 0.44478 0.89337 0.0
H229 H 0.66899 0.41347 0.75696 0.0
H230 H 0.68737 0.46479 0.87168 0.0
C231 C 0.76971 0.41682 0.86807 0.0
C232 C 0.57399 0.29076 0.22759 0.0
C233 C 0.6024 0.26502 0.25253 0.0
H234 H 0.5232 0.30059 0.1432 0.0
C235 C 0.60087 0.22874 0.21078 0.0
H236 H 0.57451 0.31899 0.25797 0.0
C237 C 0.57122 0.21829 0.14682 0.0
C238 C 0.54325 0.24416 0.12151 0.0
H239 H 0.62218 0.20823 0.22909 0.0
H240 H 0.56983 0.18993 0.11779 0.0
C241 C 0.54483 0.28047 0.16185 0.0
C242 C 0.25926 0.10057 0.7108 0.0
C243 C 0.22299 0.10209 0.75255 0.0
H244 H 0.29806 0.06956 0.61784 0.0
C245 C 0.19725 0.07366 0.72765 0.0
H246 H 0.27978 0.1219 0.72908 0.0
C247 C 0.20753 0.04451 0.66193 0.0
C248 C 0.24383 0.04294 0.62158 0.0
H249 H 0.16903 0.07417 0.75802 0.0
H250 H 0.18741 0.02287 0.6433 0.0
C251 C 0.2697 0.07093 0.64687 0.0
C252 C 0.41468 0.69734 0.22794 0.0
C253 C 0.38613 0.72299 0.25246 0.0
H254 H 0.46555 0.68762 0.14398 0.0
C255 C 0.38753 0.75922 0.21043 0.0
H256 H 0.41426 0.66916 0.25852 0.0
C257 C 0.41718 0.76971 0.1466 0.0
C258 C 0.44528 0.74393 0.1217 0.0
H259 H 0.36612 0.77966 0.22841 0.0
H260 H 0.41845 0.79803 0.11735 0.0
C261 C 0.44383 0.70768 0.16233 0.0
C262 C 0.72952 0.88727 0.71038 0.0
C263 C 0.7658 0.88563 0.75217 0.0
H264 H 0.6908 0.91841 0.61747 0.0
C265 C 0.79162 0.91399 0.72741 0.0
H266 H 0.70895 0.866 0.72857 0.0
C267 C 0.78141 0.94318 0.66178 0.0
C268 C 0.74511 0.94487 0.62138 0.0
H269 H 0.81984 0.91339 0.75782 0.0
H270 H 0.8016 0.96476 0.64324 0.0
C271 C 0.71916 0.91696 0.64655 0.0
C272 C 0.88303 0.73363 0.6903 0.0
C273 C 0.88758 0.76478 0.75537 0.0
H274 H 0.90828 0.69772 0.57808 0.0
C275 C 0.92162 0.7845 0.7533 0.0
H276 H 0.85728 0.71759 0.69063 0.0
C277 C 0.95028 0.77347 0.68705 0.0
C278 C 0.94563 0.74236 0.62265 0.0
H279 H 0.92597 0.80872 0.80183 0.0
H280 H 0.97618 0.78923 0.68574 0.0
C281 C 0.91194 0.72238 0.62511 0.0
C282 C 0.75397 0.3827 0.19099 0.0
C283 C 0.72283 0.38719 0.2561 0.0
H284 H 0.78978 0.40803 0.07875 0.0
C285 C 0.70306 0.42119 0.25409 0.0
H286 H 0.77005 0.35699 0.19128 0.0
C287 C 0.71401 0.44988 0.18785 0.0
C288 C 0.7451 0.44529 0.1234 0.0
H289 H 0.67885 0.42549 0.30266 0.0
H290 H 0.69821 0.47575 0.18658 0.0
C291 C 0.76513 0.41164 0.12581 0.0
C292 C 0.06693 0.20278 0.75317 0.0
C293 C 0.10092 0.2226 0.75551 0.0
H294 H 0.01239 0.19795 0.68536 0.0
C295 C 0.10541 0.25378 0.6906 0.0
H296 H 0.06264 0.17854 0.80159 0.0
C297 C 0.07648 0.26497 0.62533 0.0
C298 C 0.04285 0.24491 0.62262 0.0
H299 H 0.13111 0.26989 0.69114 0.0
H300 H 0.08008 0.28966 0.57846 0.0
C301 C 0.03826 0.21375 0.68684 0.0
C302 C 0.23462 0.60512 0.19001 0.0
C303 C 0.2658 0.60069 0.25506 0.0
H304 H 0.19879 0.57973 0.07775 0.0
C305 C 0.28567 0.56674 0.25285 0.0
H306 H 0.21847 0.6308 0.19045 0.0
C307 C 0.27474 0.53805 0.18651 0.0
C308 C 0.24359 0.54258 0.12215 0.0
H309 H 0.30991 0.56249 0.30138 0.0
H310 H 0.29058 0.5122 0.18515 0.0
C311 C 0.22348 0.57617 0.12473 0.0
C312 C 0.42153 0.70303 0.76114 0.0
C313 C 0.38754 0.72282 0.75877 0.0
H314 H 0.47607 0.69826 0.82899 0.0
C315 C 0.38303 0.75403 0.82365 0.0
H316 H 0.42584 0.67877 0.71275 0.0
C317 C 0.41195 0.76527 0.88894 0.0
C318 C 0.44559 0.74522 0.89168 0.0
H319 H 0.35732 0.77012 0.82308 0.0
H320 H 0.40833 0.78997 0.93579 0.0
C321 C 0.45019 0.71405 0.82748 0.0
C322 C 0.78584 0.9211 0.26056 0.0
C323 C 0.76597 0.88714 0.25844 0.0
H324 H 0.79081 0.97564 0.3282 0.0
C325 C 0.73483 0.88272 0.32355 0.0
H326 H 0.81004 0.92534 0.21198 0.0
C327 C 0.72374 0.91168 0.38883 0.0
C328 C 0.74386 0.94527 0.39134 0.0
H329 H 0.71868 0.85705 0.32319 0.0
H330 H 0.69909 0.90812 0.43587 0.0
C331 C 0.77496 0.9498 0.32689 0.0
C332 C 0.60539 0.23398 0.82388 0.0
C333 C 0.6009 0.2651 0.75877 0.0
H334 H 0.58007 0.19817 0.93614 0.0
C335 C 0.56689 0.28488 0.76079 0.0
H336 H 0.63111 0.2179 0.82359 0.0
C337 C 0.5382 0.27393 0.82704 0.0
C338 C 0.5428 0.24284 0.89149 0.0
H339 H 0.56258 0.30908 0.71222 0.0
H340 H 0.51233 0.28972 0.8283 0.0
C341 C 0.57645 0.22281 0.88907 0.0
C342 C 0.20305 0.06666 0.26083 0.0
C343 C 0.22284 0.10066 0.25882 0.0
H344 H 0.1982 0.0121 0.32831 0.0
C345 C 0.25399 0.10514 0.32397 0.0
H346 H 0.17883 0.06237 0.21223 0.0
C347 C 0.26517 0.0762 0.38917 0.0
C348 C 0.24512 0.04255 0.39155 0.0
H349 H 0.27009 0.13085 0.32369 0.0
H350 H 0.28983 0.0798 0.43625 0.0
C351 C 0.214 0.03797 0.32708 0.0
C352 C 0.23994 0.35368 0.07399 0.0
C353 C 0.21551 0.3347 0.00768 0.0
H354 H 0.26203 0.40652 0.12159 0.0
C355 C 0.19242 0.35542 0.94151 0.0
H356 H 0.25844 0.33833 0.12466 0.0
C357 C 0.19356 0.39459 0.94256 0.0
C358 C 0.21852 0.41351 0.00767 0.0
H359 H 0.17323 0.34136 0.88995 0.0
H360 H 0.17499 0.4101 0.89267 0.0
C361 C 0.24183 0.39266 0.0728 0.0
C362 C 0.13444 0.73922 0.5737 0.0
C363 C 0.15348 0.71489 0.5073 0.0
H364 H 0.08152 0.76101 0.62159 0.0
C365 C 0.1328 0.69168 0.44128 0.0
H366 H 0.14974 0.7578 0.62427 0.0
C367 C 0.09363 0.69259 0.44258 0.0
C368 C 0.07464 0.71744 0.50779 0.0
H369 H 0.14692 0.67256 0.38967 0.0
H370 H 0.07816 0.67394 0.3928 0.0
C371 C 0.09544 0.74088 0.57275 0.0
C372 C 0.7484 0.63412 0.07368 0.0
C373 C 0.77283 0.65306 0.0074 0.0
H374 H 0.72643 0.58129 0.12162 0.0
C375 C 0.79602 0.6323 0.94161 0.0
H376 H 0.72983 0.6495 0.12407 0.0
C377 C 0.79499 0.59314 0.94304 0.0
C378 C 0.77005 0.57425 0.00814 0.0
H379 H 0.81522 0.64634 0.8901 0.0
H380 H 0.81364 0.5776 0.89345 0.0
C381 C 0.74662 0.59514 0.07286 0.0
C382 C 0.854 0.24834 0.57412 0.0
C383 C 0.83498 0.27275 0.50792 0.0
H384 H 0.90689 0.22636 0.62168 0.0
C385 C 0.85567 0.29592 0.44193 0.0
H386 H 0.83868 0.22978 0.62464 0.0
C387 C 0.89484 0.29487 0.44305 0.0
C388 C 0.9138 0.26993 0.50805 0.0
H389 H 0.84157 0.31509 0.39046 0.0
H390 H 0.91032 0.31349 0.39329 0.0
C391 C 0.89299 0.24654 0.57299 0.0
C392 C 0.74015 0.1342 0.44041 0.0
C393 C 0.71567 0.15309 0.50668 0.0
H394 H 0.76233 0.08142 0.39267 0.0
C395 C 0.6926 0.13229 0.57266 0.0
H396 H 0.75864 0.14961 0.38991 0.0
C397 C 0.6938 0.09314 0.57143 0.0
C398 C 0.7188 0.0743 0.50634 0.0
H399 H 0.67337 0.14629 0.62419 0.0
H400 H 0.67524 0.07756 0.62116 0.0
C401 C 0.7421 0.09522 0.44144 0.0
C402 C 0.35394 0.23953 0.94061 0.0
C403 C 0.33497 0.21513 0.00691 0.0
H404 H 0.4068 0.26147 0.89279 0.0
C405 C 0.3557 0.19196 0.07283 0.0
H406 H 0.33859 0.25808 0.89013 0.0
C407 C 0.39487 0.19298 0.07152 0.0
C408 C 0.41379 0.2179 1.00641 0.0
H409 H 0.34164 0.17279 0.12436 0.0
H410 H 0.41038 0.17435 0.12122 0.0
C411 C 0.39293 0.2413 0.94156 0.0
C412 C 0.29606 0.85545 0.57267 0.0
C413 C 0.27291 0.83472 0.50662 0.0
H414 H 0.31363 0.91012 0.62124 0.0
C415 C 0.24851 0.85369 0.44027 0.0
H416 H 0.31523 0.84139 0.62424 0.0
C417 C 0.24672 0.89268 0.44129 0.0
C418 C 0.2701 0.91353 0.50628 0.0
H419 H 0.22997 0.83834 0.38968 0.0
H420 H 0.22654 0.90655 0.39247 0.0
C421 C 0.29502 0.89461 0.57144 0.0
C422 C 0.63442 0.74857 0.93997 0.0
C423 C 0.65349 0.77292 1.00628 0.0
H424 H 0.58149 0.72668 0.89234 0.0
C425 C 0.63285 0.7961 0.0724 0.0
H426 H 0.64971 0.73 0.88935 0.0
C427 C 0.59367 0.79512 0.07129 0.0
C428 C 0.57466 0.77023 1.00619 0.0
H429 H 0.64698 0.81524 0.12395 0.0
H430 H 0.57823 0.81374 0.12115 0.0
C431 C 0.59543 0.74683 0.94112 0.0
loop_
_geom_bond_atom_site_label_1
_geom_bond_atom_site_label_2
_geom_bond_distance
_geom_bond_site_symmetry_2
_ccdc_geom_bond_type
Sc0 O3 2.026 . S
Sc0 O10 2.105 . S
Sc0 O13 2.105 . S
Sc0 O16 2.105 . S
Sc0 O19 2.105 . S
Sc1 O3 2.025 . S
Sc1 O11 2.104 . S
Sc1 O15 2.106 1_554 S
Sc1 O17 2.104 . S
Sc1 O21 2.106 1_554 S
Sc2 O3 2.025 1_556 S
Sc2 O12 2.105 . S
Sc2 O14 2.105 . S
Sc2 O18 2.105 . S
Sc2 O20 2.105 . S
O3 Sc0 2.026 . S
O3 Sc1 2.025 . S
O3 Sc2 2.025 1_554 S
C4 O10 1.270 . S
C4 O20 1.267 1_554 S
C5 O11 1.268 . S
C5 O19 1.268 . S
C6 O12 1.268 . S
C6 O21 1.268 . S
C7 O13 1.268 . S
C7 O17 1.268 . S
C8 O14 1.267 1_554 S
C8 O16 1.270 . S
C9 O15 1.268 . S
C9 O18 1.268 . S
O10 Sc0 2.105 . S
O10 C4 1.270 . S
O11 Sc1 2.104 . S
O11 C5 1.268 . S
O12 Sc2 2.105 . S
O12 C6 1.268 . S
O13 Sc0 2.105 . S
O13 C7 1.268 . S
O14 Sc2 2.105 . S
O14 C8 1.267 1_556 S
O15 Sc1 2.106 1_556 S
O15 C9 1.268 . S
O16 Sc0 2.105 . S
O16 C8 1.270 . S
O17 Sc1 2.104 . S
O17 C7 1.268 . S
O18 Sc2 2.105 . S
O18 C9 1.268 . S
O19 Sc0 2.105 . S
O19 C5 1.268 . S
O20 Sc2 2.105 . S
O20 C4 1.267 1_556 S
O21 Sc1 2.106 1_556 S
O21 C6 1.268 . S
Sc22 O25 2.025 . S
Sc22 O32 2.105 . S
Sc22 O35 2.105 . S
Sc22 O38 2.105 . S
Sc22 O41 2.105 . S
Sc23 O25 2.025 . S
Sc23 O33 2.105 . S
Sc23 O37 2.105 . S
Sc23 O39 2.105 . S
Sc23 O43 2.105 . S
Sc24 O25 2.025 . S
Sc24 O34 2.105 . S
Sc24 O36 2.105 . S
Sc24 O40 2.105 . S
Sc24 O42 2.105 . S
O25 Sc22 2.025 . S
O25 Sc23 2.025 . S
O25 Sc24 2.025 . S
C26 O32 1.268 . S
C26 O42 1.268 . S
C27 O33 1.268 . S
C27 O41 1.268 . S
C28 O34 1.268 . S
C28 O43 1.268 . S
C29 O35 1.268 . S
C29 O39 1.268 . S
C30 O36 1.268 . S
C30 O38 1.268 . S
C31 O37 1.268 . S
C31 O40 1.268 . S
O32 Sc22 2.105 . S
O32 C26 1.268 . S
O33 Sc23 2.105 . S
O33 C27 1.268 . S
O34 Sc24 2.105 . S
O34 C28 1.268 . S
O35 Sc22 2.105 . S
O35 C29 1.268 . S
O36 Sc24 2.105 . S
O36 C30 1.268 . S
O37 Sc23 2.105 . S
O37 C31 1.268 . S
O38 Sc22 2.105 . S
O38 C30 1.268 . S
O39 Sc23 2.105 . S
O39 C29 1.268 . S
O40 Sc24 2.105 . S
O40 C31 1.268 . S
O41 Sc22 2.105 . S
O41 C27 1.268 . S
O42 Sc24 2.105 . S
O42 C26 1.268 . S
O43 Sc23 2.105 . S
O43 C28 1.268 . S
Sc44 O47 2.021 1_556 S
Sc44 O54 2.105 . S
Sc44 O57 2.105 . S
Sc44 O60 2.105 . S
Sc44 O63 2.105 . S
Sc45 O47 2.025 . S
Sc45 O55 2.101 1_554 S
Sc45 O59 2.109 . S
Sc45 O61 2.101 1_554 S
Sc45 O65 2.109 . S
Sc46 O47 2.030 . S
Sc46 O56 2.105 . S
Sc46 O58 2.105 . S
Sc46 O62 2.105 . S
Sc46 O64 2.105 . S
O47 Sc44 2.021 1_554 S
O47 Sc45 2.025 . S
O47 Sc46 2.030 . S
C48 O54 1.265 1_554 S
C48 O64 1.271 . S
C49 O55 1.268 . S
C49 O63 1.268 . S
C50 O56 1.268 . S
C50 O65 1.268 . S
C51 O57 1.268 . S
C51 O61 1.268 . S
C52 O58 1.271 . S
C52 O60 1.265 1_554 S
C53 O59 1.268 . S
C53 O62 1.268 . S
O54 Sc44 2.105 . S
O54 C48 1.265 1_556 S
O55 Sc45 2.101 1_556 S
O55 C49 1.268 . S
O56 Sc46 2.105 . S
O56 C50 1.268 . S
O57 Sc44 2.105 . S
O57 C51 1.268 . S
O58 Sc46 2.105 . S
O58 C52 1.271 . S
O59 Sc45 2.109 . S
O59 C53 1.268 . S
O60 Sc44 2.105 . S
O60 C52 1.265 1_556 S
O61 Sc45 2.101 1_556 S
O61 C51 1.268 . S
O62 Sc46 2.105 . S
O62 C53 1.268 . S
O63 Sc44 2.105 . S
O63 C49 1.268 . S
O64 Sc46 2.105 . S
O64 C48 1.271 . S
O65 Sc45 2.109 . S
O65 C50 1.268 . S
Sc66 O69 2.025 . S
Sc66 O76 2.105 . S
Sc66 O79 2.105 . S
Sc66 O82 2.105 . S
Sc66 O85 2.105 . S
Sc67 O69 2.025 . S
Sc67 O77 2.105 . S
Sc67 O81 2.105 . S
Sc67 O83 2.105 . S
Sc67 O87 2.105 . S
Sc68 O69 2.025 . S
Sc68 O78 2.105 . S
Sc68 O80 2.105 . S
Sc68 O84 2.105 . S
Sc68 O86 2.105 . S
O69 Sc66 2.025 . S
O69 Sc67 2.025 . S
O69 Sc68 2.025 . S
C70 O76 1.268 . S
C70 O86 1.268 . S
C71 O77 1.268 . S
C71 O85 1.268 . S
C72 O78 1.268 . S
C72 O87 1.268 . S
C73 O79 1.268 . S
C73 O83 1.268 . S
C74 O80 1.268 . S
C74 O82 1.268 . S
C75 O81 1.268 . S
C75 O84 1.268 . S
O76 Sc66 2.105 . S
O76 C70 1.268 . S
O77 Sc67 2.105 . S
O77 C71 1.268 . S
O78 Sc68 2.105 . S
O78 C72 1.268 . S
O79 Sc66 2.105 . S
O79 C73 1.268 . S
O80 Sc68 2.105 . S
O80 C74 1.268 . S
O81 Sc67 2.105 . S
O81 C75 1.268 . S
O82 Sc66 2.105 . S
O82 C74 1.268 . S
O83 Sc67 2.105 . S
O83 C73 1.268 . S
O84 Sc68 2.105 . S
O84 C75 1.268 . S
O85 Sc66 2.105 . S
O85 C71 1.268 . S
O86 Sc68 2.105 . S
O86 C70 1.268 . S
O87 Sc67 2.105 . S
O87 C72 1.268 . S
C88 N89 1.317 . S
C88 N90 1.348 . S
C88 C91 1.485 . S
N89 C88 1.317 . S
N89 N93 1.370 1_556 S
N90 C88 1.348 . S
N90 C92 1.346 1_556 S
C91 C88 1.485 . S
C91 H95 0.960 . S
C91 H96 0.961 . S
C91 H97 0.960 . S
C92 N90 1.346 1_554 S
C92 N93 1.307 . S
C92 C94 1.486 . S
N93 N89 1.370 1_554 S
N93 C92 1.307 . S
C94 C92 1.486 . S
C94 H98 0.960 . S
C94 H99 0.960 . S
C94 H100 0.959 . S
H95 C91 0.960 . S
H96 C91 0.961 . S
H97 C91 0.960 . S
H98 C94 0.960 . S
H99 C94 0.960 . S
H100 C94 0.959 . S
C101 N102 1.317 1_455 S
C101 N103 1.348 . S
C101 C104 1.485 . S
N102 C101 1.317 1_655 S
N102 N106 1.370 . S
N103 C101 1.348 . S
N103 C105 1.346 . S
C104 C101 1.485 . S
C104 H108 0.960 . S
C104 H109 0.961 . S
C104 H110 0.960 1_455 S
C105 N103 1.346 . S
C105 N106 1.307 1_455 S
C105 C107 1.486 . S
N106 N102 1.370 . S
N106 C105 1.307 1_655 S
C107 C105 1.486 . S
C107 H111 0.960 . S
C107 H112 0.960 . S
C107 H113 0.953 1_455 S
H108 C104 0.960 . S
H109 C104 0.961 . S
H110 C104 0.960 1_655 S
H111 C107 0.960 . S
H112 C107 0.960 . S
H113 C107 0.953 1_655 S
C114 N115 1.317 . S
C114 N116 1.348 . S
C114 C117 1.485 . S
N115 C114 1.317 . S
N115 N119 1.370 1_554 S
N116 C114 1.348 . S
N116 C118 1.346 1_554 S
C117 C114 1.485 . S
C117 H121 0.960 . S
C117 H122 0.961 . S
C117 H123 0.960 . S
C118 N116 1.346 1_556 S
C118 N119 1.307 . S
C118 C120 1.486 . S
N119 N115 1.370 1_556 S
N119 C118 1.307 . S
C120 C118 1.486 . S
C120 H124 0.960 . S
C120 H125 0.960 . S
C120 H126 0.959 . S
H121 C117 0.960 . S
H122 C117 0.961 . S
H123 C117 0.960 . S
H124 C120 0.960 . S
H125 C120 0.960 . S
H126 C120 0.959 . S
C127 N128 1.317 1_655 S
C127 N129 1.348 . S
C127 C130 1.485 . S
N128 C127 1.317 1_455 S
N128 N132 1.370 . S
N129 C127 1.348 . S
N129 C131 1.346 . S
C130 C127 1.485 . S
C130 H134 0.960 . S
C130 H135 0.961 . S
C130 H136 0.973 . S
C131 N129 1.346 . S
C131 N132 1.307 1_655 S
C131 C133 1.486 . S
N132 N128 1.370 . S
N132 C131 1.307 1_455 S
C133 C131 1.486 . S
C133 H137 0.960 . S
C133 H138 0.960 . S
C133 H139 0.959 1_655 S
H134 C130 0.960 . S
H135 C130 0.961 . S
H136 C130 0.973 . S
H137 C133 0.960 . S
H138 C133 0.960 . S
H139 C133 0.959 1_455 S
C140 N141 1.317 1_545 S
C140 N142 1.348 . S
C140 C143 1.485 . S
N141 C140 1.317 1_565 S
N141 N145 1.370 . S
N142 C140 1.348 . S
N142 C144 1.346 . S
C143 C140 1.485 . S
C143 H147 0.960 . S
C143 H148 0.961 . S
C143 H149 0.973 . S
C144 N142 1.346 . S
C144 N145 1.307 1_545 S
C144 C146 1.486 . S
N145 N141 1.370 . S
N145 C144 1.307 1_565 S
C146 C144 1.486 . S
C146 H150 0.960 . S
C146 H151 0.960 . S
C146 H152 0.959 1_545 S
H147 C143 0.960 . S
H148 C143 0.961 . S
H149 C143 0.973 . S
H150 C146 0.960 . S
H151 C146 0.960 . S
H152 C146 0.959 1_565 S
C153 N154 1.317 . S
C153 N155 1.348 . S
C153 C156 1.485 . S
N154 C153 1.317 . S
N154 N158 1.370 1_556 S
N155 C153 1.348 . S
N155 C157 1.346 1_556 S
C156 C153 1.485 . S
C156 H160 0.960 . S
C156 H161 0.961 . S
C156 H162 0.960 . S
C157 N155 1.346 1_554 S
C157 N158 1.307 . S
C157 C159 1.486 . S
N158 N154 1.370 1_554 S
N158 C157 1.307 . S
C159 C157 1.486 . S
C159 H163 0.960 . S
C159 H164 0.960 . S
C159 H165 0.959 . S
H160 C156 0.960 . S
H161 C156 0.961 . S
H162 C156 0.960 . S
H163 C159 0.960 . S
H164 C159 0.960 . S
H165 C159 0.959 . S
C166 N167 1.317 1_565 S
C166 N168 1.348 . S
C166 C169 1.485 . S
N167 C166 1.317 1_545 S
N167 N171 1.370 . S
N168 C166 1.348 . S
N168 C170 1.346 . S
C169 C166 1.485 . S
C169 H173 0.960 . S
C169 H174 0.961 . S
C169 H175 0.960 1_565 S
C170 N168 1.346 . S
C170 N171 1.307 1_565 S
C170 C172 1.486 . S
N171 N167 1.370 . S
N171 C170 1.307 1_545 S
C172 C170 1.486 . S
C172 H176 0.960 . S
C172 H177 0.960 . S
C172 H178 0.953 1_565 S
H173 C169 0.960 . S
H174 C169 0.961 . S
H175 C169 0.960 1_545 S
H176 C172 0.960 . S
H177 C172 0.960 . S
H178 C172 0.953 1_545 S
C179 N180 1.317 . S
C179 N181 1.348 . S
C179 C182 1.485 . S
N180 C179 1.317 . S
N180 N184 1.370 1_554 S
N181 C179 1.348 . S
N181 C183 1.346 1_554 S
C182 C179 1.485 . S
C182 H186 0.960 . S
C182 H187 0.961 . S
C182 H188 0.960 . S
C183 N181 1.346 1_556 S
C183 N184 1.307 . S
C183 C185 1.486 . S
N184 N180 1.370 1_556 S
N184 C183 1.307 . S
C185 C183 1.486 . S
C185 H189 0.960 . S
C185 H190 0.960 . S
C185 H191 0.959 . S
H186 C182 0.960 . S
H187 C182 0.961 . S
H188 C182 0.960 . S
H189 C185 0.960 . S
H190 C185 0.960 . S
H191 C185 0.959 . S
C192 C193 1.387 . S
C192 H196 0.950 . S
C192 C201 1.390 . S
C193 C192 1.387 . S
C193 C195 1.387 . S
H194 C201 0.950 . S
C195 C193 1.387 . S
C195 C197 1.390 . S
C195 H199 0.950 . S
H196 C192 0.950 . S
C197 C195 1.390 . S
C197 C198 1.387 . S
C197 H200 0.950 . S
C198 C197 1.387 . S
C198 C201 1.387 . S
H199 C195 0.950 . S
H200 C197 0.950 . S
C201 C192 1.390 . S
C201 H194 0.950 . S
C201 C198 1.387 . S
C202 C203 1.387 . S
C202 H206 0.950 . S
C202 C211 1.390 . S
C203 C202 1.387 . S
C203 C205 1.387 . S
H204 C211 0.950 . S
C205 C203 1.387 . S
C205 C207 1.390 . S
C205 H209 0.950 . S
H206 C202 0.950 . S
C207 C205 1.390 . S
C207 C208 1.387 . S
C207 H210 0.950 . S
C208 C207 1.387 . S
C208 C211 1.387 . S
H209 C205 0.950 . S
H210 C207 0.950 . S
C211 C202 1.390 . S
C211 H204 0.950 . S
C211 C208 1.387 . S
C212 C213 1.387 . S
C212 H216 0.950 . S
C212 C221 1.390 . S
C213 C212 1.387 . S
C213 C215 1.387 . S
H214 C221 0.950 . S
C215 C213 1.387 . S
C215 C217 1.390 . S
C215 H219 0.950 . S
H216 C212 0.950 . S
C217 C215 1.390 . S
C217 C218 1.387 . S
C217 H220 0.950 . S
C218 C217 1.387 . S
C218 C221 1.387 . S
H219 C215 0.950 . S
H220 C217 0.950 . S
C221 C212 1.390 . S
C221 H214 0.950 . S
C221 C218 1.387 . S
C222 C223 1.387 . S
C222 H226 0.950 . S
C222 C231 1.390 . S
C223 C222 1.387 . S
C223 C225 1.387 . S
H224 C231 0.950 . S
C225 C223 1.387 . S
C225 C227 1.390 . S
C225 H229 0.950 . S
H226 C222 0.950 . S
C227 C225 1.390 . S
C227 C228 1.387 . S
C227 H230 0.950 . S
C228 C227 1.387 . S
C228 C231 1.387 . S
H229 C225 0.950 . S
H230 C227 0.950 . S
C231 C222 1.390 . S
C231 H224 0.950 . S
C231 C228 1.387 . S
C232 C233 1.387 . S
C232 H236 0.950 . S
C232 C241 1.390 . S
C233 C232 1.387 . S
C233 C235 1.387 . S
H234 C241 0.950 . S
C235 C233 1.387 . S
C235 C237 1.390 . S
C235 H239 0.950 . S
H236 C232 0.950 . S
C237 C235 1.390 . S
C237 C238 1.387 . S
C237 H240 0.950 . S
C238 C237 1.387 . S
C238 C241 1.387 . S
H239 C235 0.950 . S
H240 C237 0.950 . S
C241 C232 1.390 . S
C241 H234 0.950 . S
C241 C238 1.387 . S
C242 C243 1.387 . S
C242 H246 0.950 . S
C242 C251 1.390 . S
C243 C242 1.387 . S
C243 C245 1.387 . S
H244 C251 0.950 . S
C245 C243 1.387 . S
C245 C247 1.390 . S
C245 H249 0.950 . S
H246 C242 0.950 . S
C247 C245 1.390 . S
C247 C248 1.387 . S
C247 H250 0.950 . S
C248 C247 1.387 . S
C248 C251 1.387 . S
H249 C245 0.950 . S
H250 C247 0.950 . S
C251 C242 1.390 . S
C251 H244 0.950 . S
C251 C248 1.387 . S
C252 C253 1.387 . S
C252 H256 0.950 . S
C252 C261 1.390 . S
C253 C252 1.387 . S
C253 C255 1.387 . S
H254 C261 0.950 . S
C255 C253 1.387 . S
C255 C257 1.390 . S
C255 H259 0.950 . S
H256 C252 0.950 . S
C257 C255 1.390 . S
C257 C258 1.387 . S
C257 H260 0.950 . S
C258 C257 1.387 . S
C258 C261 1.387 . S
H259 C255 0.950 . S
H260 C257 0.950 . S
C261 C252 1.390 . S
C261 H254 0.950 . S
C261 C258 1.387 . S
C262 C263 1.387 . S
C262 H266 0.950 . S
C262 C271 1.390 . S
C263 C262 1.387 . S
C263 C265 1.387 . S
H264 C271 0.950 . S
C265 C263 1.387 . S
C265 C267 1.390 . S
C265 H269 0.950 . S
H266 C262 0.950 . S
C267 C265 1.390 . S
C267 C268 1.387 . S
C267 H270 0.950 . S
C268 C267 1.387 . S
C268 C271 1.387 . S
H269 C265 0.950 . S
H270 C267 0.950 . S
C271 C262 1.390 . S
C271 H264 0.950 . S
C271 C268 1.387 . S
C272 C273 1.387 . S
C272 H276 0.950 . S
C272 C281 1.390 . S
C273 C272 1.387 . S
C273 C275 1.387 . S
H274 C281 0.950 . S
C275 C273 1.387 . S
C275 C277 1.390 . S
C275 H279 0.950 . S
H276 C272 0.950 . S
C277 C275 1.390 . S
C277 C278 1.387 . S
C277 H280 0.950 . S
C278 C277 1.387 . S
C278 C281 1.387 . S
H279 C275 0.950 . S
H280 C277 0.950 . S
C281 C272 1.390 . S
C281 H274 0.950 . S
C281 C278 1.387 . S
C282 C283 1.387 . S
C282 H286 0.950 . S
C282 C291 1.390 . S
C283 C282 1.387 . S
C283 C285 1.387 . S
H284 C291 0.950 . S
C285 C283 1.387 . S
C285 C287 1.390 . S
C285 H289 0.950 . S
H286 C282 0.950 . S
C287 C285 1.390 . S
C287 C288 1.387 . S
C287 H290 0.950 . S
C288 C287 1.387 . S
C288 C291 1.387 . S
H289 C285 0.950 . S
H290 C287 0.950 . S
C291 C282 1.390 . S
C291 H284 0.950 . S
C291 C288 1.387 . S
C292 C293 1.387 . S
C292 H296 0.950 . S
C292 C301 1.390 . S
C293 C292 1.387 . S
C293 C295 1.387 . S
H294 C301 0.950 . S
C295 C293 1.387 . S
C295 C297 1.390 . S
C295 H299 0.950 . S
H296 C292 0.950 . S
C297 C295 1.390 . S
C297 C298 1.387 . S
C297 H300 0.950 . S
C298 C297 1.387 . S
C298 C301 1.387 . S
H299 C295 0.950 . S
H300 C297 0.950 . S
C301 C292 1.390 . S
C301 H294 0.950 . S
C301 C298 1.387 . S
C302 C303 1.387 . S
C302 H306 0.950 . S
C302 C311 1.390 . S
C303 C302 1.387 . S
C303 C305 1.387 . S
H304 C311 0.950 . S
C305 C303 1.387 . S
C305 C307 1.390 . S
C305 H309 0.950 . S
H306 C302 0.950 . S
C307 C305 1.390 . S
C307 C308 1.387 . S
C307 H310 0.950 . S
C308 C307 1.387 . S
C308 C311 1.387 . S
H309 C305 0.950 . S
H310 C307 0.950 . S
C311 C302 1.390 . S
C311 H304 0.950 . S
C311 C308 1.387 . S
C312 C313 1.387 . S
C312 H316 0.950 . S
C312 C321 1.390 . S
C313 C312 1.387 . S
C313 C315 1.387 . S
H314 C321 0.950 . S
C315 C313 1.387 . S
C315 C317 1.390 . S
C315 H319 0.950 . S
H316 C312 0.950 . S
C317 C315 1.390 . S
C317 C318 1.387 . S
C317 H320 0.950 . S
C318 C317 1.387 . S
C318 C321 1.387 . S
H319 C315 0.950 . S
H320 C317 0.950 . S
C321 C312 1.390 . S
C321 H314 0.950 . S
C321 C318 1.387 . S
C322 C323 1.387 . S
C322 H326 0.950 . S
C322 C331 1.390 . S
C323 C322 1.387 . S
C323 C325 1.387 . S
H324 C331 0.950 . S
C325 C323 1.387 . S
C325 C327 1.390 . S
C325 H329 0.950 . S
H326 C322 0.950 . S
C327 C325 1.390 . S
C327 C328 1.387 . S
C327 H330 0.950 . S
C328 C327 1.387 . S
C328 C331 1.387 . S
H329 C325 0.950 . S
H330 C327 0.950 . S
C331 C322 1.390 . S
C331 H324 0.950 . S
C331 C328 1.387 . S
C332 C333 1.387 . S
C332 H336 0.950 . S
C332 C341 1.390 . S
C333 C332 1.387 . S
C333 C335 1.387 . S
H334 C341 0.950 . S
C335 C333 1.387 . S
C335 C337 1.390 . S
C335 H339 0.950 . S
H336 C332 0.950 . S
C337 C335 1.390 . S
C337 C338 1.387 . S
C337 H340 0.950 . S
C338 C337 1.387 . S
C338 C341 1.387 . S
H339 C335 0.950 . S
H340 C337 0.950 . S
C341 C332 1.390 . S
C341 H334 0.950 . S
C341 C338 1.387 . S
C342 C343 1.387 . S
C342 H346 0.950 . S
C342 C351 1.390 . S
C343 C342 1.387 . S
C343 C345 1.387 . S
H344 C351 0.950 . S
C345 C343 1.387 . S
C345 C347 1.390 . S
C345 H349 0.950 . S
H346 C342 0.950 . S
C347 C345 1.390 . S
C347 C348 1.387 . S
C347 H350 0.950 . S
C348 C347 1.387 . S
C348 C351 1.387 . S
H349 C345 0.950 . S
H350 C347 0.950 . S
C351 C342 1.390 . S
C351 H344 0.950 . S
C351 C348 1.387 . S
C352 C353 1.389 . S
C352 H356 0.950 . S
C352 C361 1.390 . S
C353 C352 1.389 . S
C353 C355 1.386 1_554 S
H354 C361 0.950 . S
C355 C353 1.386 1_556 S
C355 C357 1.390 . S
C355 H359 0.950 . S
H356 C352 0.950 . S
C357 C355 1.390 . S
C357 C358 1.385 1_556 S
C357 H360 0.950 . S
C358 C357 1.385 1_554 S
C358 C361 1.390 . S
H359 C355 0.950 . S
H360 C357 0.950 . S
C361 C352 1.390 . S
C361 H354 0.950 . S
C361 C358 1.390 . S
C362 C363 1.387 . S
C362 H366 0.950 . S
C362 C371 1.390 . S
C363 C362 1.387 . S
C363 C365 1.387 . S
H364 C371 0.950 . S
C365 C363 1.387 . S
C365 C367 1.390 . S
C365 H369 0.950 . S
H366 C362 0.950 . S
C367 C365 1.390 . S
C367 C368 1.387 . S
C367 H370 0.950 . S
C368 C367 1.387 . S
C368 C371 1.387 . S
H369 C365 0.950 . S
H370 C367 0.950 . S
C371 C362 1.390 . S
C371 H364 0.950 . S
C371 C368 1.387 . S
C372 C373 1.390 . S
C372 H376 0.950 . S
C372 C381 1.390 . S
C373 C372 1.390 . S
C373 C375 1.385 1_554 S
H374 C381 0.950 . S
C375 C373 1.385 1_556 S
C375 C377 1.390 . S
C375 H379 0.950 . S
H376 C372 0.950 . S
C377 C375 1.390 . S
C377 C378 1.385 1_556 S
C377 H380 0.950 . S
C378 C377 1.385 1_554 S
C378 C381 1.390 . S
H379 C375 0.950 . S
H380 C377 0.950 . S
C381 C372 1.390 . S
C381 H374 0.950 . S
C381 C378 1.390 . S
C382 C383 1.387 . S
C382 H386 0.950 . S
C382 C391 1.390 . S
C383 C382 1.387 . S
C383 C385 1.387 . S
H384 C391 0.950 . S
C385 C383 1.387 . S
C385 C387 1.390 . S
C385 H389 0.950 . S
H386 C382 0.950 . S
C387 C385 1.390 . S
C387 C388 1.387 . S
C387 H390 0.950 . S
C388 C387 1.387 . S
C388 C391 1.387 . S
H389 C385 0.950 . S
H390 C387 0.950 . S
C391 C382 1.390 . S
C391 H384 0.950 . S
C391 C388 1.387 . S
C392 C393 1.387 . S
C392 H396 0.950 . S
C392 C401 1.390 . S
C393 C392 1.387 . S
C393 C395 1.387 . S
H394 C401 0.950 . S
C395 C393 1.387 . S
C395 C397 1.390 . S
C395 H399 0.950 . S
H396 C392 0.950 . S
C397 C395 1.390 . S
C397 C398 1.387 . S
C397 H400 0.950 . S
C398 C397 1.387 . S
C398 C401 1.387 . S
H399 C395 0.950 . S
H400 C397 0.950 . S
C401 C392 1.390 . S
C401 H394 0.950 . S
C401 C398 1.387 . S
C402 C403 1.386 1_556 S
C402 H406 0.950 . S
C402 C411 1.390 . S
C403 C402 1.386 1_554 S
C403 C405 1.389 . S
H404 C411 0.950 . S
C405 C403 1.389 . S
C405 C407 1.390 . S
C405 H409 0.950 . S
H406 C402 0.950 . S
C407 C405 1.390 . S
C407 C408 1.389 . S
C407 H410 0.950 . S
C408 C407 1.389 . S
C408 C411 1.386 1_554 S
H409 C405 0.950 . S
H410 C407 0.950 . S
C411 C402 1.390 . S
C411 H404 0.950 . S
C411 C408 1.386 1_556 S
C412 C413 1.387 . S
C412 H416 0.950 . S
C412 C421 1.390 . S
C413 C412 1.387 . S
C413 C415 1.387 . S
H414 C421 0.950 . S
C415 C413 1.387 . S
C415 C417 1.390 . S
C415 H419 0.950 . S
H416 C412 0.950 . S
C417 C415 1.390 . S
C417 C418 1.387 . S
C417 H420 0.950 . S
C418 C417 1.387 . S
C418 C421 1.387 . S
H419 C415 0.950 . S
H420 C417 0.950 . S
C421 C412 1.390 . S
C421 H414 0.950 . S
C421 C418 1.387 . S
C422 C423 1.385 1_556 S
C422 H426 0.950 . S
C422 C431 1.390 . S
C423 C422 1.385 1_554 S
C423 C425 1.390 . S
H424 C431 0.950 . S
C425 C423 1.390 . S
C425 C427 1.390 . S
C425 H429 0.950 . S
H426 C422 0.950 . S
C427 C425 1.390 . S
C427 C428 1.390 . S
C427 H430 0.950 . S
C428 C427 1.390 . S
C428 C431 1.385 1_554 S
H429 C425 0.950 . S
H430 C427 0.950 . S
C431 C422 1.390 . S
C431 H424 0.950 . S
C431 C428 1.385 1_556 S
C193 C5 1.475 . S
C198 N128 1.483 . S
C203 C31 1.476 . S
C208 N89 1.484 . S
C218 N106 1.492 . S
C213 C53 1.478 . S
C223 C71 1.476 . S
C228 N119 1.491 . S
C238 N158 1.492 . S
C233 C75 1.477 . S
C248 N171 1.492 . S
C243 C9 1.476 . S
C258 N180 1.484 . S
C253 C27 1.477 . S
C268 N141 1.483 . S
C263 C49 1.477 . S
C273 C51 1.477 . S
C278 N102 1.494 . S
C283 C72 1.477 . S
C288 N115 1.494 . S
C293 C6 1.476 . S
C298 N132 1.490 . S
C308 N93 1.491 . S
C303 C29 1.477 . S
C313 C28 1.476 . S
C318 N184 1.490 . S
C328 N145 1.490 . S
C323 C50 1.476 . S
C338 N154 1.494 . S
C333 C73 1.477 . S
C343 C7 1.475 . S
C348 N167 1.493 . S
C358 N90 1.505 1_554 S
C353 C4 1.500 . S
C368 N103 1.511 . S
C363 C30 1.500 . S
C373 C52 1.500 . S
C378 N116 1.511 . S
C383 C70 1.500 . S
C388 N129 1.505 . S
C398 N142 1.505 . S
C393 C74 1.500 . S
C403 C8 1.500 . S
C408 N155 1.511 1_554 S
C413 C26 1.498 . S
C418 N168 1.511 . S
C423 C48 1.500 . S
C428 N181 1.505 . S
