# Generated by pormake.
# Topology llj, (12,3)-cn, num edge types: 1
# Building blocks:
#     Node 0, Type 0, BuildingBlock: QEWDON_clean_sbu_0, # of connection points: 12
#     Node 1, Type 0, BuildingBlock: QEWDON_clean_sbu_0, # of connection points: 12
#     Node 2, Type 1, BuildingBlock: MIDCAF_clean_linker_0, # of connection points: 3
#     Node 3, Type 1, BuildingBlock: MIDCAF_clean_linker_0, # of connection points: 3
#     Node 4, Type 1, BuildingBlock: MIDCAF_clean_linker_0, # of connection points: 3
#     Node 5, Type 1, BuildingBlock: MIDCAF_clean_linker_0, # of connection points: 3
#     Node 6, Type 1, BuildingBlock: MIDCAF_clean_linker_0, # of connection points: 3
#     Node 7, Type 1, BuildingBlock: MIDCAF_clean_linker_0, # of connection points: 3
#     Node 8, Type 1, BuildingBlock: MIDCAF_clean_linker_0, # of connection points: 3
#     Node 9, Type 1, BuildingBlock: MIDCAF_clean_linker_0, # of connection points: 3
#     Edge 10, Type (0, 1), BuildingBlock: CIFDUS_clean_linker_0, # of connection points: 2
#     Edge 11, Type (0, 1), BuildingBlock: CIFDUS_clean_linker_0, # of connection points: 2
#     Edge 12, Type (0, 1), BuildingBlock: CIFDUS_clean_linker_0, # of connection points: 2
#     Edge 13, Type (0, 1), BuildingBlock: CIFDUS_clean_linker_0, # of connection points: 2
#     Edge 14, Type (0, 1), BuildingBlock: CIFDUS_clean_linker_0, # of connection points: 2
#     Edge 15, Type (0, 1), BuildingBlock: CIFDUS_clean_linker_0, # of connection points: 2
#     Edge 16, Type (0, 1), BuildingBlock: CIFDUS_clean_linker_0, # of connection points: 2
#     Edge 17, Type (0, 1), BuildingBlock: CIFDUS_clean_linker_0, # of connection points: 2
#     Edge 18, Type (0, 1), BuildingBlock: CIFDUS_clean_linker_0, # of connection points: 2
#     Edge 19, Type (0, 1), BuildingBlock: CIFDUS_clean_linker_0, # of connection points: 2
#     Edge 20, Type (0, 1), BuildingBlock: CIFDUS_clean_linker_0, # of connection points: 2
#     Edge 21, Type (0, 1), BuildingBlock: CIFDUS_clean_linker_0, # of connection points: 2
#     Edge 22, Type (0, 1), BuildingBlock: CIFDUS_clean_linker_0, # of connection points: 2
#     Edge 23, Type (0, 1), BuildingBlock: CIFDUS_clean_linker_0, # of connection points: 2
#     Edge 24, Type (0, 1), BuildingBlock: CIFDUS_clean_linker_0, # of connection points: 2
#     Edge 25, Type (0, 1), BuildingBlock: CIFDUS_clean_linker_0, # of connection points: 2
#     Edge 26, Type (0, 1), BuildingBlock: CIFDUS_clean_linker_0, # of connection points: 2
#     Edge 27, Type (0, 1), BuildingBlock: CIFDUS_clean_linker_0, # of connection points: 2
#     Edge 28, Type (0, 1), BuildingBlock: CIFDUS_clean_linker_0, # of connection points: 2
#     Edge 29, Type (0, 1), BuildingBlock: CIFDUS_clean_linker_0, # of connection points: 2
#     Edge 30, Type (0, 1), BuildingBlock: CIFDUS_clean_linker_0, # of connection points: 2
#     Edge 31, Type (0, 1), BuildingBlock: CIFDUS_clean_linker_0, # of connection points: 2
#     Edge 32, Type (0, 1), BuildingBlock: CIFDUS_clean_linker_0, # of connection points: 2
#     Edge 33, Type (0, 1), BuildingBlock: CIFDUS_clean_linker_0, # of connection points: 2
# Relax obj value: 0.011
# Max RMSD: 0.056
# Mean RMSD: 0.052
data_MOF--net-llj--node1-QEWDON_clean_sbu_0--node2-MIDCAF_clean_linker_0--edge1-CIFDUS_clean_linker_0
_symmetry_space_group_name_H-M    P1
_symmetry_Int_Tables_number       1
_symmetry_cell_setting            triclinic
loop_
_symmetry_equiv_pos_as_xyz
'x, y, z'
_cell_length_a     40.97221
_cell_length_b     40.865993
_cell_length_c     28.609404
_cell_angle_alpha  90.106073
_cell_angle_beta   89.943881
_cell_angle_gamma 90.432314
loop_
_atom_site_label
_atom_site_type_symbol
_atom_site_fract_x
_atom_site_fract_y
_atom_site_fract_z
_atom_type_partial_charge
Zn0 Zn 0.92456 0.06854 0.96865 0.0
Zn1 Zn 0.93654 0.06928 0.07477 0.0
O2 O 0.96088 0.07252 0.01569 0.0
H3 H 0.98131 0.08392 0.01054 0.0
C4 C 0.9025 0.00158 0.9045 0.0
O5 O 0.88156 0.99892 0.93912 0.0
Zn6 Zn 0.0589 0.93015 0.07417 0.0
Zn7 Zn 0.07168 0.93356 0.96937 0.0
O8 O 0.03446 0.92685 0.01453 0.0
H9 H 0.01192 0.93199 0.00828 0.0
Zn10 Zn 0.94013 0.95829 0.96443 0.0
O11 O 0.95387 0.98215 0.02248 0.0
Zn12 Zn 0.94558 0.95143 0.07566 0.0
H13 H 0.96979 -0.00029 0.02237 0.0
Zn14 Zn 0.06275 0.04871 0.96873 0.0
O15 O 0.0427 0.02343 0.02226 0.0
H16 H 0.02886 0.00431 0.01926 0.0
Zn17 Zn 0.04946 0.05069 0.07944 0.0
C18 C 0.10113 0.00261 0.91393 0.0
O19 O 0.11706 0.00092 0.95369 0.0
O20 O 0.88085 0.08772 0.99248 0.0
O21 O 0.89182 0.08953 0.06864 0.0
O22 O 0.11365 0.91136 0.99182 0.0
O23 O 0.10275 0.90734 0.06782 0.0
O24 O 0.91145 0.91846 0.97825 0.0
O25 O 0.91481 0.91348 0.05566 0.0
C26 C 0.99283 0.08934 0.12398 0.0
O27 O 0.09056 0.0883 0.98998 0.0
O28 O 0.08298 0.08724 0.06712 0.0
O29 O 0.05661 0.92596 0.90194 0.0
C30 C 0.87277 0.09502 0.03431 0.0
O31 O 0.94266 0.08131 0.90426 0.0
C32 C 0.0013 0.91794 0.12438 0.0
O33 O 0.92932 0.98629 0.90674 0.0
C34 C 0.12143 0.90206 0.03282 0.0
O35 O 0.07699 0.02181 0.91076 0.0
C36 C 0.92508 0.00791 0.12723 0.0
O37 O 0.9622 0.09368 0.12281 0.0
O38 O 0.0051 0.06925 0.09488 0.0
C39 C 0.9037 0.90389 0.01603 0.0
O40 O 0.0313 0.91038 0.12528 0.0
O41 O 0.9907 0.93497 0.09073 0.0
C42 C 0.06646 0.9908 0.12798 0.0
O43 O 0.92657 0.97696 0.13063 0.0
O44 O 0.93382 0.02142 0.08943 0.0
C45 C 0.09628 0.09968 0.03073 0.0
O46 O 0.06306 0.02146 0.13303 0.0
O47 O 0.06377 0.97824 0.08756 0.0
C48 C 0.03221 0.94258 0.88891 0.0
O49 O 0.02042 0.96491 0.91726 0.0
C50 C 0.9695 0.06789 0.89333 0.0
O51 O 0.98166 0.04548 0.92108 0.0
Zn52 Zn 0.45166 0.56493 0.46105 0.0
Zn53 Zn 0.45308 0.55321 0.57095 0.0
O54 O 0.47995 0.54829 0.51327 0.0
H55 H 0.49689 0.53224 0.5088 0.0
C56 C 0.39936 0.4907 0.41538 0.0
O57 O 0.40817 0.50485 0.4547 0.0
Zn58 Zn 0.55953 0.43729 0.56805 0.0
Zn59 Zn 0.55363 0.43844 0.45804 0.0
O60 O 0.52745 0.44489 0.5171 0.0
H61 H 0.51087 0.46141 0.51958 0.0
Zn62 Zn 0.42076 0.43429 0.4674 0.0
O63 O 0.44351 0.46139 0.51648 0.0
Zn64 Zn 0.44225 0.4357 0.5754 0.0
H65 H 0.45741 0.47996 0.50967 0.0
Zn66 Zn 0.57054 0.55693 0.45432 0.0
O67 O 0.57041 0.52412 0.50696 0.0
H68 H 0.57757 0.50187 0.50252 0.0
Zn69 Zn 0.57202 0.55219 0.56403 0.0
C70 C 0.6043 0.51688 0.38836 0.0
O71 O 0.62393 0.5162 0.42464 0.0
O72 O 0.41355 0.59363 0.48366 0.0
O73 O 0.41497 0.5847 0.5604 0.0
O74 O 0.59348 0.40886 0.4672 0.0
O75 O 0.59683 0.40797 0.54492 0.0
O76 O 0.39792 0.39297 0.49273 0.0
O77 O 0.41194 0.39586 0.56793 0.0
C78 C 0.5128 0.5684 0.6201 0.0
O79 O 0.59488 0.5997 0.47262 0.0
O80 O 0.59759 0.5937 0.54998 0.0
O81 O 0.52816 0.43694 0.3955 0.0
C82 C 0.40236 0.59854 0.52467 0.0
O83 O 0.47573 0.57604 0.39953 0.0
C84 C 0.50518 0.41735 0.62631 0.0
O85 O 0.40136 0.45981 0.41176 0.0
C86 C 0.60719 0.39915 0.50463 0.0
O87 O 0.579 0.53466 0.39029 0.0
C88 C 0.42951 0.49514 0.62459 0.0
O89 O 0.48189 0.5682 0.6243 0.0
O90 O 0.52528 0.56177 0.58056 0.0
C91 C 0.39677 0.38187 0.53432 0.0
O92 O 0.53619 0.41822 0.62473 0.0
O93 O 0.48947 0.42487 0.5895 0.0
C94 C 0.5885 0.49682 0.61896 0.0
O95 O 0.42689 0.46428 0.62803 0.0
O96 O 0.4379 0.50751 0.5857 0.0
C97 C 0.60416 0.60974 0.51281 0.0
O98 O 0.59193 0.52773 0.61804 0.0
O99 O 0.57555 0.48287 0.58377 0.0
C100 C 0.49833 0.42823 0.39693 0.0
O101 O 0.48529 0.42053 0.43744 0.0
C102 C 0.48183 0.55424 0.36909 0.0
O103 O 0.47132 0.52415 0.37582 0.0
C104 C 0.37973 0.40979 0.1452 0.0
C105 C 0.37553 0.39149 0.18643 0.0
C106 C 0.35622 0.36288 0.18467 0.0
C107 C 0.34226 0.35237 0.14271 0.0
H108 H 0.25632 0.30586 0.08186 0.0
H109 H 0.21278 0.26486 0.07868 0.0
H110 H 0.2455 0.23546 0.94127 0.0
H111 H 0.28791 0.27712 0.94368 0.0
H112 H 0.33364 0.32379 0.8882 0.0
H113 H 0.36182 0.33719 0.81613 0.0
H114 H 0.41394 0.41523 0.88654 0.0
H115 H 0.38629 0.40123 0.95947 0.0
H116 H 0.3705 0.41324 0.07169 0.0
H117 H 0.39383 0.43231 0.14534 0.0
H118 H 0.35284 0.34775 0.21535 0.0
H119 H 0.3283 0.32975 0.14255 0.0
N120 N 0.31137 0.33389 0.05511 0.0
N121 N 0.31664 0.32954 0.9738 0.0
N122 N 0.35021 0.36599 0.01535 0.0
C123 C 0.30164 0.32026 0.01403 0.0
C124 C 0.34086 0.35242 0.97404 0.0
C125 C 0.33564 0.35679 0.05604 0.0
C126 C 0.27551 0.29496 0.01292 0.0
C127 C 0.25416 0.29064 0.05097 0.0
C128 C 0.22927 0.26699 0.04923 0.0
C129 C 0.2254 0.24687 0.0096 0.0
C130 C 0.24714 0.25096 0.97193 0.0
C131 C 0.27169 0.2748 0.97343 0.0
C132 C 0.3576 0.36143 0.92982 0.0
C133 C 0.351 0.3439 0.88851 0.0
C134 C 0.36709 0.35171 0.84696 0.0
C135 C 0.39006 0.37741 0.8454 0.0
C136 C 0.39666 0.39505 0.88663 0.0
C137 C 0.38065 0.38712 0.9284 0.0
C138 C 0.34767 0.36988 0.1012 0.0
C139 C 0.36619 0.39896 0.10299 0.0
C140 C 0.59459 0.40612 0.12092 0.0
C141 C 0.60534 0.39802 0.16598 0.0
C142 C 0.62191 0.36829 0.17247 0.0
C143 C 0.62807 0.34749 0.13451 0.0
H144 H 0.66982 0.25514 0.09089 0.0
H145 H 0.70553 0.20745 0.09386 0.0
H146 H 0.71916 0.21338 0.94424 0.0
H147 H 0.68306 0.25958 0.94103 0.0
H148 H 0.65264 0.31216 0.88175 0.0
H149 H 0.64505 0.33882 0.80658 0.0
H150 H 0.57411 0.40347 0.86871 0.0
H151 H 0.58238 0.37755 0.94419 0.0
H152 H 0.59221 0.39295 0.04904 0.0
H153 H 0.58224 0.42899 0.11439 0.0
H154 H 0.63015 0.3611 0.20688 0.0
H155 H 0.64127 0.32503 0.14055 0.0
N156 N 0.6438 0.30775 0.0519 0.0
N157 N 0.64373 0.30202 0.97019 0.0
N158 N 0.61714 0.34618 0.00481 0.0
C159 C 0.65265 0.29075 0.01289 0.0
C160 C 0.62588 0.32958 0.96583 0.0
C161 C 0.6259 0.33561 0.04793 0.0
C162 C 0.67346 0.26126 0.01577 0.0
C163 C 0.68027 0.24601 0.05866 0.0
C164 C 0.70082 0.21874 0.06036 0.0
C165 C 0.71512 0.20633 0.01924 0.0
C166 C 0.70802 0.22157 0.97651 0.0
C167 C 0.6874 0.24845 0.97476 0.0
C168 C 0.61842 0.343 0.91914 0.0
C169 C 0.63515 0.33183 0.87932 0.0
C170 C 0.63073 0.34703 0.83613 0.0
C171 C 0.60931 0.37354 0.83183 0.0
C172 C 0.59139 0.38362 0.87116 0.0
C173 C 0.596 0.36862 0.91437 0.0
C174 C 0.61775 0.35599 0.0893 0.0
C175 C 0.60058 0.38539 0.08322 0.0
C176 C 0.60381 0.62964 0.87239 0.0
C177 C 0.62401 0.62762 0.83274 0.0
C178 C 0.65726 0.63608 0.8374 0.0
C179 C 0.66998 0.64569 0.88091 0.0
H180 H 0.74659 0.70033 0.95076 0.0
H181 H 0.79159 0.73909 0.95997 0.0
H182 H 0.76377 0.75488 0.10396 0.0
H183 H 0.71966 0.71534 0.09531 0.0
H184 H 0.67171 0.66205 0.14216 0.0
H185 H 0.63968 0.6454 0.20998 0.0
H186 H 0.56541 0.60544 0.11872 0.0
H187 H 0.59763 0.62123 0.05105 0.0
H188 H 0.60008 0.63974 0.9453 0.0
H189 H 0.57791 0.62446 0.87009 0.0
H190 H 0.67359 0.63472 0.8077 0.0
H191 H 0.69571 0.65165 0.88364 0.0
N192 N 0.69013 0.67389 0.97264 0.0
N193 N 0.68357 0.67247 0.05427 0.0
N194 N 0.646 0.64544 0.00604 0.0
C195 C 0.70065 0.68269 0.01613 0.0
C196 C 0.65631 0.65368 0.04951 0.0
C197 C 0.66266 0.6553 0.96747 0.0
C198 C 0.72929 0.7048 0.02214 0.0
C199 C 0.75021 0.71188 0.98448 0.0
C200 C 0.77595 0.73427 0.98974 0.0
C201 C 0.78122 0.75045 0.03263 0.0
C202 C 0.7608 0.74268 0.0706 0.0
C203 C 0.73528 0.72007 0.06548 0.0
C204 C 0.6373 0.64307 0.09103 0.0
C205 C 0.64861 0.6496 0.1365 0.0
C206 C 0.63017 0.64019 0.17543 0.0
C207 C 0.59993 0.62413 0.16981 0.0
C208 C 0.58879 0.61733 0.12437 0.0
C209 C 0.60725 0.62661 0.08549 0.0
C210 C 0.64977 0.64664 0.92063 0.0
C211 C 0.61653 0.6387 0.91568 0.0
C212 C 0.3786 0.5868 0.87969 0.0
C213 C 0.38162 0.60723 0.84045 0.0
C214 C 0.37468 0.64073 0.84533 0.0
C215 C 0.36461 0.65337 0.88845 0.0
H216 H 0.32998 0.73855 0.96156 0.0
H217 H 0.29729 0.78804 0.96102 0.0
H218 H 0.24066 0.75069 0.07723 0.0
H219 H 0.27452 0.70216 0.0792 0.0
H220 H 0.31553 0.64576 0.1417 0.0
H221 H 0.32231 0.61053 0.20971 0.0
H222 H 0.37928 0.54348 0.12662 0.0
H223 H 0.37196 0.57795 0.05869 0.0
H224 H 0.36652 0.58271 0.95183 0.0
H225 H 0.38288 0.56075 0.87708 0.0
H226 H 0.37705 0.65719 0.81587 0.0
H227 H 0.35922 0.67922 0.89109 0.0
N228 N 0.33504 0.67484 0.97631 0.0
N229 N 0.3249 0.66568 0.05614 0.0
N230 N 0.35219 0.62632 0.01159 0.0
C231 C 0.32251 0.68516 0.01778 0.0
C232 C 0.34003 0.63626 0.05327 0.0
C233 C 0.34979 0.6453 0.97299 0.0
C234 C 0.30465 0.71638 0.0202 0.0
C235 C 0.31079 0.74116 0.98734 0.0
C236 C 0.2919 0.76946 0.9869 0.0
C237 C 0.26599 0.77334 0.01871 0.0
C238 C 0.26065 0.74894 0.0526 0.0
C239 C 0.27995 0.72092 0.05359 0.0
C240 C 0.34329 0.61484 0.0947 0.0
C241 C 0.32938 0.62344 0.13789 0.0
C242 C 0.33335 0.60331 0.1769 0.0
C243 C 0.35137 0.57422 0.17356 0.0
C244 C 0.36486 0.56544 0.13025 0.0
C245 C 0.36083 0.58545 0.09131 0.0
C246 C 0.36156 0.63278 0.92754 0.0
C247 C 0.36894 0.59943 0.92267 0.0
C248 C 0.95588 0.85029 0.63002 0.0
C249 C 0.94265 0.85781 0.67387 0.0
C250 C 0.90906 0.85297 0.68165 0.0
C251 C 0.88899 0.84091 0.64586 0.0
H252 H 0.7987 0.78797 0.61167 0.0
H253 H 0.74888 0.75521 0.62061 0.0
H254 H 0.75366 0.72872 0.4744 0.0
H255 H 0.80215 0.762 0.46516 0.0
H256 H 0.8525 0.79539 0.39681 0.0
H257 H 0.87314 0.8087 0.31863 0.0
H258 H 0.94189 0.87707 0.37947 0.0
H259 H 0.92154 0.86417 0.45687 0.0
H260 H 0.94685 0.8336 0.56057 0.0
H261 H 0.98166 0.85395 0.62312 0.0
H262 H 0.8984 0.85842 0.71543 0.0
H263 H 0.86313 0.83766 0.65245 0.0
N264 N 0.85279 0.8072 0.5689 0.0
N265 N 0.84552 0.80393 0.48746 0.0
N266 N 0.89146 0.83038 0.51809 0.0
C267 C 0.83482 0.79706 0.53142 0.0
C268 C 0.87371 0.82078 0.48061 0.0
C269 C 0.88137 0.82372 0.56216 0.0
C270 C 0.8044 0.77774 0.53768 0.0
C271 C 0.78892 0.77528 0.58144 0.0
C272 C 0.76042 0.75644 0.58659 0.0
C273 C 0.74701 0.73953 0.54815 0.0
C274 C 0.76265 0.74207 0.50455 0.0
C275 C 0.79077 0.76104 0.49932 0.0
C276 C 0.88536 0.82872 0.43307 0.0
C277 C 0.8719 0.81337 0.3934 0.0
C278 C 0.88376 0.82083 0.34875 0.0
C279 C 0.90888 0.84405 0.34317 0.0
C280 C 0.92216 0.85942 0.38278 0.0
C281 C 0.91061 0.85181 0.42718 0.0
C282 C 0.9022 0.83416 0.60161 0.0
C283 C 0.93586 0.83879 0.59421 0.0
C284 C 0.12038 0.91108 0.63482 0.0
C285 C 0.12543 0.89832 0.67976 0.0
C286 C 0.1407 0.8677 0.68406 0.0
C287 C 0.15044 0.85023 0.64422 0.0
H288 H 0.2291 0.7885 0.58407 0.0
H289 H 0.27149 0.74692 0.5796 0.0
H290 H 0.23072 0.71203 0.44925 0.0
H291 H 0.18942 0.75428 0.45283 0.0
H292 H 0.15556 0.81105 0.38735 0.0
H293 H 0.13891 0.83421 0.31258 0.0
H294 H 0.10505 0.92095 0.38382 0.0
H295 H 0.12045 0.89753 0.45813 0.0
H296 H 0.12547 0.90452 0.56136 0.0
H297 H 0.10949 0.9349 0.63006 0.0
H298 H 0.14476 0.85703 0.71816 0.0
H299 H 0.16189 0.82664 0.64862 0.0
N300 N 0.1745 0.81851 0.55803 0.0
N301 N 0.17084 0.81314 0.47628 0.0
N302 N 0.14281 0.85499 0.51448 0.0
C303 C 0.18279 0.80252 0.51791 0.0
C304 C 0.15088 0.83944 0.47431 0.0
C305 C 0.15424 0.84476 0.55643 0.0
C306 C 0.20612 0.77496 0.51853 0.0
C307 C 0.22904 0.77171 0.55474 0.0
C308 C 0.2533 0.74776 0.55222 0.0
C309 C 0.25491 0.72632 0.5137 0.0
C310 C 0.23089 0.72865 0.47878 0.0
C311 C 0.20701 0.75278 0.48098 0.0
C312 C 0.13943 0.8524 0.42884 0.0
C313 C 0.14429 0.83494 0.38704 0.0
C314 C 0.13488 0.84829 0.34413 0.0
C315 C 0.12061 0.87948 0.34204 0.0
C316 C 0.11534 0.89662 0.38399 0.0
C317 C 0.12445 0.88321 0.42677 0.0
C318 C 0.14492 0.86297 0.59931 0.0
C319 C 0.12983 0.89364 0.59525 0.0
C320 C 0.0457 0.17972 0.38902 0.0
C321 C 0.06317 0.18156 0.34687 0.0
C322 C 0.09631 0.1906 0.34786 0.0
C323 C 0.11199 0.19655 0.3904 0.0
H324 H 0.19466 0.23256 0.44888 0.0
H325 H 0.24862 0.25632 0.45 0.0
H326 H 0.25674 0.23525 0.59754 0.0
H327 H 0.20148 0.21218 0.59686 0.0
H328 H 0.13526 0.17166 0.64589 0.0
H329 H 0.10348 0.15219 0.7132 0.0
H330 H 0.01432 0.16693 0.6359 0.0
H331 H 0.04553 0.18654 0.56956 0.0
H332 H 0.04725 0.18309 0.46334 0.0
H333 H 0.02022 0.17243 0.38939 0.0
H334 H 0.11025 0.19249 0.31577 0.0
H335 H 0.13774 0.20271 0.39007 0.0
N336 N 0.14337 0.20645 0.48025 0.0
N337 N 0.14319 0.1999 0.56187 0.0
N338 N 0.09608 0.18852 0.51804 0.0
C339 C 0.15928 0.20835 0.52186 0.0
C340 C 0.11139 0.19005 0.55996 0.0
C341 C 0.1118 0.19657 0.47808 0.0
C342 C 0.19346 0.22058 0.5229 0.0
C343 C 0.20784 0.23262 0.48168 0.0
C344 C 0.23915 0.24604 0.48218 0.0
C345 C 0.25728 0.24758 0.52379 0.0
C346 C 0.24334 0.23475 0.56494 0.0
C347 C 0.21171 0.22143 0.56452 0.0
C348 C 0.09297 0.18051 0.60233 0.0
C349 C 0.10888 0.17105 0.64358 0.0
C350 C 0.09074 0.15968 0.68188 0.0
C351 C 0.05646 0.15803 0.67965 0.0
C352 C 0.04067 0.16822 0.63881 0.0
C353 C 0.05866 0.17926 0.60065 0.0
C354 C 0.09481 0.19337 0.43273 0.0
C355 C 0.06134 0.18554 0.43147 0.0
C356 C 0.92248 0.12453 0.38653 0.0
C357 C 0.90524 0.12821 0.3445 0.0
C358 C 0.87833 0.14948 0.34361 0.0
C359 C 0.86811 0.16551 0.38441 0.0
H360 H 0.81713 0.25005 0.4483 0.0
H361 H 0.77468 0.29142 0.45393 0.0
H362 H 0.75238 0.25924 0.59431 0.0
H363 H 0.79542 0.219 0.58936 0.0
H364 H 0.85554 0.18312 0.64555 0.0
H365 H 0.87035 0.15199 0.71502 0.0
H366 H 0.92044 0.08184 0.62793 0.0
H367 H 0.90693 0.11331 0.55932 0.0
H368 H 0.92587 0.13614 0.45892 0.0
H369 H 0.94306 0.10814 0.38883 0.0
H370 H 0.8648 0.15325 0.3116 0.0
H371 H 0.84667 0.18081 0.38304 0.0
N372 N 0.84835 0.19661 0.47366 0.0
N373 N 0.84646 0.19166 0.55558 0.0
N374 N 0.88193 0.1591 0.51206 0.0
C375 C 0.83577 0.20615 0.51568 0.0
C376 C 0.8696 0.16812 0.55399 0.0
C377 C 0.87167 0.17306 0.47181 0.0
C378 C 0.80982 0.23123 0.51839 0.0
C379 C 0.80319 0.25187 0.48037 0.0
C380 C 0.77871 0.27551 0.48356 0.0
C381 C 0.76004 0.27882 0.52465 0.0
C382 C 0.76663 0.25798 0.56247 0.0
C383 C 0.79128 0.23467 0.55948 0.0
C384 C 0.87991 0.1507 0.59678 0.0
C385 C 0.86999 0.16122 0.64136 0.0
C386 C 0.87833 0.14327 0.68115 0.0
C387 C 0.89651 0.11431 0.67712 0.0
C388 C 0.90693 0.10429 0.63259 0.0
C389 C 0.89892 0.12231 0.59303 0.0
C390 C 0.88454 0.16043 0.42686 0.0
C391 C 0.91235 0.14045 0.42702 0.0
H392 H 0.11688 0.1412 0.9628 0.0
H393 H 0.12737 0.12103 0.11004 0.0
H394 H 0.16775 0.16517 0.11685 0.0
H395 H 0.20192 0.20778 0.08001 0.0
H396 H 0.18871 0.22945 0.93352 0.0
H397 H 0.14792 0.18609 0.92744 0.0
C398 C 0.12795 0.14644 -0.00355 0.0
C399 C 0.11936 0.12757 0.03571 0.0
C400 C 0.15089 0.17196 0.00021 0.0
C401 C 0.13359 0.13508 0.07918 0.0
C402 C 0.15675 0.16029 0.08309 0.0
C403 C 0.18981 0.20342 0.0469 0.0
C404 C 0.1989 0.2217 0.00715 0.0
C405 C 0.16582 0.1787 0.04371 0.0
C406 C 0.18297 0.21532 0.96448 0.0
C407 C 0.15939 0.19064 0.96098 0.0
H408 H 0.81931 0.09749 0.97818 0.0
H409 H 0.8574 0.1329 0.10963 0.0
H410 H 0.81034 0.16859 0.11878 0.0
H411 H 0.76166 0.19407 0.08518 0.0
H412 H 0.72204 0.15657 0.95572 0.0
H413 H 0.76649 0.11752 0.95013 0.0
C414 C 0.81712 0.11275 0.00908 0.0
C415 C 0.84206 0.11291 0.04275 0.0
C416 C 0.78992 0.13314 0.01427 0.0
C417 C 0.83861 0.1324 0.08301 0.0
C418 C 0.81176 0.15294 0.08822 0.0
C419 C 0.76219 0.17685 0.05632 0.0
C420 C 0.73885 0.17891 0.02039 0.0
C421 C 0.78768 0.15412 0.05349 0.0
C422 C 0.74018 0.15631 0.98321 0.0
C423 C 0.76553 0.1338 0.98004 0.0
H424 H 0.88868 0.85773 0.08276 0.0
H425 H 0.86595 0.88736 0.94163 0.0
H426 H 0.82699 0.84266 0.93444 0.0
H427 H 0.79812 0.79615 0.96802 0.0
H428 H 0.82134 0.764 0.1076 0.0
H429 H 0.86082 0.80884 0.11563 0.0
C430 C 0.87519 0.85437 0.05049 0.0
C431 C 0.88034 0.87602 0.0129 0.0
C432 C 0.85273 0.82821 0.04622 0.0
C433 C 0.86272 0.87112 0.97119 0.0
C434 C 0.84029 0.84553 0.96695 0.0
C435 C 0.81219 0.79845 -4e-05 0.0
C436 C 0.80667 0.77657 0.03704 0.0
C437 C 0.83506 0.82398 0.00417 0.0
C438 C 0.8247 0.78066 0.07858 0.0
C439 C 0.84744 0.80624 0.08316 0.0
H440 H 0.16169 0.87929 0.96491 0.0
H441 H 0.14794 0.87984 0.11448 0.0
H442 H 0.19388 0.84269 0.12378 0.0
H443 H 0.23522 0.80692 0.08883 0.0
H444 H 0.24468 0.80264 0.93847 0.0
H445 H 0.20376 0.84496 0.93034 0.0
C446 C 0.1689 0.87163 -0.00034 0.0
C447 C 0.15132 0.88238 0.03899 0.0
C448 C 0.19464 0.8495 0.00461 0.0
C449 C 0.16108 0.87206 0.08366 0.0
C450 C 0.18727 0.85068 0.08896 0.0
C451 C 0.2283 0.8151 0.05423 0.0
C452 C 0.24313 0.80135 0.0144 0.0
C453 C 0.20375 0.83867 0.04957 0.0
C454 C 0.23424 0.81297 0.96992 0.0
C455 C 0.21051 0.83701 0.96512 0.0
H456 H 0.64287 0.62839 0.58543 0.0
H457 H 0.61251 0.65747 0.44719 0.0
H458 H 0.65146 0.70293 0.44878 0.0
H459 H 0.69714 0.73134 0.48635 0.0
H460 H 0.73106 0.69913 0.62138 0.0
H461 H 0.68691 0.65875 0.6248 0.0
C462 C 0.64444 0.64492 0.55589 0.0
C463 C 0.625 0.63936 0.51606 0.0
C464 C 0.66753 0.67048 0.55648 0.0
C465 C 0.62741 0.661 0.47807 0.0
C466 C 0.64967 0.68701 0.47895 0.0
C467 C 0.695 0.71544 0.51652 0.0
C468 C 0.71776 0.71802 0.5532 0.0
C469 C 0.67042 0.69142 0.51743 0.0
C470 C 0.71387 0.69789 0.59269 0.0
C471 C 0.6888 0.67453 0.59449 0.0
H472 H 0.37067 0.63273 0.45713 0.0
H473 H 0.37126 0.61544 0.60574 0.0
H474 H 0.32534 0.65265 0.61575 0.0
H475 H 0.28501 0.69032 0.58196 0.0
H476 H 0.28703 0.70942 0.43351 0.0
H477 H 0.33156 0.67099 0.42385 0.0
C478 C 0.36081 0.63701 0.49179 0.0
C479 C 0.37437 0.62107 0.5307 0.0
C480 C 0.33468 0.65873 0.49728 0.0
C481 C 0.36118 0.62714 0.57523 0.0
C482 C 0.33495 0.64851 0.58095 0.0
C483 C 0.29533 0.68632 0.54754 0.0
C484 C 0.28227 0.70266 0.50853 0.0
C485 C 0.32152 0.66453 0.5422 0.0
C486 C 0.2959 0.69675 0.46413 0.0
C487 C 0.32165 0.67494 0.45853 0.0
H488 H 0.38242 0.33094 0.47714 0.0
H489 H 0.36174 0.37062 0.61361 0.0
H490 H 0.31863 0.32972 0.62505 0.0
H491 H 0.28229 0.2877 0.59159 0.0
H492 H 0.30488 0.24625 0.45649 0.0
H493 H 0.35179 0.28286 0.44924 0.0
C494 C 0.36878 0.33025 0.50965 0.0
C495 C 0.37489 0.35391 0.54425 0.0
C496 C 0.34412 0.30667 0.51597 0.0
C497 C 0.35747 0.35256 0.58653 0.0
C498 C 0.33267 0.32933 0.59293 0.0
C499 C 0.29794 0.28594 0.56113 0.0
C500 C 0.28943 0.2648 0.5241 0.0
C501 C 0.32514 0.3069 0.55728 0.0
C502 C 0.31016 0.26301 0.4849 0.0
C503 C 0.33711 0.28385 0.48075 0.0
H504 H 0.65035 0.38205 0.57294 0.0
H505 H 0.62721 0.36546 0.42752 0.0
H506 H 0.67236 0.32732 0.42084 0.0
H507 H 0.71743 0.2974 0.45651 0.0
H508 H 0.74266 0.31588 0.60072 0.0
H509 H 0.69744 0.35405 0.60763 0.0
C510 C 0.65519 0.37011 0.53978 0.0
C511 C 0.63526 0.37658 0.5009 0.0
C512 C 0.68148 0.34832 0.53594 0.0
C513 C 0.64211 0.36104 0.45809 0.0
C514 C 0.66793 0.33913 0.45418 0.0
C515 C 0.71346 0.31012 0.48929 0.0
C516 C 0.73344 0.30345 0.52806 0.0
C517 C 0.68772 0.3325 0.49289 0.0
C518 C 0.72738 0.31992 0.57045 0.0
C519 C 0.70161 0.34198 0.57441 0.0
H520 H 0.97233 0.13757 0.18131 0.0
H521 H 0.05734 0.08067 0.14754 0.0
H522 H 0.08745 0.10655 0.21082 0.0
H523 H 0.08804 0.14194 0.28009 0.0
H524 H 0.00244 0.19772 0.31545 0.0
H525 H 0.97394 0.17541 0.24737 0.0
C526 C 0.99754 0.13092 0.18745 0.0
C527 C 0.01244 0.10678 0.1597 0.0
C528 C 0.01447 0.14559 0.22453 0.0
C529 C 0.04515 0.09884 0.16814 0.0
C530 C 0.0624 0.11367 0.20459 0.0
C531 C 0.06341 0.14979 0.27229 0.0
C532 C 0.04734 0.1714 0.30268 0.0
C533 C 0.04709 0.13661 0.23353 0.0
C534 C 0.0152 0.18089 0.29269 0.0
C535 C -0.00105 0.16822 0.25378 0.0
H536 H 0.96544 0.03724 0.18809 0.0
H537 H 0.86386 0.02423 0.1541 0.0
H538 H 0.84851 0.06165 0.21758 0.0
H539 H 0.86436 0.0977 0.28281 0.0
H540 H 0.96656 0.11284 0.31358 0.0
H541 H 0.98137 0.07474 0.2516 0.0
C542 C 0.93998 0.04262 0.19495 0.0
C543 C 0.91568 0.02815 0.16721 0.0
C544 C 0.93155 0.06456 0.23065 0.0
C545 C 0.88278 0.03508 0.1757 0.0
C546 C 0.8741 0.05656 0.21164 0.0
C547 C 0.8899 0.09326 0.27535 0.0
C548 C 0.91425 0.10809 0.30309 0.0
C549 C 0.89832 0.0716 0.23918 0.0
C550 C 0.94723 0.10146 0.29333 0.0
C551 C 0.95578 0.07973 0.25777 0.0
H552 H 0.98225 0.85732 0.15049 0.0
H553 H 0.97466 0.95941 0.18613 0.0
H554 H 0.94239 0.94567 0.25543 0.0
H555 H 0.91949 0.90439 0.30814 0.0
H556 H 0.92784 0.80195 0.27425 0.0
H557 H 0.95602 0.81583 0.20127 0.0
C558 C 0.97308 0.87638 0.17334 0.0
C559 C 0.98008 0.90925 0.16345 0.0
C560 C 0.95477 0.8682 0.21315 0.0
C561 C 0.96866 0.934 0.19298 0.0
C562 C 0.9505 0.92614 0.23263 0.0
C563 C 0.92735 0.88516 0.28457 0.0
C564 C 0.92199 0.85226 0.29652 0.0
C565 C 0.9438 0.89331 0.24333 0.0
C566 C 0.93168 0.82747 0.26552 0.0
C567 C 0.94798 0.83539 0.22408 0.0
H568 H 0.11312 0.94564 0.14266 0.0
H569 H 0.02916 0.99052 0.20596 0.0
H570 H 0.03638 0.9573 0.27633 0.0
H571 H 0.06821 0.91757 0.32096 0.0
H572 H 0.15562 0.87686 0.26053 0.0
H573 H 0.14538 0.90612 0.18801 0.0
C574 C 0.09628 0.94771 0.17175 0.0
C575 C 0.07052 0.97005 0.16936 0.0
C576 C 0.10126 0.92935 0.21254 0.0
C577 C 0.04916 0.97334 0.20739 0.0
C578 C 0.05327 0.95438 0.24747 0.0
C579 C 0.08507 0.91506 0.29195 0.0
C580 C 0.11268 0.89499 0.29643 0.0
C581 C 0.07953 0.93265 0.25067 0.0
C582 C 0.13387 0.89164 0.25802 0.0
C583 C 0.12814 0.90853 0.21647 0.0
H584 H 0.06889 0.99488 0.83158 0.0
H585 H 0.15384 0.96228 0.907 0.0
H586 H 0.16842 0.92647 0.84194 0.0
H587 H 0.15763 0.90528 0.76289 0.0
H588 H 0.07002 0.93452 0.69085 0.0
H589 H 0.05585 0.97057 0.75556 0.0
C590 C 0.09065 0.98001 0.83382 0.0
C591 C 0.11033 0.98145 0.87403 0.0
C592 C 0.09839 0.95878 0.79691 0.0
C593 C 0.13828 0.96177 0.87642 0.0
C594 C 0.14659 0.94117 0.83928 0.0
C595 C 0.13517 0.91911 0.76159 0.0
C596 C 0.11529 0.91755 0.72154 0.0
C597 C 0.12682 0.93947 0.79933 0.0
C598 C 0.08632 0.93587 0.72058 0.0
C599 C 0.07809 0.95644 0.75766 0.0
H600 H 0.95722 0.12084 0.83956 0.0
H601 H 0.02332 0.03979 0.8544 0.0
H602 H 0.0565 0.06074 0.78988 0.0
H603 H 0.0674 0.10306 0.73049 0.0
H604 H 0.00112 0.18402 0.71654 0.0
H605 H 0.9672 0.16201 0.77937 0.0
C606 C 0.97881 0.10768 0.8286 0.0
C607 C 0.98803 0.07904 0.85204 0.0
C608 C 0.99781 0.11994 0.79179 0.0
C609 C 0.01594 0.06213 0.83721 0.0
C610 C 0.03491 0.07409 0.80034 0.0
C611 C 0.04573 0.11603 0.74165 0.0
C612 C 0.03688 0.1452 0.71919 0.0
C613 C 0.02632 0.10323 0.7778 0.0
C614 C 0.00836 0.16144 0.73324 0.0
C615 C 0.989 0.14892 0.76917 0.0
H616 H 0.94191 0.01398 0.83028 0.0
H617 H 0.8481 0.03841 0.88898 0.0
H618 H 0.83821 0.07596 0.82424 0.0
H619 H 0.85615 0.10141 0.7508 0.0
H620 H 0.95219 0.08027 0.69658 0.0
H621 H 0.96113 0.04159 0.75985 0.0
C622 C 0.91922 0.02735 0.82894 0.0
C623 C 0.89579 0.0233 0.86443 0.0
C624 C 0.91411 0.04952 0.79247 0.0
C625 C 0.86658 0.04103 0.86212 0.0
C626 C 0.86096 0.06262 0.82522 0.0
C627 C 0.87931 0.08888 0.75324 0.0
C628 C 0.90327 0.09353 0.71852 0.0
C629 C 0.88466 0.06718 0.79036 0.0
C630 C 0.93296 0.07663 0.72208 0.0
C631 C 0.93818 0.05456 0.75837 0.0
H632 H 0.04616 0.89324 0.8286 0.0
H633 H 0.97958 0.97289 0.85131 0.0
H634 H 0.94568 0.95386 0.78628 0.0
H635 H 0.93318 0.91214 0.72646 0.0
H636 H 0.0005 0.83312 0.70332 0.0
H637 H 0.03609 0.85435 0.76503 0.0
C638 C 0.02437 0.90659 0.81911 0.0
C639 C 0.01483 0.93398 0.84541 0.0
C640 C 0.00505 0.8954 0.78192 0.0
C641 C 0.98694 0.95137 0.8321 0.0
C642 C 0.96759 0.94048 0.79499 0.0
C643 C 0.95557 0.89956 0.73522 0.0
C644 C 0.96406 0.87091 0.71107 0.0
C645 C 0.97598 0.91202 0.77046 0.0
C646 C 0.99348 0.85517 0.72174 0.0
C647 C 0.0138 0.86727 0.75694 0.0
H648 H 0.56712 0.60669 0.62881 0.0
H649 H 0.50362 0.54134 0.70494 0.0
H650 H 0.53447 0.55149 0.77656 0.0
H651 H 0.57764 0.58075 0.81805 0.0
H652 H 0.63869 0.6501 0.74431 0.0
H653 H 0.61176 0.63553 0.67084 0.0
C654 C 0.56053 0.59434 0.66098 0.0
C655 C 0.53328 0.57327 0.66184 0.0
C656 C 0.57801 0.60093 0.70231 0.0
C657 C 0.52438 0.55786 0.70378 0.0
C658 C 0.54204 0.56361 0.74462 0.0
C659 C 0.58494 0.59302 0.78609 0.0
C660 C 0.60988 0.6169 0.7871 0.0
C661 C 0.56854 0.58551 0.74444 0.0
C662 C 0.6197 0.63154 0.74479 0.0
C663 C 0.60409 0.62343 0.70274 0.0
H664 H 0.39449 0.55056 0.63569 0.0
H665 H 0.45764 0.48368 0.70791 0.0
H666 H 0.45149 0.51501 0.7802 0.0
H667 H 0.42601 0.55955 0.82347 0.0
H668 H 0.35716 0.62245 0.75413 0.0
H669 H 0.36788 0.5949 0.68022 0.0
C670 C 0.4072 0.54331 0.66719 0.0
C671 C 0.42671 0.51529 0.66678 0.0
C672 C 0.40255 0.56072 0.709 0.0
C673 C 0.44248 0.50531 0.7078 0.0
C674 C 0.43902 0.52319 0.74899 0.0
C675 C 0.41332 0.56729 0.79218 0.0
C676 C 0.39072 0.59299 0.79451 0.0
C677 C 0.41874 0.55065 0.75012 0.0
C678 C 0.37506 0.6031 0.75334 0.0
C679 C 0.38107 0.58724 0.71096 0.0
H680 H 0.44185 0.40011 0.64048 0.0
H681 H 0.5315 0.41918 0.7141 0.0
H682 H 0.50403 0.40901 0.78853 0.0
H683 H 0.4542 0.39427 0.83254 0.0
H684 H 0.36385 0.37888 0.75773 0.0
H685 H 0.39172 0.38887 0.68386 0.0
C686 C 0.4552 0.40272 0.67262 0.0
C687 C 0.48847 0.41084 0.67139 0.0
C688 C 0.43906 0.39752 0.7152 0.0
C689 C 0.50578 0.41293 0.71379 0.0
C690 C 0.49005 0.40728 0.75647 0.0
C691 C 0.4405 0.39351 0.80015 0.0
C692 C 0.40699 0.38548 0.8008 0.0
C693 C 0.45661 0.39958 0.75758 0.0
C694 C 0.38976 0.3843 0.75832 0.0
C695 C 0.40563 0.39015 0.71599 0.0
H696 H 0.59985 0.43163 0.62812 0.0
H697 H 0.59515 0.52156 0.70665 0.0
H698 H 0.60179 0.49137 0.7794 0.0
H699 H 0.60646 0.43929 0.82073 0.0
H700 H 0.60741 0.34877 0.74274 0.0
H701 H 0.60429 0.37928 0.66948 0.0
C702 C 0.59982 0.44452 0.66112 0.0
C703 C 0.59598 0.4786 0.66204 0.0
C704 C 0.6029 0.42689 0.70284 0.0
C705 C 0.59759 0.49523 0.70502 0.0
C706 C 0.60127 0.47798 0.74666 0.0
C707 C 0.60555 0.42616 0.78777 0.0
C708 C 0.60691 0.39179 0.78724 0.0
C709 C 0.60333 0.44377 0.74599 0.0
C710 C 0.60661 0.37523 0.74411 0.0
C711 C 0.60475 0.39264 0.70225 0.0
H712 H 0.563 0.50306 0.3164 0.0
H713 H 0.65854 0.48072 0.37047 0.0
H714 H 0.66714 0.44176 0.30703 0.0
H715 H 0.64746 0.41374 0.23643 0.0
H716 H 0.55111 0.43476 0.18395 0.0
H717 H 0.5434 0.47511 0.24559 0.0
C718 C 0.58583 0.48996 0.314 0.0
C719 C 0.61011 0.49494 0.34804 0.0
C720 C 0.59054 0.46734 0.27764 0.0
C721 C 0.63942 0.4774 0.34475 0.0
C722 C 0.64436 0.45504 0.30851 0.0
C723 C 0.62455 0.42673 0.2389 0.0
C724 C 0.59997 0.42114 0.20545 0.0
C725 C 0.61998 0.4496 0.27499 0.0
C726 C 0.57069 0.4388 0.20875 0.0
C727 C 0.56615 0.46183 0.24418 0.0
H728 H 0.51788 0.60925 0.35549 0.0
H729 H 0.49169 0.51733 0.29049 0.0
H730 H 0.52612 0.53079 0.22318 0.0
H731 H 0.56444 0.56816 0.18368 0.0
H732 H 0.58959 0.6604 0.24866 0.0
H733 H 0.55547 0.64675 0.31581 0.0
C734 C 0.51959 0.59215 0.32656 0.0
C735 C 0.50214 0.5624 0.32793 0.0
C736 C 0.53966 0.59982 0.28835 0.0
C737 C 0.50485 0.54042 0.29031 0.0
C738 C 0.5246 0.54804 0.25189 0.0
C739 C 0.56225 0.58541 0.21234 0.0
C740 C 0.57964 0.61526 0.21106 0.0
C741 C 0.54221 0.57761 0.25065 0.0
C742 C 0.57692 0.63705 0.24895 0.0
C743 C 0.55719 0.62939 0.28723 0.0
H744 H 0.3806 0.46931 0.32933 0.0
H745 H 0.39549 0.55712 0.41085 0.0
H746 H 0.38121 0.59057 0.34364 0.0
H747 H 0.36625 0.59497 0.26116 0.0
H748 H 0.35051 0.50731 0.17956 0.0
H749 H 0.36382 0.47366 0.24729 0.0
C750 C 0.38059 0.49574 0.33247 0.0
C751 C 0.38916 0.51068 0.37508 0.0
C752 C 0.37237 0.51485 0.29361 0.0
C753 C 0.38898 0.54498 0.37852 0.0
C754 C 0.38085 0.56415 0.34006 0.0
C755 C 0.36515 0.56851 0.25837 0.0
C756 C 0.35737 0.55372 0.21538 0.0
C757 C 0.37265 0.54935 0.29741 0.0
C758 C 0.35676 0.51935 0.21213 0.0
C759 C 0.36422 0.50008 0.25088 0.0
H760 H 0.43563 0.40711 0.38816 0.0
H761 H 0.5173 0.44363 0.30833 0.0
H762 H 0.486 0.43739 0.23606 0.0
H763 H 0.43654 0.41831 0.19569 0.0
H764 H 0.35343 0.38565 0.27666 0.0
H765 H 0.38421 0.3939 0.3486 0.0
C766 C 0.44643 0.41425 0.35508 0.0
C767 C 0.47879 0.42585 0.35357 0.0
C768 C 0.42809 0.41106 0.31392 0.0
C769 C 0.4925 0.43454 0.31029 0.0
C770 C 0.47457 0.43102 0.26904 0.0
C771 C 0.42477 0.41369 0.229 0.0
C772 C 0.39278 0.40079 0.23042 0.0
C773 C 0.44243 0.41895 0.27041 0.0
C774 C 0.37828 0.39469 0.27421 0.0
C775 C 0.39581 0.39953 0.31548 0.0
loop_
_geom_bond_atom_site_label_1
_geom_bond_atom_site_label_2
_geom_bond_distance
_geom_bond_site_symmetry_2
_ccdc_geom_bond_type
Zn0 O2 1.933 1_556 S
Zn0 O20 1.985 . S
Zn0 O31 1.955 . S
Zn1 O2 1.911 . S
Zn1 O21 1.970 . S
Zn1 O37 1.945 . S
Zn1 O44 1.981 . S
O2 Zn0 1.933 1_554 S
O2 Zn1 1.911 . S
O2 H3 0.841 1_655 S
H3 O2 0.841 1_455 S
C4 O5 1.246 . S
C4 O33 1.276 1_545 S
O5 C4 1.246 . S
Zn6 O8 1.911 . S
Zn6 O23 1.970 . S
Zn6 O40 1.945 . S
Zn6 O47 1.981 . S
Zn7 O8 1.933 1_556 S
Zn7 O22 1.985 . S
Zn7 O29 1.955 . S
O8 Zn6 1.911 . S
O8 Zn7 1.933 1_554 S
O8 H9 0.841 1_455 S
H9 O8 0.841 1_655 S
Zn10 O11 1.933 1_556 S
Zn10 O24 1.985 . S
Zn10 O33 1.955 . S
O11 Zn10 1.933 1_554 S
O11 Zn12 1.911 . S
O11 H13 0.841 1_565 S
Zn12 O11 1.911 . S
Zn12 O25 1.970 . S
Zn12 O41 1.981 . S
Zn12 O43 1.945 . S
H13 O11 0.841 1_545 S
Zn14 O15 1.933 1_556 S
Zn14 O27 1.985 . S
Zn14 O35 1.955 . S
O15 Zn14 1.933 1_554 S
O15 H16 0.841 1_545 S
O15 Zn17 1.911 . S
H16 O15 0.841 1_565 S
Zn17 O15 1.911 . S
Zn17 O28 1.970 . S
Zn17 O38 1.981 . S
Zn17 O46 1.945 . S
C18 O19 1.246 . S
C18 O35 1.276 1_565 S
O19 C18 1.246 . S
O20 Zn0 1.985 . S
O20 C30 1.245 1_556 S
O21 Zn1 1.970 . S
O21 C30 1.263 . S
O22 Zn7 1.985 . S
O22 C34 1.245 1_556 S
O23 Zn6 1.970 . S
O23 C34 1.263 . S
O24 Zn10 1.985 . S
O24 C39 1.245 1_556 S
O25 Zn12 1.970 . S
O25 C39 1.263 . S
C26 O37 1.262 1_455 S
C26 O38 1.245 . S
O27 Zn14 1.985 . S
O27 C45 1.245 1_556 S
O28 Zn17 1.970 . S
O28 C45 1.263 . S
O29 Zn7 1.955 . S
O29 C48 1.276 1_455 S
C30 O20 1.245 1_554 S
C30 O21 1.263 . S
O31 Zn0 1.955 . S
O31 C50 1.276 1_655 S
C32 O40 1.262 1_655 S
C32 O41 1.245 . S
O33 C4 1.276 1_565 S
O33 Zn10 1.955 . S
C34 O22 1.245 1_554 S
C34 O23 1.263 . S
O35 Zn14 1.955 . S
O35 C18 1.276 1_545 S
C36 O43 1.262 1_545 S
C36 O44 1.245 . S
O37 Zn1 1.945 . S
O37 C26 1.262 1_655 S
O38 Zn17 1.981 . S
O38 C26 1.245 . S
C39 O24 1.245 1_554 S
C39 O25 1.263 . S
O40 Zn6 1.945 . S
O40 C32 1.262 1_455 S
O41 Zn12 1.981 . S
O41 C32 1.245 . S
C42 O46 1.262 1_565 S
C42 O47 1.245 . S
O43 Zn12 1.945 . S
O43 C36 1.262 1_565 S
O44 Zn1 1.981 . S
O44 C36 1.245 . S
C45 O27 1.245 1_554 S
C45 O28 1.263 . S
O46 Zn17 1.945 . S
O46 C42 1.262 1_545 S
O47 Zn6 1.981 . S
O47 C42 1.245 . S
C48 O29 1.276 1_655 S
C48 O49 1.246 . S
O49 C48 1.246 . S
C50 O31 1.276 1_455 S
C50 O51 1.246 . S
O51 C50 1.246 . S
Zn52 O54 1.933 . S
Zn52 O72 1.985 . S
Zn52 O83 1.955 . S
Zn53 O54 1.911 . S
Zn53 O73 1.970 . S
Zn53 O89 1.945 . S
Zn53 O96 1.981 . S
O54 Zn52 1.933 . S
O54 Zn53 1.911 . S
O54 H55 0.841 . S
H55 O54 0.841 . S
C56 O57 1.246 . S
C56 O85 1.276 . S
O57 C56 1.246 . S
Zn58 O60 1.911 . S
Zn58 O75 1.970 . S
Zn58 O92 1.945 . S
Zn58 O99 1.981 . S
Zn59 O60 1.933 . S
Zn59 O74 1.985 . S
Zn59 O81 1.955 . S
O60 Zn58 1.911 . S
O60 Zn59 1.933 . S
O60 H61 0.841 . S
H61 O60 0.841 . S
Zn62 O63 1.933 . S
Zn62 O76 1.985 . S
Zn62 O85 1.955 . S
O63 Zn62 1.933 . S
O63 Zn64 1.911 . S
O63 H65 0.841 . S
Zn64 O63 1.911 . S
Zn64 O77 1.970 . S
Zn64 O93 1.981 . S
Zn64 O95 1.945 . S
H65 O63 0.841 . S
Zn66 O67 1.933 . S
Zn66 O79 1.985 . S
Zn66 O87 1.955 . S
O67 Zn66 1.933 . S
O67 H68 0.841 . S
O67 Zn69 1.911 . S
H68 O67 0.841 . S
Zn69 O67 1.911 . S
Zn69 O80 1.970 . S
Zn69 O90 1.981 . S
Zn69 O98 1.945 . S
C70 O71 1.246 . S
C70 O87 1.276 . S
O71 C70 1.246 . S
O72 Zn52 1.985 . S
O72 C82 1.245 . S
O73 Zn53 1.970 . S
O73 C82 1.263 . S
O74 Zn59 1.985 . S
O74 C86 1.245 . S
O75 Zn58 1.970 . S
O75 C86 1.263 . S
O76 Zn62 1.985 . S
O76 C91 1.245 . S
O77 Zn64 1.970 . S
O77 C91 1.263 . S
C78 O89 1.262 . S
C78 O90 1.245 . S
O79 Zn66 1.985 . S
O79 C97 1.245 . S
O80 Zn69 1.970 . S
O80 C97 1.263 . S
O81 Zn59 1.955 . S
O81 C100 1.276 . S
C82 O72 1.245 . S
C82 O73 1.263 . S
O83 Zn52 1.955 . S
O83 C102 1.276 . S
C84 O92 1.262 . S
C84 O93 1.245 . S
O85 C56 1.276 . S
O85 Zn62 1.955 . S
C86 O74 1.245 . S
C86 O75 1.263 . S
O87 Zn66 1.955 . S
O87 C70 1.276 . S
C88 O95 1.262 . S
C88 O96 1.245 . S
O89 Zn53 1.945 . S
O89 C78 1.262 . S
O90 Zn69 1.981 . S
O90 C78 1.245 . S
C91 O76 1.245 . S
C91 O77 1.263 . S
O92 Zn58 1.945 . S
O92 C84 1.262 . S
O93 Zn64 1.981 . S
O93 C84 1.245 . S
C94 O98 1.262 . S
C94 O99 1.245 . S
O95 Zn64 1.945 . S
O95 C88 1.262 . S
O96 Zn53 1.981 . S
O96 C88 1.245 . S
C97 O79 1.245 . S
C97 O80 1.263 . S
O98 Zn69 1.945 . S
O98 C94 1.262 . S
O99 Zn58 1.981 . S
O99 C94 1.245 . S
C100 O81 1.276 . S
C100 O101 1.246 . S
O101 C100 1.246 . S
C102 O83 1.276 . S
C102 O103 1.246 . S
O103 C102 1.246 . S
C104 C105 1.384 . S
C104 H117 0.947 . S
C104 C139 1.382 . S
C105 C104 1.384 . S
C105 C106 1.378 . S
C106 C105 1.378 . S
C106 C107 1.378 . S
C106 H118 0.952 . S
C107 C106 1.378 . S
C107 H119 0.950 . S
C107 C138 1.383 . S
H108 C127 0.947 . S
H109 C128 0.946 . S
H110 C130 0.953 . S
H111 C131 0.945 . S
H112 C133 0.952 . S
H113 C134 0.949 . S
H114 C136 0.950 . S
H115 C137 0.948 . S
H116 C139 0.951 . S
H117 C104 0.947 . S
H118 C106 0.952 . S
H119 C107 0.950 . S
N120 C123 1.382 . S
N120 C125 1.363 . S
N121 C123 1.371 1_556 S
N121 C124 1.372 . S
N122 C124 1.361 1_554 S
N122 C125 1.377 . S
C123 N120 1.382 . S
C123 N121 1.371 1_554 S
C123 C126 1.480 . S
C124 N121 1.372 . S
C124 N122 1.361 1_556 S
C124 C132 1.457 . S
C125 N120 1.363 . S
C125 N122 1.377 . S
C125 C138 1.479 . S
C126 C123 1.480 . S
C126 C127 1.383 . S
C126 C131 1.385 1_554 S
C127 H108 0.947 . S
C127 C126 1.383 . S
C127 C128 1.388 . S
C128 H109 0.946 . S
C128 C127 1.388 . S
C128 C129 1.384 . S
C129 C128 1.384 . S
C129 C130 1.377 1_554 S
C130 H110 0.953 . S
C130 C129 1.377 1_556 S
C130 C131 1.369 . S
C131 H111 0.945 . S
C131 C126 1.385 1_556 S
C131 C130 1.369 . S
C132 C124 1.457 . S
C132 C133 1.372 . S
C132 C137 1.364 . S
C133 H112 0.952 . S
C133 C132 1.372 . S
C133 C134 1.389 . S
C134 H113 0.949 . S
C134 C133 1.389 . S
C134 C135 1.387 . S
C135 C134 1.387 . S
C135 C136 1.372 . S
C136 H114 0.950 . S
C136 C135 1.372 . S
C136 C137 1.379 . S
C137 H115 0.948 . S
C137 C132 1.364 . S
C137 C136 1.379 . S
C138 C107 1.383 . S
C138 C125 1.479 . S
C138 C139 1.398 . S
C139 C104 1.382 . S
C139 H116 0.951 . S
C139 C138 1.398 . S
C140 C141 1.384 . S
C140 H153 0.947 . S
C140 C175 1.382 . S
C141 C140 1.384 . S
C141 C142 1.378 . S
C142 C141 1.378 . S
C142 C143 1.378 . S
C142 H154 0.952 . S
C143 C142 1.378 . S
C143 H155 0.950 . S
C143 C174 1.383 . S
H144 C163 0.947 . S
H145 C164 0.946 . S
H146 C166 0.953 . S
H147 C167 0.945 . S
H148 C169 0.952 . S
H149 C170 0.949 . S
H150 C172 0.950 . S
H151 C173 0.948 . S
H152 C175 0.951 . S
H153 C140 0.947 . S
H154 C142 0.952 . S
H155 C143 0.950 . S
N156 C159 1.382 . S
N156 C161 1.363 . S
N157 C159 1.371 1_556 S
N157 C160 1.372 . S
N158 C160 1.361 1_554 S
N158 C161 1.377 . S
C159 N156 1.382 . S
C159 N157 1.371 1_554 S
C159 C162 1.480 . S
C160 N157 1.372 . S
C160 N158 1.361 1_556 S
C160 C168 1.457 . S
C161 N156 1.363 . S
C161 N158 1.377 . S
C161 C174 1.479 . S
C162 C159 1.480 . S
C162 C163 1.383 . S
C162 C167 1.385 1_554 S
C163 H144 0.947 . S
C163 C162 1.383 . S
C163 C164 1.388 . S
C164 H145 0.946 . S
C164 C163 1.388 . S
C164 C165 1.384 . S
C165 C164 1.384 . S
C165 C166 1.377 1_554 S
C166 H146 0.953 . S
C166 C165 1.377 1_556 S
C166 C167 1.369 . S
C167 H147 0.945 . S
C167 C162 1.385 1_556 S
C167 C166 1.369 . S
C168 C160 1.457 . S
C168 C169 1.372 . S
C168 C173 1.364 . S
C169 H148 0.952 . S
C169 C168 1.372 . S
C169 C170 1.389 . S
C170 H149 0.949 . S
C170 C169 1.389 . S
C170 C171 1.387 . S
C171 C170 1.387 . S
C171 C172 1.372 . S
C172 H150 0.950 . S
C172 C171 1.372 . S
C172 C173 1.379 . S
C173 H151 0.948 . S
C173 C168 1.364 . S
C173 C172 1.379 . S
C174 C143 1.383 . S
C174 C161 1.479 . S
C174 C175 1.398 . S
C175 C140 1.382 . S
C175 H152 0.951 . S
C175 C174 1.398 . S
C176 C177 1.384 . S
C176 H189 0.947 . S
C176 C211 1.382 . S
C177 C176 1.384 . S
C177 C178 1.378 . S
C178 C177 1.378 . S
C178 C179 1.378 . S
C178 H190 0.952 . S
C179 C178 1.378 . S
C179 H191 0.950 . S
C179 C210 1.383 . S
H180 C199 0.947 . S
H181 C200 0.946 . S
H182 C202 0.953 . S
H183 C203 0.945 . S
H184 C205 0.952 . S
H185 C206 0.949 . S
H186 C208 0.950 . S
H187 C209 0.948 . S
H188 C211 0.951 . S
H189 C176 0.947 . S
H190 C178 0.952 . S
H191 C179 0.950 . S
N192 C195 1.382 1_556 S
N192 C197 1.363 . S
N193 C195 1.371 . S
N193 C196 1.372 . S
N194 C196 1.361 . S
N194 C197 1.377 1_554 S
C195 N192 1.382 1_554 S
C195 N193 1.371 . S
C195 C198 1.480 . S
C196 N193 1.372 . S
C196 N194 1.361 . S
C196 C204 1.457 . S
C197 N192 1.363 . S
C197 N194 1.377 1_556 S
C197 C210 1.479 . S
C198 C195 1.480 . S
C198 C199 1.383 1_554 S
C198 C203 1.385 . S
C199 H180 0.947 . S
C199 C198 1.383 1_556 S
C199 C200 1.388 . S
C200 H181 0.946 . S
C200 C199 1.388 . S
C200 C201 1.384 1_556 S
C201 C200 1.384 1_554 S
C201 C202 1.377 . S
C202 H182 0.953 . S
C202 C201 1.377 . S
C202 C203 1.369 . S
C203 H183 0.945 . S
C203 C198 1.385 . S
C203 C202 1.369 . S
C204 C196 1.457 . S
C204 C205 1.372 . S
C204 C209 1.364 . S
C205 H184 0.952 . S
C205 C204 1.372 . S
C205 C206 1.389 . S
C206 H185 0.949 . S
C206 C205 1.389 . S
C206 C207 1.387 . S
C207 C206 1.387 . S
C207 C208 1.372 . S
C208 H186 0.950 . S
C208 C207 1.372 . S
C208 C209 1.379 . S
C209 H187 0.948 . S
C209 C204 1.364 . S
C209 C208 1.379 . S
C210 C179 1.383 . S
C210 C197 1.479 . S
C210 C211 1.398 . S
C211 C176 1.382 . S
C211 H188 0.951 . S
C211 C210 1.398 . S
C212 C213 1.384 . S
C212 H225 0.947 . S
C212 C247 1.382 . S
C213 C212 1.384 . S
C213 C214 1.378 . S
C214 C213 1.378 . S
C214 C215 1.378 . S
C214 H226 0.952 . S
C215 C214 1.378 . S
C215 H227 0.950 . S
C215 C246 1.383 . S
H216 C235 0.947 . S
H217 C236 0.946 . S
H218 C238 0.953 . S
H219 C239 0.945 . S
H220 C241 0.952 . S
H221 C242 0.949 . S
H222 C244 0.950 . S
H223 C245 0.948 . S
H224 C247 0.951 . S
H225 C212 0.947 . S
H226 C214 0.952 . S
H227 C215 0.950 . S
N228 C231 1.382 1_556 S
N228 C233 1.363 . S
N229 C231 1.371 . S
N229 C232 1.372 . S
N230 C232 1.361 . S
N230 C233 1.377 1_554 S
C231 N228 1.382 1_554 S
C231 N229 1.371 . S
C231 C234 1.480 . S
C232 N229 1.372 . S
C232 N230 1.361 . S
C232 C240 1.457 . S
C233 N228 1.363 . S
C233 N230 1.377 1_556 S
C233 C246 1.479 . S
C234 C231 1.480 . S
C234 C235 1.383 1_554 S
C234 C239 1.385 . S
C235 H216 0.947 . S
C235 C234 1.383 1_556 S
C235 C236 1.388 . S
C236 H217 0.946 . S
C236 C235 1.388 . S
C236 C237 1.384 1_556 S
C237 C236 1.384 1_554 S
C237 C238 1.377 . S
C238 H218 0.953 . S
C238 C237 1.377 . S
C238 C239 1.369 . S
C239 H219 0.945 . S
C239 C234 1.385 . S
C239 C238 1.369 . S
C240 C232 1.457 . S
C240 C241 1.372 . S
C240 C245 1.364 . S
C241 H220 0.952 . S
C241 C240 1.372 . S
C241 C242 1.389 . S
C242 H221 0.949 . S
C242 C241 1.389 . S
C242 C243 1.387 . S
C243 C242 1.387 . S
C243 C244 1.372 . S
C244 H222 0.950 . S
C244 C243 1.372 . S
C244 C245 1.379 . S
C245 H223 0.948 . S
C245 C240 1.364 . S
C245 C244 1.379 . S
C246 C215 1.383 . S
C246 C233 1.479 . S
C246 C247 1.398 . S
C247 C212 1.382 . S
C247 H224 0.951 . S
C247 C246 1.398 . S
C248 C249 1.384 . S
C248 H261 0.947 . S
C248 C283 1.382 . S
C249 C248 1.384 . S
C249 C250 1.378 . S
C250 C249 1.378 . S
C250 C251 1.378 . S
C250 H262 0.952 . S
C251 C250 1.378 . S
C251 H263 0.950 . S
C251 C282 1.383 . S
H252 C271 0.947 . S
H253 C272 0.946 . S
H254 C274 0.953 . S
H255 C275 0.945 . S
H256 C277 0.952 . S
H257 C278 0.949 . S
H258 C280 0.950 . S
H259 C281 0.948 . S
H260 C283 0.951 . S
H261 C248 0.947 . S
H262 C250 0.952 . S
H263 C251 0.950 . S
N264 C267 1.382 . S
N264 C269 1.363 . S
N265 C267 1.371 . S
N265 C268 1.372 . S
N266 C268 1.361 . S
N266 C269 1.377 . S
C267 N264 1.382 . S
C267 N265 1.371 . S
C267 C270 1.480 . S
C268 N265 1.372 . S
C268 N266 1.361 . S
C268 C276 1.457 . S
C269 N264 1.363 . S
C269 N266 1.377 . S
C269 C282 1.479 . S
C270 C267 1.480 . S
C270 C271 1.383 . S
C270 C275 1.385 . S
C271 H252 0.947 . S
C271 C270 1.383 . S
C271 C272 1.388 . S
C272 H253 0.946 . S
C272 C271 1.388 . S
C272 C273 1.384 . S
C273 C272 1.384 . S
C273 C274 1.377 . S
C274 H254 0.953 . S
C274 C273 1.377 . S
C274 C275 1.369 . S
C275 H255 0.945 . S
C275 C270 1.385 . S
C275 C274 1.369 . S
C276 C268 1.457 . S
C276 C277 1.372 . S
C276 C281 1.364 . S
C277 H256 0.952 . S
C277 C276 1.372 . S
C277 C278 1.389 . S
C278 H257 0.949 . S
C278 C277 1.389 . S
C278 C279 1.387 . S
C279 C278 1.387 . S
C279 C280 1.372 . S
C280 H258 0.950 . S
C280 C279 1.372 . S
C280 C281 1.379 . S
C281 H259 0.948 . S
C281 C276 1.364 . S
C281 C280 1.379 . S
C282 C251 1.383 . S
C282 C269 1.479 . S
C282 C283 1.398 . S
C283 C248 1.382 . S
C283 H260 0.951 . S
C283 C282 1.398 . S
C284 C285 1.384 . S
C284 H297 0.947 . S
C284 C319 1.382 . S
C285 C284 1.384 . S
C285 C286 1.378 . S
C286 C285 1.378 . S
C286 C287 1.378 . S
C286 H298 0.952 . S
C287 C286 1.378 . S
C287 H299 0.950 . S
C287 C318 1.383 . S
H288 C307 0.947 . S
H289 C308 0.946 . S
H290 C310 0.953 . S
H291 C311 0.945 . S
H292 C313 0.952 . S
H293 C314 0.949 . S
H294 C316 0.950 . S
H295 C317 0.948 . S
H296 C319 0.951 . S
H297 C284 0.947 . S
H298 C286 0.952 . S
H299 C287 0.950 . S
N300 C303 1.382 . S
N300 C305 1.363 . S
N301 C303 1.371 . S
N301 C304 1.372 . S
N302 C304 1.361 . S
N302 C305 1.377 . S
C303 N300 1.382 . S
C303 N301 1.371 . S
C303 C306 1.480 . S
C304 N301 1.372 . S
C304 N302 1.361 . S
C304 C312 1.457 . S
C305 N300 1.363 . S
C305 N302 1.377 . S
C305 C318 1.479 . S
C306 C303 1.480 . S
C306 C307 1.383 . S
C306 C311 1.385 . S
C307 H288 0.947 . S
C307 C306 1.383 . S
C307 C308 1.388 . S
C308 H289 0.946 . S
C308 C307 1.388 . S
C308 C309 1.384 . S
C309 C308 1.384 . S
C309 C310 1.377 . S
C310 H290 0.953 . S
C310 C309 1.377 . S
C310 C311 1.369 . S
C311 H291 0.945 . S
C311 C306 1.385 . S
C311 C310 1.369 . S
C312 C304 1.457 . S
C312 C313 1.372 . S
C312 C317 1.364 . S
C313 H292 0.952 . S
C313 C312 1.372 . S
C313 C314 1.389 . S
C314 H293 0.949 . S
C314 C313 1.389 . S
C314 C315 1.387 . S
C315 C314 1.387 . S
C315 C316 1.372 . S
C316 H294 0.950 . S
C316 C315 1.372 . S
C316 C317 1.379 . S
C317 H295 0.948 . S
C317 C312 1.364 . S
C317 C316 1.379 . S
C318 C287 1.383 . S
C318 C305 1.479 . S
C318 C319 1.398 . S
C319 C284 1.382 . S
C319 H296 0.951 . S
C319 C318 1.398 . S
C320 C321 1.384 . S
C320 H333 0.947 . S
C320 C355 1.382 . S
C321 C320 1.384 . S
C321 C322 1.378 . S
C322 C321 1.378 . S
C322 C323 1.378 . S
C322 H334 0.952 . S
C323 C322 1.378 . S
C323 H335 0.950 . S
C323 C354 1.383 . S
H324 C343 0.947 . S
H325 C344 0.946 . S
H326 C346 0.953 . S
H327 C347 0.945 . S
H328 C349 0.952 . S
H329 C350 0.949 . S
H330 C352 0.950 . S
H331 C353 0.948 . S
H332 C355 0.951 . S
H333 C320 0.947 . S
H334 C322 0.952 . S
H335 C323 0.950 . S
N336 C339 1.382 . S
N336 C341 1.363 . S
N337 C339 1.371 . S
N337 C340 1.372 . S
N338 C340 1.361 . S
N338 C341 1.377 . S
C339 N336 1.382 . S
C339 N337 1.371 . S
C339 C342 1.480 . S
C340 N337 1.372 . S
C340 N338 1.361 . S
C340 C348 1.457 . S
C341 N336 1.363 . S
C341 N338 1.377 . S
C341 C354 1.479 . S
C342 C339 1.480 . S
C342 C343 1.383 . S
C342 C347 1.385 . S
C343 H324 0.947 . S
C343 C342 1.383 . S
C343 C344 1.388 . S
C344 H325 0.946 . S
C344 C343 1.388 . S
C344 C345 1.384 . S
C345 C344 1.384 . S
C345 C346 1.377 . S
C346 H326 0.953 . S
C346 C345 1.377 . S
C346 C347 1.369 . S
C347 H327 0.945 . S
C347 C342 1.385 . S
C347 C346 1.369 . S
C348 C340 1.457 . S
C348 C349 1.372 . S
C348 C353 1.364 . S
C349 H328 0.952 . S
C349 C348 1.372 . S
C349 C350 1.389 . S
C350 H329 0.949 . S
C350 C349 1.389 . S
C350 C351 1.387 . S
C351 C350 1.387 . S
C351 C352 1.372 . S
C352 H330 0.950 . S
C352 C351 1.372 . S
C352 C353 1.379 . S
C353 H331 0.948 . S
C353 C348 1.364 . S
C353 C352 1.379 . S
C354 C323 1.383 . S
C354 C341 1.479 . S
C354 C355 1.398 . S
C355 C320 1.382 . S
C355 H332 0.951 . S
C355 C354 1.398 . S
C356 C357 1.384 . S
C356 H369 0.947 . S
C356 C391 1.382 . S
C357 C356 1.384 . S
C357 C358 1.378 . S
C358 C357 1.378 . S
C358 C359 1.378 . S
C358 H370 0.952 . S
C359 C358 1.378 . S
C359 H371 0.950 . S
C359 C390 1.383 . S
H360 C379 0.947 . S
H361 C380 0.946 . S
H362 C382 0.953 . S
H363 C383 0.945 . S
H364 C385 0.952 . S
H365 C386 0.949 . S
H366 C388 0.950 . S
H367 C389 0.948 . S
H368 C391 0.951 . S
H369 C356 0.947 . S
H370 C358 0.952 . S
H371 C359 0.950 . S
N372 C375 1.382 . S
N372 C377 1.363 . S
N373 C375 1.371 . S
N373 C376 1.372 . S
N374 C376 1.361 . S
N374 C377 1.377 . S
C375 N372 1.382 . S
C375 N373 1.371 . S
C375 C378 1.480 . S
C376 N373 1.372 . S
C376 N374 1.361 . S
C376 C384 1.457 . S
C377 N372 1.363 . S
C377 N374 1.377 . S
C377 C390 1.479 . S
C378 C375 1.480 . S
C378 C379 1.383 . S
C378 C383 1.385 . S
C379 H360 0.947 . S
C379 C378 1.383 . S
C379 C380 1.388 . S
C380 H361 0.946 . S
C380 C379 1.388 . S
C380 C381 1.384 . S
C381 C380 1.384 . S
C381 C382 1.377 . S
C382 H362 0.953 . S
C382 C381 1.377 . S
C382 C383 1.369 . S
C383 H363 0.945 . S
C383 C378 1.385 . S
C383 C382 1.369 . S
C384 C376 1.457 . S
C384 C385 1.372 . S
C384 C389 1.364 . S
C385 H364 0.952 . S
C385 C384 1.372 . S
C385 C386 1.389 . S
C386 H365 0.949 . S
C386 C385 1.389 . S
C386 C387 1.387 . S
C387 C386 1.387 . S
C387 C388 1.372 . S
C388 H366 0.950 . S
C388 C387 1.372 . S
C388 C389 1.379 . S
C389 H367 0.948 . S
C389 C384 1.364 . S
C389 C388 1.379 . S
C390 C359 1.383 . S
C390 C377 1.479 . S
C390 C391 1.398 . S
C391 C356 1.382 . S
C391 H368 0.951 . S
C391 C390 1.398 . S
H392 C398 0.930 . S
H393 C401 0.930 . S
H394 C402 0.930 . S
H395 C403 0.930 . S
H396 C406 0.930 . S
H397 C407 0.930 . S
C398 H392 0.930 . S
C398 C399 1.355 1_556 S
C398 C400 1.415 1_556 S
C399 C398 1.355 1_554 S
C399 C401 1.419 . S
C400 C398 1.415 1_554 S
C400 C405 1.425 . S
C400 C407 1.409 1_554 S
C401 H393 0.930 . S
C401 C399 1.419 . S
C401 C402 1.362 . S
C402 H394 0.930 . S
C402 C401 1.362 . S
C402 C405 1.409 . S
C403 H395 0.930 . S
C403 C404 1.355 . S
C403 C405 1.415 . S
C404 C403 1.355 . S
C404 C406 1.419 1_554 S
C405 C400 1.425 . S
C405 C402 1.409 . S
C405 C403 1.415 . S
C406 H396 0.930 . S
C406 C404 1.419 1_556 S
C406 C407 1.362 . S
C407 H397 0.930 . S
C407 C400 1.409 1_556 S
C407 C406 1.362 . S
H408 C414 0.930 . S
H409 C417 0.930 . S
H410 C418 0.930 . S
H411 C419 0.930 . S
H412 C422 0.930 . S
H413 C423 0.930 . S
C414 H408 0.930 . S
C414 C415 1.355 1_556 S
C414 C416 1.414 . S
C415 C414 1.355 1_554 S
C415 C417 1.419 . S
C416 C414 1.414 . S
C416 C421 1.427 1_556 S
C416 C423 1.408 . S
C417 H409 0.930 . S
C417 C415 1.419 . S
C417 C418 1.362 . S
C418 H410 0.930 . S
C418 C417 1.362 . S
C418 C421 1.409 . S
C419 H411 0.930 . S
C419 C420 1.355 . S
C419 C421 1.415 . S
C420 C419 1.355 . S
C420 C422 1.419 1_554 S
C421 C416 1.427 1_554 S
C421 C418 1.409 . S
C421 C419 1.415 . S
C422 H412 0.930 . S
C422 C420 1.419 1_556 S
C422 C423 1.362 . S
C423 H413 0.930 . S
C423 C416 1.408 . S
C423 C422 1.362 . S
H424 C430 0.930 . S
H425 C433 0.930 . S
H426 C434 0.930 . S
H427 C435 0.930 . S
H428 C438 0.930 . S
H429 C439 0.930 . S
C430 H424 0.930 . S
C430 C431 1.355 . S
C430 C432 1.415 . S
C431 C430 1.355 . S
C431 C433 1.419 . S
C432 C430 1.415 . S
C432 C437 1.425 . S
C432 C439 1.409 . S
C433 H425 0.930 . S
C433 C431 1.419 . S
C433 C434 1.362 . S
C434 H426 0.930 . S
C434 C433 1.362 . S
C434 C437 1.409 . S
C435 H427 0.930 . S
C435 C436 1.355 . S
C435 C437 1.415 . S
C436 C435 1.355 . S
C436 C438 1.419 . S
C437 C432 1.425 . S
C437 C434 1.409 . S
C437 C435 1.415 . S
C438 H428 0.930 . S
C438 C436 1.419 . S
C438 C439 1.362 . S
C439 H429 0.930 . S
C439 C432 1.409 . S
C439 C438 1.362 . S
H440 C446 0.930 . S
H441 C449 0.930 . S
H442 C450 0.930 . S
H443 C451 0.930 . S
H444 C454 0.930 . S
H445 C455 0.930 . S
C446 H440 0.930 . S
C446 C447 1.355 1_556 S
C446 C448 1.415 . S
C447 C446 1.355 1_554 S
C447 C449 1.419 . S
C448 C446 1.415 . S
C448 C453 1.425 1_556 S
C448 C455 1.409 . S
C449 H441 0.930 . S
C449 C447 1.419 . S
C449 C450 1.362 . S
C450 H442 0.930 . S
C450 C449 1.362 . S
C450 C453 1.409 . S
C451 H443 0.930 . S
C451 C452 1.355 . S
C451 C453 1.415 . S
C452 C451 1.355 . S
C452 C454 1.419 1_554 S
C453 C448 1.425 1_554 S
C453 C450 1.409 . S
C453 C451 1.415 . S
C454 H444 0.930 . S
C454 C452 1.419 1_556 S
C454 C455 1.362 . S
C455 H445 0.930 . S
C455 C448 1.409 . S
C455 C454 1.362 . S
H456 C462 0.930 . S
H457 C465 0.930 . S
H458 C466 0.930 . S
H459 C467 0.930 . S
H460 C470 0.930 . S
H461 C471 0.930 . S
C462 H456 0.930 . S
C462 C463 1.355 . S
C462 C464 1.415 . S
C463 C462 1.355 . S
C463 C465 1.419 . S
C464 C462 1.415 . S
C464 C469 1.425 . S
C464 C471 1.409 . S
C465 H457 0.930 . S
C465 C463 1.419 . S
C465 C466 1.362 . S
C466 H458 0.930 . S
C466 C465 1.362 . S
C466 C469 1.409 . S
C467 H459 0.930 . S
C467 C468 1.355 . S
C467 C469 1.415 . S
C468 C467 1.355 . S
C468 C470 1.419 . S
C469 C464 1.425 . S
C469 C466 1.409 . S
C469 C467 1.415 . S
C470 H460 0.930 . S
C470 C468 1.419 . S
C470 C471 1.362 . S
C471 H461 0.930 . S
C471 C464 1.409 . S
C471 C470 1.362 . S
H472 C478 0.930 . S
H473 C481 0.930 . S
H474 C482 0.930 . S
H475 C483 0.930 . S
H476 C486 0.930 . S
H477 C487 0.930 . S
C478 H472 0.930 . S
C478 C479 1.355 . S
C478 C480 1.415 . S
C479 C478 1.355 . S
C479 C481 1.419 . S
C480 C478 1.415 . S
C480 C485 1.425 . S
C480 C487 1.409 . S
C481 H473 0.930 . S
C481 C479 1.419 . S
C481 C482 1.362 . S
C482 H474 0.930 . S
C482 C481 1.362 . S
C482 C485 1.409 . S
C483 H475 0.930 . S
C483 C484 1.355 . S
C483 C485 1.415 . S
C484 C483 1.355 . S
C484 C486 1.419 . S
C485 C480 1.425 . S
C485 C482 1.409 . S
C485 C483 1.415 . S
C486 H476 0.930 . S
C486 C484 1.419 . S
C486 C487 1.362 . S
C487 H477 0.930 . S
C487 C480 1.409 . S
C487 C486 1.362 . S
H488 C494 0.930 . S
H489 C497 0.930 . S
H490 C498 0.930 . S
H491 C499 0.930 . S
H492 C502 0.930 . S
H493 C503 0.930 . S
C494 H488 0.930 . S
C494 C495 1.355 . S
C494 C496 1.415 . S
C495 C494 1.355 . S
C495 C497 1.419 . S
C496 C494 1.415 . S
C496 C501 1.425 . S
C496 C503 1.409 . S
C497 H489 0.930 . S
C497 C495 1.419 . S
C497 C498 1.362 . S
C498 H490 0.930 . S
C498 C497 1.362 . S
C498 C501 1.409 . S
C499 H491 0.930 . S
C499 C500 1.355 . S
C499 C501 1.415 . S
C500 C499 1.355 . S
C500 C502 1.419 . S
C501 C496 1.425 . S
C501 C498 1.409 . S
C501 C499 1.415 . S
C502 H492 0.930 . S
C502 C500 1.419 . S
C502 C503 1.362 . S
C503 H493 0.930 . S
C503 C496 1.409 . S
C503 C502 1.362 . S
H504 C510 0.930 . S
H505 C513 0.930 . S
H506 C514 0.930 . S
H507 C515 0.930 . S
H508 C518 0.930 . S
H509 C519 0.930 . S
C510 H504 0.930 . S
C510 C511 1.355 . S
C510 C512 1.415 . S
C511 C510 1.355 . S
C511 C513 1.419 . S
C512 C510 1.415 . S
C512 C517 1.425 . S
C512 C519 1.409 . S
C513 H505 0.930 . S
C513 C511 1.419 . S
C513 C514 1.362 . S
C514 H506 0.930 . S
C514 C513 1.362 . S
C514 C517 1.409 . S
C515 H507 0.930 . S
C515 C516 1.355 . S
C515 C517 1.415 . S
C516 C515 1.355 . S
C516 C518 1.419 . S
C517 C512 1.425 . S
C517 C514 1.409 . S
C517 C515 1.415 . S
C518 H508 0.930 . S
C518 C516 1.419 . S
C518 C519 1.362 . S
C519 H509 0.930 . S
C519 C512 1.409 . S
C519 C518 1.362 . S
H520 C526 0.958 . S
H521 C529 0.930 . S
H522 C530 0.930 . S
H523 C531 0.930 . S
H524 C534 0.930 . S
H525 C535 0.930 1_655 S
C526 H520 0.958 . S
C526 C527 1.355 . S
C526 C528 1.415 . S
C527 C526 1.355 . S
C527 C529 1.419 . S
C528 C526 1.415 . S
C528 C533 1.425 . S
C528 C535 1.409 . S
C529 H521 0.930 . S
C529 C527 1.419 . S
C529 C530 1.362 . S
C530 H522 0.930 . S
C530 C529 1.362 . S
C530 C533 1.409 . S
C531 H523 0.930 . S
C531 C532 1.355 . S
C531 C533 1.415 . S
C532 C531 1.355 . S
C532 C534 1.419 . S
C533 C528 1.425 . S
C533 C530 1.409 . S
C533 C531 1.415 . S
C534 H524 0.930 . S
C534 C532 1.419 . S
C534 C535 1.362 . S
C535 H525 0.930 1_455 S
C535 C528 1.409 . S
C535 C534 1.362 . S
H536 C542 0.930 . S
H537 C545 0.930 . S
H538 C546 0.930 . S
H539 C547 0.930 . S
H540 C550 0.930 . S
H541 C551 0.930 . S
C542 H536 0.930 . S
C542 C543 1.355 . S
C542 C544 1.415 . S
C543 C542 1.355 . S
C543 C545 1.419 . S
C544 C542 1.415 . S
C544 C549 1.425 . S
C544 C551 1.409 . S
C545 H537 0.930 . S
C545 C543 1.419 . S
C545 C546 1.362 . S
C546 H538 0.930 . S
C546 C545 1.362 . S
C546 C549 1.409 . S
C547 H539 0.930 . S
C547 C548 1.355 . S
C547 C549 1.415 . S
C548 C547 1.355 . S
C548 C550 1.419 . S
C549 C544 1.425 . S
C549 C546 1.409 . S
C549 C547 1.415 . S
C550 H540 0.930 . S
C550 C548 1.419 . S
C550 C551 1.362 . S
C551 H541 0.930 . S
C551 C544 1.409 . S
C551 C550 1.362 . S
H552 C558 0.930 . S
H553 C561 0.930 . S
H554 C562 0.930 . S
H555 C563 0.930 . S
H556 C566 0.930 . S
H557 C567 0.929 1_455 S
C558 H552 0.930 . S
C558 C559 1.355 . S
C558 C560 1.415 . S
C559 C558 1.355 . S
C559 C561 1.419 . S
C560 C558 1.415 . S
C560 C565 1.425 . S
C560 C567 1.409 . S
C561 H553 0.930 . S
C561 C559 1.419 . S
C561 C562 1.362 . S
C562 H554 0.930 . S
C562 C561 1.362 . S
C562 C565 1.409 . S
C563 H555 0.930 . S
C563 C564 1.355 . S
C563 C565 1.415 . S
C564 C563 1.355 . S
C564 C566 1.419 . S
C565 C560 1.425 . S
C565 C562 1.409 . S
C565 C563 1.415 . S
C566 H556 0.930 . S
C566 C564 1.419 . S
C566 C567 1.362 . S
C567 H557 0.929 1_655 S
C567 C560 1.409 . S
C567 C566 1.362 . S
H568 C574 0.930 . S
H569 C577 0.930 . S
H570 C578 0.930 . S
H571 C579 0.930 . S
H572 C582 0.930 . S
H573 C583 0.930 . S
C574 H568 0.930 . S
C574 C575 1.355 . S
C574 C576 1.415 . S
C575 C574 1.355 . S
C575 C577 1.419 . S
C576 C574 1.415 . S
C576 C581 1.425 . S
C576 C583 1.409 . S
C577 H569 0.930 . S
C577 C575 1.419 . S
C577 C578 1.362 . S
C578 H570 0.930 . S
C578 C577 1.362 . S
C578 C581 1.409 . S
C579 H571 0.930 . S
C579 C580 1.355 . S
C579 C581 1.415 . S
C580 C579 1.355 . S
C580 C582 1.419 . S
C581 C576 1.425 . S
C581 C578 1.409 . S
C581 C579 1.415 . S
C582 H572 0.930 . S
C582 C580 1.419 . S
C582 C583 1.362 . S
C583 H573 0.930 . S
C583 C576 1.409 . S
C583 C582 1.362 . S
H584 C590 0.930 . S
H585 C593 0.930 . S
H586 C594 0.930 . S
H587 C595 0.930 . S
H588 C598 0.930 . S
H589 C599 0.930 . S
C590 H584 0.930 . S
C590 C591 1.355 . S
C590 C592 1.415 . S
C591 C590 1.355 . S
C591 C593 1.419 . S
C592 C590 1.415 . S
C592 C597 1.425 . S
C592 C599 1.409 . S
C593 H585 0.930 . S
C593 C591 1.419 . S
C593 C594 1.362 . S
C594 H586 0.930 . S
C594 C593 1.362 . S
C594 C597 1.409 . S
C595 H587 0.930 . S
C595 C596 1.355 . S
C595 C597 1.415 . S
C596 C595 1.355 . S
C596 C598 1.419 . S
C597 C592 1.425 . S
C597 C594 1.409 . S
C597 C595 1.415 . S
C598 H588 0.930 . S
C598 C596 1.419 . S
C598 C599 1.362 . S
C599 H589 0.930 . S
C599 C592 1.409 . S
C599 C598 1.362 . S
H600 C606 0.930 1_655 S
H601 C609 0.930 . S
H602 C610 0.930 . S
H603 C611 0.930 . S
H604 C614 0.930 . S
H605 C615 0.930 1_655 S
C606 H600 0.930 1_455 S
C606 C607 1.355 . S
C606 C608 1.415 . S
C607 C606 1.355 . S
C607 C609 1.419 . S
C608 C606 1.415 . S
C608 C613 1.425 . S
C608 C615 1.409 . S
C609 H601 0.930 . S
C609 C607 1.419 . S
C609 C610 1.362 . S
C610 H602 0.930 . S
C610 C609 1.362 . S
C610 C613 1.409 . S
C611 H603 0.930 . S
C611 C612 1.355 . S
C611 C613 1.415 . S
C612 C611 1.355 . S
C612 C614 1.419 . S
C613 C608 1.425 . S
C613 C610 1.409 . S
C613 C611 1.415 . S
C614 H604 0.930 . S
C614 C612 1.419 . S
C614 C615 1.362 . S
C615 H605 0.930 1_455 S
C615 C608 1.409 . S
C615 C614 1.362 . S
H616 C622 0.930 . S
H617 C625 0.930 . S
H618 C626 0.930 . S
H619 C627 0.930 . S
H620 C630 0.930 . S
H621 C631 0.930 . S
C622 H616 0.930 . S
C622 C623 1.355 . S
C622 C624 1.415 . S
C623 C622 1.355 . S
C623 C625 1.419 . S
C624 C622 1.415 . S
C624 C629 1.425 . S
C624 C631 1.409 . S
C625 H617 0.930 . S
C625 C623 1.419 . S
C625 C626 1.362 . S
C626 H618 0.930 . S
C626 C625 1.362 . S
C626 C629 1.409 . S
C627 H619 0.930 . S
C627 C628 1.355 . S
C627 C629 1.415 . S
C628 C627 1.355 . S
C628 C630 1.419 . S
C629 C624 1.425 . S
C629 C626 1.409 . S
C629 C627 1.415 . S
C630 H620 0.930 . S
C630 C628 1.419 . S
C630 C631 1.362 . S
C631 H621 0.930 . S
C631 C624 1.409 . S
C631 C630 1.362 . S
H632 C638 0.930 1_455 S
H633 C641 0.930 . S
H634 C642 0.930 . S
H635 C643 0.930 . S
H636 C646 0.930 . S
H637 C647 0.930 1_455 S
C638 H632 0.930 1_655 S
C638 C639 1.355 . S
C638 C640 1.415 . S
C639 C638 1.355 . S
C639 C641 1.419 . S
C640 C638 1.415 . S
C640 C645 1.425 . S
C640 C647 1.409 . S
C641 H633 0.930 . S
C641 C639 1.419 . S
C641 C642 1.362 . S
C642 H634 0.930 . S
C642 C641 1.362 . S
C642 C645 1.409 . S
C643 H635 0.930 . S
C643 C644 1.355 . S
C643 C645 1.415 . S
C644 C643 1.355 . S
C644 C646 1.419 . S
C645 C640 1.425 . S
C645 C642 1.409 . S
C645 C643 1.415 . S
C646 H636 0.930 . S
C646 C644 1.419 . S
C646 C647 1.362 . S
C647 H637 0.930 1_655 S
C647 C640 1.409 . S
C647 C646 1.362 . S
H648 C654 0.930 . S
H649 C657 0.930 . S
H650 C658 0.930 . S
H651 C659 0.930 . S
H652 C662 0.930 . S
H653 C663 0.930 . S
C654 H648 0.930 . S
C654 C655 1.355 . S
C654 C656 1.415 . S
C655 C654 1.355 . S
C655 C657 1.419 . S
C656 C654 1.415 . S
C656 C661 1.425 . S
C656 C663 1.409 . S
C657 H649 0.930 . S
C657 C655 1.419 . S
C657 C658 1.362 . S
C658 H650 0.930 . S
C658 C657 1.362 . S
C658 C661 1.409 . S
C659 H651 0.930 . S
C659 C660 1.355 . S
C659 C661 1.415 . S
C660 C659 1.355 . S
C660 C662 1.419 . S
C661 C656 1.425 . S
C661 C658 1.409 . S
C661 C659 1.415 . S
C662 H652 0.930 . S
C662 C660 1.419 . S
C662 C663 1.362 . S
C663 H653 0.930 . S
C663 C656 1.409 . S
C663 C662 1.362 . S
H664 C670 0.930 . S
H665 C673 0.930 . S
H666 C674 0.930 . S
H667 C675 0.930 . S
H668 C678 0.930 . S
H669 C679 0.930 . S
C670 H664 0.930 . S
C670 C671 1.355 . S
C670 C672 1.415 . S
C671 C670 1.355 . S
C671 C673 1.419 . S
C672 C670 1.415 . S
C672 C677 1.425 . S
C672 C679 1.409 . S
C673 H665 0.930 . S
C673 C671 1.419 . S
C673 C674 1.362 . S
C674 H666 0.930 . S
C674 C673 1.362 . S
C674 C677 1.409 . S
C675 H667 0.930 . S
C675 C676 1.355 . S
C675 C677 1.415 . S
C676 C675 1.355 . S
C676 C678 1.419 . S
C677 C672 1.425 . S
C677 C674 1.409 . S
C677 C675 1.415 . S
C678 H668 0.930 . S
C678 C676 1.419 . S
C678 C679 1.362 . S
C679 H669 0.930 . S
C679 C672 1.409 . S
C679 C678 1.362 . S
H680 C686 0.930 . S
H681 C689 0.930 . S
H682 C690 0.930 . S
H683 C691 0.930 . S
H684 C694 0.930 . S
H685 C695 0.930 . S
C686 H680 0.930 . S
C686 C687 1.355 . S
C686 C688 1.415 . S
C687 C686 1.355 . S
C687 C689 1.419 . S
C688 C686 1.415 . S
C688 C693 1.425 . S
C688 C695 1.409 . S
C689 H681 0.930 . S
C689 C687 1.419 . S
C689 C690 1.362 . S
C690 H682 0.930 . S
C690 C689 1.362 . S
C690 C693 1.409 . S
C691 H683 0.930 . S
C691 C692 1.355 . S
C691 C693 1.415 . S
C692 C691 1.355 . S
C692 C694 1.419 . S
C693 C688 1.425 . S
C693 C690 1.409 . S
C693 C691 1.415 . S
C694 H684 0.930 . S
C694 C692 1.419 . S
C694 C695 1.362 . S
C695 H685 0.930 . S
C695 C688 1.409 . S
C695 C694 1.362 . S
H696 C702 0.930 . S
H697 C705 0.930 . S
H698 C706 0.930 . S
H699 C707 0.930 . S
H700 C710 0.930 . S
H701 C711 0.930 . S
C702 H696 0.930 . S
C702 C703 1.355 . S
C702 C704 1.415 . S
C703 C702 1.355 . S
C703 C705 1.419 . S
C704 C702 1.415 . S
C704 C709 1.425 . S
C704 C711 1.409 . S
C705 H697 0.930 . S
C705 C703 1.419 . S
C705 C706 1.362 . S
C706 H698 0.930 . S
C706 C705 1.362 . S
C706 C709 1.409 . S
C707 H699 0.930 . S
C707 C708 1.355 . S
C707 C709 1.415 . S
C708 C707 1.355 . S
C708 C710 1.419 . S
C709 C704 1.425 . S
C709 C706 1.409 . S
C709 C707 1.415 . S
C710 H700 0.930 . S
C710 C708 1.419 . S
C710 C711 1.362 . S
C711 H701 0.930 . S
C711 C704 1.409 . S
C711 C710 1.362 . S
H712 C718 0.930 . S
H713 C721 0.930 . S
H714 C722 0.930 . S
H715 C723 0.930 . S
H716 C726 0.930 . S
H717 C727 0.930 . S
C718 H712 0.930 . S
C718 C719 1.355 . S
C718 C720 1.415 . S
C719 C718 1.355 . S
C719 C721 1.419 . S
C720 C718 1.415 . S
C720 C725 1.425 . S
C720 C727 1.409 . S
C721 H713 0.930 . S
C721 C719 1.419 . S
C721 C722 1.362 . S
C722 H714 0.930 . S
C722 C721 1.362 . S
C722 C725 1.409 . S
C723 H715 0.930 . S
C723 C724 1.355 . S
C723 C725 1.415 . S
C724 C723 1.355 . S
C724 C726 1.419 . S
C725 C720 1.425 . S
C725 C722 1.409 . S
C725 C723 1.415 . S
C726 H716 0.930 . S
C726 C724 1.419 . S
C726 C727 1.362 . S
C727 H717 0.930 . S
C727 C720 1.409 . S
C727 C726 1.362 . S
H728 C734 0.930 . S
H729 C737 0.930 . S
H730 C738 0.930 . S
H731 C739 0.930 . S
H732 C742 0.930 . S
H733 C743 0.930 . S
C734 H728 0.930 . S
C734 C735 1.355 . S
C734 C736 1.415 . S
C735 C734 1.355 . S
C735 C737 1.419 . S
C736 C734 1.415 . S
C736 C741 1.425 . S
C736 C743 1.409 . S
C737 H729 0.930 . S
C737 C735 1.419 . S
C737 C738 1.362 . S
C738 H730 0.930 . S
C738 C737 1.362 . S
C738 C741 1.409 . S
C739 H731 0.930 . S
C739 C740 1.355 . S
C739 C741 1.415 . S
C740 C739 1.355 . S
C740 C742 1.419 . S
C741 C736 1.425 . S
C741 C738 1.409 . S
C741 C739 1.415 . S
C742 H732 0.930 . S
C742 C740 1.419 . S
C742 C743 1.362 . S
C743 H733 0.930 . S
C743 C736 1.409 . S
C743 C742 1.362 . S
H744 C750 0.930 . S
H745 C753 0.930 . S
H746 C754 0.930 . S
H747 C755 0.930 . S
H748 C758 0.930 . S
H749 C759 0.930 . S
C750 H744 0.930 . S
C750 C751 1.355 . S
C750 C752 1.415 . S
C751 C750 1.355 . S
C751 C753 1.419 . S
C752 C750 1.415 . S
C752 C757 1.425 . S
C752 C759 1.409 . S
C753 H745 0.930 . S
C753 C751 1.419 . S
C753 C754 1.362 . S
C754 H746 0.930 . S
C754 C753 1.362 . S
C754 C757 1.409 . S
C755 H747 0.930 . S
C755 C756 1.355 . S
C755 C757 1.415 . S
C756 C755 1.355 . S
C756 C758 1.419 . S
C757 C752 1.425 . S
C757 C754 1.409 . S
C757 C755 1.415 . S
C758 H748 0.930 . S
C758 C756 1.419 . S
C758 C759 1.362 . S
C759 H749 0.930 . S
C759 C752 1.409 . S
C759 C758 1.362 . S
H760 C766 0.930 . S
H761 C769 0.930 . S
H762 C770 0.930 . S
H763 C771 0.930 . S
H764 C774 0.930 . S
H765 C775 0.930 . S
C766 H760 0.930 . S
C766 C767 1.355 . S
C766 C768 1.415 . S
C767 C766 1.355 . S
C767 C769 1.419 . S
C768 C766 1.415 . S
C768 C773 1.425 . S
C768 C775 1.409 . S
C769 H761 0.930 . S
C769 C767 1.419 . S
C769 C770 1.362 . S
C770 H762 0.930 . S
C770 C769 1.362 . S
C770 C773 1.409 . S
C771 H763 0.930 . S
C771 C772 1.355 . S
C771 C773 1.415 . S
C772 C771 1.355 . S
C772 C774 1.419 . S
C773 C768 1.425 . S
C773 C770 1.409 . S
C773 C771 1.415 . S
C774 H764 0.930 . S
C774 C772 1.419 . S
C774 C775 1.362 . S
C775 H765 0.930 . S
C775 C768 1.409 . S
C775 C774 1.362 . S
C399 C45 1.596 . S
C404 C129 1.638 . S
C415 C30 1.599 . S
C420 C165 1.640 . S
C431 C39 1.595 . S
C436 C201 1.576 . S
C452 C237 1.614 . S
C447 C34 1.624 . S
C463 C97 1.651 . S
C468 C273 1.670 . S
C484 C309 1.657 . S
C479 C82 1.633 . S
C500 C345 1.575 . S
C495 C91 1.593 . S
C516 C381 1.575 . S
C511 C86 1.595 . S
C532 C321 1.560 . S
C527 C26 1.524 . S
C548 C357 1.504 . S
C543 C36 1.452 . S
C564 C279 1.580 . S
C559 C32 1.534 . S
C580 C315 1.585 . S
C575 C42 1.537 . S
C591 C18 1.554 . S
C596 C285 1.654 . S
C612 C351 1.645 . S
C607 C50 1.611 . S
C623 C4 1.553 . S
C628 C387 1.598 . S
C639 C48 1.607 . S
C644 C249 1.679 . S
C660 C177 1.562 . S
C655 C78 1.534 . S
C671 C88 1.535 . S
C676 C213 1.565 . S
C692 C135 1.545 . S
C687 C84 1.452 . S
C708 C171 1.571 . S
C703 C94 1.491 . S
C724 C141 1.641 . S
C719 C70 1.525 . S
C740 C207 1.646 . S
C735 C102 1.612 . S
C751 C56 1.576 . S
C756 C243 1.616 . S
C767 C100 1.551 . S
C772 C105 1.653 . S
