# Generated by pormake.
# Topology ssa, (4,4)-cn, num edge types: 1
# Building blocks:
#     Node 0, Type 0, BuildingBlock: ESEHIV_clean_sbu_0, # of connection points: 4
#     Node 1, Type 0, BuildingBlock: ESEHIV_clean_sbu_0, # of connection points: 4
#     Node 2, Type 0, BuildingBlock: ESEHIV_clean_sbu_0, # of connection points: 4
#     Node 3, Type 0, BuildingBlock: ESEHIV_clean_sbu_0, # of connection points: 4
#     Node 4, Type 0, BuildingBlock: ESEHIV_clean_sbu_0, # of connection points: 4
#     Node 5, Type 0, BuildingBlock: ESEHIV_clean_sbu_0, # of connection points: 4
#     Node 6, Type 1, BuildingBlock: GIZVER_clean_linker_0, # of connection points: 4
#     Node 7, Type 1, BuildingBlock: GIZVER_clean_linker_0, # of connection points: 4
#     Node 8, Type 1, BuildingBlock: GIZVER_clean_linker_0, # of connection points: 4
#     Node 9, Type 1, BuildingBlock: GIZVER_clean_linker_0, # of connection points: 4
#     Node 10, Type 1, BuildingBlock: GIZVER_clean_linker_0, # of connection points: 4
#     Node 11, Type 1, BuildingBlock: GIZVER_clean_linker_0, # of connection points: 4
#     Edge 12, Type (0, 1), BuildingBlock: AJUNOK_clean_linker_0, # of connection points: 2
#     Edge 13, Type (0, 1), BuildingBlock: AJUNOK_clean_linker_0, # of connection points: 2
#     Edge 14, Type (0, 1), BuildingBlock: AJUNOK_clean_linker_0, # of connection points: 2
#     Edge 15, Type (0, 1), BuildingBlock: AJUNOK_clean_linker_0, # of connection points: 2
#     Edge 16, Type (0, 1), BuildingBlock: AJUNOK_clean_linker_0, # of connection points: 2
#     Edge 17, Type (0, 1), BuildingBlock: AJUNOK_clean_linker_0, # of connection points: 2
#     Edge 18, Type (0, 1), BuildingBlock: AJUNOK_clean_linker_0, # of connection points: 2
#     Edge 19, Type (0, 1), BuildingBlock: AJUNOK_clean_linker_0, # of connection points: 2
#     Edge 20, Type (0, 1), BuildingBlock: AJUNOK_clean_linker_0, # of connection points: 2
#     Edge 21, Type (0, 1), BuildingBlock: AJUNOK_clean_linker_0, # of connection points: 2
#     Edge 22, Type (0, 1), BuildingBlock: AJUNOK_clean_linker_0, # of connection points: 2
#     Edge 23, Type (0, 1), BuildingBlock: AJUNOK_clean_linker_0, # of connection points: 2
#     Edge 24, Type (0, 1), BuildingBlock: AJUNOK_clean_linker_0, # of connection points: 2
#     Edge 25, Type (0, 1), BuildingBlock: AJUNOK_clean_linker_0, # of connection points: 2
#     Edge 26, Type (0, 1), BuildingBlock: AJUNOK_clean_linker_0, # of connection points: 2
#     Edge 27, Type (0, 1), BuildingBlock: AJUNOK_clean_linker_0, # of connection points: 2
#     Edge 28, Type (0, 1), BuildingBlock: AJUNOK_clean_linker_0, # of connection points: 2
#     Edge 29, Type (0, 1), BuildingBlock: AJUNOK_clean_linker_0, # of connection points: 2
#     Edge 30, Type (0, 1), BuildingBlock: AJUNOK_clean_linker_0, # of connection points: 2
#     Edge 31, Type (0, 1), BuildingBlock: AJUNOK_clean_linker_0, # of connection points: 2
#     Edge 32, Type (0, 1), BuildingBlock: AJUNOK_clean_linker_0, # of connection points: 2
#     Edge 33, Type (0, 1), BuildingBlock: AJUNOK_clean_linker_0, # of connection points: 2
#     Edge 34, Type (0, 1), BuildingBlock: AJUNOK_clean_linker_0, # of connection points: 2
#     Edge 35, Type (0, 1), BuildingBlock: AJUNOK_clean_linker_0, # of connection points: 2
# Relax obj value: 0.007
# Max RMSD: 0.108
# Mean RMSD: 0.064
data_MOF--net-ssa--node1-ESEHIV_clean_sbu_0--node2-GIZVER_clean_linker_0--edge1-AJUNOK_clean_linker_0
_symmetry_space_group_name_H-M    P1
_symmetry_Int_Tables_number       1
_symmetry_cell_setting            triclinic
loop_
_symmetry_equiv_pos_as_xyz
'x, y, z'
_cell_length_a     39.199877
_cell_length_b     42.519018
_cell_length_c     23.585849
_cell_angle_alpha  87.374989
_cell_angle_beta   91.240286
_cell_angle_gamma 123.2961
loop_
_atom_site_label
_atom_site_type_symbol
_atom_site_fract_x
_atom_site_fract_y
_atom_site_fract_z
_atom_type_partial_charge
Cu0 Cu 1.03826 0.55121 0.97656 0.0
N1 N 0.99454 0.50472 0.00432 0.0
N2 N 0.94377 0.44492 -0.00872 0.0
C3 C 0.982 0.4732 0.97662 0.0
C4 C 0.93163 0.45923 0.03011 0.0
C5 C 0.96322 0.49616 0.03843 0.0
O6 O 1.01727 0.56078 0.90694 0.0
C7 C 0.12046 0.57092 0.96318 0.0
O8 O 0.13009 0.60576 0.95743 0.0
H9 H 0.99878 0.47253 0.94131 0.0
H10 H 0.9618 0.51627 0.06302 0.0
N11 N 0.05646 0.59105 0.02542 0.0
N12 N 0.0991 0.63558 0.08511 0.0
C13 C 0.08325 0.60008 0.06828 0.0
C14 C 0.05498 0.62171 0.01534 0.0
C15 C 0.08078 0.64893 0.05235 0.0
C16 C 0.98612 0.56274 0.91161 0.0
O17 O 0.9713 0.56039 0.96211 0.0
H18 H 0.09228 0.58151 0.08459 0.0
H19 H 1.03895 0.62537 0.98053 0.0
O20 O 0.08289 0.54426 0.96614 0.0
H21 H 0.90117 0.44502 0.04781 0.0
H22 H 0.08769 0.67732 0.0524 0.0
Cu23 Cu 0.49552 1.01356 0.53389 0.0
N24 N 0.50337 0.99863 0.46537 0.0
N25 N 0.51005 0.95936 0.41409 0.0
C26 C 0.5154 0.97454 0.46503 0.0
C27 C 0.49357 0.97445 0.38093 0.0
C28 C 0.48921 0.99856 0.41288 0.0
O29 O 0.45063 0.9668 0.56764 0.0
C30 C 0.57798 0.06377 0.55521 0.0
O31 O 0.57786 0.0731 0.50137 0.0
H32 H 0.5244 0.96587 0.50317 0.0
H33 H 0.47439 1.01291 0.3999 0.0
N34 N 0.48453 0.05119 0.53052 0.0
N35 N 0.48493 0.09967 0.56441 0.0
C36 C 0.49769 0.07616 0.57167 0.0
C37 C 0.46221 0.05893 0.49557 0.0
C38 C 0.46207 0.08877 0.51686 0.0
C39 C 0.41503 0.95507 0.54893 0.0
O40 O 0.4033 0.97868 0.54795 0.0
H41 H 0.51465 0.07578 0.60813 0.0
H42 H 0.44603 0.04325 0.45867 0.0
O43 O 0.54553 0.03543 0.57721 0.0
H44 H 0.48413 0.96767 0.33729 0.0
H45 H 0.44581 0.10092 0.49951 0.0
Cu46 Cu 0.58977 0.5598 0.98009 0.0
N47 N 0.58013 0.51354 0.0067 0.0
N48 N 0.56923 0.45641 0.00098 0.0
C49 C 0.58148 0.48944 0.97342 0.0
C50 C 0.55907 0.45953 0.05376 0.0
C51 C 0.56622 0.4951 0.05737 0.0
O52 O 0.62589 0.57601 0.91452 0.0
C53 C 0.50377 0.52297 0.96153 0.0
O54 O 0.50301 0.49178 0.95975 0.0
H55 H 0.58861 0.49513 0.92856 0.0
H56 H 0.55989 0.50605 0.09334 0.0
N57 N 0.61217 0.59512 0.03652 0.0
N58 N 0.61681 0.63639 0.09691 0.0
C59 C 0.59689 0.61513 0.05209 0.0
C60 C 0.64309 0.60413 0.07242 0.0
C61 C 0.64618 0.62978 0.10957 0.0
C62 C 0.65755 0.5746 0.91787 0.0
O63 O 0.66683 0.56541 0.96705 0.0
H64 H 0.57145 0.61391 0.03091 0.0
H65 H 0.66135 0.59218 0.07252 0.0
O66 O 0.53811 0.55431 0.96227 0.0
H67 H 0.54603 0.43729 0.08652 0.0
H68 H 0.66746 0.64167 0.14439 0.0
Cu69 Cu 0.07207 0.50975 0.49269 0.0
N70 N 0.07815 0.48589 0.43233 0.0
N71 N 0.11059 0.4758 0.36568 0.0
C72 C 0.11207 0.48688 0.41904 0.0
C73 C 0.0734 0.46572 0.34605 0.0
C74 C 0.05363 0.47214 0.38699 0.0
O75 O 0.12444 0.54179 0.53172 0.0
C76 C 1.00569 0.43799 0.54006 0.0
O77 O 1.00392 0.4237 0.49109 0.0
H78 H 0.1387 0.49892 0.446 0.0
H79 H 1.02495 0.47004 0.38223 0.0
N80 N 0.04861 0.53674 0.47034 0.0
N81 N 0.99985 0.54923 0.4723 0.0
C82 C 1.00816 0.52221 0.47164 0.0
C83 C 0.06652 0.57425 0.46962 0.0
C84 C 1.03686 0.58199 0.47037 0.0
C85 C 0.15871 0.57379 0.53024 0.0
O86 O 0.18346 0.58066 0.57321 0.0
H87 H 0.98562 0.4924 0.47829 0.0
H88 H 0.0985 0.59456 0.47613 0.0
O89 O 1.03351 0.47227 0.54864 0.0
H90 H 0.06288 0.45792 0.30303 0.0
H91 H 1.04267 0.60951 0.4772 0.0
Cu92 Cu 0.58046 0.04731 0.05937 0.0
N93 N 0.57633 0.08857 0.06813 0.0
N94 N 0.56154 0.13016 0.03608 0.0
C95 C 0.5527 0.0948 0.03352 0.0
C96 C 0.59229 0.14704 0.07387 0.0
C97 C 0.60134 0.12126 0.09368 0.0
O98 O 0.60158 0.05684 0.98244 0.0
C99 C 0.50347 0.99907 0.11041 0.0
O100 O 0.51329 0.03055 0.13331 0.0
H101 H 0.53228 0.07485 0.00275 0.0
H102 H 0.6264 0.12691 0.1211 0.0
N103 N 0.61712 0.0446 0.10766 0.0
N104 N 0.64586 1.01472 0.14282 0.0
C105 C 0.61189 1.01121 0.12107 0.0
C106 C 0.6558 0.07067 0.12231 0.0
C107 C 0.6736 0.05222 0.14446 0.0
C108 C 0.63672 0.06386 0.9704 0.0
O109 O 0.65331 0.05034 0.00381 0.0
H110 H 0.58399 0.98464 0.11224 0.0
H111 H 0.671 0.10061 0.1132 0.0
O112 O 0.52743 1.00002 0.07357 0.0
H113 H 0.60859 0.17644 0.08393 0.0
H114 H 0.7051 0.06544 0.15732 0.0
Cu115 Cu 0.52025 0.51795 0.48352 0.0
N116 N 0.53284 0.56299 0.51416 0.0
N117 N 0.54957 0.6224 0.51091 0.0
C118 C 0.55134 0.596 0.48433 0.0
C119 C 0.5285 0.60538 0.55924 0.0
C120 C 0.5186 0.56866 0.56153 0.0
O121 O 0.49258 0.51332 0.41133 0.0
C122 C 0.6057 0.54594 0.46365 0.0
O123 O 0.60997 0.57622 0.43901 0.0
H124 H 0.56216 0.59955 0.44121 0.0
H125 H 0.4997 0.54696 0.59323 0.0
N126 N 0.48674 0.47662 0.53235 0.0
N127 N 0.46902 0.4268 0.59054 0.0
C128 C 0.49644 0.45233 0.55225 0.0
C129 C 0.45166 0.46608 0.55855 0.0
C130 C 0.44072 0.43539 0.59473 0.0
C131 C 0.46706 0.52313 0.40955 0.0
O132 O 0.45891 0.53363 0.45609 0.0
H133 H 0.52382 0.45403 0.53997 0.0
H134 H 0.43612 0.4806 0.55355 0.0
O135 O 0.57027 0.51861 0.47886 0.0
H136 H 0.519 0.61788 0.58886 0.0
H137 H 0.41526 0.422 0.62413 0.0
H138 H 0.28738 0.57202 0.04875 0.0
H139 H 0.28454 0.53643 0.22374 0.0
H140 H 0.17434 0.51225 0.14193 0.0
H141 H 0.34987 0.59752 0.09804 0.0
H142 H 0.34744 0.59713 0.17309 0.0
H143 H 0.36091 0.55295 0.05095 0.0
H144 H 0.42036 0.51096 0.15373 0.0
H145 H 0.35898 0.55568 0.23324 0.0
C146 C 0.27029 0.55708 0.08702 0.0
C147 C 0.22802 0.54157 0.08885 0.0
C148 C 0.29102 0.55514 0.13546 0.0
C149 C 0.26873 0.53673 0.18568 0.0
C150 C 0.22638 0.52048 0.18764 0.0
C151 C 0.20653 0.52282 0.1391 0.0
C152 C 0.33727 0.5784 0.13649 0.0
C153 C 0.35592 0.55521 0.14168 0.0
C154 C 0.36759 0.54571 0.09253 0.0
C155 C 0.39008 0.52897 0.09699 0.0
C156 C 0.40086 0.52172 0.15073 0.0
C157 C 0.39046 0.53169 0.20012 0.0
C158 C 0.36697 0.54756 0.19538 0.0
H159 H 0.72842 0.22246 0.65221 0.0
H160 H 0.76268 0.23053 0.82794 0.0
H161 H 0.70183 0.12394 0.74955 0.0
H162 H 0.76128 0.28193 0.69242 0.0
H163 H 0.74945 0.27741 0.76563 0.0
H164 H 0.83221 0.31002 0.66024 0.0
H165 H 0.92509 0.38149 0.77841 0.0
H166 H 0.80298 0.3015 0.83799 0.0
C167 C 0.73274 0.20996 0.69048 0.0
C168 C 0.71313 0.17061 0.69565 0.0
C169 C 0.7537 0.23256 0.73724 0.0
C170 C 0.75235 0.21458 0.78976 0.0
C171 C 0.7333 0.17526 0.79409 0.0
C172 C 0.71789 0.15442 0.74545 0.0
C173 C 0.76794 0.27378 0.73469 0.0
C174 C 0.81284 0.30088 0.74806 0.0
C175 C 0.84179 0.31804 0.70354 0.0
C176 C 0.88216 0.34776 0.71421 0.0
C177 C 0.89402 0.35846 0.77017 0.0
C178 C 0.86591 0.34191 0.81507 0.0
C179 C 0.82522 0.31321 0.80384 0.0
H180 H 0.5617 0.74993 0.18048 0.0
H181 H 0.54554 0.75681 0.35893 0.0
H182 H 0.59695 0.69616 0.30405 0.0
H183 H 0.52536 0.77679 0.2073 0.0
H184 H 0.50076 0.76029 0.27469 0.0
H185 H 0.59906 0.83863 0.2048 0.0
H186 H 0.6036 0.92212 0.30633 0.0
H187 H 0.50949 0.80622 0.33658 0.0
C188 C 0.56598 0.74454 0.22456 0.0
C189 C 0.58229 0.72285 0.23776 0.0
C190 C 0.55348 0.75776 0.26821 0.0
C191 C 0.557 0.74845 0.32528 0.0
C192 C 0.57352 0.72687 0.33865 0.0
C193 C 0.58637 0.71463 0.29449 0.0
C194 C 0.53121 0.77698 0.25369 0.0
C195 C 0.55396 0.81728 0.27208 0.0
C196 C 0.58843 0.84583 0.24098 0.0
C197 C 0.60695 0.8839 0.25371 0.0
C198 C 0.59139 0.8928 0.29862 0.0
C199 C 0.55627 0.86534 0.328 0.0
C200 C 0.53757 0.82743 0.31507 0.0
H201 H 0.78664 0.58117 0.56657 0.0
H202 H 0.79921 0.59952 0.74626 0.0
H203 H 0.68192 0.55091 0.6667 0.0
H204 H 0.8534 0.62628 0.6089 0.0
H205 H 0.85857 0.63291 0.68312 0.0
H206 H 0.85737 0.57654 0.56758 0.0
H207 H 0.92117 0.53869 0.67014 0.0
H208 H 0.86817 0.59131 0.7481 0.0
C209 C 0.77305 0.57801 0.60771 0.0
C210 C 0.73122 0.5636 0.6115 0.0
C211 C 0.79772 0.59011 0.6566 0.0
C212 C 0.78005 0.58837 0.70912 0.0
C213 C 0.73841 0.5751 0.71277 0.0
C214 C 0.71412 0.56143 0.6642 0.0
C215 C 0.84363 0.61091 0.65094 0.0
C216 C 0.85956 0.58554 0.65736 0.0
C217 C 0.86694 0.57188 0.60881 0.0
C218 C 0.88921 0.55481 0.613 0.0
C219 C 0.90194 0.54972 0.66674 0.0
C220 C 0.89407 0.56213 0.71567 0.0
C221 C 0.87276 0.58006 0.71082 0.0
H222 H 0.3715 0.82299 0.20972 0.0
H223 H 0.33947 0.8034 0.38767 0.0
H224 H 0.40488 0.91591 0.31435 0.0
H225 H 0.34293 0.76118 0.25112 0.0
H226 H 0.34857 0.758 0.32588 0.0
H227 H 0.27702 0.75243 0.21191 0.0
H228 H 0.17023 0.67576 0.31109 0.0
H229 H 0.28936 0.71983 0.38266 0.0
C230 C 0.37084 0.8335 0.25041 0.0
C231 C 0.38968 0.87247 0.25593 0.0
C232 C 0.35178 0.80816 0.29755 0.0
C233 C 0.35271 0.82241 0.35076 0.0
C234 C 0.37141 0.86124 0.35651 0.0
C235 C 0.38932 0.88584 0.30906 0.0
C236 C 0.33441 0.76659 0.29253 0.0
C237 C 0.28832 0.74225 0.29891 0.0
C238 C 0.26329 0.73812 0.25225 0.0
C239 C 0.22069 0.71343 0.25657 0.0
C240 C 0.20318 0.69422 0.30813 0.0
C241 C 0.22747 0.69401 0.35244 0.0
C242 C 0.27013 0.71948 0.34866 0.0
H243 H 0.4975 0.28661 0.89527 0.0
H244 H 0.45375 0.27756 0.72345 0.0
H245 H 0.52616 0.3858 0.7973 0.0
H246 H 0.43496 0.2267 0.85945 0.0
H247 H 0.42435 0.2221 0.78548 0.0
H248 H 0.48734 0.21843 0.90107 0.0
H249 H 0.52553 0.16148 0.8005 0.0
H250 H 0.46614 0.21217 0.7207 0.0
C251 C 0.49656 0.29975 0.8553 0.0
C252 C 0.51598 0.339 0.8505 0.0
C253 C 0.47453 0.27733 0.8092 0.0
C254 C 0.47161 0.29468 0.75849 0.0
C255 C 0.49035 0.33395 0.75388 0.0
C256 C 0.51295 0.35568 0.79973 0.0
C257 C 0.44967 0.23489 0.81679 0.0
C258 C 0.47504 0.21827 0.81116 0.0
C259 C 0.49117 0.21055 0.85976 0.0
C260 C 0.50991 0.19055 0.8557 0.0
C261 C 0.51302 0.17868 0.80269 0.0
C262 C 0.49765 0.18653 0.75342 0.0
C263 C 0.47902 0.20673 0.75805 0.0
C264 C 0.13965 0.52608 -0.00189 0.0
C265 C 0.15197 0.563 0.9806 0.0
C266 C 0.16605 0.51887 0.02819 0.0
C267 C 0.20591 0.54822 0.04229 0.0
H268 H 0.10849 0.5027 -0.00803 0.0
H269 H 0.15419 0.49032 0.04394 0.0
S270 S 0.25627 0.64869 -0.00497 0.0
N271 N 0.20926 0.62832 0.9706 0.0
N272 N 0.25854 0.61484 0.02822 0.0
C273 C 0.22014 0.58461 0.01953 0.0
C274 C 0.19322 0.59199 -0.01144 0.0
C275 C 0.65182 0.11527 0.56772 0.0
C276 C 0.61262 0.09016 0.59147 0.0
C277 C 0.68446 0.1422 0.60074 0.0
C278 C 0.67868 0.14513 0.65829 0.0
H279 H 0.65738 0.11391 0.52339 0.0
H280 H 0.71437 0.1603 0.58151 0.0
S281 S 0.58127 0.08946 0.7392 0.0
N282 N 0.5698 0.07188 0.67551 0.0
N283 N 0.63023 0.12318 0.73636 0.0
C284 C 0.63932 0.12121 0.68181 0.0
C285 C 0.60656 0.09347 0.64882 0.0
C286 C 0.63934 0.69312 0.151 0.0
C287 C 0.60761 0.65977 0.12702 0.0
C288 C 0.63107 0.71489 0.18396 0.0
C289 C 0.59079 0.70433 0.19365 0.0
H290 H 0.67079 0.70208 0.14506 0.0
H291 H 0.65625 0.73949 0.20359 0.0
S292 S 0.49659 0.61887 0.14341 0.0
N293 N 0.53403 0.61679 0.11723 0.0
N294 N 0.51886 0.65819 0.17832 0.0
C295 C 0.55881 0.67155 0.16926 0.0
C296 C 0.56711 0.64918 0.13606 0.0
C297 C 0.93634 0.51443 0.52979 0.0
C298 C 0.96274 0.54486 0.49244 0.0
C299 C 0.90819 0.51561 0.5637 0.0
C300 C 0.90577 0.54751 0.56246 0.0
H301 H 0.93965 0.49096 0.53695 0.0
H302 H 0.89096 0.49291 0.59504 0.0
S303 S 0.95906 0.62917 0.45971 0.0
N304 N 0.9768 0.603 0.44561 0.0
N305 N 0.92615 0.60663 0.51231 0.0
C306 C 0.92785 0.57565 0.51989 0.0
C307 C 0.95586 0.574 0.4843 0.0
C308 C 0.47269 0.93194 0.1455 0.0
C309 C 0.46911 0.96296 0.13571 0.0
C310 C 0.44501 0.90114 0.18141 0.0
C311 C 0.41274 0.90027 0.20833 0.0
H312 H 0.49861 0.93265 0.1287 0.0
H313 H 0.45051 0.87914 0.19109 0.0
S314 S 0.38603 0.97128 0.18852 0.0
N315 N 0.42791 0.98858 0.15028 0.0
N316 N 0.3758 0.93067 0.21659 0.0
C317 C 0.40703 0.92964 0.19501 0.0
C318 C 0.43523 0.96096 0.15902 0.0
C319 C 0.51254 0.40982 0.64231 0.0
C320 C 0.47341 0.40051 0.62583 0.0
C321 C 0.51776 0.38664 0.6806 0.0
C322 C 0.48405 0.35314 0.7043 0.0
H323 H 0.53946 0.43619 0.6277 0.0
H324 H 0.54844 0.39587 0.69373 0.0
S325 S 0.37521 0.31396 0.67115 0.0
N326 N 0.40044 0.35367 0.63239 0.0
N327 N 0.41017 0.31058 0.70593 0.0
C328 C 0.4448 0.34246 0.68616 0.0
C329 C 0.43946 0.36608 0.64682 0.0
C330 C 0.49347 0.9042 0.35942 0.0
C331 C 0.51764 0.93097 0.39999 0.0
C332 C 0.50283 0.87872 0.3414 0.0
C333 C 0.53677 0.87919 0.36327 0.0
H334 H 0.46808 0.90384 0.3399 0.0
H335 H 0.48551 0.86079 0.30677 0.0
S336 S 0.60846 0.94178 0.47236 0.0
N337 N 0.57607 0.9549 0.46313 0.0
N338 N 0.59282 0.90653 0.42998 0.0
C339 C 0.55936 0.90389 0.40657 0.0
C340 C 0.55017 0.93002 0.4246 0.0
C341 C 0.70523 0.56326 0.86708 0.0
C342 C 0.68051 0.57797 0.86608 0.0
C343 C 0.72477 0.56326 0.81783 0.0
C344 C 0.72037 0.57797 0.76568 0.0
H345 H 0.70863 0.55059 0.90585 0.0
H346 H 0.74242 0.55063 0.82024 0.0
S347 S 0.66312 0.62379 0.74132 0.0
N348 N 0.65533 0.61013 0.80908 0.0
N349 N 0.69256 0.61078 0.717 0.0
C350 C 0.69716 0.59417 0.76457 0.0
C351 C 0.6771 0.59397 0.81456 0.0
C352 C 0.20306 0.64148 0.49681 0.0
C353 C 0.17273 0.60386 0.4842 0.0
C354 C 0.22036 0.67058 0.4546 0.0
C355 C 0.20837 0.66332 0.39764 0.0
H356 H 0.21382 0.64866 0.53992 0.0
H357 H 0.24328 0.69892 0.46673 0.0
S358 S 0.13058 0.5701 0.34119 0.0
N359 N 0.13111 0.56203 0.41015 0.0
N360 N 0.16534 0.61528 0.33036 0.0
C361 C 0.17839 0.62587 0.38425 0.0
C362 C 0.16023 0.59658 0.4275 0.0
C363 C 0.57446 0.18347 0.97175 0.0
C364 C 0.54707 0.14754 -0.00287 0.0
C365 C 0.56202 0.19809 0.92715 0.0
C366 C 0.52164 0.17755 0.90731 0.0
H367 H 0.60621 0.19945 0.98428 0.0
H368 H 0.58437 0.225 0.90684 0.0
S369 S 0.43717 0.08437 0.9632 0.0
N370 N 0.47701 0.09339 0.00185 0.0
N371 N 0.45379 0.12098 0.91843 0.0
C372 C 0.49358 0.14262 0.9341 0.0
C373 C 0.50623 0.12761 0.97899 0.0
C374 C 0.42831 0.4951 0.32006 0.0
C375 C 0.44867 0.52575 0.35568 0.0
C376 C 0.40837 0.49675 0.27083 0.0
C377 C 0.4085 0.52927 0.25518 0.0
H378 H 0.42712 0.46947 0.33088 0.0
H379 H 0.39277 0.4724 0.24468 0.0
S380 S 0.46209 0.61868 0.33118 0.0
N381 N 0.47004 0.59021 0.37066 0.0
N382 N 0.43405 0.59391 0.27729 0.0
C383 C 0.42976 0.56041 0.28998 0.0
C384 C 0.4495 0.5585 0.34037 0.0
C385 C 0.88108 0.40315 0.93685 0.0
C386 C 0.91881 0.41174 0.95896 0.0
C387 C 0.86156 0.37725 0.89365 0.0
C388 C 0.87914 0.35912 0.87136 0.0
H389 H 0.86832 0.41878 0.94963 0.0
H390 H 0.83443 0.37383 0.8744 0.0
S391 S 0.97356 0.36692 0.92208 0.0
N392 N 0.96993 0.39633 0.96089 0.0
N393 N 0.93337 0.34774 0.87997 0.0
C394 C 0.91481 0.36494 0.89686 0.0
C395 C 0.93462 0.39125 0.94055 0.0
C396 C 0.96379 0.59477 0.84411 0.0
C397 C 0.96296 0.56234 0.86157 0.0
C398 C 0.93979 0.59412 0.79847 0.0
C399 C 0.91376 0.56082 0.76953 0.0
H400 H 0.98345 0.62087 0.86544 0.0
H401 H 0.94263 0.6201 0.78461 0.0
S402 S 0.89656 0.46716 0.80521 0.0
N403 N 0.93172 0.49549 0.85061 0.0
N404 N 0.886 0.49381 0.76554 0.0
C405 C 0.91146 0.52781 0.78864 0.0
C406 C 0.93621 0.52867 0.83455 0.0
C407 C 0.4149 0.90413 0.4982 0.0
C408 C 0.39695 0.92465 0.50698 0.0
C409 C 0.40418 0.88108 0.45152 0.0
C410 C 0.37499 0.87753 0.41216 0.0
H411 H 0.43904 0.90745 0.52575 0.0
H412 H 0.42058 0.86779 0.44432 0.0
S413 S 0.31452 0.92015 0.41914 0.0
N414 N 0.34466 0.93574 0.47504 0.0
N415 N 0.32548 0.89297 0.38722 0.0
C416 C 0.35476 0.89551 0.42235 0.0
C417 C 0.36535 0.91878 0.46992 0.0
C418 C 0.52323 0.3888 0.98241 0.0
C419 C 0.5611 0.42317 0.97434 0.0
C420 C 0.51031 0.35926 0.94547 0.0
C421 C 0.53497 0.36329 0.89962 0.0
H422 H 0.50207 0.38595 0.01417 0.0
H423 H 0.47948 0.33461 0.9497 0.0
S424 S 0.63987 0.4447 0.86761 0.0
N425 N 0.62553 0.45715 0.92306 0.0
N426 N 0.60113 0.40191 0.85337 0.0
C427 C 0.57448 0.39595 0.89494 0.0
C428 C 0.58758 0.42585 0.9324 0.0
C429 C 0.13641 0.4593 0.28559 0.0
C430 C 0.1441 0.48315 0.33029 0.0
C431 C 0.16501 0.47008 0.242 0.0
C432 C 0.20251 0.5052 0.24134 0.0
H433 H 0.107 0.43301 0.28261 0.0
H434 H 0.15665 0.45184 0.20661 0.0
S435 S 0.23952 0.57682 0.35071 0.0
N436 N 0.19394 0.54235 0.3735 0.0
N437 N 0.24718 0.5627 0.29104 0.0
C438 C 0.212 0.52813 0.28783 0.0
C439 C 0.18294 0.51708 0.33249 0.0
C440 C 0.69865 0.09824 0.90745 0.0
C441 C 0.66259 0.09398 0.92721 0.0
C442 C 0.72425 0.12719 0.86786 0.0
C443 C 0.71539 0.15362 0.84804 0.0
H444 H 0.70656 0.0784 0.92135 0.0
H445 H 0.75008 0.12792 0.85063 0.0
S446 S 0.626 0.15622 0.88752 0.0
N447 N 0.62021 0.11971 0.92457 0.0
N448 N 0.66883 0.17429 0.85137 0.0
C449 C 0.68048 0.15066 0.86914 0.0
C450 C 0.65391 0.12079 0.90827 0.0
C451 C 0.5275 0.66209 0.46776 0.0
C452 C 0.55911 0.65727 0.48401 0.0
C453 C 0.53375 0.68881 0.42481 0.0
C454 C 0.57172 0.7112 0.39693 0.0
H455 H 0.49692 0.64258 0.48409 0.0
H456 H 0.50766 0.68905 0.40939 0.0
S457 S 0.66615 0.71477 0.43386 0.0
N458 N 0.63085 0.68085 0.47621 0.0
N459 N 0.64308 0.73166 0.39651 0.0
C460 C 0.60467 0.7098 0.41827 0.0
C461 C 0.59817 0.68251 0.46142 0.0
C462 C 0.45718 0.12807 0.62164 0.0
C463 C 0.49045 0.12666 0.60463 0.0
C464 C 0.46034 0.14914 0.66805 0.0
C465 C 0.49697 0.1697 0.6989 0.0
H466 H 0.4279 0.11103 0.6011 0.0
H467 H 0.43325 0.14763 0.6817 0.0
S468 S 0.59487 0.18035 0.66474 0.0
N469 N 0.5624 0.15115 0.61759 0.0
N470 N 0.56855 0.191 0.70418 0.0
C471 C 0.53119 0.17054 0.67963 0.0
C472 C 0.52789 0.149 0.63268 0.0
C473 C 0.4692 0.55575 -0.01462 0.0
C474 C 0.46696 0.52174 0.97999 0.0
C475 C 0.44072 0.55719 0.01823 0.0
C476 C 0.40912 0.52473 0.04693 0.0
H477 H 0.49493 0.58201 0.9679 0.0
H478 H 0.44576 0.58442 0.0255 0.0
S479 S 0.38426 0.42763 0.03748 0.0
N480 N 0.42598 0.45374 -0.00142 0.0
N481 N 0.37321 0.45699 0.06118 0.0
C482 C 0.40381 0.49005 0.03691 0.0
C483 C 0.4325 0.4884 0.00306 0.0
C484 C 0.9519 0.3755 0.58555 0.0
C485 C 0.97355 0.41517 0.58368 0.0
C486 C 0.92151 0.35356 0.62682 0.0
C487 C 0.91154 0.37054 0.66735 0.0
H488 H 0.95901 0.36131 0.55559 0.0
H489 H 0.90645 0.32324 0.62788 0.0
S490 S 0.95473 0.47282 0.67552 0.0
N491 N 0.98001 0.4701 0.62297 0.0
N492 N 0.92264 0.42904 0.69926 0.0
C493 C 0.93167 0.41003 0.66425 0.0
C494 C 0.96275 0.43229 0.62283 0.0
C495 C 0.62529 0.94899 0.13307 0.0
C496 C 0.64979 0.98371 0.15946 0.0
C497 C 0.61732 0.91539 0.1594 0.0
C498 C 0.63375 0.91548 0.21294 0.0
H499 H 0.60907 0.94725 0.09439 0.0
H500 H 0.5938 0.88907 0.14151 0.0
S501 S 0.71092 0.99967 0.28982 0.0
N502 N 0.69833 1.01679 0.23495 0.0
N503 N 0.68466 0.95362 0.28302 0.0
C504 C 0.66462 0.95052 0.2337 0.0
C505 C 0.67205 0.98475 0.20765 0.0
C506 C 0.67967 0.58225 0.49078 0.0
C507 C 0.64198 0.54734 0.48763 0.0
C508 C 0.71087 0.58652 0.52675 0.0
C509 C 0.70551 0.55604 0.56056 0.0
H510 H 0.68404 0.6072 0.46899 0.0
H511 H 0.73784 0.6145 0.53182 0.0
S512 S 0.6169 0.45727 0.55897 0.0
N513 N 0.60443 0.48037 0.51421 0.0
N514 N 0.66277 0.48896 0.58266 0.0
C515 C 0.66995 0.52035 0.55347 0.0
C516 C 0.63829 0.51584 0.51664 0.0
C517 C 0.13218 0.68444 0.15682 0.0
C518 C 0.13171 0.65691 0.12496 0.0
C519 C 0.16279 0.70489 0.19698 0.0
C520 C 0.19458 0.69918 0.20575 0.0
H521 H 0.10782 0.68921 0.15219 0.0
H522 H 0.1608 0.72426 0.2228 0.0
S523 S 0.20825 0.63117 0.13391 0.0
N524 N 0.16693 0.62603 0.10461 0.0
N525 N 0.22388 0.66421 0.18046 0.0
C526 C 0.19516 0.67258 0.17343 0.0
C527 C 0.16389 0.65148 0.13297 0.0
loop_
_geom_bond_atom_site_label_1
_geom_bond_atom_site_label_2
_geom_bond_distance
_geom_bond_site_symmetry_2
_ccdc_geom_bond_type
Cu0 N1 1.999 1_454 S
Cu0 O6 1.974 1_454 S
Cu0 N11 1.985 . S
Cu0 O20 1.959 . S
N1 Cu0 1.999 1_656 S
N1 C3 1.263 . S
N1 C5 1.389 1_556 S
N2 C3 1.358 . S
N2 C4 1.400 . S
C3 N1 1.263 . S
C3 N2 1.358 . S
C3 H9 0.930 . S
C4 N2 1.400 . S
C4 C5 1.351 1_556 S
C4 H21 0.930 . S
C5 N1 1.389 1_554 S
C5 C4 1.351 1_554 S
C5 H10 0.930 . S
O6 Cu0 1.974 1_656 S
O6 C16 1.282 . S
C7 O8 1.261 1_554 S
C7 O20 1.251 . S
O8 C7 1.261 1_556 S
H9 C3 0.930 . S
H10 C5 0.930 . S
N11 Cu0 1.985 . S
N11 C13 1.335 . S
N11 C14 1.390 . S
N12 C13 1.345 . S
N12 C15 1.336 . S
C13 N11 1.335 . S
C13 N12 1.345 . S
C13 H18 0.930 . S
C14 N11 1.390 . S
C14 C15 1.346 . S
C14 H19 0.930 1_554 S
C15 N12 1.336 . S
C15 C14 1.346 . S
C15 H22 0.929 . S
C16 O6 1.282 . S
C16 O17 1.214 . S
O17 C16 1.214 . S
H18 C13 0.930 . S
H19 C14 0.930 1_556 S
O20 Cu0 1.959 . S
O20 C7 1.251 . S
H21 C4 0.930 . S
H22 C15 0.929 . S
Cu23 N24 1.999 . S
Cu23 O29 1.974 . S
Cu23 N34 1.985 1_565 S
Cu23 O43 1.959 1_565 S
N24 Cu23 1.999 . S
N24 C26 1.263 . S
N24 C28 1.389 . S
N25 C26 1.358 . S
N25 C27 1.400 . S
C26 N24 1.263 . S
C26 N25 1.358 . S
C26 H32 0.930 . S
C27 N25 1.400 . S
C27 C28 1.351 . S
C27 H44 0.930 . S
C28 N24 1.389 . S
C28 C27 1.351 . S
C28 H33 0.930 . S
O29 Cu23 1.974 . S
O29 C39 1.282 . S
C30 O31 1.261 . S
C30 O43 1.251 . S
O31 C30 1.261 . S
H32 C26 0.930 . S
H33 C28 0.930 . S
N34 Cu23 1.985 1_545 S
N34 C36 1.335 . S
N34 C37 1.390 . S
N35 C36 1.345 . S
N35 C38 1.336 . S
C36 N34 1.335 . S
C36 N35 1.345 . S
C36 H41 0.930 . S
C37 N34 1.390 . S
C37 C38 1.346 . S
C37 H42 0.930 . S
C38 N35 1.336 . S
C38 C37 1.346 . S
C38 H45 0.929 . S
C39 O29 1.282 . S
C39 O40 1.216 . S
O40 C39 1.216 . S
H41 C36 0.930 . S
H42 C37 0.930 . S
O43 Cu23 1.959 1_545 S
O43 C30 1.251 . S
H44 C27 0.930 . S
H45 C38 0.929 . S
Cu46 N47 1.999 1_554 S
Cu46 O52 1.974 1_554 S
Cu46 N57 1.985 . S
Cu46 O66 1.959 . S
N47 Cu46 1.999 1_556 S
N47 C49 1.263 . S
N47 C51 1.389 . S
N48 C49 1.358 . S
N48 C50 1.400 . S
C49 N47 1.263 . S
C49 N48 1.358 . S
C49 H55 0.930 . S
C50 N48 1.400 . S
C50 C51 1.351 . S
C50 H67 0.930 . S
C51 N47 1.389 . S
C51 C50 1.351 . S
C51 H56 0.930 . S
O52 Cu46 1.974 1_556 S
O52 C62 1.282 . S
C53 O54 1.261 . S
C53 O66 1.251 . S
O54 C53 1.261 . S
H55 C49 0.930 . S
H56 C51 0.930 . S
N57 Cu46 1.985 . S
N57 C59 1.335 . S
N57 C60 1.390 . S
N58 C59 1.345 . S
N58 C61 1.336 . S
C59 N57 1.335 . S
C59 N58 1.345 . S
C59 H64 0.930 . S
C60 N57 1.390 . S
C60 C61 1.346 . S
C60 H65 0.930 . S
C61 N58 1.336 . S
C61 C60 1.346 . S
C61 H68 0.929 . S
C62 O52 1.282 . S
C62 O63 1.216 1_556 S
O63 C62 1.216 1_554 S
H64 C59 0.930 . S
H65 C60 0.930 . S
O66 Cu46 1.959 . S
O66 C53 1.251 . S
H67 C50 0.930 . S
H68 C61 0.929 . S
Cu69 N70 1.999 1_655 S
Cu69 O75 1.974 1_655 S
Cu69 N80 1.985 . S
Cu69 O89 1.959 . S
N70 Cu69 1.999 1_455 S
N70 C72 1.263 . S
N70 C74 1.389 1_455 S
N71 C72 1.358 . S
N71 C73 1.400 . S
C72 N70 1.263 . S
C72 N71 1.358 . S
C72 H78 0.930 . S
C73 N71 1.400 . S
C73 C74 1.351 1_455 S
C73 H90 0.930 . S
C74 N70 1.389 1_655 S
C74 C73 1.351 1_655 S
C74 H79 0.930 . S
O75 Cu69 1.974 1_455 S
O75 C85 1.282 . S
C76 O77 1.261 . S
C76 O89 1.251 . S
O77 C76 1.261 . S
H78 C72 0.930 . S
H79 C74 0.930 . S
N80 Cu69 1.985 . S
N80 C82 1.335 . S
N80 C83 1.390 . S
N81 C82 1.345 . S
N81 C84 1.336 . S
C82 N80 1.335 . S
C82 N81 1.345 . S
C82 H87 0.930 . S
C83 N80 1.390 . S
C83 C84 1.346 . S
C83 H88 0.930 1_655 S
C84 N81 1.336 . S
C84 C83 1.346 . S
C84 H91 0.929 . S
C85 O75 1.282 . S
C85 O86 1.216 . S
O86 C85 1.216 . S
H87 C82 0.930 . S
H88 C83 0.930 1_455 S
O89 Cu69 1.959 . S
O89 C76 1.251 . S
H90 C73 0.930 . S
H91 C84 0.929 . S
Cu92 N93 1.999 . S
Cu92 O98 1.974 1_554 S
Cu92 N103 1.985 1_545 S
Cu92 O112 1.959 1_545 S
N93 Cu92 1.999 . S
N93 C95 1.263 1_554 S
N93 C97 1.389 . S
N94 C95 1.358 . S
N94 C96 1.400 1_556 S
C95 N93 1.263 1_556 S
C95 N94 1.358 . S
C95 H101 0.930 . S
C96 N94 1.400 1_554 S
C96 C97 1.351 . S
C96 H113 0.930 . S
C97 N93 1.389 . S
C97 C96 1.351 . S
C97 H102 0.930 . S
O98 Cu92 1.974 1_556 S
O98 C108 1.282 . S
C99 O100 1.261 . S
C99 O112 1.251 . S
O100 C99 1.261 . S
H101 C95 0.930 . S
H102 C97 0.930 . S
N103 Cu92 1.985 1_565 S
N103 C105 1.335 . S
N103 C106 1.390 . S
N104 C105 1.345 . S
N104 C107 1.336 . S
C105 N103 1.335 . S
C105 N104 1.345 . S
C105 H110 0.930 . S
C106 N103 1.390 . S
C106 C107 1.346 . S
C106 H111 0.938 1_565 S
C107 N104 1.336 . S
C107 C106 1.346 . S
C107 H114 0.929 . S
C108 O98 1.282 . S
C108 O109 1.216 . S
O109 C108 1.216 . S
H110 C105 0.930 . S
H111 C106 0.938 1_545 S
O112 Cu92 1.959 1_565 S
O112 C99 1.251 . S
H113 C96 0.930 . S
H114 C107 0.929 . S
Cu115 N116 1.999 . S
Cu115 O121 1.974 . S
Cu115 N126 1.985 . S
Cu115 O135 1.959 . S
N116 Cu115 1.999 . S
N116 C118 1.263 . S
N116 C120 1.389 . S
N117 C118 1.358 . S
N117 C119 1.400 . S
C118 N116 1.263 . S
C118 N117 1.358 . S
C118 H124 0.930 . S
C119 N117 1.400 . S
C119 C120 1.351 . S
C119 H136 0.930 . S
C120 N116 1.389 . S
C120 C119 1.351 . S
C120 H125 0.930 . S
O121 Cu115 1.974 . S
O121 C131 1.282 . S
C122 O123 1.261 . S
C122 O135 1.251 . S
O123 C122 1.261 . S
H124 C118 0.930 . S
H125 C120 0.930 . S
N126 Cu115 1.985 . S
N126 C128 1.335 . S
N126 C129 1.390 . S
N127 C128 1.345 . S
N127 C130 1.336 . S
C128 N126 1.335 . S
C128 N127 1.345 . S
C128 H133 0.930 . S
C129 N126 1.390 . S
C129 C130 1.346 . S
C129 H134 0.930 . S
C130 N127 1.336 . S
C130 C129 1.346 . S
C130 H137 0.929 . S
C131 O121 1.282 . S
C131 O132 1.216 . S
O132 C131 1.216 . S
H133 C128 0.930 . S
H134 C129 0.930 . S
O135 Cu115 1.959 . S
O135 C122 1.251 . S
H136 C119 0.930 . S
H137 C130 0.929 . S
H138 C146 0.930 . S
H139 C149 0.930 . S
H140 C151 0.930 . S
H141 C152 0.970 . S
H142 C152 0.970 . S
H143 C154 0.930 . S
H144 C156 0.930 . S
H145 C158 0.930 . S
C146 H138 0.930 . S
C146 C147 1.382 . S
C146 C148 1.426 . S
C147 C146 1.382 . S
C147 C151 1.389 . S
C148 C146 1.426 . S
C148 C149 1.375 . S
C148 C152 1.532 . S
C149 H139 0.930 . S
C149 C148 1.375 . S
C149 C150 1.416 . S
C150 C149 1.416 . S
C150 C151 1.371 . S
C151 H140 0.930 . S
C151 C147 1.389 . S
C151 C150 1.371 . S
C152 H141 0.970 . S
C152 H142 0.970 . S
C152 C148 1.532 . S
C152 C153 1.499 . S
C153 C152 1.499 . S
C153 C154 1.370 . S
C153 C158 1.415 . S
C154 H143 0.930 . S
C154 C153 1.370 . S
C154 C155 1.407 . S
C155 C154 1.407 . S
C155 C156 1.365 . S
C156 H144 0.930 . S
C156 C155 1.365 . S
C156 C157 1.393 . S
C157 C156 1.393 . S
C157 C158 1.387 . S
C158 H145 0.930 . S
C158 C153 1.415 . S
C158 C157 1.387 . S
H159 C167 0.930 . S
H160 C170 0.930 . S
H161 C172 0.930 . S
H162 C173 0.970 . S
H163 C173 0.970 . S
H164 C175 0.930 . S
H165 C177 0.930 . S
H166 C179 0.930 . S
C167 H159 0.930 . S
C167 C168 1.382 . S
C167 C169 1.426 . S
C168 C167 1.382 . S
C168 C172 1.389 . S
C169 C167 1.426 . S
C169 C170 1.375 . S
C169 C173 1.532 . S
C170 H160 0.930 . S
C170 C169 1.375 . S
C170 C171 1.416 . S
C171 C170 1.416 . S
C171 C172 1.371 . S
C172 H161 0.930 . S
C172 C168 1.389 . S
C172 C171 1.371 . S
C173 H162 0.970 . S
C173 H163 0.970 . S
C173 C169 1.532 . S
C173 C174 1.499 . S
C174 C173 1.499 . S
C174 C175 1.370 . S
C174 C179 1.415 . S
C175 H164 0.930 . S
C175 C174 1.370 . S
C175 C176 1.407 . S
C176 C175 1.407 . S
C176 C177 1.365 . S
C177 H165 0.930 . S
C177 C176 1.365 . S
C177 C178 1.393 . S
C178 C177 1.393 . S
C178 C179 1.387 . S
C179 H166 0.930 . S
C179 C174 1.415 . S
C179 C178 1.387 . S
H180 C188 0.930 . S
H181 C191 0.930 . S
H182 C193 0.930 . S
H183 C194 0.970 . S
H184 C194 0.970 . S
H185 C196 0.930 . S
H186 C198 0.930 . S
H187 C200 0.930 . S
C188 H180 0.930 . S
C188 C189 1.382 . S
C188 C190 1.426 . S
C189 C188 1.382 . S
C189 C193 1.389 . S
C190 C188 1.426 . S
C190 C191 1.375 . S
C190 C194 1.532 . S
C191 H181 0.930 . S
C191 C190 1.375 . S
C191 C192 1.416 . S
C192 C191 1.416 . S
C192 C193 1.371 . S
C193 H182 0.930 . S
C193 C189 1.389 . S
C193 C192 1.371 . S
C194 H183 0.970 . S
C194 H184 0.970 . S
C194 C190 1.532 . S
C194 C195 1.499 . S
C195 C194 1.499 . S
C195 C196 1.370 . S
C195 C200 1.415 . S
C196 H185 0.930 . S
C196 C195 1.370 . S
C196 C197 1.407 . S
C197 C196 1.407 . S
C197 C198 1.365 . S
C198 H186 0.930 . S
C198 C197 1.365 . S
C198 C199 1.393 . S
C199 C198 1.393 . S
C199 C200 1.387 . S
C200 H187 0.930 . S
C200 C195 1.415 . S
C200 C199 1.387 . S
H201 C209 0.930 . S
H202 C212 0.930 . S
H203 C214 0.930 . S
H204 C215 0.970 . S
H205 C215 0.970 . S
H206 C217 0.930 . S
H207 C219 0.930 . S
H208 C221 0.930 . S
C209 H201 0.930 . S
C209 C210 1.382 . S
C209 C211 1.426 . S
C210 C209 1.382 . S
C210 C214 1.389 . S
C211 C209 1.426 . S
C211 C212 1.375 . S
C211 C215 1.532 . S
C212 H202 0.930 . S
C212 C211 1.375 . S
C212 C213 1.416 . S
C213 C212 1.416 . S
C213 C214 1.371 . S
C214 H203 0.930 . S
C214 C210 1.389 . S
C214 C213 1.371 . S
C215 H204 0.970 . S
C215 H205 0.970 . S
C215 C211 1.532 . S
C215 C216 1.499 . S
C216 C215 1.499 . S
C216 C217 1.370 . S
C216 C221 1.415 . S
C217 H206 0.930 . S
C217 C216 1.370 . S
C217 C218 1.407 . S
C218 C217 1.407 . S
C218 C219 1.365 . S
C219 H207 0.930 . S
C219 C218 1.365 . S
C219 C220 1.393 . S
C220 C219 1.393 . S
C220 C221 1.387 . S
C221 H208 0.930 . S
C221 C216 1.415 . S
C221 C220 1.387 . S
H222 C230 0.930 . S
H223 C233 0.930 . S
H224 C235 0.930 . S
H225 C236 0.970 . S
H226 C236 0.970 . S
H227 C238 0.930 . S
H228 C240 0.930 . S
H229 C242 0.930 . S
C230 H222 0.930 . S
C230 C231 1.382 . S
C230 C232 1.426 . S
C231 C230 1.382 . S
C231 C235 1.389 . S
C232 C230 1.426 . S
C232 C233 1.375 . S
C232 C236 1.532 . S
C233 H223 0.930 . S
C233 C232 1.375 . S
C233 C234 1.416 . S
C234 C233 1.416 . S
C234 C235 1.371 . S
C235 H224 0.930 . S
C235 C231 1.389 . S
C235 C234 1.371 . S
C236 H225 0.970 . S
C236 H226 0.970 . S
C236 C232 1.532 . S
C236 C237 1.499 . S
C237 C236 1.499 . S
C237 C238 1.370 . S
C237 C242 1.415 . S
C238 H227 0.930 . S
C238 C237 1.370 . S
C238 C239 1.407 . S
C239 C238 1.407 . S
C239 C240 1.365 . S
C240 H228 0.930 . S
C240 C239 1.365 . S
C240 C241 1.393 . S
C241 C240 1.393 . S
C241 C242 1.387 . S
C242 H229 0.930 . S
C242 C237 1.415 . S
C242 C241 1.387 . S
H243 C251 0.930 . S
H244 C254 0.930 . S
H245 C256 0.930 . S
H246 C257 0.970 . S
H247 C257 0.970 . S
H248 C259 0.930 . S
H249 C261 0.930 . S
H250 C263 0.930 . S
C251 H243 0.930 . S
C251 C252 1.382 . S
C251 C253 1.426 . S
C252 C251 1.382 . S
C252 C256 1.389 . S
C253 C251 1.426 . S
C253 C254 1.375 . S
C253 C257 1.532 . S
C254 H244 0.930 . S
C254 C253 1.375 . S
C254 C255 1.416 . S
C255 C254 1.416 . S
C255 C256 1.371 . S
C256 H245 0.930 . S
C256 C252 1.389 . S
C256 C255 1.371 . S
C257 H246 0.970 . S
C257 H247 0.970 . S
C257 C253 1.532 . S
C257 C258 1.499 . S
C258 C257 1.499 . S
C258 C259 1.370 . S
C258 C263 1.415 . S
C259 H248 0.930 . S
C259 C258 1.370 . S
C259 C260 1.407 . S
C260 C259 1.407 . S
C260 C261 1.365 . S
C261 H249 0.930 . S
C261 C260 1.365 . S
C261 C262 1.393 . S
C262 C261 1.393 . S
C262 C263 1.387 . S
C263 H250 0.930 . S
C263 C258 1.415 . S
C263 C262 1.387 . S
C264 C265 1.369 . S
C264 C266 1.419 . S
C264 H268 0.930 . S
C265 C264 1.369 . S
C265 C274 1.429 . S
C266 C264 1.419 . S
C266 C267 1.363 . S
C266 H269 0.929 . S
C267 C266 1.363 . S
C267 C273 1.428 . S
H268 C264 0.930 . S
H269 C266 0.929 . S
S270 N271 1.613 . S
S270 N272 1.610 . S
N271 S270 1.613 . S
N271 C274 1.350 . S
N272 S270 1.610 . S
N272 C273 1.351 . S
C273 C267 1.428 . S
C273 N272 1.351 . S
C273 C274 1.434 . S
C274 C265 1.429 . S
C274 N271 1.350 . S
C274 C273 1.434 . S
C275 C276 1.369 . S
C275 C277 1.419 . S
C275 H279 0.930 . S
C276 C275 1.369 . S
C276 C285 1.429 . S
C277 C275 1.419 . S
C277 C278 1.363 . S
C277 H280 0.929 . S
C278 C277 1.363 . S
C278 C284 1.428 . S
H279 C275 0.930 . S
H280 C277 0.929 . S
S281 N282 1.613 . S
S281 N283 1.610 . S
N282 S281 1.613 . S
N282 C285 1.350 . S
N283 S281 1.610 . S
N283 C284 1.351 . S
C284 C278 1.428 . S
C284 N283 1.351 . S
C284 C285 1.434 . S
C285 C276 1.429 . S
C285 N282 1.350 . S
C285 C284 1.434 . S
C286 C287 1.369 . S
C286 C288 1.419 . S
C286 H290 0.930 . S
C287 C286 1.369 . S
C287 C296 1.429 . S
C288 C286 1.419 . S
C288 C289 1.363 . S
C288 H291 0.929 . S
C289 C288 1.363 . S
C289 C295 1.428 . S
H290 C286 0.930 . S
H291 C288 0.929 . S
S292 N293 1.613 . S
S292 N294 1.610 . S
N293 S292 1.613 . S
N293 C296 1.350 . S
N294 S292 1.610 . S
N294 C295 1.351 . S
C295 C289 1.428 . S
C295 N294 1.351 . S
C295 C296 1.434 . S
C296 C287 1.429 . S
C296 N293 1.350 . S
C296 C295 1.434 . S
C297 C298 1.369 . S
C297 C299 1.419 . S
C297 H301 0.930 . S
C298 C297 1.369 . S
C298 C307 1.429 . S
C299 C297 1.419 . S
C299 C300 1.363 . S
C299 H302 0.929 . S
C300 C299 1.363 . S
C300 C306 1.428 . S
H301 C297 0.930 . S
H302 C299 0.929 . S
S303 N304 1.613 . S
S303 N305 1.610 . S
N304 S303 1.613 . S
N304 C307 1.350 . S
N305 S303 1.610 . S
N305 C306 1.351 . S
C306 C300 1.428 . S
C306 N305 1.351 . S
C306 C307 1.434 . S
C307 C298 1.429 . S
C307 N304 1.350 . S
C307 C306 1.434 . S
C308 C309 1.369 . S
C308 C310 1.419 . S
C308 H312 0.930 . S
C309 C308 1.369 . S
C309 C318 1.429 . S
C310 C308 1.419 . S
C310 C311 1.363 . S
C310 H313 0.929 . S
C311 C310 1.363 . S
C311 C317 1.428 . S
H312 C308 0.930 . S
H313 C310 0.929 . S
S314 N315 1.613 . S
S314 N316 1.610 . S
N315 S314 1.613 . S
N315 C318 1.350 . S
N316 S314 1.610 . S
N316 C317 1.351 . S
C317 C311 1.428 . S
C317 N316 1.351 . S
C317 C318 1.434 . S
C318 C309 1.429 . S
C318 N315 1.350 . S
C318 C317 1.434 . S
C319 C320 1.369 . S
C319 C321 1.419 . S
C319 H323 0.930 . S
C320 C319 1.369 . S
C320 C329 1.429 . S
C321 C319 1.419 . S
C321 C322 1.363 . S
C321 H324 0.929 . S
C322 C321 1.363 . S
C322 C328 1.428 . S
H323 C319 0.930 . S
H324 C321 0.929 . S
S325 N326 1.613 . S
S325 N327 1.610 . S
N326 S325 1.613 . S
N326 C329 1.350 . S
N327 S325 1.610 . S
N327 C328 1.351 . S
C328 C322 1.428 . S
C328 N327 1.351 . S
C328 C329 1.434 . S
C329 C320 1.429 . S
C329 N326 1.350 . S
C329 C328 1.434 . S
C330 C331 1.369 . S
C330 C332 1.419 . S
C330 H334 0.930 . S
C331 C330 1.369 . S
C331 C340 1.429 . S
C332 C330 1.419 . S
C332 C333 1.363 . S
C332 H335 0.929 . S
C333 C332 1.363 . S
C333 C339 1.428 . S
H334 C330 0.930 . S
H335 C332 0.929 . S
S336 N337 1.613 . S
S336 N338 1.610 . S
N337 S336 1.613 . S
N337 C340 1.350 . S
N338 S336 1.610 . S
N338 C339 1.351 . S
C339 C333 1.428 . S
C339 N338 1.351 . S
C339 C340 1.434 . S
C340 C331 1.429 . S
C340 N337 1.350 . S
C340 C339 1.434 . S
C341 C342 1.369 . S
C341 C343 1.419 . S
C341 H345 0.930 . S
C342 C341 1.369 . S
C342 C351 1.429 . S
C343 C341 1.419 . S
C343 C344 1.363 . S
C343 H346 0.929 . S
C344 C343 1.363 . S
C344 C350 1.428 . S
H345 C341 0.930 . S
H346 C343 0.929 . S
S347 N348 1.613 . S
S347 N349 1.610 . S
N348 S347 1.613 . S
N348 C351 1.350 . S
N349 S347 1.610 . S
N349 C350 1.351 . S
C350 C344 1.428 . S
C350 N349 1.351 . S
C350 C351 1.434 . S
C351 C342 1.429 . S
C351 N348 1.350 . S
C351 C350 1.434 . S
C352 C353 1.369 . S
C352 C354 1.419 . S
C352 H356 0.930 . S
C353 C352 1.369 . S
C353 C362 1.429 . S
C354 C352 1.419 . S
C354 C355 1.363 . S
C354 H357 0.929 . S
C355 C354 1.363 . S
C355 C361 1.428 . S
H356 C352 0.930 . S
H357 C354 0.929 . S
S358 N359 1.613 . S
S358 N360 1.610 . S
N359 S358 1.613 . S
N359 C362 1.350 . S
N360 S358 1.610 . S
N360 C361 1.351 . S
C361 C355 1.428 . S
C361 N360 1.351 . S
C361 C362 1.434 . S
C362 C353 1.429 . S
C362 N359 1.350 . S
C362 C361 1.434 . S
C363 C364 1.369 . S
C363 C365 1.419 . S
C363 H367 0.930 . S
C364 C363 1.369 . S
C364 C373 1.429 . S
C365 C363 1.419 . S
C365 C366 1.363 . S
C365 H368 0.929 . S
C366 C365 1.363 . S
C366 C372 1.428 . S
H367 C363 0.930 . S
H368 C365 0.929 . S
S369 N370 1.613 . S
S369 N371 1.610 . S
N370 S369 1.613 . S
N370 C373 1.350 . S
N371 S369 1.610 . S
N371 C372 1.351 . S
C372 C366 1.428 . S
C372 N371 1.351 . S
C372 C373 1.434 . S
C373 C364 1.429 . S
C373 N370 1.350 . S
C373 C372 1.434 . S
C374 C375 1.369 . S
C374 C376 1.419 . S
C374 H378 0.930 . S
C375 C374 1.369 . S
C375 C384 1.429 . S
C376 C374 1.419 . S
C376 C377 1.363 . S
C376 H379 0.929 . S
C377 C376 1.363 . S
C377 C383 1.428 . S
H378 C374 0.930 . S
H379 C376 0.929 . S
S380 N381 1.613 . S
S380 N382 1.610 . S
N381 S380 1.613 . S
N381 C384 1.350 . S
N382 S380 1.610 . S
N382 C383 1.351 . S
C383 C377 1.428 . S
C383 N382 1.351 . S
C383 C384 1.434 . S
C384 C375 1.429 . S
C384 N381 1.350 . S
C384 C383 1.434 . S
C385 C386 1.369 . S
C385 C387 1.419 . S
C385 H389 0.930 . S
C386 C385 1.369 . S
C386 C395 1.429 . S
C387 C385 1.419 . S
C387 C388 1.363 . S
C387 H390 0.929 . S
C388 C387 1.363 . S
C388 C394 1.428 . S
H389 C385 0.930 . S
H390 C387 0.929 . S
S391 N392 1.613 . S
S391 N393 1.610 . S
N392 S391 1.613 . S
N392 C395 1.350 . S
N393 S391 1.610 . S
N393 C394 1.351 . S
C394 C388 1.428 . S
C394 N393 1.351 . S
C394 C395 1.434 . S
C395 C386 1.429 . S
C395 N392 1.350 . S
C395 C394 1.434 . S
C396 C397 1.369 . S
C396 C398 1.419 . S
C396 H400 0.930 . S
C397 C396 1.369 . S
C397 C406 1.429 . S
C398 C396 1.419 . S
C398 C399 1.363 . S
C398 H401 0.929 . S
C399 C398 1.363 . S
C399 C405 1.428 . S
H400 C396 0.930 . S
H401 C398 0.929 . S
S402 N403 1.613 . S
S402 N404 1.610 . S
N403 S402 1.613 . S
N403 C406 1.350 . S
N404 S402 1.610 . S
N404 C405 1.351 . S
C405 C399 1.428 . S
C405 N404 1.351 . S
C405 C406 1.434 . S
C406 C397 1.429 . S
C406 N403 1.350 . S
C406 C405 1.434 . S
C407 C408 1.369 . S
C407 C409 1.419 . S
C407 H411 0.930 . S
C408 C407 1.369 . S
C408 C417 1.429 . S
C409 C407 1.419 . S
C409 C410 1.363 . S
C409 H412 0.929 . S
C410 C409 1.363 . S
C410 C416 1.428 . S
H411 C407 0.930 . S
H412 C409 0.929 . S
S413 N414 1.613 . S
S413 N415 1.610 . S
N414 S413 1.613 . S
N414 C417 1.350 . S
N415 S413 1.610 . S
N415 C416 1.351 . S
C416 C410 1.428 . S
C416 N415 1.351 . S
C416 C417 1.434 . S
C417 C408 1.429 . S
C417 N414 1.350 . S
C417 C416 1.434 . S
C418 C419 1.369 . S
C418 C420 1.419 . S
C418 H422 0.930 . S
C419 C418 1.369 . S
C419 C428 1.429 . S
C420 C418 1.419 . S
C420 C421 1.363 . S
C420 H423 0.929 . S
C421 C420 1.363 . S
C421 C427 1.428 . S
H422 C418 0.930 . S
H423 C420 0.929 . S
S424 N425 1.613 . S
S424 N426 1.610 . S
N425 S424 1.613 . S
N425 C428 1.350 . S
N426 S424 1.610 . S
N426 C427 1.351 . S
C427 C421 1.428 . S
C427 N426 1.351 . S
C427 C428 1.434 . S
C428 C419 1.429 . S
C428 N425 1.350 . S
C428 C427 1.434 . S
C429 C430 1.369 . S
C429 C431 1.419 . S
C429 H433 0.930 . S
C430 C429 1.369 . S
C430 C439 1.429 . S
C431 C429 1.419 . S
C431 C432 1.363 . S
C431 H434 0.929 . S
C432 C431 1.363 . S
C432 C438 1.428 . S
H433 C429 0.930 . S
H434 C431 0.929 . S
S435 N436 1.613 . S
S435 N437 1.610 . S
N436 S435 1.613 . S
N436 C439 1.350 . S
N437 S435 1.610 . S
N437 C438 1.351 . S
C438 C432 1.428 . S
C438 N437 1.351 . S
C438 C439 1.434 . S
C439 C430 1.429 . S
C439 N436 1.350 . S
C439 C438 1.434 . S
C440 C441 1.369 . S
C440 C442 1.419 . S
C440 H444 0.930 . S
C441 C440 1.369 . S
C441 C450 1.429 . S
C442 C440 1.419 . S
C442 C443 1.363 . S
C442 H445 0.929 . S
C443 C442 1.363 . S
C443 C449 1.428 . S
H444 C440 0.930 . S
H445 C442 0.929 . S
S446 N447 1.613 . S
S446 N448 1.610 . S
N447 S446 1.613 . S
N447 C450 1.350 . S
N448 S446 1.610 . S
N448 C449 1.351 . S
C449 C443 1.428 . S
C449 N448 1.351 . S
C449 C450 1.434 . S
C450 C441 1.429 . S
C450 N447 1.350 . S
C450 C449 1.434 . S
C451 C452 1.369 . S
C451 C453 1.419 . S
C451 H455 0.930 . S
C452 C451 1.369 . S
C452 C461 1.429 . S
C453 C451 1.419 . S
C453 C454 1.363 . S
C453 H456 0.929 . S
C454 C453 1.363 . S
C454 C460 1.428 . S
H455 C451 0.930 . S
H456 C453 0.929 . S
S457 N458 1.613 . S
S457 N459 1.610 . S
N458 S457 1.613 . S
N458 C461 1.350 . S
N459 S457 1.610 . S
N459 C460 1.351 . S
C460 C454 1.428 . S
C460 N459 1.351 . S
C460 C461 1.434 . S
C461 C452 1.429 . S
C461 N458 1.350 . S
C461 C460 1.434 . S
C462 C463 1.369 . S
C462 C464 1.419 . S
C462 H466 0.930 . S
C463 C462 1.369 . S
C463 C472 1.429 . S
C464 C462 1.419 . S
C464 C465 1.363 . S
C464 H467 0.929 . S
C465 C464 1.363 . S
C465 C471 1.428 . S
H466 C462 0.930 . S
H467 C464 0.929 . S
S468 N469 1.613 . S
S468 N470 1.610 . S
N469 S468 1.613 . S
N469 C472 1.350 . S
N470 S468 1.610 . S
N470 C471 1.351 . S
C471 C465 1.428 . S
C471 N470 1.351 . S
C471 C472 1.434 . S
C472 C463 1.429 . S
C472 N469 1.350 . S
C472 C471 1.434 . S
C473 C474 1.369 . S
C473 C475 1.419 . S
C473 H477 0.930 . S
C474 C473 1.369 . S
C474 C483 1.429 . S
C475 C473 1.419 . S
C475 C476 1.363 . S
C475 H478 0.929 . S
C476 C475 1.363 . S
C476 C482 1.428 . S
H477 C473 0.930 . S
H478 C475 0.929 . S
S479 N480 1.613 . S
S479 N481 1.610 . S
N480 S479 1.613 . S
N480 C483 1.350 . S
N481 S479 1.610 . S
N481 C482 1.351 . S
C482 C476 1.428 . S
C482 N481 1.351 . S
C482 C483 1.434 . S
C483 C474 1.429 . S
C483 N480 1.350 . S
C483 C482 1.434 . S
C484 C485 1.369 . S
C484 C486 1.419 . S
C484 H488 0.930 . S
C485 C484 1.369 . S
C485 C494 1.429 . S
C486 C484 1.419 . S
C486 C487 1.363 . S
C486 H489 0.929 . S
C487 C486 1.363 . S
C487 C493 1.428 . S
H488 C484 0.930 . S
H489 C486 0.929 . S
S490 N491 1.613 . S
S490 N492 1.610 . S
N491 S490 1.613 . S
N491 C494 1.350 . S
N492 S490 1.610 . S
N492 C493 1.351 . S
C493 C487 1.428 . S
C493 N492 1.351 . S
C493 C494 1.434 . S
C494 C485 1.429 . S
C494 N491 1.350 . S
C494 C493 1.434 . S
C495 C496 1.369 . S
C495 C497 1.419 . S
C495 H499 0.930 . S
C496 C495 1.369 . S
C496 C505 1.429 . S
C497 C495 1.419 . S
C497 C498 1.363 . S
C497 H500 0.929 . S
C498 C497 1.363 . S
C498 C504 1.428 . S
H499 C495 0.930 . S
H500 C497 0.929 . S
S501 N502 1.613 . S
S501 N503 1.610 . S
N502 S501 1.613 . S
N502 C505 1.350 . S
N503 S501 1.610 . S
N503 C504 1.351 . S
C504 C498 1.428 . S
C504 N503 1.351 . S
C504 C505 1.434 . S
C505 C496 1.429 . S
C505 N502 1.350 . S
C505 C504 1.434 . S
C506 C507 1.369 . S
C506 C508 1.419 . S
C506 H510 0.930 . S
C507 C506 1.369 . S
C507 C516 1.429 . S
C508 C506 1.419 . S
C508 C509 1.363 . S
C508 H511 0.929 . S
C509 C508 1.363 . S
C509 C515 1.428 . S
H510 C506 0.930 . S
H511 C508 0.929 . S
S512 N513 1.613 . S
S512 N514 1.610 . S
N513 S512 1.613 . S
N513 C516 1.350 . S
N514 S512 1.610 . S
N514 C515 1.351 . S
C515 C509 1.428 . S
C515 N514 1.351 . S
C515 C516 1.434 . S
C516 C507 1.429 . S
C516 N513 1.350 . S
C516 C515 1.434 . S
C517 C518 1.369 . S
C517 C519 1.419 . S
C517 H521 0.930 . S
C518 C517 1.369 . S
C518 C527 1.429 . S
C519 C517 1.419 . S
C519 C520 1.363 . S
C519 H522 0.929 . S
C520 C519 1.363 . S
C520 C526 1.428 . S
H521 C517 0.930 . S
H522 C519 0.929 . S
S523 N524 1.613 . S
S523 N525 1.610 . S
N524 S523 1.613 . S
N524 C527 1.350 . S
N525 S523 1.610 . S
N525 C526 1.351 . S
C526 C520 1.428 . S
C526 N525 1.351 . S
C526 C527 1.434 . S
C527 C518 1.429 . S
C527 N524 1.350 . S
C527 C526 1.434 . S
C265 C7 1.751 . S
C267 C147 1.591 . S
C276 C30 1.540 . S
C278 C168 1.400 . S
C289 C189 1.485 . S
C287 N58 1.590 . S
C300 C218 1.417 . S
C298 N81 1.387 . S
C311 C231 1.544 . S
C309 C99 1.641 . S
C322 C255 1.423 . S
C320 N127 1.417 . S
C331 N25 1.594 . S
C333 C199 1.499 . S
C342 C62 1.544 . S
C344 C213 1.485 . S
C355 C241 1.558 . S
C353 C85 1.698 . S
C366 C260 1.434 . S
C364 N94 1.457 . S
C375 C131 1.682 . S
C377 C157 1.589 . S
C388 C178 1.335 . S
C386 N2 1.387 . S
C399 C220 1.626 . S
C397 C16 1.741 . S
C408 C39 1.546 . S
C410 C234 1.361 . S
C421 C252 1.580 . S
C419 N48 1.633 . S
C430 N71 1.413 . S
C432 C150 1.279 . S
C441 C108 1.670 . S
C443 C171 1.500 . S
C452 N117 1.455 . S
C454 C192 1.292 . S
C463 N35 1.611 . S
C465 C262 1.573 . S
C476 C155 1.394 . S
C474 C53 1.578 . S
C485 C76 1.769 . S
C487 C176 1.551 . S
C496 N104 1.456 . S
C498 C197 1.306 . S
C507 C122 1.662 . S
C509 C210 1.595 . S
C518 N12 1.387 . S
C520 C239 1.284 . S
