# Generated by pormake.
# Topology anh, (6,3)-cn, num edge types: 1
# Building blocks:
#     Node 0, Type 0, BuildingBlock: PAMTOO_clean_sbu_0, # of connection points: 6
#     Node 1, Type 0, BuildingBlock: PAMTOO_clean_sbu_0, # of connection points: 6
#     Node 2, Type 0, BuildingBlock: PAMTOO_clean_sbu_0, # of connection points: 6
#     Node 3, Type 1, BuildingBlock: CUQRIR_clean_linker_1, # of connection points: 3
#     Node 4, Type 1, BuildingBlock: CUQRIR_clean_linker_1, # of connection points: 3
#     Node 5, Type 1, BuildingBlock: CUQRIR_clean_linker_1, # of connection points: 3
#     Node 6, Type 1, BuildingBlock: CUQRIR_clean_linker_1, # of connection points: 3
#     Node 7, Type 1, BuildingBlock: CUQRIR_clean_linker_1, # of connection points: 3
#     Node 8, Type 1, BuildingBlock: CUQRIR_clean_linker_1, # of connection points: 3
#     Edge 9, Type (0, 1), BuildingBlock: KIFKEQ_clean_linker_1, # of connection points: 2
#     Edge 10, Type (0, 1), BuildingBlock: KIFKEQ_clean_linker_1, # of connection points: 2
#     Edge 11, Type (0, 1), BuildingBlock: KIFKEQ_clean_linker_1, # of connection points: 2
#     Edge 12, Type (0, 1), BuildingBlock: KIFKEQ_clean_linker_1, # of connection points: 2
#     Edge 13, Type (0, 1), BuildingBlock: KIFKEQ_clean_linker_1, # of connection points: 2
#     Edge 14, Type (0, 1), BuildingBlock: KIFKEQ_clean_linker_1, # of connection points: 2
#     Edge 15, Type (0, 1), BuildingBlock: KIFKEQ_clean_linker_1, # of connection points: 2
#     Edge 16, Type (0, 1), BuildingBlock: KIFKEQ_clean_linker_1, # of connection points: 2
#     Edge 17, Type (0, 1), BuildingBlock: KIFKEQ_clean_linker_1, # of connection points: 2
#     Edge 18, Type (0, 1), BuildingBlock: KIFKEQ_clean_linker_1, # of connection points: 2
#     Edge 19, Type (0, 1), BuildingBlock: KIFKEQ_clean_linker_1, # of connection points: 2
#     Edge 20, Type (0, 1), BuildingBlock: KIFKEQ_clean_linker_1, # of connection points: 2
#     Edge 21, Type (0, 1), BuildingBlock: KIFKEQ_clean_linker_1, # of connection points: 2
#     Edge 22, Type (0, 1), BuildingBlock: KIFKEQ_clean_linker_1, # of connection points: 2
#     Edge 23, Type (0, 1), BuildingBlock: KIFKEQ_clean_linker_1, # of connection points: 2
#     Edge 24, Type (0, 1), BuildingBlock: KIFKEQ_clean_linker_1, # of connection points: 2
#     Edge 25, Type (0, 1), BuildingBlock: KIFKEQ_clean_linker_1, # of connection points: 2
#     Edge 26, Type (0, 1), BuildingBlock: KIFKEQ_clean_linker_1, # of connection points: 2
# Relax obj value: 0.205
# Max RMSD: 0.219
# Mean RMSD: 0.164
data_MOF--net-anh--node1-PAMTOO_clean_sbu_0--node2-CUQRIR_clean_linker_1--edge1-KIFKEQ_clean_linker_1
_symmetry_space_group_name_H-M    P1
_symmetry_Int_Tables_number       1
_symmetry_cell_setting            triclinic
loop_
_symmetry_equiv_pos_as_xyz
'x, y, z'
_cell_length_a     28.721291
_cell_length_b     27.688787
_cell_length_c     47.431021
_cell_angle_alpha  85.802449
_cell_angle_beta   93.560997
_cell_angle_gamma 101.3124
loop_
_atom_site_label
_atom_site_type_symbol
_atom_site_fract_x
_atom_site_fract_y
_atom_site_fract_z
_atom_type_partial_charge
Dy0 Dy 1.06545 0.57523 0.14644 0.0
Dy1 Dy 1.0416 0.45534 0.15017 0.0
C2 C 1.05267 0.51637 0.09097 0.0
O3 O 0.98506 0.5578 0.15152 0.0
O4 O 0.9684 0.47563 0.1425 0.0
O5 O 0.09326 0.64462 0.12417 0.0
O6 O 1.06527 0.64359 0.16564 0.0
O7 O 1.03017 0.47933 0.19261 0.0
O8 O 0.08737 0.54836 0.18982 0.0
O9 O 0.12296 0.47293 0.15493 0.0
O10 O 0.13804 0.55585 0.14167 0.0
O11 O 1.04791 0.38602 0.17252 0.0
O12 O 1.008 0.38696 0.13218 0.0
C13 C 0.95374 0.51691 0.14661 0.0
O14 O 1.04187 0.55383 0.10271 0.0
O15 O 1.06327 0.47835 0.10626 0.0
C16 C 0.13368 0.70245 0.15499 0.0
C17 C 0.22081 0.76306 0.17057 0.0
C18 C 0.21315 0.71181 0.17707 0.0
C19 C 0.16999 0.68181 0.16933 0.0
C20 C 0.14089 0.75345 0.1485 0.0
C21 C 0.18418 0.78361 0.15623 0.0
C22 C 0.08946 0.67021 0.14564 0.0
C23 C 1.06117 0.51319 0.20502 0.0
C24 C 0.15345 0.51425 0.14837 0.0
C25 C 0.97874 0.32502 0.1665 0.0
C26 C 0.89828 0.25927 0.18681 0.0
C27 C 0.91401 0.30524 0.19856 0.0
C28 C 0.95372 0.33792 0.18838 0.0
C29 C 0.96365 0.27914 0.15493 0.0
C30 C 0.92374 0.24655 0.16494 0.0
C31 C 1.01879 0.36021 0.15451 0.0
H32 H 0.24085 0.69472 0.18767 0.0
H33 H 0.16514 0.64235 0.17424 0.0
H34 H 0.11323 0.76985 0.13728 0.0
H35 H 0.18888 0.82299 0.15117 0.0
H36 H 0.89568 0.31601 0.21564 0.0
H37 H 0.9646 0.37346 0.19743 0.0
H38 H 0.98224 0.26888 0.13778 0.0
H39 H 0.91221 0.21188 0.15506 0.0
Dy40 Dy 0.59618 0.01083 0.52388 0.0
Dy41 Dy 0.71311 0.03541 0.52969 0.0
C42 C 0.64999 1.00762 0.58443 0.0
O43 O 0.61591 0.08951 0.53536 0.0
O44 O 0.6904 0.10763 0.51789 0.0
O45 O 0.52637 1.00538 0.53998 0.0
O46 O 0.53385 0.99021 0.49648 0.0
O47 O 0.69258 0.02084 0.48455 0.0
O48 O 0.62234 0.04745 0.48284 0.0
O49 O 0.69373 0.95408 0.54047 0.0
O50 O 0.61924 0.93938 0.51826 0.0
O51 O 0.78148 0.02706 0.5162 0.0
O52 O 0.77755 0.07509 0.54959 0.0
C53 C 0.653 0.12187 0.52675 0.0
O54 O 0.61353 0.987 0.56854 0.0
O55 O 0.68828 0.03445 0.57345 0.0
C56 C 0.46784 0.9443 0.51895 0.0
C57 C 0.4007 0.85523 0.51739 0.0
C58 C 0.44281 0.85809 0.5346 0.0
C59 C 0.47626 0.90222 0.53524 0.0
C60 C 0.4254 0.94213 0.50253 0.0
C61 C 0.39219 0.89806 0.50167 0.0
C62 C 0.50463 0.98915 0.51656 0.0
C63 C 0.65786 0.03697 0.47003 0.0
C64 C 0.65646 0.9235 0.53032 0.0
C65 C 0.83845 0.10106 0.51815 0.0
C66 C 0.89965 0.18441 0.49458 0.0
C67 C 0.85587 0.16571 0.48065 0.0
C68 C 0.82535 0.12453 0.49245 0.0
C69 C 0.8826 0.11873 0.53167 0.0
C70 C 0.91296 0.16009 0.52001 0.0
C71 C 0.80484 0.06097 0.53219 0.0
H72 H 0.45034 0.82606 0.54721 0.0
H73 H 0.50917 0.90316 0.54786 0.0
H74 H 0.41869 0.97414 0.48953 0.0
H75 H 0.36077 0.89718 0.48772 0.0
H76 H 0.84446 0.184 0.46121 0.0
H77 H 0.79104 0.11178 0.48189 0.0
H78 H 0.89312 0.10125 0.5516 0.0
H79 H 0.94666 0.17342 0.53107 0.0
Dy80 Dy 0.70105 0.60258 0.84518 0.0
Dy81 Dy 0.58609 0.58453 0.84504 0.0
C82 C 0.63926 0.6 0.78759 0.0
O83 O 0.68499 0.67855 0.83725 0.0
O84 O 0.61119 0.66314 0.85549 0.0
O85 O 0.76727 0.6364 0.82665 0.0
O86 O 0.76696 0.58519 0.8636 0.0
O87 O 0.61496 0.55441 0.88605 0.0
O88 O 0.68261 0.61234 0.88919 0.0
O89 O 0.59766 0.51101 0.83388 0.0
O90 O 0.67656 0.52016 0.84863 0.0
O91 O 0.52475 0.57237 0.87029 0.0
O92 O 0.51593 0.57904 0.82452 0.0
C93 C 0.64834 0.6942 0.84599 0.0
O94 O 0.67451 0.58416 0.80163 0.0
O95 O 0.60434 0.61127 0.80067 0.0
C96 C 0.81166 0.57335 0.82596 0.0
C97 C 0.84414 0.50004 0.79868 0.0
C98 C 0.80917 0.52377 0.78527 0.0
C99 C 0.79277 0.55981 0.79889 0.0
C100 C 0.84686 0.54999 0.83923 0.0
C101 C 0.86298 0.51372 0.82574 0.0
C102 C 0.79023 0.6065 0.84181 0.0
C103 C 0.64947 0.57969 0.90137 0.0
C104 C 0.63606 0.4925 0.84027 0.0
C105 C 0.46719 0.61642 0.85069 0.0
C106 C 0.40733 0.68307 0.85817 0.0
C107 C 0.45265 0.68919 0.87184 0.0
C108 C 0.48254 0.65627 0.86798 0.0
C109 C 0.42319 0.6119 0.83583 0.0
C110 C 0.39354 0.64497 0.83945 0.0
C111 C 0.49612 0.57875 0.84854 0.0
H112 H 0.79437 0.51428 0.76438 0.0
H113 H 0.76481 0.57652 0.78836 0.0
H114 H 0.86136 0.55927 0.86022 0.0
H115 H 0.891 0.49705 0.83631 0.0
H116 H 0.4641 0.7181 0.88638 0.0
H117 H 0.5169 0.66096 0.87931 0.0
H118 H 0.41098 0.58168 0.82223 0.0
H119 H 0.35844 0.63854 0.82901 0.0
C120 C 0.56623 1.00251 0.2208 0.0
N121 N 0.59967 0.02279 0.2402 0.0
N122 N 0.53239 0.96835 0.23356 0.0
C123 C 0.56828 0.01316 0.18931 0.0
C124 C 0.54635 0.9685 0.26132 0.0
N125 N 0.58744 1.00119 0.26532 0.0
C126 C 0.51792 0.93956 0.28474 0.0
H127 H 0.55105 0.04513 0.1831 0.0
H128 H 0.54908 0.98107 0.17783 0.0
H129 H 0.60565 0.02249 0.18291 0.0
H130 H 0.47946 0.9314 0.27846 0.0
H131 H 0.52308 0.95999 0.30431 0.0
H132 H 0.53016 0.9041 0.28946 0.0
C133 C 0.64739 0.5209 0.54125 0.0
N134 N 0.64701 0.55561 0.56011 0.0
N135 N 0.64768 0.47607 0.55488 0.0
C136 C 0.65103 0.53118 0.50986 0.0
C137 C 0.64726 0.48457 0.58253 0.0
N138 N 0.64717 0.53267 0.58577 0.0
C139 C 0.64507 0.44518 0.60632 0.0
H140 H 0.6148 0.52977 0.49996 0.0
H141 H 0.66716 0.50312 0.50053 0.0
H142 H 0.67241 0.56848 0.50498 0.0
H143 H 0.6818 0.4425 0.61402 0.0
H144 H 0.62713 0.40872 0.59897 0.0
H145 H 0.62588 0.45425 0.62422 0.0
C146 C 0.12222 0.54275 0.84083 0.0
N147 N 0.12381 0.55643 0.8677 0.0
N148 N 0.09137 0.49942 0.83776 0.0
C149 C 0.1533 0.56997 0.81809 0.0
C150 C 1.0746 0.48725 0.86406 0.0
N151 N 0.0951 0.52148 0.88226 0.0
C152 C 1.03412 0.44546 0.8712 0.0
H153 H 0.13852 0.60237 0.80933 0.0
H154 H 0.15538 0.54586 0.80071 0.0
H155 H 0.18966 0.58381 0.82712 0.0
H156 H 1.04712 0.41016 0.87255 0.0
H157 H 1.00524 0.44354 0.85442 0.0
H158 H 1.01923 0.44967 0.8917 0.0
C159 C 0.14578 0.5219 0.45805 0.0
N160 N 0.12124 0.4966 0.43666 0.0
N161 N 0.17863 0.55998 0.44771 0.0
C162 C 0.14037 0.50717 0.48902 0.0
C163 C 0.17329 0.55688 0.41929 0.0
N164 N 0.13889 0.51793 0.41258 0.0
C165 C 0.19842 0.59463 0.39804 0.0
H166 H 0.11235 0.52448 0.49687 0.0
H167 H 0.17403 0.51979 0.50144 0.0
H168 H 0.12962 0.46654 0.4925 0.0
H169 H 0.23111 0.58285 0.39219 0.0
H170 H 0.20871 0.63136 0.40697 0.0
H171 H 0.17555 0.59802 0.37855 0.0
C172 C 0.63263 0.0916 0.82748 0.0
N173 N 0.63163 0.05413 0.81033 0.0
N174 N 0.62715 0.13363 0.812 0.0
C175 C 0.63608 0.08648 0.85923 0.0
C176 C 0.62323 0.12034 0.7849 0.0
N177 N 0.62529 0.07213 0.78393 0.0
C178 C 0.62175 0.15555 0.75923 0.0
H179 H 0.61853 0.11359 0.86842 0.0
H180 H 0.67415 0.09357 0.86647 0.0
H181 H 0.61972 0.04857 0.86705 0.0
H182 H 0.63899 0.19372 0.76407 0.0
H183 H 0.58413 0.15533 0.75223 0.0
H184 H 0.63987 0.14426 0.74151 0.0
C185 C 0.55528 0.51823 0.14704 0.0
N186 N 0.59145 0.51997 0.12895 0.0
N187 N 0.51238 0.51973 0.13256 0.0
C188 C 0.5613 0.51287 0.17862 0.0
C189 C 0.5242 0.52292 0.10522 0.0
N190 N 0.57108 0.52255 0.103 0.0
C191 C 0.48985 0.52897 0.08045 0.0
H192 H 0.58677 0.48819 0.18497 0.0
H193 H 0.52667 0.49828 0.18822 0.0
H194 H 0.57612 0.54965 0.18667 0.0
H195 H 0.46117 0.54723 0.08652 0.0
H196 H 0.47323 0.49199 0.07328 0.0
H197 H 0.50829 0.5511 0.06253 0.0
H198 H 0.20135 0.43556 0.15753 0.0
H199 H 0.22905 0.59306 0.13966 0.0
H200 H 0.28648 0.43565 0.15744 0.0
H201 H 0.31413 0.59324 0.13908 0.0
H202 H 0.47329 0.58879 0.15648 0.0
H203 H 0.3884 0.58759 0.16197 0.0
H204 H 0.35395 0.44123 0.13136 0.0
H205 H 0.43854 0.4429 0.12645 0.0
C206 C 0.22538 0.47041 0.1535 0.0
C207 C 0.207 0.51424 0.1485 0.0
C208 C 0.27491 0.4705 0.15327 0.0
C209 C 0.3089 0.51446 0.14817 0.0
C210 C 0.29039 0.55837 0.14347 0.0
C211 C 0.24084 0.55824 0.14357 0.0
C212 C 0.44766 0.55578 0.15184 0.0
C213 C 0.46356 0.51533 0.14185 0.0
C214 C 0.39838 0.55527 0.15444 0.0
C215 C 0.36261 0.5143 0.14708 0.0
C216 C 0.37911 0.47344 0.13781 0.0
C217 C 0.42818 0.47414 0.13509 0.0
H218 H 0.92512 0.21068 0.43993 0.0
H219 H 0.9427 0.26275 0.52429 0.0
H220 H 0.9751 0.28784 0.42214 0.0
H221 H 0.99277 0.33908 0.50669 0.0
H222 H 1.04067 0.48894 0.46381 0.0
H223 H 0.98352 0.4132 0.47537 0.0
H224 H 1.06151 0.33128 0.42763 0.0
H225 H 0.11883 0.40757 0.41633 0.0
C226 C 0.93959 0.23863 0.45461 0.0
C227 C 0.93022 0.23064 0.48352 0.0
C228 C 0.96833 0.28257 0.44448 0.0
C229 C 0.98759 0.31957 0.463 0.0
C230 C 0.97795 0.31154 0.49183 0.0
C231 C 0.94973 0.26758 0.50198 0.0
C232 C 1.04507 0.45472 0.45562 0.0
C233 C 1.08413 0.45358 0.43954 0.0
C234 C 1.01261 0.41146 0.46224 0.0
C235 C 1.01848 0.36621 0.45275 0.0
C236 C 1.05603 0.36565 0.43516 0.0
C237 C 0.08871 0.40909 0.42866 0.0
H238 H 0.57378 0.7387 0.85477 0.0
H239 H 0.72069 0.77193 0.83236 0.0
H240 H 0.57019 0.82598 0.84843 0.0
H241 H 0.71689 0.85957 0.82593 0.0
H242 H 0.70204 0.01938 0.84094 0.0
H243 H 0.70739 0.93237 0.85197 0.0
H244 H 0.57128 0.88753 0.80788 0.0
H245 H 0.56626 0.97429 0.79725 0.0
C246 C 0.60551 0.76458 0.84872 0.0
C247 C 0.64755 0.74802 0.84404 0.0
C248 C 0.6033 0.81472 0.84491 0.0
C249 C 0.64316 0.84986 0.83652 0.0
C250 C 0.68563 0.83357 0.8326 0.0
C251 C 0.68773 0.78325 0.83617 0.0
C252 C 0.67319 0.99068 0.83401 0.0
C253 C 0.63366 1.00322 0.8184 0.0
C254 C 0.67636 0.94099 0.84004 0.0
C255 C 0.63974 0.90288 0.83083 0.0
C256 C 0.59987 0.9158 0.81559 0.0
C257 C 0.59702 0.96536 0.80935 0.0
H258 H 0.87743 0.43914 0.13903 0.0
H259 H 0.90637 0.59472 0.15197 0.0
H260 H 0.79232 0.43845 0.13724 0.0
H261 H 0.82093 0.59455 0.1495 0.0
H262 H 0.65932 0.57723 0.16238 0.0
H263 H 0.74492 0.57648 0.1679 0.0
H264 H 0.72515 0.45585 0.11291 0.0
H265 H 0.64013 0.45589 0.10852 0.0
C266 C 0.86591 0.47354 0.14137 0.0
C267 C 0.90012 0.51701 0.14559 0.0
C268 C 0.81629 0.47327 0.14014 0.0
C269 C 0.79789 0.51652 0.143 0.0
C270 C 0.83226 0.55999 0.14747 0.0
C271 C 0.88199 0.56022 0.14872 0.0
C272 C 0.67314 0.5499 0.15195 0.0
C273 C 0.64191 0.51645 0.13509 0.0
C274 C 0.72287 0.54984 0.15473 0.0
C275 C 0.74378 0.51618 0.14085 0.0
C276 C 0.7119 0.48218 0.12447 0.0
C277 C 0.66246 0.48233 0.12171 0.0
H278 H 0.30331 0.83844 0.51143 0.0
H279 H 0.42225 0.76328 0.51551 0.0
H280 H 0.25016 0.76304 0.49847 0.0
H281 H 0.36853 0.68686 0.50464 0.0
H282 H 0.27298 0.5865 0.44225 0.0
H283 H 0.32665 0.65473 0.46386 0.0
H284 H 0.21107 0.68209 0.5109 0.0
H285 H 0.15709 0.61559 0.48758 0.0
C286 C 0.31808 0.80566 0.50997 0.0
C287 C 0.36728 0.80733 0.51406 0.0
C288 C 0.28739 0.76206 0.50295 0.0
C289 C 0.305 0.71876 0.50019 0.0
C290 C 0.3538 0.7197 0.50598 0.0
C291 C 0.38459 0.76348 0.51267 0.0
C292 C 0.25935 0.60724 0.45725 0.0
C293 C 0.21104 0.5964 0.46308 0.0
C294 C 0.2901 0.64592 0.46997 0.0
C295 C 0.27327 0.67425 0.48913 0.0
C296 C 0.22517 0.66169 0.49591 0.0
C297 C 0.19432 0.6233 0.48288 0.0
H298 H 0.70988 0.44383 0.83767 0.0
H299 H 0.55691 0.41889 0.83956 0.0
H300 H 0.70605 0.35583 0.83413 0.0
H301 H 0.553 0.33062 0.83738 0.0
H302 H 0.55849 0.18574 0.79814 0.0
H303 H 0.56024 0.27172 0.80656 0.0
H304 H 0.69226 0.27608 0.85634 0.0
H305 H 0.69129 0.19033 0.84613 0.0
C306 C 0.6754 0.41946 0.83766 0.0
C307 C 0.63367 0.43857 0.8387 0.0
C308 C 0.67319 0.36873 0.83587 0.0
C309 C 0.62919 0.33552 0.83544 0.0
C310 C 0.58754 0.35477 0.83706 0.0
C311 C 0.58973 0.40557 0.83843 0.0
C312 C 0.58763 0.20517 0.81103 0.0
C313 C 0.62491 0.18165 0.82129 0.0
C314 C 0.58857 0.25446 0.81612 0.0
C315 C 0.6266 0.28157 0.83203 0.0
C316 C 0.66283 0.25701 0.84351 0.0
C317 C 0.66204 0.20764 0.8381 0.0
H318 H 0.57942 0.84785 0.52596 0.0
H319 H 0.73178 0.87637 0.54126 0.0
H320 H 0.57761 0.75951 0.53252 0.0
H321 H 0.73049 0.788 0.54649 0.0
H322 H 0.70951 0.62959 0.58366 0.0
H323 H 0.71118 0.71789 0.57641 0.0
H324 H 0.59409 0.68922 0.5142 0.0
H325 H 0.59061 0.60055 0.52336 0.0
C326 C 0.61269 0.83525 0.53035 0.0
C327 C 0.65575 0.86939 0.53314 0.0
C328 C 0.61173 0.78433 0.53397 0.0
C329 C 0.6539 0.76593 0.54011 0.0
C330 C 0.69706 0.8003 0.5424 0.0
C331 C 0.69791 0.85122 0.53919 0.0
C332 C 0.68382 0.64229 0.56871 0.0
C333 C 0.64966 0.60817 0.55427 0.0
C334 C 0.68516 0.69309 0.56416 0.0
C335 C 0.65281 0.7114 0.54462 0.0
C336 C 0.61916 0.67697 0.52976 0.0
C337 C 0.61749 0.62606 0.53465 0.0
H338 H 0.87222 0.50935 0.74401 0.0
H339 H 0.86387 0.41108 0.81918 0.0
H340 H 0.93912 0.47675 0.7296 0.0
H341 H 0.93158 0.38025 0.80562 0.0
H342 H 1.07092 0.40339 0.82435 0.0
H343 H 1.00631 0.37067 0.79076 0.0
H344 H 1.00231 0.51972 0.75773 0.0
H345 H 1.06341 0.55119 0.79177 0.0
C346 C 0.88314 0.4791 0.75681 0.0
C347 C 0.86545 0.46519 0.78377 0.0
C348 C 0.92151 0.46016 0.74848 0.0
C349 C 0.94388 0.43005 0.76796 0.0
C350 C 0.91753 0.40609 0.79082 0.0
C351 C 0.87882 0.4243 0.79898 0.0
C352 C 1.05691 0.42867 0.80917 0.0
C353 C 1.07005 0.47983 0.81167 0.0
C354 C 1.02037 0.41 0.78967 0.0
C355 C 0.99656 0.44259 0.77289 0.0
C356 C 1.01802 0.49302 0.77096 0.0
C357 C 1.05358 0.51158 0.79071 0.0
H358 H 0.27295 0.83935 0.13905 0.0
H359 H 0.27319 0.75806 0.22034 0.0
H360 H 0.35029 0.88929 0.15201 0.0
H361 H 0.35017 0.80779 0.23326 0.0
H362 H 0.50757 0.86961 0.23759 0.0
H363 H 0.43253 0.81972 0.22056 0.0
H364 H 0.38728 0.95211 0.18476 0.0
H365 H 0.46294 1.00152 0.2017 0.0
C366 C 0.2893 0.83246 0.15977 0.0
C367 C 0.26706 0.79461 0.17863 0.0
C368 C 0.33361 0.86098 0.16716 0.0
C369 C 0.35655 0.8522 0.19355 0.0
C370 C 0.33395 0.81477 0.21251 0.0
C371 C 0.28977 0.78633 0.20513 0.0
C372 C 0.48154 0.88766 0.22585 0.0
C373 C 0.49047 0.93908 0.22097 0.0
C374 C 0.43861 0.85935 0.21625 0.0
C375 C 0.4037 0.88203 0.20161 0.0
C376 C 0.41355 0.9335 0.1958 0.0
C377 C 0.45665 0.96178 0.20543 0.0
H378 H 0.72523 0.20019 0.5145 0.0
H379 H 0.57947 0.16567 0.53904 0.0
H380 H 0.72501 0.28805 0.51616 0.0
H381 H 0.57951 0.25343 0.54096 0.0
H382 H 0.72178 0.4302 0.56309 0.0
H383 H 0.72355 0.34533 0.55273 0.0
H384 H 0.58279 0.33198 0.51256 0.0
H385 H 0.58153 0.41729 0.52335 0.0
C386 C 0.69305 0.21124 0.52015 0.0
C387 C 0.65244 0.17561 0.52679 0.0
C388 C 0.69299 0.26172 0.52118 0.0
C389 C 0.65225 0.278 0.5287 0.0
C390 C 0.61133 0.24239 0.53472 0.0
C391 C 0.61146 0.19192 0.53386 0.0
C392 C 0.69187 0.40931 0.5514 0.0
C393 C 0.65172 0.43005 0.54378 0.0
C394 C 0.69275 0.36074 0.54545 0.0
C395 C 0.65318 0.33153 0.53194 0.0
C396 C 0.61366 0.35319 0.52327 0.0
C397 C 0.61304 0.40207 0.52908 0.0
H398 H 0.34301 0.72479 0.82469 0.0
H399 H 0.38803 0.69882 0.91203 0.0
H400 H 0.26315 0.72245 0.83855 0.0
H401 H 0.3083 0.69895 0.92629 0.0
H402 H 0.19132 0.5557 0.90908 0.0
H403 H 0.25789 0.62238 0.91756 0.0
H404 H 0.19106 0.72023 0.86016 0.0
H405 H 0.12458 0.65183 0.85152 0.0
C406 C 0.33636 0.72145 0.84706 0.0
C407 C 0.37073 0.70891 0.86708 0.0
C408 C 0.29039 0.7205 0.85519 0.0
C409 C 0.2786 0.70699 0.88347 0.0
C410 C 0.31587 0.70694 0.90416 0.0
C411 C 0.3618 0.70719 0.89597 0.0
C412 C 0.19012 0.59207 0.89933 0.0
C413 C 0.1542 0.59872 0.87904 0.0
C414 C 0.22812 0.63076 0.90427 0.0
C415 C 0.2308 0.67661 0.88873 0.0
C416 C 0.19081 0.68507 0.87183 0.0
C417 C 0.15293 0.64609 0.86677 0.0
H418 H 0.8829 0.1584 0.1944 0.0
H419 H 0.81522 0.28293 0.2018 0.0
H420 H 0.81054 0.1025 0.20837 0.0
H421 H 0.74384 0.22715 0.21746 0.0
H422 H 0.60645 0.11065 0.2107 0.0
H423 H 0.67935 0.16861 0.19883 0.0
H424 H 0.76207 0.0739 0.2474 0.0
H425 H 0.68899 0.01496 0.25768 0.0
C426 C 0.85267 0.17391 0.19911 0.0
C427 C 0.85491 0.22521 0.19682 0.0
C428 C 0.81133 0.14183 0.20754 0.0
C429 C 0.77127 0.16025 0.21409 0.0
C430 C 0.77377 0.21161 0.21225 0.0
C431 C 0.81501 0.24367 0.20363 0.0
C432 C 0.64038 0.10239 0.21861 0.0
C433 C 0.64242 0.05841 0.23485 0.0
C434 C 0.68209 0.13573 0.21216 0.0
C435 C 0.72672 0.12591 0.22208 0.0
C436 C 0.72844 0.08231 0.23901 0.0
C437 C 0.6867 0.04885 0.24523 0.0
H438 H 1.06958 0.59738 0.05398 0.0
H439 H 1.04117 0.4381 0.05807 0.0
H440 H 1.07952 0.59919 0.00324 0.0
H441 H 1.04824 0.43953 0.00719 0.0
H442 H 0.11617 0.45556 0.92267 0.0
H443 H 0.10496 0.45513 0.97331 0.0
H444 H 1.043 0.58581 0.95841 0.0
H445 H 1.05723 0.58699 0.90794 0.0
C446 C 1.06463 0.56275 0.04388 0.0
C447 C 1.0549 0.51761 0.05994 0.0
C448 C 1.07009 0.56371 0.01475 0.0
C449 C 1.06504 0.51949 0.00096 0.0
C450 C 1.05369 0.47437 0.01706 0.0
C451 C 1.04922 0.47346 0.04623 0.0
C452 C 0.1002 0.48396 0.93052 0.0
C453 C 0.08735 0.52117 0.91187 0.0
C454 C 0.09335 0.48369 0.95939 0.0
C455 C 1.07263 0.52023 0.97011 0.0
C456 C 1.05966 0.55747 0.95112 0.0
C457 C 1.06738 0.55812 0.92227 0.0
H458 H 0.59631 0.0769 0.43348 0.0
H459 H 0.71807 1.00616 0.43574 0.0
H460 H 0.58983 0.07548 0.38213 0.0
H461 H 0.71163 1.00509 0.38419 0.0
H462 H 0.62425 0.94045 0.30309 0.0
H463 H 0.65101 0.95683 0.35207 0.0
H464 H 0.62874 0.10667 0.337 0.0
H465 H 0.60162 0.08945 0.28793 0.0
C466 C 0.62212 0.06167 0.42301 0.0
C467 C 0.65734 0.04108 0.43874 0.0
C468 C 0.61865 0.06127 0.39353 0.0
C469 C 0.65014 0.04002 0.37914 0.0
C470 C 0.68662 0.02132 0.39476 0.0
C471 C 0.69033 0.02204 0.42426 0.0
C472 C 0.62622 0.97706 0.31027 0.0
C473 C 0.61085 0.0137 0.29218 0.0
C474 C 0.64169 0.98662 0.33814 0.0
C475 C 0.64167 0.03298 0.34842 0.0
C476 C 0.6287 0.07049 0.32971 0.0
C477 C 0.61358 0.06092 0.30172 0.0
H478 H 0.5631 0.58125 0.74955 0.0
H479 H 0.7157 0.62684 0.75554 0.0
H480 H 0.56596 0.57472 0.69851 0.0
H481 H 0.71867 0.623 0.70467 0.0
H482 H 0.7137 0.53203 0.62768 0.0
H483 H 0.7111 0.55748 0.67541 0.0
H484 H 0.58119 0.61041 0.65151 0.0
H485 H 0.58334 0.58217 0.6037 0.0
C486 C 0.59706 0.59107 0.73978 0.0
C487 C 0.63926 0.60359 0.75643 0.0
C488 C 0.59878 0.58761 0.71053 0.0
C489 C 0.6427 0.59743 0.69746 0.0
C490 C 0.68438 0.61363 0.71406 0.0
C491 C 0.68272 0.61607 0.74321 0.0
C492 C 0.68492 0.54951 0.63272 0.0
C493 C 0.6485 0.55479 0.6124 0.0
C494 C 0.68353 0.56464 0.65996 0.0
C495 C 0.64586 0.58611 0.66747 0.0
C496 C 0.61038 0.59345 0.64659 0.0
C497 C 0.61174 0.57787 0.61923 0.0
H498 H 0.57396 0.96294 0.61538 0.0
H499 H 0.71889 0.04274 0.62417 0.0
H500 H 0.56632 0.9645 0.66625 0.0
H501 H 0.71088 0.04502 0.67471 0.0
H502 H 0.69455 0.02898 0.76756 0.0
H503 H 0.70009 0.99946 0.72056 0.0
H504 H 0.56096 0.0308 0.69621 0.0
H505 H 0.5556 0.05891 0.74333 0.0
C506 C 0.60437 0.98029 0.62816 0.0
C507 C 0.64685 1.00328 0.61561 0.0
C508 C 0.59991 0.98129 0.6573 0.0
C509 C 0.63787 1.00513 0.67453 0.0
C510 C 0.6811 0.02583 0.66216 0.0
C511 C 0.68553 0.02492 0.63307 0.0
C512 C 0.6648 0.02799 0.75228 0.0
C513 C 0.62484 0.04636 0.75865 0.0
C514 C 0.66803 0.01161 0.72538 0.0
C515 C 0.63121 0.01334 0.70451 0.0
C516 C 0.58981 0.02855 0.71178 0.0
C517 C 0.58673 0.04493 0.73861 0.0
H518 H 0.66762 0.64637 0.94212 0.0
H519 H 0.6343 0.49039 0.93 0.0
H520 H 0.65764 0.62944 0.99285 0.0
H521 H 0.62829 0.47266 0.98076 0.0
H522 H 0.54705 0.46113 0.06118 0.0
H523 H 0.57441 0.47368 0.01342 0.0
H524 H 0.67803 0.6013 0.03813 0.0
H525 H 0.64693 0.59015 0.08563 0.0
C526 C 0.65949 0.60839 0.95055 0.0
C527 C 0.651 0.56968 0.9323 0.0
C528 C 0.65407 0.59848 0.97969 0.0
C529 C 0.64125 0.54952 0.9912 0.0
C530 C 0.6364 0.51087 0.97283 0.0
C531 C 0.64029 0.52089 0.94371 0.0
C532 C 0.5759 0.49157 0.05628 0.0
C533 C 0.59438 0.52514 0.07673 0.0
C534 C 0.59221 0.49864 0.02894 0.0
C535 C 0.62847 0.53892 0.02146 0.0
C536 C 0.64932 0.57057 0.04272 0.0
C537 C 0.63215 0.56392 0.07006 0.0
H538 H 1.00607 0.45406 0.24418 0.0
H539 H 0.13461 0.56446 0.23634 0.0
H540 H 1.02169 0.44704 0.2956 0.0
H541 H 0.15011 0.55704 0.28735 0.0
H542 H 0.19263 0.49582 0.37306 0.0
H543 H 0.17094 0.48951 0.32256 0.0
H544 H 1.02773 0.50357 0.338 0.0
H545 H 1.05012 0.51046 0.38869 0.0
C546 C 1.03755 0.47682 0.2534 0.0
C547 C 1.06914 0.5098 0.23618 0.0
C548 C 1.04637 0.47282 0.28278 0.0
C549 C 0.08733 0.50109 0.29537 0.0
C550 C 0.11862 0.53423 0.27815 0.0
C551 C 0.10952 0.53873 0.24894 0.0
C552 C 0.15636 0.4966 0.3656 0.0
C553 C 0.12308 0.50407 0.38442 0.0
C554 C 0.14399 0.49325 0.33681 0.0
C555 C 0.09789 0.4969 0.32635 0.0
C556 C 1.06351 0.50064 0.34554 0.0
C557 C 1.07613 0.50439 0.37444 0.0
loop_
_geom_bond_atom_site_label_1
_geom_bond_atom_site_label_2
_geom_bond_distance
_geom_bond_site_symmetry_2
_ccdc_geom_bond_type
Dy0 O3 2.307 1_455 S
Dy0 O5 2.395 . S
Dy0 O6 2.379 . S
Dy0 O8 2.339 . S
Dy0 O10 2.298 . S
Dy0 O14 2.275 . S
Dy0 C22 2.738 . S
Dy1 O4 2.298 . S
Dy1 O7 2.275 1_655 S
Dy1 O9 2.307 1_655 S
Dy1 O11 2.395 . S
Dy1 O12 2.379 . S
Dy1 O15 2.339 . S
Dy1 C31 2.738 . S
C2 O14 1.254 . S
C2 O15 1.257 1_455 S
O3 Dy0 2.307 1_655 S
O3 C13 1.266 . S
O4 Dy1 2.298 . S
O4 C13 1.236 . S
O5 Dy0 2.395 . S
O5 C22 1.255 . S
O6 Dy0 2.379 . S
O6 C22 1.249 . S
O7 Dy1 2.275 1_455 S
O7 C23 1.254 . S
O8 Dy0 2.339 . S
O8 C23 1.257 . S
O9 Dy1 2.307 1_455 S
O9 C24 1.266 . S
O10 Dy0 2.298 . S
O10 C24 1.236 . S
O11 Dy1 2.395 . S
O11 C31 1.255 . S
O12 Dy1 2.379 . S
O12 C31 1.249 . S
C13 O3 1.266 . S
C13 O4 1.236 . S
O14 Dy0 2.275 . S
O14 C2 1.254 . S
O15 Dy1 2.339 . S
O15 C2 1.257 1_655 S
C16 C19 1.344 . S
C16 C20 1.328 . S
C16 C22 1.516 . S
C17 C18 1.304 . S
C17 C21 1.323 . S
C18 C17 1.304 . S
C18 C19 1.371 . S
C18 H32 0.930 . S
C19 C16 1.344 . S
C19 C18 1.371 . S
C19 H33 0.931 . S
C20 C16 1.328 . S
C20 C21 1.433 . S
C20 H34 0.931 . S
C21 C17 1.323 . S
C21 C20 1.433 . S
C21 H35 0.933 . S
C22 Dy0 2.738 . S
C22 O5 1.255 . S
C22 O6 1.249 . S
C22 C16 1.516 . S
C23 O7 1.254 . S
C23 O8 1.257 . S
C24 O9 1.266 . S
C24 O10 1.236 . S
C25 C28 1.344 . S
C25 C29 1.328 . S
C25 C31 1.516 . S
C26 C27 1.304 . S
C26 C30 1.323 . S
C27 C26 1.304 . S
C27 C28 1.371 . S
C27 H36 0.930 . S
C28 C25 1.344 . S
C28 C27 1.371 . S
C28 H37 0.931 . S
C29 C25 1.328 . S
C29 C30 1.433 . S
C29 H38 0.931 . S
C30 C26 1.323 . S
C30 C29 1.433 . S
C30 H39 0.933 . S
C31 Dy1 2.738 . S
C31 O11 1.255 . S
C31 O12 1.249 . S
C31 C25 1.516 . S
H32 C18 0.930 . S
H33 C19 0.931 . S
H34 C20 0.931 . S
H35 C21 0.933 . S
H36 C27 0.930 . S
H37 C28 0.931 . S
H38 C29 0.931 . S
H39 C30 0.933 . S
Dy40 O43 2.307 1_565 S
Dy40 O45 2.395 . S
Dy40 O46 2.379 . S
Dy40 O48 2.339 1_565 S
Dy40 O50 2.298 . S
Dy40 O54 2.275 1_565 S
Dy40 C62 2.738 . S
Dy41 O44 2.298 . S
Dy41 O47 2.275 . S
Dy41 O49 2.307 1_545 S
Dy41 O51 2.395 . S
Dy41 O52 2.379 . S
Dy41 O55 2.339 . S
Dy41 C71 2.738 . S
C42 O54 1.254 . S
C42 O55 1.257 . S
O43 Dy40 2.307 1_545 S
O43 C53 1.266 . S
O44 Dy41 2.298 . S
O44 C53 1.236 . S
O45 Dy40 2.395 . S
O45 C62 1.255 . S
O46 Dy40 2.379 . S
O46 C62 1.249 . S
O47 Dy41 2.275 . S
O47 C63 1.254 . S
O48 Dy40 2.339 1_545 S
O48 C63 1.257 . S
O49 Dy41 2.307 1_565 S
O49 C64 1.266 . S
O50 Dy40 2.298 . S
O50 C64 1.236 . S
O51 Dy41 2.395 . S
O51 C71 1.255 . S
O52 Dy41 2.379 . S
O52 C71 1.249 . S
C53 O43 1.266 . S
C53 O44 1.236 . S
O54 Dy40 2.275 1_545 S
O54 C42 1.254 . S
O55 Dy41 2.339 . S
O55 C42 1.257 . S
C56 C59 1.344 . S
C56 C60 1.328 . S
C56 C62 1.516 . S
C57 C58 1.304 . S
C57 C61 1.323 . S
C58 C57 1.304 . S
C58 C59 1.371 . S
C58 H72 0.930 . S
C59 C56 1.344 . S
C59 C58 1.371 . S
C59 H73 0.931 . S
C60 C56 1.328 . S
C60 C61 1.433 . S
C60 H74 0.931 . S
C61 C57 1.323 . S
C61 C60 1.433 . S
C61 H75 0.933 . S
C62 Dy40 2.738 . S
C62 O45 1.255 . S
C62 O46 1.249 . S
C62 C56 1.516 . S
C63 O47 1.254 . S
C63 O48 1.257 . S
C64 O49 1.266 . S
C64 O50 1.236 . S
C65 C68 1.344 . S
C65 C69 1.328 . S
C65 C71 1.516 . S
C66 C67 1.304 . S
C66 C70 1.323 . S
C67 C66 1.304 . S
C67 C68 1.371 . S
C67 H76 0.930 . S
C68 C65 1.344 . S
C68 C67 1.371 . S
C68 H77 0.931 . S
C69 C65 1.328 . S
C69 C70 1.433 . S
C69 H78 0.931 . S
C70 C66 1.323 . S
C70 C69 1.433 . S
C70 H79 0.933 . S
C71 Dy41 2.738 . S
C71 O51 1.255 . S
C71 O52 1.249 . S
C71 C65 1.516 . S
H72 C58 0.930 . S
H73 C59 0.931 . S
H74 C60 0.931 . S
H75 C61 0.933 . S
H76 C67 0.930 . S
H77 C68 0.931 . S
H78 C69 0.931 . S
H79 C70 0.933 . S
Dy80 O83 2.307 . S
Dy80 O85 2.395 . S
Dy80 O86 2.379 . S
Dy80 O88 2.339 . S
Dy80 O90 2.298 . S
Dy80 O94 2.275 . S
Dy80 C102 2.738 . S
Dy81 O84 2.298 . S
Dy81 O87 2.275 . S
Dy81 O89 2.307 . S
Dy81 O91 2.395 . S
Dy81 O92 2.379 . S
Dy81 O95 2.339 . S
Dy81 C111 2.738 . S
C82 O94 1.254 . S
C82 O95 1.257 . S
O83 Dy80 2.307 . S
O83 C93 1.266 . S
O84 Dy81 2.298 . S
O84 C93 1.236 . S
O85 Dy80 2.395 . S
O85 C102 1.255 . S
O86 Dy80 2.379 . S
O86 C102 1.249 . S
O87 Dy81 2.275 . S
O87 C103 1.254 . S
O88 Dy80 2.339 . S
O88 C103 1.257 . S
O89 Dy81 2.307 . S
O89 C104 1.266 . S
O90 Dy80 2.298 . S
O90 C104 1.236 . S
O91 Dy81 2.395 . S
O91 C111 1.255 . S
O92 Dy81 2.379 . S
O92 C111 1.249 . S
C93 O83 1.266 . S
C93 O84 1.236 . S
O94 Dy80 2.275 . S
O94 C82 1.254 . S
O95 Dy81 2.339 . S
O95 C82 1.257 . S
C96 C99 1.344 . S
C96 C100 1.328 . S
C96 C102 1.516 . S
C97 C98 1.304 . S
C97 C101 1.323 . S
C98 C97 1.304 . S
C98 C99 1.371 . S
C98 H112 0.930 . S
C99 C96 1.344 . S
C99 C98 1.371 . S
C99 H113 0.931 . S
C100 C96 1.328 . S
C100 C101 1.433 . S
C100 H114 0.931 . S
C101 C97 1.323 . S
C101 C100 1.433 . S
C101 H115 0.933 . S
C102 Dy80 2.738 . S
C102 O85 1.255 . S
C102 O86 1.249 . S
C102 C96 1.516 . S
C103 O87 1.254 . S
C103 O88 1.257 . S
C104 O89 1.266 . S
C104 O90 1.236 . S
C105 C108 1.344 . S
C105 C109 1.328 . S
C105 C111 1.516 . S
C106 C107 1.304 . S
C106 C110 1.323 . S
C107 C106 1.304 . S
C107 C108 1.371 . S
C107 H116 0.930 . S
C108 C105 1.344 . S
C108 C107 1.371 . S
C108 H117 0.931 . S
C109 C105 1.328 . S
C109 C110 1.433 . S
C109 H118 0.931 . S
C110 C106 1.323 . S
C110 C109 1.433 . S
C110 H119 0.933 . S
C111 Dy81 2.738 . S
C111 O91 1.255 . S
C111 O92 1.249 . S
C111 C105 1.516 . S
H112 C98 0.930 . S
H113 C99 0.931 . S
H114 C100 0.931 . S
H115 C101 0.933 . S
H116 C107 0.930 . S
H117 C108 0.931 . S
H118 C109 0.931 . S
H119 C110 0.933 . S
C120 N121 1.317 . S
C120 N122 1.348 1_545 S
C120 C123 1.485 . S
N121 C120 1.317 . S
N121 N125 1.370 . S
N122 C120 1.348 1_565 S
N122 C124 1.346 . S
C123 C120 1.485 . S
C123 H127 0.960 . S
C123 H128 0.961 1_545 S
C123 H129 0.960 . S
C124 N122 1.346 . S
C124 N125 1.307 1_565 S
C124 C126 1.486 . S
N125 N121 1.370 . S
N125 C124 1.307 1_545 S
C126 C124 1.486 . S
C126 H130 0.960 . S
C126 H131 0.960 . S
C126 H132 0.959 . S
H127 C123 0.960 . S
H128 C123 0.961 1_565 S
H129 C123 0.960 . S
H130 C126 0.960 . S
H131 C126 0.960 . S
H132 C126 0.959 . S
C133 N134 1.317 . S
C133 N135 1.348 . S
C133 C136 1.485 . S
N134 C133 1.317 . S
N134 N138 1.370 . S
N135 C133 1.348 . S
N135 C137 1.346 . S
C136 C133 1.485 . S
C136 H140 0.960 . S
C136 H141 0.961 . S
C136 H142 0.960 . S
C137 N135 1.346 . S
C137 N138 1.307 . S
C137 C139 1.486 . S
N138 N134 1.370 . S
N138 C137 1.307 . S
C139 C137 1.486 . S
C139 H143 0.960 . S
C139 H144 0.960 . S
C139 H145 0.959 . S
H140 C136 0.960 . S
H141 C136 0.961 . S
H142 C136 0.960 . S
H143 C139 0.960 . S
H144 C139 0.960 . S
H145 C139 0.959 . S
C146 N147 1.317 . S
C146 N148 1.348 1_455 S
C146 C149 1.485 . S
N147 C146 1.317 . S
N147 N151 1.370 . S
N148 C146 1.348 1_655 S
N148 C150 1.346 . S
C149 C146 1.485 . S
C149 H153 0.960 . S
C149 H154 0.961 1_455 S
C149 H155 0.960 . S
C150 N148 1.346 . S
C150 N151 1.307 1_655 S
C150 C152 1.486 . S
N151 N147 1.370 . S
N151 C150 1.307 1_455 S
C152 C150 1.486 . S
C152 H156 0.960 . S
C152 H157 0.960 . S
C152 H158 0.959 . S
H153 C149 0.960 . S
H154 C149 0.961 1_655 S
H155 C149 0.960 . S
H156 C152 0.960 . S
H157 C152 0.960 . S
H158 C152 0.959 . S
C159 N160 1.317 . S
C159 N161 1.348 . S
C159 C162 1.485 . S
N160 C159 1.317 . S
N160 N164 1.370 . S
N161 C159 1.348 . S
N161 C163 1.346 . S
C162 C159 1.485 . S
C162 H166 0.960 . S
C162 H167 0.961 . S
C162 H168 0.960 . S
C163 N161 1.346 . S
C163 N164 1.307 . S
C163 C165 1.486 . S
N164 N160 1.370 . S
N164 C163 1.307 . S
C165 C163 1.486 . S
C165 H169 0.960 . S
C165 H170 0.960 . S
C165 H171 0.959 . S
H166 C162 0.960 . S
H167 C162 0.961 . S
H168 C162 0.960 . S
H169 C165 0.960 . S
H170 C165 0.960 . S
H171 C165 0.959 . S
C172 N173 1.317 . S
C172 N174 1.348 . S
C172 C175 1.485 . S
N173 C172 1.317 . S
N173 N177 1.370 . S
N174 C172 1.348 . S
N174 C176 1.346 . S
C175 C172 1.485 . S
C175 H179 0.960 . S
C175 H180 0.961 . S
C175 H181 0.960 1_545 S
C176 N174 1.346 . S
C176 N177 1.307 . S
C176 C178 1.486 . S
N177 N173 1.370 . S
N177 C176 1.307 . S
C178 C176 1.486 . S
C178 H182 0.960 . S
C178 H183 0.960 . S
C178 H184 0.959 . S
H179 C175 0.960 . S
H180 C175 0.961 . S
H181 C175 0.960 1_565 S
H182 C178 0.960 . S
H183 C178 0.960 . S
H184 C178 0.959 . S
C185 N186 1.317 . S
C185 N187 1.348 . S
C185 C188 1.485 . S
N186 C185 1.317 . S
N186 N190 1.370 . S
N187 C185 1.348 . S
N187 C189 1.346 . S
C188 C185 1.485 . S
C188 H192 0.960 . S
C188 H193 0.961 . S
C188 H194 0.960 . S
C189 N187 1.346 . S
C189 N190 1.307 . S
C189 C191 1.486 . S
N190 N186 1.370 . S
N190 C189 1.307 . S
C191 C189 1.486 . S
C191 H195 0.960 . S
C191 H196 0.960 . S
C191 H197 0.959 . S
H192 C188 0.960 . S
H193 C188 0.961 . S
H194 C188 0.960 . S
H195 C191 0.960 . S
H196 C191 0.960 . S
H197 C191 0.959 . S
H198 C206 0.950 . S
H199 C211 0.950 . S
H200 C208 0.950 . S
H201 C210 0.950 . S
H202 C212 0.950 . S
H203 C214 0.950 . S
H204 C216 0.950 . S
H205 C217 0.950 . S
C206 H198 0.950 . S
C206 C207 1.386 . S
C206 C208 1.391 . S
C207 C206 1.386 . S
C207 C211 1.393 . S
C208 H200 0.950 . S
C208 C206 1.391 . S
C208 C209 1.400 . S
C209 C208 1.400 . S
C209 C210 1.398 . S
C209 C215 1.491 . S
C210 H201 0.950 . S
C210 C209 1.398 . S
C210 C211 1.391 . S
C211 H199 0.950 . S
C211 C207 1.393 . S
C211 C210 1.391 . S
C212 H202 0.950 . S
C212 C213 1.386 . S
C212 C214 1.391 . S
C213 C212 1.386 . S
C213 C217 1.393 . S
C214 H203 0.950 . S
C214 C212 1.391 . S
C214 C215 1.400 . S
C215 C209 1.491 . S
C215 C214 1.400 . S
C215 C216 1.398 . S
C216 H204 0.950 . S
C216 C215 1.398 . S
C216 C217 1.391 . S
C217 H205 0.950 . S
C217 C213 1.393 . S
C217 C216 1.391 . S
H218 C226 0.950 . S
H219 C231 0.950 . S
H220 C228 0.950 . S
H221 C230 0.950 . S
H222 C232 0.950 . S
H223 C234 0.950 . S
H224 C236 0.950 . S
H225 C237 0.950 . S
C226 H218 0.950 . S
C226 C227 1.386 . S
C226 C228 1.391 . S
C227 C226 1.386 . S
C227 C231 1.393 . S
C228 H220 0.950 . S
C228 C226 1.391 . S
C228 C229 1.400 . S
C229 C228 1.400 . S
C229 C230 1.398 . S
C229 C235 1.491 . S
C230 H221 0.950 . S
C230 C229 1.398 . S
C230 C231 1.391 . S
C231 H219 0.950 . S
C231 C227 1.393 . S
C231 C230 1.391 . S
C232 H222 0.950 . S
C232 C233 1.386 . S
C232 C234 1.391 . S
C233 C232 1.386 . S
C233 C237 1.393 . S
C234 H223 0.950 . S
C234 C232 1.391 . S
C234 C235 1.400 . S
C235 C229 1.491 . S
C235 C234 1.400 . S
C235 C236 1.398 . S
C236 H224 0.950 . S
C236 C235 1.398 . S
C236 C237 1.391 . S
C237 H225 0.950 . S
C237 C233 1.393 . S
C237 C236 1.391 . S
H238 C246 0.950 . S
H239 C251 0.950 . S
H240 C248 0.950 . S
H241 C250 0.950 . S
H242 C252 0.950 . S
H243 C254 0.950 . S
H244 C256 0.950 . S
H245 C257 0.950 . S
C246 H238 0.950 . S
C246 C247 1.386 . S
C246 C248 1.391 . S
C247 C246 1.386 . S
C247 C251 1.393 . S
C248 H240 0.950 . S
C248 C246 1.391 . S
C248 C249 1.400 . S
C249 C248 1.400 . S
C249 C250 1.398 . S
C249 C255 1.491 . S
C250 H241 0.950 . S
C250 C249 1.398 . S
C250 C251 1.391 . S
C251 H239 0.950 . S
C251 C247 1.393 . S
C251 C250 1.391 . S
C252 H242 0.950 . S
C252 C253 1.386 . S
C252 C254 1.391 . S
C253 C252 1.386 . S
C253 C257 1.393 . S
C254 H243 0.950 . S
C254 C252 1.391 . S
C254 C255 1.400 . S
C255 C249 1.491 . S
C255 C254 1.400 . S
C255 C256 1.398 . S
C256 H244 0.950 . S
C256 C255 1.398 . S
C256 C257 1.391 . S
C257 H245 0.950 . S
C257 C253 1.393 . S
C257 C256 1.391 . S
H258 C266 0.950 . S
H259 C271 0.950 . S
H260 C268 0.950 . S
H261 C270 0.950 . S
H262 C272 0.950 . S
H263 C274 0.950 . S
H264 C276 0.950 . S
H265 C277 0.950 . S
C266 H258 0.950 . S
C266 C267 1.386 . S
C266 C268 1.391 . S
C267 C266 1.386 . S
C267 C271 1.393 . S
C268 H260 0.950 . S
C268 C266 1.391 . S
C268 C269 1.400 . S
C269 C268 1.400 . S
C269 C270 1.398 . S
C269 C275 1.491 . S
C270 H261 0.950 . S
C270 C269 1.398 . S
C270 C271 1.391 . S
C271 H259 0.950 . S
C271 C267 1.393 . S
C271 C270 1.391 . S
C272 H262 0.950 . S
C272 C273 1.386 . S
C272 C274 1.391 . S
C273 C272 1.386 . S
C273 C277 1.393 . S
C274 H263 0.950 . S
C274 C272 1.391 . S
C274 C275 1.400 . S
C275 C269 1.491 . S
C275 C274 1.400 . S
C275 C276 1.398 . S
C276 H264 0.950 . S
C276 C275 1.398 . S
C276 C277 1.391 . S
C277 H265 0.950 . S
C277 C273 1.393 . S
C277 C276 1.391 . S
H278 C286 0.950 . S
H279 C291 0.950 . S
H280 C288 0.950 . S
H281 C290 0.950 . S
H282 C292 0.950 . S
H283 C294 0.950 . S
H284 C296 0.950 . S
H285 C297 0.950 . S
C286 H278 0.950 . S
C286 C287 1.386 . S
C286 C288 1.391 . S
C287 C286 1.386 . S
C287 C291 1.393 . S
C288 H280 0.950 . S
C288 C286 1.391 . S
C288 C289 1.400 . S
C289 C288 1.400 . S
C289 C290 1.398 . S
C289 C295 1.491 . S
C290 H281 0.950 . S
C290 C289 1.398 . S
C290 C291 1.391 . S
C291 H279 0.950 . S
C291 C287 1.393 . S
C291 C290 1.391 . S
C292 H282 0.950 . S
C292 C293 1.386 . S
C292 C294 1.391 . S
C293 C292 1.386 . S
C293 C297 1.393 . S
C294 H283 0.950 . S
C294 C292 1.391 . S
C294 C295 1.400 . S
C295 C289 1.491 . S
C295 C294 1.400 . S
C295 C296 1.398 . S
C296 H284 0.950 . S
C296 C295 1.398 . S
C296 C297 1.391 . S
C297 H285 0.950 . S
C297 C293 1.393 . S
C297 C296 1.391 . S
H298 C306 0.950 . S
H299 C311 0.950 . S
H300 C308 0.950 . S
H301 C310 0.950 . S
H302 C312 0.950 . S
H303 C314 0.950 . S
H304 C316 0.950 . S
H305 C317 0.950 . S
C306 H298 0.950 . S
C306 C307 1.386 . S
C306 C308 1.391 . S
C307 C306 1.386 . S
C307 C311 1.393 . S
C308 H300 0.950 . S
C308 C306 1.391 . S
C308 C309 1.400 . S
C309 C308 1.400 . S
C309 C310 1.398 . S
C309 C315 1.491 . S
C310 H301 0.950 . S
C310 C309 1.398 . S
C310 C311 1.391 . S
C311 H299 0.950 . S
C311 C307 1.393 . S
C311 C310 1.391 . S
C312 H302 0.950 . S
C312 C313 1.386 . S
C312 C314 1.391 . S
C313 C312 1.386 . S
C313 C317 1.393 . S
C314 H303 0.950 . S
C314 C312 1.391 . S
C314 C315 1.400 . S
C315 C309 1.491 . S
C315 C314 1.400 . S
C315 C316 1.398 . S
C316 H304 0.950 . S
C316 C315 1.398 . S
C316 C317 1.391 . S
C317 H305 0.950 . S
C317 C313 1.393 . S
C317 C316 1.391 . S
H318 C326 0.950 . S
H319 C331 0.950 . S
H320 C328 0.950 . S
H321 C330 0.950 . S
H322 C332 0.950 . S
H323 C334 0.950 . S
H324 C336 0.950 . S
H325 C337 0.950 . S
C326 H318 0.950 . S
C326 C327 1.386 . S
C326 C328 1.391 . S
C327 C326 1.386 . S
C327 C331 1.393 . S
C328 H320 0.950 . S
C328 C326 1.391 . S
C328 C329 1.400 . S
C329 C328 1.400 . S
C329 C330 1.398 . S
C329 C335 1.491 . S
C330 H321 0.950 . S
C330 C329 1.398 . S
C330 C331 1.391 . S
C331 H319 0.950 . S
C331 C327 1.393 . S
C331 C330 1.391 . S
C332 H322 0.950 . S
C332 C333 1.386 . S
C332 C334 1.391 . S
C333 C332 1.386 . S
C333 C337 1.393 . S
C334 H323 0.950 . S
C334 C332 1.391 . S
C334 C335 1.400 . S
C335 C329 1.491 . S
C335 C334 1.400 . S
C335 C336 1.398 . S
C336 H324 0.950 . S
C336 C335 1.398 . S
C336 C337 1.391 . S
C337 H325 0.950 . S
C337 C333 1.393 . S
C337 C336 1.391 . S
H338 C346 0.950 . S
H339 C351 0.950 . S
H340 C348 0.950 . S
H341 C350 0.950 . S
H342 C352 0.950 . S
H343 C354 0.950 . S
H344 C356 0.950 . S
H345 C357 0.950 . S
C346 H338 0.950 . S
C346 C347 1.386 . S
C346 C348 1.391 . S
C347 C346 1.386 . S
C347 C351 1.393 . S
C348 H340 0.950 . S
C348 C346 1.391 . S
C348 C349 1.400 . S
C349 C348 1.400 . S
C349 C350 1.398 . S
C349 C355 1.491 . S
C350 H341 0.950 . S
C350 C349 1.398 . S
C350 C351 1.391 . S
C351 H339 0.950 . S
C351 C347 1.393 . S
C351 C350 1.391 . S
C352 H342 0.950 . S
C352 C353 1.386 . S
C352 C354 1.391 . S
C353 C352 1.386 . S
C353 C357 1.393 . S
C354 H343 0.950 . S
C354 C352 1.391 . S
C354 C355 1.400 . S
C355 C349 1.491 . S
C355 C354 1.400 . S
C355 C356 1.398 . S
C356 H344 0.950 . S
C356 C355 1.398 . S
C356 C357 1.391 . S
C357 H345 0.950 . S
C357 C353 1.393 . S
C357 C356 1.391 . S
H358 C366 0.950 . S
H359 C371 0.950 . S
H360 C368 0.950 . S
H361 C370 0.950 . S
H362 C372 0.950 . S
H363 C374 0.950 . S
H364 C376 0.950 . S
H365 C377 0.950 . S
C366 H358 0.950 . S
C366 C367 1.386 . S
C366 C368 1.391 . S
C367 C366 1.386 . S
C367 C371 1.393 . S
C368 H360 0.950 . S
C368 C366 1.391 . S
C368 C369 1.400 . S
C369 C368 1.400 . S
C369 C370 1.398 . S
C369 C375 1.491 . S
C370 H361 0.950 . S
C370 C369 1.398 . S
C370 C371 1.391 . S
C371 H359 0.950 . S
C371 C367 1.393 . S
C371 C370 1.391 . S
C372 H362 0.950 . S
C372 C373 1.386 . S
C372 C374 1.391 . S
C373 C372 1.386 . S
C373 C377 1.393 . S
C374 H363 0.950 . S
C374 C372 1.391 . S
C374 C375 1.400 . S
C375 C369 1.491 . S
C375 C374 1.400 . S
C375 C376 1.398 . S
C376 H364 0.950 . S
C376 C375 1.398 . S
C376 C377 1.391 . S
C377 H365 0.950 . S
C377 C373 1.393 . S
C377 C376 1.391 . S
H378 C386 0.950 . S
H379 C391 0.950 . S
H380 C388 0.950 . S
H381 C390 0.950 . S
H382 C392 0.950 . S
H383 C394 0.950 . S
H384 C396 0.950 . S
H385 C397 0.950 . S
C386 H378 0.950 . S
C386 C387 1.386 . S
C386 C388 1.391 . S
C387 C386 1.386 . S
C387 C391 1.393 . S
C388 H380 0.950 . S
C388 C386 1.391 . S
C388 C389 1.400 . S
C389 C388 1.400 . S
C389 C390 1.398 . S
C389 C395 1.491 . S
C390 H381 0.950 . S
C390 C389 1.398 . S
C390 C391 1.391 . S
C391 H379 0.950 . S
C391 C387 1.393 . S
C391 C390 1.391 . S
C392 H382 0.950 . S
C392 C393 1.386 . S
C392 C394 1.391 . S
C393 C392 1.386 . S
C393 C397 1.393 . S
C394 H383 0.950 . S
C394 C392 1.391 . S
C394 C395 1.400 . S
C395 C389 1.491 . S
C395 C394 1.400 . S
C395 C396 1.398 . S
C396 H384 0.950 . S
C396 C395 1.398 . S
C396 C397 1.391 . S
C397 H385 0.950 . S
C397 C393 1.393 . S
C397 C396 1.391 . S
H398 C406 0.950 . S
H399 C411 0.950 . S
H400 C408 0.950 . S
H401 C410 0.950 . S
H402 C412 0.950 . S
H403 C414 0.950 . S
H404 C416 0.950 . S
H405 C417 0.950 . S
C406 H398 0.950 . S
C406 C407 1.386 . S
C406 C408 1.391 . S
C407 C406 1.386 . S
C407 C411 1.393 . S
C408 H400 0.950 . S
C408 C406 1.391 . S
C408 C409 1.400 . S
C409 C408 1.400 . S
C409 C410 1.398 . S
C409 C415 1.491 . S
C410 H401 0.950 . S
C410 C409 1.398 . S
C410 C411 1.391 . S
C411 H399 0.950 . S
C411 C407 1.393 . S
C411 C410 1.391 . S
C412 H402 0.950 . S
C412 C413 1.386 . S
C412 C414 1.391 . S
C413 C412 1.386 . S
C413 C417 1.393 . S
C414 H403 0.950 . S
C414 C412 1.391 . S
C414 C415 1.400 . S
C415 C409 1.491 . S
C415 C414 1.400 . S
C415 C416 1.398 . S
C416 H404 0.950 . S
C416 C415 1.398 . S
C416 C417 1.391 . S
C417 H405 0.950 . S
C417 C413 1.393 . S
C417 C416 1.391 . S
H418 C426 0.950 . S
H419 C431 0.950 . S
H420 C428 0.950 . S
H421 C430 0.950 . S
H422 C432 0.950 . S
H423 C434 0.950 . S
H424 C436 0.950 . S
H425 C437 0.950 . S
C426 H418 0.950 . S
C426 C427 1.386 . S
C426 C428 1.391 . S
C427 C426 1.386 . S
C427 C431 1.393 . S
C428 H420 0.950 . S
C428 C426 1.391 . S
C428 C429 1.400 . S
C429 C428 1.400 . S
C429 C430 1.398 . S
C429 C435 1.491 . S
C430 H421 0.950 . S
C430 C429 1.398 . S
C430 C431 1.391 . S
C431 H419 0.950 . S
C431 C427 1.393 . S
C431 C430 1.391 . S
C432 H422 0.950 . S
C432 C433 1.386 . S
C432 C434 1.391 . S
C433 C432 1.386 . S
C433 C437 1.393 . S
C434 H423 0.950 . S
C434 C432 1.391 . S
C434 C435 1.400 . S
C435 C429 1.491 . S
C435 C434 1.400 . S
C435 C436 1.398 . S
C436 H424 0.950 . S
C436 C435 1.398 . S
C436 C437 1.391 . S
C437 H425 0.950 . S
C437 C433 1.393 . S
C437 C436 1.391 . S
H438 C446 0.950 . S
H439 C451 0.950 . S
H440 C448 0.950 . S
H441 C450 0.950 . S
H442 C452 0.950 . S
H443 C454 0.950 . S
H444 C456 0.950 . S
H445 C457 0.950 . S
C446 H438 0.950 . S
C446 C447 1.386 . S
C446 C448 1.391 . S
C447 C446 1.386 . S
C447 C451 1.393 1_455 S
C448 H440 0.950 . S
C448 C446 1.391 . S
C448 C449 1.400 . S
C449 C448 1.400 . S
C449 C450 1.398 1_455 S
C449 C455 1.491 1_554 S
C450 H441 0.950 . S
C450 C449 1.398 1_655 S
C450 C451 1.391 . S
C451 H439 0.950 . S
C451 C447 1.393 1_655 S
C451 C450 1.391 . S
C452 H442 0.950 . S
C452 C453 1.386 1_655 S
C452 C454 1.391 . S
C453 C452 1.386 1_455 S
C453 C457 1.393 . S
C454 H443 0.950 . S
C454 C452 1.391 . S
C454 C455 1.400 1_655 S
C455 C449 1.491 1_556 S
C455 C454 1.400 1_455 S
C455 C456 1.398 . S
C456 H444 0.950 . S
C456 C455 1.398 . S
C456 C457 1.391 . S
C457 H445 0.950 . S
C457 C453 1.393 . S
C457 C456 1.391 . S
H458 C466 0.950 . S
H459 C471 0.950 . S
H460 C468 0.950 . S
H461 C470 0.950 . S
H462 C472 0.950 . S
H463 C474 0.950 . S
H464 C476 0.950 . S
H465 C477 0.950 . S
C466 H458 0.950 . S
C466 C467 1.386 . S
C466 C468 1.391 . S
C467 C466 1.386 . S
C467 C471 1.393 1_545 S
C468 H460 0.950 . S
C468 C466 1.391 . S
C468 C469 1.400 . S
C469 C468 1.400 . S
C469 C470 1.398 1_545 S
C469 C475 1.491 . S
C470 H461 0.950 . S
C470 C469 1.398 1_565 S
C470 C471 1.391 . S
C471 H459 0.950 . S
C471 C467 1.393 1_565 S
C471 C470 1.391 . S
C472 H462 0.950 . S
C472 C473 1.386 1_565 S
C472 C474 1.391 . S
C473 C472 1.386 1_545 S
C473 C477 1.393 . S
C474 H463 0.950 . S
C474 C472 1.391 . S
C474 C475 1.400 1_565 S
C475 C469 1.491 . S
C475 C474 1.400 1_545 S
C475 C476 1.398 . S
C476 H464 0.950 . S
C476 C475 1.398 . S
C476 C477 1.391 . S
C477 H465 0.950 . S
C477 C473 1.393 . S
C477 C476 1.391 . S
H478 C486 0.950 . S
H479 C491 0.950 . S
H480 C488 0.950 . S
H481 C490 0.950 . S
H482 C492 0.950 . S
H483 C494 0.950 . S
H484 C496 0.950 . S
H485 C497 0.950 . S
C486 H478 0.950 . S
C486 C487 1.386 . S
C486 C488 1.391 . S
C487 C486 1.386 . S
C487 C491 1.393 . S
C488 H480 0.950 . S
C488 C486 1.391 . S
C488 C489 1.400 . S
C489 C488 1.400 . S
C489 C490 1.398 . S
C489 C495 1.491 . S
C490 H481 0.950 . S
C490 C489 1.398 . S
C490 C491 1.391 . S
C491 H479 0.950 . S
C491 C487 1.393 . S
C491 C490 1.391 . S
C492 H482 0.950 . S
C492 C493 1.386 . S
C492 C494 1.391 . S
C493 C492 1.386 . S
C493 C497 1.393 . S
C494 H483 0.950 . S
C494 C492 1.391 . S
C494 C495 1.400 . S
C495 C489 1.491 . S
C495 C494 1.400 . S
C495 C496 1.398 . S
C496 H484 0.950 . S
C496 C495 1.398 . S
C496 C497 1.391 . S
C497 H485 0.950 . S
C497 C493 1.393 . S
C497 C496 1.391 . S
H498 C506 0.950 . S
H499 C511 0.950 . S
H500 C508 0.953 1_565 S
H501 C510 0.950 . S
H502 C512 0.950 . S
H503 C514 0.950 . S
H504 C516 0.950 . S
H505 C517 0.950 . S
C506 H498 0.950 . S
C506 C507 1.391 1_565 S
C506 C508 1.388 1_565 S
C507 C506 1.391 1_545 S
C507 C511 1.393 . S
C508 H500 0.953 1_545 S
C508 C506 1.388 1_545 S
C508 C509 1.400 . S
C509 C508 1.400 . S
C509 C510 1.398 . S
C509 C515 1.491 . S
C510 H501 0.950 . S
C510 C509 1.398 . S
C510 C511 1.391 . S
C511 H499 0.950 . S
C511 C507 1.393 . S
C511 C510 1.391 . S
C512 H502 0.950 . S
C512 C513 1.386 . S
C512 C514 1.391 . S
C513 C512 1.386 . S
C513 C517 1.393 . S
C514 H503 0.950 . S
C514 C512 1.391 . S
C514 C515 1.400 . S
C515 C509 1.491 . S
C515 C514 1.400 . S
C515 C516 1.398 . S
C516 H504 0.950 . S
C516 C515 1.398 . S
C516 C517 1.391 . S
C517 H505 0.950 . S
C517 C513 1.393 . S
C517 C516 1.391 . S
H518 C526 0.950 . S
H519 C531 0.950 . S
H520 C528 0.950 . S
H521 C530 0.950 . S
H522 C532 0.950 . S
H523 C534 0.950 . S
H524 C536 0.950 . S
H525 C537 0.950 . S
C526 H518 0.950 . S
C526 C527 1.386 . S
C526 C528 1.391 . S
C527 C526 1.386 . S
C527 C531 1.393 . S
C528 H520 0.950 . S
C528 C526 1.391 . S
C528 C529 1.400 . S
C529 C528 1.400 . S
C529 C530 1.398 . S
C529 C535 1.491 1_556 S
C530 H521 0.950 . S
C530 C529 1.398 . S
C530 C531 1.391 . S
C531 H519 0.950 . S
C531 C527 1.393 . S
C531 C530 1.391 . S
C532 H522 0.950 . S
C532 C533 1.386 . S
C532 C534 1.391 . S
C533 C532 1.386 . S
C533 C537 1.393 . S
C534 H523 0.950 . S
C534 C532 1.391 . S
C534 C535 1.400 . S
C535 C529 1.491 1_554 S
C535 C534 1.400 . S
C535 C536 1.398 . S
C536 H524 0.950 . S
C536 C535 1.398 . S
C536 C537 1.391 . S
C537 H525 0.950 . S
C537 C533 1.393 . S
C537 C536 1.391 . S
H538 C546 0.950 . S
H539 C551 0.950 . S
H540 C548 0.950 . S
H541 C550 0.950 . S
H542 C552 0.950 . S
H543 C554 0.950 . S
H544 C556 0.950 . S
H545 C557 0.950 . S
C546 H538 0.950 . S
C546 C547 1.386 1_655 S
C546 C548 1.391 . S
C547 C546 1.386 1_455 S
C547 C551 1.393 . S
C548 H540 0.950 . S
C548 C546 1.391 . S
C548 C549 1.400 1_655 S
C549 C548 1.400 1_455 S
C549 C550 1.398 . S
C549 C555 1.491 . S
C550 H541 0.950 . S
C550 C549 1.398 . S
C550 C551 1.391 . S
C551 H539 0.950 . S
C551 C547 1.393 . S
C551 C550 1.391 . S
C552 H542 0.950 . S
C552 C553 1.386 . S
C552 C554 1.391 . S
C553 C552 1.386 . S
C553 C557 1.393 1_455 S
C554 H543 0.950 . S
C554 C552 1.391 . S
C554 C555 1.400 . S
C555 C549 1.491 . S
C555 C554 1.400 . S
C555 C556 1.398 1_455 S
C556 H544 0.950 . S
C556 C555 1.398 1_655 S
C556 C557 1.391 . S
C557 H545 0.950 . S
C557 C553 1.393 1_655 S
C557 C556 1.391 . S
C207 C24 2.728 . S
C213 N187 2.701 . S
C227 C66 1.082 . S
C233 N160 1.093 1_655 S
C247 C93 1.700 . S
C253 N173 1.706 1_565 S
C267 C13 3.308 . S
C273 N186 3.329 . S
C293 N161 1.352 . S
C287 C57 1.335 . S
C313 N174 1.937 . S
C307 C104 1.968 . S
C327 C64 1.819 . S
C333 N134 1.818 . S
C347 C97 0.246 . S
C353 N148 0.265 . S
C367 C17 1.337 . S
C373 N122 1.371 . S
C393 N135 1.826 . S
C387 C53 1.829 . S
C413 N147 0.516 . S
C407 C106 0.539 . S
C427 C26 1.123 . S
C433 N121 1.145 . S
C453 N151 1.227 . S
C447 C2 1.236 . S
C467 C63 1.538 . S
C473 N125 1.586 . S
C487 C82 1.442 . S
C493 N138 1.439 . S
C513 N177 1.543 . S
C507 C42 1.544 . S
C533 N190 1.747 . S
C527 C103 1.718 . S
C547 C23 1.518 . S
C553 N164 1.560 . S
