# Generated by pormake.
# Topology anh, (6,3)-cn, num edge types: 1
# Building blocks:
#     Node 0, Type 0, BuildingBlock: BETDIP_clean_sbu_0, # of connection points: 6
#     Node 1, Type 0, BuildingBlock: BETDIP_clean_sbu_0, # of connection points: 6
#     Node 2, Type 0, BuildingBlock: BETDIP_clean_sbu_0, # of connection points: 6
#     Node 3, Type 1, BuildingBlock: MIDCAF_clean_linker_0, # of connection points: 3
#     Node 4, Type 1, BuildingBlock: MIDCAF_clean_linker_0, # of connection points: 3
#     Node 5, Type 1, BuildingBlock: MIDCAF_clean_linker_0, # of connection points: 3
#     Node 6, Type 1, BuildingBlock: MIDCAF_clean_linker_0, # of connection points: 3
#     Node 7, Type 1, BuildingBlock: MIDCAF_clean_linker_0, # of connection points: 3
#     Node 8, Type 1, BuildingBlock: MIDCAF_clean_linker_0, # of connection points: 3
#     Edge 9, Type (0, 1), BuildingBlock: MIFKUJ_clean_linker_0, # of connection points: 2
#     Edge 10, Type (0, 1), BuildingBlock: MIFKUJ_clean_linker_0, # of connection points: 2
#     Edge 11, Type (0, 1), BuildingBlock: MIFKUJ_clean_linker_0, # of connection points: 2
#     Edge 12, Type (0, 1), BuildingBlock: MIFKUJ_clean_linker_0, # of connection points: 2
#     Edge 13, Type (0, 1), BuildingBlock: MIFKUJ_clean_linker_0, # of connection points: 2
#     Edge 14, Type (0, 1), BuildingBlock: MIFKUJ_clean_linker_0, # of connection points: 2
#     Edge 15, Type (0, 1), BuildingBlock: MIFKUJ_clean_linker_0, # of connection points: 2
#     Edge 16, Type (0, 1), BuildingBlock: MIFKUJ_clean_linker_0, # of connection points: 2
#     Edge 17, Type (0, 1), BuildingBlock: MIFKUJ_clean_linker_0, # of connection points: 2
#     Edge 18, Type (0, 1), BuildingBlock: MIFKUJ_clean_linker_0, # of connection points: 2
#     Edge 19, Type (0, 1), BuildingBlock: MIFKUJ_clean_linker_0, # of connection points: 2
#     Edge 20, Type (0, 1), BuildingBlock: MIFKUJ_clean_linker_0, # of connection points: 2
#     Edge 21, Type (0, 1), BuildingBlock: MIFKUJ_clean_linker_0, # of connection points: 2
#     Edge 22, Type (0, 1), BuildingBlock: MIFKUJ_clean_linker_0, # of connection points: 2
#     Edge 23, Type (0, 1), BuildingBlock: MIFKUJ_clean_linker_0, # of connection points: 2
#     Edge 24, Type (0, 1), BuildingBlock: MIFKUJ_clean_linker_0, # of connection points: 2
#     Edge 25, Type (0, 1), BuildingBlock: MIFKUJ_clean_linker_0, # of connection points: 2
#     Edge 26, Type (0, 1), BuildingBlock: MIFKUJ_clean_linker_0, # of connection points: 2
# Relax obj value: 0.207
# Max RMSD: 0.179
# Mean RMSD: 0.150
data_MOF--net-anh--node1-BETDIP_clean_sbu_0--node2-MIDCAF_clean_linker_0--edge1-MIFKUJ_clean_linker_0
_symmetry_space_group_name_H-M    P1
_symmetry_Int_Tables_number       1
_symmetry_cell_setting            triclinic
loop_
_symmetry_equiv_pos_as_xyz
'x, y, z'
_cell_length_a     45.645201
_cell_length_b     45.798649
_cell_length_c     81.461969
_cell_angle_alpha  90.523849
_cell_angle_beta   89.614185
_cell_angle_gamma 119.68746
loop_
_atom_site_label
_atom_site_type_symbol
_atom_site_fract_x
_atom_site_fract_y
_atom_site_fract_z
_atom_type_partial_charge
Tb0 Tb 0.1102 0.58487 0.17631 0.0
Tb1 Tb 0.07694 0.51275 0.16758 0.0
C2 C 0.1451 0.6406 0.19031 0.0
C3 C 0.18062 0.66698 0.18941 0.0
C4 C 0.20645 0.65912 0.18707 0.0
C5 C 0.23961 0.68468 0.1845 0.0
C6 C 0.24743 0.71848 0.18418 0.0
C7 C 0.22151 0.72618 0.18679 0.0
C8 C 0.18842 0.70064 0.1894 0.0
C9 C 0.10161 0.57248 0.14475 0.0
C10 C 0.15609 0.54895 0.16878 0.0
C11 C 1.03752 0.45667 0.15518 0.0
C12 C 1.00041 0.43936 0.15548 0.0
C13 C 0.98229 0.43022 0.1407 0.0
C14 C 0.94811 0.42098 0.14058 0.0
C15 C 0.93171 0.42109 0.15523 0.0
C16 C 0.94946 0.42833 0.1701 0.0
C17 C 0.98344 0.43751 0.17022 0.0
C18 C 0.08514 0.52607 0.19948 0.0
C19 C 1.03189 0.54965 0.17032 0.0
O20 O 0.13854 0.61191 0.19683 0.0
O21 O 0.12793 0.63661 0.1769 0.0
O22 O 0.10963 0.55753 0.15508 0.0
O23 O 0.10112 0.59771 0.15173 0.0
O24 O 0.15394 0.57471 0.17543 0.0
O25 O 0.12853 0.52247 0.16294 0.0
O26 O 1.05149 0.48451 0.14676 0.0
O27 O 1.05254 0.46016 0.16929 0.0
O28 O 0.07642 0.54042 0.18903 0.0
O29 O 0.08769 0.50211 0.19228 0.0
O30 O 1.03515 0.52416 0.16458 0.0
O31 O 1.05768 0.57509 0.17796 0.0
H32 H 0.201 0.63329 0.18697 0.0
H33 H 0.25911 0.67798 0.18276 0.0
H34 H 0.22661 0.75192 0.1864 0.0
H35 H 0.16873 0.70713 0.19099 0.0
H36 H 0.995 0.43201 0.12916 0.0
H37 H 0.93507 0.41552 0.12893 0.0
H38 H 0.93731 0.42776 0.18165 0.0
H39 H 0.99673 0.44476 0.18182 0.0
Tb40 Tb 0.60038 0.04087 0.50621 0.0
Tb41 Tb 0.5624 0.07558 0.49786 0.0
C42 C 0.61682 1.00263 0.5201 0.0
C43 C 0.60212 0.96601 0.51895 0.0
C44 C 0.60273 0.94779 0.53252 0.0
C45 C 0.58851 0.91289 0.53142 0.0
C46 C 0.57371 0.89586 0.51668 0.0
C47 C 0.57257 0.91414 0.50321 0.0
C48 C 0.58641 0.94891 0.50437 0.0
C49 C 0.59789 0.0505 0.47484 0.0
C50 C 0.51892 0.99636 0.4988 0.0
C51 C 0.54433 0.11352 0.48477 0.0
C52 C 0.56273 0.15012 0.48258 0.0
C53 C 0.5606 0.16412 0.46767 0.0
C54 C 0.58198 0.19836 0.46463 0.0
C55 C 0.60582 0.21861 0.47642 0.0
C56 C 0.60711 0.20487 0.4915 0.0
C57 C 0.58578 0.17088 0.49457 0.0
C58 C 0.56565 0.06581 0.5296 0.0
C59 C 0.64446 0.11913 0.5011 0.0
O60 O 0.59756 1.01294 0.52705 0.0
O61 O 0.63138 1.01926 0.50672 0.0
O62 O 0.57455 0.04262 0.4851 0.0
O63 O 0.62325 0.0503 0.48176 0.0
O64 O 0.54692 0.99773 0.50464 0.0
O65 O 0.51981 1.02438 0.49389 0.0
O66 O 0.5568 0.09757 0.47652 0.0
O67 O 0.53673 0.10284 0.49989 0.0
O68 O 0.58919 0.07452 0.51926 0.0
O69 O 0.53966 0.06419 0.52237 0.0
O70 O 0.61594 0.11706 0.49576 0.0
O71 O 0.64381 0.09249 0.5079 0.0
H72 H 0.61438 0.96056 0.54391 0.0
H73 H 0.5899 0.89932 0.54194 0.0
H74 H 0.56105 0.90152 0.49178 0.0
H75 H 0.58506 0.96246 0.49384 0.0
H76 H 0.54331 0.14835 0.45819 0.0
H77 H 0.58085 0.20872 0.4529 0.0
H78 H 0.62542 0.22029 0.50072 0.0
H79 H 0.5883 0.1606 0.50606 0.0
Tb80 Tb 0.56086 0.54082 0.83676 0.0
Tb81 Tb 0.63453 0.5784 0.83121 0.0
C82 C 0.5043 0.52549 0.84842 0.0
C83 C 0.48736 0.54562 0.84998 0.0
C84 C 0.47246 0.54638 0.86495 0.0
C85 C 0.45832 0.56715 0.86696 0.0
C86 C 0.45865 0.58732 0.85396 0.0
C87 C 0.47365 0.58661 0.83898 0.0
C88 C 0.48812 0.56614 0.83704 0.0
C89 C 0.57982 0.54436 0.80611 0.0
C90 C 0.59942 0.62272 0.83162 0.0
C91 C 0.69164 0.59566 0.81933 0.0
C92 C 0.70707 0.5758 0.81361 0.0
C93 C 0.74148 0.58792 0.81619 0.0
C94 C 0.75565 0.5677 0.81252 0.0
C95 C 0.73544 0.53485 0.80644 0.0
C96 C 0.70118 0.52311 0.80337 0.0
C97 C 0.68719 0.5436 0.80673 0.0
C98 C 0.61615 0.57566 0.86216 0.0
C99 C 0.59434 0.49593 0.83331 0.0
O100 O 0.53126 0.53576 0.8575 0.0
O101 O 0.5086 0.51754 0.83345 0.0
O102 O 0.59224 0.56728 0.81674 0.0
O103 O 0.55383 0.51816 0.81217 0.0
O104 O 0.57189 0.59444 0.83618 0.0
O105 O 0.62751 0.6222 0.82784 0.0
O106 O 0.66628 0.59264 0.81064 0.0
O107 O 0.68575 0.59446 0.83513 0.0
O108 O 0.60327 0.55197 0.85175 0.0
O109 O 0.64143 0.60163 0.85547 0.0
O110 O 0.62162 0.52446 0.82885 0.0
O111 O 0.56723 0.4965 0.83888 0.0
H112 H 0.47192 0.53101 0.8751 0.0
H113 H 0.44647 0.56689 0.87856 0.0
H114 H 0.47437 0.60205 0.82882 0.0
H115 H 0.50012 0.5666 0.82545 0.0
H116 H 0.75719 0.61266 0.82149 0.0
H117 H 0.78211 0.57723 0.81511 0.0
H118 H 0.6852 0.49803 0.79851 0.0
H119 H 0.66067 0.5339 0.80428 0.0
C120 C 0.54386 1.0184 0.22214 0.0
C121 C 0.5291 1.01235 0.20647 0.0
C122 C 0.52605 1.03814 0.19884 0.0
C123 C 0.53646 0.06876 0.20687 0.0
H124 H 0.55523 0.16653 0.1999 0.0
H125 H 0.57841 0.21585 0.18237 0.0
H126 H 0.63712 0.27766 0.2232 0.0
H127 H 0.61322 0.22868 0.24077 0.0
H128 H 0.60966 0.19113 0.27625 0.0
H129 H 0.6153 0.19146 0.30623 0.0
H130 H 0.54419 0.08506 0.30722 0.0
H131 H 0.53886 0.08446 0.27748 0.0
H132 H 0.56452 0.05246 0.24245 0.0
H133 H 0.54719 0.99936 0.22827 0.0
H134 H 0.51427 1.03427 0.18692 0.0
H135 H 0.533 0.08776 0.20078 0.0
N136 N 0.56479 0.13363 0.22328 0.0
N137 N 0.57756 0.16463 0.24786 0.0
N138 N 0.56197 0.1075 0.24825 0.0
C139 C 0.57411 0.16311 0.23125 0.0
C140 C 0.57108 0.13672 0.25644 0.0
C141 C 0.55894 0.10583 0.23167 0.0
C142 C 0.58299 0.19362 0.22163 0.0
C143 C 0.57253 0.19081 0.20522 0.0
C144 C 0.58577 0.21906 0.19516 0.0
C145 C 0.61002 0.25065 0.20127 0.0
C146 C 0.61825 0.25384 0.21807 0.0
C147 C 0.60475 0.22563 0.22817 0.0
C148 C 0.57388 0.13775 0.27453 0.0
C149 C 0.59511 0.1679 0.28291 0.0
C150 C 0.59845 0.16811 0.3 0.0
C151 C 0.58 0.13834 0.30896 0.0
C152 C 0.55838 0.10841 0.30059 0.0
C153 C 0.55554 0.10806 0.28356 0.0
C154 C 0.54973 0.07414 0.22282 0.0
C155 C 0.5538 0.04885 0.23027 0.0
C156 C 0.75687 0.52749 0.54958 0.0
C157 C 0.75412 0.52455 0.53237 0.0
C158 C 0.7393 0.54074 0.52408 0.0
C159 C 0.72551 0.55742 0.5328 0.0
H160 H 0.6601 0.593 0.52558 0.0
H161 H 0.62383 0.6096 0.51117 0.0
H162 H 0.58864 0.62639 0.55776 0.0
H163 H 0.62398 0.60946 0.57207 0.0
H164 H 0.6557 0.60708 0.6037 0.0
H165 H 0.64941 0.60398 0.63323 0.0
H166 H 0.7098 0.55549 0.636 0.0
H167 H 0.7156 0.55785 0.60609 0.0
H168 H 0.74426 0.54469 0.57161 0.0
H169 H 0.76858 0.51573 0.55633 0.0
H170 H 0.73633 0.53874 0.51087 0.0
H171 H 0.71307 0.56832 0.52595 0.0
N172 N 0.68698 0.58071 0.55087 0.0
N173 N 0.66797 0.59164 0.57562 0.0
N174 N 0.70673 0.57218 0.57595 0.0
C175 C 0.66748 0.59081 0.559 0.0
C176 C 0.68744 0.5825 0.58423 0.0
C177 C 0.70678 0.57145 0.55922 0.0
C178 C 0.64512 0.60001 0.55001 0.0
C179 C 0.64438 0.59996 0.53274 0.0
C180 C 0.62361 0.60941 0.52447 0.0
C181 C 0.60305 0.61887 0.53331 0.0
C182 C 0.60347 0.6184 0.55055 0.0
C183 C 0.62417 0.60907 0.55878 0.0
C184 C 0.68604 0.58254 0.60243 0.0
C185 C 0.66787 0.59585 0.61051 0.0
C186 C 0.66445 0.59434 0.62753 0.0
C187 C 0.67917 0.57957 0.637 0.0
C188 C 0.6979 0.56677 0.62902 0.0
C189 C 0.7014 0.56831 0.61189 0.0
C190 C 0.72603 0.55826 0.55006 0.0
C191 C 0.74297 0.54416 0.55834 0.0
C192 C 0.92421 0.40548 0.88266 0.0
C193 C 0.92931 0.41684 0.86636 0.0
C194 C 0.96231 0.43905 0.86101 0.0
C195 C 0.9893 0.45114 0.87192 0.0
H196 H 0.08816 0.52306 0.87528 0.0
H197 H 0.14447 0.56436 0.86598 0.0
H198 H 0.1833 0.56821 0.91467 0.0
H199 H 0.12713 0.52777 0.92408 0.0
H200 H 0.07589 0.47383 0.95147 0.0
H201 H 0.06766 0.47186 0.98112 0.0
H202 H 0.96473 0.4489 0.97417 0.0
H203 H 0.97273 0.45032 0.94431 0.0
H204 H 0.9462 0.40933 0.90624 0.0
H205 H 0.89911 0.38811 0.8871 0.0
H206 H 0.96712 0.44878 0.84862 0.0
H207 H 1.01413 0.46925 0.86747 0.0
N208 N 1.04342 0.48031 0.89525 0.0
N209 N 0.06283 0.48976 0.92235 0.0
N210 N 1.00597 0.45164 0.9168 0.0
C211 C 0.06902 0.49647 0.90612 0.0
C212 C 1.03143 0.46748 0.92779 0.0
C213 C 1.01189 0.45768 0.90046 0.0
C214 C 0.10309 0.52189 0.90042 0.0
C215 C 0.10867 0.53284 0.88404 0.0
C216 C 0.14094 0.55655 0.87869 0.0
C217 C 0.16835 0.56974 0.88959 0.0
C218 C 0.16264 0.55916 0.90602 0.0
C219 C 0.13041 0.53562 0.91138 0.0
C220 C 1.02499 0.46236 0.9456 0.0
C221 C 1.05133 0.46783 0.95624 0.0
C222 C 1.04656 0.46647 0.9732 0.0
C223 C 1.01553 0.46013 0.97986 0.0
C224 C 0.98885 0.45378 0.96927 0.0
C225 C 0.99342 0.45448 0.95224 0.0
C226 C 0.98392 0.44149 0.88849 0.0
C227 C 0.95122 0.41771 0.89362 0.0
C228 C 0.17143 0.67411 0.46559 0.0
C229 C 0.19971 0.67365 0.47238 0.0
C230 C 0.19535 0.64126 0.47557 0.0
C231 C 0.16495 0.61124 0.47162 0.0
H232 H 1.01614 0.52071 0.48222 0.0
H233 H 0.96384 0.46989 0.49075 0.0
H234 H 0.98171 0.41185 0.45417 0.0
H235 H 1.03308 0.46196 0.44576 0.0
H236 H 1.04919 0.50093 0.40972 0.0
H237 H 1.05042 0.50013 0.3798 0.0
H238 H 0.12391 0.60589 0.37964 0.0
H239 H 0.12274 0.60683 0.40965 0.0
H240 H 0.12136 0.64623 0.45548 0.0
H241 H 0.17232 0.6977 0.46317 0.0
H242 H 0.21593 0.63878 0.48051 0.0
H243 H 0.16368 0.58726 0.4735 0.0
N244 N 0.08342 0.55429 0.46431 0.0
N245 N 1.06049 0.52774 0.43892 0.0
N246 N 0.10892 0.58088 0.43929 0.0
C247 C 1.05877 0.52713 0.45562 0.0
C248 C 0.08507 0.55428 0.43063 0.0
C249 C 0.10892 0.58138 0.45601 0.0
C250 C 1.02964 0.49589 0.46336 0.0
C251 C 1.00931 0.49696 0.47625 0.0
C252 C 0.97885 0.46766 0.481 0.0
C253 C 0.96781 0.43601 0.47325 0.0
C254 C 0.98887 0.43508 0.46073 0.0
C255 C 1.01871 0.46421 0.45585 0.0
C256 C 0.08589 0.55396 0.41224 0.0
C257 C 0.06564 0.52411 0.40337 0.0
C258 C 0.06648 0.52357 0.38615 0.0
C259 C 0.08732 0.55292 0.37724 0.0
C260 C 0.10736 0.58286 0.38607 0.0
C261 C 0.10682 0.58333 0.40332 0.0
C262 C 0.13747 0.61212 0.46429 0.0
C263 C 0.14141 0.6442 0.46144 0.0
C264 C 0.56175 0.14833 0.79355 0.0
C265 C 0.58589 0.17091 0.80482 0.0
C266 C 0.60846 0.16108 0.81136 0.0
C267 C 0.6073 0.13049 0.80653 0.0
H268 H 0.57063 0.99731 0.81593 0.0
H269 H 0.57133 0.94611 0.82465 0.0
H270 H 0.61725 0.94432 0.77848 0.0
H271 H 0.61737 0.99474 0.77019 0.0
H272 H 0.60012 1.01798 0.73839 0.0
H273 H 0.59846 1.0189 0.70846 0.0
H274 H 0.56924 0.09518 0.71097 0.0
H275 H 0.57071 0.09425 0.74088 0.0
H276 H 0.54269 0.10279 0.7794 0.0
H277 H 0.54411 0.15445 0.78789 0.0
H278 H 0.62739 0.17722 0.82015 0.0
H279 H 0.62592 0.12478 0.81136 0.0
N280 N 0.58926 0.05508 0.79423 0.0
N281 N 0.58984 1.03135 0.76843 0.0
N282 N 0.58468 0.07956 0.76962 0.0
C283 C 0.59096 1.03018 0.78512 0.0
C284 C 0.58668 0.05562 0.76056 0.0
C285 C 0.58616 0.08016 0.78631 0.0
C286 C 0.59405 1.00098 0.79228 0.0
C287 C 0.58144 0.98633 0.80778 0.0
C288 C 0.5815 0.95646 0.81271 0.0
C289 C 0.59448 0.94025 0.80241 0.0
C290 C 0.60753 0.95554 0.78712 0.0
C291 C 0.60734 0.98489 0.78224 0.0
C292 C 0.58555 0.05604 0.7422 0.0
C293 C 0.59328 1.03496 0.73261 0.0
C294 C 0.59254 1.03562 0.71539 0.0
C295 C 0.58372 0.05712 0.70722 0.0
C296 C 0.57581 0.07804 0.71679 0.0
C297 C 0.57686 0.07763 0.73401 0.0
C298 C 0.58375 0.1087 0.79482 0.0
C299 C 0.5609 0.11827 0.78863 0.0
C300 C 0.70027 0.53995 0.11876 0.0
C301 C 0.71327 0.54991 0.13474 0.0
C302 C 0.69398 0.55818 0.14566 0.0
C303 C 0.66377 0.55756 0.14053 0.0
H304 H 0.5636 0.59175 0.14285 0.0
H305 H 0.51227 0.59268 0.15149 0.0
H306 H 0.45228 0.50366 0.12227 0.0
H307 H 0.50323 0.50385 0.11335 0.0
H308 H 0.55856 0.57209 0.07334 0.0
H309 H 0.55767 0.57366 0.04331 0.0
H310 H 0.62429 0.5322 0.04076 0.0
H311 H 0.62577 0.53116 0.07075 0.0
H312 H 0.66247 0.53162 0.10118 0.0
H313 H 0.71299 0.53223 0.10995 0.0
H314 H 0.70264 0.56601 0.15811 0.0
H315 H 0.65045 0.5649 0.14918 0.0
N316 N 0.59571 0.55008 0.12654 0.0
N317 N 0.5683 0.55072 0.10208 0.0
N318 N 0.61929 0.55045 0.10061 0.0
C319 C 0.56877 0.55019 0.11879 0.0
C320 C 0.59336 0.55105 0.09289 0.0
C321 C 0.62132 0.55003 0.11729 0.0
C322 C 0.53794 0.54741 0.12752 0.0
C323 C 0.53935 0.57193 0.13862 0.0
C324 C 0.50958 0.57251 0.1435 0.0
C325 C 0.4772 0.5486 0.13746 0.0
C326 C 0.47611 0.52333 0.12696 0.0
C327 C 0.50564 0.52301 0.12201 0.0
C328 C 0.59228 0.55154 0.07455 0.0
C329 C 0.573 0.56326 0.0664 0.0
C330 C 0.5726 0.56431 0.04918 0.0
C331 C 0.59086 0.553 0.03962 0.0
C332 C 0.60975 0.54087 0.04774 0.0
C333 C 0.61073 0.54046 0.06496 0.0
C334 C 0.65168 0.5486 0.12429 0.0
C335 C 0.67055 0.53937 0.11371 0.0
H336 H 0.21534 0.58419 0.18691 0.0
H337 H 0.26899 0.58469 0.18344 0.0
H338 H 0.2288 0.51976 0.14109 0.0
H339 H 0.17463 0.51726 0.1454 0.0
H340 H 0.26376 0.50029 0.15342 0.0
H341 H 0.29574 0.61702 0.14374 0.0
H342 H 0.3028 0.67271 0.15068 0.0
H343 H 0.36168 0.67917 0.19287 0.0
H344 H 0.3547 0.62341 0.18626 0.0
H345 H 0.41914 0.52729 0.11864 0.0
H346 H 0.36739 0.52803 0.12506 0.0
H347 H 0.40868 0.57537 0.17159 0.0
H348 H 0.46073 0.5741 0.16542 0.0
H349 H 0.37479 0.60372 0.15889 0.0
H350 H 0.34576 0.48962 0.16784 0.0
H351 H 0.34042 0.43462 0.16103 0.0
H352 H 0.27657 0.42367 0.12024 0.0
H353 H 0.2819 0.47884 0.12667 0.0
C354 C 0.21792 0.57005 0.17682 0.0
C355 C 0.19012 0.55071 0.16647 0.0
C356 C 0.24913 0.57062 0.17467 0.0
C357 C 0.25441 0.55292 0.16165 0.0
C358 C 0.22644 0.53375 0.1513 0.0
C359 C 0.19506 0.53242 0.15375 0.0
C360 C 0.2881 0.55334 0.15888 0.0
C361 C 0.28781 0.52329 0.15436 0.0
C362 C 0.32054 0.58261 0.16059 0.0
C363 C 0.32442 0.61594 0.1646 0.0
C364 C 0.31 0.63025 0.15455 0.0
C365 C 0.31401 0.66183 0.15842 0.0
C366 C 0.33261 0.67941 0.17224 0.0
C367 C 0.34724 0.66549 0.18219 0.0
C368 C 0.34329 0.63393 0.17839 0.0
C369 C 0.41746 0.53738 0.13044 0.0
C370 C 0.44495 0.5501 0.14152 0.0
C371 C 0.38737 0.53792 0.13409 0.0
C372 C 0.38306 0.55124 0.14902 0.0
C373 C 0.41066 0.56477 0.15998 0.0
C374 C 0.44083 0.5641 0.15636 0.0
C375 C 0.35005 0.55102 0.15302 0.0
C376 C 0.35056 0.58093 0.15784 0.0
C377 C 0.31779 0.5217 0.15153 0.0
C378 C 0.31449 0.48851 0.14765 0.0
C379 C 0.33078 0.4756 0.15734 0.0
C380 C 0.32773 0.44437 0.15357 0.0
C381 C 0.30824 0.4257 0.14019 0.0
C382 C 0.2917 0.43818 0.13059 0.0
C383 C 0.2947 0.46942 0.1343 0.0
H384 H 0.3059 0.40153 0.13729 0.0
H385 H 0.33585 0.70387 0.17523 0.0
H386 H 0.71035 0.13101 0.50295 0.0
H387 H 0.76336 0.1833 0.4986 0.0
H388 H 0.70812 0.23584 0.49102 0.0
H389 H 0.65514 0.18291 0.49413 0.0
H390 H 0.75576 0.26544 0.47277 0.0
H391 H 0.76114 0.24041 0.52874 0.0
H392 H 0.75949 0.20727 0.55278 0.0
H393 H 0.84255 0.19875 0.53321 0.0
H394 H 0.84444 0.23151 0.50895 0.0
H395 H 0.90529 0.42909 0.48205 0.0
H396 H 0.85169 0.37761 0.48759 0.0
H397 H 0.90015 0.31838 0.48003 0.0
H398 H 0.95369 0.36958 0.47461 0.0
H399 H 0.85638 0.29452 0.50673 0.0
H400 H 0.84369 0.3181 0.44887 0.0
H401 H 0.84467 0.35617 0.42729 0.0
H402 H 0.77499 0.37425 0.45525 0.0
H403 H 0.77432 0.33664 0.47702 0.0
C404 C 0.70934 0.15367 0.50045 0.0
C405 C 0.67776 0.15215 0.49917 0.0
C406 C 0.74012 0.18415 0.49808 0.0
C407 C 0.741 0.21496 0.49487 0.0
C408 C 0.70928 0.21326 0.49348 0.0
C409 C 0.67851 0.18261 0.49544 0.0
C410 C 0.77441 0.2484 0.49269 0.0
C411 C 0.77736 0.27151 0.48047 0.0
C412 C 0.80375 0.25786 0.50243 0.0
C413 C 0.80268 0.23809 0.51695 0.0
C414 C 0.7789 0.23126 0.52951 0.0
C415 C 0.77794 0.21258 0.54318 0.0
C416 C 0.80083 0.20083 0.5445 0.0
C417 C 0.82479 0.20782 0.53216 0.0
C418 C 0.82584 0.22646 0.51845 0.0
C419 C 0.90482 0.40523 0.48166 0.0
C420 C 0.93456 0.40423 0.47768 0.0
C421 C 0.87372 0.37543 0.4847 0.0
C422 C 0.87098 0.34327 0.48405 0.0
C423 C 0.90083 0.34234 0.48057 0.0
C424 C 0.93176 0.37201 0.47734 0.0
C425 C 0.8374 0.31078 0.48684 0.0
C426 C 0.83455 0.28802 0.49913 0.0
C427 C 0.80794 0.30209 0.47754 0.0
C428 C 0.80852 0.32441 0.46441 0.0
C429 C 0.82858 0.33021 0.45035 0.0
C430 C 0.82918 0.35173 0.43812 0.0
C431 C 0.80981 0.36753 0.43986 0.0
C432 C 0.78987 0.3619 0.45385 0.0
C433 C 0.78928 0.34044 0.4661 0.0
H434 H 0.81031 0.38419 0.43038 0.0
H435 H 0.80005 0.18637 0.5551 0.0
H436 H 0.55079 0.63803 0.84275 0.0
H437 H 0.54875 0.69012 0.83969 0.0
H438 H 0.64231 0.73365 0.81266 0.0
H439 H 0.6451 0.68211 0.8164 0.0
H440 H 0.64546 0.78108 0.82975 0.0
H441 H 0.55374 0.70257 0.7947 0.0
H442 H 0.50147 0.64889 0.78958 0.0
H443 H 0.45125 0.67202 0.82798 0.0
H444 H 0.50312 0.72595 0.83327 0.0
H445 H 0.64049 0.91933 0.79395 0.0
H446 H 0.63909 0.86663 0.79957 0.0
H447 H 0.54805 0.83318 0.82781 0.0
H448 H 0.54843 0.88578 0.82154 0.0
H449 H 0.54156 0.78038 0.81181 0.0
H450 H 0.63063 0.86038 0.84542 0.0
H451 H 0.68295 0.91273 0.85221 0.0
H452 H 0.73852 0.88569 0.81857 0.0
H453 H 0.68643 0.83335 0.81141 0.0
C454 C 0.57099 0.65861 0.83612 0.0
C455 C 0.59808 0.6552 0.82981 0.0
C456 C 0.56966 0.6887 0.83419 0.0
C457 C 0.59494 0.71657 0.82551 0.0
C458 C 0.62218 0.71318 0.81938 0.0
C459 C 0.62376 0.6833 0.82151 0.0
C460 C 0.59356 0.74914 0.82295 0.0
C461 C 0.62274 0.78063 0.82556 0.0
C462 C 0.5639 0.74974 0.81806 0.0
C463 C 0.53228 0.7182 0.81439 0.0
C464 C 0.53147 0.69625 0.80199 0.0
C465 C 0.50191 0.66582 0.79906 0.0
C466 C 0.47301 0.65713 0.80842 0.0
C467 C 0.47357 0.67892 0.82068 0.0
C468 C 0.50298 0.70948 0.8236 0.0
C469 C 0.61979 0.90092 0.80125 0.0
C470 C 0.59445 0.90771 0.80711 0.0
C471 C 0.6193 0.87045 0.8047 0.0
C472 C 0.59374 0.84516 0.81442 0.0
C473 C 0.56832 0.85173 0.82033 0.0
C474 C 0.56876 0.88235 0.81684 0.0
C475 C 0.59377 0.81231 0.81823 0.0
C476 C 0.56432 0.78083 0.81592 0.0
C477 C 0.62317 0.81167 0.8235 0.0
C478 C 0.65455 0.8431 0.82776 0.0
C479 C 0.65396 0.86571 0.83938 0.0
C480 C 0.68359 0.89537 0.84331 0.0
C481 C 0.71403 0.90257 0.8358 0.0
C482 C 0.71492 0.88009 0.82436 0.0
C483 C 0.68535 0.85041 0.82037 0.0
H484 H 0.73694 0.92554 0.83886 0.0
H485 H 0.45021 0.63346 0.80622 0.0
H486 H 1.01452 0.5983 0.17866 0.0
H487 H 0.96163 0.59837 0.1734 0.0
H488 H 0.92053 0.50113 0.15024 0.0
H489 H 0.97306 0.50067 0.15571 0.0
H490 H 0.87147 0.50191 0.16816 0.0
H491 H 0.92987 0.64414 0.1555 0.0
H492 H 0.98276 0.69098 0.14462 0.0
H493 H 1.00093 0.62113 0.11702 0.0
H494 H 0.94797 0.57399 0.12755 0.0
H495 H 0.73424 0.53778 0.16502 0.0
H496 H 0.78692 0.53843 0.17174 0.0
H497 H 0.82134 0.56576 0.12196 0.0
H498 H 0.76976 0.56655 0.11538 0.0
H499 H 0.87349 0.59824 0.13986 0.0
H500 H 0.78734 0.48269 0.13931 0.0
H501 H 0.73338 0.43401 0.14775 0.0
H502 H 0.7691 0.44539 0.19728 0.0
H503 H 0.82327 0.49417 0.18917 0.0
C504 C 0.99424 0.57674 0.17255 0.0
C505 C 0.99868 0.54946 0.16771 0.0
C506 C 0.96374 0.57686 0.16942 0.0
C507 C 0.93633 0.54976 0.16129 0.0
C508 C 0.94062 0.52235 0.15665 0.0
C509 C 0.97108 0.52222 0.15975 0.0
C510 C 0.90374 0.55024 0.1574 0.0
C511 C 0.8721 0.52314 0.16205 0.0
C512 C 0.90355 0.57731 0.14906 0.0
C513 C 0.93515 0.60555 0.14246 0.0
C514 C 0.9451 0.63882 0.14706 0.0
C515 C 0.9751 0.66541 0.14096 0.0
C516 C 0.99525 0.65903 0.13018 0.0
C517 C 0.98538 0.62605 0.12542 0.0
C518 C 0.95539 0.59938 0.13146 0.0
C519 C 0.75304 0.54428 0.15548 0.0
C520 C 0.74665 0.55162 0.13949 0.0
C521 C 0.78339 0.5443 0.15933 0.0
C522 C 0.80872 0.55153 0.14736 0.0
C523 C 0.80275 0.55981 0.13157 0.0
C524 C 0.77258 0.55984 0.12774 0.0
C525 C 0.84109 0.55031 0.15105 0.0
C526 C 0.87274 0.57714 0.14618 0.0
C527 C 0.84117 0.52267 0.15893 0.0
C528 C 0.80921 0.4924 0.16367 0.0
C529 C 0.78363 0.47492 0.15203 0.0
C530 C 0.75302 0.44728 0.15675 0.0
C531 C 0.74773 0.43678 0.17307 0.0
C532 C 0.77323 0.45354 0.18465 0.0
C533 C 0.80393 0.48115 0.17999 0.0
H534 H 0.7239 0.4156 0.17673 0.0
H535 H 1.01848 0.67965 0.12549 0.0
H536 H 0.46118 0.9822 0.48164 0.0
H537 H 0.40964 0.92858 0.47749 0.0
H538 H 0.44993 0.87921 0.50706 0.0
H539 H 0.50251 0.93292 0.51054 0.0
H540 H 0.41647 0.83681 0.48535 0.0
H541 H 0.38204 0.89937 0.51947 0.0
H542 H 0.37512 0.94727 0.52828 0.0
H543 H 0.31845 0.93713 0.48466 0.0
H544 H 0.32539 0.88941 0.47549 0.0
H545 H 0.25244 0.68665 0.49429 0.0
H546 H 0.30569 0.73862 0.49889 0.0
H547 H 0.27805 0.78885 0.46296 0.0
H548 H 0.22555 0.737 0.45774 0.0
H549 H 0.30472 0.82969 0.48909 0.0
H550 H 0.33966 0.76457 0.456 0.0
H551 H 0.34694 0.71611 0.44881 0.0
H552 H 0.40218 0.72985 0.49336 0.0
H553 H 0.39484 0.77812 0.50093 0.0
C554 C 0.45925 0.96007 0.48737 0.0
C555 C 0.48654 0.96264 0.49661 0.0
C556 C 0.4292 0.92898 0.48508 0.0
C557 C 0.42445 0.89892 0.49227 0.0
C558 C 0.45198 0.9014 0.50134 0.0
C559 C 0.48235 0.9325 0.50342 0.0
C560 C 0.39135 0.86531 0.49013 0.0
C561 C 0.39216 0.83548 0.48647 0.0
C562 C 0.35877 0.86237 0.49126 0.0
C563 C 0.35453 0.89104 0.49672 0.0
C564 C 0.3683 0.9075 0.51171 0.0
C565 C 0.36435 0.9346 0.51677 0.0
C566 C 0.34644 0.9453 0.50702 0.0
C567 C 0.33236 0.92885 0.49219 0.0
C568 C 0.33627 0.90176 0.48706 0.0
C569 C 0.25748 0.70837 0.48709 0.0
C570 C 0.23335 0.70642 0.47558 0.0
C571 C 0.28842 0.73858 0.48984 0.0
C572 C 0.29681 0.76846 0.48129 0.0
C573 C 0.27282 0.76673 0.46992 0.0
C574 C 0.24212 0.73653 0.46702 0.0
C575 C 0.32996 0.80143 0.48423 0.0
C576 C 0.3291 0.83112 0.48804 0.0
C577 C 0.36238 0.80405 0.48355 0.0
C578 C 0.36633 0.77471 0.47913 0.0
C579 C 0.35304 0.75703 0.46435 0.0
C580 C 0.35725 0.72965 0.46019 0.0
C581 C 0.37491 0.71984 0.47065 0.0
C582 C 0.38841 0.7374 0.4853 0.0
C583 C 0.38426 0.76479 0.48952 0.0
H584 H 0.37823 0.69869 0.46738 0.0
H585 H 0.3434 0.96628 0.51096 0.0
H586 H 0.64806 0.48458 0.82823 0.0
H587 H 0.64773 0.43138 0.82445 0.0
H588 H 0.53966 0.37733 0.83004 0.0
H589 H 0.54012 0.43067 0.8343 0.0
H590 H 0.5594 0.34082 0.84365 0.0
H591 H 0.58486 0.38885 0.79045 0.0
H592 H 0.61471 0.43312 0.76983 0.0
H593 H 0.70776 0.43642 0.78162 0.0
H594 H 0.67859 0.3926 0.80262 0.0
H595 H 0.53369 0.18565 0.80782 0.0
H596 H 0.53636 0.23954 0.81308 0.0
H597 H 0.64426 0.28764 0.81739 0.0
H598 H 0.64199 0.23378 0.81165 0.0
H599 H 0.62581 0.32723 0.79883 0.0
H600 H 0.59385 0.27262 0.8513 0.0
H601 H 0.55915 0.22659 0.87035 0.0
H602 H 0.47179 0.23374 0.85764 0.0
H603 H 0.50589 0.27953 0.83833 0.0
C604 C 0.6241 0.46148 0.82858 0.0
C605 C 0.5941 0.46259 0.83146 0.0
C606 C 0.62388 0.43064 0.8263 0.0
C607 C 0.59356 0.39938 0.82651 0.0
C608 C 0.56362 0.40048 0.82971 0.0
C609 C 0.56388 0.43134 0.83214 0.0
C610 C 0.59307 0.36592 0.82347 0.0
C611 C 0.57367 0.33802 0.83367 0.0
C612 C 0.61178 0.36122 0.81064 0.0
C613 C 0.62956 0.38743 0.79807 0.0
C614 C 0.61173 0.39909 0.78868 0.0
C615 C 0.62851 0.42411 0.77696 0.0
C616 C 0.66308 0.43743 0.77441 0.0
C617 C 0.68095 0.42587 0.78359 0.0
C618 C 0.66432 0.40094 0.7954 0.0
C619 C 0.55822 0.20756 0.80973 0.0
C620 C 0.58763 0.20451 0.80914 0.0
C621 C 0.55967 0.23872 0.81291 0.0
C622 C 0.59058 0.26851 0.81564 0.0
C623 C 0.61999 0.26562 0.81516 0.0
C624 C 0.61857 0.23434 0.81207 0.0
C625 C 0.59203 0.30224 0.81898 0.0
C626 C 0.61164 0.33016 0.80882 0.0
C627 C 0.57287 0.30671 0.83162 0.0
C628 C 0.55237 0.27929 0.84326 0.0
C629 C 0.56719 0.2642 0.85247 0.0
C630 C 0.54763 0.23819 0.86334 0.0
C631 C 0.51327 0.22719 0.86517 0.0
C632 C 0.4984 0.24226 0.85619 0.0
C633 C 0.51783 0.26826 0.8453 0.0
H634 H 0.49817 0.20704 0.87359 0.0
H635 H 0.67598 0.45667 0.7653 0.0
H636 H 0.58897 0.86429 0.49255 0.0
H637 H 0.57504 0.8056 0.49159 0.0
H638 H 0.51632 0.78641 0.53602 0.0
H639 H 0.53143 0.84572 0.53732 0.0
H640 H 0.55693 0.76476 0.5397 0.0
H641 H 0.47999 0.74878 0.49762 0.0
H642 H 0.45852 0.76038 0.47225 0.0
H643 H 0.53138 0.74835 0.4438 0.0
H644 H 0.55379 0.73731 0.469 0.0
H645 H 0.53906 0.60609 0.54029 0.0
H646 H 0.51475 0.64094 0.53244 0.0
H647 H 0.59841 0.69704 0.49967 0.0
H648 H 0.62334 0.6629 0.50772 0.0
H649 H 0.53073 0.69118 0.49053 0.0
H650 H 0.6147 0.7237 0.53514 0.0
H651 H 0.63382 0.70957 0.5606 0.0
H652 H 0.54107 0.68775 0.58449 0.0
H653 H 0.52118 0.70115 0.55903 0.0
C654 C 0.57248 0.84735 0.50191 0.0
C655 C 0.56141 0.85945 0.51506 0.0
C656 C 0.56427 0.8137 0.50128 0.0
C657 C 0.54424 0.79134 0.51363 0.0
C658 C 0.53178 0.80314 0.52636 0.0
C659 C 0.54048 0.83697 0.52713 0.0
C660 C 0.54053 0.7573 0.51444 0.0
C661 C 0.55015 0.74833 0.52903 0.0
C662 C 0.53212 0.73581 0.50052 0.0
C663 C 0.5187 0.74235 0.48526 0.0
C664 C 0.49163 0.74883 0.48597 0.0
C665 C 0.47924 0.75527 0.47162 0.0
C666 C 0.49356 0.75509 0.45643 0.0
C667 C 0.52029 0.74845 0.45557 0.0
C668 C 0.53282 0.74206 0.46989 0.0
C669 C 0.55178 0.6252 0.53104 0.0
C670 C 0.58357 0.6324 0.52496 0.0
C671 C 0.53764 0.64479 0.52643 0.0
C672 C 0.55504 0.67172 0.51565 0.0
C673 C 0.58456 0.67621 0.50796 0.0
C674 C 0.59885 0.65672 0.51263 0.0
C675 C 0.54756 0.69959 0.5156 0.0
C676 C 0.53627 0.70738 0.50121 0.0
C677 C 0.55391 0.71992 0.52974 0.0
C678 C 0.56635 0.71308 0.54518 0.0
C679 C 0.59835 0.71573 0.54581 0.0
C680 C 0.60931 0.70785 0.56022 0.0
C681 C 0.58864 0.6977 0.57414 0.0
C682 C 0.55702 0.69555 0.57369 0.0
C683 C 0.54589 0.70328 0.55928 0.0
H684 H 0.59714 0.69156 0.58529 0.0
H685 H 0.48393 0.76007 0.44533 0.0
H686 H 0.79361 0.54819 0.79063 0.0
H687 H 0.82208 0.51491 0.79148 0.0
H688 H 0.73886 0.43841 0.81915 0.0
H689 H 0.7101 0.47132 0.81801 0.0
H690 H 0.84293 0.50609 0.8193 0.0
H691 H 0.73823 0.36355 0.81697 0.0
H692 H 0.68905 0.32586 0.80007 0.0
H693 H 0.7277 0.39565 0.76021 0.0
H694 H 0.77747 0.43356 0.7767 0.0
H695 H 0.87175 0.41673 0.87534 0.0
H696 H 0.83242 0.42173 0.85721 0.0
H697 H 0.88241 0.40869 0.81506 0.0
H698 H 0.92192 0.403 0.83321 0.0
H699 H 0.80086 0.38347 0.81493 0.0
H700 H 0.91594 0.47828 0.8187 0.0
H701 H 0.96745 0.51413 0.83463 0.0
H702 H 0.91063 0.54098 0.86757 0.0
H703 H 0.85864 0.50466 0.85201 0.0
C704 C 0.78106 0.52385 0.7965 0.0
C705 C 0.74984 0.51238 0.80437 0.0
C706 C 0.79722 0.50479 0.79691 0.0
C707 C 0.78263 0.47414 0.80536 0.0
C708 C 0.75041 0.46167 0.81232 0.0
C709 C 0.73408 0.48059 0.81176 0.0
C710 C 0.80347 0.45881 0.80973 0.0
C711 C 0.83393 0.47939 0.81792 0.0
C712 C 0.79191 0.42394 0.808 0.0
C713 C 0.76156 0.40157 0.79816 0.0
C714 C 0.73634 0.37086 0.80459 0.0
C715 C 0.70834 0.34942 0.79507 0.0
C716 C 0.7052 0.35836 0.77911 0.0
C717 C 0.73013 0.38875 0.77259 0.0
C718 C 0.7582 0.4103 0.78204 0.0
C719 C 0.87352 0.41324 0.86228 0.0
C720 C 0.90034 0.41003 0.8557 0.0
C721 C 0.85093 0.41609 0.85193 0.0
C722 C 0.85477 0.41579 0.83486 0.0
C723 C 0.87905 0.4088 0.82823 0.0
C724 C 0.9018 0.40598 0.83861 0.0
C725 C 0.8393 0.43081 0.8246 0.0
C726 C 0.80996 0.41026 0.81565 0.0
C727 C 0.85207 0.46587 0.82522 0.0
C728 C 0.88343 0.48858 0.83428 0.0
C729 C 0.91443 0.49166 0.82941 0.0
C730 C 0.94369 0.51206 0.83837 0.0
C731 C 0.9423 0.52978 0.85213 0.0
C732 C 0.91166 0.52722 0.85692 0.0
C733 C 0.88229 0.50674 0.84803 0.0
H734 H 0.96498 0.54555 0.85905 0.0
H735 H 0.68342 0.34177 0.7718 0.0
H736 H 0.28088 0.77964 0.1994 0.0
H737 H 0.33808 0.82495 0.19404 0.0
H738 H 0.35113 0.76415 0.1572 0.0
H739 H 0.29295 0.71901 0.16188 0.0
H740 H 0.4053 0.7983 0.18351 0.0
H741 H 0.34908 0.82041 0.14085 0.0
H742 H 0.30316 0.82596 0.12823 0.0
H743 H 0.32197 0.90655 0.16154 0.0
H744 H 0.36764 0.90114 0.17455 0.0
H745 H 0.52706 0.99568 0.17375 0.0
H746 H 0.49151 0.94035 0.16125 0.0
H747 H 0.46118 0.89693 0.2094 0.0
H748 H 0.49538 0.95173 0.22191 0.0
H749 H 0.42463 0.90955 0.16525 0.0
H750 H 0.438 0.81625 0.20947 0.0
H751 H 0.4837 0.81057 0.22221 0.0
H752 H 0.55245 0.87234 0.18469 0.0
H753 H 0.50707 0.878 0.17154 0.0
C754 C 0.29566 0.77599 0.18998 0.0
C755 C 0.28242 0.7457 0.18108 0.0
C756 C 0.32836 0.80182 0.18701 0.0
C757 C 0.34857 0.79777 0.1752 0.0
C758 C 0.33577 0.76758 0.16636 0.0
C759 C 0.30272 0.74182 0.16916 0.0
C760 C 0.38324 0.82546 0.17261 0.0
C761 C 0.40992 0.8226 0.17926 0.0
C762 C 0.3891 0.85667 0.16653 0.0
C763 C 0.36178 0.8603 0.1587 0.0
C764 C 0.34329 0.83918 0.14556 0.0
C765 C 0.31731 0.84232 0.13833 0.0
C766 C 0.30964 0.86659 0.14408 0.0
C767 C 0.32796 0.88779 0.15708 0.0
C768 C 0.35395 0.88473 0.16437 0.0
C769 C 0.5132 0.97424 0.18168 0.0
C770 C 0.51373 0.97833 0.19885 0.0
C771 C 0.4932 0.94261 0.1745 0.0
C772 C 0.47388 0.91451 0.18438 0.0
C773 C 0.47642 0.91811 0.20152 0.0
C774 C 0.49607 0.94965 0.20868 0.0
C775 C 0.44641 0.88306 0.17727 0.0
C776 C 0.42078 0.88516 0.16887 0.0
C777 C 0.44167 0.85119 0.18169 0.0
C778 C 0.46903 0.84758 0.1895 0.0
C779 C 0.46276 0.82841 0.20383 0.0
C780 C 0.48866 0.82525 0.21116 0.0
C781 C 0.52096 0.8411 0.20427 0.0
C782 C 0.52744 0.86013 0.19003 0.0
C783 C 0.50164 0.86337 0.18265 0.0
H784 H 0.54097 0.83864 0.20997 0.0
H785 H 0.28952 0.86898 0.13847 0.0
H786 H 0.59645 0.27255 0.47761 0.0
H787 H 0.64069 0.33157 0.47845 0.0
H788 H 0.71569 0.30215 0.46881 0.0
H789 H 0.67144 0.24313 0.46887 0.0
H790 H 0.73347 0.33897 0.49393 0.0
H791 H 0.70368 0.35486 0.44159 0.0
H792 H 0.66742 0.35003 0.41825 0.0
H793 H 0.6284 0.40406 0.44549 0.0
H794 H 0.66401 0.40879 0.4691 0.0
H795 H 0.78264 0.53184 0.50169 0.0
H796 H 0.78038 0.48676 0.4844 0.0
H797 H 0.73946 0.41827 0.52512 0.0
H798 H 0.74143 0.46265 0.54221 0.0
H799 H 0.72541 0.43733 0.47518 0.0
H800 H 0.74713 0.35253 0.52287 0.0
H801 H 0.79218 0.35826 0.54137 0.0
H802 H 0.86434 0.44589 0.51531 0.0
H803 H 0.81984 0.44053 0.49651 0.0
C804 C 0.62231 0.27898 0.47517 0.0
C805 C 0.63082 0.25373 0.47305 0.0
C806 C 0.64761 0.31266 0.47554 0.0
C807 C 0.68168 0.3215 0.47358 0.0
C808 C 0.68974 0.29611 0.47037 0.0
C809 C 0.66451 0.26245 0.47027 0.0
C810 C 0.7086 0.35626 0.47749 0.0
C811 C 0.73236 0.36065 0.48951 0.0
C812 C 0.70811 0.38475 0.47129 0.0
C813 C 0.68654 0.38213 0.45715 0.0
C814 C 0.68723 0.36555 0.44265 0.0
C815 C 0.66679 0.36285 0.42936 0.0
C816 C 0.64561 0.37672 0.43039 0.0
C817 C 0.64485 0.39336 0.44471 0.0
C818 C 0.66523 0.39613 0.45804 0.0
C819 C 0.77399 0.50734 0.50704 0.0
C820 C 0.7617 0.50075 0.52327 0.0
C821 C 0.77288 0.48165 0.49717 0.0
C822 C 0.75968 0.449 0.50339 0.0
C823 C 0.75039 0.44329 0.52003 0.0
C824 C 0.75146 0.46886 0.52986 0.0
C825 C 0.74906 0.41965 0.49222 0.0
C826 C 0.72792 0.41605 0.47897 0.0
C827 C 0.75351 0.39227 0.49654 0.0
C828 C 0.78001 0.39621 0.50829 0.0
C829 C 0.7726 0.37299 0.52103 0.0
C830 C 0.79806 0.37619 0.5316 0.0
C831 C 0.83108 0.40246 0.52954 0.0
C832 C 0.83871 0.42565 0.51694 0.0
C833 C 0.81334 0.42261 0.50636 0.0
H834 H 0.85077 0.40482 0.53769 0.0
H835 H 0.6298 0.37459 0.42009 0.0
H836 H 0.41311 0.58862 0.83312 0.0
H837 H 0.37629 0.61197 0.83851 0.0
H838 H 0.42805 0.65433 0.88421 0.0
H839 H 0.46445 0.62998 0.87899 0.0
H840 H 0.36575 0.61681 0.89005 0.0
H841 H 0.42181 0.70787 0.85399 0.0
H842 H 0.45186 0.73932 0.82923 0.0
H843 H 0.36537 0.67608 0.79972 0.0
H844 H 0.33465 0.64444 0.82432 0.0
H845 H 0.21912 0.625 0.90506 0.0
H846 H 0.27917 0.65341 0.89807 0.0
H847 H 0.25657 0.59372 0.85385 0.0
H848 H 0.19682 0.56485 0.86083 0.0
H849 H 0.314 0.66019 0.8508 0.0
H850 H 0.26694 0.56207 0.88766 0.0
H851 H 0.2374 0.53316 0.91304 0.0
H852 H 0.31172 0.61493 0.94196 0.0
H853 H 0.34136 0.64455 0.9167 0.0
C854 C 0.41728 0.60376 0.84408 0.0
C855 C 0.44124 0.60713 0.85576 0.0
C856 C 0.3964 0.61742 0.8471 0.0
C857 C 0.39944 0.63516 0.86175 0.0
C858 C 0.42521 0.64077 0.87283 0.0
C859 C 0.44584 0.62672 0.86989 0.0
C860 C 0.37174 0.64146 0.8668 0.0
C861 C 0.35526 0.62753 0.88169 0.0
C862 C 0.35765 0.65512 0.85593 0.0
C863 C 0.37597 0.67372 0.84101 0.0
C864 C 0.40922 0.70061 0.84221 0.0
C865 C 0.42631 0.71858 0.82822 0.0
C866 C 0.41056 0.70965 0.81291 0.0
C867 C 0.37755 0.68295 0.81159 0.0
C868 C 0.3602 0.66513 0.82557 0.0
C869 C 0.22689 0.6184 0.89368 0.0
C870 C 0.20328 0.59215 0.88368 0.0
C871 C 0.26114 0.63492 0.88963 0.0
C872 C 0.27224 0.62536 0.87555 0.0
C873 C 0.24845 0.60157 0.86473 0.0
C874 C 0.21425 0.585 0.86878 0.0
C875 C 0.30804 0.63463 0.87366 0.0
C876 C 0.32562 0.65105 0.85939 0.0
C877 C 0.32356 0.62374 0.88519 0.0
C878 C 0.30609 0.60566 0.90034 0.0
C879 C 0.27684 0.57394 0.89944 0.0
C880 C 0.26009 0.55743 0.91379 0.0
C881 C 0.27262 0.57224 0.9291 0.0
C882 C 0.30199 0.60353 0.93009 0.0
C883 C 0.31876 0.62019 0.91577 0.0
H884 H 0.25963 0.55943 0.9402 0.0
H885 H 0.42394 0.72344 0.80208 0.0
H886 H 0.87788 0.37362 0.13764 0.0
H887 H 0.81889 0.35952 0.14021 0.0
H888 H 0.84727 0.44022 0.17527 0.0
H889 H 0.90615 0.45448 0.17276 0.0
H890 H 0.80131 0.38151 0.18737 0.0
H891 H 0.81689 0.44189 0.13864 0.0
H892 H 0.83274 0.45983 0.11007 0.0
H893 H 0.75827 0.36206 0.09291 0.0
H894 H 0.74211 0.34328 0.12143 0.0
H895 H 0.635 0.31853 0.20574 0.0
H896 H 0.68468 0.3628 0.19195 0.0
H897 H 0.68279 0.29012 0.15734 0.0
H898 H 0.63391 0.24582 0.17114 0.0
H899 H 0.71496 0.35688 0.14464 0.0
H900 H 0.71694 0.29356 0.19191 0.0
H901 H 0.70035 0.27184 0.22003 0.0
H902 H 0.7443 0.37274 0.23878 0.0
H903 H 0.76069 0.39497 0.21071 0.0
C904 C 0.87165 0.38885 0.14559 0.0
C905 C 0.89658 0.4148 0.15519 0.0
C906 C 0.83797 0.38088 0.14699 0.0
C907 C 0.82879 0.39894 0.1579 0.0
C908 C 0.85388 0.42601 0.16679 0.0
C909 C 0.88744 0.43389 0.16545 0.0
C910 C 0.79286 0.38654 0.16179 0.0
C911 C 0.78261 0.37709 0.17806 0.0
C912 C 0.76842 0.37998 0.14956 0.0
C913 C 0.77819 0.39113 0.1323 0.0
C914 C 0.80388 0.42409 0.12883 0.0
C915 C 0.81295 0.43445 0.11261 0.0
C916 C 0.79651 0.41211 0.09968 0.0
C917 C 0.77094 0.37937 0.10295 0.0
C918 C 0.76176 0.36888 0.11916 0.0
C919 C 0.64445 0.31218 0.19485 0.0
C920 C 0.63114 0.27848 0.18989 0.0
C921 C 0.67262 0.33759 0.18686 0.0
C922 C 0.68777 0.32951 0.17387 0.0
C923 C 0.6715 0.29684 0.16737 0.0
C924 C 0.64344 0.27142 0.17536 0.0
C925 C 0.72387 0.35166 0.17006 0.0
C926 C 0.73403 0.36245 0.15389 0.0
C927 C 0.74853 0.35915 0.18227 0.0
C928 C 0.73948 0.34591 0.1992 0.0
C929 C 0.72283 0.31109 0.20202 0.0
C930 C 0.71351 0.29868 0.21795 0.0
C931 C 0.72113 0.32089 0.23118 0.0
C932 C 0.73827 0.35556 0.22851 0.0
C933 C 0.74756 0.36808 0.21259 0.0
H934 H 0.71385 0.31124 0.2435 0.0
H935 H 0.80358 0.42017 0.08712 0.0
H936 H 0.07108 0.59427 0.12336 0.0
H937 H 1.05086 0.57255 0.09565 0.0
H938 H 0.08724 0.5022 0.10074 0.0
H939 H 0.10855 0.5247 0.1281 0.0
H940 H 0.10333 0.53148 0.07171 0.0
H941 H 1.00296 0.48011 0.10572 0.0
H942 H 0.96272 0.48246 0.1253 0.0
H943 H 0.93896 0.53734 0.09052 0.0
H944 H 0.97972 0.5362 0.07084 0.0
H945 H 1.03107 0.42952 0.00407 0.0
H946 H 1.0377 0.44407 0.03331 0.0
H947 H 1.00183 0.51395 0.02511 0.0
H948 H 0.9943 0.49874 0.99591 0.0
H949 H 0.98367 0.48577 0.05567 0.0
H950 H 0.084 0.54106 0.02286 0.0
H951 H 0.1264 0.54391 0.00304 0.0
H952 H 0.15168 0.48637 0.03548 0.0
H953 H 0.10897 0.48267 0.05538 0.0
C954 C 0.07495 0.57436 0.11846 0.0
C955 C 0.09104 0.56087 0.12784 0.0
C956 C 0.06314 0.56178 0.10273 0.0
C957 C 0.06697 0.53531 0.09628 0.0
C958 C 0.0838 0.52246 0.10554 0.0
C959 C 0.09586 0.53523 0.12116 0.0
C960 C 1.05413 0.52126 0.07976 0.0
C961 C 0.07705 0.52102 0.06831 0.0
C962 C 1.02003 0.50869 0.07517 0.0
C963 C 0.99462 0.50827 0.08682 0.0
C964 C 0.98928 0.4928 0.10225 0.0
C965 C 0.96637 0.49392 0.11338 0.0
C966 C 0.94826 0.50994 0.10915 0.0
C967 C 0.95299 0.5249 0.09377 0.0
C968 C 0.97601 0.52405 0.08262 0.0
C969 C 1.02376 0.44729 0.00862 0.0
C970 C 1.01256 0.46332 0.99778 0.0
C971 C 1.02756 0.45561 0.02528 0.0
C972 C 1.02099 0.48066 0.03128 0.0
C973 C 1.00712 0.49464 0.02072 0.0
C974 C 1.00286 0.48596 0.00406 0.0
C975 C 1.03279 0.49528 0.04784 0.0
C976 C 1.00983 0.49595 0.05919 0.0
C977 C 0.06699 0.5087 0.05236 0.0
C978 C 0.09306 0.51131 0.04053 0.0
C979 C 0.09845 0.52883 0.02572 0.0
C980 C 0.12254 0.5306 0.01447 0.0
C981 C 0.14166 0.51527 0.01798 0.0
C982 C 0.1368 0.4982 0.03277 0.0
C983 C 0.11266 0.49625 0.04403 0.0
H984 H 0.16031 0.51667 0.00926 0.0
H985 H 0.93054 0.51075 0.11779 0.0
H986 H 0.65079 0.08157 0.45372 0.0
H987 H 0.64967 0.10024 0.42573 0.0
H988 H 0.54217 0.06024 0.42977 0.0
H989 H 0.5431 0.04096 0.45758 0.0
H990 H 0.56056 0.04426 0.40058 0.0
H991 H 0.59734 0.14261 0.43513 0.0
H992 H 0.63557 0.18319 0.45569 0.0
H993 H 0.71889 0.215 0.42233 0.0
H994 H 0.6815 0.1736 0.40179 0.0
H995 H 0.53019 0.11349 0.33191 0.0
H996 H 0.53544 0.10408 0.36098 0.0
H997 H 0.64344 0.15078 0.35542 0.0
H998 H 0.63827 0.16111 0.32635 0.0
H999 H 0.62718 0.16467 0.38542 0.0
H1000 H 0.59519 0.06672 0.35228 0.0
H1001 H 0.56122 1.023 0.33186 0.0
H1002 H 0.47329 0.98953 0.36228 0.0
H1003 H 0.50665 1.03344 0.38277 0.0
C1004 C 0.62694 0.07659 0.44855 0.0
C1005 C 0.59707 0.06016 0.45777 0.0
C1006 C 0.62636 0.08743 0.43264 0.0
C1007 C 0.59592 0.08206 0.42581 0.0
C1008 C 0.56594 0.06479 0.43488 0.0
C1009 C 0.56651 0.05393 0.45075 0.0
C1010 C 0.59509 0.09429 0.40917 0.0
C1011 C 0.57475 0.07064 0.39733 0.0
C1012 C 0.61453 0.12863 0.40486 0.0
C1013 C 0.63662 0.15471 0.41694 0.0
C1014 C 0.62384 0.15811 0.43219 0.0
C1015 C 0.64537 0.18126 0.44385 0.0
C1016 C 0.67961 0.20171 0.44031 0.0
C1017 C 0.69236 0.19912 0.42506 0.0
C1018 C 0.67103 0.17574 0.41342 0.0
C1019 C 0.55507 0.12229 0.337 0.0
C1020 C 0.5838 0.13766 0.32693 0.0
C1021 C 0.55806 0.11688 0.35357 0.0
C1022 C 0.58976 0.12604 0.36026 0.0
C1023 C 0.61874 0.14341 0.35048 0.0
C1024 C 0.61578 0.14927 0.33391 0.0
C1025 C 0.59213 0.11463 0.37693 0.0
C1026 C 0.61285 0.13834 0.38872 0.0
C1027 C 0.57344 0.08023 0.38122 0.0
C1028 C 0.55335 0.05358 0.36899 0.0
C1029 C 0.56856 0.05019 0.35456 0.0
C1030 C 0.54942 1.02536 0.34298 0.0
C1031 C 0.5151 1.00355 0.34575 0.0
C1032 C 0.49987 1.00647 0.36014 0.0
C1033 C 0.51888 1.03132 0.37174 0.0
H1034 H 0.50032 0.98434 0.33677 0.0
H1035 H 0.6963 0.21952 0.44937 0.0
H1036 H 0.57438 0.49433 0.78567 0.0
H1037 H 0.5967 0.50053 0.75752 0.0
H1038 H 0.63645 0.60764 0.76066 0.0
H1039 H 0.61539 0.60175 0.78889 0.0
H1040 H 0.58872 0.56701 0.73243 0.0
H1041 H 0.69094 0.59556 0.76021 0.0
H1042 H 0.734 0.59295 0.77717 0.0
H1043 H 0.7196 0.50552 0.75058 0.0
H1044 H 0.6755 0.50681 0.7338 0.0
H1045 H 0.68035 0.62661 0.65835 0.0
H1046 H 0.66547 0.61962 0.68747 0.0
H1047 H 0.65082 0.5191 0.68573 0.0
H1048 H 0.66518 0.52568 0.65647 0.0
H1049 H 0.68579 0.55518 0.71336 0.0
H1050 H 0.58385 0.5298 0.68468 0.0
H1051 H 0.54952 0.54113 0.66526 0.0
H1052 H 0.56913 0.6293 0.69285 0.0
H1053 H 0.60401 0.61877 0.71231 0.0
C1054 C 0.58805 0.51915 0.78032 0.0
C1055 C 0.59303 0.54755 0.7893 0.0
C1056 C 0.60097 0.52268 0.76437 0.0
C1057 C 0.61837 0.55457 0.75714 0.0
C1058 C 0.62331 0.5829 0.76612 0.0
C1059 C 0.6112 0.57948 0.78217 0.0
C1060 C 0.62888 0.55815 0.73974 0.0
C1061 C 0.61008 0.56463 0.72826 0.0
C1062 C 0.65647 0.5546 0.73436 0.0
C1063 C 0.67939 0.55093 0.74592 0.0
C1064 C 0.69607 0.57509 0.75831 0.0
C1065 C 0.72088 0.574 0.76782 0.0
C1066 C 0.72941 0.54902 0.76497 0.0
C1067 C 0.71273 0.52469 0.75284 0.0
C1068 C 0.68775 0.52551 0.74337 0.0
C1069 C 0.67391 0.60297 0.66414 0.0
C1070 C 0.67363 0.57657 0.65505 0.0
C1071 C 0.66545 0.59905 0.68078 0.0
C1072 C 0.6565 0.56864 0.68866 0.0
C1073 C 0.65754 0.54272 0.67983 0.0
C1074 C 0.66593 0.54659 0.66315 0.0
C1075 C 0.64555 0.5638 0.70606 0.0
C1076 C 0.66416 0.55706 0.71753 0.0
C1077 C 0.61801 0.56745 0.71148 0.0
C1078 C 0.59678 0.57364 0.69987 0.0
C1079 C 0.58105 0.55174 0.68654 0.0
C1080 C 0.56146 0.558 0.67554 0.0
C1081 C 0.55721 0.58595 0.6778 0.0
C1082 C 0.57247 0.60766 0.6911 0.0
C1083 C 0.59212 0.60154 0.70213 0.0
H1084 H 0.54204 0.59076 0.66927 0.0
H1085 H 0.74919 0.5487 0.77204 0.0
H1086 H 0.51899 0.05663 0.55299 0.0
H1087 H 0.52414 0.05552 0.58283 0.0
H1088 H 0.62442 0.06993 0.57719 0.0
H1089 H 0.61952 0.07148 0.54719 0.0
H1090 H 0.58525 1.02025 0.60047 0.0
H1091 H 0.616 0.13448 0.58894 0.0
H1092 H 0.60859 0.17963 0.57694 0.0
H1093 H 0.51731 0.14661 0.60465 0.0
H1094 H 0.52391 0.10092 0.61664 0.0
H1095 H 0.62897 0.05601 0.6851 0.0
H1096 H 0.62759 0.05751 0.65512 0.0
H1097 H 0.53478 0.06068 0.65759 0.0
H1098 H 0.53643 0.05984 0.68757 0.0
H1099 H 0.57261 0.10254 0.63549 0.0
H1100 H 0.53938 0.98758 0.64632 0.0
H1101 H 0.5443 0.94072 0.65801 0.0
H1102 H 0.63684 0.97264 0.63156 0.0
H1103 H 0.6327 1.01999 0.61988 0.0
C1104 C 0.54217 0.05955 0.55808 0.0
C1105 C 0.56888 0.06422 0.5477 0.0
C1106 C 0.5451 0.05898 0.57517 0.0
C1107 C 0.57478 0.06292 0.58234 0.0
C1108 C 0.60128 0.06687 0.57198 0.0
C1109 C 0.59848 0.06779 0.55484 0.0
C1110 C 0.57803 0.06323 0.60062 0.0
C1111 C 0.58302 0.03856 0.60813 0.0
C1112 C 0.57424 0.08653 0.6107 0.0
C1113 C 0.57029 0.11409 0.60357 0.0
C1114 C 0.5942 0.13668 0.59238 0.0
C1115 C 0.59017 0.1624 0.5856 0.0
C1116 C 0.56245 0.16594 0.59 0.0
C1117 C 0.53875 0.14381 0.60124 0.0
C1118 C 0.54264 0.11802 0.60804 0.0
C1119 C 0.6081 0.05676 0.67927 0.0
C1120 C 0.58276 0.05771 0.68883 0.0
C1121 C 0.6073 0.05756 0.66206 0.0
C1122 C 0.5808 0.05872 0.6539 0.0
C1123 C 0.55557 0.05984 0.66345 0.0
C1124 C 0.55655 0.05939 0.68066 0.0
C1125 C 0.57955 0.0593 0.63549 0.0
C1126 C 0.57495 0.0842 0.62791 0.0
C1127 C 0.58336 1.03597 0.62537 0.0
C1128 C 0.58591 1.00754 0.63237 0.0
C1129 C 0.56092 0.98477 0.6431 0.0
C1130 C 0.56354 0.95809 0.64971 0.0
C1131 C 0.59092 0.95377 0.64557 0.0
C1132 C 0.61568 0.97606 0.63478 0.0
C1133 C 0.6132 1.0028 0.62815 0.0
H1134 H 0.5929 0.9331 0.6507 0.0
H1135 H 0.55938 0.18587 0.58474 0.0
H1136 H 0.57987 0.51797 0.88009 0.0
H1137 H 0.57312 0.51302 0.90999 0.0
H1138 H 0.62979 0.62109 0.91469 0.0
H1139 H 0.63783 0.62586 0.88493 0.0
H1140 H 0.65051 0.59825 0.93685 0.0
H1141 H 0.53964 0.57093 0.92082 0.0
H1142 H 0.48614 0.54146 0.90556 0.0
H1143 H 0.46646 0.44752 0.92625 0.0
H1144 H 0.52002 0.47645 0.94157 0.0
H1145 H 0.60119 0.60575 0.0201 0.0
H1146 H 0.60279 0.60831 0.98998 0.0
H1147 H 0.58096 0.50544 0.98746 0.0
H1148 H 0.58003 0.50295 0.01759 0.0
H1149 H 0.54157 0.52498 0.96473 0.0
H1150 H 0.65578 0.55766 0.98125 0.0
H1151 H 0.70798 0.59162 0.99702 0.0
H1152 H 0.71901 0.68173 0.97543 0.0
H1153 H 0.66656 0.6483 0.9597 0.0
C1154 C 0.59066 0.54064 0.88752 0.0
C1155 C 0.60944 0.5723 0.88014 0.0
C1156 C 0.58664 0.53784 0.90466 0.0
C1157 C 0.60061 0.5667 0.91481 0.0
C1158 C 0.61883 0.59834 0.90731 0.0
C1159 C 0.62331 0.60109 0.89024 0.0
C1160 C 0.59741 0.56408 0.93321 0.0
C1161 C 0.62649 0.58252 0.94285 0.0
C1162 C 0.5663 0.54334 0.94132 0.0
C1163 C 0.53401 0.52581 0.9322 0.0
C1164 C 0.52402 0.54395 0.92203 0.0
C1165 C 0.49367 0.52735 0.91338 0.0
C1166 C 0.47299 0.4926 0.91487 0.0
C1167 C 0.48254 0.47442 0.92508 0.0
C1168 C 0.51287 0.49092 0.93378 0.0
C1169 C 0.59651 0.58361 0.01313 0.0
C1170 C 0.59057 0.55417 0.02127 0.0
C1171 C 0.5975 0.58512 0.99591 0.0
C1172 C 0.59198 0.55706 0.98642 0.0
C1173 C 0.58521 0.52737 0.9945 0.0
C1174 C 0.58489 0.52606 0.01172 0.0
C1175 C 0.59455 0.55916 0.96812 0.0
C1176 C 0.56543 0.54065 0.95859 0.0
C1177 C 0.62542 0.58045 0.9601 0.0
C1178 C 0.65707 0.60051 0.96944 0.0
C1179 C 0.66918 0.58474 0.97998 0.0
C1180 C 0.69884 0.60388 0.98888 0.0
C1181 C 0.71675 0.63882 0.98726 0.0
C1182 C 0.70509 0.65467 0.97669 0.0
C1183 C 0.67541 0.63563 0.96777 0.0
H1184 H 0.73971 0.6536 0.99417 0.0
H1185 H 0.44951 0.47979 0.90815 0.0
H1186 H 0.07758 0.57364 0.21697 0.0
H1187 H 0.07812 0.58049 0.24696 0.0
H1188 H 0.09458 0.49624 0.25282 0.0
H1189 H 0.09424 0.48946 0.22299 0.0
H1190 H 1.04536 0.49239 0.27359 0.0
H1191 H 0.15832 0.57595 0.25792 0.0
H1192 H 0.19983 0.62514 0.24227 0.0
H1193 H 0.16138 0.68537 0.26382 0.0
H1194 H 0.11923 0.63636 0.2794 0.0
H1195 H 0.08935 0.50549 0.35719 0.0
H1196 H 0.0894 0.50331 0.32722 0.0
H1197 H 0.08666 0.59603 0.32542 0.0
H1198 H 0.08741 0.59868 0.3555 0.0
H1199 H 0.12682 0.59732 0.3023 0.0
H1200 H 1.0149 0.51641 0.3181 0.0
H1201 H 0.97056 0.46777 0.33299 0.0
H1202 H 1.00344 0.40353 0.31072 0.0
H1203 H 1.0483 0.45189 0.29586 0.0
C1204 C 0.08146 0.5567 0.22467 0.0
C1205 C 0.08593 0.53104 0.21759 0.0
C1206 C 0.08181 0.56066 0.24182 0.0
C1207 C 0.08654 0.53897 0.25224 0.0
C1208 C 0.09083 0.51327 0.24512 0.0
C1209 C 0.09074 0.50949 0.22803 0.0
C1210 C 0.08679 0.54263 0.27053 0.0
C1211 C 0.06343 0.51521 0.27987 0.0
C1212 C 0.1096 0.57275 0.27878 0.0
C1213 C 0.1354 0.6024 0.2697 0.0
C1214 C 0.15857 0.59963 0.25924 0.0
C1215 C 0.18222 0.62748 0.25039 0.0
C1216 C 0.18318 0.65833 0.25201 0.0
C1217 C 0.16057 0.66143 0.26255 0.0
C1218 C 0.13681 0.63363 0.27141 0.0
C1219 C 0.08859 0.52536 0.35044 0.0
C1220 C 0.08809 0.55211 0.35883 0.0
C1221 C 0.08855 0.52407 0.33323 0.0
C1222 C 0.08732 0.54914 0.32388 0.0
C1223 C 0.08753 0.57627 0.33223 0.0
C1224 C 0.08797 0.57778 0.34948 0.0
C1225 C 0.08562 0.54682 0.30546 0.0
C1226 C 0.10864 0.57449 0.29607 0.0
C1227 C 0.06218 0.51703 0.29711 0.0
C1228 C 1.03516 0.48785 0.30598 0.0
C1229 C 1.01283 0.49196 0.31646 0.0
C1230 C 0.98758 0.46443 0.32489 0.0
C1231 C 0.98424 0.4326 0.32283 0.0
C1232 C 1.00609 0.42821 0.31232 0.0
C1233 C 1.03141 0.45567 0.30388 0.0
H1234 H 0.96468 0.41131 0.32936 0.0
H1235 H 0.20147 0.67985 0.24513 0.0
loop_
_geom_bond_atom_site_label_1
_geom_bond_atom_site_label_2
_geom_bond_distance
_geom_bond_site_symmetry_2
_ccdc_geom_bond_type
Tb0 C2 2.809 . S
Tb0 O20 2.484 . S
Tb0 O21 2.440 . S
Tb0 O22 2.658 . S
Tb0 O23 2.409 . S
Tb0 O24 2.378 . S
Tb0 O28 2.325 . S
Tb0 O31 2.341 1_455 S
Tb1 C11 2.809 1_455 S
Tb1 O22 2.325 . S
Tb1 O25 2.341 . S
Tb1 O26 2.484 1_455 S
Tb1 O27 2.440 1_455 S
Tb1 O28 2.658 . S
Tb1 O29 2.409 . S
Tb1 O30 2.378 1_455 S
C2 Tb0 2.809 . S
C2 C3 1.514 . S
C2 O20 1.248 . S
C2 O21 1.266 . S
C3 C2 1.514 . S
C3 C4 1.359 . S
C3 C8 1.348 . S
C4 C3 1.359 . S
C4 C5 1.380 . S
C4 H32 0.929 . S
C5 C4 1.380 . S
C5 C6 1.347 . S
C5 H33 0.931 . S
C6 C5 1.347 . S
C6 C7 1.369 . S
C7 C6 1.369 . S
C7 C8 1.408 . S
C7 H34 0.930 . S
C8 C3 1.348 . S
C8 C7 1.408 . S
C8 H35 0.930 . S
C9 O22 1.281 . S
C9 O23 1.254 . S
C10 O24 1.236 . S
C10 O25 1.266 . S
C11 Tb1 2.809 1_655 S
C11 C12 1.514 . S
C11 O26 1.248 . S
C11 O27 1.266 . S
C12 C11 1.514 . S
C12 C13 1.359 . S
C12 C17 1.348 . S
C13 C12 1.359 . S
C13 C14 1.380 . S
C13 H36 0.929 . S
C14 C13 1.380 . S
C14 C15 1.347 . S
C14 H37 0.931 . S
C15 C14 1.347 . S
C15 C16 1.369 . S
C16 C15 1.369 . S
C16 C17 1.408 . S
C16 H38 0.930 . S
C17 C12 1.348 . S
C17 C16 1.408 . S
C17 H39 0.930 . S
C18 O28 1.281 . S
C18 O29 1.254 . S
C19 O30 1.236 . S
C19 O31 1.266 . S
O20 Tb0 2.484 . S
O20 C2 1.248 . S
O21 Tb0 2.440 . S
O21 C2 1.266 . S
O22 Tb0 2.658 . S
O22 Tb1 2.325 . S
O22 C9 1.281 . S
O23 Tb0 2.409 . S
O23 C9 1.254 . S
O24 Tb0 2.378 . S
O24 C10 1.236 . S
O25 Tb1 2.341 . S
O25 C10 1.266 . S
O26 Tb1 2.484 1_655 S
O26 C11 1.248 . S
O27 Tb1 2.440 1_655 S
O27 C11 1.266 . S
O28 Tb0 2.325 . S
O28 Tb1 2.658 . S
O28 C18 1.281 . S
O29 Tb1 2.409 . S
O29 C18 1.254 . S
O30 Tb1 2.378 1_655 S
O30 C19 1.236 . S
O31 Tb0 2.341 1_655 S
O31 C19 1.266 . S
H32 C4 0.929 . S
H33 C5 0.931 . S
H34 C7 0.930 . S
H35 C8 0.930 . S
H36 C13 0.929 . S
H37 C14 0.931 . S
H38 C16 0.930 . S
H39 C17 0.930 . S
Tb40 C42 2.809 1_545 S
Tb40 O60 2.484 1_545 S
Tb40 O61 2.440 1_545 S
Tb40 O62 2.658 . S
Tb40 O63 2.409 . S
Tb40 O64 2.378 1_545 S
Tb40 O68 2.325 . S
Tb40 O71 2.341 . S
Tb41 C51 2.809 . S
Tb41 O62 2.325 . S
Tb41 O65 2.341 1_545 S
Tb41 O66 2.484 . S
Tb41 O67 2.440 . S
Tb41 O68 2.658 . S
Tb41 O69 2.409 . S
Tb41 O70 2.378 . S
C42 Tb40 2.809 1_565 S
C42 C43 1.514 . S
C42 O60 1.248 . S
C42 O61 1.266 . S
C43 C42 1.514 . S
C43 C44 1.359 . S
C43 C48 1.348 . S
C44 C43 1.359 . S
C44 C45 1.380 . S
C44 H72 0.929 . S
C45 C44 1.380 . S
C45 C46 1.347 . S
C45 H73 0.931 . S
C46 C45 1.347 . S
C46 C47 1.369 . S
C47 C46 1.369 . S
C47 C48 1.408 . S
C47 H74 0.930 . S
C48 C43 1.348 . S
C48 C47 1.408 . S
C48 H75 0.930 . S
C49 O62 1.281 . S
C49 O63 1.254 . S
C50 O64 1.236 . S
C50 O65 1.266 . S
C51 Tb41 2.809 . S
C51 C52 1.514 . S
C51 O66 1.248 . S
C51 O67 1.266 . S
C52 C51 1.514 . S
C52 C53 1.359 . S
C52 C57 1.348 . S
C53 C52 1.359 . S
C53 C54 1.380 . S
C53 H76 0.929 . S
C54 C53 1.380 . S
C54 C55 1.347 . S
C54 H77 0.931 . S
C55 C54 1.347 . S
C55 C56 1.369 . S
C56 C55 1.369 . S
C56 C57 1.408 . S
C56 H78 0.930 . S
C57 C52 1.348 . S
C57 C56 1.408 . S
C57 H79 0.930 . S
C58 O68 1.281 . S
C58 O69 1.254 . S
C59 O70 1.236 . S
C59 O71 1.266 . S
O60 Tb40 2.484 1_565 S
O60 C42 1.248 . S
O61 Tb40 2.440 1_565 S
O61 C42 1.266 . S
O62 Tb40 2.658 . S
O62 Tb41 2.325 . S
O62 C49 1.281 . S
O63 Tb40 2.409 . S
O63 C49 1.254 . S
O64 Tb40 2.378 1_565 S
O64 C50 1.236 . S
O65 Tb41 2.341 1_565 S
O65 C50 1.266 . S
O66 Tb41 2.484 . S
O66 C51 1.248 . S
O67 Tb41 2.440 . S
O67 C51 1.266 . S
O68 Tb40 2.325 . S
O68 Tb41 2.658 . S
O68 C58 1.281 . S
O69 Tb41 2.409 . S
O69 C58 1.254 . S
O70 Tb41 2.378 . S
O70 C59 1.236 . S
O71 Tb40 2.341 . S
O71 C59 1.266 . S
H72 C44 0.929 . S
H73 C45 0.931 . S
H74 C47 0.930 . S
H75 C48 0.930 . S
H76 C53 0.929 . S
H77 C54 0.931 . S
H78 C56 0.930 . S
H79 C57 0.930 . S
Tb80 C82 2.809 . S
Tb80 O100 2.484 . S
Tb80 O101 2.440 . S
Tb80 O102 2.658 . S
Tb80 O103 2.409 . S
Tb80 O104 2.378 . S
Tb80 O108 2.325 . S
Tb80 O111 2.341 . S
Tb81 C91 2.809 . S
Tb81 O102 2.325 . S
Tb81 O105 2.341 . S
Tb81 O106 2.484 . S
Tb81 O107 2.440 . S
Tb81 O108 2.658 . S
Tb81 O109 2.409 . S
Tb81 O110 2.378 . S
C82 Tb80 2.809 . S
C82 C83 1.514 . S
C82 O100 1.248 . S
C82 O101 1.266 . S
C83 C82 1.514 . S
C83 C84 1.359 . S
C83 C88 1.348 . S
C84 C83 1.359 . S
C84 C85 1.380 . S
C84 H112 0.929 . S
C85 C84 1.380 . S
C85 C86 1.347 . S
C85 H113 0.931 . S
C86 C85 1.347 . S
C86 C87 1.369 . S
C87 C86 1.369 . S
C87 C88 1.408 . S
C87 H114 0.930 . S
C88 C83 1.348 . S
C88 C87 1.408 . S
C88 H115 0.930 . S
C89 O102 1.281 . S
C89 O103 1.254 . S
C90 O104 1.236 . S
C90 O105 1.266 . S
C91 Tb81 2.809 . S
C91 C92 1.514 . S
C91 O106 1.248 . S
C91 O107 1.266 . S
C92 C91 1.514 . S
C92 C93 1.359 . S
C92 C97 1.348 . S
C93 C92 1.359 . S
C93 C94 1.380 . S
C93 H116 0.929 . S
C94 C93 1.380 . S
C94 C95 1.347 . S
C94 H117 0.931 . S
C95 C94 1.347 . S
C95 C96 1.369 . S
C96 C95 1.369 . S
C96 C97 1.408 . S
C96 H118 0.930 . S
C97 C92 1.348 . S
C97 C96 1.408 . S
C97 H119 0.930 . S
C98 O108 1.281 . S
C98 O109 1.254 . S
C99 O110 1.236 . S
C99 O111 1.266 . S
O100 Tb80 2.484 . S
O100 C82 1.248 . S
O101 Tb80 2.440 . S
O101 C82 1.266 . S
O102 Tb80 2.658 . S
O102 Tb81 2.325 . S
O102 C89 1.281 . S
O103 Tb80 2.409 . S
O103 C89 1.254 . S
O104 Tb80 2.378 . S
O104 C90 1.236 . S
O105 Tb81 2.341 . S
O105 C90 1.266 . S
O106 Tb81 2.484 . S
O106 C91 1.248 . S
O107 Tb81 2.440 . S
O107 C91 1.266 . S
O108 Tb80 2.325 . S
O108 Tb81 2.658 . S
O108 C98 1.281 . S
O109 Tb81 2.409 . S
O109 C98 1.254 . S
O110 Tb81 2.378 . S
O110 C99 1.236 . S
O111 Tb80 2.341 . S
O111 C99 1.266 . S
H112 C84 0.929 . S
H113 C85 0.931 . S
H114 C87 0.930 . S
H115 C88 0.930 . S
H116 C93 0.929 . S
H117 C94 0.931 . S
H118 C96 0.930 . S
H119 C97 0.930 . S
C120 C121 1.384 . S
C120 H133 0.947 . S
C120 C155 1.382 . S
C121 C120 1.384 . S
C121 C122 1.378 . S
C122 C121 1.378 . S
C122 C123 1.378 . S
C122 H134 0.952 . S
C123 C122 1.378 . S
C123 H135 0.950 1_565 S
C123 C154 1.383 . S
H124 C143 0.947 . S
H125 C144 0.946 . S
H126 C146 0.953 . S
H127 C147 0.945 . S
H128 C149 0.952 . S
H129 C150 0.949 . S
H130 C152 0.950 1_565 S
H131 C153 0.948 1_565 S
H132 C155 0.951 . S
H133 C120 0.947 . S
H134 C122 0.952 . S
H135 C123 0.950 1_545 S
N136 C139 1.382 . S
N136 C141 1.363 . S
N137 C139 1.371 . S
N137 C140 1.372 . S
N138 C140 1.361 . S
N138 C141 1.377 . S
C139 N136 1.382 . S
C139 N137 1.371 . S
C139 C142 1.480 . S
C140 N137 1.372 . S
C140 N138 1.361 . S
C140 C148 1.457 . S
C141 N136 1.363 . S
C141 N138 1.377 . S
C141 C154 1.479 1_545 S
C142 C139 1.480 . S
C142 C143 1.383 . S
C142 C147 1.385 . S
C143 H124 0.947 . S
C143 C142 1.383 . S
C143 C144 1.388 . S
C144 H125 0.946 . S
C144 C143 1.388 . S
C144 C145 1.384 . S
C145 C144 1.384 . S
C145 C146 1.377 . S
C146 H126 0.953 . S
C146 C145 1.377 . S
C146 C147 1.369 . S
C147 H127 0.945 . S
C147 C142 1.385 . S
C147 C146 1.369 . S
C148 C140 1.457 . S
C148 C149 1.372 . S
C148 C153 1.364 . S
C149 H128 0.952 . S
C149 C148 1.372 . S
C149 C150 1.389 . S
C150 H129 0.949 . S
C150 C149 1.389 . S
C150 C151 1.387 . S
C151 C150 1.387 . S
C151 C152 1.372 . S
C152 H130 0.950 1_545 S
C152 C151 1.372 . S
C152 C153 1.379 . S
C153 H131 0.948 1_545 S
C153 C148 1.364 . S
C153 C152 1.379 . S
C154 C123 1.383 . S
C154 C141 1.479 1_565 S
C154 C155 1.398 . S
C155 C120 1.382 . S
C155 H132 0.951 . S
C155 C154 1.398 . S
C156 C157 1.384 . S
C156 H169 0.947 . S
C156 C191 1.382 . S
C157 C156 1.384 . S
C157 C158 1.378 . S
C158 C157 1.378 . S
C158 C159 1.378 . S
C158 H170 0.952 . S
C159 C158 1.378 . S
C159 H171 0.950 . S
C159 C190 1.383 . S
H160 C179 0.947 . S
H161 C180 0.946 . S
H162 C182 0.953 . S
H163 C183 0.945 . S
H164 C185 0.952 . S
H165 C186 0.949 . S
H166 C188 0.950 . S
H167 C189 0.948 . S
H168 C191 0.951 . S
H169 C156 0.947 . S
H170 C158 0.952 . S
H171 C159 0.950 . S
N172 C175 1.382 . S
N172 C177 1.363 . S
N173 C175 1.371 . S
N173 C176 1.372 . S
N174 C176 1.361 . S
N174 C177 1.377 . S
C175 N172 1.382 . S
C175 N173 1.371 . S
C175 C178 1.480 . S
C176 N173 1.372 . S
C176 N174 1.361 . S
C176 C184 1.457 . S
C177 N172 1.363 . S
C177 N174 1.377 . S
C177 C190 1.479 . S
C178 C175 1.480 . S
C178 C179 1.383 . S
C178 C183 1.385 . S
C179 H160 0.947 . S
C179 C178 1.383 . S
C179 C180 1.388 . S
C180 H161 0.946 . S
C180 C179 1.388 . S
C180 C181 1.384 . S
C181 C180 1.384 . S
C181 C182 1.377 . S
C182 H162 0.953 . S
C182 C181 1.377 . S
C182 C183 1.369 . S
C183 H163 0.945 . S
C183 C178 1.385 . S
C183 C182 1.369 . S
C184 C176 1.457 . S
C184 C185 1.372 . S
C184 C189 1.364 . S
C185 H164 0.952 . S
C185 C184 1.372 . S
C185 C186 1.389 . S
C186 H165 0.949 . S
C186 C185 1.389 . S
C186 C187 1.387 . S
C187 C186 1.387 . S
C187 C188 1.372 . S
C188 H166 0.950 . S
C188 C187 1.372 . S
C188 C189 1.379 . S
C189 H167 0.948 . S
C189 C184 1.364 . S
C189 C188 1.379 . S
C190 C159 1.383 . S
C190 C177 1.479 . S
C190 C191 1.398 . S
C191 C156 1.382 . S
C191 H168 0.951 . S
C191 C190 1.398 . S
C192 C193 1.384 . S
C192 H205 0.947 . S
C192 C227 1.382 . S
C193 C192 1.384 . S
C193 C194 1.378 . S
C194 C193 1.378 . S
C194 C195 1.378 . S
C194 H206 0.952 . S
C195 C194 1.378 . S
C195 H207 0.950 . S
C195 C226 1.383 . S
H196 C215 0.947 . S
H197 C216 0.946 . S
H198 C218 0.953 . S
H199 C219 0.945 . S
H200 C221 0.952 . S
H201 C222 0.949 . S
H202 C224 0.950 . S
H203 C225 0.948 . S
H204 C227 0.951 . S
H205 C192 0.947 . S
H206 C194 0.952 . S
H207 C195 0.950 . S
N208 C211 1.382 . S
N208 C213 1.363 1_455 S
N209 C211 1.371 . S
N209 C212 1.372 . S
N210 C212 1.361 1_655 S
N210 C213 1.377 . S
C211 N208 1.382 . S
C211 N209 1.371 . S
C211 C214 1.480 . S
C212 N209 1.372 . S
C212 N210 1.361 1_455 S
C212 C220 1.457 . S
C213 N208 1.363 1_655 S
C213 N210 1.377 . S
C213 C226 1.479 . S
C214 C211 1.480 . S
C214 C215 1.383 . S
C214 C219 1.385 . S
C215 H196 0.947 . S
C215 C214 1.383 . S
C215 C216 1.388 . S
C216 H197 0.946 . S
C216 C215 1.388 . S
C216 C217 1.384 . S
C217 C216 1.384 . S
C217 C218 1.377 . S
C218 H198 0.953 . S
C218 C217 1.377 . S
C218 C219 1.369 . S
C219 H199 0.945 . S
C219 C214 1.385 . S
C219 C218 1.369 . S
C220 C212 1.457 . S
C220 C221 1.372 . S
C220 C225 1.364 1_455 S
C221 H200 0.952 . S
C221 C220 1.372 . S
C221 C222 1.389 . S
C222 H201 0.949 . S
C222 C221 1.389 . S
C222 C223 1.387 . S
C223 C222 1.387 . S
C223 C224 1.372 1_455 S
C224 H202 0.950 . S
C224 C223 1.372 1_655 S
C224 C225 1.379 . S
C225 H203 0.948 . S
C225 C220 1.364 1_655 S
C225 C224 1.379 . S
C226 C195 1.383 . S
C226 C213 1.479 . S
C226 C227 1.398 . S
C227 C192 1.382 . S
C227 H204 0.951 . S
C227 C226 1.398 . S
C228 C229 1.384 . S
C228 H241 0.947 . S
C228 C263 1.382 . S
C229 C228 1.384 . S
C229 C230 1.378 . S
C230 C229 1.378 . S
C230 C231 1.378 . S
C230 H242 0.952 . S
C231 C230 1.378 . S
C231 H243 0.950 . S
C231 C262 1.383 . S
H232 C251 0.947 . S
H233 C252 0.946 . S
H234 C254 0.953 . S
H235 C255 0.945 . S
H236 C257 0.952 . S
H237 C258 0.949 . S
H238 C260 0.950 . S
H239 C261 0.948 . S
H240 C263 0.951 . S
H241 C228 0.947 . S
H242 C230 0.952 . S
H243 C231 0.950 . S
N244 C247 1.382 . S
N244 C249 1.363 . S
N245 C247 1.371 . S
N245 C248 1.372 . S
N246 C248 1.361 . S
N246 C249 1.377 . S
C247 N244 1.382 . S
C247 N245 1.371 . S
C247 C250 1.480 . S
C248 N245 1.372 . S
C248 N246 1.361 . S
C248 C256 1.457 . S
C249 N244 1.363 . S
C249 N246 1.377 . S
C249 C262 1.479 . S
C250 C247 1.480 . S
C250 C251 1.383 . S
C250 C255 1.385 1_455 S
C251 H232 0.947 . S
C251 C250 1.383 . S
C251 C252 1.388 1_455 S
C252 H233 0.946 . S
C252 C251 1.388 1_655 S
C252 C253 1.384 . S
C253 C252 1.384 . S
C253 C254 1.377 . S
C254 H234 0.953 . S
C254 C253 1.377 . S
C254 C255 1.369 . S
C255 H235 0.945 . S
C255 C250 1.385 1_655 S
C255 C254 1.369 . S
C256 C248 1.457 . S
C256 C257 1.372 . S
C256 C261 1.364 . S
C257 H236 0.952 . S
C257 C256 1.372 . S
C257 C258 1.389 . S
C258 H237 0.949 . S
C258 C257 1.389 . S
C258 C259 1.387 . S
C259 C258 1.387 . S
C259 C260 1.372 . S
C260 H238 0.950 . S
C260 C259 1.372 . S
C260 C261 1.379 . S
C261 H239 0.948 . S
C261 C256 1.364 . S
C261 C260 1.379 . S
C262 C231 1.383 . S
C262 C249 1.479 . S
C262 C263 1.398 . S
C263 C228 1.382 . S
C263 H240 0.951 . S
C263 C262 1.398 . S
C264 C265 1.384 . S
C264 H277 0.947 . S
C264 C299 1.382 . S
C265 C264 1.384 . S
C265 C266 1.378 . S
C266 C265 1.378 . S
C266 C267 1.378 . S
C266 H278 0.952 . S
C267 C266 1.378 . S
C267 H279 0.950 . S
C267 C298 1.383 . S
H268 C287 0.947 . S
H269 C288 0.946 . S
H270 C290 0.953 . S
H271 C291 0.945 . S
H272 C293 0.952 . S
H273 C294 0.949 . S
H274 C296 0.950 . S
H275 C297 0.948 . S
H276 C299 0.951 . S
H277 C264 0.947 . S
H278 C266 0.952 . S
H279 C267 0.950 . S
N280 C283 1.382 1_545 S
N280 C285 1.363 . S
N281 C283 1.371 . S
N281 C284 1.372 1_565 S
N282 C284 1.361 . S
N282 C285 1.377 . S
C283 N280 1.382 1_565 S
C283 N281 1.371 . S
C283 C286 1.480 . S
C284 N281 1.372 1_545 S
C284 N282 1.361 . S
C284 C292 1.457 . S
C285 N280 1.363 . S
C285 N282 1.377 . S
C285 C298 1.479 . S
C286 C283 1.480 . S
C286 C287 1.383 . S
C286 C291 1.385 . S
C287 H268 0.947 . S
C287 C286 1.383 . S
C287 C288 1.388 . S
C288 H269 0.946 . S
C288 C287 1.388 . S
C288 C289 1.384 . S
C289 C288 1.384 . S
C289 C290 1.377 . S
C290 H270 0.953 . S
C290 C289 1.377 . S
C290 C291 1.369 . S
C291 H271 0.945 . S
C291 C286 1.385 . S
C291 C290 1.369 . S
C292 C284 1.457 . S
C292 C293 1.372 1_545 S
C292 C297 1.364 . S
C293 H272 0.952 . S
C293 C292 1.372 1_565 S
C293 C294 1.389 . S
C294 H273 0.949 . S
C294 C293 1.389 . S
C294 C295 1.387 1_565 S
C295 C294 1.387 1_545 S
C295 C296 1.372 . S
C296 H274 0.950 . S
C296 C295 1.372 . S
C296 C297 1.379 . S
C297 H275 0.948 . S
C297 C292 1.364 . S
C297 C296 1.379 . S
C298 C267 1.383 . S
C298 C285 1.479 . S
C298 C299 1.398 . S
C299 C264 1.382 . S
C299 H276 0.951 . S
C299 C298 1.398 . S
C300 C301 1.384 . S
C300 H313 0.947 . S
C300 C335 1.382 . S
C301 C300 1.384 . S
C301 C302 1.378 . S
C302 C301 1.378 . S
C302 C303 1.378 . S
C302 H314 0.952 . S
C303 C302 1.378 . S
C303 H315 0.950 . S
C303 C334 1.383 . S
H304 C323 0.947 . S
H305 C324 0.946 . S
H306 C326 0.953 . S
H307 C327 0.945 . S
H308 C329 0.952 . S
H309 C330 0.949 . S
H310 C332 0.950 . S
H311 C333 0.948 . S
H312 C335 0.951 . S
H313 C300 0.947 . S
H314 C302 0.952 . S
H315 C303 0.950 . S
N316 C319 1.382 . S
N316 C321 1.363 . S
N317 C319 1.371 . S
N317 C320 1.372 . S
N318 C320 1.361 . S
N318 C321 1.377 . S
C319 N316 1.382 . S
C319 N317 1.371 . S
C319 C322 1.480 . S
C320 N317 1.372 . S
C320 N318 1.361 . S
C320 C328 1.457 . S
C321 N316 1.363 . S
C321 N318 1.377 . S
C321 C334 1.479 . S
C322 C319 1.480 . S
C322 C323 1.383 . S
C322 C327 1.385 . S
C323 H304 0.947 . S
C323 C322 1.383 . S
C323 C324 1.388 . S
C324 H305 0.946 . S
C324 C323 1.388 . S
C324 C325 1.384 . S
C325 C324 1.384 . S
C325 C326 1.377 . S
C326 H306 0.953 . S
C326 C325 1.377 . S
C326 C327 1.369 . S
C327 H307 0.945 . S
C327 C322 1.385 . S
C327 C326 1.369 . S
C328 C320 1.457 . S
C328 C329 1.372 . S
C328 C333 1.364 . S
C329 H308 0.952 . S
C329 C328 1.372 . S
C329 C330 1.389 . S
C330 H309 0.949 . S
C330 C329 1.389 . S
C330 C331 1.387 . S
C331 C330 1.387 . S
C331 C332 1.372 . S
C332 H310 0.950 . S
C332 C331 1.372 . S
C332 C333 1.379 . S
C333 H311 0.948 . S
C333 C328 1.364 . S
C333 C332 1.379 . S
C334 C303 1.383 . S
C334 C321 1.479 . S
C334 C335 1.398 . S
C335 C300 1.382 . S
C335 H312 0.951 . S
C335 C334 1.398 . S
H336 C354 0.951 . S
H337 C356 0.951 . S
H338 C358 0.950 . S
H339 C359 0.950 . S
H340 C361 0.950 . S
H341 C364 0.950 . S
H342 C365 0.950 . S
H343 C367 0.950 . S
H344 C368 0.950 . S
H345 C369 0.951 . S
H346 C371 0.951 . S
H347 C373 0.950 . S
H348 C374 0.950 . S
H349 C376 0.950 . S
H350 C379 0.950 . S
H351 C380 0.950 . S
H352 C382 0.950 . S
H353 C383 0.950 . S
C354 H336 0.951 . S
C354 C355 1.366 . S
C354 C356 1.388 . S
C355 C354 1.366 . S
C355 C359 1.385 . S
C356 H337 0.951 . S
C356 C354 1.388 . S
C356 C357 1.366 . S
C357 C356 1.366 . S
C357 C358 1.414 . S
C357 C360 1.499 . S
C358 H338 0.950 . S
C358 C357 1.414 . S
C358 C359 1.374 . S
C359 H339 0.950 . S
C359 C355 1.385 . S
C359 C358 1.374 . S
C360 C357 1.499 . S
C360 C361 1.373 . S
C360 C362 1.389 . S
C361 H340 0.950 . S
C361 C360 1.373 . S
C361 C377 1.377 . S
C362 C360 1.389 . S
C362 C363 1.524 . S
C362 C376 1.377 . S
C363 C362 1.524 . S
C363 C364 1.397 . S
C363 C368 1.363 . S
C364 H341 0.950 . S
C364 C363 1.397 . S
C364 C365 1.334 . S
C365 H342 0.950 . S
C365 C364 1.334 . S
C365 C366 1.287 . S
C366 C365 1.287 . S
C366 C367 1.524 . S
C366 H385 0.913 . S
C367 H343 0.950 . S
C367 C366 1.524 . S
C367 C368 1.415 . S
C368 H344 0.950 . S
C368 C363 1.363 . S
C368 C367 1.415 . S
C369 H345 0.951 . S
C369 C370 1.366 . S
C369 C371 1.388 . S
C370 C369 1.366 . S
C370 C374 1.385 . S
C371 H346 0.951 . S
C371 C369 1.388 . S
C371 C372 1.366 . S
C372 C371 1.366 . S
C372 C373 1.414 . S
C372 C375 1.499 . S
C373 H347 0.950 . S
C373 C372 1.414 . S
C373 C374 1.374 . S
C374 H348 0.950 . S
C374 C370 1.385 . S
C374 C373 1.374 . S
C375 C372 1.499 . S
C375 C376 1.373 . S
C375 C377 1.389 . S
C376 H349 0.950 . S
C376 C362 1.377 . S
C376 C375 1.373 . S
C377 C361 1.377 . S
C377 C375 1.389 . S
C377 C378 1.524 . S
C378 C377 1.524 . S
C378 C379 1.397 . S
C378 C383 1.363 . S
C379 H350 0.950 . S
C379 C378 1.397 . S
C379 C380 1.334 . S
C380 H351 0.950 . S
C380 C379 1.334 . S
C380 C381 1.287 . S
C381 C380 1.287 . S
C381 C382 1.524 . S
C381 H384 0.999 . S
C382 H352 0.950 . S
C382 C381 1.524 . S
C382 C383 1.415 . S
C383 H353 0.950 . S
C383 C378 1.363 . S
C383 C382 1.415 . S
H384 C381 0.999 . S
H385 C366 0.913 . S
H386 C404 0.951 . S
H387 C406 0.951 . S
H388 C408 0.950 . S
H389 C409 0.950 . S
H390 C411 0.950 . S
H391 C414 0.950 . S
H392 C415 0.950 . S
H393 C417 0.950 . S
H394 C418 0.950 . S
H395 C419 0.951 . S
H396 C421 0.951 . S
H397 C423 0.950 . S
H398 C424 0.950 . S
H399 C426 0.950 . S
H400 C429 0.950 . S
H401 C430 0.950 . S
H402 C432 0.950 . S
H403 C433 0.950 . S
C404 H386 0.951 . S
C404 C405 1.366 . S
C404 C406 1.388 . S
C405 C404 1.366 . S
C405 C409 1.385 . S
C406 H387 0.951 . S
C406 C404 1.388 . S
C406 C407 1.366 . S
C407 C406 1.366 . S
C407 C408 1.414 . S
C407 C410 1.499 . S
C408 H388 0.950 . S
C408 C407 1.414 . S
C408 C409 1.374 . S
C409 H389 0.950 . S
C409 C405 1.385 . S
C409 C408 1.374 . S
C410 C407 1.499 . S
C410 C411 1.373 . S
C410 C412 1.389 . S
C411 H390 0.950 . S
C411 C410 1.373 . S
C411 C427 1.377 . S
C412 C410 1.389 . S
C412 C413 1.524 . S
C412 C426 1.377 . S
C413 C412 1.524 . S
C413 C414 1.397 . S
C413 C418 1.363 . S
C414 H391 0.950 . S
C414 C413 1.397 . S
C414 C415 1.334 . S
C415 H392 0.950 . S
C415 C414 1.334 . S
C415 C416 1.287 . S
C416 C415 1.287 . S
C416 C417 1.524 . S
C416 H435 0.913 . S
C417 H393 0.950 . S
C417 C416 1.524 . S
C417 C418 1.415 . S
C418 H394 0.950 . S
C418 C413 1.363 . S
C418 C417 1.415 . S
C419 H395 0.951 . S
C419 C420 1.366 . S
C419 C421 1.388 . S
C420 C419 1.366 . S
C420 C424 1.385 . S
C421 H396 0.951 . S
C421 C419 1.388 . S
C421 C422 1.366 . S
C422 C421 1.366 . S
C422 C423 1.414 . S
C422 C425 1.499 . S
C423 H397 0.950 . S
C423 C422 1.414 . S
C423 C424 1.374 . S
C424 H398 0.950 . S
C424 C420 1.385 . S
C424 C423 1.374 . S
C425 C422 1.499 . S
C425 C426 1.373 . S
C425 C427 1.389 . S
C426 H399 0.950 . S
C426 C412 1.377 . S
C426 C425 1.373 . S
C427 C411 1.377 . S
C427 C425 1.389 . S
C427 C428 1.524 . S
C428 C427 1.524 . S
C428 C429 1.397 . S
C428 C433 1.363 . S
C429 H400 0.950 . S
C429 C428 1.397 . S
C429 C430 1.334 . S
C430 H401 0.950 . S
C430 C429 1.334 . S
C430 C431 1.287 . S
C431 C430 1.287 . S
C431 C432 1.524 . S
C431 H434 0.999 . S
C432 H402 0.950 . S
C432 C431 1.524 . S
C432 C433 1.415 . S
C433 H403 0.950 . S
C433 C428 1.363 . S
C433 C432 1.415 . S
H434 C431 0.999 . S
H435 C416 0.913 . S
H436 C454 0.951 . S
H437 C456 0.951 . S
H438 C458 0.950 . S
H439 C459 0.950 . S
H440 C461 0.950 . S
H441 C464 0.950 . S
H442 C465 0.950 . S
H443 C467 0.950 . S
H444 C468 0.950 . S
H445 C469 0.951 . S
H446 C471 0.951 . S
H447 C473 0.950 . S
H448 C474 0.950 . S
H449 C476 0.950 . S
H450 C479 0.950 . S
H451 C480 0.950 . S
H452 C482 0.950 . S
H453 C483 0.950 . S
C454 H436 0.951 . S
C454 C455 1.366 . S
C454 C456 1.388 . S
C455 C454 1.366 . S
C455 C459 1.385 . S
C456 H437 0.951 . S
C456 C454 1.388 . S
C456 C457 1.366 . S
C457 C456 1.366 . S
C457 C458 1.414 . S
C457 C460 1.499 . S
C458 H438 0.950 . S
C458 C457 1.414 . S
C458 C459 1.374 . S
C459 H439 0.950 . S
C459 C455 1.385 . S
C459 C458 1.374 . S
C460 C457 1.499 . S
C460 C461 1.373 . S
C460 C462 1.389 . S
C461 H440 0.950 . S
C461 C460 1.373 . S
C461 C477 1.377 . S
C462 C460 1.389 . S
C462 C463 1.524 . S
C462 C476 1.377 . S
C463 C462 1.524 . S
C463 C464 1.397 . S
C463 C468 1.363 . S
C464 H441 0.950 . S
C464 C463 1.397 . S
C464 C465 1.334 . S
C465 H442 0.950 . S
C465 C464 1.334 . S
C465 C466 1.287 . S
C466 C465 1.287 . S
C466 C467 1.524 . S
C466 H485 0.913 . S
C467 H443 0.950 . S
C467 C466 1.524 . S
C467 C468 1.415 . S
C468 H444 0.950 . S
C468 C463 1.363 . S
C468 C467 1.415 . S
C469 H445 0.951 . S
C469 C470 1.366 . S
C469 C471 1.388 . S
C470 C469 1.366 . S
C470 C474 1.385 . S
C471 H446 0.951 . S
C471 C469 1.388 . S
C471 C472 1.366 . S
C472 C471 1.366 . S
C472 C473 1.414 . S
C472 C475 1.499 . S
C473 H447 0.950 . S
C473 C472 1.414 . S
C473 C474 1.374 . S
C474 H448 0.950 . S
C474 C470 1.385 . S
C474 C473 1.374 . S
C475 C472 1.499 . S
C475 C476 1.373 . S
C475 C477 1.389 . S
C476 H449 0.950 . S
C476 C462 1.377 . S
C476 C475 1.373 . S
C477 C461 1.377 . S
C477 C475 1.389 . S
C477 C478 1.524 . S
C478 C477 1.524 . S
C478 C479 1.397 . S
C478 C483 1.363 . S
C479 H450 0.950 . S
C479 C478 1.397 . S
C479 C480 1.334 . S
C480 H451 0.950 . S
C480 C479 1.334 . S
C480 C481 1.287 . S
C481 C480 1.287 . S
C481 C482 1.524 . S
C481 H484 0.999 . S
C482 H452 0.950 . S
C482 C481 1.524 . S
C482 C483 1.415 . S
C483 H453 0.950 . S
C483 C478 1.363 . S
C483 C482 1.415 . S
H484 C481 0.999 . S
H485 C466 0.913 . S
H486 C504 0.951 . S
H487 C506 0.951 . S
H488 C508 0.950 . S
H489 C509 0.950 . S
H490 C511 0.950 . S
H491 C514 0.950 . S
H492 C515 0.950 . S
H493 C517 0.950 . S
H494 C518 0.950 . S
H495 C519 0.951 . S
H496 C521 0.951 . S
H497 C523 0.950 . S
H498 C524 0.950 . S
H499 C526 0.950 . S
H500 C529 0.950 . S
H501 C530 0.950 . S
H502 C532 0.950 . S
H503 C533 0.950 . S
C504 H486 0.951 . S
C504 C505 1.366 . S
C504 C506 1.388 . S
C505 C504 1.366 . S
C505 C509 1.385 . S
C506 H487 0.951 . S
C506 C504 1.388 . S
C506 C507 1.366 . S
C507 C506 1.366 . S
C507 C508 1.414 . S
C507 C510 1.499 . S
C508 H488 0.950 . S
C508 C507 1.414 . S
C508 C509 1.374 . S
C509 H489 0.950 . S
C509 C505 1.385 . S
C509 C508 1.374 . S
C510 C507 1.499 . S
C510 C511 1.373 . S
C510 C512 1.389 . S
C511 H490 0.950 . S
C511 C510 1.373 . S
C511 C527 1.377 . S
C512 C510 1.389 . S
C512 C513 1.524 . S
C512 C526 1.377 . S
C513 C512 1.524 . S
C513 C514 1.397 . S
C513 C518 1.363 . S
C514 H491 0.950 . S
C514 C513 1.397 . S
C514 C515 1.334 . S
C515 H492 0.950 . S
C515 C514 1.334 . S
C515 C516 1.287 . S
C516 C515 1.287 . S
C516 C517 1.524 . S
C516 H535 0.913 . S
C517 H493 0.950 . S
C517 C516 1.524 . S
C517 C518 1.415 . S
C518 H494 0.950 . S
C518 C513 1.363 . S
C518 C517 1.415 . S
C519 H495 0.951 . S
C519 C520 1.366 . S
C519 C521 1.388 . S
C520 C519 1.366 . S
C520 C524 1.385 . S
C521 H496 0.951 . S
C521 C519 1.388 . S
C521 C522 1.366 . S
C522 C521 1.366 . S
C522 C523 1.414 . S
C522 C525 1.499 . S
C523 H497 0.950 . S
C523 C522 1.414 . S
C523 C524 1.374 . S
C524 H498 0.950 . S
C524 C520 1.385 . S
C524 C523 1.374 . S
C525 C522 1.499 . S
C525 C526 1.373 . S
C525 C527 1.389 . S
C526 H499 0.950 . S
C526 C512 1.377 . S
C526 C525 1.373 . S
C527 C511 1.377 . S
C527 C525 1.389 . S
C527 C528 1.524 . S
C528 C527 1.524 . S
C528 C529 1.397 . S
C528 C533 1.363 . S
C529 H500 0.950 . S
C529 C528 1.397 . S
C529 C530 1.334 . S
C530 H501 0.950 . S
C530 C529 1.334 . S
C530 C531 1.287 . S
C531 C530 1.287 . S
C531 C532 1.524 . S
C531 H534 0.999 . S
C532 H502 0.950 . S
C532 C531 1.524 . S
C532 C533 1.415 . S
C533 H503 0.950 . S
C533 C528 1.363 . S
C533 C532 1.415 . S
H534 C531 0.999 . S
H535 C516 0.913 . S
H536 C554 0.951 . S
H537 C556 0.951 . S
H538 C558 0.950 . S
H539 C559 0.950 . S
H540 C561 0.950 . S
H541 C564 0.950 . S
H542 C565 0.950 . S
H543 C567 0.950 . S
H544 C568 0.950 . S
H545 C569 0.951 . S
H546 C571 0.951 . S
H547 C573 0.950 . S
H548 C574 0.950 . S
H549 C576 0.950 . S
H550 C579 0.950 . S
H551 C580 0.950 . S
H552 C582 0.950 . S
H553 C583 0.950 . S
C554 H536 0.951 . S
C554 C555 1.366 . S
C554 C556 1.388 . S
C555 C554 1.366 . S
C555 C559 1.385 . S
C556 H537 0.951 . S
C556 C554 1.388 . S
C556 C557 1.366 . S
C557 C556 1.366 . S
C557 C558 1.414 . S
C557 C560 1.499 . S
C558 H538 0.950 . S
C558 C557 1.414 . S
C558 C559 1.374 . S
C559 H539 0.950 . S
C559 C555 1.385 . S
C559 C558 1.374 . S
C560 C557 1.499 . S
C560 C561 1.373 . S
C560 C562 1.389 . S
C561 H540 0.950 . S
C561 C560 1.373 . S
C561 C577 1.377 . S
C562 C560 1.389 . S
C562 C563 1.524 . S
C562 C576 1.377 . S
C563 C562 1.524 . S
C563 C564 1.397 . S
C563 C568 1.363 . S
C564 H541 0.950 . S
C564 C563 1.397 . S
C564 C565 1.334 . S
C565 H542 0.950 . S
C565 C564 1.334 . S
C565 C566 1.287 . S
C566 C565 1.287 . S
C566 C567 1.524 . S
C566 H585 0.913 . S
C567 H543 0.950 . S
C567 C566 1.524 . S
C567 C568 1.415 . S
C568 H544 0.950 . S
C568 C563 1.363 . S
C568 C567 1.415 . S
C569 H545 0.951 . S
C569 C570 1.366 . S
C569 C571 1.388 . S
C570 C569 1.366 . S
C570 C574 1.385 . S
C571 H546 0.951 . S
C571 C569 1.388 . S
C571 C572 1.366 . S
C572 C571 1.366 . S
C572 C573 1.414 . S
C572 C575 1.499 . S
C573 H547 0.950 . S
C573 C572 1.414 . S
C573 C574 1.374 . S
C574 H548 0.950 . S
C574 C570 1.385 . S
C574 C573 1.374 . S
C575 C572 1.499 . S
C575 C576 1.373 . S
C575 C577 1.389 . S
C576 H549 0.950 . S
C576 C562 1.377 . S
C576 C575 1.373 . S
C577 C561 1.377 . S
C577 C575 1.389 . S
C577 C578 1.524 . S
C578 C577 1.524 . S
C578 C579 1.397 . S
C578 C583 1.363 . S
C579 H550 0.950 . S
C579 C578 1.397 . S
C579 C580 1.334 . S
C580 H551 0.950 . S
C580 C579 1.334 . S
C580 C581 1.287 . S
C581 C580 1.287 . S
C581 C582 1.524 . S
C581 H584 0.999 . S
C582 H552 0.950 . S
C582 C581 1.524 . S
C582 C583 1.415 . S
C583 H553 0.950 . S
C583 C578 1.363 . S
C583 C582 1.415 . S
H584 C581 0.999 . S
H585 C566 0.913 . S
H586 C604 0.951 . S
H587 C606 0.951 . S
H588 C608 0.950 . S
H589 C609 0.950 . S
H590 C611 0.950 . S
H591 C614 0.950 . S
H592 C615 0.950 . S
H593 C617 0.950 . S
H594 C618 0.950 . S
H595 C619 0.951 . S
H596 C621 0.951 . S
H597 C623 0.950 . S
H598 C624 0.950 . S
H599 C626 0.950 . S
H600 C629 0.950 . S
H601 C630 0.950 . S
H602 C632 0.950 . S
H603 C633 0.950 . S
C604 H586 0.951 . S
C604 C605 1.366 . S
C604 C606 1.388 . S
C605 C604 1.366 . S
C605 C609 1.385 . S
C606 H587 0.951 . S
C606 C604 1.388 . S
C606 C607 1.366 . S
C607 C606 1.366 . S
C607 C608 1.414 . S
C607 C610 1.499 . S
C608 H588 0.950 . S
C608 C607 1.414 . S
C608 C609 1.374 . S
C609 H589 0.950 . S
C609 C605 1.385 . S
C609 C608 1.374 . S
C610 C607 1.499 . S
C610 C611 1.373 . S
C610 C612 1.389 . S
C611 H590 0.950 . S
C611 C610 1.373 . S
C611 C627 1.377 . S
C612 C610 1.389 . S
C612 C613 1.524 . S
C612 C626 1.377 . S
C613 C612 1.524 . S
C613 C614 1.397 . S
C613 C618 1.363 . S
C614 H591 0.950 . S
C614 C613 1.397 . S
C614 C615 1.334 . S
C615 H592 0.950 . S
C615 C614 1.334 . S
C615 C616 1.287 . S
C616 C615 1.287 . S
C616 C617 1.524 . S
C616 H635 0.913 . S
C617 H593 0.950 . S
C617 C616 1.524 . S
C617 C618 1.415 . S
C618 H594 0.950 . S
C618 C613 1.363 . S
C618 C617 1.415 . S
C619 H595 0.951 . S
C619 C620 1.366 . S
C619 C621 1.388 . S
C620 C619 1.366 . S
C620 C624 1.385 . S
C621 H596 0.951 . S
C621 C619 1.388 . S
C621 C622 1.366 . S
C622 C621 1.366 . S
C622 C623 1.414 . S
C622 C625 1.499 . S
C623 H597 0.950 . S
C623 C622 1.414 . S
C623 C624 1.374 . S
C624 H598 0.950 . S
C624 C620 1.385 . S
C624 C623 1.374 . S
C625 C622 1.499 . S
C625 C626 1.373 . S
C625 C627 1.389 . S
C626 H599 0.950 . S
C626 C612 1.377 . S
C626 C625 1.373 . S
C627 C611 1.377 . S
C627 C625 1.389 . S
C627 C628 1.524 . S
C628 C627 1.524 . S
C628 C629 1.397 . S
C628 C633 1.363 . S
C629 H600 0.950 . S
C629 C628 1.397 . S
C629 C630 1.334 . S
C630 H601 0.950 . S
C630 C629 1.334 . S
C630 C631 1.287 . S
C631 C630 1.287 . S
C631 C632 1.524 . S
C631 H634 0.999 . S
C632 H602 0.950 . S
C632 C631 1.524 . S
C632 C633 1.415 . S
C633 H603 0.950 . S
C633 C628 1.363 . S
C633 C632 1.415 . S
H634 C631 0.999 . S
H635 C616 0.913 . S
H636 C654 0.951 . S
H637 C656 0.951 . S
H638 C658 0.950 . S
H639 C659 0.950 . S
H640 C661 0.950 . S
H641 C664 0.950 . S
H642 C665 0.950 . S
H643 C667 0.950 . S
H644 C668 0.950 . S
H645 C669 0.951 . S
H646 C671 0.951 . S
H647 C673 0.950 . S
H648 C674 0.950 . S
H649 C676 0.950 . S
H650 C679 0.950 . S
H651 C680 0.950 . S
H652 C682 0.950 . S
H653 C683 0.950 . S
C654 H636 0.951 . S
C654 C655 1.366 . S
C654 C656 1.388 . S
C655 C654 1.366 . S
C655 C659 1.385 . S
C656 H637 0.951 . S
C656 C654 1.388 . S
C656 C657 1.366 . S
C657 C656 1.366 . S
C657 C658 1.414 . S
C657 C660 1.499 . S
C658 H638 0.950 . S
C658 C657 1.414 . S
C658 C659 1.374 . S
C659 H639 0.950 . S
C659 C655 1.385 . S
C659 C658 1.374 . S
C660 C657 1.499 . S
C660 C661 1.373 . S
C660 C662 1.389 . S
C661 H640 0.950 . S
C661 C660 1.373 . S
C661 C677 1.377 . S
C662 C660 1.389 . S
C662 C663 1.524 . S
C662 C676 1.377 . S
C663 C662 1.524 . S
C663 C664 1.397 . S
C663 C668 1.363 . S
C664 H641 0.950 . S
C664 C663 1.397 . S
C664 C665 1.334 . S
C665 H642 0.950 . S
C665 C664 1.334 . S
C665 C666 1.287 . S
C666 C665 1.287 . S
C666 C667 1.524 . S
C666 H685 0.913 . S
C667 H643 0.950 . S
C667 C666 1.524 . S
C667 C668 1.415 . S
C668 H644 0.950 . S
C668 C663 1.363 . S
C668 C667 1.415 . S
C669 H645 0.951 . S
C669 C670 1.366 . S
C669 C671 1.388 . S
C670 C669 1.366 . S
C670 C674 1.385 . S
C671 H646 0.951 . S
C671 C669 1.388 . S
C671 C672 1.366 . S
C672 C671 1.366 . S
C672 C673 1.414 . S
C672 C675 1.499 . S
C673 H647 0.950 . S
C673 C672 1.414 . S
C673 C674 1.374 . S
C674 H648 0.950 . S
C674 C670 1.385 . S
C674 C673 1.374 . S
C675 C672 1.499 . S
C675 C676 1.373 . S
C675 C677 1.389 . S
C676 H649 0.950 . S
C676 C662 1.377 . S
C676 C675 1.373 . S
C677 C661 1.377 . S
C677 C675 1.389 . S
C677 C678 1.524 . S
C678 C677 1.524 . S
C678 C679 1.397 . S
C678 C683 1.363 . S
C679 H650 0.950 . S
C679 C678 1.397 . S
C679 C680 1.334 . S
C680 H651 0.950 . S
C680 C679 1.334 . S
C680 C681 1.287 . S
C681 C680 1.287 . S
C681 C682 1.524 . S
C681 H684 0.999 . S
C682 H652 0.950 . S
C682 C681 1.524 . S
C682 C683 1.415 . S
C683 H653 0.950 . S
C683 C678 1.363 . S
C683 C682 1.415 . S
H684 C681 0.999 . S
H685 C666 0.913 . S
H686 C704 0.951 . S
H687 C706 0.951 . S
H688 C708 0.950 . S
H689 C709 0.950 . S
H690 C711 0.950 . S
H691 C714 0.950 . S
H692 C715 0.950 . S
H693 C717 0.950 . S
H694 C718 0.950 . S
H695 C719 0.951 . S
H696 C721 0.951 . S
H697 C723 0.950 . S
H698 C724 0.950 . S
H699 C726 0.950 . S
H700 C729 0.950 . S
H701 C730 0.950 . S
H702 C732 0.950 . S
H703 C733 0.950 . S
C704 H686 0.951 . S
C704 C705 1.366 . S
C704 C706 1.388 . S
C705 C704 1.366 . S
C705 C709 1.385 . S
C706 H687 0.951 . S
C706 C704 1.388 . S
C706 C707 1.366 . S
C707 C706 1.366 . S
C707 C708 1.414 . S
C707 C710 1.499 . S
C708 H688 0.950 . S
C708 C707 1.414 . S
C708 C709 1.374 . S
C709 H689 0.950 . S
C709 C705 1.385 . S
C709 C708 1.374 . S
C710 C707 1.499 . S
C710 C711 1.373 . S
C710 C712 1.389 . S
C711 H690 0.950 . S
C711 C710 1.373 . S
C711 C727 1.377 . S
C712 C710 1.389 . S
C712 C713 1.524 . S
C712 C726 1.377 . S
C713 C712 1.524 . S
C713 C714 1.397 . S
C713 C718 1.363 . S
C714 H691 0.950 . S
C714 C713 1.397 . S
C714 C715 1.334 . S
C715 H692 0.950 . S
C715 C714 1.334 . S
C715 C716 1.287 . S
C716 C715 1.287 . S
C716 C717 1.524 . S
C716 H735 0.913 . S
C717 H693 0.950 . S
C717 C716 1.524 . S
C717 C718 1.415 . S
C718 H694 0.950 . S
C718 C713 1.363 . S
C718 C717 1.415 . S
C719 H695 0.951 . S
C719 C720 1.366 . S
C719 C721 1.388 . S
C720 C719 1.366 . S
C720 C724 1.385 . S
C721 H696 0.951 . S
C721 C719 1.388 . S
C721 C722 1.366 . S
C722 C721 1.366 . S
C722 C723 1.414 . S
C722 C725 1.499 . S
C723 H697 0.950 . S
C723 C722 1.414 . S
C723 C724 1.374 . S
C724 H698 0.950 . S
C724 C720 1.385 . S
C724 C723 1.374 . S
C725 C722 1.499 . S
C725 C726 1.373 . S
C725 C727 1.389 . S
C726 H699 0.950 . S
C726 C712 1.377 . S
C726 C725 1.373 . S
C727 C711 1.377 . S
C727 C725 1.389 . S
C727 C728 1.524 . S
C728 C727 1.524 . S
C728 C729 1.397 . S
C728 C733 1.363 . S
C729 H700 0.950 . S
C729 C728 1.397 . S
C729 C730 1.334 . S
C730 H701 0.950 . S
C730 C729 1.334 . S
C730 C731 1.287 . S
C731 C730 1.287 . S
C731 C732 1.524 . S
C731 H734 0.999 . S
C732 H702 0.950 . S
C732 C731 1.524 . S
C732 C733 1.415 . S
C733 H703 0.950 . S
C733 C728 1.363 . S
C733 C732 1.415 . S
H734 C731 0.999 . S
H735 C716 0.913 . S
H736 C754 0.951 . S
H737 C756 0.951 . S
H738 C758 0.950 . S
H739 C759 0.950 . S
H740 C761 0.950 . S
H741 C764 0.950 . S
H742 C765 0.950 . S
H743 C767 0.950 . S
H744 C768 0.950 . S
H745 C769 0.951 . S
H746 C771 0.951 . S
H747 C773 0.950 . S
H748 C774 0.950 . S
H749 C776 0.950 . S
H750 C779 0.950 . S
H751 C780 0.950 . S
H752 C782 0.950 . S
H753 C783 0.950 . S
C754 H736 0.951 . S
C754 C755 1.366 . S
C754 C756 1.388 . S
C755 C754 1.366 . S
C755 C759 1.385 . S
C756 H737 0.951 . S
C756 C754 1.388 . S
C756 C757 1.366 . S
C757 C756 1.366 . S
C757 C758 1.414 . S
C757 C760 1.499 . S
C758 H738 0.950 . S
C758 C757 1.414 . S
C758 C759 1.374 . S
C759 H739 0.950 . S
C759 C755 1.385 . S
C759 C758 1.374 . S
C760 C757 1.499 . S
C760 C761 1.373 . S
C760 C762 1.389 . S
C761 H740 0.950 . S
C761 C760 1.373 . S
C761 C777 1.377 . S
C762 C760 1.389 . S
C762 C763 1.524 . S
C762 C776 1.377 . S
C763 C762 1.524 . S
C763 C764 1.397 . S
C763 C768 1.363 . S
C764 H741 0.950 . S
C764 C763 1.397 . S
C764 C765 1.334 . S
C765 H742 0.950 . S
C765 C764 1.334 . S
C765 C766 1.287 . S
C766 C765 1.287 . S
C766 C767 1.524 . S
C766 H785 0.913 . S
C767 H743 0.950 . S
C767 C766 1.524 . S
C767 C768 1.415 . S
C768 H744 0.950 . S
C768 C763 1.363 . S
C768 C767 1.415 . S
C769 H745 0.951 . S
C769 C770 1.366 . S
C769 C771 1.388 . S
C770 C769 1.366 . S
C770 C774 1.385 . S
C771 H746 0.951 . S
C771 C769 1.388 . S
C771 C772 1.366 . S
C772 C771 1.366 . S
C772 C773 1.414 . S
C772 C775 1.499 . S
C773 H747 0.950 . S
C773 C772 1.414 . S
C773 C774 1.374 . S
C774 H748 0.950 . S
C774 C770 1.385 . S
C774 C773 1.374 . S
C775 C772 1.499 . S
C775 C776 1.373 . S
C775 C777 1.389 . S
C776 H749 0.950 . S
C776 C762 1.377 . S
C776 C775 1.373 . S
C777 C761 1.377 . S
C777 C775 1.389 . S
C777 C778 1.524 . S
C778 C777 1.524 . S
C778 C779 1.397 . S
C778 C783 1.363 . S
C779 H750 0.950 . S
C779 C778 1.397 . S
C779 C780 1.334 . S
C780 H751 0.950 . S
C780 C779 1.334 . S
C780 C781 1.287 . S
C781 C780 1.287 . S
C781 C782 1.524 . S
C781 H784 0.999 . S
C782 H752 0.950 . S
C782 C781 1.524 . S
C782 C783 1.415 . S
C783 H753 0.950 . S
C783 C778 1.363 . S
C783 C782 1.415 . S
H784 C781 0.999 . S
H785 C766 0.913 . S
H786 C804 0.951 . S
H787 C806 0.951 . S
H788 C808 0.950 . S
H789 C809 0.950 . S
H790 C811 0.950 . S
H791 C814 0.950 . S
H792 C815 0.950 . S
H793 C817 0.950 . S
H794 C818 0.950 . S
H795 C819 0.951 . S
H796 C821 0.951 . S
H797 C823 0.950 . S
H798 C824 0.950 . S
H799 C826 0.950 . S
H800 C829 0.950 . S
H801 C830 0.950 . S
H802 C832 0.950 . S
H803 C833 0.950 . S
C804 H786 0.951 . S
C804 C805 1.366 . S
C804 C806 1.388 . S
C805 C804 1.366 . S
C805 C809 1.385 . S
C806 H787 0.951 . S
C806 C804 1.388 . S
C806 C807 1.366 . S
C807 C806 1.366 . S
C807 C808 1.414 . S
C807 C810 1.499 . S
C808 H788 0.950 . S
C808 C807 1.414 . S
C808 C809 1.374 . S
C809 H789 0.950 . S
C809 C805 1.385 . S
C809 C808 1.374 . S
C810 C807 1.499 . S
C810 C811 1.373 . S
C810 C812 1.389 . S
C811 H790 0.950 . S
C811 C810 1.373 . S
C811 C827 1.377 . S
C812 C810 1.389 . S
C812 C813 1.524 . S
C812 C826 1.377 . S
C813 C812 1.524 . S
C813 C814 1.397 . S
C813 C818 1.363 . S
C814 H791 0.950 . S
C814 C813 1.397 . S
C814 C815 1.334 . S
C815 H792 0.950 . S
C815 C814 1.334 . S
C815 C816 1.287 . S
C816 C815 1.287 . S
C816 C817 1.524 . S
C816 H835 0.913 . S
C817 H793 0.950 . S
C817 C816 1.524 . S
C817 C818 1.415 . S
C818 H794 0.950 . S
C818 C813 1.363 . S
C818 C817 1.415 . S
C819 H795 0.951 . S
C819 C820 1.366 . S
C819 C821 1.388 . S
C820 C819 1.366 . S
C820 C824 1.385 . S
C821 H796 0.951 . S
C821 C819 1.388 . S
C821 C822 1.366 . S
C822 C821 1.366 . S
C822 C823 1.414 . S
C822 C825 1.499 . S
C823 H797 0.950 . S
C823 C822 1.414 . S
C823 C824 1.374 . S
C824 H798 0.950 . S
C824 C820 1.385 . S
C824 C823 1.374 . S
C825 C822 1.499 . S
C825 C826 1.373 . S
C825 C827 1.389 . S
C826 H799 0.950 . S
C826 C812 1.377 . S
C826 C825 1.373 . S
C827 C811 1.377 . S
C827 C825 1.389 . S
C827 C828 1.524 . S
C828 C827 1.524 . S
C828 C829 1.397 . S
C828 C833 1.363 . S
C829 H800 0.950 . S
C829 C828 1.397 . S
C829 C830 1.334 . S
C830 H801 0.950 . S
C830 C829 1.334 . S
C830 C831 1.287 . S
C831 C830 1.287 . S
C831 C832 1.524 . S
C831 H834 0.999 . S
C832 H802 0.950 . S
C832 C831 1.524 . S
C832 C833 1.415 . S
C833 H803 0.950 . S
C833 C828 1.363 . S
C833 C832 1.415 . S
H834 C831 0.999 . S
H835 C816 0.913 . S
H836 C854 0.951 . S
H837 C856 0.951 . S
H838 C858 0.950 . S
H839 C859 0.950 . S
H840 C861 0.950 . S
H841 C864 0.950 . S
H842 C865 0.950 . S
H843 C867 0.950 . S
H844 C868 0.950 . S
H845 C869 0.951 . S
H846 C871 0.951 . S
H847 C873 0.950 . S
H848 C874 0.950 . S
H849 C876 0.950 . S
H850 C879 0.950 . S
H851 C880 0.950 . S
H852 C882 0.950 . S
H853 C883 0.950 . S
C854 H836 0.951 . S
C854 C855 1.366 . S
C854 C856 1.388 . S
C855 C854 1.366 . S
C855 C859 1.385 . S
C856 H837 0.951 . S
C856 C854 1.388 . S
C856 C857 1.366 . S
C857 C856 1.366 . S
C857 C858 1.414 . S
C857 C860 1.499 . S
C858 H838 0.950 . S
C858 C857 1.414 . S
C858 C859 1.374 . S
C859 H839 0.950 . S
C859 C855 1.385 . S
C859 C858 1.374 . S
C860 C857 1.499 . S
C860 C861 1.373 . S
C860 C862 1.389 . S
C861 H840 0.950 . S
C861 C860 1.373 . S
C861 C877 1.377 . S
C862 C860 1.389 . S
C862 C863 1.524 . S
C862 C876 1.377 . S
C863 C862 1.524 . S
C863 C864 1.397 . S
C863 C868 1.363 . S
C864 H841 0.950 . S
C864 C863 1.397 . S
C864 C865 1.334 . S
C865 H842 0.950 . S
C865 C864 1.334 . S
C865 C866 1.287 . S
C866 C865 1.287 . S
C866 C867 1.524 . S
C866 H885 0.913 . S
C867 H843 0.950 . S
C867 C866 1.524 . S
C867 C868 1.415 . S
C868 H844 0.950 . S
C868 C863 1.363 . S
C868 C867 1.415 . S
C869 H845 0.951 . S
C869 C870 1.366 . S
C869 C871 1.388 . S
C870 C869 1.366 . S
C870 C874 1.385 . S
C871 H846 0.951 . S
C871 C869 1.388 . S
C871 C872 1.366 . S
C872 C871 1.366 . S
C872 C873 1.414 . S
C872 C875 1.499 . S
C873 H847 0.950 . S
C873 C872 1.414 . S
C873 C874 1.374 . S
C874 H848 0.950 . S
C874 C870 1.385 . S
C874 C873 1.374 . S
C875 C872 1.499 . S
C875 C876 1.373 . S
C875 C877 1.389 . S
C876 H849 0.950 . S
C876 C862 1.377 . S
C876 C875 1.373 . S
C877 C861 1.377 . S
C877 C875 1.389 . S
C877 C878 1.524 . S
C878 C877 1.524 . S
C878 C879 1.397 . S
C878 C883 1.363 . S
C879 H850 0.950 . S
C879 C878 1.397 . S
C879 C880 1.334 . S
C880 H851 0.950 . S
C880 C879 1.334 . S
C880 C881 1.287 . S
C881 C880 1.287 . S
C881 C882 1.524 . S
C881 H884 0.999 . S
C882 H852 0.950 . S
C882 C881 1.524 . S
C882 C883 1.415 . S
C883 H853 0.950 . S
C883 C878 1.363 . S
C883 C882 1.415 . S
H884 C881 0.999 . S
H885 C866 0.913 . S
H886 C904 0.951 . S
H887 C906 0.951 . S
H888 C908 0.950 . S
H889 C909 0.950 . S
H890 C911 0.950 . S
H891 C914 0.950 . S
H892 C915 0.950 . S
H893 C917 0.950 . S
H894 C918 0.950 . S
H895 C919 0.951 . S
H896 C921 0.951 . S
H897 C923 0.950 . S
H898 C924 0.950 . S
H899 C926 0.950 . S
H900 C929 0.950 . S
H901 C930 0.950 . S
H902 C932 0.950 . S
H903 C933 0.950 . S
C904 H886 0.951 . S
C904 C905 1.366 . S
C904 C906 1.388 . S
C905 C904 1.366 . S
C905 C909 1.385 . S
C906 H887 0.951 . S
C906 C904 1.388 . S
C906 C907 1.366 . S
C907 C906 1.366 . S
C907 C908 1.414 . S
C907 C910 1.499 . S
C908 H888 0.950 . S
C908 C907 1.414 . S
C908 C909 1.374 . S
C909 H889 0.950 . S
C909 C905 1.385 . S
C909 C908 1.374 . S
C910 C907 1.499 . S
C910 C911 1.373 . S
C910 C912 1.389 . S
C911 H890 0.950 . S
C911 C910 1.373 . S
C911 C927 1.377 . S
C912 C910 1.389 . S
C912 C913 1.524 . S
C912 C926 1.377 . S
C913 C912 1.524 . S
C913 C914 1.397 . S
C913 C918 1.363 . S
C914 H891 0.950 . S
C914 C913 1.397 . S
C914 C915 1.334 . S
C915 H892 0.950 . S
C915 C914 1.334 . S
C915 C916 1.287 . S
C916 C915 1.287 . S
C916 C917 1.524 . S
C916 H935 0.913 . S
C917 H893 0.950 . S
C917 C916 1.524 . S
C917 C918 1.415 . S
C918 H894 0.950 . S
C918 C913 1.363 . S
C918 C917 1.415 . S
C919 H895 0.951 . S
C919 C920 1.366 . S
C919 C921 1.388 . S
C920 C919 1.366 . S
C920 C924 1.385 . S
C921 H896 0.951 . S
C921 C919 1.388 . S
C921 C922 1.366 . S
C922 C921 1.366 . S
C922 C923 1.414 . S
C922 C925 1.499 . S
C923 H897 0.950 . S
C923 C922 1.414 . S
C923 C924 1.374 . S
C924 H898 0.950 . S
C924 C920 1.385 . S
C924 C923 1.374 . S
C925 C922 1.499 . S
C925 C926 1.373 . S
C925 C927 1.389 . S
C926 H899 0.950 . S
C926 C912 1.377 . S
C926 C925 1.373 . S
C927 C911 1.377 . S
C927 C925 1.389 . S
C927 C928 1.524 . S
C928 C927 1.524 . S
C928 C929 1.397 . S
C928 C933 1.363 . S
C929 H900 0.950 . S
C929 C928 1.397 . S
C929 C930 1.334 . S
C930 H901 0.950 . S
C930 C929 1.334 . S
C930 C931 1.287 . S
C931 C930 1.287 . S
C931 C932 1.524 . S
C931 H934 0.999 . S
C932 H902 0.950 . S
C932 C931 1.524 . S
C932 C933 1.415 . S
C933 H903 0.950 . S
C933 C928 1.363 . S
C933 C932 1.415 . S
H934 C931 0.999 . S
H935 C916 0.913 . S
H936 C954 0.951 . S
H937 C956 0.951 . S
H938 C958 0.950 . S
H939 C959 0.950 . S
H940 C961 0.950 . S
H941 C964 0.950 . S
H942 C965 0.950 . S
H943 C967 0.950 . S
H944 C968 0.950 . S
H945 C969 0.951 . S
H946 C971 0.951 . S
H947 C973 0.950 . S
H948 C974 0.950 . S
H949 C976 0.950 . S
H950 C979 0.950 . S
H951 C980 0.950 . S
H952 C982 0.950 . S
H953 C983 0.950 . S
C954 H936 0.951 . S
C954 C955 1.366 . S
C954 C956 1.388 . S
C955 C954 1.366 . S
C955 C959 1.385 . S
C956 H937 0.951 . S
C956 C954 1.388 . S
C956 C957 1.366 . S
C957 C956 1.366 . S
C957 C958 1.414 . S
C957 C960 1.499 . S
C958 H938 0.950 . S
C958 C957 1.414 . S
C958 C959 1.374 . S
C959 H939 0.950 . S
C959 C955 1.385 . S
C959 C958 1.374 . S
C960 C957 1.499 . S
C960 C961 1.373 . S
C960 C962 1.389 1_455 S
C961 H940 0.950 . S
C961 C960 1.373 . S
C961 C977 1.377 . S
C962 C960 1.389 1_655 S
C962 C963 1.524 . S
C962 C976 1.377 . S
C963 C962 1.524 . S
C963 C964 1.397 . S
C963 C968 1.363 . S
C964 H941 0.950 . S
C964 C963 1.397 . S
C964 C965 1.334 . S
C965 H942 0.950 . S
C965 C964 1.334 . S
C965 C966 1.287 . S
C966 C965 1.287 . S
C966 C967 1.524 . S
C966 H985 0.913 . S
C967 H943 0.950 . S
C967 C966 1.524 . S
C967 C968 1.415 . S
C968 H944 0.950 . S
C968 C963 1.363 . S
C968 C967 1.415 . S
C969 H945 0.951 . S
C969 C970 1.366 . S
C969 C971 1.388 1_556 S
C970 C969 1.366 . S
C970 C974 1.385 . S
C971 H946 0.951 . S
C971 C969 1.388 1_554 S
C971 C972 1.366 . S
C972 C971 1.366 . S
C972 C973 1.414 . S
C972 C975 1.499 . S
C973 H947 0.950 . S
C973 C972 1.414 . S
C973 C974 1.374 1_554 S
C974 H948 0.950 . S
C974 C970 1.385 . S
C974 C973 1.374 1_556 S
C975 C972 1.499 . S
C975 C976 1.373 1_455 S
C975 C977 1.389 . S
C976 H949 0.950 . S
C976 C962 1.377 . S
C976 C975 1.373 1_655 S
C977 C961 1.377 . S
C977 C975 1.389 . S
C977 C978 1.524 . S
C978 C977 1.524 . S
C978 C979 1.397 . S
C978 C983 1.363 . S
C979 H950 0.950 . S
C979 C978 1.397 . S
C979 C980 1.334 . S
C980 H951 0.950 . S
C980 C979 1.334 . S
C980 C981 1.287 . S
C981 C980 1.287 . S
C981 C982 1.524 . S
C981 H984 0.999 . S
C982 H952 0.950 . S
C982 C981 1.524 . S
C982 C983 1.415 . S
C983 H953 0.950 . S
C983 C978 1.363 . S
C983 C982 1.415 . S
H984 C981 0.999 . S
H985 C966 0.913 . S
H986 C1004 0.951 . S
H987 C1006 0.951 . S
H988 C1008 0.950 1_565 S
H989 C1009 0.950 1_565 S
H990 C1011 0.950 1_565 S
H991 C1014 0.950 . S
H992 C1015 0.950 . S
H993 C1017 0.950 . S
H994 C1018 0.950 . S
H995 C1019 0.951 1_565 S
H996 C1021 0.951 1_565 S
H997 C1023 0.950 . S
H998 C1024 0.950 . S
H999 C1026 0.950 . S
H1000 C1029 0.950 1_545 S
H1001 C1030 0.950 . S
H1002 C1032 0.950 . S
H1003 C1033 0.950 . S
C1004 H986 0.951 . S
C1004 C1005 1.366 . S
C1004 C1006 1.388 . S
C1005 C1004 1.366 . S
C1005 C1009 1.385 . S
C1006 H987 0.951 . S
C1006 C1004 1.388 . S
C1006 C1007 1.366 . S
C1007 C1006 1.366 . S
C1007 C1008 1.414 . S
C1007 C1010 1.499 . S
C1008 H988 0.950 1_545 S
C1008 C1007 1.414 . S
C1008 C1009 1.374 . S
C1009 H989 0.950 1_545 S
C1009 C1005 1.385 . S
C1009 C1008 1.374 . S
C1010 C1007 1.499 . S
C1010 C1011 1.373 . S
C1010 C1012 1.389 . S
C1011 H990 0.950 1_545 S
C1011 C1010 1.373 . S
C1011 C1027 1.377 . S
C1012 C1010 1.389 . S
C1012 C1013 1.524 . S
C1012 C1026 1.377 . S
C1013 C1012 1.524 . S
C1013 C1014 1.397 . S
C1013 C1018 1.363 . S
C1014 H991 0.950 . S
C1014 C1013 1.397 . S
C1014 C1015 1.334 . S
C1015 H992 0.950 . S
C1015 C1014 1.334 . S
C1015 C1016 1.287 . S
C1016 C1015 1.287 . S
C1016 C1017 1.524 . S
C1016 H1035 0.913 . S
C1017 H993 0.950 . S
C1017 C1016 1.524 . S
C1017 C1018 1.415 . S
C1018 H994 0.950 . S
C1018 C1013 1.363 . S
C1018 C1017 1.415 . S
C1019 H995 0.951 1_545 S
C1019 C1020 1.366 . S
C1019 C1021 1.388 . S
C1020 C1019 1.366 . S
C1020 C1024 1.385 . S
C1021 H996 0.951 1_545 S
C1021 C1019 1.388 . S
C1021 C1022 1.366 . S
C1022 C1021 1.366 . S
C1022 C1023 1.414 . S
C1022 C1025 1.499 . S
C1023 H997 0.950 . S
C1023 C1022 1.414 . S
C1023 C1024 1.374 . S
C1024 H998 0.950 . S
C1024 C1020 1.385 . S
C1024 C1023 1.374 . S
C1025 C1022 1.499 . S
C1025 C1026 1.373 . S
C1025 C1027 1.389 . S
C1026 H999 0.950 . S
C1026 C1012 1.377 . S
C1026 C1025 1.373 . S
C1027 C1011 1.377 . S
C1027 C1025 1.389 . S
C1027 C1028 1.524 1_545 S
C1028 C1027 1.524 1_565 S
C1028 C1029 1.397 . S
C1028 C1033 1.363 . S
C1029 H1000 0.950 1_565 S
C1029 C1028 1.397 . S
C1029 C1030 1.334 . S
C1030 H1001 0.950 . S
C1030 C1029 1.334 . S
C1030 C1031 1.287 . S
C1031 C1030 1.287 . S
C1031 C1032 1.524 . S
C1031 H1034 0.999 . S
C1032 H1002 0.950 . S
C1032 C1031 1.524 . S
C1032 C1033 1.415 . S
C1033 H1003 0.950 . S
C1033 C1028 1.363 . S
C1033 C1032 1.415 . S
H1034 C1031 0.999 . S
H1035 C1016 0.913 . S
H1036 C1054 0.951 . S
H1037 C1056 0.951 . S
H1038 C1058 0.950 . S
H1039 C1059 0.950 . S
H1040 C1061 0.950 . S
H1041 C1064 0.950 . S
H1042 C1065 0.950 . S
H1043 C1067 0.950 . S
H1044 C1068 0.950 . S
H1045 C1069 0.951 . S
H1046 C1071 0.951 . S
H1047 C1073 0.950 . S
H1048 C1074 0.950 . S
H1049 C1076 0.950 . S
H1050 C1079 0.950 . S
H1051 C1080 0.950 . S
H1052 C1082 0.950 . S
H1053 C1083 0.950 . S
C1054 H1036 0.951 . S
C1054 C1055 1.366 . S
C1054 C1056 1.388 . S
C1055 C1054 1.366 . S
C1055 C1059 1.385 . S
C1056 H1037 0.951 . S
C1056 C1054 1.388 . S
C1056 C1057 1.366 . S
C1057 C1056 1.366 . S
C1057 C1058 1.414 . S
C1057 C1060 1.499 . S
C1058 H1038 0.950 . S
C1058 C1057 1.414 . S
C1058 C1059 1.374 . S
C1059 H1039 0.950 . S
C1059 C1055 1.385 . S
C1059 C1058 1.374 . S
C1060 C1057 1.499 . S
C1060 C1061 1.373 . S
C1060 C1062 1.389 . S
C1061 H1040 0.950 . S
C1061 C1060 1.373 . S
C1061 C1077 1.377 . S
C1062 C1060 1.389 . S
C1062 C1063 1.524 . S
C1062 C1076 1.377 . S
C1063 C1062 1.524 . S
C1063 C1064 1.397 . S
C1063 C1068 1.363 . S
C1064 H1041 0.950 . S
C1064 C1063 1.397 . S
C1064 C1065 1.334 . S
C1065 H1042 0.950 . S
C1065 C1064 1.334 . S
C1065 C1066 1.287 . S
C1066 C1065 1.287 . S
C1066 C1067 1.524 . S
C1066 H1085 0.913 . S
C1067 H1043 0.950 . S
C1067 C1066 1.524 . S
C1067 C1068 1.415 . S
C1068 H1044 0.950 . S
C1068 C1063 1.363 . S
C1068 C1067 1.415 . S
C1069 H1045 0.951 . S
C1069 C1070 1.366 . S
C1069 C1071 1.388 . S
C1070 C1069 1.366 . S
C1070 C1074 1.385 . S
C1071 H1046 0.951 . S
C1071 C1069 1.388 . S
C1071 C1072 1.366 . S
C1072 C1071 1.366 . S
C1072 C1073 1.414 . S
C1072 C1075 1.499 . S
C1073 H1047 0.950 . S
C1073 C1072 1.414 . S
C1073 C1074 1.374 . S
C1074 H1048 0.950 . S
C1074 C1070 1.385 . S
C1074 C1073 1.374 . S
C1075 C1072 1.499 . S
C1075 C1076 1.373 . S
C1075 C1077 1.389 . S
C1076 H1049 0.950 . S
C1076 C1062 1.377 . S
C1076 C1075 1.373 . S
C1077 C1061 1.377 . S
C1077 C1075 1.389 . S
C1077 C1078 1.524 . S
C1078 C1077 1.524 . S
C1078 C1079 1.397 . S
C1078 C1083 1.363 . S
C1079 H1050 0.950 . S
C1079 C1078 1.397 . S
C1079 C1080 1.334 . S
C1080 H1051 0.950 . S
C1080 C1079 1.334 . S
C1080 C1081 1.287 . S
C1081 C1080 1.287 . S
C1081 C1082 1.524 . S
C1081 H1084 0.999 . S
C1082 H1052 0.950 . S
C1082 C1081 1.524 . S
C1082 C1083 1.415 . S
C1083 H1053 0.950 . S
C1083 C1078 1.363 . S
C1083 C1082 1.415 . S
H1084 C1081 0.999 . S
H1085 C1066 0.913 . S
H1086 C1104 0.951 . S
H1087 C1106 0.951 . S
H1088 C1108 0.950 . S
H1089 C1109 0.950 . S
H1090 C1111 0.950 . S
H1091 C1114 0.950 . S
H1092 C1115 0.950 . S
H1093 C1117 0.950 . S
H1094 C1118 0.950 . S
H1095 C1119 0.933 1_565 S
H1096 C1121 0.951 1_565 S
H1097 C1123 0.950 . S
H1098 C1124 0.950 . S
H1099 C1126 0.950 . S
H1100 C1129 0.950 . S
H1101 C1130 0.950 . S
H1102 C1132 0.950 . S
H1103 C1133 0.950 . S
C1104 H1086 0.951 . S
C1104 C1105 1.366 . S
C1104 C1106 1.388 . S
C1105 C1104 1.366 . S
C1105 C1109 1.385 . S
C1106 H1087 0.951 . S
C1106 C1104 1.388 . S
C1106 C1107 1.366 . S
C1107 C1106 1.366 . S
C1107 C1108 1.414 . S
C1107 C1110 1.499 . S
C1108 H1088 0.950 . S
C1108 C1107 1.414 . S
C1108 C1109 1.374 . S
C1109 H1089 0.950 . S
C1109 C1105 1.385 . S
C1109 C1108 1.374 . S
C1110 C1107 1.499 . S
C1110 C1111 1.373 1_545 S
C1110 C1112 1.389 . S
C1111 H1090 0.950 . S
C1111 C1110 1.373 1_565 S
C1111 C1127 1.377 . S
C1112 C1110 1.389 . S
C1112 C1113 1.524 . S
C1112 C1126 1.377 . S
C1113 C1112 1.524 . S
C1113 C1114 1.397 . S
C1113 C1118 1.363 . S
C1114 H1091 0.950 . S
C1114 C1113 1.397 . S
C1114 C1115 1.334 . S
C1115 H1092 0.950 . S
C1115 C1114 1.334 . S
C1115 C1116 1.287 . S
C1116 C1115 1.287 . S
C1116 C1117 1.524 . S
C1116 H1135 0.913 . S
C1117 H1093 0.950 . S
C1117 C1116 1.524 . S
C1117 C1118 1.415 . S
C1118 H1094 0.950 . S
C1118 C1113 1.363 . S
C1118 C1117 1.415 . S
C1119 H1095 0.933 1_545 S
C1119 C1120 1.384 . S
C1119 C1121 1.388 . S
C1120 C1119 1.384 . S
C1120 C1124 1.385 . S
C1121 H1096 0.951 1_545 S
C1121 C1119 1.388 . S
C1121 C1122 1.366 . S
C1122 C1121 1.366 . S
C1122 C1123 1.414 . S
C1122 C1125 1.499 . S
C1123 H1097 0.950 . S
C1123 C1122 1.414 . S
C1123 C1124 1.374 . S
C1124 H1098 0.950 . S
C1124 C1120 1.385 . S
C1124 C1123 1.374 . S
C1125 C1122 1.499 . S
C1125 C1126 1.373 . S
C1125 C1127 1.389 1_545 S
C1126 H1099 0.950 . S
C1126 C1112 1.377 . S
C1126 C1125 1.373 . S
C1127 C1111 1.377 . S
C1127 C1125 1.389 1_565 S
C1127 C1128 1.524 . S
C1128 C1127 1.524 . S
C1128 C1129 1.397 . S
C1128 C1133 1.363 . S
C1129 H1100 0.950 . S
C1129 C1128 1.397 . S
C1129 C1130 1.334 . S
C1130 H1101 0.950 . S
C1130 C1129 1.334 . S
C1130 C1131 1.287 . S
C1131 C1130 1.287 . S
C1131 C1132 1.524 . S
C1131 H1134 0.999 . S
C1132 H1102 0.950 . S
C1132 C1131 1.524 . S
C1132 C1133 1.415 . S
C1133 H1103 0.950 . S
C1133 C1128 1.363 . S
C1133 C1132 1.415 . S
H1134 C1131 0.999 . S
H1135 C1116 0.913 . S
H1136 C1154 0.951 . S
H1137 C1156 0.951 . S
H1138 C1158 0.950 . S
H1139 C1159 0.950 . S
H1140 C1161 0.950 . S
H1141 C1164 0.950 . S
H1142 C1165 0.950 . S
H1143 C1167 0.950 . S
H1144 C1168 0.950 . S
H1145 C1169 0.951 . S
H1146 C1171 0.951 . S
H1147 C1173 0.950 . S
H1148 C1174 0.950 . S
H1149 C1176 0.950 . S
H1150 C1179 0.950 . S
H1151 C1180 0.950 . S
H1152 C1182 0.950 . S
H1153 C1183 0.950 . S
C1154 H1136 0.951 . S
C1154 C1155 1.366 . S
C1154 C1156 1.388 . S
C1155 C1154 1.366 . S
C1155 C1159 1.385 . S
C1156 H1137 0.951 . S
C1156 C1154 1.388 . S
C1156 C1157 1.366 . S
C1157 C1156 1.366 . S
C1157 C1158 1.414 . S
C1157 C1160 1.499 . S
C1158 H1138 0.950 . S
C1158 C1157 1.414 . S
C1158 C1159 1.374 . S
C1159 H1139 0.950 . S
C1159 C1155 1.385 . S
C1159 C1158 1.374 . S
C1160 C1157 1.499 . S
C1160 C1161 1.373 . S
C1160 C1162 1.389 . S
C1161 H1140 0.950 . S
C1161 C1160 1.373 . S
C1161 C1177 1.377 . S
C1162 C1160 1.389 . S
C1162 C1163 1.524 . S
C1162 C1176 1.377 . S
C1163 C1162 1.524 . S
C1163 C1164 1.397 . S
C1163 C1168 1.363 . S
C1164 H1141 0.950 . S
C1164 C1163 1.397 . S
C1164 C1165 1.334 . S
C1165 H1142 0.950 . S
C1165 C1164 1.334 . S
C1165 C1166 1.287 . S
C1166 C1165 1.287 . S
C1166 C1167 1.524 . S
C1166 H1185 0.913 . S
C1167 H1143 0.950 . S
C1167 C1166 1.524 . S
C1167 C1168 1.415 . S
C1168 H1144 0.950 . S
C1168 C1163 1.363 . S
C1168 C1167 1.415 . S
C1169 H1145 0.951 . S
C1169 C1170 1.366 . S
C1169 C1171 1.388 1_554 S
C1170 C1169 1.366 . S
C1170 C1174 1.385 . S
C1171 H1146 0.951 . S
C1171 C1169 1.388 1_556 S
C1171 C1172 1.366 . S
C1172 C1171 1.366 . S
C1172 C1173 1.414 . S
C1172 C1175 1.499 . S
C1173 H1147 0.950 . S
C1173 C1172 1.414 . S
C1173 C1174 1.374 1_556 S
C1174 H1148 0.950 . S
C1174 C1170 1.385 . S
C1174 C1173 1.374 1_554 S
C1175 C1172 1.499 . S
C1175 C1176 1.373 . S
C1175 C1177 1.389 . S
C1176 H1149 0.950 . S
C1176 C1162 1.377 . S
C1176 C1175 1.373 . S
C1177 C1161 1.377 . S
C1177 C1175 1.389 . S
C1177 C1178 1.524 . S
C1178 C1177 1.524 . S
C1178 C1179 1.397 . S
C1178 C1183 1.363 . S
C1179 H1150 0.950 . S
C1179 C1178 1.397 . S
C1179 C1180 1.334 . S
C1180 H1151 0.950 . S
C1180 C1179 1.334 . S
C1180 C1181 1.287 . S
C1181 C1180 1.287 . S
C1181 C1182 1.524 . S
C1181 H1184 0.999 . S
C1182 H1152 0.950 . S
C1182 C1181 1.524 . S
C1182 C1183 1.415 . S
C1183 H1153 0.950 . S
C1183 C1178 1.363 . S
C1183 C1182 1.415 . S
H1184 C1181 0.999 . S
H1185 C1166 0.913 . S
H1186 C1204 0.951 . S
H1187 C1206 0.951 . S
H1188 C1208 0.950 . S
H1189 C1209 0.950 . S
H1190 C1211 0.950 . S
H1191 C1214 0.950 . S
H1192 C1215 0.950 . S
H1193 C1217 0.950 . S
H1194 C1218 0.950 . S
H1195 C1219 0.951 . S
H1196 C1221 0.951 . S
H1197 C1223 0.950 . S
H1198 C1224 0.950 . S
H1199 C1226 0.950 . S
H1200 C1229 0.950 . S
H1201 C1230 0.950 . S
H1202 C1232 0.950 . S
H1203 C1233 0.950 1_455 S
C1204 H1186 0.951 . S
C1204 C1205 1.366 . S
C1204 C1206 1.388 . S
C1205 C1204 1.366 . S
C1205 C1209 1.385 . S
C1206 H1187 0.951 . S
C1206 C1204 1.388 . S
C1206 C1207 1.366 . S
C1207 C1206 1.366 . S
C1207 C1208 1.414 . S
C1207 C1210 1.499 . S
C1208 H1188 0.950 . S
C1208 C1207 1.414 . S
C1208 C1209 1.374 . S
C1209 H1189 0.950 . S
C1209 C1205 1.385 . S
C1209 C1208 1.374 . S
C1210 C1207 1.499 . S
C1210 C1211 1.373 . S
C1210 C1212 1.389 . S
C1211 H1190 0.950 . S
C1211 C1210 1.373 . S
C1211 C1227 1.377 . S
C1212 C1210 1.389 . S
C1212 C1213 1.524 . S
C1212 C1226 1.377 . S
C1213 C1212 1.524 . S
C1213 C1214 1.397 . S
C1213 C1218 1.363 . S
C1214 H1191 0.950 . S
C1214 C1213 1.397 . S
C1214 C1215 1.334 . S
C1215 H1192 0.950 . S
C1215 C1214 1.334 . S
C1215 C1216 1.287 . S
C1216 C1215 1.287 . S
C1216 C1217 1.524 . S
C1216 H1235 0.913 . S
C1217 H1193 0.950 . S
C1217 C1216 1.524 . S
C1217 C1218 1.415 . S
C1218 H1194 0.950 . S
C1218 C1213 1.363 . S
C1218 C1217 1.415 . S
C1219 H1195 0.951 . S
C1219 C1220 1.366 . S
C1219 C1221 1.388 . S
C1220 C1219 1.366 . S
C1220 C1224 1.385 . S
C1221 H1196 0.951 . S
C1221 C1219 1.388 . S
C1221 C1222 1.366 . S
C1222 C1221 1.366 . S
C1222 C1223 1.414 . S
C1222 C1225 1.499 . S
C1223 H1197 0.950 . S
C1223 C1222 1.414 . S
C1223 C1224 1.374 . S
C1224 H1198 0.950 . S
C1224 C1220 1.385 . S
C1224 C1223 1.374 . S
C1225 C1222 1.499 . S
C1225 C1226 1.373 . S
C1225 C1227 1.389 . S
C1226 H1199 0.950 . S
C1226 C1212 1.377 . S
C1226 C1225 1.373 . S
C1227 C1211 1.377 . S
C1227 C1225 1.389 . S
C1227 C1228 1.524 1_455 S
C1228 C1227 1.524 1_655 S
C1228 C1229 1.397 . S
C1228 C1233 1.363 . S
C1229 H1200 0.950 . S
C1229 C1228 1.397 . S
C1229 C1230 1.334 . S
C1230 H1201 0.950 . S
C1230 C1229 1.334 . S
C1230 C1231 1.287 . S
C1231 C1230 1.287 . S
C1231 C1232 1.524 . S
C1231 H1234 0.999 . S
C1232 H1202 0.950 . S
C1232 C1231 1.524 . S
C1232 C1233 1.415 . S
C1233 H1203 0.950 1_655 S
C1233 C1228 1.363 . S
C1233 C1232 1.415 . S
H1234 C1231 0.999 . S
H1235 C1216 0.913 . S
C355 C10 2.942 . S
C370 C325 2.898 . S
C405 C59 3.036 . S
C420 C253 2.965 . S
C455 C90 2.942 . S
C470 C289 2.897 . S
C505 C19 3.033 . S
C520 C301 3.000 . S
C570 C229 2.927 . S
C555 C50 2.939 . S
C620 C265 3.000 . S
C605 C99 3.033 . S
C655 C46 0.347 . S
C670 C181 0.362 . S
C705 C95 0.305 . S
C720 C193 0.227 . S
C755 C6 0.342 . S
C770 C121 0.347 . S
C820 C157 0.228 . S
C805 C55 0.303 . S
C870 C217 0.360 . S
C855 C86 0.345 . S
C905 C15 0.305 . S
C920 C145 0.302 . S
C970 C223 1.101 . S
C955 C9 1.077 . S
C1005 C49 1.076 . S
C1020 C151 1.097 . S
C1055 C89 1.077 . S
C1070 C187 1.101 . S
C1120 C295 1.773 . S
C1105 C58 1.699 . S
C1170 C331 1.774 . S
C1155 C98 1.699 . S
C1205 C18 1.699 . S
C1220 C259 1.775 . S
