# Generated by pormake.
# Topology nom, (4,4)-cn, num edge types: 1
# Building blocks:
#     Node 0, Type 0, BuildingBlock: NAHDIM_clean_linker_0, # of connection points: 4
#     Node 1, Type 0, BuildingBlock: NAHDIM_clean_linker_0, # of connection points: 4
#     Node 2, Type 0, BuildingBlock: NAHDIM_clean_linker_0, # of connection points: 4
#     Node 3, Type 0, BuildingBlock: NAHDIM_clean_linker_0, # of connection points: 4
#     Node 4, Type 0, BuildingBlock: NAHDIM_clean_linker_0, # of connection points: 4
#     Node 5, Type 0, BuildingBlock: NAHDIM_clean_linker_0, # of connection points: 4
#     Node 6, Type 1, BuildingBlock: GALJAG_clean_sbu_0, # of connection points: 4
#     Node 7, Type 1, BuildingBlock: GALJAG_clean_sbu_0, # of connection points: 4
#     Node 8, Type 1, BuildingBlock: GALJAG_clean_sbu_0, # of connection points: 4
#     Node 9, Type 1, BuildingBlock: GALJAG_clean_sbu_0, # of connection points: 4
#     Node 10, Type 1, BuildingBlock: GALJAG_clean_sbu_0, # of connection points: 4
#     Node 11, Type 1, BuildingBlock: GALJAG_clean_sbu_0, # of connection points: 4
#     Edge 12, Type (0, 1), BuildingBlock: MIFKUJ_clean_linker_0, # of connection points: 2
#     Edge 13, Type (0, 1), BuildingBlock: MIFKUJ_clean_linker_0, # of connection points: 2
#     Edge 14, Type (0, 1), BuildingBlock: MIFKUJ_clean_linker_0, # of connection points: 2
#     Edge 15, Type (0, 1), BuildingBlock: MIFKUJ_clean_linker_0, # of connection points: 2
#     Edge 16, Type (0, 1), BuildingBlock: MIFKUJ_clean_linker_0, # of connection points: 2
#     Edge 17, Type (0, 1), BuildingBlock: MIFKUJ_clean_linker_0, # of connection points: 2
#     Edge 18, Type (0, 1), BuildingBlock: MIFKUJ_clean_linker_0, # of connection points: 2
#     Edge 19, Type (0, 1), BuildingBlock: MIFKUJ_clean_linker_0, # of connection points: 2
#     Edge 20, Type (0, 1), BuildingBlock: MIFKUJ_clean_linker_0, # of connection points: 2
#     Edge 21, Type (0, 1), BuildingBlock: MIFKUJ_clean_linker_0, # of connection points: 2
#     Edge 22, Type (0, 1), BuildingBlock: MIFKUJ_clean_linker_0, # of connection points: 2
#     Edge 23, Type (0, 1), BuildingBlock: MIFKUJ_clean_linker_0, # of connection points: 2
#     Edge 24, Type (0, 1), BuildingBlock: MIFKUJ_clean_linker_0, # of connection points: 2
#     Edge 25, Type (0, 1), BuildingBlock: MIFKUJ_clean_linker_0, # of connection points: 2
#     Edge 26, Type (0, 1), BuildingBlock: MIFKUJ_clean_linker_0, # of connection points: 2
#     Edge 27, Type (0, 1), BuildingBlock: MIFKUJ_clean_linker_0, # of connection points: 2
#     Edge 28, Type (0, 1), BuildingBlock: MIFKUJ_clean_linker_0, # of connection points: 2
#     Edge 29, Type (0, 1), BuildingBlock: MIFKUJ_clean_linker_0, # of connection points: 2
#     Edge 30, Type (0, 1), BuildingBlock: MIFKUJ_clean_linker_0, # of connection points: 2
#     Edge 31, Type (0, 1), BuildingBlock: MIFKUJ_clean_linker_0, # of connection points: 2
#     Edge 32, Type (0, 1), BuildingBlock: MIFKUJ_clean_linker_0, # of connection points: 2
#     Edge 33, Type (0, 1), BuildingBlock: MIFKUJ_clean_linker_0, # of connection points: 2
#     Edge 34, Type (0, 1), BuildingBlock: MIFKUJ_clean_linker_0, # of connection points: 2
#     Edge 35, Type (0, 1), BuildingBlock: MIFKUJ_clean_linker_0, # of connection points: 2
# Relax obj value: 0.026
# Max RMSD: 0.127
# Mean RMSD: 0.097
data_MOF--net-nom--node1-GALJAG_clean_sbu_0--node2-NAHDIM_clean_linker_0--edge1-MIFKUJ_clean_linker_0
_symmetry_space_group_name_H-M    P1
_symmetry_Int_Tables_number       1
_symmetry_cell_setting            triclinic
loop_
_symmetry_equiv_pos_as_xyz
'x, y, z'
_cell_length_a     69.94454
_cell_length_b     69.813971
_cell_length_c     87.661037
_cell_angle_alpha  90.162876
_cell_angle_beta   90.11045
_cell_angle_gamma 120.06532
loop_
_atom_site_label
_atom_site_type_symbol
_atom_site_fract_x
_atom_site_fract_y
_atom_site_fract_z
_atom_type_partial_charge
C0 C 0.15526 0.61838 0.26451 0.0
C1 C 0.161 0.63215 0.27924 0.0
C2 C 0.12419 0.62464 0.28744 0.0
C3 C 0.11629 0.60263 0.29203 0.0
C4 C 0.09424 0.58917 0.29653 0.0
C5 C 0.07984 0.59789 0.29657 0.0
C6 C 0.08786 0.62017 0.29239 0.0
C7 C 0.10998 0.63326 0.2879 0.0
C8 C 0.0862 0.56547 0.301 0.0
C9 C 0.07297 0.63002 0.29246 0.0
C10 C 0.93817 0.51464 0.21878 0.0
C11 C 0.95102 0.5282 0.23213 0.0
C12 C 0.97794 0.53076 0.25102 0.0
C13 C 0.97818 0.54813 0.25936 0.0
C14 C 0.99154 0.55691 0.27236 0.0
C15 C 0.00453 0.5478 0.27738 0.0
C16 C 0.00405 0.53008 0.26918 0.0
C17 C 0.99085 0.52189 0.25603 0.0
C18 C 0.99197 0.57615 0.28061 0.0
C19 C 0.01757 0.51987 0.27427 0.0
C20 C 0.91894 0.49433 0.3606 0.0
C21 C 0.92464 0.51536 0.35511 0.0
C22 C 0.94684 0.5313 0.3525 0.0
C23 C 0.96353 0.52583 0.35514 0.0
C24 C 0.95777 0.50478 0.36107 0.0
C25 C 0.93552 0.48942 0.36397 0.0
C26 C 0.95242 0.5539 0.34682 0.0
C27 C 0.97507 0.49837 0.36411 0.0
C28 C 0.11932 0.65263 0.40824 0.0
C29 C 0.1044 0.62747 0.40827 0.0
C30 C 0.06762 0.60853 0.39676 0.0
C31 C 0.05225 0.61379 0.39091 0.0
C32 C 0.03741 0.60087 0.37937 0.0
C33 C 0.03762 0.58188 0.37391 0.0
C34 C 0.05218 0.57566 0.38052 0.0
C35 C 0.06718 0.58917 0.39183 0.0
C36 C 0.02195 0.60788 0.37271 0.0
C37 C 0.05221 0.55502 0.37542 0.0
C38 C 0.05615 0.5833 0.30029 0.0
C39 C 0.04159 0.57233 0.28823 0.0
C40 C 0.01923 0.55747 0.29086 0.0
C41 C 0.01116 0.55297 0.30597 0.0
C42 C 0.98904 0.53722 0.30909 0.0
C43 C 0.98115 0.53331 0.32398 0.0
C44 C 0.99498 0.54524 0.33631 0.0
C45 C 0.98694 0.54191 0.35144 0.0
C46 C 0.00123 0.55393 0.36342 0.0
C47 C 0.02345 0.56928 0.36074 0.0
C48 C 0.03179 0.57287 0.34568 0.0
C49 C 0.05405 0.58827 0.34255 0.0
C50 C 0.06213 0.59158 0.32772 0.0
C51 C 0.04817 0.57993 0.31541 0.0
C52 C 0.02561 0.56456 0.31827 0.0
C53 C 0.01746 0.56086 0.33344 0.0
C54 C 0.87074 0.44927 0.34782 0.0
C55 C 0.88022 0.47328 0.35304 0.0
O56 O 0.14514 0.638 0.2823 0.0
O57 O 0.0826 0.62248 0.40712 0.0
O58 O 0.89761 0.47856 0.363 0.0
O59 O 0.96566 0.52224 0.23811 0.0
H60 H 0.16195 0.62236 0.2889 0.0
H61 H 0.13937 0.60265 0.2657 0.0
H62 H 0.15376 0.62769 0.25476 0.0
H63 H 0.16829 0.6142 0.26191 0.0
H64 H 0.12704 0.59568 0.29198 0.0
H65 H 0.11621 0.65027 0.28446 0.0
H66 H 0.07251 0.55414 0.2933 0.0
H67 H 0.09948 0.56118 0.30046 0.0
H68 H 0.07957 0.56257 0.31279 0.0
H69 H 0.08201 0.64795 0.2897 0.0
H70 H 0.0595 0.62123 0.28397 0.0
H71 H 0.06516 0.62773 0.30383 0.0
H72 H 0.95856 0.54642 0.23052 0.0
H73 H 0.94352 0.52658 0.20896 0.0
H74 H 0.94695 0.50586 0.21451 0.0
H75 H 0.90554 0.49778 0.22675 0.0
H76 H 0.96818 0.55511 0.25573 0.0
H77 H 0.99053 0.50847 0.24958 0.0
H78 H 0.98438 0.57071 0.29204 0.0
H79 H 0.00928 0.58967 0.28234 0.0
H80 H 0.98282 0.58286 0.27432 0.0
H81 H 0.01347 0.50464 0.26771 0.0
H82 H 0.03539 0.532 0.27271 0.0
H83 H 0.01486 0.51575 0.28659 0.0
H84 H 0.88607 0.48381 0.34264 0.0
H85 H 0.91178 0.51937 0.35302 0.0
H86 H 0.93087 0.47321 0.36843 0.0
H87 H 0.95775 0.5557 0.33474 0.0
H88 H 0.93808 0.5566 0.34751 0.0
H89 H 0.96633 0.56702 0.35354 0.0
H90 H 0.96769 0.48074 0.36749 0.0
H91 H 0.98532 0.50126 0.35377 0.0
H92 H 0.98622 0.50889 0.3734 0.0
H93 H 0.10911 0.62106 0.39815 0.0
H94 H 0.13697 0.65717 0.40889 0.0
H95 H 0.11677 0.65953 0.39753 0.0
H96 H 0.11547 0.66021 0.41807 0.0
H97 H 0.05251 0.62857 0.39502 0.0
H98 H 0.07853 0.58461 0.3968 0.0
H99 H 0.02439 0.61004 0.36018 0.0
H100 H 0.00458 0.59474 0.37469 0.0
H101 H 0.02449 0.62359 0.37779 0.0
H102 H 0.06234 0.55091 0.38304 0.0
H103 H 0.03507 0.54076 0.37506 0.0
H104 H 0.059 0.55744 0.3637 0.0
H105 H 0.04773 0.57547 0.27662 0.0
H106 H 0.97761 0.52771 0.30005 0.0
H107 H 0.96399 0.52094 0.32568 0.0
H108 H 0.99494 0.55137 0.37499 0.0
H109 H 0.06554 0.59792 0.35153 0.0
H110 H 0.07942 0.60356 0.326 0.0
H111 H 0.86428 0.43786 0.35772 0.0
H112 H 0.85717 0.44463 0.33943 0.0
H113 H 0.88388 0.44724 0.34225 0.0
C114 C 0.4167 0.89213 0.55615 0.0
C115 C 0.4064 0.88351 0.54037 0.0
C116 C 0.41309 0.9182 0.52845 0.0
C117 C 0.43554 0.92653 0.52505 0.0
C118 C 0.4488 0.94828 0.51986 0.0
C119 C 0.43957 0.96215 0.51824 0.0
C120 C 0.41694 0.95378 0.52144 0.0
C121 C 0.40394 0.93178 0.5263 0.0
C122 C 0.47281 0.95657 0.51634 0.0
C123 C 0.40663 0.9682 0.52007 0.0
C124 C 0.52701 0.042 0.59283 0.0
C125 C 0.52232 0.06068 0.5891 0.0
C126 C 0.51913 0.0594 0.56163 0.0
C127 C 0.49797 0.05623 0.55905 0.0
C128 C 0.48595 0.04508 0.54594 0.0
C129 C 0.49531 0.03681 0.53533 0.0
C130 C 0.517 0.04067 0.53771 0.0
C131 C 0.5288 0.0523 0.55076 0.0
C132 C 0.46308 0.04169 0.54359 0.0
C133 C 0.5274 0.03186 0.52675 0.0
C134 C 0.5345 0.12206 0.4509 0.0
C135 C 0.51445 0.11651 0.45791 0.0
C136 C 0.49904 0.09437 0.46125 0.0
C137 C 0.50422 0.07762 0.45786 0.0
C138 C 0.52442 0.08327 0.45056 0.0
C139 C 0.53916 0.10546 0.44693 0.0
C140 C 0.4773 0.08891 0.46842 0.0
C141 C 0.53055 0.06594 0.44676 0.0
C142 C 0.37742 0.91814 0.40638 0.0
C143 C 0.40221 0.93465 0.4073 0.0
C144 C 0.41983 0.97137 0.41904 0.0
C145 C 0.41432 0.98637 0.42531 0.0
C146 C 0.42784 0.00184 0.43637 0.0
C147 C 0.44763 0.0026 0.44093 0.0
C148 C 0.45401 0.9884 0.43387 0.0
C149 C 0.43994 0.97279 0.42306 0.0
C150 C 0.42065 0.0169 0.44352 0.0
C151 C 0.47544 0.98939 0.43801 0.0
C152 C 0.45399 0.98574 0.51404 0.0
C153 C 0.46701 0.00039 0.52554 0.0
C154 C 0.48177 0.02265 0.52245 0.0
C155 C 0.48358 0.03074 0.50744 0.0
C156 C 0.4983 0.05302 0.50391 0.0
C157 C 0.50019 0.06072 0.48905 0.0
C158 C 0.48712 0.04653 0.4772 0.0
C159 C 0.4887 0.05425 0.46208 0.0
C160 C 0.47564 0.0396 0.45055 0.0
C161 C 0.46095 0.01732 0.45368 0.0
C162 C 0.45901 0.00932 0.46874 0.0
C163 C 0.44428 0.987 0.4723 0.0
C164 C 0.44272 0.9792 0.48709 0.0
C165 C 0.45552 0.99348 0.49895 0.0
C166 C 0.47037 0.01608 0.49566 0.0
C167 C 0.47214 0.02399 0.48052 0.0
C168 C 0.58294 0.16388 0.46128 0.0
C169 C 0.5596 0.15989 0.4585 0.0
O170 O 0.39979 0.89744 0.53397 0.0
O171 O 0.4053 0.95573 0.40925 0.0
O172 O 0.5494 0.14335 0.44761 0.0
O173 O 0.53032 0.0689 0.57469 0.0
H174 H 0.41869 0.88259 0.53284 0.0
H175 H 0.43162 0.90876 0.5552 0.0
H176 H 0.4047 0.89336 0.5638 0.0
H177 H 0.42176 0.88086 0.56137 0.0
H178 H 0.44299 0.91632 0.52648 0.0
H179 H 0.38661 0.92524 0.52887 0.0
H180 H 0.48332 0.969 0.52506 0.0
H181 H 0.47679 0.94303 0.5163 0.0
H182 H 0.47716 0.96485 0.50506 0.0
H183 H 0.38912 0.95956 0.52381 0.0
H184 H 0.4161 0.98344 0.52706 0.0
H185 H 0.40735 0.9734 0.50804 0.0
H186 H 0.50411 0.05377 0.58946 0.0
H187 H 0.52073 0.03528 0.60437 0.0
H188 H 0.51855 0.02832 0.58442 0.0
H189 H 0.54504 0.04811 0.59242 0.0
H190 H 0.49083 0.06237 0.56733 0.0
H191 H 0.54527 0.05507 0.55287 0.0
H192 H 0.46134 0.04648 0.53182 0.0
H193 H 0.4507 0.02389 0.54499 0.0
H194 H 0.45927 0.05141 0.55184 0.0
H195 H 0.54398 0.03539 0.53063 0.0
H196 H 0.5166 0.01368 0.52539 0.0
H197 H 0.52907 0.03943 0.51536 0.0
H198 H 0.55045 0.15473 0.46951 0.0
H199 H 0.51082 0.12952 0.46061 0.0
H200 H 0.55467 0.11004 0.44133 0.0
H201 H 0.47715 0.08414 0.4805 0.0
H202 H 0.47441 0.10317 0.46812 0.0
H203 H 0.46342 0.07463 0.46246 0.0
H204 H 0.54779 0.07335 0.44255 0.0
H205 H 0.52867 0.05578 0.45698 0.0
H206 H 0.51922 0.05468 0.43781 0.0
H207 H 0.40861 0.92991 0.41741 0.0
H208 H 0.37439 0.901 0.40509 0.0
H209 H 0.36926 0.919 0.41701 0.0
H210 H 0.36985 0.92197 0.39655 0.0
H211 H 0.39893 0.98536 0.42191 0.0
H212 H 0.44464 0.96171 0.4178 0.0
H213 H 0.41944 0.01461 0.45608 0.0
H214 H 0.43322 0.03442 0.44127 0.0
H215 H 0.40445 0.01375 0.43905 0.0
H216 H 0.4794 0.97943 0.43009 0.0
H217 H 0.48924 0.0068 0.43789 0.0
H218 H 0.47427 0.98297 0.44974 0.0
H219 H 0.46584 0.99429 0.53708 0.0
H220 H 0.50862 0.06473 0.5126 0.0
H221 H 0.512 0.07798 0.487 0.0
H222 H 0.47697 0.0456 0.43898 0.0
H223 H 0.43385 0.97525 0.46368 0.0
H224 H 0.43125 0.96184 0.48912 0.0
H225 H 0.59294 0.16987 0.45069 0.0
H226 H 0.59137 0.17622 0.47053 0.0
H227 H 0.58207 0.14818 0.46479 0.0
C228 C 0.54024 0.42287 0.72289 0.0
C229 C 0.54298 0.41536 0.70699 0.0
C230 C 0.51699 0.4223 0.69245 0.0
C231 C 0.53112 0.44514 0.69027 0.0
C232 C 0.52292 0.4585 0.68481 0.0
C233 C 0.50008 0.44896 0.68172 0.0
C234 C 0.48587 0.42593 0.68362 0.0
C235 C 0.49463 0.41285 0.68873 0.0
C236 C 0.53861 0.48296 0.68266 0.0
C237 C 0.46136 0.41525 0.68068 0.0
C238 C 0.45175 0.51896 0.76807 0.0
C239 C 0.45267 0.50695 0.75429 0.0
C240 C 0.46574 0.51316 0.72814 0.0
C241 C 0.45071 0.49188 0.72265 0.0
C242 C 0.4543 0.48428 0.70873 0.0
C243 C 0.47365 0.49797 0.70031 0.0
C244 C 0.48865 0.51959 0.70566 0.0
C245 C 0.4842 0.52707 0.71937 0.0
C246 C 0.43767 0.46128 0.70328 0.0
C247 C 0.50975 0.53443 0.69721 0.0
C248 C 0.44348 0.55189 0.61579 0.0
C249 C 0.42768 0.53131 0.62161 0.0
C250 C 0.4331 0.5148 0.62445 0.0
C251 C 0.45502 0.5194 0.62191 0.0
C252 C 0.47082 0.54009 0.61575 0.0
C253 C 0.46467 0.55592 0.61249 0.0
C254 C 0.41547 0.49257 0.63025 0.0
C255 C 0.49431 0.54564 0.61282 0.0
C256 C 0.48222 0.39019 0.5734 0.0
C257 C 0.49348 0.41533 0.57175 0.0
C258 C 0.47627 0.43564 0.58172 0.0
C259 C 0.45565 0.43042 0.58749 0.0
C260 C 0.4537 0.44363 0.59876 0.0
C261 C 0.47287 0.46289 0.604 0.0
C262 C 0.49363 0.46908 0.59739 0.0
C263 C 0.49514 0.45523 0.5864 0.0
C264 C 0.43127 0.43665 0.60541 0.0
C265 C 0.51425 0.49 0.60221 0.0
C266 C 0.49096 0.46344 0.67766 0.0
C267 C 0.48723 0.47447 0.68956 0.0
C268 C 0.479 0.48869 0.6868 0.0
C269 C 0.47482 0.49253 0.67166 0.0
C270 C 0.46717 0.50724 0.6684 0.0
C271 C 0.46335 0.51106 0.65342 0.0
C272 C 0.46611 0.4996 0.64117 0.0
C273 C 0.46165 0.50287 0.62593 0.0
C274 C 0.46413 0.4908 0.6141 0.0
C275 C 0.47132 0.47574 0.617 0.0
C276 C 0.47637 0.47265 0.63211 0.0
C277 C 0.48406 0.45794 0.63541 0.0
C278 C 0.48922 0.45519 0.65027 0.0
C279 C 0.48624 0.46649 0.66248 0.0
C280 C 0.47828 0.48122 0.65946 0.0
C281 C 0.47359 0.4845 0.64423 0.0
C282 C 0.44576 0.60056 0.62626 0.0
C283 C 0.42953 0.57589 0.62373 0.0
O284 O 0.52409 0.40889 0.6983 0.0
O285 O 0.47742 0.42143 0.57168 0.0
O286 O 0.43856 0.56802 0.61308 0.0
O287 O 0.46313 0.52054 0.74192 0.0
H288 H 0.55747 0.4292 0.70129 0.0
H289 H 0.53793 0.43744 0.722 0.0
H290 H 0.52564 0.40934 0.72873 0.0
H291 H 0.55521 0.42773 0.72996 0.0
H292 H 0.54854 0.45279 0.69283 0.0
H293 H 0.48386 0.39522 0.69036 0.0
H294 H 0.53526 0.49239 0.69143 0.0
H295 H 0.55618 0.48734 0.68368 0.0
H296 H 0.53599 0.48827 0.6713 0.0
H297 H 0.4524 0.39732 0.68345 0.0
H298 H 0.45436 0.4236 0.6876 0.0
H299 H 0.45838 0.41722 0.6685 0.0
H300 H 0.45836 0.49482 0.75637 0.0
H301 H 0.41778 0.50652 0.7711 0.0
H302 H 0.46233 0.51681 0.77681 0.0
H303 H 0.46384 0.53706 0.76616 0.0
H304 H 0.43617 0.48103 0.72917 0.0
H305 H 0.49566 0.5435 0.72366 0.0
H306 H 0.43419 0.46141 0.69093 0.0
H307 H 0.44459 0.45016 0.7049 0.0
H308 H 0.42187 0.45429 0.70965 0.0
H309 H 0.52031 0.55025 0.70336 0.0
H310 H 0.5193 0.52581 0.69552 0.0
H311 H 0.50579 0.53825 0.68575 0.0
H312 H 0.42732 0.56744 0.6349 0.0
H313 H 0.41109 0.52814 0.62376 0.0
H314 H 0.4766 0.57183 0.6078 0.0
H315 H 0.41832 0.49115 0.64254 0.0
H316 H 0.39865 0.49027 0.6289 0.0
H317 H 0.41617 0.47899 0.62411 0.0
H318 H 0.50511 0.56323 0.60955 0.0
H319 H 0.50133 0.54223 0.62314 0.0
H320 H 0.49451 0.53501 0.60345 0.0
H321 H 0.5047 0.42266 0.58178 0.0
H322 H 0.49473 0.38484 0.57369 0.0
H323 H 0.47273 0.38503 0.58421 0.0
H324 H 0.47063 0.38175 0.56375 0.0
H325 H 0.44115 0.41543 0.58356 0.0
H326 H 0.51102 0.45967 0.58147 0.0
H327 H 0.43169 0.43486 0.61797 0.0
H328 H 0.42688 0.44963 0.60319 0.0
H329 H 0.41813 0.42076 0.60051 0.0
H330 H 0.52834 0.49412 0.59446 0.0
H331 H 0.51114 0.50412 0.60246 0.0
H332 H 0.519 0.48794 0.61391 0.0
H333 H 0.49053 0.47171 0.70122 0.0
H334 H 0.46431 0.51617 0.67738 0.0
H335 H 0.45792 0.52292 0.65162 0.0
H336 H 0.46046 0.49321 0.60246 0.0
H337 H 0.48634 0.44847 0.62653 0.0
H338 H 0.49533 0.44386 0.6521 0.0
H339 H 0.44809 0.60993 0.61554 0.0
H340 H 0.43971 0.60739 0.6353 0.0
H341 H 0.46203 0.60298 0.62996 0.0
C342 C 0.14257 0.53317 0.89122 0.0
C343 C 0.15308 0.5359 0.87545 0.0
C344 C 0.11999 0.51047 0.86081 0.0
C345 C 0.11233 0.5253 0.85794 0.0
C346 C 0.09065 0.51763 0.85292 0.0
C347 C 0.07619 0.49466 0.85089 0.0
C348 C 0.08403 0.47974 0.85322 0.0
C349 C 0.10597 0.48791 0.85796 0.0
C350 C 0.08299 0.53408 0.85015 0.0
C351 C 0.06902 0.45515 0.85112 0.0
C352 C 0.9383 0.44748 0.9304 0.0
C353 C 0.94617 0.44599 0.91494 0.0
C354 C 0.97712 0.46762 0.89783 0.0
C355 C 0.9741 0.44953 0.88891 0.0
C356 C 0.9872 0.45269 0.87603 0.0
C357 C 0.00311 0.47445 0.87163 0.0
C358 C 0.00604 0.4927 0.8805 0.0
C359 C 0.99319 0.48898 0.89362 0.0
C360 C 0.98407 0.4327 0.86719 0.0
C361 C 0.02274 0.51616 0.8762 0.0
C362 C 0.91506 0.45104 0.79415 0.0
C363 C 0.91999 0.43423 0.79708 0.0
C364 C 0.94196 0.43888 0.79744 0.0
C365 C 0.95928 0.46084 0.79501 0.0
C366 C 0.95425 0.4775 0.79115 0.0
C367 C 0.9321 0.47227 0.79059 0.0
C368 C 0.94669 0.42052 0.80099 0.0
C369 C 0.9723 0.50099 0.7883 0.0
C370 C 0.09742 0.46491 0.73671 0.0
C371 C 0.08999 0.48217 0.73696 0.0
C372 C 0.05507 0.47181 0.74928 0.0
C373 C 0.03806 0.45206 0.75515 0.0
C374 C 0.02567 0.45212 0.76768 0.0
C375 C 0.02995 0.47257 0.77407 0.0
C376 C 0.04642 0.49268 0.76758 0.0
C377 C 0.05906 0.49207 0.75536 0.0
C378 C 0.00821 0.43032 0.7742 0.0
C379 C 0.05074 0.51478 0.77359 0.0
C380 C 0.05251 0.48638 0.84761 0.0
C381 C 0.03878 0.48336 0.86001 0.0
C382 C 0.01686 0.47802 0.85787 0.0
C383 C 0.00839 0.47588 0.84292 0.0
C384 C 0.98687 0.47189 0.84032 0.0
C385 C 0.97846 0.46919 0.8256 0.0
C386 C 0.99122 0.47025 0.81289 0.0
C387 C 0.98251 0.46673 0.79791 0.0
C388 C 0.99567 0.46811 0.78552 0.0
C389 C 0.01741 0.47275 0.78766 0.0
C390 C 0.02642 0.4763 0.80258 0.0
C391 C 0.04821 0.48098 0.8052 0.0
C392 C 0.05694 0.48464 0.81991 0.0
C393 C 0.04397 0.483 0.8326 0.0
C394 C 0.02185 0.4779 0.83025 0.0
C395 C 0.01319 0.4749 0.81522 0.0
C396 C 0.86783 0.44579 0.81281 0.0
C397 C 0.87831 0.43348 0.80531 0.0
O398 O 0.14048 0.51716 0.86658 0.0
O399 O 0.06712 0.47085 0.73755 0.0
O400 O 0.89414 0.44743 0.79498 0.0
O401 O 0.9651 0.46517 0.91058 0.0
H402 H 0.15423 0.55065 0.86979 0.0
H403 H 0.1259 0.53127 0.89011 0.0
H404 H 0.14097 0.5183 0.89703 0.0
H405 H 0.15281 0.54799 0.89842 0.0
H406 H 0.12303 0.54287 0.85965 0.0
H407 H 0.11205 0.4766 0.86004 0.0
H408 H 0.07043 0.53173 0.85878 0.0
H409 H 0.09676 0.55148 0.85082 0.0
H410 H 0.07507 0.53121 0.83874 0.0
H411 H 0.07776 0.44575 0.85303 0.0
H412 H 0.055 0.44912 0.85921 0.0
H413 H 0.06199 0.45162 0.8394 0.0
H414 H 0.93325 0.43927 0.90582 0.0
H415 H 0.94166 0.42378 0.94303 0.0
H416 H 0.94705 0.46556 0.9336 0.0
H417 H 0.92184 0.44627 0.92833 0.0
H418 H 0.96176 0.43286 0.89204 0.0
H419 H 0.99546 0.50282 0.90059 0.0
H420 H 0.97559 0.43155 0.85623 0.0
H421 H 0.0003 0.43425 0.86451 0.0
H422 H 0.97396 0.41706 0.87355 0.0
H423 H 0.02032 0.52849 0.88266 0.0
H424 H 0.03959 0.51918 0.8787 0.0
H425 H 0.02179 0.51881 0.8638 0.0
H426 H 0.88613 0.42905 0.81471 0.0
H427 H 0.90672 0.41755 0.79927 0.0
H428 H 0.92804 0.48501 0.78807 0.0
H429 H 0.95355 0.42283 0.81272 0.0
H430 H 0.93158 0.40394 0.80028 0.0
H431 H 0.95923 0.42102 0.793 0.0
H432 H 0.96564 0.51201 0.78538 0.0
H433 H 0.98291 0.50765 0.79861 0.0
H434 H 0.98294 0.50132 0.7788 0.0
H435 H 0.09727 0.49263 0.74734 0.0
H436 H 0.11564 0.47284 0.73777 0.0
H437 H 0.09002 0.45345 0.7465 0.0
H438 H 0.09197 0.45507 0.72597 0.0
H439 H 0.03498 0.43654 0.75015 0.0
H440 H 0.07186 0.50735 0.75041 0.0
H441 H 0.01038 0.43008 0.78673 0.0
H442 H 0.99163 0.42826 0.77208 0.0
H443 H 0.00867 0.41601 0.76903 0.0
H444 H 0.06151 0.52858 0.76585 0.0
H445 H 0.03494 0.51467 0.77517 0.0
H446 H 0.05898 0.518 0.7849 0.0
H447 H 0.04535 0.48552 0.87151 0.0
H448 H 0.97625 0.47079 0.84965 0.0
H449 H 0.96176 0.46612 0.82434 0.0
H450 H 0.98878 0.46518 0.77408 0.0
H451 H 0.05885 0.48202 0.7959 0.0
H452 H 0.07387 0.48842 0.82124 0.0
H453 H 0.85505 0.43492 0.82115 0.0
H454 H 0.86007 0.45133 0.80411 0.0
H455 H 0.88069 0.4606 0.81899 0.0
C456 C 0.54864 0.91054 0.92243 0.0
C457 C 0.52923 0.89956 0.93355 0.0
C458 C 0.54051 0.92681 0.95375 0.0
C459 C 0.52368 0.9321 0.95432 0.0
C460 C 0.52804 0.95291 0.95959 0.0
C461 C 0.54977 0.96879 0.96416 0.0
C462 C 0.56671 0.96329 0.96377 0.0
C463 C 0.5617 0.94213 0.95885 0.0
C464 C 0.50951 0.95804 0.96009 0.0
C465 C 0.59019 0.97989 0.9682 0.0
C466 C 0.60263 0.10672 0.88714 0.0
C467 C 0.60325 0.09511 0.90114 0.0
C468 C 0.57877 0.06999 0.9207 0.0
C469 C 0.59583 0.07034 0.92944 0.0
C470 C 0.59107 0.05696 0.94238 0.0
C471 C 0.56883 0.04325 0.94686 0.0
C472 C 0.55166 0.0433 0.93834 0.0
C473 C 0.55688 0.05666 0.92533 0.0
C474 C 0.60983 0.0572 0.95111 0.0
C475 C 0.5278 0.02901 0.94288 0.0
C476 C 0.59351 0.12487 0.03226 0.0
C477 C 0.60937 0.12075 0.02573 0.0
C478 C 0.60439 0.099 0.02252 0.0
C479 C 0.58285 0.08116 0.02546 0.0
C480 C 0.56699 0.08536 0.03233 0.0
C481 C 0.57272 0.10719 0.03592 0.0
C482 C 0.62214 0.09517 0.01595 0.0
C483 C 0.5439 0.06686 0.0357 0.0
C484 C 0.55816 0.92366 0.0738 0.0
C485 C 0.5495 0.93986 0.07489 0.0
C486 C 0.56737 0.97687 0.06378 0.0
C487 C 0.58752 0.99243 0.05745 0.0
C488 C 0.58865 0.00781 0.04671 0.0
C489 C 0.56912 0.00782 0.0425 0.0
C490 C 0.5489 0.9931 0.04966 0.0
C491 C 0.5482 0.9777 0.06024 0.0
C492 C 0.61054 0.02349 0.03944 0.0
C493 C 0.52793 0.9932 0.04577 0.0
C494 C 0.555 0.99147 0.96856 0.0
C495 C 0.5581 0.00626 0.95683 0.0
C496 C 0.56363 0.02807 0.95998 0.0
C497 C 0.56581 0.03539 0.97526 0.0
C498 C 0.57058 0.05698 0.97885 0.0
C499 C 0.57364 0.06432 0.99391 0.0
C500 C 0.57248 0.05049 0.00595 0.0
C501 C 0.57677 0.05814 0.02124 0.0
C502 C 0.57538 0.04385 0.03289 0.0
C503 C 0.56958 0.02196 0.02974 0.0
C504 C 0.56512 0.01397 0.01455 0.0
C505 C 0.55909 0.99197 0.011 0.0
C506 C 0.55523 0.9844 0.99599 0.0
C507 C 0.55774 0.99866 0.98392 0.0
C508 C 0.56333 0.02077 0.98726 0.0
C509 C 0.56688 0.02839 0.0026 0.0
C510 C 0.59367 0.17384 0.02361 0.0
C511 C 0.60836 0.16354 0.02553 0.0
O512 O 0.53667 0.90704 0.94824 0.0
O513 O 0.56703 0.96122 0.0731 0.0
O514 O 0.59789 0.14572 0.03535 0.0
O515 O 0.58271 0.08201 0.90772 0.0
H516 H 0.5166 0.90401 0.93014 0.0
H517 H 0.55595 0.9288 0.92279 0.0
H518 H 0.56163 0.90651 0.92552 0.0
H519 H 0.54298 0.90487 0.91056 0.0
H520 H 0.50715 0.91991 0.95069 0.0
H521 H 0.5745 0.93771 0.95843 0.0
H522 H 0.51226 0.97047 0.95122 0.0
H523 H 0.49312 0.9431 0.95805 0.0
H524 H 0.50928 0.9653 0.97134 0.0
H525 H 0.60181 0.97385 0.9656 0.0
H526 H 0.59575 0.99574 0.96211 0.0
H527 H 0.59105 0.98338 0.98062 0.0
H528 H 0.61299 0.0865 0.90001 0.0
H529 H 0.608 0.09958 0.87765 0.0
H530 H 0.58482 0.09827 0.88343 0.0
H531 H 0.62042 0.1402 0.89335 0.0
H532 H 0.6129 0.08082 0.92616 0.0
H533 H 0.54384 0.05659 0.91859 0.0
H534 H 0.61066 0.06376 0.96279 0.0
H535 H 0.60688 0.04009 0.95225 0.0
H536 H 0.62606 0.06755 0.94551 0.0
H537 H 0.51659 0.03259 0.93602 0.0
H538 H 0.52278 0.01132 0.94129 0.0
H539 H 0.52574 0.03155 0.95515 0.0
H540 H 0.61028 0.15788 0.01401 0.0
H541 H 0.6257 0.13451 0.02333 0.0
H542 H 0.56074 0.11064 0.04116 0.0
H543 H 0.61887 0.09119 0.00362 0.0
H544 H 0.63883 0.11 0.01718 0.0
H545 H 0.62209 0.08094 0.02162 0.0
H546 H 0.53284 0.07314 0.03936 0.0
H547 H 0.53664 0.05621 0.02545 0.0
H548 H 0.54453 0.05634 0.04494 0.0
H549 H 0.53733 0.93544 0.06542 0.0
H550 H 0.54439 0.90637 0.07514 0.0
H551 H 0.56581 0.92513 0.06245 0.0
H552 H 0.57081 0.92725 0.08275 0.0
H553 H 0.60227 0.99189 0.06049 0.0
H554 H 0.5327 0.96626 0.06561 0.0
H555 H 0.60951 0.02042 0.02695 0.0
H556 H 0.61443 0.04084 0.0412 0.0
H557 H 0.62428 0.02167 0.04418 0.0
H558 H 0.51405 0.98228 0.0534 0.0
H559 H 0.53073 0.0103 0.04658 0.0
H560 H 0.52308 0.98748 0.03382 0.0
H561 H 0.55666 0.00084 0.94506 0.0
H562 H 0.57205 0.06847 0.97002 0.0
H563 H 0.57726 0.08111 0.99597 0.0
H564 H 0.57894 0.04986 0.04457 0.0
H565 H 0.55732 0.98033 0.01978 0.0
H566 H 0.55061 0.96731 0.99396 0.0
H567 H 0.59153 0.18025 0.03472 0.0
H568 H 0.60098 0.18762 0.01527 0.0
H569 H 0.57714 0.16116 0.01929 0.0
C570 C 0.61137 0.48101 0.09948 0.0
C571 C 0.62396 0.48632 0.11469 0.0
C572 C 0.61916 0.51696 0.12408 0.0
C573 C 0.59663 0.50407 0.12777 0.0
C574 C 0.58442 0.5141 0.1322 0.0
C575 C 0.59494 0.53744 0.13306 0.0
C576 C 0.61774 0.55042 0.12985 0.0
C577 C 0.62956 0.53997 0.12544 0.0
C578 C 0.56014 0.4998 0.13567 0.0
C579 C 0.6295 0.57535 0.13076 0.0
C580 C 0.52809 0.60397 0.05032 0.0
C581 C 0.54086 0.60345 0.06372 0.0
C582 C 0.53736 0.58001 0.08539 0.0
C583 C 0.55718 0.59578 0.09245 0.0
C584 C 0.56454 0.59074 0.10592 0.0
C585 C 0.55175 0.56961 0.11257 0.0
C586 C 0.53161 0.55386 0.10567 0.0
C587 C 0.52469 0.55929 0.09214 0.0
C588 C 0.58616 0.60789 0.11297 0.0
C589 C 0.51756 0.53122 0.11252 0.0
C590 C 0.51088 0.61814 0.19848 0.0
C591 C 0.53388 0.62989 0.19768 0.0
C592 C 0.54574 0.61961 0.19307 0.0
C593 C 0.53425 0.5967 0.18963 0.0
C594 C 0.51087 0.5847 0.19015 0.0
C595 C 0.49938 0.59567 0.19424 0.0
C596 C 0.57061 0.63326 0.19239 0.0
C597 C 0.49801 0.56021 0.1867 0.0
C598 C 0.64745 0.56031 0.24536 0.0
C599 C 0.62238 0.54698 0.24744 0.0
C600 C 0.6031 0.56328 0.235 0.0
C601 C 0.61142 0.58383 0.22802 0.0
C602 C 0.60085 0.58643 0.21525 0.0
C603 C 0.58098 0.56814 0.20979 0.0
C604 C 0.57209 0.54743 0.21721 0.0
C605 C 0.58345 0.54516 0.22968 0.0
C606 C 0.61099 0.60873 0.20761 0.0
C607 C 0.55067 0.52774 0.21196 0.0
C608 C 0.58182 0.54828 0.13645 0.0
C609 C 0.57246 0.55334 0.12413 0.0
C610 C 0.56003 0.56372 0.12633 0.0
C611 C 0.55647 0.56899 0.14125 0.0
C612 C 0.54396 0.57936 0.14386 0.0
C613 C 0.54082 0.58475 0.15859 0.0
C614 C 0.54988 0.57978 0.17127 0.0
C615 C 0.54681 0.5852 0.18628 0.0
C616 C 0.55664 0.5806 0.19857 0.0
C617 C 0.56962 0.57081 0.19633 0.0
C618 C 0.57259 0.56493 0.18144 0.0
C619 C 0.5855 0.55499 0.17876 0.0
C620 C 0.58838 0.54932 0.16406 0.0
C621 C 0.57876 0.5537 0.15145 0.0
C622 C 0.56589 0.56395 0.15385 0.0
C623 C 0.56266 0.56942 0.16887 0.0
C624 C 0.46909 0.60643 0.21933 0.0
C625 C 0.47839 0.6215 0.20533 0.0
O626 O 0.63142 0.50809 0.11897 0.0
O627 O 0.61414 0.56134 0.24703 0.0
O628 O 0.50077 0.62915 0.20374 0.0
O629 O 0.53003 0.58408 0.07208 0.0
H630 H 0.61289 0.475 0.12368 0.0
H631 H 0.59641 0.48257 0.10056 0.0
H632 H 0.62201 0.49252 0.09042 0.0
H633 H 0.60598 0.46375 0.09589 0.0
H634 H 0.58833 0.48622 0.12705 0.0
H635 H 0.64696 0.54978 0.12271 0.0
H636 H 0.55032 0.50346 0.12744 0.0
H637 H 0.55454 0.48185 0.13505 0.0
H638 H 0.55665 0.50371 0.14727 0.0
H639 H 0.64749 0.58304 0.12855 0.0
H640 H 0.62225 0.58171 0.12228 0.0
H641 H 0.62711 0.5806 0.14223 0.0
H642 H 0.55843 0.60856 0.06128 0.0
H643 H 0.53811 0.60456 0.04011 0.0
H644 H 0.51457 0.58639 0.04818 0.0
H645 H 0.52169 0.62954 0.05565 0.0
H646 H 0.5671 0.61199 0.08747 0.0
H647 H 0.50939 0.54728 0.08667 0.0
H648 H 0.58327 0.6118 0.12473 0.0
H649 H 0.59757 0.6012 0.1138 0.0
H650 H 0.59434 0.62346 0.10629 0.0
H651 H 0.50169 0.52132 0.1063 0.0
H652 H 0.52677 0.52209 0.1123 0.0
H653 H 0.51398 0.53285 0.12465 0.0
H654 H 0.46943 0.61208 0.19492 0.0
H655 H 0.54261 0.64726 0.20082 0.0
H656 H 0.48153 0.58644 0.19438 0.0
H657 H 0.57725 0.62804 0.18274 0.0
H658 H 0.57637 0.65119 0.19121 0.0
H659 H 0.57755 0.63096 0.20315 0.0
H660 H 0.48015 0.55282 0.18929 0.0
H661 H 0.49974 0.55739 0.17444 0.0
H662 H 0.50473 0.55142 0.19341 0.0
H663 H 0.61534 0.53471 0.23792 0.0
H664 H 0.65452 0.54917 0.24527 0.0
H665 H 0.65143 0.56925 0.23432 0.0
H666 H 0.65528 0.57264 0.25472 0.0
H667 H 0.62656 0.59772 0.23238 0.0
H668 H 0.57693 0.52938 0.2354 0.0
H669 H 0.6114 0.60691 0.19505 0.0
H670 H 0.60071 0.61634 0.21005 0.0
H671 H 0.62804 0.62016 0.21175 0.0
H672 H 0.54496 0.51344 0.2198 0.0
H673 H 0.53762 0.53232 0.21109 0.0
H674 H 0.55288 0.52254 0.20043 0.0
H675 H 0.57512 0.54936 0.11263 0.0
H676 H 0.53651 0.58348 0.13454 0.0
H677 H 0.53119 0.59287 0.1599 0.0
H678 H 0.55453 0.58514 0.21004 0.0
H679 H 0.59349 0.55141 0.18801 0.0
H680 H 0.59838 0.5416 0.16269 0.0
H681 H 0.4784 0.6151 0.22982 0.0
H682 H 0.45141 0.60132 0.22091 0.0
H683 H 0.47017 0.59122 0.21795 0.0
In684 In 0.62998 0.42317 0.41107 0.0
O685 O 0.66678 0.44426 0.41743 0.0
O686 O 0.65833 0.42746 0.39612 0.0
C687 C 0.61187 0.43317 0.43467 0.0
C688 C 0.61963 0.43997 0.38694 0.0
C689 C 0.61399 0.37971 0.4168 0.0
O690 O 0.63219 0.43924 0.43423 0.0
O691 O 0.6009 0.42251 0.4231 0.0
O692 O 0.6068 0.38629 0.40602 0.0
O693 O 0.62928 0.39495 0.4245 0.0
C694 C 0.67345 0.44006 0.40518 0.0
O695 O 0.61646 0.42051 0.38709 0.0
O696 O 0.62775 0.45093 0.39907 0.0
In697 In 0.21679 0.613 0.57374 0.0
O698 O 0.23267 0.59181 0.56915 0.0
O699 O 0.24265 0.61229 0.58899 0.0
C700 C 0.19086 0.60095 0.54852 0.0
C701 C 0.19009 0.59497 0.59794 0.0
C702 C 0.24336 0.65695 0.56907 0.0
O703 O 0.20858 0.60037 0.54907 0.0
O704 O 0.18608 0.60714 0.56072 0.0
O705 O 0.22499 0.64922 0.5757 0.0
O706 O 0.24822 0.64264 0.56497 0.0
C707 C 0.24476 0.59843 0.58094 0.0
O708 O 0.20146 0.61566 0.59607 0.0
O709 O 0.19193 0.58352 0.58749 0.0
In710 In 0.62872 0.23084 0.74377 0.0
O711 O 0.66585 0.24325 0.74251 0.0
O712 O 0.65496 0.26146 0.75588 0.0
C713 C 0.61598 0.20476 0.71865 0.0
C714 C 0.61892 0.20649 0.76943 0.0
C715 C 0.61087 0.2562 0.73699 0.0
O716 O 0.6348 0.22184 0.7198 0.0
O717 O 0.60393 0.20068 0.73023 0.0
O718 O 0.60024 0.23814 0.74407 0.0
O719 O 0.63027 0.26129 0.73334 0.0
C720 C 0.67104 0.2597 0.75113 0.0
O721 O 0.61143 0.21926 0.76679 0.0
O722 O 0.63086 0.20565 0.75899 0.0
In723 In 0.42356 0.62139 0.9089 0.0
O724 O 0.38858 0.59123 0.90711 0.0
O725 O 0.39178 0.62294 0.90871 0.0
C726 C 0.44011 0.61222 0.93375 0.0
C727 C 0.43515 0.6077 0.88344 0.0
C728 C 0.4425 0.66572 0.91213 0.0
O729 O 0.41975 0.60559 0.93226 0.0
O730 O 0.45193 0.62299 0.92256 0.0
O731 O 0.43997 0.65659 0.89926 0.0
O732 O 0.43563 0.65258 0.92324 0.0
C733 C 0.37899 0.60242 0.90734 0.0
O734 O 0.43045 0.62293 0.88329 0.0
O735 O 0.43448 0.59975 0.89645 0.0
In736 In 0.81729 0.41213 0.07638 0.0
O737 O 0.83417 0.40858 0.09773 0.0
O738 O 0.83882 0.44037 0.09242 0.0
C739 C 0.7921 0.36837 0.07042 0.0
C740 C 0.78804 0.42595 0.08158 0.0
C741 C 0.84476 0.42503 0.05222 0.0
O742 O 0.80176 0.37551 0.08309 0.0
O743 O 0.79534 0.38322 0.06094 0.0
O744 O 0.82593 0.42325 0.05177 0.0
O745 O 0.85011 0.42081 0.06499 0.0
C746 C 0.84265 0.42871 0.10152 0.0
O747 O 0.80498 0.43672 0.07345 0.0
O748 O 0.78575 0.40816 0.08688 0.0
In749 In 0.42594 0.83093 0.24163 0.0
O750 O 0.44739 0.81509 0.24538 0.0
O751 O 0.42427 0.80328 0.22703 0.0
C752 C 0.43691 0.85796 0.26611 0.0
C753 C 0.44417 0.85827 0.21774 0.0
C754 C 0.38287 0.80376 0.2481 0.0
O755 O 0.44191 0.84294 0.26513 0.0
O756 O 0.42685 0.85955 0.25466 0.0
O757 O 0.38906 0.81888 0.23825 0.0
O758 O 0.39832 0.80252 0.25456 0.0
C759 C 0.43899 0.80172 0.23432 0.0
O760 O 0.42362 0.84501 0.21868 0.0
O761 O 0.45534 0.85797 0.22897 0.0
H762 H 0.20106 0.63966 0.28984 0.0
H763 H 0.23762 0.67176 0.28539 0.0
H764 H 0.208 0.70287 0.25966 0.0
H765 H 0.17134 0.67059 0.26394 0.0
H766 H 0.24252 0.70478 0.24483 0.0
H767 H 0.22908 0.72172 0.29524 0.0
H768 H 0.21889 0.71447 0.32239 0.0
H769 H 0.27337 0.70377 0.33057 0.0
H770 H 0.28371 0.71065 0.30342 0.0
H771 H 0.34632 0.8046 0.23768 0.0
H772 H 0.30757 0.77845 0.24375 0.0
H773 H 0.32802 0.74185 0.27254 0.0
H774 H 0.36659 0.76812 0.26685 0.0
H775 H 0.29663 0.74576 0.28606 0.0
H776 H 0.30773 0.72463 0.23581 0.0
H777 H 0.318 0.73065 0.20862 0.0
H778 H 0.26809 0.74802 0.20019 0.0
H779 H 0.25771 0.74237 0.22739 0.0
C780 C 0.20234 0.65351 0.28346 0.0
C781 C 0.18333 0.65284 0.27751 0.0
C782 C 0.22321 0.67185 0.28093 0.0
C783 C 0.22551 0.68987 0.27239 0.0
C784 C 0.20657 0.68922 0.26638 0.0
C785 C 0.18567 0.67087 0.26891 0.0
C786 C 0.24779 0.70884 0.26913 0.0
C787 C 0.25423 0.71404 0.25385 0.0
C788 C 0.26319 0.72059 0.28089 0.0
C789 C 0.25707 0.71655 0.29726 0.0
C790 C 0.2388 0.71767 0.3028 0.0
C791 C 0.23301 0.71365 0.3182 0.0
C792 C 0.24545 0.70862 0.32819 0.0
C793 C 0.26374 0.70765 0.32281 0.0
C794 C 0.26959 0.71164 0.30742 0.0
C795 C 0.3425 0.79099 0.24533 0.0
C796 C 0.35945 0.78834 0.25175 0.0
C797 C 0.32038 0.77604 0.24875 0.0
C798 C 0.31487 0.75804 0.25848 0.0
C799 C 0.33184 0.75561 0.26503 0.0
C800 C 0.35389 0.7706 0.26172 0.0
C801 C 0.29149 0.74145 0.26176 0.0
C802 C 0.28484 0.73669 0.27704 0.0
C803 C 0.27594 0.72999 0.25 0.0
C804 C 0.28212 0.73333 0.23365 0.0
C805 C 0.29906 0.7299 0.22818 0.0
C806 C 0.30489 0.73322 0.21276 0.0
C807 C 0.29375 0.73978 0.20269 0.0
C808 C 0.27673 0.74298 0.20801 0.0
C809 C 0.27086 0.73971 0.22342 0.0
H810 H 0.29828 0.74234 0.19077 0.0
H811 H 0.24094 0.70551 0.3401 0.0
H812 H 0.54925 0.17073 0.43013 0.0
H813 H 0.55297 0.20591 0.42237 0.0
H814 H 0.57707 0.23276 0.46729 0.0
H815 H 0.57188 0.19705 0.47545 0.0
H816 H 0.55308 0.24831 0.45794 0.0
H817 H 0.61198 0.24135 0.43494 0.0
H818 H 0.62795 0.22349 0.41924 0.0
H819 H 0.59327 0.22714 0.37988 0.0
H820 H 0.57689 0.24478 0.39541 0.0
H821 H 0.62184 0.36242 0.4422 0.0
H822 H 0.60747 0.32338 0.44815 0.0
H823 H 0.57203 0.30459 0.40538 0.0
H824 H 0.5862 0.34376 0.39939 0.0
H825 H 0.59762 0.28387 0.41175 0.0
H826 H 0.54311 0.29628 0.43559 0.0
H827 H 0.53045 0.3164 0.45205 0.0
H828 H 0.56052 0.30467 0.49095 0.0
H829 H 0.57369 0.28479 0.47468 0.0
C830 C 0.55507 0.18397 0.43845 0.0
C831 C 0.5605 0.18111 0.45343 0.0
C832 C 0.55736 0.20421 0.43394 0.0
C833 C 0.56584 0.22224 0.44411 0.0
C834 C 0.57059 0.21919 0.45918 0.0
C835 C 0.56778 0.19882 0.46381 0.0
C836 C 0.57059 0.24451 0.43901 0.0
C837 C 0.56295 0.25609 0.44789 0.0
C838 C 0.58309 0.25463 0.42572 0.0
C839 C 0.59303 0.24415 0.41636 0.0
C840 C 0.60766 0.23821 0.42296 0.0
C841 C 0.6168 0.22815 0.41409 0.0
C842 C 0.61158 0.22413 0.39858 0.0
C843 C 0.59727 0.23023 0.3919 0.0
C844 C 0.58806 0.24027 0.40072 0.0
C845 C 0.61094 0.34998 0.43407 0.0
C846 C 0.60513 0.3561 0.42032 0.0
C847 C 0.60268 0.32771 0.43752 0.0
C848 C 0.58858 0.31116 0.42725 0.0
C849 C 0.58285 0.31718 0.41346 0.0
C850 C 0.59091 0.3395 0.41007 0.0
C851 C 0.58047 0.28763 0.43083 0.0
C852 C 0.58751 0.27588 0.42167 0.0
C853 C 0.56778 0.27755 0.444 0.0
C854 C 0.55952 0.28916 0.45388 0.0
C855 C 0.54715 0.29811 0.44764 0.0
C856 C 0.53987 0.30946 0.45694 0.0
C857 C 0.5447 0.31184 0.47253 0.0
C858 C 0.55678 0.30282 0.47887 0.0
C859 C 0.56414 0.29148 0.46961 0.0
H860 H 0.53907 0.32065 0.47971 0.0
H861 H 0.61866 0.21633 0.39174 0.0
H862 H 0.39934 0.58005 0.64074 0.0
H863 H 0.36526 0.57843 0.63249 0.0
H864 H 0.37494 0.56142 0.58688 0.0
H865 H 0.40985 0.56458 0.59485 0.0
H866 H 0.3637 0.59027 0.58462 0.0
H867 H 0.33295 0.52318 0.61264 0.0
H868 H 0.32779 0.49874 0.63439 0.0
H869 H 0.30774 0.53594 0.66256 0.0
H870 H 0.31307 0.56081 0.64105 0.0
H871 H 0.25791 0.57472 0.56331 0.0
H872 H 0.28615 0.5649 0.56954 0.0
H873 H 0.29553 0.59582 0.6137 0.0
H874 H 0.26752 0.60577 0.60755 0.0
H875 H 0.29429 0.55469 0.61452 0.0
H876 H 0.32991 0.62392 0.58619 0.0
H877 H 0.33435 0.64708 0.56379 0.0
H878 H 0.34382 0.60253 0.53515 0.0
H879 H 0.33913 0.57894 0.55737 0.0
C880 C 0.39408 0.57579 0.62898 0.0
C881 C 0.40728 0.57235 0.61852 0.0
C882 C 0.37445 0.57463 0.62428 0.0
C883 C 0.36717 0.56934 0.6091 0.0
C884 C 0.38011 0.56545 0.59867 0.0
C885 C 0.40005 0.56713 0.60328 0.0
C886 C 0.34694 0.56948 0.60392 0.0
C887 C 0.34839 0.58201 0.591 0.0
C888 C 0.32693 0.55897 0.61227 0.0
C889 C 0.32355 0.54395 0.62524 0.0
C890 C 0.32757 0.52624 0.6235 0.0
C891 C 0.3246 0.5123 0.63578 0.0
C892 C 0.31747 0.51581 0.64985 0.0
C893 C 0.31326 0.53324 0.65166 0.0
C894 C 0.31622 0.54724 0.63941 0.0
C895 C 0.26588 0.57924 0.57439 0.0
C896 C 0.26065 0.59114 0.58491 0.0
C897 C 0.28199 0.57365 0.57792 0.0
C898 C 0.29298 0.57975 0.59205 0.0
C899 C 0.2872 0.59093 0.60275 0.0
C900 C 0.27129 0.5967 0.59918 0.0
C901 C 0.31137 0.57566 0.59548 0.0
C902 C 0.30954 0.56248 0.60805 0.0
C903 C 0.3309 0.58526 0.5867 0.0
C904 C 0.33392 0.59955 0.5734 0.0
C905 C 0.33277 0.61898 0.5751 0.0
C906 C 0.33536 0.6322 0.56244 0.0
C907 C 0.3393 0.62625 0.54805 0.0
C908 C 0.34073 0.6071 0.5463 0.0
C909 C 0.33812 0.59381 0.55892 0.0
H910 H 0.34131 0.6365 0.53826 0.0
H911 H 0.31519 0.505 0.65935 0.0
H912 H 0.85698 0.43 0.77816 0.0
H913 H 0.82466 0.39722 0.76761 0.0
H914 H 0.82766 0.35773 0.8043 0.0
H915 H 0.85973 0.39056 0.81502 0.0
H916 H 0.81334 0.35564 0.75769 0.0
H917 H 0.77493 0.32425 0.8168 0.0
H918 H 0.77756 0.33845 0.84301 0.0
H919 H 0.79775 0.40318 0.82543 0.0
H920 H 0.7949 0.38928 0.79915 0.0
H921 H 0.70805 0.2561 0.74742 0.0
H922 H 0.74584 0.28269 0.75569 0.0
H923 H 0.72343 0.32624 0.77253 0.0
H924 H 0.6858 0.29956 0.76481 0.0
H925 H 0.74904 0.32364 0.79262 0.0
H926 H 0.75239 0.33479 0.73788 0.0
H927 H 0.74901 0.32303 0.71097 0.0
H928 H 0.79717 0.30299 0.71835 0.0
H929 H 0.80064 0.3144 0.74535 0.0
C930 C 0.851 0.41421 0.78377 0.0
C931 C 0.8608 0.41278 0.79741 0.0
C932 C 0.83261 0.3955 0.77772 0.0
C933 C 0.82365 0.37511 0.78526 0.0
C934 C 0.83421 0.37337 0.79838 0.0
C935 C 0.85252 0.39209 0.80448 0.0
C936 C 0.80195 0.35646 0.78036 0.0
C937 C 0.79929 0.34849 0.76534 0.0
C938 C 0.78359 0.34731 0.7903 0.0
C939 C 0.78497 0.35577 0.80604 0.0
C940 C 0.77986 0.34149 0.81855 0.0
C941 C 0.78138 0.34948 0.83341 0.0
C942 C 0.7879 0.37172 0.83588 0.0
C943 C 0.79279 0.38598 0.8235 0.0
C944 C 0.79122 0.37805 0.80862 0.0
C945 C 0.71128 0.2714 0.75286 0.0
C946 C 0.69402 0.27578 0.75549 0.0
C947 C 0.73286 0.28659 0.75753 0.0
C948 C 0.73752 0.30655 0.76466 0.0
C949 C 0.72025 0.31092 0.76715 0.0
C950 C 0.69874 0.29568 0.76268 0.0
C951 C 0.76019 0.32294 0.76983 0.0
C952 C 0.7631 0.33048 0.78498 0.0
C953 C 0.7786 0.33196 0.7599 0.0
C954 C 0.77659 0.32523 0.74366 0.0
C955 C 0.76214 0.32774 0.73378 0.0
C956 C 0.76023 0.32116 0.71851 0.0
C957 C 0.77282 0.31221 0.71296 0.0
C958 C 0.7874 0.30989 0.72266 0.0
C959 C 0.78936 0.31642 0.73795 0.0
H960 H 0.77131 0.30713 0.70114 0.0
H961 H 0.78911 0.37788 0.8474 0.0
H962 H 0.49994 0.87192 0.91224 0.0
H963 H 0.48496 0.83215 0.90895 0.0
H964 H 0.51999 0.83123 0.94929 0.0
H965 H 0.53601 0.87119 0.95208 0.0
H966 H 0.52446 0.80781 0.92918 0.0
H967 H 0.46172 0.80963 0.94806 0.0
H968 H 0.43349 0.82083 0.94971 0.0
H969 H 0.41032 0.79493 0.90474 0.0
H970 H 0.43862 0.78384 0.90273 0.0
H971 H 0.45937 0.6896 0.9382 0.0
H972 H 0.47424 0.72939 0.94191 0.0
H973 H 0.46151 0.73583 0.8946 0.0
H974 H 0.44709 0.69604 0.89069 0.0
H975 H 0.44512 0.75552 0.91875 0.0
H976 H 0.51031 0.754 0.90145 0.0
H977 H 0.5373 0.74113 0.90255 0.0
H978 H 0.55402 0.76491 0.94863 0.0
H979 H 0.52687 0.77764 0.94788 0.0
C980 C 0.50423 0.86314 0.92049 0.0
C981 C 0.51875 0.87462 0.93259 0.0
C982 C 0.49558 0.84039 0.91866 0.0
C983 C 0.50094 0.82851 0.92906 0.0
C984 C 0.51548 0.83996 0.94116 0.0
C985 C 0.52447 0.86281 0.94283 0.0
C986 C 0.49214 0.80437 0.92692 0.0
C987 C 0.50704 0.7964 0.92712 0.0
C988 C 0.46944 0.78936 0.92407 0.0
C989 C 0.45246 0.79611 0.92518 0.0
C990 C 0.45074 0.80649 0.93847 0.0
C991 C 0.4347 0.81279 0.93948 0.0
C992 C 0.42017 0.80865 0.92732 0.0
C993 C 0.42162 0.79816 0.91414 0.0
C994 C 0.43764 0.79184 0.91306 0.0
C995 C 0.45985 0.69952 0.92857 0.0
C996 C 0.45213 0.6898 0.91415 0.0
C997 C 0.46834 0.72219 0.93071 0.0
C998 C 0.46892 0.73542 0.91852 0.0
C999 C 0.46115 0.72579 0.90412 0.0
C1000 C 0.45304 0.70316 0.9019 0.0
C1001 C 0.47747 0.75932 0.92092 0.0
C1002 C 0.4625 0.76711 0.92081 0.0
C1003 C 0.49996 0.77405 0.92425 0.0
C1004 C 0.5164 0.76657 0.92466 0.0
C1005 C 0.51959 0.75631 0.91187 0.0
C1006 C 0.53495 0.74908 0.91241 0.0
C1007 C 0.54733 0.75215 0.92566 0.0
C1008 C 0.54441 0.76252 0.93838 0.0
C1009 C 0.52905 0.76976 0.93789 0.0
H1010 H 0.55921 0.74654 0.92607 0.0
H1011 H 0.40775 0.81353 0.92813 0.0
H1012 H 0.66449 0.514 0.10173 0.0
H1013 H 0.69475 0.50663 0.09712 0.0
H1014 H 0.65697 0.44261 0.11823 0.0
H1015 H 0.62684 0.45006 0.12308 0.0
H1016 H 0.70032 0.46321 0.12685 0.0
H1017 H 0.65868 0.4479 0.07982 0.0
H1018 H 0.64201 0.45721 0.05835 0.0
H1019 H 0.70597 0.51018 0.04544 0.0
H1020 H 0.723 0.50137 0.06697 0.0
H1021 H 0.74985 0.40448 0.09778 0.0
H1022 H 0.72443 0.41767 0.10413 0.0
H1023 H 0.76573 0.47844 0.07998 0.0
H1024 H 0.79108 0.46511 0.07332 0.0
H1025 H 0.72333 0.463 0.07336 0.0
H1026 H 0.76565 0.47722 0.11894 0.0
H1027 H 0.78292 0.46873 0.14045 0.0
H1028 H 0.71897 0.41928 0.15629 0.0
H1029 H 0.70131 0.42725 0.13475 0.0
C1030 C 0.66284 0.49853 0.10562 0.0
C1031 C 0.64346 0.48273 0.11298 0.0
C1032 C 0.68004 0.49427 0.10289 0.0
C1033 C 0.67803 0.47401 0.10724 0.0
C1034 C 0.65889 0.45839 0.11485 0.0
C1035 C 0.64171 0.46265 0.1176 0.0
C1036 C 0.69542 0.46862 0.10335 0.0
C1037 C 0.70523 0.46296 0.11515 0.0
C1038 C 0.70228 0.46896 0.08812 0.0
C1039 C 0.69207 0.47412 0.07509 0.0
C1040 C 0.66917 0.46163 0.07246 0.0
C1041 C 0.65966 0.46681 0.06028 0.0
C1042 C 0.67291 0.48432 0.05056 0.0
C1043 C 0.69572 0.49665 0.05299 0.0
C1044 C 0.70531 0.49156 0.06517 0.0
C1045 C 0.75351 0.42064 0.0938 0.0
C1046 C 0.77247 0.4338 0.08508 0.0
C1047 C 0.73904 0.42822 0.09752 0.0
C1048 C 0.74337 0.4492 0.09275 0.0
C1049 C 0.76213 0.46224 0.08384 0.0
C1050 C 0.77659 0.45462 0.08005 0.0
C1051 C 0.72803 0.45725 0.09684 0.0
C1052 C 0.7186 0.46342 0.08508 0.0
C1053 C 0.72163 0.45751 0.11212 0.0
C1054 C 0.73217 0.45271 0.12515 0.0
C1055 C 0.75527 0.46442 0.12694 0.0
C1056 C 0.76513 0.45972 0.13915 0.0
C1057 C 0.75205 0.44344 0.14971 0.0
C1058 C 0.72908 0.43187 0.1481 0.0
C1059 C 0.71913 0.43649 0.1359 0.0
H1060 H 0.75972 0.43983 0.15916 0.0
H1061 H 0.66552 0.4883 0.04114 0.0
H1062 H 0.40661 0.84463 0.53874 0.0
H1063 H 0.37605 0.80704 0.54265 0.0
H1064 H 0.33176 0.83239 0.54985 0.0
H1065 H 0.36258 0.87022 0.54644 0.0
H1066 H 0.32483 0.80208 0.57045 0.0
H1067 H 0.33062 0.80539 0.51614 0.0
H1068 H 0.34956 0.81285 0.49134 0.0
H1069 H 0.36936 0.76506 0.50115 0.0
H1070 H 0.3508 0.75751 0.52611 0.0
H1071 H 0.23362 0.69034 0.57083 0.0
H1072 H 0.25812 0.72955 0.56482 0.0
H1073 H 0.31088 0.7163 0.55504 0.0
H1074 H 0.28633 0.67719 0.56047 0.0
H1075 H 0.30939 0.74158 0.53392 0.0
H1076 H 0.30712 0.74156 0.58935 0.0
H1077 H 0.28855 0.73441 0.6143 0.0
H1078 H 0.26205 0.77609 0.60222 0.0
H1079 H 0.28027 0.78328 0.57712 0.0
C1080 C 0.39029 0.84214 0.54094 0.0
C1081 C 0.38687 0.8603 0.54183 0.0
C1082 C 0.37282 0.82067 0.54314 0.0
C1083 C 0.35148 0.81682 0.54617 0.0
C1084 C 0.34804 0.83494 0.54734 0.0
C1085 C 0.3656 0.85651 0.54527 0.0
C1086 C 0.33305 0.79389 0.54863 0.0
C1087 C 0.32116 0.7889 0.56234 0.0
C1088 C 0.32841 0.77664 0.53813 0.0
C1089 C 0.33941 0.78098 0.52305 0.0
C1090 C 0.33912 0.79656 0.51305 0.0
C1091 C 0.34977 0.80079 0.49896 0.0
C1092 C 0.36068 0.78946 0.49468 0.0
C1093 C 0.3609 0.77382 0.50448 0.0
C1094 C 0.35029 0.76953 0.51859 0.0
C1095 C 0.25048 0.69588 0.56744 0.0
C1096 C 0.2581 0.68076 0.56612 0.0
C1097 C 0.26448 0.71828 0.56406 0.0
C1098 C 0.28644 0.72595 0.5596 0.0
C1099 C 0.29401 0.7108 0.55839 0.0
C1100 C 0.27998 0.68845 0.56155 0.0
C1101 C 0.30168 0.74963 0.55597 0.0
C1102 C 0.31289 0.75478 0.54198 0.0
C1103 C 0.30567 0.76699 0.5662 0.0
C1104 C 0.29485 0.76276 0.58131 0.0
C1105 C 0.29721 0.74907 0.59198 0.0
C1106 C 0.28677 0.74504 0.60615 0.0
C1107 C 0.27407 0.75474 0.60982 0.0
C1108 C 0.27186 0.76856 0.59935 0.0
C1109 C 0.28225 0.77263 0.58516 0.0
H1110 H 0.266 0.75158 0.6208 0.0
H1111 H 0.36893 0.79278 0.48377 0.0
H1112 H 0.51314 0.37042 0.70929 0.0
H1113 H 0.52127 0.34039 0.71285 0.0
H1114 H 0.59108 0.38797 0.71296 0.0
H1115 H 0.58305 0.41785 0.70897 0.0
H1116 H 0.58256 0.35286 0.69601 0.0
H1117 H 0.56101 0.36526 0.74622 0.0
H1118 H 0.53531 0.36727 0.76452 0.0
H1119 H 0.48712 0.29949 0.75495 0.0
H1120 H 0.51245 0.29718 0.73645 0.0
H1121 H 0.63363 0.2999 0.73015 0.0
H1122 H 0.61879 0.32397 0.72404 0.0
H1123 H 0.55243 0.2689 0.72893 0.0
H1124 H 0.56738 0.24492 0.73585 0.0
H1125 H 0.55458 0.3037 0.7411 0.0
H1126 H 0.57684 0.2897 0.69288 0.0
H1127 H 0.60201 0.28708 0.67441 0.0
H1128 H 0.64764 0.35669 0.67941 0.0
H1129 H 0.62289 0.35968 0.69806 0.0
C1130 C 0.53021 0.37438 0.70984 0.0
C1131 C 0.54751 0.39642 0.70848 0.0
C1132 C 0.53483 0.35726 0.71201 0.0
C1133 C 0.55679 0.36196 0.71323 0.0
C1134 C 0.57402 0.38394 0.71193 0.0
C1135 C 0.56943 0.40099 0.70965 0.0
C1136 C 0.56211 0.34419 0.71601 0.0
C1137 C 0.57656 0.3422 0.70592 0.0
C1138 C 0.55363 0.32974 0.72864 0.0
C1139 C 0.53852 0.33112 0.73984 0.0
C1140 C 0.54488 0.35084 0.74795 0.0
C1141 C 0.53039 0.35202 0.75837 0.0
C1142 C 0.50958 0.33354 0.76087 0.0
C1143 C 0.50323 0.3138 0.75299 0.0
C1144 C 0.51765 0.31254 0.74254 0.0
C1145 C 0.61587 0.29292 0.7299 0.0
C1146 C 0.60163 0.27054 0.73335 0.0
C1147 C 0.60738 0.30665 0.72631 0.0
C1148 C 0.58445 0.29815 0.72561 0.0
C1149 C 0.57017 0.27582 0.72928 0.0
C1150 C 0.5787 0.26213 0.7332 0.0
C1151 C 0.57558 0.31278 0.72133 0.0
C1152 C 0.56039 0.31414 0.73108 0.0
C1153 C 0.58325 0.32657 0.70831 0.0
C1154 C 0.59805 0.32488 0.69693 0.0
C1155 C 0.59229 0.30443 0.69009 0.0
C1156 C 0.60648 0.30288 0.67959 0.0
C1157 C 0.62642 0.3217 0.67576 0.0
C1158 C 0.63218 0.34213 0.68239 0.0
C1159 C 0.61807 0.34376 0.69291 0.0
H1160 H 0.63739 0.32046 0.66764 0.0
H1161 H 0.49838 0.33449 0.76893 0.0
H1162 H 0.1674 0.50542 0.87756 0.0
H1163 H 0.20519 0.51293 0.88189 0.0
H1164 H 0.22844 0.58303 0.88316 0.0
H1165 H 0.19095 0.57563 0.87835 0.0
H1166 H 0.25568 0.57546 0.86709 0.0
H1167 H 0.21902 0.55123 0.91594 0.0
H1168 H 0.19019 0.52495 0.93335 0.0
H1169 H 0.209 0.47634 0.92362 0.0
H1170 H 0.23777 0.50226 0.90599 0.0
H1171 H 0.35575 0.62405 0.90664 0.0
H1172 H 0.3167 0.6087 0.90053 0.0
H1173 H 0.3088 0.54352 0.89648 0.0
H1174 H 0.34806 0.55882 0.90269 0.0
H1175 H 0.27371 0.54391 0.91182 0.0
H1176 H 0.31316 0.57017 0.86498 0.0
H1177 H 0.34239 0.59712 0.84811 0.0
H1178 H 0.31842 0.64245 0.85439 0.0
H1179 H 0.28923 0.61589 0.87148 0.0
C1180 C 0.18067 0.52243 0.8785 0.0
C1181 C 0.17635 0.54 0.87725 0.0
C1182 C 0.2022 0.52669 0.88112 0.0
C1183 C 0.21964 0.54855 0.88293 0.0
C1184 C 0.21529 0.56605 0.88169 0.0
C1185 C 0.19389 0.56182 0.87894 0.0
C1186 C 0.24247 0.5535 0.8863 0.0
C1187 C 0.2596 0.56865 0.87693 0.0
C1188 C 0.24756 0.54409 0.89886 0.0
C1189 C 0.23036 0.52858 0.90952 0.0
C1190 C 0.2169 0.53488 0.91743 0.0
C1191 C 0.20059 0.52006 0.92735 0.0
C1192 C 0.19772 0.49897 0.92956 0.0
C1193 C 0.21121 0.49267 0.92188 0.0
C1194 C 0.22753 0.50742 0.91193 0.0
C1195 C 0.34569 0.60641 0.90459 0.0
C1196 C 0.35497 0.59264 0.90504 0.0
C1197 C 0.3234 0.59769 0.90105 0.0
C1198 C 0.30999 0.57505 0.89782 0.0
C1199 C 0.31894 0.56106 0.89887 0.0
C1200 C 0.34133 0.56981 0.9024 0.0
C1201 C 0.28683 0.56637 0.89288 0.0
C1202 C 0.2697 0.55048 0.90188 0.0
C1203 C 0.2817 0.57515 0.88001 0.0
C1204 C 0.29909 0.59108 0.8696 0.0
C1205 C 0.31421 0.58594 0.86284 0.0
C1206 C 0.33076 0.60114 0.85323 0.0
C1207 C 0.33228 0.6215 0.8502 0.0
C1208 C 0.31722 0.62667 0.85675 0.0
C1209 C 0.30065 0.61154 0.86639 0.0
H1210 H 0.34511 0.63325 0.84276 0.0
H1211 H 0.18509 0.48752 0.93724 0.0
H1212 H 0.62578 0.16948 0.05498 0.0
H1213 H 0.66087 0.19986 0.06435 0.0
H1214 H 0.67599 0.22796 0.01916 0.0
H1215 H 0.64157 0.19686 0.00958 0.0
H1216 H 0.7121 0.23486 0.03157 0.0
H1217 H 0.65149 0.2444 0.04855 0.0
H1218 H 0.61648 0.23346 0.06189 0.0
H1219 H 0.6454 0.22958 0.10419 0.0
H1220 H 0.68051 0.24024 0.09105 0.0
H1221 H 0.77339 0.35011 0.0431 0.0
H1222 H 0.74634 0.31157 0.0376 0.0
H1223 H 0.74972 0.29436 0.08436 0.0
H1224 H 0.77691 0.3332 0.09 0.0
H1225 H 0.70722 0.27874 0.07444 0.0
H1226 H 0.77081 0.27694 0.05656 0.0
H1227 H 0.80539 0.29026 0.04213 0.0
H1228 H 0.7704 0.28213 0.00012 0.0
H1229 H 0.73565 0.26905 0.0143 0.0
C1230 C 0.63678 0.18185 0.04696 0.0
C1231 C 0.63092 0.18074 0.03148 0.0
C1232 C 0.65679 0.19936 0.05237 0.0
C1233 C 0.67093 0.21652 0.04255 0.0
C1234 C 0.66543 0.21498 0.027 0.0
C1235 C 0.64571 0.19725 0.02153 0.0
C1236 C 0.69074 0.23676 0.04845 0.0
C1237 C 0.711 0.24448 0.04091 0.0
C1238 C 0.68954 0.24912 0.06089 0.0
C1239 C 0.66851 0.24285 0.0688 0.0
C1240 C 0.65032 0.24108 0.06068 0.0
C1241 C 0.63048 0.23494 0.0682 0.0
C1242 C 0.6287 0.23076 0.08387 0.0
C1243 C 0.64679 0.23278 0.09205 0.0
C1244 C 0.66666 0.23887 0.08458 0.0
C1245 C 0.7686 0.33811 0.05219 0.0
C1246 C 0.77723 0.34467 0.067 0.0
C1247 C 0.75322 0.31604 0.049 0.0
C1248 C 0.74618 0.30004 0.06053 0.0
C1249 C 0.75504 0.30645 0.07529 0.0
C1250 C 0.77058 0.32859 0.07848 0.0
C1251 C 0.72833 0.27709 0.05728 0.0
C1252 C 0.70844 0.26888 0.06531 0.0
C1253 C 0.72978 0.26451 0.04512 0.0
C1254 C 0.75062 0.27209 0.03652 0.0
C1255 C 0.7705 0.2781 0.04425 0.0
C1256 C 0.79013 0.2856 0.03611 0.0
C1257 C 0.7901 0.28706 0.02022 0.0
C1258 C 0.77041 0.28097 0.01243 0.0
C1259 C 0.75073 0.27347 0.02051 0.0
H1260 H 0.80532 0.29289 0.01394 0.0
H1261 H 0.61332 0.22601 0.08967 0.0
H1262 H 0.49968 0.65619 0.22533 0.0
H1263 H 0.49396 0.68764 0.22928 0.0
H1264 H 0.44451 0.66309 0.19373 0.0
H1265 H 0.45006 0.63136 0.18979 0.0
H1266 H 0.47454 0.7093 0.19225 0.0
H1267 H 0.42746 0.65492 0.22864 0.0
H1268 H 0.41859 0.62791 0.24932 0.0
H1269 H 0.46539 0.67949 0.27875 0.0
H1270 H 0.47479 0.70677 0.25815 0.0
H1271 H 0.42347 0.77232 0.21072 0.0
H1272 H 0.43204 0.74322 0.20493 0.0
H1273 H 0.477 0.76399 0.24322 0.0
H1274 H 0.46827 0.79309 0.24919 0.0
H1275 H 0.44972 0.71988 0.24299 0.0
H1276 H 0.49641 0.77457 0.20691 0.0
H1277 H 0.50575 0.80164 0.18621 0.0
H1278 H 0.46036 0.75 0.15621 0.0
H1279 H 0.4505 0.72265 0.17681 0.0
C1280 C 0.48763 0.65753 0.21834 0.0
C1281 C 0.47529 0.64132 0.20726 0.0
C1282 C 0.48437 0.67547 0.22061 0.0
C1283 C 0.46872 0.67758 0.21187 0.0
C1284 C 0.45668 0.66172 0.20058 0.0
C1285 C 0.45982 0.64362 0.19837 0.0
C1286 C 0.46462 0.69609 0.21486 0.0
C1287 C 0.46883 0.7115 0.20326 0.0
C1288 C 0.4577 0.69917 0.22936 0.0
C1289 C 0.45199 0.68284 0.2418 0.0
C1290 C 0.436 0.66047 0.23948 0.0
C1291 C 0.43085 0.64512 0.2512 0.0
C1292 C 0.44146 0.65197 0.26533 0.0
C1293 C 0.45721 0.6742 0.26779 0.0
C1294 C 0.46244 0.68962 0.2561 0.0
C1295 C 0.43531 0.77081 0.21785 0.0
C1296 C 0.4452 0.78497 0.23042 0.0
C1297 C 0.44027 0.75423 0.21448 0.0
C1298 C 0.45531 0.75156 0.22356 0.0
C1299 C 0.46537 0.7658 0.23605 0.0
C1300 C 0.46042 0.78244 0.23943 0.0
C1301 C 0.45971 0.73325 0.2204 0.0
C1302 C 0.4555 0.71779 0.23197 0.0
C1303 C 0.46667 0.73018 0.20588 0.0
C1304 C 0.47255 0.74659 0.19346 0.0
C1305 C 0.48827 0.76901 0.19594 0.0
C1306 C 0.49369 0.7844 0.18422 0.0
C1307 C 0.48362 0.77755 0.16992 0.0
C1308 C 0.46813 0.75528 0.1673 0.0
C1309 C 0.46264 0.73982 0.179 0.0
H1310 H 0.48784 0.7895 0.16085 0.0
H1311 H 0.43745 0.64006 0.27439 0.0
H1312 H 0.87082 0.47299 0.38391 0.0
H1313 H 0.83936 0.47376 0.39528 0.0
H1314 H 0.81648 0.47842 0.35043 0.0
H1315 H 0.8486 0.4789 0.33908 0.0
H1316 H 0.80827 0.50216 0.36888 0.0
H1317 H 0.79641 0.42812 0.37031 0.0
H1318 H 0.80519 0.39901 0.37678 0.0
H1319 H 0.80468 0.41295 0.42447 0.0
H1320 H 0.79619 0.44237 0.41827 0.0
H1321 H 0.69149 0.44317 0.37729 0.0
H1322 H 0.73 0.45524 0.3713 0.0
H1323 H 0.74701 0.46775 0.41901 0.0
H1324 H 0.70838 0.45612 0.4251 0.0
H1325 H 0.76036 0.4392 0.40257 0.0
H1326 H 0.76579 0.51034 0.39924 0.0
H1327 H 0.75427 0.53669 0.39073 0.0
H1328 H 0.7637 0.52474 0.34403 0.0
H1329 H 0.77496 0.49805 0.35224 0.0
C1330 C 0.85939 0.47473 0.37649 0.0
C1331 C 0.86231 0.47613 0.36057 0.0
C1332 C 0.84126 0.47494 0.38301 0.0
C1333 C 0.82528 0.47576 0.37371 0.0
C1334 C 0.82855 0.47783 0.35787 0.0
C1335 C 0.84688 0.47805 0.35138 0.0
C1336 C 0.80453 0.47316 0.3803 0.0
C1337 C 0.7978 0.48834 0.37621 0.0
C1338 C 0.79091 0.45533 0.39006 0.0
C1339 C 0.79594 0.43761 0.39382 0.0
C1340 C 0.79833 0.42508 0.38217 0.0
C1341 C 0.80323 0.40852 0.38579 0.0
C1342 C 0.80556 0.40418 0.40103 0.0
C1343 C 0.80292 0.41636 0.41268 0.0
C1344 C 0.79806 0.43298 0.40912 0.0
C1345 C 0.70346 0.44871 0.3865 0.0
C1346 C 0.69699 0.44868 0.40166 0.0
C1347 C 0.72545 0.45567 0.38305 0.0
C1348 C 0.74129 0.46245 0.39471 0.0
C1349 C 0.73497 0.46264 0.40987 0.0
C1350 C 0.71298 0.45606 0.41331 0.0
C1351 C 0.76411 0.46798 0.39097 0.0
C1352 C 0.77113 0.45327 0.39552 0.0
C1353 C 0.77769 0.4859 0.38134 0.0
C1354 C 0.77108 0.50207 0.37636 0.0
C1355 C 0.76524 0.51319 0.38715 0.0
C1356 C 0.75879 0.52822 0.38238 0.0
C1357 C 0.75822 0.53235 0.36685 0.0
C1358 C 0.76415 0.52151 0.35605 0.0
C1359 C 0.7706 0.50646 0.36076 0.0
H1360 H 0.75322 0.54399 0.36318 0.0
H1361 H 0.80935 0.39135 0.4038 0.0
H1362 H 0.13379 0.61314 0.41288 0.0
H1363 H 0.14378 0.60257 0.43688 0.0
H1364 H 0.09405 0.61066 0.46031 0.0
H1365 H 0.08457 0.62198 0.43641 0.0
H1366 H 0.13133 0.63163 0.47489 0.0
H1367 H 0.08915 0.55856 0.45427 0.0
H1368 H 0.07779 0.52907 0.43493 0.0
H1369 H 0.14257 0.53657 0.43602 0.0
H1370 H 0.15443 0.56633 0.45521 0.0
H1371 H 0.15057 0.59768 0.54559 0.0
H1372 H 0.13107 0.59564 0.52194 0.0
H1373 H 0.18222 0.59338 0.49594 0.0
H1374 H 0.20159 0.59491 0.51963 0.0
H1375 H 0.14134 0.56692 0.48327 0.0
H1376 H 0.18411 0.64208 0.50183 0.0
H1377 H 0.19579 0.67174 0.52109 0.0
H1378 H 0.1295 0.66011 0.52354 0.0
H1379 H 0.11736 0.63016 0.50444 0.0
C1380 C 0.12469 0.61218 0.4231 0.0
C1381 C 0.10813 0.61797 0.42271 0.0
C1382 C 0.13034 0.60607 0.4368 0.0
C1383 C 0.11944 0.60548 0.45039 0.0
C1384 C 0.10259 0.61085 0.44996 0.0
C1385 C 0.09707 0.61717 0.43629 0.0
C1386 C 0.12699 0.60127 0.46521 0.0
C1387 C 0.13304 0.61721 0.4768 0.0
C1388 C 0.12984 0.58279 0.4676 0.0
C1389 C 0.12273 0.56481 0.4561 0.0
C1390 C 0.10103 0.55404 0.45031 0.0
C1391 C 0.09448 0.53725 0.43938 0.0
C1392 C 0.10946 0.53098 0.43422 0.0
C1393 C 0.13099 0.54145 0.44001 0.0
C1394 C 0.13762 0.55826 0.45093 0.0
C1395 C 0.15748 0.59638 0.53485 0.0
C1396 C 0.17773 0.59672 0.53442 0.0
C1397 C 0.14634 0.59525 0.52135 0.0
C1398 C 0.15541 0.59478 0.50717 0.0
C1399 C 0.17497 0.5938 0.50676 0.0
C1400 C 0.18605 0.59474 0.52029 0.0
C1401 C 0.14555 0.59723 0.49284 0.0
C1402 C 0.13926 0.58111 0.48136 0.0
C1403 C 0.14246 0.61555 0.49049 0.0
C1404 C 0.14979 0.63374 0.50183 0.0
C1405 C 0.172 0.64576 0.50655 0.0
C1406 C 0.17871 0.66263 0.51743 0.0
C1407 C 0.16338 0.66777 0.52356 0.0
C1408 C 0.14134 0.65609 0.51879 0.0
C1409 C 0.13454 0.63918 0.50794 0.0
H1410 H 0.1686 0.68083 0.53198 0.0
H1411 H 0.10436 0.51799 0.42576 0.0
H1412 H 0.50423 0.06475 0.61557 0.0
H1413 H 0.52189 0.09201 0.63598 0.0
H1414 H 0.58235 0.12429 0.61009 0.0
H1415 H 0.5649 0.09649 0.58986 0.0
H1416 H 0.59122 0.12009 0.63829 0.0
H1417 H 0.54858 0.14763 0.61456 0.0
H1418 H 0.51541 0.14624 0.6036 0.0
H1419 H 0.48294 0.12661 0.64698 0.0
H1420 H 0.51581 0.12757 0.65815 0.0
H1421 H 0.63834 0.21055 0.69189 0.0
H1422 H 0.62427 0.1887 0.66838 0.0
H1423 H 0.56187 0.14654 0.69036 0.0
H1424 H 0.57571 0.16834 0.71377 0.0
H1425 H 0.5565 0.15962 0.6622 0.0
H1426 H 0.59893 0.12939 0.68492 0.0
H1427 H 0.63267 0.13156 0.6955 0.0
H1428 H 0.66637 0.15792 0.65317 0.0
H1429 H 0.6329 0.15617 0.6424 0.0
C1430 C 0.52118 0.07788 0.61415 0.0
C1431 C 0.53299 0.07884 0.60096 0.0
C1432 C 0.53125 0.09349 0.62579 0.0
C1433 C 0.55332 0.11051 0.62444 0.0
C1434 C 0.56524 0.11144 0.61131 0.0
C1435 C 0.55521 0.09567 0.59971 0.0
C1436 C 0.56419 0.12658 0.63711 0.0
C1437 C 0.58384 0.12907 0.64332 0.0
C1438 C 0.55444 0.13809 0.64383 0.0
C1439 C 0.53462 0.13752 0.63716 0.0
C1440 C 0.53431 0.14286 0.62174 0.0
C1441 C 0.51557 0.14217 0.61549 0.0
C1442 C 0.49707 0.1363 0.62458 0.0
C1443 C 0.49728 0.13114 0.63995 0.0
C1444 C 0.51598 0.13179 0.64625 0.0
C1445 C 0.62167 0.19654 0.69171 0.0
C1446 C 0.60813 0.19111 0.70466 0.0
C1447 C 0.61367 0.18407 0.6783 0.0
C1448 C 0.59205 0.16596 0.67766 0.0
C1449 C 0.57858 0.1605 0.6906 0.0
C1450 C 0.58655 0.1729 0.70399 0.0
C1451 C 0.5832 0.1527 0.6635 0.0
C1452 C 0.56396 0.15081 0.65702 0.0
C1453 C 0.59342 0.1419 0.65646 0.0
C1454 C 0.6135 0.14288 0.66292 0.0
C1455 C 0.61359 0.13582 0.67791 0.0
C1456 C 0.63265 0.13694 0.68393 0.0
C1457 C 0.65167 0.14494 0.67503 0.0
C1458 C 0.65164 0.15177 0.66006 0.0
C1459 C 0.63263 0.1507 0.65399 0.0
H1460 H 0.66641 0.14579 0.67971 0.0
H1461 H 0.48257 0.13578 0.61973 0.0
H1462 H 0.42396 0.46706 0.77316 0.0
H1463 H 0.42855 0.49212 0.80044 0.0
H1464 H 0.43284 0.55476 0.76983 0.0
H1465 H 0.42859 0.53126 0.74158 0.0
H1466 H 0.46094 0.56947 0.79269 0.0
H1467 H 0.38628 0.51033 0.79565 0.0
H1468 H 0.35562 0.47167 0.79573 0.0
H1469 H 0.38355 0.45808 0.83503 0.0
H1470 H 0.41453 0.4966 0.83508 0.0
H1471 H 0.43361 0.61948 0.85397 0.0
H1472 H 0.43579 0.6011 0.83077 0.0
H1473 H 0.44784 0.55681 0.85801 0.0
H1474 H 0.44538 0.57491 0.88124 0.0
H1475 H 0.41449 0.53476 0.83825 0.0
H1476 H 0.48847 0.59673 0.83564 0.0
H1477 H 0.5169 0.63628 0.83531 0.0
H1478 H 0.48751 0.64568 0.79507 0.0
H1479 H 0.4587 0.60623 0.79528 0.0
C1480 C 0.42438 0.48275 0.77257 0.0
C1481 C 0.42974 0.49825 0.75439 0.0
C1482 C 0.42827 0.49897 0.78946 0.0
C1483 C 0.43235 0.52664 0.78815 0.0
C1484 C 0.43138 0.53859 0.7701 0.0
C1485 C 0.42764 0.5237 0.75252 0.0
C1486 C 0.43474 0.53932 0.80224 0.0
C1487 C 0.45065 0.56192 0.80261 0.0
C1488 C 0.42149 0.52943 0.81525 0.0
C1489 C 0.40287 0.50627 0.81524 0.0
C1490 C 0.38596 0.49905 0.80424 0.0
C1491 C 0.36851 0.47718 0.80427 0.0
C1492 C 0.36768 0.46241 0.81534 0.0
C1493 C 0.38424 0.46952 0.82644 0.0
C1494 C 0.40174 0.49138 0.82645 0.0
C1495 C 0.43708 0.60606 0.85499 0.0
C1496 C 0.43921 0.59854 0.86941 0.0
C1497 C 0.43843 0.59564 0.84172 0.0
C1498 C 0.44208 0.57764 0.84266 0.0
C1499 C 0.445 0.57066 0.85703 0.0
C1500 C 0.44362 0.58104 0.87029 0.0
C1501 C 0.44087 0.56484 0.82879 0.0
C1502 C 0.425 0.54225 0.8284 0.0
C1503 C 0.45393 0.57484 0.81573 0.0
C1504 C 0.47131 0.59855 0.81555 0.0
C1505 C 0.48796 0.60726 0.82679 0.0
C1506 C 0.50417 0.62966 0.82661 0.0
C1507 C 0.50398 0.64349 0.81519 0.0
C1508 C 0.48762 0.63494 0.80391 0.0
C1509 C 0.47137 0.61256 0.80404 0.0
H1510 H 0.51654 0.66083 0.81507 0.0
H1511 H 0.35416 0.44548 0.81534 0.0
H1512 H 0.91017 0.39837 0.91765 0.0
H1513 H 0.89296 0.40502 0.94595 0.0
H1514 H 0.96843 0.4633 0.96281 0.0
H1515 H 0.9879 0.45827 0.93499 0.0
H1516 H 0.936 0.42566 0.98445 0.0
H1517 H 0.93068 0.48185 0.95472 0.0
H1518 H 0.92162 0.49526 0.93129 0.0
H1519 H 0.85496 0.44086 0.93293 0.0
H1520 H 0.86371 0.42714 0.95635 0.0
H1521 H 0.88972 0.44504 0.05057 0.0
H1522 H 0.91198 0.45098 0.02764 0.0
H1523 H 0.85241 0.4195 0.00034 0.0
H1524 H 0.8305 0.41522 0.023 0.0
H1525 H 0.88051 0.45011 0.98474 0.0
H1526 H 0.88338 0.39309 0.0138 0.0
H1527 H 0.89079 0.37665 0.03631 0.0
H1528 H 0.95928 0.42695 0.03513 0.0
H1529 H 0.95221 0.44384 0.01271 0.0
C1530 C 0.9211 0.40965 0.9263 0.0
C1531 C 0.95038 0.43056 0.92216 0.0
C1532 C 0.91042 0.41479 0.94351 0.0
C1533 C 0.92856 0.43593 0.95681 0.0
C1534 C 0.95806 0.45163 0.95414 0.0
C1535 C 0.97046 0.44785 0.93728 0.0
C1536 C 0.91909 0.43842 0.9711 0.0
C1537 C 0.92417 0.43141 0.98467 0.0
C1538 C 0.90326 0.44525 0.97114 0.0
C1539 C 0.89789 0.45342 0.95716 0.0
C1540 C 0.91412 0.47277 0.95004 0.0
C1541 C 0.90903 0.48042 0.93679 0.0
C1542 C 0.88773 0.46889 0.93061 0.0
C1543 C 0.87145 0.44975 0.93772 0.0
C1544 C 0.87646 0.44205 0.95099 0.0
C1545 C 0.88152 0.43965 0.03961 0.0
C1546 C 0.85846 0.42966 0.0385 0.0
C1547 C 0.89419 0.44285 0.02652 0.0
C1548 C 0.8839 0.43523 0.01222 0.0
C1549 C 0.86084 0.4256 0.01117 0.0
C1550 C 0.84828 0.42308 0.02414 0.0
C1551 C 0.89687 0.43677 0.99835 0.0
C1552 C 0.89248 0.44455 0.98476 0.0
C1553 C 0.91293 0.43001 0.99825 0.0
C1554 C 0.91721 0.41987 0.01171 0.0
C1555 C 0.89998 0.40072 0.01841 0.0
C1556 C 0.90413 0.39132 0.03114 0.0
C1557 C 0.92548 0.40079 0.03718 0.0
C1558 C 0.94275 0.41966 0.03047 0.0
C1559 C 0.93868 0.42915 0.01775 0.0
H1560 H 0.92866 0.39349 0.04704 0.0
H1561 H 0.88384 0.47482 0.92033 0.0
H1562 H 0.56898 0.9559 0.10287 0.0
H1563 H 0.55115 0.94758 0.12789 0.0
H1564 H 0.48744 0.9091 0.10627 0.0
H1565 H 0.50521 0.91758 0.0812 0.0
H1566 H 0.48618 0.93326 0.1313 0.0
H1567 H 0.51304 0.88363 0.11877 0.0
H1568 H 0.54134 0.87441 0.11095 0.0
H1569 H 0.58028 0.90807 0.15045 0.0
H1570 H 0.55236 0.91781 0.15838 0.0
H1571 H 0.42455 0.85762 0.19061 0.0
H1572 H 0.4428 0.87704 0.16717 0.0
H1573 H 0.50558 0.9091 0.19066 0.0
H1574 H 0.4875 0.88936 0.21402 0.0
H1575 H 0.50847 0.89093 0.16517 0.0
H1576 H 0.47987 0.93804 0.17895 0.0
H1577 H 0.45148 0.94721 0.1866 0.0
H1578 H 0.41556 0.9183 0.14514 0.0
H1579 H 0.44358 0.90868 0.13733 0.0
C1580 C 0.55114 0.9461 0.10346 0.0
C1581 C 0.53844 0.93746 0.09011 0.0
C1582 C 0.54099 0.9413 0.11773 0.0
C1583 C 0.51801 0.92757 0.11891 0.0
C1584 C 0.50519 0.91979 0.10559 0.0
C1585 C 0.51534 0.92458 0.0913 0.0
C1586 C 0.50758 0.91962 0.13401 0.0
C1587 C 0.4909 0.92388 0.1387 0.0
C1588 C 0.51406 0.90772 0.14373 0.0
C1589 C 0.53074 0.90165 0.13908 0.0
C1590 C 0.52772 0.88921 0.12573 0.0
C1591 C 0.54368 0.88387 0.12128 0.0
C1592 C 0.56262 0.8907 0.13018 0.0
C1593 C 0.56562 0.90283 0.14356 0.0
C1594 C 0.54973 0.90826 0.14804 0.0
C1595 C 0.44219 0.86906 0.19082 0.0
C1596 C 0.45462 0.8719 0.20411 0.0
C1597 C 0.45259 0.88025 0.17744 0.0
C1598 C 0.47556 0.89464 0.17717 0.0
C1599 C 0.48785 0.89806 0.1906 0.0
C1600 C 0.47749 0.8868 0.20394 0.0
C1601 C 0.48702 0.90462 0.16262 0.0
C1602 C 0.50386 0.90057 0.15794 0.0
C1603 C 0.48062 0.91668 0.15296 0.0
C1604 C 0.46374 0.92247 0.15762 0.0
C1605 C 0.46583 0.93348 0.17152 0.0
C1606 C 0.44982 0.93879 0.17587 0.0
C1607 C 0.4317 0.9333 0.16638 0.0
C1608 C 0.42959 0.92253 0.15249 0.0
C1609 C 0.44555 0.91717 0.14808 0.0
H1610 H 0.41933 0.93743 0.16978 0.0
H1611 H 0.57496 0.88655 0.12672 0.0
H1612 H 0.61339 0.55903 0.27564 0.0
H1613 H 0.6074 0.53976 0.29991 0.0
H1614 H 0.61506 0.48886 0.27754 0.0
H1615 H 0.61997 0.50753 0.2531 0.0
H1616 H 0.58341 0.47081 0.29788 0.0
H1617 H 0.65816 0.53386 0.29756 0.0
H1618 H 0.6858 0.57358 0.29567 0.0
H1619 H 0.65627 0.58762 0.33381 0.0
H1620 H 0.62829 0.54801 0.3358 0.0
H1621 H 0.61617 0.42598 0.35759 0.0
H1622 H 0.61201 0.44343 0.33474 0.0
H1623 H 0.60841 0.49257 0.36267 0.0
H1624 H 0.61386 0.47579 0.38555 0.0
H1625 H 0.63424 0.51213 0.3406 0.0
H1626 H 0.56175 0.44847 0.34277 0.0
H1627 H 0.53415 0.40876 0.34473 0.0
H1628 H 0.55869 0.39564 0.3035 0.0
H1629 H 0.58662 0.43522 0.30138 0.0
C1630 C 0.61333 0.54349 0.27582 0.0
C1631 C 0.61683 0.53458 0.2624 0.0
C1632 C 0.61012 0.5326 0.28974 0.0
C1633 C 0.61109 0.51301 0.2906 0.0
C1634 C 0.61417 0.50391 0.27717 0.0
C1635 C 0.61701 0.51458 0.26322 0.0
C1636 C 0.60989 0.50241 0.3055 0.0
C1637 C 0.5946 0.47978 0.30721 0.0
C1638 C 0.62404 0.51426 0.31784 0.0
C1639 C 0.64102 0.53802 0.31673 0.0
C1640 C 0.6575 0.54544 0.30548 0.0
C1641 C 0.67323 0.56793 0.30441 0.0
C1642 C 0.67276 0.58312 0.31459 0.0
C1643 C 0.6566 0.57585 0.32592 0.0
C1644 C 0.64081 0.55338 0.32703 0.0
C1645 C 0.61426 0.44037 0.35885 0.0
C1646 C 0.6153 0.44954 0.37331 0.0
C1647 C 0.61171 0.45026 0.34578 0.0
C1648 C 0.60945 0.46911 0.34694 0.0
C1649 C 0.61007 0.47802 0.36146 0.0
C1650 C 0.61313 0.46842 0.37452 0.0
C1651 C 0.60795 0.48034 0.33297 0.0
C1652 C 0.62277 0.50312 0.33141 0.0
C1653 C 0.59331 0.46861 0.3208 0.0
C1654 C 0.57637 0.44481 0.32197 0.0
C1655 C 0.56134 0.4371 0.33416 0.0
C1656 C 0.54562 0.41461 0.3353 0.0
C1657 C 0.54469 0.39969 0.32426 0.0
C1658 C 0.55943 0.40722 0.31204 0.0
C1659 C 0.57518 0.42968 0.31085 0.0
H1660 H 0.53252 0.38228 0.32517 0.0
H1661 H 0.68494 0.60053 0.31373 0.0
H1662 H 0.40737 0.95597 0.37983 0.0
H1663 H 0.42047 0.9491 0.35571 0.0
H1664 H 0.43355 0.90179 0.37798 0.0
H1665 H 0.42105 0.90911 0.40224 0.0
H1666 H 0.46453 0.92485 0.35623 0.0
H1667 H 0.38508 0.8849 0.36024 0.0
H1668 H 0.34859 0.88141 0.36433 0.0
H1669 H 0.35897 0.92357 0.32594 0.0
H1670 H 0.3957 0.9276 0.32178 0.0
H1671 H 0.44951 0.85167 0.29432 0.0
H1672 H 0.45038 0.87065 0.31804 0.0
H1673 H 0.43387 0.91357 0.29299 0.0
H1674 H 0.43234 0.89423 0.26935 0.0
H1675 H 0.40697 0.89582 0.31578 0.0
H1676 H 0.48559 0.93262 0.31027 0.0
H1677 H 0.52179 0.93534 0.30645 0.0
H1678 H 0.51294 0.89826 0.34742 0.0
H1679 H 0.47653 0.89504 0.35138 0.0
C1680 C 0.41363 0.94458 0.37967 0.0
C1681 C 0.41339 0.9332 0.39294 0.0
C1682 C 0.42099 0.94057 0.36587 0.0
C1683 C 0.42772 0.92472 0.36502 0.0
C1684 C 0.4285 0.91413 0.37839 0.0
C1685 C 0.42131 0.91827 0.39222 0.0
C1686 C 0.43174 0.91752 0.35002 0.0
C1687 C 0.45195 0.9184 0.34738 0.0
C1688 C 0.41541 0.90938 0.33843 0.0
C1689 C 0.39321 0.90674 0.3408 0.0
C1690 C 0.37963 0.89354 0.35273 0.0
C1691 C 0.35891 0.89146 0.35506 0.0
C1692 C 0.35149 0.90231 0.34542 0.0
C1693 C 0.36475 0.91521 0.33341 0.0
C1694 C 0.38552 0.9174 0.33106 0.0
C1695 C 0.44647 0.86542 0.29385 0.0
C1696 C 0.4407 0.87138 0.28002 0.0
C1697 C 0.44708 0.87634 0.3074 0.0
C1698 C 0.44228 0.89363 0.30731 0.0
C1699 C 0.43757 0.90025 0.29336 0.0
C1700 C 0.43673 0.88921 0.27986 0.0
C1701 C 0.43989 0.90324 0.32182 0.0
C1702 C 0.41979 0.90261 0.32446 0.0
C1703 C 0.45631 0.91147 0.33338 0.0
C1704 C 0.47824 0.91344 0.33105 0.0
C1705 C 0.49128 0.9249 0.31841 0.0
C1706 C 0.51185 0.92656 0.31623 0.0
C1707 C 0.51964 0.91694 0.32667 0.0
C1708 C 0.50688 0.90569 0.33933 0.0
C1709 C 0.48629 0.90397 0.34156 0.0
H1710 H 0.53557 0.91825 0.32496 0.0
H1711 H 0.33544 0.90067 0.34724 0.0
H1712 H 0.53717 0.42862 0.56815 0.0
H1713 H 0.55803 0.43607 0.54443 0.0
H1714 H 0.5005 0.42469 0.5188 0.0
H1715 H 0.47942 0.41663 0.5425 0.0
H1716 H 0.51815 0.40223 0.50697 0.0
H1717 H 0.54652 0.47756 0.5235 0.0
H1718 H 0.5637 0.50867 0.54177 0.0
H1719 H 0.6218 0.50264 0.54368 0.0
H1720 H 0.60486 0.4713 0.52559 0.0
H1721 H 0.57139 0.42972 0.43608 0.0
H1722 H 0.55226 0.43165 0.45882 0.0
H1723 H 0.60889 0.4453 0.48644 0.0
H1724 H 0.62844 0.44429 0.46359 0.0
H1725 H 0.59128 0.46825 0.49683 0.0
H1726 H 0.56327 0.3921 0.48297 0.0
H1727 H 0.54695 0.35971 0.46575 0.0
H1728 H 0.48925 0.36582 0.46005 0.0
H1729 H 0.50535 0.39843 0.47711 0.0
C1730 C 0.52914 0.42816 0.55747 0.0
C1731 C 0.50683 0.42252 0.5572 0.0
C1732 C 0.54107 0.43246 0.54392 0.0
C1733 C 0.53094 0.43129 0.52983 0.0
C1734 C 0.5087 0.42586 0.52955 0.0
C1735 C 0.49672 0.42141 0.54309 0.0
C1736 C 0.54306 0.43417 0.51536 0.0
C1737 C 0.53394 0.41687 0.50463 0.0
C1738 C 0.56403 0.45293 0.51253 0.0
C1739 C 0.57434 0.47197 0.52326 0.0
C1740 C 0.56291 0.48278 0.52789 0.0
C1741 C 0.57261 0.50047 0.5382 0.0
C1742 C 0.59381 0.5076 0.5439 0.0
C1743 C 0.60538 0.4971 0.53926 0.0
C1744 C 0.59575 0.47939 0.52896 0.0
C1745 C 0.57985 0.43342 0.44698 0.0
C1746 C 0.60131 0.43666 0.44811 0.0
C1747 C 0.56887 0.43442 0.45998 0.0
C1748 C 0.57893 0.43809 0.47441 0.0
C1749 C 0.60076 0.44235 0.47545 0.0
C1750 C 0.6119 0.44173 0.46239 0.0
C1751 C 0.5663 0.43634 0.48845 0.0
C1752 C 0.57537 0.45375 0.49911 0.0
C1753 C 0.5454 0.41753 0.49136 0.0
C1754 C 0.5356 0.39782 0.4812 0.0
C1755 C 0.54716 0.38661 0.47797 0.0
C1756 C 0.53794 0.3682 0.46826 0.0
C1757 C 0.5171 0.36073 0.46179 0.0
C1758 C 0.5054 0.37163 0.46506 0.0
C1759 C 0.51455 0.39006 0.47476 0.0
H1760 H 0.50999 0.34648 0.45426 0.0
H1761 H 0.60129 0.52129 0.5519 0.0
H1762 H 0.06638 0.49058 0.7147 0.0
H1763 H 0.08077 0.51329 0.69196 0.0
H1764 H 0.14698 0.52999 0.70479 0.0
H1765 H 0.1329 0.50878 0.72816 0.0
H1766 H 0.14961 0.56354 0.69245 0.0
H1767 H 0.11226 0.48624 0.67809 0.0
H1768 H 0.0806 0.44817 0.67644 0.0
H1769 H 0.04302 0.47176 0.65227 0.0
H1770 H 0.0744 0.51002 0.65394 0.0
H1771 H 0.17301 0.55253 0.60745 0.0
H1772 H 0.15361 0.53629 0.63118 0.0
H1773 H 0.15678 0.59788 0.64307 0.0
H1774 H 0.17723 0.61456 0.61955 0.0
H1775 H 0.11691 0.52709 0.64296 0.0
H1776 H 0.1598 0.60455 0.68158 0.0
H1777 H 0.19501 0.63996 0.68329 0.0
H1778 H 0.22789 0.61143 0.65882 0.0
H1779 H 0.19295 0.57581 0.65713 0.0
C1780 C 0.08402 0.49914 0.71278 0.0
C1781 C 0.09843 0.49709 0.72305 0.0
C1782 C 0.09223 0.5121 0.69968 0.0
C1783 C 0.11491 0.52281 0.69634 0.0
C1784 C 0.12938 0.52173 0.70696 0.0
C1785 C 0.12127 0.50931 0.72025 0.0
C1786 C 0.12361 0.53432 0.68155 0.0
C1787 C 0.14236 0.55559 0.68164 0.0
C1788 C 0.11437 0.52396 0.66737 0.0
C1789 C 0.09556 0.50098 0.66628 0.0
C1790 C 0.09719 0.48331 0.6725 0.0
C1791 C 0.07931 0.46171 0.67155 0.0
C1792 C 0.05979 0.45756 0.66429 0.0
C1793 C 0.05814 0.475 0.65792 0.0
C1794 C 0.07596 0.49664 0.65885 0.0
C1795 C 0.16948 0.56259 0.61508 0.0
C1796 C 0.17675 0.58485 0.61172 0.0
C1797 C 0.15831 0.55327 0.62864 0.0
C1798 C 0.15393 0.5659 0.63905 0.0
C1799 C 0.16038 0.58792 0.6354 0.0
C1800 C 0.17194 0.5974 0.62193 0.0
C1801 C 0.14327 0.55602 0.65387 0.0
C1802 C 0.12402 0.53514 0.65378 0.0
C1803 C 0.15259 0.56635 0.66803 0.0
C1804 C 0.17371 0.58763 0.66907 0.0
C1805 C 0.17457 0.60585 0.6766 0.0
C1806 C 0.19447 0.62594 0.67756 0.0
C1807 C 0.21365 0.62796 0.67112 0.0
C1808 C 0.213 0.60987 0.66375 0.0
C1809 C 0.19315 0.58973 0.66277 0.0
H1810 H 0.22904 0.64354 0.67187 0.0
H1811 H 0.04596 0.44083 0.66357 0.0
H1812 H 0.58023 0.12086 0.91312 0.0
H1813 H 0.5786 0.13798 0.88335 0.0
H1814 H 0.64888 0.14069 0.86781 0.0
H1815 H 0.65237 0.12373 0.89709 0.0
H1816 H 0.64616 0.17359 0.85816 0.0
H1817 H 0.58572 0.09842 0.85187 0.0
H1818 H 0.55119 0.06481 0.85926 0.0
H1819 H 0.51772 0.1022 0.86123 0.0
H1820 H 0.55214 0.13605 0.85395 0.0
H1821 H 0.63834 0.18318 0.77893 0.0
H1822 H 0.63541 0.16667 0.80398 0.0
H1823 H 0.58895 0.18671 0.81804 0.0
H1824 H 0.59189 0.20347 0.79294 0.0
H1825 H 0.57757 0.14271 0.82712 0.0
H1826 H 0.63861 0.21712 0.82938 0.0
H1827 H 0.67338 0.24912 0.82053 0.0
H1828 H 0.70648 0.21166 0.82525 0.0
H1829 H 0.6718 0.1793 0.83389 0.0
C1830 C 0.59327 0.12524 0.9049 0.0
C1831 C 0.61445 0.11667 0.90715 0.0
C1832 C 0.59181 0.13475 0.88607 0.0
C1833 C 0.61258 0.13958 0.87194 0.0
C1834 C 0.63629 0.13671 0.87634 0.0
C1835 C 0.63925 0.12728 0.89479 0.0
C1836 C 0.61174 0.14853 0.85686 0.0
C1837 C 0.63121 0.16657 0.8513 0.0
C1838 C 0.59213 0.13991 0.8481 0.0
C1839 C 0.57153 0.11977 0.85266 0.0
C1840 C 0.57101 0.09947 0.854 0.0
C1841 C 0.55147 0.08038 0.85813 0.0
C1842 C 0.5323 0.08139 0.86079 0.0
C1843 C 0.53261 0.10146 0.85924 0.0
C1844 C 0.55211 0.12059 0.8551 0.0
C1845 C 0.62731 0.18388 0.78728 0.0
C1846 C 0.61544 0.19472 0.78403 0.0
C1847 C 0.6257 0.17449 0.80159 0.0
C1848 C 0.61214 0.1757 0.81286 0.0
C1849 C 0.59953 0.18567 0.80946 0.0
C1850 C 0.60127 0.19526 0.79517 0.0
C1851 C 0.61205 0.16744 0.8284 0.0
C1852 C 0.59245 0.14966 0.83404 0.0
C1853 C 0.63161 0.17622 0.83723 0.0
C1854 C 0.65255 0.19571 0.83214 0.0
C1855 C 0.65326 0.21564 0.82841 0.0
C1856 C 0.67295 0.23385 0.82345 0.0
C1857 C 0.69211 0.23241 0.82229 0.0
C1858 C 0.69162 0.21275 0.82613 0.0
C1859 C 0.67195 0.19447 0.83107 0.0
H1860 H 0.70735 0.24653 0.81845 0.0
H1861 H 0.51719 0.0666 0.864 0.0
H1862 H 0.57109 0.65092 0.05507 0.0
H1863 H 0.54795 0.64773 0.02707 0.0
H1864 H 0.47547 0.5928 0.05025 0.0
H1865 H 0.49682 0.59454 0.07901 0.0
H1866 H 0.48101 0.58129 0.02162 0.0
H1867 H 0.49639 0.65206 0.03869 0.0
H1868 H 0.51846 0.69017 0.04856 0.0
H1869 H 0.55906 0.7089 0.00853 0.0
H1870 H 0.53743 0.67081 0.9985 0.0
H1871 H 0.4184 0.59086 0.95973 0.0
H1872 H 0.43492 0.5906 0.98434 0.0
H1873 H 0.49996 0.62768 0.96471 0.0
H1874 H 0.48361 0.62809 0.94015 0.0
H1875 H 0.49563 0.64666 0.99074 0.0
H1876 H 0.4792 0.57421 0.97408 0.0
H1877 H 0.45538 0.53611 0.96463 0.0
H1878 H 0.41449 0.52075 0.00435 0.0
H1879 H 0.43791 0.55887 0.01395 0.0
C1880 C 0.55326 0.64111 0.05447 0.0
C1881 C 0.53686 0.62006 0.06913 0.0
C1882 C 0.53879 0.63824 0.03688 0.0
C1883 C 0.50941 0.61914 0.03535 0.0
C1884 C 0.49314 0.6034 0.05148 0.0
C1885 C 0.50608 0.6051 0.0696 0.0
C1886 C 0.49822 0.6169 0.02064 0.0
C1887 C 0.48396 0.59558 0.01494 0.0
C1888 C 0.50231 0.63556 0.01191 0.0
C1889 C 0.51543 0.65849 0.01792 0.0
C1890 C 0.51014 0.66425 0.03205 0.0
C1891 C 0.52255 0.68586 0.03766 0.0
C1892 C 0.54019 0.70193 0.0292 0.0
C1893 C 0.54542 0.69643 0.01508 0.0
C1894 C 0.53307 0.67483 0.00942 0.0
C1895 C 0.43621 0.59865 0.96062 0.0
C1896 C 0.44973 0.60958 0.94805 0.0
C1897 C 0.44561 0.59843 0.97466 0.0
C1898 C 0.46866 0.60912 0.97633 0.0
C1899 C 0.48213 0.61939 0.96366 0.0
C1900 C 0.47276 0.61954 0.94963 0.0
C1901 C 0.47885 0.61107 0.99151 0.0
C1902 C 0.49277 0.63237 0.99738 0.0
C1903 C 0.47428 0.59239 0.00041 0.0
C1904 C 0.46017 0.56947 0.99465 0.0
C1905 C 0.46501 0.56277 0.98073 0.0
C1906 C 0.45161 0.54116 0.97536 0.0
C1907 C 0.4334 0.52604 0.98386 0.0
C1908 C 0.42859 0.53249 0.99776 0.0
C1909 C 0.44193 0.55409 0.00318 0.0
H1910 H 0.42304 0.50931 0.97968 0.0
H1911 H 0.54978 0.71865 0.03357 0.0
H1912 H 0.91994 0.546 0.22943 0.0
H1913 H 0.90056 0.52322 0.20114 0.0
H1914 H 0.90967 0.45914 0.21652 0.0
H1915 H 0.92937 0.48031 0.24539 0.0
H1916 H 0.92209 0.47282 0.1865 0.0
H1917 H 0.85815 0.4613 0.21269 0.0
H1918 H 0.83427 0.47064 0.22784 0.0
H1919 H 0.83564 0.51323 0.1921 0.0
H1920 H 0.85982 0.50442 0.17681 0.0
H1921 H 0.85296 0.4073 0.12338 0.0
H1922 H 0.8693 0.42162 0.1486 0.0
H1923 H 0.8751 0.48453 0.13772 0.0
H1924 H 0.8589 0.47043 0.11262 0.0
H1925 H 0.85398 0.46756 0.16493 0.0
H1926 H 0.92014 0.47996 0.13939 0.0
H1927 H 0.94326 0.4693 0.12452 0.0
H1928 H 0.93632 0.42309 0.1593 0.0
H1929 H 0.91287 0.43325 0.1743 0.0
C1930 C 0.91696 0.52943 0.22742 0.0
C1931 C 0.93028 0.51725 0.23921 0.0
C1932 C 0.90586 0.51554 0.20955 0.0
C1933 C 0.90408 0.48931 0.2054 0.0
C1934 C 0.91182 0.47523 0.21922 0.0
C1935 C 0.92313 0.48776 0.23748 0.0
C1936 C 0.89506 0.47865 0.19053 0.0
C1937 C 0.90701 0.47134 0.18186 0.0
C1938 C 0.87552 0.47695 0.18449 0.0
C1939 C 0.86102 0.48237 0.19367 0.0
C1940 C 0.85354 0.47282 0.20811 0.0
C1941 C 0.83991 0.47799 0.21672 0.0
C1942 C 0.83349 0.49257 0.21096 0.0
C1943 C 0.84065 0.50197 0.19656 0.0
C1944 C 0.8543 0.49687 0.18791 0.0
C1945 C 0.85802 0.42427 0.12631 0.0
C1946 C 0.85459 0.43772 0.11606 0.0
C1947 C 0.86737 0.43243 0.14069 0.0
C1948 C 0.87338 0.45412 0.14501 0.0
C1949 C 0.87051 0.46772 0.13462 0.0
C1950 C 0.86132 0.45965 0.12026 0.0
C1951 C 0.88135 0.46236 0.16066 0.0
C1952 C 0.86906 0.46903 0.16957 0.0
C1953 C 0.9005 0.46335 0.1669 0.0
C1954 C 0.91452 0.45717 0.15788 0.0
C1955 C 0.92335 0.46736 0.1438 0.0
C1956 C 0.93656 0.46145 0.13536 0.0
C1957 C 0.94119 0.44547 0.14094 0.0
C1958 C 0.93267 0.43542 0.15498 0.0
C1959 C 0.91943 0.44126 0.16346 0.0
H1960 H 0.95144 0.44093 0.13439 0.0
H1961 H 0.82293 0.49654 0.21764 0.0
loop_
_geom_bond_atom_site_label_1
_geom_bond_atom_site_label_2
_geom_bond_distance
_geom_bond_site_symmetry_2
_ccdc_geom_bond_type
C0 C1 1.560 . S
C0 H61 0.959 . S
C0 H62 0.959 . S
C0 H63 0.960 . S
C1 C0 1.560 . S
C1 O56 1.426 . S
C1 H60 0.980 . S
C2 C3 1.407 . S
C2 C7 1.418 . S
C2 O56 1.334 . S
C3 C2 1.407 . S
C3 C4 1.360 . S
C3 H64 0.929 . S
C4 C3 1.360 . S
C4 C5 1.401 . S
C4 C8 1.527 . S
C5 C4 1.401 . S
C5 C6 1.405 . S
C5 C38 1.587 . S
C6 C5 1.405 . S
C6 C7 1.332 . S
C6 C9 1.496 . S
C7 C2 1.418 . S
C7 C6 1.332 . S
C7 H65 0.929 . S
C8 C4 1.527 . S
C8 H66 0.959 . S
C8 H67 0.961 . S
C8 H68 0.961 . S
C9 C6 1.496 . S
C9 H69 0.960 . S
C9 H70 0.960 . S
C9 H71 0.961 . S
C10 C11 1.517 . S
C10 H73 0.961 . S
C10 H74 0.960 . S
C10 H75 0.959 . S
C11 C10 1.517 . S
C11 O59 1.468 . S
C11 H72 0.980 . S
C12 C13 1.349 . S
C12 C17 1.367 . S
C12 O59 1.408 . S
C13 C12 1.349 . S
C13 C14 1.407 1_655 S
C13 H76 0.930 . S
C14 C13 1.407 1_455 S
C14 C15 1.449 . S
C14 C18 1.535 . S
C15 C14 1.449 . S
C15 C16 1.384 . S
C15 C40 1.553 . S
C16 C15 1.384 . S
C16 C17 1.364 1_455 S
C16 C19 1.450 . S
C17 C12 1.367 . S
C17 C16 1.364 1_655 S
C17 H77 0.931 . S
C18 C14 1.535 . S
C18 H78 0.959 . S
C18 H79 0.961 . S
C18 H80 0.959 1_455 S
C19 C16 1.450 . S
C19 H81 0.960 . S
C19 H82 0.960 . S
C19 H83 0.960 . S
C20 C21 1.309 . S
C20 C25 1.304 . S
C20 O58 1.435 . S
C21 C20 1.309 . S
C21 C22 1.476 . S
C21 H85 0.930 . S
C22 C21 1.476 . S
C22 C23 1.400 . S
C22 C26 1.567 . S
C23 C22 1.400 . S
C23 C24 1.373 . S
C23 C45 1.432 . S
C24 C23 1.373 . S
C24 C25 1.339 . S
C24 C27 1.530 . S
C25 C20 1.304 . S
C25 C24 1.339 . S
C25 H86 0.930 . S
C26 C22 1.567 . S
C26 H87 0.961 . S
C26 H88 0.960 . S
C26 H89 0.958 . S
C27 C24 1.530 . S
C27 H90 0.961 . S
C27 H91 0.960 . S
C27 H92 0.960 . S
C28 C29 1.530 . S
C28 H94 0.961 . S
C28 H95 0.961 . S
C28 H96 0.959 . S
C29 C28 1.530 . S
C29 O57 1.412 . S
C29 H93 0.980 . S
C30 C31 1.288 . S
C30 C35 1.377 . S
C30 O57 1.393 . S
C31 C30 1.288 . S
C31 C32 1.369 . S
C31 H97 0.932 . S
C32 C31 1.369 . S
C32 C33 1.398 . S
C32 C36 1.527 . S
C33 C32 1.398 . S
C33 C34 1.380 . S
C33 C47 1.497 . S
C34 C33 1.380 . S
C34 C35 1.383 . S
C34 C37 1.603 . S
C35 C30 1.377 . S
C35 C34 1.383 . S
C35 H98 0.929 . S
C36 C32 1.527 . S
C36 H99 0.961 . S
C36 H100 0.959 . S
C36 H101 0.959 . S
C37 C34 1.603 . S
C37 H102 0.960 . S
C37 H103 0.962 . S
C37 H104 0.961 . S
C38 C5 1.587 . S
C38 C39 1.360 . S
C38 C51 1.412 . S
C39 C38 1.360 . S
C39 C40 1.365 . S
C39 H105 0.929 . S
C40 C15 1.553 . S
C40 C39 1.365 . S
C40 C41 1.404 . S
C41 C40 1.404 . S
C41 C42 1.395 1_455 S
C41 C52 1.451 . S
C42 C41 1.395 1_655 S
C42 C43 1.322 . S
C42 H106 0.930 . S
C43 C42 1.322 . S
C43 C44 1.459 . S
C43 H107 0.929 . S
C44 C43 1.459 . S
C44 C45 1.445 . S
C44 C53 1.395 1_655 S
C45 C23 1.432 . S
C45 C44 1.445 . S
C45 C46 1.370 1_655 S
C46 C45 1.370 1_455 S
C46 C47 1.438 . S
C46 H108 0.930 1_455 S
C47 C33 1.497 . S
C47 C46 1.438 . S
C47 C48 1.360 . S
C48 C47 1.360 . S
C48 C49 1.401 . S
C48 C53 1.446 . S
C49 C48 1.401 . S
C49 C50 1.347 . S
C49 H109 0.929 . S
C50 C49 1.347 . S
C50 C51 1.455 . S
C50 H110 0.930 . S
C51 C38 1.412 . S
C51 C50 1.455 . S
C51 C52 1.331 . S
C52 C41 1.451 . S
C52 C51 1.331 . S
C52 C53 1.497 . S
C53 C44 1.395 1_455 S
C53 C48 1.446 . S
C53 C52 1.497 . S
C54 C55 1.582 . S
C54 H111 0.962 . S
C54 H112 0.959 . S
C54 H113 0.958 . S
C55 C54 1.582 . S
C55 O58 1.458 . S
C55 H84 0.980 . S
O56 C1 1.426 . S
O56 C2 1.334 . S
O57 C29 1.412 . S
O57 C30 1.393 . S
O58 C20 1.435 . S
O58 C55 1.458 . S
O59 C11 1.468 . S
O59 C12 1.408 . S
H60 C1 0.980 . S
H61 C0 0.959 . S
H62 C0 0.959 . S
H63 C0 0.960 . S
H64 C3 0.929 . S
H65 C7 0.929 . S
H66 C8 0.959 . S
H67 C8 0.961 . S
H68 C8 0.961 . S
H69 C9 0.960 . S
H70 C9 0.960 . S
H71 C9 0.961 . S
H72 C11 0.980 . S
H73 C10 0.961 . S
H74 C10 0.960 . S
H75 C10 0.959 . S
H76 C13 0.930 . S
H77 C17 0.931 . S
H78 C18 0.959 . S
H79 C18 0.961 . S
H80 C18 0.959 1_655 S
H81 C19 0.960 . S
H82 C19 0.960 . S
H83 C19 0.960 . S
H84 C55 0.980 . S
H85 C21 0.930 . S
H86 C25 0.930 . S
H87 C26 0.961 . S
H88 C26 0.960 . S
H89 C26 0.958 . S
H90 C27 0.961 . S
H91 C27 0.960 . S
H92 C27 0.960 . S
H93 C29 0.980 . S
H94 C28 0.961 . S
H95 C28 0.961 . S
H96 C28 0.959 . S
H97 C31 0.932 . S
H98 C35 0.929 . S
H99 C36 0.961 . S
H100 C36 0.959 . S
H101 C36 0.959 . S
H102 C37 0.960 . S
H103 C37 0.962 . S
H104 C37 0.961 . S
H105 C39 0.929 . S
H106 C42 0.930 . S
H107 C43 0.929 . S
H108 C46 0.930 1_655 S
H109 C49 0.929 . S
H110 C50 0.930 . S
H111 C54 0.962 . S
H112 C54 0.959 . S
H113 C54 0.958 . S
C114 C115 1.560 . S
C114 H175 0.959 . S
C114 H176 0.959 . S
C114 H177 0.960 . S
C115 C114 1.560 . S
C115 O170 1.426 . S
C115 H174 0.980 . S
C116 C117 1.407 . S
C116 C121 1.418 . S
C116 O170 1.334 . S
C117 C116 1.407 . S
C117 C118 1.360 . S
C117 H178 0.929 . S
C118 C117 1.360 . S
C118 C119 1.401 . S
C118 C122 1.527 . S
C119 C118 1.401 . S
C119 C120 1.405 . S
C119 C152 1.587 . S
C120 C119 1.405 . S
C120 C121 1.332 . S
C120 C123 1.496 . S
C121 C116 1.418 . S
C121 C120 1.332 . S
C121 H179 0.929 . S
C122 C118 1.527 . S
C122 H180 0.959 . S
C122 H181 0.961 . S
C122 H182 0.961 . S
C123 C120 1.496 . S
C123 H183 0.960 . S
C123 H184 0.960 . S
C123 H185 0.961 . S
C124 C125 1.517 . S
C124 H187 0.961 . S
C124 H188 0.960 . S
C124 H189 0.959 . S
C125 C124 1.517 . S
C125 O173 1.468 . S
C125 H186 0.980 . S
C126 C127 1.349 . S
C126 C131 1.367 . S
C126 O173 1.408 . S
C127 C126 1.349 . S
C127 C128 1.407 . S
C127 H190 0.930 . S
C128 C127 1.407 . S
C128 C129 1.449 . S
C128 C132 1.535 . S
C129 C128 1.449 . S
C129 C130 1.384 . S
C129 C154 1.553 . S
C130 C129 1.384 . S
C130 C131 1.364 . S
C130 C133 1.450 . S
C131 C126 1.367 . S
C131 C130 1.364 . S
C131 H191 0.931 . S
C132 C128 1.535 . S
C132 H192 0.959 . S
C132 H193 0.961 . S
C132 H194 0.959 . S
C133 C130 1.450 . S
C133 H195 0.960 . S
C133 H196 0.960 . S
C133 H197 0.960 . S
C134 C135 1.309 . S
C134 C139 1.304 . S
C134 O172 1.435 . S
C135 C134 1.309 . S
C135 C136 1.476 . S
C135 H199 0.930 . S
C136 C135 1.476 . S
C136 C137 1.400 . S
C136 C140 1.567 . S
C137 C136 1.400 . S
C137 C138 1.373 . S
C137 C159 1.432 . S
C138 C137 1.373 . S
C138 C139 1.339 . S
C138 C141 1.530 . S
C139 C134 1.304 . S
C139 C138 1.339 . S
C139 H200 0.930 . S
C140 C136 1.567 . S
C140 H201 0.961 . S
C140 H202 0.960 . S
C140 H203 0.958 . S
C141 C138 1.530 . S
C141 H204 0.961 . S
C141 H205 0.960 . S
C141 H206 0.960 . S
C142 C143 1.530 . S
C142 H208 0.961 . S
C142 H209 0.961 . S
C142 H210 0.959 . S
C143 C142 1.530 . S
C143 O171 1.412 . S
C143 H207 0.980 . S
C144 C145 1.288 . S
C144 C149 1.377 . S
C144 O171 1.393 . S
C145 C144 1.288 . S
C145 C146 1.369 1_565 S
C145 H211 0.932 . S
C146 C145 1.369 1_545 S
C146 C147 1.398 . S
C146 C150 1.527 . S
C147 C146 1.398 . S
C147 C148 1.380 1_545 S
C147 C161 1.497 . S
C148 C147 1.380 1_565 S
C148 C149 1.383 . S
C148 C151 1.603 . S
C149 C144 1.377 . S
C149 C148 1.383 . S
C149 H212 0.929 . S
C150 C146 1.527 . S
C150 H213 0.961 . S
C150 H214 0.959 . S
C150 H215 0.959 . S
C151 C148 1.603 . S
C151 H216 0.960 . S
C151 H217 0.962 1_565 S
C151 H218 0.961 . S
C152 C119 1.587 . S
C152 C153 1.360 . S
C152 C165 1.412 . S
C153 C152 1.360 . S
C153 C154 1.365 1_565 S
C153 H219 0.929 . S
C154 C129 1.553 . S
C154 C153 1.365 1_545 S
C154 C155 1.404 . S
C155 C154 1.404 . S
C155 C156 1.395 . S
C155 C166 1.451 . S
C156 C155 1.395 . S
C156 C157 1.322 . S
C156 H220 0.930 . S
C157 C156 1.322 . S
C157 C158 1.459 . S
C157 H221 0.929 . S
C158 C157 1.459 . S
C158 C159 1.445 . S
C158 C167 1.395 . S
C159 C137 1.432 . S
C159 C158 1.445 . S
C159 C160 1.370 . S
C160 C159 1.370 . S
C160 C161 1.438 . S
C160 H222 0.930 . S
C161 C147 1.497 . S
C161 C160 1.438 . S
C161 C162 1.360 . S
C162 C161 1.360 . S
C162 C163 1.401 1_545 S
C162 C167 1.446 . S
C163 C162 1.401 1_565 S
C163 C164 1.347 . S
C163 H223 0.929 . S
C164 C163 1.347 . S
C164 C165 1.455 . S
C164 H224 0.930 . S
C165 C152 1.412 . S
C165 C164 1.455 . S
C165 C166 1.331 1_565 S
C166 C155 1.451 . S
C166 C165 1.331 1_545 S
C166 C167 1.497 . S
C167 C158 1.395 . S
C167 C162 1.446 . S
C167 C166 1.497 . S
C168 C169 1.582 . S
C168 H225 0.962 . S
C168 H226 0.959 . S
C168 H227 0.958 . S
C169 C168 1.582 . S
C169 O172 1.458 . S
C169 H198 0.980 . S
O170 C115 1.426 . S
O170 C116 1.334 . S
O171 C143 1.412 . S
O171 C144 1.393 . S
O172 C134 1.435 . S
O172 C169 1.458 . S
O173 C125 1.468 . S
O173 C126 1.408 . S
H174 C115 0.980 . S
H175 C114 0.959 . S
H176 C114 0.959 . S
H177 C114 0.960 . S
H178 C117 0.929 . S
H179 C121 0.929 . S
H180 C122 0.959 . S
H181 C122 0.961 . S
H182 C122 0.961 . S
H183 C123 0.960 . S
H184 C123 0.960 . S
H185 C123 0.961 . S
H186 C125 0.980 . S
H187 C124 0.961 . S
H188 C124 0.960 . S
H189 C124 0.959 . S
H190 C127 0.930 . S
H191 C131 0.931 . S
H192 C132 0.959 . S
H193 C132 0.961 . S
H194 C132 0.959 . S
H195 C133 0.960 . S
H196 C133 0.960 . S
H197 C133 0.960 . S
H198 C169 0.980 . S
H199 C135 0.930 . S
H200 C139 0.930 . S
H201 C140 0.961 . S
H202 C140 0.960 . S
H203 C140 0.958 . S
H204 C141 0.961 . S
H205 C141 0.960 . S
H206 C141 0.960 . S
H207 C143 0.980 . S
H208 C142 0.961 . S
H209 C142 0.961 . S
H210 C142 0.959 . S
H211 C145 0.932 . S
H212 C149 0.929 . S
H213 C150 0.961 . S
H214 C150 0.959 . S
H215 C150 0.959 . S
H216 C151 0.960 . S
H217 C151 0.962 1_545 S
H218 C151 0.961 . S
H219 C153 0.929 . S
H220 C156 0.930 . S
H221 C157 0.929 . S
H222 C160 0.930 . S
H223 C163 0.929 . S
H224 C164 0.930 . S
H225 C168 0.962 . S
H226 C168 0.959 . S
H227 C168 0.958 . S
C228 C229 1.560 . S
C228 H289 0.959 . S
C228 H290 0.959 . S
C228 H291 0.960 . S
C229 C228 1.560 . S
C229 O284 1.426 . S
C229 H288 0.980 . S
C230 C231 1.407 . S
C230 C235 1.418 . S
C230 O284 1.334 . S
C231 C230 1.407 . S
C231 C232 1.360 . S
C231 H292 0.929 . S
C232 C231 1.360 . S
C232 C233 1.401 . S
C232 C236 1.527 . S
C233 C232 1.401 . S
C233 C234 1.405 . S
C233 C266 1.587 . S
C234 C233 1.405 . S
C234 C235 1.332 . S
C234 C237 1.496 . S
C235 C230 1.418 . S
C235 C234 1.332 . S
C235 H293 0.929 . S
C236 C232 1.527 . S
C236 H294 0.959 . S
C236 H295 0.961 . S
C236 H296 0.961 . S
C237 C234 1.496 . S
C237 H297 0.960 . S
C237 H298 0.960 . S
C237 H299 0.961 . S
C238 C239 1.517 . S
C238 H301 0.961 . S
C238 H302 0.960 . S
C238 H303 0.959 . S
C239 C238 1.517 . S
C239 O287 1.468 . S
C239 H300 0.980 . S
C240 C241 1.349 . S
C240 C245 1.367 . S
C240 O287 1.408 . S
C241 C240 1.349 . S
C241 C242 1.407 . S
C241 H304 0.930 . S
C242 C241 1.407 . S
C242 C243 1.449 . S
C242 C246 1.535 . S
C243 C242 1.449 . S
C243 C244 1.384 . S
C243 C268 1.553 . S
C244 C243 1.384 . S
C244 C245 1.364 . S
C244 C247 1.450 . S
C245 C240 1.367 . S
C245 C244 1.364 . S
C245 H305 0.931 . S
C246 C242 1.535 . S
C246 H306 0.959 . S
C246 H307 0.961 . S
C246 H308 0.959 . S
C247 C244 1.450 . S
C247 H309 0.960 . S
C247 H310 0.960 . S
C247 H311 0.960 . S
C248 C249 1.309 . S
C248 C253 1.304 . S
C248 O286 1.435 . S
C249 C248 1.309 . S
C249 C250 1.476 . S
C249 H313 0.930 . S
C250 C249 1.476 . S
C250 C251 1.400 . S
C250 C254 1.567 . S
C251 C250 1.400 . S
C251 C252 1.373 . S
C251 C273 1.432 . S
C252 C251 1.373 . S
C252 C253 1.339 . S
C252 C255 1.530 . S
C253 C248 1.304 . S
C253 C252 1.339 . S
C253 H314 0.930 . S
C254 C250 1.567 . S
C254 H315 0.961 . S
C254 H316 0.960 . S
C254 H317 0.958 . S
C255 C252 1.530 . S
C255 H318 0.961 . S
C255 H319 0.960 . S
C255 H320 0.960 . S
C256 C257 1.530 . S
C256 H322 0.961 . S
C256 H323 0.961 . S
C256 H324 0.959 . S
C257 C256 1.530 . S
C257 O285 1.412 . S
C257 H321 0.980 . S
C258 C259 1.288 . S
C258 C263 1.377 . S
C258 O285 1.393 . S
C259 C258 1.288 . S
C259 C260 1.369 . S
C259 H325 0.932 . S
C260 C259 1.369 . S
C260 C261 1.398 . S
C260 C264 1.527 . S
C261 C260 1.398 . S
C261 C262 1.380 . S
C261 C275 1.497 . S
C262 C261 1.380 . S
C262 C263 1.383 . S
C262 C265 1.603 . S
C263 C258 1.377 . S
C263 C262 1.383 . S
C263 H326 0.929 . S
C264 C260 1.527 . S
C264 H327 0.961 . S
C264 H328 0.959 . S
C264 H329 0.959 . S
C265 C262 1.603 . S
C265 H330 0.960 . S
C265 H331 0.962 . S
C265 H332 0.961 . S
C266 C233 1.587 . S
C266 C267 1.360 . S
C266 C279 1.412 . S
C267 C266 1.360 . S
C267 C268 1.365 . S
C267 H333 0.929 . S
C268 C243 1.553 . S
C268 C267 1.365 . S
C268 C269 1.404 . S
C269 C268 1.404 . S
C269 C270 1.395 . S
C269 C280 1.451 . S
C270 C269 1.395 . S
C270 C271 1.322 . S
C270 H334 0.930 . S
C271 C270 1.322 . S
C271 C272 1.459 . S
C271 H335 0.929 . S
C272 C271 1.459 . S
C272 C273 1.445 . S
C272 C281 1.395 . S
C273 C251 1.432 . S
C273 C272 1.445 . S
C273 C274 1.370 . S
C274 C273 1.370 . S
C274 C275 1.438 . S
C274 H336 0.930 . S
C275 C261 1.497 . S
C275 C274 1.438 . S
C275 C276 1.360 . S
C276 C275 1.360 . S
C276 C277 1.401 . S
C276 C281 1.446 . S
C277 C276 1.401 . S
C277 C278 1.347 . S
C277 H337 0.929 . S
C278 C277 1.347 . S
C278 C279 1.455 . S
C278 H338 0.930 . S
C279 C266 1.412 . S
C279 C278 1.455 . S
C279 C280 1.331 . S
C280 C269 1.451 . S
C280 C279 1.331 . S
C280 C281 1.497 . S
C281 C272 1.395 . S
C281 C276 1.446 . S
C281 C280 1.497 . S
C282 C283 1.582 . S
C282 H339 0.962 . S
C282 H340 0.959 . S
C282 H341 0.958 . S
C283 C282 1.582 . S
C283 O286 1.458 . S
C283 H312 0.980 . S
O284 C229 1.426 . S
O284 C230 1.334 . S
O285 C257 1.412 . S
O285 C258 1.393 . S
O286 C248 1.435 . S
O286 C283 1.458 . S
O287 C239 1.468 . S
O287 C240 1.408 . S
H288 C229 0.980 . S
H289 C228 0.959 . S
H290 C228 0.959 . S
H291 C228 0.960 . S
H292 C231 0.929 . S
H293 C235 0.929 . S
H294 C236 0.959 . S
H295 C236 0.961 . S
H296 C236 0.961 . S
H297 C237 0.960 . S
H298 C237 0.960 . S
H299 C237 0.961 . S
H300 C239 0.980 . S
H301 C238 0.961 . S
H302 C238 0.960 . S
H303 C238 0.959 . S
H304 C241 0.930 . S
H305 C245 0.931 . S
H306 C246 0.959 . S
H307 C246 0.961 . S
H308 C246 0.959 . S
H309 C247 0.960 . S
H310 C247 0.960 . S
H311 C247 0.960 . S
H312 C283 0.980 . S
H313 C249 0.930 . S
H314 C253 0.930 . S
H315 C254 0.961 . S
H316 C254 0.960 . S
H317 C254 0.958 . S
H318 C255 0.961 . S
H319 C255 0.960 . S
H320 C255 0.960 . S
H321 C257 0.980 . S
H322 C256 0.961 . S
H323 C256 0.961 . S
H324 C256 0.959 . S
H325 C259 0.932 . S
H326 C263 0.929 . S
H327 C264 0.961 . S
H328 C264 0.959 . S
H329 C264 0.959 . S
H330 C265 0.960 . S
H331 C265 0.962 . S
H332 C265 0.961 . S
H333 C267 0.929 . S
H334 C270 0.930 . S
H335 C271 0.929 . S
H336 C274 0.930 . S
H337 C277 0.929 . S
H338 C278 0.930 . S
H339 C282 0.962 . S
H340 C282 0.959 . S
H341 C282 0.958 . S
C342 C343 1.560 . S
C342 H403 0.959 . S
C342 H404 0.959 . S
C342 H405 0.960 . S
C343 C342 1.560 . S
C343 O398 1.426 . S
C343 H402 0.980 . S
C344 C345 1.407 . S
C344 C349 1.418 . S
C344 O398 1.334 . S
C345 C344 1.407 . S
C345 C346 1.360 . S
C345 H406 0.929 . S
C346 C345 1.360 . S
C346 C347 1.401 . S
C346 C350 1.527 . S
C347 C346 1.401 . S
C347 C348 1.405 . S
C347 C380 1.587 . S
C348 C347 1.405 . S
C348 C349 1.332 . S
C348 C351 1.496 . S
C349 C344 1.418 . S
C349 C348 1.332 . S
C349 H407 0.929 . S
C350 C346 1.527 . S
C350 H408 0.959 . S
C350 H409 0.961 . S
C350 H410 0.961 . S
C351 C348 1.496 . S
C351 H411 0.960 . S
C351 H412 0.960 . S
C351 H413 0.961 . S
C352 C353 1.517 . S
C352 H415 0.961 . S
C352 H416 0.960 . S
C352 H417 0.959 . S
C353 C352 1.517 . S
C353 O401 1.468 . S
C353 H414 0.980 . S
C354 C355 1.349 . S
C354 C359 1.367 . S
C354 O401 1.408 . S
C355 C354 1.349 . S
C355 C356 1.407 1_655 S
C355 H418 0.930 . S
C356 C355 1.407 1_455 S
C356 C357 1.449 . S
C356 C360 1.535 . S
C357 C356 1.449 . S
C357 C358 1.384 . S
C357 C382 1.553 . S
C358 C357 1.384 . S
C358 C359 1.364 1_455 S
C358 C361 1.450 . S
C359 C354 1.367 . S
C359 C358 1.364 1_655 S
C359 H419 0.931 . S
C360 C356 1.535 . S
C360 H420 0.959 . S
C360 H421 0.961 . S
C360 H422 0.959 1_455 S
C361 C358 1.450 . S
C361 H423 0.960 . S
C361 H424 0.960 . S
C361 H425 0.960 . S
C362 C363 1.309 . S
C362 C367 1.304 . S
C362 O400 1.435 . S
C363 C362 1.309 . S
C363 C364 1.476 . S
C363 H427 0.930 . S
C364 C363 1.476 . S
C364 C365 1.400 . S
C364 C368 1.567 . S
C365 C364 1.400 . S
C365 C366 1.373 . S
C365 C387 1.432 . S
C366 C365 1.373 . S
C366 C367 1.339 . S
C366 C369 1.530 . S
C367 C362 1.304 . S
C367 C366 1.339 . S
C367 H428 0.930 . S
C368 C364 1.567 . S
C368 H429 0.961 . S
C368 H430 0.960 . S
C368 H431 0.958 . S
C369 C366 1.530 . S
C369 H432 0.961 . S
C369 H433 0.960 . S
C369 H434 0.960 . S
C370 C371 1.530 . S
C370 H436 0.961 . S
C370 H437 0.961 . S
C370 H438 0.959 . S
C371 C370 1.530 . S
C371 O399 1.412 . S
C371 H435 0.980 . S
C372 C373 1.288 . S
C372 C377 1.377 . S
C372 O399 1.393 . S
C373 C372 1.288 . S
C373 C374 1.369 . S
C373 H439 0.932 . S
C374 C373 1.369 . S
C374 C375 1.398 . S
C374 C378 1.527 . S
C375 C374 1.398 . S
C375 C376 1.380 . S
C375 C389 1.497 . S
C376 C375 1.380 . S
C376 C377 1.383 . S
C376 C379 1.603 . S
C377 C372 1.377 . S
C377 C376 1.383 . S
C377 H440 0.929 . S
C378 C374 1.527 . S
C378 H441 0.961 . S
C378 H442 0.959 . S
C378 H443 0.959 . S
C379 C376 1.603 . S
C379 H444 0.960 . S
C379 H445 0.962 . S
C379 H446 0.961 . S
C380 C347 1.587 . S
C380 C381 1.360 . S
C380 C393 1.412 . S
C381 C380 1.360 . S
C381 C382 1.365 . S
C381 H447 0.929 . S
C382 C357 1.553 . S
C382 C381 1.365 . S
C382 C383 1.404 . S
C383 C382 1.404 . S
C383 C384 1.395 1_455 S
C383 C394 1.451 . S
C384 C383 1.395 1_655 S
C384 C385 1.322 . S
C384 H448 0.930 . S
C385 C384 1.322 . S
C385 C386 1.459 . S
C385 H449 0.929 . S
C386 C385 1.459 . S
C386 C387 1.445 . S
C386 C395 1.395 1_655 S
C387 C365 1.432 . S
C387 C386 1.445 . S
C387 C388 1.369 1_655 S
C388 C387 1.369 1_455 S
C388 C389 1.439 . S
C388 H450 0.930 1_455 S
C389 C375 1.497 . S
C389 C388 1.439 . S
C389 C390 1.360 . S
C390 C389 1.360 . S
C390 C391 1.401 . S
C390 C395 1.446 . S
C391 C390 1.401 . S
C391 C392 1.347 . S
C391 H451 0.929 . S
C392 C391 1.347 . S
C392 C393 1.455 . S
C392 H452 0.930 . S
C393 C380 1.412 . S
C393 C392 1.455 . S
C393 C394 1.331 . S
C394 C383 1.451 . S
C394 C393 1.331 . S
C394 C395 1.497 . S
C395 C386 1.395 1_455 S
C395 C390 1.446 . S
C395 C394 1.497 . S
C396 C397 1.582 . S
C396 H453 0.962 . S
C396 H454 0.959 . S
C396 H455 0.958 . S
C397 C396 1.582 . S
C397 O400 1.458 . S
C397 H426 0.980 . S
O398 C343 1.426 . S
O398 C344 1.334 . S
O399 C371 1.412 . S
O399 C372 1.393 . S
O400 C362 1.435 . S
O400 C397 1.458 . S
O401 C353 1.468 . S
O401 C354 1.408 . S
H402 C343 0.980 . S
H403 C342 0.959 . S
H404 C342 0.959 . S
H405 C342 0.960 . S
H406 C345 0.929 . S
H407 C349 0.929 . S
H408 C350 0.959 . S
H409 C350 0.961 . S
H410 C350 0.961 . S
H411 C351 0.960 . S
H412 C351 0.960 . S
H413 C351 0.961 . S
H414 C353 0.980 . S
H415 C352 0.961 . S
H416 C352 0.960 . S
H417 C352 0.959 . S
H418 C355 0.930 . S
H419 C359 0.931 . S
H420 C360 0.959 . S
H421 C360 0.961 . S
H422 C360 0.959 1_655 S
H423 C361 0.960 . S
H424 C361 0.960 . S
H425 C361 0.960 . S
H426 C397 0.980 . S
H427 C363 0.930 . S
H428 C367 0.930 . S
H429 C368 0.961 . S
H430 C368 0.960 . S
H431 C368 0.958 . S
H432 C369 0.961 . S
H433 C369 0.960 . S
H434 C369 0.960 . S
H435 C371 0.980 . S
H436 C370 0.961 . S
H437 C370 0.961 . S
H438 C370 0.959 . S
H439 C373 0.932 . S
H440 C377 0.929 . S
H441 C378 0.961 . S
H442 C378 0.959 . S
H443 C378 0.959 . S
H444 C379 0.960 . S
H445 C379 0.962 . S
H446 C379 0.961 . S
H447 C381 0.929 . S
H448 C384 0.930 . S
H449 C385 0.929 . S
H450 C388 0.930 1_655 S
H451 C391 0.929 . S
H452 C392 0.930 . S
H453 C396 0.962 . S
H454 C396 0.959 . S
H455 C396 0.958 . S
C456 C457 1.560 . S
C456 H517 0.959 . S
C456 H518 0.959 . S
C456 H519 0.960 . S
C457 C456 1.560 . S
C457 O512 1.426 . S
C457 H516 0.980 . S
C458 C459 1.407 . S
C458 C463 1.418 . S
C458 O512 1.334 . S
C459 C458 1.407 . S
C459 C460 1.360 . S
C459 H520 0.929 . S
C460 C459 1.360 . S
C460 C461 1.401 . S
C460 C464 1.527 . S
C461 C460 1.401 . S
C461 C462 1.405 . S
C461 C494 1.587 . S
C462 C461 1.405 . S
C462 C463 1.332 . S
C462 C465 1.496 . S
C463 C458 1.418 . S
C463 C462 1.332 . S
C463 H521 0.929 . S
C464 C460 1.527 . S
C464 H522 0.959 . S
C464 H523 0.961 . S
C464 H524 0.961 . S
C465 C462 1.496 . S
C465 H525 0.960 . S
C465 H526 0.960 . S
C465 H527 0.961 . S
C466 C467 1.517 . S
C466 H529 0.961 . S
C466 H530 0.960 . S
C466 H531 0.959 . S
C467 C466 1.517 . S
C467 O515 1.468 . S
C467 H528 0.980 . S
C468 C469 1.349 . S
C468 C473 1.367 . S
C468 O515 1.408 . S
C469 C468 1.349 . S
C469 C470 1.407 . S
C469 H532 0.930 . S
C470 C469 1.407 . S
C470 C471 1.449 . S
C470 C474 1.535 . S
C471 C470 1.449 . S
C471 C472 1.384 . S
C471 C496 1.553 . S
C472 C471 1.384 . S
C472 C473 1.364 . S
C472 C475 1.450 . S
C473 C468 1.367 . S
C473 C472 1.364 . S
C473 H533 0.931 . S
C474 C470 1.535 . S
C474 H534 0.959 . S
C474 H535 0.961 . S
C474 H536 0.959 . S
C475 C472 1.450 . S
C475 H537 0.960 . S
C475 H538 0.960 . S
C475 H539 0.960 . S
C476 C477 1.309 . S
C476 C481 1.304 . S
C476 O514 1.435 . S
C477 C476 1.309 . S
C477 C478 1.476 . S
C477 H541 0.930 . S
C478 C477 1.476 . S
C478 C479 1.400 . S
C478 C482 1.567 . S
C479 C478 1.400 . S
C479 C480 1.373 . S
C479 C501 1.432 . S
C480 C479 1.373 . S
C480 C481 1.339 . S
C480 C483 1.530 . S
C481 C476 1.304 . S
C481 C480 1.339 . S
C481 H542 0.930 . S
C482 C478 1.567 . S
C482 H543 0.961 . S
C482 H544 0.960 . S
C482 H545 0.958 . S
C483 C480 1.530 . S
C483 H546 0.961 . S
C483 H547 0.960 . S
C483 H548 0.960 . S
C484 C485 1.530 . S
C484 H550 0.961 . S
C484 H551 0.961 . S
C484 H552 0.959 . S
C485 C484 1.530 . S
C485 O513 1.412 . S
C485 H549 0.980 . S
C486 C487 1.288 . S
C486 C491 1.377 . S
C486 O513 1.393 . S
C487 C486 1.288 . S
C487 C488 1.369 1_565 S
C487 H553 0.932 . S
C488 C487 1.369 1_545 S
C488 C489 1.398 . S
C488 C492 1.527 . S
C489 C488 1.398 . S
C489 C490 1.380 1_545 S
C489 C503 1.497 . S
C490 C489 1.380 1_565 S
C490 C491 1.383 . S
C490 C493 1.603 . S
C491 C486 1.377 . S
C491 C490 1.383 . S
C491 H554 0.929 . S
C492 C488 1.527 . S
C492 H555 0.961 . S
C492 H556 0.959 . S
C492 H557 0.959 . S
C493 C490 1.603 . S
C493 H558 0.960 . S
C493 H559 0.962 1_565 S
C493 H560 0.961 . S
C494 C461 1.587 . S
C494 C495 1.360 . S
C494 C507 1.412 . S
C495 C494 1.360 . S
C495 C496 1.365 1_565 S
C495 H561 0.929 . S
C496 C471 1.553 . S
C496 C495 1.365 1_545 S
C496 C497 1.404 . S
C497 C496 1.404 . S
C497 C498 1.395 . S
C497 C508 1.451 . S
C498 C497 1.395 . S
C498 C499 1.322 . S
C498 H562 0.930 . S
C499 C498 1.322 . S
C499 C500 1.459 . S
C499 H563 0.929 . S
C500 C499 1.459 . S
C500 C501 1.445 1_556 S
C500 C509 1.395 . S
C501 C479 1.432 . S
C501 C500 1.445 1_554 S
C501 C502 1.370 . S
C502 C501 1.370 . S
C502 C503 1.438 . S
C502 H564 0.930 . S
C503 C489 1.497 . S
C503 C502 1.438 . S
C503 C504 1.360 . S
C504 C503 1.360 . S
C504 C505 1.401 1_545 S
C504 C509 1.446 1_554 S
C505 C504 1.401 1_565 S
C505 C506 1.347 1_554 S
C505 H565 0.929 . S
C506 C505 1.347 1_556 S
C506 C507 1.455 . S
C506 H566 0.930 . S
C507 C494 1.412 . S
C507 C506 1.455 . S
C507 C508 1.331 1_565 S
C508 C497 1.451 . S
C508 C507 1.331 1_545 S
C508 C509 1.497 . S
C509 C500 1.395 . S
C509 C504 1.446 1_556 S
C509 C508 1.497 . S
C510 C511 1.582 . S
C510 H567 0.962 . S
C510 H568 0.959 . S
C510 H569 0.958 . S
C511 C510 1.582 . S
C511 O514 1.458 . S
C511 H540 0.980 . S
O512 C457 1.426 . S
O512 C458 1.334 . S
O513 C485 1.412 . S
O513 C486 1.393 . S
O514 C476 1.435 . S
O514 C511 1.458 . S
O515 C467 1.468 . S
O515 C468 1.408 . S
H516 C457 0.980 . S
H517 C456 0.959 . S
H518 C456 0.959 . S
H519 C456 0.960 . S
H520 C459 0.929 . S
H521 C463 0.929 . S
H522 C464 0.959 . S
H523 C464 0.961 . S
H524 C464 0.961 . S
H525 C465 0.960 . S
H526 C465 0.960 . S
H527 C465 0.961 . S
H528 C467 0.980 . S
H529 C466 0.961 . S
H530 C466 0.960 . S
H531 C466 0.959 . S
H532 C469 0.930 . S
H533 C473 0.931 . S
H534 C474 0.959 . S
H535 C474 0.961 . S
H536 C474 0.959 . S
H537 C475 0.960 . S
H538 C475 0.960 . S
H539 C475 0.960 . S
H540 C511 0.980 . S
H541 C477 0.930 . S
H542 C481 0.930 . S
H543 C482 0.961 . S
H544 C482 0.960 . S
H545 C482 0.958 . S
H546 C483 0.961 . S
H547 C483 0.960 . S
H548 C483 0.960 . S
H549 C485 0.980 . S
H550 C484 0.961 . S
H551 C484 0.961 . S
H552 C484 0.959 . S
H553 C487 0.932 . S
H554 C491 0.929 . S
H555 C492 0.961 . S
H556 C492 0.959 . S
H557 C492 0.959 . S
H558 C493 0.960 . S
H559 C493 0.962 1_545 S
H560 C493 0.961 . S
H561 C495 0.929 . S
H562 C498 0.930 . S
H563 C499 0.929 . S
H564 C502 0.930 . S
H565 C505 0.929 . S
H566 C506 0.930 . S
H567 C510 0.962 . S
H568 C510 0.959 . S
H569 C510 0.958 . S
C570 C571 1.560 . S
C570 H631 0.959 . S
C570 H632 0.959 . S
C570 H633 0.960 . S
C571 C570 1.560 . S
C571 O626 1.426 . S
C571 H630 0.980 . S
C572 C573 1.407 . S
C572 C577 1.418 . S
C572 O626 1.334 . S
C573 C572 1.407 . S
C573 C574 1.360 . S
C573 H634 0.929 . S
C574 C573 1.360 . S
C574 C575 1.401 . S
C574 C578 1.527 . S
C575 C574 1.401 . S
C575 C576 1.405 . S
C575 C608 1.587 . S
C576 C575 1.405 . S
C576 C577 1.332 . S
C576 C579 1.496 . S
C577 C572 1.418 . S
C577 C576 1.332 . S
C577 H635 0.929 . S
C578 C574 1.527 . S
C578 H636 0.959 . S
C578 H637 0.961 . S
C578 H638 0.961 . S
C579 C576 1.496 . S
C579 H639 0.960 . S
C579 H640 0.960 . S
C579 H641 0.961 . S
C580 C581 1.517 . S
C580 H643 0.961 . S
C580 H644 0.960 . S
C580 H645 0.959 . S
C581 C580 1.517 . S
C581 O629 1.468 . S
C581 H642 0.980 . S
C582 C583 1.349 . S
C582 C587 1.367 . S
C582 O629 1.408 . S
C583 C582 1.349 . S
C583 C584 1.407 . S
C583 H646 0.930 . S
C584 C583 1.407 . S
C584 C585 1.449 . S
C584 C588 1.535 . S
C585 C584 1.449 . S
C585 C586 1.384 . S
C585 C610 1.553 . S
C586 C585 1.384 . S
C586 C587 1.364 . S
C586 C589 1.450 . S
C587 C582 1.367 . S
C587 C586 1.364 . S
C587 H647 0.931 . S
C588 C584 1.535 . S
C588 H648 0.959 . S
C588 H649 0.961 . S
C588 H650 0.959 . S
C589 C586 1.450 . S
C589 H651 0.960 . S
C589 H652 0.960 . S
C589 H653 0.960 . S
C590 C591 1.309 . S
C590 C595 1.304 . S
C590 O628 1.435 . S
C591 C590 1.309 . S
C591 C592 1.476 . S
C591 H655 0.930 . S
C592 C591 1.476 . S
C592 C593 1.400 . S
C592 C596 1.567 . S
C593 C592 1.400 . S
C593 C594 1.373 . S
C593 C615 1.432 . S
C594 C593 1.373 . S
C594 C595 1.339 . S
C594 C597 1.530 . S
C595 C590 1.304 . S
C595 C594 1.339 . S
C595 H656 0.930 . S
C596 C592 1.567 . S
C596 H657 0.961 . S
C596 H658 0.960 . S
C596 H659 0.958 . S
C597 C594 1.530 . S
C597 H660 0.961 . S
C597 H661 0.960 . S
C597 H662 0.960 . S
C598 C599 1.530 . S
C598 H664 0.961 . S
C598 H665 0.961 . S
C598 H666 0.959 . S
C599 C598 1.530 . S
C599 O627 1.412 . S
C599 H663 0.980 . S
C600 C601 1.288 . S
C600 C605 1.377 . S
C600 O627 1.393 . S
C601 C600 1.288 . S
C601 C602 1.369 . S
C601 H667 0.932 . S
C602 C601 1.369 . S
C602 C603 1.398 . S
C602 C606 1.527 . S
C603 C602 1.398 . S
C603 C604 1.380 . S
C603 C617 1.497 . S
C604 C603 1.380 . S
C604 C605 1.383 . S
C604 C607 1.603 . S
C605 C600 1.377 . S
C605 C604 1.383 . S
C605 H668 0.929 . S
C606 C602 1.527 . S
C606 H669 0.961 . S
C606 H670 0.959 . S
C606 H671 0.959 . S
C607 C604 1.603 . S
C607 H672 0.960 . S
C607 H673 0.962 . S
C607 H674 0.961 . S
C608 C575 1.587 . S
C608 C609 1.360 . S
C608 C621 1.412 . S
C609 C608 1.360 . S
C609 C610 1.365 . S
C609 H675 0.929 . S
C610 C585 1.553 . S
C610 C609 1.365 . S
C610 C611 1.404 . S
C611 C610 1.404 . S
C611 C612 1.395 . S
C611 C622 1.451 . S
C612 C611 1.395 . S
C612 C613 1.322 . S
C612 H676 0.930 . S
C613 C612 1.322 . S
C613 C614 1.459 . S
C613 H677 0.929 . S
C614 C613 1.459 . S
C614 C615 1.445 . S
C614 C623 1.395 . S
C615 C593 1.432 . S
C615 C614 1.445 . S
C615 C616 1.370 . S
C616 C615 1.370 . S
C616 C617 1.438 . S
C616 H678 0.930 . S
C617 C603 1.497 . S
C617 C616 1.438 . S
C617 C618 1.360 . S
C618 C617 1.360 . S
C618 C619 1.401 . S
C618 C623 1.446 . S
C619 C618 1.401 . S
C619 C620 1.347 . S
C619 H679 0.929 . S
C620 C619 1.347 . S
C620 C621 1.455 . S
C620 H680 0.930 . S
C621 C608 1.412 . S
C621 C620 1.455 . S
C621 C622 1.331 . S
C622 C611 1.451 . S
C622 C621 1.331 . S
C622 C623 1.497 . S
C623 C614 1.395 . S
C623 C618 1.446 . S
C623 C622 1.497 . S
C624 C625 1.582 . S
C624 H681 0.962 . S
C624 H682 0.959 . S
C624 H683 0.958 . S
C625 C624 1.582 . S
C625 O628 1.458 . S
C625 H654 0.980 . S
O626 C571 1.426 . S
O626 C572 1.334 . S
O627 C599 1.412 . S
O627 C600 1.393 . S
O628 C590 1.435 . S
O628 C625 1.458 . S
O629 C581 1.468 . S
O629 C582 1.408 . S
H630 C571 0.980 . S
H631 C570 0.959 . S
H632 C570 0.959 . S
H633 C570 0.960 . S
H634 C573 0.929 . S
H635 C577 0.929 . S
H636 C578 0.959 . S
H637 C578 0.961 . S
H638 C578 0.961 . S
H639 C579 0.960 . S
H640 C579 0.960 . S
H641 C579 0.961 . S
H642 C581 0.980 . S
H643 C580 0.961 . S
H644 C580 0.960 . S
H645 C580 0.959 . S
H646 C583 0.930 . S
H647 C587 0.931 . S
H648 C588 0.959 . S
H649 C588 0.961 . S
H650 C588 0.959 . S
H651 C589 0.960 . S
H652 C589 0.960 . S
H653 C589 0.960 . S
H654 C625 0.980 . S
H655 C591 0.930 . S
H656 C595 0.930 . S
H657 C596 0.961 . S
H658 C596 0.960 . S
H659 C596 0.958 . S
H660 C597 0.961 . S
H661 C597 0.960 . S
H662 C597 0.960 . S
H663 C599 0.980 . S
H664 C598 0.961 . S
H665 C598 0.961 . S
H666 C598 0.959 . S
H667 C601 0.932 . S
H668 C605 0.929 . S
H669 C606 0.961 . S
H670 C606 0.959 . S
H671 C606 0.959 . S
H672 C607 0.960 . S
H673 C607 0.962 . S
H674 C607 0.961 . S
H675 C609 0.929 . S
H676 C612 0.930 . S
H677 C613 0.929 . S
H678 C616 0.930 . S
H679 C619 0.929 . S
H680 C620 0.930 . S
H681 C624 0.962 . S
H682 C624 0.959 . S
H683 C624 0.958 . S
In684 O685 2.294 . S
In684 O686 2.326 . S
In684 O690 2.266 . S
In684 O691 2.326 . S
In684 O692 2.266 . S
In684 O693 2.326 . S
In684 O695 2.294 . S
In684 O696 2.326 . S
O685 In684 2.294 . S
O685 C694 1.240 . S
O686 In684 2.326 . S
O686 C694 1.252 . S
C687 O690 1.252 . S
C687 O691 1.260 . S
C688 O695 1.240 . S
C688 O696 1.252 . S
C689 O692 1.252 . S
C689 O693 1.260 . S
O690 In684 2.266 . S
O690 C687 1.252 . S
O691 In684 2.326 . S
O691 C687 1.260 . S
O692 In684 2.266 . S
O692 C689 1.252 . S
O693 In684 2.326 . S
O693 C689 1.260 . S
C694 O685 1.240 . S
C694 O686 1.252 . S
O695 In684 2.294 . S
O695 C688 1.240 . S
O696 In684 2.326 . S
O696 C688 1.252 . S
In697 O698 2.294 . S
In697 O699 2.326 . S
In697 O703 2.266 . S
In697 O704 2.326 . S
In697 O705 2.266 . S
In697 O706 2.326 . S
In697 O708 2.294 . S
In697 O709 2.326 . S
O698 In697 2.294 . S
O698 C707 1.240 . S
O699 In697 2.326 . S
O699 C707 1.252 . S
C700 O703 1.252 . S
C700 O704 1.260 . S
C701 O708 1.240 . S
C701 O709 1.252 . S
C702 O705 1.252 . S
C702 O706 1.260 . S
O703 In697 2.266 . S
O703 C700 1.252 . S
O704 In697 2.326 . S
O704 C700 1.260 . S
O705 In697 2.266 . S
O705 C702 1.252 . S
O706 In697 2.326 . S
O706 C702 1.260 . S
C707 O698 1.240 . S
C707 O699 1.252 . S
O708 In697 2.294 . S
O708 C701 1.240 . S
O709 In697 2.326 . S
O709 C701 1.252 . S
In710 O711 2.294 . S
In710 O712 2.326 . S
In710 O716 2.266 . S
In710 O717 2.326 . S
In710 O718 2.266 . S
In710 O719 2.326 . S
In710 O721 2.294 . S
In710 O722 2.326 . S
O711 In710 2.294 . S
O711 C720 1.240 . S
O712 In710 2.326 . S
O712 C720 1.252 . S
C713 O716 1.252 . S
C713 O717 1.260 . S
C714 O721 1.240 . S
C714 O722 1.252 . S
C715 O718 1.252 . S
C715 O719 1.260 . S
O716 In710 2.266 . S
O716 C713 1.252 . S
O717 In710 2.326 . S
O717 C713 1.260 . S
O718 In710 2.266 . S
O718 C715 1.252 . S
O719 In710 2.326 . S
O719 C715 1.260 . S
C720 O711 1.240 . S
C720 O712 1.252 . S
O721 In710 2.294 . S
O721 C714 1.240 . S
O722 In710 2.326 . S
O722 C714 1.252 . S
In723 O724 2.294 . S
In723 O725 2.326 . S
In723 O729 2.266 . S
In723 O730 2.326 . S
In723 O731 2.266 . S
In723 O732 2.326 . S
In723 O734 2.294 . S
In723 O735 2.326 . S
O724 In723 2.294 . S
O724 C733 1.240 . S
O725 In723 2.326 . S
O725 C733 1.252 . S
C726 O729 1.252 . S
C726 O730 1.260 . S
C727 O734 1.240 . S
C727 O735 1.252 . S
C728 O731 1.252 . S
C728 O732 1.260 . S
O729 In723 2.266 . S
O729 C726 1.252 . S
O730 In723 2.326 . S
O730 C726 1.260 . S
O731 In723 2.266 . S
O731 C728 1.252 . S
O732 In723 2.326 . S
O732 C728 1.260 . S
C733 O724 1.240 . S
C733 O725 1.252 . S
O734 In723 2.294 . S
O734 C727 1.240 . S
O735 In723 2.326 . S
O735 C727 1.252 . S
In736 O737 2.294 . S
In736 O738 2.326 . S
In736 O742 2.266 . S
In736 O743 2.326 . S
In736 O744 2.266 . S
In736 O745 2.326 . S
In736 O747 2.294 . S
In736 O748 2.326 . S
O737 In736 2.294 . S
O737 C746 1.240 . S
O738 In736 2.326 . S
O738 C746 1.252 . S
C739 O742 1.252 . S
C739 O743 1.260 . S
C740 O747 1.240 . S
C740 O748 1.252 . S
C741 O744 1.252 . S
C741 O745 1.260 . S
O742 In736 2.266 . S
O742 C739 1.252 . S
O743 In736 2.326 . S
O743 C739 1.260 . S
O744 In736 2.266 . S
O744 C741 1.252 . S
O745 In736 2.326 . S
O745 C741 1.260 . S
C746 O737 1.240 . S
C746 O738 1.252 . S
O747 In736 2.294 . S
O747 C740 1.240 . S
O748 In736 2.326 . S
O748 C740 1.252 . S
In749 O750 2.294 . S
In749 O751 2.326 . S
In749 O755 2.266 . S
In749 O756 2.326 . S
In749 O757 2.266 . S
In749 O758 2.326 . S
In749 O760 2.294 . S
In749 O761 2.326 . S
O750 In749 2.294 . S
O750 C759 1.240 . S
O751 In749 2.326 . S
O751 C759 1.252 . S
C752 O755 1.252 . S
C752 O756 1.260 . S
C753 O760 1.240 . S
C753 O761 1.252 . S
C754 O757 1.252 . S
C754 O758 1.260 . S
O755 In749 2.266 . S
O755 C752 1.252 . S
O756 In749 2.326 . S
O756 C752 1.260 . S
O757 In749 2.266 . S
O757 C754 1.252 . S
O758 In749 2.326 . S
O758 C754 1.260 . S
C759 O750 1.240 . S
C759 O751 1.252 . S
O760 In749 2.294 . S
O760 C753 1.240 . S
O761 In749 2.326 . S
O761 C753 1.252 . S
H762 C780 0.951 . S
H763 C782 0.951 . S
H764 C784 0.950 . S
H765 C785 0.950 . S
H766 C787 0.950 . S
H767 C790 0.950 . S
H768 C791 0.950 . S
H769 C793 0.950 . S
H770 C794 0.950 . S
H771 C795 0.951 . S
H772 C797 0.951 . S
H773 C799 0.950 . S
H774 C800 0.950 . S
H775 C802 0.950 . S
H776 C805 0.950 . S
H777 C806 0.950 . S
H778 C808 0.950 . S
H779 C809 0.950 . S
C780 H762 0.951 . S
C780 C781 1.366 . S
C780 C782 1.388 . S
C781 C780 1.366 . S
C781 C785 1.385 . S
C782 H763 0.951 . S
C782 C780 1.388 . S
C782 C783 1.366 . S
C783 C782 1.366 . S
C783 C784 1.414 . S
C783 C786 1.499 . S
C784 H764 0.950 . S
C784 C783 1.414 . S
C784 C785 1.374 . S
C785 H765 0.950 . S
C785 C781 1.385 . S
C785 C784 1.374 . S
C786 C783 1.499 . S
C786 C787 1.373 . S
C786 C788 1.389 . S
C787 H766 0.950 . S
C787 C786 1.373 . S
C787 C803 1.377 . S
C788 C786 1.389 . S
C788 C789 1.524 . S
C788 C802 1.377 . S
C789 C788 1.524 . S
C789 C790 1.397 . S
C789 C794 1.363 . S
C790 H767 0.950 . S
C790 C789 1.397 . S
C790 C791 1.334 . S
C791 H768 0.950 . S
C791 C790 1.334 . S
C791 C792 1.287 . S
C792 C791 1.287 . S
C792 C793 1.524 . S
C792 H811 0.913 . S
C793 H769 0.950 . S
C793 C792 1.524 . S
C793 C794 1.415 . S
C794 H770 0.950 . S
C794 C789 1.363 . S
C794 C793 1.415 . S
C795 H771 0.951 . S
C795 C796 1.366 . S
C795 C797 1.388 . S
C796 C795 1.366 . S
C796 C800 1.385 . S
C797 H772 0.951 . S
C797 C795 1.388 . S
C797 C798 1.366 . S
C798 C797 1.366 . S
C798 C799 1.414 . S
C798 C801 1.499 . S
C799 H773 0.950 . S
C799 C798 1.414 . S
C799 C800 1.374 . S
C800 H774 0.950 . S
C800 C796 1.385 . S
C800 C799 1.374 . S
C801 C798 1.499 . S
C801 C802 1.373 . S
C801 C803 1.389 . S
C802 H775 0.950 . S
C802 C788 1.377 . S
C802 C801 1.373 . S
C803 C787 1.377 . S
C803 C801 1.389 . S
C803 C804 1.524 . S
C804 C803 1.524 . S
C804 C805 1.397 . S
C804 C809 1.363 . S
C805 H776 0.950 . S
C805 C804 1.397 . S
C805 C806 1.334 . S
C806 H777 0.950 . S
C806 C805 1.334 . S
C806 C807 1.287 . S
C807 C806 1.287 . S
C807 C808 1.524 . S
C807 H810 0.999 . S
C808 H778 0.950 . S
C808 C807 1.524 . S
C808 C809 1.415 . S
C809 H779 0.950 . S
C809 C804 1.363 . S
C809 C808 1.415 . S
H810 C807 0.999 . S
H811 C792 0.913 . S
H812 C830 0.951 . S
H813 C832 0.951 . S
H814 C834 0.950 . S
H815 C835 0.950 . S
H816 C837 0.950 . S
H817 C840 0.950 . S
H818 C841 0.950 . S
H819 C843 0.950 . S
H820 C844 0.950 . S
H821 C845 0.951 . S
H822 C847 0.951 . S
H823 C849 0.950 . S
H824 C850 0.950 . S
H825 C852 0.950 . S
H826 C855 0.950 . S
H827 C856 0.950 . S
H828 C858 0.950 . S
H829 C859 0.950 . S
C830 H812 0.951 . S
C830 C831 1.366 . S
C830 C832 1.388 . S
C831 C830 1.366 . S
C831 C835 1.385 . S
C832 H813 0.951 . S
C832 C830 1.388 . S
C832 C833 1.366 . S
C833 C832 1.366 . S
C833 C834 1.414 . S
C833 C836 1.499 . S
C834 H814 0.950 . S
C834 C833 1.414 . S
C834 C835 1.374 . S
C835 H815 0.950 . S
C835 C831 1.385 . S
C835 C834 1.374 . S
C836 C833 1.499 . S
C836 C837 1.373 . S
C836 C838 1.389 . S
C837 H816 0.950 . S
C837 C836 1.373 . S
C837 C853 1.377 . S
C838 C836 1.389 . S
C838 C839 1.524 . S
C838 C852 1.377 . S
C839 C838 1.524 . S
C839 C840 1.397 . S
C839 C844 1.363 . S
C840 H817 0.950 . S
C840 C839 1.397 . S
C840 C841 1.334 . S
C841 H818 0.950 . S
C841 C840 1.334 . S
C841 C842 1.287 . S
C842 C841 1.287 . S
C842 C843 1.524 . S
C842 H861 0.913 . S
C843 H819 0.950 . S
C843 C842 1.524 . S
C843 C844 1.415 . S
C844 H820 0.950 . S
C844 C839 1.363 . S
C844 C843 1.415 . S
C845 H821 0.951 . S
C845 C846 1.366 . S
C845 C847 1.388 . S
C846 C845 1.366 . S
C846 C850 1.385 . S
C847 H822 0.951 . S
C847 C845 1.388 . S
C847 C848 1.366 . S
C848 C847 1.366 . S
C848 C849 1.414 . S
C848 C851 1.499 . S
C849 H823 0.950 . S
C849 C848 1.414 . S
C849 C850 1.374 . S
C850 H824 0.950 . S
C850 C846 1.385 . S
C850 C849 1.374 . S
C851 C848 1.499 . S
C851 C852 1.373 . S
C851 C853 1.389 . S
C852 H825 0.950 . S
C852 C838 1.377 . S
C852 C851 1.373 . S
C853 C837 1.377 . S
C853 C851 1.389 . S
C853 C854 1.524 . S
C854 C853 1.524 . S
C854 C855 1.397 . S
C854 C859 1.363 . S
C855 H826 0.950 . S
C855 C854 1.397 . S
C855 C856 1.334 . S
C856 H827 0.950 . S
C856 C855 1.334 . S
C856 C857 1.287 . S
C857 C856 1.287 . S
C857 C858 1.524 . S
C857 H860 0.999 . S
C858 H828 0.950 . S
C858 C857 1.524 . S
C858 C859 1.415 . S
C859 H829 0.950 . S
C859 C854 1.363 . S
C859 C858 1.415 . S
H860 C857 0.999 . S
H861 C842 0.913 . S
H862 C880 0.951 . S
H863 C882 0.951 . S
H864 C884 0.950 . S
H865 C885 0.950 . S
H866 C887 0.950 . S
H867 C890 0.950 . S
H868 C891 0.950 . S
H869 C893 0.950 . S
H870 C894 0.950 . S
H871 C895 0.951 . S
H872 C897 0.951 . S
H873 C899 0.950 . S
H874 C900 0.950 . S
H875 C902 0.950 . S
H876 C905 0.950 . S
H877 C906 0.950 . S
H878 C908 0.950 . S
H879 C909 0.950 . S
C880 H862 0.951 . S
C880 C881 1.366 . S
C880 C882 1.388 . S
C881 C880 1.366 . S
C881 C885 1.385 . S
C882 H863 0.951 . S
C882 C880 1.388 . S
C882 C883 1.366 . S
C883 C882 1.366 . S
C883 C884 1.414 . S
C883 C886 1.499 . S
C884 H864 0.950 . S
C884 C883 1.414 . S
C884 C885 1.374 . S
C885 H865 0.950 . S
C885 C881 1.385 . S
C885 C884 1.374 . S
C886 C883 1.499 . S
C886 C887 1.373 . S
C886 C888 1.389 . S
C887 H866 0.950 . S
C887 C886 1.373 . S
C887 C903 1.377 . S
C888 C886 1.389 . S
C888 C889 1.524 . S
C888 C902 1.377 . S
C889 C888 1.524 . S
C889 C890 1.397 . S
C889 C894 1.363 . S
C890 H867 0.950 . S
C890 C889 1.397 . S
C890 C891 1.334 . S
C891 H868 0.950 . S
C891 C890 1.334 . S
C891 C892 1.287 . S
C892 C891 1.287 . S
C892 C893 1.524 . S
C892 H911 0.913 . S
C893 H869 0.950 . S
C893 C892 1.524 . S
C893 C894 1.415 . S
C894 H870 0.950 . S
C894 C889 1.363 . S
C894 C893 1.415 . S
C895 H871 0.951 . S
C895 C896 1.366 . S
C895 C897 1.388 . S
C896 C895 1.366 . S
C896 C900 1.385 . S
C897 H872 0.951 . S
C897 C895 1.388 . S
C897 C898 1.366 . S
C898 C897 1.366 . S
C898 C899 1.414 . S
C898 C901 1.499 . S
C899 H873 0.950 . S
C899 C898 1.414 . S
C899 C900 1.374 . S
C900 H874 0.950 . S
C900 C896 1.385 . S
C900 C899 1.374 . S
C901 C898 1.499 . S
C901 C902 1.373 . S
C901 C903 1.389 . S
C902 H875 0.950 . S
C902 C888 1.377 . S
C902 C901 1.373 . S
C903 C887 1.377 . S
C903 C901 1.389 . S
C903 C904 1.524 . S
C904 C903 1.524 . S
C904 C905 1.397 . S
C904 C909 1.363 . S
C905 H876 0.950 . S
C905 C904 1.397 . S
C905 C906 1.334 . S
C906 H877 0.950 . S
C906 C905 1.334 . S
C906 C907 1.287 . S
C907 C906 1.287 . S
C907 C908 1.524 . S
C907 H910 0.999 . S
C908 H878 0.950 . S
C908 C907 1.524 . S
C908 C909 1.415 . S
C909 H879 0.950 . S
C909 C904 1.363 . S
C909 C908 1.415 . S
H910 C907 0.999 . S
H911 C892 0.913 . S
H912 C930 0.951 . S
H913 C932 0.951 . S
H914 C934 0.950 . S
H915 C935 0.950 . S
H916 C937 0.950 . S
H917 C940 0.950 . S
H918 C941 0.950 . S
H919 C943 0.950 . S
H920 C944 0.950 . S
H921 C945 0.951 . S
H922 C947 0.951 . S
H923 C949 0.950 . S
H924 C950 0.950 . S
H925 C952 0.950 . S
H926 C955 0.950 . S
H927 C956 0.950 . S
H928 C958 0.950 . S
H929 C959 0.950 . S
C930 H912 0.951 . S
C930 C931 1.366 . S
C930 C932 1.388 . S
C931 C930 1.366 . S
C931 C935 1.385 . S
C932 H913 0.951 . S
C932 C930 1.388 . S
C932 C933 1.366 . S
C933 C932 1.366 . S
C933 C934 1.414 . S
C933 C936 1.499 . S
C934 H914 0.950 . S
C934 C933 1.414 . S
C934 C935 1.374 . S
C935 H915 0.950 . S
C935 C931 1.385 . S
C935 C934 1.374 . S
C936 C933 1.499 . S
C936 C937 1.373 . S
C936 C938 1.389 . S
C937 H916 0.950 . S
C937 C936 1.373 . S
C937 C953 1.377 . S
C938 C936 1.389 . S
C938 C939 1.524 . S
C938 C952 1.377 . S
C939 C938 1.524 . S
C939 C940 1.397 . S
C939 C944 1.363 . S
C940 H917 0.950 . S
C940 C939 1.397 . S
C940 C941 1.334 . S
C941 H918 0.950 . S
C941 C940 1.334 . S
C941 C942 1.287 . S
C942 C941 1.287 . S
C942 C943 1.524 . S
C942 H961 0.913 . S
C943 H919 0.950 . S
C943 C942 1.524 . S
C943 C944 1.415 . S
C944 H920 0.950 . S
C944 C939 1.363 . S
C944 C943 1.415 . S
C945 H921 0.951 . S
C945 C946 1.366 . S
C945 C947 1.388 . S
C946 C945 1.366 . S
C946 C950 1.385 . S
C947 H922 0.951 . S
C947 C945 1.388 . S
C947 C948 1.366 . S
C948 C947 1.366 . S
C948 C949 1.414 . S
C948 C951 1.499 . S
C949 H923 0.950 . S
C949 C948 1.414 . S
C949 C950 1.374 . S
C950 H924 0.950 . S
C950 C946 1.385 . S
C950 C949 1.374 . S
C951 C948 1.499 . S
C951 C952 1.373 . S
C951 C953 1.389 . S
C952 H925 0.950 . S
C952 C938 1.377 . S
C952 C951 1.373 . S
C953 C937 1.377 . S
C953 C951 1.389 . S
C953 C954 1.524 . S
C954 C953 1.524 . S
C954 C955 1.397 . S
C954 C959 1.363 . S
C955 H926 0.950 . S
C955 C954 1.397 . S
C955 C956 1.334 . S
C956 H927 0.950 . S
C956 C955 1.334 . S
C956 C957 1.287 . S
C957 C956 1.287 . S
C957 C958 1.524 . S
C957 H960 0.999 . S
C958 H928 0.950 . S
C958 C957 1.524 . S
C958 C959 1.415 . S
C959 H929 0.950 . S
C959 C954 1.363 . S
C959 C958 1.415 . S
H960 C957 0.999 . S
H961 C942 0.913 . S
H962 C980 0.951 . S
H963 C982 0.951 . S
H964 C984 0.950 . S
H965 C985 0.950 . S
H966 C987 0.950 . S
H967 C990 0.950 . S
H968 C991 0.950 . S
H969 C993 0.950 . S
H970 C994 0.950 . S
H971 C995 0.951 . S
H972 C997 0.951 . S
H973 C999 0.950 . S
H974 C1000 0.950 . S
H975 C1002 0.950 . S
H976 C1005 0.950 . S
H977 C1006 0.950 . S
H978 C1008 0.950 . S
H979 C1009 0.950 . S
C980 H962 0.951 . S
C980 C981 1.366 . S
C980 C982 1.388 . S
C981 C980 1.366 . S
C981 C985 1.385 . S
C982 H963 0.951 . S
C982 C980 1.388 . S
C982 C983 1.366 . S
C983 C982 1.366 . S
C983 C984 1.414 . S
C983 C986 1.499 . S
C984 H964 0.950 . S
C984 C983 1.414 . S
C984 C985 1.374 . S
C985 H965 0.950 . S
C985 C981 1.385 . S
C985 C984 1.374 . S
C986 C983 1.499 . S
C986 C987 1.373 . S
C986 C988 1.389 . S
C987 H966 0.950 . S
C987 C986 1.373 . S
C987 C1003 1.377 . S
C988 C986 1.389 . S
C988 C989 1.524 . S
C988 C1002 1.377 . S
C989 C988 1.524 . S
C989 C990 1.397 . S
C989 C994 1.363 . S
C990 H967 0.950 . S
C990 C989 1.397 . S
C990 C991 1.334 . S
C991 H968 0.950 . S
C991 C990 1.334 . S
C991 C992 1.287 . S
C992 C991 1.287 . S
C992 C993 1.524 . S
C992 H1011 0.913 . S
C993 H969 0.950 . S
C993 C992 1.524 . S
C993 C994 1.415 . S
C994 H970 0.950 . S
C994 C989 1.363 . S
C994 C993 1.415 . S
C995 H971 0.951 . S
C995 C996 1.366 . S
C995 C997 1.388 . S
C996 C995 1.366 . S
C996 C1000 1.385 . S
C997 H972 0.951 . S
C997 C995 1.388 . S
C997 C998 1.366 . S
C998 C997 1.366 . S
C998 C999 1.414 . S
C998 C1001 1.499 . S
C999 H973 0.950 . S
C999 C998 1.414 . S
C999 C1000 1.374 . S
C1000 H974 0.950 . S
C1000 C996 1.385 . S
C1000 C999 1.374 . S
C1001 C998 1.499 . S
C1001 C1002 1.373 . S
C1001 C1003 1.389 . S
C1002 H975 0.950 . S
C1002 C988 1.377 . S
C1002 C1001 1.373 . S
C1003 C987 1.377 . S
C1003 C1001 1.389 . S
C1003 C1004 1.524 . S
C1004 C1003 1.524 . S
C1004 C1005 1.397 . S
C1004 C1009 1.363 . S
C1005 H976 0.950 . S
C1005 C1004 1.397 . S
C1005 C1006 1.334 . S
C1006 H977 0.950 . S
C1006 C1005 1.334 . S
C1006 C1007 1.287 . S
C1007 C1006 1.287 . S
C1007 C1008 1.524 . S
C1007 H1010 0.999 . S
C1008 H978 0.950 . S
C1008 C1007 1.524 . S
C1008 C1009 1.415 . S
C1009 H979 0.950 . S
C1009 C1004 1.363 . S
C1009 C1008 1.415 . S
H1010 C1007 0.999 . S
H1011 C992 0.913 . S
H1012 C1030 0.951 . S
H1013 C1032 0.951 . S
H1014 C1034 0.950 . S
H1015 C1035 0.950 . S
H1016 C1037 0.950 . S
H1017 C1040 0.950 . S
H1018 C1041 0.950 . S
H1019 C1043 0.950 . S
H1020 C1044 0.950 . S
H1021 C1045 0.951 . S
H1022 C1047 0.951 . S
H1023 C1049 0.950 . S
H1024 C1050 0.950 . S
H1025 C1052 0.950 . S
H1026 C1055 0.950 . S
H1027 C1056 0.950 . S
H1028 C1058 0.950 . S
H1029 C1059 0.950 . S
C1030 H1012 0.951 . S
C1030 C1031 1.366 . S
C1030 C1032 1.388 . S
C1031 C1030 1.366 . S
C1031 C1035 1.385 . S
C1032 H1013 0.951 . S
C1032 C1030 1.388 . S
C1032 C1033 1.366 . S
C1033 C1032 1.366 . S
C1033 C1034 1.414 . S
C1033 C1036 1.499 . S
C1034 H1014 0.950 . S
C1034 C1033 1.414 . S
C1034 C1035 1.374 . S
C1035 H1015 0.950 . S
C1035 C1031 1.385 . S
C1035 C1034 1.374 . S
C1036 C1033 1.499 . S
C1036 C1037 1.373 . S
C1036 C1038 1.389 . S
C1037 H1016 0.950 . S
C1037 C1036 1.373 . S
C1037 C1053 1.377 . S
C1038 C1036 1.389 . S
C1038 C1039 1.524 . S
C1038 C1052 1.377 . S
C1039 C1038 1.524 . S
C1039 C1040 1.397 . S
C1039 C1044 1.363 . S
C1040 H1017 0.950 . S
C1040 C1039 1.397 . S
C1040 C1041 1.334 . S
C1041 H1018 0.950 . S
C1041 C1040 1.334 . S
C1041 C1042 1.287 . S
C1042 C1041 1.287 . S
C1042 C1043 1.524 . S
C1042 H1061 0.913 . S
C1043 H1019 0.950 . S
C1043 C1042 1.524 . S
C1043 C1044 1.415 . S
C1044 H1020 0.950 . S
C1044 C1039 1.363 . S
C1044 C1043 1.415 . S
C1045 H1021 0.951 . S
C1045 C1046 1.366 . S
C1045 C1047 1.388 . S
C1046 C1045 1.366 . S
C1046 C1050 1.385 . S
C1047 H1022 0.951 . S
C1047 C1045 1.388 . S
C1047 C1048 1.366 . S
C1048 C1047 1.366 . S
C1048 C1049 1.414 . S
C1048 C1051 1.499 . S
C1049 H1023 0.950 . S
C1049 C1048 1.414 . S
C1049 C1050 1.374 . S
C1050 H1024 0.950 . S
C1050 C1046 1.385 . S
C1050 C1049 1.374 . S
C1051 C1048 1.499 . S
C1051 C1052 1.373 . S
C1051 C1053 1.389 . S
C1052 H1025 0.950 . S
C1052 C1038 1.377 . S
C1052 C1051 1.373 . S
C1053 C1037 1.377 . S
C1053 C1051 1.389 . S
C1053 C1054 1.524 . S
C1054 C1053 1.524 . S
C1054 C1055 1.397 . S
C1054 C1059 1.363 . S
C1055 H1026 0.950 . S
C1055 C1054 1.397 . S
C1055 C1056 1.334 . S
C1056 H1027 0.950 . S
C1056 C1055 1.334 . S
C1056 C1057 1.287 . S
C1057 C1056 1.287 . S
C1057 C1058 1.524 . S
C1057 H1060 0.999 . S
C1058 H1028 0.950 . S
C1058 C1057 1.524 . S
C1058 C1059 1.415 . S
C1059 H1029 0.950 . S
C1059 C1054 1.363 . S
C1059 C1058 1.415 . S
H1060 C1057 0.999 . S
H1061 C1042 0.913 . S
H1062 C1080 0.951 . S
H1063 C1082 0.951 . S
H1064 C1084 0.950 . S
H1065 C1085 0.950 . S
H1066 C1087 0.950 . S
H1067 C1090 0.950 . S
H1068 C1091 0.950 . S
H1069 C1093 0.950 . S
H1070 C1094 0.950 . S
H1071 C1095 0.951 . S
H1072 C1097 0.951 . S
H1073 C1099 0.950 . S
H1074 C1100 0.950 . S
H1075 C1102 0.950 . S
H1076 C1105 0.950 . S
H1077 C1106 0.950 . S
H1078 C1108 0.950 . S
H1079 C1109 0.950 . S
C1080 H1062 0.951 . S
C1080 C1081 1.366 . S
C1080 C1082 1.388 . S
C1081 C1080 1.366 . S
C1081 C1085 1.385 . S
C1082 H1063 0.951 . S
C1082 C1080 1.388 . S
C1082 C1083 1.366 . S
C1083 C1082 1.366 . S
C1083 C1084 1.414 . S
C1083 C1086 1.499 . S
C1084 H1064 0.950 . S
C1084 C1083 1.414 . S
C1084 C1085 1.374 . S
C1085 H1065 0.950 . S
C1085 C1081 1.385 . S
C1085 C1084 1.374 . S
C1086 C1083 1.499 . S
C1086 C1087 1.373 . S
C1086 C1088 1.389 . S
C1087 H1066 0.950 . S
C1087 C1086 1.373 . S
C1087 C1103 1.377 . S
C1088 C1086 1.389 . S
C1088 C1089 1.524 . S
C1088 C1102 1.377 . S
C1089 C1088 1.524 . S
C1089 C1090 1.397 . S
C1089 C1094 1.363 . S
C1090 H1067 0.950 . S
C1090 C1089 1.397 . S
C1090 C1091 1.334 . S
C1091 H1068 0.950 . S
C1091 C1090 1.334 . S
C1091 C1092 1.287 . S
C1092 C1091 1.287 . S
C1092 C1093 1.524 . S
C1092 H1111 0.913 . S
C1093 H1069 0.950 . S
C1093 C1092 1.524 . S
C1093 C1094 1.415 . S
C1094 H1070 0.950 . S
C1094 C1089 1.363 . S
C1094 C1093 1.415 . S
C1095 H1071 0.951 . S
C1095 C1096 1.366 . S
C1095 C1097 1.388 . S
C1096 C1095 1.366 . S
C1096 C1100 1.385 . S
C1097 H1072 0.951 . S
C1097 C1095 1.388 . S
C1097 C1098 1.366 . S
C1098 C1097 1.366 . S
C1098 C1099 1.414 . S
C1098 C1101 1.499 . S
C1099 H1073 0.950 . S
C1099 C1098 1.414 . S
C1099 C1100 1.374 . S
C1100 H1074 0.950 . S
C1100 C1096 1.385 . S
C1100 C1099 1.374 . S
C1101 C1098 1.499 . S
C1101 C1102 1.373 . S
C1101 C1103 1.389 . S
C1102 H1075 0.950 . S
C1102 C1088 1.377 . S
C1102 C1101 1.373 . S
C1103 C1087 1.377 . S
C1103 C1101 1.389 . S
C1103 C1104 1.524 . S
C1104 C1103 1.524 . S
C1104 C1105 1.397 . S
C1104 C1109 1.363 . S
C1105 H1076 0.950 . S
C1105 C1104 1.397 . S
C1105 C1106 1.334 . S
C1106 H1077 0.950 . S
C1106 C1105 1.334 . S
C1106 C1107 1.287 . S
C1107 C1106 1.287 . S
C1107 C1108 1.524 . S
C1107 H1110 0.999 . S
C1108 H1078 0.950 . S
C1108 C1107 1.524 . S
C1108 C1109 1.415 . S
C1109 H1079 0.950 . S
C1109 C1104 1.363 . S
C1109 C1108 1.415 . S
H1110 C1107 0.999 . S
H1111 C1092 0.913 . S
H1112 C1130 0.951 . S
H1113 C1132 0.951 . S
H1114 C1134 0.950 . S
H1115 C1135 0.950 . S
H1116 C1137 0.950 . S
H1117 C1140 0.950 . S
H1118 C1141 0.950 . S
H1119 C1143 0.950 . S
H1120 C1144 0.950 . S
H1121 C1145 0.951 . S
H1122 C1147 0.951 . S
H1123 C1149 0.950 . S
H1124 C1150 0.950 . S
H1125 C1152 0.950 . S
H1126 C1155 0.950 . S
H1127 C1156 0.950 . S
H1128 C1158 0.950 . S
H1129 C1159 0.950 . S
C1130 H1112 0.951 . S
C1130 C1131 1.366 . S
C1130 C1132 1.388 . S
C1131 C1130 1.366 . S
C1131 C1135 1.385 . S
C1132 H1113 0.951 . S
C1132 C1130 1.388 . S
C1132 C1133 1.366 . S
C1133 C1132 1.366 . S
C1133 C1134 1.414 . S
C1133 C1136 1.499 . S
C1134 H1114 0.950 . S
C1134 C1133 1.414 . S
C1134 C1135 1.374 . S
C1135 H1115 0.950 . S
C1135 C1131 1.385 . S
C1135 C1134 1.374 . S
C1136 C1133 1.499 . S
C1136 C1137 1.373 . S
C1136 C1138 1.389 . S
C1137 H1116 0.950 . S
C1137 C1136 1.373 . S
C1137 C1153 1.377 . S
C1138 C1136 1.389 . S
C1138 C1139 1.524 . S
C1138 C1152 1.377 . S
C1139 C1138 1.524 . S
C1139 C1140 1.397 . S
C1139 C1144 1.363 . S
C1140 H1117 0.950 . S
C1140 C1139 1.397 . S
C1140 C1141 1.334 . S
C1141 H1118 0.950 . S
C1141 C1140 1.334 . S
C1141 C1142 1.287 . S
C1142 C1141 1.287 . S
C1142 C1143 1.524 . S
C1142 H1161 0.913 . S
C1143 H1119 0.950 . S
C1143 C1142 1.524 . S
C1143 C1144 1.415 . S
C1144 H1120 0.950 . S
C1144 C1139 1.363 . S
C1144 C1143 1.415 . S
C1145 H1121 0.951 . S
C1145 C1146 1.366 . S
C1145 C1147 1.388 . S
C1146 C1145 1.366 . S
C1146 C1150 1.385 . S
C1147 H1122 0.951 . S
C1147 C1145 1.388 . S
C1147 C1148 1.366 . S
C1148 C1147 1.366 . S
C1148 C1149 1.414 . S
C1148 C1151 1.499 . S
C1149 H1123 0.950 . S
C1149 C1148 1.414 . S
C1149 C1150 1.374 . S
C1150 H1124 0.950 . S
C1150 C1146 1.385 . S
C1150 C1149 1.374 . S
C1151 C1148 1.499 . S
C1151 C1152 1.373 . S
C1151 C1153 1.389 . S
C1152 H1125 0.950 . S
C1152 C1138 1.377 . S
C1152 C1151 1.373 . S
C1153 C1137 1.377 . S
C1153 C1151 1.389 . S
C1153 C1154 1.524 . S
C1154 C1153 1.524 . S
C1154 C1155 1.397 . S
C1154 C1159 1.363 . S
C1155 H1126 0.950 . S
C1155 C1154 1.397 . S
C1155 C1156 1.334 . S
C1156 H1127 0.950 . S
C1156 C1155 1.334 . S
C1156 C1157 1.287 . S
C1157 C1156 1.287 . S
C1157 C1158 1.524 . S
C1157 H1160 0.999 . S
C1158 H1128 0.950 . S
C1158 C1157 1.524 . S
C1158 C1159 1.415 . S
C1159 H1129 0.950 . S
C1159 C1154 1.363 . S
C1159 C1158 1.415 . S
H1160 C1157 0.999 . S
H1161 C1142 0.913 . S
H1162 C1180 0.951 . S
H1163 C1182 0.951 . S
H1164 C1184 0.950 . S
H1165 C1185 0.950 . S
H1166 C1187 0.950 . S
H1167 C1190 0.950 . S
H1168 C1191 0.950 . S
H1169 C1193 0.950 . S
H1170 C1194 0.950 . S
H1171 C1195 0.951 . S
H1172 C1197 0.951 . S
H1173 C1199 0.950 . S
H1174 C1200 0.950 . S
H1175 C1202 0.950 . S
H1176 C1205 0.950 . S
H1177 C1206 0.950 . S
H1178 C1208 0.950 . S
H1179 C1209 0.950 . S
C1180 H1162 0.951 . S
C1180 C1181 1.366 . S
C1180 C1182 1.388 . S
C1181 C1180 1.366 . S
C1181 C1185 1.385 . S
C1182 H1163 0.951 . S
C1182 C1180 1.388 . S
C1182 C1183 1.366 . S
C1183 C1182 1.366 . S
C1183 C1184 1.414 . S
C1183 C1186 1.499 . S
C1184 H1164 0.950 . S
C1184 C1183 1.414 . S
C1184 C1185 1.374 . S
C1185 H1165 0.950 . S
C1185 C1181 1.385 . S
C1185 C1184 1.374 . S
C1186 C1183 1.499 . S
C1186 C1187 1.373 . S
C1186 C1188 1.389 . S
C1187 H1166 0.950 . S
C1187 C1186 1.373 . S
C1187 C1203 1.377 . S
C1188 C1186 1.389 . S
C1188 C1189 1.524 . S
C1188 C1202 1.377 . S
C1189 C1188 1.524 . S
C1189 C1190 1.397 . S
C1189 C1194 1.363 . S
C1190 H1167 0.950 . S
C1190 C1189 1.397 . S
C1190 C1191 1.334 . S
C1191 H1168 0.950 . S
C1191 C1190 1.334 . S
C1191 C1192 1.287 . S
C1192 C1191 1.287 . S
C1192 C1193 1.524 . S
C1192 H1211 0.913 . S
C1193 H1169 0.950 . S
C1193 C1192 1.524 . S
C1193 C1194 1.415 . S
C1194 H1170 0.950 . S
C1194 C1189 1.363 . S
C1194 C1193 1.415 . S
C1195 H1171 0.951 . S
C1195 C1196 1.366 . S
C1195 C1197 1.388 . S
C1196 C1195 1.366 . S
C1196 C1200 1.385 . S
C1197 H1172 0.951 . S
C1197 C1195 1.388 . S
C1197 C1198 1.366 . S
C1198 C1197 1.366 . S
C1198 C1199 1.414 . S
C1198 C1201 1.499 . S
C1199 H1173 0.950 . S
C1199 C1198 1.414 . S
C1199 C1200 1.374 . S
C1200 H1174 0.950 . S
C1200 C1196 1.385 . S
C1200 C1199 1.374 . S
C1201 C1198 1.499 . S
C1201 C1202 1.373 . S
C1201 C1203 1.389 . S
C1202 H1175 0.950 . S
C1202 C1188 1.377 . S
C1202 C1201 1.373 . S
C1203 C1187 1.377 . S
C1203 C1201 1.389 . S
C1203 C1204 1.524 . S
C1204 C1203 1.524 . S
C1204 C1205 1.397 . S
C1204 C1209 1.363 . S
C1205 H1176 0.950 . S
C1205 C1204 1.397 . S
C1205 C1206 1.334 . S
C1206 H1177 0.950 . S
C1206 C1205 1.334 . S
C1206 C1207 1.287 . S
C1207 C1206 1.287 . S
C1207 C1208 1.524 . S
C1207 H1210 0.999 . S
C1208 H1178 0.950 . S
C1208 C1207 1.524 . S
C1208 C1209 1.415 . S
C1209 H1179 0.950 . S
C1209 C1204 1.363 . S
C1209 C1208 1.415 . S
H1210 C1207 0.999 . S
H1211 C1192 0.913 . S
H1212 C1230 0.951 . S
H1213 C1232 0.951 . S
H1214 C1234 0.950 . S
H1215 C1235 0.950 . S
H1216 C1237 0.950 . S
H1217 C1240 0.950 . S
H1218 C1241 0.950 . S
H1219 C1243 0.950 . S
H1220 C1244 0.950 . S
H1221 C1245 0.951 . S
H1222 C1247 0.951 . S
H1223 C1249 0.950 . S
H1224 C1250 0.950 . S
H1225 C1252 0.950 . S
H1226 C1255 0.950 . S
H1227 C1256 0.950 . S
H1228 C1258 0.950 . S
H1229 C1259 0.950 . S
C1230 H1212 0.951 . S
C1230 C1231 1.366 . S
C1230 C1232 1.388 . S
C1231 C1230 1.366 . S
C1231 C1235 1.385 . S
C1232 H1213 0.951 . S
C1232 C1230 1.388 . S
C1232 C1233 1.366 . S
C1233 C1232 1.366 . S
C1233 C1234 1.414 . S
C1233 C1236 1.499 . S
C1234 H1214 0.950 . S
C1234 C1233 1.414 . S
C1234 C1235 1.374 . S
C1235 H1215 0.950 . S
C1235 C1231 1.385 . S
C1235 C1234 1.374 . S
C1236 C1233 1.499 . S
C1236 C1237 1.373 . S
C1236 C1238 1.389 . S
C1237 H1216 0.950 . S
C1237 C1236 1.373 . S
C1237 C1253 1.377 . S
C1238 C1236 1.389 . S
C1238 C1239 1.524 . S
C1238 C1252 1.377 . S
C1239 C1238 1.524 . S
C1239 C1240 1.397 . S
C1239 C1244 1.363 . S
C1240 H1217 0.950 . S
C1240 C1239 1.397 . S
C1240 C1241 1.334 . S
C1241 H1218 0.950 . S
C1241 C1240 1.334 . S
C1241 C1242 1.287 . S
C1242 C1241 1.287 . S
C1242 C1243 1.524 . S
C1242 H1261 0.913 . S
C1243 H1219 0.950 . S
C1243 C1242 1.524 . S
C1243 C1244 1.415 . S
C1244 H1220 0.950 . S
C1244 C1239 1.363 . S
C1244 C1243 1.415 . S
C1245 H1221 0.951 . S
C1245 C1246 1.366 . S
C1245 C1247 1.388 . S
C1246 C1245 1.366 . S
C1246 C1250 1.385 . S
C1247 H1222 0.951 . S
C1247 C1245 1.388 . S
C1247 C1248 1.366 . S
C1248 C1247 1.366 . S
C1248 C1249 1.414 . S
C1248 C1251 1.499 . S
C1249 H1223 0.950 . S
C1249 C1248 1.414 . S
C1249 C1250 1.374 . S
C1250 H1224 0.950 . S
C1250 C1246 1.385 . S
C1250 C1249 1.374 . S
C1251 C1248 1.499 . S
C1251 C1252 1.373 . S
C1251 C1253 1.389 . S
C1252 H1225 0.950 . S
C1252 C1238 1.377 . S
C1252 C1251 1.373 . S
C1253 C1237 1.377 . S
C1253 C1251 1.389 . S
C1253 C1254 1.524 . S
C1254 C1253 1.524 . S
C1254 C1255 1.397 . S
C1254 C1259 1.363 . S
C1255 H1226 0.950 . S
C1255 C1254 1.397 . S
C1255 C1256 1.334 . S
C1256 H1227 0.950 . S
C1256 C1255 1.334 . S
C1256 C1257 1.358 . S
C1257 C1256 1.358 . S
C1257 C1258 1.499 1_554 S
C1257 H1260 0.947 1_554 S
C1258 H1228 0.950 . S
C1258 C1257 1.499 1_556 S
C1258 C1259 1.415 1_556 S
C1259 H1229 0.950 . S
C1259 C1254 1.363 . S
C1259 C1258 1.415 1_554 S
H1260 C1257 0.947 1_556 S
H1261 C1242 0.913 . S
H1262 C1280 0.951 . S
H1263 C1282 0.951 . S
H1264 C1284 0.950 . S
H1265 C1285 0.950 . S
H1266 C1287 0.950 . S
H1267 C1290 0.950 . S
H1268 C1291 0.950 . S
H1269 C1293 0.950 . S
H1270 C1294 0.950 . S
H1271 C1295 0.951 . S
H1272 C1297 0.951 . S
H1273 C1299 0.950 . S
H1274 C1300 0.950 . S
H1275 C1302 0.950 . S
H1276 C1305 0.950 . S
H1277 C1306 0.950 . S
H1278 C1308 0.950 . S
H1279 C1309 0.950 . S
C1280 H1262 0.951 . S
C1280 C1281 1.366 . S
C1280 C1282 1.388 . S
C1281 C1280 1.366 . S
C1281 C1285 1.385 . S
C1282 H1263 0.951 . S
C1282 C1280 1.388 . S
C1282 C1283 1.366 . S
C1283 C1282 1.366 . S
C1283 C1284 1.414 . S
C1283 C1286 1.499 . S
C1284 H1264 0.950 . S
C1284 C1283 1.414 . S
C1284 C1285 1.374 . S
C1285 H1265 0.950 . S
C1285 C1281 1.385 . S
C1285 C1284 1.374 . S
C1286 C1283 1.499 . S
C1286 C1287 1.373 . S
C1286 C1288 1.389 . S
C1287 H1266 0.950 . S
C1287 C1286 1.373 . S
C1287 C1303 1.377 . S
C1288 C1286 1.389 . S
C1288 C1289 1.524 . S
C1288 C1302 1.377 . S
C1289 C1288 1.524 . S
C1289 C1290 1.397 . S
C1289 C1294 1.363 . S
C1290 H1267 0.950 . S
C1290 C1289 1.397 . S
C1290 C1291 1.334 . S
C1291 H1268 0.950 . S
C1291 C1290 1.334 . S
C1291 C1292 1.287 . S
C1292 C1291 1.287 . S
C1292 C1293 1.524 . S
C1292 H1311 0.913 . S
C1293 H1269 0.950 . S
C1293 C1292 1.524 . S
C1293 C1294 1.415 . S
C1294 H1270 0.950 . S
C1294 C1289 1.363 . S
C1294 C1293 1.415 . S
C1295 H1271 0.951 . S
C1295 C1296 1.366 . S
C1295 C1297 1.388 . S
C1296 C1295 1.366 . S
C1296 C1300 1.385 . S
C1297 H1272 0.951 . S
C1297 C1295 1.388 . S
C1297 C1298 1.366 . S
C1298 C1297 1.366 . S
C1298 C1299 1.414 . S
C1298 C1301 1.499 . S
C1299 H1273 0.950 . S
C1299 C1298 1.414 . S
C1299 C1300 1.374 . S
C1300 H1274 0.950 . S
C1300 C1296 1.385 . S
C1300 C1299 1.374 . S
C1301 C1298 1.499 . S
C1301 C1302 1.373 . S
C1301 C1303 1.389 . S
C1302 H1275 0.950 . S
C1302 C1288 1.377 . S
C1302 C1301 1.373 . S
C1303 C1287 1.377 . S
C1303 C1301 1.389 . S
C1303 C1304 1.524 . S
C1304 C1303 1.524 . S
C1304 C1305 1.397 . S
C1304 C1309 1.363 . S
C1305 H1276 0.950 . S
C1305 C1304 1.397 . S
C1305 C1306 1.334 . S
C1306 H1277 0.950 . S
C1306 C1305 1.334 . S
C1306 C1307 1.287 . S
C1307 C1306 1.287 . S
C1307 C1308 1.524 . S
C1307 H1310 0.999 . S
C1308 H1278 0.950 . S
C1308 C1307 1.524 . S
C1308 C1309 1.415 . S
C1309 H1279 0.950 . S
C1309 C1304 1.363 . S
C1309 C1308 1.415 . S
H1310 C1307 0.999 . S
H1311 C1292 0.913 . S
H1312 C1330 0.951 . S
H1313 C1332 0.951 . S
H1314 C1334 0.950 . S
H1315 C1335 0.950 . S
H1316 C1337 0.950 . S
H1317 C1340 0.950 . S
H1318 C1341 0.950 . S
H1319 C1343 0.950 . S
H1320 C1344 0.950 . S
H1321 C1345 0.951 . S
H1322 C1347 0.951 . S
H1323 C1349 0.950 . S
H1324 C1350 0.950 . S
H1325 C1352 0.950 . S
H1326 C1355 0.950 . S
H1327 C1356 0.950 . S
H1328 C1358 0.950 . S
H1329 C1359 0.950 . S
C1330 H1312 0.951 . S
C1330 C1331 1.366 . S
C1330 C1332 1.388 . S
C1331 C1330 1.366 . S
C1331 C1335 1.385 . S
C1332 H1313 0.951 . S
C1332 C1330 1.388 . S
C1332 C1333 1.366 . S
C1333 C1332 1.366 . S
C1333 C1334 1.414 . S
C1333 C1336 1.499 . S
C1334 H1314 0.950 . S
C1334 C1333 1.414 . S
C1334 C1335 1.374 . S
C1335 H1315 0.950 . S
C1335 C1331 1.385 . S
C1335 C1334 1.374 . S
C1336 C1333 1.499 . S
C1336 C1337 1.373 . S
C1336 C1338 1.389 . S
C1337 H1316 0.950 . S
C1337 C1336 1.373 . S
C1337 C1353 1.377 . S
C1338 C1336 1.389 . S
C1338 C1339 1.524 . S
C1338 C1352 1.377 . S
C1339 C1338 1.524 . S
C1339 C1340 1.397 . S
C1339 C1344 1.363 . S
C1340 H1317 0.950 . S
C1340 C1339 1.397 . S
C1340 C1341 1.334 . S
C1341 H1318 0.950 . S
C1341 C1340 1.334 . S
C1341 C1342 1.287 . S
C1342 C1341 1.287 . S
C1342 C1343 1.524 . S
C1342 H1361 0.913 . S
C1343 H1319 0.950 . S
C1343 C1342 1.524 . S
C1343 C1344 1.415 . S
C1344 H1320 0.950 . S
C1344 C1339 1.363 . S
C1344 C1343 1.415 . S
C1345 H1321 0.951 . S
C1345 C1346 1.366 . S
C1345 C1347 1.388 . S
C1346 C1345 1.366 . S
C1346 C1350 1.385 . S
C1347 H1322 0.951 . S
C1347 C1345 1.388 . S
C1347 C1348 1.366 . S
C1348 C1347 1.366 . S
C1348 C1349 1.414 . S
C1348 C1351 1.499 . S
C1349 H1323 0.950 . S
C1349 C1348 1.414 . S
C1349 C1350 1.374 . S
C1350 H1324 0.950 . S
C1350 C1346 1.385 . S
C1350 C1349 1.374 . S
C1351 C1348 1.499 . S
C1351 C1352 1.373 . S
C1351 C1353 1.389 . S
C1352 H1325 0.950 . S
C1352 C1338 1.377 . S
C1352 C1351 1.373 . S
C1353 C1337 1.377 . S
C1353 C1351 1.389 . S
C1353 C1354 1.524 . S
C1354 C1353 1.524 . S
C1354 C1355 1.397 . S
C1354 C1359 1.363 . S
C1355 H1326 0.950 . S
C1355 C1354 1.397 . S
C1355 C1356 1.334 . S
C1356 H1327 0.950 . S
C1356 C1355 1.334 . S
C1356 C1357 1.287 . S
C1357 C1356 1.287 . S
C1357 C1358 1.524 . S
C1357 H1360 0.999 . S
C1358 H1328 0.950 . S
C1358 C1357 1.524 . S
C1358 C1359 1.415 . S
C1359 H1329 0.950 . S
C1359 C1354 1.363 . S
C1359 C1358 1.415 . S
H1360 C1357 0.999 . S
H1361 C1342 0.913 . S
H1362 C1380 0.951 . S
H1363 C1382 0.951 . S
H1364 C1384 0.950 . S
H1365 C1385 0.950 . S
H1366 C1387 0.950 . S
H1367 C1390 0.950 . S
H1368 C1391 0.950 . S
H1369 C1393 0.950 . S
H1370 C1394 0.950 . S
H1371 C1395 0.951 . S
H1372 C1397 0.951 . S
H1373 C1399 0.950 . S
H1374 C1400 0.950 . S
H1375 C1402 0.950 . S
H1376 C1405 0.950 . S
H1377 C1406 0.950 . S
H1378 C1408 0.950 . S
H1379 C1409 0.950 . S
C1380 H1362 0.951 . S
C1380 C1381 1.366 . S
C1380 C1382 1.388 . S
C1381 C1380 1.366 . S
C1381 C1385 1.385 . S
C1382 H1363 0.951 . S
C1382 C1380 1.388 . S
C1382 C1383 1.366 . S
C1383 C1382 1.366 . S
C1383 C1384 1.414 . S
C1383 C1386 1.499 . S
C1384 H1364 0.950 . S
C1384 C1383 1.414 . S
C1384 C1385 1.374 . S
C1385 H1365 0.950 . S
C1385 C1381 1.385 . S
C1385 C1384 1.374 . S
C1386 C1383 1.499 . S
C1386 C1387 1.373 . S
C1386 C1388 1.389 . S
C1387 H1366 0.950 . S
C1387 C1386 1.373 . S
C1387 C1403 1.377 . S
C1388 C1386 1.389 . S
C1388 C1389 1.524 . S
C1388 C1402 1.377 . S
C1389 C1388 1.524 . S
C1389 C1390 1.397 . S
C1389 C1394 1.363 . S
C1390 H1367 0.950 . S
C1390 C1389 1.397 . S
C1390 C1391 1.334 . S
C1391 H1368 0.950 . S
C1391 C1390 1.334 . S
C1391 C1392 1.287 . S
C1392 C1391 1.287 . S
C1392 C1393 1.524 . S
C1392 H1411 0.913 . S
C1393 H1369 0.950 . S
C1393 C1392 1.524 . S
C1393 C1394 1.415 . S
C1394 H1370 0.950 . S
C1394 C1389 1.363 . S
C1394 C1393 1.415 . S
C1395 H1371 0.951 . S
C1395 C1396 1.366 . S
C1395 C1397 1.388 . S
C1396 C1395 1.366 . S
C1396 C1400 1.385 . S
C1397 H1372 0.951 . S
C1397 C1395 1.388 . S
C1397 C1398 1.366 . S
C1398 C1397 1.366 . S
C1398 C1399 1.414 . S
C1398 C1401 1.499 . S
C1399 H1373 0.950 . S
C1399 C1398 1.414 . S
C1399 C1400 1.374 . S
C1400 H1374 0.950 . S
C1400 C1396 1.385 . S
C1400 C1399 1.374 . S
C1401 C1398 1.499 . S
C1401 C1402 1.373 . S
C1401 C1403 1.389 . S
C1402 H1375 0.950 . S
C1402 C1388 1.377 . S
C1402 C1401 1.373 . S
C1403 C1387 1.377 . S
C1403 C1401 1.389 . S
C1403 C1404 1.524 . S
C1404 C1403 1.524 . S
C1404 C1405 1.397 . S
C1404 C1409 1.363 . S
C1405 H1376 0.950 . S
C1405 C1404 1.397 . S
C1405 C1406 1.334 . S
C1406 H1377 0.950 . S
C1406 C1405 1.334 . S
C1406 C1407 1.287 . S
C1407 C1406 1.287 . S
C1407 C1408 1.524 . S
C1407 H1410 0.999 . S
C1408 H1378 0.950 . S
C1408 C1407 1.524 . S
C1408 C1409 1.415 . S
C1409 H1379 0.950 . S
C1409 C1404 1.363 . S
C1409 C1408 1.415 . S
H1410 C1407 0.999 . S
H1411 C1392 0.913 . S
H1412 C1430 0.951 . S
H1413 C1432 0.951 . S
H1414 C1434 0.950 . S
H1415 C1435 0.950 . S
H1416 C1437 0.950 . S
H1417 C1440 0.950 . S
H1418 C1441 0.950 . S
H1419 C1443 0.950 . S
H1420 C1444 0.950 . S
H1421 C1445 0.951 . S
H1422 C1447 0.951 . S
H1423 C1449 0.950 . S
H1424 C1450 0.950 . S
H1425 C1452 0.950 . S
H1426 C1455 0.950 . S
H1427 C1456 0.950 . S
H1428 C1458 0.950 . S
H1429 C1459 0.950 . S
C1430 H1412 0.951 . S
C1430 C1431 1.366 . S
C1430 C1432 1.388 . S
C1431 C1430 1.366 . S
C1431 C1435 1.385 . S
C1432 H1413 0.951 . S
C1432 C1430 1.388 . S
C1432 C1433 1.366 . S
C1433 C1432 1.366 . S
C1433 C1434 1.414 . S
C1433 C1436 1.499 . S
C1434 H1414 0.950 . S
C1434 C1433 1.414 . S
C1434 C1435 1.374 . S
C1435 H1415 0.950 . S
C1435 C1431 1.385 . S
C1435 C1434 1.374 . S
C1436 C1433 1.499 . S
C1436 C1437 1.373 . S
C1436 C1438 1.389 . S
C1437 H1416 0.950 . S
C1437 C1436 1.373 . S
C1437 C1453 1.377 . S
C1438 C1436 1.389 . S
C1438 C1439 1.524 . S
C1438 C1452 1.377 . S
C1439 C1438 1.524 . S
C1439 C1440 1.397 . S
C1439 C1444 1.363 . S
C1440 H1417 0.950 . S
C1440 C1439 1.397 . S
C1440 C1441 1.334 . S
C1441 H1418 0.950 . S
C1441 C1440 1.334 . S
C1441 C1442 1.287 . S
C1442 C1441 1.287 . S
C1442 C1443 1.524 . S
C1442 H1461 0.913 . S
C1443 H1419 0.950 . S
C1443 C1442 1.524 . S
C1443 C1444 1.415 . S
C1444 H1420 0.950 . S
C1444 C1439 1.363 . S
C1444 C1443 1.415 . S
C1445 H1421 0.951 . S
C1445 C1446 1.366 . S
C1445 C1447 1.388 . S
C1446 C1445 1.366 . S
C1446 C1450 1.385 . S
C1447 H1422 0.951 . S
C1447 C1445 1.388 . S
C1447 C1448 1.366 . S
C1448 C1447 1.366 . S
C1448 C1449 1.414 . S
C1448 C1451 1.499 . S
C1449 H1423 0.950 . S
C1449 C1448 1.414 . S
C1449 C1450 1.374 . S
C1450 H1424 0.950 . S
C1450 C1446 1.385 . S
C1450 C1449 1.374 . S
C1451 C1448 1.499 . S
C1451 C1452 1.373 . S
C1451 C1453 1.389 . S
C1452 H1425 0.950 . S
C1452 C1438 1.377 . S
C1452 C1451 1.373 . S
C1453 C1437 1.377 . S
C1453 C1451 1.389 . S
C1453 C1454 1.524 . S
C1454 C1453 1.524 . S
C1454 C1455 1.397 . S
C1454 C1459 1.363 . S
C1455 H1426 0.950 . S
C1455 C1454 1.397 . S
C1455 C1456 1.334 . S
C1456 H1427 0.950 . S
C1456 C1455 1.334 . S
C1456 C1457 1.287 . S
C1457 C1456 1.287 . S
C1457 C1458 1.524 . S
C1457 H1460 0.999 . S
C1458 H1428 0.950 . S
C1458 C1457 1.524 . S
C1458 C1459 1.415 . S
C1459 H1429 0.950 . S
C1459 C1454 1.363 . S
C1459 C1458 1.415 . S
H1460 C1457 0.999 . S
H1461 C1442 0.913 . S
H1462 C1480 0.951 . S
H1463 C1482 0.951 . S
H1464 C1484 0.950 . S
H1465 C1485 0.950 . S
H1466 C1487 0.950 . S
H1467 C1490 0.950 . S
H1468 C1491 0.950 . S
H1469 C1493 0.950 . S
H1470 C1494 0.950 . S
H1471 C1495 0.951 . S
H1472 C1497 0.951 . S
H1473 C1499 0.950 . S
H1474 C1500 0.950 . S
H1475 C1502 0.950 . S
H1476 C1505 0.950 . S
H1477 C1506 0.950 . S
H1478 C1508 0.950 . S
H1479 C1509 0.950 . S
C1480 H1462 0.951 . S
C1480 C1481 1.366 . S
C1480 C1482 1.388 . S
C1481 C1480 1.366 . S
C1481 C1485 1.385 . S
C1482 H1463 0.951 . S
C1482 C1480 1.388 . S
C1482 C1483 1.366 . S
C1483 C1482 1.366 . S
C1483 C1484 1.414 . S
C1483 C1486 1.499 . S
C1484 H1464 0.950 . S
C1484 C1483 1.414 . S
C1484 C1485 1.374 . S
C1485 H1465 0.950 . S
C1485 C1481 1.385 . S
C1485 C1484 1.374 . S
C1486 C1483 1.499 . S
C1486 C1487 1.373 . S
C1486 C1488 1.389 . S
C1487 H1466 0.950 . S
C1487 C1486 1.373 . S
C1487 C1503 1.377 . S
C1488 C1486 1.389 . S
C1488 C1489 1.524 . S
C1488 C1502 1.377 . S
C1489 C1488 1.524 . S
C1489 C1490 1.397 . S
C1489 C1494 1.363 . S
C1490 H1467 0.950 . S
C1490 C1489 1.397 . S
C1490 C1491 1.334 . S
C1491 H1468 0.950 . S
C1491 C1490 1.334 . S
C1491 C1492 1.287 . S
C1492 C1491 1.287 . S
C1492 C1493 1.524 . S
C1492 H1511 0.913 . S
C1493 H1469 0.950 . S
C1493 C1492 1.524 . S
C1493 C1494 1.415 . S
C1494 H1470 0.950 . S
C1494 C1489 1.363 . S
C1494 C1493 1.415 . S
C1495 H1471 0.951 . S
C1495 C1496 1.366 . S
C1495 C1497 1.388 . S
C1496 C1495 1.366 . S
C1496 C1500 1.385 . S
C1497 H1472 0.951 . S
C1497 C1495 1.388 . S
C1497 C1498 1.366 . S
C1498 C1497 1.366 . S
C1498 C1499 1.414 . S
C1498 C1501 1.499 . S
C1499 H1473 0.950 . S
C1499 C1498 1.414 . S
C1499 C1500 1.374 . S
C1500 H1474 0.950 . S
C1500 C1496 1.385 . S
C1500 C1499 1.374 . S
C1501 C1498 1.499 . S
C1501 C1502 1.373 . S
C1501 C1503 1.389 . S
C1502 H1475 0.950 . S
C1502 C1488 1.377 . S
C1502 C1501 1.373 . S
C1503 C1487 1.377 . S
C1503 C1501 1.389 . S
C1503 C1504 1.524 . S
C1504 C1503 1.524 . S
C1504 C1505 1.397 . S
C1504 C1509 1.363 . S
C1505 H1476 0.950 . S
C1505 C1504 1.397 . S
C1505 C1506 1.334 . S
C1506 H1477 0.950 . S
C1506 C1505 1.334 . S
C1506 C1507 1.287 . S
C1507 C1506 1.287 . S
C1507 C1508 1.524 . S
C1507 H1510 0.999 . S
C1508 H1478 0.950 . S
C1508 C1507 1.524 . S
C1508 C1509 1.415 . S
C1509 H1479 0.950 . S
C1509 C1504 1.363 . S
C1509 C1508 1.415 . S
H1510 C1507 0.999 . S
H1511 C1492 0.913 . S
H1512 C1530 0.951 . S
H1513 C1532 0.951 . S
H1514 C1534 0.950 . S
H1515 C1535 0.950 . S
H1516 C1537 0.950 . S
H1517 C1540 0.950 . S
H1518 C1541 0.950 . S
H1519 C1543 0.950 . S
H1520 C1544 0.950 . S
H1521 C1545 0.951 . S
H1522 C1547 0.951 . S
H1523 C1549 0.950 . S
H1524 C1550 0.950 . S
H1525 C1552 0.950 . S
H1526 C1555 0.950 . S
H1527 C1556 0.950 . S
H1528 C1558 0.950 . S
H1529 C1559 0.950 . S
C1530 H1512 0.951 . S
C1530 C1531 1.366 . S
C1530 C1532 1.388 . S
C1531 C1530 1.366 . S
C1531 C1535 1.385 . S
C1532 H1513 0.951 . S
C1532 C1530 1.388 . S
C1532 C1533 1.366 . S
C1533 C1532 1.366 . S
C1533 C1534 1.414 . S
C1533 C1536 1.499 . S
C1534 H1514 0.950 . S
C1534 C1533 1.414 . S
C1534 C1535 1.374 . S
C1535 H1515 0.950 . S
C1535 C1531 1.385 . S
C1535 C1534 1.374 . S
C1536 C1533 1.499 . S
C1536 C1537 1.373 . S
C1536 C1538 1.389 . S
C1537 H1516 0.950 . S
C1537 C1536 1.373 . S
C1537 C1553 1.377 . S
C1538 C1536 1.389 . S
C1538 C1539 1.524 . S
C1538 C1552 1.377 . S
C1539 C1538 1.524 . S
C1539 C1540 1.397 . S
C1539 C1544 1.363 . S
C1540 H1517 0.950 . S
C1540 C1539 1.397 . S
C1540 C1541 1.334 . S
C1541 H1518 0.950 . S
C1541 C1540 1.334 . S
C1541 C1542 1.287 . S
C1542 C1541 1.287 . S
C1542 C1543 1.524 . S
C1542 H1561 0.913 . S
C1543 H1519 0.950 . S
C1543 C1542 1.524 . S
C1543 C1544 1.415 . S
C1544 H1520 0.950 . S
C1544 C1539 1.363 . S
C1544 C1543 1.415 . S
C1545 H1521 0.951 . S
C1545 C1546 1.366 . S
C1545 C1547 1.388 . S
C1546 C1545 1.366 . S
C1546 C1550 1.385 . S
C1547 H1522 0.951 . S
C1547 C1545 1.388 . S
C1547 C1548 1.366 . S
C1548 C1547 1.366 . S
C1548 C1549 1.414 . S
C1548 C1551 1.499 1_554 S
C1549 H1523 0.950 . S
C1549 C1548 1.414 . S
C1549 C1550 1.374 . S
C1550 H1524 0.950 . S
C1550 C1546 1.385 . S
C1550 C1549 1.374 . S
C1551 C1548 1.499 1_556 S
C1551 C1552 1.373 . S
C1551 C1553 1.389 . S
C1552 H1525 0.950 . S
C1552 C1538 1.377 . S
C1552 C1551 1.373 . S
C1553 C1537 1.377 . S
C1553 C1551 1.389 . S
C1553 C1554 1.524 1_556 S
C1554 C1553 1.524 1_554 S
C1554 C1555 1.397 . S
C1554 C1559 1.363 . S
C1555 H1526 0.950 . S
C1555 C1554 1.397 . S
C1555 C1556 1.334 . S
C1556 H1527 0.950 . S
C1556 C1555 1.334 . S
C1556 C1557 1.287 . S
C1557 C1556 1.287 . S
C1557 C1558 1.524 . S
C1557 H1560 0.999 . S
C1558 H1528 0.950 . S
C1558 C1557 1.524 . S
C1558 C1559 1.415 . S
C1559 H1529 0.950 . S
C1559 C1554 1.363 . S
C1559 C1558 1.415 . S
H1560 C1557 0.999 . S
H1561 C1542 0.913 . S
H1562 C1580 0.951 . S
H1563 C1582 0.951 . S
H1564 C1584 0.950 . S
H1565 C1585 0.950 . S
H1566 C1587 0.950 . S
H1567 C1590 0.950 . S
H1568 C1591 0.950 . S
H1569 C1593 0.950 . S
H1570 C1594 0.950 . S
H1571 C1595 0.951 . S
H1572 C1597 0.951 . S
H1573 C1599 0.950 . S
H1574 C1600 0.950 . S
H1575 C1602 0.950 . S
H1576 C1605 0.950 . S
H1577 C1606 0.950 . S
H1578 C1608 0.950 . S
H1579 C1609 0.950 . S
C1580 H1562 0.951 . S
C1580 C1581 1.366 . S
C1580 C1582 1.388 . S
C1581 C1580 1.366 . S
C1581 C1585 1.385 . S
C1582 H1563 0.951 . S
C1582 C1580 1.388 . S
C1582 C1583 1.366 . S
C1583 C1582 1.366 . S
C1583 C1584 1.414 . S
C1583 C1586 1.499 . S
C1584 H1564 0.950 . S
C1584 C1583 1.414 . S
C1584 C1585 1.374 . S
C1585 H1565 0.950 . S
C1585 C1581 1.385 . S
C1585 C1584 1.374 . S
C1586 C1583 1.499 . S
C1586 C1587 1.373 . S
C1586 C1588 1.389 . S
C1587 H1566 0.950 . S
C1587 C1586 1.373 . S
C1587 C1603 1.377 . S
C1588 C1586 1.389 . S
C1588 C1589 1.524 . S
C1588 C1602 1.377 . S
C1589 C1588 1.524 . S
C1589 C1590 1.397 . S
C1589 C1594 1.363 . S
C1590 H1567 0.950 . S
C1590 C1589 1.397 . S
C1590 C1591 1.334 . S
C1591 H1568 0.950 . S
C1591 C1590 1.334 . S
C1591 C1592 1.287 . S
C1592 C1591 1.287 . S
C1592 C1593 1.524 . S
C1592 H1611 0.913 . S
C1593 H1569 0.950 . S
C1593 C1592 1.524 . S
C1593 C1594 1.415 . S
C1594 H1570 0.950 . S
C1594 C1589 1.363 . S
C1594 C1593 1.415 . S
C1595 H1571 0.951 . S
C1595 C1596 1.366 . S
C1595 C1597 1.388 . S
C1596 C1595 1.366 . S
C1596 C1600 1.385 . S
C1597 H1572 0.951 . S
C1597 C1595 1.388 . S
C1597 C1598 1.366 . S
C1598 C1597 1.366 . S
C1598 C1599 1.414 . S
C1598 C1601 1.499 . S
C1599 H1573 0.950 . S
C1599 C1598 1.414 . S
C1599 C1600 1.374 . S
C1600 H1574 0.950 . S
C1600 C1596 1.385 . S
C1600 C1599 1.374 . S
C1601 C1598 1.499 . S
C1601 C1602 1.373 . S
C1601 C1603 1.389 . S
C1602 H1575 0.950 . S
C1602 C1588 1.377 . S
C1602 C1601 1.373 . S
C1603 C1587 1.377 . S
C1603 C1601 1.389 . S
C1603 C1604 1.524 . S
C1604 C1603 1.524 . S
C1604 C1605 1.397 . S
C1604 C1609 1.363 . S
C1605 H1576 0.950 . S
C1605 C1604 1.397 . S
C1605 C1606 1.334 . S
C1606 H1577 0.950 . S
C1606 C1605 1.334 . S
C1606 C1607 1.287 . S
C1607 C1606 1.287 . S
C1607 C1608 1.524 . S
C1607 H1610 0.999 . S
C1608 H1578 0.950 . S
C1608 C1607 1.524 . S
C1608 C1609 1.415 . S
C1609 H1579 0.950 . S
C1609 C1604 1.363 . S
C1609 C1608 1.415 . S
H1610 C1607 0.999 . S
H1611 C1592 0.913 . S
H1612 C1630 0.951 . S
H1613 C1632 0.951 . S
H1614 C1634 0.950 . S
H1615 C1635 0.950 . S
H1616 C1637 0.950 . S
H1617 C1640 0.950 . S
H1618 C1641 0.950 . S
H1619 C1643 0.950 . S
H1620 C1644 0.950 . S
H1621 C1645 0.951 . S
H1622 C1647 0.951 . S
H1623 C1649 0.950 . S
H1624 C1650 0.950 . S
H1625 C1652 0.950 . S
H1626 C1655 0.950 . S
H1627 C1656 0.950 . S
H1628 C1658 0.950 . S
H1629 C1659 0.950 . S
C1630 H1612 0.951 . S
C1630 C1631 1.366 . S
C1630 C1632 1.388 . S
C1631 C1630 1.366 . S
C1631 C1635 1.385 . S
C1632 H1613 0.951 . S
C1632 C1630 1.388 . S
C1632 C1633 1.366 . S
C1633 C1632 1.366 . S
C1633 C1634 1.414 . S
C1633 C1636 1.499 . S
C1634 H1614 0.950 . S
C1634 C1633 1.414 . S
C1634 C1635 1.374 . S
C1635 H1615 0.950 . S
C1635 C1631 1.385 . S
C1635 C1634 1.374 . S
C1636 C1633 1.499 . S
C1636 C1637 1.373 . S
C1636 C1638 1.389 . S
C1637 H1616 0.950 . S
C1637 C1636 1.373 . S
C1637 C1653 1.377 . S
C1638 C1636 1.389 . S
C1638 C1639 1.524 . S
C1638 C1652 1.377 . S
C1639 C1638 1.524 . S
C1639 C1640 1.397 . S
C1639 C1644 1.363 . S
C1640 H1617 0.950 . S
C1640 C1639 1.397 . S
C1640 C1641 1.334 . S
C1641 H1618 0.950 . S
C1641 C1640 1.334 . S
C1641 C1642 1.287 . S
C1642 C1641 1.287 . S
C1642 C1643 1.524 . S
C1642 H1661 0.913 . S
C1643 H1619 0.950 . S
C1643 C1642 1.524 . S
C1643 C1644 1.415 . S
C1644 H1620 0.950 . S
C1644 C1639 1.363 . S
C1644 C1643 1.415 . S
C1645 H1621 0.951 . S
C1645 C1646 1.366 . S
C1645 C1647 1.388 . S
C1646 C1645 1.366 . S
C1646 C1650 1.385 . S
C1647 H1622 0.951 . S
C1647 C1645 1.388 . S
C1647 C1648 1.366 . S
C1648 C1647 1.366 . S
C1648 C1649 1.414 . S
C1648 C1651 1.499 . S
C1649 H1623 0.950 . S
C1649 C1648 1.414 . S
C1649 C1650 1.374 . S
C1650 H1624 0.950 . S
C1650 C1646 1.385 . S
C1650 C1649 1.374 . S
C1651 C1648 1.499 . S
C1651 C1652 1.373 . S
C1651 C1653 1.389 . S
C1652 H1625 0.950 . S
C1652 C1638 1.377 . S
C1652 C1651 1.373 . S
C1653 C1637 1.377 . S
C1653 C1651 1.389 . S
C1653 C1654 1.524 . S
C1654 C1653 1.524 . S
C1654 C1655 1.397 . S
C1654 C1659 1.363 . S
C1655 H1626 0.950 . S
C1655 C1654 1.397 . S
C1655 C1656 1.334 . S
C1656 H1627 0.950 . S
C1656 C1655 1.334 . S
C1656 C1657 1.287 . S
C1657 C1656 1.287 . S
C1657 C1658 1.524 . S
C1657 H1660 0.999 . S
C1658 H1628 0.950 . S
C1658 C1657 1.524 . S
C1658 C1659 1.415 . S
C1659 H1629 0.950 . S
C1659 C1654 1.363 . S
C1659 C1658 1.415 . S
H1660 C1657 0.999 . S
H1661 C1642 0.913 . S
H1662 C1680 0.951 . S
H1663 C1682 0.951 . S
H1664 C1684 0.950 . S
H1665 C1685 0.950 . S
H1666 C1687 0.950 . S
H1667 C1690 0.950 . S
H1668 C1691 0.950 . S
H1669 C1693 0.950 . S
H1670 C1694 0.950 . S
H1671 C1695 0.951 . S
H1672 C1697 0.951 . S
H1673 C1699 0.950 . S
H1674 C1700 0.950 . S
H1675 C1702 0.950 . S
H1676 C1705 0.950 . S
H1677 C1706 0.950 . S
H1678 C1708 0.950 . S
H1679 C1709 0.950 . S
C1680 H1662 0.951 . S
C1680 C1681 1.366 . S
C1680 C1682 1.388 . S
C1681 C1680 1.366 . S
C1681 C1685 1.385 . S
C1682 H1663 0.951 . S
C1682 C1680 1.388 . S
C1682 C1683 1.366 . S
C1683 C1682 1.366 . S
C1683 C1684 1.414 . S
C1683 C1686 1.499 . S
C1684 H1664 0.950 . S
C1684 C1683 1.414 . S
C1684 C1685 1.374 . S
C1685 H1665 0.950 . S
C1685 C1681 1.385 . S
C1685 C1684 1.374 . S
C1686 C1683 1.499 . S
C1686 C1687 1.373 . S
C1686 C1688 1.389 . S
C1687 H1666 0.950 . S
C1687 C1686 1.373 . S
C1687 C1703 1.377 . S
C1688 C1686 1.389 . S
C1688 C1689 1.524 . S
C1688 C1702 1.377 . S
C1689 C1688 1.524 . S
C1689 C1690 1.397 . S
C1689 C1694 1.363 . S
C1690 H1667 0.950 . S
C1690 C1689 1.397 . S
C1690 C1691 1.334 . S
C1691 H1668 0.950 . S
C1691 C1690 1.334 . S
C1691 C1692 1.287 . S
C1692 C1691 1.287 . S
C1692 C1693 1.524 . S
C1692 H1711 0.913 . S
C1693 H1669 0.950 . S
C1693 C1692 1.524 . S
C1693 C1694 1.415 . S
C1694 H1670 0.950 . S
C1694 C1689 1.363 . S
C1694 C1693 1.415 . S
C1695 H1671 0.951 . S
C1695 C1696 1.366 . S
C1695 C1697 1.388 . S
C1696 C1695 1.366 . S
C1696 C1700 1.385 . S
C1697 H1672 0.951 . S
C1697 C1695 1.388 . S
C1697 C1698 1.366 . S
C1698 C1697 1.366 . S
C1698 C1699 1.414 . S
C1698 C1701 1.499 . S
C1699 H1673 0.950 . S
C1699 C1698 1.414 . S
C1699 C1700 1.374 . S
C1700 H1674 0.950 . S
C1700 C1696 1.385 . S
C1700 C1699 1.374 . S
C1701 C1698 1.499 . S
C1701 C1702 1.373 . S
C1701 C1703 1.389 . S
C1702 H1675 0.950 . S
C1702 C1688 1.377 . S
C1702 C1701 1.373 . S
C1703 C1687 1.377 . S
C1703 C1701 1.389 . S
C1703 C1704 1.524 . S
C1704 C1703 1.524 . S
C1704 C1705 1.397 . S
C1704 C1709 1.363 . S
C1705 H1676 0.950 . S
C1705 C1704 1.397 . S
C1705 C1706 1.334 . S
C1706 H1677 0.950 . S
C1706 C1705 1.334 . S
C1706 C1707 1.287 . S
C1707 C1706 1.287 . S
C1707 C1708 1.524 . S
C1707 H1710 0.999 . S
C1708 H1678 0.950 . S
C1708 C1707 1.524 . S
C1708 C1709 1.415 . S
C1709 H1679 0.950 . S
C1709 C1704 1.363 . S
C1709 C1708 1.415 . S
H1710 C1707 0.999 . S
H1711 C1692 0.913 . S
H1712 C1730 0.951 . S
H1713 C1732 0.951 . S
H1714 C1734 0.950 . S
H1715 C1735 0.950 . S
H1716 C1737 0.950 . S
H1717 C1740 0.950 . S
H1718 C1741 0.950 . S
H1719 C1743 0.950 . S
H1720 C1744 0.950 . S
H1721 C1745 0.951 . S
H1722 C1747 0.951 . S
H1723 C1749 0.950 . S
H1724 C1750 0.950 . S
H1725 C1752 0.950 . S
H1726 C1755 0.950 . S
H1727 C1756 0.950 . S
H1728 C1758 0.950 . S
H1729 C1759 0.950 . S
C1730 H1712 0.951 . S
C1730 C1731 1.366 . S
C1730 C1732 1.388 . S
C1731 C1730 1.366 . S
C1731 C1735 1.385 . S
C1732 H1713 0.951 . S
C1732 C1730 1.388 . S
C1732 C1733 1.366 . S
C1733 C1732 1.366 . S
C1733 C1734 1.414 . S
C1733 C1736 1.499 . S
C1734 H1714 0.950 . S
C1734 C1733 1.414 . S
C1734 C1735 1.374 . S
C1735 H1715 0.950 . S
C1735 C1731 1.385 . S
C1735 C1734 1.374 . S
C1736 C1733 1.499 . S
C1736 C1737 1.373 . S
C1736 C1738 1.389 . S
C1737 H1716 0.950 . S
C1737 C1736 1.373 . S
C1737 C1753 1.377 . S
C1738 C1736 1.389 . S
C1738 C1739 1.524 . S
C1738 C1752 1.377 . S
C1739 C1738 1.524 . S
C1739 C1740 1.397 . S
C1739 C1744 1.363 . S
C1740 H1717 0.950 . S
C1740 C1739 1.397 . S
C1740 C1741 1.334 . S
C1741 H1718 0.950 . S
C1741 C1740 1.334 . S
C1741 C1742 1.287 . S
C1742 C1741 1.287 . S
C1742 C1743 1.524 . S
C1742 H1761 0.913 . S
C1743 H1719 0.950 . S
C1743 C1742 1.524 . S
C1743 C1744 1.415 . S
C1744 H1720 0.950 . S
C1744 C1739 1.363 . S
C1744 C1743 1.415 . S
C1745 H1721 0.951 . S
C1745 C1746 1.366 . S
C1745 C1747 1.388 . S
C1746 C1745 1.366 . S
C1746 C1750 1.385 . S
C1747 H1722 0.951 . S
C1747 C1745 1.388 . S
C1747 C1748 1.366 . S
C1748 C1747 1.366 . S
C1748 C1749 1.414 . S
C1748 C1751 1.499 . S
C1749 H1723 0.950 . S
C1749 C1748 1.414 . S
C1749 C1750 1.374 . S
C1750 H1724 0.950 . S
C1750 C1746 1.385 . S
C1750 C1749 1.374 . S
C1751 C1748 1.499 . S
C1751 C1752 1.373 . S
C1751 C1753 1.389 . S
C1752 H1725 0.950 . S
C1752 C1738 1.377 . S
C1752 C1751 1.373 . S
C1753 C1737 1.377 . S
C1753 C1751 1.389 . S
C1753 C1754 1.524 . S
C1754 C1753 1.524 . S
C1754 C1755 1.397 . S
C1754 C1759 1.363 . S
C1755 H1726 0.950 . S
C1755 C1754 1.397 . S
C1755 C1756 1.334 . S
C1756 H1727 0.950 . S
C1756 C1755 1.334 . S
C1756 C1757 1.287 . S
C1757 C1756 1.287 . S
C1757 C1758 1.524 . S
C1757 H1760 0.999 . S
C1758 H1728 0.950 . S
C1758 C1757 1.524 . S
C1758 C1759 1.415 . S
C1759 H1729 0.950 . S
C1759 C1754 1.363 . S
C1759 C1758 1.415 . S
H1760 C1757 0.999 . S
H1761 C1742 0.913 . S
H1762 C1780 0.951 . S
H1763 C1782 0.951 . S
H1764 C1784 0.950 . S
H1765 C1785 0.950 . S
H1766 C1787 0.950 . S
H1767 C1790 0.950 . S
H1768 C1791 0.950 . S
H1769 C1793 0.950 . S
H1770 C1794 0.950 . S
H1771 C1795 0.951 . S
H1772 C1797 0.951 . S
H1773 C1799 0.950 . S
H1774 C1800 0.950 . S
H1775 C1802 0.950 . S
H1776 C1805 0.950 . S
H1777 C1806 0.950 . S
H1778 C1808 0.950 . S
H1779 C1809 0.950 . S
C1780 H1762 0.951 . S
C1780 C1781 1.366 . S
C1780 C1782 1.388 . S
C1781 C1780 1.366 . S
C1781 C1785 1.385 . S
C1782 H1763 0.951 . S
C1782 C1780 1.388 . S
C1782 C1783 1.366 . S
C1783 C1782 1.366 . S
C1783 C1784 1.414 . S
C1783 C1786 1.499 . S
C1784 H1764 0.950 . S
C1784 C1783 1.414 . S
C1784 C1785 1.374 . S
C1785 H1765 0.950 . S
C1785 C1781 1.385 . S
C1785 C1784 1.374 . S
C1786 C1783 1.499 . S
C1786 C1787 1.373 . S
C1786 C1788 1.389 . S
C1787 H1766 0.950 . S
C1787 C1786 1.373 . S
C1787 C1803 1.377 . S
C1788 C1786 1.389 . S
C1788 C1789 1.524 . S
C1788 C1802 1.377 . S
C1789 C1788 1.524 . S
C1789 C1790 1.397 . S
C1789 C1794 1.363 . S
C1790 H1767 0.950 . S
C1790 C1789 1.397 . S
C1790 C1791 1.334 . S
C1791 H1768 0.950 . S
C1791 C1790 1.334 . S
C1791 C1792 1.287 . S
C1792 C1791 1.287 . S
C1792 C1793 1.524 . S
C1792 H1811 0.913 . S
C1793 H1769 0.950 . S
C1793 C1792 1.524 . S
C1793 C1794 1.415 . S
C1794 H1770 0.950 . S
C1794 C1789 1.363 . S
C1794 C1793 1.415 . S
C1795 H1771 0.951 . S
C1795 C1796 1.366 . S
C1795 C1797 1.388 . S
C1796 C1795 1.366 . S
C1796 C1800 1.385 . S
C1797 H1772 0.951 . S
C1797 C1795 1.388 . S
C1797 C1798 1.366 . S
C1798 C1797 1.366 . S
C1798 C1799 1.414 . S
C1798 C1801 1.499 . S
C1799 H1773 0.950 . S
C1799 C1798 1.414 . S
C1799 C1800 1.374 . S
C1800 H1774 0.950 . S
C1800 C1796 1.385 . S
C1800 C1799 1.374 . S
C1801 C1798 1.499 . S
C1801 C1802 1.373 . S
C1801 C1803 1.389 . S
C1802 H1775 0.950 . S
C1802 C1788 1.377 . S
C1802 C1801 1.373 . S
C1803 C1787 1.377 . S
C1803 C1801 1.389 . S
C1803 C1804 1.524 . S
C1804 C1803 1.524 . S
C1804 C1805 1.397 . S
C1804 C1809 1.363 . S
C1805 H1776 0.950 . S
C1805 C1804 1.397 . S
C1805 C1806 1.334 . S
C1806 H1777 0.950 . S
C1806 C1805 1.334 . S
C1806 C1807 1.287 . S
C1807 C1806 1.287 . S
C1807 C1808 1.524 . S
C1807 H1810 0.999 . S
C1808 H1778 0.950 . S
C1808 C1807 1.524 . S
C1808 C1809 1.415 . S
C1809 H1779 0.950 . S
C1809 C1804 1.363 . S
C1809 C1808 1.415 . S
H1810 C1807 0.999 . S
H1811 C1792 0.913 . S
H1812 C1830 0.951 . S
H1813 C1832 0.951 . S
H1814 C1834 0.950 . S
H1815 C1835 0.950 . S
H1816 C1837 0.950 . S
H1817 C1840 0.950 . S
H1818 C1841 0.950 . S
H1819 C1843 0.950 . S
H1820 C1844 0.950 . S
H1821 C1845 0.951 . S
H1822 C1847 0.951 . S
H1823 C1849 0.950 . S
H1824 C1850 0.950 . S
H1825 C1852 0.950 . S
H1826 C1855 0.950 . S
H1827 C1856 0.950 . S
H1828 C1858 0.950 . S
H1829 C1859 0.950 . S
C1830 H1812 0.951 . S
C1830 C1831 1.366 . S
C1830 C1832 1.388 . S
C1831 C1830 1.366 . S
C1831 C1835 1.385 . S
C1832 H1813 0.951 . S
C1832 C1830 1.388 . S
C1832 C1833 1.366 . S
C1833 C1832 1.366 . S
C1833 C1834 1.414 . S
C1833 C1836 1.499 . S
C1834 H1814 0.950 . S
C1834 C1833 1.414 . S
C1834 C1835 1.374 . S
C1835 H1815 0.950 . S
C1835 C1831 1.385 . S
C1835 C1834 1.374 . S
C1836 C1833 1.499 . S
C1836 C1837 1.373 . S
C1836 C1838 1.389 . S
C1837 H1816 0.950 . S
C1837 C1836 1.373 . S
C1837 C1853 1.377 . S
C1838 C1836 1.389 . S
C1838 C1839 1.524 . S
C1838 C1852 1.377 . S
C1839 C1838 1.524 . S
C1839 C1840 1.397 . S
C1839 C1844 1.363 . S
C1840 H1817 0.950 . S
C1840 C1839 1.397 . S
C1840 C1841 1.334 . S
C1841 H1818 0.950 . S
C1841 C1840 1.334 . S
C1841 C1842 1.287 . S
C1842 C1841 1.287 . S
C1842 C1843 1.524 . S
C1842 H1861 0.913 . S
C1843 H1819 0.950 . S
C1843 C1842 1.524 . S
C1843 C1844 1.415 . S
C1844 H1820 0.950 . S
C1844 C1839 1.363 . S
C1844 C1843 1.415 . S
C1845 H1821 0.951 . S
C1845 C1846 1.366 . S
C1845 C1847 1.388 . S
C1846 C1845 1.366 . S
C1846 C1850 1.385 . S
C1847 H1822 0.951 . S
C1847 C1845 1.388 . S
C1847 C1848 1.366 . S
C1848 C1847 1.366 . S
C1848 C1849 1.414 . S
C1848 C1851 1.499 . S
C1849 H1823 0.950 . S
C1849 C1848 1.414 . S
C1849 C1850 1.374 . S
C1850 H1824 0.950 . S
C1850 C1846 1.385 . S
C1850 C1849 1.374 . S
C1851 C1848 1.499 . S
C1851 C1852 1.373 . S
C1851 C1853 1.389 . S
C1852 H1825 0.950 . S
C1852 C1838 1.377 . S
C1852 C1851 1.373 . S
C1853 C1837 1.377 . S
C1853 C1851 1.389 . S
C1853 C1854 1.524 . S
C1854 C1853 1.524 . S
C1854 C1855 1.397 . S
C1854 C1859 1.363 . S
C1855 H1826 0.950 . S
C1855 C1854 1.397 . S
C1855 C1856 1.334 . S
C1856 H1827 0.950 . S
C1856 C1855 1.334 . S
C1856 C1857 1.287 . S
C1857 C1856 1.287 . S
C1857 C1858 1.524 . S
C1857 H1860 0.999 . S
C1858 H1828 0.950 . S
C1858 C1857 1.524 . S
C1858 C1859 1.415 . S
C1859 H1829 0.950 . S
C1859 C1854 1.363 . S
C1859 C1858 1.415 . S
H1860 C1857 0.999 . S
H1861 C1842 0.913 . S
H1862 C1880 0.951 . S
H1863 C1882 0.951 . S
H1864 C1884 0.950 . S
H1865 C1885 0.950 . S
H1866 C1887 0.950 . S
H1867 C1890 0.950 . S
H1868 C1891 0.950 . S
H1869 C1893 0.950 . S
H1870 C1894 0.950 . S
H1871 C1895 0.951 . S
H1872 C1897 0.951 . S
H1873 C1899 0.950 . S
H1874 C1900 0.950 . S
H1875 C1902 0.950 . S
H1876 C1905 0.950 . S
H1877 C1906 0.950 . S
H1878 C1908 0.950 . S
H1879 C1909 0.950 1_554 S
C1880 H1862 0.951 . S
C1880 C1881 1.366 . S
C1880 C1882 1.388 . S
C1881 C1880 1.366 . S
C1881 C1885 1.385 . S
C1882 H1863 0.951 . S
C1882 C1880 1.388 . S
C1882 C1883 1.366 . S
C1883 C1882 1.366 . S
C1883 C1884 1.414 . S
C1883 C1886 1.499 . S
C1884 H1864 0.950 . S
C1884 C1883 1.414 . S
C1884 C1885 1.374 . S
C1885 H1865 0.950 . S
C1885 C1881 1.385 . S
C1885 C1884 1.374 . S
C1886 C1883 1.499 . S
C1886 C1887 1.373 . S
C1886 C1888 1.389 . S
C1887 H1866 0.950 . S
C1887 C1886 1.373 . S
C1887 C1903 1.377 1_554 S
C1888 C1886 1.389 . S
C1888 C1889 1.524 . S
C1888 C1902 1.377 1_554 S
C1889 C1888 1.524 . S
C1889 C1890 1.397 . S
C1889 C1894 1.363 . S
C1890 H1867 0.950 . S
C1890 C1889 1.397 . S
C1890 C1891 1.334 . S
C1891 H1868 0.950 . S
C1891 C1890 1.334 . S
C1891 C1892 1.287 . S
C1892 C1891 1.287 . S
C1892 C1893 1.524 . S
C1892 H1911 0.913 . S
C1893 H1869 0.950 . S
C1893 C1892 1.524 . S
C1893 C1894 1.415 . S
C1894 H1870 0.950 . S
C1894 C1889 1.363 . S
C1894 C1893 1.415 . S
C1895 H1871 0.951 . S
C1895 C1896 1.366 . S
C1895 C1897 1.388 . S
C1896 C1895 1.366 . S
C1896 C1900 1.385 . S
C1897 H1872 0.951 . S
C1897 C1895 1.388 . S
C1897 C1898 1.366 . S
C1898 C1897 1.366 . S
C1898 C1899 1.414 . S
C1898 C1901 1.499 . S
C1899 H1873 0.950 . S
C1899 C1898 1.414 . S
C1899 C1900 1.374 . S
C1900 H1874 0.950 . S
C1900 C1896 1.385 . S
C1900 C1899 1.374 . S
C1901 C1898 1.499 . S
C1901 C1902 1.373 . S
C1901 C1903 1.389 . S
C1902 H1875 0.950 . S
C1902 C1888 1.377 1_556 S
C1902 C1901 1.373 . S
C1903 C1887 1.377 1_556 S
C1903 C1901 1.389 . S
C1903 C1904 1.524 . S
C1904 C1903 1.524 . S
C1904 C1905 1.397 . S
C1904 C1909 1.363 . S
C1905 H1876 0.950 . S
C1905 C1904 1.397 . S
C1905 C1906 1.334 . S
C1906 H1877 0.950 . S
C1906 C1905 1.334 . S
C1906 C1907 1.287 . S
C1907 C1906 1.287 . S
C1907 C1908 1.524 . S
C1907 H1910 0.999 . S
C1908 H1878 0.950 . S
C1908 C1907 1.524 . S
C1908 C1909 1.415 . S
C1909 H1879 0.950 1_556 S
C1909 C1904 1.363 . S
C1909 C1908 1.415 . S
H1910 C1907 0.999 . S
H1911 C1892 0.913 . S
H1912 C1930 0.951 . S
H1913 C1932 0.951 . S
H1914 C1934 0.950 . S
H1915 C1935 0.950 . S
H1916 C1937 0.950 . S
H1917 C1940 0.950 . S
H1918 C1941 0.950 . S
H1919 C1943 0.950 . S
H1920 C1944 0.950 . S
H1921 C1945 0.951 . S
H1922 C1947 0.951 . S
H1923 C1949 0.950 . S
H1924 C1950 0.950 . S
H1925 C1952 0.950 . S
H1926 C1955 0.950 . S
H1927 C1956 0.950 . S
H1928 C1958 0.950 . S
H1929 C1959 0.950 . S
C1930 H1912 0.951 . S
C1930 C1931 1.366 . S
C1930 C1932 1.388 . S
C1931 C1930 1.366 . S
C1931 C1935 1.385 . S
C1932 H1913 0.951 . S
C1932 C1930 1.388 . S
C1932 C1933 1.366 . S
C1933 C1932 1.366 . S
C1933 C1934 1.414 . S
C1933 C1936 1.499 . S
C1934 H1914 0.950 . S
C1934 C1933 1.414 . S
C1934 C1935 1.374 . S
C1935 H1915 0.950 . S
C1935 C1931 1.385 . S
C1935 C1934 1.374 . S
C1936 C1933 1.499 . S
C1936 C1937 1.373 . S
C1936 C1938 1.389 . S
C1937 H1916 0.950 . S
C1937 C1936 1.373 . S
C1937 C1953 1.377 . S
C1938 C1936 1.389 . S
C1938 C1939 1.524 . S
C1938 C1952 1.377 . S
C1939 C1938 1.524 . S
C1939 C1940 1.397 . S
C1939 C1944 1.363 . S
C1940 H1917 0.950 . S
C1940 C1939 1.397 . S
C1940 C1941 1.334 . S
C1941 H1918 0.950 . S
C1941 C1940 1.334 . S
C1941 C1942 1.287 . S
C1942 C1941 1.287 . S
C1942 C1943 1.524 . S
C1942 H1961 0.913 . S
C1943 H1919 0.950 . S
C1943 C1942 1.524 . S
C1943 C1944 1.415 . S
C1944 H1920 0.950 . S
C1944 C1939 1.363 . S
C1944 C1943 1.415 . S
C1945 H1921 0.951 . S
C1945 C1946 1.366 . S
C1945 C1947 1.388 . S
C1946 C1945 1.366 . S
C1946 C1950 1.385 . S
C1947 H1922 0.951 . S
C1947 C1945 1.388 . S
C1947 C1948 1.366 . S
C1948 C1947 1.366 . S
C1948 C1949 1.414 . S
C1948 C1951 1.499 . S
C1949 H1923 0.950 . S
C1949 C1948 1.414 . S
C1949 C1950 1.374 . S
C1950 H1924 0.950 . S
C1950 C1946 1.385 . S
C1950 C1949 1.374 . S
C1951 C1948 1.499 . S
C1951 C1952 1.373 . S
C1951 C1953 1.389 . S
C1952 H1925 0.950 . S
C1952 C1938 1.377 . S
C1952 C1951 1.373 . S
C1953 C1937 1.377 . S
C1953 C1951 1.389 . S
C1953 C1954 1.524 . S
C1954 C1953 1.524 . S
C1954 C1955 1.397 . S
C1954 C1959 1.363 . S
C1955 H1926 0.950 . S
C1955 C1954 1.397 . S
C1955 C1956 1.334 . S
C1956 H1927 0.950 . S
C1956 C1955 1.334 . S
C1956 C1957 1.287 . S
C1957 C1956 1.287 . S
C1957 C1958 1.524 . S
C1957 H1960 0.999 . S
C1958 H1928 0.950 . S
C1958 C1957 1.524 . S
C1958 C1959 1.415 . S
C1959 H1929 0.950 . S
C1959 C1954 1.363 . S
C1959 C1958 1.415 . S
H1960 C1957 0.999 . S
H1961 C1942 0.913 . S
C796 C754 1.576 . S
C781 C1 1.200 . S
C831 C169 1.359 . S
C846 C689 1.725 . S
C881 C283 1.333 . S
C896 C707 1.700 . S
C931 C397 1.188 . S
C946 C720 1.528 . S
C996 C728 1.399 . S
C981 C457 1.076 . S
C1031 C571 1.086 . S
C1046 C740 1.418 . S
C1081 C115 1.198 . S
C1096 C702 1.569 . S
C1131 C229 1.089 . S
C1146 C715 1.425 . S
C1181 C343 1.071 . S
C1196 C733 1.387 . S
C1246 C739 1.549 . S
C1231 C511 1.207 . S
C1296 C759 1.681 . S
C1281 C625 1.316 . S
C1346 C694 1.733 . S
C1331 C55 1.369 . S
C1381 C29 1.282 . S
C1396 C700 1.521 . S
C1431 C125 0.955 . S
C1446 C713 1.658 . S
C1496 C727 1.572 . S
C1481 C239 0.903 . S
C1531 C353 0.912 . S
C1546 C741 1.577 . S
C1596 C753 1.433 . S
C1581 C485 1.207 . S
C1646 C688 1.520 . S
C1631 C599 1.278 . S
C1696 C752 1.533 . S
C1681 C143 1.297 . S
C1731 C257 1.272 . S
C1746 C687 1.517 . S
C1796 C701 1.446 . S
C1781 C371 1.217 . S
C1831 C467 0.903 . S
C1846 C714 1.554 . S
C1881 C581 0.907 . S
C1896 C726 1.587 . S
C1931 C11 0.953 . S
C1946 C746 1.644 . S
